# Generated by pormake.
# Topology sit, (3,6)-cn, num edge types: 1
# Building blocks:
#     Node 0, Type 0, BuildingBlock: KAKCAD_clean_linker_0, # of connection points: 3
#     Node 1, Type 0, BuildingBlock: KAKCAD_clean_linker_0, # of connection points: 3
#     Node 2, Type 0, BuildingBlock: KAKCAD_clean_linker_0, # of connection points: 3
#     Node 3, Type 0, BuildingBlock: KAKCAD_clean_linker_0, # of connection points: 3
#     Node 4, Type 1, BuildingBlock: MIDCAF_clean_sbu_0, # of connection points: 6
#     Node 5, Type 1, BuildingBlock: MIDCAF_clean_sbu_0, # of connection points: 6
#     Edge 6, Type (0, 1), BuildingBlock: ZUJKAS_clean_linker_0, # of connection points: 2
#     Edge 7, Type (0, 1), BuildingBlock: ZUJKAS_clean_linker_0, # of connection points: 2
#     Edge 8, Type (0, 1), BuildingBlock: ZUJKAS_clean_linker_0, # of connection points: 2
#     Edge 9, Type (0, 1), BuildingBlock: ZUJKAS_clean_linker_0, # of connection points: 2
#     Edge 10, Type (0, 1), BuildingBlock: ZUJKAS_clean_linker_0, # of connection points: 2
#     Edge 11, Type (0, 1), BuildingBlock: ZUJKAS_clean_linker_0, # of connection points: 2
#     Edge 12, Type (0, 1), BuildingBlock: ZUJKAS_clean_linker_0, # of connection points: 2
#     Edge 13, Type (0, 1), BuildingBlock: ZUJKAS_clean_linker_0, # of connection points: 2
#     Edge 14, Type (0, 1), BuildingBlock: ZUJKAS_clean_linker_0, # of connection points: 2
#     Edge 15, Type (0, 1), BuildingBlock: ZUJKAS_clean_linker_0, # of connection points: 2
#     Edge 16, Type (0, 1), BuildingBlock: ZUJKAS_clean_linker_0, # of connection points: 2
#     Edge 17, Type (0, 1), BuildingBlock: ZUJKAS_clean_linker_0, # of connection points: 2
# Relax obj value: 0.110
# Max RMSD: 0.193
# Mean RMSD: 0.106
data_MOF--net-sit--node1-MIDCAF_clean_sbu_0--node2-KAKCAD_clean_linker_0--edge1-ZUJKAS_clean_linker_0
_symmetry_space_group_name_H-M    P1
_symmetry_Int_Tables_number       1
_symmetry_cell_setting            triclinic
loop_
_symmetry_equiv_pos_as_xyz
'x, y, z'
_cell_length_a     35.249058
_cell_length_b     48.57931
_cell_length_c     53.64044
_cell_angle_alpha  89.988225
_cell_angle_beta   89.472218
_cell_angle_gamma 84.515906
loop_
_atom_site_label
_atom_site_type_symbol
_atom_site_fract_x
_atom_site_fract_y
_atom_site_fract_z
_atom_type_partial_charge
C0 C 0.20628 0.33352 -0.00302 0.0
C1 C 0.21196 0.36162 -0.00034 0.0
C2 C 0.17431 0.32301 0.00762 0.0
C3 C 0.14742 0.3404 0.02118 0.0
C4 C 0.15398 0.36822 0.0247 0.0
C5 C 0.18585 0.37873 0.01403 0.0
C6 C 0.11138 0.33013 0.03014 0.0
C7 C 0.11109 0.30381 0.04096 0.0
C8 C 0.0766 0.2939 0.04856 0.0
C9 C 0.04221 0.3106 0.04509 0.0
C10 C 0.04204 0.33689 0.0342 0.0
C11 C 0.07674 0.34647 0.02688 0.0
C12 C 0.00572 0.35382 0.0289 0.0
C13 C 0.9753 0.34168 0.018 0.0
C14 C 0.00227 0.38257 0.03293 0.0
C15 C 0.96982 0.39898 0.02515 0.0
C16 C 0.94026 0.38698 0.01309 0.0
C17 C 0.07637 0.26615 0.06014 0.0
C18 C 0.09882 0.24318 0.05023 0.0
C19 C 0.05355 0.26249 0.08124 0.0
C20 C 0.05319 0.23648 0.09225 0.0
C21 C 0.07552 0.21343 0.08236 0.0
C22 C 0.09837 0.21708 0.0612 0.0
C23 C 0.94293 0.35809 0.01015 0.0
H24 H 0.22573 0.31988 0.98581 0.0
H25 H 0.16987 0.30156 0.00436 0.0
H26 H 0.13412 0.38201 0.03544 0.0
H27 H 0.18985 0.40034 0.01681 0.0
H28 H 0.13777 0.29124 0.04387 0.0
H29 H 0.07662 0.36629 0.01758 0.0
H30 H 0.01545 0.30299 0.05061 0.0
H31 H 0.97719 0.31963 0.01451 0.0
H32 H 0.0251 0.39245 0.04157 0.0
H33 H 0.96864 0.42118 0.02759 0.0
H34 H 0.11636 0.24532 0.03378 0.0
H35 H 0.03642 0.27986 0.08956 0.0
H36 H 0.92034 0.34823 0.00122 0.0
H37 H 0.11563 0.19972 0.05298 0.0
H38 H 0.03596 0.2346 0.10887 0.0
C39 C 0.9195 0.68538 -0.00298 0.0
C40 C 0.91034 0.65787 -0.00162 0.0
C41 C 0.95179 0.69334 0.00902 0.0
C42 C 0.97546 0.67392 0.02259 0.0
C43 C 0.96534 0.64674 0.02477 0.0
C44 C 0.93318 0.6388 0.0128 0.0
C45 C 0.01182 0.68136 0.03321 0.0
C46 C 0.01381 0.70648 0.04584 0.0
C47 C 0.04852 0.71336 0.05567 0.0
C48 C 0.08142 0.69482 0.05265 0.0
C49 C 0.07999 0.66975 0.03979 0.0
C50 C 0.04504 0.66328 0.03016 0.0
C51 C 0.1151 0.65086 0.0351 0.0
C52 C 0.14946 0.66157 0.02846 0.0
C53 C 0.11387 0.62198 0.03545 0.0
C54 C 0.14558 0.60432 0.02804 0.0
C55 C 0.17934 0.61514 0.02042 0.0
C56 C 0.05048 0.73985 0.06919 0.0
C57 C 0.03205 0.76467 0.05993 0.0
C58 C 0.07099 0.74046 0.09148 0.0
C59 C 0.07289 0.76527 0.10429 0.0
C60 C 0.05436 0.79009 0.09513 0.0
C61 C 0.03408 0.78957 0.07273 0.0
C62 C 0.18125 0.64389 0.02129 0.0
H63 H 0.90254 0.70049 0.98593 0.0
H64 H 0.95903 0.71438 0.00687 0.0
H65 H 0.98263 0.63146 0.03552 0.0
H66 H 0.92637 0.61761 0.01464 0.0
H67 H 0.98816 0.72038 0.04851 0.0
H68 H 0.04388 0.64451 0.0194 0.0
H69 H 0.10827 0.70007 0.0601 0.0
H70 H 0.15133 0.68367 0.02764 0.0
H71 H 0.0881 0.61302 0.04096 0.0
H72 H 0.14348 0.58222 0.02778 0.0
H73 H 0.01633 0.76488 0.04266 0.0
H74 H 0.08524 0.72166 0.0992 0.0
H75 H 0.20674 0.65285 0.01518 0.0
H76 H 0.01933 0.80833 0.06529 0.0
H77 H 0.08913 0.76504 0.12135 0.0
C78 C 0.70435 0.84535 0.50614 0.0
C79 C 0.70489 0.87431 0.506 0.0
C80 C 0.67382 0.83311 0.51692 0.0
C81 C 0.64336 0.84952 0.52814 0.0
C82 C 0.64512 0.8783 0.52936 0.0
C83 C 0.6752 0.89054 0.51822 0.0
C84 C 0.6086 0.83716 0.53698 0.0
C85 C 0.61077 0.8111 0.54857 0.0
C86 C 0.57747 0.79955 0.55631 0.0
C87 C 0.54177 0.81457 0.55267 0.0
C88 C 0.53912 0.84061 0.54109 0.0
C89 C 0.57262 0.85141 0.53304 0.0
C90 C 0.50164 0.8564 0.53629 0.0
C91 C 0.4706 0.84299 0.52773 0.0
C92 C 0.49759 0.88542 0.53841 0.0
C93 C 0.46432 0.90076 0.53063 0.0
C94 C 0.43409 0.88742 0.52098 0.0
C95 C 0.57988 0.77176 0.5681 0.0
C96 C 0.60431 0.74974 0.55828 0.0
C97 C 0.55739 0.76698 0.58911 0.0
C98 C 0.55913 0.7408 0.60002 0.0
C99 C 0.58329 0.71866 0.59012 0.0
C100 C 0.60598 0.72347 0.56916 0.0
C101 C 0.43706 0.85837 0.52025 0.0
H102 H 0.72715 0.83206 0.49749 0.0
H103 H 0.67347 0.8109 0.5156 0.0
H104 H 0.62266 0.89156 0.5384 0.0
H105 H 0.67425 0.91288 0.51842 0.0
H106 H 0.63836 0.79998 0.55197 0.0
H107 H 0.57056 0.87075 0.52285 0.0
H108 H 0.51601 0.80587 0.55865 0.0
H109 H 0.47283 0.82072 0.52566 0.0
H110 H 0.52059 0.89638 0.54549 0.0
H111 H 0.4625 0.92313 0.53167 0.0
H112 H 0.62167 0.75271 0.54191 0.0
H113 H 0.53875 0.78361 0.59737 0.0
H114 H 0.41421 0.84761 0.51268 0.0
H115 H 0.62462 0.70684 0.56092 0.0
H116 H 0.54191 0.73803 0.61649 0.0
C117 C 0.42 0.17487 0.50503 0.0
C118 C 0.41527 0.14644 0.5039 0.0
C119 C 0.45142 0.1842 0.51701 0.0
C120 C 0.47863 0.16538 0.52846 0.0
C121 C 0.47301 0.1371 0.52823 0.0
C122 C 0.442 0.12773 0.51592 0.0
C123 C 0.5137 0.17485 0.53956 0.0
C124 C 0.51281 0.20019 0.55229 0.0
C125 C 0.54627 0.20925 0.5622 0.0
C126 C 0.58079 0.19229 0.55977 0.0
C127 C 0.58221 0.16685 0.54715 0.0
C128 C 0.54863 0.15862 0.53684 0.0
C129 C 0.61876 0.1492 0.54353 0.0
C130 C 0.65264 0.16109 0.53785 0.0
C131 C 0.61946 0.12017 0.54399 0.0
C132 C 0.65254 0.1035 0.53745 0.0
C133 C 0.68583 0.11547 0.53077 0.0
C134 C 0.54518 0.23652 0.5749 0.0
C135 C 0.52383 0.25987 0.56499 0.0
C136 C 0.56556 0.23944 0.59698 0.0
C137 C 0.56441 0.26504 0.60895 0.0
C138 C 0.54283 0.28835 0.59917 0.0
C139 C 0.52271 0.28551 0.57696 0.0
C140 C 0.68588 0.14438 0.53166 0.0
H141 H 0.39962 0.18998 0.49646 0.0
H142 H 0.45487 0.20611 0.51666 0.0
H143 H 0.49291 0.12202 0.53729 0.0
H144 H 0.43971 0.10568 0.51529 0.0
H145 H 0.48594 0.21271 0.55486 0.0
H146 H 0.54994 0.13981 0.52589 0.0
H147 H 0.60664 0.19905 0.56748 0.0
H148 H 0.65311 0.18333 0.53702 0.0
H149 H 0.59414 0.11028 0.54886 0.0
H150 H 0.6519 0.08125 0.53714 0.0
H151 H 0.50818 0.25838 0.54783 0.0
H152 H 0.58205 0.22185 0.60521 0.0
H153 H 0.71109 0.15414 0.52629 0.0
H154 H 0.50561 0.303 0.56904 0.0
H155 H 0.58065 0.2666 0.62586 0.0
Zn156 Zn 0.03702 0.06714 0.3341 0.0
Zn157 Zn 0.07679 0.95647 0.33423 0.0
Zn158 Zn 0.05948 0.01225 0.3352 0.0
C159 C 0.06944 0.97442 0.28506 0.0
C160 C 0.007 0.96778 0.35966 0.0
O161 O 0.10533 0.03183 0.35333 0.0
O162 O 0.08476 0.0763 0.35097 0.0
C163 C 0.04506 0.04988 0.28497 0.0
O164 O 0.06269 0.99802 0.29597 0.0
O165 O 0.07661 0.95255 0.29752 0.0
O166 O 0.03096 0.94778 0.35375 0.0
O167 O 0.01323 0.99279 0.35415 0.0
O168 O 0.03282 0.07095 0.29745 0.0
O169 O 0.0564 0.02703 0.29604 0.0
O170 O 0.00685 0.02178 0.35764 0.0
O171 O 0.99023 0.06681 0.35466 0.0
C172 C 0.98457 0.04346 0.36348 0.0
O173 O 0.11297 0.00265 0.35581 0.0
O174 O 0.12586 0.95727 0.35182 0.0
C175 C 0.1099 0.0574 0.35749 0.0
C176 C 0.1343 0.98017 0.36022 0.0
Zn177 Zn 0.53534 0.56065 0.83382 0.0
Zn178 Zn 0.59269 0.45423 0.83472 0.0
Zn179 Zn 0.56432 0.50763 0.83509 0.0
C180 C 0.58289 0.47004 0.78523 0.0
C181 C 0.52079 0.45818 0.85868 0.0
O182 O 0.60519 0.53145 0.8546 0.0
O183 O 0.57729 0.57428 0.85386 0.0
C184 C 0.55083 0.54482 0.78474 0.0
O185 O 0.57041 0.493 0.79585 0.0
O186 O 0.59563 0.44957 0.79818 0.0
O187 O 0.54869 0.44082 0.85332 0.0
O188 O 0.52168 0.48393 0.85314 0.0
O189 O 0.53628 0.56526 0.79721 0.0
O190 O 0.56248 0.52201 0.79576 0.0
O191 O 0.50878 0.51237 0.85531 0.0
O192 O 0.48631 0.55621 0.8506 0.0
C193 C 0.48275 0.53244 0.85925 0.0
O194 O 0.6174 0.50284 0.85708 0.0
O195 O 0.63971 0.45881 0.85318 0.0
C196 C 0.60494 0.55728 0.86017 0.0
C197 C 0.64262 0.4826 0.86193 0.0
H198 H 0.13657 0.17513 0.09052 0.0
H199 H 0.13758 0.13274 0.1152 0.0
H200 H 0.01645 0.14833 0.12811 0.0
H201 H 0.01488 0.18976 0.10249 0.0
H202 H 0.12198 0.13278 0.16288 0.0
H203 H 0.02408 0.06664 0.1181 0.0
H204 H 0.04237 0.09533 0.10202 0.0
H205 H 0.00086 0.10081 0.12198 0.0
C206 C 0.10994 0.16904 0.09792 0.0
C207 C 0.07568 0.186 0.09471 0.0
C208 C 0.1106 0.14483 0.1121 0.0
C209 C 0.07703 0.13707 0.12327 0.0
C210 C 0.04258 0.15338 0.1192 0.0
H211 H -0.00412 0.07917 0.25422 0.0
H212 H 0.00772 0.09209 0.211 0.0
C213 C 0.04185 0.17743 0.10491 0.0
C214 C 0.07857 0.11466 0.14217 0.0
H215 H 0.02929 0.06212 0.16364 0.0
C216 C 0.10259 0.11675 0.16268 0.0
C217 C 0.05339 0.09363 0.1419 0.0
C218 C 0.02907 0.08881 0.11963 0.0
C219 C 0.0997 0.10009 0.18382 0.0
C220 C 0.07227 0.08067 0.18435 0.0
C221 C 0.05018 0.07713 0.16318 0.0
C222 C 0.0621 0.06753 0.20805 0.0
C223 C 0.12392 0.10491 0.2062 0.0
C224 C 0.0881 0.04856 0.22031 0.0
C225 C 0.08136 0.0412 0.24508 0.0
C226 C 0.04851 0.05262 0.25773 0.0
C227 C 0.0214 0.07008 0.24483 0.0
C228 C 0.02804 0.07735 0.22013 0.0
H229 H 0.14113 0.12271 0.20354 0.0
H230 H 0.10567 0.10878 0.22306 0.0
H231 H 0.1437 0.08617 0.2097 0.0
H232 H 0.11456 0.04078 0.21124 0.0
H233 H 0.10309 0.02828 0.25487 0.0
H234 H 0.06607 0.8415 0.07689 0.0
H235 H 0.07239 0.88381 0.101 0.0
H236 H 0.05237 0.83988 0.169 0.0
H237 H 0.04586 0.79782 0.14521 0.0
H238 H 0.02174 0.91402 0.13608 0.0
H239 H 0.15607 0.87097 0.17961 0.0
H240 H 0.13701 0.85599 0.15215 0.0
H241 H 0.11927 0.84805 0.18264 0.0
C242 C 0.06267 0.84099 0.09696 0.0
C243 C 0.05602 0.81624 0.10921 0.0
C244 C 0.06638 0.86512 0.11067 0.0
C245 C 0.0636 0.86476 0.13677 0.0
C246 C 0.05549 0.84038 0.14889 0.0
H247 H 0.00808 0.96396 0.25851 0.0
H248 H 0.00901 0.94519 0.2163 0.0
C249 C 0.05186 0.81636 0.13529 0.0
C250 C 0.06974 0.88943 0.15182 0.0
H251 H 0.12037 0.90817 0.2017 0.0
C252 C 0.04376 0.91311 0.15012 0.0
C253 C 0.09919 0.88858 0.16956 0.0
C254 C 0.12973 0.86464 0.17094 0.0
C255 C 0.04457 0.93498 0.16723 0.0
C256 C 0.07147 0.93267 0.18675 0.0
C257 C 0.0994 0.91 0.18697 0.0
C258 C 0.06836 0.95095 0.20903 0.0
C259 C 0.01607 0.95996 0.16452 0.0
C260 C 0.10113 0.96098 0.21903 0.0
C261 C 0.10075 0.97103 0.24346 0.0
C262 C 0.06736 0.97189 0.25793 0.0
C263 C 0.03385 0.96406 0.24735 0.0
C264 C 0.03436 0.95352 0.22312 0.0
H265 H 0.00978 0.96419 0.14455 0.0
H266 H 0.98892 0.95583 0.1738 0.0
H267 H 0.02642 0.97868 0.17299 0.0
H268 H 0.12774 0.95907 0.20864 0.0
H269 H 0.12708 0.97645 0.25156 0.0
H270 H 0.64636 0.68213 0.59831 0.0
H271 H 0.6494 0.6385 0.62136 0.0
H272 H 0.52765 0.64967 0.63305 0.0
H273 H 0.52416 0.69237 0.6091 0.0
H274 H 0.63253 0.63446 0.66879 0.0
H275 H 0.54035 0.56884 0.61812 0.0
H276 H 0.5576 0.59916 0.60416 0.0
H277 H 0.51518 0.60213 0.62343 0.0
C278 C 0.6201 0.67487 0.60515 0.0
C279 C 0.58503 0.69088 0.60201 0.0
C280 C 0.62191 0.64995 0.6184 0.0
C281 C 0.5887 0.64049 0.62863 0.0
C282 C 0.55357 0.65603 0.6248 0.0
H283 H 0.50377 0.57503 0.75347 0.0
H284 H 0.51843 0.58979 0.71127 0.0
C285 C 0.55171 0.6808 0.61148 0.0
C286 C 0.59094 0.61673 0.64617 0.0
H287 H 0.5435 0.56158 0.66352 0.0
C288 C 0.61401 0.61796 0.66726 0.0
C289 C 0.56703 0.59503 0.64411 0.0
C290 C 0.54401 0.59107 0.62105 0.0
C291 C 0.61108 0.59979 0.68736 0.0
C292 C 0.58452 0.57978 0.68623 0.0
C293 C 0.5637 0.57705 0.66436 0.0
C294 C 0.5731 0.56553 0.70909 0.0
C295 C 0.63404 0.60363 0.71051 0.0
C296 C 0.59832 0.54602 0.72139 0.0
C297 C 0.58989 0.53746 0.7456 0.0
C298 C 0.55626 0.54844 0.7577 0.0
C299 C 0.52996 0.56637 0.74459 0.0
C300 C 0.53822 0.57471 0.72045 0.0
H301 H 0.65143 0.62147 0.70895 0.0
H302 H 0.61482 0.60687 0.72698 0.0
H303 H 0.65353 0.58471 0.71389 0.0
H304 H 0.62533 0.53863 0.71282 0.0
H305 H 0.61074 0.52375 0.75541 0.0
H306 H 0.53584 0.29761 0.64923 0.0
H307 H 0.53573 0.34141 0.67133 0.0
H308 H 0.54432 0.38434 0.60141 0.0
H309 H 0.54578 0.34017 0.57905 0.0
H310 H 0.59469 0.40028 0.63529 0.0
H311 H 0.45263 0.40407 0.67939 0.0
H312 H 0.47854 0.37119 0.68526 0.0
H313 H 0.46653 0.38113 0.6537 0.0
C314 C 0.53778 0.31632 0.6385 0.0
C315 C 0.54095 0.31536 0.61238 0.0
C316 C 0.53711 0.34144 0.65115 0.0
C317 C 0.53916 0.36625 0.638 0.0
C318 C 0.54221 0.36548 0.6119 0.0
H319 H 0.52768 0.49284 0.75374 0.0
H320 H 0.51608 0.47761 0.71109 0.0
C321 C 0.54288 0.34025 0.59916 0.0
C322 C 0.54092 0.3924 0.65202 0.0
H323 H 0.50048 0.4269 0.70234 0.0
C324 C 0.5736 0.40663 0.64953 0.0
C325 C 0.51289 0.4014 0.67002 0.0
C326 C 0.47549 0.38881 0.67203 0.0
C327 C 0.58085 0.42757 0.66639 0.0
C328 C 0.55524 0.43387 0.68651 0.0
C329 C 0.52059 0.4218 0.68723 0.0
C330 C 0.56655 0.4485 0.70917 0.0
C331 C 0.61671 0.44185 0.66308 0.0
C332 C 0.59934 0.43793 0.72194 0.0
C333 C 0.60607 0.44671 0.74607 0.0
C334 C 0.58005 0.46614 0.75806 0.0
C335 C 0.54851 0.47815 0.74478 0.0
C336 C 0.54176 0.46935 0.72048 0.0
H337 H 0.62349 0.44422 0.64297 0.0
H338 H 0.61415 0.46258 0.67202 0.0
H339 H 0.64097 0.42899 0.67153 0.0
H340 H 0.61837 0.42131 0.71404 0.0
H341 H 0.63055 0.43705 0.75592 0.0
H342 H 0.20972 0.41022 0.9739 0.0
H343 H 0.26158 0.42874 0.95056 0.0
H344 H 0.33776 0.358 0.97161 0.0
H345 H 0.28618 0.33949 0.9954 0.0
H346 H 0.36635 0.4135 0.97656 0.0
H347 H 0.30575 0.39318 0.88361 0.0
H348 H 0.27422 0.41138 0.90592 0.0
H349 H 0.29161 0.37604 0.91161 0.0
C350 C 0.23764 0.39877 0.97384 0.0
C351 C 0.24389 0.37336 0.98646 0.0
C352 C 0.26708 0.40926 0.96033 0.0
C353 C 0.30323 0.39454 0.95919 0.0
C354 C 0.3099 0.36953 0.97221 0.0
H355 H 0.52235 0.41722 0.89314 0.0
H356 H 0.46891 0.40244 0.91738 0.0
C357 C 0.28042 0.35894 0.98565 0.0
C358 C 0.334 0.40502 0.94411 0.0
H359 H 0.36204 0.41566 0.88413 0.0
C360 C 0.36555 0.41398 0.95635 0.0
C361 C 0.33246 0.40585 0.9178 0.0
C362 C 0.29937 0.39595 0.90383 0.0
C363 C 0.39578 0.42385 0.94292 0.0
C364 C 0.39474 0.42405 0.91652 0.0
C365 C 0.36282 0.41546 0.90434 0.0
C366 C 0.42684 0.43245 0.90117 0.0
C367 C 0.42801 0.43457 0.95722 0.0
C368 C 0.42059 0.45312 0.88295 0.0
C369 C 0.451 0.46103 0.86857 0.0
C370 C 0.48812 0.44879 0.87253 0.0
C371 C 0.49406 0.42736 0.89004 0.0
C372 C 0.46365 0.41916 0.90413 0.0
H373 H 0.41854 0.44175 0.97614 0.0
H374 H 0.45116 0.41764 0.95951 0.0
H375 H 0.4398 0.45198 0.9473 0.0
H376 H 0.39229 0.4633 0.88 0.0
H377 H 0.44551 0.47676 0.85442 0.0
H378 H 0.90962 0.6107 0.97097 0.0
H379 H 0.85682 0.59503 0.94737 0.0
H380 H 0.78558 0.66828 0.96941 0.0
H381 H 0.83848 0.68418 0.99313 0.0
H382 H 0.78606 0.58391 0.96513 0.0
H383 H 0.77252 0.66709 0.89373 0.0
H384 H 0.81362 0.66125 0.91356 0.0
H385 H 0.77017 0.67907 0.92543 0.0
C386 C 0.88266 0.62344 0.97091 0.0
C387 C 0.87814 0.64865 0.98397 0.0
C388 C 0.85261 0.61452 0.9573 0.0
C389 C 0.81749 0.63066 0.95639 0.0
C390 C 0.81274 0.65581 0.96944 0.0
H391 H 0.60025 0.60054 0.89247 0.0
H392 H 0.65186 0.61817 0.91612 0.0
C393 C 0.84291 0.66483 0.98302 0.0
C394 C 0.78561 0.62051 0.94241 0.0
H395 H 0.72555 0.63522 0.89359 0.0
C396 C 0.77287 0.59511 0.94946 0.0
C397 C 0.76852 0.63518 0.92198 0.0
C398 C 0.78205 0.66205 0.91302 0.0
C399 C 0.74326 0.58408 0.93673 0.0
C400 C 0.72636 0.59862 0.91625 0.0
C401 C 0.73879 0.62412 0.90929 0.0
C402 C 0.69546 0.58774 0.90192 0.0
C403 C 0.73008 0.55702 0.94527 0.0
C404 C 0.70318 0.56503 0.88588 0.0
C405 C 0.67384 0.55517 0.87207 0.0
C406 C 0.63631 0.56752 0.8745 0.0
C407 C 0.62887 0.59046 0.89038 0.0
C408 C 0.65823 0.60052 0.90393 0.0
H409 H 0.74154 0.55067 0.96385 0.0
H410 H 0.69847 0.55829 0.94605 0.0
H411 H 0.74009 0.54083 0.93161 0.0
H412 H 0.73194 0.55519 0.88385 0.0
H413 H 0.68059 0.53821 0.85922 0.0
H414 H 0.8985 0.4323 0.03351 0.0
H415 H 0.84674 0.4619 0.0137 0.0
H416 H 0.85868 0.41116 0.94765 0.0
H417 H 0.91028 0.38184 0.96701 0.0
H418 H 0.85663 0.47611 0.94374 0.0
H419 H 0.7371 0.43275 0.99465 0.0
H420 H 0.77912 0.44111 0.01092 0.0
H421 H 0.78201 0.41209 0.99016 0.0
C422 C 0.89006 0.42755 0.01475 0.0
C423 C 0.90819 0.40461 0.00188 0.0
C424 C 0.86055 0.4444 0.00354 0.0
C425 C 0.84908 0.43859 0.97929 0.0
C426 C 0.86723 0.41588 0.96641 0.0
H427 H 0.71642 0.46331 0.85567 0.0
H428 H 0.76655 0.46135 0.88687 0.0
C429 C 0.89643 0.39901 0.97759 0.0
C430 C 0.81785 0.45566 0.96696 0.0
H431 H 0.72189 0.45869 0.95852 0.0
C432 C 0.82702 0.47294 0.94731 0.0
C433 C 0.77938 0.4517 0.97194 0.0
C434 C 0.76845 0.43345 0.99306 0.0
C435 C 0.79878 0.4848 0.9313 0.0
C436 C 0.76067 0.47861 0.93479 0.0
C437 C 0.75114 0.4633 0.95577 0.0
C438 C 0.73174 0.48383 0.91506 0.0
C439 C 0.81051 0.50279 0.91019 0.0
C440 C 0.69535 0.49697 0.92052 0.0
C441 C 0.66674 0.49833 0.90254 0.0
C442 C 0.67398 0.48597 0.87912 0.0
C443 C 0.71047 0.47331 0.87352 0.0
C444 C 0.73913 0.47236 0.89129 0.0
H445 H 0.8337 0.51523 0.91615 0.0
H446 H 0.82179 0.4894 0.89453 0.0
H447 H 0.78637 0.51701 0.90331 0.0
H448 H 0.6888 0.50543 0.93891 0.0
H449 H 0.63852 0.50776 0.90734 0.0
H450 H 0.25551 0.61503 0.02975 0.0
H451 H 0.3082 0.59097 0.00582 0.0
H452 H 0.22784 0.55105 0.96156 0.0
H453 H 0.17512 0.57472 0.98558 0.0
H454 H 0.29739 0.51697 0.97109 0.0
H455 H 0.32066 0.62135 0.93489 0.0
H456 H 0.32346 0.61808 0.96817 0.0
H457 H 0.27895 0.61488 0.95284 0.0
C458 C 0.24918 0.60072 0.01522 0.0
C459 C 0.21126 0.59701 0.00929 0.0
C460 C 0.27923 0.58697 0.00162 0.0
C461 C 0.27179 0.56965 0.98166 0.0
C462 C 0.23413 0.56434 0.9769 0.0
H463 H 0.40951 0.55037 0.84978 0.0
H464 H 0.35611 0.55357 0.87935 0.0
C465 C 0.20406 0.57788 0.99064 0.0
C466 C 0.30248 0.56008 0.96381 0.0
H467 H 0.36353 0.58427 0.92126 0.0
C468 C 0.31198 0.5316 0.96018 0.0
C469 C 0.32087 0.57928 0.94931 0.0
C470 C 0.31032 0.61009 0.95126 0.0
C471 C 0.33983 0.52185 0.94251 0.0
C472 C 0.35866 0.54112 0.92842 0.0
C473 C 0.34904 0.56952 0.93212 0.0
C474 C 0.38817 0.5329 0.90932 0.0
C475 C 0.34851 0.49114 0.93877 0.0
C476 C 0.42351 0.51923 0.91608 0.0
C477 C 0.45402 0.5172 0.89906 0.0
C478 C 0.44946 0.52895 0.87522 0.0
C479 C 0.41356 0.54112 0.86807 0.0
C480 C 0.38311 0.5429 0.88491 0.0
H481 H 0.32576 0.47931 0.94667 0.0
H482 H 0.35227 0.48603 0.91867 0.0
H483 H 0.37552 0.48434 0.94833 0.0
H484 H 0.42822 0.51178 0.93493 0.0
H485 H 0.48167 0.50799 0.905 0.0
H486 H 0.73741 0.92205 0.51771 0.0
H487 H 0.78251 0.94567 0.4927 0.0
H488 H 0.78804 0.87961 0.43868 0.0
H489 H 0.74061 0.85712 0.46226 0.0
H490 H 0.85236 0.93279 0.48034 0.0
H491 H 0.77147 0.94367 0.39301 0.0
H492 H 0.75027 0.93301 0.42175 0.0
H493 H 0.77707 0.90801 0.40195 0.0
C494 C 0.74756 0.91276 0.50025 0.0
C495 C 0.73489 0.8877 0.49198 0.0
C496 C 0.77363 0.92624 0.48605 0.0
C497 C 0.78792 0.91483 0.46343 0.0
C498 C 0.77644 0.88936 0.4556 0.0
H499 H 0.00221 0.92826 0.39485 0.0
H500 H 0.947 0.91971 0.42047 0.0
C501 C 0.74987 0.87615 0.4695 0.0
C502 C 0.8163 0.92866 0.44856 0.0
H503 H 0.84002 0.9447 0.38884 0.0
C504 C 0.84934 0.93579 0.46039 0.0
C505 C 0.81196 0.93362 0.42267 0.0
C506 C 0.77552 0.92948 0.40922 0.0
C507 C 0.87917 0.94591 0.44678 0.0
C508 C 0.87659 0.94779 0.4205 0.0
C509 C 0.84248 0.94258 0.4089 0.0
C510 C 0.90976 0.95314 0.40464 0.0
C511 C 0.91314 0.95433 0.46078 0.0
C512 C 0.90663 0.97373 0.38617 0.0
C513 C 0.93798 0.9781 0.37099 0.0
C514 C 0.97301 0.96227 0.37434 0.0
C515 C 0.97567 0.94105 0.39217 0.0
C516 C 0.9443 0.93644 0.40706 0.0
H517 H 0.90454 0.96245 0.47957 0.0
H518 H 0.93393 0.93595 0.46342 0.0
H519 H 0.92746 0.97039 0.45061 0.0
H520 H 0.88007 0.98655 0.38365 0.0
H521 H 0.93494 0.99394 0.35676 0.0
H522 H 0.38422 0.16704 0.4602 0.0
H523 H 0.33301 0.14987 0.43631 0.0
H524 H 0.3256 0.08383 0.48938 0.0
H525 H 0.37462 0.10215 0.51454 0.0
H526 H 0.32988 0.10255 0.41295 0.0
H527 H 0.21616 0.11253 0.48538 0.0
H528 H 0.26081 0.12724 0.48911 0.0
H529 H 0.25762 0.09102 0.49498 0.0
C530 C 0.3711 0.1493 0.46723 0.0
C531 C 0.3835 0.1362 0.48952 0.0
C532 C 0.3421 0.13927 0.45332 0.0
C533 C 0.32506 0.11577 0.4612 0.0
C534 C 0.33766 0.10237 0.48321 0.0
H535 H 0.18183 0.03045 0.35863 0.0
H536 H 0.23509 0.04174 0.38458 0.0
C537 C 0.3662 0.11267 0.49739 0.0
C538 C 0.29463 0.10515 0.44604 0.0
H539 H 0.20255 0.08905 0.44831 0.0
C540 C 0.30198 0.09965 0.42065 0.0
C541 C 0.25817 0.10154 0.45609 0.0
C542 C 0.24754 0.10864 0.48282 0.0
C543 C 0.27373 0.0911 0.40493 0.0
C544 C 0.23751 0.08704 0.41509 0.0
C545 C 0.23041 0.09202 0.44058 0.0
C546 C 0.20561 0.07946 0.39946 0.0
C547 C 0.28262 0.08759 0.37747 0.0
C548 C 0.17107 0.09643 0.39967 0.0
C549 C 0.14027 0.08933 0.38574 0.0
C550 C 0.14337 0.06513 0.37125 0.0
C551 C 0.17826 0.04859 0.37041 0.0
C552 C 0.20895 0.05539 0.38478 0.0
H553 H 0.30743 0.0987 0.37177 0.0
H554 H 0.28976 0.06531 0.37333 0.0
H555 H 0.2578 0.09528 0.36598 0.0
H556 H 0.16786 0.11517 0.41074 0.0
H557 H 0.11379 0.1026 0.38666 0.0
H558 H 0.43556 0.92856 0.48682 0.0
H559 H 0.38186 0.95171 0.46422 0.0
H560 H 0.3043 0.90646 0.50714 0.0
H561 H 0.35839 0.88238 0.52912 0.0
H562 H 0.2909 0.90154 0.46064 0.0
H563 H 0.30092 0.01269 0.47732 0.0
H564 H 0.34527 0.9966 0.46547 0.0
H565 H 0.3276 0.9862 0.49534 0.0
C566 C 0.40695 0.92404 0.49181 0.0
C567 C 0.40102 0.90373 0.50971 0.0
C568 C 0.37621 0.93747 0.47902 0.0
C569 C 0.33886 0.9313 0.48426 0.0
C570 C 0.33283 0.91171 0.50285 0.0
H571 H 0.13737 0.00572 0.40526 0.0
H572 H 0.18747 0.99685 0.43665 0.0
C573 C 0.36366 0.89792 0.51535 0.0
C574 C 0.30693 0.94244 0.46817 0.0
H575 H 0.26625 1.00129 0.44042 0.0
C576 C 0.28521 0.92342 0.45661 0.0
C577 C 0.29905 0.97103 0.463 0.0
C578 C 0.31921 0.99278 0.47618 0.0
C579 C 0.25695 0.93197 0.43937 0.0
C580 C 0.25109 0.96025 0.43278 0.0
C581 C 0.27148 0.97954 0.4451 0.0
C582 C 0.22417 0.9697 0.41285 0.0
C583 C 0.23368 0.91051 0.42836 0.0
C584 C 0.22924 0.95853 0.3888 0.0
C585 C 0.20066 0.96328 0.37111 0.0
C586 C 0.16706 0.97992 0.37697 0.0
C587 C 0.16323 0.99293 0.40035 0.0
C588 C 0.19172 0.98786 0.41824 0.0
H589 H 0.23356 0.89205 0.44059 0.0
H590 H 0.20374 0.91907 0.42529 0.0
H591 H 0.24631 0.90354 0.41013 0.0
H592 H 0.2545 0.94497 0.38412 0.0
H593 H 0.20418 0.95312 0.35314 0.0
H594 H 0.68641 0.07661 0.49428 0.0
H595 H 0.74182 0.05439 0.4721 0.0
H596 H 0.81619 0.09315 0.52191 0.0
H597 H 0.76055 0.11623 0.54363 0.0
H598 H 0.83166 0.10505 0.47661 0.0
H599 H 0.82354 0.99242 0.47974 0.0
H600 H 0.77962 0.00907 0.46829 0.0
H601 H 0.79426 0.01584 0.49966 0.0
C602 C 0.7146 0.07972 0.50095 0.0
C603 C 0.71929 0.09824 0.52056 0.0
C604 C 0.74632 0.06682 0.48836 0.0
C605 C 0.7833 0.07178 0.49547 0.0
C606 C 0.78796 0.08892 0.51613 0.0
H607 H 0.98823 0.01553 0.40752 0.0
H608 H 0.94024 0.01902 0.44121 0.0
C609 C 0.75623 0.10217 0.52846 0.0
C610 C 0.81627 0.06319 0.47888 0.0
H611 H 0.8583 0.00949 0.44407 0.0
C612 C 0.83789 0.08399 0.46998 0.0
C613 C 0.82471 0.0357 0.47019 0.0
C614 C 0.80448 0.01199 0.48022 0.0
C615 C 0.86633 0.07844 0.45185 0.0
C616 C 0.87274 0.0515 0.44181 0.0
C617 C 0.8527 0.03026 0.45152 0.0
C618 C 0.89921 0.04576 0.42055 0.0
C619 C 0.88884 0.10168 0.44324 0.0
C620 C 0.89143 0.05907 0.3977 0.0
C621 C 0.9188 0.05743 0.3787 0.0
C622 C 0.954 0.04194 0.38209 0.0
C623 C 0.96105 0.0274 0.40448 0.0
C624 C 0.93373 0.02929 0.42363 0.0
H625 H 0.88783 0.11863 0.4572 0.0
H626 H 0.91911 0.09411 0.43958 0.0
H627 H 0.87652 0.11043 0.42565 0.0
H628 H 0.86475 0.07169 0.39496 0.0
H629 H 0.91284 0.06881 0.36158 0.0
loop_
_geom_bond_atom_site_label_1
_geom_bond_atom_site_label_2
_geom_bond_distance
_geom_bond_site_symmetry_2
_ccdc_geom_bond_type
C0 C1 1.386 . S
C0 C2 1.397 . S
C0 H24 0.931 . S
C1 C0 1.386 . S
C1 C5 1.397 . S
C2 C0 1.397 . S
C2 C3 1.391 . S
C2 H25 0.930 . S
C3 C2 1.391 . S
C3 C4 1.384 . S
C3 C6 1.468 1_556 S
C4 C3 1.384 . S
C4 C5 1.389 . S
C4 H26 0.929 . S
C5 C1 1.397 . S
C5 C4 1.389 . S
C5 H27 0.931 . S
C6 C3 1.468 1_554 S
C6 C7 1.387 . S
C6 C11 1.390 1_554 S
C7 C6 1.387 . S
C7 C8 1.401 . S
C7 H28 0.930 . S
C8 C7 1.401 . S
C8 C9 1.376 . S
C8 C17 1.511 . S
C9 C8 1.376 . S
C9 C10 1.392 . S
C9 H30 0.931 . S
C10 C9 1.392 . S
C10 C11 1.361 1_554 S
C10 C12 1.500 1_554 S
C11 C6 1.390 1_556 S
C11 C10 1.361 1_556 S
C11 H29 0.931 . S
C12 C10 1.500 1_556 S
C12 C13 1.371 . S
C12 C14 1.365 . S
C13 C12 1.371 . S
C13 C23 1.386 1_455 S
C13 H31 0.931 1_556 S
C14 C12 1.365 . S
C14 C15 1.409 . S
C14 H32 0.929 . S
C15 C14 1.409 . S
C15 C16 1.380 1_455 S
C15 H33 0.930 . S
C16 C15 1.380 1_655 S
C16 C23 1.357 . S
C17 C8 1.511 . S
C17 C18 1.341 . S
C17 C19 1.371 . S
C18 C17 1.341 . S
C18 C22 1.394 . S
C18 H34 0.930 . S
C19 C17 1.371 . S
C19 C20 1.392 . S
C19 H35 0.931 . S
C20 C19 1.392 . S
C20 C21 1.331 . S
C20 H38 0.932 . S
C21 C20 1.331 . S
C21 C22 1.336 . S
C22 C18 1.394 . S
C22 C21 1.336 . S
C22 H37 0.929 . S
C23 C13 1.386 1_655 S
C23 C16 1.357 . S
C23 H36 0.928 . S
H24 C0 0.931 . S
H25 C2 0.930 . S
H26 C4 0.929 . S
H27 C5 0.931 . S
H28 C7 0.930 . S
H29 C11 0.931 . S
H30 C9 0.931 . S
H31 C13 0.931 1_554 S
H32 C14 0.929 . S
H33 C15 0.930 . S
H34 C18 0.930 . S
H35 C19 0.931 . S
H36 C23 0.928 . S
H37 C22 0.929 . S
H38 C20 0.932 . S
C39 C40 1.386 . S
C39 C41 1.397 . S
C39 H63 0.931 . S
C40 C39 1.386 . S
C40 C44 1.397 . S
C41 C39 1.397 . S
C41 C42 1.384 1_556 S
C41 H64 0.926 1_556 S
C42 C41 1.384 1_554 S
C42 C43 1.377 1_554 S
C42 C45 1.481 . S
C43 C42 1.377 1_556 S
C43 C44 1.389 . S
C43 H65 0.928 . S
C44 C40 1.397 . S
C44 C43 1.389 . S
C44 H66 0.931 . S
C45 C42 1.481 . S
C45 C46 1.387 . S
C45 C50 1.390 1_655 S
C46 C45 1.387 . S
C46 C47 1.401 1_655 S
C46 H67 0.930 . S
C47 C46 1.401 1_455 S
C47 C48 1.376 . S
C47 C56 1.511 . S
C48 C47 1.376 . S
C48 C49 1.392 . S
C48 H69 0.931 . S
C49 C48 1.392 . S
C49 C50 1.361 . S
C49 C51 1.500 1_554 S
C50 C45 1.390 1_455 S
C50 C49 1.361 . S
C50 H68 0.931 1_554 S
C51 C49 1.500 1_556 S
C51 C52 1.371 . S
C51 C53 1.365 . S
C52 C51 1.371 . S
C52 C62 1.386 . S
C52 H70 0.931 1_556 S
C53 C51 1.365 . S
C53 C54 1.409 . S
C53 H71 0.929 . S
C54 C53 1.409 . S
C54 C55 1.380 . S
C54 H72 0.930 . S
C55 C54 1.380 . S
C55 C62 1.357 . S
C56 C47 1.511 . S
C56 C57 1.341 1_455 S
C56 C58 1.371 . S
C57 C56 1.341 1_655 S
C57 C61 1.394 . S
C57 H73 0.930 . S
C58 C56 1.371 . S
C58 C59 1.392 . S
C58 H74 0.931 . S
C59 C58 1.392 . S
C59 C60 1.331 . S
C59 H77 0.932 . S
C60 C59 1.331 . S
C60 C61 1.336 1_455 S
C61 C57 1.394 . S
C61 C60 1.336 1_655 S
C61 H76 0.929 . S
C62 C52 1.386 . S
C62 C55 1.357 . S
C62 H75 0.928 . S
H63 C39 0.931 . S
H64 C41 0.926 1_554 S
H65 C43 0.928 . S
H66 C44 0.931 . S
H67 C46 0.930 . S
H68 C50 0.931 1_556 S
H69 C48 0.931 . S
H70 C52 0.931 1_554 S
H71 C53 0.929 . S
H72 C54 0.930 . S
H73 C57 0.930 . S
H74 C58 0.931 . S
H75 C62 0.928 . S
H76 C61 0.929 . S
H77 C59 0.932 . S
C78 C79 1.386 . S
C78 C80 1.397 . S
C78 H102 0.931 . S
C79 C78 1.386 . S
C79 C83 1.397 . S
C80 C78 1.397 . S
C80 C81 1.384 . S
C80 H103 0.930 . S
C81 C80 1.384 . S
C81 C82 1.377 . S
C81 C84 1.481 . S
C82 C81 1.377 . S
C82 C83 1.389 . S
C82 H104 0.929 . S
C83 C79 1.397 . S
C83 C82 1.389 . S
C83 H105 0.931 . S
C84 C81 1.481 . S
C84 C85 1.387 . S
C84 C89 1.390 . S
C85 C84 1.387 . S
C85 C86 1.401 . S
C85 H106 0.930 . S
C86 C85 1.401 . S
C86 C87 1.376 . S
C86 C95 1.511 . S
C87 C86 1.376 . S
C87 C88 1.392 . S
C87 H108 0.931 . S
C88 C87 1.392 . S
C88 C89 1.361 . S
C88 C90 1.500 . S
C89 C84 1.390 . S
C89 C88 1.361 . S
C89 H107 0.931 . S
C90 C88 1.500 . S
C90 C91 1.371 . S
C90 C92 1.365 . S
C91 C90 1.371 . S
C91 C101 1.386 . S
C91 H109 0.931 . S
C92 C90 1.365 . S
C92 C93 1.409 . S
C92 H110 0.929 . S
C93 C92 1.409 . S
C93 C94 1.380 . S
C93 H111 0.930 . S
C94 C93 1.380 . S
C94 C101 1.357 . S
C95 C86 1.511 . S
C95 C96 1.341 . S
C95 C97 1.371 . S
C96 C95 1.341 . S
C96 C100 1.394 . S
C96 H112 0.930 . S
C97 C95 1.371 . S
C97 C98 1.392 . S
C97 H113 0.931 . S
C98 C97 1.392 . S
C98 C99 1.331 . S
C98 H116 0.932 . S
C99 C98 1.331 . S
C99 C100 1.336 . S
C100 C96 1.394 . S
C100 C99 1.336 . S
C100 H115 0.929 . S
C101 C91 1.386 . S
C101 C94 1.357 . S
C101 H114 0.928 . S
H102 C78 0.931 . S
H103 C80 0.930 . S
H104 C82 0.929 . S
H105 C83 0.931 . S
H106 C85 0.930 . S
H107 C89 0.931 . S
H108 C87 0.931 . S
H109 C91 0.931 . S
H110 C92 0.929 . S
H111 C93 0.930 . S
H112 C96 0.930 . S
H113 C97 0.931 . S
H114 C101 0.928 . S
H115 C100 0.929 . S
H116 C98 0.932 . S
C117 C118 1.386 . S
C117 C119 1.397 . S
C117 H141 0.931 . S
C118 C117 1.386 . S
C118 C122 1.397 . S
C119 C117 1.397 . S
C119 C120 1.384 . S
C119 H142 0.930 . S
C120 C119 1.384 . S
C120 C121 1.377 . S
C120 C123 1.481 . S
C121 C120 1.377 . S
C121 C122 1.389 . S
C121 H143 0.929 . S
C122 C118 1.397 . S
C122 C121 1.389 . S
C122 H144 0.931 . S
C123 C120 1.481 . S
C123 C124 1.387 . S
C123 C128 1.390 . S
C124 C123 1.387 . S
C124 C125 1.401 . S
C124 H145 0.930 . S
C125 C124 1.401 . S
C125 C126 1.376 . S
C125 C134 1.511 . S
C126 C125 1.376 . S
C126 C127 1.392 . S
C126 H147 0.931 . S
C127 C126 1.392 . S
C127 C128 1.361 . S
C127 C129 1.500 . S
C128 C123 1.390 . S
C128 C127 1.361 . S
C128 H146 0.931 . S
C129 C127 1.500 . S
C129 C130 1.371 . S
C129 C131 1.365 . S
C130 C129 1.371 . S
C130 C140 1.386 . S
C130 H148 0.931 . S
C131 C129 1.365 . S
C131 C132 1.409 . S
C131 H149 0.929 . S
C132 C131 1.409 . S
C132 C133 1.380 . S
C132 H150 0.930 . S
C133 C132 1.380 . S
C133 C140 1.357 . S
C134 C125 1.511 . S
C134 C135 1.341 . S
C134 C136 1.371 . S
C135 C134 1.341 . S
C135 C139 1.394 . S
C135 H151 0.930 . S
C136 C134 1.371 . S
C136 C137 1.392 . S
C136 H152 0.931 . S
C137 C136 1.392 . S
C137 C138 1.331 . S
C137 H155 0.932 . S
C138 C137 1.331 . S
C138 C139 1.336 . S
C139 C135 1.394 . S
C139 C138 1.336 . S
C139 H154 0.929 . S
C140 C130 1.386 . S
C140 C133 1.357 . S
C140 H153 0.928 . S
H141 C117 0.931 . S
H142 C119 0.930 . S
H143 C121 0.929 . S
H144 C122 0.931 . S
H145 C124 0.930 . S
H146 C128 0.931 . S
H147 C126 0.931 . S
H148 C130 0.931 . S
H149 C131 0.929 . S
H150 C132 0.930 . S
H151 C135 0.930 . S
H152 C136 0.931 . S
H153 C140 0.928 . S
H154 C139 0.929 . S
H155 C137 0.932 . S
Zn156 O162 1.920 . S
Zn156 O168 1.898 . S
Zn156 O171 1.905 . S
Zn157 O165 1.905 . S
Zn157 O166 1.898 . S
Zn157 O174 1.920 . S
Zn158 O161 2.080 . S
Zn158 O164 2.114 1_545 S
Zn158 O167 2.120 1_545 S
Zn158 O169 2.120 . S
Zn158 O170 2.114 . S
Zn158 O173 2.080 1_545 S
C159 O164 1.166 . S
C159 O165 1.182 . S
C160 O166 1.167 . S
C160 O167 1.299 . S
O161 Zn158 2.080 . S
O161 C175 1.305 . S
O162 Zn156 1.920 . S
O162 C175 1.234 . S
C163 O168 1.167 . S
C163 O169 1.299 . S
O164 Zn158 2.114 1_565 S
O164 C159 1.166 . S
O165 Zn157 1.905 . S
O165 C159 1.182 . S
O166 Zn157 1.898 . S
O166 C160 1.167 . S
O167 Zn158 2.120 1_565 S
O167 C160 1.299 . S
O168 Zn156 1.898 . S
O168 C163 1.167 . S
O169 Zn158 2.120 . S
O169 C163 1.299 . S
O170 Zn158 2.114 . S
O170 C172 1.166 1_455 S
O171 Zn156 1.905 . S
O171 C172 1.182 1_455 S
C172 O170 1.166 1_655 S
C172 O171 1.182 1_655 S
O173 Zn158 2.080 1_565 S
O173 C176 1.305 . S
O174 Zn157 1.920 . S
O174 C176 1.234 . S
C175 O161 1.305 . S
C175 O162 1.234 . S
C176 O173 1.305 . S
C176 O174 1.234 . S
Zn177 O183 1.920 . S
Zn177 O189 1.898 . S
Zn177 O192 1.905 . S
Zn178 O186 1.905 . S
Zn178 O187 1.898 . S
Zn178 O195 1.920 . S
Zn179 O182 2.080 . S
Zn179 O185 2.114 . S
Zn179 O188 2.120 . S
Zn179 O190 2.120 . S
Zn179 O191 2.114 . S
Zn179 O194 2.080 . S
C180 O185 1.166 . S
C180 O186 1.182 . S
C181 O187 1.167 . S
C181 O188 1.299 . S
O182 Zn179 2.080 . S
O182 C196 1.305 . S
O183 Zn177 1.920 . S
O183 C196 1.234 . S
C184 O189 1.167 . S
C184 O190 1.299 . S
O185 Zn179 2.114 . S
O185 C180 1.166 . S
O186 Zn178 1.905 . S
O186 C180 1.182 . S
O187 Zn178 1.898 . S
O187 C181 1.167 . S
O188 Zn179 2.120 . S
O188 C181 1.299 . S
O189 Zn177 1.898 . S
O189 C184 1.167 . S
O190 Zn179 2.120 . S
O190 C184 1.299 . S
O191 Zn179 2.114 . S
O191 C193 1.166 . S
O192 Zn177 1.905 . S
O192 C193 1.182 . S
C193 O191 1.166 . S
C193 O192 1.182 . S
O194 Zn179 2.080 . S
O194 C197 1.305 . S
O195 Zn178 1.920 . S
O195 C197 1.234 . S
C196 O182 1.305 . S
C196 O183 1.234 . S
C197 O194 1.305 . S
C197 O195 1.234 . S
H198 C206 0.929 . S
H199 C208 0.930 . S
H200 C210 0.930 . S
H201 C213 0.929 . S
H202 C216 0.930 . S
H203 C218 0.960 . S
H204 C218 0.960 . S
H205 C218 0.960 . S
C206 H198 0.929 . S
C206 C207 1.377 . S
C206 C208 1.384 . S
C207 C206 1.377 . S
C207 C213 1.390 . S
C208 H199 0.930 . S
C208 C206 1.384 . S
C208 C209 1.372 . S
C209 C208 1.372 . S
C209 C210 1.400 . S
C209 C214 1.490 . S
C210 H200 0.930 . S
C210 C209 1.400 . S
C210 C213 1.386 . S
H211 C227 0.930 . S
H212 C228 0.931 . S
C213 H201 0.929 . S
C213 C207 1.390 . S
C213 C210 1.386 . S
C214 C209 1.490 . S
C214 C216 1.395 . S
C214 C217 1.403 . S
H215 C221 0.930 . S
C216 H202 0.930 . S
C216 C214 1.395 . S
C216 C219 1.403 . S
C217 C214 1.403 . S
C217 C218 1.524 . S
C217 C221 1.400 . S
C218 H203 0.960 . S
C218 H204 0.960 . S
C218 H205 0.960 . S
C218 C217 1.524 . S
C219 C216 1.403 . S
C219 C220 1.392 . S
C219 C223 1.495 . S
C220 C219 1.392 . S
C220 C221 1.385 . S
C220 C222 1.478 . S
C221 H215 0.930 . S
C221 C217 1.400 . S
C221 C220 1.385 . S
C222 C220 1.478 . S
C222 C224 1.381 . S
C222 C228 1.383 . S
C223 C219 1.495 . S
C223 H229 0.959 . S
C223 H230 0.961 . S
C223 H231 0.960 . S
C224 C222 1.381 . S
C224 C225 1.394 . S
C224 H232 0.930 . S
C225 C224 1.394 . S
C225 C226 1.383 . S
C225 H233 0.929 . S
C226 C225 1.383 . S
C226 C227 1.377 . S
C227 H211 0.930 . S
C227 C226 1.377 . S
C227 C228 1.379 . S
C228 H212 0.931 . S
C228 C222 1.383 . S
C228 C227 1.379 . S
H229 C223 0.959 . S
H230 C223 0.961 . S
H231 C223 0.960 . S
H232 C224 0.930 . S
H233 C225 0.929 . S
H234 C242 0.929 1_655 S
H235 C244 0.930 . S
H236 C246 0.930 . S
H237 C249 0.929 . S
H238 C252 0.930 . S
H239 C254 0.960 . S
H240 C254 0.960 . S
H241 C254 0.960 . S
C242 H234 0.929 1_455 S
C242 C243 1.377 . S
C242 C244 1.384 . S
C243 C242 1.377 . S
C243 C249 1.390 . S
C244 H235 0.930 . S
C244 C242 1.384 . S
C244 C245 1.372 . S
C245 C244 1.372 . S
C245 C246 1.400 . S
C245 C250 1.490 . S
C246 H236 0.930 . S
C246 C245 1.400 . S
C246 C249 1.386 . S
H247 C263 0.930 . S
H248 C264 0.931 . S
C249 H237 0.929 . S
C249 C243 1.390 . S
C249 C246 1.386 . S
C250 C245 1.490 . S
C250 C252 1.395 1_455 S
C250 C253 1.403 . S
H251 C257 0.930 . S
C252 H238 0.930 . S
C252 C250 1.395 1_655 S
C252 C255 1.403 . S
C253 C250 1.403 . S
C253 C254 1.524 . S
C253 C257 1.400 . S
C254 H239 0.960 . S
C254 H240 0.960 . S
C254 H241 0.960 . S
C254 C253 1.524 . S
C255 C252 1.403 . S
C255 C256 1.392 1_655 S
C255 C259 1.495 . S
C256 C255 1.392 1_455 S
C256 C257 1.385 . S
C256 C258 1.478 . S
C257 H251 0.930 . S
C257 C253 1.400 . S
C257 C256 1.385 . S
C258 C256 1.478 . S
C258 C260 1.381 . S
C258 C264 1.383 . S
C259 C255 1.495 . S
C259 H265 0.959 . S
C259 H266 0.961 . S
C259 H267 0.960 . S
C260 C258 1.381 . S
C260 C261 1.394 . S
C260 H268 0.930 . S
C261 C260 1.394 . S
C261 C262 1.383 . S
C261 H269 0.929 . S
C262 C261 1.383 . S
C262 C263 1.377 . S
C263 H247 0.930 . S
C263 C262 1.377 . S
C263 C264 1.379 . S
C264 H248 0.931 . S
C264 C258 1.383 . S
C264 C263 1.379 . S
H265 C259 0.959 . S
H266 C259 0.961 . S
H267 C259 0.960 . S
H268 C260 0.930 . S
H269 C261 0.929 . S
H270 C278 0.929 . S
H271 C280 0.930 . S
H272 C282 0.930 . S
H273 C285 0.929 . S
H274 C288 0.930 . S
H275 C290 0.960 . S
H276 C290 0.960 . S
H277 C290 0.960 . S
C278 H270 0.929 . S
C278 C279 1.377 . S
C278 C280 1.384 . S
C279 C278 1.377 . S
C279 C285 1.390 . S
C280 H271 0.930 . S
C280 C278 1.384 . S
C280 C281 1.372 . S
C281 C280 1.372 . S
C281 C282 1.400 . S
C281 C286 1.490 . S
C282 H272 0.930 . S
C282 C281 1.400 . S
C282 C285 1.386 . S
H283 C299 0.930 . S
H284 C300 0.931 . S
C285 H273 0.929 . S
C285 C279 1.390 . S
C285 C282 1.386 . S
C286 C281 1.490 . S
C286 C288 1.395 . S
C286 C289 1.403 . S
H287 C293 0.930 . S
C288 H274 0.930 . S
C288 C286 1.395 . S
C288 C291 1.403 . S
C289 C286 1.403 . S
C289 C290 1.524 . S
C289 C293 1.400 . S
C290 H275 0.960 . S
C290 H276 0.960 . S
C290 H277 0.960 . S
C290 C289 1.524 . S
C291 C288 1.403 . S
C291 C292 1.392 . S
C291 C295 1.495 . S
C292 C291 1.392 . S
C292 C293 1.385 . S
C292 C294 1.478 . S
C293 H287 0.930 . S
C293 C289 1.400 . S
C293 C292 1.385 . S
C294 C292 1.478 . S
C294 C296 1.381 . S
C294 C300 1.383 . S
C295 C291 1.495 . S
C295 H301 0.959 . S
C295 H302 0.961 . S
C295 H303 0.960 . S
C296 C294 1.381 . S
C296 C297 1.394 . S
C296 H304 0.930 . S
C297 C296 1.394 . S
C297 C298 1.383 . S
C297 H305 0.929 . S
C298 C297 1.383 . S
C298 C299 1.377 . S
C299 H283 0.930 . S
C299 C298 1.377 . S
C299 C300 1.379 . S
C300 H284 0.931 . S
C300 C294 1.383 . S
C300 C299 1.379 . S
H301 C295 0.959 . S
H302 C295 0.961 . S
H303 C295 0.960 . S
H304 C296 0.930 . S
H305 C297 0.929 . S
H306 C314 0.929 . S
H307 C316 0.930 . S
H308 C318 0.930 . S
H309 C321 0.929 . S
H310 C324 0.930 . S
H311 C326 0.960 . S
H312 C326 0.960 . S
H313 C326 0.960 . S
C314 H306 0.929 . S
C314 C315 1.377 . S
C314 C316 1.384 . S
C315 C314 1.377 . S
C315 C321 1.390 . S
C316 H307 0.930 . S
C316 C314 1.384 . S
C316 C317 1.372 . S
C317 C316 1.372 . S
C317 C318 1.400 . S
C317 C322 1.490 . S
C318 H308 0.930 . S
C318 C317 1.400 . S
C318 C321 1.386 . S
H319 C335 0.930 . S
H320 C336 0.931 . S
C321 H309 0.929 . S
C321 C315 1.390 . S
C321 C318 1.386 . S
C322 C317 1.490 . S
C322 C324 1.395 . S
C322 C325 1.403 . S
H323 C329 0.930 . S
C324 H310 0.930 . S
C324 C322 1.395 . S
C324 C327 1.403 . S
C325 C322 1.403 . S
C325 C326 1.524 . S
C325 C329 1.400 . S
C326 H311 0.960 . S
C326 H312 0.960 . S
C326 H313 0.960 . S
C326 C325 1.524 . S
C327 C324 1.403 . S
C327 C328 1.392 . S
C327 C331 1.495 . S
C328 C327 1.392 . S
C328 C329 1.385 . S
C328 C330 1.478 . S
C329 H323 0.930 . S
C329 C325 1.400 . S
C329 C328 1.385 . S
C330 C328 1.478 . S
C330 C332 1.381 . S
C330 C336 1.383 . S
C331 C327 1.495 . S
C331 H337 0.959 . S
C331 H338 0.961 . S
C331 H339 0.960 . S
C332 C330 1.381 . S
C332 C333 1.394 . S
C332 H340 0.930 . S
C333 C332 1.394 . S
C333 C334 1.383 . S
C333 H341 0.929 . S
C334 C333 1.383 . S
C334 C335 1.377 . S
C335 H319 0.930 . S
C335 C334 1.377 . S
C335 C336 1.379 . S
C336 H320 0.931 . S
C336 C330 1.383 . S
C336 C335 1.379 . S
H337 C331 0.959 . S
H338 C331 0.961 . S
H339 C331 0.960 . S
H340 C332 0.930 . S
H341 C333 0.929 . S
H342 C350 0.929 . S
H343 C352 0.930 . S
H344 C354 0.930 . S
H345 C357 0.929 1_554 S
H346 C360 0.930 . S
H347 C362 0.960 . S
H348 C362 0.960 . S
H349 C362 0.960 . S
C350 H342 0.929 . S
C350 C351 1.377 . S
C350 C352 1.384 . S
C351 C350 1.377 . S
C351 C357 1.390 . S
C352 H343 0.930 . S
C352 C350 1.384 . S
C352 C353 1.372 . S
C353 C352 1.372 . S
C353 C354 1.400 . S
C353 C358 1.490 . S
C354 H344 0.930 . S
C354 C353 1.400 . S
C354 C357 1.386 . S
H355 C371 0.930 . S
H356 C372 0.931 . S
C357 H345 0.929 1_556 S
C357 C351 1.390 . S
C357 C354 1.386 . S
C358 C353 1.490 . S
C358 C360 1.395 . S
C358 C361 1.403 . S
H359 C365 0.930 . S
C360 H346 0.930 . S
C360 C358 1.395 . S
C360 C363 1.403 . S
C361 C358 1.403 . S
C361 C362 1.524 . S
C361 C365 1.400 . S
C362 H347 0.960 . S
C362 H348 0.960 . S
C362 H349 0.960 . S
C362 C361 1.524 . S
C363 C360 1.403 . S
C363 C364 1.392 . S
C363 C367 1.495 . S
C364 C363 1.392 . S
C364 C365 1.385 . S
C364 C366 1.478 . S
C365 H359 0.930 . S
C365 C361 1.400 . S
C365 C364 1.385 . S
C366 C364 1.478 . S
C366 C368 1.381 . S
C366 C372 1.383 . S
C367 C363 1.495 . S
C367 H373 0.959 . S
C367 H374 0.961 . S
C367 H375 0.960 . S
C368 C366 1.381 . S
C368 C369 1.394 . S
C368 H376 0.930 . S
C369 C368 1.394 . S
C369 C370 1.383 . S
C369 H377 0.929 . S
C370 C369 1.383 . S
C370 C371 1.377 . S
C371 H355 0.930 . S
C371 C370 1.377 . S
C371 C372 1.379 . S
C372 H356 0.931 . S
C372 C366 1.383 . S
C372 C371 1.379 . S
H373 C367 0.959 . S
H374 C367 0.961 . S
H375 C367 0.960 . S
H376 C368 0.930 . S
H377 C369 0.929 . S
H378 C386 0.929 . S
H379 C388 0.930 . S
H380 C390 0.930 . S
H381 C393 0.929 1_554 S
H382 C396 0.930 . S
H383 C398 0.960 . S
H384 C398 0.960 . S
H385 C398 0.960 . S
C386 H378 0.929 . S
C386 C387 1.377 . S
C386 C388 1.384 . S
C387 C386 1.377 . S
C387 C393 1.390 . S
C388 H379 0.930 . S
C388 C386 1.384 . S
C388 C389 1.372 . S
C389 C388 1.372 . S
C389 C390 1.400 . S
C389 C394 1.490 . S
C390 H380 0.930 . S
C390 C389 1.400 . S
C390 C393 1.386 . S
H391 C407 0.930 . S
H392 C408 0.931 . S
C393 H381 0.929 1_556 S
C393 C387 1.390 . S
C393 C390 1.386 . S
C394 C389 1.490 . S
C394 C396 1.395 . S
C394 C397 1.403 . S
H395 C401 0.930 . S
C396 H382 0.930 . S
C396 C394 1.395 . S
C396 C399 1.403 . S
C397 C394 1.403 . S
C397 C398 1.524 . S
C397 C401 1.400 . S
C398 H383 0.960 . S
C398 H384 0.960 . S
C398 H385 0.960 . S
C398 C397 1.524 . S
C399 C396 1.403 . S
C399 C400 1.392 . S
C399 C403 1.495 . S
C400 C399 1.392 . S
C400 C401 1.385 . S
C400 C402 1.478 . S
C401 H395 0.930 . S
C401 C397 1.400 . S
C401 C400 1.385 . S
C402 C400 1.478 . S
C402 C404 1.381 . S
C402 C408 1.383 . S
C403 C399 1.495 . S
C403 H409 0.959 . S
C403 H410 0.961 . S
C403 H411 0.960 . S
C404 C402 1.381 . S
C404 C405 1.394 . S
C404 H412 0.930 . S
C405 C404 1.394 . S
C405 C406 1.383 . S
C405 H413 0.929 . S
C406 C405 1.383 . S
C406 C407 1.377 . S
C407 H391 0.930 . S
C407 C406 1.377 . S
C407 C408 1.379 . S
C408 H392 0.931 . S
C408 C402 1.383 . S
C408 C407 1.379 . S
H409 C403 0.959 . S
H410 C403 0.961 . S
H411 C403 0.960 . S
H412 C404 0.930 . S
H413 C405 0.929 . S
H414 C422 0.929 . S
H415 C424 0.930 . S
H416 C426 0.930 . S
H417 C429 0.929 . S
H418 C432 0.930 . S
H419 C434 0.960 . S
H420 C434 0.960 . S
H421 C434 0.960 . S
C422 H414 0.929 . S
C422 C423 1.377 . S
C422 C424 1.384 . S
C423 C422 1.377 . S
C423 C429 1.390 . S
C424 H415 0.930 . S
C424 C422 1.384 . S
C424 C425 1.372 . S
C425 C424 1.372 . S
C425 C426 1.400 . S
C425 C430 1.490 . S
C426 H416 0.930 . S
C426 C425 1.400 . S
C426 C429 1.386 . S
H427 C443 0.930 . S
H428 C444 0.931 . S
C429 H417 0.929 . S
C429 C423 1.390 . S
C429 C426 1.386 . S
C430 C425 1.490 . S
C430 C432 1.395 . S
C430 C433 1.403 . S
H431 C437 0.930 . S
C432 H418 0.930 . S
C432 C430 1.395 . S
C432 C435 1.403 . S
C433 C430 1.403 . S
C433 C434 1.524 . S
C433 C437 1.400 . S
C434 H419 0.960 . S
C434 H420 0.960 . S
C434 H421 0.960 . S
C434 C433 1.524 . S
C435 C432 1.403 . S
C435 C436 1.392 . S
C435 C439 1.495 . S
C436 C435 1.392 . S
C436 C437 1.385 . S
C436 C438 1.478 . S
C437 H431 0.930 . S
C437 C433 1.400 . S
C437 C436 1.385 . S
C438 C436 1.478 . S
C438 C440 1.381 . S
C438 C444 1.383 . S
C439 C435 1.495 . S
C439 H445 0.959 . S
C439 H446 0.961 . S
C439 H447 0.960 . S
C440 C438 1.381 . S
C440 C441 1.394 . S
C440 H448 0.930 . S
C441 C440 1.394 . S
C441 C442 1.383 . S
C441 H449 0.929 . S
C442 C441 1.383 . S
C442 C443 1.377 . S
C443 H427 0.930 . S
C443 C442 1.377 . S
C443 C444 1.379 . S
C444 H428 0.931 . S
C444 C438 1.383 . S
C444 C443 1.379 . S
H445 C439 0.959 . S
H446 C439 0.961 . S
H447 C439 0.960 . S
H448 C440 0.930 . S
H449 C441 0.929 . S
H450 C458 0.929 . S
H451 C460 0.930 . S
H452 C462 0.930 . S
H453 C465 0.929 . S
H454 C468 0.930 . S
H455 C470 0.960 . S
H456 C470 0.960 . S
H457 C470 0.960 . S
C458 H450 0.929 . S
C458 C459 1.377 . S
C458 C460 1.384 . S
C459 C458 1.377 . S
C459 C465 1.390 . S
C460 H451 0.930 . S
C460 C458 1.384 . S
C460 C461 1.372 . S
C461 C460 1.372 . S
C461 C462 1.400 . S
C461 C466 1.490 . S
C462 H452 0.930 . S
C462 C461 1.400 . S
C462 C465 1.386 . S
H463 C479 0.930 . S
H464 C480 0.931 . S
C465 H453 0.929 . S
C465 C459 1.390 . S
C465 C462 1.386 . S
C466 C461 1.490 . S
C466 C468 1.395 . S
C466 C469 1.403 . S
H467 C473 0.930 . S
C468 H454 0.930 . S
C468 C466 1.395 . S
C468 C471 1.403 . S
C469 C466 1.403 . S
C469 C470 1.524 . S
C469 C473 1.400 . S
C470 H455 0.960 . S
C470 H456 0.960 . S
C470 H457 0.960 . S
C470 C469 1.524 . S
C471 C468 1.403 . S
C471 C472 1.392 . S
C471 C475 1.495 . S
C472 C471 1.392 . S
C472 C473 1.385 . S
C472 C474 1.478 . S
C473 H467 0.930 . S
C473 C469 1.400 . S
C473 C472 1.385 . S
C474 C472 1.478 . S
C474 C476 1.381 . S
C474 C480 1.383 . S
C475 C471 1.495 . S
C475 H481 0.959 . S
C475 H482 0.961 . S
C475 H483 0.960 . S
C476 C474 1.381 . S
C476 C477 1.394 . S
C476 H484 0.930 . S
C477 C476 1.394 . S
C477 C478 1.383 . S
C477 H485 0.929 . S
C478 C477 1.383 . S
C478 C479 1.377 . S
C479 H463 0.930 . S
C479 C478 1.377 . S
C479 C480 1.379 . S
C480 H464 0.931 . S
C480 C474 1.383 . S
C480 C479 1.379 . S
H481 C475 0.959 . S
H482 C475 0.961 . S
H483 C475 0.960 . S
H484 C476 0.930 . S
H485 C477 0.929 . S
H486 C494 0.929 . S
H487 C496 0.930 . S
H488 C498 0.930 . S
H489 C501 0.929 . S
H490 C504 0.930 . S
H491 C506 0.960 . S
H492 C506 0.960 . S
H493 C506 0.960 . S
C494 H486 0.929 . S
C494 C495 1.377 . S
C494 C496 1.384 . S
C495 C494 1.377 . S
C495 C501 1.390 . S
C496 H487 0.930 . S
C496 C494 1.384 . S
C496 C497 1.372 . S
C497 C496 1.372 . S
C497 C498 1.400 . S
C497 C502 1.490 . S
C498 H488 0.930 . S
C498 C497 1.400 . S
C498 C501 1.386 . S
H499 C515 0.930 . S
H500 C516 0.931 . S
C501 H489 0.929 . S
C501 C495 1.390 . S
C501 C498 1.386 . S
C502 C497 1.490 . S
C502 C504 1.395 . S
C502 C505 1.403 . S
H503 C509 0.930 . S
C504 H490 0.930 . S
C504 C502 1.395 . S
C504 C507 1.403 . S
C505 C502 1.403 . S
C505 C506 1.524 . S
C505 C509 1.400 . S
C506 H491 0.960 . S
C506 H492 0.960 . S
C506 H493 0.960 . S
C506 C505 1.524 . S
C507 C504 1.403 . S
C507 C508 1.392 . S
C507 C511 1.495 . S
C508 C507 1.392 . S
C508 C509 1.385 . S
C508 C510 1.478 . S
C509 H503 0.930 . S
C509 C505 1.400 . S
C509 C508 1.385 . S
C510 C508 1.478 . S
C510 C512 1.381 . S
C510 C516 1.383 . S
C511 C507 1.495 . S
C511 H517 0.959 . S
C511 H518 0.961 . S
C511 H519 0.960 . S
C512 C510 1.381 . S
C512 C513 1.394 . S
C512 H520 0.930 . S
C513 C512 1.394 . S
C513 C514 1.383 1_655 S
C513 H521 0.929 . S
C514 C513 1.383 1_455 S
C514 C515 1.377 . S
C515 H499 0.930 . S
C515 C514 1.377 . S
C515 C516 1.379 1_455 S
C516 H500 0.931 . S
C516 C510 1.383 . S
C516 C515 1.379 1_655 S
H517 C511 0.959 . S
H518 C511 0.961 . S
H519 C511 0.960 . S
H520 C512 0.930 . S
H521 C513 0.929 . S
H522 C530 0.929 . S
H523 C532 0.930 . S
H524 C534 0.930 . S
H525 C537 0.929 . S
H526 C540 0.930 . S
H527 C542 0.960 . S
H528 C542 0.960 . S
H529 C542 0.960 . S
C530 H522 0.929 . S
C530 C531 1.377 . S
C530 C532 1.384 . S
C531 C530 1.377 . S
C531 C537 1.390 . S
C532 H523 0.930 . S
C532 C530 1.384 . S
C532 C533 1.372 . S
C533 C532 1.372 . S
C533 C534 1.400 . S
C533 C538 1.490 . S
C534 H524 0.930 . S
C534 C533 1.400 . S
C534 C537 1.386 . S
H535 C551 0.930 . S
H536 C552 0.931 . S
C537 H525 0.929 . S
C537 C531 1.390 . S
C537 C534 1.386 . S
C538 C533 1.490 . S
C538 C540 1.395 . S
C538 C541 1.403 . S
H539 C545 0.930 . S
C540 H526 0.930 . S
C540 C538 1.395 . S
C540 C543 1.403 . S
C541 C538 1.403 . S
C541 C542 1.524 . S
C541 C545 1.400 . S
C542 H527 0.960 . S
C542 H528 0.960 . S
C542 H529 0.960 . S
C542 C541 1.524 . S
C543 C540 1.403 . S
C543 C544 1.392 . S
C543 C547 1.495 . S
C544 C543 1.392 . S
C544 C545 1.385 . S
C544 C546 1.478 . S
C545 H539 0.930 . S
C545 C541 1.400 . S
C545 C544 1.385 . S
C546 C544 1.478 . S
C546 C548 1.381 . S
C546 C552 1.383 . S
C547 C543 1.495 . S
C547 H553 0.959 . S
C547 H554 0.961 . S
C547 H555 0.960 . S
C548 C546 1.381 . S
C548 C549 1.394 . S
C548 H556 0.930 . S
C549 C548 1.394 . S
C549 C550 1.383 . S
C549 H557 0.929 . S
C550 C549 1.383 . S
C550 C551 1.377 . S
C551 H535 0.930 . S
C551 C550 1.377 . S
C551 C552 1.379 . S
C552 H536 0.931 . S
C552 C546 1.383 . S
C552 C551 1.379 . S
H553 C547 0.959 . S
H554 C547 0.961 . S
H555 C547 0.960 . S
H556 C548 0.930 . S
H557 C549 0.929 . S
H558 C566 0.929 . S
H559 C568 0.930 . S
H560 C570 0.930 . S
H561 C573 0.929 . S
H562 C576 0.930 . S
H563 C578 0.960 . S
H564 C578 0.960 . S
H565 C578 0.960 . S
C566 H558 0.929 . S
C566 C567 1.377 . S
C566 C568 1.384 . S
C567 C566 1.377 . S
C567 C573 1.390 . S
C568 H559 0.930 . S
C568 C566 1.384 . S
C568 C569 1.372 . S
C569 C568 1.372 . S
C569 C570 1.400 . S
C569 C574 1.490 . S
C570 H560 0.930 . S
C570 C569 1.400 . S
C570 C573 1.386 . S
H571 C587 0.930 . S
H572 C588 0.931 . S
C573 H561 0.929 . S
C573 C567 1.390 . S
C573 C570 1.386 . S
C574 C569 1.490 . S
C574 C576 1.395 . S
C574 C577 1.403 . S
H575 C581 0.930 . S
C576 H562 0.930 . S
C576 C574 1.395 . S
C576 C579 1.403 . S
C577 C574 1.403 . S
C577 C578 1.524 . S
C577 C581 1.400 . S
C578 H563 0.960 . S
C578 H564 0.960 . S
C578 H565 0.960 . S
C578 C577 1.524 . S
C579 C576 1.403 . S
C579 C580 1.392 . S
C579 C583 1.495 . S
C580 C579 1.392 . S
C580 C581 1.385 . S
C580 C582 1.478 . S
C581 H575 0.930 . S
C581 C577 1.400 . S
C581 C580 1.385 . S
C582 C580 1.478 . S
C582 C584 1.381 . S
C582 C588 1.383 . S
C583 C579 1.495 . S
C583 H589 0.959 . S
C583 H590 0.961 . S
C583 H591 0.960 . S
C584 C582 1.381 . S
C584 C585 1.394 . S
C584 H592 0.930 . S
C585 C584 1.394 . S
C585 C586 1.383 . S
C585 H593 0.929 . S
C586 C585 1.383 . S
C586 C587 1.377 . S
C587 H571 0.930 . S
C587 C586 1.377 . S
C587 C588 1.379 . S
C588 H572 0.931 . S
C588 C582 1.383 . S
C588 C587 1.379 . S
H589 C583 0.959 . S
H590 C583 0.961 . S
H591 C583 0.960 . S
H592 C584 0.930 . S
H593 C585 0.929 . S
H594 C602 0.929 . S
H595 C604 0.930 . S
H596 C606 0.930 . S
H597 C609 0.929 . S
H598 C612 0.930 . S
H599 C614 0.960 . S
H600 C614 0.960 . S
H601 C614 0.960 . S
C602 H594 0.929 . S
C602 C603 1.377 . S
C602 C604 1.384 . S
C603 C602 1.377 . S
C603 C609 1.390 . S
C604 H595 0.930 . S
C604 C602 1.384 . S
C604 C605 1.372 . S
C605 C604 1.372 . S
C605 C606 1.400 . S
C605 C610 1.490 . S
C606 H596 0.930 . S
C606 C605 1.400 . S
C606 C609 1.386 . S
H607 C623 0.930 . S
H608 C624 0.931 . S
C609 H597 0.929 . S
C609 C603 1.390 . S
C609 C606 1.386 . S
C610 C605 1.490 . S
C610 C612 1.395 . S
C610 C613 1.403 . S
H611 C617 0.930 . S
C612 H598 0.930 . S
C612 C610 1.395 . S
C612 C615 1.403 . S
C613 C610 1.403 . S
C613 C614 1.524 . S
C613 C617 1.400 . S
C614 H599 0.960 . S
C614 H600 0.960 . S
C614 H601 0.960 . S
C614 C613 1.524 . S
C615 C612 1.403 . S
C615 C616 1.392 . S
C615 C619 1.495 . S
C616 C615 1.392 . S
C616 C617 1.385 . S
C616 C618 1.478 . S
C617 H611 0.930 . S
C617 C613 1.400 . S
C617 C616 1.385 . S
C618 C616 1.478 . S
C618 C620 1.381 . S
C618 C624 1.383 . S
C619 C615 1.495 . S
C619 H625 0.959 . S
C619 H626 0.961 . S
C619 H627 0.960 . S
C620 C618 1.381 . S
C620 C621 1.394 . S
C620 H628 0.930 . S
C621 C620 1.394 . S
C621 C622 1.383 . S
C621 H629 0.929 . S
C622 C621 1.383 . S
C622 C623 1.377 . S
C623 H607 0.930 . S
C623 C622 1.377 . S
C623 C624 1.379 . S
C624 H608 0.931 . S
C624 C618 1.383 . S
C624 C623 1.379 . S
H625 C619 0.959 . S
H626 C619 0.961 . S
H627 C619 0.960 . S
H628 C620 0.930 . S
H629 C621 0.929 . S
C226 C163 1.372 . S
C207 C21 1.518 . S
C262 C159 1.432 . S
C243 C60 1.514 . S
C298 C184 1.375 . S
C279 C99 1.518 . S
C315 C138 1.512 . S
C334 C180 1.433 . S
C351 C1 1.090 . S
C370 C181 1.037 . S
C406 C196 1.048 . S
C387 C40 1.116 . S
C423 C16 1.732 . S
C442 C197 1.619 . S
C478 C193 1.635 . S
C459 C55 1.746 . S
C514 C160 1.017 . S
C495 C79 1.084 . S
C531 C118 1.116 . S
C550 C175 0.978 . S
C586 C176 1.563 . S
C567 C94 1.732 . S
C622 C172 1.590 . S
C603 C133 1.743 . S
