# Generated by pormake.
# Topology pyr, (3,6)-cn, num edge types: 1
# Building blocks:
#     Node 0, Type 0, BuildingBlock: KAKCAD_clean_linker_0, # of connection points: 3
#     Node 1, Type 0, BuildingBlock: KAKCAD_clean_linker_0, # of connection points: 3
#     Node 2, Type 0, BuildingBlock: KAKCAD_clean_linker_0, # of connection points: 3
#     Node 3, Type 0, BuildingBlock: KAKCAD_clean_linker_0, # of connection points: 3
#     Node 4, Type 0, BuildingBlock: KAKCAD_clean_linker_0, # of connection points: 3
#     Node 5, Type 0, BuildingBlock: KAKCAD_clean_linker_0, # of connection points: 3
#     Node 6, Type 0, BuildingBlock: KAKCAD_clean_linker_0, # of connection points: 3
#     Node 7, Type 0, BuildingBlock: KAKCAD_clean_linker_0, # of connection points: 3
#     Node 8, Type 1, BuildingBlock: BETDIP_clean_sbu_0, # of connection points: 6
#     Node 9, Type 1, BuildingBlock: BETDIP_clean_sbu_0, # of connection points: 6
#     Node 10, Type 1, BuildingBlock: BETDIP_clean_sbu_0, # of connection points: 6
#     Node 11, Type 1, BuildingBlock: BETDIP_clean_sbu_0, # of connection points: 6
#     Edge 12, Type (0, 1), BuildingBlock: UVAHIK_clean_linker_0, # of connection points: 2
#     Edge 13, Type (0, 1), BuildingBlock: UVAHIK_clean_linker_0, # of connection points: 2
#     Edge 14, Type (0, 1), BuildingBlock: UVAHIK_clean_linker_0, # of connection points: 2
#     Edge 15, Type (0, 1), BuildingBlock: UVAHIK_clean_linker_0, # of connection points: 2
#     Edge 16, Type (0, 1), BuildingBlock: UVAHIK_clean_linker_0, # of connection points: 2
#     Edge 17, Type (0, 1), BuildingBlock: UVAHIK_clean_linker_0, # of connection points: 2
#     Edge 18, Type (0, 1), BuildingBlock: UVAHIK_clean_linker_0, # of connection points: 2
#     Edge 19, Type (0, 1), BuildingBlock: UVAHIK_clean_linker_0, # of connection points: 2
#     Edge 20, Type (0, 1), BuildingBlock: UVAHIK_clean_linker_0, # of connection points: 2
#     Edge 21, Type (0, 1), BuildingBlock: UVAHIK_clean_linker_0, # of connection points: 2
#     Edge 22, Type (0, 1), BuildingBlock: UVAHIK_clean_linker_0, # of connection points: 2
#     Edge 23, Type (0, 1), BuildingBlock: UVAHIK_clean_linker_0, # of connection points: 2
#     Edge 24, Type (0, 1), BuildingBlock: UVAHIK_clean_linker_0, # of connection points: 2
#     Edge 25, Type (0, 1), BuildingBlock: UVAHIK_clean_linker_0, # of connection points: 2
#     Edge 26, Type (0, 1), BuildingBlock: UVAHIK_clean_linker_0, # of connection points: 2
#     Edge 27, Type (0, 1), BuildingBlock: UVAHIK_clean_linker_0, # of connection points: 2
#     Edge 28, Type (0, 1), BuildingBlock: UVAHIK_clean_linker_0, # of connection points: 2
#     Edge 29, Type (0, 1), BuildingBlock: UVAHIK_clean_linker_0, # of connection points: 2
#     Edge 30, Type (0, 1), BuildingBlock: UVAHIK_clean_linker_0, # of connection points: 2
#     Edge 31, Type (0, 1), BuildingBlock: UVAHIK_clean_linker_0, # of connection points: 2
#     Edge 32, Type (0, 1), BuildingBlock: UVAHIK_clean_linker_0, # of connection points: 2
#     Edge 33, Type (0, 1), BuildingBlock: UVAHIK_clean_linker_0, # of connection points: 2
#     Edge 34, Type (0, 1), BuildingBlock: UVAHIK_clean_linker_0, # of connection points: 2
#     Edge 35, Type (0, 1), BuildingBlock: UVAHIK_clean_linker_0, # of connection points: 2
# Relax obj value: 0.099
# Max RMSD: 0.183
# Mean RMSD: 0.083
data_MOF--net-pyr--node1-BETDIP_clean_sbu_0--node2-KAKCAD_clean_linker_0--edge1-UVAHIK_clean_linker_0
_symmetry_space_group_name_H-M    P1
_symmetry_Int_Tables_number       1
_symmetry_cell_setting            triclinic
loop_
_symmetry_equiv_pos_as_xyz
'x, y, z'
_cell_length_a     54.290836
_cell_length_b     59.240983
_cell_length_c     58.284223
_cell_angle_alpha  89.032981
_cell_angle_beta   92.577092
_cell_angle_gamma 102.74319
loop_
_atom_site_label
_atom_site_type_symbol
_atom_site_fract_x
_atom_site_fract_y
_atom_site_fract_z
_atom_type_partial_charge
C0 C 0.24869 0.22089 0.26034 0.0
C1 C 0.26256 0.21716 0.2804 0.0
C2 C 0.26101 0.23106 0.24104 0.0
C3 C 0.28754 0.23801 0.24139 0.0
C4 C 0.30142 0.23448 0.2616 0.0
C5 C 0.28905 0.22405 0.28088 0.0
C6 C 0.3005 0.24808 0.22041 0.0
C7 C 0.28967 0.26266 0.20581 0.0
C8 C 0.30005 0.27014 0.18464 0.0
C9 C 0.32227 0.26378 0.17853 0.0
C10 C 0.33361 0.24942 0.19303 0.0
C11 C 0.32264 0.24172 0.21395 0.0
C12 C 0.35531 0.24043 0.18538 0.0
C13 C 0.35519 0.23224 0.16289 0.0
C14 C 0.37532 0.23839 0.20088 0.0
C15 C 0.39434 0.22764 0.19423 0.0
C16 C 0.39369 0.2187 0.17197 0.0
C17 C 0.28635 0.28288 0.16821 0.0
C18 C 0.26009 0.27535 0.16452 0.0
C19 C 0.29917 0.30225 0.15597 0.0
C20 C 0.28584 0.3141 0.14062 0.0
C21 C 0.25952 0.3066 0.13709 0.0
C22 C 0.24685 0.28707 0.14917 0.0
C23 C 0.37413 0.22149 0.15627 0.0
H24 H 0.22827 0.21538 0.25936 0.0
H25 H 0.2497 0.23294 0.22563 0.0
H26 H 0.32184 0.23984 0.26255 0.0
H27 H 0.30018 0.22151 0.29621 0.0
H28 H 0.27279 0.26797 0.21074 0.0
H29 H 0.33053 0.22964 0.22456 0.0
H30 H 0.33021 0.2693 0.16209 0.0
H31 H 0.33981 0.23317 0.15067 0.0
H32 H 0.37605 0.24478 0.21825 0.0
H33 H 0.40933 0.22602 0.20663 0.0
H34 H 0.24974 0.26026 0.17343 0.0
H35 H 0.31942 0.30843 0.15851 0.0
H36 H 0.37278 0.21444 0.13912 0.0
H37 H 0.22654 0.28104 0.14711 0.0
H38 H 0.29611 0.32906 0.13148 0.0
C39 C 0.2113 0.79281 0.79401 0.0
C40 C 0.23779 0.79773 0.79672 0.0
C41 C 0.19925 0.78248 0.77389 0.0
C42 C 0.21347 0.77708 0.75599 0.0
C43 C 0.23997 0.78169 0.75897 0.0
C44 C 0.25195 0.79177 0.77913 0.0
C45 C 0.20106 0.76807 0.73369 0.0
C46 C 0.18116 0.77708 0.7238 0.0
C47 C 0.1714 0.77088 0.70147 0.0
C48 C 0.18163 0.75524 0.68904 0.0
C49 C 0.20165 0.74622 0.69863 0.0
C50 C 0.21078 0.75227 0.7211 0.0
C51 C 0.21522 0.73287 0.68439 0.0
C52 C 0.20225 0.71391 0.67125 0.0
C53 C 0.24164 0.73962 0.68358 0.0
C54 C 0.25487 0.72775 0.66993 0.0
C55 C 0.24204 0.70874 0.65684 0.0
C56 C 0.15271 0.78298 0.69041 0.0
C57 C 0.13264 0.78733 0.70281 0.0
C58 C 0.1562 0.79214 0.6681 0.0
C59 C 0.14067 0.80617 0.65878 0.0
C60 C 0.12129 0.81136 0.67155 0.0
C61 C 0.11709 0.80136 0.69348 0.0
C62 C 0.21561 0.70176 0.65773 0.0
H63 H 0.19993 0.79707 0.80741 0.0
H64 H 0.17881 0.77891 0.77228 0.0
H65 H 0.25162 0.77832 0.74539 0.0
H66 H 0.27242 0.79572 0.78058 0.0
H67 H 0.17438 0.79018 0.73287 0.0
H68 H 0.22611 0.74512 0.72851 0.0
H69 H 0.17484 0.75091 0.67154 0.0
H70 H 0.18187 0.7084 0.6716 0.0
H71 H 0.25209 0.75435 0.69331 0.0
H72 H 0.27526 0.73334 0.66976 0.0
H73 H 0.12931 0.78027 0.71994 0.0
H74 H 0.17173 0.78943 0.65824 0.0
H75 H 0.20531 0.68716 0.64775 0.0
H76 H 0.10205 0.80471 0.70359 0.0
H77 H 0.14464 0.81382 0.64196 0.0
C78 C 0.71646 0.40892 0.88147 0.0
C79 C 0.73743 0.39879 0.88499 0.0
C80 C 0.6947 0.39715 0.8693 0.0
C81 C 0.69328 0.3748 0.86082 0.0
C82 C 0.71422 0.36463 0.86442 0.0
C83 C 0.73616 0.3766 0.87618 0.0
C84 C 0.66983 0.362 0.84862 0.0
C85 C 0.65864 0.37244 0.83032 0.0
C86 C 0.63617 0.36065 0.81885 0.0
C87 C 0.62459 0.33823 0.8265 0.0
C88 C 0.63563 0.32755 0.84483 0.0
C89 C 0.65841 0.33944 0.85551 0.0
C90 C 0.62332 0.30421 0.85351 0.0
C91 C 0.59907 0.30016 0.86228 0.0
C92 C 0.63656 0.28635 0.8547 0.0
C93 C 0.62591 0.26494 0.86469 0.0
C94 C 0.60194 0.26096 0.87434 0.0
C95 C 0.6254 0.37178 0.79866 0.0
C96 C 0.62557 0.39557 0.79873 0.0
C97 C 0.6161 0.35906 0.77872 0.0
C98 C 0.60791 0.37 0.75917 0.0
C99 C 0.60877 0.39395 0.75904 0.0
C100 C 0.61738 0.40647 0.77924 0.0
C101 C 0.58861 0.27892 0.87275 0.0
H102 H 0.71697 0.42605 0.88797 0.0
H103 H 0.67879 0.40534 0.86688 0.0
H104 H 0.71365 0.34746 0.858 0.0
H105 H 0.75201 0.36833 0.87875 0.0
H106 H 0.66794 0.38958 0.82461 0.0
H107 H 0.6668 0.3314 0.8698 0.0
H108 H 0.60703 0.32906 0.81824 0.0
H109 H 0.5886 0.31377 0.86183 0.0
H110 H 0.65527 0.28902 0.84797 0.0
H111 H 0.63665 0.25157 0.86485 0.0
H112 H 0.63212 0.40585 0.81389 0.0
H113 H 0.61594 0.34078 0.77793 0.0
H114 H 0.57036 0.27695 0.88023 0.0
H115 H 0.61778 0.4248 0.78004 0.0
H116 H 0.60163 0.35978 0.74392 0.0
C117 C 0.869 0.64944 0.25642 0.0
C118 C 0.89494 0.65131 0.25321 0.0
C119 C 0.86071 0.65931 0.27555 0.0
C120 C 0.87805 0.67145 0.29218 0.0
C121 C 0.90402 0.67365 0.28884 0.0
C122 C 0.91233 0.66372 0.26969 0.0
C123 C 0.8689 0.68145 0.31291 0.0
C124 C 0.84731 0.66908 0.32398 0.0
C125 C 0.83799 0.67826 0.34312 0.0
C126 C 0.85036 0.70039 0.35092 0.0
C127 C 0.87205 0.71301 0.3405 0.0
C128 C 0.8814 0.70333 0.32167 0.0
C129 C 0.88458 0.73631 0.34966 0.0
C130 C 0.87049 0.75334 0.35217 0.0
C131 C 0.91 0.7411 0.35764 0.0
C132 C 0.92081 0.76213 0.36863 0.0
C133 C 0.9066 0.77906 0.37141 0.0
C134 C 0.81547 0.66486 0.3552 0.0
C135 C 0.7943 0.6519 0.34286 0.0
C136 C 0.81481 0.66528 0.37932 0.0
C137 C 0.79354 0.65345 0.39072 0.0
C138 C 0.77223 0.64071 0.37841 0.0
C139 C 0.77298 0.64003 0.3543 0.0
C140 C 0.88143 0.77453 0.36268 0.0
H141 H 0.85495 0.64053 0.24398 0.0
H142 H 0.84059 0.6576 0.27716 0.0
H143 H 0.91798 0.68263 0.30133 0.0
H144 H 0.93244 0.66536 0.26811 0.0
H145 H 0.83811 0.65194 0.31805 0.0
H146 H 0.8979 0.7132 0.31342 0.0
H147 H 0.84314 0.70791 0.36532 0.0
H148 H 0.85084 0.75013 0.34622 0.0
H149 H 0.92125 0.72824 0.35612 0.0
H150 H 0.94029 0.76514 0.37505 0.0
H151 H 0.79399 0.65126 0.32429 0.0
H152 H 0.83083 0.67476 0.38949 0.0
H153 H 0.86992 0.7871 0.36465 0.0
H154 H 0.75711 0.63022 0.34419 0.0
H155 H 0.79369 0.65466 0.40925 0.0
C156 C 0.73729 0.79674 0.77082 0.0
C157 C 0.74672 0.82079 0.76966 0.0
C158 C 0.72285 0.78689 0.78921 0.0
C159 C 0.7173 0.80097 0.80654 0.0
C160 C 0.72637 0.82505 0.80511 0.0
C161 C 0.741 0.83485 0.78691 0.0
C162 C 0.70306 0.79077 0.82669 0.0
C163 C 0.70988 0.77236 0.83891 0.0
C164 C 0.69865 0.76455 0.85966 0.0
C165 C 0.68018 0.77517 0.86808 0.0
C166 C 0.67271 0.79333 0.85571 0.0
C167 C 0.68409 0.80075 0.83489 0.0
C168 C 0.65397 0.80543 0.8648 0.0
C169 C 0.63252 0.79319 0.87592 0.0
C170 C 0.65741 0.82955 0.8621 0.0
C171 C 0.63957 0.84106 0.8697 0.0
C172 C 0.61803 0.82883 0.88052 0.0
C173 C 0.70804 0.74659 0.87319 0.0
C174 C 0.71071 0.72627 0.86252 0.0
C175 C 0.71688 0.75074 0.89608 0.0
C176 C 0.72965 0.73552 0.9076 0.0
C177 C 0.73362 0.71581 0.89646 0.0
C178 C 0.72319 0.71096 0.87408 0.0
C179 C 0.61477 0.80483 0.88384 0.0
H180 H 0.74155 0.78553 0.75777 0.0
H181 H 0.71603 0.76828 0.78991 0.0
H182 H 0.72264 0.83631 0.81837 0.0
H183 H 0.74783 0.85346 0.78632 0.0
H184 H 0.725 0.76496 0.83294 0.0
H185 H 0.67837 0.81454 0.82502 0.0
H186 H 0.67208 0.7696 0.88443 0.0
H187 H 0.62922 0.7746 0.87814 0.0
H188 H 0.67404 0.83967 0.85427 0.0
H189 H 0.64284 0.85966 0.86743 0.0
H190 H 0.70378 0.7226 0.84495 0.0
H191 H 0.71522 0.7664 0.90461 0.0
H192 H 0.5983 0.79506 0.8922 0.0
H193 H 0.72534 0.69564 0.86519 0.0
H194 H 0.73758 0.7399 0.92475 0.0
C195 C 0.76331 0.23213 0.28146 0.0
C196 C 0.75998 0.24659 0.26281 0.0
C197 C 0.77944 0.24074 0.30007 0.0
C198 C 0.79232 0.26406 0.30054 0.0
C199 C 0.78918 0.27855 0.2818 0.0
C200 C 0.77332 0.26978 0.26291 0.0
C201 C 0.80744 0.27325 0.32141 0.0
C202 C 0.82451 0.26113 0.33164 0.0
C203 C 0.8352 0.26673 0.35377 0.0
C204 C 0.82931 0.2854 0.36533 0.0
C205 C 0.81248 0.29798 0.35508 0.0
C206 C 0.80197 0.29196 0.33294 0.0
C207 C 0.80247 0.31482 0.36845 0.0
C208 C 0.79385 0.30895 0.39061 0.0
C209 C 0.79795 0.33516 0.35797 0.0
C210 C 0.78344 0.34836 0.36866 0.0
C211 C 0.77311 0.34142 0.39001 0.0
C212 C 0.85019 0.25141 0.36549 0.0
C213 C 0.84222 0.22728 0.36329 0.0
C214 C 0.87221 0.26046 0.37893 0.0
C215 C 0.88612 0.24561 0.38965 0.0
C216 C 0.87815 0.22147 0.38722 0.0
C217 C 0.85607 0.21255 0.37386 0.0
C218 C 0.7793 0.32212 0.40126 0.0
H219 H 0.75335 0.21414 0.28166 0.0
H220 H 0.78127 0.22929 0.31445 0.0
H221 H 0.79887 0.29661 0.28187 0.0
H222 H 0.77096 0.28121 0.24866 0.0
H223 H 0.8287 0.24667 0.32259 0.0
H224 H 0.78778 0.30054 0.32547 0.0
H225 H 0.83676 0.28939 0.38271 0.0
H226 H 0.79684 0.29331 0.39908 0.0
H227 H 0.80454 0.34019 0.34097 0.0
H228 H 0.77896 0.36312 0.35953 0.0
H229 H 0.82507 0.21967 0.35346 0.0
H230 H 0.87883 0.27897 0.38093 0.0
H231 H 0.77191 0.31657 0.41788 0.0
H232 H 0.84955 0.19409 0.3713 0.0
H233 H 0.90295 0.25302 0.39999 0.0
C234 C 0.27948 0.63856 0.1915 0.0
C235 C 0.27666 0.64105 0.16756 0.0
C236 C 0.30137 0.65045 0.2035 0.0
C237 C 0.32111 0.66487 0.19177 0.0
C238 C 0.31843 0.6667 0.16769 0.0
C239 C 0.29645 0.65513 0.15581 0.0
C240 C 0.34426 0.67827 0.20437 0.0
C241 C 0.35489 0.66899 0.22381 0.0
C242 C 0.37697 0.68147 0.23537 0.0
C243 C 0.38897 0.70334 0.2266 0.0
C244 C 0.37873 0.713 0.20706 0.0
C245 C 0.35601 0.70049 0.19665 0.0
C246 C 0.39138 0.73602 0.19715 0.0
C247 C 0.40459 0.7543 0.21119 0.0
C248 C 0.38965 0.74011 0.17326 0.0
C249 C 0.39968 0.76189 0.16388 0.0
C250 C 0.4124 0.78012 0.17794 0.0
C251 C 0.38735 0.6714 0.25649 0.0
C252 C 0.37095 0.65915 0.27273 0.0
C253 C 0.41353 0.67351 0.26048 0.0
C254 C 0.42296 0.66336 0.27995 0.0
C255 C 0.40649 0.65085 0.29604 0.0
C256 C 0.38035 0.64901 0.29215 0.0
C257 C 0.41518 0.77604 0.20164 0.0
H258 H 0.26446 0.62791 0.20102 0.0
H259 H 0.30254 0.64873 0.22201 0.0
H260 H 0.33339 0.67704 0.15789 0.0
H261 H 0.29502 0.65707 0.13731 0.0
H262 H 0.3463 0.65172 0.22967 0.0
H263 H 0.34711 0.70824 0.18253 0.0
H264 H 0.40624 0.7128 0.23504 0.0
H265 H 0.40623 0.75206 0.22962 0.0
H266 H 0.38048 0.72645 0.16164 0.0
H267 H 0.39763 0.76448 0.1455 0.0
H268 H 0.3507 0.65738 0.27048 0.0
H269 H 0.42677 0.68263 0.24832 0.0
H270 H 0.42492 0.78986 0.21286 0.0
H271 H 0.36699 0.63933 0.30391 0.0
H272 H 0.44321 0.66542 0.28243 0.0
C273 C 0.13033 0.26498 0.69124 0.0
C274 C 0.10535 0.25993 0.68178 0.0
C275 C 0.14069 0.28637 0.70157 0.0
C276 C 0.12629 0.30324 0.70329 0.0
C277 C 0.10107 0.29803 0.69481 0.0
C278 C 0.09079 0.27676 0.68404 0.0
C279 C 0.13844 0.32686 0.71192 0.0
C280 C 0.16018 0.33928 0.70148 0.0
C281 C 0.17212 0.36171 0.70862 0.0
C282 C 0.1621 0.37168 0.72683 0.0
C283 C 0.14066 0.3594 0.73824 0.0
C284 C 0.12872 0.33701 0.73024 0.0
C285 C 0.13129 0.36984 0.7587 0.0
C286 C 0.14832 0.38442 0.77395 0.0
C287 C 0.10539 0.36542 0.76334 0.0
C288 C 0.09688 0.37526 0.78246 0.0
C289 C 0.11393 0.39003 0.79756 0.0
C290 C 0.19509 0.3745 0.69687 0.0
C291 C 0.21425 0.36312 0.69152 0.0
C292 C 0.19772 0.39782 0.69018 0.0
C293 C 0.21863 0.40923 0.67793 0.0
C294 C 0.23759 0.39768 0.67217 0.0
C295 C 0.23519 0.37454 0.67945 0.0
C296 C 0.13981 0.39443 0.79286 0.0
H297 H 0.1421 0.25247 0.69062 0.0
H298 H 0.16016 0.28985 0.70807 0.0
H299 H 0.08961 0.31081 0.69565 0.0
H300 H 0.07166 0.27392 0.67682 0.0
H301 H 0.16746 0.3316 0.68721 0.0
H302 H 0.1124 0.32707 0.73867 0.0
H303 H 0.17124 0.38903 0.73219 0.0
H304 H 0.16845 0.38802 0.77148 0.0
H305 H 0.09151 0.35454 0.75206 0.0
H306 H 0.07685 0.37103 0.78545 0.0
H307 H 0.21308 0.34529 0.69675 0.0
H308 H 0.18322 0.40705 0.69383 0.0
H309 H 0.15369 0.40591 0.80365 0.0
H310 H 0.24959 0.36515 0.67593 0.0
H311 H 0.21955 0.42694 0.67246 0.0
Tb312 Tb 0.97965 1.01036 0.53146 0.0
Tb313 Tb 0.0336 0.02838 0.52226 0.0
C314 C 0.93669 0.98497 0.53731 0.0
C315 C 0.92345 0.97089 0.55596 0.0
C316 C 0.91108 0.9479 0.55155 0.0
C317 C 0.89783 0.9343 0.56871 0.0
C318 C 0.89652 0.9435 0.59061 0.0
C319 C 0.9092 0.96651 0.59503 0.0
C320 C 0.92263 0.98005 0.57791 0.0
C321 C 1.00114 0.04826 0.5547 0.0
C322 C 0.02187 0.99114 0.56041 0.0
C323 C 0.07669 0.05338 0.51593 0.0
C324 C 0.09033 0.06616 0.49668 0.0
C325 C 0.0982 0.09034 0.49777 0.0
C326 C 0.11184 0.10274 0.4801 0.0
C327 C 0.11808 0.09115 0.4611 0.0
C328 C 0.11011 0.06695 0.45996 0.0
C329 C 0.09631 0.05456 0.47754 0.0
C330 C 0.01199 0.99054 0.49888 0.0
C331 C 0.9912 0.04785 0.49369 0.0
O332 O 0.95532 0.97754 0.52885 0.0
O333 O 0.942 1.00743 0.53992 0.0
O334 O 0.01117 0.03158 0.5505 0.0
O335 O 0.97765 0.04293 0.54774 0.0
O336 O 0.99809 0.98741 0.5526 0.0
O337 O 0.03875 1.00938 0.55365 0.0
O338 O 0.05787 0.06133 0.52335 0.0
O339 O 0.07148 0.03078 0.51493 0.0
O340 O 1.0021 1.00727 0.50316 0.0
O341 O 0.03547 0.99584 0.5058 0.0
O342 O 0.01505 0.05158 0.50137 0.0
O343 O 0.97443 0.02951 0.50034 0.0
H344 H 0.9116 0.94048 0.53476 0.0
H345 H 0.88869 0.91653 0.56483 0.0
H346 H 0.90835 0.97426 0.61159 0.0
H347 H 0.93211 0.99773 0.5818 0.0
H348 H 0.09399 0.09965 0.51242 0.0
H349 H 0.11796 0.12137 0.48154 0.0
H350 H 0.11443 0.05761 0.4454 0.0
H351 H 0.09049 0.03592 0.47615 0.0
Tb352 Tb 0.53248 0.03088 0.03293 0.0
Tb353 Tb 0.47692 1.01353 1.02446 0.0
C354 C 0.57585 0.05649 0.03811 0.0
C355 C 0.58819 0.07403 0.05493 0.0
C356 C 0.60451 0.09421 0.04732 0.0
C357 C 0.61605 0.11134 0.06295 0.0
C358 C 0.61158 0.1085 0.08654 0.0
C359 C 0.595 0.08824 0.09404 0.0
C360 C 0.58328 0.07124 0.07836 0.0
C361 C 0.51267 0.9933 0.05647 0.0
C362 C 0.49358 0.05093 0.06184 0.0
C363 C 0.43313 0.9886 1.01923 0.0
C364 C 0.41838 0.97313 1.00154 0.0
C365 C 0.40999 0.94951 1.00662 0.0
C366 C 0.39547 0.93457 0.99042 0.0
C367 C 0.38884 0.94301 0.96888 0.0
C368 C 0.39729 0.96665 0.96376 0.0
C369 C 0.41198 0.98158 0.9799 0.0
C370 C 0.497 0.05096 1.00064 0.0
C371 C 0.51604 0.99296 0.99604 0.0
O372 O 0.55772 0.06202 0.02524 0.0
O373 O 0.56997 0.03507 0.04549 0.0
O374 O 0.50267 1.0103 0.05224 0.0
O375 O 0.53535 0.99787 0.04899 0.0
O376 O 0.51654 0.05414 0.05389 0.0
O377 O 0.47542 0.03323 0.05518 0.0
O378 O 0.45202 0.9815 0.02945 0.0
O379 O 0.43882 1.01078 1.01452 0.0
O380 O 0.50672 0.03387 1.00509 0.0
O381 O 0.47429 0.04652 1.008 0.0
O382 O 0.4928 0.99029 1.00333 0.0
O383 O 0.53443 1.01033 1.00302 0.0
H384 H 0.60822 0.09679 0.02924 0.0
H385 H 0.6283 0.12688 0.0565 0.0
H386 H 0.59135 0.08529 0.11207 0.0
H387 H 0.57047 0.05591 0.08459 0.0
H388 H 0.41452 0.94262 1.02324 0.0
H389 H 0.38899 0.91648 0.99493 0.0
H390 H 0.39267 0.97358 0.94719 0.0
H391 H 0.41819 0.9997 0.97543 0.0
Tb392 Tb 0.50604 0.54367 0.53664 0.0
Tb393 Tb 0.50595 0.4943 0.51816 0.0
C394 C 0.49552 0.58143 0.54668 0.0
C395 C 0.47291 0.58958 0.55231 0.0
C396 C 0.44855 0.57608 0.54767 0.0
C397 C 0.4273 0.58416 0.55343 0.0
C398 C 0.43015 0.60593 0.56374 0.0
C399 C 0.45465 0.61932 0.56835 0.0
C400 C 0.47582 0.61118 0.56271 0.0
C401 C 0.5309 0.51788 0.5619 0.0
C402 C 0.45869 0.50096 0.5447 0.0
C403 C 0.51836 0.45618 0.51594 0.0
C404 C 0.53431 0.44663 0.50085 0.0
C405 C 0.54135 0.42594 0.507 0.0
C406 C 0.55894 0.41804 0.49432 0.0
C407 C 0.56983 0.43076 0.47529 0.0
C408 C 0.56215 0.45124 0.46885 0.0
C409 C 0.54455 0.45914 0.48157 0.0
C410 C 0.48772 0.5197 0.48622 0.0
C411 C 0.55025 0.53803 0.50566 0.0
O412 O 0.49621 0.57443 0.52558 0.0
O413 O 0.50321 0.56767 0.56186 0.0
O414 O 0.51031 0.51116 0.55062 0.0
O415 O 0.53789 0.54023 0.55997 0.0
O416 O 0.46799 0.52371 0.54451 0.0
O417 O 0.47112 0.48602 0.5367 0.0
O418 O 0.53067 0.47338 0.52874 0.0
O419 O 0.49713 0.46001 0.50664 0.0
O420 O 0.49588 0.52481 0.50638 0.0
O421 O 0.48926 0.49837 0.48329 0.0
O422 O 0.54251 0.51516 0.50749 0.0
O423 O 0.5377 0.55261 0.51416 0.0
H424 H 0.44595 0.55939 0.53952 0.0
H425 H 0.40868 0.57355 0.54953 0.0
H426 H 0.45746 0.63599 0.57661 0.0
H427 H 0.49451 0.62174 0.5665 0.0
H428 H 0.53384 0.41627 0.52203 0.0
H429 H 0.56471 0.4024 0.49998 0.0
H430 H 0.56996 0.46131 0.45415 0.0
H431 H 0.53941 0.47528 0.47672 0.0
Tb432 Tb 0.00589 0.54225 1.01058 0.0
Tb433 Tb 0.0068 0.50178 0.04113 0.0
C434 C 0.99332 0.57368 0.98629 0.0
C435 C 0.97303 0.58643 0.98541 0.0
C436 C 0.95066 0.57829 0.99703 0.0
C437 C 0.93036 0.58918 0.99378 0.0
C438 C 0.93216 0.60828 0.97879 0.0
C439 C 0.95507 0.61696 0.96806 0.0
C440 C 0.97531 0.60609 0.97133 0.0
C441 C 0.04985 0.54318 0.03231 0.0
C442 C 0.98419 0.54066 0.06118 0.0
C443 C 0.02019 0.47027 0.06454 0.0
C444 C 0.03971 0.45686 0.06241 0.0
C445 C 0.06249 0.46652 0.05193 0.0
C446 C 0.0814 0.45399 0.05102 0.0
C447 C 0.07772 0.43152 0.06036 0.0
C448 C 0.05458 0.42168 0.07021 0.0
C449 C 0.03575 0.4343 0.07127 0.0
C450 C 0.96289 0.50087 1.01926 0.0
C451 C 0.0284 0.5032 0.99044 0.0
O452 O 0.98623 0.55161 0.98163 0.0
O453 O 0.00954 0.57778 1.00382 0.0
O454 O 0.02828 0.5364 0.04025 0.0
O455 O 0.04731 0.55126 1.01176 0.0
O456 O 0.98351 0.54866 0.03977 0.0
O457 O 0.99486 0.52314 0.06641 0.0
O458 O 0.0285 0.49236 0.06866 0.0
O459 O 1.00165 0.46635 0.04899 0.0
O460 O 0.98453 0.5076 1.01142 0.0
O461 O 0.96535 0.49295 0.03993 0.0
O462 O 0.02829 0.49468 1.01166 0.0
O463 O 0.01852 0.52122 0.98533 0.0
H464 H 0.94859 0.56305 1.00795 0.0
H465 H 0.91292 0.58201 1.00216 0.0
H466 H 0.95716 0.63187 0.95672 0.0
H467 H 0.99249 0.61262 0.96231 0.0
H468 H 0.06581 0.48387 0.04476 0.0
H469 H 0.09895 0.46189 0.04314 0.0
H470 H 0.05134 0.40449 0.07774 0.0
H471 H 0.01826 0.42657 0.07934 0.0
C472 C 0.22763 0.21213 0.30789 0.0
C473 C 0.24926 0.20555 0.30048 0.0
C474 C 0.21412 0.20029 0.32589 0.0
C475 C 0.21846 0.15966 0.37432 0.0
H476 H 0.14527 0.14771 0.36871 0.0
C477 C 0.15353 0.09641 0.43405 0.0
C478 C 0.13317 0.10424 0.44268 0.0
C479 C 0.16801 0.10892 0.41694 0.0
C480 C 0.16569 0.15109 0.3706 0.0
H481 H 0.27387 0.18157 0.30614 0.0
H482 H 0.25004 0.16057 0.33735 0.0
H483 H 0.17026 0.16941 0.33863 0.0
H484 H 0.11177 0.13111 0.43998 0.0
H485 H 0.13708 0.15299 0.41002 0.0
H486 H 0.21372 0.14091 0.40616 0.0
C487 C 0.24376 0.17517 0.32959 0.0
C488 C 0.18004 0.16359 0.35342 0.0
C489 C 0.25741 0.18716 0.31169 0.0
C490 C 0.12747 0.12476 0.43376 0.0
C491 C 0.14181 0.13716 0.4165 0.0
C492 C 0.20408 0.14699 0.39143 0.0
C493 C 0.2218 0.18145 0.33675 0.0
C494 C 0.20661 0.16812 0.3551 0.0
C495 C 0.16227 0.12941 0.40798 0.0
C496 C 0.17756 0.14266 0.38976 0.0
H497 H 0.22114 0.22646 0.29974 0.0
H498 H 0.19763 0.20593 0.33129 0.0
H499 H 0.23887 0.16309 0.37633 0.0
H500 H 0.15848 0.08075 0.44076 0.0
H501 H 0.18355 0.10245 0.41055 0.0
C502 C 0.24396 0.83021 0.82481 0.0
C503 C 0.25089 0.81022 0.81716 0.0
C504 C 0.25795 0.84337 0.84257 0.0
C505 C 0.32155 0.85488 0.8712 0.0
H506 H 0.29036 0.88643 0.91568 0.0
C507 C 0.37767 0.90536 0.94778 0.0
C508 C 0.37285 0.92725 0.95195 0.0
C509 C 0.36242 0.89042 0.93199 0.0
C510 C 0.29932 0.87783 0.90326 0.0
H511 H 0.27705 0.78765 0.82281 0.0
H512 H 0.30119 0.81031 0.85417 0.0
H513 H 0.26379 0.86076 0.88769 0.0
H514 H 0.34817 0.95056 0.94308 0.0
H515 H 0.32157 0.92446 0.9154 0.0
H516 H 0.35705 0.87189 0.88687 0.0
C517 C 0.28538 0.8162 0.84606 0.0
C518 C 0.28412 0.86315 0.88721 0.0
C519 C 0.2715 0.80316 0.82818 0.0
C520 C 0.35245 0.93387 0.94006 0.0
C521 C 0.33708 0.91886 0.92441 0.0
C522 C 0.33671 0.86942 0.88733 0.0
C523 C 0.27907 0.83671 0.85318 0.0
C524 C 0.29506 0.85159 0.8709 0.0
C525 C 0.34193 0.89699 0.92021 0.0
C526 C 0.32576 0.88115 0.90344 0.0
H527 H 0.22835 0.83621 0.81642 0.0
H528 H 0.25275 0.8592 0.8474 0.0
H529 H 0.33065 0.84663 0.85861 0.0
H530 H 0.39338 0.89988 0.95658 0.0
H531 H 0.3665 0.87361 0.9292 0.0
C532 C 0.61494 0.42821 0.7319 0.0
C533 C 0.60129 0.40598 0.73788 0.0
C534 C 0.60797 0.43967 0.71226 0.0
C535 C 0.57099 0.43006 0.65655 0.0
H536 H 0.57442 0.49598 0.65993 0.0
C537 C 0.52812 0.48107 0.58471 0.0
C538 C 0.54089 0.50391 0.57999 0.0
C539 C 0.53626 0.4686 0.60312 0.0
C540 C 0.57367 0.47763 0.65851 0.0
H541 H 0.56941 0.37849 0.7276 0.0
H542 H 0.55724 0.39848 0.69338 0.0
H543 H 0.58668 0.47541 0.69352 0.0
H544 H 0.57267 0.5313 0.59046 0.0
H545 H 0.58714 0.50953 0.62233 0.0
H546 H 0.55787 0.43232 0.6215 0.0
C547 C 0.57359 0.40695 0.70378 0.0
C548 C 0.5807 0.46579 0.67787 0.0
C549 C 0.58057 0.39546 0.72346 0.0
C550 C 0.56237 0.51377 0.5937 0.0
C551 C 0.57053 0.50132 0.61211 0.0
C552 C 0.56396 0.44193 0.63715 0.0
C553 C 0.58713 0.42928 0.69794 0.0
C554 C 0.5795 0.44182 0.67719 0.0
C555 C 0.55739 0.47866 0.61731 0.0
C556 C 0.56521 0.46591 0.63784 0.0
H557 H 0.63132 0.43671 0.74224 0.0
H558 H 0.61919 0.45663 0.70815 0.0
H559 H 0.57013 0.41169 0.65523 0.0
H560 H 0.51139 0.47302 0.57453 0.0
H561 H 0.52548 0.45132 0.60665 0.0
C562 C 0.92578 0.65083 0.22171 0.0
C563 C 0.90367 0.64018 0.23293 0.0
C564 C 0.93379 0.64037 0.20276 0.0
C565 C 0.92573 0.58321 0.1736 0.0
H566 H 0.95718 0.6205 0.12312 0.0
C567 C 0.97501 0.54394 0.10287 0.0
C568 C 0.97344 0.55189 0.08006 0.0
C569 C 0.96592 0.55476 0.1209 0.0
C570 C 0.94823 0.60974 0.13693 0.0
H571 H 0.87298 0.6097 0.23273 0.0
H572 H 0.8865 0.59188 0.19962 0.0
H573 H 0.94243 0.63914 0.15522 0.0
H574 H 0.96071 0.57763 0.05852 0.0
H575 H 0.94454 0.59634 0.08993 0.0
H576 H 0.93103 0.55378 0.15519 0.0
C577 C 0.89789 0.60826 0.20559 0.0
C578 C 0.94004 0.62051 0.15559 0.0
C579 C 0.8899 0.6187 0.22451 0.0
C580 C 0.9623 0.57097 0.07582 0.0
C581 C 0.95317 0.58184 0.09393 0.0
C582 C 0.93391 0.57246 0.15499 0.0
C583 C 0.92 0.61887 0.19439 0.0
C584 C 0.92869 0.60743 0.17428 0.0
C585 C 0.95487 0.57392 0.1168 0.0
C586 C 0.94542 0.58552 0.13636 0.0
H587 H 0.93683 0.66745 0.22741 0.0
H588 H 0.95105 0.64905 0.19487 0.0
H589 H 0.91739 0.57244 0.18767 0.0
H590 H 0.98357 0.52942 0.10697 0.0
H591 H 0.96805 0.5483 0.13819 0.0
C592 C 0.41873 0.18849 0.18085 0.0
C593 C 0.41207 0.20494 0.16549 0.0
C594 C 0.43311 0.17325 0.1737 0.0
C595 C 0.44361 0.13246 0.14835 0.0
H596 H 0.49448 0.14806 0.10265 0.0
C597 C 0.46347 0.06571 0.08572 0.0
C598 C 0.48818 0.06755 0.07852 0.0
C599 C 0.4579 0.08241 0.10001 0.0
C600 C 0.48062 0.14342 0.11569 0.0
H601 H 0.41683 0.21935 0.13112 0.0
H602 H 0.44125 0.1924 0.11844 0.0
H603 H 0.47987 0.17885 0.12144 0.0
H604 H 0.52669 0.08791 0.08146 0.0
H605 H 0.51695 0.11696 0.10663 0.0
H606 H 0.44424 0.09705 0.14253 0.0
C607 C 0.4356 0.19136 0.13608 0.0
C608 C 0.47203 0.16106 0.12627 0.0
C609 C 0.42131 0.20664 0.14325 0.0
C610 C 0.50739 0.08606 0.08655 0.0
C611 C 0.50182 0.10277 0.1009 0.0
C612 C 0.45225 0.11484 0.13785 0.0
C613 C 0.44109 0.17407 0.15103 0.0
C614 C 0.45294 0.15576 0.14227 0.0
C615 C 0.47693 0.10131 0.10751 0.0
C616 C 0.47034 0.12008 0.12093 0.0
H617 H 0.41181 0.18661 0.19807 0.0
H618 H 0.43735 0.16037 0.18574 0.0
H619 H 0.42874 0.1277 0.16045 0.0
H620 H 0.44821 0.05171 0.07982 0.0
H621 H 0.43846 0.08093 0.10448 0.0
C622 C 0.099 0.82855 0.63927 0.0
C623 C 0.10672 0.82835 0.6626 0.0
C624 C 0.08724 0.84579 0.63052 0.0
C625 C 0.08226 0.90542 0.64209 0.0
H626 H 0.02845 0.89264 0.59494 0.0
C627 C 0.01186 0.95474 0.58386 0.0
C628 C 0.0297 0.97415 0.57644 0.0
C629 C 0.01956 0.93734 0.59692 0.0
C630 C 0.04325 0.8965 0.60831 0.0
H631 H 0.10771 0.84591 0.69511 0.0
H632 H 0.08671 0.87569 0.67992 0.0
H633 H 0.04395 0.86072 0.61291 0.0
H634 H 0.06952 0.99092 0.57765 0.0
H635 H 0.08297 0.96049 0.60024 0.0
H636 H 0.08151 0.94121 0.6375 0.0
C637 C 0.09002 0.86266 0.66835 0.0
C638 C 0.05233 0.87821 0.6184 0.0
C639 C 0.10177 0.84541 0.6771 0.0
C640 C 0.05529 0.97622 0.58312 0.0
C641 C 0.06299 0.9588 0.59616 0.0
C642 C 0.07318 0.92372 0.63197 0.0
C643 C 0.08295 0.86323 0.64489 0.0
C644 C 0.07213 0.88248 0.63522 0.0
C645 C 0.04527 0.93896 0.60283 0.0
C646 C 0.05376 0.91949 0.61478 0.0
H647 H 0.10233 0.81552 0.6277 0.0
H648 H 0.08223 0.84584 0.61232 0.0
H649 H 0.0977 0.90934 0.65483 0.0
H650 H 0.99196 0.95265 0.57915 0.0
H651 H 0.0054 0.92246 0.60212 0.0
C652 C 0.78448 0.41354 0.889 0.0
C653 C 0.76049 0.41122 0.89801 0.0
C654 C 0.8062 0.4251 0.90134 0.0
C655 C 0.82753 0.46412 0.95202 0.0
H656 H 0.88983 0.44334 0.94608 0.0
C657 C 0.91584 0.48751 1.01491 0.0
C658 C 0.93933 0.49457 1.00478 0.0
C659 C 0.89381 0.47945 1.0013 0.0
C660 C 0.87261 0.44946 0.94776 0.0
H661 H 0.74042 0.41891 0.92711 0.0
H662 H 0.77822 0.43813 0.94915 0.0
H663 H 0.852 0.42452 0.92397 0.0
H664 H 0.95813 0.49933 0.97246 0.0
H665 H 0.91971 0.48468 0.94874 0.0
H666 H 0.84825 0.48837 0.97673 0.0
C667 C 0.78042 0.43183 0.93221 0.0
C668 C 0.85086 0.43876 0.93497 0.0
C669 C 0.75867 0.42066 0.91965 0.0
C670 C 0.94029 0.494 0.98074 0.0
C671 C 0.91834 0.48551 0.96718 0.0
C672 C 0.84921 0.47451 0.96515 0.0
C673 C 0.80458 0.43426 0.92327 0.0
C674 C 0.82793 0.44592 0.93683 0.0
C675 C 0.89492 0.47789 0.97734 0.0
C676 C 0.87198 0.46732 0.96311 0.0
H677 H 0.7864 0.40666 0.87223 0.0
H678 H 0.82425 0.427 0.8935 0.0
H679 H 0.81054 0.47056 0.9537 0.0
H680 H 0.91458 0.48782 0.03339 0.0
H681 H 0.87603 0.47362 1.00958 0.0
C682 C 0.7516 0.61774 0.41215 0.0
C683 C 0.74927 0.62858 0.39071 0.0
C684 C 0.73016 0.60714 0.42407 0.0
C685 C 0.66174 0.60663 0.42789 0.0
H686 H 0.66069 0.5507 0.46368 0.0
C687 C 0.58274 0.57184 0.49119 0.0
C688 C 0.57356 0.54775 0.49294 0.0
C689 C 0.60412 0.5811 0.47865 0.0
C690 C 0.66051 0.56621 0.45364 0.0
H691 H 0.72212 0.6365 0.36509 0.0
H692 H 0.68486 0.6176 0.38553 0.0
H693 H 0.6974 0.56725 0.44141 0.0
H694 H 0.58004 0.51455 0.48274 0.0
H695 H 0.6171 0.53069 0.46071 0.0
H696 H 0.62469 0.60537 0.43971 0.0
C697 C 0.70333 0.61757 0.39334 0.0
C698 C 0.68177 0.5759 0.44104 0.0
C699 C 0.72478 0.62818 0.38142 0.0
C700 C 0.58655 0.53318 0.48191 0.0
C701 C 0.60794 0.54247 0.46932 0.0
C702 C 0.6405 0.59695 0.44046 0.0
C703 C 0.70567 0.60701 0.41493 0.0
C704 C 0.68276 0.59632 0.42802 0.0
C705 C 0.61698 0.56659 0.46738 0.0
C706 C 0.63958 0.57665 0.45363 0.0
H707 H 0.77006 0.61737 0.41979 0.0
H708 H 0.73284 0.59942 0.44071 0.0
H709 H 0.6618 0.62248 0.41833 0.0
H710 H 0.57339 0.58367 0.49947 0.0
H711 H 0.61068 0.59973 0.47797 0.0
C712 C 0.24934 0.34373 0.12251 0.0
C713 C 0.24486 0.31947 0.12168 0.0
C714 C 0.23324 0.35557 0.11037 0.0
C715 C 0.16734 0.34585 0.08989 0.0
H716 H 0.18805 0.40597 0.06077 0.0
C717 C 0.09344 0.39521 0.05557 0.0
C718 C 0.09839 0.41883 0.06102 0.0
C719 C 0.11248 0.3828 0.05826 0.0
C720 C 0.18197 0.38923 0.06894 0.0
H721 H 0.22128 0.28875 0.10605 0.0
H722 H 0.19314 0.30941 0.08494 0.0
H723 H 0.22001 0.3848 0.0739 0.0
H724 H 0.12725 0.44812 0.07302 0.0
H725 H 0.16035 0.42643 0.07817 0.0
H726 H 0.12952 0.3505 0.0859 0.0
C727 C 0.2088 0.31923 0.09531 0.0
C728 C 0.20027 0.37711 0.07639 0.0
C729 C 0.22488 0.30742 0.10741 0.0
C730 C 0.12297 0.42997 0.06846 0.0
C731 C 0.14196 0.41753 0.07134 0.0
C732 C 0.14911 0.35799 0.08259 0.0
C733 C 0.21237 0.34335 0.09718 0.0
C734 C 0.19314 0.35542 0.08721 0.0
C735 C 0.13683 0.39369 0.06669 0.0
C736 C 0.15619 0.37997 0.07232 0.0
H737 H 0.26447 0.35348 0.13349 0.0
H738 H 0.23636 0.37415 0.11229 0.0
H739 H 0.16126 0.32936 0.09853 0.0
H740 H 0.07474 0.38628 0.04949 0.0
H741 H 0.10801 0.36457 0.05409 0.0
C742 C 0.60731 0.2259 0.89801 0.0
C743 C 0.59128 0.23852 0.88645 0.0
C744 C 0.59746 0.2051 0.90948 0.0
C745 C 0.53734 0.15979 0.91596 0.0
H746 H 0.57399 0.14251 0.96967 0.0
C747 C 0.49424 0.08859 0.98163 0.0
C748 C 0.50819 0.07163 0.98675 0.0
C749 C 0.50454 0.10828 0.96869 0.0
C750 C 0.56364 0.14705 0.9546 0.0
H751 H 0.55186 0.2384 0.87804 0.0
H752 H 0.5348 0.20332 0.89918 0.0
H753 H 0.59116 0.1783 0.94916 0.0
H754 H 0.54368 0.06177 0.98172 0.0
H755 H 0.56221 0.09683 0.96003 0.0
H756 H 0.50924 0.1289 0.92235 0.0
C757 C 0.55513 0.20903 0.89881 0.0
C758 C 0.57354 0.16756 0.94266 0.0
C759 C 0.565 0.2296 0.88693 0.0
C760 C 0.53267 0.07475 0.97851 0.0
C761 C 0.54323 0.09475 0.96601 0.0
C762 C 0.52721 0.13956 0.92823 0.0
C763 C 0.57117 0.19635 0.91027 0.0
C764 C 0.5606 0.17431 0.92306 0.0
C765 C 0.52923 0.11169 0.96092 0.0
C766 C 0.54027 0.13295 0.94765 0.0
H767 H 0.62761 0.23215 0.89858 0.0
H768 H 0.61064 0.19586 0.91762 0.0
H769 H 0.52693 0.16384 0.90075 0.0
H770 H 0.47529 0.08666 0.98765 0.0
H771 H 0.49336 0.12108 0.9651 0.0
C772 C 0.93008 0.80047 0.40564 0.0
C773 C 0.91758 0.801 0.38407 0.0
C774 C 0.93951 0.82091 0.41801 0.0
C775 C 0.93648 0.884 0.41989 0.0
H776 H 0.99476 0.8872 0.46145 0.0
C777 C 0.9744 0.964 0.47896 0.0
C778 C 1.00033 0.96962 0.48514 0.0
C779 C 0.96379 0.94361 0.46676 0.0
C780 C 0.9787 0.88695 0.4497 0.0
H781 H 0.90564 0.82359 0.35837 0.0
H782 H 0.92306 0.8593 0.37922 0.0
H783 H 0.9786 0.85249 0.43949 0.0
H784 H 0.0356 0.95866 0.48253 0.0
H785 H 0.01771 0.92418 0.46042 0.0
H786 H 0.93756 0.91904 0.42917 0.0
C787 C 0.92489 0.84309 0.38718 0.0
C788 C 0.969 0.8666 0.43731 0.0
C789 C 0.91502 0.82256 0.37503 0.0
C790 C 0.01548 0.95475 0.47829 0.0
C791 C 0.00505 0.93469 0.46575 0.0
C792 C 0.94649 0.90454 0.432 0.0
C793 C 0.9372 0.84266 0.40899 0.0
C794 C 0.94765 0.86466 0.42219 0.0
C795 C 0.97894 0.9285 0.45999 0.0
C796 C 0.96783 0.90643 0.44713 0.0
H797 H 0.93203 0.78412 0.41326 0.0
H798 H 0.94821 0.81947 0.43487 0.0
H799 H 0.91978 0.88334 0.40884 0.0
H800 H 0.96223 0.9752 0.48379 0.0
H801 H 0.9436 0.93957 0.46301 0.0
C802 C 0.25358 0.67227 0.64414 0.0
C803 C 0.25665 0.69641 0.64256 0.0
C804 C 0.27 0.66122 0.63308 0.0
C805 C 0.33474 0.67467 0.61276 0.0
H806 H 0.31587 0.61473 0.58337 0.0
C807 C 0.40718 0.63808 0.56553 0.0
C808 C 0.4078 0.61481 0.56981 0.0
C809 C 0.38707 0.64701 0.57259 0.0
C810 C 0.3214 0.6314 0.59169 0.0
H811 H 0.27783 0.7277 0.62685 0.0
H812 H 0.30613 0.70848 0.60729 0.0
H813 H 0.28309 0.63219 0.59857 0.0
H814 H 0.38743 0.58244 0.58425 0.0
H815 H 0.35219 0.59812 0.59672 0.0
H816 H 0.37292 0.67394 0.6062 0.0
C817 C 0.29161 0.69811 0.61756 0.0
C818 C 0.30266 0.64139 0.60036 0.0
C819 C 0.27537 0.70911 0.62867 0.0
C820 C 0.38739 0.60042 0.5806 0.0
C821 C 0.36722 0.60939 0.58771 0.0
C822 C 0.35337 0.66475 0.60412 0.0
C823 C 0.28965 0.67416 0.62021 0.0
C824 C 0.30916 0.66322 0.61085 0.0
C825 C 0.36709 0.63289 0.58414 0.0
C826 C 0.34695 0.64309 0.59335 0.0
H827 H 0.23934 0.66212 0.65483 0.0
H828 H 0.26806 0.64276 0.63551 0.0
H829 H 0.34048 0.69122 0.62129 0.0
H830 H 0.42237 0.64947 0.55682 0.0
H831 H 0.38725 0.66507 0.56914 0.0
C832 C 0.75563 0.82538 0.72781 0.0
C833 C 0.7628 0.83134 0.75075 0.0
C834 C 0.77038 0.83614 0.70998 0.0
C835 C 0.83442 0.86786 0.69712 0.0
H836 H 0.80124 0.89357 0.64594 0.0
C837 C 0.89031 0.93092 0.63175 0.0
C838 C 0.88164 0.92928 0.60862 0.0
C839 C 0.876 0.91795 0.64871 0.0
C840 C 0.8108 0.88618 0.65989 0.0
H841 H 0.79131 0.85261 0.77313 0.0
H842 H 0.81712 0.87134 0.742 0.0
H843 H 0.776 0.87211 0.67602 0.0
H844 H 0.85098 0.91269 0.58525 0.0
H845 H 0.82654 0.88946 0.61465 0.0
H846 H 0.8692 0.88171 0.681 0.0
C847 C 0.80011 0.85842 0.73779 0.0
C848 C 0.79631 0.87393 0.67714 0.0
C849 C 0.78524 0.84786 0.75557 0.0
C850 C 0.85842 0.91418 0.60284 0.0
C851 C 0.8442 0.90108 0.61977 0.0
C852 C 0.8489 0.87993 0.67977 0.0
C853 C 0.79271 0.85282 0.71482 0.0
C854 C 0.808 0.86482 0.696 0.0
C855 C 0.85274 0.90289 0.64293 0.0
C856 C 0.83729 0.88941 0.66103 0.0
H857 H 0.73835 0.81277 0.72364 0.0
H858 H 0.76435 0.83141 0.69241 0.0
H859 H 0.84387 0.86078 0.71136 0.0
H860 H 0.90824 0.94216 0.6368 0.0
H861 H 0.88303 0.92001 0.66641 0.0
C862 C 0.71743 0.22577 0.24798 0.0
C863 C 0.74227 0.23725 0.24357 0.0
C864 C 0.70123 0.21495 0.23026 0.0
C865 C 0.69378 0.20894 0.16654 0.0
H866 H 0.652 0.14919 0.18225 0.0
C867 C 0.64983 0.13793 0.10057 0.0
C868 C 0.62456 0.12631 0.10332 0.0
C869 C 0.66244 0.15383 0.1169 0.0
C870 C 0.66331 0.16598 0.17767 0.0
H871 H 0.76959 0.24707 0.21728 0.0
H872 H 0.74161 0.22744 0.18627 0.0
H873 H 0.67737 0.17273 0.21219 0.0
H874 H 0.59249 0.12311 0.12506 0.0
H875 H 0.61486 0.15036 0.15392 0.0
H876 H 0.68036 0.20145 0.13172 0.0
C877 C 0.73434 0.22723 0.20328 0.0
C878 C 0.67781 0.17956 0.19484 0.0
C879 C 0.75043 0.2384 0.22101 0.0
C880 C 0.61209 0.13134 0.12261 0.0
C881 C 0.62481 0.14704 0.13908 0.0
C882 C 0.6795 0.19518 0.1493 0.0
C883 C 0.70967 0.21499 0.20778 0.0
C884 C 0.69333 0.20119 0.18951 0.0
C885 C 0.65016 0.15826 0.13647 0.0
C886 C 0.66424 0.17353 0.15472 0.0
H887 H 0.71066 0.22494 0.26525 0.0
H888 H 0.68219 0.20623 0.23428 0.0
H889 H 0.7052 0.22563 0.16185 0.0
H890 H 0.66018 0.13425 0.08615 0.0
H891 H 0.68209 0.16205 0.11464 0.0
C892 C 0.43685 0.62854 0.31475 0.0
C893 C 0.41636 0.63934 0.3165 0.0
C894 C 0.44539 0.61693 0.33362 0.0
C895 C 0.44249 0.61019 0.39744 0.0
H896 H 0.46228 0.55257 0.38594 0.0
C897 C 0.48584 0.55883 0.46922 0.0
C898 C 0.47878 0.53458 0.46839 0.0
C899 C 0.47846 0.5724 0.45128 0.0
C900 C 0.45664 0.56853 0.38956 0.0
H901 H 0.3894 0.64683 0.34003 0.0
H902 H 0.40382 0.62616 0.37263 0.0
H903 H 0.44905 0.57456 0.35392 0.0
H904 H 0.45837 0.50551 0.4482 0.0
H905 H 0.44513 0.52894 0.41727 0.0
H906 H 0.44947 0.60374 0.43322 0.0
C907 C 0.4135 0.62684 0.35671 0.0
C908 C 0.44937 0.58137 0.37108 0.0
C909 C 0.40498 0.63848 0.33784 0.0
C910 C 0.46409 0.52419 0.44936 0.0
C911 C 0.45667 0.53766 0.43151 0.0
C912 C 0.44977 0.59731 0.41598 0.0
C913 C 0.4337 0.6157 0.35484 0.0
C914 C 0.44208 0.60236 0.3747 0.0
C915 C 0.46395 0.56198 0.43203 0.0
C916 C 0.45679 0.57619 0.41233 0.0
H917 H 0.44601 0.62859 0.29863 0.0
H918 H 0.46121 0.60888 0.33153 0.0
H919 H 0.4373 0.62638 0.40097 0.0
H920 H 0.49784 0.5673 0.48325 0.0
H921 H 0.48479 0.59104 0.45217 0.0
C922 C 0.1201 0.40559 0.83835 0.0
C923 C 0.10492 0.40088 0.81797 0.0
C924 C 0.11206 0.41626 0.85712 0.0
C925 C 0.06439 0.45023 0.87307 0.0
H926 H 0.08635 0.43704 0.93505 0.0
C927 C 0.0434 0.50278 0.95013 0.0
C928 C 0.03893 0.49177 0.9716 0.0
C929 C 0.05194 0.49172 0.93194 0.0
C930 C 0.07971 0.44083 0.91793 0.0
H931 H 0.06891 0.40396 0.80195 0.0
H932 H 0.05448 0.42132 0.83479 0.0
H933 H 0.09885 0.41711 0.90293 0.0
H934 H 0.04025 0.4603 0.99064 0.0
H935 H 0.05433 0.44071 0.95887 0.0
H936 H 0.04429 0.47312 0.88808 0.0
C937 C 0.07302 0.41736 0.83614 0.0
C938 C 0.08729 0.42958 0.8993 0.0
C939 C 0.08119 0.40693 0.81726 0.0
C940 C 0.04359 0.46942 0.97442 0.0
C941 C 0.05184 0.45819 0.9561 0.0
C942 C 0.05658 0.46126 0.89169 0.0
C943 C 0.08837 0.42239 0.8564 0.0
C944 C 0.07988 0.43414 0.87648 0.0
C945 C 0.056 0.46907 0.93443 0.0
C946 C 0.0642 0.45691 0.9145 0.0
H947 H 0.13828 0.40094 0.84 0.0
H948 H 0.12474 0.41999 0.87211 0.0
H949 H 0.05845 0.45464 0.85592 0.0
H950 H 0.04026 0.52006 0.94729 0.0
H951 H 0.05547 0.50111 0.91591 0.0
C952 C 0.5911 0.85772 0.87431 0.0
C953 C 0.5996 0.84155 0.88874 0.0
C954 C 0.57654 0.87211 0.88284 0.0
C955 C 0.56635 0.9119 0.90947 0.0
H956 H 0.51913 0.89498 0.95808 0.0
C957 C 0.5462 0.97845 0.97204 0.0
C958 C 0.52165 0.97598 0.97987 0.0
C959 C 0.5521 0.9616 0.95817 0.0
C960 C 0.53197 0.89994 0.94427 0.0
H961 H 0.59858 0.82686 0.92304 0.0
H962 H 0.57358 0.85235 0.93821 0.0
H963 H 0.53425 0.86485 0.93852 0.0
H964 H 0.48381 0.95414 0.97872 0.0
H965 H 0.49417 0.92477 0.95427 0.0
H966 H 0.56415 0.94693 0.91521 0.0
C967 C 0.57775 0.8537 0.92018 0.0
C968 C 0.54086 0.8827 0.93325 0.0
C969 C 0.59214 0.83913 0.91155 0.0
C970 C 0.50295 0.95655 0.97303 0.0
C971 C 0.50888 0.93965 0.95913 0.0
C972 C 0.55742 0.92908 0.92042 0.0
C973 C 0.5704 0.8708 0.90608 0.0
C974 C 0.55856 0.88855 0.91604 0.0
C975 C 0.53361 0.94189 0.95175 0.0
C976 C 0.54061 0.92336 0.93831 0.0
H977 H 0.5963 0.85965 0.85653 0.0
H978 H 0.5707 0.88471 0.87138 0.0
H979 H 0.58017 0.91711 0.89649 0.0
H980 H 0.56108 0.99316 0.97701 0.0
H981 H 0.57143 0.9637 0.95308 0.0
C982 C 0.91923 0.21023 0.39848 0.0
C983 C 0.89265 0.20535 0.39826 0.0
C984 C 0.93252 0.19396 0.40713 0.0
C985 C 0.92433 0.13154 0.41612 0.0
H986 H 0.98026 0.14665 0.46099 0.0
C987 C 0.95717 0.06207 0.47144 0.0
C988 C 0.98283 0.06499 0.4782 0.0
C989 C 0.94857 0.07936 0.45905 0.0
C990 C 0.96501 0.14221 0.44811 0.0
H991 H 0.85936 0.18015 0.4083 0.0
H992 H 0.88248 0.15175 0.42289 0.0
H993 H 0.96086 0.17734 0.44506 0.0
H994 H 0.01981 0.08804 0.47639 0.0
H995 H 0.0048 0.11812 0.45432 0.0
H996 H 0.92827 0.0965 0.41906 0.0
C997 C 0.89299 0.16796 0.41602 0.0
C998 C 0.95387 0.15979 0.43908 0.0
C999 C 0.87977 0.18423 0.40763 0.0
C1000 C 0.99989 0.08526 0.47151 0.0
C1001 C 0.99127 0.10258 0.45901 0.0
C1002 C 0.93559 0.11404 0.42494 0.0
C1003 C 0.91944 0.17248 0.41552 0.0
C1004 C 0.93302 0.15449 0.42344 0.0
C1005 C 0.96543 0.09998 0.45296 0.0
C1006 C 0.95564 0.11904 0.44148 0.0
H1007 H 0.92972 0.22626 0.39126 0.0
H1008 H 0.95294 0.19785 0.40657 0.0
H1009 H 0.90858 0.12707 0.40372 0.0
H1010 H 0.94347 0.04672 0.47636 0.0
H1011 H 0.92849 0.07687 0.45502 0.0
C1012 C 0.24115 0.64203 0.13878 0.0
C1013 C 0.25305 0.62945 0.15473 0.0
C1014 C 0.21939 0.6312 0.12612 0.0
C1015 C 0.16802 0.57739 0.12336 0.0
H1016 H 0.15839 0.59978 0.06149 0.0
C1017 C 0.07323 0.54907 0.07059 0.0
C1018 C 0.07365 0.54887 0.04652 0.0
C1019 C 0.09553 0.55697 0.0839 0.0
C1020 C 0.16083 0.59295 0.07857 0.0
H1021 H 0.2514 0.5956 0.16997 0.0
H1022 H 0.21385 0.5764 0.14735 0.0
H1023 H 0.19622 0.61683 0.08402 0.0
H1024 H 0.09783 0.55539 1.01754 0.0
H1025 H 0.13687 0.56812 0.04062 0.0
H1026 H 0.13305 0.5528 0.11746 0.0
C1027 C 0.22091 0.59481 0.14496 0.0
C1028 C 0.18246 0.60312 0.09177 0.0
C1029 C 0.24253 0.60577 0.15791 0.0
C1030 C 0.09693 0.55562 0.03607 0.0
C1031 C 0.11929 0.56314 0.04935 0.0
C1032 C 0.14649 0.56697 0.11002 0.0
C1033 C 0.20908 0.60735 0.12875 0.0
C1034 C 0.18629 0.59574 0.11447 0.0
C1035 C 0.11889 0.56451 0.07346 0.0
C1036 C 0.14244 0.57473 0.08746 0.0
H1037 H 0.2486 0.66038 0.13622 0.0
H1038 H 0.21057 0.64169 0.11437 0.0
H1039 H 0.17005 0.57128 0.14079 0.0
H1040 H 0.05551 0.544 0.07913 0.0
H1041 H 0.09421 0.55794 0.10231 0.0
C1042 C 0.27067 0.43313 0.66116 0.0
C1043 C 0.25952 0.40946 0.65832 0.0
C1044 C 0.29124 0.44396 0.64821 0.0
C1045 C 0.32544 0.43639 0.59542 0.0
H1046 H 0.37934 0.48291 0.62363 0.0
C1047 C 0.42264 0.468 0.55456 0.0
C1048 C 0.43422 0.4917 0.5558 0.0
C1049 C 0.40051 0.45895 0.56617 0.0
C1050 C 0.36432 0.47015 0.61538 0.0
H1051 H 0.26135 0.37889 0.63902 0.0
H1052 H 0.29748 0.39743 0.61724 0.0
H1053 H 0.34278 0.4653 0.64568 0.0
H1054 H 0.43113 0.52448 0.57017 0.0
H1055 H 0.39258 0.50865 0.59041 0.0
H1056 H 0.34729 0.44093 0.56528 0.0
C1057 C 0.29015 0.40781 0.62922 0.0
C1058 C 0.34325 0.46003 0.62804 0.0
C1059 C 0.26955 0.39703 0.64206 0.0
C1060 C 0.4228 0.50616 0.56874 0.0
C1061 C 0.40076 0.49704 0.58052 0.0
C1062 C 0.34657 0.44638 0.58283 0.0
C1063 C 0.30135 0.43147 0.63204 0.0
C1064 C 0.32353 0.44287 0.61831 0.0
C1065 C 0.38939 0.47328 0.57951 0.0
C1066 C 0.36639 0.4633 0.59267 0.0
H1067 H 0.26374 0.4433 0.67362 0.0
H1068 H 0.29906 0.46224 0.65076 0.0
H1069 H 0.31049 0.42365 0.58706 0.0
H1070 H 0.43082 0.45629 0.54482 0.0
H1071 H 0.39247 0.44054 0.56515 0.0
C1072 C 0.75043 0.69666 0.93095 0.0
C1073 C 0.75041 0.70152 0.90723 0.0
C1074 C 0.76742 0.6843 0.94097 0.0
C1075 C 0.80886 0.64519 0.92644 0.0
H1076 H 0.84844 0.66939 0.98121 0.0
C1077 C 0.90406 0.62306 0.9499 0.0
C1078 C 0.90974 0.61805 0.97292 0.0
C1079 C 0.88261 0.6315 0.94393 0.0
C1080 C 0.83726 0.66221 0.96613 0.0
H1081 H 0.76862 0.69752 0.8756 0.0
H1082 H 0.79776 0.67587 0.89291 0.0
H1083 H 0.81376 0.68687 0.96709 0.0
H1084 H 0.89747 0.61818 1.0078 0.0
H1085 H 0.85972 0.63303 0.99727 0.0
H1086 H 0.83266 0.62095 0.92507 0.0
C1087 C 0.78439 0.68119 0.90374 0.0
C1088 C 0.8174 0.67218 0.95806 0.0
C1089 C 0.76759 0.69358 0.89379 0.0
C1090 C 0.8935 0.6218 0.9899 0.0
C1091 C 0.87202 0.63041 0.98391 0.0
C1092 C 0.82866 0.63527 0.93446 0.0
C1093 C 0.7846 0.67648 0.92743 0.0
C1094 C 0.80342 0.66414 0.93778 0.0
C1095 C 0.86627 0.63515 0.96081 0.0
C1096 C 0.84349 0.64405 0.95404 0.0
H1097 H 0.73733 0.70238 0.94177 0.0
H1098 H 0.76706 0.68079 0.95926 0.0
H1099 H 0.79809 0.6383 0.91104 0.0
H1100 H 0.91599 0.62007 0.93637 0.0
H1101 H 0.87891 0.63531 0.92602 0.0
C1102 C 0.44809 0.81381 0.16948 0.0
C1103 C 0.42225 0.80334 0.16769 0.0
C1104 C 0.45747 0.83497 0.15839 0.0
C1105 C 0.43906 0.87475 0.11271 0.0
H1106 H 0.49989 0.91664 0.13616 0.0
C1107 C 0.47678 0.96843 0.0775 0.0
C1108 C 0.50176 0.97252 0.07031 0.0
C1109 C 0.46655 0.9483 0.08995 0.0
C1110 C 0.48287 0.90508 0.12943 0.0
H1111 H 0.3858 0.8071 0.15369 0.0
H1112 H 0.40164 0.84449 0.13554 0.0
H1113 H 0.48282 0.88121 0.15735 0.0
H1114 H 0.53584 0.95907 0.07119 0.0
H1115 H 0.51828 0.92446 0.09366 0.0
H1116 H 0.43886 0.89934 0.08522 0.0
C1117 C 0.41509 0.83613 0.14454 0.0
C1118 C 0.47313 0.88458 0.14146 0.0
C1119 C 0.40586 0.81474 0.15517 0.0
C1120 C 0.51649 0.95639 0.07639 0.0
C1121 C 0.50649 0.93661 0.0893 0.0
C1122 C 0.4485 0.89551 0.10101 0.0
C1123 C 0.44113 0.8465 0.14562 0.0
C1124 C 0.45117 0.8689 0.1332 0.0
C1125 C 0.48135 0.93223 0.09603 0.0
C1126 C 0.47064 0.91077 0.10911 0.0
H1127 H 0.46115 0.80525 0.17886 0.0
H1128 H 0.47765 0.84193 0.15942 0.0
H1129 H 0.42252 0.86312 0.10529 0.0
H1130 H 0.46511 0.98072 0.07345 0.0
H1131 H 0.44717 0.94543 0.09508 0.0
C1132 C 0.11089 0.22657 0.6571 0.0
C1133 C 0.09493 0.23756 0.6692 0.0
C1134 C 0.10134 0.20577 0.64537 0.0
C1135 C 0.04366 0.15696 0.63944 0.0
H1136 H 0.07594 0.14366 0.58479 0.0
C1137 C 0.99764 0.08398 0.57556 0.0
C1138 C 0.01279 0.06918 0.56842 0.0
C1139 C 0.00815 0.10386 0.58836 0.0
C1140 C 0.06684 0.14702 0.60014 0.0
H1141 H 0.05592 0.23452 0.67811 0.0
H1142 H 0.03918 0.19932 0.65672 0.0
H1143 H 0.09261 0.17964 0.60538 0.0
H1144 H 0.05096 0.06372 0.56926 0.0
H1145 H 0.06956 0.09901 0.59104 0.0
H1146 H 0.01727 0.12463 0.63343 0.0
C1147 C 0.05934 0.20637 0.65683 0.0
C1148 C 0.07647 0.1677 0.61212 0.0
C1149 C 0.06897 0.227 0.66888 0.0
C1150 C 0.03881 0.07483 0.57435 0.0
C1151 C 0.04945 0.09505 0.5868 0.0
C1152 C 0.03379 0.13651 0.62721 0.0
C1153 C 0.07535 0.19529 0.6449 0.0
C1154 C 0.06507 0.17307 0.63203 0.0
C1155 C 0.0342 0.10976 0.59406 0.0
C1156 C 0.04524 0.13126 0.6074 0.0
H1157 H 0.13089 0.23413 0.65635 0.0
H1158 H 0.11455 0.19785 0.63683 0.0
H1159 H 0.03453 0.15992 0.65489 0.0
H1160 H 0.97754 0.08017 0.57128 0.0
H1161 H 0.9959 0.11488 0.59348 0.0
C1162 C 0.73122 0.33871 0.40717 0.0
C1163 C 0.75367 0.35256 0.39914 0.0
C1164 C 0.71175 0.34871 0.41389 0.0
C1165 C 0.69729 0.40238 0.43379 0.0
H1166 H 0.62903 0.37367 0.41245 0.0
C1167 C 0.61157 0.43947 0.45632 0.0
C1168 C 0.59003 0.42323 0.46304 0.0
C1169 C 0.63145 0.43221 0.44639 0.0
C1170 C 0.64794 0.38179 0.41872 0.0
H1171 H 0.77355 0.38781 0.39237 0.0
H1172 H 0.73937 0.4054 0.40434 0.0
H1173 H 0.66444 0.35849 0.40003 0.0
H1174 H 0.5721 0.3867 0.46375 0.0
H1175 H 0.60696 0.374 0.44705 0.0
H1176 H 0.68078 0.42531 0.45297 0.0
C1177 C 0.73695 0.38677 0.40537 0.0
C1178 C 0.66821 0.37311 0.41157 0.0
C1179 C 0.75643 0.37672 0.39844 0.0
C1180 C 0.58855 0.39963 0.45904 0.0
C1181 C 0.60843 0.39238 0.44919 0.0
C1182 C 0.67697 0.41099 0.44108 0.0
C1183 C 0.71427 0.3728 0.41283 0.0
C1184 C 0.69305 0.38309 0.4193 0.0
C1185 C 0.63026 0.40855 0.44299 0.0
C1186 C 0.65201 0.40058 0.43388 0.0
H1187 H 0.72834 0.32002 0.40759 0.0
H1188 H 0.69461 0.33753 0.41985 0.0
H1189 H 0.71624 0.41031 0.44013 0.0
H1190 H 0.61344 0.45776 0.45935 0.0
H1191 H 0.64784 0.44514 0.44155 0.0
loop_
_geom_bond_atom_site_label_1
_geom_bond_atom_site_label_2
_geom_bond_distance
_geom_bond_site_symmetry_2
_ccdc_geom_bond_type
C0 C1 1.386 . S
C0 C2 1.397 . S
C0 H24 0.931 . S
C1 C0 1.386 . S
C1 C5 1.397 . S
C2 C0 1.397 . S
C2 C3 1.384 . S
C2 H25 0.930 . S
C3 C2 1.384 . S
C3 C4 1.377 . S
C3 C6 1.481 . S
C4 C3 1.377 . S
C4 C5 1.389 . S
C4 H26 0.929 . S
C5 C1 1.397 . S
C5 C4 1.389 . S
C5 H27 0.931 . S
C6 C3 1.481 . S
C6 C7 1.387 . S
C6 C11 1.390 . S
C7 C6 1.387 . S
C7 C8 1.401 . S
C7 H28 0.930 . S
C8 C7 1.401 . S
C8 C9 1.376 . S
C8 C17 1.511 . S
C9 C8 1.376 . S
C9 C10 1.392 . S
C9 H30 0.931 . S
C10 C9 1.392 . S
C10 C11 1.361 . S
C10 C12 1.500 . S
C11 C6 1.390 . S
C11 C10 1.361 . S
C11 H29 0.931 . S
C12 C10 1.500 . S
C12 C13 1.371 . S
C12 C14 1.365 . S
C13 C12 1.371 . S
C13 C23 1.386 . S
C13 H31 0.931 . S
C14 C12 1.365 . S
C14 C15 1.409 . S
C14 H32 0.929 . S
C15 C14 1.409 . S
C15 C16 1.380 . S
C15 H33 0.930 . S
C16 C15 1.380 . S
C16 C23 1.357 . S
C17 C8 1.511 . S
C17 C18 1.341 . S
C17 C19 1.371 . S
C18 C17 1.341 . S
C18 C22 1.394 . S
C18 H34 0.930 . S
C19 C17 1.371 . S
C19 C20 1.392 . S
C19 H35 0.931 . S
C20 C19 1.392 . S
C20 C21 1.331 . S
C20 H38 0.932 . S
C21 C20 1.331 . S
C21 C22 1.336 . S
C22 C18 1.394 . S
C22 C21 1.336 . S
C22 H37 0.929 . S
C23 C13 1.386 . S
C23 C16 1.357 . S
C23 H36 0.928 . S
H24 C0 0.931 . S
H25 C2 0.930 . S
H26 C4 0.929 . S
H27 C5 0.931 . S
H28 C7 0.930 . S
H29 C11 0.931 . S
H30 C9 0.931 . S
H31 C13 0.931 . S
H32 C14 0.929 . S
H33 C15 0.930 . S
H34 C18 0.930 . S
H35 C19 0.931 . S
H36 C23 0.928 . S
H37 C22 0.929 . S
H38 C20 0.932 . S
C39 C40 1.386 . S
C39 C41 1.397 . S
C39 H63 0.931 . S
C40 C39 1.386 . S
C40 C44 1.397 . S
C41 C39 1.397 . S
C41 C42 1.384 . S
C41 H64 0.930 . S
C42 C41 1.384 . S
C42 C43 1.377 . S
C42 C45 1.481 . S
C43 C42 1.377 . S
C43 C44 1.389 . S
C43 H65 0.929 . S
C44 C40 1.397 . S
C44 C43 1.389 . S
C44 H66 0.931 . S
C45 C42 1.481 . S
C45 C46 1.387 . S
C45 C50 1.390 . S
C46 C45 1.387 . S
C46 C47 1.401 . S
C46 H67 0.930 . S
C47 C46 1.401 . S
C47 C48 1.376 . S
C47 C56 1.511 . S
C48 C47 1.376 . S
C48 C49 1.392 . S
C48 H69 0.931 . S
C49 C48 1.392 . S
C49 C50 1.361 . S
C49 C51 1.500 . S
C50 C45 1.390 . S
C50 C49 1.361 . S
C50 H68 0.931 . S
C51 C49 1.500 . S
C51 C52 1.371 . S
C51 C53 1.365 . S
C52 C51 1.371 . S
C52 C62 1.386 . S
C52 H70 0.931 . S
C53 C51 1.365 . S
C53 C54 1.409 . S
C53 H71 0.929 . S
C54 C53 1.409 . S
C54 C55 1.380 . S
C54 H72 0.930 . S
C55 C54 1.380 . S
C55 C62 1.357 . S
C56 C47 1.511 . S
C56 C57 1.341 . S
C56 C58 1.371 . S
C57 C56 1.341 . S
C57 C61 1.394 . S
C57 H73 0.930 . S
C58 C56 1.371 . S
C58 C59 1.392 . S
C58 H74 0.931 . S
C59 C58 1.392 . S
C59 C60 1.331 . S
C59 H77 0.932 . S
C60 C59 1.331 . S
C60 C61 1.336 . S
C61 C57 1.394 . S
C61 C60 1.336 . S
C61 H76 0.929 . S
C62 C52 1.386 . S
C62 C55 1.357 . S
C62 H75 0.928 . S
H63 C39 0.931 . S
H64 C41 0.930 . S
H65 C43 0.929 . S
H66 C44 0.931 . S
H67 C46 0.930 . S
H68 C50 0.931 . S
H69 C48 0.931 . S
H70 C52 0.931 . S
H71 C53 0.929 . S
H72 C54 0.930 . S
H73 C57 0.930 . S
H74 C58 0.931 . S
H75 C62 0.928 . S
H76 C61 0.929 . S
H77 C59 0.932 . S
C78 C79 1.386 . S
C78 C80 1.397 . S
C78 H102 0.931 . S
C79 C78 1.386 . S
C79 C83 1.397 . S
C80 C78 1.397 . S
C80 C81 1.384 . S
C80 H103 0.930 . S
C81 C80 1.384 . S
C81 C82 1.377 . S
C81 C84 1.481 . S
C82 C81 1.377 . S
C82 C83 1.389 . S
C82 H104 0.929 . S
C83 C79 1.397 . S
C83 C82 1.389 . S
C83 H105 0.931 . S
C84 C81 1.481 . S
C84 C85 1.387 . S
C84 C89 1.390 . S
C85 C84 1.387 . S
C85 C86 1.401 . S
C85 H106 0.930 . S
C86 C85 1.401 . S
C86 C87 1.376 . S
C86 C95 1.511 . S
C87 C86 1.376 . S
C87 C88 1.392 . S
C87 H108 0.931 . S
C88 C87 1.392 . S
C88 C89 1.361 . S
C88 C90 1.500 . S
C89 C84 1.390 . S
C89 C88 1.361 . S
C89 H107 0.931 . S
C90 C88 1.500 . S
C90 C91 1.371 . S
C90 C92 1.365 . S
C91 C90 1.371 . S
C91 C101 1.386 . S
C91 H109 0.931 . S
C92 C90 1.365 . S
C92 C93 1.409 . S
C92 H110 0.929 . S
C93 C92 1.409 . S
C93 C94 1.380 . S
C93 H111 0.930 . S
C94 C93 1.380 . S
C94 C101 1.357 . S
C95 C86 1.511 . S
C95 C96 1.341 . S
C95 C97 1.371 . S
C96 C95 1.341 . S
C96 C100 1.394 . S
C96 H112 0.930 . S
C97 C95 1.371 . S
C97 C98 1.392 . S
C97 H113 0.931 . S
C98 C97 1.392 . S
C98 C99 1.331 . S
C98 H116 0.932 . S
C99 C98 1.331 . S
C99 C100 1.336 . S
C100 C96 1.394 . S
C100 C99 1.336 . S
C100 H115 0.929 . S
C101 C91 1.386 . S
C101 C94 1.357 . S
C101 H114 0.928 . S
H102 C78 0.931 . S
H103 C80 0.930 . S
H104 C82 0.929 . S
H105 C83 0.931 . S
H106 C85 0.930 . S
H107 C89 0.931 . S
H108 C87 0.931 . S
H109 C91 0.931 . S
H110 C92 0.929 . S
H111 C93 0.930 . S
H112 C96 0.930 . S
H113 C97 0.931 . S
H114 C101 0.928 . S
H115 C100 0.929 . S
H116 C98 0.932 . S
C117 C118 1.386 . S
C117 C119 1.397 . S
C117 H141 0.931 . S
C118 C117 1.386 . S
C118 C122 1.397 . S
C119 C117 1.397 . S
C119 C120 1.384 . S
C119 H142 0.930 . S
C120 C119 1.384 . S
C120 C121 1.377 . S
C120 C123 1.481 . S
C121 C120 1.377 . S
C121 C122 1.389 . S
C121 H143 0.929 . S
C122 C118 1.397 . S
C122 C121 1.389 . S
C122 H144 0.931 . S
C123 C120 1.481 . S
C123 C124 1.387 . S
C123 C128 1.390 . S
C124 C123 1.387 . S
C124 C125 1.401 . S
C124 H145 0.930 . S
C125 C124 1.401 . S
C125 C126 1.376 . S
C125 C134 1.511 . S
C126 C125 1.376 . S
C126 C127 1.392 . S
C126 H147 0.931 . S
C127 C126 1.392 . S
C127 C128 1.361 . S
C127 C129 1.500 . S
C128 C123 1.390 . S
C128 C127 1.361 . S
C128 H146 0.931 . S
C129 C127 1.500 . S
C129 C130 1.371 . S
C129 C131 1.365 . S
C130 C129 1.371 . S
C130 C140 1.386 . S
C130 H148 0.931 . S
C131 C129 1.365 . S
C131 C132 1.409 . S
C131 H149 0.929 . S
C132 C131 1.409 . S
C132 C133 1.380 . S
C132 H150 0.930 . S
C133 C132 1.380 . S
C133 C140 1.357 . S
C134 C125 1.511 . S
C134 C135 1.341 . S
C134 C136 1.371 . S
C135 C134 1.341 . S
C135 C139 1.394 . S
C135 H151 0.930 . S
C136 C134 1.371 . S
C136 C137 1.392 . S
C136 H152 0.931 . S
C137 C136 1.392 . S
C137 C138 1.331 . S
C137 H155 0.932 . S
C138 C137 1.331 . S
C138 C139 1.336 . S
C139 C135 1.394 . S
C139 C138 1.336 . S
C139 H154 0.929 . S
C140 C130 1.386 . S
C140 C133 1.357 . S
C140 H153 0.928 . S
H141 C117 0.931 . S
H142 C119 0.930 . S
H143 C121 0.929 . S
H144 C122 0.931 . S
H145 C124 0.930 . S
H146 C128 0.931 . S
H147 C126 0.931 . S
H148 C130 0.931 . S
H149 C131 0.929 . S
H150 C132 0.930 . S
H151 C135 0.930 . S
H152 C136 0.931 . S
H153 C140 0.928 . S
H154 C139 0.929 . S
H155 C137 0.932 . S
C156 C157 1.386 . S
C156 C158 1.397 . S
C156 H180 0.931 . S
C157 C156 1.386 . S
C157 C161 1.397 . S
C158 C156 1.397 . S
C158 C159 1.384 . S
C158 H181 0.930 . S
C159 C158 1.384 . S
C159 C160 1.377 . S
C159 C162 1.481 . S
C160 C159 1.377 . S
C160 C161 1.389 . S
C160 H182 0.929 . S
C161 C157 1.397 . S
C161 C160 1.389 . S
C161 H183 0.931 . S
C162 C159 1.481 . S
C162 C163 1.387 . S
C162 C167 1.390 . S
C163 C162 1.387 . S
C163 C164 1.401 . S
C163 H184 0.930 . S
C164 C163 1.401 . S
C164 C165 1.376 . S
C164 C173 1.511 . S
C165 C164 1.376 . S
C165 C166 1.392 . S
C165 H186 0.931 . S
C166 C165 1.392 . S
C166 C167 1.361 . S
C166 C168 1.500 . S
C167 C162 1.390 . S
C167 C166 1.361 . S
C167 H185 0.931 . S
C168 C166 1.500 . S
C168 C169 1.371 . S
C168 C170 1.365 . S
C169 C168 1.371 . S
C169 C179 1.386 . S
C169 H187 0.931 . S
C170 C168 1.365 . S
C170 C171 1.409 . S
C170 H188 0.929 . S
C171 C170 1.409 . S
C171 C172 1.380 . S
C171 H189 0.930 . S
C172 C171 1.380 . S
C172 C179 1.357 . S
C173 C164 1.511 . S
C173 C174 1.341 . S
C173 C175 1.371 . S
C174 C173 1.341 . S
C174 C178 1.394 . S
C174 H190 0.930 . S
C175 C173 1.371 . S
C175 C176 1.392 . S
C175 H191 0.931 . S
C176 C175 1.392 . S
C176 C177 1.331 . S
C176 H194 0.932 . S
C177 C176 1.331 . S
C177 C178 1.336 . S
C178 C174 1.394 . S
C178 C177 1.336 . S
C178 H193 0.929 . S
C179 C169 1.386 . S
C179 C172 1.357 . S
C179 H192 0.928 . S
H180 C156 0.931 . S
H181 C158 0.930 . S
H182 C160 0.929 . S
H183 C161 0.931 . S
H184 C163 0.930 . S
H185 C167 0.931 . S
H186 C165 0.931 . S
H187 C169 0.931 . S
H188 C170 0.929 . S
H189 C171 0.930 . S
H190 C174 0.930 . S
H191 C175 0.931 . S
H192 C179 0.928 . S
H193 C178 0.929 . S
H194 C176 0.932 . S
C195 C196 1.386 . S
C195 C197 1.397 . S
C195 H219 0.931 . S
C196 C195 1.386 . S
C196 C200 1.397 . S
C197 C195 1.397 . S
C197 C198 1.384 . S
C197 H220 0.930 . S
C198 C197 1.384 . S
C198 C199 1.377 . S
C198 C201 1.481 . S
C199 C198 1.377 . S
C199 C200 1.389 . S
C199 H221 0.929 . S
C200 C196 1.397 . S
C200 C199 1.389 . S
C200 H222 0.931 . S
C201 C198 1.481 . S
C201 C202 1.387 . S
C201 C206 1.390 . S
C202 C201 1.387 . S
C202 C203 1.401 . S
C202 H223 0.930 . S
C203 C202 1.401 . S
C203 C204 1.376 . S
C203 C212 1.511 . S
C204 C203 1.376 . S
C204 C205 1.392 . S
C204 H225 0.931 . S
C205 C204 1.392 . S
C205 C206 1.361 . S
C205 C207 1.500 . S
C206 C201 1.390 . S
C206 C205 1.361 . S
C206 H224 0.931 . S
C207 C205 1.500 . S
C207 C208 1.371 . S
C207 C209 1.365 . S
C208 C207 1.371 . S
C208 C218 1.386 . S
C208 H226 0.931 . S
C209 C207 1.365 . S
C209 C210 1.409 . S
C209 H227 0.929 . S
C210 C209 1.409 . S
C210 C211 1.380 . S
C210 H228 0.930 . S
C211 C210 1.380 . S
C211 C218 1.357 . S
C212 C203 1.511 . S
C212 C213 1.341 . S
C212 C214 1.371 . S
C213 C212 1.341 . S
C213 C217 1.394 . S
C213 H229 0.930 . S
C214 C212 1.371 . S
C214 C215 1.392 . S
C214 H230 0.931 . S
C215 C214 1.392 . S
C215 C216 1.331 . S
C215 H233 0.932 . S
C216 C215 1.331 . S
C216 C217 1.336 . S
C217 C213 1.394 . S
C217 C216 1.336 . S
C217 H232 0.929 . S
C218 C208 1.386 . S
C218 C211 1.357 . S
C218 H231 0.928 . S
H219 C195 0.931 . S
H220 C197 0.930 . S
H221 C199 0.929 . S
H222 C200 0.931 . S
H223 C202 0.930 . S
H224 C206 0.931 . S
H225 C204 0.931 . S
H226 C208 0.931 . S
H227 C209 0.929 . S
H228 C210 0.930 . S
H229 C213 0.930 . S
H230 C214 0.931 . S
H231 C218 0.928 . S
H232 C217 0.929 . S
H233 C215 0.932 . S
C234 C235 1.386 . S
C234 C236 1.397 . S
C234 H258 0.931 . S
C235 C234 1.386 . S
C235 C239 1.397 . S
C236 C234 1.397 . S
C236 C237 1.384 . S
C236 H259 0.930 . S
C237 C236 1.384 . S
C237 C238 1.377 . S
C237 C240 1.481 . S
C238 C237 1.377 . S
C238 C239 1.389 . S
C238 H260 0.929 . S
C239 C235 1.397 . S
C239 C238 1.389 . S
C239 H261 0.931 . S
C240 C237 1.481 . S
C240 C241 1.387 . S
C240 C245 1.390 . S
C241 C240 1.387 . S
C241 C242 1.401 . S
C241 H262 0.930 . S
C242 C241 1.401 . S
C242 C243 1.376 . S
C242 C251 1.511 . S
C243 C242 1.376 . S
C243 C244 1.392 . S
C243 H264 0.931 . S
C244 C243 1.392 . S
C244 C245 1.361 . S
C244 C246 1.500 . S
C245 C240 1.390 . S
C245 C244 1.361 . S
C245 H263 0.931 . S
C246 C244 1.500 . S
C246 C247 1.371 . S
C246 C248 1.365 . S
C247 C246 1.371 . S
C247 C257 1.386 . S
C247 H265 0.931 . S
C248 C246 1.365 . S
C248 C249 1.409 . S
C248 H266 0.929 . S
C249 C248 1.409 . S
C249 C250 1.380 . S
C249 H267 0.930 . S
C250 C249 1.380 . S
C250 C257 1.357 . S
C251 C242 1.511 . S
C251 C252 1.341 . S
C251 C253 1.371 . S
C252 C251 1.341 . S
C252 C256 1.394 . S
C252 H268 0.930 . S
C253 C251 1.371 . S
C253 C254 1.392 . S
C253 H269 0.931 . S
C254 C253 1.392 . S
C254 C255 1.331 . S
C254 H272 0.932 . S
C255 C254 1.331 . S
C255 C256 1.336 . S
C256 C252 1.394 . S
C256 C255 1.336 . S
C256 H271 0.929 . S
C257 C247 1.386 . S
C257 C250 1.357 . S
C257 H270 0.928 . S
H258 C234 0.931 . S
H259 C236 0.930 . S
H260 C238 0.929 . S
H261 C239 0.931 . S
H262 C241 0.930 . S
H263 C245 0.931 . S
H264 C243 0.931 . S
H265 C247 0.931 . S
H266 C248 0.929 . S
H267 C249 0.930 . S
H268 C252 0.930 . S
H269 C253 0.931 . S
H270 C257 0.928 . S
H271 C256 0.929 . S
H272 C254 0.932 . S
C273 C274 1.386 . S
C273 C275 1.397 . S
C273 H297 0.931 . S
C274 C273 1.386 . S
C274 C278 1.397 . S
C275 C273 1.397 . S
C275 C276 1.384 . S
C275 H298 0.930 . S
C276 C275 1.384 . S
C276 C277 1.377 . S
C276 C279 1.481 . S
C277 C276 1.377 . S
C277 C278 1.389 . S
C277 H299 0.929 . S
C278 C274 1.397 . S
C278 C277 1.389 . S
C278 H300 0.931 . S
C279 C276 1.481 . S
C279 C280 1.387 . S
C279 C284 1.390 . S
C280 C279 1.387 . S
C280 C281 1.401 . S
C280 H301 0.930 . S
C281 C280 1.401 . S
C281 C282 1.376 . S
C281 C290 1.511 . S
C282 C281 1.376 . S
C282 C283 1.392 . S
C282 H303 0.931 . S
C283 C282 1.392 . S
C283 C284 1.361 . S
C283 C285 1.500 . S
C284 C279 1.390 . S
C284 C283 1.361 . S
C284 H302 0.931 . S
C285 C283 1.500 . S
C285 C286 1.371 . S
C285 C287 1.365 . S
C286 C285 1.371 . S
C286 C296 1.386 . S
C286 H304 0.931 . S
C287 C285 1.365 . S
C287 C288 1.409 . S
C287 H305 0.929 . S
C288 C287 1.409 . S
C288 C289 1.380 . S
C288 H306 0.930 . S
C289 C288 1.380 . S
C289 C296 1.357 . S
C290 C281 1.511 . S
C290 C291 1.341 . S
C290 C292 1.371 . S
C291 C290 1.341 . S
C291 C295 1.394 . S
C291 H307 0.930 . S
C292 C290 1.371 . S
C292 C293 1.392 . S
C292 H308 0.931 . S
C293 C292 1.392 . S
C293 C294 1.331 . S
C293 H311 0.932 . S
C294 C293 1.331 . S
C294 C295 1.336 . S
C295 C291 1.394 . S
C295 C294 1.336 . S
C295 H310 0.929 . S
C296 C286 1.386 . S
C296 C289 1.357 . S
C296 H309 0.928 . S
H297 C273 0.931 . S
H298 C275 0.930 . S
H299 C277 0.929 . S
H300 C278 0.931 . S
H301 C280 0.930 . S
H302 C284 0.931 . S
H303 C282 0.931 . S
H304 C286 0.931 . S
H305 C287 0.929 . S
H306 C288 0.930 . S
H307 C291 0.930 . S
H308 C292 0.931 . S
H309 C296 0.928 . S
H310 C295 0.929 . S
H311 C293 0.932 . S
Tb312 C314 2.807 . S
Tb312 O332 2.482 . S
Tb312 O333 2.440 . S
Tb312 O334 2.660 1_665 S
Tb312 O335 2.411 1_565 S
Tb312 O336 2.376 1_655 S
Tb312 O340 2.323 . S
Tb312 O343 2.343 1_565 S
Tb313 C323 2.809 . S
Tb313 O334 2.325 . S
Tb313 O337 2.341 1_545 S
Tb313 O338 2.484 . S
Tb313 O339 2.440 . S
Tb313 O340 2.658 1_445 S
Tb313 O341 2.409 1_545 S
Tb313 O342 2.378 1_455 S
C314 Tb312 2.807 . S
C314 C315 1.514 . S
C314 O332 1.248 . S
C314 O333 1.266 . S
C315 C314 1.514 . S
C315 C316 1.359 . S
C315 C320 1.348 . S
C316 C315 1.359 . S
C316 C317 1.380 . S
C316 H344 0.929 . S
C317 C316 1.380 . S
C317 C318 1.347 . S
C317 H345 0.931 . S
C318 C317 1.347 . S
C318 C319 1.369 . S
C319 C318 1.369 . S
C319 C320 1.408 . S
C319 H346 0.930 . S
C320 C315 1.348 . S
C320 C319 1.408 . S
C320 H347 0.930 . S
C321 O334 1.281 . S
C321 O335 1.254 1_455 S
C322 O336 1.236 . S
C322 O337 1.266 . S
C323 Tb313 2.809 . S
C323 C324 1.514 . S
C323 O338 1.248 . S
C323 O339 1.266 . S
C324 C323 1.514 . S
C324 C325 1.359 . S
C324 C329 1.348 . S
C325 C324 1.359 . S
C325 C326 1.380 . S
C325 H348 0.929 . S
C326 C325 1.380 . S
C326 C327 1.347 . S
C326 H349 0.931 . S
C327 C326 1.347 . S
C327 C328 1.369 . S
C328 C327 1.369 . S
C328 C329 1.408 . S
C328 H350 0.930 . S
C329 C324 1.348 . S
C329 C328 1.408 . S
C329 H351 0.930 . S
C330 O340 1.281 . S
C330 O341 1.254 1_655 S
C331 O342 1.236 . S
C331 O343 1.266 . S
O332 Tb312 2.482 . S
O332 C314 1.248 . S
O333 Tb312 2.440 . S
O333 C314 1.266 . S
O334 Tb312 2.660 1_445 S
O334 Tb313 2.325 . S
O334 C321 1.281 . S
O335 Tb312 2.411 1_545 S
O335 C321 1.254 1_655 S
O336 Tb312 2.376 1_455 S
O336 C322 1.236 . S
O337 Tb313 2.341 1_565 S
O337 C322 1.266 . S
O338 Tb313 2.484 . S
O338 C323 1.248 . S
O339 Tb313 2.440 . S
O339 C323 1.266 . S
O340 Tb312 2.323 . S
O340 Tb313 2.658 1_665 S
O340 C330 1.281 . S
O341 Tb313 2.409 1_565 S
O341 C330 1.254 1_455 S
O342 Tb313 2.378 1_655 S
O342 C331 1.236 . S
O343 Tb312 2.343 1_545 S
O343 C331 1.266 . S
H344 C316 0.929 . S
H345 C317 0.931 . S
H346 C319 0.930 . S
H347 C320 0.930 . S
H348 C325 0.929 . S
H349 C326 0.931 . S
H350 C328 0.930 . S
H351 C329 0.930 . S
Tb352 C354 2.809 . S
Tb352 O372 2.484 . S
Tb352 O373 2.440 . S
Tb352 O374 2.658 1_545 S
Tb352 O375 2.409 1_545 S
Tb352 O376 2.378 . S
Tb352 O380 2.325 1_554 S
Tb352 O383 2.341 1_544 S
Tb353 C363 2.809 . S
Tb353 O374 2.325 1_556 S
Tb353 O377 2.341 1_566 S
Tb353 O378 2.484 . S
Tb353 O379 2.440 . S
Tb353 O380 2.658 1_565 S
Tb353 O381 2.409 1_565 S
Tb353 O382 2.378 . S
C354 Tb352 2.809 . S
C354 C355 1.514 . S
C354 O372 1.248 . S
C354 O373 1.266 . S
C355 C354 1.514 . S
C355 C356 1.359 . S
C355 C360 1.348 . S
C356 C355 1.359 . S
C356 C357 1.380 . S
C356 H384 0.929 . S
C357 C356 1.380 . S
C357 C358 1.347 . S
C357 H385 0.931 . S
C358 C357 1.347 . S
C358 C359 1.369 . S
C359 C358 1.369 . S
C359 C360 1.408 . S
C359 H386 0.930 . S
C360 C355 1.348 . S
C360 C359 1.408 . S
C360 H387 0.930 . S
C361 O374 1.281 . S
C361 O375 1.254 . S
C362 O376 1.236 . S
C362 O377 1.266 . S
C363 Tb353 2.809 . S
C363 C364 1.514 . S
C363 O378 1.248 . S
C363 O379 1.266 . S
C364 C363 1.514 . S
C364 C365 1.359 . S
C364 C369 1.348 . S
C365 C364 1.359 . S
C365 C366 1.380 . S
C365 H388 0.929 . S
C366 C365 1.380 . S
C366 C367 1.347 . S
C366 H389 0.931 . S
C367 C366 1.347 . S
C367 C368 1.369 . S
C368 C367 1.369 . S
C368 C369 1.408 . S
C368 H390 0.930 . S
C369 C364 1.348 . S
C369 C368 1.408 . S
C369 H391 0.930 . S
C370 O380 1.281 . S
C370 O381 1.254 . S
C371 O382 1.236 . S
C371 O383 1.266 . S
O372 Tb352 2.484 . S
O372 C354 1.248 . S
O373 Tb352 2.440 . S
O373 C354 1.266 . S
O374 Tb352 2.658 1_565 S
O374 Tb353 2.325 1_554 S
O374 C361 1.281 . S
O375 Tb352 2.409 1_565 S
O375 C361 1.254 . S
O376 Tb352 2.378 . S
O376 C362 1.236 . S
O377 Tb353 2.341 1_544 S
O377 C362 1.266 . S
O378 Tb353 2.484 . S
O378 C363 1.248 . S
O379 Tb353 2.440 . S
O379 C363 1.266 . S
O380 Tb352 2.325 1_556 S
O380 Tb353 2.658 1_545 S
O380 C370 1.281 . S
O381 Tb353 2.409 1_545 S
O381 C370 1.254 . S
O382 Tb353 2.378 . S
O382 C371 1.236 . S
O383 Tb352 2.341 1_566 S
O383 C371 1.266 . S
H384 C356 0.929 . S
H385 C357 0.931 . S
H386 C359 0.930 . S
H387 C360 0.930 . S
H388 C365 0.929 . S
H389 C366 0.931 . S
H390 C368 0.930 . S
H391 C369 0.930 . S
Tb392 C394 2.809 . S
Tb392 O412 2.484 . S
Tb392 O413 2.440 . S
Tb392 O414 2.658 . S
Tb392 O415 2.409 . S
Tb392 O416 2.378 . S
Tb392 O420 2.325 . S
Tb392 O423 2.341 . S
Tb393 C403 2.809 . S
Tb393 O414 2.325 . S
Tb393 O417 2.341 . S
Tb393 O418 2.484 . S
Tb393 O419 2.440 . S
Tb393 O420 2.658 . S
Tb393 O421 2.409 . S
Tb393 O422 2.378 . S
C394 Tb392 2.809 . S
C394 C395 1.514 . S
C394 O412 1.248 . S
C394 O413 1.266 . S
C395 C394 1.514 . S
C395 C396 1.359 . S
C395 C400 1.348 . S
C396 C395 1.359 . S
C396 C397 1.380 . S
C396 H424 0.929 . S
C397 C396 1.380 . S
C397 C398 1.347 . S
C397 H425 0.931 . S
C398 C397 1.347 . S
C398 C399 1.369 . S
C399 C398 1.369 . S
C399 C400 1.408 . S
C399 H426 0.930 . S
C400 C395 1.348 . S
C400 C399 1.408 . S
C400 H427 0.930 . S
C401 O414 1.281 . S
C401 O415 1.254 . S
C402 O416 1.236 . S
C402 O417 1.266 . S
C403 Tb393 2.809 . S
C403 C404 1.514 . S
C403 O418 1.248 . S
C403 O419 1.266 . S
C404 C403 1.514 . S
C404 C405 1.359 . S
C404 C409 1.348 . S
C405 C404 1.359 . S
C405 C406 1.380 . S
C405 H428 0.929 . S
C406 C405 1.380 . S
C406 C407 1.347 . S
C406 H429 0.931 . S
C407 C406 1.347 . S
C407 C408 1.369 . S
C408 C407 1.369 . S
C408 C409 1.408 . S
C408 H430 0.930 . S
C409 C404 1.348 . S
C409 C408 1.408 . S
C409 H431 0.930 . S
C410 O420 1.281 . S
C410 O421 1.254 . S
C411 O422 1.236 . S
C411 O423 1.266 . S
O412 Tb392 2.484 . S
O412 C394 1.248 . S
O413 Tb392 2.440 . S
O413 C394 1.266 . S
O414 Tb392 2.658 . S
O414 Tb393 2.325 . S
O414 C401 1.281 . S
O415 Tb392 2.409 . S
O415 C401 1.254 . S
O416 Tb392 2.378 . S
O416 C402 1.236 . S
O417 Tb393 2.341 . S
O417 C402 1.266 . S
O418 Tb393 2.484 . S
O418 C403 1.248 . S
O419 Tb393 2.440 . S
O419 C403 1.266 . S
O420 Tb392 2.325 . S
O420 Tb393 2.658 . S
O420 C410 1.281 . S
O421 Tb393 2.409 . S
O421 C410 1.254 . S
O422 Tb393 2.378 . S
O422 C411 1.236 . S
O423 Tb392 2.341 . S
O423 C411 1.266 . S
H424 C396 0.929 . S
H425 C397 0.931 . S
H426 C399 0.930 . S
H427 C400 0.930 . S
H428 C405 0.929 . S
H429 C406 0.931 . S
H430 C408 0.930 . S
H431 C409 0.930 . S
Tb432 C434 2.833 . S
Tb432 O452 2.516 . S
Tb432 O453 2.452 . S
Tb432 O454 2.639 1_656 S
Tb432 O455 2.363 1_656 S
Tb432 O456 2.392 1_556 S
Tb432 O460 2.339 . S
Tb432 O463 2.319 1_655 S
Tb433 C443 2.809 . S
Tb433 O454 2.325 . S
Tb433 O457 2.341 1_455 S
Tb433 O458 2.484 . S
Tb433 O459 2.440 . S
Tb433 O460 2.658 1_454 S
Tb433 O461 2.432 1_455 S
Tb433 O462 2.378 1_554 S
C434 Tb432 2.833 . S
C434 C435 1.514 . S
C434 O452 1.248 . S
C434 O453 1.266 . S
C435 C434 1.514 . S
C435 C436 1.359 . S
C435 C440 1.348 . S
C436 C435 1.359 . S
C436 C437 1.380 . S
C436 H464 0.929 . S
C437 C436 1.380 . S
C437 C438 1.347 . S
C437 H465 0.931 . S
C438 C437 1.347 . S
C438 C439 1.369 . S
C439 C438 1.369 . S
C439 C440 1.408 . S
C439 H466 0.930 . S
C440 C435 1.348 . S
C440 C439 1.408 . S
C440 H467 0.930 . S
C441 O454 1.281 . S
C441 O455 1.280 . S
C442 O456 1.236 . S
C442 O457 1.266 . S
C443 Tb433 2.809 . S
C443 C444 1.514 . S
C443 O458 1.248 . S
C443 O459 1.266 . S
C444 C443 1.514 . S
C444 C445 1.359 . S
C444 C449 1.348 . S
C445 C444 1.359 . S
C445 C446 1.380 . S
C445 H468 0.929 . S
C446 C445 1.380 . S
C446 C447 1.347 . S
C446 H469 0.931 . S
C447 C446 1.347 . S
C447 C448 1.369 . S
C448 C447 1.369 . S
C448 C449 1.408 . S
C448 H470 0.930 . S
C449 C444 1.348 . S
C449 C448 1.408 . S
C449 H471 0.930 . S
C450 O460 1.281 . S
C450 O461 1.228 1_556 S
C451 O462 1.236 . S
C451 O463 1.266 . S
O452 Tb432 2.516 . S
O452 C434 1.248 . S
O453 Tb432 2.452 . S
O453 C434 1.266 . S
O454 Tb432 2.639 1_454 S
O454 Tb433 2.325 . S
O454 C441 1.281 . S
O455 Tb432 2.363 1_454 S
O455 C441 1.280 . S
O456 Tb432 2.392 1_554 S
O456 C442 1.236 . S
O457 Tb433 2.341 1_655 S
O457 C442 1.266 . S
O458 Tb433 2.484 . S
O458 C443 1.248 . S
O459 Tb433 2.440 . S
O459 C443 1.266 . S
O460 Tb432 2.339 . S
O460 Tb433 2.658 1_656 S
O460 C450 1.281 . S
O461 Tb433 2.432 1_655 S
O461 C450 1.228 1_554 S
O462 Tb433 2.378 1_556 S
O462 C451 1.236 . S
O463 Tb432 2.319 1_455 S
O463 C451 1.266 . S
H464 C436 0.929 . S
H465 C437 0.931 . S
H466 C439 0.930 . S
H467 C440 0.930 . S
H468 C445 0.929 . S
H469 C446 0.931 . S
H470 C448 0.930 . S
H471 C449 0.930 . S
C472 C473 1.349 . S
C472 C474 1.327 . S
C472 H497 0.950 . S
C473 C472 1.349 . S
C473 C489 1.349 . S
C474 C472 1.327 . S
C474 C493 1.429 . S
C474 H498 0.950 . S
C475 C492 1.574 . S
C475 C494 1.368 . S
C475 H499 0.949 . S
H476 C480 0.949 . S
C477 C478 1.349 . S
C477 C479 1.327 . S
C477 H500 0.950 . S
C478 C477 1.349 . S
C478 C490 1.349 . S
C479 C477 1.327 . S
C479 C495 1.429 . S
C479 H501 0.950 . S
C480 H476 0.949 . S
C480 C488 1.574 . S
C480 C496 1.368 . S
H481 C489 0.950 . S
H482 C487 0.950 . S
H483 C488 0.949 . S
H484 C490 0.950 . S
H485 C491 0.950 . S
H486 C492 0.949 . S
C487 H482 0.950 . S
C487 C489 1.327 . S
C487 C493 1.429 . S
C488 C480 1.574 . S
C488 H483 0.949 . S
C488 C494 1.368 . S
C489 C473 1.349 . S
C489 H481 0.950 . S
C489 C487 1.327 . S
C490 C478 1.349 . S
C490 H484 0.950 . S
C490 C491 1.327 . S
C491 H485 0.950 . S
C491 C490 1.327 . S
C491 C495 1.429 . S
C492 C475 1.574 . S
C492 H486 0.949 . S
C492 C496 1.368 . S
C493 C474 1.429 . S
C493 C487 1.429 . S
C493 C494 1.523 . S
C494 C475 1.368 . S
C494 C488 1.368 . S
C494 C493 1.523 . S
C495 C479 1.429 . S
C495 C491 1.429 . S
C495 C496 1.523 . S
C496 C480 1.368 . S
C496 C492 1.368 . S
C496 C495 1.523 . S
H497 C472 0.950 . S
H498 C474 0.950 . S
H499 C475 0.949 . S
H500 C477 0.950 . S
H501 C479 0.950 . S
C502 C503 1.349 . S
C502 C504 1.327 . S
C502 H527 0.950 . S
C503 C502 1.349 . S
C503 C519 1.349 . S
C504 C502 1.327 . S
C504 C523 1.429 . S
C504 H528 0.950 . S
C505 C522 1.574 . S
C505 C524 1.368 . S
C505 H529 0.949 . S
H506 C510 0.949 . S
C507 C508 1.349 . S
C507 C509 1.327 . S
C507 H530 0.950 . S
C508 C507 1.349 . S
C508 C520 1.349 . S
C509 C507 1.327 . S
C509 C525 1.429 . S
C509 H531 0.950 . S
C510 H506 0.949 . S
C510 C518 1.574 . S
C510 C526 1.368 . S
H511 C519 0.950 . S
H512 C517 0.950 . S
H513 C518 0.949 . S
H514 C520 0.950 . S
H515 C521 0.950 . S
H516 C522 0.949 . S
C517 H512 0.950 . S
C517 C519 1.327 . S
C517 C523 1.429 . S
C518 C510 1.574 . S
C518 H513 0.949 . S
C518 C524 1.368 . S
C519 C503 1.349 . S
C519 H511 0.950 . S
C519 C517 1.327 . S
C520 C508 1.349 . S
C520 H514 0.950 . S
C520 C521 1.327 . S
C521 H515 0.950 . S
C521 C520 1.327 . S
C521 C525 1.429 . S
C522 C505 1.574 . S
C522 H516 0.949 . S
C522 C526 1.368 . S
C523 C504 1.429 . S
C523 C517 1.429 . S
C523 C524 1.523 . S
C524 C505 1.368 . S
C524 C518 1.368 . S
C524 C523 1.523 . S
C525 C509 1.429 . S
C525 C521 1.429 . S
C525 C526 1.523 . S
C526 C510 1.368 . S
C526 C522 1.368 . S
C526 C525 1.523 . S
H527 C502 0.950 . S
H528 C504 0.950 . S
H529 C505 0.949 . S
H530 C507 0.950 . S
H531 C509 0.950 . S
C532 C533 1.349 . S
C532 C534 1.327 . S
C532 H557 0.950 . S
C533 C532 1.349 . S
C533 C549 1.349 . S
C534 C532 1.327 . S
C534 C553 1.429 . S
C534 H558 0.950 . S
C535 C552 1.574 . S
C535 C554 1.368 . S
C535 H559 0.949 . S
H536 C540 0.949 . S
C537 C538 1.349 . S
C537 C539 1.327 . S
C537 H560 0.950 . S
C538 C537 1.349 . S
C538 C550 1.349 . S
C539 C537 1.327 . S
C539 C555 1.429 . S
C539 H561 0.950 . S
C540 H536 0.949 . S
C540 C548 1.574 . S
C540 C556 1.368 . S
H541 C549 0.950 . S
H542 C547 0.950 . S
H543 C548 0.949 . S
H544 C550 0.950 . S
H545 C551 0.950 . S
H546 C552 0.949 . S
C547 H542 0.950 . S
C547 C549 1.327 . S
C547 C553 1.429 . S
C548 C540 1.574 . S
C548 H543 0.949 . S
C548 C554 1.368 . S
C549 C533 1.349 . S
C549 H541 0.950 . S
C549 C547 1.327 . S
C550 C538 1.349 . S
C550 H544 0.950 . S
C550 C551 1.327 . S
C551 H545 0.950 . S
C551 C550 1.327 . S
C551 C555 1.429 . S
C552 C535 1.574 . S
C552 H546 0.949 . S
C552 C556 1.368 . S
C553 C534 1.429 . S
C553 C547 1.429 . S
C553 C554 1.523 . S
C554 C535 1.368 . S
C554 C548 1.368 . S
C554 C553 1.523 . S
C555 C539 1.429 . S
C555 C551 1.429 . S
C555 C556 1.523 . S
C556 C540 1.368 . S
C556 C552 1.368 . S
C556 C555 1.523 . S
H557 C532 0.950 . S
H558 C534 0.950 . S
H559 C535 0.949 . S
H560 C537 0.950 . S
H561 C539 0.950 . S
C562 C563 1.349 . S
C562 C564 1.327 . S
C562 H587 0.950 . S
C563 C562 1.349 . S
C563 C579 1.349 . S
C564 C562 1.327 . S
C564 C583 1.429 . S
C564 H588 0.950 . S
C565 C582 1.574 . S
C565 C584 1.368 . S
C565 H589 0.949 . S
H566 C570 0.949 . S
C567 C568 1.349 . S
C567 C569 1.327 . S
C567 H590 0.950 . S
C568 C567 1.349 . S
C568 C580 1.349 . S
C569 C567 1.327 . S
C569 C585 1.429 . S
C569 H591 0.950 . S
C570 H566 0.949 . S
C570 C578 1.574 . S
C570 C586 1.368 . S
H571 C579 0.950 . S
H572 C577 0.950 . S
H573 C578 0.949 . S
H574 C580 0.950 . S
H575 C581 0.950 . S
H576 C582 0.949 . S
C577 H572 0.950 . S
C577 C579 1.327 . S
C577 C583 1.429 . S
C578 C570 1.574 . S
C578 H573 0.949 . S
C578 C584 1.368 . S
C579 C563 1.349 . S
C579 H571 0.950 . S
C579 C577 1.327 . S
C580 C568 1.349 . S
C580 H574 0.950 . S
C580 C581 1.327 . S
C581 H575 0.950 . S
C581 C580 1.327 . S
C581 C585 1.429 . S
C582 C565 1.574 . S
C582 H576 0.949 . S
C582 C586 1.368 . S
C583 C564 1.429 . S
C583 C577 1.429 . S
C583 C584 1.523 . S
C584 C565 1.368 . S
C584 C578 1.368 . S
C584 C583 1.523 . S
C585 C569 1.429 . S
C585 C581 1.429 . S
C585 C586 1.523 . S
C586 C570 1.368 . S
C586 C582 1.368 . S
C586 C585 1.523 . S
H587 C562 0.950 . S
H588 C564 0.950 . S
H589 C565 0.949 . S
H590 C567 0.950 . S
H591 C569 0.950 . S
C592 C593 1.349 . S
C592 C594 1.327 . S
C592 H617 0.950 . S
C593 C592 1.349 . S
C593 C609 1.349 . S
C594 C592 1.327 . S
C594 C613 1.429 . S
C594 H618 0.950 . S
C595 C612 1.574 . S
C595 C614 1.368 . S
C595 H619 0.949 . S
H596 C600 0.949 . S
C597 C598 1.349 . S
C597 C599 1.327 . S
C597 H620 0.950 . S
C598 C597 1.349 . S
C598 C610 1.349 . S
C599 C597 1.327 . S
C599 C615 1.429 . S
C599 H621 0.950 . S
C600 H596 0.949 . S
C600 C608 1.574 . S
C600 C616 1.368 . S
H601 C609 0.950 . S
H602 C607 0.950 . S
H603 C608 0.949 . S
H604 C610 0.950 . S
H605 C611 0.950 . S
H606 C612 0.949 . S
C607 H602 0.950 . S
C607 C609 1.327 . S
C607 C613 1.429 . S
C608 C600 1.574 . S
C608 H603 0.949 . S
C608 C614 1.368 . S
C609 C593 1.349 . S
C609 H601 0.950 . S
C609 C607 1.327 . S
C610 C598 1.349 . S
C610 H604 0.950 . S
C610 C611 1.327 . S
C611 H605 0.950 . S
C611 C610 1.327 . S
C611 C615 1.429 . S
C612 C595 1.574 . S
C612 H606 0.949 . S
C612 C616 1.368 . S
C613 C594 1.429 . S
C613 C607 1.429 . S
C613 C614 1.523 . S
C614 C595 1.368 . S
C614 C608 1.368 . S
C614 C613 1.523 . S
C615 C599 1.429 . S
C615 C611 1.429 . S
C615 C616 1.523 . S
C616 C600 1.368 . S
C616 C612 1.368 . S
C616 C615 1.523 . S
H617 C592 0.950 . S
H618 C594 0.950 . S
H619 C595 0.949 . S
H620 C597 0.950 . S
H621 C599 0.950 . S
C622 C623 1.349 . S
C622 C624 1.327 . S
C622 H647 0.950 . S
C623 C622 1.349 . S
C623 C639 1.349 . S
C624 C622 1.327 . S
C624 C643 1.429 . S
C624 H648 0.950 . S
C625 C642 1.574 . S
C625 C644 1.368 . S
C625 H649 0.949 . S
H626 C630 0.949 . S
C627 C628 1.349 . S
C627 C629 1.327 . S
C627 H650 0.950 . S
C628 C627 1.349 . S
C628 C640 1.349 . S
C629 C627 1.327 . S
C629 C645 1.429 . S
C629 H651 0.950 . S
C630 H626 0.949 . S
C630 C638 1.574 . S
C630 C646 1.368 . S
H631 C639 0.950 . S
H632 C637 0.950 . S
H633 C638 0.949 . S
H634 C640 0.950 . S
H635 C641 0.950 . S
H636 C642 0.949 . S
C637 H632 0.950 . S
C637 C639 1.327 . S
C637 C643 1.429 . S
C638 C630 1.574 . S
C638 H633 0.949 . S
C638 C644 1.368 . S
C639 C623 1.349 . S
C639 H631 0.950 . S
C639 C637 1.327 . S
C640 C628 1.349 . S
C640 H634 0.950 . S
C640 C641 1.327 . S
C641 H635 0.950 . S
C641 C640 1.327 . S
C641 C645 1.429 . S
C642 C625 1.574 . S
C642 H636 0.949 . S
C642 C646 1.368 . S
C643 C624 1.429 . S
C643 C637 1.429 . S
C643 C644 1.523 . S
C644 C625 1.368 . S
C644 C638 1.368 . S
C644 C643 1.523 . S
C645 C629 1.429 . S
C645 C641 1.429 . S
C645 C646 1.523 . S
C646 C630 1.368 . S
C646 C642 1.368 . S
C646 C645 1.523 . S
H647 C622 0.950 . S
H648 C624 0.950 . S
H649 C625 0.949 . S
H650 C627 0.950 . S
H651 C629 0.950 . S
C652 C653 1.349 . S
C652 C654 1.327 . S
C652 H677 0.950 . S
C653 C652 1.349 . S
C653 C669 1.349 . S
C654 C652 1.327 . S
C654 C673 1.429 . S
C654 H678 0.950 . S
C655 C672 1.574 . S
C655 C674 1.368 . S
C655 H679 0.949 . S
H656 C660 0.949 . S
C657 C658 1.349 . S
C657 C659 1.327 . S
C657 H680 0.950 . S
C658 C657 1.349 . S
C658 C670 1.349 . S
C659 C657 1.327 . S
C659 C675 1.429 . S
C659 H681 0.950 . S
C660 H656 0.949 . S
C660 C668 1.574 . S
C660 C676 1.368 . S
H661 C669 0.950 . S
H662 C667 0.950 . S
H663 C668 0.949 . S
H664 C670 0.950 . S
H665 C671 0.950 . S
H666 C672 0.949 . S
C667 H662 0.950 . S
C667 C669 1.327 . S
C667 C673 1.429 . S
C668 C660 1.574 . S
C668 H663 0.949 . S
C668 C674 1.368 . S
C669 C653 1.349 . S
C669 H661 0.950 . S
C669 C667 1.327 . S
C670 C658 1.349 . S
C670 H664 0.950 . S
C670 C671 1.327 . S
C671 H665 0.950 . S
C671 C670 1.327 . S
C671 C675 1.429 . S
C672 C655 1.574 . S
C672 H666 0.949 . S
C672 C676 1.368 . S
C673 C654 1.429 . S
C673 C667 1.429 . S
C673 C674 1.523 . S
C674 C655 1.368 . S
C674 C668 1.368 . S
C674 C673 1.523 . S
C675 C659 1.429 . S
C675 C671 1.429 . S
C675 C676 1.523 . S
C676 C660 1.368 . S
C676 C672 1.368 . S
C676 C675 1.523 . S
H677 C652 0.950 . S
H678 C654 0.950 . S
H679 C655 0.949 . S
H680 C657 0.950 . S
H681 C659 0.950 . S
C682 C683 1.349 . S
C682 C684 1.327 . S
C682 H707 0.950 . S
C683 C682 1.349 . S
C683 C699 1.349 . S
C684 C682 1.327 . S
C684 C703 1.429 . S
C684 H708 0.950 . S
C685 C702 1.574 . S
C685 C704 1.368 . S
C685 H709 0.949 . S
H686 C690 0.949 . S
C687 C688 1.349 . S
C687 C689 1.327 . S
C687 H710 0.950 . S
C688 C687 1.349 . S
C688 C700 1.349 . S
C689 C687 1.327 . S
C689 C705 1.429 . S
C689 H711 0.950 . S
C690 H686 0.949 . S
C690 C698 1.574 . S
C690 C706 1.368 . S
H691 C699 0.950 . S
H692 C697 0.950 . S
H693 C698 0.949 . S
H694 C700 0.950 . S
H695 C701 0.950 . S
H696 C702 0.949 . S
C697 H692 0.950 . S
C697 C699 1.327 . S
C697 C703 1.429 . S
C698 C690 1.574 . S
C698 H693 0.949 . S
C698 C704 1.368 . S
C699 C683 1.349 . S
C699 H691 0.950 . S
C699 C697 1.327 . S
C700 C688 1.349 . S
C700 H694 0.950 . S
C700 C701 1.327 . S
C701 H695 0.950 . S
C701 C700 1.327 . S
C701 C705 1.429 . S
C702 C685 1.574 . S
C702 H696 0.949 . S
C702 C706 1.368 . S
C703 C684 1.429 . S
C703 C697 1.429 . S
C703 C704 1.523 . S
C704 C685 1.368 . S
C704 C698 1.368 . S
C704 C703 1.523 . S
C705 C689 1.429 . S
C705 C701 1.429 . S
C705 C706 1.523 . S
C706 C690 1.368 . S
C706 C702 1.368 . S
C706 C705 1.523 . S
H707 C682 0.950 . S
H708 C684 0.950 . S
H709 C685 0.949 . S
H710 C687 0.950 . S
H711 C689 0.950 . S
C712 C713 1.349 . S
C712 C714 1.327 . S
C712 H737 0.950 . S
C713 C712 1.349 . S
C713 C729 1.349 . S
C714 C712 1.327 . S
C714 C733 1.429 . S
C714 H738 0.950 . S
C715 C732 1.574 . S
C715 C734 1.368 . S
C715 H739 0.949 . S
H716 C720 0.949 . S
C717 C718 1.349 . S
C717 C719 1.327 . S
C717 H740 0.950 . S
C718 C717 1.349 . S
C718 C730 1.349 . S
C719 C717 1.327 . S
C719 C735 1.429 . S
C719 H741 0.950 . S
C720 H716 0.949 . S
C720 C728 1.574 . S
C720 C736 1.368 . S
H721 C729 0.950 . S
H722 C727 0.950 . S
H723 C728 0.949 . S
H724 C730 0.950 . S
H725 C731 0.950 . S
H726 C732 0.949 . S
C727 H722 0.950 . S
C727 C729 1.327 . S
C727 C733 1.429 . S
C728 C720 1.574 . S
C728 H723 0.949 . S
C728 C734 1.368 . S
C729 C713 1.349 . S
C729 H721 0.950 . S
C729 C727 1.327 . S
C730 C718 1.349 . S
C730 H724 0.950 . S
C730 C731 1.327 . S
C731 H725 0.950 . S
C731 C730 1.327 . S
C731 C735 1.429 . S
C732 C715 1.574 . S
C732 H726 0.949 . S
C732 C736 1.368 . S
C733 C714 1.429 . S
C733 C727 1.429 . S
C733 C734 1.523 . S
C734 C715 1.368 . S
C734 C728 1.368 . S
C734 C733 1.523 . S
C735 C719 1.429 . S
C735 C731 1.429 . S
C735 C736 1.523 . S
C736 C720 1.368 . S
C736 C732 1.368 . S
C736 C735 1.523 . S
H737 C712 0.950 . S
H738 C714 0.950 . S
H739 C715 0.949 . S
H740 C717 0.950 . S
H741 C719 0.950 . S
C742 C743 1.349 . S
C742 C744 1.327 . S
C742 H767 0.950 . S
C743 C742 1.349 . S
C743 C759 1.349 . S
C744 C742 1.327 . S
C744 C763 1.429 . S
C744 H768 0.950 . S
C745 C762 1.574 . S
C745 C764 1.368 . S
C745 H769 0.949 . S
H746 C750 0.949 . S
C747 C748 1.349 . S
C747 C749 1.327 . S
C747 H770 0.950 . S
C748 C747 1.349 . S
C748 C760 1.349 . S
C749 C747 1.327 . S
C749 C765 1.429 . S
C749 H771 0.950 . S
C750 H746 0.949 . S
C750 C758 1.574 . S
C750 C766 1.368 . S
H751 C759 0.950 . S
H752 C757 0.950 . S
H753 C758 0.949 . S
H754 C760 0.950 . S
H755 C761 0.950 . S
H756 C762 0.949 . S
C757 H752 0.950 . S
C757 C759 1.327 . S
C757 C763 1.429 . S
C758 C750 1.574 . S
C758 H753 0.949 . S
C758 C764 1.368 . S
C759 C743 1.349 . S
C759 H751 0.950 . S
C759 C757 1.327 . S
C760 C748 1.349 . S
C760 H754 0.950 . S
C760 C761 1.327 . S
C761 H755 0.950 . S
C761 C760 1.327 . S
C761 C765 1.429 . S
C762 C745 1.574 . S
C762 H756 0.949 . S
C762 C766 1.368 . S
C763 C744 1.429 . S
C763 C757 1.429 . S
C763 C764 1.523 . S
C764 C745 1.368 . S
C764 C758 1.368 . S
C764 C763 1.523 . S
C765 C749 1.429 . S
C765 C761 1.429 . S
C765 C766 1.523 . S
C766 C750 1.368 . S
C766 C762 1.368 . S
C766 C765 1.523 . S
H767 C742 0.950 . S
H768 C744 0.950 . S
H769 C745 0.949 . S
H770 C747 0.950 . S
H771 C749 0.950 . S
C772 C773 1.349 . S
C772 C774 1.327 . S
C772 H797 0.950 . S
C773 C772 1.349 . S
C773 C789 1.349 . S
C774 C772 1.327 . S
C774 C793 1.429 . S
C774 H798 0.950 . S
C775 C792 1.574 . S
C775 C794 1.368 . S
C775 H799 0.949 . S
H776 C780 0.949 . S
C777 C778 1.349 . S
C777 C779 1.327 . S
C777 H800 0.950 . S
C778 C777 1.349 . S
C778 C790 1.349 . S
C779 C777 1.327 . S
C779 C795 1.429 . S
C779 H801 0.950 . S
C780 H776 0.949 . S
C780 C788 1.574 . S
C780 C796 1.368 . S
H781 C789 0.950 . S
H782 C787 0.950 . S
H783 C788 0.949 . S
H784 C790 0.950 . S
H785 C791 0.950 . S
H786 C792 0.949 . S
C787 H782 0.950 . S
C787 C789 1.327 . S
C787 C793 1.429 . S
C788 C780 1.574 . S
C788 H783 0.949 . S
C788 C794 1.368 . S
C789 C773 1.349 . S
C789 H781 0.950 . S
C789 C787 1.327 . S
C790 C778 1.349 . S
C790 H784 0.950 . S
C790 C791 1.327 . S
C791 H785 0.950 . S
C791 C790 1.327 . S
C791 C795 1.429 . S
C792 C775 1.574 . S
C792 H786 0.949 . S
C792 C796 1.368 . S
C793 C774 1.429 . S
C793 C787 1.429 . S
C793 C794 1.523 . S
C794 C775 1.368 . S
C794 C788 1.368 . S
C794 C793 1.523 . S
C795 C779 1.429 . S
C795 C791 1.429 . S
C795 C796 1.523 . S
C796 C780 1.368 . S
C796 C792 1.368 . S
C796 C795 1.523 . S
H797 C772 0.950 . S
H798 C774 0.950 . S
H799 C775 0.949 . S
H800 C777 0.950 . S
H801 C779 0.950 . S
C802 C803 1.349 . S
C802 C804 1.327 . S
C802 H827 0.950 . S
C803 C802 1.349 . S
C803 C819 1.349 . S
C804 C802 1.327 . S
C804 C823 1.429 . S
C804 H828 0.950 . S
C805 C822 1.574 . S
C805 C824 1.368 . S
C805 H829 0.949 . S
H806 C810 0.949 . S
C807 C808 1.349 . S
C807 C809 1.327 . S
C807 H830 0.950 . S
C808 C807 1.349 . S
C808 C820 1.349 . S
C809 C807 1.327 . S
C809 C825 1.429 . S
C809 H831 0.950 . S
C810 H806 0.949 . S
C810 C818 1.574 . S
C810 C826 1.368 . S
H811 C819 0.950 . S
H812 C817 0.950 . S
H813 C818 0.949 . S
H814 C820 0.950 . S
H815 C821 0.950 . S
H816 C822 0.949 . S
C817 H812 0.950 . S
C817 C819 1.327 . S
C817 C823 1.429 . S
C818 C810 1.574 . S
C818 H813 0.949 . S
C818 C824 1.368 . S
C819 C803 1.349 . S
C819 H811 0.950 . S
C819 C817 1.327 . S
C820 C808 1.349 . S
C820 H814 0.950 . S
C820 C821 1.327 . S
C821 H815 0.950 . S
C821 C820 1.327 . S
C821 C825 1.429 . S
C822 C805 1.574 . S
C822 H816 0.949 . S
C822 C826 1.368 . S
C823 C804 1.429 . S
C823 C817 1.429 . S
C823 C824 1.523 . S
C824 C805 1.368 . S
C824 C818 1.368 . S
C824 C823 1.523 . S
C825 C809 1.429 . S
C825 C821 1.429 . S
C825 C826 1.523 . S
C826 C810 1.368 . S
C826 C822 1.368 . S
C826 C825 1.523 . S
H827 C802 0.950 . S
H828 C804 0.950 . S
H829 C805 0.949 . S
H830 C807 0.950 . S
H831 C809 0.950 . S
C832 C833 1.349 . S
C832 C834 1.327 . S
C832 H857 0.950 . S
C833 C832 1.349 . S
C833 C849 1.349 . S
C834 C832 1.327 . S
C834 C853 1.429 . S
C834 H858 0.950 . S
C835 C852 1.574 . S
C835 C854 1.368 . S
C835 H859 0.949 . S
H836 C840 0.949 . S
C837 C838 1.349 . S
C837 C839 1.327 . S
C837 H860 0.950 . S
C838 C837 1.349 . S
C838 C850 1.349 . S
C839 C837 1.327 . S
C839 C855 1.429 . S
C839 H861 0.950 . S
C840 H836 0.949 . S
C840 C848 1.574 . S
C840 C856 1.368 . S
H841 C849 0.950 . S
H842 C847 0.950 . S
H843 C848 0.949 . S
H844 C850 0.950 . S
H845 C851 0.950 . S
H846 C852 0.949 . S
C847 H842 0.950 . S
C847 C849 1.327 . S
C847 C853 1.429 . S
C848 C840 1.574 . S
C848 H843 0.949 . S
C848 C854 1.368 . S
C849 C833 1.349 . S
C849 H841 0.950 . S
C849 C847 1.327 . S
C850 C838 1.349 . S
C850 H844 0.950 . S
C850 C851 1.327 . S
C851 H845 0.950 . S
C851 C850 1.327 . S
C851 C855 1.429 . S
C852 C835 1.574 . S
C852 H846 0.949 . S
C852 C856 1.368 . S
C853 C834 1.429 . S
C853 C847 1.429 . S
C853 C854 1.523 . S
C854 C835 1.368 . S
C854 C848 1.368 . S
C854 C853 1.523 . S
C855 C839 1.429 . S
C855 C851 1.429 . S
C855 C856 1.523 . S
C856 C840 1.368 . S
C856 C852 1.368 . S
C856 C855 1.523 . S
H857 C832 0.950 . S
H858 C834 0.950 . S
H859 C835 0.949 . S
H860 C837 0.950 . S
H861 C839 0.950 . S
C862 C863 1.349 . S
C862 C864 1.327 . S
C862 H887 0.950 . S
C863 C862 1.349 . S
C863 C879 1.349 . S
C864 C862 1.327 . S
C864 C883 1.429 . S
C864 H888 0.950 . S
C865 C882 1.574 . S
C865 C884 1.368 . S
C865 H889 0.949 . S
H866 C870 0.949 . S
C867 C868 1.349 . S
C867 C869 1.327 . S
C867 H890 0.950 . S
C868 C867 1.349 . S
C868 C880 1.349 . S
C869 C867 1.327 . S
C869 C885 1.429 . S
C869 H891 0.950 . S
C870 H866 0.949 . S
C870 C878 1.574 . S
C870 C886 1.368 . S
H871 C879 0.950 . S
H872 C877 0.950 . S
H873 C878 0.949 . S
H874 C880 0.950 . S
H875 C881 0.950 . S
H876 C882 0.949 . S
C877 H872 0.950 . S
C877 C879 1.327 . S
C877 C883 1.429 . S
C878 C870 1.574 . S
C878 H873 0.949 . S
C878 C884 1.368 . S
C879 C863 1.349 . S
C879 H871 0.950 . S
C879 C877 1.327 . S
C880 C868 1.349 . S
C880 H874 0.950 . S
C880 C881 1.327 . S
C881 H875 0.950 . S
C881 C880 1.327 . S
C881 C885 1.429 . S
C882 C865 1.574 . S
C882 H876 0.949 . S
C882 C886 1.368 . S
C883 C864 1.429 . S
C883 C877 1.429 . S
C883 C884 1.523 . S
C884 C865 1.368 . S
C884 C878 1.368 . S
C884 C883 1.523 . S
C885 C869 1.429 . S
C885 C881 1.429 . S
C885 C886 1.523 . S
C886 C870 1.368 . S
C886 C882 1.368 . S
C886 C885 1.523 . S
H887 C862 0.950 . S
H888 C864 0.950 . S
H889 C865 0.949 . S
H890 C867 0.950 . S
H891 C869 0.950 . S
C892 C893 1.349 . S
C892 C894 1.327 . S
C892 H917 0.950 . S
C893 C892 1.349 . S
C893 C909 1.349 . S
C894 C892 1.327 . S
C894 C913 1.429 . S
C894 H918 0.950 . S
C895 C912 1.574 . S
C895 C914 1.368 . S
C895 H919 0.949 . S
H896 C900 0.949 . S
C897 C898 1.349 . S
C897 C899 1.327 . S
C897 H920 0.950 . S
C898 C897 1.349 . S
C898 C910 1.349 . S
C899 C897 1.327 . S
C899 C915 1.429 . S
C899 H921 0.950 . S
C900 H896 0.949 . S
C900 C908 1.574 . S
C900 C916 1.368 . S
H901 C909 0.950 . S
H902 C907 0.950 . S
H903 C908 0.949 . S
H904 C910 0.950 . S
H905 C911 0.950 . S
H906 C912 0.949 . S
C907 H902 0.950 . S
C907 C909 1.327 . S
C907 C913 1.429 . S
C908 C900 1.574 . S
C908 H903 0.949 . S
C908 C914 1.368 . S
C909 C893 1.349 . S
C909 H901 0.950 . S
C909 C907 1.327 . S
C910 C898 1.349 . S
C910 H904 0.950 . S
C910 C911 1.327 . S
C911 H905 0.950 . S
C911 C910 1.327 . S
C911 C915 1.429 . S
C912 C895 1.574 . S
C912 H906 0.949 . S
C912 C916 1.368 . S
C913 C894 1.429 . S
C913 C907 1.429 . S
C913 C914 1.523 . S
C914 C895 1.368 . S
C914 C908 1.368 . S
C914 C913 1.523 . S
C915 C899 1.429 . S
C915 C911 1.429 . S
C915 C916 1.523 . S
C916 C900 1.368 . S
C916 C912 1.368 . S
C916 C915 1.523 . S
H917 C892 0.950 . S
H918 C894 0.950 . S
H919 C895 0.949 . S
H920 C897 0.950 . S
H921 C899 0.950 . S
C922 C923 1.349 . S
C922 C924 1.327 . S
C922 H947 0.950 . S
C923 C922 1.349 . S
C923 C939 1.349 . S
C924 C922 1.327 . S
C924 C943 1.429 . S
C924 H948 0.950 . S
C925 C942 1.574 . S
C925 C944 1.368 . S
C925 H949 0.949 . S
H926 C930 0.949 . S
C927 C928 1.349 . S
C927 C929 1.327 . S
C927 H950 0.950 . S
C928 C927 1.349 . S
C928 C940 1.349 . S
C929 C927 1.327 . S
C929 C945 1.429 . S
C929 H951 0.950 . S
C930 H926 0.949 . S
C930 C938 1.574 . S
C930 C946 1.368 . S
H931 C939 0.950 . S
H932 C937 0.950 . S
H933 C938 0.949 . S
H934 C940 0.950 . S
H935 C941 0.950 . S
H936 C942 0.949 . S
C937 H932 0.950 . S
C937 C939 1.327 . S
C937 C943 1.429 . S
C938 C930 1.574 . S
C938 H933 0.949 . S
C938 C944 1.368 . S
C939 C923 1.349 . S
C939 H931 0.950 . S
C939 C937 1.327 . S
C940 C928 1.349 . S
C940 H934 0.950 . S
C940 C941 1.327 . S
C941 H935 0.950 . S
C941 C940 1.327 . S
C941 C945 1.429 . S
C942 C925 1.574 . S
C942 H936 0.949 . S
C942 C946 1.368 . S
C943 C924 1.429 . S
C943 C937 1.429 . S
C943 C944 1.523 . S
C944 C925 1.368 . S
C944 C938 1.368 . S
C944 C943 1.523 . S
C945 C929 1.429 . S
C945 C941 1.429 . S
C945 C946 1.523 . S
C946 C930 1.368 . S
C946 C942 1.368 . S
C946 C945 1.523 . S
H947 C922 0.950 . S
H948 C924 0.950 . S
H949 C925 0.949 . S
H950 C927 0.950 . S
H951 C929 0.950 . S
C952 C953 1.349 . S
C952 C954 1.327 . S
C952 H977 0.950 . S
C953 C952 1.349 . S
C953 C969 1.349 . S
C954 C952 1.327 . S
C954 C973 1.429 . S
C954 H978 0.950 . S
C955 C972 1.574 . S
C955 C974 1.368 . S
C955 H979 0.949 . S
H956 C960 0.949 . S
C957 C958 1.349 . S
C957 C959 1.327 . S
C957 H980 0.950 . S
C958 C957 1.349 . S
C958 C970 1.349 . S
C959 C957 1.327 . S
C959 C975 1.429 . S
C959 H981 0.950 . S
C960 H956 0.949 . S
C960 C968 1.574 . S
C960 C976 1.368 . S
H961 C969 0.950 . S
H962 C967 0.950 . S
H963 C968 0.949 . S
H964 C970 0.950 . S
H965 C971 0.950 . S
H966 C972 0.949 . S
C967 H962 0.950 . S
C967 C969 1.327 . S
C967 C973 1.429 . S
C968 C960 1.574 . S
C968 H963 0.949 . S
C968 C974 1.368 . S
C969 C953 1.349 . S
C969 H961 0.950 . S
C969 C967 1.327 . S
C970 C958 1.349 . S
C970 H964 0.950 . S
C970 C971 1.327 . S
C971 H965 0.950 . S
C971 C970 1.327 . S
C971 C975 1.429 . S
C972 C955 1.574 . S
C972 H966 0.949 . S
C972 C976 1.368 . S
C973 C954 1.429 . S
C973 C967 1.429 . S
C973 C974 1.523 . S
C974 C955 1.368 . S
C974 C968 1.368 . S
C974 C973 1.523 . S
C975 C959 1.429 . S
C975 C971 1.429 . S
C975 C976 1.523 . S
C976 C960 1.368 . S
C976 C972 1.368 . S
C976 C975 1.523 . S
H977 C952 0.950 . S
H978 C954 0.950 . S
H979 C955 0.949 . S
H980 C957 0.950 . S
H981 C959 0.950 . S
C982 C983 1.349 . S
C982 C984 1.327 . S
C982 H1007 0.950 . S
C983 C982 1.349 . S
C983 C999 1.349 . S
C984 C982 1.327 . S
C984 C1003 1.429 . S
C984 H1008 0.950 . S
C985 C1002 1.574 . S
C985 C1004 1.368 . S
C985 H1009 0.949 . S
H986 C990 0.949 . S
C987 C988 1.349 . S
C987 C989 1.327 . S
C987 H1010 0.950 . S
C988 C987 1.349 . S
C988 C1000 1.349 . S
C989 C987 1.327 . S
C989 C1005 1.429 . S
C989 H1011 0.950 . S
C990 H986 0.949 . S
C990 C998 1.574 . S
C990 C1006 1.368 . S
H991 C999 0.950 . S
H992 C997 0.950 . S
H993 C998 0.949 . S
H994 C1000 0.950 . S
H995 C1001 0.950 . S
H996 C1002 0.949 . S
C997 H992 0.950 . S
C997 C999 1.327 . S
C997 C1003 1.429 . S
C998 C990 1.574 . S
C998 H993 0.949 . S
C998 C1004 1.368 . S
C999 C983 1.349 . S
C999 H991 0.950 . S
C999 C997 1.327 . S
C1000 C988 1.349 . S
C1000 H994 0.950 . S
C1000 C1001 1.327 . S
C1001 H995 0.950 . S
C1001 C1000 1.327 . S
C1001 C1005 1.429 . S
C1002 C985 1.574 . S
C1002 H996 0.949 . S
C1002 C1006 1.368 . S
C1003 C984 1.429 . S
C1003 C997 1.429 . S
C1003 C1004 1.523 . S
C1004 C985 1.368 . S
C1004 C998 1.368 . S
C1004 C1003 1.523 . S
C1005 C989 1.429 . S
C1005 C1001 1.429 . S
C1005 C1006 1.523 . S
C1006 C990 1.368 . S
C1006 C1002 1.368 . S
C1006 C1005 1.523 . S
H1007 C982 0.950 . S
H1008 C984 0.950 . S
H1009 C985 0.949 . S
H1010 C987 0.950 . S
H1011 C989 0.950 . S
C1012 C1013 1.349 . S
C1012 C1014 1.327 . S
C1012 H1037 0.950 . S
C1013 C1012 1.349 . S
C1013 C1029 1.349 . S
C1014 C1012 1.327 . S
C1014 C1033 1.429 . S
C1014 H1038 0.950 . S
C1015 C1032 1.574 . S
C1015 C1034 1.368 . S
C1015 H1039 0.949 . S
H1016 C1020 0.949 . S
C1017 C1018 1.349 . S
C1017 C1019 1.327 . S
C1017 H1040 0.950 . S
C1018 C1017 1.349 . S
C1018 C1030 1.349 . S
C1019 C1017 1.327 . S
C1019 C1035 1.429 . S
C1019 H1041 0.950 . S
C1020 H1016 0.949 . S
C1020 C1028 1.574 . S
C1020 C1036 1.368 . S
H1021 C1029 0.950 . S
H1022 C1027 0.950 . S
H1023 C1028 0.949 . S
H1024 C1030 0.950 . S
H1025 C1031 0.950 . S
H1026 C1032 0.949 . S
C1027 H1022 0.950 . S
C1027 C1029 1.327 . S
C1027 C1033 1.429 . S
C1028 C1020 1.574 . S
C1028 H1023 0.949 . S
C1028 C1034 1.368 . S
C1029 C1013 1.349 . S
C1029 H1021 0.950 . S
C1029 C1027 1.327 . S
C1030 C1018 1.349 . S
C1030 H1024 0.950 . S
C1030 C1031 1.327 . S
C1031 H1025 0.950 . S
C1031 C1030 1.327 . S
C1031 C1035 1.429 . S
C1032 C1015 1.574 . S
C1032 H1026 0.949 . S
C1032 C1036 1.368 . S
C1033 C1014 1.429 . S
C1033 C1027 1.429 . S
C1033 C1034 1.523 . S
C1034 C1015 1.368 . S
C1034 C1028 1.368 . S
C1034 C1033 1.523 . S
C1035 C1019 1.429 . S
C1035 C1031 1.429 . S
C1035 C1036 1.523 . S
C1036 C1020 1.368 . S
C1036 C1032 1.368 . S
C1036 C1035 1.523 . S
H1037 C1012 0.950 . S
H1038 C1014 0.950 . S
H1039 C1015 0.949 . S
H1040 C1017 0.950 . S
H1041 C1019 0.950 . S
C1042 C1043 1.349 . S
C1042 C1044 1.327 . S
C1042 H1067 0.950 . S
C1043 C1042 1.349 . S
C1043 C1059 1.349 . S
C1044 C1042 1.327 . S
C1044 C1063 1.429 . S
C1044 H1068 0.950 . S
C1045 C1062 1.574 . S
C1045 C1064 1.368 . S
C1045 H1069 0.949 . S
H1046 C1050 0.949 . S
C1047 C1048 1.349 . S
C1047 C1049 1.327 . S
C1047 H1070 0.950 . S
C1048 C1047 1.349 . S
C1048 C1060 1.349 . S
C1049 C1047 1.327 . S
C1049 C1065 1.429 . S
C1049 H1071 0.950 . S
C1050 H1046 0.949 . S
C1050 C1058 1.574 . S
C1050 C1066 1.368 . S
H1051 C1059 0.950 . S
H1052 C1057 0.950 . S
H1053 C1058 0.949 . S
H1054 C1060 0.950 . S
H1055 C1061 0.950 . S
H1056 C1062 0.949 . S
C1057 H1052 0.950 . S
C1057 C1059 1.327 . S
C1057 C1063 1.429 . S
C1058 C1050 1.574 . S
C1058 H1053 0.949 . S
C1058 C1064 1.368 . S
C1059 C1043 1.349 . S
C1059 H1051 0.950 . S
C1059 C1057 1.327 . S
C1060 C1048 1.349 . S
C1060 H1054 0.950 . S
C1060 C1061 1.327 . S
C1061 H1055 0.950 . S
C1061 C1060 1.327 . S
C1061 C1065 1.429 . S
C1062 C1045 1.574 . S
C1062 H1056 0.949 . S
C1062 C1066 1.368 . S
C1063 C1044 1.429 . S
C1063 C1057 1.429 . S
C1063 C1064 1.523 . S
C1064 C1045 1.368 . S
C1064 C1058 1.368 . S
C1064 C1063 1.523 . S
C1065 C1049 1.429 . S
C1065 C1061 1.429 . S
C1065 C1066 1.523 . S
C1066 C1050 1.368 . S
C1066 C1062 1.368 . S
C1066 C1065 1.523 . S
H1067 C1042 0.950 . S
H1068 C1044 0.950 . S
H1069 C1045 0.949 . S
H1070 C1047 0.950 . S
H1071 C1049 0.950 . S
C1072 C1073 1.349 . S
C1072 C1074 1.327 . S
C1072 H1097 0.950 . S
C1073 C1072 1.349 . S
C1073 C1089 1.349 . S
C1074 C1072 1.327 . S
C1074 C1093 1.429 . S
C1074 H1098 0.950 . S
C1075 C1092 1.574 . S
C1075 C1094 1.368 . S
C1075 H1099 0.949 . S
H1076 C1080 0.949 . S
C1077 C1078 1.349 . S
C1077 C1079 1.327 . S
C1077 H1100 0.950 . S
C1078 C1077 1.349 . S
C1078 C1090 1.349 . S
C1079 C1077 1.327 . S
C1079 C1095 1.429 . S
C1079 H1101 0.950 . S
C1080 H1076 0.949 . S
C1080 C1088 1.574 . S
C1080 C1096 1.368 . S
H1081 C1089 0.950 . S
H1082 C1087 0.950 . S
H1083 C1088 0.949 . S
H1084 C1090 0.950 . S
H1085 C1091 0.950 . S
H1086 C1092 0.949 . S
C1087 H1082 0.950 . S
C1087 C1089 1.327 . S
C1087 C1093 1.429 . S
C1088 C1080 1.574 . S
C1088 H1083 0.949 . S
C1088 C1094 1.368 . S
C1089 C1073 1.349 . S
C1089 H1081 0.950 . S
C1089 C1087 1.327 . S
C1090 C1078 1.349 . S
C1090 H1084 0.950 . S
C1090 C1091 1.327 . S
C1091 H1085 0.950 . S
C1091 C1090 1.327 . S
C1091 C1095 1.429 . S
C1092 C1075 1.574 . S
C1092 H1086 0.949 . S
C1092 C1096 1.368 . S
C1093 C1074 1.429 . S
C1093 C1087 1.429 . S
C1093 C1094 1.523 . S
C1094 C1075 1.368 . S
C1094 C1088 1.368 . S
C1094 C1093 1.523 . S
C1095 C1079 1.429 . S
C1095 C1091 1.429 . S
C1095 C1096 1.523 . S
C1096 C1080 1.368 . S
C1096 C1092 1.368 . S
C1096 C1095 1.523 . S
H1097 C1072 0.950 . S
H1098 C1074 0.950 . S
H1099 C1075 0.949 . S
H1100 C1077 0.950 . S
H1101 C1079 0.950 . S
C1102 C1103 1.349 . S
C1102 C1104 1.327 . S
C1102 H1127 0.950 . S
C1103 C1102 1.349 . S
C1103 C1119 1.349 . S
C1104 C1102 1.327 . S
C1104 C1123 1.429 . S
C1104 H1128 0.950 . S
C1105 C1122 1.574 . S
C1105 C1124 1.368 . S
C1105 H1129 0.949 . S
H1106 C1110 0.949 . S
C1107 C1108 1.349 . S
C1107 C1109 1.327 . S
C1107 H1130 0.950 . S
C1108 C1107 1.349 . S
C1108 C1120 1.349 . S
C1109 C1107 1.327 . S
C1109 C1125 1.429 . S
C1109 H1131 0.950 . S
C1110 H1106 0.949 . S
C1110 C1118 1.574 . S
C1110 C1126 1.368 . S
H1111 C1119 0.950 . S
H1112 C1117 0.950 . S
H1113 C1118 0.949 . S
H1114 C1120 0.950 . S
H1115 C1121 0.950 . S
H1116 C1122 0.949 . S
C1117 H1112 0.950 . S
C1117 C1119 1.327 . S
C1117 C1123 1.429 . S
C1118 C1110 1.574 . S
C1118 H1113 0.949 . S
C1118 C1124 1.368 . S
C1119 C1103 1.349 . S
C1119 H1111 0.950 . S
C1119 C1117 1.327 . S
C1120 C1108 1.349 . S
C1120 H1114 0.950 . S
C1120 C1121 1.327 . S
C1121 H1115 0.950 . S
C1121 C1120 1.327 . S
C1121 C1125 1.429 . S
C1122 C1105 1.574 . S
C1122 H1116 0.949 . S
C1122 C1126 1.368 . S
C1123 C1104 1.429 . S
C1123 C1117 1.429 . S
C1123 C1124 1.523 . S
C1124 C1105 1.368 . S
C1124 C1118 1.368 . S
C1124 C1123 1.523 . S
C1125 C1109 1.429 . S
C1125 C1121 1.429 . S
C1125 C1126 1.523 . S
C1126 C1110 1.368 . S
C1126 C1122 1.368 . S
C1126 C1125 1.523 . S
H1127 C1102 0.950 . S
H1128 C1104 0.950 . S
H1129 C1105 0.949 . S
H1130 C1107 0.950 . S
H1131 C1109 0.950 . S
C1132 C1133 1.349 . S
C1132 C1134 1.327 . S
C1132 H1157 0.950 . S
C1133 C1132 1.349 . S
C1133 C1149 1.349 . S
C1134 C1132 1.327 . S
C1134 C1153 1.429 . S
C1134 H1158 0.950 . S
C1135 C1152 1.574 . S
C1135 C1154 1.368 . S
C1135 H1159 0.949 . S
H1136 C1140 0.949 . S
C1137 C1138 1.349 . S
C1137 C1139 1.327 . S
C1137 H1160 0.950 . S
C1138 C1137 1.349 . S
C1138 C1150 1.349 . S
C1139 C1137 1.327 . S
C1139 C1155 1.429 . S
C1139 H1161 0.950 . S
C1140 H1136 0.949 . S
C1140 C1148 1.574 . S
C1140 C1156 1.368 . S
H1141 C1149 0.950 . S
H1142 C1147 0.950 . S
H1143 C1148 0.949 . S
H1144 C1150 0.950 . S
H1145 C1151 0.950 . S
H1146 C1152 0.949 . S
C1147 H1142 0.950 . S
C1147 C1149 1.327 . S
C1147 C1153 1.429 . S
C1148 C1140 1.574 . S
C1148 H1143 0.949 . S
C1148 C1154 1.368 . S
C1149 C1133 1.349 . S
C1149 H1141 0.950 . S
C1149 C1147 1.327 . S
C1150 C1138 1.349 . S
C1150 H1144 0.950 . S
C1150 C1151 1.327 . S
C1151 H1145 0.950 . S
C1151 C1150 1.327 . S
C1151 C1155 1.429 . S
C1152 C1135 1.574 . S
C1152 H1146 0.949 . S
C1152 C1156 1.368 . S
C1153 C1134 1.429 . S
C1153 C1147 1.429 . S
C1153 C1154 1.523 . S
C1154 C1135 1.368 . S
C1154 C1148 1.368 . S
C1154 C1153 1.523 . S
C1155 C1139 1.429 . S
C1155 C1151 1.429 . S
C1155 C1156 1.523 . S
C1156 C1140 1.368 . S
C1156 C1152 1.368 . S
C1156 C1155 1.523 . S
H1157 C1132 0.950 . S
H1158 C1134 0.950 . S
H1159 C1135 0.949 . S
H1160 C1137 0.950 . S
H1161 C1139 0.950 . S
C1162 C1163 1.349 . S
C1162 C1164 1.327 . S
C1162 H1187 0.950 . S
C1163 C1162 1.349 . S
C1163 C1179 1.349 . S
C1164 C1162 1.327 . S
C1164 C1183 1.429 . S
C1164 H1188 0.950 . S
C1165 C1182 1.574 . S
C1165 C1184 1.368 . S
C1165 H1189 0.949 . S
H1166 C1170 0.949 . S
C1167 C1168 1.349 . S
C1167 C1169 1.327 . S
C1167 H1190 0.950 . S
C1168 C1167 1.349 . S
C1168 C1180 1.349 . S
C1169 C1167 1.327 . S
C1169 C1185 1.429 . S
C1169 H1191 0.950 . S
C1170 H1166 0.949 . S
C1170 C1178 1.574 . S
C1170 C1186 1.368 . S
H1171 C1179 0.950 . S
H1172 C1177 0.950 . S
H1173 C1178 0.949 . S
H1174 C1180 0.950 . S
H1175 C1181 0.950 . S
H1176 C1182 0.949 . S
C1177 H1172 0.950 . S
C1177 C1179 1.327 . S
C1177 C1183 1.429 . S
C1178 C1170 1.574 . S
C1178 H1173 0.949 . S
C1178 C1184 1.368 . S
C1179 C1163 1.349 . S
C1179 H1171 0.950 . S
C1179 C1177 1.327 . S
C1180 C1168 1.349 . S
C1180 H1174 0.950 . S
C1180 C1181 1.327 . S
C1181 H1175 0.950 . S
C1181 C1180 1.327 . S
C1181 C1185 1.429 . S
C1182 C1165 1.574 . S
C1182 H1176 0.949 . S
C1182 C1186 1.368 . S
C1183 C1164 1.429 . S
C1183 C1177 1.429 . S
C1183 C1184 1.523 . S
C1184 C1165 1.368 . S
C1184 C1178 1.368 . S
C1184 C1183 1.523 . S
C1185 C1169 1.429 . S
C1185 C1181 1.429 . S
C1185 C1186 1.523 . S
C1186 C1170 1.368 . S
C1186 C1182 1.368 . S
C1186 C1185 1.523 . S
H1187 C1162 0.950 . S
H1188 C1164 0.950 . S
H1189 C1165 0.949 . S
H1190 C1167 0.950 . S
H1191 C1169 0.950 . S
C473 C1 1.315 . S
C478 C327 1.325 . S
C503 C40 1.248 . S
C508 C367 1.267 . S
C538 C401 2.161 . S
C533 C99 2.184 . S
C563 C118 2.642 . S
C568 C442 2.594 . S
C598 C362 1.428 . S
C593 C16 1.410 . S
C628 C322 2.198 . S
C623 C60 2.133 . S
C658 C450 1.457 . S
C653 C79 1.469 . S
C688 C411 1.749 . S
C683 C138 1.798 . S
C713 C21 1.193 . S
C718 C447 1.206 . S
C748 C370 1.934 . S
C743 C94 1.982 . S
C773 C133 2.464 . S
C778 C330 2.395 . S
C803 C55 1.550 . S
C808 C398 1.590 . S
C838 C318 1.329 . S
C833 C157 1.323 . S
C863 C196 1.243 . S
C868 C358 1.268 . S
C893 C255 2.188 . S
C898 C410 2.160 . S
C923 C289 2.637 . S
C928 C451 2.590 . S
C953 C172 1.404 . S
C958 C371 1.424 . S
C988 C331 2.199 . S
C983 C216 2.114 . S
C1018 C441 1.457 . S
C1013 C235 1.471 . S
C1048 C402 1.745 . S
C1043 C294 1.800 . S
C1073 C177 1.202 . S
C1078 C438 1.205 . S
C1108 C361 1.936 . S
C1103 C250 1.983 . S
C1138 C321 2.399 . S
C1133 C274 2.469 . S
C1163 C211 1.552 . S
C1168 C407 1.587 . S
