# Generated by pormake.
# Topology nom, (4,4)-cn, num edge types: 1
# Building blocks:
#     Node 0, Type 0, BuildingBlock: NAHDIM_clean_linker_0, # of connection points: 4
#     Node 1, Type 0, BuildingBlock: NAHDIM_clean_linker_0, # of connection points: 4
#     Node 2, Type 0, BuildingBlock: NAHDIM_clean_linker_0, # of connection points: 4
#     Node 3, Type 0, BuildingBlock: NAHDIM_clean_linker_0, # of connection points: 4
#     Node 4, Type 0, BuildingBlock: NAHDIM_clean_linker_0, # of connection points: 4
#     Node 5, Type 0, BuildingBlock: NAHDIM_clean_linker_0, # of connection points: 4
#     Node 6, Type 1, BuildingBlock: NAHDIM_clean_sbu_0, # of connection points: 4
#     Node 7, Type 1, BuildingBlock: NAHDIM_clean_sbu_0, # of connection points: 4
#     Node 8, Type 1, BuildingBlock: NAHDIM_clean_sbu_0, # of connection points: 4
#     Node 9, Type 1, BuildingBlock: NAHDIM_clean_sbu_0, # of connection points: 4
#     Node 10, Type 1, BuildingBlock: NAHDIM_clean_sbu_0, # of connection points: 4
#     Node 11, Type 1, BuildingBlock: NAHDIM_clean_sbu_0, # of connection points: 4
#     Edge 12, Type (0, 1), BuildingBlock: AJUNOK_clean_linker_0, # of connection points: 2
#     Edge 13, Type (0, 1), BuildingBlock: AJUNOK_clean_linker_0, # of connection points: 2
#     Edge 14, Type (0, 1), BuildingBlock: AJUNOK_clean_linker_0, # of connection points: 2
#     Edge 15, Type (0, 1), BuildingBlock: AJUNOK_clean_linker_0, # of connection points: 2
#     Edge 16, Type (0, 1), BuildingBlock: AJUNOK_clean_linker_0, # of connection points: 2
#     Edge 17, Type (0, 1), BuildingBlock: AJUNOK_clean_linker_0, # of connection points: 2
#     Edge 18, Type (0, 1), BuildingBlock: AJUNOK_clean_linker_0, # of connection points: 2
#     Edge 19, Type (0, 1), BuildingBlock: AJUNOK_clean_linker_0, # of connection points: 2
#     Edge 20, Type (0, 1), BuildingBlock: AJUNOK_clean_linker_0, # of connection points: 2
#     Edge 21, Type (0, 1), BuildingBlock: AJUNOK_clean_linker_0, # of connection points: 2
#     Edge 22, Type (0, 1), BuildingBlock: AJUNOK_clean_linker_0, # of connection points: 2
#     Edge 23, Type (0, 1), BuildingBlock: AJUNOK_clean_linker_0, # of connection points: 2
#     Edge 24, Type (0, 1), BuildingBlock: AJUNOK_clean_linker_0, # of connection points: 2
#     Edge 25, Type (0, 1), BuildingBlock: AJUNOK_clean_linker_0, # of connection points: 2
#     Edge 26, Type (0, 1), BuildingBlock: AJUNOK_clean_linker_0, # of connection points: 2
#     Edge 27, Type (0, 1), BuildingBlock: AJUNOK_clean_linker_0, # of connection points: 2
#     Edge 28, Type (0, 1), BuildingBlock: AJUNOK_clean_linker_0, # of connection points: 2
#     Edge 29, Type (0, 1), BuildingBlock: AJUNOK_clean_linker_0, # of connection points: 2
#     Edge 30, Type (0, 1), BuildingBlock: AJUNOK_clean_linker_0, # of connection points: 2
#     Edge 31, Type (0, 1), BuildingBlock: AJUNOK_clean_linker_0, # of connection points: 2
#     Edge 32, Type (0, 1), BuildingBlock: AJUNOK_clean_linker_0, # of connection points: 2
#     Edge 33, Type (0, 1), BuildingBlock: AJUNOK_clean_linker_0, # of connection points: 2
#     Edge 34, Type (0, 1), BuildingBlock: AJUNOK_clean_linker_0, # of connection points: 2
#     Edge 35, Type (0, 1), BuildingBlock: AJUNOK_clean_linker_0, # of connection points: 2
# Relax obj value: 0.065
# Max RMSD: 0.131
# Mean RMSD: 0.124
data_MOF--net-nom--node1-NAHDIM_clean_sbu_0--node2-NAHDIM_clean_linker_0--edge1-AJUNOK_clean_linker_0
_symmetry_space_group_name_H-M    P1
_symmetry_Int_Tables_number       1
_symmetry_cell_setting            triclinic
loop_
_symmetry_equiv_pos_as_xyz
'x, y, z'
_cell_length_a     46.137114
_cell_length_b     47.68666
_cell_length_c     56.667157
_cell_angle_alpha  90.121233
_cell_angle_beta   90.722792
_cell_angle_gamma 121.10177
loop_
_atom_site_label
_atom_site_type_symbol
_atom_site_fract_x
_atom_site_fract_y
_atom_site_fract_z
_atom_type_partial_charge
C0 C 0.20237 0.61781 0.20461 0.0
C1 C 0.21104 0.63034 0.23019 0.0
C2 C 0.15504 0.6092 0.24785 0.0
C3 C 0.14616 0.5762 0.24897 0.0
C4 C 0.11431 0.55201 0.25709 0.0
C5 C 0.09077 0.56087 0.26404 0.0
C6 C 0.09968 0.59403 0.26313 0.0
C7 C 0.13182 0.61777 0.25518 0.0
C8 C 0.10564 0.51687 0.25803 0.0
C9 C 0.07507 0.60431 0.27023 0.0
C10 C 0.87093 0.43148 0.14799 0.0
C11 C 0.89103 0.45097 0.16902 0.0
C12 C 0.93046 0.45306 0.19911 0.0
C13 C 0.93276 0.47975 0.21155 0.0
C14 C 0.95455 0.49351 0.2312 0.0
C15 C 0.97403 0.48001 0.23886 0.0
C16 C 0.97116 0.45266 0.2268 0.0
C17 C 0.94944 0.4396 0.20702 0.0
C18 C 0.95714 0.52281 0.24358 0.0
C19 C 0.99137 0.43751 0.23466 0.0
C20 C 0.85378 0.40895 0.36783 0.0
C21 C 0.86698 0.44209 0.36261 0.0
C22 C 0.90182 0.4632 0.35942 0.0
C23 C 0.92376 0.45076 0.36127 0.0
C24 C 0.9107 0.41779 0.36783 0.0
C25 C 0.87579 0.39737 0.37131 0.0
C26 C 0.91504 0.49855 0.35335 0.0
C27 C 0.93342 0.40385 0.37022 0.0
C28 C 0.17559 0.60873 0.42242 0.0
C29 C 0.15308 0.57631 0.43501 0.0
C30 C 0.09504 0.55475 0.42122 0.0
C31 C 0.0757 0.56836 0.41455 0.0
C32 C 0.05004 0.55321 0.39722 0.0
C33 C 0.04329 0.52343 0.38673 0.0
C34 C 0.06155 0.50863 0.3944 0.0
C35 C 0.08723 0.52444 0.41162 0.0
C36 C 0.03072 0.56939 0.38966 0.0
C37 C 0.05426 0.47637 0.3841 0.0
C38 C 0.05628 0.5353 0.27126 0.0
C39 C 0.03198 0.51877 0.25346 0.0
C40 C 0.99852 0.4955 0.25884 0.0
C41 C 0.98879 0.48857 0.28267 0.0
C42 C 0.95522 0.46574 0.28873 0.0
C43 C 0.94568 0.45998 0.31224 0.0
C44 C 0.96942 0.47656 0.33062 0.0
C45 C 0.95975 0.47158 0.35456 0.0
C46 C 0.98424 0.48725 0.37242 0.0
C47 C 0.01828 0.50844 0.367 0.0
C48 C 0.02817 0.51492 0.34314 0.0
C49 C 0.06194 0.5372 0.33705 0.0
C50 C 0.07127 0.54383 0.31353 0.0
C51 C 0.04726 0.52823 0.2952 0.0
C52 C 0.01327 0.50509 0.30091 0.0
C53 C 0.00363 0.49878 0.32491 0.0
C54 C 0.7731 0.35379 0.34395 0.0
C55 C 0.79545 0.38781 0.355 0.0
O56 O 0.1853 0.63348 0.23967 0.0
O57 O 0.12077 0.57122 0.43712 0.0
O58 O 0.81998 0.38748 0.36921 0.0
O59 O 0.91062 0.43993 0.17943 0.0
H60 H 0.21449 0.61264 0.24078 0.0
H61 H 0.17917 0.59311 0.20388 0.0
H62 H 0.19788 0.63448 0.19359 0.0
H63 H 0.22339 0.61596 0.19698 0.0
H64 H 0.16364 0.5689 0.24341 0.0
H65 H 0.13884 0.64322 0.25431 0.0
H66 H 0.08495 0.50194 0.24511 0.0
H67 H 0.12765 0.5143 0.25395 0.0
H68 H 0.09632 0.50672 0.27582 0.0
H69 H 0.08542 0.63089 0.26761 0.0
H70 H 0.05119 0.59028 0.25977 0.0
H71 H 0.06869 0.59861 0.28911 0.0
H72 H 0.90535 0.47801 0.1663 0.0
H73 H 0.88161 0.44878 0.13271 0.0
H74 H 0.88185 0.41616 0.14241 0.0
H75 H 0.82087 0.41112 0.15877 0.0
H76 H 0.91789 0.49022 0.20594 0.0
H77 H 0.94738 0.4189 0.19747 0.0
H78 H 0.94911 0.51658 0.26216 0.0
H79 H 0.98386 0.54341 0.2439 0.0
H80 H 0.94121 0.53117 0.23492 0.0
H81 H 0.98445 0.41488 0.22452 0.0
H82 H 0.01876 0.45541 0.23237 0.0
H83 H 0.98732 0.43154 0.25372 0.0
H84 H 0.80744 0.40493 0.34004 0.0
H85 H 0.85004 0.45138 0.36083 0.0
H86 H 0.86532 0.37185 0.37575 0.0
H87 H 0.92262 0.50263 0.33458 0.0
H88 H 0.89575 0.50552 0.35601 0.0
H89 H 0.93783 0.51495 0.3643 0.0
H90 H 0.91922 0.37754 0.37502 0.0
H91 H 0.94656 0.4066 0.35333 0.0
H92 H 0.95315 0.41773 0.38398 0.0
H93 H 0.15252 0.55673 0.42401 0.0
H94 H 0.20168 0.61336 0.42076 0.0
H95 H 0.16526 0.60767 0.4044 0.0
H96 H 0.17665 0.62944 0.43224 0.0
H97 H 0.08151 0.59146 0.42243 0.0
H98 H 0.10098 0.51297 0.41764 0.0
H99 H 0.03443 0.57499 0.37054 0.0
H100 H 0.00322 0.55235 0.39231 0.0
H101 H 0.03886 0.59244 0.39963 0.0
H102 H 0.06908 0.46698 0.39307 0.0
H103 H 0.02688 0.45782 0.38551 0.0
H104 H 0.0605 0.47939 0.36507 0.0
H105 H 0.0391 0.52447 0.23513 0.0
H106 H 0.93588 0.45231 0.27535 0.0
H107 H 0.9194 0.44231 0.31581 0.0
H108 H 0.97672 0.48298 0.39074 0.0
H109 H 0.08151 0.55004 0.3504 0.0
H110 H 0.09756 0.56137 0.30989 0.0
H111 H 0.76061 0.33497 0.35782 0.0
H112 H 0.75334 0.35342 0.33229 0.0
H113 H 0.78878 0.34735 0.33312 0.0
C114 C 0.39515 0.83584 0.59913 0.0
C115 C 0.39389 0.82128 0.57472 0.0
C116 C 0.41794 0.8711 0.5507 0.0
C117 C 0.45242 0.88207 0.55437 0.0
C118 C 0.47764 0.91358 0.54748 0.0
C119 C 0.46819 0.93482 0.53727 0.0
C120 C 0.43345 0.9238 0.53362 0.0
C121 C 0.40889 0.8918 0.53989 0.0
C122 C 0.51438 0.92423 0.55127 0.0
C123 C 0.42203 0.94592 0.52359 0.0
C124 C 0.58453 0.12305 0.6676 0.0
C125 C 0.57175 0.09647 0.64935 0.0
C126 C 0.57045 0.08805 0.60743 0.0
C127 C 0.53794 0.07801 0.59872 0.0
C128 C 0.52478 0.05765 0.57871 0.0
C129 C 0.54462 0.04707 0.56728 0.0
C130 C 0.57765 0.05752 0.5759 0.0
C131 C 0.59033 0.07827 0.59579 0.0
C132 C 0.48972 0.04748 0.56974 0.0
C133 C 0.5994 0.04659 0.56417 0.0
C134 C 0.60317 0.17566 0.44589 0.0
C135 C 0.56828 0.1577 0.45005 0.0
C136 C 0.55074 0.1234 0.45087 0.0
C137 C 0.56862 0.10691 0.44766 0.0
C138 C 0.60332 0.12491 0.44192 0.0
C139 C 0.62011 0.15919 0.44083 0.0
C140 C 0.5134 0.10489 0.45611 0.0
C141 C 0.62296 0.10803 0.43802 0.0
C142 C 0.42601 0.9337 0.33488 0.0
C143 C 0.43439 0.91193 0.34984 0.0
C144 C 0.47897 0.95019 0.37767 0.0
C145 C 0.45835 0.95787 0.39095 0.0
C146 C 0.47166 0.97946 0.41034 0.0
C147 C 0.50605 0.99305 0.41699 0.0
C148 C 0.52683 0.9853 0.40376 0.0
C149 C 0.51302 0.96414 0.38417 0.0
C150 C 0.44891 0.98774 0.42374 0.0
C151 C 0.56361 0.99933 0.41035 0.0
C152 C 0.49434 0.96912 0.53164 0.0
C153 C 0.50899 0.99143 0.55041 0.0
C154 C 0.53063 0.02485 0.54643 0.0
C155 C 0.53718 0.03665 0.52307 0.0
C156 C 0.55697 0.07032 0.51844 0.0
C157 C 0.56213 0.08175 0.49541 0.0
C158 C 0.54789 0.05993 0.47611 0.0
C159 C 0.55179 0.07141 0.4527 0.0
C160 C 0.53819 0.04909 0.43387 0.0
C161 C 0.52027 0.01532 0.4378 0.0
C162 C 0.51522 0.00337 0.46115 0.0
C163 C 0.4966 0.9696 0.46582 0.0
C164 C 0.49008 0.95824 0.4889 0.0
C165 C 0.50243 0.98021 0.50817 0.0
C166 C 0.5231 0.0142 0.50388 0.0
C167 C 0.52894 0.02583 0.48036 0.0
C168 C 0.65066 0.24738 0.47802 0.0
C169 C 0.6173 0.22745 0.46423 0.0
O170 O 0.39259 0.84097 0.55729 0.0
O171 O 0.46739 0.92987 0.35846 0.0
O172 O 0.62121 0.20884 0.44713 0.0
O173 O 0.5831 0.10764 0.6268 0.0
H174 H 0.41673 0.81947 0.57248 0.0
H175 H 0.41824 0.86052 0.601 0.0
H176 H 0.37258 0.8381 0.60158 0.0
H177 H 0.39594 0.82013 0.61326 0.0
H178 H 0.46002 0.86628 0.5624 0.0
H179 H 0.38226 0.88308 0.53708 0.0
H180 H 0.52511 0.9422 0.56608 0.0
H181 H 0.51766 0.90331 0.55559 0.0
H182 H 0.52914 0.93647 0.53527 0.0
H183 H 0.39449 0.9357 0.52594 0.0
H184 H 0.43614 0.97052 0.53211 0.0
H185 H 0.42723 0.94909 0.50442 0.0
H186 H 0.57405 0.075 0.65411 0.0
H187 H 0.54044 0.12124 0.67868 0.0
H188 H 0.60092 0.11835 0.67986 0.0
H189 H 0.60636 0.14553 0.65954 0.0
H190 H 0.52291 0.08628 0.60742 0.0
H191 H 0.61557 0.08648 0.60259 0.0
H192 H 0.4905 0.05329 0.55071 0.0
H193 H 0.47283 0.02059 0.57154 0.0
H194 H 0.47858 0.0598 0.57953 0.0
H195 H 0.62378 0.05542 0.5738 0.0
H196 H 0.58557 0.01943 0.56307 0.0
H197 H 0.60488 0.05598 0.54587 0.0
H198 H 0.59801 0.21135 0.47726 0.0
H199 H 0.5549 0.17051 0.45299 0.0
H200 H 0.64694 0.17338 0.43717 0.0
H201 H 0.50954 0.09529 0.47435 0.0
H202 H 0.50226 0.12065 0.45458 0.0
H203 H 0.49956 0.08362 0.44388 0.0
H204 H 0.64978 0.12553 0.43352 0.0
H205 H 0.62236 0.09466 0.45421 0.0
H206 H 0.61091 0.08971 0.42351 0.0
H207 H 0.4167 0.90211 0.36487 0.0
H208 H 0.3997 0.91911 0.32775 0.0
H209 H 0.42801 0.9541 0.34563 0.0
H210 H 0.44373 0.94443 0.31993 0.0
H211 H 0.43193 0.94741 0.3863 0.0
H212 H 0.52879 0.95819 0.37385 0.0
H213 H 0.44444 0.97693 0.44161 0.0
H214 H 0.46126 0.01469 0.42598 0.0
H215 H 0.424 0.97829 0.41472 0.0
H216 H 0.57571 0.989 0.39935 0.0
H217 H 0.57762 0.02631 0.40812 0.0
H218 H 0.56602 0.99443 0.4292 0.0
H219 H 0.50277 0.98278 0.5684 0.0
H220 H 0.56829 0.08828 0.53257 0.0
H221 H 0.57733 0.10797 0.49297 0.0
H222 H 0.5412 0.05812 0.41597 0.0
H223 H 0.48631 0.95157 0.45169 0.0
H224 H 0.47509 0.93203 0.49149 0.0
H225 H 0.67145 0.26386 0.46608 0.0
H226 H 0.64814 0.26235 0.492 0.0
H227 H 0.65747 0.23059 0.48661 0.0
C228 C 0.60115 0.36258 0.70034 0.0
C229 C 0.59756 0.39067 0.69305 0.0
C230 C 0.5745 0.42349 0.70637 0.0
C231 C 0.59674 0.45322 0.69534 0.0
C232 C 0.58755 0.47669 0.69142 0.0
C233 C 0.555 0.4698 0.69802 0.0
C234 C 0.53299 0.44025 0.7098 0.0
C235 C 0.54339 0.4178 0.71427 0.0
C236 C 0.61251 0.50866 0.67999 0.0
C237 C 0.49826 0.43208 0.71737 0.0
C238 C 0.57168 0.61855 0.82019 0.0
C239 C 0.53726 0.60064 0.80743 0.0
C240 C 0.53747 0.59364 0.76499 0.0
C241 C 0.50975 0.56171 0.76197 0.0
C242 C 0.50736 0.54269 0.74226 0.0
C243 C 0.53345 0.55583 0.72541 0.0
C244 C 0.561 0.5884 0.72816 0.0
C245 C 0.5623 0.6071 0.74777 0.0
C246 C 0.47718 0.50841 0.73962 0.0
C247 C 0.58943 0.60321 0.7107 0.0
C248 C 0.45143 0.60736 0.59934 0.0
C249 C 0.43083 0.57689 0.6099 0.0
C250 C 0.44262 0.55535 0.61352 0.0
C251 C 0.47609 0.56504 0.6071 0.0
C252 C 0.49649 0.59541 0.59577 0.0
C253 C 0.48357 0.61594 0.59164 0.0
C254 C 0.41946 0.5225 0.62455 0.0
C255 C 0.53223 0.60659 0.58859 0.0
C256 C 0.53511 0.39609 0.53679 0.0
C257 C 0.55133 0.43006 0.52571 0.0
C258 C 0.52248 0.45634 0.54157 0.0
C259 C 0.48962 0.44454 0.54943 0.0
C260 C 0.48342 0.46021 0.568 0.0
C261 C 0.51079 0.48882 0.57843 0.0
C262 C 0.54388 0.50183 0.56961 0.0
C263 C 0.54938 0.48533 0.55132 0.0
C264 C 0.44783 0.44583 0.57681 0.0
C265 C 0.5735 0.53301 0.57964 0.0
C266 C 0.5436 0.49296 0.69197 0.0
C267 C 0.54343 0.5131 0.70988 0.0
C268 C 0.53257 0.53511 0.70545 0.0
C269 C 0.52157 0.53725 0.68246 0.0
C270 C 0.51004 0.55875 0.67741 0.0
C271 C 0.49977 0.56104 0.65465 0.0
C272 C 0.50042 0.54176 0.63607 0.0
C273 C 0.49 0.54384 0.61285 0.0
C274 C 0.49291 0.52575 0.59457 0.0
C275 C 0.50518 0.50486 0.5989 0.0
C276 C 0.51364 0.50088 0.62223 0.0
C277 C 0.52378 0.47837 0.62744 0.0
C278 C 0.5329 0.47522 0.65033 0.0
C279 C 0.53302 0.49503 0.66882 0.0
C280 C 0.52217 0.51739 0.66405 0.0
C281 C 0.51195 0.51993 0.64078 0.0
C282 C 0.44267 0.67381 0.61675 0.0
C283 C 0.42538 0.63659 0.61437 0.0
O284 O 0.58241 0.40002 0.70979 0.0
O285 O 0.52755 0.43956 0.52438 0.0
O286 O 0.44115 0.62919 0.59687 0.0
O287 O 0.54096 0.61183 0.78445 0.0
H288 H 0.62084 0.41155 0.68542 0.0
H289 H 0.59744 0.36012 0.72001 0.0
H290 H 0.56958 0.32539 0.67639 0.0
H291 H 0.62926 0.37284 0.70153 0.0
H292 H 0.6215 0.45845 0.69008 0.0
H293 H 0.52673 0.39513 0.72328 0.0
H294 H 0.613 0.52952 0.68914 0.0
H295 H 0.63854 0.51285 0.68014 0.0
H296 H 0.60466 0.50841 0.66137 0.0
H297 H 0.48266 0.40643 0.72353 0.0
H298 H 0.5009 0.44875 0.73203 0.0
H299 H 0.48465 0.43584 0.70257 0.0
H300 H 0.529 0.57415 0.80755 0.0
H301 H 0.56918 0.60996 0.83868 0.0
H302 H 0.58963 0.61339 0.81106 0.0
H303 H 0.58248 0.64545 0.82032 0.0
H304 H 0.49001 0.55171 0.77502 0.0
H305 H 0.5834 0.63195 0.7502 0.0
H306 H 0.48538 0.49054 0.74262 0.0
H307 H 0.45701 0.50343 0.75237 0.0
H308 H 0.46643 0.50434 0.72142 0.0
H309 H 0.61028 0.62788 0.71637 0.0
H310 H 0.59987 0.587 0.70832 0.0
H311 H 0.57956 0.6054 0.69327 0.0
H312 H 0.42901 0.62775 0.63172 0.0
H313 H 0.40556 0.56998 0.61529 0.0
H314 H 0.49906 0.63945 0.58328 0.0
H315 H 0.42759 0.52289 0.64312 0.0
H316 H 0.3927 0.51632 0.6245 0.0
H317 H 0.42086 0.50286 0.61503 0.0
H318 H 0.54593 0.63227 0.5823 0.0
H319 H 0.54662 0.60459 0.60369 0.0
H320 H 0.53167 0.59051 0.57418 0.0
H321 H 0.57313 0.44732 0.53715 0.0
H322 H 0.55375 0.38801 0.53816 0.0
H323 H 0.52641 0.39687 0.55484 0.0
H324 H 0.51295 0.3779 0.52603 0.0
H325 H 0.46897 0.42241 0.54144 0.0
H326 H 0.57463 0.49521 0.54452 0.0
H327 H 0.44728 0.44161 0.59611 0.0
H328 H 0.43926 0.46345 0.57382 0.0
H329 H 0.4297 0.42233 0.56781 0.0
H330 H 0.59652 0.5422 0.56879 0.0
H331 H 0.56701 0.55238 0.5809 0.0
H332 H 0.57949 0.52846 0.59775 0.0
H333 H 0.5519 0.51162 0.72754 0.0
H334 H 0.50892 0.57415 0.69099 0.0
H335 H 0.4915 0.57829 0.6518 0.0
H336 H 0.48588 0.52822 0.57669 0.0
H337 H 0.52462 0.46277 0.61389 0.0
H338 H 0.54023 0.45729 0.65326 0.0
H339 H 0.43064 0.68038 0.63087 0.0
H340 H 0.46983 0.68448 0.62151 0.0
H341 H 0.44097 0.68475 0.59987 0.0
C342 C 0.20515 0.48688 0.88732 0.0
C343 C 0.20998 0.52114 0.88918 0.0
C344 C 0.16535 0.52059 0.86611 0.0
C345 C 0.15737 0.54504 0.86802 0.0
C346 C 0.12395 0.53769 0.86457 0.0
C347 C 0.09815 0.50511 0.85911 0.0
C348 C 0.1063 0.48035 0.85713 0.0
C349 C 0.13999 0.48856 0.86024 0.0
C350 C 0.11622 0.56471 0.86653 0.0
C351 C 0.07954 0.44528 0.85145 0.0
C352 C 0.89839 0.41025 0.98839 0.0
C353 C 0.92186 0.41519 0.96882 0.0
C354 C 0.95031 0.45183 0.93586 0.0
C355 C 0.95699 0.42994 0.92389 0.0
C356 C 0.97505 0.43886 0.90281 0.0
C357 C 0.98731 0.47055 0.89363 0.0
C358 C 0.9807 0.4927 0.90557 0.0
C359 C 0.96197 0.48289 0.92645 0.0
C360 C 0.98145 0.41449 0.8905 0.0
C361 C 0.99374 0.52677 0.89639 0.0
C362 C 0.84634 0.43269 0.76928 0.0
C363 C 0.85449 0.40927 0.77603 0.0
C364 C 0.88842 0.418 0.77905 0.0
C365 C 0.91453 0.45097 0.77579 0.0
C366 C 0.90627 0.47439 0.76843 0.0
C367 C 0.87221 0.46474 0.7649 0.0
C368 C 0.89632 0.39202 0.78578 0.0
C369 C 0.93336 0.50969 0.76457 0.0
C370 C 0.14229 0.48932 0.69984 0.0
C371 C 0.12522 0.508 0.69176 0.0
C372 C 0.06781 0.48371 0.70557 0.0
C373 C 0.04507 0.45296 0.71469 0.0
C374 C 0.02338 0.44961 0.73303 0.0
C375 C 0.02406 0.47773 0.74191 0.0
C376 C 0.04537 0.50859 0.73151 0.0
C377 C 0.06722 0.51128 0.71348 0.0
C378 C 0.00073 0.41629 0.74355 0.0
C379 C 0.04589 0.53884 0.74 0.0
C380 C 0.06275 0.4969 0.85501 0.0
C381 C 0.0424 0.49092 0.87464 0.0
C382 C 0.00812 0.4806 0.87203 0.0
C383 C 0.99375 0.47684 0.84918 0.0
C384 C 0.95951 0.46698 0.84586 0.0
C385 C 0.94545 0.46258 0.82327 0.0
C386 C 0.96484 0.46692 0.80313 0.0
C387 C 0.95048 0.46112 0.7801 0.0
C388 C 0.97041 0.46514 0.76054 0.0
C389 C 0.00458 0.4752 0.76326 0.0
C390 C 0.01954 0.48168 0.78608 0.0
C391 C 0.05398 0.49224 0.7894 0.0
C392 C 0.06837 0.49804 0.81191 0.0
C393 C 0.04872 0.49276 0.83203 0.0
C394 C 0.01407 0.48256 0.82911 0.0
C395 C 0.99951 0.47721 0.80609 0.0
C396 C 0.76741 0.42003 0.7877 0.0
C397 C 0.78689 0.40355 0.78031 0.0
O398 O 0.19784 0.52839 0.86905 0.0
O399 O 0.09061 0.48635 0.68952 0.0
O400 O 0.81385 0.42517 0.76659 0.0
O401 O 0.93283 0.4439 0.95637 0.0
H402 H 0.19568 0.52159 0.90476 0.0
H403 H 0.17799 0.46784 0.88881 0.0
H404 H 0.21471 0.48366 0.87025 0.0
H405 H 0.21884 0.48293 0.90199 0.0
H406 H 0.17741 0.56986 0.87222 0.0
H407 H 0.14659 0.47004 0.85782 0.0
H408 H 0.09867 0.55954 0.88134 0.0
H409 H 0.1394 0.58907 0.86961 0.0
H410 H 0.10331 0.56562 0.85012 0.0
H411 H 0.08913 0.42834 0.85385 0.0
H412 H 0.05721 0.43713 0.86283 0.0
H413 H 0.07091 0.44341 0.83284 0.0
H414 H 0.94299 0.41121 0.97363 0.0
H415 H 0.91254 0.41121 0.00499 0.0
H416 H 0.9006 0.4346 0.99168 0.0
H417 H 0.85302 0.3683 0.97771 0.0
H418 H 0.94823 0.40581 0.93088 0.0
H419 H 0.9567 0.49963 0.93573 0.0
H420 H 0.9744 0.41252 0.8715 0.0
H421 H 0.00884 0.42313 0.8917 0.0
H422 H 0.96706 0.38974 0.8984 0.0
H423 H 0.98724 0.54141 0.90808 0.0
H424 H 0.02168 0.53974 0.89471 0.0
H425 H 0.98286 0.52533 0.87853 0.0
H426 H 0.79636 0.3982 0.79689 0.0
H427 H 0.83441 0.38415 0.77867 0.0
H428 H 0.86553 0.48245 0.75935 0.0
H429 H 0.90582 0.39611 0.8043 0.0
H430 H 0.8737 0.36695 0.78425 0.0
H431 H 0.91652 0.39356 0.7744 0.0
H432 H 0.92258 0.52541 0.76103 0.0
H433 H 0.95043 0.51951 0.78031 0.0
H434 H 0.94896 0.51123 0.74931 0.0
H435 H 0.13078 0.52668 0.70569 0.0
H436 H 0.17011 0.50625 0.70157 0.0
H437 H 0.13248 0.47818 0.71732 0.0
H438 H 0.13706 0.46944 0.68709 0.0
H439 H 0.04547 0.43179 0.70813 0.0
H440 H 0.08416 0.53492 0.70575 0.0
H441 H 0.007 0.41688 0.7626 0.0
H442 H 0.97392 0.40975 0.74214 0.0
H443 H 0.00326 0.39688 0.73468 0.0
H444 H 0.06066 0.56005 0.72824 0.0
H445 H 0.01965 0.53395 0.74114 0.0
H446 H 0.05739 0.54551 0.75799 0.0
H447 H 0.0531 0.49318 0.8922 0.0
H448 H 0.94321 0.46265 0.8607 0.0
H449 H 0.91903 0.45521 0.82183 0.0
H450 H 0.95916 0.46027 0.74295 0.0
H451 H 0.07028 0.49615 0.77465 0.0
H452 H 0.09503 0.50628 0.81333 0.0
H453 H 0.75723 0.42617 0.77195 0.0
H454 H 0.74608 0.40365 0.7993 0.0
H455 H 0.78454 0.443 0.79765 0.0
C456 C 0.43139 0.78021 0.93231 0.0
C457 C 0.43636 0.81259 0.93929 0.0
C458 C 0.45844 0.86769 0.92521 0.0
C459 C 0.43421 0.87433 0.93383 0.0
C460 C 0.44242 0.90665 0.938 0.0
C461 C 0.4757 0.93282 0.93374 0.0
C462 C 0.49977 0.92623 0.92411 0.0
C463 C 0.49062 0.89365 0.91966 0.0
C464 C 0.4157 0.9128 0.94741 0.0
C465 C 0.53539 0.95352 0.91922 0.0
C466 C 0.49226 0.15738 0.8749 0.0
C467 C 0.51346 0.14255 0.8678 0.0
C468 C 0.49315 0.08602 0.87827 0.0
C469 C 0.52373 0.08824 0.88469 0.0
C470 C 0.52414 0.06553 0.90021 0.0
C471 C 0.49335 0.04046 0.90974 0.0
C472 C 0.46234 0.03721 0.90226 0.0
C473 C 0.46266 0.05985 0.88631 0.0
C474 C 0.55755 0.06895 0.907 0.0
C475 C 0.429 0.0106 0.91182 0.0
C476 C 0.55487 0.16357 0.04059 0.0
C477 C 0.57865 0.15665 0.03143 0.0
C478 C 0.56976 0.12428 0.02659 0.0
C479 C 0.53627 0.09841 0.03073 0.0
C480 C 0.51266 0.10526 0.04083 0.0
C481 C 0.52248 0.13783 0.04593 0.0
C482 C 0.59597 0.11777 0.01669 0.0
C483 C 0.47684 0.07827 0.04561 0.0
C484 C 0.50159 0.87685 0.09642 0.0
C485 C 0.48601 0.89387 0.10955 0.0
C486 C 0.5093 0.94763 0.09176 0.0
C487 C 0.54084 0.97106 0.08308 0.0
C488 C 0.54351 0.99192 0.06471 0.0
C489 C 0.51383 0.9897 0.0553 0.0
C490 C 0.48191 0.96695 0.06475 0.0
C491 C 0.47997 0.94606 0.08287 0.0
C492 C 0.57796 0.0161 0.05521 0.0
C493 C 0.44987 0.96476 0.05575 0.0
C494 C 0.48573 0.96678 0.94065 0.0
C495 C 0.486 0.98768 0.92324 0.0
C496 C 0.4938 0.01944 0.9289 0.0
C497 C 0.50145 0.03074 0.95259 0.0
C498 C 0.50862 0.06224 0.95903 0.0
C499 C 0.51656 0.07331 0.98229 0.0
C500 C 0.51736 0.05323 1.00009 0.0
C501 C 0.52575 0.06438 0.02376 0.0
C502 C 0.52468 0.04325 0.04122 0.0
C503 C 0.51608 0.01127 0.03566 0.0
C504 C 0.5091 0.00014 0.01194 0.0
C505 C 0.50184 0.96861 0.00557 0.0
C506 C 0.49452 0.95775 0.98223 0.0
C507 C 0.49393 0.9779 0.96435 0.0
C508 C 0.50167 0.00993 0.97033 0.0
C509 C 0.50942 0.02112 0.99413 0.0
C510 C 0.56492 0.23977 0.02414 0.0
C511 C 0.58283 0.22108 0.02994 0.0
O512 O 0.45142 0.83653 0.9222 0.0
O513 O 0.50805 0.92751 0.10913 0.0
O514 O 0.56225 0.19474 0.04417 0.0
O515 O 0.4924 0.10899 0.86463 0.0
H516 H 0.41386 0.8113 0.94746 0.0
H517 H 0.43399 0.78061 0.91255 0.0
H518 H 0.46363 0.77461 0.9555 0.0
H519 H 0.40315 0.76288 0.93192 0.0
H520 H 0.40881 0.85432 0.93722 0.0
H521 H 0.50897 0.88823 0.91266 0.0
H522 H 0.4152 0.93238 0.93716 0.0
H523 H 0.39006 0.89042 0.94672 0.0
H524 H 0.42193 0.92132 0.96604 0.0
H525 H 0.55138 0.94426 0.91234 0.0
H526 H 0.53477 0.97047 0.9061 0.0
H527 H 0.54732 0.96786 0.93565 0.0
H528 H 0.53162 0.14797 0.88274 0.0
H529 H 0.50873 0.18431 0.87739 0.0
H530 H 0.47254 0.15228 0.86131 0.0
H531 H 0.47948 0.14665 0.89182 0.0
H532 H 0.54726 0.10788 0.87771 0.0
H533 H 0.43916 0.05809 0.88086 0.0
H534 H 0.55554 0.04472 0.90628 0.0
H535 H 0.5783 0.08614 0.89531 0.0
H536 H 0.56437 0.07831 0.92541 0.0
H537 H 0.40722 0.01203 0.90479 0.0
H538 H 0.42511 0.98625 0.90715 0.0
H539 H 0.4294 0.01238 0.93138 0.0
H540 H 0.58648 0.2122 0.01265 0.0
H541 H 0.60414 0.17653 0.02803 0.0
H542 H 0.5045 0.14348 0.0533 0.0
H543 H 0.58936 0.10951 0.99804 0.0
H544 H 0.62178 0.13992 0.01733 0.0
H545 H 0.59627 0.09789 0.02666 0.0
H546 H 0.46105 0.08786 0.05231 0.0
H547 H 0.4649 0.06389 0.02919 0.0
H548 H 0.47709 0.06129 0.05886 0.0
H549 H 0.46176 0.88701 0.10037 0.0
H550 H 0.48427 0.84984 0.09675 0.0
H551 H 0.50576 0.8847 0.07771 0.0
H552 H 0.52631 0.88319 0.10455 0.0
H553 H 0.56336 0.97242 0.0904 0.0
H554 H 0.45563 0.92899 0.09033 0.0
H555 H 0.57798 0.01312 0.03577 0.0
H556 H 0.58385 0.04142 0.05884 0.0
H557 H 0.59828 0.0131 0.06324 0.0
H558 H 0.42755 0.94805 0.06647 0.0
H559 H 0.4529 0.98944 0.05583 0.0
H560 H 0.44481 0.95564 0.03723 0.0
H561 H 0.47974 0.97902 0.90511 0.0
H562 H 0.50824 0.0788 0.94617 0.0
H563 H 0.52192 0.0978 0.98613 0.0
H564 H 0.53054 0.0518 0.0594 0.0
H565 H 0.5018 0.95198 0.01857 0.0
H566 H 0.48923 0.93327 0.97842 0.0
H567 H 0.55905 0.24872 0.04045 0.0
H568 H 0.58104 0.26103 0.01271 0.0
H569 H 0.54077 0.22337 0.01449 0.0
C570 C 0.66007 0.49272 0.03472 0.0
C571 C 0.65385 0.4698 0.05545 0.0
C572 C 0.62797 0.48821 0.08406 0.0
C573 C 0.59408 0.46246 0.08299 0.0
C574 C 0.56803 0.46716 0.09058 0.0
C575 C 0.5761 0.49833 0.09914 0.0
C576 C 0.61038 0.52408 0.10071 0.0
C577 C 0.63591 0.51842 0.09356 0.0
C578 C 0.53187 0.43891 0.0893 0.0
C579 C 0.62006 0.55784 0.10937 0.0
C580 C 0.43809 0.49116 0.9678 0.0
C581 C 0.4581 0.52095 0.98406 0.0
C582 C 0.45674 0.51813 0.02685 0.0
C583 C 0.48927 0.54463 0.03211 0.0
C584 C 0.50545 0.54618 0.05363 0.0
C585 C 0.48893 0.52036 0.06996 0.0
C586 C 0.45549 0.49429 0.06502 0.0
C587 C 0.43957 0.49396 0.04368 0.0
C588 C 0.54062 0.57489 0.05853 0.0
C589 C 0.43713 0.46593 0.08169 0.0
C590 C 0.42546 0.58575 0.19799 0.0
C591 C 0.45919 0.60495 0.19095 0.0
C592 C 0.47901 0.59086 0.18748 0.0
C593 C 0.46443 0.5567 0.19056 0.0
C594 C 0.4307 0.53752 0.19842 0.0
C595 C 0.41183 0.55252 0.20245 0.0
C596 C 0.51536 0.61244 0.18017 0.0
C597 C 0.4143 0.5011 0.20199 0.0
C598 C 0.55907 0.41838 0.25664 0.0
C599 C 0.54938 0.43362 0.27662 0.0
C600 C 0.5485 0.47815 0.25527 0.0
C601 C 0.56747 0.51161 0.25035 0.0
C602 C 0.55732 0.52526 0.23251 0.0
C603 C 0.52722 0.50487 0.21944 0.0
C604 C 0.50715 0.47124 0.22493 0.0
C605 C 0.518 0.4582 0.24273 0.0
C606 C 0.57914 0.56124 0.22716 0.0
C607 C 0.47453 0.4489 0.21162 0.0
C608 C 0.54878 0.5047 0.10516 0.0
C609 C 0.5317 0.50948 0.08657 0.0
C610 C 0.50787 0.51859 0.09072 0.0
C611 C 0.50185 0.52448 0.1141 0.0
C612 C 0.48023 0.5363 0.11892 0.0
C613 C 0.47443 0.54184 0.14205 0.0
C614 C 0.48976 0.53541 0.16124 0.0
C615 C 0.48418 0.54102 0.18484 0.0
C616 C 0.49763 0.53186 0.20348 0.0
C617 C 0.51737 0.518 0.19919 0.0
C618 C 0.52548 0.51469 0.17577 0.0
C619 C 0.54732 0.50308 0.17093 0.0
C620 C 0.55521 0.49999 0.14782 0.0
C621 C 0.54086 0.50759 0.12869 0.0
C622 C 0.51795 0.51833 0.13316 0.0
C623 C 0.51113 0.52291 0.15674 0.0
C624 C 0.36785 0.60851 0.17777 0.0
C625 C 0.40463 0.62061 0.18473 0.0
O626 O 0.65367 0.48469 0.07643 0.0
O627 O 0.5608 0.46624 0.27189 0.0
O628 O 0.40537 0.59857 0.20026 0.0
O629 O 0.44172 0.51475 0.00546 0.0
H630 H 0.62897 0.447 0.05239 0.0
H631 H 0.63919 0.49782 0.0333 0.0
H632 H 0.68432 0.51635 0.03723 0.0
H633 H 0.66087 0.48111 0.01791 0.0
H634 H 0.58787 0.43856 0.07659 0.0
H635 H 0.66223 0.53795 0.09459 0.0
H636 H 0.51807 0.44337 0.07504 0.0
H637 H 0.53023 0.41523 0.08561 0.0
H638 H 0.51889 0.43694 0.10614 0.0
H639 H 0.64739 0.57599 0.10699 0.0
H640 H 0.605 0.5665 0.09983 0.0
H641 H 0.61437 0.55689 0.12842 0.0
H642 H 0.48354 0.52397 0.98667 0.0
H643 H 0.45086 0.49542 0.95055 0.0
H644 H 0.43658 0.4693 0.97598 0.0
H645 H 0.41193 0.48599 0.96473 0.0
H646 H 0.50213 0.56388 0.01929 0.0
H647 H 0.41428 0.47384 0.03946 0.0
H648 H 0.54316 0.58333 0.07714 0.0
H649 H 0.55931 0.56718 0.0558 0.0
H650 H 0.54701 0.59575 0.04666 0.0
H651 H 0.41283 0.44599 0.07403 0.0
H652 H 0.45326 0.4557 0.08636 0.0
H653 H 0.43161 0.47461 0.09826 0.0
H654 H 0.41762 0.62134 0.16807 0.0
H655 H 0.46999 0.63094 0.18818 0.0
H656 H 0.38584 0.53808 0.20817 0.0
H657 H 0.51761 0.6081 0.16122 0.0
H658 H 0.52449 0.63885 0.18272 0.0
H659 H 0.5321 0.60643 0.19041 0.0
H660 H 0.38683 0.48919 0.20561 0.0
H661 H 0.41762 0.4894 0.18612 0.0
H662 H 0.42678 0.49654 0.21713 0.0
H663 H 0.52142 0.42001 0.27841 0.0
H664 H 0.5504 0.39242 0.26061 0.0
H665 H 0.54699 0.41883 0.23971 0.0
H666 H 0.58696 0.43212 0.25437 0.0
H667 H 0.5908 0.5269 0.26022 0.0
H668 H 0.50262 0.43236 0.24644 0.0
H669 H 0.58776 0.56434 0.20863 0.0
H670 H 0.56404 0.57321 0.22891 0.0
H671 H 0.60168 0.5739 0.23907 0.0
H672 H 0.46038 0.424 0.2193 0.0
H673 H 0.45802 0.4595 0.21162 0.0
H674 H 0.48018 0.44666 0.19297 0.0
H675 H 0.53709 0.50609 0.06854 0.0
H676 H 0.46778 0.54163 0.10482 0.0
H677 H 0.45753 0.55095 0.1447 0.0
H678 H 0.49228 0.53514 0.22153 0.0
H679 H 0.55894 0.49668 0.18496 0.0
H680 H 0.57238 0.49121 0.14509 0.0
H681 H 0.36663 0.62564 0.1651 0.0
H682 H 0.35631 0.58403 0.16913 0.0
H683 H 0.35275 0.60636 0.19352 0.0
C684 C 0.5973 0.33034 0.42751 0.0
O685 O 0.58809 0.34552 0.44221 0.0
O686 O 0.676 0.41078 0.39216 0.0
Zn687 Zn 0.62737 0.39149 0.40126 0.0
O688 O 0.62172 0.41301 0.43012 0.0
C689 C 0.61418 0.42118 0.36226 0.0
O690 O 0.64364 0.44598 0.36924 0.0
O691 O 0.61182 0.34444 0.40852 0.0
C692 C 0.59375 0.41172 0.43295 0.0
O693 O 0.57059 0.39865 0.41609 0.0
C694 C 0.69425 0.40296 0.40408 0.0
O695 O 0.68232 0.38694 0.42386 0.0
O696 O 0.60157 0.39445 0.37348 0.0
C697 C 0.27558 0.68868 0.56578 0.0
O698 O 0.25445 0.68173 0.54792 0.0
O699 O 0.27554 0.60223 0.57537 0.0
Zn700 Zn 0.24218 0.61753 0.57377 0.0
O701 O 0.21758 0.60807 0.54241 0.0
C702 C 0.18973 0.56784 0.60259 0.0
O703 O 0.18817 0.54836 0.58555 0.0
O704 O 0.27266 0.66583 0.57886 0.0
C705 C 0.21653 0.5875 0.52761 0.0
O706 O 0.23155 0.57125 0.53304 0.0
C707 C 0.28706 0.60304 0.59604 0.0
O708 O 0.2735 0.6094 0.61395 0.0
O709 O 0.20989 0.5985 0.60069 0.0
C710 C 0.59957 0.28422 0.70616 0.0
O711 O 0.62248 0.28052 0.69554 0.0
O712 O 0.65257 0.27143 0.74851 0.0
Zn713 Zn 0.60411 0.24064 0.73797 0.0
O714 O 0.59822 0.20869 0.71228 0.0
C715 C 0.59066 0.21174 0.78434 0.0
O716 O 0.62374 0.22548 0.78495 0.0
O717 O 0.58664 0.26882 0.7251 0.0
C718 C 0.59124 0.17987 0.71701 0.0
O719 O 0.59123 0.17154 0.73906 0.0
C720 C 0.67876 0.2847 0.73578 0.0
O721 O 0.67622 0.27644 0.7134 0.0
O722 O 0.5765 0.21525 0.76612 0.0
C723 C 0.42879 0.70087 0.92856 0.0
O724 O 0.40444 0.67546 0.93935 0.0
O725 O 0.3763 0.62554 0.8923 0.0
Zn726 Zn 0.4263 0.64975 0.90066 0.0
O727 O 0.43299 0.62516 0.92695 0.0
C728 C 0.44567 0.6196 0.86668 0.0
O729 O 0.42133 0.5941 0.87752 0.0
O730 O 0.4428 0.6964 0.91097 0.0
C731 C 0.46114 0.62696 0.93055 0.0
O732 O 0.4873 0.64747 0.91798 0.0
C733 C 0.35477 0.60865 0.90793 0.0
O734 O 0.36547 0.60804 0.9294 0.0
O735 O 0.45247 0.64803 0.87294 0.0
C736 C 0.75544 0.43128 0.06026 0.0
O737 O 0.78223 0.44643 0.07421 0.0
O738 O 0.73903 0.33424 0.05511 0.0
Zn739 Zn 0.77463 0.38211 0.05611 0.0
O740 O 0.79827 0.39754 0.08775 0.0
C741 C 0.82465 0.37814 0.02937 0.0
O742 O 0.8227 0.35937 0.04693 0.0
O743 O 0.74868 0.40471 0.05017 0.0
C744 C 0.80319 0.38121 0.10325 0.0
O745 O 0.79319 0.35037 0.09927 0.0
C746 C 0.71272 0.32433 0.06744 0.0
O747 O 0.71217 0.34461 0.08292 0.0
O748 O 0.80708 0.39162 0.02968 0.0
C749 C 0.4456 0.75179 0.2161 0.0
O750 O 0.44913 0.77069 0.19821 0.0
O751 O 0.3671 0.75283 0.2387 0.0
Zn752 Zn 0.41666 0.78631 0.23723 0.0
O753 O 0.42633 0.81265 0.2075 0.0
C754 C 0.41316 0.80793 0.2841 0.0
O755 O 0.38674 0.7781 0.28518 0.0
O756 O 0.43684 0.75751 0.23588 0.0
C757 C 0.45534 0.8379 0.20431 0.0
O758 O 0.47845 0.84719 0.22112 0.0
C759 C 0.34198 0.75337 0.22986 0.0
O760 O 0.34703 0.7795 0.21855 0.0
O761 O 0.43106 0.8164 0.26566 0.0
C762 C 0.27382 0.6645 0.23873 0.0
C763 C 0.24398 0.66314 0.23117 0.0
C764 C 0.30503 0.6939 0.23869 0.0
C765 C 0.30793 0.72325 0.23079 0.0
H766 H 0.27313 0.64252 0.2445 0.0
H767 H 0.32718 0.69333 0.24449 0.0
S768 S 0.23725 0.73296 0.2094 0.0
N769 N 0.21908 0.69372 0.21582 0.0
N770 N 0.27794 0.74914 0.21557 0.0
C771 C 0.27826 0.72235 0.22333 0.0
C772 C 0.2463 0.69231 0.22351 0.0
C773 C 0.62297 0.26679 0.43212 0.0
C774 C 0.6074 0.25019 0.45299 0.0
C775 C 0.61786 0.2913 0.42323 0.0
C776 C 0.59737 0.3006 0.43505 0.0
H777 H 0.64027 0.26164 0.42305 0.0
H778 H 0.63146 0.30411 0.40758 0.0
S779 S 0.549 0.26306 0.48952 0.0
N780 N 0.56921 0.24348 0.48456 0.0
N781 N 0.55958 0.28961 0.4679 0.0
C782 C 0.58054 0.28326 0.45541 0.0
C783 C 0.58566 0.25817 0.4644 0.0
C784 C 0.37729 0.62486 0.586 0.0
C785 C 0.388 0.62173 0.60871 0.0
C786 C 0.34371 0.61629 0.58148 0.0
C787 C 0.31974 0.60465 0.59959 0.0
H788 H 0.3954 0.63547 0.57191 0.0
H789 H 0.33712 0.62079 0.56406 0.0
S790 S 0.3339 0.58827 0.66135 0.0
N791 N 0.37117 0.6034 0.64892 0.0
N792 N 0.30815 0.5873 0.64044 0.0
C793 C 0.32961 0.59953 0.62197 0.0
C794 C 0.36372 0.60814 0.62654 0.0
C795 C 0.74401 0.34308 0.78025 0.0
C796 C 0.7633 0.37179 0.76714 0.0
C797 C 0.71781 0.3144 0.76967 0.0
C798 C 0.71011 0.31316 0.74548 0.0
H799 H 0.74823 0.34323 0.79912 0.0
H800 H 0.70274 0.29333 0.78068 0.0
S801 S 0.75316 0.38122 0.70304 0.0
N802 N 0.77287 0.397 0.72847 0.0
N803 N 0.7243 0.34272 0.70847 0.0
C804 C 0.73003 0.34118 0.73188 0.0
C805 C 0.75636 0.37063 0.74275 0.0
C806 C 0.48994 0.81032 0.93426 0.0
C807 C 0.46023 0.81301 0.95517 0.0
C808 C 0.47598 0.76912 0.92391 0.0
C809 C 0.43984 0.73396 0.93718 0.0
H810 H 0.50976 0.83161 0.92546 0.0
H811 H 0.48928 0.76555 0.90976 0.0
S812 S 0.38173 0.736 0.9917 0.0
N813 N 0.40826 0.77678 0.98934 0.0
N814 N 0.39107 0.71446 0.97283 0.0
C815 C 0.41816 0.73851 0.96186 0.0
C816 C 0.4298 0.77775 0.97319 0.0
C817 C 0.67437 0.4309 0.04727 0.0
C818 C 0.6811 0.46106 0.0566 0.0
C819 C 0.69882 0.42189 0.04809 0.0
C820 C 0.73113 0.44274 0.05822 0.0
H821 H 0.64982 0.41393 0.03944 0.0
H822 H 0.692 0.39807 0.04107 0.0
S823 S 0.76258 0.52582 0.08319 0.0
N824 N 0.7232 0.51284 0.07481 0.0
N825 N 0.76917 0.49584 0.07657 0.0
C826 C 0.73859 0.47345 0.06699 0.0
C827 C 0.71366 0.48267 0.06606 0.0
C828 C 0.3324 0.78115 0.56257 0.0
C829 C 0.36313 0.78692 0.5727 0.0
C830 C 0.30412 0.74933 0.56049 0.0
C831 C 0.30513 0.72223 0.56911 0.0
H832 H 0.3302 0.80126 0.55595 0.0
H833 H 0.28126 0.74599 0.55218 0.0
S834 S 0.37878 0.72433 0.59842 0.0
N835 N 0.39235 0.76295 0.59219 0.0
N836 N 0.33915 0.70334 0.58879 0.0
C837 C 0.33531 0.72776 0.57997 0.0
C838 C 0.36422 0.76003 0.58172 0.0
C839 C 0.60516 0.36209 0.65965 0.0
C840 C 0.57403 0.36764 0.67671 0.0
C841 C 0.61471 0.33279 0.67213 0.0
C842 C 0.59011 0.30682 0.69636 0.0
H843 H 0.62146 0.37966 0.64671 0.0
H844 H 0.63547 0.33106 0.66521 0.0
S845 S 0.50859 0.30498 0.72808 0.0
N846 N 0.51781 0.33527 0.70878 0.0
N847 N 0.53417 0.2896 0.72542 0.0
C848 C 0.55414 0.3076 0.7077 0.0
C849 C 0.54272 0.3355 0.69666 0.0
C850 C 0.25985 0.5571 0.91599 0.0
C851 C 0.24723 0.5464 0.89293 0.0
C852 C 0.29455 0.57784 0.9205 0.0
C853 C 0.31811 0.58874 0.90215 0.0
H854 H 0.2428 0.5488 0.93077 0.0
H855 H 0.30297 0.58503 0.93862 0.0
S856 S 0.2983 0.56729 0.83863 0.0
N857 N 0.26113 0.54782 0.85151 0.0
N858 N 0.32639 0.58723 0.85995 0.0
C859 C 0.30587 0.57864 0.87893 0.0
C860 C 0.27048 0.55727 0.87435 0.0
C861 C 0.64662 0.25544 0.02883 0.0
C862 C 0.61685 0.24356 0.04187 0.0
C863 C 0.678 0.27995 0.03797 0.0
C864 C 0.68081 0.29396 0.06042 0.0
H865 H 0.64548 0.24662 0.01101 0.0
H866 H 0.69986 0.28918 0.02675 0.0
S867 S 0.61105 0.26858 0.10282 0.0
N868 N 0.5926 0.24528 0.07928 0.0
N869 N 0.65153 0.29174 0.09642 0.0
C870 C 0.65155 0.28093 0.07421 0.0
C871 C 0.6196 0.25571 0.06495 0.0
C872 C 0.44116 0.68197 0.18138 0.0
C873 C 0.42115 0.65466 0.19558 0.0
C874 C 0.45155 0.71376 0.1891 0.0
C875 C 0.44213 0.71955 0.21129 0.0
H876 H 0.44741 0.67863 0.16364 0.0
H877 H 0.46545 0.73374 0.17698 0.0
S878 S 0.39305 0.65654 0.2563 0.0
N879 N 0.39479 0.63559 0.2337 0.0
N880 N 0.41434 0.69532 0.24836 0.0
C881 C 0.42422 0.69264 0.2264 0.0
C882 C 0.41359 0.66021 0.21846 0.0
C883 C 0.76255 0.38352 0.39165 0.0
C884 C 0.774 0.39711 0.36924 0.0
C885 C 0.73845 0.38751 0.40352 0.0
C886 C 0.72444 0.4049 0.39332 0.0
H887 H 0.77123 0.36848 0.39965 0.0
H888 H 0.7295 0.37536 0.42028 0.0
S889 S 0.74837 0.44794 0.3359 0.0
N890 N 0.77139 0.43064 0.33803 0.0
N891 N 0.72612 0.43827 0.36029 0.0
C892 C 0.73704 0.42013 0.37147 0.0
C893 C 0.76167 0.41609 0.35942 0.0
C894 C 0.16537 0.59538 0.47771 0.0
C895 C 0.16784 0.577 0.45924 0.0
C896 C 0.18077 0.59821 0.49978 0.0
C897 C 0.19941 0.58286 0.5043 0.0
H898 H 0.15179 0.60808 0.47497 0.0
H899 H 0.17825 0.61285 0.51332 0.0
S900 S 0.21389 0.53222 0.46164 0.0
N901 N 0.19063 0.54349 0.44679 0.0
N902 N 0.21939 0.54854 0.48824 0.0
C903 C 0.20189 0.56421 0.486 0.0
C904 C 0.18627 0.56144 0.46349 0.0
C905 C 0.54933 0.13512 0.64621 0.0
C906 C 0.54047 0.09334 0.65431 0.0
C907 C 0.57123 0.16606 0.66898 0.0
C908 C 0.57696 0.15462 0.69846 0.0
H909 H 0.54766 0.1417 0.62821 0.0
H910 H 0.58028 0.19143 0.66506 0.0
S911 S 0.54302 0.06043 0.72201 0.0
N912 N 0.52976 0.05072 0.69368 0.0
N913 N 0.56172 0.10095 0.72768 0.0
C914 C 0.55946 0.11231 0.70648 0.0
C915 C 0.5377 0.08019 0.68544 0.0
C916 C 0.48688 0.57998 0.83402 0.0
C917 C 0.51167 0.60561 0.82043 0.0
C918 C 0.46498 0.58454 0.8482 0.0
C919 C 0.46719 0.61508 0.84966 0.0
H920 H 0.48485 0.55632 0.83413 0.0
H921 H 0.44688 0.56412 0.85867 0.0
S922 S 0.52652 0.68971 0.81648 0.0
N923 N 0.53613 0.66224 0.80838 0.0
N924 N 0.49523 0.67102 0.83529 0.0
C925 C 0.49128 0.64075 0.83567 0.0
C926 C 0.51344 0.63598 0.82103 0.0
C927 C 0.88812 0.35793 0.98169 0.0
C928 C 0.8928 0.38812 0.9588 0.0
C929 C 0.86571 0.35777 0.00774 0.0
C930 C 0.84408 0.38055 0.00842 0.0
H931 H 0.9034 0.34674 0.98173 0.0
H932 H 0.86505 0.34376 0.02292 0.0
S933 S 0.83809 0.43551 0.95395 0.0
N934 N 0.86273 0.42407 0.94032 0.0
N935 N 0.82698 0.41971 0.98126 0.0
C936 C 0.84229 0.40228 0.9829 0.0
C937 C 0.86352 0.40397 0.95652 0.0
C938 C 0.44562 0.85735 0.14077 0.0
C939 C 0.47859 0.88204 0.13482 0.0
C940 C 0.43827 0.84394 0.16342 0.0
C941 C 0.46363 0.85448 0.18108 0.0
H942 H 0.42538 0.84789 0.12767 0.0
H943 H 0.41251 0.82471 0.16692 0.0
S944 S 0.55426 0.91863 0.17449 0.0
N945 N 0.53694 0.91654 0.14838 0.0
N946 N 0.5232 0.89159 0.19103 0.0
C947 C 0.4967 0.87951 0.17546 0.0
C948 C 0.50418 0.89312 0.15233 0.0
C949 C 0.59838 0.45488 0.30608 0.0
C950 C 0.5649 0.43101 0.29966 0.0
C951 C 0.61379 0.45171 0.32653 0.0
C952 C 0.59661 0.42422 0.34118 0.0
H953 H 0.61299 0.47606 0.29507 0.0
H954 H 0.63963 0.47074 0.33061 0.0
S955 S 0.50886 0.3542 0.33172 0.0
N956 N 0.5153 0.37864 0.30927 0.0
N957 N 0.5442 0.37249 0.34766 0.0
C958 C 0.56318 0.40003 0.33488 0.0
C959 C 0.54743 0.40341 0.31412 0.0
C960 C 0.45388 0.88914 0.31733 0.0
C961 C 0.43014 0.8836 0.33483 0.0
C962 C 0.44877 0.86421 0.30159 0.0
C963 C 0.4197 0.83267 0.30268 0.0
H964 H 0.47618 0.91325 0.31538 0.0
H965 H 0.46745 0.87003 0.28811 0.0
S966 S 0.35044 0.80513 0.34592 0.0
N967 N 0.37692 0.844 0.35274 0.0
N968 N 0.36742 0.797 0.32344 0.0
C969 C 0.39626 0.8265 0.3206 0.0
C970 C 0.4014 0.85199 0.33653 0.0
C971 C 0.54245 0.41991 0.48143 0.0
C972 C 0.56414 0.42921 0.50133 0.0
C973 C 0.55289 0.41578 0.45924 0.0
C974 C 0.58522 0.42019 0.45607 0.0
H975 H 0.51689 0.41502 0.48308 0.0
H976 H 0.53495 0.40808 0.44463 0.0
S977 S 0.65158 0.44448 0.50266 0.0
N978 N 0.61947 0.44286 0.51647 0.0
N979 N 0.63911 0.43494 0.47485 0.0
C980 C 0.60738 0.43001 0.47576 0.0
C981 C 0.59677 0.43437 0.49835 0.0
C982 C 0.13165 0.50586 0.64754 0.0
C983 C 0.1395 0.52463 0.66842 0.0
C984 C 0.1472 0.52023 0.6262 0.0
C985 C 0.17121 0.55397 0.62485 0.0
H986 H 0.11395 0.47967 0.64787 0.0
H987 H 0.14081 0.50458 0.61076 0.0
S988 S 0.19979 0.61411 0.67441 0.0
N989 N 0.17224 0.5788 0.68634 0.0
N990 N 0.20124 0.60597 0.64629 0.0
C991 C 0.17856 0.57319 0.64549 0.0
C992 C 0.16284 0.55848 0.66724 0.0
C993 C 0.56794 0.18092 0.84702 0.0
C994 C 0.5329 0.1583 0.84551 0.0
C995 C 0.58637 0.19765 0.82709 0.0
C996 C 0.57043 0.19284 0.80487 0.0
H997 H 0.58122 0.18604 0.86384 0.0
H998 H 0.61324 0.21501 0.82928 0.0
S999 S 0.47937 0.13524 0.79119 0.0
N1000 N 0.48312 0.13107 0.81979 0.0
N1001 N 0.51764 0.16287 0.78234 0.0
C1002 C 0.53545 0.16999 0.803 0.0
C1003 C 0.51673 0.15267 0.82329 0.0
C1004 C 0.43333 0.55557 0.97221 0.0
C1005 C 0.46118 0.55111 0.97271 0.0
C1006 C 0.43416 0.58103 0.95936 0.0
C1007 C 0.4628 0.60298 0.94634 0.0
H1008 H 0.41029 0.5386 0.98125 0.0
H1009 H 0.4117 0.58284 0.95911 0.0
S1010 S 0.54292 0.60254 0.94266 0.0
N1011 N 0.51857 0.57125 0.95971 0.0
N1012 N 0.52034 0.61923 0.93562 0.0
C1013 C 0.49127 0.59942 0.94732 0.0
C1014 C 0.49035 0.57342 0.9604 0.0
C1015 C 0.84344 0.45838 0.15943 0.0
C1016 C 0.85898 0.43746 0.17923 0.0
C1017 C 0.8258 0.43771 0.13147 0.0
C1018 C 0.818 0.39675 0.12613 0.0
H1019 H 0.85084 0.48371 0.16209 0.0
H1020 H 0.8199 0.44996 0.11788 0.0
S1021 S 0.836 0.34073 0.17329 0.0
N1022 N 0.85046 0.37441 0.19052 0.0
N1023 N 0.82076 0.34437 0.14695 0.0
C1024 C 0.82539 0.37451 0.14884 0.0
C1025 C 0.84279 0.39274 0.17688 0.0
loop_
_geom_bond_atom_site_label_1
_geom_bond_atom_site_label_2
_geom_bond_distance
_geom_bond_site_symmetry_2
_ccdc_geom_bond_type
C0 C1 1.560 . S
C0 H61 0.959 . S
C0 H62 0.959 . S
C0 H63 0.960 . S
C1 C0 1.560 . S
C1 O56 1.426 . S
C1 H60 0.980 . S
C2 C3 1.407 . S
C2 C7 1.418 . S
C2 O56 1.334 . S
C3 C2 1.407 . S
C3 C4 1.360 . S
C3 H64 0.929 . S
C4 C3 1.360 . S
C4 C5 1.401 . S
C4 C8 1.527 . S
C5 C4 1.401 . S
C5 C6 1.405 . S
C5 C38 1.587 . S
C6 C5 1.405 . S
C6 C7 1.332 . S
C6 C9 1.496 . S
C7 C2 1.418 . S
C7 C6 1.332 . S
C7 H65 0.929 . S
C8 C4 1.527 . S
C8 H66 0.959 . S
C8 H67 0.961 . S
C8 H68 0.961 . S
C9 C6 1.496 . S
C9 H69 0.960 . S
C9 H70 0.960 . S
C9 H71 0.961 . S
C10 C11 1.517 . S
C10 H73 0.961 . S
C10 H74 0.960 . S
C10 H75 0.959 . S
C11 C10 1.517 . S
C11 O59 1.468 . S
C11 H72 0.980 . S
C12 C13 1.349 . S
C12 C17 1.367 . S
C12 O59 1.408 . S
C13 C12 1.349 . S
C13 C14 1.407 . S
C13 H76 0.930 . S
C14 C13 1.407 . S
C14 C15 1.449 . S
C14 C18 1.535 . S
C15 C14 1.449 . S
C15 C16 1.384 . S
C15 C40 1.553 1_655 S
C16 C15 1.384 . S
C16 C17 1.364 . S
C16 C19 1.450 . S
C17 C12 1.367 . S
C17 C16 1.364 . S
C17 H77 0.931 . S
C18 C14 1.535 . S
C18 H78 0.959 1_655 S
C18 H79 0.961 1_655 S
C18 H80 0.959 . S
C19 C16 1.450 . S
C19 H81 0.960 . S
C19 H82 0.960 1_655 S
C19 H83 0.960 . S
C20 C21 1.309 . S
C20 C25 1.304 . S
C20 O58 1.435 . S
C21 C20 1.309 . S
C21 C22 1.476 . S
C21 H85 0.930 . S
C22 C21 1.476 . S
C22 C23 1.400 . S
C22 C26 1.567 . S
C23 C22 1.400 . S
C23 C24 1.373 . S
C23 C45 1.432 . S
C24 C23 1.373 . S
C24 C25 1.339 . S
C24 C27 1.530 . S
C25 C20 1.304 . S
C25 C24 1.339 . S
C25 H86 0.930 . S
C26 C22 1.567 . S
C26 H87 0.961 . S
C26 H88 0.960 . S
C26 H89 0.958 . S
C27 C24 1.530 . S
C27 H90 0.961 . S
C27 H91 0.960 . S
C27 H92 0.960 . S
C28 C29 1.530 . S
C28 H94 0.961 . S
C28 H95 0.961 . S
C28 H96 0.959 . S
C29 C28 1.530 . S
C29 O57 1.412 . S
C29 H93 0.980 . S
C30 C31 1.288 . S
C30 C35 1.377 . S
C30 O57 1.393 . S
C31 C30 1.288 . S
C31 C32 1.369 . S
C31 H97 0.932 . S
C32 C31 1.369 . S
C32 C33 1.398 . S
C32 C36 1.527 . S
C33 C32 1.398 . S
C33 C34 1.380 . S
C33 C47 1.497 . S
C34 C33 1.380 . S
C34 C35 1.383 . S
C34 C37 1.603 . S
C35 C30 1.377 . S
C35 C34 1.383 . S
C35 H98 0.929 . S
C36 C32 1.527 . S
C36 H99 0.961 . S
C36 H100 0.959 1_455 S
C36 H101 0.959 . S
C37 C34 1.603 . S
C37 H102 0.960 . S
C37 H103 0.962 . S
C37 H104 0.961 . S
C38 C5 1.587 . S
C38 C39 1.360 . S
C38 C51 1.412 . S
C39 C38 1.360 . S
C39 C40 1.365 . S
C39 H105 0.929 . S
C40 C15 1.553 1_455 S
C40 C39 1.365 . S
C40 C41 1.401 1_455 S
C41 C40 1.401 1_655 S
C41 C42 1.402 . S
C41 C52 1.447 1_655 S
C42 C41 1.402 . S
C42 C43 1.322 . S
C42 H106 0.930 . S
C43 C42 1.322 . S
C43 C44 1.459 . S
C43 H107 0.929 . S
C44 C43 1.459 . S
C44 C45 1.445 . S
C44 C53 1.395 1_655 S
C45 C23 1.432 . S
C45 C44 1.445 . S
C45 C46 1.370 . S
C46 C45 1.370 . S
C46 C47 1.438 1_655 S
C46 H108 0.930 . S
C47 C33 1.497 . S
C47 C46 1.438 1_455 S
C47 C48 1.360 . S
C48 C47 1.360 . S
C48 C49 1.401 . S
C48 C53 1.446 . S
C49 C48 1.401 . S
C49 C50 1.347 . S
C49 H109 0.929 . S
C50 C49 1.347 . S
C50 C51 1.455 . S
C50 H110 0.930 . S
C51 C38 1.412 . S
C51 C50 1.455 . S
C51 C52 1.331 . S
C52 C41 1.447 1_455 S
C52 C51 1.331 . S
C52 C53 1.497 . S
C53 C44 1.395 1_455 S
C53 C48 1.446 . S
C53 C52 1.497 . S
C54 C55 1.582 . S
C54 H111 0.962 . S
C54 H112 0.959 . S
C54 H113 0.958 . S
C55 C54 1.582 . S
C55 O58 1.458 . S
C55 H84 0.980 . S
O56 C1 1.426 . S
O56 C2 1.334 . S
O57 C29 1.412 . S
O57 C30 1.393 . S
O58 C20 1.435 . S
O58 C55 1.458 . S
O59 C11 1.468 . S
O59 C12 1.408 . S
H60 C1 0.980 . S
H61 C0 0.959 . S
H62 C0 0.959 . S
H63 C0 0.960 . S
H64 C3 0.929 . S
H65 C7 0.929 . S
H66 C8 0.959 . S
H67 C8 0.961 . S
H68 C8 0.961 . S
H69 C9 0.960 . S
H70 C9 0.960 . S
H71 C9 0.961 . S
H72 C11 0.980 . S
H73 C10 0.961 . S
H74 C10 0.960 . S
H75 C10 0.959 . S
H76 C13 0.930 . S
H77 C17 0.931 . S
H78 C18 0.959 1_455 S
H79 C18 0.961 1_455 S
H80 C18 0.959 . S
H81 C19 0.960 . S
H82 C19 0.960 1_455 S
H83 C19 0.960 . S
H84 C55 0.980 . S
H85 C21 0.930 . S
H86 C25 0.930 . S
H87 C26 0.961 . S
H88 C26 0.960 . S
H89 C26 0.958 . S
H90 C27 0.961 . S
H91 C27 0.960 . S
H92 C27 0.960 . S
H93 C29 0.980 . S
H94 C28 0.961 . S
H95 C28 0.961 . S
H96 C28 0.959 . S
H97 C31 0.932 . S
H98 C35 0.929 . S
H99 C36 0.961 . S
H100 C36 0.959 1_655 S
H101 C36 0.959 . S
H102 C37 0.960 . S
H103 C37 0.962 . S
H104 C37 0.961 . S
H105 C39 0.929 . S
H106 C42 0.930 . S
H107 C43 0.929 . S
H108 C46 0.930 . S
H109 C49 0.929 . S
H110 C50 0.930 . S
H111 C54 0.962 . S
H112 C54 0.959 . S
H113 C54 0.958 . S
C114 C115 1.560 . S
C114 H175 0.959 . S
C114 H176 0.959 . S
C114 H177 0.960 . S
C115 C114 1.560 . S
C115 O170 1.426 . S
C115 H174 0.980 . S
C116 C117 1.407 . S
C116 C121 1.418 . S
C116 O170 1.334 . S
C117 C116 1.407 . S
C117 C118 1.360 . S
C117 H178 0.929 . S
C118 C117 1.360 . S
C118 C119 1.401 . S
C118 C122 1.527 . S
C119 C118 1.401 . S
C119 C120 1.405 . S
C119 C152 1.587 . S
C120 C119 1.405 . S
C120 C121 1.332 . S
C120 C123 1.496 . S
C121 C116 1.418 . S
C121 C120 1.332 . S
C121 H179 0.929 . S
C122 C118 1.527 . S
C122 H180 0.959 . S
C122 H181 0.961 . S
C122 H182 0.961 . S
C123 C120 1.496 . S
C123 H183 0.960 . S
C123 H184 0.960 . S
C123 H185 0.961 . S
C124 C125 1.517 . S
C124 H187 0.961 . S
C124 H188 0.960 . S
C124 H189 0.959 . S
C125 C124 1.517 . S
C125 O173 1.468 . S
C125 H186 0.980 . S
C126 C127 1.349 . S
C126 C131 1.367 . S
C126 O173 1.408 . S
C127 C126 1.349 . S
C127 C128 1.407 . S
C127 H190 0.930 . S
C128 C127 1.407 . S
C128 C129 1.449 . S
C128 C132 1.535 . S
C129 C128 1.449 . S
C129 C130 1.384 . S
C129 C154 1.553 . S
C130 C129 1.384 . S
C130 C131 1.364 . S
C130 C133 1.450 . S
C131 C126 1.367 . S
C131 C130 1.364 . S
C131 H191 0.931 . S
C132 C128 1.535 . S
C132 H192 0.959 . S
C132 H193 0.961 . S
C132 H194 0.959 . S
C133 C130 1.450 . S
C133 H195 0.960 . S
C133 H196 0.960 . S
C133 H197 0.960 . S
C134 C135 1.309 . S
C134 C139 1.304 . S
C134 O172 1.435 . S
C135 C134 1.309 . S
C135 C136 1.476 . S
C135 H199 0.930 . S
C136 C135 1.476 . S
C136 C137 1.400 . S
C136 C140 1.567 . S
C137 C136 1.400 . S
C137 C138 1.373 . S
C137 C159 1.432 . S
C138 C137 1.373 . S
C138 C139 1.339 . S
C138 C141 1.530 . S
C139 C134 1.304 . S
C139 C138 1.339 . S
C139 H200 0.930 . S
C140 C136 1.567 . S
C140 H201 0.961 . S
C140 H202 0.960 . S
C140 H203 0.958 . S
C141 C138 1.530 . S
C141 H204 0.961 . S
C141 H205 0.960 . S
C141 H206 0.960 . S
C142 C143 1.530 . S
C142 H208 0.961 . S
C142 H209 0.961 . S
C142 H210 0.959 . S
C143 C142 1.530 . S
C143 O171 1.412 . S
C143 H207 0.980 . S
C144 C145 1.288 . S
C144 C149 1.377 . S
C144 O171 1.393 . S
C145 C144 1.288 . S
C145 C146 1.369 . S
C145 H211 0.932 . S
C146 C145 1.369 . S
C146 C147 1.398 . S
C146 C150 1.527 1_565 S
C147 C146 1.398 . S
C147 C148 1.380 . S
C147 C161 1.497 1_565 S
C148 C147 1.380 . S
C148 C149 1.383 . S
C148 C151 1.603 . S
C149 C144 1.377 . S
C149 C148 1.383 . S
C149 H212 0.929 . S
C150 C146 1.527 1_545 S
C150 H213 0.957 1_545 S
C150 H214 0.959 . S
C150 H215 0.959 1_545 S
C151 C148 1.603 . S
C151 H216 0.960 . S
C151 H217 0.962 . S
C151 H218 0.961 . S
C152 C119 1.587 . S
C152 C153 1.360 . S
C152 C165 1.412 . S
C153 C152 1.360 . S
C153 C154 1.365 1_565 S
C153 H219 0.929 . S
C154 C129 1.553 . S
C154 C153 1.365 1_545 S
C154 C155 1.404 . S
C155 C154 1.404 . S
C155 C156 1.395 . S
C155 C166 1.451 . S
C156 C155 1.395 . S
C156 C157 1.322 . S
C156 H220 0.930 . S
C157 C156 1.322 . S
C157 C158 1.459 . S
C157 H221 0.929 . S
C158 C157 1.459 . S
C158 C159 1.445 . S
C158 C167 1.395 . S
C159 C137 1.432 . S
C159 C158 1.445 . S
C159 C160 1.370 . S
C160 C159 1.370 . S
C160 C161 1.438 . S
C160 H222 0.930 . S
C161 C147 1.497 1_545 S
C161 C160 1.438 . S
C161 C162 1.360 1_545 S
C162 C161 1.360 1_565 S
C162 C163 1.401 . S
C162 C167 1.446 1_565 S
C163 C162 1.401 . S
C163 C164 1.347 . S
C163 H223 0.929 . S
C164 C163 1.347 . S
C164 C165 1.455 . S
C164 H224 0.930 . S
C165 C152 1.412 . S
C165 C164 1.455 . S
C165 C166 1.331 1_565 S
C166 C155 1.451 . S
C166 C165 1.331 1_545 S
C166 C167 1.497 . S
C167 C158 1.395 . S
C167 C162 1.446 1_545 S
C167 C166 1.497 . S
C168 C169 1.582 . S
C168 H225 0.962 . S
C168 H226 0.959 . S
C168 H227 0.958 . S
C169 C168 1.582 . S
C169 O172 1.458 . S
C169 H198 0.980 . S
O170 C115 1.426 . S
O170 C116 1.334 . S
O171 C143 1.412 . S
O171 C144 1.393 . S
O172 C134 1.435 . S
O172 C169 1.458 . S
O173 C125 1.468 . S
O173 C126 1.408 . S
H174 C115 0.980 . S
H175 C114 0.959 . S
H176 C114 0.959 . S
H177 C114 0.960 . S
H178 C117 0.929 . S
H179 C121 0.929 . S
H180 C122 0.959 . S
H181 C122 0.961 . S
H182 C122 0.961 . S
H183 C123 0.960 . S
H184 C123 0.960 . S
H185 C123 0.961 . S
H186 C125 0.980 . S
H187 C124 0.961 . S
H188 C124 0.960 . S
H189 C124 0.959 . S
H190 C127 0.930 . S
H191 C131 0.931 . S
H192 C132 0.959 . S
H193 C132 0.961 . S
H194 C132 0.959 . S
H195 C133 0.960 . S
H196 C133 0.960 . S
H197 C133 0.960 . S
H198 C169 0.980 . S
H199 C135 0.930 . S
H200 C139 0.930 . S
H201 C140 0.961 . S
H202 C140 0.960 . S
H203 C140 0.958 . S
H204 C141 0.961 . S
H205 C141 0.960 . S
H206 C141 0.960 . S
H207 C143 0.980 . S
H208 C142 0.961 . S
H209 C142 0.961 . S
H210 C142 0.959 . S
H211 C145 0.932 . S
H212 C149 0.929 . S
H213 C150 0.957 1_565 S
H214 C150 0.959 . S
H215 C150 0.959 1_565 S
H216 C151 0.960 . S
H217 C151 0.962 . S
H218 C151 0.961 . S
H219 C153 0.929 . S
H220 C156 0.930 . S
H221 C157 0.929 . S
H222 C160 0.930 . S
H223 C163 0.929 . S
H224 C164 0.930 . S
H225 C168 0.962 . S
H226 C168 0.959 . S
H227 C168 0.958 . S
C228 C229 1.560 . S
C228 H289 0.959 . S
C228 H290 0.959 . S
C228 H291 0.960 . S
C229 C228 1.560 . S
C229 O284 1.426 . S
C229 H288 0.980 . S
C230 C231 1.407 . S
C230 C235 1.418 . S
C230 O284 1.334 . S
C231 C230 1.407 . S
C231 C232 1.360 . S
C231 H292 0.929 . S
C232 C231 1.360 . S
C232 C233 1.401 . S
C232 C236 1.527 . S
C233 C232 1.401 . S
C233 C234 1.405 . S
C233 C266 1.587 . S
C234 C233 1.405 . S
C234 C235 1.332 . S
C234 C237 1.496 . S
C235 C230 1.418 . S
C235 C234 1.332 . S
C235 H293 0.929 . S
C236 C232 1.527 . S
C236 H294 0.959 . S
C236 H295 0.961 . S
C236 H296 0.961 . S
C237 C234 1.496 . S
C237 H297 0.960 . S
C237 H298 0.960 . S
C237 H299 0.961 . S
C238 C239 1.517 . S
C238 H301 0.961 . S
C238 H302 0.960 . S
C238 H303 0.959 . S
C239 C238 1.517 . S
C239 O287 1.468 . S
C239 H300 0.980 . S
C240 C241 1.349 . S
C240 C245 1.367 . S
C240 O287 1.408 . S
C241 C240 1.349 . S
C241 C242 1.407 . S
C241 H304 0.930 . S
C242 C241 1.407 . S
C242 C243 1.449 . S
C242 C246 1.535 . S
C243 C242 1.449 . S
C243 C244 1.384 . S
C243 C268 1.553 . S
C244 C243 1.384 . S
C244 C245 1.364 . S
C244 C247 1.450 . S
C245 C240 1.367 . S
C245 C244 1.364 . S
C245 H305 0.931 . S
C246 C242 1.535 . S
C246 H306 0.959 . S
C246 H307 0.961 . S
C246 H308 0.959 . S
C247 C244 1.450 . S
C247 H309 0.960 . S
C247 H310 0.960 . S
C247 H311 0.960 . S
C248 C249 1.309 . S
C248 C253 1.304 . S
C248 O286 1.435 . S
C249 C248 1.309 . S
C249 C250 1.476 . S
C249 H313 0.930 . S
C250 C249 1.476 . S
C250 C251 1.400 . S
C250 C254 1.567 . S
C251 C250 1.400 . S
C251 C252 1.373 . S
C251 C273 1.432 . S
C252 C251 1.373 . S
C252 C253 1.339 . S
C252 C255 1.530 . S
C253 C248 1.304 . S
C253 C252 1.339 . S
C253 H314 0.930 . S
C254 C250 1.567 . S
C254 H315 0.961 . S
C254 H316 0.960 . S
C254 H317 0.958 . S
C255 C252 1.530 . S
C255 H318 0.961 . S
C255 H319 0.960 . S
C255 H320 0.960 . S
C256 C257 1.530 . S
C256 H322 0.961 . S
C256 H323 0.961 . S
C256 H324 0.959 . S
C257 C256 1.530 . S
C257 O285 1.412 . S
C257 H321 0.980 . S
C258 C259 1.288 . S
C258 C263 1.377 . S
C258 O285 1.393 . S
C259 C258 1.288 . S
C259 C260 1.369 . S
C259 H325 0.932 . S
C260 C259 1.369 . S
C260 C261 1.398 . S
C260 C264 1.527 . S
C261 C260 1.398 . S
C261 C262 1.380 . S
C261 C275 1.497 . S
C262 C261 1.380 . S
C262 C263 1.383 . S
C262 C265 1.603 . S
C263 C258 1.377 . S
C263 C262 1.383 . S
C263 H326 0.929 . S
C264 C260 1.527 . S
C264 H327 0.961 . S
C264 H328 0.959 . S
C264 H329 0.959 . S
C265 C262 1.603 . S
C265 H330 0.960 . S
C265 H331 0.962 . S
C265 H332 0.961 . S
C266 C233 1.587 . S
C266 C267 1.360 . S
C266 C279 1.412 . S
C267 C266 1.360 . S
C267 C268 1.365 . S
C267 H333 0.929 . S
C268 C243 1.553 . S
C268 C267 1.365 . S
C268 C269 1.404 . S
C269 C268 1.404 . S
C269 C270 1.395 . S
C269 C280 1.451 . S
C270 C269 1.395 . S
C270 C271 1.322 . S
C270 H334 0.930 . S
C271 C270 1.322 . S
C271 C272 1.459 . S
C271 H335 0.929 . S
C272 C271 1.459 . S
C272 C273 1.445 . S
C272 C281 1.395 . S
C273 C251 1.432 . S
C273 C272 1.445 . S
C273 C274 1.370 . S
C274 C273 1.370 . S
C274 C275 1.438 . S
C274 H336 0.930 . S
C275 C261 1.497 . S
C275 C274 1.438 . S
C275 C276 1.360 . S
C276 C275 1.360 . S
C276 C277 1.401 . S
C276 C281 1.446 . S
C277 C276 1.401 . S
C277 C278 1.347 . S
C277 H337 0.929 . S
C278 C277 1.347 . S
C278 C279 1.455 . S
C278 H338 0.930 . S
C279 C266 1.412 . S
C279 C278 1.455 . S
C279 C280 1.331 . S
C280 C269 1.451 . S
C280 C279 1.331 . S
C280 C281 1.497 . S
C281 C272 1.395 . S
C281 C276 1.446 . S
C281 C280 1.497 . S
C282 C283 1.582 . S
C282 H339 0.962 . S
C282 H340 0.959 . S
C282 H341 0.958 . S
C283 C282 1.582 . S
C283 O286 1.458 . S
C283 H312 0.980 . S
O284 C229 1.426 . S
O284 C230 1.334 . S
O285 C257 1.412 . S
O285 C258 1.393 . S
O286 C248 1.435 . S
O286 C283 1.458 . S
O287 C239 1.468 . S
O287 C240 1.408 . S
H288 C229 0.980 . S
H289 C228 0.959 . S
H290 C228 0.959 . S
H291 C228 0.960 . S
H292 C231 0.929 . S
H293 C235 0.929 . S
H294 C236 0.959 . S
H295 C236 0.961 . S
H296 C236 0.961 . S
H297 C237 0.960 . S
H298 C237 0.960 . S
H299 C237 0.961 . S
H300 C239 0.980 . S
H301 C238 0.961 . S
H302 C238 0.960 . S
H303 C238 0.959 . S
H304 C241 0.930 . S
H305 C245 0.931 . S
H306 C246 0.959 . S
H307 C246 0.961 . S
H308 C246 0.959 . S
H309 C247 0.960 . S
H310 C247 0.960 . S
H311 C247 0.960 . S
H312 C283 0.980 . S
H313 C249 0.930 . S
H314 C253 0.930 . S
H315 C254 0.961 . S
H316 C254 0.960 . S
H317 C254 0.958 . S
H318 C255 0.961 . S
H319 C255 0.960 . S
H320 C255 0.960 . S
H321 C257 0.980 . S
H322 C256 0.961 . S
H323 C256 0.961 . S
H324 C256 0.959 . S
H325 C259 0.932 . S
H326 C263 0.929 . S
H327 C264 0.961 . S
H328 C264 0.959 . S
H329 C264 0.959 . S
H330 C265 0.960 . S
H331 C265 0.962 . S
H332 C265 0.961 . S
H333 C267 0.929 . S
H334 C270 0.930 . S
H335 C271 0.929 . S
H336 C274 0.930 . S
H337 C277 0.929 . S
H338 C278 0.930 . S
H339 C282 0.962 . S
H340 C282 0.959 . S
H341 C282 0.958 . S
C342 C343 1.560 . S
C342 H403 0.959 . S
C342 H404 0.959 . S
C342 H405 0.960 . S
C343 C342 1.560 . S
C343 O398 1.426 . S
C343 H402 0.980 . S
C344 C345 1.407 . S
C344 C349 1.418 . S
C344 O398 1.334 . S
C345 C344 1.407 . S
C345 C346 1.360 . S
C345 H406 0.929 . S
C346 C345 1.360 . S
C346 C347 1.401 . S
C346 C350 1.527 . S
C347 C346 1.401 . S
C347 C348 1.405 . S
C347 C380 1.587 . S
C348 C347 1.405 . S
C348 C349 1.332 . S
C348 C351 1.496 . S
C349 C344 1.418 . S
C349 C348 1.332 . S
C349 H407 0.929 . S
C350 C346 1.527 . S
C350 H408 0.959 . S
C350 H409 0.961 . S
C350 H410 0.961 . S
C351 C348 1.496 . S
C351 H411 0.960 . S
C351 H412 0.960 . S
C351 H413 0.961 . S
C352 C353 1.517 . S
C352 H415 0.961 . S
C352 H416 0.960 . S
C352 H417 0.959 . S
C353 C352 1.517 . S
C353 O401 1.468 . S
C353 H414 0.980 . S
C354 C355 1.349 . S
C354 C359 1.367 . S
C354 O401 1.408 . S
C355 C354 1.349 . S
C355 C356 1.407 . S
C355 H418 0.930 . S
C356 C355 1.407 . S
C356 C357 1.449 . S
C356 C360 1.535 . S
C357 C356 1.449 . S
C357 C358 1.384 . S
C357 C382 1.553 1_655 S
C358 C357 1.384 . S
C358 C359 1.364 . S
C358 C361 1.450 . S
C359 C354 1.367 . S
C359 C358 1.364 . S
C359 H419 0.931 . S
C360 C356 1.535 . S
C360 H420 0.959 1_655 S
C360 H421 0.961 1_655 S
C360 H422 0.959 . S
C361 C358 1.450 . S
C361 H423 0.960 . S
C361 H424 0.960 1_655 S
C361 H425 0.960 . S
C362 C363 1.309 . S
C362 C367 1.304 . S
C362 O400 1.435 . S
C363 C362 1.309 . S
C363 C364 1.476 . S
C363 H427 0.930 . S
C364 C363 1.476 . S
C364 C365 1.400 . S
C364 C368 1.567 . S
C365 C364 1.400 . S
C365 C366 1.373 . S
C365 C387 1.432 . S
C366 C365 1.373 . S
C366 C367 1.339 . S
C366 C369 1.530 . S
C367 C362 1.304 . S
C367 C366 1.339 . S
C367 H428 0.930 . S
C368 C364 1.567 . S
C368 H429 0.961 . S
C368 H430 0.960 . S
C368 H431 0.958 . S
C369 C366 1.530 . S
C369 H432 0.961 . S
C369 H433 0.960 . S
C369 H434 0.960 . S
C370 C371 1.530 . S
C370 H436 0.961 . S
C370 H437 0.961 . S
C370 H438 0.959 . S
C371 C370 1.530 . S
C371 O399 1.412 . S
C371 H435 0.980 . S
C372 C373 1.288 . S
C372 C377 1.377 . S
C372 O399 1.393 . S
C373 C372 1.288 . S
C373 C374 1.369 . S
C373 H439 0.932 . S
C374 C373 1.369 . S
C374 C375 1.398 . S
C374 C378 1.527 . S
C375 C374 1.398 . S
C375 C376 1.380 . S
C375 C389 1.497 . S
C376 C375 1.380 . S
C376 C377 1.383 . S
C376 C379 1.603 . S
C377 C372 1.377 . S
C377 C376 1.383 . S
C377 H440 0.929 . S
C378 C374 1.527 . S
C378 H441 0.961 . S
C378 H442 0.959 1_455 S
C378 H443 0.959 . S
C379 C376 1.603 . S
C379 H444 0.960 . S
C379 H445 0.962 . S
C379 H446 0.961 . S
C380 C347 1.587 . S
C380 C381 1.360 . S
C380 C393 1.412 . S
C381 C380 1.360 . S
C381 C382 1.365 . S
C381 H447 0.929 . S
C382 C357 1.553 1_455 S
C382 C381 1.365 . S
C382 C383 1.412 . S
C383 C382 1.412 . S
C383 C384 1.377 1_455 S
C383 C394 1.464 . S
C384 C383 1.377 1_655 S
C384 C385 1.322 . S
C384 H448 0.930 . S
C385 C384 1.322 . S
C385 C386 1.459 . S
C385 H449 0.929 . S
C386 C385 1.459 . S
C386 C387 1.445 . S
C386 C395 1.395 1_655 S
C387 C365 1.432 . S
C387 C386 1.445 . S
C387 C388 1.370 . S
C388 C387 1.370 . S
C388 C389 1.438 1_655 S
C388 H450 0.930 . S
C389 C375 1.497 . S
C389 C388 1.438 1_455 S
C389 C390 1.360 . S
C390 C389 1.360 . S
C390 C391 1.401 . S
C390 C395 1.446 . S
C391 C390 1.401 . S
C391 C392 1.347 . S
C391 H451 0.929 . S
C392 C391 1.347 . S
C392 C393 1.455 . S
C392 H452 0.930 . S
C393 C380 1.412 . S
C393 C392 1.455 . S
C393 C394 1.331 . S
C394 C383 1.464 . S
C394 C393 1.331 . S
C394 C395 1.497 . S
C395 C386 1.395 1_455 S
C395 C390 1.446 . S
C395 C394 1.497 . S
C396 C397 1.582 . S
C396 H453 0.962 . S
C396 H454 0.959 . S
C396 H455 0.958 . S
C397 C396 1.582 . S
C397 O400 1.458 . S
C397 H426 0.980 . S
O398 C343 1.426 . S
O398 C344 1.334 . S
O399 C371 1.412 . S
O399 C372 1.393 . S
O400 C362 1.435 . S
O400 C397 1.458 . S
O401 C353 1.468 . S
O401 C354 1.408 . S
H402 C343 0.980 . S
H403 C342 0.959 . S
H404 C342 0.959 . S
H405 C342 0.960 . S
H406 C345 0.929 . S
H407 C349 0.929 . S
H408 C350 0.959 . S
H409 C350 0.961 . S
H410 C350 0.961 . S
H411 C351 0.960 . S
H412 C351 0.960 . S
H413 C351 0.961 . S
H414 C353 0.980 . S
H415 C352 0.961 . S
H416 C352 0.960 . S
H417 C352 0.959 . S
H418 C355 0.930 . S
H419 C359 0.931 . S
H420 C360 0.959 1_455 S
H421 C360 0.961 1_455 S
H422 C360 0.959 . S
H423 C361 0.960 . S
H424 C361 0.960 1_455 S
H425 C361 0.960 . S
H426 C397 0.980 . S
H427 C363 0.930 . S
H428 C367 0.930 . S
H429 C368 0.961 . S
H430 C368 0.960 . S
H431 C368 0.958 . S
H432 C369 0.961 . S
H433 C369 0.960 . S
H434 C369 0.960 . S
H435 C371 0.980 . S
H436 C370 0.961 . S
H437 C370 0.961 . S
H438 C370 0.959 . S
H439 C373 0.932 . S
H440 C377 0.929 . S
H441 C378 0.961 . S
H442 C378 0.959 1_655 S
H443 C378 0.959 . S
H444 C379 0.960 . S
H445 C379 0.962 . S
H446 C379 0.961 . S
H447 C381 0.929 . S
H448 C384 0.930 . S
H449 C385 0.929 . S
H450 C388 0.930 . S
H451 C391 0.929 . S
H452 C392 0.930 . S
H453 C396 0.962 . S
H454 C396 0.959 . S
H455 C396 0.958 . S
C456 C457 1.560 . S
C456 H517 0.959 . S
C456 H518 0.959 . S
C456 H519 0.960 . S
C457 C456 1.560 . S
C457 O512 1.426 . S
C457 H516 0.980 . S
C458 C459 1.407 . S
C458 C463 1.418 . S
C458 O512 1.334 . S
C459 C458 1.407 . S
C459 C460 1.360 . S
C459 H520 0.929 . S
C460 C459 1.360 . S
C460 C461 1.401 . S
C460 C464 1.527 . S
C461 C460 1.401 . S
C461 C462 1.405 . S
C461 C494 1.587 . S
C462 C461 1.405 . S
C462 C463 1.332 . S
C462 C465 1.496 . S
C463 C458 1.418 . S
C463 C462 1.332 . S
C463 H521 0.929 . S
C464 C460 1.527 . S
C464 H522 0.959 . S
C464 H523 0.961 . S
C464 H524 0.961 . S
C465 C462 1.496 . S
C465 H525 0.960 . S
C465 H526 0.960 . S
C465 H527 0.961 . S
C466 C467 1.517 . S
C466 H529 0.961 . S
C466 H530 0.960 . S
C466 H531 0.959 . S
C467 C466 1.517 . S
C467 O515 1.468 . S
C467 H528 0.980 . S
C468 C469 1.349 . S
C468 C473 1.367 . S
C468 O515 1.408 . S
C469 C468 1.349 . S
C469 C470 1.407 . S
C469 H532 0.930 . S
C470 C469 1.407 . S
C470 C471 1.449 . S
C470 C474 1.535 . S
C471 C470 1.449 . S
C471 C472 1.384 . S
C471 C496 1.553 . S
C472 C471 1.384 . S
C472 C473 1.364 . S
C472 C475 1.450 . S
C473 C468 1.367 . S
C473 C472 1.364 . S
C473 H533 0.931 . S
C474 C470 1.535 . S
C474 H534 0.959 . S
C474 H535 0.961 . S
C474 H536 0.959 . S
C475 C472 1.450 . S
C475 H537 0.960 . S
C475 H538 0.960 . S
C475 H539 0.960 . S
C476 C477 1.309 . S
C476 C481 1.304 . S
C476 O514 1.435 . S
C477 C476 1.309 . S
C477 C478 1.476 . S
C477 H541 0.930 . S
C478 C477 1.476 . S
C478 C479 1.400 . S
C478 C482 1.567 . S
C479 C478 1.400 . S
C479 C480 1.373 . S
C479 C501 1.432 . S
C480 C479 1.373 . S
C480 C481 1.339 . S
C480 C483 1.530 . S
C481 C476 1.304 . S
C481 C480 1.339 . S
C481 H542 0.930 . S
C482 C478 1.567 . S
C482 H543 0.961 . S
C482 H544 0.960 . S
C482 H545 0.958 . S
C483 C480 1.530 . S
C483 H546 0.961 . S
C483 H547 0.960 . S
C483 H548 0.960 . S
C484 C485 1.530 . S
C484 H550 0.961 . S
C484 H551 0.961 . S
C484 H552 0.959 . S
C485 C484 1.530 . S
C485 O513 1.412 . S
C485 H549 0.980 . S
C486 C487 1.288 . S
C486 C491 1.377 . S
C486 O513 1.393 . S
C487 C486 1.288 . S
C487 C488 1.369 . S
C487 H553 0.932 . S
C488 C487 1.369 . S
C488 C489 1.398 . S
C488 C492 1.527 1_565 S
C489 C488 1.398 . S
C489 C490 1.380 . S
C489 C503 1.497 1_565 S
C490 C489 1.380 . S
C490 C491 1.383 . S
C490 C493 1.603 . S
C491 C486 1.377 . S
C491 C490 1.383 . S
C491 H554 0.929 . S
C492 C488 1.527 1_545 S
C492 H555 0.961 . S
C492 H556 0.959 . S
C492 H557 0.959 1_545 S
C493 C490 1.603 . S
C493 H558 0.960 . S
C493 H559 0.962 . S
C493 H560 0.961 . S
C494 C461 1.587 . S
C494 C495 1.360 . S
C494 C507 1.412 . S
C495 C494 1.360 . S
C495 C496 1.365 1_565 S
C495 H561 0.929 . S
C496 C471 1.553 . S
C496 C495 1.365 1_545 S
C496 C497 1.404 . S
C497 C496 1.404 . S
C497 C498 1.395 . S
C497 C508 1.436 1_545 S
C498 C497 1.395 . S
C498 C499 1.322 . S
C498 H562 0.930 . S
C499 C498 1.322 . S
C499 C500 1.478 . S
C499 H563 0.929 . S
C500 C499 1.478 . S
C500 C501 1.423 1_556 S
C500 C509 1.398 . S
C501 C479 1.432 . S
C501 C500 1.423 1_554 S
C501 C502 1.370 . S
C502 C501 1.370 . S
C502 C503 1.438 . S
C502 H564 0.930 . S
C503 C489 1.497 1_545 S
C503 C502 1.438 . S
C503 C504 1.360 1_545 S
C504 C503 1.360 1_565 S
C504 C505 1.401 . S
C504 C509 1.446 1_564 S
C505 C504 1.401 . S
C505 C506 1.347 1_554 S
C505 H565 0.929 . S
C506 C505 1.347 1_556 S
C506 C507 1.455 . S
C506 H566 0.930 . S
C507 C494 1.412 . S
C507 C506 1.455 . S
C507 C508 1.351 . S
C508 C497 1.436 1_565 S
C508 C507 1.351 . S
C508 C509 1.489 1_565 S
C509 C500 1.398 . S
C509 C504 1.446 1_546 S
C509 C508 1.489 1_545 S
C510 C511 1.582 . S
C510 H567 0.962 . S
C510 H568 0.959 . S
C510 H569 0.958 . S
C511 C510 1.582 . S
C511 O514 1.458 . S
C511 H540 0.980 . S
O512 C457 1.426 . S
O512 C458 1.334 . S
O513 C485 1.412 . S
O513 C486 1.393 . S
O514 C476 1.435 . S
O514 C511 1.458 . S
O515 C467 1.468 . S
O515 C468 1.408 . S
H516 C457 0.980 . S
H517 C456 0.959 . S
H518 C456 0.959 . S
H519 C456 0.960 . S
H520 C459 0.929 . S
H521 C463 0.929 . S
H522 C464 0.959 . S
H523 C464 0.961 . S
H524 C464 0.961 . S
H525 C465 0.960 . S
H526 C465 0.960 . S
H527 C465 0.961 . S
H528 C467 0.980 . S
H529 C466 0.961 . S
H530 C466 0.960 . S
H531 C466 0.959 . S
H532 C469 0.930 . S
H533 C473 0.931 . S
H534 C474 0.959 . S
H535 C474 0.961 . S
H536 C474 0.959 . S
H537 C475 0.960 . S
H538 C475 0.960 . S
H539 C475 0.960 . S
H540 C511 0.980 . S
H541 C477 0.930 . S
H542 C481 0.930 . S
H543 C482 0.961 . S
H544 C482 0.960 . S
H545 C482 0.958 . S
H546 C483 0.961 . S
H547 C483 0.960 . S
H548 C483 0.960 . S
H549 C485 0.980 . S
H550 C484 0.961 . S
H551 C484 0.961 . S
H552 C484 0.959 . S
H553 C487 0.932 . S
H554 C491 0.929 . S
H555 C492 0.961 . S
H556 C492 0.959 . S
H557 C492 0.959 1_565 S
H558 C493 0.960 . S
H559 C493 0.962 . S
H560 C493 0.961 . S
H561 C495 0.929 . S
H562 C498 0.930 . S
H563 C499 0.929 . S
H564 C502 0.930 . S
H565 C505 0.929 . S
H566 C506 0.930 . S
H567 C510 0.962 . S
H568 C510 0.959 . S
H569 C510 0.958 . S
C570 C571 1.560 . S
C570 H631 0.959 . S
C570 H632 0.959 . S
C570 H633 0.960 . S
C571 C570 1.560 . S
C571 O626 1.426 . S
C571 H630 0.980 . S
C572 C573 1.407 . S
C572 C577 1.418 . S
C572 O626 1.334 . S
C573 C572 1.407 . S
C573 C574 1.360 . S
C573 H634 0.929 . S
C574 C573 1.360 . S
C574 C575 1.401 . S
C574 C578 1.527 . S
C575 C574 1.401 . S
C575 C576 1.405 . S
C575 C608 1.587 . S
C576 C575 1.405 . S
C576 C577 1.332 . S
C576 C579 1.496 . S
C577 C572 1.418 . S
C577 C576 1.332 . S
C577 H635 0.929 . S
C578 C574 1.527 . S
C578 H636 0.959 . S
C578 H637 0.961 . S
C578 H638 0.961 . S
C579 C576 1.496 . S
C579 H639 0.960 . S
C579 H640 0.960 . S
C579 H641 0.961 . S
C580 C581 1.517 1_556 S
C580 H643 0.961 . S
C580 H644 0.960 . S
C580 H645 0.959 . S
C581 C580 1.517 1_554 S
C581 O629 1.468 . S
C581 H642 0.980 1_554 S
C582 C583 1.349 . S
C582 C587 1.367 . S
C582 O629 1.408 . S
C583 C582 1.349 . S
C583 C584 1.407 . S
C583 H646 0.930 . S
C584 C583 1.407 . S
C584 C585 1.449 . S
C584 C588 1.535 . S
C585 C584 1.449 . S
C585 C586 1.384 . S
C585 C610 1.553 . S
C586 C585 1.384 . S
C586 C587 1.364 . S
C586 C589 1.450 . S
C587 C582 1.367 . S
C587 C586 1.364 . S
C587 H647 0.931 . S
C588 C584 1.535 . S
C588 H648 0.959 . S
C588 H649 0.961 . S
C588 H650 0.959 . S
C589 C586 1.450 . S
C589 H651 0.960 . S
C589 H652 0.960 . S
C589 H653 0.960 . S
C590 C591 1.309 . S
C590 C595 1.304 . S
C590 O628 1.435 . S
C591 C590 1.309 . S
C591 C592 1.476 . S
C591 H655 0.930 . S
C592 C591 1.476 . S
C592 C593 1.400 . S
C592 C596 1.567 . S
C593 C592 1.400 . S
C593 C594 1.373 . S
C593 C615 1.432 . S
C594 C593 1.373 . S
C594 C595 1.339 . S
C594 C597 1.530 . S
C595 C590 1.304 . S
C595 C594 1.339 . S
C595 H656 0.930 . S
C596 C592 1.567 . S
C596 H657 0.961 . S
C596 H658 0.960 . S
C596 H659 0.958 . S
C597 C594 1.530 . S
C597 H660 0.961 . S
C597 H661 0.960 . S
C597 H662 0.960 . S
C598 C599 1.530 . S
C598 H664 0.961 . S
C598 H665 0.961 . S
C598 H666 0.959 . S
C599 C598 1.530 . S
C599 O627 1.412 . S
C599 H663 0.980 . S
C600 C601 1.288 . S
C600 C605 1.377 . S
C600 O627 1.393 . S
C601 C600 1.288 . S
C601 C602 1.369 . S
C601 H667 0.932 . S
C602 C601 1.369 . S
C602 C603 1.398 . S
C602 C606 1.527 . S
C603 C602 1.398 . S
C603 C604 1.380 . S
C603 C617 1.497 . S
C604 C603 1.380 . S
C604 C605 1.383 . S
C604 C607 1.603 . S
C605 C600 1.377 . S
C605 C604 1.383 . S
C605 H668 0.929 . S
C606 C602 1.527 . S
C606 H669 0.961 . S
C606 H670 0.959 . S
C606 H671 0.959 . S
C607 C604 1.603 . S
C607 H672 0.960 . S
C607 H673 0.962 . S
C607 H674 0.961 . S
C608 C575 1.587 . S
C608 C609 1.360 . S
C608 C621 1.412 . S
C609 C608 1.360 . S
C609 C610 1.365 . S
C609 H675 0.929 . S
C610 C585 1.553 . S
C610 C609 1.365 . S
C610 C611 1.404 . S
C611 C610 1.404 . S
C611 C612 1.395 . S
C611 C622 1.451 . S
C612 C611 1.395 . S
C612 C613 1.322 . S
C612 H676 0.930 . S
C613 C612 1.322 . S
C613 C614 1.459 . S
C613 H677 0.929 . S
C614 C613 1.459 . S
C614 C615 1.445 . S
C614 C623 1.395 . S
C615 C593 1.432 . S
C615 C614 1.445 . S
C615 C616 1.370 . S
C616 C615 1.370 . S
C616 C617 1.438 . S
C616 H678 0.930 . S
C617 C603 1.497 . S
C617 C616 1.438 . S
C617 C618 1.360 . S
C618 C617 1.360 . S
C618 C619 1.401 . S
C618 C623 1.446 . S
C619 C618 1.401 . S
C619 C620 1.347 . S
C619 H679 0.929 . S
C620 C619 1.347 . S
C620 C621 1.455 . S
C620 H680 0.930 . S
C621 C608 1.412 . S
C621 C620 1.455 . S
C621 C622 1.331 . S
C622 C611 1.451 . S
C622 C621 1.331 . S
C622 C623 1.497 . S
C623 C614 1.395 . S
C623 C618 1.446 . S
C623 C622 1.497 . S
C624 C625 1.582 . S
C624 H681 0.962 . S
C624 H682 0.959 . S
C624 H683 0.958 . S
C625 C624 1.582 . S
C625 O628 1.458 . S
C625 H654 0.980 . S
O626 C571 1.426 . S
O626 C572 1.334 . S
O627 C599 1.412 . S
O627 C600 1.393 . S
O628 C590 1.435 . S
O628 C625 1.458 . S
O629 C581 1.468 . S
O629 C582 1.408 . S
H630 C571 0.980 . S
H631 C570 0.959 . S
H632 C570 0.959 . S
H633 C570 0.960 . S
H634 C573 0.929 . S
H635 C577 0.929 . S
H636 C578 0.959 . S
H637 C578 0.961 . S
H638 C578 0.961 . S
H639 C579 0.960 . S
H640 C579 0.960 . S
H641 C579 0.961 . S
H642 C581 0.980 1_556 S
H643 C580 0.961 . S
H644 C580 0.960 . S
H645 C580 0.959 . S
H646 C583 0.930 . S
H647 C587 0.931 . S
H648 C588 0.959 . S
H649 C588 0.961 . S
H650 C588 0.959 . S
H651 C589 0.960 . S
H652 C589 0.960 . S
H653 C589 0.960 . S
H654 C625 0.980 . S
H655 C591 0.930 . S
H656 C595 0.930 . S
H657 C596 0.961 . S
H658 C596 0.960 . S
H659 C596 0.958 . S
H660 C597 0.961 . S
H661 C597 0.960 . S
H662 C597 0.960 . S
H663 C599 0.980 . S
H664 C598 0.961 . S
H665 C598 0.961 . S
H666 C598 0.959 . S
H667 C601 0.932 . S
H668 C605 0.929 . S
H669 C606 0.961 . S
H670 C606 0.959 . S
H671 C606 0.959 . S
H672 C607 0.960 . S
H673 C607 0.962 . S
H674 C607 0.961 . S
H675 C609 0.929 . S
H676 C612 0.930 . S
H677 C613 0.929 . S
H678 C616 0.930 . S
H679 C619 0.929 . S
H680 C620 0.930 . S
H681 C624 0.962 . S
H682 C624 0.959 . S
H683 C624 0.958 . S
C684 O685 1.160 . S
C684 O691 1.185 . S
O685 C684 1.160 . S
O686 Zn687 1.899 . S
O686 C694 1.284 . S
Zn687 O686 1.899 . S
Zn687 O688 2.032 . S
Zn687 O691 2.086 . S
Zn687 O696 1.977 . S
O688 Zn687 2.032 . S
O688 C692 1.278 . S
C689 O690 1.203 . S
C689 O696 1.267 . S
O690 C689 1.203 . S
O691 C684 1.185 . S
O691 Zn687 2.086 . S
C692 O688 1.278 . S
C692 O693 1.211 . S
O693 C692 1.211 . S
C694 O686 1.284 . S
C694 O695 1.273 . S
O695 C694 1.273 . S
O696 Zn687 1.977 . S
O696 C689 1.267 . S
C697 O698 1.160 . S
C697 O704 1.185 . S
O698 C697 1.160 . S
O699 Zn700 1.899 . S
O699 C707 1.284 . S
Zn700 O699 1.899 . S
Zn700 O701 2.032 . S
Zn700 O704 2.086 . S
Zn700 O709 1.977 . S
O701 Zn700 2.032 . S
O701 C705 1.278 . S
C702 O703 1.203 . S
C702 O709 1.267 . S
O703 C702 1.203 . S
O704 C697 1.185 . S
O704 Zn700 2.086 . S
C705 O701 1.278 . S
C705 O706 1.211 . S
O706 C705 1.211 . S
C707 O699 1.284 . S
C707 O708 1.273 . S
O708 C707 1.273 . S
O709 Zn700 1.977 . S
O709 C702 1.267 . S
C710 O711 1.160 . S
C710 O717 1.185 . S
O711 C710 1.160 . S
O712 Zn713 1.899 . S
O712 C720 1.284 . S
Zn713 O712 1.899 . S
Zn713 O714 2.032 . S
Zn713 O717 2.086 . S
Zn713 O722 1.977 . S
O714 Zn713 2.032 . S
O714 C718 1.278 . S
C715 O716 1.203 . S
C715 O722 1.267 . S
O716 C715 1.203 . S
O717 C710 1.185 . S
O717 Zn713 2.086 . S
C718 O714 1.278 . S
C718 O719 1.211 . S
O719 C718 1.211 . S
C720 O712 1.284 . S
C720 O721 1.273 . S
O721 C720 1.273 . S
O722 Zn713 1.977 . S
O722 C715 1.267 . S
C723 O724 1.160 . S
C723 O730 1.185 . S
O724 C723 1.160 . S
O725 Zn726 1.899 . S
O725 C733 1.284 . S
Zn726 O725 1.899 . S
Zn726 O727 2.032 . S
Zn726 O730 2.086 . S
Zn726 O735 1.977 . S
O727 Zn726 2.032 . S
O727 C731 1.278 . S
C728 O729 1.203 . S
C728 O735 1.267 . S
O729 C728 1.203 . S
O730 C723 1.185 . S
O730 Zn726 2.086 . S
C731 O727 1.278 . S
C731 O732 1.211 . S
O732 C731 1.211 . S
C733 O725 1.284 . S
C733 O734 1.273 . S
O734 C733 1.273 . S
O735 Zn726 1.977 . S
O735 C728 1.267 . S
C736 O737 1.160 . S
C736 O743 1.185 . S
O737 C736 1.160 . S
O738 Zn739 1.899 . S
O738 C746 1.284 . S
Zn739 O738 1.899 . S
Zn739 O740 2.032 . S
Zn739 O743 2.086 . S
Zn739 O748 1.977 . S
O740 Zn739 2.032 . S
O740 C744 1.278 . S
C741 O742 1.203 . S
C741 O748 1.267 . S
O742 C741 1.203 . S
O743 C736 1.185 . S
O743 Zn739 2.086 . S
C744 O740 1.278 . S
C744 O745 1.211 . S
O745 C744 1.211 . S
C746 O738 1.284 . S
C746 O747 1.273 . S
O747 C746 1.273 . S
O748 Zn739 1.977 . S
O748 C741 1.267 . S
C749 O750 1.160 . S
C749 O756 1.185 . S
O750 C749 1.160 . S
O751 Zn752 1.899 . S
O751 C759 1.284 . S
Zn752 O751 1.899 . S
Zn752 O753 2.032 . S
Zn752 O756 2.086 . S
Zn752 O761 1.977 . S
O753 Zn752 2.032 . S
O753 C757 1.278 . S
C754 O755 1.203 . S
C754 O761 1.267 . S
O755 C754 1.203 . S
O756 C749 1.185 . S
O756 Zn752 2.086 . S
C757 O753 1.278 . S
C757 O758 1.211 . S
O758 C757 1.211 . S
C759 O751 1.284 . S
C759 O760 1.273 . S
O760 C759 1.273 . S
O761 Zn752 1.977 . S
O761 C754 1.267 . S
C762 C763 1.369 . S
C762 C764 1.419 . S
C762 H766 0.930 . S
C763 C762 1.369 . S
C763 C772 1.429 . S
C764 C762 1.419 . S
C764 C765 1.363 . S
C764 H767 0.929 . S
C765 C764 1.363 . S
C765 C771 1.428 . S
H766 C762 0.930 . S
H767 C764 0.929 . S
S768 N769 1.613 . S
S768 N770 1.610 . S
N769 S768 1.613 . S
N769 C772 1.350 . S
N770 S768 1.610 . S
N770 C771 1.351 . S
C771 C765 1.428 . S
C771 N770 1.351 . S
C771 C772 1.434 . S
C772 C763 1.429 . S
C772 N769 1.350 . S
C772 C771 1.434 . S
C773 C774 1.369 . S
C773 C775 1.419 . S
C773 H777 0.930 . S
C774 C773 1.369 . S
C774 C783 1.429 . S
C775 C773 1.419 . S
C775 C776 1.363 . S
C775 H778 0.929 . S
C776 C775 1.363 . S
C776 C782 1.428 . S
H777 C773 0.930 . S
H778 C775 0.929 . S
S779 N780 1.613 . S
S779 N781 1.610 . S
N780 S779 1.613 . S
N780 C783 1.350 . S
N781 S779 1.610 . S
N781 C782 1.351 . S
C782 C776 1.428 . S
C782 N781 1.351 . S
C782 C783 1.434 . S
C783 C774 1.429 . S
C783 N780 1.350 . S
C783 C782 1.434 . S
C784 C785 1.369 . S
C784 C786 1.419 . S
C784 H788 0.930 . S
C785 C784 1.369 . S
C785 C794 1.429 . S
C786 C784 1.419 . S
C786 C787 1.363 . S
C786 H789 0.929 . S
C787 C786 1.363 . S
C787 C793 1.428 . S
H788 C784 0.930 . S
H789 C786 0.929 . S
S790 N791 1.613 . S
S790 N792 1.610 . S
N791 S790 1.613 . S
N791 C794 1.350 . S
N792 S790 1.610 . S
N792 C793 1.351 . S
C793 C787 1.428 . S
C793 N792 1.351 . S
C793 C794 1.434 . S
C794 C785 1.429 . S
C794 N791 1.350 . S
C794 C793 1.434 . S
C795 C796 1.369 . S
C795 C797 1.419 . S
C795 H799 0.930 . S
C796 C795 1.369 . S
C796 C805 1.429 . S
C797 C795 1.419 . S
C797 C798 1.363 . S
C797 H800 0.929 . S
C798 C797 1.363 . S
C798 C804 1.428 . S
H799 C795 0.930 . S
H800 C797 0.929 . S
S801 N802 1.613 . S
S801 N803 1.610 . S
N802 S801 1.613 . S
N802 C805 1.350 . S
N803 S801 1.610 . S
N803 C804 1.351 . S
C804 C798 1.428 . S
C804 N803 1.351 . S
C804 C805 1.434 . S
C805 C796 1.429 . S
C805 N802 1.350 . S
C805 C804 1.434 . S
C806 C807 1.369 . S
C806 C808 1.419 . S
C806 H810 0.930 . S
C807 C806 1.369 . S
C807 C816 1.429 . S
C808 C806 1.419 . S
C808 C809 1.363 . S
C808 H811 0.929 . S
C809 C808 1.363 . S
C809 C815 1.428 . S
H810 C806 0.930 . S
H811 C808 0.929 . S
S812 N813 1.613 . S
S812 N814 1.610 . S
N813 S812 1.613 . S
N813 C816 1.350 . S
N814 S812 1.610 . S
N814 C815 1.351 . S
C815 C809 1.428 . S
C815 N814 1.351 . S
C815 C816 1.434 . S
C816 C807 1.429 . S
C816 N813 1.350 . S
C816 C815 1.434 . S
C817 C818 1.369 . S
C817 C819 1.419 . S
C817 H821 0.930 . S
C818 C817 1.369 . S
C818 C827 1.429 . S
C819 C817 1.419 . S
C819 C820 1.363 . S
C819 H822 0.929 . S
C820 C819 1.363 . S
C820 C826 1.428 . S
H821 C817 0.930 . S
H822 C819 0.929 . S
S823 N824 1.613 . S
S823 N825 1.610 . S
N824 S823 1.613 . S
N824 C827 1.350 . S
N825 S823 1.610 . S
N825 C826 1.351 . S
C826 C820 1.428 . S
C826 N825 1.351 . S
C826 C827 1.434 . S
C827 C818 1.429 . S
C827 N824 1.350 . S
C827 C826 1.434 . S
C828 C829 1.369 . S
C828 C830 1.419 . S
C828 H832 0.930 . S
C829 C828 1.369 . S
C829 C838 1.429 . S
C830 C828 1.419 . S
C830 C831 1.363 . S
C830 H833 0.929 . S
C831 C830 1.363 . S
C831 C837 1.428 . S
H832 C828 0.930 . S
H833 C830 0.929 . S
S834 N835 1.613 . S
S834 N836 1.610 . S
N835 S834 1.613 . S
N835 C838 1.350 . S
N836 S834 1.610 . S
N836 C837 1.351 . S
C837 C831 1.428 . S
C837 N836 1.351 . S
C837 C838 1.434 . S
C838 C829 1.429 . S
C838 N835 1.350 . S
C838 C837 1.434 . S
C839 C840 1.369 . S
C839 C841 1.419 . S
C839 H843 0.930 . S
C840 C839 1.369 . S
C840 C849 1.429 . S
C841 C839 1.419 . S
C841 C842 1.363 . S
C841 H844 0.929 . S
C842 C841 1.363 . S
C842 C848 1.428 . S
H843 C839 0.930 . S
H844 C841 0.929 . S
S845 N846 1.613 . S
S845 N847 1.610 . S
N846 S845 1.613 . S
N846 C849 1.350 . S
N847 S845 1.610 . S
N847 C848 1.351 . S
C848 C842 1.428 . S
C848 N847 1.351 . S
C848 C849 1.434 . S
C849 C840 1.429 . S
C849 N846 1.350 . S
C849 C848 1.434 . S
C850 C851 1.369 . S
C850 C852 1.419 . S
C850 H854 0.930 . S
C851 C850 1.369 . S
C851 C860 1.429 . S
C852 C850 1.419 . S
C852 C853 1.363 . S
C852 H855 0.929 . S
C853 C852 1.363 . S
C853 C859 1.428 . S
H854 C850 0.930 . S
H855 C852 0.929 . S
S856 N857 1.613 . S
S856 N858 1.610 . S
N857 S856 1.613 . S
N857 C860 1.350 . S
N858 S856 1.610 . S
N858 C859 1.351 . S
C859 C853 1.428 . S
C859 N858 1.351 . S
C859 C860 1.434 . S
C860 C851 1.429 . S
C860 N857 1.350 . S
C860 C859 1.434 . S
C861 C862 1.369 . S
C861 C863 1.419 . S
C861 H865 0.930 . S
C862 C861 1.369 . S
C862 C871 1.429 . S
C863 C861 1.419 . S
C863 C864 1.363 . S
C863 H866 0.929 . S
C864 C863 1.363 . S
C864 C870 1.428 . S
H865 C861 0.930 . S
H866 C863 0.929 . S
S867 N868 1.613 . S
S867 N869 1.610 . S
N868 S867 1.613 . S
N868 C871 1.350 . S
N869 S867 1.610 . S
N869 C870 1.351 . S
C870 C864 1.428 . S
C870 N869 1.351 . S
C870 C871 1.434 . S
C871 C862 1.429 . S
C871 N868 1.350 . S
C871 C870 1.434 . S
C872 C873 1.369 . S
C872 C874 1.419 . S
C872 H876 0.930 . S
C873 C872 1.369 . S
C873 C882 1.429 . S
C874 C872 1.419 . S
C874 C875 1.363 . S
C874 H877 0.929 . S
C875 C874 1.363 . S
C875 C881 1.428 . S
H876 C872 0.930 . S
H877 C874 0.929 . S
S878 N879 1.613 . S
S878 N880 1.610 . S
N879 S878 1.613 . S
N879 C882 1.350 . S
N880 S878 1.610 . S
N880 C881 1.351 . S
C881 C875 1.428 . S
C881 N880 1.351 . S
C881 C882 1.434 . S
C882 C873 1.429 . S
C882 N879 1.350 . S
C882 C881 1.434 . S
C883 C884 1.369 . S
C883 C885 1.419 . S
C883 H887 0.930 . S
C884 C883 1.369 . S
C884 C893 1.429 . S
C885 C883 1.419 . S
C885 C886 1.363 . S
C885 H888 0.929 . S
C886 C885 1.363 . S
C886 C892 1.428 . S
H887 C883 0.930 . S
H888 C885 0.929 . S
S889 N890 1.613 . S
S889 N891 1.610 . S
N890 S889 1.613 . S
N890 C893 1.350 . S
N891 S889 1.610 . S
N891 C892 1.351 . S
C892 C886 1.428 . S
C892 N891 1.351 . S
C892 C893 1.434 . S
C893 C884 1.429 . S
C893 N890 1.350 . S
C893 C892 1.434 . S
C894 C895 1.369 . S
C894 C896 1.419 . S
C894 H898 0.930 . S
C895 C894 1.369 . S
C895 C904 1.429 . S
C896 C894 1.419 . S
C896 C897 1.363 . S
C896 H899 0.929 . S
C897 C896 1.363 . S
C897 C903 1.428 . S
H898 C894 0.930 . S
H899 C896 0.929 . S
S900 N901 1.613 . S
S900 N902 1.610 . S
N901 S900 1.613 . S
N901 C904 1.350 . S
N902 S900 1.610 . S
N902 C903 1.351 . S
C903 C897 1.428 . S
C903 N902 1.351 . S
C903 C904 1.434 . S
C904 C895 1.429 . S
C904 N901 1.350 . S
C904 C903 1.434 . S
C905 C906 1.369 . S
C905 C907 1.419 . S
C905 H909 0.930 . S
C906 C905 1.369 . S
C906 C915 1.429 . S
C907 C905 1.419 . S
C907 C908 1.363 . S
C907 H910 0.929 . S
C908 C907 1.363 . S
C908 C914 1.428 . S
H909 C905 0.930 . S
H910 C907 0.929 . S
S911 N912 1.613 . S
S911 N913 1.610 . S
N912 S911 1.613 . S
N912 C915 1.350 . S
N913 S911 1.610 . S
N913 C914 1.351 . S
C914 C908 1.428 . S
C914 N913 1.351 . S
C914 C915 1.434 . S
C915 C906 1.429 . S
C915 N912 1.350 . S
C915 C914 1.434 . S
C916 C917 1.369 . S
C916 C918 1.419 . S
C916 H920 0.930 . S
C917 C916 1.369 . S
C917 C926 1.429 . S
C918 C916 1.419 . S
C918 C919 1.363 . S
C918 H921 0.929 . S
C919 C918 1.363 . S
C919 C925 1.428 . S
H920 C916 0.930 . S
H921 C918 0.929 . S
S922 N923 1.613 . S
S922 N924 1.610 . S
N923 S922 1.613 . S
N923 C926 1.350 . S
N924 S922 1.610 . S
N924 C925 1.351 . S
C925 C919 1.428 . S
C925 N924 1.351 . S
C925 C926 1.434 . S
C926 C917 1.429 . S
C926 N923 1.350 . S
C926 C925 1.434 . S
C927 C928 1.369 . S
C927 C929 1.419 1_556 S
C927 H931 0.930 . S
C928 C927 1.369 . S
C928 C937 1.429 . S
C929 C927 1.419 1_554 S
C929 C930 1.363 . S
C929 H932 0.929 . S
C930 C929 1.363 . S
C930 C936 1.428 1_554 S
H931 C927 0.930 . S
H932 C929 0.929 . S
S933 N934 1.613 . S
S933 N935 1.610 . S
N934 S933 1.613 . S
N934 C937 1.350 . S
N935 S933 1.610 . S
N935 C936 1.351 . S
C936 C930 1.428 1_556 S
C936 N935 1.351 . S
C936 C937 1.434 . S
C937 C928 1.429 . S
C937 N934 1.350 . S
C937 C936 1.434 . S
C938 C939 1.369 . S
C938 C940 1.419 . S
C938 H942 0.930 . S
C939 C938 1.369 . S
C939 C948 1.429 . S
C940 C938 1.419 . S
C940 C941 1.363 . S
C940 H943 0.929 . S
C941 C940 1.363 . S
C941 C947 1.428 . S
H942 C938 0.930 . S
H943 C940 0.929 . S
S944 N945 1.613 . S
S944 N946 1.610 . S
N945 S944 1.613 . S
N945 C948 1.350 . S
N946 S944 1.610 . S
N946 C947 1.351 . S
C947 C941 1.428 . S
C947 N946 1.351 . S
C947 C948 1.434 . S
C948 C939 1.429 . S
C948 N945 1.350 . S
C948 C947 1.434 . S
C949 C950 1.369 . S
C949 C951 1.419 . S
C949 H953 0.930 . S
C950 C949 1.369 . S
C950 C959 1.429 . S
C951 C949 1.419 . S
C951 C952 1.363 . S
C951 H954 0.929 . S
C952 C951 1.363 . S
C952 C958 1.428 . S
H953 C949 0.930 . S
H954 C951 0.929 . S
S955 N956 1.613 . S
S955 N957 1.610 . S
N956 S955 1.613 . S
N956 C959 1.350 . S
N957 S955 1.610 . S
N957 C958 1.351 . S
C958 C952 1.428 . S
C958 N957 1.351 . S
C958 C959 1.434 . S
C959 C950 1.429 . S
C959 N956 1.350 . S
C959 C958 1.434 . S
C960 C961 1.369 . S
C960 C962 1.419 . S
C960 H964 0.930 . S
C961 C960 1.369 . S
C961 C970 1.429 . S
C962 C960 1.419 . S
C962 C963 1.363 . S
C962 H965 0.929 . S
C963 C962 1.363 . S
C963 C969 1.428 . S
H964 C960 0.930 . S
H965 C962 0.929 . S
S966 N967 1.613 . S
S966 N968 1.610 . S
N967 S966 1.613 . S
N967 C970 1.350 . S
N968 S966 1.610 . S
N968 C969 1.351 . S
C969 C963 1.428 . S
C969 N968 1.351 . S
C969 C970 1.434 . S
C970 C961 1.429 . S
C970 N967 1.350 . S
C970 C969 1.434 . S
C971 C972 1.369 . S
C971 C973 1.419 . S
C971 H975 0.930 . S
C972 C971 1.369 . S
C972 C981 1.429 . S
C973 C971 1.419 . S
C973 C974 1.363 . S
C973 H976 0.929 . S
C974 C973 1.363 . S
C974 C980 1.428 . S
H975 C971 0.930 . S
H976 C973 0.929 . S
S977 N978 1.613 . S
S977 N979 1.610 . S
N978 S977 1.613 . S
N978 C981 1.350 . S
N979 S977 1.610 . S
N979 C980 1.351 . S
C980 C974 1.428 . S
C980 N979 1.351 . S
C980 C981 1.434 . S
C981 C972 1.429 . S
C981 N978 1.350 . S
C981 C980 1.434 . S
C982 C983 1.369 . S
C982 C984 1.419 . S
C982 H986 0.930 . S
C983 C982 1.369 . S
C983 C992 1.429 . S
C984 C982 1.419 . S
C984 C985 1.363 . S
C984 H987 0.929 . S
C985 C984 1.363 . S
C985 C991 1.428 . S
H986 C982 0.930 . S
H987 C984 0.929 . S
S988 N989 1.613 . S
S988 N990 1.610 . S
N989 S988 1.613 . S
N989 C992 1.350 . S
N990 S988 1.610 . S
N990 C991 1.351 . S
C991 C985 1.428 . S
C991 N990 1.351 . S
C991 C992 1.434 . S
C992 C983 1.429 . S
C992 N989 1.350 . S
C992 C991 1.434 . S
C993 C994 1.369 . S
C993 C995 1.419 . S
C993 H997 0.930 . S
C994 C993 1.369 . S
C994 C1003 1.429 . S
C995 C993 1.419 . S
C995 C996 1.363 . S
C995 H998 0.929 . S
C996 C995 1.363 . S
C996 C1002 1.428 . S
H997 C993 0.930 . S
H998 C995 0.929 . S
S999 N1000 1.613 . S
S999 N1001 1.610 . S
N1000 S999 1.613 . S
N1000 C1003 1.350 . S
N1001 S999 1.610 . S
N1001 C1002 1.351 . S
C1002 C996 1.428 . S
C1002 N1001 1.351 . S
C1002 C1003 1.434 . S
C1003 C994 1.429 . S
C1003 N1000 1.350 . S
C1003 C1002 1.434 . S
C1004 C1005 1.371 . S
C1004 C1006 1.419 . S
C1004 H1008 0.930 1_556 S
C1005 C1004 1.371 . S
C1005 C1014 1.465 . S
C1006 C1004 1.419 . S
C1006 C1007 1.363 . S
C1006 H1009 0.929 . S
C1007 C1006 1.363 . S
C1007 C1013 1.428 . S
H1008 C1004 0.930 1_554 S
H1009 C1006 0.929 . S
S1010 N1011 1.613 . S
S1010 N1012 1.610 . S
N1011 S1010 1.613 . S
N1011 C1014 1.350 . S
N1012 S1010 1.610 . S
N1012 C1013 1.351 . S
C1013 C1007 1.428 . S
C1013 N1012 1.351 . S
C1013 C1014 1.434 . S
C1014 C1005 1.465 . S
C1014 N1011 1.350 . S
C1014 C1013 1.434 . S
C1015 C1016 1.369 . S
C1015 C1017 1.419 . S
C1015 H1019 0.930 . S
C1016 C1015 1.369 . S
C1016 C1025 1.429 . S
C1017 C1015 1.419 . S
C1017 C1018 1.363 . S
C1017 H1020 0.929 . S
C1018 C1017 1.363 . S
C1018 C1024 1.428 . S
H1019 C1015 0.930 . S
H1020 C1017 0.929 . S
S1021 N1022 1.613 . S
S1021 N1023 1.610 . S
N1022 S1021 1.613 . S
N1022 C1025 1.350 . S
N1023 S1021 1.610 . S
N1023 C1024 1.351 . S
C1024 C1018 1.428 . S
C1024 N1023 1.351 . S
C1024 C1025 1.434 . S
C1025 C1016 1.429 . S
C1025 N1022 1.350 . S
C1025 C1024 1.434 . S
C765 C759 1.856 . S
C763 C1 1.323 . S
C774 C169 1.692 . S
C776 C684 1.698 . S
C785 C283 1.819 . S
C787 C707 2.000 . S
C796 C397 1.264 . S
C798 C720 1.498 . S
C809 C723 1.592 . S
C807 C457 1.246 . S
C818 C571 1.141 . S
C820 C736 1.429 . S
C829 C115 1.224 . S
C831 C697 1.527 . S
C840 C229 1.228 . S
C842 C710 1.615 . S
C851 C343 1.073 . S
C853 C733 1.402 . S
C864 C746 1.886 . S
C862 C511 1.716 . S
C875 C749 1.656 . S
C873 C625 1.650 . S
C886 C694 1.970 . S
C884 C55 1.790 . S
C895 C29 1.163 . S
C897 C705 1.415 . S
C906 C125 0.888 . S
C908 C718 1.465 . S
C919 C728 1.425 . S
C917 C239 0.917 . S
C928 C353 0.836 . S
C930 C741 1.391 . S
C941 C757 1.399 . S
C939 C485 1.092 . S
C952 C689 1.404 . S
C950 C599 1.142 . S
C963 C754 1.394 . S
C961 C143 1.136 . S
C972 C257 1.128 . S
C974 C692 1.459 . S
C985 C702 1.358 . S
C983 C371 1.174 . S
C994 C467 0.921 . S
C996 C715 1.425 . S
C1005 C581 0.855 1_556 S
C1007 C731 1.410 . S
C1016 C11 0.899 . S
C1018 C744 1.483 . S
