# Generated by pormake.
# Topology ptr, (4,4)-cn, num edge types: 1
# Building blocks:
#     Node 0, Type 0, BuildingBlock: GALJAG_clean_sbu_0, # of connection points: 4
#     Node 1, Type 0, BuildingBlock: GALJAG_clean_sbu_0, # of connection points: 4
#     Node 2, Type 0, BuildingBlock: GALJAG_clean_sbu_0, # of connection points: 4
#     Node 3, Type 0, BuildingBlock: GALJAG_clean_sbu_0, # of connection points: 4
#     Node 4, Type 0, BuildingBlock: GALJAG_clean_sbu_0, # of connection points: 4
#     Node 5, Type 0, BuildingBlock: GALJAG_clean_sbu_0, # of connection points: 4
#     Node 6, Type 0, BuildingBlock: GALJAG_clean_sbu_0, # of connection points: 4
#     Node 7, Type 0, BuildingBlock: GALJAG_clean_sbu_0, # of connection points: 4
#     Node 8, Type 0, BuildingBlock: GALJAG_clean_sbu_0, # of connection points: 4
#     Node 9, Type 0, BuildingBlock: GALJAG_clean_sbu_0, # of connection points: 4
#     Node 10, Type 0, BuildingBlock: GALJAG_clean_sbu_0, # of connection points: 4
#     Node 11, Type 0, BuildingBlock: GALJAG_clean_sbu_0, # of connection points: 4
#     Node 12, Type 0, BuildingBlock: GALJAG_clean_sbu_0, # of connection points: 4
#     Node 13, Type 0, BuildingBlock: GALJAG_clean_sbu_0, # of connection points: 4
#     Node 14, Type 0, BuildingBlock: GALJAG_clean_sbu_0, # of connection points: 4
#     Node 15, Type 0, BuildingBlock: GALJAG_clean_sbu_0, # of connection points: 4
#     Node 16, Type 0, BuildingBlock: GALJAG_clean_sbu_0, # of connection points: 4
#     Node 17, Type 0, BuildingBlock: GALJAG_clean_sbu_0, # of connection points: 4
#     Node 18, Type 1, BuildingBlock: GIZVER_clean_linker_0, # of connection points: 4
#     Node 19, Type 1, BuildingBlock: GIZVER_clean_linker_0, # of connection points: 4
#     Node 20, Type 1, BuildingBlock: GIZVER_clean_linker_0, # of connection points: 4
#     Node 21, Type 1, BuildingBlock: GIZVER_clean_linker_0, # of connection points: 4
#     Node 22, Type 1, BuildingBlock: GIZVER_clean_linker_0, # of connection points: 4
#     Node 23, Type 1, BuildingBlock: GIZVER_clean_linker_0, # of connection points: 4
#     Node 24, Type 1, BuildingBlock: GIZVER_clean_linker_0, # of connection points: 4
#     Node 25, Type 1, BuildingBlock: GIZVER_clean_linker_0, # of connection points: 4
#     Node 26, Type 1, BuildingBlock: GIZVER_clean_linker_0, # of connection points: 4
#     Node 27, Type 1, BuildingBlock: GIZVER_clean_linker_0, # of connection points: 4
#     Node 28, Type 1, BuildingBlock: GIZVER_clean_linker_0, # of connection points: 4
#     Node 29, Type 1, BuildingBlock: GIZVER_clean_linker_0, # of connection points: 4
#     Node 30, Type 1, BuildingBlock: GIZVER_clean_linker_0, # of connection points: 4
#     Node 31, Type 1, BuildingBlock: GIZVER_clean_linker_0, # of connection points: 4
#     Node 32, Type 1, BuildingBlock: GIZVER_clean_linker_0, # of connection points: 4
#     Node 33, Type 1, BuildingBlock: GIZVER_clean_linker_0, # of connection points: 4
#     Node 34, Type 1, BuildingBlock: GIZVER_clean_linker_0, # of connection points: 4
#     Node 35, Type 1, BuildingBlock: GIZVER_clean_linker_0, # of connection points: 4
#     Edge 36, Type (0, 1), BuildingBlock: XIVTED_clean_linker_0, # of connection points: 2
#     Edge 37, Type (0, 1), BuildingBlock: XIVTED_clean_linker_0, # of connection points: 2
#     Edge 38, Type (0, 1), BuildingBlock: XIVTED_clean_linker_0, # of connection points: 2
#     Edge 39, Type (0, 1), BuildingBlock: XIVTED_clean_linker_0, # of connection points: 2
#     Edge 40, Type (0, 1), BuildingBlock: XIVTED_clean_linker_0, # of connection points: 2
#     Edge 41, Type (0, 1), BuildingBlock: XIVTED_clean_linker_0, # of connection points: 2
#     Edge 42, Type (0, 1), BuildingBlock: XIVTED_clean_linker_0, # of connection points: 2
#     Edge 43, Type (0, 1), BuildingBlock: XIVTED_clean_linker_0, # of connection points: 2
#     Edge 44, Type (0, 1), BuildingBlock: XIVTED_clean_linker_0, # of connection points: 2
#     Edge 45, Type (0, 1), BuildingBlock: XIVTED_clean_linker_0, # of connection points: 2
#     Edge 46, Type (0, 1), BuildingBlock: XIVTED_clean_linker_0, # of connection points: 2
#     Edge 47, Type (0, 1), BuildingBlock: XIVTED_clean_linker_0, # of connection points: 2
#     Edge 48, Type (0, 1), BuildingBlock: XIVTED_clean_linker_0, # of connection points: 2
#     Edge 49, Type (0, 1), BuildingBlock: XIVTED_clean_linker_0, # of connection points: 2
#     Edge 50, Type (0, 1), BuildingBlock: XIVTED_clean_linker_0, # of connection points: 2
#     Edge 51, Type (0, 1), BuildingBlock: XIVTED_clean_linker_0, # of connection points: 2
#     Edge 52, Type (0, 1), BuildingBlock: XIVTED_clean_linker_0, # of connection points: 2
#     Edge 53, Type (0, 1), BuildingBlock: XIVTED_clean_linker_0, # of connection points: 2
#     Edge 54, Type (0, 1), BuildingBlock: XIVTED_clean_linker_0, # of connection points: 2
#     Edge 55, Type (0, 1), BuildingBlock: XIVTED_clean_linker_0, # of connection points: 2
#     Edge 56, Type (0, 1), BuildingBlock: XIVTED_clean_linker_0, # of connection points: 2
#     Edge 57, Type (0, 1), BuildingBlock: XIVTED_clean_linker_0, # of connection points: 2
#     Edge 58, Type (0, 1), BuildingBlock: XIVTED_clean_linker_0, # of connection points: 2
#     Edge 59, Type (0, 1), BuildingBlock: XIVTED_clean_linker_0, # of connection points: 2
#     Edge 60, Type (0, 1), BuildingBlock: XIVTED_clean_linker_0, # of connection points: 2
#     Edge 61, Type (0, 1), BuildingBlock: XIVTED_clean_linker_0, # of connection points: 2
#     Edge 62, Type (0, 1), BuildingBlock: XIVTED_clean_linker_0, # of connection points: 2
#     Edge 63, Type (0, 1), BuildingBlock: XIVTED_clean_linker_0, # of connection points: 2
#     Edge 64, Type (0, 1), BuildingBlock: XIVTED_clean_linker_0, # of connection points: 2
#     Edge 65, Type (0, 1), BuildingBlock: XIVTED_clean_linker_0, # of connection points: 2
#     Edge 66, Type (0, 1), BuildingBlock: XIVTED_clean_linker_0, # of connection points: 2
#     Edge 67, Type (0, 1), BuildingBlock: XIVTED_clean_linker_0, # of connection points: 2
#     Edge 68, Type (0, 1), BuildingBlock: XIVTED_clean_linker_0, # of connection points: 2
#     Edge 69, Type (0, 1), BuildingBlock: XIVTED_clean_linker_0, # of connection points: 2
#     Edge 70, Type (0, 1), BuildingBlock: XIVTED_clean_linker_0, # of connection points: 2
#     Edge 71, Type (0, 1), BuildingBlock: XIVTED_clean_linker_0, # of connection points: 2
#     Edge 72, Type (0, 1), BuildingBlock: XIVTED_clean_linker_0, # of connection points: 2
#     Edge 73, Type (0, 1), BuildingBlock: XIVTED_clean_linker_0, # of connection points: 2
#     Edge 74, Type (0, 1), BuildingBlock: XIVTED_clean_linker_0, # of connection points: 2
#     Edge 75, Type (0, 1), BuildingBlock: XIVTED_clean_linker_0, # of connection points: 2
#     Edge 76, Type (0, 1), BuildingBlock: XIVTED_clean_linker_0, # of connection points: 2
#     Edge 77, Type (0, 1), BuildingBlock: XIVTED_clean_linker_0, # of connection points: 2
#     Edge 78, Type (0, 1), BuildingBlock: XIVTED_clean_linker_0, # of connection points: 2
#     Edge 79, Type (0, 1), BuildingBlock: XIVTED_clean_linker_0, # of connection points: 2
#     Edge 80, Type (0, 1), BuildingBlock: XIVTED_clean_linker_0, # of connection points: 2
#     Edge 81, Type (0, 1), BuildingBlock: XIVTED_clean_linker_0, # of connection points: 2
#     Edge 82, Type (0, 1), BuildingBlock: XIVTED_clean_linker_0, # of connection points: 2
#     Edge 83, Type (0, 1), BuildingBlock: XIVTED_clean_linker_0, # of connection points: 2
#     Edge 84, Type (0, 1), BuildingBlock: XIVTED_clean_linker_0, # of connection points: 2
#     Edge 85, Type (0, 1), BuildingBlock: XIVTED_clean_linker_0, # of connection points: 2
#     Edge 86, Type (0, 1), BuildingBlock: XIVTED_clean_linker_0, # of connection points: 2
#     Edge 87, Type (0, 1), BuildingBlock: XIVTED_clean_linker_0, # of connection points: 2
#     Edge 88, Type (0, 1), BuildingBlock: XIVTED_clean_linker_0, # of connection points: 2
#     Edge 89, Type (0, 1), BuildingBlock: XIVTED_clean_linker_0, # of connection points: 2
#     Edge 90, Type (0, 1), BuildingBlock: XIVTED_clean_linker_0, # of connection points: 2
#     Edge 91, Type (0, 1), BuildingBlock: XIVTED_clean_linker_0, # of connection points: 2
#     Edge 92, Type (0, 1), BuildingBlock: XIVTED_clean_linker_0, # of connection points: 2
#     Edge 93, Type (0, 1), BuildingBlock: XIVTED_clean_linker_0, # of connection points: 2
#     Edge 94, Type (0, 1), BuildingBlock: XIVTED_clean_linker_0, # of connection points: 2
#     Edge 95, Type (0, 1), BuildingBlock: XIVTED_clean_linker_0, # of connection points: 2
#     Edge 96, Type (0, 1), BuildingBlock: XIVTED_clean_linker_0, # of connection points: 2
#     Edge 97, Type (0, 1), BuildingBlock: XIVTED_clean_linker_0, # of connection points: 2
#     Edge 98, Type (0, 1), BuildingBlock: XIVTED_clean_linker_0, # of connection points: 2
#     Edge 99, Type (0, 1), BuildingBlock: XIVTED_clean_linker_0, # of connection points: 2
#     Edge 100, Type (0, 1), BuildingBlock: XIVTED_clean_linker_0, # of connection points: 2
#     Edge 101, Type (0, 1), BuildingBlock: XIVTED_clean_linker_0, # of connection points: 2
#     Edge 102, Type (0, 1), BuildingBlock: XIVTED_clean_linker_0, # of connection points: 2
#     Edge 103, Type (0, 1), BuildingBlock: XIVTED_clean_linker_0, # of connection points: 2
#     Edge 104, Type (0, 1), BuildingBlock: XIVTED_clean_linker_0, # of connection points: 2
#     Edge 105, Type (0, 1), BuildingBlock: XIVTED_clean_linker_0, # of connection points: 2
#     Edge 106, Type (0, 1), BuildingBlock: XIVTED_clean_linker_0, # of connection points: 2
#     Edge 107, Type (0, 1), BuildingBlock: XIVTED_clean_linker_0, # of connection points: 2
# Relax obj value: 0.069
# Max RMSD: 0.094
# Mean RMSD: 0.093
data_MOF--net-ptr--node1-GALJAG_clean_sbu_0--node2-GIZVER_clean_linker_0--edge1-XIVTED_clean_linker_0
_symmetry_space_group_name_H-M    P1
_symmetry_Int_Tables_number       1
_symmetry_cell_setting            triclinic
loop_
_symmetry_equiv_pos_as_xyz
'x, y, z'
_cell_length_a     79.20179
_cell_length_b     79.238956
_cell_length_c     51.409637
_cell_angle_alpha  90.264804
_cell_angle_beta   90.294544
_cell_angle_gamma 120.12183
loop_
_atom_site_label
_atom_site_type_symbol
_atom_site_fract_x
_atom_site_fract_y
_atom_site_fract_z
_atom_type_partial_charge
In0 In 0.01019 0.3834 0.01301 0.0
O1 O 1.00027 0.38622 0.05377 0.0
O2 O 0.01638 0.41207 0.03183 0.0
C3 C 0.98019 0.34598 0.01164 0.0
C4 C 0.04343 0.38247 0.02227 0.0
C5 C 0.00932 0.40099 0.96816 0.0
O6 O 0.97777 0.36034 0.01554 0.0
O7 O 0.99774 0.35042 0.00875 0.0
O8 O 0.02506 0.40464 0.97918 0.0
O9 O 0.99422 0.38817 0.97927 0.0
C10 C 0.00778 0.40452 0.0528 0.0
O11 O 0.03368 0.37581 0.00146 0.0
O12 O 0.03639 0.38944 0.03814 0.0
In13 In 0.63613 0.63295 0.01727 0.0
O14 O 0.62948 0.61186 0.05143 0.0
O15 O 0.61405 0.62715 0.04931 0.0
C16 C 0.67072 0.6341 0.01214 0.0
C17 C 0.64243 0.6699 0.01823 0.0
C18 C 0.61458 0.61336 0.97506 0.0
O19 O 0.6679 0.64365 0.02963 0.0
O20 O 0.6562 0.62408 0.99748 0.0
O21 O 0.62655 0.63147 0.97479 0.0
O22 O 0.61356 0.60524 0.99647 0.0
C23 C 0.61655 0.61472 0.06112 0.0
O24 O 0.62578 0.65513 0.01454 0.0
O25 O 0.65601 0.6661 0.021 0.0
In26 In 0.38645 0.0097 0.00768 0.0
O27 O 0.395 0.04165 0.01466 0.0
O28 O 0.36737 0.02284 0.99738 0.0
C29 C 0.4097 0.01149 0.04737 0.0
C30 C 0.4057 0.01012 0.96394 0.0
C31 C 0.35191 0.97708 0.01771 0.0
O32 O 0.39946 0.01961 0.0485 0.0
O33 O 0.40823 0.00264 0.02627 0.0
O34 O 0.35477 0.98666 0.99705 0.0
O35 O 0.36628 0.98396 0.03314 0.0
C36 C 0.37945 0.03985 0.00518 0.0
O37 O 0.39235 0.99457 0.9736 0.0
O38 O 0.4089 0.02538 0.97581 0.0
In39 In 0.00634 0.63274 0.01008 0.0
O40 O 0.02026 0.62627 0.97518 0.0
O41 O 0.98951 0.6102 0.97813 0.0
C42 C 0.03978 0.66722 0.01717 0.0
C43 C 0.97651 0.6403 0.00985 0.0
C44 C 0.00516 0.61063 0.0506 0.0
O45 O 0.02821 0.66427 -0.00154 0.0
O46 O 0.03449 0.65291 0.03215 0.0
O47 O 0.9978 0.62154 0.05165 0.0
O48 O 0.01305 0.61093 0.02925 0.0
C49 C 0.00435 0.61303 0.96576 0.0
O50 O 0.97422 0.62385 0.01575 0.0
O51 O 0.99383 0.65295 0.00446 0.0
In52 In 0.3833 0.38501 0.00979 0.0
O53 O 0.38816 0.40244 0.97217 0.0
O54 O 0.4104 0.39682 0.98458 0.0
C55 C 0.3482 0.38287 0.01653 0.0
C56 C 0.37834 0.34896 0.00227 0.0
C57 C 0.40281 0.40243 0.05424 0.0
O58 O 0.36422 0.39858 0.01902 0.0
O59 O 0.34986 0.36838 0.01036 0.0
O60 O 0.38935 0.38479 0.05331 0.0
O61 O 0.40632 0.41124 0.03286 0.0
C62 C 0.40484 0.40466 0.96799 0.0
O63 O 0.38899 0.36018 0.02033 0.0
O64 O 0.37029 0.35593 0.98812 0.0
In65 In 0.63619 0.00498 0.01147 0.0
O66 O 0.63219 0.01427 0.05223 0.0
O67 O 0.60678 0.99631 0.02967 0.0
C68 C 0.67333 0.03564 0.01092 0.0
C69 C 0.63875 0.97258 0.01933 0.0
C70 C 0.6182 0.00564 0.96669 0.0
O71 O 0.65871 0.03763 0.01481 0.0
O72 O 0.66928 0.01822 0.00774 0.0
O73 O 0.61553 0.99001 0.97667 0.0
O74 O 0.63026 0.02083 0.97882 0.0
C75 C 0.61378 0.00528 0.05083 0.0
O76 O 0.64402 0.98198 -0.00169 0.0
O77 O 0.63239 0.97958 0.03617 0.0
In78 In 0.67284 0.71798 0.34668 0.0
O79 O 0.66282 0.72311 0.38636 0.0
O80 O 0.68599 0.74738 0.36773 0.0
C81 C 0.64201 0.682 0.33718 0.0
C82 C 0.70232 0.71128 0.35835 0.0
C83 C 0.67224 0.73625 0.3026 0.0
O84 O 0.64041 0.69495 0.34946 0.0
O85 O 0.65904 0.68725 0.32947 0.0
O86 O 0.68629 0.73375 0.30855 0.0
O87 O 0.65838 0.72922 0.31854 0.0
C88 C 0.67494 0.74116 0.3871 0.0
O89 O 0.70428 0.72429 0.34259 0.0
O90 O 0.68562 0.70181 0.36837 0.0
In91 In 0.30168 0.96964 0.34433 0.0
O92 O 0.29601 0.95131 0.38108 0.0
O93 O 0.27532 0.9597 0.37066 0.0
C94 C 0.33743 0.97478 0.33394 0.0
C95 C 0.30889 0.00615 0.35472 0.0
C96 C 0.2807 0.94777 0.3029 0.0
O97 O 0.32671 0.96347 0.35154 0.0
O98 O 0.33012 0.98338 0.32169 0.0
O99 O 0.28742 0.96593 0.30413 0.0
O100 O 0.28469 0.94077 0.32232 0.0
C101 C 0.28008 0.95054 0.38624 0.0
O102 O 0.29456 0.99417 0.34099 0.0
O103 O 0.31947 0.99969 0.36342 0.0
In104 In 0.05272 0.3446 0.34887 0.0
O105 O 0.03252 0.35658 0.33925 0.0
O106 O 0.06091 0.37671 0.35324 0.0
C107 C 0.07519 0.34817 0.39054 0.0
C108 C 0.07234 0.34504 0.30541 0.0
C109 C 0.01875 0.31096 0.35759 0.0
O110 O 0.06296 0.35398 0.39096 0.0
O111 O 0.07606 0.34074 0.36919 0.0
O112 O 0.02094 0.32185 0.33855 0.0
O113 O 0.03361 0.31696 0.37203 0.0
C114 C 0.04472 0.37406 0.345 0.0
O115 O 0.05896 0.32945 0.31495 0.0
O116 O 0.07538 0.36024 0.31729 0.0
In117 In 0.67705 0.96692 0.34345 0.0
O118 O 0.69297 0.96042 0.31117 0.0
O119 O 0.66222 0.94284 0.31276 0.0
C120 C 0.70991 0.00241 0.34714 0.0
C121 C 0.64611 0.97234 0.33736 0.0
C122 C 0.67519 0.94889 0.38881 0.0
O123 O 0.70929 0.98694 0.35452 0.0
O124 O 0.6941 0.99994 0.33774 0.0
O125 O 0.67614 0.96527 0.38792 0.0
O126 O 0.67475 0.94148 0.3669 0.0
C127 C 0.67772 0.94629 0.30159 0.0
O128 O 0.66201 0.98213 0.32556 0.0
O129 O 0.64559 0.95956 0.35245 0.0
In130 In 0.04358 0.71777 0.33891 0.0
O131 O 0.04789 0.73192 0.2987 0.0
O132 O 0.07264 0.734 0.31768 0.0
C133 C 0.00704 0.71097 0.34772 0.0
C134 C 0.0376 0.68151 0.32992 0.0
C135 C 0.06261 0.73888 0.38179 0.0
O136 O 0.01968 0.72595 0.33603 0.0
O137 O 0.01286 0.69957 0.35513 0.0
O138 O 0.06266 0.72357 0.37518 0.0
O139 O 0.05271 0.74336 0.36708 0.0
C140 C 0.06598 0.73813 0.29799 0.0
O141 O 0.04802 0.69205 0.34859 0.0
O142 O 0.03034 0.68928 0.31576 0.0
In143 In 0.30066 0.34143 0.34999 0.0
O144 O 0.29186 0.30915 0.34629 0.0
O145 O 0.31742 0.32788 0.36815 0.0
C146 C 0.28219 0.34321 0.30649 0.0
C147 C 0.27901 0.33987 0.39163 0.0
C148 C 0.3368 0.37184 0.34101 0.0
O149 O 0.28523 0.3293 0.31077 0.0
O150 O 0.28874 0.3563 0.32383 0.0
O151 O 0.32431 0.37363 0.35406 0.0
O152 O 0.331 0.35485 0.33234 0.0
C153 C 0.3061 0.31089 0.35955 0.0
O154 O 0.29721 0.35126 0.39083 0.0
O155 O 0.27189 0.32929 0.37171 0.0
In156 In 0.34417 0.04838 0.67724 0.0
O157 O 0.37526 0.05419 0.67095 0.0
O158 O 0.3573 0.03195 0.69747 0.0
C159 C 0.34274 0.06813 0.63524 0.0
C160 C 0.34701 0.0707 0.71907 0.0
C161 C 0.31311 0.01273 0.66669 0.0
O162 O 0.35695 0.06554 0.63974 0.0
O163 O 0.32916 0.06043 0.65154 0.0
O164 O 0.31188 0.02516 0.68078 0.0
O165 O 0.32991 0.01832 0.65779 0.0
C166 C 0.37367 0.0412 0.6865 0.0
O167 O 0.33458 0.05276 0.71764 0.0
O168 O 0.35806 0.07722 0.69972 0.0
In169 In 0.961 0.29632 0.68365 0.0
O170 O 0.94959 0.31772 0.68308 0.0
O171 O 0.98026 0.32961 0.68533 0.0
C172 C 0.93798 0.27621 0.64265 0.0
C173 C 0.94425 0.27865 0.72918 0.0
C174 C 0.99583 0.29836 0.67627 0.0
O175 O 0.95045 0.29416 0.64151 0.0
O176 O 0.93712 0.26853 0.66437 0.0
O177 O 0.99336 0.30823 0.69363 0.0
O178 O 0.9808 0.28747 0.66287 0.0
C179 C 0.96621 0.33285 0.6847 0.0
O180 O 0.95615 0.2753 0.71733 0.0
O181 O 0.94128 0.29119 0.71852 0.0
In182 In 0.72277 0.68376 0.68371 0.0
O183 O 0.72988 0.71538 0.68993 0.0
O184 O 0.70804 0.69792 0.66201 0.0
C185 C 0.74245 0.68577 0.72812 0.0
C186 C 0.74245 0.68322 0.64115 0.0
C187 C 0.68735 0.65126 0.68995 0.0
O188 O 0.72694 0.68654 0.72801 0.0
O189 O 0.74819 0.68431 0.70591 0.0
O190 O 0.7025 0.65047 0.68474 0.0
O191 O 0.6901 0.66832 0.69191 0.0
C192 C 0.71754 0.71427 0.67332 0.0
O193 O 0.72734 0.66823 0.6491 0.0
O194 O 0.74737 0.69847 0.65434 0.0
In195 In 0.34519 0.30508 0.67988 0.0
O196 O 0.35585 0.30232 0.63975 0.0
O197 O 0.33496 0.2763 0.65861 0.0
C198 C 0.37462 0.34277 0.68198 0.0
C199 C 0.31218 0.30666 0.67176 0.0
C200 C 0.34821 0.28637 0.72226 0.0
O201 O 0.37644 0.32944 0.67125 0.0
O202 O 0.35795 0.33717 0.69125 0.0
O203 O 0.3325 0.28571 0.71592 0.0
O204 O 0.36235 0.29681 0.70776 0.0
C205 C 0.34557 0.28391 0.63899 0.0
O206 O 0.32263 0.31376 0.69189 0.0
O207 O 0.31842 0.29901 0.65579 0.0
In208 In 0.7197 0.0543 0.68311 0.0
O209 O 0.72083 0.05705 0.63881 0.0
O210 O 0.74352 0.0801 0.66055 0.0
C211 C 0.68313 0.04899 0.68345 0.0
C212 C 0.71908 0.01982 0.6824 0.0
C213 C 0.73832 0.07288 0.72787 0.0
O214 O 0.6982 0.06565 0.68206 0.0
O215 O 0.68648 0.03501 0.68414 0.0
O216 O 0.74343 0.06286 0.71454 0.0
O217 O 0.72365 0.07318 0.71901 0.0
C218 C 0.73653 0.0732 0.63841 0.0
O219 O 0.7062 0.022 0.69379 0.0
O220 O 0.73234 0.03503 0.67187 0.0
In221 In 0.96664 0.67186 0.67627 0.0
O222 O 0.95343 0.63876 0.68109 0.0
O223 O 0.98425 0.65666 0.68301 0.0
C224 C 0.94653 0.66989 0.63247 0.0
C225 C 0.94833 0.67222 0.72049 0.0
C226 C 1.00177 0.70434 0.66812 0.0
O227 O 0.95275 0.65828 0.63673 0.0
O228 O 0.95083 0.68264 0.64991 0.0
O229 O 0.98846 0.7048 0.68094 0.0
O230 O 0.99732 0.68771 0.65944 0.0
C231 C 0.9697 0.63965 0.68393 0.0
O232 O 0.96572 0.67569 0.72047 0.0
O233 O 0.94034 0.66872 0.69837 0.0
H234 H 0.15763 0.33242 0.15126 0.0
H235 H 0.15725 0.34857 0.07127 0.0
H236 H 0.12935 0.36444 0.13022 0.0
H237 H 0.16376 0.31536 0.1128 0.0
H238 H 0.16889 0.32656 0.0816 0.0
H239 H 0.18699 0.33361 0.15113 0.0
H240 H 0.24705 0.3674 0.12942 0.0
H241 H 0.20217 0.34912 0.07084 0.0
C242 C 0.15411 0.33998 0.13664 0.0
C243 C 0.14361 0.34916 0.14386 0.0
C244 C 0.15976 0.34027 0.1106 0.0
C245 C 0.15377 0.349 0.09153 0.0
C246 C 0.14286 0.35786 0.09857 0.0
C247 C 0.13828 0.35818 0.12479 0.0
C248 C 0.17051 0.32972 0.10287 0.0
C249 C 0.19197 0.34106 0.11034 0.0
C250 C 0.1978 0.3414 0.13637 0.0
C251 C 0.21763 0.35128 0.14336 0.0
C252 C 0.23172 0.36062 0.12415 0.0
C253 C 0.22634 0.35964 0.09792 0.0
C254 C 0.2064 0.35006 0.09111 0.0
H255 H 0.69095 0.83352 0.14686 0.0
H256 H 0.68024 0.81944 0.0651 0.0
H257 H 0.65937 0.77378 0.12179 0.0
H258 H 0.7111 0.8576 0.10997 0.0
H259 H 0.70078 0.85282 0.07798 0.0
H260 H 0.6937 0.86346 0.14721 0.0
H261 H 0.65844 0.88815 0.12566 0.0
H262 H 0.67701 0.86234 0.06687 0.0
C263 C 0.68418 0.82291 0.13132 0.0
C264 C 0.67428 0.80298 0.13737 0.0
C265 C 0.68576 0.82908 0.10533 0.0
C266 C 0.67822 0.81494 0.08525 0.0
C267 C 0.6686 0.79496 0.09117 0.0
C268 C 0.66623 0.78918 0.11724 0.0
C269 C 0.69703 0.85063 0.09899 0.0
C270 C 0.68589 0.86085 0.10635 0.0
C271 C 0.68568 0.86628 0.13243 0.0
C272 C 0.67532 0.87563 0.13952 0.0
C273 C 0.66562 0.88006 0.12029 0.0
C274 C 0.66639 0.87565 0.09405 0.0
C275 C 0.67636 0.86579 0.08713 0.0
H276 H 0.17592 0.81367 0.15555 0.0
H277 H 0.1729 0.79934 0.07416 0.0
H278 H 0.12042 0.77735 0.1186 0.0
H279 H 0.20416 0.81396 0.13056 0.0
H280 H 0.20367 0.814 0.09595 0.0
H281 H 0.2034 0.84224 0.15516 0.0
H282 H 0.24163 0.89742 0.12006 0.0
H283 H 0.21999 0.84475 0.07505 0.0
C284 C 0.16744 0.80723 0.13805 0.0
C285 C 0.14698 0.79616 0.13973 0.0
C286 C 0.17698 0.80907 0.11429 0.0
C287 C 0.16574 0.79911 0.09217 0.0
C288 C 0.14531 0.78781 0.09366 0.0
C289 C 0.13609 0.7869 0.11724 0.0
C290 C 0.19905 0.81884 0.11352 0.0
C291 C 0.20923 0.84094 0.11447 0.0
C292 C 0.21049 0.85061 0.13805 0.0
C293 C 0.22195 0.87101 0.14022 0.0
C294 C 0.23189 0.88179 0.11827 0.0
C295 C 0.23135 0.87244 0.09482 0.0
C296 C 0.21987 0.85202 0.0929 0.0
H297 H 0.37676 0.20627 0.86608 0.0
H298 H 0.38243 0.21809 0.94855 0.0
H299 H 0.35451 0.24071 0.89931 0.0
H300 H 0.40295 0.20524 0.89509 0.0
H301 H 0.3998 0.20382 0.92942 0.0
H302 H 0.37659 0.17792 0.86613 0.0
H303 H 0.35397 0.12133 0.89977 0.0
H304 H 0.38211 0.17237 0.94866 0.0
C305 C 0.37349 0.21208 0.88317 0.0
C306 C 0.36391 0.22279 0.88012 0.0
C307 C 0.37965 0.20967 0.90794 0.0
C308 C 0.37681 0.21892 0.92963 0.0
C309 C 0.36761 0.23008 0.92668 0.0
C310 C 0.36078 0.23141 0.90199 0.0
C311 C 0.3917 0.19975 0.91056 0.0
C312 C 0.37966 0.17772 0.90793 0.0
C313 C 0.37335 0.16893 0.8832 0.0
C314 C 0.36364 0.14855 0.88019 0.0
C315 C 0.36038 0.13698 0.90219 0.0
C316 C 0.36713 0.14538 0.92687 0.0
C317 C 0.37655 0.16578 0.92972 0.0
H318 H 0.86493 0.18149 0.8848 0.0
H319 H 0.86741 0.19545 0.96644 0.0
H320 H 0.89324 0.24121 0.91011 0.0
H321 H 0.86006 0.15724 0.92098 0.0
H322 H 0.85575 0.16222 0.95338 0.0
H323 H 0.83571 0.15369 0.88471 0.0
H324 H 0.77623 0.1243 0.90999 0.0
H325 H 0.82264 0.14968 0.96656 0.0
C326 C 0.86866 0.19209 0.90028 0.0
C327 C 0.8789 0.21204 0.89429 0.0
C328 C 0.8637 0.18586 0.9262 0.0
C329 C 0.87014 0.19998 0.94631 0.0
C330 C 0.88071 0.21995 0.94046 0.0
C331 C 0.88453 0.22579 0.91448 0.0
C332 C 0.85345 0.16431 0.93254 0.0
C333 C 0.83178 0.15398 0.92629 0.0
C334 C 0.82525 0.14954 0.90026 0.0
C335 C 0.80524 0.13917 0.8942 0.0
C336 C 0.7917 0.13311 0.91443 0.0
C337 C 0.79782 0.13663 0.94048 0.0
C338 C 0.81788 0.14722 0.9464 0.0
H339 H 0.84354 0.64353 0.86582 0.0
H340 H 0.84479 0.63929 0.94921 0.0
H341 H 0.89836 0.66708 0.9066 0.0
H342 H 0.8143 0.62066 0.88961 0.0
H343 H 0.81491 0.61874 0.92406 0.0
H344 H 0.81363 0.64953 0.86985 0.0
H345 H 0.78154 0.6696 0.91524 0.0
H346 H 0.80204 0.63424 0.95063 0.0
C347 C 0.85179 0.64716 0.88388 0.0
C348 C 0.87226 0.65609 0.88327 0.0
C349 C 0.84176 0.64145 0.9077 0.0
C350 C 0.85244 0.64466 0.93101 0.0
C351 C 0.8729 0.65391 0.93066 0.0
C352 C 0.88259 0.66019 0.90688 0.0
C353 C 0.81972 0.62941 0.90788 0.0
C354 C 0.81033 0.6419 0.91046 0.0
C355 C 0.80811 0.65112 0.88839 0.0
C356 C 0.79729 0.66077 0.88976 0.0
C357 C 0.78987 0.66218 0.91391 0.0
C358 C 0.79107 0.65231 0.93572 0.0
C359 C 0.80153 0.64236 0.93402 0.0
H360 H 0.82179 0.66516 0.48512 0.0
H361 H 0.81294 0.67241 0.40406 0.0
H362 H 0.79434 0.69789 0.46306 0.0
H363 H 0.81982 0.64162 0.44776 0.0
H364 H 0.82443 0.65083 0.41547 0.0
H365 H 0.84585 0.65652 0.48229 0.0
H366 H 0.90454 0.68398 0.45404 0.0
H367 H 0.85765 0.67283 0.40155 0.0
C368 C 0.81739 0.67171 0.47007 0.0
C369 C 0.80854 0.68257 0.47717 0.0
C370 C 0.81974 0.66854 0.44368 0.0
C371 C 0.81237 0.67578 0.42439 0.0
C372 C 0.80339 0.68655 0.43137 0.0
C373 C 0.80209 0.69035 0.45768 0.0
C374 C 0.82759 0.65527 0.43629 0.0
C375 C 0.84927 0.6645 0.4416 0.0
C376 C 0.85609 0.66356 0.46666 0.0
C377 C 0.87601 0.6705 0.47115 0.0
C378 C 0.88917 0.67888 0.45071 0.0
C379 C 0.8827 0.67979 0.42569 0.0
C380 C 0.86274 0.67263 0.4211 0.0
H381 H 0.35776 0.16937 0.48594 0.0
H382 H 0.34592 0.15546 0.40426 0.0
H383 H 0.32564 0.10968 0.46064 0.0
H384 H 0.37716 0.19359 0.44938 0.0
H385 H 0.36709 0.18874 0.41725 0.0
H386 H 0.35866 0.19852 0.48641 0.0
H387 H 0.32508 0.22485 0.46377 0.0
H388 H 0.3449 0.19988 0.40544 0.0
C389 C 0.35068 0.15879 0.47043 0.0
C390 C 0.34082 0.13885 0.47638 0.0
C391 C 0.35188 0.16503 0.44452 0.0
C392 C 0.34405 0.15093 0.42441 0.0
C393 C 0.3345 0.13096 0.43026 0.0
C394 C 0.33242 0.1251 0.45624 0.0
C395 C 0.36318 0.18656 0.43821 0.0
C396 C 0.35194 0.19674 0.44526 0.0
C397 C 0.35109 0.20171 0.47136 0.0
C398 C 0.34102 0.21141 0.4781 0.0
C399 C 0.332 0.21645 0.45863 0.0
C400 C 0.33368 0.21274 0.43239 0.0
C401 C 0.34341 0.2026 0.42574 0.0
H402 H 0.84131 0.14105 0.49259 0.0
H403 H 0.8413 0.13373 0.40955 0.0
H404 H 0.78711 0.11009 0.45042 0.0
H405 H 0.87071 0.14531 0.4687 0.0
H406 H 0.87106 0.14549 0.43403 0.0
H407 H 0.86619 0.17289 0.49136 0.0
H408 H 0.90706 0.22863 0.45945 0.0
H409 H 0.88938 0.17653 0.41473 0.0
C410 C 0.83343 0.13646 0.47428 0.0
C411 C 0.81292 0.12553 0.47435 0.0
C412 C 0.84384 0.14019 0.45082 0.0
C413 C 0.83346 0.13215 0.42742 0.0
C414 C 0.81298 0.12116 0.42731 0.0
C415 C 0.80292 0.1187 0.45059 0.0
C416 C 0.8659 0.15012 0.45128 0.0
C417 C 0.8757 0.17218 0.45236 0.0
C418 C 0.87486 0.18155 0.47523 0.0
C419 C 0.88603 0.20195 0.47803 0.0
C420 C 0.89761 0.213 0.45717 0.0
C421 C 0.89886 0.20397 0.43435 0.0
C422 C 0.88788 0.18355 0.43198 0.0
H423 H 0.03585 0.53625 0.19997 0.0
H424 H 0.04095 0.54959 0.28198 0.0
H425 H 0.0131 0.57097 0.23066 0.0
H426 H 0.06216 0.5362 0.22999 0.0
H427 H 0.05874 0.53534 0.26424 0.0
H428 H 0.03451 0.50815 0.20178 0.0
H429 H 0.01578 0.45242 0.23591 0.0
H430 H 0.04345 0.50408 0.28369 0.0
C431 C 0.03238 0.54227 0.21661 0.0
C432 C 0.02259 0.55271 0.21261 0.0
C433 C 0.03848 0.5404 0.24172 0.0
C434 C 0.03541 0.54999 0.26282 0.0
C435 C 0.02609 0.56093 0.25894 0.0
C436 C 0.0194 0.56177 0.23394 0.0
C437 C 0.05078 0.53081 0.2453 0.0
C438 C 0.03919 0.50869 0.24327 0.0
C439 C 0.03229 0.49949 0.2189 0.0
C440 C 0.02338 0.47914 0.21616 0.0
C441 C 0.02153 0.46797 0.23816 0.0
C442 C 0.0288 0.47678 0.26252 0.0
C443 C 0.03743 0.49716 0.26504 0.0
H444 H 0.52571 0.51661 0.20995 0.0
H445 H 0.52938 0.5319 0.29121 0.0
H446 H 0.55363 0.57673 0.23351 0.0
H447 H 0.52318 0.49375 0.24704 0.0
H448 H 0.51851 0.49878 0.27918 0.0
H449 H 0.49806 0.48533 0.21129 0.0
H450 H 0.4388 0.45546 0.23777 0.0
H451 H 0.48545 0.48759 0.29239 0.0
C452 C 0.52947 0.52747 0.22511 0.0
C453 C 0.53947 0.54732 0.21858 0.0
C454 C 0.52509 0.52167 0.25124 0.0
C455 C 0.53156 0.5361 0.27094 0.0
C456 C 0.54168 0.55599 0.26452 0.0
C457 C 0.54503 0.56138 0.23835 0.0
C458 C 0.51592 0.50034 0.25826 0.0
C459 C 0.49425 0.48891 0.25223 0.0
C460 C 0.48763 0.4821 0.2267 0.0
C461 C 0.46764 0.46984 0.22144 0.0
C462 C 0.45425 0.46509 0.24165 0.0
C463 C 0.46052 0.47129 0.26718 0.0
C464 C 0.48054 0.48327 0.27249 0.0
H465 H 0.50698 0.97349 0.19622 0.0
H466 H 0.5116 0.9672 0.27876 0.0
H467 H 0.56311 0.99489 0.23184 0.0
H468 H 0.47881 0.9475 0.22391 0.0
H469 H 0.48016 0.95042 0.25836 0.0
H470 H 0.48057 0.97578 0.19595 0.0
H471 H 0.44534 0.99751 0.22789 0.0
H472 H 0.46527 0.96724 0.27706 0.0
C473 C 0.51576 0.97649 0.21361 0.0
C474 C 0.53616 0.98596 0.21134 0.0
C475 C 0.50671 0.97025 0.23799 0.0
C476 C 0.51839 0.9728 0.26011 0.0
C477 C 0.53879 0.98183 0.25798 0.0
C478 C 0.54746 0.98869 0.23369 0.0
C479 C 0.48462 0.95862 0.23979 0.0
C480 C 0.4751 0.97106 0.23715 0.0
C481 C 0.47404 0.97843 0.21269 0.0
C482 C 0.46378 0.98846 0.20933 0.0
C483 C 0.45432 0.99089 0.23074 0.0
C484 C 0.45464 0.98325 0.25517 0.0
C485 C 0.46525 0.97349 0.25837 0.0
H486 H 0.49324 0.99786 0.81426 0.0
H487 H 0.48779 0.00563 0.73226 0.0
H488 H 0.46355 0.02759 0.78843 0.0
H489 H 0.49615 0.97649 0.77813 0.0
H490 H 0.50076 0.98547 0.74569 0.0
H491 H 0.52076 0.99484 0.81395 0.0
H492 H 0.58021 0.02775 0.78895 0.0
H493 H 0.53368 0.00869 0.73282 0.0
C494 C 0.48894 0.00403 0.7986 0.0
C495 C 0.47863 0.01369 0.80444 0.0
C496 C 0.49305 1.00169 0.77261 0.0
C497 C 0.48584 0.00838 0.75238 0.0
C498 C 0.47535 0.01789 0.75814 0.0
C499 C 0.47234 0.02096 0.78411 0.0
C500 C 0.50302 0.9901 0.76649 0.0
C501 C 0.52465 1.00135 0.77284 0.0
C502 C 0.5312 0.00219 0.79862 0.0
C503 C 0.55123 0.01205 0.8046 0.0
C504 C 0.56473 0.02094 0.78459 0.0
C505 C 0.55858 0.01959 0.75868 0.0
C506 C 0.53849 0.00996 0.75287 0.0
H507 H 0.01699 0.49614 0.8152 0.0
H508 H 1.00344 0.48189 0.73386 0.0
H509 H 0.98574 0.43631 0.79014 0.0
H510 H 0.03518 0.52045 0.77883 0.0
H511 H 0.02532 0.5152 0.74661 0.0
H512 H 0.01568 0.52461 0.81534 0.0
H513 H 0.98293 0.55146 0.79082 0.0
H514 H 1.00277 0.5256 0.73394 0.0
C515 C 0.00988 0.48544 0.79982 0.0
C516 C 1.00063 0.46551 0.80583 0.0
C517 C 0.01039 0.49155 0.77398 0.0
C518 C 1.00229 0.4774 0.75396 0.0
C519 C 0.99326 0.45744 0.7598 0.0
C520 C 0.99209 0.45169 0.78575 0.0
C521 C 0.02127 0.51307 0.76752 0.0
C522 C 0.00959 0.52289 0.77404 0.0
C523 C 0.00842 0.52793 0.80001 0.0
C524 C 0.99849 0.53792 0.80621 0.0
C525 C 0.98972 0.54287 0.78624 0.0
C526 C 0.99138 0.53873 0.76017 0.0
C527 C 1.00117 0.52854 0.75411 0.0
H528 H 0.51309 0.48106 0.82331 0.0
H529 H 0.50701 0.47293 0.74018 0.0
H530 H 0.45621 0.44922 0.78852 0.0
H531 H 0.54026 0.48336 0.79434 0.0
H532 H 0.53842 0.48493 0.75999 0.0
H533 H 0.53903 0.5107 0.82261 0.0
H534 H 0.57786 0.56722 0.79156 0.0
H535 H 0.5559 0.51667 0.74213 0.0
C536 C 0.504 0.47618 0.80603 0.0
C537 C 0.48361 0.4658 0.80872 0.0
C538 C 0.51265 0.47951 0.78129 0.0
C539 C 0.50054 0.47144 0.75917 0.0
C540 C 0.48013 0.46054 0.76168 0.0
C541 C 0.47188 0.45832 0.78639 0.0
C542 C 0.53464 0.48907 0.77886 0.0
C543 C 0.54517 0.51112 0.78167 0.0
C544 C 0.54639 0.51977 0.80613 0.0
C545 C 0.55791 0.54004 0.80985 0.0
C546 C 0.5681 0.5517 0.78864 0.0
C547 C 0.5675 0.54344 0.76425 0.0
C548 C 0.55596 0.52313 0.76078 0.0
H549 H 0.71047 0.88195 0.53616 0.0
H550 H 0.72029 0.88965 0.61887 0.0
H551 H 0.68864 0.91313 0.57999 0.0
H552 H 0.73736 0.87921 0.55923 0.0
H553 H 0.73721 0.87741 0.59374 0.0
H554 H 0.70981 0.8521 0.5325 0.0
H555 H 0.68953 0.79524 0.56436 0.0
H556 H 0.71981 0.84591 0.6135 0.0
C557 C 0.70775 0.88665 0.55468 0.0
C558 C 0.69831 0.89767 0.55527 0.0
C559 C 0.71519 0.8831 0.57768 0.0
C560 C 0.71348 0.89113 0.60136 0.0
C561 C 0.70395 0.90204 0.6022 0.0
C562 C 0.69575 0.90449 0.57932 0.0
C563 C 0.72754 0.87348 0.57631 0.0
C564 C 0.71541 0.8515 0.57358 0.0
C565 C 0.70768 0.84292 0.54912 0.0
C566 C 0.69799 0.82256 0.54576 0.0
C567 C 0.69597 0.81085 0.56719 0.0
C568 C 0.70381 0.81905 0.59164 0.0
C569 C 0.71338 0.83943 0.59481 0.0
H570 H 0.19025 0.85185 0.53543 0.0
H571 H 0.19378 0.86623 0.61702 0.0
H572 H 0.22077 0.91165 0.56041 0.0
H573 H 0.18489 0.82757 0.57188 0.0
H574 H 0.18073 0.83284 0.60417 0.0
H575 H 0.16075 0.82433 0.53547 0.0
H576 H 0.10131 0.79517 0.56068 0.0
H577 H 0.14776 0.82065 0.61726 0.0
C578 C 0.19429 0.86255 0.55086 0.0
C579 C 0.20525 0.88245 0.5448 0.0
C580 C 0.18924 0.85648 0.57681 0.0
C581 C 0.19637 0.87068 0.59685 0.0
C582 C 0.20768 0.8906 0.59091 0.0
C583 C 0.21144 0.89632 0.56488 0.0
C584 C 0.17852 0.83494 0.5833 0.0
C585 C 0.15687 0.82497 0.57701 0.0
C586 C 0.15033 0.82042 0.55102 0.0
C587 C 0.13031 0.81002 0.545 0.0
C588 C 0.11675 0.80409 0.56519 0.0
C589 C 0.12288 0.80759 0.59125 0.0
C590 C 0.14297 0.81825 0.59711 0.0
H591 H 0.1732 0.31207 0.53709 0.0
H592 H 0.17728 0.30383 0.61911 0.0
H593 H 0.22915 0.33268 0.5732 0.0
H594 H 0.14508 0.28583 0.56322 0.0
H595 H 0.14625 0.28682 0.59782 0.0
H596 H 0.14846 0.31739 0.53994 0.0
H597 H 0.10743 0.33123 0.57365 0.0
H598 H 0.12798 0.29927 0.61786 0.0
C599 C 0.18192 0.31488 0.55454 0.0
C600 C 0.20234 0.32423 0.55245 0.0
C601 C 0.17269 0.30819 0.57872 0.0
C602 C 0.18421 0.31016 0.60077 0.0
C603 C 0.2046 0.31912 0.59879 0.0
C604 C 0.21351 0.32664 0.57486 0.0
C605 C 0.15061 0.29606 0.58012 0.0
C606 C 0.14051 0.30806 0.57954 0.0
C607 C 0.14027 0.31752 0.55655 0.0
C608 C 0.12851 0.32608 0.55419 0.0
C609 C 0.11735 0.32562 0.57558 0.0
C610 C 0.11711 0.31604 0.59855 0.0
C611 C 0.12874 0.30732 0.60049 0.0
H612 H 0.02749 0.44422 0.05761 0.0
H613 H 0.99137 0.44394 0.20275 0.0
H614 H 0.98763 0.39174 0.09837 0.0
H615 H 0.04316 0.49219 0.1701 0.0
H616 H 0.98538 0.42627 0.16149 0.0
H617 H 0.0289 0.46352 0.09571 0.0
C618 C 0.0189 0.43677 0.07451 0.0
C619 C 0.00755 0.41634 0.07495 0.0
C620 C 0.99794 0.44081 0.16332 0.0
C621 C 0.00905 0.43833 0.11851 0.0
C622 C 1.0014 0.4509 0.18686 0.0
C623 C 0.01793 0.46953 0.19008 0.0
C624 C 0.01102 0.44942 0.14272 0.0
C625 C 0.03016 0.47796 0.16857 0.0
C626 C 0.01975 0.44779 0.09624 0.0
C627 C 0.99668 0.40746 0.09731 0.0
N628 N 0.02653 0.46779 0.14589 0.0
N629 N 0.99775 0.4185 0.11825 0.0
H630 H 0.6165 0.58457 0.08716 0.0
H631 H 0.53669 0.57476 0.18994 0.0
H632 H 0.58865 0.61942 0.0854 0.0
H633 H 0.55947 0.5355 0.1873 0.0
H634 H 0.55429 0.59007 0.15006 0.0
H635 H 0.59518 0.56574 0.12304 0.0
C636 C 0.60595 0.5883 0.09439 0.0
C637 C 0.60441 0.60364 0.08341 0.0
C638 C 0.55526 0.57794 0.15795 0.0
C639 C 0.5799 0.58211 0.12423 0.0
C640 C 0.54514 0.56916 0.18063 0.0
C641 C 0.54667 0.55389 0.1919 0.0
C642 C 0.56722 0.57157 0.14658 0.0
C643 C 0.55779 0.54714 0.17911 0.0
C644 C 0.59371 0.57747 0.11475 0.0
C645 C 0.5904 0.60776 0.09338 0.0
N646 N 0.56786 0.5562 0.15729 0.0
N647 N 0.57874 0.59711 0.11325 0.0
H648 H 0.41833 0.03214 0.09308 0.0
H649 H 0.45697 0.96885 0.16271 0.0
H650 H 0.42762 0.98989 0.05208 0.0
H651 H 0.46371 0.02198 0.19626 0.0
H652 H 0.44743 0.97696 0.1215 0.0
H653 H 0.43556 0.02915 0.13087 0.0
C654 C 0.42414 0.02236 0.09198 0.0
C655 C 0.42144 0.01114 0.06953 0.0
C656 C 0.45126 0.98698 0.13778 0.0
C657 C 0.44098 0.0075 0.11266 0.0
C658 C 0.45686 0.98243 0.16131 0.0
C659 C 0.46096 0.99465 0.18314 0.0
C660 C 0.4495 0.00372 0.13612 0.0
C661 C 0.46026 0.01191 0.18013 0.0
C662 C 0.43402 0.02069 0.1135 0.0
C663 C 0.42932 0.99875 0.06906 0.0
N664 N 0.45435 0.01579 0.1572 0.0
N665 N 0.43854 0.99709 0.09042 0.0
H666 H 0.40458 0.97912 0.93853 0.0
H667 H 0.48148 0.04503 0.83079 0.0
H668 H 0.43377 0.04201 0.93856 0.0
H669 H 0.45995 0.98336 0.8382 0.0
H670 H 0.46501 0.04439 0.87119 0.0
H671 H 0.42492 0.98029 0.90207 0.0
C672 C 0.41523 0.99316 0.9308 0.0
C673 C 0.41742 0.01049 0.94146 0.0
C674 C 0.46409 0.03103 0.86422 0.0
C675 C 0.4408 0.01196 0.89991 0.0
C676 C 0.47354 0.03142 0.84123 0.0
C677 C 0.47203 0.01422 0.83119 0.0
C678 C 0.4528 0.01325 0.8771 0.0
C679 C 0.46159 0.99697 0.84542 0.0
C680 C 0.42691 0.99383 0.91011 0.0
C681 C 0.43154 0.0283 0.93085 0.0
N682 N 0.45215 0.99686 0.8675 0.0
N683 N 0.44262 0.02857 0.9106 0.0
H684 H 0.03963 0.43146 0.94284 0.0
H685 H 0.97046 0.43706 0.8333 0.0
H686 H 0.97696 0.39462 0.94097 0.0
H687 H 0.03227 0.47793 0.83838 0.0
H688 H 0.97254 0.42227 0.87388 0.0
H689 H 0.03743 0.44917 0.90519 0.0
C690 C 0.02543 0.42707 0.93445 0.0
C691 C 0.00846 0.41149 0.94495 0.0
C692 C 0.98564 0.4346 0.86633 0.0
C693 C 0.00581 0.43173 0.90206 0.0
C694 C 0.98444 0.44307 0.8432 0.0
C695 C 1.00123 0.45869 0.83246 0.0
C696 C 0.00383 0.44165 0.87876 0.0
C697 C 0.01896 0.46598 0.84612 0.0
C698 C 0.02416 0.43724 0.91306 0.0
C699 C 0.99042 0.40649 0.93344 0.0
N700 N 0.01985 0.45726 0.86843 0.0
N701 N 0.98959 0.41653 0.91262 0.0
H702 H 0.61039 0.62772 0.92867 0.0
H703 H 0.56251 0.52549 0.85612 0.0
H704 H 0.59303 0.57384 0.9689 0.0
H705 H 0.56176 0.57535 0.82386 0.0
H706 H 0.57318 0.54265 0.89774 0.0
H707 H 0.5929 0.60891 0.88983 0.0
C708 C 0.60281 0.61194 0.92935 0.0
C709 C 0.60324 0.60231 0.95193 0.0
C710 C 0.57043 0.54973 0.88164 0.0
C711 C 0.58335 0.58073 0.90765 0.0
C712 C 0.56416 0.53987 0.85786 0.0
C713 C 0.56137 0.54903 0.83626 0.0
C714 C 0.57423 0.569 0.8838 0.0
C715 C 0.56413 0.56786 0.83977 0.0
C716 C 0.59276 0.60121 0.90725 0.0
C717 C 0.5931 0.58183 0.95184 0.0
N718 N 0.57067 0.57733 0.86295 0.0
N719 N 0.58374 0.57172 0.92995 0.0
H720 H 0.97155 0.58477 0.9413 0.0
H721 H 0.03014 0.55771 0.83851 0.0
H722 H 0.03442 0.61355 0.93902 0.0
H723 H 0.96816 0.5358 0.83394 0.0
H724 H 0.03159 0.5749 0.87894 0.0
H725 H 0.96975 0.56407 0.90479 0.0
C726 C 0.98499 0.58677 0.93304 0.0
C727 C 1.00317 0.60097 0.94307 0.0
C728 C 0.01764 0.56616 0.86924 0.0
C729 C 1.00123 0.57718 0.90146 0.0
C730 C 0.01677 0.55617 0.84635 0.0
C731 C 0.99901 0.54539 0.83286 0.0
C732 C 1.00061 0.56529 0.87871 0.0
C733 C 0.98217 0.54411 0.84366 0.0
C734 C 0.98395 0.5749 0.91225 0.0
C735 C 0.02011 0.60285 0.93175 0.0
N736 N 0.9834 0.55405 0.86584 0.0
N737 N 0.01873 0.59108 0.91153 0.0
H738 H 0.39649 0.4232 0.92937 0.0
H739 H 0.49489 0.45327 0.85161 0.0
H740 H 0.44116 0.41124 0.95603 0.0
H741 H 0.45077 0.46603 0.82487 0.0
H742 H 0.47675 0.44047 0.89187 0.0
H743 H 0.41708 0.4409 0.89237 0.0
C744 C 0.41064 0.42433 0.92745 0.0
C745 C 0.41708 0.41564 0.94569 0.0
C746 C 0.47111 0.44624 0.87731 0.0
C747 C 0.44073 0.4359 0.90353 0.0
C748 C 0.48158 0.45374 0.8544 0.0
C749 C 0.4743 0.46065 0.83474 0.0
C750 C 0.45317 0.44556 0.88061 0.0
C751 C 0.45679 0.46058 0.83935 0.0
C752 C 0.4224 0.43447 0.90638 0.0
C753 C 0.43557 0.41763 0.94234 0.0
N754 N 0.44675 0.45301 0.86168 0.0
N755 N 0.4467 0.42748 0.92164 0.0
H756 H 0.58885 0.97488 0.93972 0.0
H757 H 0.57943 0.04267 0.83263 0.0
H758 H 0.6228 0.03777 0.94114 0.0
H759 H 0.54009 0.98056 0.83632 0.0
H760 H 0.59488 0.04116 0.87313 0.0
H761 H 0.5706 0.97647 0.90207 0.0
C762 C 0.5925 0.98901 0.93205 0.0
C763 C 0.60742 0.00622 0.94347 0.0
C764 C 0.58274 0.02786 0.86529 0.0
C765 C 0.58657 0.00816 0.90057 0.0
C766 C 0.5739 0.02874 0.84221 0.0
C767 C 0.55851 0.01171 0.83112 0.0
C768 C 0.57628 0.00977 0.87729 0.0
C769 C 0.55183 0.99405 0.84434 0.0
C770 C 0.58202 0.98991 0.91066 0.0
C771 C 0.61146 0.02414 0.93288 0.0
N772 N 0.5609 0.99349 0.86661 0.0
N773 N 0.60115 0.02464 0.912 0.0
H774 H 0.57417 0.9826 0.05461 0.0
H775 H 0.57035 0.01899 0.19875 0.0
H776 H 0.62495 0.02591 0.09668 0.0
H777 H 0.52434 0.96535 0.16521 0.0
H778 H 0.58855 0.02544 0.15828 0.0
H779 H 0.55391 0.97979 0.09196 0.0
C780 C 0.58104 0.99163 0.07164 0.0
C781 C 0.60129 0.00442 0.07264 0.0
C782 C 0.5744 0.01235 0.15972 0.0
C783 C 0.57819 1.00133 0.11535 0.0
C784 C 0.56399 0.00863 0.18281 0.0
C785 C 0.54587 0.99146 0.18556 0.0
C786 C 0.56661 0.99888 0.13907 0.0
C787 C 0.53818 0.97881 0.164 0.0
C788 C 0.56947 0.98999 0.09295 0.0
C789 C 0.60941 0.01579 0.09517 0.0
N790 N 0.54867 0.9827 0.14174 0.0
N791 N 0.59783 0.01394 0.11566 0.0
H792 H 0.9847 0.60295 0.09589 0.0
H793 H 0.04417 0.56088 0.16787 0.0
H794 H 0.02615 0.59209 0.05598 0.0
H795 H 0.98967 0.55312 0.1969 0.0
H796 H 0.0379 0.57196 0.12656 0.0
H797 H 0.98665 0.58511 0.13347 0.0
C798 C 0.99413 0.59672 0.09501 0.0
C799 C 0.00535 0.59906 0.0729 0.0
C800 C 0.02719 0.56757 0.14186 0.0
C801 C 0.00777 0.5788 0.11577 0.0
C802 C 0.03068 0.56109 0.16541 0.0
C803 C 0.01753 0.55625 0.18605 0.0
C804 C 0.01058 0.56948 0.13904 0.0
C805 C 1.00043 0.5571 0.18174 0.0
C806 C 0.99518 0.58647 0.11639 0.0
C807 C 0.01728 0.59064 0.0727 0.0
N808 N 0.99759 0.56388 0.15889 0.0
N809 N 0.01834 0.58105 0.09394 0.0
H810 H 0.39852 0.3863 0.1023 0.0
H811 H 0.47655 0.48627 0.17267 0.0
H812 H 0.43161 0.44048 0.06117 0.0
H813 H 0.44261 0.43135 0.2118 0.0
H814 H 0.46205 0.46977 0.13101 0.0
H815 H 0.41601 0.40259 0.14225 0.0
C816 C 0.4095 0.40164 0.10168 0.0
C817 C 0.41356 0.41207 0.07843 0.0
C818 C 0.45786 0.46136 0.14874 0.0
C819 C 0.43369 0.4309 0.12413 0.0
C820 C 0.46618 0.47075 0.17244 0.0
C821 C 0.46051 0.46022 0.1957 0.0
C822 C 0.44389 0.44132 0.14843 0.0
C823 C 0.44706 0.44012 0.19437 0.0
C824 C 0.41952 0.41095 0.1245 0.0
C825 C 0.42799 0.43191 0.07873 0.0
N826 N 0.43916 0.43138 0.17122 0.0
N827 N 0.4375 0.44071 0.10126 0.0
H828 H 0.65153 0.73176 0.42988 0.0
H829 H 0.7182 0.83467 0.50001 0.0
H830 H 0.70144 0.77988 0.39382 0.0
H831 H 0.66438 0.78899 0.53203 0.0
H832 H 0.71086 0.816 0.45944 0.0
H833 H 0.65489 0.75318 0.46639 0.0
C834 C 0.66315 0.74685 0.42962 0.0
C835 C 0.67631 0.75402 0.4089 0.0
C836 C 0.70052 0.81017 0.47521 0.0
C837 C 0.68027 0.77864 0.45058 0.0
C838 C 0.70462 0.82093 0.49832 0.0
C839 C 0.69198 0.8133 0.51957 0.0
C840 C 0.68373 0.79159 0.47339 0.0
C841 C 0.6747 0.79527 0.5163 0.0
C842 C 0.66503 0.75911 0.45041 0.0
C843 C 0.69103 0.77373 0.40947 0.0
N844 N 0.67121 0.78493 0.49381 0.0
N845 N 0.6927 0.78531 0.43005 0.0
H846 H 0.24832 0.95126 0.40518 0.0
H847 H 0.22462 0.87008 0.51324 0.0
H848 H 0.2833 0.92418 0.41709 0.0
H849 H 0.20326 0.91051 0.51654 0.0
H850 H 0.24162 0.88532 0.47278 0.0
H851 H 0.22761 0.93245 0.44142 0.0
C852 C 0.25163 0.94134 0.41542 0.0
C853 C 0.26763 0.93937 0.40827 0.0
C854 C 0.23302 0.89069 0.48221 0.0
C855 C 0.24385 0.91763 0.44949 0.0
C856 C 0.22315 0.88187 0.50509 0.0
C857 C 0.21255 0.88908 0.51817 0.0
C858 C 0.23211 0.90671 0.47227 0.0
C859 C 0.21135 0.90459 0.50704 0.0
C860 C 0.2398 0.93061 0.43608 0.0
C861 C 0.2712 0.92625 0.42213 0.0
N862 N 0.22108 0.91294 0.48478 0.0
N863 N 0.25938 0.91584 0.44207 0.0
H864 H 0.07779 0.36509 0.43818 0.0
H865 H 0.12673 0.31049 0.5057 0.0
H866 H 0.09844 0.3321 0.3954 0.0
H867 H 0.12303 0.35717 0.54398 0.0
H868 H 0.11738 0.31903 0.46492 0.0
H869 H 0.09464 0.36298 0.47711 0.0
C870 C 0.08601 0.35756 0.43693 0.0
C871 C 0.0866 0.34862 0.41362 0.0
C872 C 0.11886 0.32759 0.48216 0.0
C873 C 0.10572 0.34601 0.45798 0.0
C874 C 0.12441 0.32283 0.50553 0.0
C875 C 0.12562 0.33304 0.52855 0.0
C876 C 0.11415 0.34246 0.48174 0.0
C877 C 0.12191 0.34861 0.52692 0.0
C878 C 0.09566 0.35641 0.45911 0.0
C879 C 0.09752 0.33912 0.41302 0.0
N880 N 0.11608 0.35266 0.50402 0.0
N881 N 0.10645 0.33787 0.43494 0.0
H882 H 0.10133 0.37718 0.28182 0.0
H883 H 0.12332 0.31706 0.17467 0.0
H884 H 0.07045 0.31428 0.27803 0.0
H885 H 0.14757 0.37942 0.1737 0.0
H886 H 0.10713 0.31572 0.21589 0.0
H887 H 0.12114 0.3782 0.24506 0.0
C888 C 0.0987 0.36356 0.2732 0.0
C889 C 0.08412 0.34562 0.28286 0.0
C890 C 0.11618 0.32971 0.2068 0.0
C891 C 0.10688 0.34665 0.24077 0.0
C892 C 0.12556 0.3305 0.18346 0.0
C893 C 0.1367 0.34837 0.1708 0.0
C894 C 0.11807 0.34695 0.21751 0.0
C895 C 0.13897 0.36533 0.18278 0.0
C896 C 0.11006 0.36414 0.25223 0.0
C897 C 0.08145 0.32843 0.27104 0.0
N898 N 0.12965 0.36419 0.20535 0.0
N899 N 0.0927 0.32936 0.25055 0.0
H900 H 0.64147 0.73789 0.28117 0.0
H901 H 0.70502 0.81395 0.17083 0.0
H902 H 0.70302 0.75943 0.2713 0.0
H903 H 0.64268 0.7761 0.1645 0.0
H904 H 0.70463 0.79889 0.2126 0.0
H905 H 0.64182 0.75618 0.24269 0.0
C906 C 0.65506 0.74649 0.27091 0.0
C907 C 0.67222 0.74706 0.27929 0.0
C908 C 0.69103 0.79404 0.20217 0.0
C909 C 0.67277 0.7682 0.2356 0.0
C910 C 0.69122 0.80274 0.17853 0.0
C911 C 0.67385 0.79621 0.16428 0.0
C912 C 0.67332 0.77886 0.21172 0.0
C913 C 0.65638 0.78146 0.1749 0.0
C914 C 0.65524 0.75691 0.24899 0.0
C915 C 0.68944 0.75848 0.26535 0.0
N916 N 0.65655 0.77325 0.19797 0.0
N917 N 0.68929 0.76866 0.24421 0.0
H918 H 0.26547 0.9086 0.29621 0.0
H919 H 0.22526 0.90641 0.15234 0.0
H920 H 0.26986 0.95923 0.25866 0.0
H921 H 0.22855 0.85855 0.18681 0.0
H922 H 0.23717 0.92462 0.1933 0.0
H923 H 0.24772 0.88881 0.25834 0.0
C924 C 0.26263 0.91554 0.28001 0.0
C925 C 0.26929 0.93562 0.28046 0.0
C926 C 0.23506 0.91004 0.19196 0.0
C927 C 0.24893 0.91303 0.23703 0.0
C928 C 0.22826 0.89964 0.1686 0.0
C929 C 0.226 0.88095 0.16602 0.0
C930 C 0.23963 0.9017 0.21293 0.0
C931 C 0.22985 0.87279 0.18787 0.0
C932 C 0.25248 0.90423 0.25839 0.0
C933 C 0.26509 0.94382 0.25901 0.0
N934 N 0.23662 0.88328 0.21029 0.0
N935 N 0.25525 0.9325 0.23808 0.0
H936 H 0.70938 0.94964 0.2756 0.0
H937 H 0.64415 0.86934 0.16871 0.0
H938 H 0.64646 0.91593 0.27732 0.0
H939 H 0.70695 0.89752 0.17118 0.0
H940 H 0.64483 0.88491 0.21012 0.0
H941 H 0.70907 0.92992 0.23854 0.0
C942 C 0.69551 0.93807 0.26819 0.0
C943 C 0.67791 0.93449 0.2794 0.0
C944 C 0.65848 0.88754 0.20184 0.0
C945 C 0.67743 0.91186 0.23716 0.0
C946 C 0.65807 0.87862 0.17825 0.0
C947 C 0.67552 0.88225 0.16655 0.0
C948 C 0.6765 0.90042 0.2137 0.0
C949 C 0.69317 0.8943 0.17968 0.0
C950 C 0.69534 0.92677 0.24712 0.0
C951 C 0.66037 0.91926 0.26917 0.0
N952 N 0.69325 0.90318 0.20244 0.0
N953 N 0.66058 0.90859 0.24856 0.0
H954 H 0.05548 0.7501 0.25393 0.0
H955 H 0.15877 0.78825 0.18615 0.0
H956 H 0.1048 0.75124 0.29174 0.0
H957 H 0.11201 0.79374 0.15148 0.0
H958 H 0.13995 0.77669 0.22602 0.0
H959 H 0.07629 0.76738 0.21693 0.0
C960 C 0.0707 0.75405 0.25447 0.0
C961 C 0.0784 0.74913 0.27584 0.0
C962 C 0.13387 0.78062 0.2098 0.0
C963 C 0.10229 0.76887 0.23364 0.0
C964 C 0.14472 0.78743 0.18705 0.0
C965 C 0.13696 0.79192 0.16529 0.0
C966 C 0.11502 0.77809 0.21082 0.0
C967 C 0.11846 0.79016 0.1676 0.0
C968 C 0.08259 0.76395 0.23339 0.0
C969 C 0.09824 0.75467 0.2756 0.0
N970 N 0.10805 0.78321 0.18983 0.0
N971 N 0.10946 0.76413 0.25477 0.0
H972 H 0.26049 0.31397 0.27149 0.0
H973 H 0.24294 0.38155 0.17449 0.0
H974 H 0.27922 0.37416 0.28919 0.0
H975 H 0.20777 0.31882 0.17223 0.0
H976 H 0.25745 0.37946 0.21568 0.0
H977 H 0.24247 0.31562 0.23361 0.0
C978 C 0.26083 0.32753 0.26737 0.0
C979 C 0.27141 0.34398 0.28341 0.0
C980 C 0.24636 0.36616 0.20638 0.0
C981 C 0.2509 0.34598 0.24019 0.0
C982 C 0.23808 0.36736 0.18295 0.0
C983 C 0.22412 0.35034 0.1701 0.0
C984 C 0.24094 0.34777 0.21674 0.0
C985 C 0.21836 0.33228 0.18172 0.0
C986 C 0.25045 0.32843 0.24587 0.0
C987 C 0.27127 0.36115 0.27729 0.0
N988 N 0.22699 0.33144 0.20424 0.0
N989 N 0.2613 0.36175 0.25605 0.0
H990 H 0.24006 0.31485 0.39824 0.0
H991 H 0.23694 0.35662 0.53917 0.0
H992 H 0.29029 0.36266 0.43573 0.0
H993 H 0.19024 0.30277 0.50714 0.0
H994 H 0.25512 0.36181 0.49886 0.0
H995 H 0.22021 0.31282 0.43563 0.0
C996 C 0.2469 0.32497 0.41434 0.0
C997 C 0.26688 0.33887 0.41398 0.0
C998 C 0.24081 0.34896 0.50057 0.0
C999 C 0.24422 0.33668 0.4568 0.0
C1000 C 0.23041 0.34599 0.52356 0.0
C1001 C 0.21207 0.32916 0.52667 0.0
C1002 C 0.23282 0.33502 0.48045 0.0
C1003 C 0.20422 0.31604 0.50561 0.0
C1004 C 0.23556 0.3238 0.43567 0.0
C1005 C 0.27496 0.35164 0.4353 0.0
N1006 N 0.2147 0.31918 0.4835 0.0
N1007 N 0.26361 0.35022 0.45589 0.0
H1008 H 0.672 0.91314 0.3956 0.0
H1009 H 0.70329 0.93373 0.54505 0.0
H1010 H 0.68045 0.96396 0.43801 0.0
H1011 H 0.6827 0.87721 0.50929 0.0
H1012 H 0.69548 0.9449 0.50541 0.0
H1013 H 0.67612 0.89955 0.4363 0.0
C1014 C 0.67457 0.92136 0.41351 0.0
C1015 C 0.67597 0.93975 0.41344 0.0
C1016 C 0.69249 0.93 0.50621 0.0
C1017 C 0.68086 0.92439 0.45992 0.0
C1018 C 0.69681 0.9235 0.529 0.0
C1019 C 0.69333 0.90431 0.53081 0.0
C1020 C 0.68485 0.9174 0.48468 0.0
C1021 C 0.68565 0.8921 0.50883 0.0
C1022 C 0.67691 0.91359 0.43671 0.0
C1023 C 0.67929 0.94976 0.43716 0.0
N1024 N 0.6817 0.89887 0.48662 0.0
N1025 N 0.68176 0.94202 0.45938 0.0
H1026 H 0.06058 0.76927 0.40381 0.0
H1027 H 0.14271 0.79166 0.51154 0.0
H1028 H 0.08983 0.73597 0.41132 0.0
H1029 H 0.1014 0.81179 0.51793 0.0
H1030 H 0.12751 0.77575 0.47011 0.0
H1031 H 0.07901 0.78902 0.44157 0.0
C1032 C 0.0709 0.76614 0.41339 0.0
C1033 C 0.0736 0.75089 0.40456 0.0
C1034 C 0.1219 0.78382 0.48046 0.0
C1035 C 0.09487 0.77355 0.44749 0.0
C1036 C 0.1307 0.79307 0.50393 0.0
C1037 C 0.12326 0.80303 0.51815 0.0
C1038 C 0.10565 0.78466 0.47106 0.0
C1039 C 0.10748 0.80415 0.5076 0.0
C1040 C 0.08141 0.77741 0.43491 0.0
C1041 C 0.08721 0.7475 0.41762 0.0
N1042 N 0.09914 0.79501 0.48473 0.0
N1043 N 0.09736 0.75876 0.43842 0.0
H1044 H 0.374 0.10912 0.72715 0.0
H1045 H 0.33043 0.1152 0.8648 0.0
H1046 H 0.32326 0.06085 0.76157 0.0
H1047 H 0.3861 0.16008 0.83622 0.0
H1048 H 0.32518 0.09697 0.82422 0.0
H1049 H 0.37649 0.12959 0.76438 0.0
C1050 C 0.36336 0.10284 0.74254 0.0
C1051 C 0.34848 0.08321 0.74137 0.0
C1052 C 0.33846 0.11089 0.82672 0.0
C1053 C 0.35117 0.1066 0.78396 0.0
C1054 C 0.34146 0.12133 0.84986 0.0
C1055 C 0.35882 0.13912 0.85404 0.0
C1056 C 0.35292 0.11828 0.80754 0.0
C1057 C 0.37245 0.1465 0.83382 0.0
C1058 C 0.36478 0.11454 0.76377 0.0
C1059 C 0.33504 0.07587 0.76178 0.0
N1060 N 0.3693 0.13596 0.81155 0.0
N1061 N 0.33673 0.08755 0.78226 0.0
H1062 H 0.91895 0.28459 0.75815 0.0
H1063 H 0.8969 0.19972 0.85986 0.0
H1064 H 0.94549 0.24861 0.75375 0.0
H1065 H 0.8763 0.24055 0.86809 0.0
H1066 H 0.91188 0.21489 0.81838 0.0
H1067 H 0.90095 0.26659 0.79642 0.0
C1068 C 0.92103 0.27292 0.7653 0.0
C1069 C 0.93382 0.26816 0.75285 0.0
C1070 C 0.90393 0.22041 0.82916 0.0
C1071 C 0.9131 0.24733 0.79662 0.0
C1072 C 0.89522 0.21163 0.85268 0.0
C1073 C 0.88542 0.21896 0.86745 0.0
C1074 C 0.90276 0.23656 0.82035 0.0
C1075 C 0.88389 0.23458 0.85742 0.0
C1076 C 0.9107 0.2626 0.78713 0.0
C1077 C 0.93586 0.25282 0.76288 0.0
N1078 N 0.89255 0.24291 0.8346 0.0
N1079 N 0.92561 0.24295 0.78421 0.0
H1080 H 0.73031 0.68435 0.77802 0.0
H1081 H 0.81821 0.67738 0.84477 0.0
H1082 H 0.77696 0.68584 0.7332 0.0
H1083 H 0.7617 0.65709 0.8794 0.0
H1084 H 0.80637 0.68577 0.80529 0.0
H1085 H 0.74522 0.6805 0.81755 0.0
C1086 C 0.74379 0.68404 0.77653 0.0
C1087 C 0.75232 0.68525 0.7523 0.0
C1088 C 0.79673 0.67965 0.82174 0.0
C1089 C 0.76945 0.68077 0.79747 0.0
C1090 C 0.80343 0.67481 0.84422 0.0
C1091 C 0.79111 0.66681 0.86576 0.0
C1092 C 0.77763 0.67657 0.82092 0.0
C1093 C 0.77206 0.66381 0.86383 0.0
C1094 C 0.75226 0.68177 0.79908 0.0
C1095 C 0.76984 0.68482 0.75153 0.0
N1096 N 0.766 0.66873 0.84195 0.0
N1097 N 0.77782 0.68254 0.7738 0.0
H1098 H 0.73782 0.65153 0.61358 0.0
H1099 H 0.81437 0.71473 0.5046 0.0
H1100 H 0.77294 0.7143 0.61755 0.0
H1101 H 0.78987 0.65254 0.51126 0.0
H1102 H 0.80001 0.71507 0.5465 0.0
H1103 H 0.75677 0.65155 0.5761 0.0
C1104 C 0.74952 0.66531 0.60655 0.0
C1105 C 0.75375 0.68295 0.61856 0.0
C1106 C 0.79801 0.70138 0.53902 0.0
C1107 C 0.7755 0.6831 0.57577 0.0
C1108 C 0.80625 0.70121 0.51517 0.0
C1109 C 0.80328 0.68359 0.50451 0.0
C1110 C 0.78644 0.68375 0.5521 0.0
C1111 C 0.79263 0.66646 0.51892 0.0
C1112 C 0.76041 0.66532 0.58527 0.0
C1113 C 0.76915 0.70038 0.60879 0.0
N1114 N 0.78436 0.66692 0.54182 0.0
N1115 N 0.77938 0.70003 0.58785 0.0
H1116 H 0.31156 0.07049 0.61703 0.0
H1117 H 0.3724 0.14932 0.50803 0.0
H1118 H 0.37281 0.09239 0.6036 0.0
H1119 H 0.30988 0.11203 0.50453 0.0
H1120 H 0.37308 0.13346 0.5486 0.0
H1121 H 0.31103 0.09005 0.58063 0.0
C1122 C 0.3249 0.07944 0.60642 0.0
C1123 C 0.34223 0.07973 0.61317 0.0
C1124 C 0.3592 0.12893 0.5391 0.0
C1125 C 0.34177 0.10232 0.57185 0.0
C1126 C 0.35879 0.13811 0.51616 0.0
C1127 C 0.34105 0.13193 0.50301 0.0
C1128 C 0.34173 0.11363 0.54902 0.0
C1129 C 0.32384 0.11714 0.5141 0.0
C1130 C 0.32458 0.09059 0.58569 0.0
C1131 C 0.3591 0.09163 0.59887 0.0
N1132 N 0.3246 0.10844 0.53644 0.0
N1133 N 0.35847 0.10249 0.57889 0.0
H1134 H 0.91429 0.23673 0.63896 0.0
H1135 H 0.88972 0.23784 0.48812 0.0
H1136 H 0.93488 0.2896 0.59485 0.0
H1137 H 0.88731 0.18835 0.52664 0.0
H1138 H 0.89906 0.2557 0.52953 0.0
H1139 H 0.89718 0.2177 0.60018 0.0
C1140 C 0.91505 0.24435 0.62117 0.0
C1141 C 0.92619 0.26476 0.62 0.0
C1142 C 0.89621 0.24083 0.5289 0.0
C1143 C 0.90659 0.24309 0.57565 0.0
C1144 C 0.89091 0.23062 0.50528 0.0
C1145 C 0.88797 0.21161 0.50369 0.0
C1146 C 0.8984 0.23192 0.55117 0.0
C1147 C 0.88928 0.20289 0.52678 0.0
C1148 C 0.9053 0.23347 0.59906 0.0
C1149 C 0.92659 0.27387 0.59649 0.0
N1150 N 0.89456 0.21317 0.54948 0.0
N1151 N 0.91701 0.26296 0.57517 0.0
H1152 H 0.37312 0.29469 0.60114 0.0
H1153 H 0.31048 0.20391 0.50961 0.0
H1154 H 0.31831 0.24639 0.62645 0.0
H1155 H 0.37332 0.23609 0.50637 0.0
H1156 H 0.31207 0.22032 0.55094 0.0
H1157 H 0.37268 0.2749 0.56404 0.0
C1158 C 0.36101 0.27992 0.59886 0.0
C1159 C 0.34569 0.27215 0.61677 0.0
C1160 C 0.32551 0.22354 0.54139 0.0
C1161 C 0.34503 0.24958 0.57447 0.0
C1162 C 0.3246 0.21418 0.51793 0.0
C1163 C 0.3418 0.21862 0.50485 0.0
C1164 C 0.34373 0.2378 0.55136 0.0
C1165 C 0.35976 0.23217 0.51613 0.0
C1166 C 0.36084 0.26862 0.57785 0.0
C1167 C 0.3304 0.25291 0.61306 0.0
N1168 N 0.36027 0.24153 0.53859 0.0
N1169 N 0.33033 0.24233 0.59213 0.0
H1170 H 0.7258 0.05909 0.589 0.0
H1171 H 0.81896 0.1465 0.52005 0.0
H1172 H 0.77049 0.10812 0.63233 0.0
H1173 H 0.78181 0.0897 0.48548 0.0
H1174 H 0.79986 0.135 0.56024 0.0
H1175 H 0.74412 0.07287 0.5492 0.0
C1176 C 0.7394 0.07286 0.5901 0.0
C1177 C 0.74669 0.08241 0.61401 0.0
C1178 C 0.79591 0.12516 0.54372 0.0
C1179 C 0.76787 0.09826 0.56849 0.0
C1180 C 0.80682 0.13168 0.52085 0.0
C1181 C 0.80183 0.11919 0.49913 0.0
C1182 C 0.77988 0.10607 0.54478 0.0
C1183 C 0.78592 0.10011 0.50132 0.0
C1184 C 0.74992 0.08069 0.56738 0.0
C1185 C 0.76441 0.10024 0.61427 0.0
N1186 N 0.77554 0.09421 0.52361 0.0
N1187 N 0.77446 0.10759 0.59183 0.0
H1188 H 0.93859 0.64638 0.58966 0.0
H1189 H 0.87171 0.68249 0.51959 0.0
H1190 H 0.92739 0.68988 0.62289 0.0
H1191 H 0.89702 0.65256 0.47985 0.0
H1192 H 0.88741 0.68092 0.56025 0.0
H1193 H 0.91905 0.64438 0.55149 0.0
C1194 C 0.932 0.65548 0.58892 0.0
C1195 C 0.93473 0.66842 0.60934 0.0
C1196 C 0.88939 0.67459 0.54264 0.0
C1197 C 0.91222 0.66609 0.56592 0.0
C1198 C 0.88035 0.67537 0.51958 0.0
C1199 C 0.88328 0.6678 0.49645 0.0
C1200 C 0.90118 0.66595 0.54248 0.0
C1201 C 0.89462 0.65876 0.4973 0.0
C1202 C 0.92085 0.65434 0.56716 0.0
C1203 C 0.92577 0.67982 0.60746 0.0
N1204 N 0.9032 0.65813 0.5199 0.0
N1205 N 0.91491 0.67839 0.58612 0.0
H1206 H 0.95967 0.6725 0.77083 0.0
H1207 H 0.86624 0.66875 0.83576 0.0
H1208 H 0.91294 0.67023 0.72461 0.0
H1209 H 0.90242 0.64956 0.87365 0.0
H1210 H 0.88496 0.67375 0.79564 0.0
H1211 H 0.94109 0.66939 0.81014 0.0
C1212 C 0.94555 0.67148 0.76898 0.0
C1213 C 0.93778 0.67151 0.74446 0.0
C1214 C 0.88877 0.66854 0.81287 0.0
C1215 C 0.91643 0.66798 0.78931 0.0
C1216 C 0.87807 0.66562 0.83572 0.0
C1217 C 0.88296 0.65909 0.85836 0.0
C1218 C 0.9045 0.66502 0.8128 0.0
C1219 C 0.89846 0.65525 0.85707 0.0
C1220 C 0.93491 0.66962 0.79139 0.0
C1221 C 0.9194 0.67015 0.74318 0.0
N1222 N 0.9087 0.65839 0.83483 0.0
N1223 N 0.90933 0.66844 0.76531 0.0
H1224 H 0.37989 0.28349 0.73643 0.0
H1225 H 0.33021 0.22115 0.86366 0.0
H1226 H 0.32022 0.26378 0.75762 0.0
H1227 H 0.38763 0.23581 0.83763 0.0
H1228 H 0.32537 0.23475 0.82357 0.0
H1229 H 0.38243 0.26487 0.77242 0.0
C1230 C 0.36731 0.27525 0.7487 0.0
C1231 C 0.34985 0.27528 0.74416 0.0
C1232 C 0.33893 0.23476 0.82643 0.0
C1233 C 0.35263 0.25384 0.78537 0.0
C1234 C 0.34167 0.22695 0.84927 0.0
C1235 C 0.35938 0.22744 0.854 0.0
C1236 C 0.35409 0.2433 0.80828 0.0
C1237 C 0.37371 0.23502 0.83469 0.0
C1238 C 0.36875 0.26453 0.76917 0.0
C1239 C 0.33399 0.26423 0.76054 0.0
N1240 N 0.37085 0.24288 0.81282 0.0
N1241 N 0.33579 0.25403 0.78051 0.0
H1242 H 0.72979 0.09539 0.75931 0.0
H1243 H 0.8186 0.12311 0.85819 0.0
H1244 H 0.77126 0.0757 0.74977 0.0
H1245 H 0.77529 0.14025 0.86901 0.0
H1246 H 0.80348 0.10838 0.81625 0.0
H1247 H 0.74778 0.11393 0.79788 0.0
C1248 C 0.74269 0.09496 0.76537 0.0
C1249 C 0.74899 0.08391 0.75142 0.0
C1250 C 0.79739 0.11552 0.82769 0.0
C1251 C 0.76976 0.1052 0.7955 0.0
C1252 C 0.80614 0.1241 0.85151 0.0
C1253 C 0.79812 0.13282 0.86716 0.0
C1254 C 0.78052 0.11567 0.81948 0.0
C1255 C 0.78179 0.13345 0.85769 0.0
C1256 C 0.75299 0.10559 0.78735 0.0
C1257 C 0.76585 0.08395 0.76006 0.0
N1258 N 0.77346 0.12487 0.83457 0.0
N1259 N 0.77563 0.0944 0.78159 0.0
H1260 H 0.0711 0.40374 0.05873 0.0
H1261 H 0.12089 0.33879 0.05542 0.0
H1262 H 0.05645 0.35959 -0.00035 0.0
H1263 H 0.14416 0.39289 0.09829 0.0
H1264 H 0.09923 0.34722 0.03154 0.0
H1265 H 0.09926 0.40087 0.07127 0.0
C1266 C 0.07391 0.39351 0.04827 0.0
C1267 C 0.06135 0.38178 0.02827 0.0
C1268 C 0.10941 0.35745 0.04573 0.0
C1269 C 0.09356 0.37823 0.0427 0.0
C1270 C 0.1219 0.35273 0.05918 0.0
C1271 C 0.13417 0.36508 0.07903 0.0
C1272 C 0.10914 0.37455 0.05244 0.0
C1273 C 0.13474 0.38286 0.08335 0.0
C1274 C 0.09007 0.39193 0.05535 0.0
C1275 C 0.06578 0.36888 0.01524 0.0
N1276 N 0.12217 0.38689 0.07052 0.0
N1277 N 0.08138 0.36722 0.02294 0.0
H1278 H 0.61469 0.68062 0.02242 0.0
H1279 H 0.69247 0.79211 0.05566 0.0
H1280 H 0.67707 0.70446 0.0212 0.0
H1281 H 0.63293 0.76281 0.08199 0.0
H1282 H 0.68552 0.76268 0.03099 0.0
H1283 H 0.62 0.71314 0.03279 0.0
C1284 C 0.62951 0.69275 0.02395 0.0
C1285 C 0.64547 0.68981 0.02126 0.0
C1286 C 0.67387 0.76287 0.04167 0.0
C1287 C 0.65162 0.72702 0.03298 0.0
C1288 C 0.67776 0.77971 0.05547 0.0
C1289 C 0.66322 0.7798 0.07083 0.0
C1290 C 0.65529 0.74612 0.04316 0.0
C1291 C 0.6445 0.76325 0.07035 0.0
C1292 C 0.63252 0.71128 0.02991 0.0
C1293 C 0.66435 0.70606 0.02339 0.0
N1294 N 0.6411 0.747 0.05696 0.0
N1295 N 0.66691 0.72396 0.02929 0.0
H1296 H 0.34631 0.94749 0.0496 0.0
H1297 H 0.23471 0.90381 0.06826 0.0
H1298 H 0.31516 0.96654 -8e-05 0.0
H1299 H 0.26137 0.8683 0.07745 0.0
H1300 H 0.26342 0.9276 0.04388 0.0
H1301 H 0.31523 0.91918 0.06199 0.0
C1302 C 0.3329 0.94562 0.04119 0.0
C1303 C 0.33324 0.95936 0.02379 0.0
C1304 C 0.26274 0.91435 0.05064 0.0
C1305 C 0.29766 0.92719 0.03815 0.0
C1306 C 0.24637 0.90078 0.0644 0.0
C1307 C 0.24569 0.88406 0.07462 0.0
C1308 C 0.27871 0.91142 0.04787 0.0
C1309 C 0.26128 0.88091 0.06959 0.0
C1310 C 0.3152 0.92941 0.04812 0.0
C1311 C 0.31547 0.95622 0.01337 0.0
N1312 N 0.27736 0.89468 0.05705 0.0
N1313 N 0.29831 0.94062 0.02107 0.0
H1314 H 0.40533 0.07872 0.01363 0.0
H1315 H 0.33608 0.11099 0.94295 0.0
H1316 H 0.34633 0.03899 0.98803 0.0
H1317 H 0.39728 0.15017 0.95824 0.0
H1318 H 0.33767 0.08605 0.96889 0.0
H1319 H 0.40083 0.10622 0.00219 0.0
C1320 C 0.39134 0.07579 0.00594 0.0
C1321 C 0.37625 0.05655 0.00146 0.0
C1322 C 0.35068 0.10021 0.96703 0.0
C1323 C 0.37101 0.0879 0.98836 0.0
C1324 C 0.34974 0.11449 0.95236 0.0
C1325 C 0.36662 0.13258 0.94822 0.0
C1326 C 0.36868 0.10398 0.97749 0.0
C1327 C 0.38392 0.13641 0.96096 0.0
C1328 C 0.38879 0.09148 -0.0006 0.0
C1329 C 0.35842 0.05358 0.99155 0.0
N1330 N 0.3846 0.1221 0.97466 0.0
N1331 N 0.35636 0.06907 0.98513 0.0
H1332 H 0.98161 0.31221 0.00893 0.0
H1333 H 0.87542 0.25078 0.95047 0.0
H1334 H 0.94127 0.33376 0.00737 0.0
H1335 H 0.90891 0.22436 0.97479 0.0
H1336 H 0.89796 0.28045 0.97464 0.0
H1337 H 0.95454 0.27938 -0.00071 0.0
C1338 C 0.96701 0.30999 0.00684 0.0
C1339 C 0.96371 0.32576 0.0087 0.0
C1340 C 0.90013 0.26802 0.9753 0.0
C1341 C 0.93268 0.28827 0.99743 0.0
C1342 C 0.88718 0.25106 0.96168 0.0
C1343 C 0.89031 0.23515 0.96083 0.0
C1344 C 0.91661 0.26923 0.98759 0.0
C1345 C 0.90593 0.23628 0.97524 0.0
C1346 C 0.95154 0.29122 0.00144 0.0
C1347 C 0.94449 0.32203 0.00597 0.0
N1348 N 0.91875 0.2532 0.98761 0.0
N1349 N 0.92975 0.30373 8e-05 0.0
H1350 H 0.67736 0.6077 0.98707 0.0
H1351 H 0.78829 0.67989 0.96481 0.0
H1352 H 0.70716 0.66296 0.02769 0.0
H1353 H 0.76268 0.61775 0.95481 0.0
H1354 H 0.75991 0.67429 0.99039 0.0
H1355 H 0.70891 0.61097 0.9765 0.0
C1356 C 0.69058 0.62045 0.99398 0.0
C1357 C 0.68969 0.63515 0.0081 0.0
C1358 C 0.76075 0.66186 0.98325 0.0
C1359 C 0.72589 0.63914 0.99577 0.0
C1360 C 0.77699 0.66505 0.9688 0.0
C1361 C 0.77779 0.64925 0.95769 0.0
C1362 C 0.74504 0.64276 0.98603 0.0
C1363 C 0.76269 0.63032 0.96317 0.0
C1364 C 0.70859 0.62226 0.98807 0.0
C1365 C 0.70725 0.65131 0.01671 0.0
N1366 N 0.74672 0.6276 0.97644 0.0
N1367 N 0.72467 0.65306 0.01 0.0
H1368 H 0.97825 0.67496 -0.00017 0.0
H1369 H 0.86582 0.6234 0.96212 0.0
H1370 H 0.93734 0.61413 0.0135 0.0
H1371 H 0.90676 0.68444 0.95029 0.0
H1372 H 0.88995 0.62126 0.98966 0.0
H1373 H 0.951 0.68006 0.98961 0.0
C1374 C 0.9635 0.66272 0.001 0.0
C1375 C 0.96006 0.64403 0.00715 0.0
C1376 C 0.89351 0.63525 0.98158 0.0
C1377 C 0.92874 0.64971 0.99525 0.0
C1378 C 0.87963 0.63653 0.96611 0.0
C1379 C 0.88441 0.65407 0.95364 0.0
C1380 C 0.91231 0.65161 0.98444 0.0
C1381 C 0.90261 0.67057 0.95927 0.0
C1382 C 0.94792 0.66564 0.9952 0.0
C1383 C 0.94065 0.62874 0.00861 0.0
N1384 N 0.91602 0.66885 0.97383 0.0
N1385 N 0.92573 0.63185 0.00232 0.0
H1386 H 0.39885 0.33291 0.02379 0.0
H1387 H 0.39791 0.25468 0.95874 0.0
H1388 H 0.35187 0.32037 0.9701 0.0
H1389 H 0.33762 0.23569 0.94141 0.0
H1390 H 0.40029 0.2822 0.98347 0.0
H1391 H 0.39543 0.30111 0.01327 0.0
C1392 C 0.38779 0.32343 0.00984 0.0
C1393 C 0.37581 0.32939 0.9975 0.0
C1394 C 0.38634 0.27168 0.97507 0.0
C1395 C 0.37192 0.29313 0.9852 0.0
C1396 C 0.38495 0.25587 0.961 0.0
C1397 C 0.36759 0.24297 0.94778 0.0
C1398 C 0.37023 0.27462 0.97577 0.0
C1399 C 0.35136 0.24545 0.951 0.0
C1400 C 0.38594 0.30534 0.00371 0.0
C1401 C 0.36159 0.31648 0.97981 0.0
N1402 N 0.35321 0.2612 0.96416 0.0
N1403 N 0.36007 0.29901 0.97418 0.0
H1404 H 0.70754 0.03507 0.0083 0.0
H1405 H 0.76665 0.14119 0.95107 0.0
H1406 H 0.68471 0.07435 0.00698 0.0
H1407 H 0.79424 0.10851 0.97395 0.0
H1408 H 0.73742 0.11833 0.97501 0.0
H1409 H 0.74 0.06249 -0.00124 0.0
C1410 C 0.70941 0.04952 0.0063 0.0
C1411 C 0.69337 0.05241 0.00818 0.0
C1412 C 0.75001 0.1164 0.9754 0.0
C1413 C 0.73046 0.08384 0.99701 0.0
C1414 C 0.76672 0.12953 0.96189 0.0
C1415 C 0.78284 0.12673 0.96071 0.0
C1416 C 0.74925 0.10008 0.98724 0.0
C1417 C 0.78216 0.11124 0.97466 0.0
C1418 C 0.72797 0.06519 0.00094 0.0
C1419 C 0.69666 0.07145 0.00555 0.0
N1420 N 0.76548 0.09825 0.98693 0.0
N1421 N 0.71477 0.08639 -0.00028 0.0
H1422 H 0.66144 0.96039 0.99441 0.0
H1423 H 0.63017 0.87168 0.09268 0.0
H1424 H 0.61944 0.94489 0.05588 0.0
H1425 H 0.68484 0.89835 0.05183 0.0
H1426 H 0.6208 0.89242 0.06896 0.0
H1427 H 0.66542 0.9325 0.00624 0.0
C1428 C 0.65289 0.95097 0.01014 0.0
C1429 C 0.64025 0.95503 0.0244 0.0
C1430 C 0.63469 0.89349 0.06478 0.0
C1431 C 0.64449 0.92312 0.03767 0.0
C1432 C 0.63997 0.88155 0.07815 0.0
C1433 C 0.6584 0.8835 0.07442 0.0
C1434 C 0.64796 0.90755 0.04757 0.0
C1435 C 0.6705 0.89642 0.05526 0.0
C1436 C 0.65518 0.93512 0.01687 0.0
C1437 C 0.62951 0.94241 0.04458 0.0
N1438 N 0.66522 0.90824 0.04283 0.0
N1439 N 0.6319 0.92708 0.05063 0.0
H1440 H 0.07237 0.67354 0.04338 0.0
H1441 H 0.1128 0.78403 0.0692 0.0
H1442 H 0.0479 0.70365 0.00208 0.0
H1443 H 0.15034 0.75927 0.07223 0.0
H1444 H 0.08885 0.75553 0.04398 0.0
H1445 H 0.10096 0.705 0.05461 0.0
C1446 C 0.07312 0.68681 0.0365 0.0
C1447 C 0.05776 0.68606 0.02193 0.0
C1448 C 0.10257 0.7566 0.04954 0.0
C1449 C 0.09025 0.72207 0.035 0.0
C1450 C 0.11623 0.77286 0.06381 0.0
C1451 C 0.13353 0.77395 0.07268 0.0
C1452 C 0.10605 0.74114 0.04484 0.0
C1453 C 0.13723 0.75902 0.06554 0.0
C1454 C 0.08948 0.70473 0.04276 0.0
C1455 C 0.05948 0.70365 0.01337 0.0
N1456 N 0.1234 0.743 0.05253 0.0
N1457 N 0.07529 0.72101 0.02046 0.0
H1458 H 0.31181 0.35118 0.009 0.0
H1459 H 0.25982 0.39507 0.09499 0.0
H1460 H 0.34109 0.41069 0.03698 0.0
H1461 H 0.22868 0.33893 0.05687 0.0
H1462 H 0.2888 0.40261 0.06965 0.0
H1463 H 0.28061 0.34759 0.02247 0.0
C1464 C 0.31165 0.36356 0.01775 0.0
C1465 C 0.3291 0.38121 0.02211 0.0
C1466 C 0.27554 0.38879 0.06637 0.0
C1467 C 0.29342 0.37717 0.03777 0.0
C1468 C 0.25897 0.38455 0.08075 0.0
C1469 C 0.24188 0.36633 0.07807 0.0
C1470 C 0.27513 0.37459 0.0495 0.0
C1471 C 0.24154 0.35318 0.05941 0.0
C1472 C 0.29381 0.36152 0.02538 0.0
C1473 C 0.328 0.39679 0.03338 0.0
N1474 N 0.25803 0.35742 0.04618 0.0
N1475 N 0.31051 0.39433 0.04111 0.0
H1476 H 0.69903 0.6778 0.37764 0.0
H1477 H 0.80842 0.72229 0.41901 0.0
H1478 H 0.74171 0.73574 0.35319 0.0
H1479 H 0.77213 0.66089 0.40242 0.0
H1480 H 0.78466 0.7284 0.39627 0.0
H1481 H 0.72553 0.67174 0.38929 0.0
C1482 C 0.714 0.68923 0.37469 0.0
C1483 C 0.71823 0.70732 0.36458 0.0
C1484 C 0.78215 0.71366 0.39705 0.0
C1485 C 0.74856 0.70056 0.37806 0.0
C1486 C 0.79572 0.7102 0.40986 0.0
C1487 C 0.79224 0.6911 0.41229 0.0
C1488 C 0.76475 0.69782 0.3874 0.0
C1489 C 0.77542 0.67585 0.40061 0.0
C1490 C 0.72909 0.68571 0.38114 0.0
C1491 C 0.73787 0.72158 0.36095 0.0
N1492 N 0.76208 0.67948 0.38912 0.0
N1493 N 0.75236 0.71801 0.36808 0.0
H1494 H 0.3433 0.03757 0.37051 0.0
H1495 H 0.29848 0.10023 0.41818 0.0
H1496 H 0.2835 0.02003 0.35201 0.0
H1497 H 0.35926 0.12672 0.39832 0.0
H1498 H 0.29196 0.07072 0.39407 0.0
H1499 H 0.34929 0.07016 0.38197 0.0
C1500 C 0.33146 0.04063 0.36877 0.0
C1501 C 0.31286 0.0261 0.36048 0.0
C1502 C 0.30663 0.08318 0.39437 0.0
C1503 C 0.31954 0.06323 0.37373 0.0
C1504 C 0.3103 0.10002 0.40794 0.0
C1505 C 0.32938 0.11589 0.40993 0.0
C1506 C 0.32227 0.08207 0.38349 0.0
C1507 C 0.34432 0.11483 0.39689 0.0
C1508 C 0.33492 0.05925 0.3751 0.0
C1509 C 0.29805 0.03085 0.35838 0.0
N1510 N 0.34053 0.09802 0.38467 0.0
N1511 N 0.30162 0.04894 0.36537 0.0
H1512 H 0.98193 0.301 0.34105 0.0
H1513 H 0.92986 0.20052 0.41916 0.0
H1514 H 0.01328 0.28028 0.38739 0.0
H1515 H 0.90283 0.23548 0.40757 0.0
H1516 H 0.95867 0.2249 0.39559 0.0
H1517 H 0.95105 0.27238 0.35425 0.0
C1518 C 0.98231 0.2903 0.35369 0.0
C1519 C 1.00014 0.29305 0.36334 0.0
C1520 C 0.94625 0.227 0.39776 0.0
C1521 C 0.96506 0.2603 0.37806 0.0
C1522 C 0.92977 0.21303 0.41092 0.0
C1523 C 0.91401 0.21604 0.41518 0.0
C1524 C 0.94681 0.24394 0.38854 0.0
C1525 C 0.91473 0.23268 0.40458 0.0
C1526 C 0.96473 0.27405 0.36124 0.0
C1527 C 0.99984 0.27878 0.37971 0.0
N1528 N 0.93092 0.24608 0.39182 0.0
N1529 N 0.98258 0.26302 0.38655 0.0
H1530 H 0.01022 0.37145 0.33079 0.0
H1531 H 0.0601 0.48368 0.29309 0.0
H1532 H 0.07043 0.41345 0.34811 0.0
H1533 H 0.99937 0.44163 0.27949 0.0
H1534 H 0.06301 0.45971 0.31978 0.0
H1535 H 0.0049 0.39805 0.3179 0.0
C1536 C 0.02228 0.38631 0.33216 0.0
C1537 C 0.04085 0.39023 0.34026 0.0
C1538 C 0.04895 0.45584 0.31139 0.0
C1539 C 0.03493 0.42083 0.32528 0.0
C1540 C 0.04724 0.4696 0.29637 0.0
C1541 C 0.02951 0.46455 0.28385 0.0
C1542 C 0.03283 0.43689 0.31378 0.0
C1543 C 0.01337 0.44602 0.28852 0.0
C1544 C 0.01924 0.40152 0.32481 0.0
C1545 C 0.05591 0.40977 0.34182 0.0
N1546 N 0.01548 0.43279 0.30277 0.0
N1547 N 0.05269 0.42433 0.33406 0.0
H1548 H 0.60303 0.67017 0.33723 0.0
H1549 H 0.56967 0.55976 0.29868 0.0
H1550 H 0.64306 0.64893 0.32554 0.0
H1551 H 0.53798 0.58797 0.27377 0.0
H1552 H 0.59297 0.58975 0.32187 0.0
H1553 H 0.57576 0.63755 0.326 0.0
C1554 C 0.60604 0.65859 0.33257 0.0
C1555 C 0.62531 0.66225 0.33201 0.0
C1556 C 0.58063 0.58919 0.31186 0.0
C1557 C 0.5943 0.62502 0.31979 0.0
C1558 C 0.56722 0.57204 0.29895 0.0
C1559 C 0.55191 0.57145 0.28443 0.0
C1560 C 0.57855 0.60575 0.31041 0.0
C1561 C 0.54959 0.58789 0.28487 0.0
C1562 C 0.59051 0.64005 0.32619 0.0
C1563 C 0.62843 0.64676 0.32589 0.0
N1564 N 0.56288 0.60446 0.29748 0.0
N1565 N 0.61309 0.62882 0.32003 0.0
H1566 H 0.36639 0.00448 0.30672 0.0
H1567 H 0.42849 0.95302 0.2855 0.0
H1568 H 0.35266 0.95148 0.34687 0.0
H1569 H 0.4507 0.01411 0.27077 0.0
H1570 H 0.40159 0.95208 0.31015 0.0
H1571 H 0.39772 0.00816 0.29415 0.0
C1572 C 0.37004 0.99366 0.313 0.0
C1573 C 0.35688 0.97759 0.3277 0.0
C1574 C 0.4126 0.96578 0.302 0.0
C1575 C 0.39272 0.9816 0.31319 0.0
C1576 C 0.42806 0.96637 0.28812 0.0
C1577 C 0.4417 0.98361 0.27576 0.0
C1578 C 0.41073 0.98249 0.30322 0.0
C1579 C 0.4403 1.00042 0.2796 0.0
C1580 C 0.38799 0.99582 0.30595 0.0
C1581 C 0.36241 0.96407 0.33547 0.0
N1582 N 0.4249 0.99935 0.29254 0.0
N1583 N 0.37982 0.96622 0.3278 0.0
H1584 H 0.64701 0.00428 0.31682 0.0
H1585 H 0.53365 0.95142 0.2886 0.0
H1586 H 0.60726 0.94738 0.3475 0.0
H1587 H 0.57297 0.01268 0.27569 0.0
H1588 H 0.559 0.95024 0.31483 0.0
H1589 H 0.61935 0.00828 0.30533 0.0
C1590 C 0.63241 0.99267 0.32133 0.0
C1591 C 0.62939 0.9754 0.33288 0.0
C1592 C 0.56191 0.96404 0.3068 0.0
C1593 C 0.5975 0.97976 0.31948 0.0
C1594 C 0.54738 0.96476 0.29203 0.0
C1595 C 0.55134 0.98213 0.27972 0.0
C1596 C 0.58051 0.98079 0.30901 0.0
C1597 C 0.56944 0.99894 0.28456 0.0
C1598 C 0.61659 0.99499 0.31486 0.0
C1599 C 0.61018 0.9609 0.33851 0.0
N1600 N 0.58345 0.99777 0.29841 0.0
N1601 N 0.5949 0.96326 0.33136 0.0
H1602 H 0.00844 0.65279 0.30083 0.0
H1603 H 0.05595 0.58672 0.29076 0.0
H1604 H 0.05876 0.66503 0.34756 0.0
H1605 H 0.99536 0.56562 0.27249 0.0
H1606 H 0.05735 0.61455 0.31386 0.0
H1607 H 0.00356 0.62049 0.29078 0.0
C1608 C 0.01842 0.64862 0.30905 0.0
C1609 C 0.0341 0.66162 0.32488 0.0
C1610 C 0.04362 0.60356 0.30533 0.0
C1611 C 0.02871 0.62469 0.31333 0.0
C1612 C 0.04277 0.58757 0.29237 0.0
C1613 C 0.02558 0.57399 0.27937 0.0
C1614 C 0.02725 0.60604 0.30493 0.0
C1615 C 0.009 0.57595 0.28187 0.0
C1616 C 0.01556 0.63013 0.30347 0.0
C1617 C 0.04652 0.65542 0.33521 0.0
N1618 N 0.01035 0.5919 0.29385 0.0
N1619 N 0.04374 0.63747 0.32894 0.0
H1620 H 0.36911 0.36993 0.32824 0.0
H1621 H 0.4297 0.47648 0.27772 0.0
H1622 H 0.34956 0.41103 0.34253 0.0
H1623 H 0.45736 0.44408 0.30156 0.0
H1624 H 0.40041 0.45372 0.30189 0.0
H1625 H 0.40151 0.39706 0.31778 0.0
C1626 C 0.37169 0.3847 0.32928 0.0
C1627 C 0.35664 0.38827 0.33607 0.0
C1628 C 0.4131 0.45193 0.3025 0.0
C1629 C 0.3936 0.41936 0.32391 0.0
C1630 C 0.42983 0.465 0.28892 0.0
C1631 C 0.44595 0.46221 0.28799 0.0
C1632 C 0.41236 0.43567 0.31445 0.0
C1633 C 0.44529 0.44683 0.30218 0.0
C1634 C 0.39021 0.40018 0.32351 0.0
C1635 C 0.36079 0.40769 0.33732 0.0
N1636 N 0.42858 0.43386 0.31437 0.0
N1637 N 0.37882 0.42253 0.33086 0.0
H1638 H 0.27925 0.27179 0.35875 0.0
H1639 H 0.35726 0.24012 0.39775 0.0
H1640 H 0.34039 0.31259 0.37204 0.0
H1641 H 0.29768 0.20863 0.42381 0.0
H1642 H 0.35003 0.2628 0.37454 0.0
H1643 H 0.28496 0.24491 0.37016 0.0
C1644 C 0.29389 0.27505 0.36378 0.0
C1645 C 0.30935 0.29441 0.36475 0.0
C1646 C 0.33843 0.25062 0.38482 0.0
C1647 C 0.31599 0.26388 0.37712 0.0
C1648 C 0.34248 0.23757 0.39774 0.0
C1649 C 0.32801 0.22251 0.41259 0.0
C1650 C 0.31974 0.24842 0.38654 0.0
C1651 C 0.30918 0.22005 0.41246 0.0
C1652 C 0.29711 0.25976 0.37027 0.0
C1653 C 0.32804 0.29788 0.37136 0.0
N1654 N 0.30559 0.23298 0.39979 0.0
N1655 N 0.33085 0.28276 0.37726 0.0
H1656 H 0.71395 0.03772 0.3344 0.0
H1657 H 0.78104 0.11919 0.40373 0.0
H1658 H 0.7454 0.01171 0.3682 0.0
H1659 H 0.81859 0.09444 0.40123 0.0
H1660 H 0.7571 0.09217 0.37702 0.0
H1661 H 0.74146 0.07003 0.34484 0.0
C1662 C 0.72669 0.03883 0.34397 0.0
C1663 C 0.72725 0.022 0.3509 0.0
C1664 C 0.77085 0.09293 0.38129 0.0
C1665 C 0.75864 0.05895 0.36352 0.0
C1666 C 0.78454 0.10843 0.39659 0.0
C1667 C 0.80179 0.10903 0.40463 0.0
C1668 C 0.77436 0.07779 0.37423 0.0
C1669 C 0.80554 0.09459 0.39524 0.0
C1670 C 0.74236 0.0573 0.35013 0.0
C1671 C 0.74425 0.02429 0.36285 0.0
N1672 N 0.79172 0.07931 0.38105 0.0
N1673 N 0.75919 0.04242 0.36898 0.0
H1674 H 0.99412 0.73719 0.3492 0.0
H1675 H 0.88559 0.65672 0.38902 0.0
H1676 H 0.97465 0.67601 0.35788 0.0
H1677 H 0.91309 0.71626 0.41621 0.0
H1678 H 0.9149 0.66485 0.36375 0.0
H1679 H 0.96133 0.73057 0.36118 0.0
C1680 C 0.98288 0.72235 0.35329 0.0
C1681 C 0.9871 0.70714 0.35287 0.0
C1682 C 0.91429 0.67626 0.37467 0.0
C1683 C 0.94969 0.69947 0.36596 0.0
C1684 C 0.89751 0.67169 0.38876 0.0
C1685 C 0.89699 0.68591 0.40444 0.0
C1686 C 0.93052 0.69519 0.37622 0.0
C1687 C 0.91296 0.70499 0.40408 0.0
C1688 C 0.96424 0.71861 0.36012 0.0
C1689 C 0.97204 0.68817 0.3583 0.0
N1690 N 0.9292 0.70907 0.39037 0.0
N1691 N 0.954 0.68487 0.36464 0.0
H1692 H 0.37082 0.00789 0.70578 0.0
H1693 H 0.48089 0.05326 0.74296 0.0
H1694 H 0.41286 0.06536 0.67902 0.0
H1695 H 0.44414 0.99146 0.72995 0.0
H1696 H 0.45692 0.05881 0.71981 0.0
H1697 H 0.39756 1.00192 0.71622 0.0
C1698 C 0.38569 0.01922 0.70202 0.0
C1699 C 0.38968 0.03718 0.69168 0.0
C1700 C 0.45436 0.04408 0.72137 0.0
C1701 C 0.42031 0.03053 0.70379 0.0
C1702 C 0.46808 0.04095 0.73437 0.0
C1703 C 0.46452 0.02191 0.73798 0.0
C1704 C 0.43672 0.028 0.71277 0.0
C1705 C 0.44749 0.00636 0.72716 0.0
C1706 C 0.40092 0.01576 0.70779 0.0
C1707 C 0.4092 0.05132 0.68701 0.0
N1708 N 0.43401 0.0097 0.71551 0.0
N1709 N 0.42385 0.04782 0.6935 0.0
H1710 H 0.93814 0.34272 0.69268 0.0
H1711 H 0.01575 0.45497 0.72174 0.0
H1712 H 1.00037 0.36793 0.68443 0.0
H1713 H 0.95751 0.42497 0.75269 0.0
H1714 H 0.00816 0.4256 0.69644 0.0
H1715 H 0.94322 0.37506 0.7036 0.0
C1716 C 0.95285 0.35511 0.69278 0.0
C1717 C 0.96889 0.35261 0.68797 0.0
C1718 C 0.9969 0.42561 0.70829 0.0
C1719 C 0.97477 0.38963 0.70034 0.0
C1720 C 1.00115 0.44242 0.72246 0.0
C1721 C 0.98721 0.4423 0.73927 0.0
C1722 C 0.97856 0.40868 0.71091 0.0
C1723 C 0.96862 0.42557 0.73992 0.0
C1724 C 0.95573 0.37354 0.69905 0.0
C1725 C 0.98762 0.36918 0.68828 0.0
N1726 N 0.96489 0.40936 0.72616 0.0
N1727 N 0.99007 0.38698 0.69457 0.0
H1728 H 0.67803 0.61288 0.691 0.0
H1729 H 0.57108 0.57711 0.74519 0.0
H1730 H 0.65277 0.64979 0.69933 0.0
H1731 H 0.59561 0.53951 0.73884 0.0
H1732 H 0.59881 0.60225 0.72122 0.0
H1733 H 0.64644 0.58457 0.70218 0.0
C1734 C 0.66579 0.615 0.69494 0.0
C1735 C 0.66808 0.63374 0.69452 0.0
C1736 C 0.59801 0.58839 0.72459 0.0
C1737 C 0.63192 0.60146 0.70727 0.0
C1738 C 0.5821 0.574 0.7381 0.0
C1739 C 0.58112 0.55627 0.74403 0.0
C1740 C 0.61325 0.58517 0.71725 0.0
C1741 C 0.59579 0.55296 0.73451 0.0
C1742 C 0.64776 0.59883 0.70129 0.0
C1743 C 0.65172 0.63564 0.69967 0.0
N1744 N 0.61144 0.56741 0.72196 0.0
N1745 N 0.63442 0.61975 0.70601 0.0
H1746 H 0.74142 0.75315 0.68494 0.0
H1747 H 0.67338 0.7842 0.60753 0.0
H1748 H 0.6868 0.7129 0.64746 0.0
H1749 H 0.73462 0.82391 0.62193 0.0
H1750 H 0.67563 0.75933 0.63275 0.0
H1751 H 0.73684 0.78033 0.67138 0.0
C1752 C 0.72839 0.75003 0.6741 0.0
C1753 C 0.71455 0.73079 0.66706 0.0
C1754 C 0.68852 0.77358 0.63076 0.0
C1755 C 0.70913 0.76164 0.65188 0.0
C1756 C 0.68722 0.78781 0.61649 0.0
C1757 C 0.7039 0.80605 0.61231 0.0
C1758 C 0.70663 0.77758 0.64098 0.0
C1759 C 0.72141 0.81004 0.62466 0.0
C1760 C 0.72581 0.76552 0.66638 0.0
C1761 C 0.69793 0.72753 0.65306 0.0
N1762 N 0.7224 0.7958 0.63814 0.0
N1763 N 0.69571 0.74278 0.6459 0.0
H1764 H 0.3136 0.98019 0.6504 0.0
H1765 H 0.205 0.92277 0.60296 0.0
H1766 H 0.27424 1.00105 0.66947 0.0
H1767 H 0.23634 0.89312 0.62261 0.0
H1768 H 0.22956 0.95172 0.62692 0.0
H1769 H 0.28553 0.94843 0.63869 0.0
C1770 C 0.29903 0.97804 0.65221 0.0
C1771 C 0.2962 0.99326 0.66076 0.0
C1772 C 0.23077 0.9387 0.62659 0.0
C1773 C 0.26408 0.95707 0.64718 0.0
C1774 C 0.21671 0.92218 0.61311 0.0
C1775 C 0.21861 0.90556 0.61113 0.0
C1776 C 0.24711 0.93872 0.63739 0.0
C1777 C 0.23426 0.9056 0.62405 0.0
C1778 C 0.28302 0.95988 0.64572 0.0
C1779 C 0.27701 0.98967 0.66292 0.0
N1780 N 0.24816 0.92209 0.63618 0.0
N1781 N 0.26166 0.97202 0.65577 0.0
H1782 H 0.03221 0.32811 0.69005 0.0
H1783 H 0.08805 0.28128 0.61654 0.0
H1784 H 1.00289 0.27249 0.65024 0.0
H1785 H 0.11179 0.34336 0.62406 0.0
H1786 H 0.05922 0.27594 0.6409 0.0
H1787 H 0.06375 0.33188 0.67712 0.0
C1788 C 0.03243 0.31658 0.67893 0.0
C1789 C 0.01495 0.30004 0.67098 0.0
C1790 C 0.07094 0.29072 0.63767 0.0
C1791 C 0.05083 0.30413 0.65653 0.0
C1792 C 0.08745 0.29377 0.62406 0.0
C1793 C 0.10226 0.31278 0.61835 0.0
C1794 C 0.06936 0.30681 0.64586 0.0
C1795 C 0.10063 0.32848 0.62811 0.0
C1796 C 0.05039 0.31876 0.67153 0.0
C1797 C 0.01604 0.28555 0.65656 0.0
N1798 N 0.0844 0.32516 0.64126 0.0
N1799 N 0.03367 0.28793 0.64977 0.0
H1800 H 0.28078 0.28132 0.64269 0.0
H1801 H 0.23687 0.34838 0.6233 0.0
H1802 H 0.30271 0.33351 0.68961 0.0
H1803 H 0.2004 0.28584 0.6195 0.0
H1804 H 0.26155 0.34448 0.64742 0.0
H1805 H 0.25174 0.28348 0.63234 0.0
C1806 C 0.27939 0.29317 0.65092 0.0
C1807 C 0.29414 0.30731 0.66691 0.0
C1808 C 0.2479 0.33164 0.64197 0.0
C1809 C 0.26115 0.31002 0.65489 0.0
C1810 C 0.23382 0.33387 0.62837 0.0
C1811 C 0.21659 0.3174 0.61961 0.0
C1812 C 0.24492 0.31283 0.64602 0.0
C1813 C 0.21341 0.29888 0.62619 0.0
C1814 C 0.26278 0.29432 0.64518 0.0
C1815 C 0.29161 0.32233 0.67721 0.0
N1816 N 0.22766 0.29707 0.63847 0.0
N1817 N 0.27557 0.32352 0.67062 0.0
H1818 H 0.74795 0.01269 0.66758 0.0
H1819 H 0.67471 0.90426 0.62733 0.0
H1820 H 0.68746 0.98345 0.69009 0.0
H1821 H 0.73708 0.92851 0.62755 0.0
H1822 H 0.67892 0.9314 0.65494 0.0
H1823 H 0.74462 0.98109 0.65682 0.0
C1824 C 0.73402 0.99957 0.67059 0.0
C1825 C 0.7179 1.00068 0.67946 0.0
C1826 C 0.69167 0.93053 0.64958 0.0
C1827 C 0.71388 0.96444 0.66684 0.0
C1828 C 0.68924 0.91498 0.63395 0.0
C1829 C 0.70558 0.91422 0.62509 0.0
C1830 C 0.7106 0.94563 0.65588 0.0
C1831 C 0.72411 0.92851 0.63405 0.0
C1832 C 0.73214 0.98151 0.66454 0.0
C1833 C 0.70024 0.98323 0.68318 0.0
N1834 N 0.72615 0.94388 0.64846 0.0
N1835 N 0.69859 0.96583 0.6764 0.0
H1836 H 0.01133 0.74277 0.6682 0.0
H1837 H 0.12187 0.7813 0.62597 0.0
H1838 H 0.03579 0.70547 0.65644 0.0
H1839 H 0.08971 0.80907 0.60114 0.0
H1840 H 0.09331 0.75767 0.65055 0.0
H1841 H 0.04283 0.77104 0.65586 0.0
C1842 C 0.0234 0.74059 0.66338 0.0
C1843 C 0.02095 0.72178 0.66306 0.0
C1844 C 0.09269 0.76923 0.64022 0.0
C1845 C 0.05691 0.7539 0.64953 0.0
C1846 C 0.10903 0.78284 0.62648 0.0
C1847 C 0.10809 0.79712 0.61156 0.0
C1848 C 0.0754 0.77007 0.63924 0.0
C1849 C 0.09096 0.79824 0.61245 0.0
C1850 C 0.0413 0.75667 0.65633 0.0
C1851 C 0.03702 0.71971 0.65665 0.0
N1852 N 0.0752 0.78479 0.62588 0.0
N1853 N 0.05431 0.73557 0.65014 0.0
H1854 H 1.00297 0.63743 0.68278 0.0
H1855 H 0.95566 0.53554 0.7534 0.0
H1856 H 0.94108 0.60253 0.69623 0.0
H1857 H 0.01389 0.56393 0.72244 0.0
H1858 H 0.94892 0.55796 0.72891 0.0
H1859 H 0.00663 0.60953 0.6942 0.0
C1860 C 0.99012 0.62383 0.68797 0.0
C1861 C 0.97172 0.62235 0.68882 0.0
C1862 C 0.96303 0.55902 0.72692 0.0
C1863 C 0.9758 0.59032 0.70209 0.0
C1864 C 0.96681 0.54613 0.74076 0.0
C1865 C 0.98535 0.54793 0.73991 0.0
C1866 C 0.97803 0.57407 0.71256 0.0
C1867 C 0.99937 0.56199 0.72347 0.0
C1868 C 0.9922 0.60786 0.69437 0.0
C1869 C 0.95554 0.60433 0.69547 0.0
N1870 N 0.99556 0.57478 0.71084 0.0
N1871 N 0.958 0.58909 0.70219 0.0
H1872 H 0.41328 0.35703 0.67117 0.0
H1873 H 0.44548 0.45723 0.74619 0.0
H1874 H 0.37338 0.37437 0.70096 0.0
H1875 H 0.4849 0.4362 0.72847 0.0
H1876 H 0.42033 0.43094 0.71946 0.0
H1877 H 0.44064 0.38938 0.68256 0.0
C1878 C 0.41026 0.36774 0.67974 0.0
C1879 C 0.39106 0.36293 0.68547 0.0
C1880 C 0.4346 0.43229 0.72096 0.0
C1881 C 0.42224 0.39992 0.6985 0.0
C1882 C 0.44899 0.44736 0.73609 0.0
C1883 C 0.4672 0.44872 0.73982 0.0
C1884 C 0.43839 0.41838 0.70961 0.0
C1885 C 0.47105 0.43567 0.72612 0.0
C1886 C 0.42588 0.38619 0.68626 0.0
C1887 C 0.38797 0.37738 0.69649 0.0
N1888 N 0.45663 0.4208 0.712 0.0
N1889 N 0.4034 0.39514 0.70286 0.0
H1890 H 0.67291 0.07673 0.69262 0.0
H1891 H 0.56111 0.99776 0.71941 0.0
H1892 H 0.64822 0.01471 0.68164 0.0
H1893 H 0.5906 0.0557 0.75257 0.0
H1894 H 0.59037 0.00605 0.69396 0.0
H1895 H 0.64045 0.07117 0.70356 0.0
C1896 C 0.66061 0.06197 0.69209 0.0
C1897 C 0.66329 0.04612 0.68654 0.0
C1898 C 0.59026 0.01709 0.70634 0.0
C1899 C 0.62615 0.03969 0.69893 0.0
C1900 C 0.57351 0.01244 0.7206 0.0
C1901 C 0.57353 0.02607 0.7381 0.0
C1902 C 0.60705 0.03553 0.70955 0.0
C1903 C 0.59008 0.0448 0.7393 0.0
C1904 C 0.6421 0.05882 0.69839 0.0
C1905 C 0.64682 0.02732 0.68609 0.0
N1906 N 0.60626 0.04892 0.72545 0.0
N1907 N 0.62898 0.0246 0.69241 0.0
loop_
_geom_bond_atom_site_label_1
_geom_bond_atom_site_label_2
_geom_bond_distance
_geom_bond_site_symmetry_2
_ccdc_geom_bond_type
In0 O1 2.294 1_455 S
In0 O2 2.326 . S
In0 O6 2.266 1_455 S
In0 O7 2.326 1_454 S
In0 O8 2.266 1_554 S
In0 O9 2.326 1_454 S
In0 O11 2.294 . S
In0 O12 2.326 . S
O1 In0 2.294 1_655 S
O1 C10 1.240 1_655 S
O2 In0 2.326 . S
O2 C10 1.252 . S
C3 O6 1.252 1_556 S
C3 O7 1.260 . S
C4 O11 1.240 . S
C4 O12 1.252 . S
C5 O8 1.252 . S
C5 O9 1.260 1_455 S
O6 In0 2.266 1_655 S
O6 C3 1.252 1_554 S
O7 In0 2.326 1_656 S
O7 C3 1.260 . S
O8 In0 2.266 1_556 S
O8 C5 1.252 . S
O9 In0 2.326 1_656 S
O9 C5 1.260 1_655 S
C10 O1 1.240 1_455 S
C10 O2 1.252 . S
O11 In0 2.294 . S
O11 C4 1.240 . S
O12 In0 2.326 . S
O12 C4 1.252 . S
In13 O14 2.294 . S
In13 O15 2.326 . S
In13 O19 2.266 . S
In13 O20 2.326 1_554 S
In13 O21 2.266 1_554 S
In13 O22 2.326 1_554 S
In13 O24 2.294 . S
In13 O25 2.326 . S
O14 In13 2.294 . S
O14 C23 1.240 . S
O15 In13 2.326 . S
O15 C23 1.252 . S
C16 O19 1.252 1_556 S
C16 O20 1.260 . S
C17 O24 1.240 . S
C17 O25 1.252 . S
C18 O21 1.252 . S
C18 O22 1.260 . S
O19 In13 2.266 . S
O19 C16 1.252 1_554 S
O20 In13 2.326 1_556 S
O20 C16 1.260 . S
O21 In13 2.266 1_556 S
O21 C18 1.252 . S
O22 In13 2.326 1_556 S
O22 C18 1.260 . S
C23 O14 1.240 . S
C23 O15 1.252 . S
O24 In13 2.294 . S
O24 C17 1.240 . S
O25 In13 2.326 . S
O25 C17 1.252 . S
In26 O27 2.294 . S
In26 O28 2.326 1_554 S
In26 O32 2.266 . S
In26 O33 2.326 1_545 S
In26 O34 2.266 1_545 S
In26 O35 2.326 1_545 S
In26 O37 2.294 1_544 S
In26 O38 2.326 1_554 S
O27 In26 2.294 . S
O27 C36 1.240 1_554 S
O28 In26 2.326 1_556 S
O28 C36 1.252 . S
C29 O32 1.252 . S
C29 O33 1.260 1_545 S
C30 O37 1.240 1_545 S
C30 O38 1.252 . S
C31 O34 1.252 . S
C31 O35 1.260 . S
O32 In26 2.266 . S
O32 C29 1.252 . S
O33 In26 2.326 1_565 S
O33 C29 1.260 1_565 S
O34 In26 2.266 1_565 S
O34 C31 1.252 . S
O35 In26 2.326 1_565 S
O35 C31 1.260 . S
C36 O27 1.240 1_556 S
C36 O28 1.252 . S
O37 In26 2.294 1_566 S
O37 C30 1.240 1_565 S
O38 In26 2.326 1_556 S
O38 C30 1.252 . S
In39 O40 2.294 1_554 S
In39 O41 2.326 1_454 S
In39 O45 2.266 . S
In39 O46 2.326 . S
In39 O47 2.266 1_455 S
In39 O48 2.326 . S
In39 O50 2.294 1_455 S
In39 O51 2.326 1_454 S
O40 In39 2.294 1_556 S
O40 C49 1.240 . S
O41 In39 2.326 1_656 S
O41 C49 1.252 1_655 S
C42 O45 1.252 . S
C42 O46 1.260 . S
C43 O50 1.240 1_556 S
C43 O51 1.252 . S
C44 O47 1.252 1_455 S
C44 O48 1.260 . S
O45 In39 2.266 . S
O45 C42 1.252 . S
O46 In39 2.326 . S
O46 C42 1.260 . S
O47 In39 2.266 1_655 S
O47 C44 1.252 1_655 S
O48 In39 2.326 . S
O48 C44 1.260 . S
C49 O40 1.240 . S
C49 O41 1.252 1_455 S
O50 In39 2.294 1_655 S
O50 C43 1.240 1_554 S
O51 In39 2.326 1_656 S
O51 C43 1.252 . S
In52 O53 2.294 1_554 S
In52 O54 2.326 1_554 S
In52 O58 2.266 . S
In52 O59 2.326 . S
In52 O60 2.266 . S
In52 O61 2.326 . S
In52 O63 2.294 . S
In52 O64 2.326 1_554 S
O53 In52 2.294 1_556 S
O53 C62 1.240 . S
O54 In52 2.326 1_556 S
O54 C62 1.252 . S
C55 O58 1.252 . S
C55 O59 1.260 . S
C56 O63 1.240 1_556 S
C56 O64 1.252 . S
C57 O60 1.252 . S
C57 O61 1.260 . S
O58 In52 2.266 . S
O58 C55 1.252 . S
O59 In52 2.326 . S
O59 C55 1.260 . S
O60 In52 2.266 . S
O60 C57 1.252 . S
O61 In52 2.326 . S
O61 C57 1.260 . S
C62 O53 1.240 . S
C62 O54 1.252 . S
O63 In52 2.294 . S
O63 C56 1.240 1_554 S
O64 In52 2.326 1_556 S
O64 C56 1.252 . S
In65 O66 2.294 . S
In65 O67 2.326 1_545 S
In65 O71 2.266 . S
In65 O72 2.326 1_554 S
In65 O73 2.266 1_544 S
In65 O74 2.326 1_554 S
In65 O76 2.294 1_545 S
In65 O77 2.326 1_545 S
O66 In65 2.294 . S
O66 C75 1.240 . S
O67 In65 2.326 1_565 S
O67 C75 1.252 1_565 S
C68 O71 1.252 1_556 S
C68 O72 1.260 . S
C69 O76 1.240 . S
C69 O77 1.252 . S
C70 O73 1.252 1_545 S
C70 O74 1.260 . S
O71 In65 2.266 . S
O71 C68 1.252 1_554 S
O72 In65 2.326 1_556 S
O72 C68 1.260 . S
O73 In65 2.266 1_566 S
O73 C70 1.252 1_565 S
O74 In65 2.326 1_556 S
O74 C70 1.260 . S
C75 O66 1.240 . S
C75 O67 1.252 1_545 S
O76 In65 2.294 1_565 S
O76 C69 1.240 . S
O77 In65 2.326 1_565 S
O77 C69 1.252 . S
In78 O79 2.294 . S
In78 O80 2.326 . S
In78 O84 2.266 . S
In78 O85 2.326 . S
In78 O86 2.266 . S
In78 O87 2.326 . S
In78 O89 2.294 . S
In78 O90 2.326 . S
O79 In78 2.294 . S
O79 C88 1.240 . S
O80 In78 2.326 . S
O80 C88 1.252 . S
C81 O84 1.252 . S
C81 O85 1.260 . S
C82 O89 1.240 . S
C82 O90 1.252 . S
C83 O86 1.252 . S
C83 O87 1.260 . S
O84 In78 2.266 . S
O84 C81 1.252 . S
O85 In78 2.326 . S
O85 C81 1.260 . S
O86 In78 2.266 . S
O86 C83 1.252 . S
O87 In78 2.326 . S
O87 C83 1.260 . S
C88 O79 1.240 . S
C88 O80 1.252 . S
O89 In78 2.294 . S
O89 C82 1.240 . S
O90 In78 2.326 . S
O90 C82 1.252 . S
In91 O92 2.294 . S
In91 O93 2.326 . S
In91 O97 2.266 . S
In91 O98 2.321 1_565 S
In91 O99 2.266 . S
In91 O100 2.326 . S
In91 O102 2.294 1_565 S
In91 O103 2.326 1_565 S
O92 In91 2.294 . S
O92 C101 1.240 . S
O93 In91 2.326 . S
O93 C101 1.252 . S
C94 O97 1.252 . S
C94 O98 1.207 1_565 S
C95 O102 1.240 . S
C95 O103 1.252 . S
C96 O99 1.252 . S
C96 O100 1.260 . S
O97 In91 2.266 . S
O97 C94 1.252 . S
O98 In91 2.321 1_545 S
O98 C94 1.207 1_545 S
O99 In91 2.266 . S
O99 C96 1.252 . S
O100 In91 2.326 . S
O100 C96 1.260 . S
C101 O92 1.240 . S
C101 O93 1.252 . S
O102 In91 2.294 1_545 S
O102 C95 1.240 . S
O103 In91 2.326 1_545 S
O103 C95 1.252 . S
In104 O105 2.294 . S
In104 O106 2.326 . S
In104 O110 2.266 . S
In104 O111 2.326 . S
In104 O112 2.286 . S
In104 O113 2.326 . S
In104 O115 2.294 . S
In104 O116 2.326 . S
O105 In104 2.294 . S
O105 C114 1.240 . S
O106 In104 2.326 . S
O106 C114 1.252 . S
C107 O110 1.252 . S
C107 O111 1.260 . S
C108 O115 1.240 . S
C108 O116 1.252 . S
C109 O112 1.222 1_655 S
C109 O113 1.260 1_655 S
O110 In104 2.266 . S
O110 C107 1.252 . S
O111 In104 2.326 . S
O111 C107 1.260 . S
O112 In104 2.286 . S
O112 C109 1.222 1_455 S
O113 In104 2.326 . S
O113 C109 1.260 1_455 S
C114 O105 1.240 . S
C114 O106 1.252 . S
O115 In104 2.294 . S
O115 C108 1.240 . S
O116 In104 2.326 . S
O116 C108 1.252 . S
In117 O118 2.294 . S
In117 O119 2.326 . S
In117 O123 2.266 1_565 S
In117 O124 2.326 1_565 S
In117 O125 2.266 . S
In117 O126 2.326 . S
In117 O128 2.294 . S
In117 O129 2.335 . S
O118 In117 2.294 . S
O118 C127 1.240 . S
O119 In117 2.326 . S
O119 C127 1.252 . S
C120 O123 1.252 . S
C120 O124 1.260 . S
C121 O128 1.240 . S
C121 O129 1.252 . S
C122 O125 1.252 . S
C122 O126 1.260 . S
O123 In117 2.266 1_545 S
O123 C120 1.252 . S
O124 In117 2.326 1_545 S
O124 C120 1.260 . S
O125 In117 2.266 . S
O125 C122 1.252 . S
O126 In117 2.326 . S
O126 C122 1.260 . S
C127 O118 1.240 . S
C127 O119 1.252 . S
O128 In117 2.294 . S
O128 C121 1.240 . S
O129 In117 2.335 . S
O129 C121 1.252 . S
In130 O131 2.294 . S
In130 O132 2.326 . S
In130 O136 2.293 . S
In130 O137 2.326 . S
In130 O138 2.266 . S
In130 O139 2.326 . S
In130 O141 2.294 . S
In130 O142 2.326 . S
O131 In130 2.294 . S
O131 C140 1.240 . S
O132 In130 2.326 . S
O132 C140 1.252 . S
C133 O136 1.250 1_655 S
C133 O137 1.260 1_655 S
C134 O141 1.240 . S
C134 O142 1.252 . S
C135 O138 1.252 . S
C135 O139 1.260 . S
O136 In130 2.293 . S
O136 C133 1.250 1_455 S
O137 In130 2.326 . S
O137 C133 1.260 1_455 S
O138 In130 2.266 . S
O138 C135 1.252 . S
O139 In130 2.326 . S
O139 C135 1.260 . S
C140 O131 1.240 . S
C140 O132 1.252 . S
O141 In130 2.294 . S
O141 C134 1.240 . S
O142 In130 2.326 . S
O142 C134 1.252 . S
In143 O144 2.294 . S
In143 O145 2.326 . S
In143 O149 2.266 . S
In143 O150 2.326 . S
In143 O151 2.266 . S
In143 O152 2.326 . S
In143 O154 2.294 . S
In143 O155 2.326 . S
O144 In143 2.294 . S
O144 C153 1.240 . S
O145 In143 2.326 . S
O145 C153 1.252 . S
C146 O149 1.252 . S
C146 O150 1.260 . S
C147 O154 1.240 . S
C147 O155 1.252 . S
C148 O151 1.252 . S
C148 O152 1.260 . S
O149 In143 2.266 . S
O149 C146 1.252 . S
O150 In143 2.326 . S
O150 C146 1.260 . S
O151 In143 2.266 . S
O151 C148 1.252 . S
O152 In143 2.326 . S
O152 C148 1.260 . S
C153 O144 1.240 . S
C153 O145 1.252 . S
O154 In143 2.294 . S
O154 C147 1.240 . S
O155 In143 2.326 . S
O155 C147 1.252 . S
In156 O157 2.294 . S
In156 O158 2.326 . S
In156 O162 2.266 . S
In156 O163 2.326 . S
In156 O164 2.282 . S
In156 O165 2.326 . S
In156 O167 2.294 . S
In156 O168 2.326 . S
O157 In156 2.294 . S
O157 C166 1.240 . S
O158 In156 2.326 . S
O158 C166 1.252 . S
C159 O162 1.252 . S
C159 O163 1.260 . S
C160 O167 1.240 . S
C160 O168 1.252 . S
C161 O164 1.228 1_565 S
C161 O165 1.260 1_565 S
O162 In156 2.266 . S
O162 C159 1.252 . S
O163 In156 2.326 . S
O163 C159 1.260 . S
O164 In156 2.282 . S
O164 C161 1.228 1_545 S
O165 In156 2.326 . S
O165 C161 1.260 1_545 S
C166 O157 1.240 . S
C166 O158 1.252 . S
O167 In156 2.294 . S
O167 C160 1.240 . S
O168 In156 2.326 . S
O168 C160 1.252 . S
In169 O170 2.294 . S
In169 O171 2.327 . S
In169 O175 2.266 . S
In169 O176 2.326 . S
In169 O177 2.266 1_655 S
In169 O178 2.326 1_655 S
In169 O180 2.294 . S
In169 O181 2.326 . S
O170 In169 2.294 . S
O170 C179 1.240 . S
O171 In169 2.327 . S
O171 C179 1.257 . S
C172 O175 1.252 . S
C172 O176 1.260 . S
C173 O180 1.240 . S
C173 O181 1.252 . S
C174 O177 1.252 . S
C174 O178 1.260 . S
O175 In169 2.266 . S
O175 C172 1.252 . S
O176 In169 2.326 . S
O176 C172 1.260 . S
O177 In169 2.266 1_455 S
O177 C174 1.252 . S
O178 In169 2.326 1_455 S
O178 C174 1.260 . S
C179 O170 1.240 . S
C179 O171 1.257 . S
O180 In169 2.294 . S
O180 C173 1.240 . S
O181 In169 2.326 . S
O181 C173 1.252 . S
In182 O183 2.294 . S
In182 O184 2.326 . S
In182 O188 2.266 . S
In182 O189 2.326 . S
In182 O190 2.266 . S
In182 O191 2.326 . S
In182 O193 2.294 . S
In182 O194 2.326 . S
O183 In182 2.294 . S
O183 C192 1.240 . S
O184 In182 2.326 . S
O184 C192 1.252 . S
C185 O188 1.252 . S
C185 O189 1.260 . S
C186 O193 1.240 . S
C186 O194 1.252 . S
C187 O190 1.252 . S
C187 O191 1.260 . S
O188 In182 2.266 . S
O188 C185 1.252 . S
O189 In182 2.326 . S
O189 C185 1.260 . S
O190 In182 2.266 . S
O190 C187 1.252 . S
O191 In182 2.326 . S
O191 C187 1.260 . S
C192 O183 1.240 . S
C192 O184 1.252 . S
O193 In182 2.294 . S
O193 C186 1.240 . S
O194 In182 2.326 . S
O194 C186 1.252 . S
In195 O196 2.294 . S
In195 O197 2.326 . S
In195 O201 2.266 . S
In195 O202 2.326 . S
In195 O203 2.266 . S
In195 O204 2.326 . S
In195 O206 2.294 . S
In195 O207 2.326 . S
O196 In195 2.294 . S
O196 C205 1.240 . S
O197 In195 2.326 . S
O197 C205 1.252 . S
C198 O201 1.252 . S
C198 O202 1.260 . S
C199 O206 1.240 . S
C199 O207 1.252 . S
C200 O203 1.252 . S
C200 O204 1.260 . S
O201 In195 2.266 . S
O201 C198 1.252 . S
O202 In195 2.326 . S
O202 C198 1.260 . S
O203 In195 2.266 . S
O203 C200 1.252 . S
O204 In195 2.326 . S
O204 C200 1.260 . S
C205 O196 1.240 . S
C205 O197 1.252 . S
O206 In195 2.294 . S
O206 C199 1.240 . S
O207 In195 2.326 . S
O207 C199 1.252 . S
In208 O209 2.294 . S
In208 O210 2.326 . S
In208 O214 2.266 . S
In208 O215 2.326 . S
In208 O216 2.266 . S
In208 O217 2.326 . S
In208 O219 2.291 1_545 S
In208 O220 2.326 . S
O209 In208 2.294 . S
O209 C218 1.240 . S
O210 In208 2.326 . S
O210 C218 1.252 . S
C211 O214 1.252 . S
C211 O215 1.260 . S
C212 O219 1.240 . S
C212 O220 1.252 1_565 S
C213 O216 1.252 . S
C213 O217 1.260 . S
O214 In208 2.266 . S
O214 C211 1.252 . S
O215 In208 2.326 . S
O215 C211 1.260 . S
O216 In208 2.266 . S
O216 C213 1.252 . S
O217 In208 2.326 . S
O217 C213 1.260 . S
C218 O209 1.240 . S
C218 O210 1.252 . S
O219 In208 2.291 1_565 S
O219 C212 1.240 . S
O220 In208 2.326 . S
O220 C212 1.252 1_545 S
In221 O222 2.294 . S
In221 O223 2.349 . S
In221 O227 2.266 . S
In221 O228 2.326 . S
In221 O229 2.266 1_655 S
In221 O230 2.326 1_655 S
In221 O232 2.294 . S
In221 O233 2.326 . S
O222 In221 2.294 . S
O222 C231 1.240 . S
O223 In221 2.349 . S
O223 C231 1.251 . S
C224 O227 1.252 . S
C224 O228 1.260 . S
C225 O232 1.240 . S
C225 O233 1.252 . S
C226 O229 1.252 . S
C226 O230 1.260 . S
O227 In221 2.266 . S
O227 C224 1.252 . S
O228 In221 2.326 . S
O228 C224 1.260 . S
O229 In221 2.266 1_455 S
O229 C226 1.252 . S
O230 In221 2.326 1_455 S
O230 C226 1.260 . S
C231 O222 1.240 . S
C231 O223 1.251 . S
O232 In221 2.294 . S
O232 C225 1.240 . S
O233 In221 2.326 . S
O233 C225 1.252 . S
H234 C242 0.930 . S
H235 C245 0.930 . S
H236 C247 0.930 . S
H237 C248 0.970 . S
H238 C248 0.970 . S
H239 C250 0.930 . S
H240 C252 0.930 . S
H241 C254 0.930 . S
C242 H234 0.930 . S
C242 C243 1.382 . S
C242 C244 1.426 . S
C243 C242 1.382 . S
C243 C247 1.389 . S
C244 C242 1.426 . S
C244 C245 1.375 . S
C244 C248 1.532 . S
C245 H235 0.930 . S
C245 C244 1.375 . S
C245 C246 1.416 . S
C246 C245 1.416 . S
C246 C247 1.371 . S
C247 H236 0.930 . S
C247 C243 1.389 . S
C247 C246 1.371 . S
C248 H237 0.970 . S
C248 H238 0.970 . S
C248 C244 1.532 . S
C248 C249 1.499 . S
C249 C248 1.499 . S
C249 C250 1.370 . S
C249 C254 1.415 . S
C250 H239 0.930 . S
C250 C249 1.370 . S
C250 C251 1.407 . S
C251 C250 1.407 . S
C251 C252 1.365 . S
C252 H240 0.930 . S
C252 C251 1.365 . S
C252 C253 1.393 . S
C253 C252 1.393 . S
C253 C254 1.387 . S
C254 H241 0.930 . S
C254 C249 1.415 . S
C254 C253 1.387 . S
H255 C263 0.930 . S
H256 C266 0.930 . S
H257 C268 0.930 . S
H258 C269 0.970 . S
H259 C269 0.970 . S
H260 C271 0.930 . S
H261 C273 0.930 . S
H262 C275 0.930 . S
C263 H255 0.930 . S
C263 C264 1.382 . S
C263 C265 1.426 . S
C264 C263 1.382 . S
C264 C268 1.389 . S
C265 C263 1.426 . S
C265 C266 1.375 . S
C265 C269 1.532 . S
C266 H256 0.930 . S
C266 C265 1.375 . S
C266 C267 1.416 . S
C267 C266 1.416 . S
C267 C268 1.371 . S
C268 H257 0.930 . S
C268 C264 1.389 . S
C268 C267 1.371 . S
C269 H258 0.970 . S
C269 H259 0.970 . S
C269 C265 1.532 . S
C269 C270 1.499 . S
C270 C269 1.499 . S
C270 C271 1.370 . S
C270 C275 1.415 . S
C271 H260 0.930 . S
C271 C270 1.370 . S
C271 C272 1.407 . S
C272 C271 1.407 . S
C272 C273 1.365 . S
C273 H261 0.930 . S
C273 C272 1.365 . S
C273 C274 1.393 . S
C274 C273 1.393 . S
C274 C275 1.387 . S
C275 H262 0.930 . S
C275 C270 1.415 . S
C275 C274 1.387 . S
H276 C284 0.930 . S
H277 C287 0.930 . S
H278 C289 0.930 . S
H279 C290 0.970 . S
H280 C290 0.970 . S
H281 C292 0.930 . S
H282 C294 0.930 . S
H283 C296 0.930 . S
C284 H276 0.930 . S
C284 C285 1.382 . S
C284 C286 1.426 . S
C285 C284 1.382 . S
C285 C289 1.389 . S
C286 C284 1.426 . S
C286 C287 1.375 . S
C286 C290 1.532 . S
C287 H277 0.930 . S
C287 C286 1.375 . S
C287 C288 1.416 . S
C288 C287 1.416 . S
C288 C289 1.371 . S
C289 H278 0.930 . S
C289 C285 1.389 . S
C289 C288 1.371 . S
C290 H279 0.970 . S
C290 H280 0.970 . S
C290 C286 1.532 . S
C290 C291 1.499 . S
C291 C290 1.499 . S
C291 C292 1.370 . S
C291 C296 1.415 . S
C292 H281 0.930 . S
C292 C291 1.370 . S
C292 C293 1.407 . S
C293 C292 1.407 . S
C293 C294 1.365 . S
C294 H282 0.930 . S
C294 C293 1.365 . S
C294 C295 1.393 . S
C295 C294 1.393 . S
C295 C296 1.387 . S
C296 H283 0.930 . S
C296 C291 1.415 . S
C296 C295 1.387 . S
H297 C305 0.930 . S
H298 C308 0.930 . S
H299 C310 0.930 . S
H300 C311 0.970 . S
H301 C311 0.970 . S
H302 C313 0.930 . S
H303 C315 0.930 . S
H304 C317 0.930 . S
C305 H297 0.930 . S
C305 C306 1.382 . S
C305 C307 1.426 . S
C306 C305 1.382 . S
C306 C310 1.389 . S
C307 C305 1.426 . S
C307 C308 1.375 . S
C307 C311 1.532 . S
C308 H298 0.930 . S
C308 C307 1.375 . S
C308 C309 1.416 . S
C309 C308 1.416 . S
C309 C310 1.371 . S
C310 H299 0.930 . S
C310 C306 1.389 . S
C310 C309 1.371 . S
C311 H300 0.970 . S
C311 H301 0.970 . S
C311 C307 1.532 . S
C311 C312 1.499 . S
C312 C311 1.499 . S
C312 C313 1.370 . S
C312 C317 1.415 . S
C313 H302 0.930 . S
C313 C312 1.370 . S
C313 C314 1.407 . S
C314 C313 1.407 . S
C314 C315 1.365 . S
C315 H303 0.930 . S
C315 C314 1.365 . S
C315 C316 1.393 . S
C316 C315 1.393 . S
C316 C317 1.387 . S
C317 H304 0.930 . S
C317 C312 1.415 . S
C317 C316 1.387 . S
H318 C326 0.930 . S
H319 C329 0.930 . S
H320 C331 0.930 . S
H321 C332 0.970 . S
H322 C332 0.970 . S
H323 C334 0.930 . S
H324 C336 0.930 . S
H325 C338 0.930 . S
C326 H318 0.930 . S
C326 C327 1.382 . S
C326 C328 1.426 . S
C327 C326 1.382 . S
C327 C331 1.389 . S
C328 C326 1.426 . S
C328 C329 1.375 . S
C328 C332 1.532 . S
C329 H319 0.930 . S
C329 C328 1.375 . S
C329 C330 1.416 . S
C330 C329 1.416 . S
C330 C331 1.371 . S
C331 H320 0.930 . S
C331 C327 1.389 . S
C331 C330 1.371 . S
C332 H321 0.970 . S
C332 H322 0.970 . S
C332 C328 1.532 . S
C332 C333 1.499 . S
C333 C332 1.499 . S
C333 C334 1.370 . S
C333 C338 1.415 . S
C334 H323 0.930 . S
C334 C333 1.370 . S
C334 C335 1.407 . S
C335 C334 1.407 . S
C335 C336 1.365 . S
C336 H324 0.930 . S
C336 C335 1.365 . S
C336 C337 1.393 . S
C337 C336 1.393 . S
C337 C338 1.387 . S
C338 H325 0.930 . S
C338 C333 1.415 . S
C338 C337 1.387 . S
H339 C347 0.930 . S
H340 C350 0.930 . S
H341 C352 0.930 . S
H342 C353 0.970 . S
H343 C353 0.970 . S
H344 C355 0.930 . S
H345 C357 0.930 . S
H346 C359 0.930 . S
C347 H339 0.930 . S
C347 C348 1.382 . S
C347 C349 1.426 . S
C348 C347 1.382 . S
C348 C352 1.389 . S
C349 C347 1.426 . S
C349 C350 1.375 . S
C349 C353 1.532 . S
C350 H340 0.930 . S
C350 C349 1.375 . S
C350 C351 1.416 . S
C351 C350 1.416 . S
C351 C352 1.371 . S
C352 H341 0.930 . S
C352 C348 1.389 . S
C352 C351 1.371 . S
C353 H342 0.970 . S
C353 H343 0.970 . S
C353 C349 1.532 . S
C353 C354 1.499 . S
C354 C353 1.499 . S
C354 C355 1.370 . S
C354 C359 1.415 . S
C355 H344 0.930 . S
C355 C354 1.370 . S
C355 C356 1.407 . S
C356 C355 1.407 . S
C356 C357 1.365 . S
C357 H345 0.930 . S
C357 C356 1.365 . S
C357 C358 1.393 . S
C358 C357 1.393 . S
C358 C359 1.387 . S
C359 H346 0.930 . S
C359 C354 1.415 . S
C359 C358 1.387 . S
H360 C368 0.930 . S
H361 C371 0.930 . S
H362 C373 0.930 . S
H363 C374 0.970 . S
H364 C374 0.970 . S
H365 C376 0.930 . S
H366 C378 0.930 . S
H367 C380 0.930 . S
C368 H360 0.930 . S
C368 C369 1.382 . S
C368 C370 1.426 . S
C369 C368 1.382 . S
C369 C373 1.389 . S
C370 C368 1.426 . S
C370 C371 1.375 . S
C370 C374 1.532 . S
C371 H361 0.930 . S
C371 C370 1.375 . S
C371 C372 1.416 . S
C372 C371 1.416 . S
C372 C373 1.371 . S
C373 H362 0.930 . S
C373 C369 1.389 . S
C373 C372 1.371 . S
C374 H363 0.970 . S
C374 H364 0.970 . S
C374 C370 1.532 . S
C374 C375 1.499 . S
C375 C374 1.499 . S
C375 C376 1.370 . S
C375 C380 1.415 . S
C376 H365 0.930 . S
C376 C375 1.370 . S
C376 C377 1.407 . S
C377 C376 1.407 . S
C377 C378 1.365 . S
C378 H366 0.930 . S
C378 C377 1.365 . S
C378 C379 1.393 . S
C379 C378 1.393 . S
C379 C380 1.387 . S
C380 H367 0.930 . S
C380 C375 1.415 . S
C380 C379 1.387 . S
H381 C389 0.930 . S
H382 C392 0.930 . S
H383 C394 0.930 . S
H384 C395 0.970 . S
H385 C395 0.970 . S
H386 C397 0.930 . S
H387 C399 0.930 . S
H388 C401 0.930 . S
C389 H381 0.930 . S
C389 C390 1.382 . S
C389 C391 1.426 . S
C390 C389 1.382 . S
C390 C394 1.389 . S
C391 C389 1.426 . S
C391 C392 1.375 . S
C391 C395 1.532 . S
C392 H382 0.930 . S
C392 C391 1.375 . S
C392 C393 1.416 . S
C393 C392 1.416 . S
C393 C394 1.371 . S
C394 H383 0.930 . S
C394 C390 1.389 . S
C394 C393 1.371 . S
C395 H384 0.970 . S
C395 H385 0.970 . S
C395 C391 1.532 . S
C395 C396 1.499 . S
C396 C395 1.499 . S
C396 C397 1.370 . S
C396 C401 1.415 . S
C397 H386 0.930 . S
C397 C396 1.370 . S
C397 C398 1.407 . S
C398 C397 1.407 . S
C398 C399 1.365 . S
C399 H387 0.930 . S
C399 C398 1.365 . S
C399 C400 1.393 . S
C400 C399 1.393 . S
C400 C401 1.387 . S
C401 H388 0.930 . S
C401 C396 1.415 . S
C401 C400 1.387 . S
H402 C410 0.930 . S
H403 C413 0.930 . S
H404 C415 0.930 . S
H405 C416 0.970 . S
H406 C416 0.970 . S
H407 C418 0.930 . S
H408 C420 0.930 . S
H409 C422 0.930 . S
C410 H402 0.930 . S
C410 C411 1.382 . S
C410 C412 1.426 . S
C411 C410 1.382 . S
C411 C415 1.389 . S
C412 C410 1.426 . S
C412 C413 1.375 . S
C412 C416 1.532 . S
C413 H403 0.930 . S
C413 C412 1.375 . S
C413 C414 1.416 . S
C414 C413 1.416 . S
C414 C415 1.371 . S
C415 H404 0.930 . S
C415 C411 1.389 . S
C415 C414 1.371 . S
C416 H405 0.970 . S
C416 H406 0.970 . S
C416 C412 1.532 . S
C416 C417 1.499 . S
C417 C416 1.499 . S
C417 C418 1.370 . S
C417 C422 1.415 . S
C418 H407 0.930 . S
C418 C417 1.370 . S
C418 C419 1.407 . S
C419 C418 1.407 . S
C419 C420 1.365 . S
C420 H408 0.930 . S
C420 C419 1.365 . S
C420 C421 1.393 . S
C421 C420 1.393 . S
C421 C422 1.387 . S
C422 H409 0.930 . S
C422 C417 1.415 . S
C422 C421 1.387 . S
H423 C431 0.930 . S
H424 C434 0.930 . S
H425 C436 0.930 . S
H426 C437 0.970 . S
H427 C437 0.970 . S
H428 C439 0.930 . S
H429 C441 0.930 . S
H430 C443 0.930 . S
C431 H423 0.930 . S
C431 C432 1.382 . S
C431 C433 1.426 . S
C432 C431 1.382 . S
C432 C436 1.389 . S
C433 C431 1.426 . S
C433 C434 1.375 . S
C433 C437 1.532 . S
C434 H424 0.930 . S
C434 C433 1.375 . S
C434 C435 1.416 . S
C435 C434 1.416 . S
C435 C436 1.371 . S
C436 H425 0.930 . S
C436 C432 1.389 . S
C436 C435 1.371 . S
C437 H426 0.970 . S
C437 H427 0.970 . S
C437 C433 1.532 . S
C437 C438 1.499 . S
C438 C437 1.499 . S
C438 C439 1.370 . S
C438 C443 1.415 . S
C439 H428 0.930 . S
C439 C438 1.370 . S
C439 C440 1.407 . S
C440 C439 1.407 . S
C440 C441 1.365 . S
C441 H429 0.930 . S
C441 C440 1.365 . S
C441 C442 1.393 . S
C442 C441 1.393 . S
C442 C443 1.387 . S
C443 H430 0.930 . S
C443 C438 1.415 . S
C443 C442 1.387 . S
H444 C452 0.930 . S
H445 C455 0.930 . S
H446 C457 0.930 . S
H447 C458 0.970 . S
H448 C458 0.970 . S
H449 C460 0.930 . S
H450 C462 0.930 . S
H451 C464 0.930 . S
C452 H444 0.930 . S
C452 C453 1.382 . S
C452 C454 1.426 . S
C453 C452 1.382 . S
C453 C457 1.389 . S
C454 C452 1.426 . S
C454 C455 1.375 . S
C454 C458 1.532 . S
C455 H445 0.930 . S
C455 C454 1.375 . S
C455 C456 1.416 . S
C456 C455 1.416 . S
C456 C457 1.371 . S
C457 H446 0.930 . S
C457 C453 1.389 . S
C457 C456 1.371 . S
C458 H447 0.970 . S
C458 H448 0.970 . S
C458 C454 1.532 . S
C458 C459 1.499 . S
C459 C458 1.499 . S
C459 C460 1.370 . S
C459 C464 1.415 . S
C460 H449 0.930 . S
C460 C459 1.370 . S
C460 C461 1.407 . S
C461 C460 1.407 . S
C461 C462 1.365 . S
C462 H450 0.930 . S
C462 C461 1.365 . S
C462 C463 1.393 . S
C463 C462 1.393 . S
C463 C464 1.387 . S
C464 H451 0.930 . S
C464 C459 1.415 . S
C464 C463 1.387 . S
H465 C473 0.930 . S
H466 C476 0.930 . S
H467 C478 0.930 . S
H468 C479 0.970 . S
H469 C479 0.970 . S
H470 C481 0.930 . S
H471 C483 0.930 . S
H472 C485 0.930 . S
C473 H465 0.930 . S
C473 C474 1.382 . S
C473 C475 1.426 . S
C474 C473 1.382 . S
C474 C478 1.389 1_565 S
C475 C473 1.426 . S
C475 C476 1.375 . S
C475 C479 1.532 . S
C476 H466 0.930 . S
C476 C475 1.375 . S
C476 C477 1.416 . S
C477 C476 1.416 . S
C477 C478 1.371 1_565 S
C478 H467 0.930 . S
C478 C474 1.389 1_545 S
C478 C477 1.371 1_545 S
C479 H468 0.970 . S
C479 H469 0.970 . S
C479 C475 1.532 . S
C479 C480 1.499 . S
C480 C479 1.499 . S
C480 C481 1.370 . S
C480 C485 1.415 . S
C481 H470 0.930 . S
C481 C480 1.370 . S
C481 C482 1.443 . S
C482 C481 1.443 . S
C482 C483 1.350 1_565 S
C483 H471 0.930 . S
C483 C482 1.350 1_545 S
C483 C484 1.393 1_545 S
C484 C483 1.393 1_565 S
C484 C485 1.387 . S
C485 H472 0.930 . S
C485 C480 1.415 . S
C485 C484 1.387 . S
H486 C494 0.930 . S
H487 C497 0.923 1_565 S
H488 C499 0.930 . S
H489 C500 0.970 . S
H490 C500 0.970 . S
H491 C502 0.930 . S
H492 C504 0.930 . S
H493 C506 0.930 . S
C494 H486 0.930 . S
C494 C495 1.382 1_565 S
C494 C496 1.426 . S
C495 C494 1.382 1_545 S
C495 C499 1.389 . S
C496 C494 1.426 . S
C496 C497 1.363 1_565 S
C496 C500 1.532 . S
C497 H487 0.923 1_545 S
C497 C496 1.363 1_545 S
C497 C498 1.435 . S
C498 C497 1.435 . S
C498 C499 1.371 . S
C499 H488 0.930 . S
C499 C495 1.389 . S
C499 C498 1.371 . S
C500 H489 0.970 . S
C500 H490 0.970 . S
C500 C496 1.532 . S
C500 C501 1.499 . S
C501 C500 1.499 . S
C501 C502 1.370 . S
C501 C506 1.415 . S
C502 H491 0.930 . S
C502 C501 1.370 . S
C502 C503 1.407 1_565 S
C503 C502 1.407 1_545 S
C503 C504 1.365 . S
C504 H492 0.930 . S
C504 C503 1.365 . S
C504 C505 1.393 . S
C505 C504 1.393 . S
C505 C506 1.387 1_545 S
C506 H493 0.930 . S
C506 C501 1.415 . S
C506 C505 1.387 1_565 S
H507 C515 0.930 . S
H508 C518 0.930 . S
H509 C520 0.930 . S
H510 C521 0.970 . S
H511 C521 0.970 . S
H512 C523 0.930 . S
H513 C525 0.930 . S
H514 C527 0.930 . S
C515 H507 0.930 . S
C515 C516 1.382 . S
C515 C517 1.426 . S
C516 C515 1.382 . S
C516 C520 1.389 1_455 S
C517 C515 1.426 . S
C517 C518 1.375 . S
C517 C521 1.532 . S
C518 H508 0.930 . S
C518 C517 1.375 . S
C518 C519 1.416 . S
C519 C518 1.416 . S
C519 C520 1.371 1_455 S
C520 H509 0.930 . S
C520 C516 1.389 1_655 S
C520 C519 1.371 1_655 S
C521 H510 0.970 . S
C521 H511 0.970 . S
C521 C517 1.532 . S
C521 C522 1.499 . S
C522 C521 1.499 . S
C522 C523 1.370 . S
C522 C527 1.415 . S
C523 H512 0.930 . S
C523 C522 1.370 . S
C523 C524 1.407 . S
C524 C523 1.407 . S
C524 C525 1.365 1_455 S
C525 H513 0.930 . S
C525 C524 1.365 1_655 S
C525 C526 1.393 1_655 S
C526 C525 1.393 1_455 S
C526 C527 1.387 . S
C527 H514 0.930 . S
C527 C522 1.415 . S
C527 C526 1.387 . S
H528 C536 0.930 . S
H529 C539 0.930 . S
H530 C541 0.930 . S
H531 C542 0.970 . S
H532 C542 0.970 . S
H533 C544 0.930 . S
H534 C546 0.930 . S
H535 C548 0.930 . S
C536 H528 0.930 . S
C536 C537 1.382 . S
C536 C538 1.426 . S
C537 C536 1.382 . S
C537 C541 1.389 . S
C538 C536 1.426 . S
C538 C539 1.375 . S
C538 C542 1.532 . S
C539 H529 0.930 . S
C539 C538 1.375 . S
C539 C540 1.416 . S
C540 C539 1.416 . S
C540 C541 1.371 . S
C541 H530 0.930 . S
C541 C537 1.389 . S
C541 C540 1.371 . S
C542 H531 0.970 . S
C542 H532 0.970 . S
C542 C538 1.532 . S
C542 C543 1.499 . S
C543 C542 1.499 . S
C543 C544 1.370 . S
C543 C548 1.415 . S
C544 H533 0.930 . S
C544 C543 1.370 . S
C544 C545 1.407 . S
C545 C544 1.407 . S
C545 C546 1.365 . S
C546 H534 0.930 . S
C546 C545 1.365 . S
C546 C547 1.393 . S
C547 C546 1.393 . S
C547 C548 1.387 . S
C548 H535 0.930 . S
C548 C543 1.415 . S
C548 C547 1.387 . S
H549 C557 0.930 . S
H550 C560 0.930 . S
H551 C562 0.930 . S
H552 C563 0.970 . S
H553 C563 0.970 . S
H554 C565 0.930 . S
H555 C567 0.930 . S
H556 C569 0.930 . S
C557 H549 0.930 . S
C557 C558 1.382 . S
C557 C559 1.426 . S
C558 C557 1.382 . S
C558 C562 1.389 . S
C559 C557 1.426 . S
C559 C560 1.375 . S
C559 C563 1.532 . S
C560 H550 0.930 . S
C560 C559 1.375 . S
C560 C561 1.416 . S
C561 C560 1.416 . S
C561 C562 1.371 . S
C562 H551 0.930 . S
C562 C558 1.389 . S
C562 C561 1.371 . S
C563 H552 0.970 . S
C563 H553 0.970 . S
C563 C559 1.532 . S
C563 C564 1.499 . S
C564 C563 1.499 . S
C564 C565 1.370 . S
C564 C569 1.415 . S
C565 H554 0.930 . S
C565 C564 1.370 . S
C565 C566 1.407 . S
C566 C565 1.407 . S
C566 C567 1.365 . S
C567 H555 0.930 . S
C567 C566 1.365 . S
C567 C568 1.393 . S
C568 C567 1.393 . S
C568 C569 1.387 . S
C569 H556 0.930 . S
C569 C564 1.415 . S
C569 C568 1.387 . S
H570 C578 0.930 . S
H571 C581 0.930 . S
H572 C583 0.930 . S
H573 C584 0.970 . S
H574 C584 0.970 . S
H575 C586 0.930 . S
H576 C588 0.930 . S
H577 C590 0.930 . S
C578 H570 0.930 . S
C578 C579 1.382 . S
C578 C580 1.426 . S
C579 C578 1.382 . S
C579 C583 1.389 . S
C580 C578 1.426 . S
C580 C581 1.375 . S
C580 C584 1.532 . S
C581 H571 0.930 . S
C581 C580 1.375 . S
C581 C582 1.416 . S
C582 C581 1.416 . S
C582 C583 1.371 . S
C583 H572 0.930 . S
C583 C579 1.389 . S
C583 C582 1.371 . S
C584 H573 0.970 . S
C584 H574 0.970 . S
C584 C580 1.532 . S
C584 C585 1.499 . S
C585 C584 1.499 . S
C585 C586 1.370 . S
C585 C590 1.415 . S
C586 H575 0.930 . S
C586 C585 1.370 . S
C586 C587 1.407 . S
C587 C586 1.407 . S
C587 C588 1.365 . S
C588 H576 0.930 . S
C588 C587 1.365 . S
C588 C589 1.393 . S
C589 C588 1.393 . S
C589 C590 1.387 . S
C590 H577 0.930 . S
C590 C585 1.415 . S
C590 C589 1.387 . S
H591 C599 0.930 . S
H592 C602 0.930 . S
H593 C604 0.930 . S
H594 C605 0.970 . S
H595 C605 0.970 . S
H596 C607 0.930 . S
H597 C609 0.930 . S
H598 C611 0.930 . S
C599 H591 0.930 . S
C599 C600 1.382 . S
C599 C601 1.426 . S
C600 C599 1.382 . S
C600 C604 1.389 . S
C601 C599 1.426 . S
C601 C602 1.375 . S
C601 C605 1.532 . S
C602 H592 0.930 . S
C602 C601 1.375 . S
C602 C603 1.416 . S
C603 C602 1.416 . S
C603 C604 1.371 . S
C604 H593 0.930 . S
C604 C600 1.389 . S
C604 C603 1.371 . S
C605 H594 0.970 . S
C605 H595 0.970 . S
C605 C601 1.532 . S
C605 C606 1.499 . S
C606 C605 1.499 . S
C606 C607 1.370 . S
C606 C611 1.415 . S
C607 H596 0.930 . S
C607 C606 1.370 . S
C607 C608 1.407 . S
C608 C607 1.407 . S
C608 C609 1.365 . S
C609 H597 0.930 . S
C609 C608 1.365 . S
C609 C610 1.393 . S
C610 C609 1.393 . S
C610 C611 1.387 . S
C611 H598 0.930 . S
C611 C606 1.415 . S
C611 C610 1.387 . S
H612 C618 0.930 . S
H613 C622 0.930 . S
H614 C627 0.929 . S
H615 C625 0.929 . S
H616 C620 0.929 . S
H617 C626 0.929 . S
C618 H612 0.930 . S
C618 C619 1.367 . S
C618 C626 1.378 . S
C619 C618 1.367 . S
C619 C627 1.433 1_455 S
C620 H616 0.929 . S
C620 C622 1.378 . S
C620 C624 1.350 1_655 S
C621 C624 1.463 . S
C621 C626 1.350 . S
C621 N629 1.427 1_455 S
C622 H613 0.930 . S
C622 C620 1.378 . S
C622 C623 1.367 1_655 S
C623 C622 1.367 1_455 S
C623 C625 1.433 . S
C624 C620 1.350 1_455 S
C624 C621 1.463 . S
C624 N628 1.427 . S
C625 H615 0.929 . S
C625 C623 1.433 . S
C625 N628 1.384 . S
C626 H617 0.929 . S
C626 C618 1.378 . S
C626 C621 1.350 . S
C627 H614 0.929 . S
C627 C619 1.433 1_655 S
C627 N629 1.384 . S
N628 C624 1.427 . S
N628 C625 1.384 . S
N629 C621 1.427 1_655 S
N629 C627 1.384 . S
H630 C636 0.930 . S
H631 C640 0.930 . S
H632 C645 0.929 . S
H633 C643 0.929 . S
H634 C638 0.929 . S
H635 C644 0.929 . S
C636 H630 0.930 . S
C636 C637 1.367 . S
C636 C644 1.378 . S
C637 C636 1.367 . S
C637 C645 1.433 . S
C638 H634 0.929 . S
C638 C640 1.378 . S
C638 C642 1.350 . S
C639 C642 1.463 . S
C639 C644 1.350 . S
C639 N647 1.427 . S
C640 H631 0.930 . S
C640 C638 1.378 . S
C640 C641 1.367 . S
C641 C640 1.367 . S
C641 C643 1.433 . S
C642 C638 1.350 . S
C642 C639 1.463 . S
C642 N646 1.427 . S
C643 H633 0.929 . S
C643 C641 1.433 . S
C643 N646 1.384 . S
C644 H635 0.929 . S
C644 C636 1.378 . S
C644 C639 1.350 . S
C645 H632 0.929 . S
C645 C637 1.433 . S
C645 N647 1.384 . S
N646 C642 1.427 . S
N646 C643 1.384 . S
N647 C639 1.427 . S
N647 C645 1.384 . S
H648 C654 0.930 . S
H649 C658 0.930 . S
H650 C663 0.929 . S
H651 C661 0.929 . S
H652 C656 0.929 . S
H653 C662 0.929 . S
C654 H648 0.930 . S
C654 C655 1.367 . S
C654 C662 1.378 . S
C655 C654 1.367 . S
C655 C663 1.433 1_545 S
C656 H652 0.929 . S
C656 C658 1.378 . S
C656 C660 1.350 1_565 S
C657 C660 1.463 . S
C657 C662 1.350 . S
C657 N665 1.427 1_545 S
C658 H649 0.930 . S
C658 C656 1.378 . S
C658 C659 1.367 1_565 S
C659 C658 1.367 1_545 S
C659 C661 1.433 . S
C660 C656 1.350 1_545 S
C660 C657 1.463 . S
C660 N664 1.427 . S
C661 H651 0.929 . S
C661 C659 1.433 . S
C661 N664 1.384 . S
C662 H653 0.929 . S
C662 C654 1.378 . S
C662 C657 1.350 . S
C663 H650 0.929 . S
C663 C655 1.433 1_565 S
C663 N665 1.384 . S
N664 C660 1.427 . S
N664 C661 1.384 . S
N665 C657 1.427 1_565 S
N665 C663 1.384 . S
H666 C672 0.930 . S
H667 C676 0.930 . S
H668 C681 0.929 . S
H669 C679 0.929 . S
H670 C674 0.929 . S
H671 C680 0.929 . S
C672 H666 0.930 . S
C672 C673 1.367 . S
C672 C680 1.378 . S
C673 C672 1.367 . S
C673 C681 1.433 . S
C674 H670 0.929 . S
C674 C676 1.378 . S
C674 C678 1.350 . S
C675 C678 1.463 . S
C675 C680 1.350 . S
C675 N683 1.427 . S
C676 H667 0.930 . S
C676 C674 1.378 . S
C676 C677 1.367 . S
C677 C676 1.367 . S
C677 C679 1.433 . S
C678 C674 1.350 . S
C678 C675 1.463 . S
C678 N682 1.427 . S
C679 H669 0.929 . S
C679 C677 1.433 . S
C679 N682 1.384 . S
C680 H671 0.929 . S
C680 C672 1.378 . S
C680 C675 1.350 . S
C681 H668 0.929 . S
C681 C673 1.433 . S
C681 N683 1.384 . S
N682 C678 1.427 . S
N682 C679 1.384 . S
N683 C675 1.427 . S
N683 C681 1.384 . S
H684 C690 0.930 . S
H685 C694 0.930 . S
H686 C699 0.929 . S
H687 C697 0.929 . S
H688 C692 0.929 . S
H689 C698 0.929 . S
C690 H684 0.930 . S
C690 C691 1.367 . S
C690 C698 1.378 . S
C691 C690 1.367 . S
C691 C699 1.433 1_455 S
C692 H688 0.929 . S
C692 C694 1.378 . S
C692 C696 1.350 1_655 S
C693 C696 1.463 . S
C693 C698 1.350 . S
C693 N701 1.427 1_455 S
C694 H685 0.930 . S
C694 C692 1.378 . S
C694 C695 1.367 1_655 S
C695 C694 1.367 1_455 S
C695 C697 1.433 . S
C696 C692 1.350 1_455 S
C696 C693 1.463 . S
C696 N700 1.427 . S
C697 H687 0.929 . S
C697 C695 1.433 . S
C697 N700 1.384 . S
C698 H689 0.929 . S
C698 C690 1.378 . S
C698 C693 1.350 . S
C699 H686 0.929 . S
C699 C691 1.433 1_655 S
C699 N701 1.384 . S
N700 C696 1.427 . S
N700 C697 1.384 . S
N701 C693 1.427 1_655 S
N701 C699 1.384 . S
H702 C708 0.930 . S
H703 C712 0.930 . S
H704 C717 0.929 . S
H705 C715 0.929 . S
H706 C710 0.929 . S
H707 C716 0.929 . S
C708 H702 0.930 . S
C708 C709 1.367 . S
C708 C716 1.378 . S
C709 C708 1.367 . S
C709 C717 1.433 . S
C710 H706 0.929 . S
C710 C712 1.378 . S
C710 C714 1.350 . S
C711 C714 1.463 . S
C711 C716 1.350 . S
C711 N719 1.427 . S
C712 H703 0.930 . S
C712 C710 1.378 . S
C712 C713 1.367 . S
C713 C712 1.367 . S
C713 C715 1.433 . S
C714 C710 1.350 . S
C714 C711 1.463 . S
C714 N718 1.427 . S
C715 H705 0.929 . S
C715 C713 1.433 . S
C715 N718 1.384 . S
C716 H707 0.929 . S
C716 C708 1.378 . S
C716 C711 1.350 . S
C717 H704 0.929 . S
C717 C709 1.433 . S
C717 N719 1.384 . S
N718 C714 1.427 . S
N718 C715 1.384 . S
N719 C711 1.427 . S
N719 C717 1.384 . S
H720 C726 0.930 . S
H721 C730 0.930 . S
H722 C735 0.929 . S
H723 C733 0.929 . S
H724 C728 0.929 . S
H725 C734 0.929 . S
C726 H720 0.930 . S
C726 C727 1.367 . S
C726 C734 1.378 . S
C727 C726 1.367 . S
C727 C735 1.433 1_455 S
C728 H724 0.929 . S
C728 C730 1.378 . S
C728 C732 1.350 1_655 S
C729 C732 1.463 . S
C729 C734 1.350 . S
C729 N737 1.427 1_455 S
C730 H721 0.930 . S
C730 C728 1.378 . S
C730 C731 1.339 1_655 S
C731 C730 1.339 1_455 S
C731 C733 1.448 . S
C732 C728 1.350 1_455 S
C732 C729 1.463 . S
C732 N736 1.427 . S
C733 H723 0.929 . S
C733 C731 1.448 . S
C733 N736 1.384 . S
C734 H725 0.929 . S
C734 C726 1.378 . S
C734 C729 1.350 . S
C735 H722 0.929 . S
C735 C727 1.433 1_655 S
C735 N737 1.384 . S
N736 C732 1.427 . S
N736 C733 1.384 . S
N737 C729 1.427 1_655 S
N737 C735 1.384 . S
H738 C744 0.930 . S
H739 C748 0.930 . S
H740 C753 0.929 . S
H741 C751 0.929 . S
H742 C746 0.929 . S
H743 C752 0.929 . S
C744 H738 0.930 . S
C744 C745 1.367 . S
C744 C752 1.378 . S
C745 C744 1.367 . S
C745 C753 1.433 . S
C746 H742 0.929 . S
C746 C748 1.378 . S
C746 C750 1.350 . S
C747 C750 1.463 . S
C747 C752 1.350 . S
C747 N755 1.427 . S
C748 H739 0.930 . S
C748 C746 1.378 . S
C748 C749 1.367 . S
C749 C748 1.367 . S
C749 C751 1.433 . S
C750 C746 1.350 . S
C750 C747 1.463 . S
C750 N754 1.427 . S
C751 H741 0.929 . S
C751 C749 1.433 . S
C751 N754 1.384 . S
C752 H743 0.929 . S
C752 C744 1.378 . S
C752 C747 1.350 . S
C753 H740 0.929 . S
C753 C745 1.433 . S
C753 N755 1.384 . S
N754 C750 1.427 . S
N754 C751 1.384 . S
N755 C747 1.427 . S
N755 C753 1.384 . S
H756 C762 0.930 . S
H757 C766 0.930 . S
H758 C771 0.929 . S
H759 C769 0.929 . S
H760 C764 0.929 . S
H761 C770 0.929 . S
C762 H756 0.930 . S
C762 C763 1.367 . S
C762 C770 1.378 . S
C763 C762 1.367 . S
C763 C771 1.433 . S
C764 H760 0.929 . S
C764 C766 1.378 . S
C764 C768 1.350 . S
C765 C768 1.463 . S
C765 C770 1.350 . S
C765 N773 1.427 . S
C766 H757 0.930 . S
C766 C764 1.378 . S
C766 C767 1.367 . S
C767 C766 1.367 . S
C767 C769 1.433 . S
C768 C764 1.350 . S
C768 C765 1.463 . S
C768 N772 1.427 . S
C769 H759 0.929 . S
C769 C767 1.433 . S
C769 N772 1.384 . S
C770 H761 0.929 . S
C770 C762 1.378 . S
C770 C765 1.350 . S
C771 H758 0.929 . S
C771 C763 1.433 . S
C771 N773 1.384 . S
N772 C768 1.427 . S
N772 C769 1.384 . S
N773 C765 1.427 . S
N773 C771 1.384 . S
H774 C780 0.930 . S
H775 C784 0.930 . S
H776 C789 0.929 . S
H777 C787 0.929 . S
H778 C782 0.929 . S
H779 C788 0.929 . S
C780 H774 0.930 . S
C780 C781 1.367 1_565 S
C780 C788 1.378 . S
C781 C780 1.367 1_545 S
C781 C789 1.433 . S
C782 H778 0.929 . S
C782 C784 1.378 . S
C782 C786 1.350 . S
C783 C786 1.463 . S
C783 C788 1.350 1_545 S
C783 N791 1.427 . S
C784 H775 0.930 . S
C784 C782 1.378 . S
C784 C785 1.367 . S
C785 C784 1.367 . S
C785 C787 1.433 1_545 S
C786 C782 1.350 . S
C786 C783 1.463 . S
C786 N790 1.427 1_545 S
C787 H777 0.929 . S
C787 C785 1.433 1_565 S
C787 N790 1.384 . S
C788 H779 0.929 . S
C788 C780 1.378 . S
C788 C783 1.350 1_565 S
C789 H776 0.929 . S
C789 C781 1.433 . S
C789 N791 1.384 . S
N790 C786 1.427 1_565 S
N790 C787 1.384 . S
N791 C783 1.427 . S
N791 C789 1.384 . S
H792 C798 0.975 . S
H793 C802 0.930 . S
H794 C807 0.929 . S
H795 C805 0.906 1_655 S
H796 C800 0.929 . S
H797 C806 0.938 . S
C798 H792 0.975 . S
C798 C799 1.342 1_655 S
C798 C806 1.366 . S
C799 C798 1.342 1_455 S
C799 C807 1.433 . S
C800 H796 0.929 . S
C800 C802 1.378 . S
C800 C804 1.350 . S
C801 C804 1.463 . S
C801 C806 1.334 1_455 S
C801 N809 1.427 . S
C802 H793 0.930 . S
C802 C800 1.378 . S
C802 C803 1.367 . S
C803 C802 1.367 . S
C803 C805 1.478 . S
C804 C800 1.350 . S
C804 C801 1.463 . S
C804 N808 1.442 . S
C805 H795 0.906 1_455 S
C805 C803 1.478 . S
C805 N808 1.376 . S
C806 H797 0.938 . S
C806 C798 1.366 . S
C806 C801 1.334 1_655 S
C807 H794 0.929 . S
C807 C799 1.433 . S
C807 N809 1.384 . S
N808 C804 1.442 . S
N808 C805 1.376 . S
N809 C801 1.427 . S
N809 C807 1.384 . S
H810 C816 0.930 . S
H811 C820 0.930 . S
H812 C825 0.929 . S
H813 C823 0.929 . S
H814 C818 0.929 . S
H815 C824 0.929 . S
C816 H810 0.930 . S
C816 C817 1.367 . S
C816 C824 1.378 . S
C817 C816 1.367 . S
C817 C825 1.433 . S
C818 H814 0.929 . S
C818 C820 1.378 . S
C818 C822 1.350 . S
C819 C822 1.463 . S
C819 C824 1.350 . S
C819 N827 1.427 . S
C820 H811 0.930 . S
C820 C818 1.378 . S
C820 C821 1.367 . S
C821 C820 1.367 . S
C821 C823 1.433 . S
C822 C818 1.350 . S
C822 C819 1.463 . S
C822 N826 1.427 . S
C823 H813 0.929 . S
C823 C821 1.433 . S
C823 N826 1.384 . S
C824 H815 0.929 . S
C824 C816 1.378 . S
C824 C819 1.350 . S
C825 H812 0.929 . S
C825 C817 1.433 . S
C825 N827 1.384 . S
N826 C822 1.427 . S
N826 C823 1.384 . S
N827 C819 1.427 . S
N827 C825 1.384 . S
H828 C834 0.930 . S
H829 C838 0.930 . S
H830 C843 0.929 . S
H831 C841 0.929 . S
H832 C836 0.929 . S
H833 C842 0.929 . S
C834 H828 0.930 . S
C834 C835 1.367 . S
C834 C842 1.378 . S
C835 C834 1.367 . S
C835 C843 1.433 . S
C836 H832 0.929 . S
C836 C838 1.378 . S
C836 C840 1.350 . S
C837 C840 1.463 . S
C837 C842 1.350 . S
C837 N845 1.427 . S
C838 H829 0.930 . S
C838 C836 1.378 . S
C838 C839 1.367 . S
C839 C838 1.367 . S
C839 C841 1.433 . S
C840 C836 1.350 . S
C840 C837 1.463 . S
C840 N844 1.427 . S
C841 H831 0.929 . S
C841 C839 1.433 . S
C841 N844 1.384 . S
C842 H833 0.929 . S
C842 C834 1.378 . S
C842 C837 1.350 . S
C843 H830 0.929 . S
C843 C835 1.433 . S
C843 N845 1.384 . S
N844 C840 1.427 . S
N844 C841 1.384 . S
N845 C837 1.427 . S
N845 C843 1.384 . S
H846 C852 0.930 . S
H847 C856 0.930 . S
H848 C861 0.929 . S
H849 C859 0.929 . S
H850 C854 0.929 . S
H851 C860 0.929 . S
C852 H846 0.930 . S
C852 C853 1.367 . S
C852 C860 1.378 . S
C853 C852 1.367 . S
C853 C861 1.433 . S
C854 H850 0.929 . S
C854 C856 1.378 . S
C854 C858 1.350 . S
C855 C858 1.463 . S
C855 C860 1.350 . S
C855 N863 1.427 . S
C856 H847 0.930 . S
C856 C854 1.378 . S
C856 C857 1.367 . S
C857 C856 1.367 . S
C857 C859 1.433 . S
C858 C854 1.350 . S
C858 C855 1.463 . S
C858 N862 1.427 . S
C859 H849 0.929 . S
C859 C857 1.433 . S
C859 N862 1.384 . S
C860 H851 0.929 . S
C860 C852 1.378 . S
C860 C855 1.350 . S
C861 H848 0.929 . S
C861 C853 1.433 . S
C861 N863 1.384 . S
N862 C858 1.427 . S
N862 C859 1.384 . S
N863 C855 1.427 . S
N863 C861 1.384 . S
H864 C870 0.930 . S
H865 C874 0.930 . S
H866 C879 0.929 . S
H867 C877 0.929 . S
H868 C872 0.929 . S
H869 C878 0.929 . S
C870 H864 0.930 . S
C870 C871 1.367 . S
C870 C878 1.378 . S
C871 C870 1.367 . S
C871 C879 1.433 . S
C872 H868 0.929 . S
C872 C874 1.378 . S
C872 C876 1.350 . S
C873 C876 1.463 . S
C873 C878 1.350 . S
C873 N881 1.427 . S
C874 H865 0.930 . S
C874 C872 1.378 . S
C874 C875 1.367 . S
C875 C874 1.367 . S
C875 C877 1.433 . S
C876 C872 1.350 . S
C876 C873 1.463 . S
C876 N880 1.427 . S
C877 H867 0.929 . S
C877 C875 1.433 . S
C877 N880 1.384 . S
C878 H869 0.929 . S
C878 C870 1.378 . S
C878 C873 1.350 . S
C879 H866 0.929 . S
C879 C871 1.433 . S
C879 N881 1.384 . S
N880 C876 1.427 . S
N880 C877 1.384 . S
N881 C873 1.427 . S
N881 C879 1.384 . S
H882 C888 0.930 . S
H883 C892 0.930 . S
H884 C897 0.929 . S
H885 C895 0.929 . S
H886 C890 0.929 . S
H887 C896 0.929 . S
C888 H882 0.930 . S
C888 C889 1.367 . S
C888 C896 1.378 . S
C889 C888 1.367 . S
C889 C897 1.433 . S
C890 H886 0.929 . S
C890 C892 1.378 . S
C890 C894 1.350 . S
C891 C894 1.463 . S
C891 C896 1.350 . S
C891 N899 1.427 . S
C892 H883 0.930 . S
C892 C890 1.378 . S
C892 C893 1.367 . S
C893 C892 1.367 . S
C893 C895 1.433 . S
C894 C890 1.350 . S
C894 C891 1.463 . S
C894 N898 1.427 . S
C895 H885 0.929 . S
C895 C893 1.433 . S
C895 N898 1.384 . S
C896 H887 0.929 . S
C896 C888 1.378 . S
C896 C891 1.350 . S
C897 H884 0.929 . S
C897 C889 1.433 . S
C897 N899 1.384 . S
N898 C894 1.427 . S
N898 C895 1.384 . S
N899 C891 1.427 . S
N899 C897 1.384 . S
H900 C906 0.930 . S
H901 C910 0.930 . S
H902 C915 0.929 . S
H903 C913 0.929 . S
H904 C908 0.929 . S
H905 C914 0.929 . S
C906 H900 0.930 . S
C906 C907 1.367 . S
C906 C914 1.378 . S
C907 C906 1.367 . S
C907 C915 1.433 . S
C908 H904 0.929 . S
C908 C910 1.378 . S
C908 C912 1.350 . S
C909 C912 1.463 . S
C909 C914 1.350 . S
C909 N917 1.427 . S
C910 H901 0.930 . S
C910 C908 1.378 . S
C910 C911 1.367 . S
C911 C910 1.367 . S
C911 C913 1.433 . S
C912 C908 1.350 . S
C912 C909 1.463 . S
C912 N916 1.427 . S
C913 H903 0.929 . S
C913 C911 1.433 . S
C913 N916 1.384 . S
C914 H905 0.929 . S
C914 C906 1.378 . S
C914 C909 1.350 . S
C915 H902 0.929 . S
C915 C907 1.433 . S
C915 N917 1.384 . S
N916 C912 1.427 . S
N916 C913 1.384 . S
N917 C909 1.427 . S
N917 C915 1.384 . S
H918 C924 0.930 . S
H919 C928 0.930 . S
H920 C933 0.929 . S
H921 C931 0.929 . S
H922 C926 0.929 . S
H923 C932 0.929 . S
C924 H918 0.930 . S
C924 C925 1.367 . S
C924 C932 1.378 . S
C925 C924 1.367 . S
C925 C933 1.433 . S
C926 H922 0.929 . S
C926 C928 1.378 . S
C926 C930 1.350 . S
C927 C930 1.463 . S
C927 C932 1.350 . S
C927 N935 1.427 . S
C928 H919 0.930 . S
C928 C926 1.378 . S
C928 C929 1.367 . S
C929 C928 1.367 . S
C929 C931 1.433 . S
C930 C926 1.350 . S
C930 C927 1.463 . S
C930 N934 1.427 . S
C931 H921 0.929 . S
C931 C929 1.433 . S
C931 N934 1.384 . S
C932 H923 0.929 . S
C932 C924 1.378 . S
C932 C927 1.350 . S
C933 H920 0.929 . S
C933 C925 1.433 . S
C933 N935 1.384 . S
N934 C930 1.427 . S
N934 C931 1.384 . S
N935 C927 1.427 . S
N935 C933 1.384 . S
H936 C942 0.930 . S
H937 C946 0.930 . S
H938 C951 0.929 . S
H939 C949 0.929 . S
H940 C944 0.929 . S
H941 C950 0.929 . S
C942 H936 0.930 . S
C942 C943 1.367 . S
C942 C950 1.378 . S
C943 C942 1.367 . S
C943 C951 1.433 . S
C944 H940 0.929 . S
C944 C946 1.378 . S
C944 C948 1.350 . S
C945 C948 1.463 . S
C945 C950 1.350 . S
C945 N953 1.427 . S
C946 H937 0.930 . S
C946 C944 1.378 . S
C946 C947 1.367 . S
C947 C946 1.367 . S
C947 C949 1.433 . S
C948 C944 1.350 . S
C948 C945 1.463 . S
C948 N952 1.427 . S
C949 H939 0.929 . S
C949 C947 1.433 . S
C949 N952 1.384 . S
C950 H941 0.929 . S
C950 C942 1.378 . S
C950 C945 1.350 . S
C951 H938 0.929 . S
C951 C943 1.433 . S
C951 N953 1.384 . S
N952 C948 1.427 . S
N952 C949 1.384 . S
N953 C945 1.427 . S
N953 C951 1.384 . S
H954 C960 0.930 . S
H955 C964 0.930 . S
H956 C969 0.929 . S
H957 C967 0.929 . S
H958 C962 0.929 . S
H959 C968 0.929 . S
C960 H954 0.930 . S
C960 C961 1.367 . S
C960 C968 1.378 . S
C961 C960 1.367 . S
C961 C969 1.433 . S
C962 H958 0.929 . S
C962 C964 1.378 . S
C962 C966 1.350 . S
C963 C966 1.463 . S
C963 C968 1.350 . S
C963 N971 1.427 . S
C964 H955 0.930 . S
C964 C962 1.378 . S
C964 C965 1.367 . S
C965 C964 1.367 . S
C965 C967 1.433 . S
C966 C962 1.350 . S
C966 C963 1.463 . S
C966 N970 1.427 . S
C967 H957 0.929 . S
C967 C965 1.433 . S
C967 N970 1.384 . S
C968 H959 0.929 . S
C968 C960 1.378 . S
C968 C963 1.350 . S
C969 H956 0.929 . S
C969 C961 1.433 . S
C969 N971 1.384 . S
N970 C966 1.427 . S
N970 C967 1.384 . S
N971 C963 1.427 . S
N971 C969 1.384 . S
H972 C978 0.930 . S
H973 C982 0.930 . S
H974 C987 0.929 . S
H975 C985 0.929 . S
H976 C980 0.929 . S
H977 C986 0.929 . S
C978 H972 0.930 . S
C978 C979 1.367 . S
C978 C986 1.378 . S
C979 C978 1.367 . S
C979 C987 1.433 . S
C980 H976 0.929 . S
C980 C982 1.378 . S
C980 C984 1.350 . S
C981 C984 1.463 . S
C981 C986 1.350 . S
C981 N989 1.427 . S
C982 H973 0.930 . S
C982 C980 1.378 . S
C982 C983 1.367 . S
C983 C982 1.367 . S
C983 C985 1.433 . S
C984 C980 1.350 . S
C984 C981 1.463 . S
C984 N988 1.427 . S
C985 H975 0.929 . S
C985 C983 1.433 . S
C985 N988 1.384 . S
C986 H977 0.929 . S
C986 C978 1.378 . S
C986 C981 1.350 . S
C987 H974 0.929 . S
C987 C979 1.433 . S
C987 N989 1.384 . S
N988 C984 1.427 . S
N988 C985 1.384 . S
N989 C981 1.427 . S
N989 C987 1.384 . S
H990 C996 0.930 . S
H991 C1000 0.930 . S
H992 C1005 0.929 . S
H993 C1003 0.929 . S
H994 C998 0.929 . S
H995 C1004 0.929 . S
C996 H990 0.930 . S
C996 C997 1.367 . S
C996 C1004 1.378 . S
C997 C996 1.367 . S
C997 C1005 1.433 . S
C998 H994 0.929 . S
C998 C1000 1.378 . S
C998 C1002 1.350 . S
C999 C1002 1.463 . S
C999 C1004 1.350 . S
C999 N1007 1.427 . S
C1000 H991 0.930 . S
C1000 C998 1.378 . S
C1000 C1001 1.367 . S
C1001 C1000 1.367 . S
C1001 C1003 1.433 . S
C1002 C998 1.350 . S
C1002 C999 1.463 . S
C1002 N1006 1.427 . S
C1003 H993 0.929 . S
C1003 C1001 1.433 . S
C1003 N1006 1.384 . S
C1004 H995 0.929 . S
C1004 C996 1.378 . S
C1004 C999 1.350 . S
C1005 H992 0.929 . S
C1005 C997 1.433 . S
C1005 N1007 1.384 . S
N1006 C1002 1.427 . S
N1006 C1003 1.384 . S
N1007 C999 1.427 . S
N1007 C1005 1.384 . S
H1008 C1014 0.930 . S
H1009 C1018 0.930 . S
H1010 C1023 0.929 . S
H1011 C1021 0.929 . S
H1012 C1016 0.929 . S
H1013 C1022 0.929 . S
C1014 H1008 0.930 . S
C1014 C1015 1.367 . S
C1014 C1022 1.378 . S
C1015 C1014 1.367 . S
C1015 C1023 1.433 . S
C1016 H1012 0.929 . S
C1016 C1018 1.378 . S
C1016 C1020 1.350 . S
C1017 C1020 1.463 . S
C1017 C1022 1.350 . S
C1017 N1025 1.427 . S
C1018 H1009 0.930 . S
C1018 C1016 1.378 . S
C1018 C1019 1.367 . S
C1019 C1018 1.367 . S
C1019 C1021 1.433 . S
C1020 C1016 1.350 . S
C1020 C1017 1.463 . S
C1020 N1024 1.427 . S
C1021 H1011 0.929 . S
C1021 C1019 1.433 . S
C1021 N1024 1.384 . S
C1022 H1013 0.929 . S
C1022 C1014 1.378 . S
C1022 C1017 1.350 . S
C1023 H1010 0.929 . S
C1023 C1015 1.433 . S
C1023 N1025 1.384 . S
N1024 C1020 1.427 . S
N1024 C1021 1.384 . S
N1025 C1017 1.427 . S
N1025 C1023 1.384 . S
H1026 C1032 0.930 . S
H1027 C1036 0.930 . S
H1028 C1041 0.929 . S
H1029 C1039 0.929 . S
H1030 C1034 0.929 . S
H1031 C1040 0.929 . S
C1032 H1026 0.930 . S
C1032 C1033 1.367 . S
C1032 C1040 1.378 . S
C1033 C1032 1.367 . S
C1033 C1041 1.433 . S
C1034 H1030 0.929 . S
C1034 C1036 1.378 . S
C1034 C1038 1.350 . S
C1035 C1038 1.463 . S
C1035 C1040 1.350 . S
C1035 N1043 1.427 . S
C1036 H1027 0.930 . S
C1036 C1034 1.378 . S
C1036 C1037 1.367 . S
C1037 C1036 1.367 . S
C1037 C1039 1.433 . S
C1038 C1034 1.350 . S
C1038 C1035 1.463 . S
C1038 N1042 1.427 . S
C1039 H1029 0.929 . S
C1039 C1037 1.433 . S
C1039 N1042 1.384 . S
C1040 H1031 0.929 . S
C1040 C1032 1.378 . S
C1040 C1035 1.350 . S
C1041 H1028 0.929 . S
C1041 C1033 1.433 . S
C1041 N1043 1.384 . S
N1042 C1038 1.427 . S
N1042 C1039 1.384 . S
N1043 C1035 1.427 . S
N1043 C1041 1.384 . S
H1044 C1050 0.930 . S
H1045 C1054 0.930 . S
H1046 C1059 0.929 . S
H1047 C1057 0.929 . S
H1048 C1052 0.929 . S
H1049 C1058 0.929 . S
C1050 H1044 0.930 . S
C1050 C1051 1.367 . S
C1050 C1058 1.378 . S
C1051 C1050 1.367 . S
C1051 C1059 1.433 . S
C1052 H1048 0.929 . S
C1052 C1054 1.378 . S
C1052 C1056 1.350 . S
C1053 C1056 1.463 . S
C1053 C1058 1.350 . S
C1053 N1061 1.427 . S
C1054 H1045 0.930 . S
C1054 C1052 1.378 . S
C1054 C1055 1.367 . S
C1055 C1054 1.367 . S
C1055 C1057 1.433 . S
C1056 C1052 1.350 . S
C1056 C1053 1.463 . S
C1056 N1060 1.427 . S
C1057 H1047 0.929 . S
C1057 C1055 1.433 . S
C1057 N1060 1.384 . S
C1058 H1049 0.929 . S
C1058 C1050 1.378 . S
C1058 C1053 1.350 . S
C1059 H1046 0.929 . S
C1059 C1051 1.433 . S
C1059 N1061 1.384 . S
N1060 C1056 1.427 . S
N1060 C1057 1.384 . S
N1061 C1053 1.427 . S
N1061 C1059 1.384 . S
H1062 C1068 0.930 . S
H1063 C1072 0.930 . S
H1064 C1077 0.929 . S
H1065 C1075 0.929 . S
H1066 C1070 0.929 . S
H1067 C1076 0.929 . S
C1068 H1062 0.930 . S
C1068 C1069 1.367 . S
C1068 C1076 1.378 . S
C1069 C1068 1.367 . S
C1069 C1077 1.433 . S
C1070 H1066 0.929 . S
C1070 C1072 1.378 . S
C1070 C1074 1.350 . S
C1071 C1074 1.463 . S
C1071 C1076 1.350 . S
C1071 N1079 1.427 . S
C1072 H1063 0.930 . S
C1072 C1070 1.378 . S
C1072 C1073 1.367 . S
C1073 C1072 1.367 . S
C1073 C1075 1.433 . S
C1074 C1070 1.350 . S
C1074 C1071 1.463 . S
C1074 N1078 1.427 . S
C1075 H1065 0.929 . S
C1075 C1073 1.433 . S
C1075 N1078 1.384 . S
C1076 H1067 0.929 . S
C1076 C1068 1.378 . S
C1076 C1071 1.350 . S
C1077 H1064 0.929 . S
C1077 C1069 1.433 . S
C1077 N1079 1.384 . S
N1078 C1074 1.427 . S
N1078 C1075 1.384 . S
N1079 C1071 1.427 . S
N1079 C1077 1.384 . S
H1080 C1086 0.930 . S
H1081 C1090 0.930 . S
H1082 C1095 0.929 . S
H1083 C1093 0.929 . S
H1084 C1088 0.929 . S
H1085 C1094 0.929 . S
C1086 H1080 0.930 . S
C1086 C1087 1.367 . S
C1086 C1094 1.378 . S
C1087 C1086 1.367 . S
C1087 C1095 1.433 . S
C1088 H1084 0.929 . S
C1088 C1090 1.378 . S
C1088 C1092 1.350 . S
C1089 C1092 1.463 . S
C1089 C1094 1.350 . S
C1089 N1097 1.427 . S
C1090 H1081 0.930 . S
C1090 C1088 1.378 . S
C1090 C1091 1.367 . S
C1091 C1090 1.367 . S
C1091 C1093 1.433 . S
C1092 C1088 1.350 . S
C1092 C1089 1.463 . S
C1092 N1096 1.427 . S
C1093 H1083 0.929 . S
C1093 C1091 1.433 . S
C1093 N1096 1.384 . S
C1094 H1085 0.929 . S
C1094 C1086 1.378 . S
C1094 C1089 1.350 . S
C1095 H1082 0.929 . S
C1095 C1087 1.433 . S
C1095 N1097 1.384 . S
N1096 C1092 1.427 . S
N1096 C1093 1.384 . S
N1097 C1089 1.427 . S
N1097 C1095 1.384 . S
H1098 C1104 0.930 . S
H1099 C1108 0.930 . S
H1100 C1113 0.929 . S
H1101 C1111 0.929 . S
H1102 C1106 0.929 . S
H1103 C1112 0.929 . S
C1104 H1098 0.930 . S
C1104 C1105 1.367 . S
C1104 C1112 1.378 . S
C1105 C1104 1.367 . S
C1105 C1113 1.433 . S
C1106 H1102 0.929 . S
C1106 C1108 1.378 . S
C1106 C1110 1.350 . S
C1107 C1110 1.463 . S
C1107 C1112 1.350 . S
C1107 N1115 1.427 . S
C1108 H1099 0.930 . S
C1108 C1106 1.378 . S
C1108 C1109 1.367 . S
C1109 C1108 1.367 . S
C1109 C1111 1.433 . S
C1110 C1106 1.350 . S
C1110 C1107 1.463 . S
C1110 N1114 1.427 . S
C1111 H1101 0.929 . S
C1111 C1109 1.433 . S
C1111 N1114 1.384 . S
C1112 H1103 0.929 . S
C1112 C1104 1.378 . S
C1112 C1107 1.350 . S
C1113 H1100 0.929 . S
C1113 C1105 1.433 . S
C1113 N1115 1.384 . S
N1114 C1110 1.427 . S
N1114 C1111 1.384 . S
N1115 C1107 1.427 . S
N1115 C1113 1.384 . S
H1116 C1122 0.930 . S
H1117 C1126 0.930 . S
H1118 C1131 0.929 . S
H1119 C1129 0.929 . S
H1120 C1124 0.929 . S
H1121 C1130 0.929 . S
C1122 H1116 0.930 . S
C1122 C1123 1.367 . S
C1122 C1130 1.378 . S
C1123 C1122 1.367 . S
C1123 C1131 1.433 . S
C1124 H1120 0.929 . S
C1124 C1126 1.378 . S
C1124 C1128 1.350 . S
C1125 C1128 1.463 . S
C1125 C1130 1.350 . S
C1125 N1133 1.427 . S
C1126 H1117 0.930 . S
C1126 C1124 1.378 . S
C1126 C1127 1.367 . S
C1127 C1126 1.367 . S
C1127 C1129 1.433 . S
C1128 C1124 1.350 . S
C1128 C1125 1.463 . S
C1128 N1132 1.427 . S
C1129 H1119 0.929 . S
C1129 C1127 1.433 . S
C1129 N1132 1.384 . S
C1130 H1121 0.929 . S
C1130 C1122 1.378 . S
C1130 C1125 1.350 . S
C1131 H1118 0.929 . S
C1131 C1123 1.433 . S
C1131 N1133 1.384 . S
N1132 C1128 1.427 . S
N1132 C1129 1.384 . S
N1133 C1125 1.427 . S
N1133 C1131 1.384 . S
H1134 C1140 0.930 . S
H1135 C1144 0.930 . S
H1136 C1149 0.929 . S
H1137 C1147 0.929 . S
H1138 C1142 0.929 . S
H1139 C1148 0.929 . S
C1140 H1134 0.930 . S
C1140 C1141 1.367 . S
C1140 C1148 1.378 . S
C1141 C1140 1.367 . S
C1141 C1149 1.433 . S
C1142 H1138 0.929 . S
C1142 C1144 1.378 . S
C1142 C1146 1.350 . S
C1143 C1146 1.463 . S
C1143 C1148 1.350 . S
C1143 N1151 1.427 . S
C1144 H1135 0.930 . S
C1144 C1142 1.378 . S
C1144 C1145 1.367 . S
C1145 C1144 1.367 . S
C1145 C1147 1.433 . S
C1146 C1142 1.350 . S
C1146 C1143 1.463 . S
C1146 N1150 1.427 . S
C1147 H1137 0.929 . S
C1147 C1145 1.433 . S
C1147 N1150 1.384 . S
C1148 H1139 0.929 . S
C1148 C1140 1.378 . S
C1148 C1143 1.350 . S
C1149 H1136 0.929 . S
C1149 C1141 1.433 . S
C1149 N1151 1.384 . S
N1150 C1146 1.427 . S
N1150 C1147 1.384 . S
N1151 C1143 1.427 . S
N1151 C1149 1.384 . S
H1152 C1158 0.930 . S
H1153 C1162 0.930 . S
H1154 C1167 0.929 . S
H1155 C1165 0.929 . S
H1156 C1160 0.929 . S
H1157 C1166 0.929 . S
C1158 H1152 0.930 . S
C1158 C1159 1.367 . S
C1158 C1166 1.378 . S
C1159 C1158 1.367 . S
C1159 C1167 1.433 . S
C1160 H1156 0.929 . S
C1160 C1162 1.378 . S
C1160 C1164 1.350 . S
C1161 C1164 1.463 . S
C1161 C1166 1.350 . S
C1161 N1169 1.427 . S
C1162 H1153 0.930 . S
C1162 C1160 1.378 . S
C1162 C1163 1.367 . S
C1163 C1162 1.367 . S
C1163 C1165 1.433 . S
C1164 C1160 1.350 . S
C1164 C1161 1.463 . S
C1164 N1168 1.427 . S
C1165 H1155 0.929 . S
C1165 C1163 1.433 . S
C1165 N1168 1.384 . S
C1166 H1157 0.929 . S
C1166 C1158 1.378 . S
C1166 C1161 1.350 . S
C1167 H1154 0.929 . S
C1167 C1159 1.433 . S
C1167 N1169 1.384 . S
N1168 C1164 1.427 . S
N1168 C1165 1.384 . S
N1169 C1161 1.427 . S
N1169 C1167 1.384 . S
H1170 C1176 0.930 . S
H1171 C1180 0.930 . S
H1172 C1185 0.929 . S
H1173 C1183 0.929 . S
H1174 C1178 0.929 . S
H1175 C1184 0.929 . S
C1176 H1170 0.930 . S
C1176 C1177 1.367 . S
C1176 C1184 1.378 . S
C1177 C1176 1.367 . S
C1177 C1185 1.433 . S
C1178 H1174 0.929 . S
C1178 C1180 1.378 . S
C1178 C1182 1.350 . S
C1179 C1182 1.463 . S
C1179 C1184 1.350 . S
C1179 N1187 1.427 . S
C1180 H1171 0.930 . S
C1180 C1178 1.378 . S
C1180 C1181 1.367 . S
C1181 C1180 1.367 . S
C1181 C1183 1.433 . S
C1182 C1178 1.350 . S
C1182 C1179 1.463 . S
C1182 N1186 1.427 . S
C1183 H1173 0.929 . S
C1183 C1181 1.433 . S
C1183 N1186 1.384 . S
C1184 H1175 0.929 . S
C1184 C1176 1.378 . S
C1184 C1179 1.350 . S
C1185 H1172 0.929 . S
C1185 C1177 1.433 . S
C1185 N1187 1.384 . S
N1186 C1182 1.427 . S
N1186 C1183 1.384 . S
N1187 C1179 1.427 . S
N1187 C1185 1.384 . S
H1188 C1194 0.930 . S
H1189 C1198 0.930 . S
H1190 C1203 0.929 . S
H1191 C1201 0.929 . S
H1192 C1196 0.929 . S
H1193 C1202 0.929 . S
C1194 H1188 0.930 . S
C1194 C1195 1.367 . S
C1194 C1202 1.378 . S
C1195 C1194 1.367 . S
C1195 C1203 1.433 . S
C1196 H1192 0.929 . S
C1196 C1198 1.378 . S
C1196 C1200 1.350 . S
C1197 C1200 1.463 . S
C1197 C1202 1.350 . S
C1197 N1205 1.427 . S
C1198 H1189 0.930 . S
C1198 C1196 1.378 . S
C1198 C1199 1.367 . S
C1199 C1198 1.367 . S
C1199 C1201 1.433 . S
C1200 C1196 1.350 . S
C1200 C1197 1.463 . S
C1200 N1204 1.427 . S
C1201 H1191 0.929 . S
C1201 C1199 1.433 . S
C1201 N1204 1.384 . S
C1202 H1193 0.929 . S
C1202 C1194 1.378 . S
C1202 C1197 1.350 . S
C1203 H1190 0.929 . S
C1203 C1195 1.433 . S
C1203 N1205 1.384 . S
N1204 C1200 1.427 . S
N1204 C1201 1.384 . S
N1205 C1197 1.427 . S
N1205 C1203 1.384 . S
H1206 C1212 0.930 . S
H1207 C1216 0.930 . S
H1208 C1221 0.929 . S
H1209 C1219 0.929 . S
H1210 C1214 0.929 . S
H1211 C1220 0.929 . S
C1212 H1206 0.930 . S
C1212 C1213 1.367 . S
C1212 C1220 1.378 . S
C1213 C1212 1.367 . S
C1213 C1221 1.433 . S
C1214 H1210 0.929 . S
C1214 C1216 1.378 . S
C1214 C1218 1.350 . S
C1215 C1218 1.463 . S
C1215 C1220 1.350 . S
C1215 N1223 1.427 . S
C1216 H1207 0.930 . S
C1216 C1214 1.378 . S
C1216 C1217 1.367 . S
C1217 C1216 1.367 . S
C1217 C1219 1.433 . S
C1218 C1214 1.350 . S
C1218 C1215 1.463 . S
C1218 N1222 1.427 . S
C1219 H1209 0.929 . S
C1219 C1217 1.433 . S
C1219 N1222 1.384 . S
C1220 H1211 0.929 . S
C1220 C1212 1.378 . S
C1220 C1215 1.350 . S
C1221 H1208 0.929 . S
C1221 C1213 1.433 . S
C1221 N1223 1.384 . S
N1222 C1218 1.427 . S
N1222 C1219 1.384 . S
N1223 C1215 1.427 . S
N1223 C1221 1.384 . S
H1224 C1230 0.930 . S
H1225 C1234 0.930 . S
H1226 C1239 0.929 . S
H1227 C1237 0.929 . S
H1228 C1232 0.929 . S
H1229 C1238 0.929 . S
C1230 H1224 0.930 . S
C1230 C1231 1.367 . S
C1230 C1238 1.378 . S
C1231 C1230 1.367 . S
C1231 C1239 1.433 . S
C1232 H1228 0.929 . S
C1232 C1234 1.378 . S
C1232 C1236 1.350 . S
C1233 C1236 1.463 . S
C1233 C1238 1.350 . S
C1233 N1241 1.427 . S
C1234 H1225 0.930 . S
C1234 C1232 1.378 . S
C1234 C1235 1.367 . S
C1235 C1234 1.367 . S
C1235 C1237 1.433 . S
C1236 C1232 1.350 . S
C1236 C1233 1.463 . S
C1236 N1240 1.427 . S
C1237 H1227 0.929 . S
C1237 C1235 1.433 . S
C1237 N1240 1.384 . S
C1238 H1229 0.929 . S
C1238 C1230 1.378 . S
C1238 C1233 1.350 . S
C1239 H1226 0.929 . S
C1239 C1231 1.433 . S
C1239 N1241 1.384 . S
N1240 C1236 1.427 . S
N1240 C1237 1.384 . S
N1241 C1233 1.427 . S
N1241 C1239 1.384 . S
H1242 C1248 0.930 . S
H1243 C1252 0.930 . S
H1244 C1257 0.929 . S
H1245 C1255 0.929 . S
H1246 C1250 0.929 . S
H1247 C1256 0.929 . S
C1248 H1242 0.930 . S
C1248 C1249 1.367 . S
C1248 C1256 1.378 . S
C1249 C1248 1.367 . S
C1249 C1257 1.433 . S
C1250 H1246 0.929 . S
C1250 C1252 1.378 . S
C1250 C1254 1.350 . S
C1251 C1254 1.463 . S
C1251 C1256 1.350 . S
C1251 N1259 1.427 . S
C1252 H1243 0.930 . S
C1252 C1250 1.378 . S
C1252 C1253 1.367 . S
C1253 C1252 1.367 . S
C1253 C1255 1.433 . S
C1254 C1250 1.350 . S
C1254 C1251 1.463 . S
C1254 N1258 1.427 . S
C1255 H1245 0.929 . S
C1255 C1253 1.433 . S
C1255 N1258 1.384 . S
C1256 H1247 0.929 . S
C1256 C1248 1.378 . S
C1256 C1251 1.350 . S
C1257 H1244 0.929 . S
C1257 C1249 1.433 . S
C1257 N1259 1.384 . S
N1258 C1254 1.427 . S
N1258 C1255 1.384 . S
N1259 C1251 1.427 . S
N1259 C1257 1.384 . S
H1260 C1266 0.930 . S
H1261 C1270 0.930 . S
H1262 C1275 0.929 . S
H1263 C1273 0.929 . S
H1264 C1268 0.929 . S
H1265 C1274 0.929 . S
C1266 H1260 0.930 . S
C1266 C1267 1.367 . S
C1266 C1274 1.378 . S
C1267 C1266 1.367 . S
C1267 C1275 1.433 . S
C1268 H1264 0.929 . S
C1268 C1270 1.378 . S
C1268 C1272 1.350 . S
C1269 C1272 1.463 . S
C1269 C1274 1.350 . S
C1269 N1277 1.427 . S
C1270 H1261 0.930 . S
C1270 C1268 1.378 . S
C1270 C1271 1.367 . S
C1271 C1270 1.367 . S
C1271 C1273 1.433 . S
C1272 C1268 1.350 . S
C1272 C1269 1.463 . S
C1272 N1276 1.427 . S
C1273 H1263 0.929 . S
C1273 C1271 1.433 . S
C1273 N1276 1.384 . S
C1274 H1265 0.929 . S
C1274 C1266 1.378 . S
C1274 C1269 1.350 . S
C1275 H1262 0.929 . S
C1275 C1267 1.433 . S
C1275 N1277 1.384 . S
N1276 C1272 1.427 . S
N1276 C1273 1.384 . S
N1277 C1269 1.427 . S
N1277 C1275 1.384 . S
H1278 C1284 0.930 . S
H1279 C1288 0.930 . S
H1280 C1293 0.929 . S
H1281 C1291 0.929 . S
H1282 C1286 0.929 . S
H1283 C1292 0.929 . S
C1284 H1278 0.930 . S
C1284 C1285 1.367 . S
C1284 C1292 1.378 . S
C1285 C1284 1.367 . S
C1285 C1293 1.433 . S
C1286 H1282 0.929 . S
C1286 C1288 1.378 . S
C1286 C1290 1.350 . S
C1287 C1290 1.463 . S
C1287 C1292 1.350 . S
C1287 N1295 1.427 . S
C1288 H1279 0.930 . S
C1288 C1286 1.378 . S
C1288 C1289 1.367 . S
C1289 C1288 1.367 . S
C1289 C1291 1.433 . S
C1290 C1286 1.350 . S
C1290 C1287 1.463 . S
C1290 N1294 1.427 . S
C1291 H1281 0.929 . S
C1291 C1289 1.433 . S
C1291 N1294 1.384 . S
C1292 H1283 0.929 . S
C1292 C1284 1.378 . S
C1292 C1287 1.350 . S
C1293 H1280 0.929 . S
C1293 C1285 1.433 . S
C1293 N1295 1.384 . S
N1294 C1290 1.427 . S
N1294 C1291 1.384 . S
N1295 C1287 1.427 . S
N1295 C1293 1.384 . S
H1296 C1302 0.930 . S
H1297 C1306 0.930 . S
H1298 C1311 0.929 . S
H1299 C1309 0.929 . S
H1300 C1304 0.929 . S
H1301 C1310 0.929 . S
C1302 H1296 0.930 . S
C1302 C1303 1.367 . S
C1302 C1310 1.378 . S
C1303 C1302 1.367 . S
C1303 C1311 1.433 . S
C1304 H1300 0.929 . S
C1304 C1306 1.378 . S
C1304 C1308 1.350 . S
C1305 C1308 1.463 . S
C1305 C1310 1.350 . S
C1305 N1313 1.427 . S
C1306 H1297 0.930 . S
C1306 C1304 1.378 . S
C1306 C1307 1.367 . S
C1307 C1306 1.367 . S
C1307 C1309 1.433 . S
C1308 C1304 1.350 . S
C1308 C1305 1.463 . S
C1308 N1312 1.427 . S
C1309 H1299 0.929 . S
C1309 C1307 1.433 . S
C1309 N1312 1.384 . S
C1310 H1301 0.929 . S
C1310 C1302 1.378 . S
C1310 C1305 1.350 . S
C1311 H1298 0.929 . S
C1311 C1303 1.433 . S
C1311 N1313 1.384 . S
N1312 C1308 1.427 . S
N1312 C1309 1.384 . S
N1313 C1305 1.427 . S
N1313 C1311 1.384 . S
H1314 C1320 0.930 . S
H1315 C1324 0.930 . S
H1316 C1329 0.929 . S
H1317 C1327 0.929 . S
H1318 C1322 0.929 . S
H1319 C1328 0.929 . S
C1320 H1314 0.930 . S
C1320 C1321 1.367 . S
C1320 C1328 1.378 . S
C1321 C1320 1.367 . S
C1321 C1329 1.433 . S
C1322 H1318 0.929 . S
C1322 C1324 1.378 . S
C1322 C1326 1.350 . S
C1323 C1326 1.463 . S
C1323 C1328 1.350 . S
C1323 N1331 1.427 . S
C1324 H1315 0.930 . S
C1324 C1322 1.378 . S
C1324 C1325 1.367 . S
C1325 C1324 1.367 . S
C1325 C1327 1.433 . S
C1326 C1322 1.350 . S
C1326 C1323 1.463 . S
C1326 N1330 1.427 . S
C1327 H1317 0.929 . S
C1327 C1325 1.433 . S
C1327 N1330 1.384 . S
C1328 H1319 0.929 . S
C1328 C1320 1.378 . S
C1328 C1323 1.350 . S
C1329 H1316 0.929 . S
C1329 C1321 1.433 . S
C1329 N1331 1.384 . S
N1330 C1326 1.427 . S
N1330 C1327 1.384 . S
N1331 C1323 1.427 . S
N1331 C1329 1.384 . S
H1332 C1338 0.930 . S
H1333 C1342 0.930 . S
H1334 C1347 0.929 . S
H1335 C1345 0.929 . S
H1336 C1340 0.929 . S
H1337 C1346 0.929 . S
C1338 H1332 0.930 . S
C1338 C1339 1.367 . S
C1338 C1346 1.378 . S
C1339 C1338 1.367 . S
C1339 C1347 1.433 . S
C1340 H1336 0.929 . S
C1340 C1342 1.378 . S
C1340 C1344 1.350 . S
C1341 C1344 1.463 . S
C1341 C1346 1.350 . S
C1341 N1349 1.427 . S
C1342 H1333 0.930 . S
C1342 C1340 1.378 . S
C1342 C1343 1.367 . S
C1343 C1342 1.367 . S
C1343 C1345 1.433 . S
C1344 C1340 1.350 . S
C1344 C1341 1.463 . S
C1344 N1348 1.427 . S
C1345 H1335 0.929 . S
C1345 C1343 1.433 . S
C1345 N1348 1.384 . S
C1346 H1337 0.929 . S
C1346 C1338 1.378 . S
C1346 C1341 1.350 . S
C1347 H1334 0.929 . S
C1347 C1339 1.433 . S
C1347 N1349 1.384 . S
N1348 C1344 1.427 . S
N1348 C1345 1.384 . S
N1349 C1341 1.427 . S
N1349 C1347 1.384 . S
H1350 C1356 0.930 . S
H1351 C1360 0.930 . S
H1352 C1365 0.929 1_554 S
H1353 C1363 0.929 . S
H1354 C1358 0.929 . S
H1355 C1364 0.929 . S
C1356 H1350 0.930 . S
C1356 C1357 1.367 . S
C1356 C1364 1.378 . S
C1357 C1356 1.367 . S
C1357 C1365 1.433 . S
C1358 H1354 0.929 . S
C1358 C1360 1.378 . S
C1358 C1362 1.350 . S
C1359 C1362 1.463 . S
C1359 C1364 1.350 . S
C1359 N1367 1.427 . S
C1360 H1351 0.930 . S
C1360 C1358 1.378 . S
C1360 C1361 1.367 . S
C1361 C1360 1.367 . S
C1361 C1363 1.433 . S
C1362 C1358 1.350 . S
C1362 C1359 1.463 . S
C1362 N1366 1.427 . S
C1363 H1353 0.929 . S
C1363 C1361 1.433 . S
C1363 N1366 1.384 . S
C1364 H1355 0.929 . S
C1364 C1356 1.378 . S
C1364 C1359 1.350 . S
C1365 H1352 0.929 1_556 S
C1365 C1357 1.433 . S
C1365 N1367 1.384 . S
N1366 C1362 1.427 . S
N1366 C1363 1.384 . S
N1367 C1359 1.427 . S
N1367 C1365 1.384 . S
H1368 C1374 0.930 . S
H1369 C1378 0.930 . S
H1370 C1383 0.929 1_554 S
H1371 C1381 0.929 . S
H1372 C1376 0.929 . S
H1373 C1382 0.929 . S
C1374 H1368 0.930 . S
C1374 C1375 1.367 . S
C1374 C1382 1.378 . S
C1375 C1374 1.367 . S
C1375 C1383 1.433 . S
C1376 H1372 0.929 . S
C1376 C1378 1.378 . S
C1376 C1380 1.350 . S
C1377 C1380 1.463 . S
C1377 C1382 1.350 . S
C1377 N1385 1.427 . S
C1378 H1369 0.930 . S
C1378 C1376 1.378 . S
C1378 C1379 1.367 . S
C1379 C1378 1.367 . S
C1379 C1381 1.433 . S
C1380 C1376 1.350 . S
C1380 C1377 1.463 . S
C1380 N1384 1.427 . S
C1381 H1371 0.929 . S
C1381 C1379 1.433 . S
C1381 N1384 1.384 . S
C1382 H1373 0.929 . S
C1382 C1374 1.378 . S
C1382 C1377 1.350 . S
C1383 H1370 0.929 1_556 S
C1383 C1375 1.433 . S
C1383 N1385 1.384 . S
N1384 C1380 1.427 . S
N1384 C1381 1.384 . S
N1385 C1377 1.427 . S
N1385 C1383 1.384 . S
H1386 C1392 0.930 1_554 S
H1387 C1396 0.930 . S
H1388 C1401 0.929 . S
H1389 C1399 0.929 . S
H1390 C1394 0.929 . S
H1391 C1400 0.929 . S
C1392 H1386 0.930 1_556 S
C1392 C1393 1.367 . S
C1392 C1400 1.378 . S
C1393 C1392 1.367 . S
C1393 C1401 1.433 . S
C1394 H1390 0.929 . S
C1394 C1396 1.378 . S
C1394 C1398 1.350 . S
C1395 C1398 1.463 . S
C1395 C1400 1.350 . S
C1395 N1403 1.427 . S
C1396 H1387 0.930 . S
C1396 C1394 1.378 . S
C1396 C1397 1.367 . S
C1397 C1396 1.367 . S
C1397 C1399 1.433 . S
C1398 C1394 1.350 . S
C1398 C1395 1.463 . S
C1398 N1402 1.427 . S
C1399 H1389 0.929 . S
C1399 C1397 1.433 . S
C1399 N1402 1.384 . S
C1400 H1391 0.929 . S
C1400 C1392 1.378 . S
C1400 C1395 1.350 . S
C1401 H1388 0.929 . S
C1401 C1393 1.433 . S
C1401 N1403 1.384 . S
N1402 C1398 1.427 . S
N1402 C1399 1.384 . S
N1403 C1395 1.427 . S
N1403 C1401 1.384 . S
H1404 C1410 0.930 . S
H1405 C1414 0.930 . S
H1406 C1419 0.929 1_554 S
H1407 C1417 0.929 . S
H1408 C1412 0.929 . S
H1409 C1418 0.929 . S
C1410 H1404 0.930 . S
C1410 C1411 1.367 . S
C1410 C1418 1.378 . S
C1411 C1410 1.367 . S
C1411 C1419 1.433 . S
C1412 H1408 0.929 . S
C1412 C1414 1.378 . S
C1412 C1416 1.350 . S
C1413 C1416 1.463 . S
C1413 C1418 1.350 . S
C1413 N1421 1.427 . S
C1414 H1405 0.930 . S
C1414 C1412 1.378 . S
C1414 C1415 1.367 . S
C1415 C1414 1.367 . S
C1415 C1417 1.433 . S
C1416 C1412 1.350 . S
C1416 C1413 1.463 . S
C1416 N1420 1.427 . S
C1417 H1407 0.929 . S
C1417 C1415 1.433 . S
C1417 N1420 1.384 . S
C1418 H1409 0.929 . S
C1418 C1410 1.378 . S
C1418 C1413 1.350 . S
C1419 H1406 0.929 1_556 S
C1419 C1411 1.433 . S
C1419 N1421 1.384 . S
N1420 C1416 1.427 . S
N1420 C1417 1.384 . S
N1421 C1413 1.427 . S
N1421 C1419 1.384 . S
H1422 C1428 0.930 . S
H1423 C1432 0.930 . S
H1424 C1437 0.929 . S
H1425 C1435 0.929 . S
H1426 C1430 0.929 . S
H1427 C1436 0.929 . S
C1428 H1422 0.930 . S
C1428 C1429 1.367 . S
C1428 C1436 1.378 . S
C1429 C1428 1.367 . S
C1429 C1437 1.433 . S
C1430 H1426 0.929 . S
C1430 C1432 1.378 . S
C1430 C1434 1.350 . S
C1431 C1434 1.463 . S
C1431 C1436 1.350 . S
C1431 N1439 1.427 . S
C1432 H1423 0.930 . S
C1432 C1430 1.378 . S
C1432 C1433 1.367 . S
C1433 C1432 1.367 . S
C1433 C1435 1.433 . S
C1434 C1430 1.350 . S
C1434 C1431 1.463 . S
C1434 N1438 1.427 . S
C1435 H1425 0.929 . S
C1435 C1433 1.433 . S
C1435 N1438 1.384 . S
C1436 H1427 0.929 . S
C1436 C1428 1.378 . S
C1436 C1431 1.350 . S
C1437 H1424 0.929 . S
C1437 C1429 1.433 . S
C1437 N1439 1.384 . S
N1438 C1434 1.427 . S
N1438 C1435 1.384 . S
N1439 C1431 1.427 . S
N1439 C1437 1.384 . S
H1440 C1446 0.930 . S
H1441 C1450 0.930 . S
H1442 C1455 0.929 . S
H1443 C1453 0.929 . S
H1444 C1448 0.929 . S
H1445 C1454 0.929 . S
C1446 H1440 0.930 . S
C1446 C1447 1.367 . S
C1446 C1454 1.378 . S
C1447 C1446 1.367 . S
C1447 C1455 1.433 . S
C1448 H1444 0.929 . S
C1448 C1450 1.378 . S
C1448 C1452 1.350 . S
C1449 C1452 1.463 . S
C1449 C1454 1.350 . S
C1449 N1457 1.427 . S
C1450 H1441 0.930 . S
C1450 C1448 1.378 . S
C1450 C1451 1.367 . S
C1451 C1450 1.367 . S
C1451 C1453 1.433 . S
C1452 C1448 1.350 . S
C1452 C1449 1.463 . S
C1452 N1456 1.427 . S
C1453 H1443 0.929 . S
C1453 C1451 1.433 . S
C1453 N1456 1.384 . S
C1454 H1445 0.929 . S
C1454 C1446 1.378 . S
C1454 C1449 1.350 . S
C1455 H1442 0.929 . S
C1455 C1447 1.433 . S
C1455 N1457 1.384 . S
N1456 C1452 1.427 . S
N1456 C1453 1.384 . S
N1457 C1449 1.427 . S
N1457 C1455 1.384 . S
H1458 C1464 0.930 . S
H1459 C1468 0.930 . S
H1460 C1473 0.929 . S
H1461 C1471 0.929 . S
H1462 C1466 0.929 . S
H1463 C1472 0.929 . S
C1464 H1458 0.930 . S
C1464 C1465 1.367 . S
C1464 C1472 1.378 . S
C1465 C1464 1.367 . S
C1465 C1473 1.433 . S
C1466 H1462 0.929 . S
C1466 C1468 1.378 . S
C1466 C1470 1.350 . S
C1467 C1470 1.463 . S
C1467 C1472 1.350 . S
C1467 N1475 1.427 . S
C1468 H1459 0.930 . S
C1468 C1466 1.378 . S
C1468 C1469 1.367 . S
C1469 C1468 1.367 . S
C1469 C1471 1.433 . S
C1470 C1466 1.350 . S
C1470 C1467 1.463 . S
C1470 N1474 1.427 . S
C1471 H1461 0.929 . S
C1471 C1469 1.433 . S
C1471 N1474 1.384 . S
C1472 H1463 0.929 . S
C1472 C1464 1.378 . S
C1472 C1467 1.350 . S
C1473 H1460 0.929 . S
C1473 C1465 1.433 . S
C1473 N1475 1.384 . S
N1474 C1470 1.427 . S
N1474 C1471 1.384 . S
N1475 C1467 1.427 . S
N1475 C1473 1.384 . S
H1476 C1482 0.930 . S
H1477 C1486 0.930 . S
H1478 C1491 0.929 . S
H1479 C1489 0.929 . S
H1480 C1484 0.929 . S
H1481 C1490 0.929 . S
C1482 H1476 0.930 . S
C1482 C1483 1.367 . S
C1482 C1490 1.378 . S
C1483 C1482 1.367 . S
C1483 C1491 1.433 . S
C1484 H1480 0.929 . S
C1484 C1486 1.378 . S
C1484 C1488 1.350 . S
C1485 C1488 1.463 . S
C1485 C1490 1.350 . S
C1485 N1493 1.427 . S
C1486 H1477 0.930 . S
C1486 C1484 1.378 . S
C1486 C1487 1.367 . S
C1487 C1486 1.367 . S
C1487 C1489 1.433 . S
C1488 C1484 1.350 . S
C1488 C1485 1.463 . S
C1488 N1492 1.427 . S
C1489 H1479 0.929 . S
C1489 C1487 1.433 . S
C1489 N1492 1.384 . S
C1490 H1481 0.929 . S
C1490 C1482 1.378 . S
C1490 C1485 1.350 . S
C1491 H1478 0.929 . S
C1491 C1483 1.433 . S
C1491 N1493 1.384 . S
N1492 C1488 1.427 . S
N1492 C1489 1.384 . S
N1493 C1485 1.427 . S
N1493 C1491 1.384 . S
H1494 C1500 0.930 . S
H1495 C1504 0.930 . S
H1496 C1509 0.929 . S
H1497 C1507 0.929 . S
H1498 C1502 0.929 . S
H1499 C1508 0.929 . S
C1500 H1494 0.930 . S
C1500 C1501 1.367 . S
C1500 C1508 1.378 . S
C1501 C1500 1.367 . S
C1501 C1509 1.433 . S
C1502 H1498 0.929 . S
C1502 C1504 1.378 . S
C1502 C1506 1.350 . S
C1503 C1506 1.463 . S
C1503 C1508 1.350 . S
C1503 N1511 1.427 . S
C1504 H1495 0.930 . S
C1504 C1502 1.378 . S
C1504 C1505 1.367 . S
C1505 C1504 1.367 . S
C1505 C1507 1.433 . S
C1506 C1502 1.350 . S
C1506 C1503 1.463 . S
C1506 N1510 1.427 . S
C1507 H1497 0.929 . S
C1507 C1505 1.433 . S
C1507 N1510 1.384 . S
C1508 H1499 0.929 . S
C1508 C1500 1.378 . S
C1508 C1503 1.350 . S
C1509 H1496 0.929 . S
C1509 C1501 1.433 . S
C1509 N1511 1.384 . S
N1510 C1506 1.427 . S
N1510 C1507 1.384 . S
N1511 C1503 1.427 . S
N1511 C1509 1.384 . S
H1512 C1518 0.930 . S
H1513 C1522 0.930 . S
H1514 C1527 0.929 . S
H1515 C1525 0.929 . S
H1516 C1520 0.929 . S
H1517 C1526 0.929 . S
C1518 H1512 0.930 . S
C1518 C1519 1.367 . S
C1518 C1526 1.378 . S
C1519 C1518 1.367 . S
C1519 C1527 1.433 . S
C1520 H1516 0.929 . S
C1520 C1522 1.378 . S
C1520 C1524 1.350 . S
C1521 C1524 1.463 . S
C1521 C1526 1.350 . S
C1521 N1529 1.427 . S
C1522 H1513 0.930 . S
C1522 C1520 1.378 . S
C1522 C1523 1.367 . S
C1523 C1522 1.367 . S
C1523 C1525 1.433 . S
C1524 C1520 1.350 . S
C1524 C1521 1.463 . S
C1524 N1528 1.427 . S
C1525 H1515 0.929 . S
C1525 C1523 1.433 . S
C1525 N1528 1.384 . S
C1526 H1517 0.929 . S
C1526 C1518 1.378 . S
C1526 C1521 1.350 . S
C1527 H1514 0.929 . S
C1527 C1519 1.433 . S
C1527 N1529 1.384 . S
N1528 C1524 1.427 . S
N1528 C1525 1.384 . S
N1529 C1521 1.427 . S
N1529 C1527 1.384 . S
H1530 C1536 0.930 . S
H1531 C1540 0.930 . S
H1532 C1545 0.929 . S
H1533 C1543 0.929 . S
H1534 C1538 0.929 . S
H1535 C1544 0.929 . S
C1536 H1530 0.930 . S
C1536 C1537 1.367 . S
C1536 C1544 1.378 . S
C1537 C1536 1.367 . S
C1537 C1545 1.433 . S
C1538 H1534 0.929 . S
C1538 C1540 1.378 . S
C1538 C1542 1.350 . S
C1539 C1542 1.463 . S
C1539 C1544 1.350 . S
C1539 N1547 1.427 . S
C1540 H1531 0.930 . S
C1540 C1538 1.378 . S
C1540 C1541 1.367 . S
C1541 C1540 1.367 . S
C1541 C1543 1.433 . S
C1542 C1538 1.350 . S
C1542 C1539 1.463 . S
C1542 N1546 1.427 . S
C1543 H1533 0.929 . S
C1543 C1541 1.433 . S
C1543 N1546 1.384 . S
C1544 H1535 0.929 . S
C1544 C1536 1.378 . S
C1544 C1539 1.350 . S
C1545 H1532 0.929 . S
C1545 C1537 1.433 . S
C1545 N1547 1.384 . S
N1546 C1542 1.427 . S
N1546 C1543 1.384 . S
N1547 C1539 1.427 . S
N1547 C1545 1.384 . S
H1548 C1554 0.930 . S
H1549 C1558 0.930 . S
H1550 C1563 0.929 . S
H1551 C1561 0.929 . S
H1552 C1556 0.929 . S
H1553 C1562 0.929 . S
C1554 H1548 0.930 . S
C1554 C1555 1.367 . S
C1554 C1562 1.378 . S
C1555 C1554 1.367 . S
C1555 C1563 1.433 . S
C1556 H1552 0.929 . S
C1556 C1558 1.378 . S
C1556 C1560 1.350 . S
C1557 C1560 1.463 . S
C1557 C1562 1.350 . S
C1557 N1565 1.427 . S
C1558 H1549 0.930 . S
C1558 C1556 1.378 . S
C1558 C1559 1.367 . S
C1559 C1558 1.367 . S
C1559 C1561 1.433 . S
C1560 C1556 1.350 . S
C1560 C1557 1.463 . S
C1560 N1564 1.427 . S
C1561 H1551 0.929 . S
C1561 C1559 1.433 . S
C1561 N1564 1.384 . S
C1562 H1553 0.929 . S
C1562 C1554 1.378 . S
C1562 C1557 1.350 . S
C1563 H1550 0.929 . S
C1563 C1555 1.433 . S
C1563 N1565 1.384 . S
N1564 C1560 1.427 . S
N1564 C1561 1.384 . S
N1565 C1557 1.427 . S
N1565 C1563 1.384 . S
H1566 C1572 0.930 . S
H1567 C1576 0.930 . S
H1568 C1581 0.929 . S
H1569 C1579 0.929 . S
H1570 C1574 0.929 . S
H1571 C1580 0.929 . S
C1572 H1566 0.930 . S
C1572 C1573 1.367 1_545 S
C1572 C1580 1.378 . S
C1573 C1572 1.367 1_565 S
C1573 C1581 1.433 . S
C1574 H1570 0.929 . S
C1574 C1576 1.378 . S
C1574 C1578 1.350 . S
C1575 C1578 1.463 . S
C1575 C1580 1.350 1_565 S
C1575 N1583 1.427 . S
C1576 H1567 0.930 . S
C1576 C1574 1.378 . S
C1576 C1577 1.367 . S
C1577 C1576 1.367 . S
C1577 C1579 1.433 1_565 S
C1578 C1574 1.350 . S
C1578 C1575 1.463 . S
C1578 N1582 1.427 1_565 S
C1579 H1569 0.929 . S
C1579 C1577 1.433 1_545 S
C1579 N1582 1.384 . S
C1580 H1571 0.929 . S
C1580 C1572 1.378 . S
C1580 C1575 1.350 1_545 S
C1581 H1568 0.929 . S
C1581 C1573 1.433 . S
C1581 N1583 1.384 . S
N1582 C1578 1.427 1_545 S
N1582 C1579 1.384 . S
N1583 C1575 1.427 . S
N1583 C1581 1.384 . S
H1584 C1590 0.930 . S
H1585 C1594 0.930 . S
H1586 C1599 0.929 . S
H1587 C1597 0.929 . S
H1588 C1592 0.929 . S
H1589 C1598 0.929 . S
C1590 H1584 0.930 . S
C1590 C1591 1.367 1_545 S
C1590 C1598 1.378 . S
C1591 C1590 1.367 1_565 S
C1591 C1599 1.433 . S
C1592 H1588 0.929 . S
C1592 C1594 1.378 . S
C1592 C1596 1.350 . S
C1593 C1596 1.463 . S
C1593 C1598 1.350 1_565 S
C1593 N1601 1.427 . S
C1594 H1585 0.930 . S
C1594 C1592 1.378 . S
C1594 C1595 1.367 . S
C1595 C1594 1.367 . S
C1595 C1597 1.433 1_565 S
C1596 C1592 1.350 . S
C1596 C1593 1.463 . S
C1596 N1600 1.427 1_565 S
C1597 H1587 0.929 . S
C1597 C1595 1.433 1_545 S
C1597 N1600 1.384 . S
C1598 H1589 0.929 . S
C1598 C1590 1.378 . S
C1598 C1593 1.350 1_545 S
C1599 H1586 0.929 . S
C1599 C1591 1.433 . S
C1599 N1601 1.384 . S
N1600 C1596 1.427 1_545 S
N1600 C1597 1.384 . S
N1601 C1593 1.427 . S
N1601 C1599 1.384 . S
H1602 C1608 0.930 1_655 S
H1603 C1612 0.930 . S
H1604 C1617 0.929 . S
H1605 C1615 0.929 . S
H1606 C1610 0.929 . S
H1607 C1616 0.953 . S
C1608 H1602 0.930 1_455 S
C1608 C1609 1.367 . S
C1608 C1616 1.400 1_455 S
C1609 C1608 1.367 . S
C1609 C1617 1.433 . S
C1610 H1606 0.929 . S
C1610 C1612 1.378 . S
C1610 C1614 1.350 . S
C1611 C1614 1.463 . S
C1611 C1616 1.305 1_455 S
C1611 N1619 1.427 . S
C1612 H1603 0.930 . S
C1612 C1610 1.378 . S
C1612 C1613 1.367 . S
C1613 C1612 1.367 . S
C1613 C1615 1.433 1_455 S
C1614 C1610 1.350 . S
C1614 C1611 1.463 . S
C1614 N1618 1.427 1_455 S
C1615 H1605 0.929 . S
C1615 C1613 1.433 1_655 S
C1615 N1618 1.384 . S
C1616 H1607 0.953 . S
C1616 C1608 1.400 1_655 S
C1616 C1611 1.305 1_655 S
C1617 H1604 0.929 . S
C1617 C1609 1.433 . S
C1617 N1619 1.384 . S
N1618 C1614 1.427 1_655 S
N1618 C1615 1.384 . S
N1619 C1611 1.427 . S
N1619 C1617 1.384 . S
H1620 C1626 0.930 . S
H1621 C1630 0.930 . S
H1622 C1635 0.929 . S
H1623 C1633 0.929 . S
H1624 C1628 0.929 . S
H1625 C1634 0.929 . S
C1626 H1620 0.930 . S
C1626 C1627 1.367 . S
C1626 C1634 1.378 . S
C1627 C1626 1.367 . S
C1627 C1635 1.433 . S
C1628 H1624 0.929 . S
C1628 C1630 1.378 . S
C1628 C1632 1.350 . S
C1629 C1632 1.463 . S
C1629 C1634 1.350 . S
C1629 N1637 1.427 . S
C1630 H1621 0.930 . S
C1630 C1628 1.378 . S
C1630 C1631 1.367 . S
C1631 C1630 1.367 . S
C1631 C1633 1.433 . S
C1632 C1628 1.350 . S
C1632 C1629 1.463 . S
C1632 N1636 1.427 . S
C1633 H1623 0.929 . S
C1633 C1631 1.433 . S
C1633 N1636 1.384 . S
C1634 H1625 0.929 . S
C1634 C1626 1.378 . S
C1634 C1629 1.350 . S
C1635 H1622 0.929 . S
C1635 C1627 1.433 . S
C1635 N1637 1.384 . S
N1636 C1632 1.427 . S
N1636 C1633 1.384 . S
N1637 C1629 1.427 . S
N1637 C1635 1.384 . S
H1638 C1644 0.930 . S
H1639 C1648 0.930 . S
H1640 C1653 0.929 . S
H1641 C1651 0.929 . S
H1642 C1646 0.929 . S
H1643 C1652 0.929 . S
C1644 H1638 0.930 . S
C1644 C1645 1.367 . S
C1644 C1652 1.378 . S
C1645 C1644 1.367 . S
C1645 C1653 1.433 . S
C1646 H1642 0.929 . S
C1646 C1648 1.378 . S
C1646 C1650 1.350 . S
C1647 C1650 1.463 . S
C1647 C1652 1.350 . S
C1647 N1655 1.427 . S
C1648 H1639 0.930 . S
C1648 C1646 1.378 . S
C1648 C1649 1.367 . S
C1649 C1648 1.367 . S
C1649 C1651 1.433 . S
C1650 C1646 1.350 . S
C1650 C1647 1.463 . S
C1650 N1654 1.427 . S
C1651 H1641 0.929 . S
C1651 C1649 1.433 . S
C1651 N1654 1.384 . S
C1652 H1643 0.929 . S
C1652 C1644 1.378 . S
C1652 C1647 1.350 . S
C1653 H1640 0.929 . S
C1653 C1645 1.433 . S
C1653 N1655 1.384 . S
N1654 C1650 1.427 . S
N1654 C1651 1.384 . S
N1655 C1647 1.427 . S
N1655 C1653 1.384 . S
H1656 C1662 0.930 . S
H1657 C1666 0.930 . S
H1658 C1671 0.929 . S
H1659 C1669 0.929 . S
H1660 C1664 0.929 . S
H1661 C1670 0.929 . S
C1662 H1656 0.930 . S
C1662 C1663 1.367 . S
C1662 C1670 1.378 . S
C1663 C1662 1.367 . S
C1663 C1671 1.433 . S
C1664 H1660 0.929 . S
C1664 C1666 1.378 . S
C1664 C1668 1.350 . S
C1665 C1668 1.463 . S
C1665 C1670 1.350 . S
C1665 N1673 1.427 . S
C1666 H1657 0.930 . S
C1666 C1664 1.378 . S
C1666 C1667 1.367 . S
C1667 C1666 1.367 . S
C1667 C1669 1.433 . S
C1668 C1664 1.350 . S
C1668 C1665 1.463 . S
C1668 N1672 1.427 . S
C1669 H1659 0.929 . S
C1669 C1667 1.433 . S
C1669 N1672 1.384 . S
C1670 H1661 0.929 . S
C1670 C1662 1.378 . S
C1670 C1665 1.350 . S
C1671 H1658 0.929 . S
C1671 C1663 1.433 . S
C1671 N1673 1.384 . S
N1672 C1668 1.427 . S
N1672 C1669 1.384 . S
N1673 C1665 1.427 . S
N1673 C1671 1.384 . S
H1674 C1680 0.930 . S
H1675 C1684 0.930 . S
H1676 C1689 0.929 . S
H1677 C1687 0.929 . S
H1678 C1682 0.929 . S
H1679 C1688 0.929 . S
C1680 H1674 0.930 . S
C1680 C1681 1.367 . S
C1680 C1688 1.378 . S
C1681 C1680 1.367 . S
C1681 C1689 1.433 . S
C1682 H1678 0.929 . S
C1682 C1684 1.378 . S
C1682 C1686 1.350 . S
C1683 C1686 1.463 . S
C1683 C1688 1.350 . S
C1683 N1691 1.427 . S
C1684 H1675 0.930 . S
C1684 C1682 1.378 . S
C1684 C1685 1.367 . S
C1685 C1684 1.367 . S
C1685 C1687 1.433 . S
C1686 C1682 1.350 . S
C1686 C1683 1.463 . S
C1686 N1690 1.427 . S
C1687 H1677 0.929 . S
C1687 C1685 1.433 . S
C1687 N1690 1.384 . S
C1688 H1679 0.929 . S
C1688 C1680 1.378 . S
C1688 C1683 1.350 . S
C1689 H1676 0.929 . S
C1689 C1681 1.433 . S
C1689 N1691 1.384 . S
N1690 C1686 1.427 . S
N1690 C1687 1.384 . S
N1691 C1683 1.427 . S
N1691 C1689 1.384 . S
H1692 C1698 0.930 1_565 S
H1693 C1702 0.930 . S
H1694 C1707 0.929 . S
H1695 C1705 0.929 1_565 S
H1696 C1700 0.929 . S
H1697 C1706 0.929 1_565 S
C1698 H1692 0.930 1_545 S
C1698 C1699 1.367 . S
C1698 C1706 1.378 . S
C1699 C1698 1.367 . S
C1699 C1707 1.433 . S
C1700 H1696 0.929 . S
C1700 C1702 1.378 . S
C1700 C1704 1.350 . S
C1701 C1704 1.463 . S
C1701 C1706 1.350 . S
C1701 N1709 1.427 . S
C1702 H1693 0.930 . S
C1702 C1700 1.378 . S
C1702 C1703 1.367 . S
C1703 C1702 1.367 . S
C1703 C1705 1.433 . S
C1704 C1700 1.350 . S
C1704 C1701 1.463 . S
C1704 N1708 1.427 . S
C1705 H1695 0.929 1_545 S
C1705 C1703 1.433 . S
C1705 N1708 1.384 . S
C1706 H1697 0.929 1_545 S
C1706 C1698 1.378 . S
C1706 C1701 1.350 . S
C1707 H1694 0.929 . S
C1707 C1699 1.433 . S
C1707 N1709 1.384 . S
N1708 C1704 1.427 . S
N1708 C1705 1.384 . S
N1709 C1701 1.427 . S
N1709 C1707 1.384 . S
H1710 C1716 0.930 . S
H1711 C1720 0.930 . S
H1712 C1725 0.929 . S
H1713 C1723 0.929 . S
H1714 C1718 0.929 . S
H1715 C1724 0.929 . S
C1716 H1710 0.930 . S
C1716 C1717 1.367 . S
C1716 C1724 1.378 . S
C1717 C1716 1.367 . S
C1717 C1725 1.433 1_655 S
C1718 H1714 0.929 . S
C1718 C1720 1.378 . S
C1718 C1722 1.350 1_455 S
C1719 C1722 1.463 . S
C1719 C1724 1.350 . S
C1719 N1727 1.427 1_655 S
C1720 H1711 0.930 . S
C1720 C1718 1.378 . S
C1720 C1721 1.367 1_455 S
C1721 C1720 1.367 1_655 S
C1721 C1723 1.433 . S
C1722 C1718 1.350 1_655 S
C1722 C1719 1.463 . S
C1722 N1726 1.427 . S
C1723 H1713 0.929 . S
C1723 C1721 1.433 . S
C1723 N1726 1.384 . S
C1724 H1715 0.929 . S
C1724 C1716 1.378 . S
C1724 C1719 1.350 . S
C1725 H1712 0.929 . S
C1725 C1717 1.433 1_455 S
C1725 N1727 1.384 . S
N1726 C1722 1.427 . S
N1726 C1723 1.384 . S
N1727 C1719 1.427 1_455 S
N1727 C1725 1.384 . S
H1728 C1734 0.930 . S
H1729 C1738 0.930 . S
H1730 C1743 0.929 . S
H1731 C1741 0.929 . S
H1732 C1736 0.929 . S
H1733 C1742 0.929 . S
C1734 H1728 0.930 . S
C1734 C1735 1.367 . S
C1734 C1742 1.378 . S
C1735 C1734 1.367 . S
C1735 C1743 1.433 . S
C1736 H1732 0.929 . S
C1736 C1738 1.378 . S
C1736 C1740 1.350 . S
C1737 C1740 1.463 . S
C1737 C1742 1.350 . S
C1737 N1745 1.427 . S
C1738 H1729 0.930 . S
C1738 C1736 1.378 . S
C1738 C1739 1.367 . S
C1739 C1738 1.367 . S
C1739 C1741 1.433 . S
C1740 C1736 1.350 . S
C1740 C1737 1.463 . S
C1740 N1744 1.427 . S
C1741 H1731 0.929 . S
C1741 C1739 1.433 . S
C1741 N1744 1.384 . S
C1742 H1733 0.929 . S
C1742 C1734 1.378 . S
C1742 C1737 1.350 . S
C1743 H1730 0.929 . S
C1743 C1735 1.433 . S
C1743 N1745 1.384 . S
N1744 C1740 1.427 . S
N1744 C1741 1.384 . S
N1745 C1737 1.427 . S
N1745 C1743 1.384 . S
H1746 C1752 0.930 . S
H1747 C1756 0.930 . S
H1748 C1761 0.929 . S
H1749 C1759 0.929 . S
H1750 C1754 0.929 . S
H1751 C1760 0.929 . S
C1752 H1746 0.930 . S
C1752 C1753 1.367 . S
C1752 C1760 1.378 . S
C1753 C1752 1.367 . S
C1753 C1761 1.433 . S
C1754 H1750 0.929 . S
C1754 C1756 1.378 . S
C1754 C1758 1.350 . S
C1755 C1758 1.463 . S
C1755 C1760 1.350 . S
C1755 N1763 1.427 . S
C1756 H1747 0.930 . S
C1756 C1754 1.378 . S
C1756 C1757 1.367 . S
C1757 C1756 1.367 . S
C1757 C1759 1.433 . S
C1758 C1754 1.350 . S
C1758 C1755 1.463 . S
C1758 N1762 1.427 . S
C1759 H1749 0.929 . S
C1759 C1757 1.433 . S
C1759 N1762 1.384 . S
C1760 H1751 0.929 . S
C1760 C1752 1.378 . S
C1760 C1755 1.350 . S
C1761 H1748 0.929 . S
C1761 C1753 1.433 . S
C1761 N1763 1.384 . S
N1762 C1758 1.427 . S
N1762 C1759 1.384 . S
N1763 C1755 1.427 . S
N1763 C1761 1.384 . S
H1764 C1770 0.930 . S
H1765 C1774 0.930 . S
H1766 C1779 0.929 . S
H1767 C1777 0.929 . S
H1768 C1772 0.929 . S
H1769 C1778 0.929 . S
C1770 H1764 0.930 . S
C1770 C1771 1.367 . S
C1770 C1778 1.378 . S
C1771 C1770 1.367 . S
C1771 C1779 1.433 . S
C1772 H1768 0.929 . S
C1772 C1774 1.378 . S
C1772 C1776 1.350 . S
C1773 C1776 1.463 . S
C1773 C1778 1.350 . S
C1773 N1781 1.427 . S
C1774 H1765 0.930 . S
C1774 C1772 1.378 . S
C1774 C1775 1.367 . S
C1775 C1774 1.367 . S
C1775 C1777 1.433 . S
C1776 C1772 1.350 . S
C1776 C1773 1.463 . S
C1776 N1780 1.427 . S
C1777 H1767 0.929 . S
C1777 C1775 1.433 . S
C1777 N1780 1.384 . S
C1778 H1769 0.929 . S
C1778 C1770 1.378 . S
C1778 C1773 1.350 . S
C1779 H1766 0.929 . S
C1779 C1771 1.433 . S
C1779 N1781 1.384 . S
N1780 C1776 1.427 . S
N1780 C1777 1.384 . S
N1781 C1773 1.427 . S
N1781 C1779 1.384 . S
H1782 C1788 0.930 . S
H1783 C1792 0.930 . S
H1784 C1797 0.929 . S
H1785 C1795 0.929 . S
H1786 C1790 0.929 . S
H1787 C1796 0.929 . S
C1788 H1782 0.930 . S
C1788 C1789 1.367 . S
C1788 C1796 1.378 . S
C1789 C1788 1.367 . S
C1789 C1797 1.433 . S
C1790 H1786 0.929 . S
C1790 C1792 1.378 . S
C1790 C1794 1.350 . S
C1791 C1794 1.463 . S
C1791 C1796 1.350 . S
C1791 N1799 1.427 . S
C1792 H1783 0.930 . S
C1792 C1790 1.378 . S
C1792 C1793 1.367 . S
C1793 C1792 1.367 . S
C1793 C1795 1.433 . S
C1794 C1790 1.350 . S
C1794 C1791 1.463 . S
C1794 N1798 1.427 . S
C1795 H1785 0.929 . S
C1795 C1793 1.433 . S
C1795 N1798 1.384 . S
C1796 H1787 0.929 . S
C1796 C1788 1.378 . S
C1796 C1791 1.350 . S
C1797 H1784 0.929 . S
C1797 C1789 1.433 . S
C1797 N1799 1.384 . S
N1798 C1794 1.427 . S
N1798 C1795 1.384 . S
N1799 C1791 1.427 . S
N1799 C1797 1.384 . S
H1800 C1806 0.930 . S
H1801 C1810 0.930 . S
H1802 C1815 0.929 . S
H1803 C1813 0.929 . S
H1804 C1808 0.929 . S
H1805 C1814 0.929 . S
C1806 H1800 0.930 . S
C1806 C1807 1.367 . S
C1806 C1814 1.378 . S
C1807 C1806 1.367 . S
C1807 C1815 1.433 . S
C1808 H1804 0.929 . S
C1808 C1810 1.378 . S
C1808 C1812 1.350 . S
C1809 C1812 1.463 . S
C1809 C1814 1.350 . S
C1809 N1817 1.427 . S
C1810 H1801 0.930 . S
C1810 C1808 1.378 . S
C1810 C1811 1.367 . S
C1811 C1810 1.367 . S
C1811 C1813 1.433 . S
C1812 C1808 1.350 . S
C1812 C1809 1.463 . S
C1812 N1816 1.427 . S
C1813 H1803 0.929 . S
C1813 C1811 1.433 . S
C1813 N1816 1.384 . S
C1814 H1805 0.929 . S
C1814 C1806 1.378 . S
C1814 C1809 1.350 . S
C1815 H1802 0.929 . S
C1815 C1807 1.433 . S
C1815 N1817 1.384 . S
N1816 C1812 1.427 . S
N1816 C1813 1.384 . S
N1817 C1809 1.427 . S
N1817 C1815 1.384 . S
H1818 C1824 0.930 . S
H1819 C1828 0.930 . S
H1820 C1833 0.929 . S
H1821 C1831 0.929 . S
H1822 C1826 0.929 . S
H1823 C1832 0.929 . S
C1824 H1818 0.930 . S
C1824 C1825 1.367 . S
C1824 C1832 1.378 . S
C1825 C1824 1.367 . S
C1825 C1833 1.433 . S
C1826 H1822 0.929 . S
C1826 C1828 1.378 . S
C1826 C1830 1.350 . S
C1827 C1830 1.463 . S
C1827 C1832 1.350 . S
C1827 N1835 1.427 . S
C1828 H1819 0.930 . S
C1828 C1826 1.378 . S
C1828 C1829 1.367 . S
C1829 C1828 1.367 . S
C1829 C1831 1.433 . S
C1830 C1826 1.350 . S
C1830 C1827 1.463 . S
C1830 N1834 1.427 . S
C1831 H1821 0.929 . S
C1831 C1829 1.433 . S
C1831 N1834 1.384 . S
C1832 H1823 0.929 . S
C1832 C1824 1.378 . S
C1832 C1827 1.350 . S
C1833 H1820 0.929 . S
C1833 C1825 1.433 . S
C1833 N1835 1.384 . S
N1834 C1830 1.427 . S
N1834 C1831 1.384 . S
N1835 C1827 1.427 . S
N1835 C1833 1.384 . S
H1836 C1842 0.930 . S
H1837 C1846 0.930 . S
H1838 C1851 0.929 . S
H1839 C1849 0.929 . S
H1840 C1844 0.929 . S
H1841 C1850 0.929 . S
C1842 H1836 0.930 . S
C1842 C1843 1.367 . S
C1842 C1850 1.378 . S
C1843 C1842 1.367 . S
C1843 C1851 1.433 . S
C1844 H1840 0.929 . S
C1844 C1846 1.378 . S
C1844 C1848 1.350 . S
C1845 C1848 1.463 . S
C1845 C1850 1.350 . S
C1845 N1853 1.427 . S
C1846 H1837 0.930 . S
C1846 C1844 1.378 . S
C1846 C1847 1.367 . S
C1847 C1846 1.367 . S
C1847 C1849 1.433 . S
C1848 C1844 1.350 . S
C1848 C1845 1.463 . S
C1848 N1852 1.427 . S
C1849 H1839 0.929 . S
C1849 C1847 1.433 . S
C1849 N1852 1.384 . S
C1850 H1841 0.929 . S
C1850 C1842 1.378 . S
C1850 C1845 1.350 . S
C1851 H1838 0.929 . S
C1851 C1843 1.433 . S
C1851 N1853 1.384 . S
N1852 C1848 1.427 . S
N1852 C1849 1.384 . S
N1853 C1845 1.427 . S
N1853 C1851 1.384 . S
H1854 C1860 0.930 . S
H1855 C1864 0.930 . S
H1856 C1869 0.929 . S
H1857 C1867 0.929 . S
H1858 C1862 0.929 . S
H1859 C1868 0.929 . S
C1860 H1854 0.930 . S
C1860 C1861 1.367 1_455 S
C1860 C1868 1.378 . S
C1861 C1860 1.367 1_655 S
C1861 C1869 1.433 . S
C1862 H1858 0.929 . S
C1862 C1864 1.378 . S
C1862 C1866 1.350 . S
C1863 C1866 1.463 . S
C1863 C1868 1.350 1_655 S
C1863 N1871 1.427 . S
C1864 H1855 0.930 . S
C1864 C1862 1.378 . S
C1864 C1865 1.367 . S
C1865 C1864 1.367 . S
C1865 C1867 1.433 1_655 S
C1866 C1862 1.350 . S
C1866 C1863 1.463 . S
C1866 N1870 1.427 1_655 S
C1867 H1857 0.929 . S
C1867 C1865 1.433 1_455 S
C1867 N1870 1.384 . S
C1868 H1859 0.929 . S
C1868 C1860 1.378 . S
C1868 C1863 1.350 1_455 S
C1869 H1856 0.929 . S
C1869 C1861 1.433 . S
C1869 N1871 1.384 . S
N1870 C1866 1.427 1_455 S
N1870 C1867 1.384 . S
N1871 C1863 1.427 . S
N1871 C1869 1.384 . S
H1872 C1878 0.930 . S
H1873 C1882 0.930 . S
H1874 C1887 0.929 . S
H1875 C1885 0.929 . S
H1876 C1880 0.929 . S
H1877 C1886 0.929 . S
C1878 H1872 0.930 . S
C1878 C1879 1.367 . S
C1878 C1886 1.378 . S
C1879 C1878 1.367 . S
C1879 C1887 1.433 . S
C1880 H1876 0.929 . S
C1880 C1882 1.378 . S
C1880 C1884 1.350 . S
C1881 C1884 1.463 . S
C1881 C1886 1.350 . S
C1881 N1889 1.427 . S
C1882 H1873 0.930 . S
C1882 C1880 1.378 . S
C1882 C1883 1.367 . S
C1883 C1882 1.367 . S
C1883 C1885 1.433 . S
C1884 C1880 1.350 . S
C1884 C1881 1.463 . S
C1884 N1888 1.427 . S
C1885 H1875 0.929 . S
C1885 C1883 1.433 . S
C1885 N1888 1.384 . S
C1886 H1877 0.929 . S
C1886 C1878 1.378 . S
C1886 C1881 1.350 . S
C1887 H1874 0.929 . S
C1887 C1879 1.433 . S
C1887 N1889 1.384 . S
N1888 C1884 1.427 . S
N1888 C1885 1.384 . S
N1889 C1881 1.427 . S
N1889 C1887 1.384 . S
H1890 C1896 0.930 . S
H1891 C1900 0.918 1_565 S
H1892 C1905 0.929 1_565 S
H1893 C1903 0.929 . S
H1894 C1898 0.929 1_565 S
H1895 C1904 0.929 . S
C1896 H1890 0.930 . S
C1896 C1897 1.367 . S
C1896 C1904 1.378 . S
C1897 C1896 1.367 . S
C1897 C1905 1.433 . S
C1898 H1894 0.929 1_545 S
C1898 C1900 1.353 . S
C1898 C1902 1.350 . S
C1899 C1902 1.463 . S
C1899 C1904 1.350 . S
C1899 N1907 1.427 . S
C1900 H1891 0.918 1_545 S
C1900 C1898 1.353 . S
C1900 C1901 1.408 . S
C1901 C1900 1.408 . S
C1901 C1903 1.433 . S
C1902 C1898 1.350 . S
C1902 C1899 1.463 . S
C1902 N1906 1.427 . S
C1903 H1893 0.929 . S
C1903 C1901 1.433 . S
C1903 N1906 1.384 . S
C1904 H1895 0.929 . S
C1904 C1896 1.378 . S
C1904 C1899 1.350 . S
C1905 H1892 0.929 1_545 S
C1905 C1897 1.433 . S
C1905 N1907 1.384 . S
N1906 C1902 1.427 . S
N1906 C1903 1.384 . S
N1907 C1899 1.427 . S
N1907 C1905 1.384 . S
C619 C10 1.639 . S
C623 C440 1.577 . S
C637 C23 1.626 . S
C641 C453 1.590 . S
C659 C482 1.551 1_545 S
C655 C29 1.630 . S
C673 C30 1.630 . S
C677 C495 1.594 . S
C691 C5 1.642 . S
C695 C516 1.612 . S
C709 C18 1.631 . S
C713 C545 1.570 . S
C727 C49 1.634 . S
C731 C524 1.597 . S
C749 C537 1.577 . S
C745 C62 1.624 . S
C767 C503 1.581 . S
C763 C70 1.625 . S
C781 C75 1.624 . S
C785 C474 1.581 1_545 S
C803 C432 1.592 . S
C799 C44 1.638 . S
C817 C57 1.628 . S
C821 C461 1.582 . S
C835 C88 1.642 . S
C839 C566 1.577 . S
C853 C101 1.627 . S
C857 C579 1.587 . S
C875 C608 1.566 . S
C871 C107 1.628 . S
C889 C108 1.629 . S
C893 C243 1.590 . S
C907 C83 1.642 . S
C911 C264 1.607 . S
C925 C96 1.631 . S
C929 C293 1.578 . S
C943 C127 1.638 . S
C947 C272 1.593 . S
C961 C140 1.624 . S
C965 C285 1.577 . S
C983 C251 1.576 . S
C979 C146 1.621 . S
C1001 C600 1.578 . S
C997 C147 1.622 . S
C1019 C558 1.586 . S
C1015 C122 1.633 . S
C1037 C587 1.575 . S
C1033 C135 1.625 . S
C1051 C160 1.642 . S
C1055 C314 1.585 . S
C1069 C173 1.625 . S
C1073 C327 1.583 . S
C1087 C185 1.630 . S
C1091 C356 1.576 . S
C1105 C186 1.626 . S
C1109 C369 1.590 . S
C1127 C390 1.604 . S
C1123 C159 1.641 . S
C1145 C419 1.578 . S
C1141 C172 1.632 . S
C1163 C398 1.591 . S
C1159 C205 1.636 . S
C1181 C411 1.578 . S
C1177 C218 1.624 . S
C1195 C224 1.625 . S
C1199 C377 1.582 . S
C1217 C348 1.582 . S
C1213 C225 1.625 . S
C1231 C200 1.637 . S
C1235 C306 1.597 . S
C1253 C335 1.580 . S
C1249 C213 1.627 . S
C1271 C246 1.390 . S
C1267 C4 1.514 . S
C1285 C17 1.500 . S
C1289 C267 1.363 . S
C1307 C295 1.424 . S
C1303 C31 1.509 . S
C1325 C316 1.407 . S
C1321 C36 1.494 . S
C1343 C330 1.394 . S
C1339 C3 1.521 . S
C1361 C358 1.428 . S
C1357 C16 1.510 . S
C1375 C43 1.518 . S
C1379 C351 1.390 . S
C1393 C56 1.504 . S
C1397 C309 1.364 . S
C1411 C68 1.508 . S
C1415 C337 1.422 . S
C1429 C69 1.499 . S
C1433 C274 1.402 . S
C1451 C288 1.400 . S
C1447 C42 1.518 . S
C1465 C55 1.511 . S
C1469 C253 1.426 . S
C1487 C372 1.393 . S
C1483 C82 1.518 . S
C1501 C95 1.503 . S
C1505 C393 1.378 . S
C1519 C109 1.508 . S
C1523 C421 1.409 . S
C1541 C442 1.397 . S
C1537 C114 1.497 . S
C1555 C81 1.517 . S
C1559 C456 1.386 . S
C1573 C94 1.512 . S
C1577 C484 1.415 . S
C1591 C121 1.518 . S
C1595 C477 1.376 . S
C1609 C134 1.504 . S
C1613 C435 1.367 . S
C1631 C463 1.424 . S
C1627 C148 1.510 . S
C1645 C153 1.498 . S
C1649 C400 1.398 . S
C1663 C120 1.518 . S
C1667 C414 1.400 . S
C1685 C379 1.418 . S
C1681 C133 1.510 . S
C1703 C498 1.398 . S
C1699 C166 1.518 . S
C1717 C179 1.498 . S
C1721 C519 1.374 1_655 S
C1735 C187 1.508 . S
C1739 C547 1.410 . S
C1757 C568 1.405 . S
C1753 C192 1.495 . S
C1775 C582 1.397 . S
C1771 C161 1.519 . S
C1789 C174 1.512 . S
C1793 C610 1.409 . S
C1807 C199 1.517 . S
C1811 C603 1.398 . S
C1825 C212 1.500 . S
C1829 C561 1.386 . S
C1847 C589 1.410 . S
C1843 C226 1.507 . S
C1865 C526 1.408 1_655 S
C1861 C231 1.498 . S
C1883 C540 1.397 . S
C1879 C198 1.517 . S
C1897 C211 1.510 . S
C1901 C505 1.420 . S
