# Generated by pormake.
# Topology ftw, (4,12)-cn, num edge types: 1
# Building blocks:
#     Node 0, Type 0, BuildingBlock: NAWXER_clean_linker_0, # of connection points: 4
#     Node 1, Type 0, BuildingBlock: NAWXER_clean_linker_0, # of connection points: 4
#     Node 2, Type 0, BuildingBlock: NAWXER_clean_linker_0, # of connection points: 4
#     Node 3, Type 1, BuildingBlock: QEWDON_clean_sbu_0, # of connection points: 12
#     Edge 4, Type (0, 1), BuildingBlock: XUDNAN_clean_linker_2, # of connection points: 2
#     Edge 5, Type (0, 1), BuildingBlock: XUDNAN_clean_linker_2, # of connection points: 2
#     Edge 6, Type (0, 1), BuildingBlock: XUDNAN_clean_linker_2, # of connection points: 2
#     Edge 7, Type (0, 1), BuildingBlock: XUDNAN_clean_linker_2, # of connection points: 2
#     Edge 8, Type (0, 1), BuildingBlock: XUDNAN_clean_linker_2, # of connection points: 2
#     Edge 9, Type (0, 1), BuildingBlock: XUDNAN_clean_linker_2, # of connection points: 2
#     Edge 10, Type (0, 1), BuildingBlock: XUDNAN_clean_linker_2, # of connection points: 2
#     Edge 11, Type (0, 1), BuildingBlock: XUDNAN_clean_linker_2, # of connection points: 2
#     Edge 12, Type (0, 1), BuildingBlock: XUDNAN_clean_linker_2, # of connection points: 2
#     Edge 13, Type (0, 1), BuildingBlock: XUDNAN_clean_linker_2, # of connection points: 2
#     Edge 14, Type (0, 1), BuildingBlock: XUDNAN_clean_linker_2, # of connection points: 2
#     Edge 15, Type (0, 1), BuildingBlock: XUDNAN_clean_linker_2, # of connection points: 2
# Relax obj value: 0.055
# Max RMSD: 0.158
# Mean RMSD: 0.118
data_MOF--net-ftw--node1-QEWDON_clean_sbu_0--node2-NAWXER_clean_linker_0--edge1-XUDNAN_clean_linker_2
_symmetry_space_group_name_H-M    P1
_symmetry_Int_Tables_number       1
_symmetry_cell_setting            triclinic
loop_
_symmetry_equiv_pos_as_xyz
'x, y, z'
_cell_length_a     27.067949
_cell_length_b     29.550698
_cell_length_c     29.158309
_cell_angle_alpha  89.941344
_cell_angle_beta   89.989681
_cell_angle_gamma 89.840632
loop_
_atom_site_label
_atom_site_type_symbol
_atom_site_fract_x
_atom_site_fract_y
_atom_site_fract_z
_atom_type_partial_charge
C0 C 0.03092 0.64979 0.58931 0.0
C1 C -0.0004 0.65103 0.62787 0.0
C2 C 0.02764 0.6144 0.55734 0.0
C3 C -0.00771 0.57998 0.5628 0.0
C4 C 0.96351 0.61728 0.63255 0.0
C5 C 0.95991 0.58231 0.60048 0.0
C6 C -0.00707 0.53816 0.53421 0.0
C7 C 0.96308 0.64862 0.43008 0.0
C8 C -0.0049 0.65054 0.392 0.0
C9 C 0.96544 0.61253 0.46131 0.0
C10 C 0.00045 0.57766 0.45583 0.0
C11 C 0.03024 0.61568 0.38674 0.0
C12 C 0.03273 0.57975 0.4181 0.0
C13 C 0.0005 0.53681 0.48609 0.0
C14 C 0.9665 0.35856 0.41054 0.0
C15 C 0.01313 0.3411 0.39781 0.0
C16 C 0.96245 0.39395 0.44241 0.0
C17 C 0.00481 0.41292 0.4622 0.0
C18 C 0.05535 0.35936 0.41924 0.0
C19 C 0.05123 0.39524 0.45046 0.0
C20 C 0.0012 0.45539 0.48899 0.0
C21 C 0.01632 0.34987 0.60579 0.0
C22 C 0.97979 0.35375 0.63987 0.0
C23 C 0.01848 0.38136 0.56959 0.0
C24 C 0.98371 0.41679 0.56673 0.0
C25 C 0.94382 0.38769 0.63571 0.0
C26 C 0.94564 0.41867 0.59954 0.0
C27 C -0.00883 0.45687 0.53652 0.0
H28 H 0.05947 0.67504 0.58497 0.0
H29 H 0.05422 0.61294 0.52963 0.0
H30 H 0.93841 0.61752 0.6615 0.0
H31 H 0.93245 0.55623 0.60587 0.0
H32 H 0.93578 0.67489 0.43569 0.0
H33 H 0.93883 0.61138 0.489 0.0
H34 H 0.055 0.61532 0.35758 0.0
H35 H 0.05962 0.55311 0.41245 0.0
H36 H 0.93305 0.34633 0.39451 0.0
H37 H 0.92631 0.40782 0.45013 0.0
H38 H 0.09187 0.34652 0.41143 0.0
H39 H 0.08448 0.40984 0.46481 0.0
H40 H 0.04484 0.32425 0.60871 0.0
H41 H 0.04925 0.37976 0.54599 0.0
H42 H 0.91543 0.39145 0.66165 0.0
H43 H 0.91857 0.44574 0.59858 0.0
N44 N 0.98797 0.49817 0.55683 0.0
N45 N 0.00489 0.49535 0.46574 0.0
C46 C 0.56015 0.03498 0.69219 0.0
C47 C 0.60385 0.0095 0.69705 0.0
C48 C 0.53189 0.03207 0.65211 0.0
C49 C 0.54627 0.00303 0.61631 0.0
C50 C 0.61818 0.98065 0.66103 0.0
C51 C 0.58979 0.97755 0.62118 0.0
C52 C 0.51894 0.00167 0.5722 0.0
C53 C 0.40937 0.95149 0.6768 0.0
C54 C 0.36864 0.98044 0.6832 0.0
C55 C 0.44183 0.95817 0.64008 0.0
C56 C 0.43414 0.99388 0.60901 0.0
C57 C 0.36114 0.01624 0.65213 0.0
C58 C 0.39331 0.0226 0.61514 0.0
C59 C 0.46699 -0.0 0.56884 0.0
C60 C 0.42718 0.96847 0.36872 0.0
C61 C 0.38352 0.99426 0.36484 0.0
C62 C 0.45745 0.97229 0.40754 0.0
C63 C 0.44501 0.00241 0.44304 0.0
C64 C 0.37155 0.02457 0.40035 0.0
C65 C 0.40183 0.0285 0.43888 0.0
C66 C 0.47289 0.00355 0.48688 0.0
C67 C 0.58962 0.04604 0.3818 0.0
C68 C 0.63483 0.02276 0.38507 0.0
C69 C 0.55255 0.03922 0.41479 0.0
C70 C 0.55973 0.00807 0.45079 0.0
C71 C 0.64141 0.99097 0.4203 0.0
C72 C 0.6043 0.98362 0.45261 0.0
C73 C 0.5251 0.00455 0.49023 0.0
H74 H 0.54782 0.05737 0.71927 0.0
H75 H 0.49945 0.05333 0.6488 0.0
H76 H 0.65208 0.96121 0.66306 0.0
H77 H 0.60216 0.95543 0.59385 0.0
H78 H 0.41614 0.92369 0.70022 0.0
H79 H 0.47253 0.935 0.63556 0.0
H80 H 0.32971 0.03871 0.65581 0.0
H81 H 0.38637 0.05005 0.59132 0.0
H82 H 0.43774 0.94496 0.34197 0.0
H83 H 0.4897 0.9507 0.41035 0.0
H84 H 0.33782 0.04432 0.39921 0.0
H85 H 0.39092 0.05147 0.46603 0.0
H86 H 0.58389 0.07093 0.35501 0.0
H87 H 0.51936 0.05968 0.41318 0.0
H88 H 0.67575 0.97227 0.42329 0.0
H89 H 0.61108 0.95955 0.47998 0.0
N90 N 0.54565 0.00358 0.53281 0.0
N91 N 0.44613 0.00141 0.52642 0.0
C92 C 0.34045 0.3875 0.95013 0.0
C93 C 0.30152 0.39634 0.98081 0.0
C94 C 0.38575 0.40954 0.95516 0.0
C95 C 0.39262 0.44055 0.991 0.0
C96 C 0.30823 0.42819 0.01587 0.0
C97 C 0.35327 0.45025 0.02076 0.0
C98 C 0.43943 0.46515 0.99688 0.0
C99 C 0.48508 0.32004 0.02904 0.0
C100 C 0.52731 0.30436 1.00568 0.0
C101 C 0.46932 0.36496 0.0242 0.0
C102 C 0.49489 0.39481 0.99515 0.0
C103 C 0.55105 0.33378 0.97478 0.0
C104 C 0.53498 0.37837 0.96962 0.0
C105 C 0.48643 0.4443 0.99717 0.0
C106 C 0.61539 0.588 0.07586 0.0
C107 C 0.65802 0.58269 0.04887 0.0
C108 C 0.57151 0.56662 0.06356 0.0
C109 C 0.56939 0.54002 0.02377 0.0
C110 C 0.65613 0.55502 0.00975 0.0
C111 C 0.61221 0.53363 0.99748 0.0
C112 C 0.52369 0.51612 0.01125 0.0
C113 C 0.48457 0.66451 0.99487 0.0
C114 C 0.44334 0.67903 0.02043 0.0
C115 C 0.49679 0.6185 0.99245 0.0
C116 C 0.46845 0.58624 0.01613 0.0
C117 C 0.41587 0.6466 0.04483 0.0
C118 C 0.4283 0.60088 0.04269 0.0
C119 C 0.47681 0.53702 0.0103 0.0
H120 H 0.33624 0.36282 0.92298 0.0
H121 H 0.41525 0.40244 0.93109 0.0
H122 H 0.27866 0.43588 0.0397 0.0
H123 H 0.3576 0.47453 0.04828 0.0
H124 H 0.46555 0.29826 0.05275 0.0
H125 H 0.43911 0.37689 0.04535 0.0
H126 H 0.5842 0.32354 0.95676 0.0
H127 H 0.55569 0.40083 0.9474 0.0
H128 H 0.61563 0.60947 0.10594 0.0
H129 H 0.53931 0.57078 0.08522 0.0
H130 H 0.68858 0.55 0.9886 0.0
H131 H 0.61151 0.51247 0.96717 0.0
H132 H 0.50661 0.68855 0.97574 0.0
H133 H 0.52722 0.60812 0.97075 0.0
H134 H 0.38316 0.65611 0.06395 0.0
H135 H 0.40558 0.57668 0.06097 0.0
N136 N 0.43661 0.51055 1.00338 0.0
N137 N 0.52665 0.47081 1.00422 0.0
Zn138 Zn 0.05449 0.06043 0.98005 0.0
Zn139 Zn 0.0533 0.08245 0.08953 0.0
O140 O 0.03989 0.03399 0.04289 0.0
H141 H 0.02533 0.00483 0.0489 0.0
C142 C 0.92615 0.14586 0.89861 0.0
O143 O 0.90617 0.1083 0.88337 0.0
Zn144 Zn 0.93362 0.91296 0.10885 0.0
Zn145 Zn 0.90408 0.90959 1.0004 0.0
O146 O 0.93004 0.94976 0.05076 0.0
H147 H 0.94413 0.97928 0.04552 0.0
Zn148 Zn 0.89797 0.10632 0.9895 0.0
O149 O 0.9383 0.08291 0.04366 0.0
Zn150 Zn 0.89261 0.0733 0.09767 0.0
H151 H 0.92249 0.09401 0.01611 0.0
Zn152 Zn 0.08951 0.89697 0.97776 0.0
O153 O 0.05218 0.91408 0.03562 0.0
H154 H 0.01669 0.91629 0.03749 0.0
Zn155 Zn 0.10219 0.92428 0.08645 0.0
C156 C 0.05492 0.82766 0.90979 0.0
O157 O 0.06744 0.7992 0.94245 0.0
O158 O 0.05834 0.12937 0.98253 0.0
O159 O 0.07331 0.14049 0.05685 0.0
O160 O 0.88831 0.84584 0.02382 0.0
O161 O 0.90351 0.85101 0.09869 0.0
O162 O 0.82458 0.11335 0.00749 0.0
O163 O 0.82188 0.09103 0.08064 0.0
C164 C 0.12152 0.01862 0.1319 0.0
O165 O 0.16408 0.89283 0.98806 0.0
O166 O 0.17139 0.90636 0.06313 0.0
O167 O 0.85562 0.93597 0.95175 0.0
C168 C 0.07003 0.15521 0.01569 0.0
O169 O 0.11136 0.03402 0.93955 0.0
C170 C 0.884 0.98779 0.15236 0.0
O171 O 0.92796 0.1526 0.94175 0.0
C172 C 0.88881 0.82862 0.0639 0.0
O173 O 0.05837 0.86998 0.9173 0.0
C174 C 0.96332 0.11535 0.15355 0.0
O175 O 0.10718 0.05979 0.13212 0.0
O176 O 0.10001 0.99115 0.10468 0.0
C177 C 0.80061 0.10597 0.04443 0.0
O178 O 0.8955 0.94642 0.15816 0.0
O179 O 0.89817 0.00794 0.1162 0.0
C180 C 0.03567 0.8821 0.14955 0.0
O181 O 0.91676 0.11044 0.15131 0.0
O182 O 0.98907 0.09614 0.12253 0.0
C183 C 0.19033 0.89641 0.02416 0.0
O184 O 0.08164 0.8856 0.14117 0.0
O185 O 0.00622 0.90447 0.12395 0.0
C186 C 0.84051 0.97675 0.95097 0.0
O187 O 0.85684 0.00535 0.98189 0.0
C188 C 0.11089 0.99582 0.91962 0.0
O189 O 0.07253 0.96924 0.92495 0.0
H190 H 0.94843 0.27154 0.37584 0.0
H191 H 0.08798 0.33109 0.33405 0.0
H192 H 0.09452 0.27547 0.27158 0.0
H193 H 0.9776 0.15443 0.34706 0.0
H194 H 0.91645 0.14304 0.32558 0.0
H195 H 0.92515 0.18447 0.37014 0.0
H196 H 0.88089 0.24491 0.32034 0.0
H197 H 0.87188 0.2036 0.27585 0.0
H198 H 0.90297 0.25599 0.26309 0.0
H199 H 0.08402 0.21447 0.21022 0.0
H200 H 0.05421 0.15768 0.15408 0.0
H201 H 0.91981 0.1419 0.23347 0.0
C202 C 0.98049 0.27313 0.35374 0.0
C203 C 0.01791 0.30588 0.3608 0.0
C204 C 0.05926 0.30592 0.33071 0.0
C205 C 0.06324 0.2745 0.29468 0.0
C206 C 0.02551 0.24308 0.28861 0.0
C207 C 0.9848 0.24235 0.31725 0.0
C208 C 0.94778 0.20713 0.30174 0.0
C209 C 0.94139 0.17007 0.33831 0.0
C210 C 0.89795 0.22924 0.28952 0.0
C211 C 0.97356 0.18878 0.25946 0.0
C212 C 0.01874 0.20933 0.25273 0.0
C213 C 0.04872 0.19811 0.21532 0.0
C214 C 0.03162 0.16571 0.18364 0.0
C215 C 0.98464 0.14547 0.18921 0.0
C216 C 0.95584 0.15686 0.22809 0.0
H217 H 0.63623 0.01708 0.29107 0.0
H218 H 0.72767 0.04834 0.4087 0.0
H219 H 0.80042 0.05593 0.35815 0.0
H220 H 0.72 0.94675 0.23886 0.0
H221 H 0.7063 0.96296 0.1806 0.0
H222 H 0.65984 0.96882 0.22424 0.0
H223 H 0.65046 0.05422 0.20479 0.0
H224 H 0.69649 0.04784 0.16058 0.0
H225 H 0.70438 0.0899 0.20472 0.0
H226 H 0.86487 0.04925 0.29758 0.0
H227 H 0.91649 0.02533 0.23167 0.0
H228 H 0.78453 -0.00197 0.15273 0.0
C229 C 0.67131 0.027 0.30576 0.0
C230 C 0.67645 0.03262 0.35359 0.0
C231 C 0.72312 0.04412 0.37204 0.0
C232 C 0.76452 0.04877 0.34358 0.0
C233 C 0.75869 0.04189 0.29663 0.0
C234 C 0.71324 0.03133 0.27774 0.0
C235 C 0.71822 0.02013 0.2272 0.0
C236 C 0.70004 0.9718 0.21717 0.0
C237 C 0.69077 0.05514 0.19758 0.0
C238 C 0.77372 0.02405 0.22118 0.0
C239 C 0.79626 0.03763 0.26142 0.0
C240 C 0.84761 0.03958 0.26559 0.0
C241 C 0.87664 0.02604 0.22813 0.0
C242 C 0.85418 0.01094 0.18726 0.0
C243 C 0.80225 0.01088 0.18336 0.0
H244 H 0.06989 0.69335 0.34399 0.0
H245 H 0.9104 0.69189 0.3599 0.0
H246 H 0.90299 0.75194 0.30144 0.0
H247 H 0.08294 0.81336 0.32583 0.0
H248 H 0.13103 0.8071 0.28352 0.0
H249 H 0.12379 0.76511 0.32782 0.0
H250 H 0.116 0.70254 0.26605 0.0
H251 H 0.12327 0.74434 0.2216 0.0
H252 H 0.06985 0.70805 0.2218 0.0
H253 H 0.91313 0.81247 0.23951 0.0
H254 H 0.94032 0.86676 0.18011 0.0
H255 H 0.09243 0.82596 0.20282 0.0
C256 C 0.03329 0.70536 0.33515 0.0
C257 C -0.00923 0.68771 0.3571 0.0
C258 C 0.94374 0.70518 0.34452 0.0
C259 C 0.93907 0.73918 0.31098 0.0
C260 C 0.98172 0.75557 0.29 0.0
C261 C 0.02793 0.73917 0.30162 0.0
C262 C 0.06794 0.7619 0.27351 0.0
C263 C 0.10351 0.78844 0.30453 0.0
C264 C 0.0959 0.72713 0.24399 0.0
C265 C 0.03708 0.7935 0.2441 0.0
C266 C 0.98742 0.78956 0.25414 0.0
C267 C 0.95197 0.81562 0.23132 0.0
C268 C 0.96771 0.84629 0.19734 0.0
C269 C 0.01841 0.85046 0.18608 0.0
C270 C 0.05331 0.82367 0.21023 0.0
H271 H 0.32984 0.06003 0.32008 0.0
H272 H 0.35856 0.91541 0.32015 0.0
H273 H 0.2973 0.90562 0.25814 0.0
H274 H 0.20027 0.05181 0.30594 0.0
H275 H 0.19542 0.10117 0.26985 0.0
H276 H 0.24439 0.09708 0.31141 0.0
H277 H 0.30929 0.10945 0.24723 0.0
H278 H 0.26046 0.11376 0.20548 0.0
H279 H 0.30929 0.07288 0.19778 0.0
H280 H 0.22858 0.9115 0.1985 0.0
H281 H 0.16042 0.93291 0.14662 0.0
H282 H 0.17606 0.07307 0.18792 0.0
C283 C 0.32341 0.02622 0.30715 0.0
C284 C 0.34927 0.98852 0.32515 0.0
C285 C 0.33995 0.945 0.30658 0.0
C286 C 0.30491 0.93903 0.27152 0.0
C287 C 0.27944 0.97688 0.25531 0.0
C288 C 0.28847 0.01964 0.27248 0.0
C289 C 0.25506 0.05463 0.25053 0.0
C290 C 0.22182 0.0775 0.28658 0.0
C291 C 0.28534 0.08974 0.22365 0.0
C292 C 0.22537 0.02487 0.21866 0.0
C293 C 0.24001 0.98017 0.22162 0.0
C294 C 0.21707 0.94651 0.1958 0.0
C295 C 0.17825 0.95898 0.16627 0.0
C296 C 0.16261 0.00463 0.16277 0.0
C297 C 0.18686 0.03778 0.1895 0.0
H298 H 0.00118 0.63807 0.72105 0.0
H299 H 0.01308 0.74267 0.61725 0.0
H300 H 0.02425 0.80013 0.67818 0.0
H301 H 0.93479 0.70462 0.80598 0.0
H302 H 0.96742 0.67979 0.85369 0.0
H303 H 0.95809 0.64755 0.80201 0.0
H304 H 0.05246 0.63395 0.79559 0.0
H305 H 0.06205 0.66602 0.84726 0.0
H306 H 0.09369 0.68177 0.79525 0.0
H307 H 0.03476 0.84614 0.75129 0.0
H308 H 0.04923 0.87586 0.82936 0.0
H309 H 0.03248 0.74043 0.88487 0.0
C310 C 0.00547 0.67316 0.71112 0.0
C311 C 0.00583 0.68594 0.66432 0.0
C312 C 0.01278 0.73208 0.65281 0.0
C313 C 0.01887 0.76496 0.68721 0.0
C314 C 0.01826 0.75116 0.73302 0.0
C315 C 0.01203 0.70626 0.74495 0.0
C316 C 0.01503 0.69983 0.79647 0.0
C317 C 0.9659 0.68189 0.81566 0.0
C318 C 0.05839 0.66855 0.80938 0.0
C319 C 0.02429 0.74806 0.81177 0.0
C320 C 0.02547 0.77729 0.77475 0.0
C321 C 0.03382 0.82351 0.78047 0.0
C322 C 0.04184 0.84012 0.82503 0.0
C323 C 0.04197 0.81055 0.86337 0.0
C324 C 0.03261 0.76398 0.85639 0.0
H325 H 0.32913 0.04312 0.7423 0.0
H326 H 0.32738 0.90001 0.70942 0.0
H327 H 0.26481 0.88728 0.76984 0.0
H328 H 0.31294 0.02922 0.86662 0.0
H329 H 0.27436 0.07879 0.87149 0.0
H330 H 0.32121 0.07599 0.82765 0.0
H331 H 0.25493 0.0919 0.76546 0.0
H332 H 0.20797 0.09471 0.80907 0.0
H333 H 0.20145 0.05584 0.76187 0.0
H334 H 0.19766 0.89133 0.82975 0.0
H335 H 0.13322 0.91152 0.88605 0.0
H336 H 0.18023 0.05163 0.88111 0.0
C337 C 0.31575 0.00908 0.74802 0.0
C338 C 0.33311 0.97253 0.72121 0.0
C339 C 0.31498 0.92841 0.72991 0.0
C340 C 0.27935 0.92088 0.76404 0.0
C341 C 0.26265 0.95774 0.78955 0.0
C342 C 0.28058 0.00091 0.78225 0.0
C343 C 0.25573 0.03486 0.81363 0.0
C344 C 0.2933 0.05595 0.84682 0.0
C345 C 0.22839 0.07147 0.78584 0.0
C346 C 0.21996 0.00431 0.83878 0.0
C347 C 0.22468 0.95991 0.82459 0.0
C348 C 0.19399 0.92593 0.84142 0.0
C349 C 0.15728 0.93774 0.87328 0.0
C350 C 0.15158 0.98307 0.8881 0.0
C351 C 0.18392 0.01655 0.87091 0.0
H352 H 0.95808 0.26335 0.65217 0.0
H353 H 0.00446 0.38409 0.72419 0.0
H354 H 0.00199 0.34245 0.79783 0.0
H355 H 0.87144 0.22794 0.73503 0.0
H356 H 0.88352 0.16823 0.72894 0.0
H357 H 0.89421 0.20584 0.6814 0.0
H358 H 0.98484 0.17791 0.67601 0.0
H359 H 0.97435 0.14007 0.72353 0.0
H360 H 0.02392 0.18059 0.72599 0.0
H361 H 0.98996 0.28909 0.86412 0.0
H362 H 0.96621 0.22884 0.91849 0.0
H363 H 0.92507 0.14278 0.80416 0.0
C364 C 0.96867 0.28053 0.68343 0.0
C365 C 0.98211 0.32668 0.6827 0.0
C366 C -0.00545 0.34859 0.72424 0.0
C367 C -0.00671 0.32521 0.76613 0.0
C368 C 0.97925 0.27987 0.766 0.0
C369 C 0.96711 0.25769 0.72578 0.0
C370 C 0.95007 0.20976 0.73568 0.0
C371 C 0.89664 0.20254 0.71929 0.0
C372 C 0.98541 0.17503 0.71402 0.0
C373 C 0.95348 0.20886 0.78767 0.0
C374 C 0.97106 0.24944 0.80441 0.0
C375 C 0.97632 0.2571 0.85136 0.0
C376 C 0.96267 0.22263 0.88204 0.0
C377 C 0.94361 0.181 0.86578 0.0
C378 C 0.93959 0.17409 0.81783 0.0
H379 H 0.65464 0.94219 0.74218 0.0
H380 H 0.62498 0.08662 0.74613 0.0
H381 H 0.68012 0.09394 0.81319 0.0
H382 H 0.66283 0.92437 0.86465 0.0
H383 H 0.71247 0.88387 0.85976 0.0
H384 H 0.66829 0.88984 0.81395 0.0
H385 H 0.73959 0.90494 0.75659 0.0
H386 H 0.78394 0.89915 0.80223 0.0
H387 H 0.78268 0.94996 0.76799 0.0
H388 H 0.74185 0.08574 0.87822 0.0
H389 H 0.80386 0.0623 0.9358 0.0
H390 H 0.79405 0.92384 0.88721 0.0
C391 C 0.65974 0.97545 0.75695 0.0
C392 C 0.63528 0.0138 0.73876 0.0
C393 C 0.64261 0.05655 0.75976 0.0
C394 C 0.67416 0.06113 0.79771 0.0
C395 C 0.69819 0.02268 0.81425 0.0
C396 C 0.69123 0.98066 0.79456 0.0
C397 C 0.72231 0.9448 0.81794 0.0
C398 C 0.68951 0.90859 0.84041 0.0
C399 C 0.75932 0.92347 0.78417 0.0
C400 C 0.74829 0.97324 0.85359 0.0
C401 C 0.73379 0.01805 0.85115 0.0
C402 C 0.75331 0.05068 0.88049 0.0
C403 C 0.7885 0.03705 0.91315 0.0
C404 C 0.8038 0.99124 0.91619 0.0
C405 C 0.78326 0.95913 0.88585 0.0
H406 H 0.25447 0.35477 0.05125 0.0
H407 H 0.24566 0.37776 0.90464 0.0
H408 H 0.17218 0.32822 0.90067 0.0
H409 H 0.23215 0.24237 0.04742 0.0
H410 H 0.19675 0.23921 0.0997 0.0
H411 H 0.24135 0.28343 0.0923 0.0
H412 H 0.17343 0.34362 0.10769 0.0
H413 H 0.12842 0.29932 0.11499 0.0
H414 H 0.11787 0.34365 0.07359 0.0
H415 H 0.10815 0.26865 0.91102 0.0
H416 H 0.06403 0.19922 0.93308 0.0
H417 H 0.11528 0.21502 0.07325 0.0
C418 C 0.23595 0.35066 0.0186 0.0
C419 C 0.2551 0.37039 0.97833 0.0
C420 C 0.23126 0.36291 0.93586 0.0
C421 C 0.1893 0.3353 0.93341 0.0
C422 C 0.17177 0.3157 0.97378 0.0
C423 C 0.19442 0.32306 0.0156 0.0
C424 C 0.17308 0.29321 0.05274 0.0
C425 C 0.21321 0.26276 0.07424 0.0
C426 C 0.14661 0.32166 0.08942 0.0
C427 C 0.13662 0.26614 0.02484 0.0
C428 C 0.13538 0.28045 0.97965 0.0
C429 C 0.10817 0.25764 0.94644 0.0
C430 C 0.08331 0.21814 0.95932 0.0
C431 C 0.08643 0.20159 1.0049 0.0
C432 C 0.1117 0.22706 0.03832 0.0
H433 H 0.40092 0.7296 0.08907 0.0
H434 H 0.44212 0.735 0.94536 0.0
H435 H 0.39581 0.8061 0.93673 0.0
H436 H 0.28289 0.75334 0.07276 0.0
H437 H 0.27265 0.78709 0.12337 0.0
H438 H 0.32134 0.74585 0.12271 0.0
H439 H 0.38493 0.8079 0.14366 0.0
H440 H 0.33608 0.84954 0.14451 0.0
H441 H 0.38953 0.85803 0.10866 0.0
H442 H 0.32966 0.86328 0.93783 0.0
H443 H 0.24952 0.90145 0.94874 0.0
H444 H 0.24807 0.85938 0.09122 0.0
C445 C 0.40149 0.74652 0.05613 0.0
C446 C 0.42534 0.72661 0.01797 0.0
C447 C 0.42511 0.74982 0.97543 0.0
C448 C 0.39872 0.79035 0.97015 0.0
C449 C 0.37307 0.80757 0.00778 0.0
C450 C 0.37476 0.78668 0.05022 0.0
C451 C 0.33745 0.8073 0.08294 0.0
C452 C 0.30147 0.77126 0.10146 0.0
C453 C 0.36357 0.83218 0.12227 0.0
C454 C 0.31176 0.84041 0.05119 0.0
C455 C 0.33393 0.84108 0.0084 0.0
C456 C 0.31287 0.86412 0.97151 0.0
C457 C 0.2672 0.88553 0.97797 0.0
C458 C 0.24292 0.88355 0.02094 0.0
C459 C 0.26654 0.8624 0.05841 0.0
H460 H 0.57717 0.2455 0.94878 0.0
H461 H 0.53361 0.26481 0.09071 0.0
H462 H 0.58759 0.20186 0.11371 0.0
H463 H 0.60266 0.11819 0.95539 0.0
H464 H 0.65584 0.12418 0.9187 0.0
H465 H 0.60308 0.16085 0.91115 0.0
H466 H 0.65979 0.23087 0.9196 0.0
H467 H 0.71235 0.19457 0.92735 0.0
H468 H 0.6976 0.23645 0.97018 0.0
H469 H 0.65896 0.14971 0.12409 0.0
H470 H 0.74137 0.11404 0.1204 0.0
H471 H 0.74147 0.1302 0.97245 0.0
C472 C 0.57782 0.23564 0.98453 0.0
C473 C 0.55078 0.26022 0.01777 0.0
C474 C 0.55288 0.24612 0.06424 0.0
C475 C 0.58373 0.21034 0.07777 0.0
C476 C 0.61209 0.18863 0.04449 0.0
C477 C 0.60897 0.20041 0.99864 0.0
C478 C 0.64885 0.17716 0.97074 0.0
C479 C 0.62624 0.14306 0.93701 0.0
C480 C 0.68156 0.21183 0.94554 0.0
C481 C 0.67694 0.15314 0.00852 0.0
C482 C 0.65433 0.15896 0.05062 0.0
C483 C 0.67634 0.14396 0.09118 0.0
C484 C 0.72323 0.12373 0.08877 0.0
C485 C 0.74787 0.11926 0.04616 0.0
C486 C 0.72348 0.1328 1.00553 0.0
H487 H 0.71579 0.62954 0.98928 0.0
H488 H 0.70055 0.59565 0.13332 0.0
H489 H 0.76918 0.64751 0.15198 0.0
H490 H 0.85381 0.64613 0.98956 0.0
H491 H 0.84867 0.69278 0.94995 0.0
H492 H 0.8052 0.64674 0.94731 0.0
H493 H 0.73279 0.7038 0.95542 0.0
H494 H 0.77583 0.74981 0.95833 0.0
H495 H 0.73155 0.74178 1.00378 0.0
H496 H 0.83009 0.71109 0.15585 0.0
H497 H 0.87674 0.78195 0.14478 0.0
H498 H 0.85217 0.77277 0.99788 0.0
C499 C 0.72817 0.63164 0.02453 0.0
C500 C 0.70324 0.60843 0.05983 0.0
C501 C 0.71923 0.61332 0.10579 0.0
C502 C 0.7584 0.64233 0.11664 0.0
C503 C 0.78135 0.66576 0.08106 0.0
C504 C 0.76702 0.66041 0.03585 0.0
C505 C 0.79323 0.69332 1.0046 0.0
C506 C 0.82726 0.66823 0.97087 0.0
C507 C 0.75614 0.72398 0.97909 0.0
C508 C 0.82275 0.71952 0.03952 0.0
C509 C 0.81628 0.70264 0.08333 0.0
C510 C 0.83627 0.72407 0.12161 0.0
C511 C 0.86258 0.76438 0.11499 0.0
C512 C 0.86803 0.78294 0.07045 0.0
C513 C 0.84905 0.75932 0.03232 0.0
loop_
_geom_bond_atom_site_label_1
_geom_bond_atom_site_label_2
_geom_bond_distance
_geom_bond_site_symmetry_2
_ccdc_geom_bond_type
C0 C1 1.384 1_455 S
C0 C2 1.384 . S
C0 H28 0.931 . S
C1 C0 1.384 1_655 S
C1 C4 1.382 . S
C2 C0 1.384 . S
C2 C3 1.381 1_455 S
C2 H29 0.930 . S
C3 C2 1.381 1_655 S
C3 C5 1.381 . S
C3 C6 1.487 . S
C4 C1 1.382 . S
C4 C5 1.387 . S
C4 H30 0.930 . S
C5 C3 1.381 . S
C5 C4 1.387 . S
C5 H31 0.931 . S
C6 C3 1.487 . S
C6 C13 1.399 1_655 S
C6 N44 1.343 . S
C7 C8 1.384 1_655 S
C7 C9 1.384 . S
C7 H32 0.931 . S
C8 C7 1.384 1_455 S
C8 C11 1.382 . S
C9 C7 1.384 . S
C9 C10 1.381 1_655 S
C9 H33 0.930 . S
C10 C9 1.381 1_455 S
C10 C12 1.381 . S
C10 C13 1.487 . S
C11 C8 1.382 . S
C11 C12 1.387 . S
C11 H34 0.930 . S
C12 C10 1.381 . S
C12 C11 1.387 . S
C12 H35 0.931 . S
C13 C6 1.399 1_455 S
C13 C10 1.487 . S
C13 N45 1.343 . S
C14 C15 1.384 1_655 S
C14 C16 1.384 . S
C14 H36 0.931 . S
C15 C14 1.384 1_455 S
C15 C18 1.382 . S
C16 C14 1.384 . S
C16 C17 1.381 1_655 S
C16 H37 0.930 . S
C17 C16 1.381 1_455 S
C17 C19 1.381 . S
C17 C20 1.487 . S
C18 C15 1.382 . S
C18 C19 1.387 . S
C18 H38 0.930 . S
C19 C17 1.381 . S
C19 C18 1.387 . S
C19 H39 0.931 . S
C20 C17 1.487 . S
C20 C27 1.399 1_455 S
C20 N45 1.343 . S
C21 C22 1.384 1_455 S
C21 C23 1.384 . S
C21 H40 0.931 . S
C22 C21 1.384 1_655 S
C22 C25 1.382 . S
C23 C21 1.384 . S
C23 C24 1.381 1_455 S
C23 H41 0.930 . S
C24 C23 1.381 1_655 S
C24 C26 1.381 . S
C24 C27 1.487 . S
C25 C22 1.382 . S
C25 C26 1.387 . S
C25 H42 0.930 . S
C26 C24 1.381 . S
C26 C25 1.387 . S
C26 H43 0.931 . S
C27 C20 1.399 1_655 S
C27 C24 1.487 . S
C27 N44 1.343 . S
H28 C0 0.931 . S
H29 C2 0.930 . S
H30 C4 0.930 . S
H31 C5 0.931 . S
H32 C7 0.931 . S
H33 C9 0.930 . S
H34 C11 0.930 . S
H35 C12 0.931 . S
H36 C14 0.931 . S
H37 C16 0.930 . S
H38 C18 0.930 . S
H39 C19 0.931 . S
H40 C21 0.931 . S
H41 C23 0.930 . S
H42 C25 0.930 . S
H43 C26 0.931 . S
N44 C6 1.343 . S
N44 C27 1.343 . S
N45 C13 1.343 . S
N45 C20 1.343 . S
C46 C47 1.384 1_545 S
C46 C48 1.384 . S
C46 H74 0.931 . S
C47 C46 1.384 1_565 S
C47 C50 1.382 . S
C48 C46 1.384 . S
C48 C49 1.381 1_545 S
C48 H75 0.930 . S
C49 C48 1.381 1_565 S
C49 C51 1.381 . S
C49 C52 1.487 . S
C50 C47 1.382 . S
C50 C51 1.387 . S
C50 H76 0.930 . S
C51 C49 1.381 . S
C51 C50 1.387 . S
C51 H77 0.931 . S
C52 C49 1.487 . S
C52 C59 1.399 1_565 S
C52 N90 1.343 . S
C53 C54 1.384 1_565 S
C53 C55 1.384 . S
C53 H78 0.931 . S
C54 C53 1.384 1_545 S
C54 C57 1.382 . S
C55 C53 1.384 . S
C55 C56 1.381 1_565 S
C55 H79 0.930 . S
C56 C55 1.381 1_545 S
C56 C58 1.381 . S
C56 C59 1.487 . S
C57 C54 1.382 . S
C57 C58 1.387 . S
C57 H80 0.930 . S
C58 C56 1.381 . S
C58 C57 1.387 . S
C58 H81 0.931 . S
C59 C52 1.399 1_545 S
C59 C56 1.487 . S
C59 N91 1.343 . S
C60 C61 1.384 1_565 S
C60 C62 1.384 . S
C60 H82 0.931 . S
C61 C60 1.384 1_545 S
C61 C64 1.382 . S
C62 C60 1.384 . S
C62 C63 1.381 1_565 S
C62 H83 0.930 . S
C63 C62 1.381 1_545 S
C63 C65 1.381 . S
C63 C66 1.487 . S
C64 C61 1.382 . S
C64 C65 1.387 . S
C64 H84 0.930 . S
C65 C63 1.381 . S
C65 C64 1.387 . S
C65 H85 0.931 . S
C66 C63 1.487 . S
C66 C73 1.399 1_545 S
C66 N91 1.343 . S
C67 C68 1.384 1_545 S
C67 C69 1.384 . S
C67 H86 0.931 . S
C68 C67 1.384 1_565 S
C68 C71 1.382 . S
C69 C67 1.384 . S
C69 C70 1.381 1_545 S
C69 H87 0.930 . S
C70 C69 1.381 1_565 S
C70 C72 1.381 . S
C70 C73 1.487 . S
C71 C68 1.382 . S
C71 C72 1.387 . S
C71 H88 0.930 . S
C72 C70 1.381 . S
C72 C71 1.387 . S
C72 H89 0.931 . S
C73 C66 1.399 1_565 S
C73 C70 1.487 . S
C73 N90 1.343 . S
H74 C46 0.931 . S
H75 C48 0.930 . S
H76 C50 0.930 . S
H77 C51 0.931 . S
H78 C53 0.931 . S
H79 C55 0.930 . S
H80 C57 0.930 . S
H81 C58 0.931 . S
H82 C60 0.931 . S
H83 C62 0.930 . S
H84 C64 0.930 . S
H85 C65 0.931 . S
H86 C67 0.931 . S
H87 C69 0.930 . S
H88 C71 0.930 . S
H89 C72 0.931 . S
N90 C52 1.343 . S
N90 C73 1.343 . S
N91 C59 1.343 . S
N91 C66 1.343 . S
C92 C93 1.384 1_556 S
C92 C94 1.384 . S
C92 H120 0.931 . S
C93 C92 1.384 1_554 S
C93 C96 1.382 . S
C94 C92 1.384 . S
C94 C95 1.381 1_556 S
C94 H121 0.930 . S
C95 C94 1.381 1_554 S
C95 C97 1.381 . S
C95 C98 1.487 . S
C96 C93 1.382 . S
C96 C97 1.387 . S
C96 H122 0.930 . S
C97 C95 1.381 . S
C97 C96 1.387 . S
C97 H123 0.931 . S
C98 C95 1.487 . S
C98 C105 1.399 . S
C98 N136 1.343 . S
C99 C100 1.384 . S
C99 C101 1.384 . S
C99 H124 0.931 . S
C100 C99 1.384 . S
C100 C103 1.382 1_554 S
C101 C99 1.384 . S
C101 C102 1.381 . S
C101 H125 0.930 . S
C102 C101 1.381 . S
C102 C104 1.381 1_554 S
C102 C105 1.487 . S
C103 C100 1.382 1_556 S
C103 C104 1.387 . S
C103 H126 0.930 . S
C104 C102 1.381 1_556 S
C104 C103 1.387 . S
C104 H127 0.931 . S
C105 C98 1.399 . S
C105 C102 1.487 . S
C105 N137 1.343 . S
C106 C107 1.384 . S
C106 C108 1.384 . S
C106 H128 0.931 . S
C107 C106 1.384 . S
C107 C110 1.382 1_554 S
C108 C106 1.384 . S
C108 C109 1.381 . S
C108 H129 0.930 . S
C109 C108 1.381 . S
C109 C111 1.381 1_554 S
C109 C112 1.487 . S
C110 C107 1.382 1_556 S
C110 C111 1.387 . S
C110 H130 0.930 . S
C111 C109 1.381 1_556 S
C111 C110 1.387 . S
C111 H131 0.931 . S
C112 C109 1.487 . S
C112 C119 1.399 . S
C112 N137 1.343 . S
C113 C114 1.384 1_556 S
C113 C115 1.384 . S
C113 H132 0.931 . S
C114 C113 1.384 1_554 S
C114 C117 1.382 . S
C115 C113 1.384 . S
C115 C116 1.381 1_556 S
C115 H133 0.930 . S
C116 C115 1.381 1_554 S
C116 C118 1.381 . S
C116 C119 1.487 . S
C117 C114 1.382 . S
C117 C118 1.387 . S
C117 H134 0.930 . S
C118 C116 1.381 . S
C118 C117 1.387 . S
C118 H135 0.931 . S
C119 C112 1.399 . S
C119 C116 1.487 . S
C119 N136 1.343 . S
H120 C92 0.931 . S
H121 C94 0.930 . S
H122 C96 0.930 . S
H123 C97 0.931 . S
H124 C99 0.931 . S
H125 C101 0.930 . S
H126 C103 0.930 . S
H127 C104 0.931 . S
H128 C106 0.931 . S
H129 C108 0.930 . S
H130 C110 0.930 . S
H131 C111 0.931 . S
H132 C113 0.931 . S
H133 C115 0.930 . S
H134 C117 0.930 . S
H135 C118 0.931 . S
N136 C98 1.343 . S
N136 C119 1.343 . S
N137 C105 1.343 . S
N137 C112 1.343 . S
Zn138 O140 1.933 1_556 S
Zn138 O158 1.985 . S
Zn138 O169 1.955 . S
Zn139 O140 1.911 . S
Zn139 O159 1.970 . S
Zn139 O175 1.945 . S
Zn139 O182 1.981 . S
O140 Zn138 1.933 1_554 S
O140 Zn139 1.911 . S
O140 H141 0.841 . S
H141 O140 0.841 . S
C142 O143 1.246 . S
C142 O171 1.276 1_455 S
O143 C142 1.246 . S
Zn144 O146 1.911 . S
Zn144 O161 1.970 . S
Zn144 O178 1.945 . S
Zn144 O185 1.981 . S
Zn145 O146 1.933 1_556 S
Zn145 O160 1.985 . S
Zn145 O167 1.955 . S
O146 Zn144 1.911 . S
O146 Zn145 1.933 1_554 S
O146 H147 0.841 . S
H147 O146 0.841 . S
Zn148 O149 1.933 1_556 S
Zn148 O162 1.985 . S
Zn148 O171 1.955 . S
O149 Zn148 1.933 1_554 S
O149 Zn150 1.911 . S
O149 H151 0.841 . S
Zn150 O149 1.911 . S
Zn150 O163 1.970 . S
Zn150 O179 1.981 . S
Zn150 O181 1.945 . S
H151 O149 0.841 . S
Zn152 O153 1.933 1_556 S
Zn152 O165 1.985 . S
Zn152 O173 1.955 . S
O153 Zn152 1.933 1_554 S
O153 H154 0.841 . S
O153 Zn155 1.911 . S
H154 O153 0.841 . S
Zn155 O153 1.911 . S
Zn155 O166 1.970 . S
Zn155 O176 1.981 . S
Zn155 O184 1.945 . S
C156 O157 1.246 . S
C156 O173 1.276 1_655 S
O157 C156 1.246 . S
O158 Zn138 1.985 . S
O158 C168 1.245 1_556 S
O159 Zn139 1.970 . S
O159 C168 1.263 . S
O160 Zn145 1.985 . S
O160 C172 1.245 1_556 S
O161 Zn144 1.970 . S
O161 C172 1.263 . S
O162 Zn148 1.985 . S
O162 C177 1.245 1_556 S
O163 Zn150 1.970 . S
O163 C177 1.263 . S
C164 O175 1.262 . S
C164 O176 1.245 1_545 S
O165 Zn152 1.985 . S
O165 C183 1.245 1_556 S
O166 Zn155 1.970 . S
O166 C183 1.263 . S
O167 Zn145 1.955 . S
O167 C186 1.276 1_565 S
C168 O158 1.245 1_554 S
C168 O159 1.263 . S
O169 Zn138 1.955 . S
O169 C188 1.276 1_545 S
C170 O178 1.262 1_545 S
C170 O179 1.245 . S
O171 C142 1.276 1_655 S
O171 Zn148 1.955 . S
C172 O160 1.245 1_554 S
C172 O161 1.263 . S
O173 Zn152 1.955 . S
O173 C156 1.276 1_455 S
C174 O181 1.262 1_455 S
C174 O182 1.245 . S
O175 Zn139 1.945 . S
O175 C164 1.262 . S
O176 Zn155 1.981 . S
O176 C164 1.245 1_565 S
C177 O162 1.245 1_554 S
C177 O163 1.263 . S
O178 Zn144 1.945 . S
O178 C170 1.262 1_565 S
O179 Zn150 1.981 . S
O179 C170 1.245 . S
C180 O184 1.262 . S
C180 O185 1.245 1_455 S
O181 Zn150 1.945 . S
O181 C174 1.262 1_655 S
O182 Zn139 1.981 . S
O182 C174 1.245 . S
C183 O165 1.245 1_554 S
C183 O166 1.263 . S
O184 Zn155 1.945 . S
O184 C180 1.262 . S
O185 Zn144 1.981 . S
O185 C180 1.245 1_655 S
C186 O167 1.276 1_545 S
C186 O187 1.246 . S
O187 C186 1.246 . S
C188 O169 1.276 1_565 S
C188 O189 1.246 . S
O189 C188 1.246 . S
H190 C202 0.930 . S
H191 C204 0.930 . S
H192 C205 0.930 . S
H193 C209 0.959 . S
H194 C209 0.959 . S
H195 C209 0.961 . S
H196 C210 0.960 . S
H197 C210 0.961 . S
H198 C210 0.959 . S
H199 C213 0.929 . S
H200 C214 0.931 . S
H201 C216 0.930 . S
C202 H190 0.930 . S
C202 C203 1.399 1_455 S
C202 C207 1.399 . S
C203 C202 1.399 1_655 S
C203 C204 1.376 . S
C204 H191 0.930 . S
C204 C203 1.376 . S
C204 C205 1.388 . S
C205 H192 0.930 . S
C205 C204 1.388 . S
C205 C206 1.390 . S
C206 C205 1.390 . S
C206 C207 1.394 1_655 S
C206 C212 1.465 . S
C207 C202 1.399 . S
C207 C206 1.394 1_455 S
C207 C208 1.516 . S
C208 C207 1.516 . S
C208 C209 1.502 . S
C208 C210 1.561 1_455 S
C208 C211 1.526 . S
C209 H193 0.959 . S
C209 H194 0.959 . S
C209 H195 0.961 . S
C209 C208 1.502 . S
C210 H196 0.960 . S
C210 H197 0.961 . S
C210 H198 0.959 . S
C210 C208 1.561 1_655 S
C211 C208 1.526 . S
C211 C212 1.396 1_455 S
C211 C216 1.390 . S
C212 C206 1.465 . S
C212 C211 1.396 1_655 S
C212 C213 1.399 . S
C213 H199 0.929 . S
C213 C212 1.399 . S
C213 C214 1.385 . S
C214 H200 0.931 . S
C214 C213 1.385 . S
C214 C215 1.389 1_655 S
C215 C214 1.389 1_455 S
C215 C216 1.387 . S
C216 H201 0.930 . S
C216 C211 1.390 . S
C216 C215 1.387 . S
H217 C229 0.930 . S
H218 C231 0.930 . S
H219 C232 0.930 . S
H220 C236 0.959 . S
H221 C236 0.959 . S
H222 C236 0.961 . S
H223 C237 0.960 . S
H224 C237 0.961 . S
H225 C237 0.959 . S
H226 C240 0.929 . S
H227 C241 0.931 . S
H228 C243 0.930 . S
C229 H217 0.930 . S
C229 C230 1.399 1_545 S
C229 C234 1.399 . S
C230 C229 1.399 1_565 S
C230 C231 1.376 . S
C231 H218 0.930 . S
C231 C230 1.376 . S
C231 C232 1.388 . S
C232 H219 0.930 . S
C232 C231 1.388 . S
C232 C233 1.390 . S
C233 C232 1.390 . S
C233 C234 1.394 1_565 S
C233 C239 1.465 . S
C234 C229 1.399 . S
C234 C233 1.394 1_545 S
C234 C235 1.516 . S
C235 C234 1.516 . S
C235 C236 1.502 . S
C235 C237 1.561 . S
C235 C238 1.526 . S
C236 H220 0.959 . S
C236 H221 0.959 . S
C236 H222 0.961 . S
C236 C235 1.502 . S
C237 H223 0.960 . S
C237 H224 0.961 . S
C237 H225 0.959 . S
C237 C235 1.561 . S
C238 C235 1.526 . S
C238 C239 1.396 1_545 S
C238 C243 1.390 . S
C239 C233 1.465 . S
C239 C238 1.396 1_565 S
C239 C240 1.399 . S
C240 H226 0.929 . S
C240 C239 1.399 . S
C240 C241 1.385 . S
C241 H227 0.931 . S
C241 C240 1.385 . S
C241 C242 1.389 1_565 S
C242 C241 1.389 1_545 S
C242 C243 1.387 . S
C243 H228 0.930 . S
C243 C238 1.390 . S
C243 C242 1.387 . S
H244 C256 0.930 . S
H245 C258 0.930 . S
H246 C259 0.930 . S
H247 C263 0.959 . S
H248 C263 0.959 . S
H249 C263 0.961 . S
H250 C264 0.960 . S
H251 C264 0.961 . S
H252 C264 0.959 . S
H253 C267 0.929 . S
H254 C268 0.931 . S
H255 C270 0.930 . S
C256 H244 0.930 . S
C256 C257 1.399 1_455 S
C256 C261 1.399 . S
C257 C256 1.399 1_655 S
C257 C258 1.376 . S
C258 H245 0.930 . S
C258 C257 1.376 . S
C258 C259 1.388 . S
C259 H246 0.930 . S
C259 C258 1.388 . S
C259 C260 1.390 . S
C260 C259 1.390 . S
C260 C261 1.394 1_655 S
C260 C266 1.465 . S
C261 C256 1.399 . S
C261 C260 1.394 1_455 S
C261 C262 1.516 . S
C262 C261 1.516 . S
C262 C263 1.502 . S
C262 C264 1.561 . S
C262 C265 1.526 . S
C263 H247 0.959 . S
C263 H248 0.959 . S
C263 H249 0.961 . S
C263 C262 1.502 . S
C264 H250 0.960 . S
C264 H251 0.961 . S
C264 H252 0.959 . S
C264 C262 1.561 . S
C265 C262 1.526 . S
C265 C266 1.396 1_455 S
C265 C270 1.390 . S
C266 C260 1.465 . S
C266 C265 1.396 1_655 S
C266 C267 1.399 . S
C267 H253 0.929 . S
C267 C266 1.399 . S
C267 C268 1.385 . S
C268 H254 0.931 . S
C268 C267 1.385 . S
C268 C269 1.389 . S
C269 C268 1.389 . S
C269 C270 1.387 1_655 S
C270 H255 0.930 . S
C270 C265 1.390 . S
C270 C269 1.387 1_455 S
H271 C283 0.930 . S
H272 C285 0.930 . S
H273 C286 0.930 . S
H274 C290 0.959 . S
H275 C290 0.959 . S
H276 C290 0.961 . S
H277 C291 0.960 . S
H278 C291 0.961 . S
H279 C291 0.959 . S
H280 C294 0.929 . S
H281 C295 0.931 . S
H282 C297 0.930 . S
C283 H271 0.930 . S
C283 C284 1.399 1_545 S
C283 C288 1.399 . S
C284 C283 1.399 1_565 S
C284 C285 1.376 . S
C285 H272 0.930 . S
C285 C284 1.376 . S
C285 C286 1.388 . S
C286 H273 0.930 . S
C286 C285 1.388 . S
C286 C287 1.390 . S
C287 C286 1.390 . S
C287 C288 1.394 1_565 S
C287 C293 1.465 . S
C288 C283 1.399 . S
C288 C287 1.394 1_545 S
C288 C289 1.516 . S
C289 C288 1.516 . S
C289 C290 1.502 . S
C289 C291 1.561 . S
C289 C292 1.526 . S
C290 H274 0.959 . S
C290 H275 0.959 . S
C290 H276 0.961 . S
C290 C289 1.502 . S
C291 H277 0.960 . S
C291 H278 0.961 . S
C291 H279 0.959 . S
C291 C289 1.561 . S
C292 C289 1.526 . S
C292 C293 1.396 1_545 S
C292 C297 1.390 . S
C293 C287 1.465 . S
C293 C292 1.396 1_565 S
C293 C294 1.399 . S
C294 H280 0.929 . S
C294 C293 1.399 . S
C294 C295 1.385 . S
C295 H281 0.931 . S
C295 C294 1.385 . S
C295 C296 1.389 . S
C296 C295 1.389 . S
C296 C297 1.387 1_565 S
C297 H282 0.930 . S
C297 C292 1.390 . S
C297 C296 1.387 1_545 S
H298 C310 0.930 . S
H299 C312 0.930 . S
H300 C313 0.930 . S
H301 C317 0.959 . S
H302 C317 0.959 . S
H303 C317 0.961 . S
H304 C318 0.959 1_655 S
H305 C318 0.961 1_655 S
H306 C318 0.959 . S
H307 C321 0.929 . S
H308 C322 0.931 . S
H309 C324 0.930 . S
C310 H298 0.930 . S
C310 C311 1.399 1_655 S
C310 C315 1.399 . S
C311 C310 1.399 1_455 S
C311 C312 1.376 . S
C312 H299 0.930 . S
C312 C311 1.376 . S
C312 C313 1.388 . S
C313 H300 0.930 . S
C313 C312 1.388 . S
C313 C314 1.390 . S
C314 C313 1.390 . S
C314 C315 1.394 1_455 S
C314 C320 1.465 . S
C315 C310 1.399 . S
C315 C314 1.394 1_655 S
C315 C316 1.516 . S
C316 C315 1.516 . S
C316 C317 1.502 . S
C316 C318 1.561 1_655 S
C316 C319 1.526 . S
C317 H301 0.959 . S
C317 H302 0.959 . S
C317 H303 0.961 . S
C317 C316 1.502 . S
C318 H304 0.959 1_455 S
C318 H305 0.961 1_455 S
C318 H306 0.959 . S
C318 C316 1.561 1_455 S
C319 C316 1.526 . S
C319 C320 1.396 1_655 S
C319 C324 1.390 . S
C320 C314 1.465 . S
C320 C319 1.396 1_455 S
C320 C321 1.399 . S
C321 H307 0.929 . S
C321 C320 1.399 . S
C321 C322 1.385 . S
C322 H308 0.931 . S
C322 C321 1.385 . S
C322 C323 1.389 1_455 S
C323 C322 1.389 1_655 S
C323 C324 1.387 . S
C324 H309 0.930 . S
C324 C319 1.390 . S
C324 C323 1.387 . S
H325 C337 0.930 . S
H326 C339 0.930 . S
H327 C340 0.930 . S
H328 C344 0.959 . S
H329 C344 0.959 . S
H330 C344 0.961 . S
H331 C345 0.960 . S
H332 C345 0.961 . S
H333 C345 0.959 . S
H334 C348 0.929 . S
H335 C349 0.931 . S
H336 C351 0.930 . S
C337 H325 0.930 . S
C337 C338 1.399 1_545 S
C337 C342 1.399 . S
C338 C337 1.399 1_565 S
C338 C339 1.376 . S
C339 H326 0.930 . S
C339 C338 1.376 . S
C339 C340 1.388 . S
C340 H327 0.930 . S
C340 C339 1.388 . S
C340 C341 1.390 . S
C341 C340 1.390 . S
C341 C342 1.394 1_565 S
C341 C347 1.465 . S
C342 C337 1.399 . S
C342 C341 1.394 1_545 S
C342 C343 1.516 . S
C343 C342 1.516 . S
C343 C344 1.502 . S
C343 C345 1.561 . S
C343 C346 1.526 . S
C344 H328 0.959 . S
C344 H329 0.959 . S
C344 H330 0.961 . S
C344 C343 1.502 . S
C345 H331 0.960 . S
C345 H332 0.961 . S
C345 H333 0.959 . S
C345 C343 1.561 . S
C346 C343 1.526 . S
C346 C347 1.396 1_545 S
C346 C351 1.390 . S
C347 C341 1.465 . S
C347 C346 1.396 1_565 S
C347 C348 1.399 . S
C348 H334 0.929 . S
C348 C347 1.399 . S
C348 C349 1.385 . S
C349 H335 0.931 . S
C349 C348 1.385 . S
C349 C350 1.389 . S
C350 C349 1.389 . S
C350 C351 1.387 1_565 S
C351 H336 0.930 . S
C351 C346 1.390 . S
C351 C350 1.387 1_545 S
H352 C364 0.930 . S
H353 C366 0.930 . S
H354 C367 0.930 . S
H355 C371 0.969 . S
H356 C371 0.956 1_455 S
H357 C371 0.960 1_455 S
H358 C372 0.960 . S
H359 C372 0.961 . S
H360 C372 0.959 . S
H361 C375 0.928 1_655 S
H362 C376 0.931 1_655 S
H363 C378 0.930 . S
C364 H352 0.930 . S
C364 C365 1.399 . S
C364 C369 1.399 . S
C365 C364 1.399 . S
C365 C366 1.376 1_455 S
C366 H353 0.930 . S
C366 C365 1.376 1_655 S
C366 C367 1.388 . S
C367 H354 0.930 . S
C367 C366 1.388 . S
C367 C368 1.390 1_655 S
C368 C367 1.390 1_455 S
C368 C369 1.394 . S
C368 C374 1.465 . S
C369 C364 1.399 . S
C369 C368 1.394 . S
C369 C370 1.516 . S
C370 C369 1.516 . S
C370 C371 1.496 1_455 S
C370 C372 1.561 . S
C370 C373 1.526 . S
C371 H355 0.969 . S
C371 H356 0.956 1_655 S
C371 H357 0.960 1_655 S
C371 C370 1.496 1_655 S
C372 H358 0.960 . S
C372 H359 0.961 . S
C372 H360 0.959 . S
C372 C370 1.561 . S
C373 C370 1.526 . S
C373 C374 1.396 . S
C373 C378 1.390 . S
C374 C368 1.465 . S
C374 C373 1.396 . S
C374 C375 1.400 . S
C375 H361 0.928 1_455 S
C375 C374 1.400 . S
C375 C376 1.385 . S
C376 H362 0.931 1_455 S
C376 C375 1.385 . S
C376 C377 1.389 . S
C377 C376 1.389 . S
C377 C378 1.387 . S
C378 H363 0.930 . S
C378 C373 1.390 . S
C378 C377 1.387 . S
H379 C391 0.930 . S
H380 C393 0.930 . S
H381 C394 0.930 . S
H382 C398 0.959 . S
H383 C398 0.959 . S
H384 C398 0.961 . S
H385 C399 0.960 . S
H386 C399 0.961 . S
H387 C399 0.959 . S
H388 C402 0.929 . S
H389 C403 0.931 . S
H390 C405 0.930 . S
C391 H379 0.930 . S
C391 C392 1.399 1_565 S
C391 C396 1.399 . S
C392 C391 1.399 1_545 S
C392 C393 1.376 . S
C393 H380 0.930 . S
C393 C392 1.376 . S
C393 C394 1.388 . S
C394 H381 0.930 . S
C394 C393 1.388 . S
C394 C395 1.390 . S
C395 C394 1.390 . S
C395 C396 1.394 1_545 S
C395 C401 1.465 . S
C396 C391 1.399 . S
C396 C395 1.394 1_565 S
C396 C397 1.516 . S
C397 C396 1.516 . S
C397 C398 1.502 . S
C397 C399 1.561 . S
C397 C400 1.526 . S
C398 H382 0.959 . S
C398 H383 0.959 . S
C398 H384 0.961 . S
C398 C397 1.502 . S
C399 H385 0.960 . S
C399 H386 0.961 . S
C399 H387 0.959 . S
C399 C397 1.561 . S
C400 C397 1.526 . S
C400 C401 1.396 1_565 S
C400 C405 1.390 . S
C401 C395 1.465 . S
C401 C400 1.396 1_545 S
C401 C402 1.399 . S
C402 H388 0.929 . S
C402 C401 1.399 . S
C402 C403 1.385 . S
C403 H389 0.931 . S
C403 C402 1.385 . S
C403 C404 1.389 . S
C404 C403 1.389 . S
C404 C405 1.387 1_545 S
C405 H390 0.930 . S
C405 C400 1.390 . S
C405 C404 1.387 1_565 S
H406 C418 0.930 . S
H407 C420 0.930 . S
H408 C421 0.930 . S
H409 C425 0.959 . S
H410 C425 0.959 . S
H411 C425 0.961 . S
H412 C426 0.960 . S
H413 C426 0.961 . S
H414 C426 0.959 . S
H415 C429 0.929 . S
H416 C430 0.931 . S
H417 C432 0.930 . S
C418 H406 0.930 . S
C418 C419 1.399 . S
C418 C423 1.399 . S
C419 C418 1.399 . S
C419 C420 1.376 1_554 S
C420 H407 0.930 . S
C420 C419 1.376 1_556 S
C420 C421 1.388 . S
C421 H408 0.930 . S
C421 C420 1.388 . S
C421 C422 1.390 1_556 S
C422 C421 1.390 1_554 S
C422 C423 1.394 . S
C422 C428 1.465 . S
C423 C418 1.399 . S
C423 C422 1.394 . S
C423 C424 1.516 . S
C424 C423 1.516 . S
C424 C425 1.502 . S
C424 C426 1.561 . S
C424 C427 1.526 . S
C425 H409 0.959 . S
C425 H410 0.959 . S
C425 H411 0.961 . S
C425 C424 1.502 . S
C426 H412 0.960 . S
C426 H413 0.961 . S
C426 H414 0.959 . S
C426 C424 1.561 . S
C427 C424 1.526 . S
C427 C428 1.396 . S
C427 C432 1.390 . S
C428 C422 1.465 . S
C428 C427 1.396 . S
C428 C429 1.399 1_554 S
C429 H415 0.929 . S
C429 C428 1.399 1_556 S
C429 C430 1.385 . S
C430 H416 0.931 . S
C430 C429 1.385 . S
C430 C431 1.389 1_556 S
C431 C430 1.389 1_554 S
C431 C432 1.387 . S
C432 H417 0.930 . S
C432 C427 1.390 . S
C432 C431 1.387 . S
H433 C445 0.930 . S
H434 C447 0.930 . S
H435 C448 0.930 . S
H436 C452 0.959 . S
H437 C452 0.959 . S
H438 C452 0.961 . S
H439 C453 0.960 . S
H440 C453 0.961 . S
H441 C453 0.959 . S
H442 C456 0.929 . S
H443 C457 0.931 . S
H444 C459 0.930 . S
C445 H433 0.930 . S
C445 C446 1.399 . S
C445 C450 1.399 . S
C446 C445 1.399 . S
C446 C447 1.376 1_554 S
C447 H434 0.930 . S
C447 C446 1.376 1_556 S
C447 C448 1.388 . S
C448 H435 0.930 . S
C448 C447 1.388 . S
C448 C449 1.390 . S
C449 C448 1.390 . S
C449 C450 1.394 1_556 S
C449 C455 1.465 . S
C450 C445 1.399 . S
C450 C449 1.394 1_554 S
C450 C451 1.516 . S
C451 C450 1.516 . S
C451 C452 1.502 . S
C451 C453 1.561 . S
C451 C454 1.526 . S
C452 H436 0.959 . S
C452 H437 0.959 . S
C452 H438 0.961 . S
C452 C451 1.502 . S
C453 H439 0.960 . S
C453 H440 0.961 . S
C453 H441 0.959 . S
C453 C451 1.561 . S
C454 C451 1.526 . S
C454 C455 1.396 1_554 S
C454 C459 1.390 . S
C455 C449 1.465 . S
C455 C454 1.396 1_556 S
C455 C456 1.399 . S
C456 H442 0.929 . S
C456 C455 1.399 . S
C456 C457 1.385 . S
C457 H443 0.931 . S
C457 C456 1.385 . S
C457 C458 1.389 1_556 S
C458 C457 1.389 1_554 S
C458 C459 1.387 . S
C459 H444 0.930 . S
C459 C454 1.390 . S
C459 C458 1.387 . S
H460 C472 0.930 . S
H461 C474 0.930 . S
H462 C475 0.930 . S
H463 C479 0.959 . S
H464 C479 0.959 . S
H465 C479 0.961 . S
H466 C480 0.960 . S
H467 C480 0.961 . S
H468 C480 0.959 . S
H469 C483 0.929 . S
H470 C484 0.931 . S
H471 C486 0.930 . S
C472 H460 0.930 . S
C472 C473 1.399 1_556 S
C472 C477 1.401 . S
C473 C472 1.399 1_554 S
C473 C474 1.376 . S
C474 H461 0.930 . S
C474 C473 1.376 . S
C474 C475 1.388 . S
C475 H462 0.930 . S
C475 C474 1.388 . S
C475 C476 1.390 . S
C476 C475 1.390 . S
C476 C477 1.382 1_554 S
C476 C482 1.465 . S
C477 C472 1.401 . S
C477 C476 1.382 1_556 S
C477 C478 1.524 . S
C478 C477 1.524 . S
C478 C479 1.502 . S
C478 C480 1.561 . S
C478 C481 1.541 . S
C479 H463 0.959 . S
C479 H464 0.959 . S
C479 H465 0.961 . S
C479 C478 1.502 . S
C480 H466 0.960 . S
C480 H467 0.961 . S
C480 H468 0.959 . S
C480 C478 1.561 . S
C481 C478 1.541 . S
C481 C482 1.373 1_556 S
C481 C486 1.395 . S
C482 C476 1.465 . S
C482 C481 1.373 1_554 S
C482 C483 1.399 . S
C483 H469 0.929 . S
C483 C482 1.399 . S
C483 C484 1.385 . S
C484 H470 0.931 . S
C484 C483 1.385 . S
C484 C485 1.389 . S
C485 C484 1.389 . S
C485 C486 1.387 1_554 S
C486 H471 0.930 . S
C486 C481 1.395 . S
C486 C485 1.387 1_556 S
H487 C499 0.930 . S
H488 C501 0.930 . S
H489 C502 0.930 . S
H490 C506 0.959 . S
H491 C506 0.959 . S
H492 C506 0.961 . S
H493 C507 0.960 . S
H494 C507 0.961 . S
H495 C507 0.959 . S
H496 C510 0.929 . S
H497 C511 0.931 . S
H498 C513 0.930 . S
C499 H487 0.930 . S
C499 C500 1.399 1_556 S
C499 C504 1.399 1_556 S
C500 C499 1.399 1_554 S
C500 C501 1.376 . S
C501 H488 0.930 . S
C501 C500 1.376 . S
C501 C502 1.388 . S
C502 H489 0.930 . S
C502 C501 1.388 . S
C502 C503 1.390 . S
C503 C502 1.390 . S
C503 C504 1.395 . S
C503 C509 1.465 . S
C504 C499 1.399 1_554 S
C504 C503 1.395 . S
C504 C505 1.515 1_554 S
C505 C504 1.515 1_556 S
C505 C506 1.502 . S
C505 C507 1.561 . S
C505 C508 1.528 . S
C506 H490 0.959 . S
C506 H491 0.959 . S
C506 H492 0.961 . S
C506 C505 1.502 . S
C507 H493 0.960 . S
C507 H494 0.961 . S
C507 H495 0.959 . S
C507 C505 1.561 . S
C508 C505 1.528 . S
C508 C509 1.393 1_556 S
C508 C513 1.390 . S
C509 C503 1.465 . S
C509 C508 1.393 1_554 S
C509 C510 1.399 . S
C510 H496 0.929 . S
C510 C509 1.399 . S
C510 C511 1.385 . S
C511 H497 0.931 . S
C511 C510 1.385 . S
C511 C512 1.389 . S
C512 C511 1.389 . S
C512 C513 1.387 1_554 S
C513 H498 0.930 . S
C513 C508 1.390 . S
C513 C512 1.387 1_556 S
C215 C174 1.849 . S
C203 C15 1.953 1_655 S
C242 C170 1.373 . S
C230 C68 1.463 . S
C269 C180 1.904 1_655 S
C257 C8 1.960 1_655 S
C296 C164 1.410 1_565 S
C284 C61 1.473 1_565 S
C311 C1 2.086 1_455 S
C323 C156 1.980 . S
C350 C188 1.532 . S
C338 C54 1.579 1_565 S
C365 C22 2.072 1_455 S
C377 C142 1.950 . S
C392 C47 1.581 1_545 S
C404 C186 1.533 . S
C419 C93 0.999 . S
C431 C168 1.017 . S
C446 C114 1.018 . S
C458 C183 0.976 . S
C485 C177 0.979 . S
C473 C100 1.018 . S
C512 C172 0.967 . S
C500 C107 1.032 . S
