# Generated by pormake.
# Topology ctn, (3,4)-cn, num edge types: 1
# Building blocks:
#     Node 0, Type 0, BuildingBlock: ESEHIV_clean_linker_0, # of connection points: 3
#     Node 1, Type 0, BuildingBlock: ESEHIV_clean_linker_0, # of connection points: 3
#     Node 2, Type 0, BuildingBlock: ESEHIV_clean_linker_0, # of connection points: 3
#     Node 3, Type 0, BuildingBlock: ESEHIV_clean_linker_0, # of connection points: 3
#     Node 4, Type 0, BuildingBlock: ESEHIV_clean_linker_0, # of connection points: 3
#     Node 5, Type 0, BuildingBlock: ESEHIV_clean_linker_0, # of connection points: 3
#     Node 6, Type 0, BuildingBlock: ESEHIV_clean_linker_0, # of connection points: 3
#     Node 7, Type 0, BuildingBlock: ESEHIV_clean_linker_0, # of connection points: 3
#     Node 8, Type 0, BuildingBlock: ESEHIV_clean_linker_0, # of connection points: 3
#     Node 9, Type 0, BuildingBlock: ESEHIV_clean_linker_0, # of connection points: 3
#     Node 10, Type 0, BuildingBlock: ESEHIV_clean_linker_0, # of connection points: 3
#     Node 11, Type 0, BuildingBlock: ESEHIV_clean_linker_0, # of connection points: 3
#     Node 12, Type 0, BuildingBlock: ESEHIV_clean_linker_0, # of connection points: 3
#     Node 13, Type 0, BuildingBlock: ESEHIV_clean_linker_0, # of connection points: 3
#     Node 14, Type 0, BuildingBlock: ESEHIV_clean_linker_0, # of connection points: 3
#     Node 15, Type 0, BuildingBlock: ESEHIV_clean_linker_0, # of connection points: 3
#     Node 16, Type 1, BuildingBlock: QUQFOY_clean_sbu_1, # of connection points: 4
#     Node 17, Type 1, BuildingBlock: QUQFOY_clean_sbu_1, # of connection points: 4
#     Node 18, Type 1, BuildingBlock: QUQFOY_clean_sbu_1, # of connection points: 4
#     Node 19, Type 1, BuildingBlock: QUQFOY_clean_sbu_1, # of connection points: 4
#     Node 20, Type 1, BuildingBlock: QUQFOY_clean_sbu_1, # of connection points: 4
#     Node 21, Type 1, BuildingBlock: QUQFOY_clean_sbu_1, # of connection points: 4
#     Node 22, Type 1, BuildingBlock: QUQFOY_clean_sbu_1, # of connection points: 4
#     Node 23, Type 1, BuildingBlock: QUQFOY_clean_sbu_1, # of connection points: 4
#     Node 24, Type 1, BuildingBlock: QUQFOY_clean_sbu_1, # of connection points: 4
#     Node 25, Type 1, BuildingBlock: QUQFOY_clean_sbu_1, # of connection points: 4
#     Node 26, Type 1, BuildingBlock: QUQFOY_clean_sbu_1, # of connection points: 4
#     Node 27, Type 1, BuildingBlock: QUQFOY_clean_sbu_1, # of connection points: 4
#     Edge 28, Type (0, 1), BuildingBlock: XIVTED_clean_linker_0, # of connection points: 2
#     Edge 29, Type (0, 1), BuildingBlock: XIVTED_clean_linker_0, # of connection points: 2
#     Edge 30, Type (0, 1), BuildingBlock: XIVTED_clean_linker_0, # of connection points: 2
#     Edge 31, Type (0, 1), BuildingBlock: XIVTED_clean_linker_0, # of connection points: 2
#     Edge 32, Type (0, 1), BuildingBlock: XIVTED_clean_linker_0, # of connection points: 2
#     Edge 33, Type (0, 1), BuildingBlock: XIVTED_clean_linker_0, # of connection points: 2
#     Edge 34, Type (0, 1), BuildingBlock: XIVTED_clean_linker_0, # of connection points: 2
#     Edge 35, Type (0, 1), BuildingBlock: XIVTED_clean_linker_0, # of connection points: 2
#     Edge 36, Type (0, 1), BuildingBlock: XIVTED_clean_linker_0, # of connection points: 2
#     Edge 37, Type (0, 1), BuildingBlock: XIVTED_clean_linker_0, # of connection points: 2
#     Edge 38, Type (0, 1), BuildingBlock: XIVTED_clean_linker_0, # of connection points: 2
#     Edge 39, Type (0, 1), BuildingBlock: XIVTED_clean_linker_0, # of connection points: 2
#     Edge 40, Type (0, 1), BuildingBlock: XIVTED_clean_linker_0, # of connection points: 2
#     Edge 41, Type (0, 1), BuildingBlock: XIVTED_clean_linker_0, # of connection points: 2
#     Edge 42, Type (0, 1), BuildingBlock: XIVTED_clean_linker_0, # of connection points: 2
#     Edge 43, Type (0, 1), BuildingBlock: XIVTED_clean_linker_0, # of connection points: 2
#     Edge 44, Type (0, 1), BuildingBlock: XIVTED_clean_linker_0, # of connection points: 2
#     Edge 45, Type (0, 1), BuildingBlock: XIVTED_clean_linker_0, # of connection points: 2
#     Edge 46, Type (0, 1), BuildingBlock: XIVTED_clean_linker_0, # of connection points: 2
#     Edge 47, Type (0, 1), BuildingBlock: XIVTED_clean_linker_0, # of connection points: 2
#     Edge 48, Type (0, 1), BuildingBlock: XIVTED_clean_linker_0, # of connection points: 2
#     Edge 49, Type (0, 1), BuildingBlock: XIVTED_clean_linker_0, # of connection points: 2
#     Edge 50, Type (0, 1), BuildingBlock: XIVTED_clean_linker_0, # of connection points: 2
#     Edge 51, Type (0, 1), BuildingBlock: XIVTED_clean_linker_0, # of connection points: 2
#     Edge 52, Type (0, 1), BuildingBlock: XIVTED_clean_linker_0, # of connection points: 2
#     Edge 53, Type (0, 1), BuildingBlock: XIVTED_clean_linker_0, # of connection points: 2
#     Edge 54, Type (0, 1), BuildingBlock: XIVTED_clean_linker_0, # of connection points: 2
#     Edge 55, Type (0, 1), BuildingBlock: XIVTED_clean_linker_0, # of connection points: 2
#     Edge 56, Type (0, 1), BuildingBlock: XIVTED_clean_linker_0, # of connection points: 2
#     Edge 57, Type (0, 1), BuildingBlock: XIVTED_clean_linker_0, # of connection points: 2
#     Edge 58, Type (0, 1), BuildingBlock: XIVTED_clean_linker_0, # of connection points: 2
#     Edge 59, Type (0, 1), BuildingBlock: XIVTED_clean_linker_0, # of connection points: 2
#     Edge 60, Type (0, 1), BuildingBlock: XIVTED_clean_linker_0, # of connection points: 2
#     Edge 61, Type (0, 1), BuildingBlock: XIVTED_clean_linker_0, # of connection points: 2
#     Edge 62, Type (0, 1), BuildingBlock: XIVTED_clean_linker_0, # of connection points: 2
#     Edge 63, Type (0, 1), BuildingBlock: XIVTED_clean_linker_0, # of connection points: 2
#     Edge 64, Type (0, 1), BuildingBlock: XIVTED_clean_linker_0, # of connection points: 2
#     Edge 65, Type (0, 1), BuildingBlock: XIVTED_clean_linker_0, # of connection points: 2
#     Edge 66, Type (0, 1), BuildingBlock: XIVTED_clean_linker_0, # of connection points: 2
#     Edge 67, Type (0, 1), BuildingBlock: XIVTED_clean_linker_0, # of connection points: 2
#     Edge 68, Type (0, 1), BuildingBlock: XIVTED_clean_linker_0, # of connection points: 2
#     Edge 69, Type (0, 1), BuildingBlock: XIVTED_clean_linker_0, # of connection points: 2
#     Edge 70, Type (0, 1), BuildingBlock: XIVTED_clean_linker_0, # of connection points: 2
#     Edge 71, Type (0, 1), BuildingBlock: XIVTED_clean_linker_0, # of connection points: 2
#     Edge 72, Type (0, 1), BuildingBlock: XIVTED_clean_linker_0, # of connection points: 2
#     Edge 73, Type (0, 1), BuildingBlock: XIVTED_clean_linker_0, # of connection points: 2
#     Edge 74, Type (0, 1), BuildingBlock: XIVTED_clean_linker_0, # of connection points: 2
#     Edge 75, Type (0, 1), BuildingBlock: XIVTED_clean_linker_0, # of connection points: 2
# Relax obj value: 0.037
# Max RMSD: 0.144
# Mean RMSD: 0.066
data_MOF--net-ctn--node1-QUQFOY_clean_sbu_1--node2-ESEHIV_clean_linker_0--edge1-XIVTED_clean_linker_0
_symmetry_space_group_name_H-M    P1
_symmetry_Int_Tables_number       1
_symmetry_cell_setting            triclinic
loop_
_symmetry_equiv_pos_as_xyz
'x, y, z'
_cell_length_a     52.386946
_cell_length_b     52.269819
_cell_length_c     52.427927
_cell_angle_alpha  92.93351
_cell_angle_beta   90.212725
_cell_angle_gamma 94.614196
loop_
_atom_site_label
_atom_site_type_symbol
_atom_site_fract_x
_atom_site_fract_y
_atom_site_fract_z
_atom_type_partial_charge
H0 H 0.01893 0.11716 0.07694 0.0
H1 H 0.0529 0.05048 0.10186 0.0
H2 H 0.08076 0.08642 0.03454 0.0
C3 C 0.03366 0.10377 0.07507 0.0
C4 C 0.05022 0.10466 0.05403 0.0
C5 C 0.03437 0.08422 0.09232 0.0
C6 C 0.05267 0.06618 0.08912 0.0
C7 C 0.0697 0.06726 0.06864 0.0
C8 C 0.0687 0.08671 0.05131 0.0
H9 H 0.27223 0.71807 0.24946 0.0
H10 H 0.28966 0.77934 0.19911 0.0
H11 H 0.21522 0.73817 0.1964 0.0
C12 C 0.26636 0.73008 0.23462 0.0
C13 C 0.24151 0.72594 0.22434 0.0
C14 C 0.28392 0.7492 0.22566 0.0
C15 C 0.27617 0.7648 0.20655 0.0
C16 C 0.25147 0.76073 0.1959 0.0
C17 C 0.23426 0.74123 0.20472 0.0
H18 H 0.94213 0.48905 0.11012 0.0
H19 H 0.97527 0.41966 0.08445 0.0
H20 H 0.92429 0.4548 0.03519 0.0
C21 C 0.94398 0.47377 0.09568 0.0
C22 C 0.93066 0.47407 0.0724 0.0
C23 C 0.96034 0.45437 0.10012 0.0
C24 C 0.96267 0.43467 0.08127 0.0
C25 C 0.94967 0.43479 0.05788 0.0
C26 C 0.9338 0.45451 0.05356 0.0
H27 H 0.70269 0.76911 0.2495 0.0
H28 H 0.7723 0.81617 0.23757 0.0
H29 H 0.72007 0.83869 0.29585 0.0
C30 C 0.71599 0.78528 0.25551 0.0
C31 C 0.70907 0.80289 0.27494 0.0
C32 C 0.73876 0.79014 0.24188 0.0
C33 C 0.755 0.81217 0.24846 0.0
C34 C 0.74834 0.82986 0.2678 0.0
C35 C 0.72572 0.8247 0.28141 0.0
H36 H 0.03382 0.94267 0.42647 0.0
H37 H 0.09158 0.00227 0.40977 0.0
H38 H 0.10209 0.95482 0.47291 0.0
C39 C 0.05259 0.95243 0.43032 0.0
C40 C 0.06707 0.94585 0.45128 0.0
C41 C 0.06127 0.97287 0.41545 0.0
C42 C 0.08523 0.98594 0.42075 0.0
C43 C 0.10017 0.9793 0.44127 0.0
C44 C 0.09106 0.95916 0.45637 0.0
H45 H 0.18265 0.76731 0.77161 0.0
H46 H 0.23239 0.71926 0.80886 0.0
H47 H 0.20868 0.70059 0.73115 0.0
C48 C 0.19408 0.75093 0.77098 0.0
C49 C 0.19413 0.73481 0.74868 0.0
C50 C 0.2078 0.7455 0.7928 0.0
C51 C 0.22205 0.72389 0.79198 0.0
C52 C 0.22261 0.70772 0.76984 0.0
C53 C 0.20875 0.71334 0.74812 0.0
H54 H 0.90019 0.56886 0.51036 0.0
H55 H 0.97432 0.58087 0.4762 0.0
H56 H 0.92754 0.51073 0.45869 0.0
C57 C 0.91479 0.5623 0.49756 0.0
C58 C 0.91109 0.53806 0.48473 0.0
C59 C 0.93772 0.57763 0.49484 0.0
C60 C 0.95686 0.56872 0.47887 0.0
C61 C 0.9533 0.54467 0.46568 0.0
C62 C 0.93039 0.52938 0.46877 0.0
H63 H 0.77734 0.8279 0.85651 0.0
H64 H 0.80557 0.85047 0.78344 0.0
H65 H 0.84722 0.80038 0.82774 0.0
C66 C 0.79187 0.82751 0.84187 0.0
C67 C 0.81247 0.81226 0.84459 0.0
C68 C 0.78942 0.84164 0.82004 0.0
C69 C 0.80759 0.83992 0.80049 0.0
C70 C 0.82835 0.82474 0.80289 0.0
C71 C 0.8308 0.81137 0.82523 0.0
H72 H 0.26783 0.33744 0.34662 0.0
H73 H 0.30043 0.35109 0.27289 0.0
H74 H 0.32991 0.29494 0.31971 0.0
C75 C 0.28118 0.33287 0.33167 0.0
C76 C 0.29856 0.31443 0.33577 0.0
C77 C 0.28116 0.34579 0.30879 0.0
C78 C 0.29991 0.34097 0.2904 0.0
C79 C 0.31813 0.32323 0.29458 0.0
C80 C 0.31688 0.30967 0.31705 0.0
H81 H 0.43966 -0.00204 0.5987 0.0
H82 H 0.46728 0.92545 0.57397 0.0
H83 H 0.40851 0.95722 0.53103 0.0
C84 C 0.43841 0.98096 0.58587 0.0
C85 C 0.42196 0.97974 0.56466 0.0
C86 C 0.45483 0.96141 0.58942 0.0
C87 C 0.45376 0.93991 0.57213 0.0
C88 C 0.43724 0.93846 0.55087 0.0
C89 C 0.42105 0.95815 0.54762 0.0
H90 H 0.21251 0.24585 0.75135 0.0
H91 H 0.28313 0.28453 0.72675 0.0
H92 H 0.24361 0.3149 0.79171 0.0
C93 C 0.2278 0.26098 0.75418 0.0
C94 C 0.22591 0.27997 0.77383 0.0
C95 C 0.24843 0.26244 0.73707 0.0
C96 C 0.26763 0.28276 0.74033 0.0
C97 C 0.26606 0.30179 0.76002 0.0
C98 C 0.2454 0.29991 0.77692 0.0
H99 H 0.80561 0.19425 0.75175 0.0
H100 H 0.82198 0.26024 0.70701 0.0
H101 H 0.74873 0.21701 0.70012 0.0
C102 C 0.79975 0.20723 0.73777 0.0
C103 C 0.77526 0.20308 0.72669 0.0
C104 C 0.81678 0.2278 0.73086 0.0
C105 C 0.80894 0.24443 0.71268 0.0
C106 C 0.78437 0.24073 0.70163 0.0
C107 C 0.76762 0.22007 0.70879 0.0
H108 H 0.49952 0.62954 0.56546 0.0
H109 H 0.53978 0.56849 0.59379 0.0
H110 H 0.55983 0.59879 0.52102 0.0
C111 C 0.51481 0.61679 0.56339 0.0
C112 C 0.52964 0.61658 0.54116 0.0
C113 C 0.51889 0.5999 0.58259 0.0
C114 C 0.53791 0.58262 0.57961 0.0
C115 C 0.55253 0.58176 0.55723 0.0
C116 C 0.54883 0.59944 0.53848 0.0
H117 H 0.51449 0.47223 0.96664 0.0
H118 H 0.56663 0.53453 0.94412 0.0
H119 H 0.58514 0.49108 0.00815 0.0
C120 C 0.53231 0.48409 0.96957 0.0
C121 C 0.54905 0.47915 0.98942 0.0
C122 C 0.53856 0.50396 0.95314 0.0
C123 C 0.56181 0.51895 0.95658 0.0
C124 C 0.57872 0.51428 0.97628 0.0
C125 C 0.57238 0.49423 0.9925 0.0
H126 H 0.67541 0.2742 0.29073 0.0
H127 H 0.73595 0.24002 0.32851 0.0
H128 H 0.71573 0.21606 0.25078 0.0
C129 C 0.69072 0.26141 0.29018 0.0
C130 C 0.69463 0.2463 0.26782 0.0
C131 C 0.70514 0.25882 0.31231 0.0
C132 C 0.7242 0.24147 0.31167 0.0
C133 C 0.72811 0.22577 0.28971 0.0
C134 C 0.71329 0.22838 0.26771 0.0
H135 H 0.39882 0.08024 0.98757 0.0
H136 H 0.4681 0.09985 0.94673 0.0
H137 H 0.41997 0.03205 0.92347 0.0
C138 C 0.41189 0.07621 0.97216 0.0
C139 C 0.4066 0.05448 0.95566 0.0
C140 C 0.4339 0.09278 0.9689 0.0
C141 C 0.45061 0.08759 0.9488 0.0
C142 C 0.44579 0.06556 0.93253 0.0
C143 C 0.42361 0.04923 0.93586 0.0
O144 O 0.22542 0.85536 0.97003 0.0
Cd145 Cd 0.23379 0.8793 0.00187 0.0
Cd146 Cd 0.20263 0.90723 0.9782 0.0
O147 O 0.19356 0.87508 0.95484 0.0
O148 O 0.2516 0.85641 0.02371 0.0
O149 O 0.2158 0.87351 0.03523 0.0
C150 C 0.23363 0.85878 0.04014 0.0
C151 C 0.17218 0.92845 0.00057 0.0
C152 C 0.20754 0.85634 0.95379 0.0
C153 C 0.25661 0.92836 0.98236 0.0
O154 O 0.23563 0.92929 0.97038 0.0
O155 O 0.25926 0.91083 -0.00215 0.0
O156 O 0.17395 0.92944 0.9761 0.0
O157 O 0.18714 0.91441 0.01237 0.0
O158 O 0.15455 0.55662 0.30332 0.0
Cd159 Cd 0.14059 0.52136 0.31495 0.0
Cd160 Cd 0.10199 0.52557 0.28041 0.0
O161 O 0.12538 0.55802 0.27304 0.0
O162 O 0.16874 0.5025 0.32792 0.0
O163 O 0.14665 0.49047 0.29237 0.0
C164 C 0.16449 0.48652 0.30848 0.0
C165 C 0.07683 0.50735 0.24644 0.0
C166 C 0.14534 0.56781 0.28483 0.0
C167 C 0.08904 0.52099 0.33676 0.0
O168 O 0.08193 0.52348 0.31394 0.0
O169 O 0.11251 0.51978 0.34204 0.0
O170 O 0.07257 0.52908 0.25749 0.0
O171 O 0.09637 0.49608 0.25392 0.0
O172 O 0.78414 0.7003 0.00559 0.0
Cd173 Cd 0.76665 0.67785 0.03261 0.0
Cd174 Cd 0.79498 0.6415 0.00773 0.0
O175 O 0.80624 0.6715 0.98528 0.0
O176 O 0.75003 0.70375 0.05427 0.0
O177 O 0.7788 0.67959 0.06933 0.0
C178 C 0.7633 0.69735 0.07329 0.0
C179 C 0.8249 0.61423 0.02056 0.0
C180 C 0.79929 0.69421 0.98784 0.0
C181 C 0.73765 0.63075 0.00916 0.0
O182 O 0.75908 0.62324 0.00216 0.0
O183 O 0.73643 0.65219 0.02138 0.0
O184 O 0.81688 0.61372 -0.00272 0.0
O185 O 0.81678 0.63126 0.03662 0.0
O186 O 0.91601 0.02528 0.2897 0.0
Cd187 Cd 0.88794 0.0346 0.26503 0.0
Cd188 Cd 0.86903 0.05043 0.30799 0.0
O189 O 0.90506 0.04884 0.32324 0.0
O190 O 0.90313 0.02492 0.23182 0.0
O191 O 0.89603 0.06498 0.24319 0.0
C192 C 0.9049 0.04879 0.22676 0.0
C193 C 0.84897 0.08801 0.30526 0.0
C194 C 0.9207 0.03467 0.31219 0.0
C195 C 0.84194 0.00439 0.2829 0.0
O196 O 0.84631 0.01632 0.30438 0.0
O197 O 0.85451 0.01128 0.26342 0.0
O198 O 0.84978 0.07657 0.32649 0.0
O199 O 0.86058 0.07848 0.28567 0.0
O200 O 0.26175 0.19393 0.49293 0.0
Cd201 Cd 0.25383 0.16631 0.51918 0.0
Cd202 Cd 0.28908 0.14275 0.49373 0.0
O203 O 0.29589 0.17722 0.47693 0.0
O204 O 0.23467 0.18285 0.54715 0.0
O205 O 0.27289 0.16854 0.55258 0.0
C206 C 0.25351 0.17936 0.56214 0.0
C207 C 0.32192 0.12242 0.51164 0.0
C208 C 0.28093 0.19517 0.47815 0.0
C209 C 0.2368 0.11674 0.49118 0.0
O210 O 0.25869 0.11803 0.48084 0.0
O211 O 0.23145 0.13351 0.50825 0.0
O212 O 0.31954 0.12346 0.48723 0.0
O213 O 0.3062 0.13417 0.52611 0.0
O214 O 0.41993 0.52088 0.79043 0.0
Cd215 Cd 0.39574 0.51849 0.7592 0.0
Cd216 Cd 0.36192 0.53111 0.7936 0.0
O217 O 0.39275 0.5362 0.81815 0.0
O218 O 0.41814 0.51741 0.72882 0.0
O219 O 0.3946 0.54987 0.73876 0.0
C220 C 0.41086 0.53957 0.72382 0.0
C221 C 0.33589 0.56412 0.7871 0.0
C222 C 0.41494 0.52938 0.81285 0.0
C223 C 0.35318 0.47881 0.76867 0.0
O224 O 0.34673 0.49395 0.7868 0.0
O225 O 0.37131 0.48571 0.75388 0.0
O226 O 0.3341 0.55131 0.80751 0.0
O227 O 0.3529 0.55837 0.77045 0.0
O228 O 0.70903 0.35282 0.49417 0.0
Cd229 Cd 0.72492 0.37321 0.5257 0.0
Cd230 Cd 0.6951 0.4113 0.50516 0.0
O231 O 0.68623 0.382 0.47817 0.0
O232 O 0.74651 0.34743 0.5391 0.0
O233 O 0.71545 0.36343 0.56156 0.0
C234 C 0.73386 0.34845 0.56003 0.0
C235 C 0.66307 0.4377 0.51732 0.0
C236 C 0.69418 0.35966 0.47704 0.0
C237 C 0.75177 0.42373 0.51059 0.0
O238 O 0.73047 0.43081 0.50327 0.0
O239 O 0.7531 0.40205 0.52012 0.0
O240 O 0.67252 0.43753 0.49472 0.0
O241 O 0.67129 0.42211 0.53321 0.0
O242 O 0.66085 0.04015 0.79333 0.0
Cd243 Cd 0.63861 0.00771 0.80282 0.0
Cd244 Cd 0.61031 0.01875 0.76155 0.0
O245 O 0.64301 0.04179 0.75544 0.0
O246 O 0.6604 0.9891 0.82523 0.0
O247 O 0.64698 0.97369 0.7869 0.0
C248 C 0.66017 0.97116 0.80739 0.0
C249 C 0.58798 0.0033 0.72462 0.0
C250 C 0.66028 0.04975 0.77161 0.0
C251 C 0.5866 0.02323 0.81363 0.0
O252 O 0.58628 0.02927 0.79051 0.0
O253 O 0.60518 0.01207 0.82231 0.0
O254 O 0.59019 0.02728 0.73165 0.0
O255 O 0.59891 0.98757 0.73847 0.0
O256 O 0.98089 0.28329 0.91915 0.0
Cd257 Cd 0.99028 0.25291 0.89527 0.0
Cd258 Cd 0.01337 0.29017 0.86991 0.0
O259 O 0.00446 0.31363 0.9005 0.0
O260 O 0.9804 0.22262 0.9153 0.0
O261 O 0.02056 0.23414 0.90539 0.0
C262 C 0.00435 0.21894 0.917 0.0
C263 C 0.0555 0.28796 0.85768 0.0
C264 C 0.98969 0.3066 0.9184 0.0
C265 C 0.97048 0.2602 0.84268 0.0
O266 O 0.98545 0.28054 0.84286 0.0
O267 O 0.97061 0.24542 0.86117 0.0
O268 O 0.04295 0.30737 0.85258 0.0
O269 O 0.04406 0.26977 0.87022 0.0
O270 O 0.45711 0.78915 0.40623 0.0
Cd271 Cd 0.46502 0.75948 0.38081 0.0
Cd272 Cd 0.48813 0.79714 0.35593 0.0
O273 O 0.48047 0.81969 0.38768 0.0
O274 O 0.45584 0.72868 0.4003 0.0
O275 O 0.49556 0.74031 0.3889 0.0
C276 C 0.47985 0.725 0.40098 0.0
C277 C 0.53002 0.79599 0.34229 0.0
C278 C 0.46635 0.81234 0.40596 0.0
C279 C 0.44369 0.76884 0.3294 0.0
O280 O 0.45926 0.78874 0.32958 0.0
O281 O 0.44397 0.75351 0.34742 0.0
O282 O 0.5169 0.81525 0.33816 0.0
O283 O 0.51923 0.77717 0.35443 0.0
O284 O 0.97227 0.78837 0.66493 0.0
Cd285 Cd -0.00206 0.77531 0.63848 0.0
Cd286 Cd 0.96784 0.8008 0.60724 0.0
O287 O 0.95009 0.8117 0.6404 0.0
O288 O 0.01964 0.7552 0.65964 0.0
O289 O 0.03533 0.78885 0.6393 0.0
C290 C 0.03915 0.77005 0.65351 0.0
C291 C 0.98745 0.83082 0.58138 0.0
C292 C 0.95458 0.80329 0.66212 0.0
C293 C 0.96865 0.74557 0.59471 0.0
O294 O 0.9572 0.76532 0.59012 0.0
O295 O 0.98567 0.74661 0.61208 0.0
O296 O 0.96284 0.8265 0.58172 0.0
O297 O 0.00101 0.81847 0.59652 0.0
O298 O 0.47087 0.27304 0.17161 0.0
Cd299 Cd 0.49825 0.26027 0.14702 0.0
Cd300 Cd 0.47934 0.29411 0.115 0.0
O301 O 0.4543 0.29843 0.14476 0.0
O302 O 0.5208 0.24068 0.1678 0.0
O303 O 0.53452 0.27621 0.1491 0.0
C304 C 0.53937 0.25735 0.16289 0.0
C305 C 0.49503 0.33149 0.09623 0.0
C306 C 0.45429 0.28846 0.16634 0.0
C307 C 0.47788 0.23925 0.09584 0.0
O308 O 0.47399 0.26207 0.09073 0.0
O309 O 0.48684 0.23447 0.11746 0.0
O310 O 0.47162 0.32232 0.09316 0.0
O311 O 0.50987 0.31941 0.11029 0.0
H312 H 0.16596 0.76735 0.8134 0.0
H313 H 0.23895 0.81836 0.94193 0.0
H314 H 0.24632 0.76004 0.82734 0.0
H315 H 0.17058 0.85062 0.91615 0.0
H316 H 0.23785 0.79032 0.90331 0.0
H317 H 0.16406 0.79272 0.85376 0.0
C318 C 0.18326 0.77123 0.82477 0.0
C319 C 0.20638 0.76156 0.81687 0.0
C320 C 0.22302 0.80344 0.90618 0.0
C321 C 0.20404 0.78988 0.86335 0.0
C322 C 0.22351 0.81936 0.9283 0.0
C323 C 0.20495 0.83706 0.93217 0.0
C324 C 0.20373 0.80504 0.88786 0.0
C325 C 0.18538 0.83739 0.91384 0.0
C326 C 0.18206 0.78553 0.84789 0.0
C327 C 0.228 0.76674 0.83277 0.0
N328 N 0.18532 0.82166 0.89238 0.0
N329 N 0.22627 0.78046 0.85528 0.0
H330 H 0.94662 0.52265 0.41752 0.0
H331 H 0.09662 0.52521 0.38872 0.0
H332 H 0.00517 0.54744 0.47358 0.0
H333 H 0.03721 0.51452 0.33093 0.0
H334 H 0.06353 0.52658 0.42156 0.0
H335 H 0.9799 0.5123 0.38714 0.0
C336 C 0.96649 0.52557 0.42354 0.0
C337 C 0.97319 0.53611 0.44799 0.0
C338 C 0.05781 0.52377 0.40168 0.0
C339 C 0.01136 0.52467 0.41327 0.0
C340 C 0.07665 0.52295 0.38296 0.0
C341 C 0.06964 0.52006 0.35706 0.0
C342 C 0.03186 0.52151 0.39438 0.0
C343 C 0.0435 0.51712 0.35065 0.0
C344 C 0.98548 0.51983 0.40615 0.0
C345 C -0.00076 0.53974 0.45473 0.0
N346 N 0.02558 0.51803 0.36917 0.0
N347 N 0.01742 0.53416 0.43739 0.0
H348 H 0.80284 0.82573 0.89476 0.0
H349 H 0.82537 0.68654 0.9432 0.0
H350 H 0.82655 0.76302 0.84598 0.0
H351 H 0.79025 0.74508 0.98882 0.0
H352 H 0.8325 0.71677 0.90943 0.0
H353 H 0.80392 0.79852 0.93125 0.0
C354 C 0.80829 0.80626 0.89172 0.0
C355 C 0.81444 0.7966 0.86723 0.0
C356 C 0.82344 0.72305 0.92693 0.0
C357 C 0.81602 0.76548 0.90893 0.0
C358 C 0.81945 0.70584 0.94627 0.0
C359 C 0.8069 0.71318 0.96876 0.0
C360 C 0.81485 0.74778 0.93012 0.0
C361 C 0.79974 0.73848 0.97169 0.0
C362 C 0.80905 0.79079 0.91257 0.0
C363 C 0.82187 0.77138 0.86452 0.0
N364 N 0.80363 0.7548 0.95251 0.0
N365 N 0.82232 0.75666 0.88508 0.0
H366 H 0.03389 0.9463 0.37666 0.0
H367 H 0.94285 0.05743 0.35605 0.0
H368 H 0.04809 0.02194 0.41322 0.0
H369 H 0.95064 -0.00423 0.29928 0.0
H370 H 0.97961 0.04357 0.37921 0.0
H371 H 0.00132 0.96279 0.34953 0.0
C372 C 0.0303 0.96642 0.37871 0.0
C373 C 0.04368 0.98285 0.39701 0.0
C374 C 0.97335 0.03325 0.36155 0.0
C375 C 0.00636 0.00166 0.36662 0.0
C376 C 0.95235 0.04108 0.34841 0.0
C377 C 0.94365 0.0277 0.32577 0.0
C378 C 0.98537 0.01164 0.3522 0.0
C379 C 0.95673 0.00668 0.31666 0.0
C380 C 0.01182 0.97583 0.36327 0.0
C381 C 0.03836 0.00876 0.39908 0.0
N382 N 0.97677 -0.00088 0.33005 0.0
N383 N 0.01987 0.01733 0.38427 0.0
H384 H 0.20765 0.24641 0.70602 0.0
H385 H 0.29198 0.18076 0.59807 0.0
H386 H 0.28876 0.23949 0.71462 0.0
H387 H 0.21316 0.19712 0.58826 0.0
H388 H 0.29027 0.19696 0.64271 0.0
H389 H 0.2083 0.22233 0.66514 0.0
C390 C 0.22554 0.23938 0.69957 0.0
C391 C 0.24821 0.24503 0.71379 0.0
C392 C 0.27334 0.19685 0.63078 0.0
C393 C 0.24922 0.21796 0.66648 0.0
C394 C 0.2743 0.18761 0.60533 0.0
C395 C 0.25275 0.18783 0.58939 0.0
C396 C 0.25063 0.20619 0.64027 0.0
C397 C 0.23032 0.19682 0.59978 0.0
C398 C 0.22595 0.22584 0.67603 0.0
C399 C 0.27091 0.23584 0.70412 0.0
N400 N 0.22988 0.2057 0.62452 0.0
N401 N 0.27088 0.2229 0.68094 0.0
H402 H 0.52841 0.60753 0.63384 0.0
H403 H 0.41149 0.5214 0.67465 0.0
H404 H 0.46827 0.5853 0.57888 0.0
H405 H 0.43599 0.58719 0.7242 0.0
H406 H 0.43511 0.54127 0.63944 0.0
H407 H 0.49811 0.59754 0.66848 0.0
C408 C 0.50872 0.60094 0.62919 0.0
C409 C 0.5006 0.59725 0.6037 0.0
C410 C 0.43492 0.55153 0.65791 0.0
C411 C 0.46649 0.58529 0.64266 0.0
C412 C 0.42156 0.54024 0.67789 0.0
C413 C 0.4218 0.5529 0.70205 0.0
C414 C 0.44936 0.5751 0.66253 0.0
C415 C 0.43526 0.5771 0.70562 0.0
C416 C 0.49153 0.59538 0.64882 0.0
C417 C 0.47506 0.5885 0.59841 0.0
N418 N 0.44906 0.58728 0.68612 0.0
N419 N 0.45896 0.58231 0.61775 0.0
H420 H 0.73889 0.26286 0.69742 0.0
H421 H 0.77539 0.32084 0.56326 0.0
H422 H 0.81201 0.25727 0.66081 0.0
H423 H 0.70874 0.34122 0.60551 0.0
H424 H 0.7876 0.2956 0.59827 0.0
H425 H 0.72607 0.28989 0.66346 0.0
C426 C 0.75222 0.26734 0.68223 0.0
C427 C 0.77654 0.25785 0.68188 0.0
C428 C 0.77033 0.30561 0.59999 0.0
C429 C 0.76206 0.28861 0.64315 0.0
C430 C 0.76326 0.31999 0.57993 0.0
C431 C 0.74096 0.33314 0.58145 0.0
C432 C 0.75493 0.30414 0.62178 0.0
C433 C 0.72609 0.33137 0.6036 0.0
C434 C 0.74495 0.28284 0.66298 0.0
C435 C 0.79319 0.26441 0.66196 0.0
N436 N 0.7333 0.31701 0.62293 0.0
N437 N 0.78558 0.27926 0.64334 0.0
H438 H 0.4717 0.92705 0.62262 0.0
H439 H 0.57594 0.03191 0.68549 0.0
H440 H 0.4861 0.00481 0.59919 0.0
H441 H 0.56399 0.95533 0.71259 0.0
H442 H 0.54543 0.02008 0.65118 0.0
H443 H 0.50713 0.93498 0.6537 0.0
C444 C 0.48228 0.94574 0.62407 0.0
C445 C 0.47567 0.96546 0.6087 0.0
C446 C 0.54949 0.0057 0.66445 0.0
C447 C 0.51612 0.97453 0.64374 0.0
C448 C 0.56699 0.01246 0.68405 0.0
C449 C 0.57227 0.99464 0.70201 0.0
C450 C 0.53683 0.98095 0.66286 0.0
C451 C 0.56036 0.96963 0.69908 0.0
C452 C 0.50246 0.95024 0.64172 0.0
C453 C 0.49005 0.98927 0.61113 0.0
N454 N 0.54287 0.96356 0.67998 0.0
N455 N 0.50949 0.99311 0.62831 0.0
H456 H 0.8493 0.19155 0.7432 0.0
H457 H 0.95512 0.29309 0.80783 0.0
H458 H 0.84314 0.27358 0.74613 0.0
H459 H 0.9426 0.21474 0.83027 0.0
H460 H 0.92025 0.28476 0.77659 0.0
H461 H 0.88961 0.19872 0.76703 0.0
C462 C 0.85639 0.21107 0.7488 0.0
C463 C 0.84253 0.23198 0.743 0.0
C464 C 0.92535 0.26937 0.78822 0.0
C465 C 0.88895 0.24024 0.76967 0.0
C466 C 0.94529 0.27404 0.80595 0.0
C467 C 0.95156 0.25463 0.82184 0.0
C468 C 0.91186 0.24505 0.78618 0.0
C469 C 0.93818 0.23032 0.81859 0.0
C470 C 0.87947 0.21511 0.76225 0.0
C471 C 0.85315 0.25688 0.75005 0.0
N472 N 0.91887 0.22623 0.80115 0.0
N473 N 0.87568 0.26031 0.76314 0.0
H474 H 0.43861 0.88623 0.55407 0.0
H475 H 0.47422 0.86463 0.40727 0.0
H476 H 0.44227 0.94619 0.50029 0.0
H477 H 0.44648 0.80192 0.45294 0.0
H478 H 0.46608 0.89479 0.44275 0.0
H479 H 0.44478 0.85469 0.51861 0.0
C480 C 0.44057 0.89267 0.53481 0.0
C481 C 0.43969 0.91873 0.52999 0.0
C482 C 0.46167 0.87444 0.44499 0.0
C483 C 0.447 0.88313 0.48971 0.0
C484 C 0.46639 0.8572 0.42477 0.0
C485 C 0.46099 0.83074 0.42715 0.0
C486 C 0.45175 0.86516 0.4679 0.0
C487 C 0.45081 0.8222 0.45027 0.0
C488 C 0.444 0.87474 0.51465 0.0
C489 C 0.44239 0.9262 0.50476 0.0
N490 N 0.44664 0.83938 0.46986 0.0
N491 N 0.44606 0.90852 0.48561 0.0
H492 H 0.19979 0.32201 0.78506 0.0
H493 H 0.08505 0.24682 0.85761 0.0
H494 H 0.19742 0.2406 0.79622 0.0
H495 H 0.08606 0.32574 0.83675 0.0
H496 H 0.12793 0.24454 0.83934 0.0
H497 H 0.16 0.32408 0.80828 0.0
C498 C 0.19107 0.30458 0.79275 0.0
C499 C 0.2021 0.28112 0.78891 0.0
C500 C 0.11875 0.26235 0.83891 0.0
C501 C 0.15593 0.28326 0.81511 0.0
C502 C 0.09436 0.2637 0.84939 0.0
C503 C 0.08194 0.28646 0.84854 0.0
C504 C 0.13073 0.28397 0.82771 0.0
C505 C 0.09482 0.30774 0.83766 0.0
C506 C 0.16816 0.30574 0.80584 0.0
C507 C 0.18948 0.25905 0.7987 0.0
N508 N 0.11844 0.30594 0.82764 0.0
N509 N 0.16698 0.26064 0.81136 0.0
H510 H 0.48212 0.62177 0.52199 0.0
H511 H 0.52927 0.71827 0.41534 0.0
H512 H 0.56192 0.64522 0.51038 0.0
H513 H 0.45099 0.68771 0.42452 0.0
H514 H 0.5425 0.69027 0.44826 0.0
H515 H 0.47098 0.64547 0.48538 0.0
C516 C 0.49729 0.63218 0.51187 0.0
C517 C 0.52295 0.63183 0.51942 0.0
C518 C 0.52249 0.68952 0.44282 0.0
C519 C 0.51038 0.65869 0.47704 0.0
C520 C 0.51495 0.70537 0.42394 0.0
C521 C 0.48896 0.70547 0.41738 0.0
C522 C 0.50386 0.6738 0.45514 0.0
C523 C 0.4712 0.68846 0.42915 0.0
C524 C 0.49096 0.6455 0.49076 0.0
C525 C 0.54189 0.64507 0.50516 0.0
N526 N 0.47895 0.67351 0.44759 0.0
N527 N 0.53522 0.65812 0.48468 0.0
H528 H 0.85197 0.78197 0.78679 0.0
H529 H 0.92114 0.84105 0.66695 0.0
H530 H 0.84805 0.86198 0.77126 0.0
H531 H 0.94959 0.77862 0.70663 0.0
H532 H 0.89086 0.84761 0.70182 0.0
H533 H 0.88422 0.77855 0.7538 0.0
C534 C 0.85801 0.79892 0.77664 0.0
C535 C 0.8474 0.82241 0.78212 0.0
C536 C 0.90394 0.83266 0.7029 0.0
C537 C 0.88393 0.81831 0.74374 0.0
C538 C 0.92115 0.82887 0.68305 0.0
C539 C 0.93784 0.8092 0.68387 0.0
C540 C 0.90314 0.81634 0.72336 0.0
C541 C 0.93711 0.79403 0.7052 0.0
C542 C 0.87637 0.79688 0.75772 0.0
C543 C 0.85547 0.84342 0.7676 0.0
N544 N 0.91983 0.79773 0.72396 0.0
N545 N 0.87321 0.84086 0.74897 0.0
H546 H 0.09068 0.90914 0.47648 0.0
H547 H 0.9639 0.86301 0.5514 0.0
H548 H 0.01789 0.9414 0.46862 0.0
H549 H 0.03842 0.83882 0.56964 0.0
H550 H 0.98344 0.89031 0.51943 0.0
H551 H 0.0719 0.88141 0.50898 0.0
C552 C 0.07076 0.91033 0.4815 0.0
C553 C 0.0558 0.9275 0.46964 0.0
C554 C -0.00441 0.87914 0.53046 0.0
C555 C 0.03426 0.89589 0.50668 0.0
C556 C 0.98443 0.86354 0.54876 0.0
C557 C -0.00044 0.84862 0.56321 0.0
C558 C 0.0221 0.87976 0.52639 0.0
C559 C 0.02607 0.8501 0.55896 0.0
C560 C 0.06007 0.89451 0.50002 0.0
C561 C 0.03005 0.9281 0.47677 0.0
N562 N 0.03652 0.86533 0.54082 0.0
N563 N 0.02014 0.91256 0.4948 0.0
H564 H 0.16217 0.69894 0.72227 0.0
H565 H 0.08312 0.8028 0.65618 0.0
H566 H 0.18518 0.7802 0.72729 0.0
H567 H 0.0538 0.7254 0.67068 0.0
H568 H 0.12486 0.79356 0.6737 0.0
H569 H 0.12728 0.707 0.69361 0.0
C570 C 0.16027 0.71842 0.71685 0.0
C571 C 0.17641 0.73897 0.72743 0.0
C572 C 0.10928 0.7786 0.67279 0.0
C573 C 0.13611 0.74842 0.6951 0.0
C574 C 0.08554 0.78385 0.66283 0.0
C575 C 0.06493 0.76495 0.66235 0.0
C576 C 0.11237 0.75419 0.68191 0.0
C577 C 0.06905 0.74068 0.67106 0.0
C578 C 0.14017 0.72306 0.7007 0.0
C579 C 0.17284 0.76387 0.7199 0.0
N580 N 0.09224 0.73604 0.68053 0.0
N581 N 0.15286 0.76797 0.70442 0.0
H582 H 0.98022 0.59594 0.52202 0.0
H583 H 0.92981 0.73295 0.55967 0.0
H584 H 0.90512 0.61599 0.50031 0.0
H585 H 0.99464 0.70262 0.59534 0.0
H586 H 0.9217 0.69203 0.53476 0.0
H587 H 0.9874 0.6372 0.54581 0.0
C588 C 0.9653 0.60915 0.52218 0.0
C589 C 0.94208 0.60265 0.50921 0.0
C590 C 0.93763 0.69442 0.54812 0.0
C591 C 0.95004 0.6498 0.53651 0.0
C592 C 0.9423 0.71773 0.56227 0.0
C593 C 0.96291 0.72118 0.57961 0.0
C594 C 0.95387 0.67467 0.55122 0.0
C595 C 0.97848 0.70084 0.58227 0.0
C596 C 0.96932 0.63261 0.53589 0.0
C597 C 0.92322 0.62028 0.51028 0.0
N598 N 0.97368 0.67853 0.56817 0.0
N599 N 0.92764 0.64317 0.52367 0.0
H600 H 0.76169 0.85777 0.31245 0.0
H601 H 0.82472 0.97757 0.23941 0.0
H602 H 0.76656 0.86066 0.23045 0.0
H603 H 0.82013 0.97691 0.3216 0.0
H604 H 0.80133 0.93541 0.23613 0.0
H605 H 0.78202 0.90171 0.31665 0.0
C606 C 0.76718 0.86759 0.29536 0.0
C607 C 0.76267 0.85544 0.27108 0.0
C608 C 0.80526 0.94451 0.25491 0.0
C609 C 0.78565 0.90562 0.2757 0.0
C610 C 0.81855 0.96867 0.25679 0.0
C611 C 0.82456 0.98071 0.28083 0.0
C612 C 0.79801 0.93214 0.27722 0.0
C613 C 0.81592 0.96829 0.30268 0.0
C614 C 0.77871 0.89264 0.29776 0.0
C615 C 0.77016 0.86901 0.24957 0.0
N616 N 0.80326 0.94454 0.30037 0.0
N617 N 0.78123 0.89334 0.2524 0.0
H618 H 0.76241 0.21107 0.25299 0.0
H619 H 0.82229 0.11162 0.34292 0.0
H620 H 0.73581 0.19457 0.3287 0.0
H621 H 0.84051 0.11515 0.26286 0.0
H622 H 0.79387 0.14575 0.33866 0.0
H623 H 0.79358 0.17868 0.25642 0.0
C624 C 0.76305 0.20061 0.27025 0.0
C625 C 0.74666 0.20577 0.29069 0.0
C626 C 0.80411 0.13916 0.322 0.0
C627 C 0.78234 0.16907 0.29485 0.0
C628 C 0.82046 0.11971 0.32445 0.0
C629 C 0.83369 0.11039 0.30318 0.0
C630 C 0.80088 0.14947 0.29809 0.0
C631 C 0.8306 0.12171 0.27974 0.0
C632 C 0.78092 0.18226 0.27225 0.0
C633 C 0.74842 0.19173 0.31268 0.0
N634 N 0.8144 0.14063 0.27778 0.0
N635 N 0.76595 0.17416 0.31417 0.0
H636 H 0.39158 0.03376 0.00031 0.0
H637 H 0.26263 0.96123 0.94346 0.0
H638 H 0.37055 0.03457 0.92075 0.0
H639 H 0.29943 0.9394 0.012 0.0
H640 H 0.29888 0.99271 0.93691 0.0
H641 H 0.35437 0.00356 0.00711 0.0
C642 C 0.37899 0.02765 0.98433 0.0
C643 C 0.384 0.03657 0.95995 0.0
C644 C 0.29896 0.98098 0.95334 0.0
C645 C 0.34161 0.00219 0.96753 0.0
C646 C 0.27828 0.96312 0.95716 0.0
C647 C 0.27809 0.94765 0.97827 0.0
C648 C 0.31934 0.9836 0.97097 0.0
C649 C 0.29888 0.95083 -0.00461 0.0
C650 C 0.35791 0.01035 0.98817 0.0
C651 C 0.36733 0.02794 0.93979 0.0
N652 N 0.31864 0.96854 0.99141 0.0
N653 N 0.34674 0.01126 0.94404 0.0
H654 H 0.23106 0.34322 0.32442 0.0
H655 H 0.18585 0.4671 0.26482 0.0
H656 H 0.28637 0.39098 0.28329 0.0
H657 H 0.17708 0.45529 0.34522 0.0
H658 H 0.21339 0.43086 0.26145 0.0
H659 H 0.20099 0.37633 0.32198 0.0
C660 C 0.23698 0.36057 0.31485 0.0
C661 C 0.2617 0.36448 0.30463 0.0
C662 C 0.20516 0.43622 0.27968 0.0
C663 C 0.2267 0.40167 0.30071 0.0
C664 C 0.18948 0.45665 0.28161 0.0
C665 C 0.17944 0.46405 0.30536 0.0
C666 C 0.20984 0.4228 0.30148 0.0
C667 C 0.18468 0.45016 0.32665 0.0
C668 C 0.21966 0.37925 0.31327 0.0
C669 C 0.26763 0.38696 0.29143 0.0
N670 N 0.19938 0.42999 0.32417 0.0
N671 N 0.25024 0.40481 0.28991 0.0
H672 H 0.13978 -0.00316 0.41115 0.0
H673 H 0.19341 0.10178 0.51678 0.0
H674 H 0.11257 0.0002 0.48872 0.0
H675 H 0.23695 0.08257 0.44968 0.0
H676 H 0.16225 0.06588 0.50534 0.0
H677 H 0.17487 0.02905 0.42361 0.0
C678 C 0.14144 0.00414 0.43085 0.0
C679 C 0.12335 -0.0041 0.44896 0.0
C680 C 0.17867 0.06943 0.49316 0.0
C681 C 0.16294 0.03279 0.46319 0.0
C682 C 0.19639 0.09004 0.49958 0.0
C683 C 0.21775 0.09522 0.48409 0.0
C684 C 0.18213 0.05405 0.47091 0.0
C685 C 0.22072 0.07923 0.46214 0.0
C686 C 0.16141 0.02243 0.43794 0.0
C687 C 0.12628 0.00584 0.47424 0.0
N688 N 0.20297 0.05942 0.45607 0.0
N689 N 0.14553 0.02399 0.48055 0.0
H690 H 0.74541 0.17055 0.6943 0.0
H691 H 0.69568 0.07725 0.80314 0.0
H692 H 0.76635 0.18388 0.77388 0.0
H693 H 0.66707 0.07117 0.7255 0.0
H694 H 0.72419 0.1145 0.79234 0.0
H695 H 0.71833 0.13257 0.70512 0.0
C696 C 0.74412 0.16562 0.71409 0.0
C697 C 0.7581 0.18046 0.73322 0.0
C698 C 0.71169 0.10494 0.77769 0.0
C699 C 0.7275 0.1367 0.7457 0.0
C700 C 0.69551 0.08362 0.7838 0.0
C701 C 0.67889 0.07115 0.76523 0.0
C702 C 0.7113 0.11371 0.75281 0.0
C703 C 0.67945 0.08026 0.74049 0.0
C704 C 0.72881 0.14382 0.72024 0.0
C705 C 0.75612 0.17283 0.75848 0.0
N706 N 0.69534 0.10099 0.73503 0.0
N707 N 0.7411 0.15145 0.764 0.0
H708 H 0.42119 0.00144 0.51878 0.0
H709 H 0.32547 0.1069 0.56074 0.0
H710 H 0.3934 0.01027 0.59583 0.0
H711 H 0.36031 0.10005 0.48647 0.0
H712 H 0.35195 0.07385 0.57543 0.0
H713 H 0.39999 0.03903 0.50766 0.0
C714 C 0.41036 0.0112 0.53332 0.0
C715 C 0.40864 0.00249 0.55814 0.0
C716 C 0.35399 0.07986 0.55603 0.0
C717 C 0.38457 0.04598 0.54567 0.0
C718 C 0.33899 0.09879 0.54768 0.0
C719 C 0.34051 0.10601 0.52226 0.0
C720 C 0.3705 0.06815 0.53879 0.0
C721 C 0.35829 0.09488 0.50613 0.0
C722 C 0.39846 0.03286 0.52704 0.0
C723 C 0.39503 0.01634 0.57643 0.0
N724 N 0.37239 0.07637 0.5146 0.0
N725 N 0.38329 0.03736 0.56978 0.0
H726 H 0.55668 0.55392 0.51221 0.0
H727 H 0.64967 0.4547 0.56559 0.0
H728 H 0.58465 0.55966 0.59006 0.0
H729 H 0.63456 0.46356 0.48567 0.0
H730 H 0.62202 0.4895 0.57638 0.0
H731 H 0.58193 0.51761 0.50348 0.0
C732 C 0.56848 0.54783 0.52742 0.0
C733 C 0.56888 0.56023 0.55182 0.0
C734 C 0.62471 0.48366 0.55652 0.0
C735 C 0.59741 0.5179 0.54205 0.0
C736 C 0.64028 0.46372 0.55038 0.0
C737 C 0.64445 0.45636 0.52471 0.0
C738 C 0.61313 0.49597 0.53682 0.0
C739 C 0.63201 0.46874 0.5057 0.0
C740 C 0.58271 0.52685 0.52247 0.0
C741 C 0.5838 0.55069 0.57097 0.0
N742 N 0.61698 0.48792 0.51215 0.0
N743 N 0.59753 0.53006 0.56568 0.0
H744 H 0.69331 0.30898 0.3194 0.0
H745 H 0.70143 0.30854 0.4707 0.0
H746 H 0.7033 0.24088 0.36042 0.0
H747 H 0.67551 0.37203 0.43079 0.0
H748 H 0.69987 0.2827 0.43058 0.0
H749 H 0.68489 0.33201 0.35989 0.0
C750 C 0.69356 0.29883 0.33688 0.0
C751 C 0.69939 0.27307 0.33654 0.0
C752 C 0.69418 0.30217 0.43063 0.0
C753 C 0.68993 0.29931 0.38291 0.0
C754 C 0.69504 0.31692 0.45355 0.0
C755 C 0.68887 0.34256 0.45404 0.0
C756 C 0.68746 0.31324 0.40795 0.0
C757 C 0.68054 0.35236 0.43127 0.0
C758 C 0.68876 0.31197 0.35999 0.0
C759 C 0.69956 0.26091 0.35981 0.0
N760 N 0.68046 0.33781 0.40906 0.0
N761 N 0.69511 0.27418 0.38204 0.0
H762 H 0.4669 0.01984 0.9263 0.0
H763 H 0.55179 0.05846 0.80673 0.0
H764 H 0.46867 0.09527 0.89631 0.0
H765 H 0.57269 0.00192 0.85858 0.0
H766 H 0.51637 0.06846 0.83486 0.0
H767 H 0.5008 0.00896 0.89658 0.0
C768 C 0.47427 0.03398 0.91322 0.0
C769 C 0.46507 0.05844 0.9136 0.0
C770 C 0.52876 0.05389 0.84003 0.0
C771 C 0.50366 0.04622 0.8798 0.0
C772 C 0.54888 0.0481 0.82399 0.0
C773 C 0.56521 0.02938 0.83041 0.0
C774 C 0.5247 0.04053 0.86236 0.0
C775 C 0.56063 0.0166 0.85302 0.0
C776 C 0.49369 0.02785 0.89647 0.0
C777 C 0.47541 0.07624 0.89657 0.0
N778 N 0.54067 0.02231 0.86815 0.0
N779 N 0.49416 0.06974 0.88022 0.0
H780 H 0.33823 0.29873 0.36412 0.0
H781 H 0.24693 0.22983 0.46605 0.0
H782 H 0.25563 0.29649 0.36123 0.0
H783 H 0.32365 0.20891 0.45059 0.0
H784 H 0.25208 0.2618 0.43361 0.0
H785 H 0.33506 0.27245 0.40142 0.0
C786 C 0.31944 0.29274 0.37126 0.0
C787 C 0.29715 0.29972 0.35932 0.0
C788 C 0.26783 0.25032 0.4375 0.0
C789 C 0.29351 0.2702 0.40233 0.0
C790 C 0.26497 0.23218 0.45609 0.0
C791 C 0.28481 0.21652 0.46084 0.0
C792 C 0.29077 0.25299 0.4238 0.0
C793 C 0.30778 0.2204 0.44734 0.0
C794 C 0.31768 0.27789 0.39264 0.0
C795 C 0.27336 0.29189 0.3699 0.0
N796 N 0.3101 0.23821 0.42934 0.0
N797 N 0.27217 0.27752 0.39076 0.0
H798 H 0.4871 0.50815 0.95689 0.0
H799 H 0.46578 0.52162 0.80784 0.0
H800 H 0.54921 0.51233 0.90308 0.0
H801 H 0.4084 0.53672 0.86438 0.0
H802 H 0.49656 0.5173 0.84216 0.0
H803 H 0.45755 0.51704 0.92284 0.0
C804 C 0.49446 0.51087 0.93786 0.0
C805 C 0.52056 0.50942 0.9327 0.0
C806 C 0.4773 0.52179 0.84703 0.0
C807 C 0.487 0.51971 0.89375 0.0
C808 C 0.45971 0.52425 0.82746 0.0
C809 C 0.43443 0.5294 0.83326 0.0
C810 C 0.46947 0.5242 0.87256 0.0
C811 C 0.42767 0.53271 0.85902 0.0
C812 C 0.47766 0.51613 0.9185 0.0
C813 C 0.52922 0.51344 0.90783 0.0
N814 N 0.44502 0.52981 0.87773 0.0
N815 N 0.51244 0.51824 0.8892 0.0
H816 H 0.7403 0.73772 0.23432 0.0
H817 H 0.74443 0.74349 0.08354 0.0
H818 H 0.74735 0.8085 0.19515 0.0
H819 H 0.77577 0.68094 0.12051 0.0
H820 H 0.73901 0.76512 0.12515 0.0
H821 H 0.74742 0.71393 0.19337 0.0
C822 C 0.74343 0.74817 0.21713 0.0
C823 C 0.74349 0.77504 0.21801 0.0
C824 C 0.74715 0.7467 0.12419 0.0
C825 C 0.75112 0.74825 0.1716 0.0
C826 C 0.75018 0.73428 0.10046 0.0
C827 C 0.76064 0.71043 0.09861 0.0
C828 C 0.75425 0.73504 0.14636 0.0
C829 C 0.76779 0.69942 0.12118 0.0
C830 C 0.74757 0.73467 0.19394 0.0
C831 C 0.74751 0.7878 0.19532 0.0
N832 N 0.76428 0.71177 0.14427 0.0
N833 N 0.75097 0.77429 0.17305 0.0
H834 H 0.00617 0.03969 0.10084 0.0
H835 H 0.92652 0.09694 0.21684 0.0
H836 H 0.01478 0.11991 0.1257 0.0
H837 H 0.91563 0.01904 0.18495 0.0
H838 H 0.9564 0.10737 0.18216 0.0
H839 H 0.97139 0.03293 0.13085 0.0
C840 C 0.00088 0.05585 0.11288 0.0
C841 C 0.01365 0.08029 0.11114 0.0
C842 C 0.94716 0.08812 0.18262 0.0
C843 C 0.97338 0.07283 0.14538 0.0
C844 C 0.93001 0.08221 0.20227 0.0
C845 C 0.91888 0.05702 0.20388 0.0
C846 C 0.95306 0.06864 0.16463 0.0
C847 C 0.92407 0.03862 0.18463 0.0
C848 C 0.9808 0.05207 0.12985 0.0
C849 C 0.00547 0.10073 0.12663 0.0
N850 N 0.94094 0.04474 0.16598 0.0
N851 N 0.98592 0.09651 0.14331 0.0
H852 H 0.25128 0.81286 0.19411 0.0
H853 H 0.25156 0.81221 0.04528 0.0
H854 H 0.23653 0.74222 0.14845 0.0
H855 H 0.21515 0.87207 0.08751 0.0
H856 H 0.25223 0.78799 0.08391 0.0
H857 H 0.24339 0.83714 0.1562 0.0
C858 C 0.24612 0.80256 0.17614 0.0
C859 C 0.24447 0.77562 0.17419 0.0
C860 C 0.24396 0.80636 0.08466 0.0
C861 C 0.2361 0.80297 0.13115 0.0
C862 C 0.24372 0.82024 0.06275 0.0
C863 C 0.23333 0.84413 0.06335 0.0
C864 C 0.23437 0.81677 0.10749 0.0
C865 C 0.22325 0.85363 0.08637 0.0
C866 C 0.24155 0.81633 0.15468 0.0
C867 C 0.23782 0.763 0.15062 0.0
N868 N 0.22436 0.84005 0.10777 0.0
N869 N 0.23427 0.7768 0.12985 0.0
H870 H 0.01079 0.44446 0.10439 0.0
H871 H 0.02781 0.51816 0.23884 0.0
H872 H 0.94704 0.46844 0.14912 0.0
H873 H 0.0851 0.46999 0.2091 0.0
H874 H -0.00163 0.50045 0.20533 0.0
H875 H 0.03856 0.45286 0.1419 0.0
C876 C 0.00248 0.451 0.1222 0.0
C877 C 0.97655 0.45605 0.12351 0.0
C878 C 0.01729 0.49354 0.20619 0.0
C879 C 0.00842 0.46625 0.16625 0.0
C880 C 0.0342 0.5038 0.22521 0.0
C881 C 0.05901 0.49569 0.22654 0.0
C882 C 0.02533 0.47534 0.18803 0.0
C883 C 0.06614 0.47679 0.20861 0.0
C884 C 0.01841 0.4559 0.14356 0.0
C885 C 0.96701 0.46486 0.14705 0.0
N886 N 0.04944 0.46744 0.18979 0.0
N887 N 0.98301 0.47 0.16738 0.0
H888 H 0.31352 0.79397 0.23799 0.0
H889 H 0.41419 0.7245 0.31669 0.0
H890 H 0.31479 0.71142 0.23691 0.0
H891 H 0.42762 0.80356 0.29678 0.0
H892 H 0.37786 0.71927 0.28709 0.0
H893 H 0.35563 0.79823 0.25882 0.0
C894 C 0.32277 0.77676 0.24183 0.0
C895 C 0.3104 0.75231 0.23612 0.0
C896 C 0.38895 0.73768 0.28894 0.0
C897 C 0.35831 0.75703 0.26021 0.0
C898 C 0.40965 0.74068 0.30588 0.0
C899 C 0.42378 0.76455 0.30934 0.0
C900 C 0.38207 0.75882 0.27571 0.0
C901 C 0.41717 0.78483 0.29472 0.0
C902 C 0.34677 0.7792 0.25377 0.0
C903 C 0.32326 0.73066 0.24165 0.0
N904 N 0.39652 0.78162 0.2788 0.0
N905 N 0.34636 0.73353 0.25366 0.0
H906 H 0.94852 0.38261 0.06106 0.0
H907 H -0.00208 0.35891 0.91874 0.0
H908 H 0.96102 0.44279 0.00809 0.0
H909 H 0.96596 0.29748 0.96388 0.0
H910 H 0.98708 0.38996 0.9525 0.0
H911 H 0.95738 0.35092 0.02678 0.0
C912 C 0.95309 0.38909 0.04219 0.0
C913 C 0.954 0.41527 0.0373 0.0
C914 C 0.98235 0.36969 0.95498 0.0
C915 C 0.96421 0.37937 -0.00178 0.0
C916 C 0.98861 0.35194 0.93575 0.0
C917 C 0.98285 0.32556 0.93852 0.0
C918 C 0.97049 0.361 0.97725 0.0
C919 C 0.97069 0.31765 0.96094 0.0
C920 C 0.95802 0.37105 0.02266 0.0
C921 C 0.95985 0.42274 0.01255 0.0
N922 N 0.96503 0.33531 0.97954 0.0
N923 N 0.96488 0.40488 0.99395 0.0
H924 H 0.67693 0.84099 0.27985 0.0
H925 H 0.56241 0.75714 0.34399 0.0
H926 H 0.68134 0.76071 0.29338 0.0
H927 H 0.55816 0.83438 0.31968 0.0
H928 H 0.60645 0.75781 0.32792 0.0
H929 H 0.63394 0.83875 0.29696 0.0
C930 C 0.66891 0.82289 0.28673 0.0
C931 C 0.68288 0.80108 0.28559 0.0
C932 C 0.59579 0.77455 0.32613 0.0
C933 C 0.63315 0.79821 0.30484 0.0
C934 C 0.57073 0.77421 0.33533 0.0
C935 C 0.55661 0.79574 0.33315 0.0
C936 C 0.60671 0.79662 0.31486 0.0
C937 C 0.56826 0.81733 0.32175 0.0
C938 C 0.64421 0.82156 0.29632 0.0
C939 C 0.67118 0.77796 0.29405 0.0
N940 N 0.59258 0.8172 0.31309 0.0
N941 N 0.64693 0.77712 0.30345 0.0
H942 H 0.08483 0.13453 0.02647 0.0
H943 H 0.97458 0.1803 0.93732 0.0
H944 H 0.00418 0.11168 0.03269 0.0
H945 H 0.0529 0.21269 0.93456 0.0
H946 H 0.98692 0.15129 0.96906 0.0
H947 H 0.07517 0.16042 0.99025 0.0
C948 C 0.06514 0.13506 0.02027 0.0
C949 C 0.04522 0.12133 0.03285 0.0
C950 C 0.00152 0.16461 0.96148 0.0
C951 C 0.03413 0.15038 0.99149 0.0
C952 C 0.99448 0.18115 0.94325 0.0
C953 C 0.0127 0.1991 0.93348 0.0
C954 C 0.02698 0.16606 0.97023 0.0
C955 C 0.03825 0.19915 0.94169 0.0
C956 C 0.05965 0.14976 -0.00035 0.0
C957 C 0.02007 0.12247 0.02401 0.0
N958 N 0.04464 0.18302 0.95985 0.0
N959 N 0.01528 0.1367 0.00393 0.0
H960 H 0.36829 0.31534 0.30406 0.0
H961 H 0.4102 0.31158 0.15816 0.0
H962 H 0.31493 0.32127 0.24202 0.0
H963 H 0.45311 0.27907 0.21728 0.0
H964 H 0.37711 0.32067 0.18931 0.0
H965 H 0.40156 0.30709 0.27301 0.0
C966 C 0.36347 0.31475 0.28393 0.0
C967 C 0.33863 0.31883 0.2757 0.0
C968 C 0.39377 0.31153 0.19543 0.0
C969 C 0.37692 0.30997 0.24005 0.0
C970 C 0.41272 0.30644 0.17772 0.0
C971 C 0.43445 0.29451 0.18514 0.0
C972 C 0.39671 0.30496 0.22081 0.0
C973 C 0.43664 0.28819 0.21071 0.0
C974 C 0.38255 0.31017 0.26623 0.0
C975 C 0.33381 0.31853 0.2493 0.0
N976 N 0.41803 0.29359 0.22767 0.0
N977 N 0.3528 0.3142 0.23242 0.0
H978 H 0.5021 0.46769 0.01035 0.0
H979 H 0.54475 0.35082 0.08908 0.0
H980 H 0.57935 0.44444 0.00953 0.0
H981 H 0.46628 0.36524 0.07393 0.0
H982 H 0.55895 0.38832 0.06485 0.0
H983 H 0.48975 0.43324 0.03846 0.0
C984 C 0.51646 0.45524 0.01597 0.0
C985 C 0.54173 0.45876 0.00729 0.0
C986 C 0.53864 0.38327 0.06698 0.0
C987 C 0.52778 0.41943 0.03988 0.0
C988 C 0.53055 0.36198 0.08086 0.0
C989 C 0.50432 0.35485 0.08336 0.0
C990 C 0.52032 0.39753 0.05583 0.0
C991 C 0.4867 0.3699 0.07231 0.0
C992 C 0.50943 0.43565 0.03217 0.0
C993 C 0.55967 0.44247 0.01583 0.0
N994 N 0.49502 0.39048 0.05903 0.0
N995 N 0.55233 0.42339 0.0316 0.0
H996 H 0.6809 0.28917 0.24517 0.0
H997 H 0.5576 0.21469 0.18153 0.0
H998 H 0.66786 0.20654 0.2412 0.0
H999 H 0.57995 0.29402 0.16769 0.0
H1000 H 0.59911 0.21115 0.20157 0.0
H1001 H 0.6458 0.2914 0.21461 0.0
C1002 C 0.6709 0.27148 0.23747 0.0
C1003 C 0.67709 0.24764 0.24582 0.0
C1004 C 0.59511 0.22928 0.19392 0.0
C1005 C 0.63678 0.25004 0.21124 0.0
C1006 C 0.57133 0.23136 0.1826 0.0
C1007 C 0.56523 0.25478 0.17321 0.0
C1008 C 0.61283 0.25089 0.19628 0.0
C1009 C 0.58386 0.27565 0.17482 0.0
C1010 C 0.65091 0.27276 0.22004 0.0
C1011 C 0.66373 0.22529 0.23519 0.0
N1012 N 0.60674 0.27332 0.1865 0.0
N1013 N 0.64391 0.22705 0.21876 0.0
H1014 H 0.43343 0.0919 0.02074 0.0
H1015 H 0.46699 0.24259 0.04505 0.0
H1016 H 0.44902 0.14273 0.9594 0.0
H1017 H 0.47478 0.18766 0.10283 0.0
H1018 H 0.4564 0.20701 0.01369 0.0
H1019 H 0.44429 0.12776 0.05159 0.0
C1020 C 0.439 0.1107 0.01381 0.0
C1021 C 0.44024 0.11449 0.98756 0.0
C1022 C 0.46051 0.20281 0.03322 0.0
C1023 C 0.4528 0.15547 0.02265 0.0
C1024 C 0.46646 0.22307 0.05115 0.0
C1025 C 0.47175 0.21806 0.0766 0.0
C1026 C 0.45954 0.17743 0.04091 0.0
C1027 C 0.47089 0.1924 0.08341 0.0
C1028 C 0.44536 0.13108 0.03139 0.0
C1029 C 0.44794 0.13908 0.97952 0.0
N1030 N 0.46477 0.17304 0.06569 0.0
N1031 N 0.45382 0.15875 -0.00295 0.0
H1032 H 0.28705 0.3285 0.80243 0.0
H1033 H 0.35381 0.44445 0.72741 0.0
H1034 H 0.28482 0.32951 0.72013 0.0
H1035 H 0.32543 0.45278 0.80437 0.0
H1036 H 0.33568 0.39962 0.72498 0.0
H1037 H 0.30955 0.37135 0.80413 0.0
C1038 C 0.29152 0.3376 0.78471 0.0
C1039 C 0.28375 0.32549 0.76112 0.0
C1040 C 0.33344 0.41136 0.74233 0.0
C1041 C 0.30963 0.37437 0.76296 0.0
C1042 C 0.3437 0.43689 0.74373 0.0
C1043 C 0.341 0.45237 0.76608 0.0
C1044 C 0.32085 0.40121 0.7636 0.0
C1045 C 0.32778 0.4416 0.78669 0.0
C1046 C 0.30431 0.36204 0.78571 0.0
C1047 C 0.29058 0.33799 0.73873 0.0
N1048 N 0.31834 0.41663 0.78501 0.0
N1049 N 0.30301 0.36186 0.74021 0.0
H1050 H 0.22097 0.67223 0.8061 0.0
H1051 H 0.3345 0.59519 0.74646 0.0
H1052 H 0.25678 0.69039 0.73461 0.0
H1053 H 0.29774 0.5794 0.81817 0.0
H1054 H 0.30531 0.62877 0.74033 0.0
H1055 H 0.24758 0.63639 0.80914 0.0
C1056 C 0.23445 0.66858 0.79099 0.0
C1057 C 0.23694 0.68445 0.77022 0.0
C1058 C 0.30363 0.61789 0.75735 0.0
C1059 C 0.26757 0.64337 0.77354 0.0
C1060 C 0.32031 0.59877 0.7609 0.0
C1061 C 0.31861 0.58453 0.78291 0.0
C1062 C 0.28516 0.62275 0.77596 0.0
C1063 C 0.29982 0.58993 0.80095 0.0
C1064 C 0.24963 0.64808 0.79269 0.0
C1065 C 0.25432 0.67857 0.75092 0.0
N1066 N 0.2839 0.6086 0.79708 0.0
N1067 N 0.26919 0.65859 0.75314 0.0
H1068 H 0.86185 0.5518 0.48415 0.0
H1069 H 0.80121 0.41285 0.51898 0.0
H1070 H 0.90638 0.487 0.49399 0.0
H1071 H 0.75605 0.47319 0.49529 0.0
H1072 H 0.84001 0.44084 0.51292 0.0
H1073 H 0.82277 0.52423 0.49111 0.0
C1074 C 0.86335 0.53177 0.48783 0.0
C1075 C 0.8873 0.52159 0.48846 0.0
C1076 C 0.82161 0.44794 0.50904 0.0
C1077 C 0.84285 0.49003 0.49638 0.0
C1078 C 0.79943 0.43201 0.51257 0.0
C1079 C 0.77534 0.44068 0.50758 0.0
C1080 C 0.81969 0.47277 0.50061 0.0
C1081 C 0.77422 0.46568 0.49929 0.0
C1082 C 0.84109 0.51604 0.49168 0.0
C1083 C 0.88825 0.49549 0.49306 0.0
N1084 N 0.79611 0.48087 0.49608 0.0
N1085 N 0.86632 0.48061 0.49693 0.0
H1086 H 0.75937 0.8484 0.77811 0.0
H1087 H 0.6848 0.95819 0.85009 0.0
H1088 H 0.771 0.87343 0.85734 0.0
H1089 H 0.6715 0.93434 0.77078 0.0
H1090 H 0.71411 0.92471 0.85352 0.0
H1091 H 0.72539 0.87771 0.77525 0.0
C1092 C 0.7548 0.86006 0.79488 0.0
C1093 C 0.76811 0.85852 0.81798 0.0
C1094 C 0.7047 0.92663 0.83537 0.0
C1095 C 0.72915 0.89185 0.81491 0.0
C1096 C 0.68791 0.94576 0.8334 0.0
C1097 C 0.67583 0.94919 0.81005 0.0
C1098 C 0.70967 0.91084 0.81379 0.0
C1099 C 0.68047 0.93239 0.78913 0.0
C1100 C 0.73529 0.87665 0.79328 0.0
C1101 C 0.7611 0.87376 0.83922 0.0
N1102 N 0.69723 0.91404 0.79143 0.0
N1103 N 0.7422 0.88984 0.83712 0.0
H1104 H 0.62721 0.50009 0.98346 0.0
H1105 H 0.68805 0.64337 0.01277 0.0
H1106 H 0.58403 0.56662 0.979 0.0
H1107 H 0.73358 0.58006 0.9929 0.0
H1108 H 0.64927 0.61493 0.00426 0.0
H1109 H 0.66628 0.52862 0.99095 0.0
C1110 C 0.62602 0.52071 0.9841 0.0
C1111 C 0.6025 0.53111 0.98056 0.0
C1112 C 0.66777 0.60733 0.00168 0.0
C1113 C 0.64681 0.56369 0.98915 0.0
C1114 C 0.68989 0.62351 0.0066 0.0
C1115 C 0.71406 0.61406 0.00353 0.0
C1116 C 0.66986 0.58147 0.99396 0.0
C1117 C 0.71532 0.58817 -0.00458 0.0
C1118 C 0.64826 0.53694 0.98823 0.0
C1119 C 0.60189 0.55791 0.98139 0.0
N1120 N 0.69351 0.57272 0.99106 0.0
N1121 N 0.62373 0.57331 0.98574 0.0
H1122 H 0.20879 0.69175 0.19609 0.0
H1123 H 0.18215 0.5994 0.31046 0.0
H1124 H 0.23415 0.7118 0.27353 0.0
H1125 H 0.13724 0.59205 0.24084 0.0
H1126 H 0.20318 0.63958 0.29634 0.0
H1127 H 0.1833 0.65442 0.21134 0.0
C1128 C 0.20872 0.68854 0.21633 0.0
C1129 C 0.22385 0.7048 0.23352 0.0
C1130 C 0.18861 0.62924 0.28423 0.0
C1131 C 0.19521 0.66186 0.25096 0.0
C1132 C 0.1767 0.60624 0.29221 0.0
C1133 C 0.15796 0.59233 0.27677 0.0
C1134 C 0.18198 0.63822 0.26049 0.0
C1135 C 0.15157 0.60218 0.25336 0.0
C1136 C 0.19429 0.66714 0.22499 0.0
C1137 C 0.22325 0.69947 0.25951 0.0
N1138 N 0.1637 0.62444 0.24584 0.0
N1139 N 0.20939 0.67832 0.26739 0.0
H1140 H 0.93888 0.52555 0.08711 0.0
H1141 H 0.83274 0.56897 -0.00471 0.0
H1142 H 0.88537 0.47132 0.04554 0.0
H1143 H 0.85425 0.61441 0.06424 0.0
H1144 H 0.85792 0.53506 0.00946 0.0
H1145 H 0.91292 0.56028 0.07596 0.0
C1146 C 0.92157 0.52081 0.07593 0.0
C1147 C 0.91444 0.49534 0.06715 0.0
C1148 C 0.85714 0.55246 0.02148 0.0
C1149 C 0.88529 0.53518 0.05374 0.0
C1150 C 0.84295 0.57192 0.01334 0.0
C1151 C 0.84143 0.59454 0.02864 0.0
C1152 C 0.87029 0.55577 0.04488 0.0
C1153 C 0.85492 0.59722 0.05194 0.0
C1154 C 0.9069 0.54072 0.06948 0.0
C1155 C 0.89204 0.49063 0.05227 0.0
N1156 N 0.86899 0.57805 0.05933 0.0
N1157 N 0.87844 0.51037 0.04582 0.0
H1158 H 0.12167 0.0652 0.07197 0.0
H1159 H 0.12459 0.93924 0.98617 0.0
H1160 H 0.05163 0.01985 0.05124 0.0
H1161 H 0.1812 0.95553 0.04595 0.0
H1162 H 0.09867 0.9715 0.00636 0.0
H1163 H 0.14595 0.02814 0.05914 0.0
C1164 C 0.11152 0.04735 0.06489 0.0
C1165 C 0.0848 0.04528 0.06257 0.0
C1166 C 0.11659 0.96772 0.01524 0.0
C1167 C 0.11204 0.00355 0.04765 0.0
C1168 C 0.13132 0.94939 0.00377 0.0
C1169 C 0.15487 0.94476 0.01458 0.0
C1170 C 0.12596 0.98206 0.03712 0.0
C1171 C 0.16295 0.95846 0.03727 0.0
C1172 C 0.12525 0.02631 0.05775 0.0
C1173 C 0.07229 0.02196 0.05328 0.0
N1174 N 0.14871 0.97695 0.0476 0.0
N1175 N 0.08605 0.00205 0.04579 0.0
loop_
_geom_bond_atom_site_label_1
_geom_bond_atom_site_label_2
_geom_bond_distance
_geom_bond_site_symmetry_2
_ccdc_geom_bond_type
H0 C3 0.931 . S
H1 C6 0.928 . S
H2 C8 0.930 . S
C3 H0 0.931 . S
C3 C4 1.413 . S
C3 C5 1.360 . S
C4 C3 1.413 . S
C4 C8 1.429 . S
C5 C3 1.360 . S
C5 C6 1.372 . S
C6 H1 0.928 . S
C6 C5 1.372 . S
C6 C7 1.404 . S
C7 C6 1.404 . S
C7 C8 1.391 . S
C8 H2 0.930 . S
C8 C4 1.429 . S
C8 C7 1.391 . S
H9 C12 0.931 . S
H10 C15 0.928 . S
H11 C17 0.930 . S
C12 H9 0.931 . S
C12 C13 1.413 . S
C12 C14 1.360 . S
C13 C12 1.413 . S
C13 C17 1.429 . S
C14 C12 1.360 . S
C14 C15 1.372 . S
C15 H10 0.928 . S
C15 C14 1.372 . S
C15 C16 1.404 . S
C16 C15 1.404 . S
C16 C17 1.391 . S
C17 H11 0.930 . S
C17 C13 1.429 . S
C17 C16 1.391 . S
H18 C21 0.931 . S
H19 C24 0.928 . S
H20 C26 0.930 . S
C21 H18 0.931 . S
C21 C22 1.413 . S
C21 C23 1.360 . S
C22 C21 1.413 . S
C22 C26 1.429 . S
C23 C21 1.360 . S
C23 C24 1.372 . S
C24 H19 0.928 . S
C24 C23 1.372 . S
C24 C25 1.404 . S
C25 C24 1.404 . S
C25 C26 1.391 . S
C26 H20 0.930 . S
C26 C22 1.429 . S
C26 C25 1.391 . S
H27 C30 0.931 . S
H28 C33 0.928 . S
H29 C35 0.930 . S
C30 H27 0.931 . S
C30 C31 1.413 . S
C30 C32 1.360 . S
C31 C30 1.413 . S
C31 C35 1.429 . S
C32 C30 1.360 . S
C32 C33 1.372 . S
C33 H28 0.928 . S
C33 C32 1.372 . S
C33 C34 1.404 . S
C34 C33 1.404 . S
C34 C35 1.391 . S
C35 H29 0.930 . S
C35 C31 1.429 . S
C35 C34 1.391 . S
H36 C39 0.931 . S
H37 C42 0.928 . S
H38 C44 0.930 . S
C39 H36 0.931 . S
C39 C40 1.413 . S
C39 C41 1.360 . S
C40 C39 1.413 . S
C40 C44 1.429 . S
C41 C39 1.360 . S
C41 C42 1.372 . S
C42 H37 0.928 . S
C42 C41 1.372 . S
C42 C43 1.404 . S
C43 C42 1.404 . S
C43 C44 1.391 . S
C44 H38 0.930 . S
C44 C40 1.429 . S
C44 C43 1.391 . S
H45 C48 0.931 . S
H46 C51 0.928 . S
H47 C53 0.930 . S
C48 H45 0.931 . S
C48 C49 1.413 . S
C48 C50 1.360 . S
C49 C48 1.413 . S
C49 C53 1.429 . S
C50 C48 1.360 . S
C50 C51 1.372 . S
C51 H46 0.928 . S
C51 C50 1.372 . S
C51 C52 1.404 . S
C52 C51 1.404 . S
C52 C53 1.391 . S
C53 H47 0.930 . S
C53 C49 1.429 . S
C53 C52 1.391 . S
H54 C57 0.931 . S
H55 C60 0.928 . S
H56 C62 0.930 . S
C57 H54 0.931 . S
C57 C58 1.413 . S
C57 C59 1.360 . S
C58 C57 1.413 . S
C58 C62 1.429 . S
C59 C57 1.360 . S
C59 C60 1.372 . S
C60 H55 0.928 . S
C60 C59 1.372 . S
C60 C61 1.404 . S
C61 C60 1.404 . S
C61 C62 1.391 . S
C62 H56 0.930 . S
C62 C58 1.429 . S
C62 C61 1.391 . S
H63 C66 0.931 . S
H64 C69 0.928 . S
H65 C71 0.930 . S
C66 H63 0.931 . S
C66 C67 1.413 . S
C66 C68 1.360 . S
C67 C66 1.413 . S
C67 C71 1.429 . S
C68 C66 1.360 . S
C68 C69 1.372 . S
C69 H64 0.928 . S
C69 C68 1.372 . S
C69 C70 1.404 . S
C70 C69 1.404 . S
C70 C71 1.391 . S
C71 H65 0.930 . S
C71 C67 1.429 . S
C71 C70 1.391 . S
H72 C75 0.931 . S
H73 C78 0.928 . S
H74 C80 0.930 . S
C75 H72 0.931 . S
C75 C76 1.413 . S
C75 C77 1.360 . S
C76 C75 1.413 . S
C76 C80 1.429 . S
C77 C75 1.360 . S
C77 C78 1.372 . S
C78 H73 0.928 . S
C78 C77 1.372 . S
C78 C79 1.404 . S
C79 C78 1.404 . S
C79 C80 1.391 . S
C80 H74 0.930 . S
C80 C76 1.429 . S
C80 C79 1.391 . S
H81 C84 0.931 . S
H82 C87 0.928 . S
H83 C89 0.930 . S
C84 H81 0.931 . S
C84 C85 1.413 . S
C84 C86 1.360 . S
C85 C84 1.413 . S
C85 C89 1.429 . S
C86 C84 1.360 . S
C86 C87 1.372 . S
C87 H82 0.928 . S
C87 C86 1.372 . S
C87 C88 1.404 . S
C88 C87 1.404 . S
C88 C89 1.391 . S
C89 H83 0.930 . S
C89 C85 1.429 . S
C89 C88 1.391 . S
H90 C93 0.931 . S
H91 C96 0.928 . S
H92 C98 0.930 . S
C93 H90 0.931 . S
C93 C94 1.413 . S
C93 C95 1.360 . S
C94 C93 1.413 . S
C94 C98 1.429 . S
C95 C93 1.360 . S
C95 C96 1.372 . S
C96 H91 0.928 . S
C96 C95 1.372 . S
C96 C97 1.404 . S
C97 C96 1.404 . S
C97 C98 1.391 . S
C98 H92 0.930 . S
C98 C94 1.429 . S
C98 C97 1.391 . S
H99 C102 0.931 . S
H100 C105 0.928 . S
H101 C107 0.930 . S
C102 H99 0.931 . S
C102 C103 1.413 . S
C102 C104 1.360 . S
C103 C102 1.413 . S
C103 C107 1.429 . S
C104 C102 1.360 . S
C104 C105 1.372 . S
C105 H100 0.928 . S
C105 C104 1.372 . S
C105 C106 1.404 . S
C106 C105 1.404 . S
C106 C107 1.391 . S
C107 H101 0.930 . S
C107 C103 1.429 . S
C107 C106 1.391 . S
H108 C111 0.931 . S
H109 C114 0.928 . S
H110 C116 0.930 . S
C111 H108 0.931 . S
C111 C112 1.413 . S
C111 C113 1.360 . S
C112 C111 1.413 . S
C112 C116 1.429 . S
C113 C111 1.360 . S
C113 C114 1.372 . S
C114 H109 0.928 . S
C114 C113 1.372 . S
C114 C115 1.404 . S
C115 C114 1.404 . S
C115 C116 1.391 . S
C116 H110 0.930 . S
C116 C112 1.429 . S
C116 C115 1.391 . S
H117 C120 0.931 . S
H118 C123 0.928 . S
H119 C125 0.930 . S
C120 H117 0.931 . S
C120 C121 1.413 . S
C120 C122 1.360 . S
C121 C120 1.413 . S
C121 C125 1.429 . S
C122 C120 1.360 . S
C122 C123 1.372 . S
C123 H118 0.928 . S
C123 C122 1.372 . S
C123 C124 1.404 . S
C124 C123 1.404 . S
C124 C125 1.391 . S
C125 H119 0.930 . S
C125 C121 1.429 . S
C125 C124 1.391 . S
H126 C129 0.931 . S
H127 C132 0.928 . S
H128 C134 0.930 . S
C129 H126 0.931 . S
C129 C130 1.413 . S
C129 C131 1.360 . S
C130 C129 1.413 . S
C130 C134 1.429 . S
C131 C129 1.360 . S
C131 C132 1.372 . S
C132 H127 0.928 . S
C132 C131 1.372 . S
C132 C133 1.404 . S
C133 C132 1.404 . S
C133 C134 1.391 . S
C134 H128 0.930 . S
C134 C130 1.429 . S
C134 C133 1.391 . S
H135 C138 0.931 . S
H136 C141 0.928 . S
H137 C143 0.930 . S
C138 H135 0.931 . S
C138 C139 1.413 . S
C138 C140 1.360 . S
C139 C138 1.413 . S
C139 C143 1.429 . S
C140 C138 1.360 . S
C140 C141 1.372 . S
C141 H136 0.928 . S
C141 C140 1.372 . S
C141 C142 1.404 . S
C142 C141 1.404 . S
C142 C143 1.391 . S
C143 H137 0.930 . S
C143 C139 1.429 . S
C143 C142 1.391 . S
O144 Cd145 2.223 . S
O144 C152 1.315 . S
Cd145 O144 2.223 . S
Cd145 O148 2.297 . S
Cd145 O149 2.439 . S
Cd145 O155 2.240 . S
Cd146 O147 2.240 . S
Cd146 O154 2.223 . S
Cd146 O156 2.297 . S
Cd146 O157 2.439 . S
O147 Cd146 2.240 . S
O147 C152 1.279 . S
O148 Cd145 2.297 . S
O148 C150 1.247 . S
O149 Cd145 2.439 . S
O149 C150 1.208 . S
C150 O148 1.247 . S
C150 O149 1.208 . S
C151 O156 1.247 . S
C151 O157 1.208 . S
C152 O144 1.315 . S
C152 O147 1.279 . S
C153 O154 1.315 . S
C153 O155 1.279 . S
O154 Cd146 2.223 . S
O154 C153 1.315 . S
O155 Cd145 2.240 . S
O155 C153 1.279 . S
O156 Cd146 2.297 . S
O156 C151 1.247 . S
O157 Cd146 2.439 . S
O157 C151 1.208 . S
O158 Cd159 2.223 . S
O158 C166 1.315 . S
Cd159 O158 2.223 . S
Cd159 O162 2.297 . S
Cd159 O163 2.439 . S
Cd159 O169 2.240 . S
Cd160 O161 2.240 . S
Cd160 O168 2.223 . S
Cd160 O170 2.297 . S
Cd160 O171 2.439 . S
O161 Cd160 2.240 . S
O161 C166 1.279 . S
O162 Cd159 2.297 . S
O162 C164 1.247 . S
O163 Cd159 2.439 . S
O163 C164 1.208 . S
C164 O162 1.247 . S
C164 O163 1.208 . S
C165 O170 1.247 . S
C165 O171 1.208 . S
C166 O158 1.315 . S
C166 O161 1.279 . S
C167 O168 1.315 . S
C167 O169 1.279 . S
O168 Cd160 2.223 . S
O168 C167 1.315 . S
O169 Cd159 2.240 . S
O169 C167 1.279 . S
O170 Cd160 2.297 . S
O170 C165 1.247 . S
O171 Cd160 2.439 . S
O171 C165 1.208 . S
O172 Cd173 2.223 1_556 S
O172 C180 1.315 . S
Cd173 O172 2.223 1_554 S
Cd173 O176 2.297 . S
Cd173 O177 2.439 . S
Cd173 O183 2.240 . S
Cd174 O175 2.240 . S
Cd174 O182 2.223 . S
Cd174 O184 2.297 1_556 S
Cd174 O185 2.439 1_556 S
O175 Cd174 2.240 . S
O175 C180 1.279 . S
O176 Cd173 2.297 . S
O176 C178 1.247 . S
O177 Cd173 2.439 . S
O177 C178 1.208 . S
C178 O176 1.247 . S
C178 O177 1.208 . S
C179 O184 1.247 . S
C179 O185 1.208 . S
C180 O172 1.315 . S
C180 O175 1.279 . S
C181 O182 1.315 . S
C181 O183 1.279 1_556 S
O182 Cd174 2.223 . S
O182 C181 1.315 . S
O183 Cd173 2.240 . S
O183 C181 1.279 1_554 S
O184 Cd174 2.297 1_554 S
O184 C179 1.247 . S
O185 Cd174 2.439 1_554 S
O185 C179 1.208 . S
O186 Cd187 2.223 . S
O186 C194 1.315 . S
Cd187 O186 2.223 . S
Cd187 O190 2.297 . S
Cd187 O191 2.439 . S
Cd187 O197 2.240 . S
Cd188 O189 2.240 . S
Cd188 O196 2.223 . S
Cd188 O198 2.297 . S
Cd188 O199 2.439 . S
O189 Cd188 2.240 . S
O189 C194 1.279 . S
O190 Cd187 2.297 . S
O190 C192 1.247 . S
O191 Cd187 2.439 . S
O191 C192 1.208 . S
C192 O190 1.247 . S
C192 O191 1.208 . S
C193 O198 1.247 . S
C193 O199 1.208 . S
C194 O186 1.315 . S
C194 O189 1.279 . S
C195 O196 1.315 . S
C195 O197 1.279 . S
O196 Cd188 2.223 . S
O196 C195 1.315 . S
O197 Cd187 2.240 . S
O197 C195 1.279 . S
O198 Cd188 2.297 . S
O198 C193 1.247 . S
O199 Cd188 2.439 . S
O199 C193 1.208 . S
O200 Cd201 2.223 . S
O200 C208 1.315 . S
Cd201 O200 2.223 . S
Cd201 O204 2.297 . S
Cd201 O205 2.439 . S
Cd201 O211 2.240 . S
Cd202 O203 2.240 . S
Cd202 O210 2.223 . S
Cd202 O212 2.297 . S
Cd202 O213 2.439 . S
O203 Cd202 2.240 . S
O203 C208 1.279 . S
O204 Cd201 2.297 . S
O204 C206 1.247 . S
O205 Cd201 2.439 . S
O205 C206 1.208 . S
C206 O204 1.247 . S
C206 O205 1.208 . S
C207 O212 1.247 . S
C207 O213 1.208 . S
C208 O200 1.315 . S
C208 O203 1.279 . S
C209 O210 1.315 . S
C209 O211 1.279 . S
O210 Cd202 2.223 . S
O210 C209 1.315 . S
O211 Cd201 2.240 . S
O211 C209 1.279 . S
O212 Cd202 2.297 . S
O212 C207 1.247 . S
O213 Cd202 2.439 . S
O213 C207 1.208 . S
O214 Cd215 2.223 . S
O214 C222 1.315 . S
Cd215 O214 2.223 . S
Cd215 O218 2.297 . S
Cd215 O219 2.439 . S
Cd215 O225 2.240 . S
Cd216 O217 2.240 . S
Cd216 O224 2.223 . S
Cd216 O226 2.297 . S
Cd216 O227 2.439 . S
O217 Cd216 2.240 . S
O217 C222 1.279 . S
O218 Cd215 2.297 . S
O218 C220 1.247 . S
O219 Cd215 2.439 . S
O219 C220 1.208 . S
C220 O218 1.247 . S
C220 O219 1.208 . S
C221 O226 1.247 . S
C221 O227 1.208 . S
C222 O214 1.315 . S
C222 O217 1.279 . S
C223 O224 1.315 . S
C223 O225 1.279 . S
O224 Cd216 2.223 . S
O224 C223 1.315 . S
O225 Cd215 2.240 . S
O225 C223 1.279 . S
O226 Cd216 2.297 . S
O226 C221 1.247 . S
O227 Cd216 2.439 . S
O227 C221 1.208 . S
O228 Cd229 2.223 . S
O228 C236 1.315 . S
Cd229 O228 2.223 . S
Cd229 O232 2.297 . S
Cd229 O233 2.439 . S
Cd229 O239 2.240 . S
Cd230 O231 2.240 . S
Cd230 O238 2.223 . S
Cd230 O240 2.297 . S
Cd230 O241 2.439 . S
O231 Cd230 2.240 . S
O231 C236 1.279 . S
O232 Cd229 2.297 . S
O232 C234 1.247 . S
O233 Cd229 2.439 . S
O233 C234 1.208 . S
C234 O232 1.247 . S
C234 O233 1.208 . S
C235 O240 1.247 . S
C235 O241 1.208 . S
C236 O228 1.315 . S
C236 O231 1.279 . S
C237 O238 1.315 . S
C237 O239 1.279 . S
O238 Cd230 2.223 . S
O238 C237 1.315 . S
O239 Cd229 2.240 . S
O239 C237 1.279 . S
O240 Cd230 2.297 . S
O240 C235 1.247 . S
O241 Cd230 2.439 . S
O241 C235 1.208 . S
O242 Cd243 2.223 1_545 S
O242 C250 1.315 . S
Cd243 O242 2.223 1_565 S
Cd243 O246 2.297 . S
Cd243 O247 2.439 . S
Cd243 O253 2.240 1_565 S
Cd244 O245 2.240 . S
Cd244 O252 2.223 . S
Cd244 O254 2.297 . S
Cd244 O255 2.439 1_545 S
O245 Cd244 2.240 . S
O245 C250 1.279 . S
O246 Cd243 2.297 . S
O246 C248 1.247 . S
O247 Cd243 2.439 . S
O247 C248 1.208 . S
C248 O246 1.247 . S
C248 O247 1.208 . S
C249 O254 1.247 1_565 S
C249 O255 1.208 . S
C250 O242 1.315 . S
C250 O245 1.279 . S
C251 O252 1.315 . S
C251 O253 1.279 . S
O252 Cd244 2.223 . S
O252 C251 1.315 . S
O253 Cd243 2.240 1_545 S
O253 C251 1.279 . S
O254 Cd244 2.297 . S
O254 C249 1.247 1_545 S
O255 Cd244 2.439 1_565 S
O255 C249 1.208 . S
O256 Cd257 2.223 . S
O256 C264 1.315 . S
Cd257 O256 2.223 . S
Cd257 O260 2.297 1_655 S
Cd257 O261 2.439 1_655 S
Cd257 O267 2.240 . S
Cd258 O259 2.240 . S
Cd258 O266 2.223 1_455 S
Cd258 O268 2.297 . S
Cd258 O269 2.439 . S
O259 Cd258 2.240 . S
O259 C264 1.279 1_455 S
O260 Cd257 2.297 1_455 S
O260 C262 1.247 . S
O261 Cd257 2.439 1_455 S
O261 C262 1.208 . S
C262 O260 1.247 . S
C262 O261 1.208 . S
C263 O268 1.247 . S
C263 O269 1.208 . S
C264 O256 1.315 . S
C264 O259 1.279 1_655 S
C265 O266 1.315 . S
C265 O267 1.279 . S
O266 Cd258 2.223 1_655 S
O266 C265 1.315 . S
O267 Cd257 2.240 . S
O267 C265 1.279 . S
O268 Cd258 2.297 . S
O268 C263 1.247 . S
O269 Cd258 2.439 . S
O269 C263 1.208 . S
O270 Cd271 2.223 . S
O270 C278 1.315 . S
Cd271 O270 2.223 . S
Cd271 O274 2.297 . S
Cd271 O275 2.439 . S
Cd271 O281 2.240 . S
Cd272 O273 2.240 . S
Cd272 O280 2.223 . S
Cd272 O282 2.297 . S
Cd272 O283 2.439 . S
O273 Cd272 2.240 . S
O273 C278 1.279 . S
O274 Cd271 2.297 . S
O274 C276 1.247 . S
O275 Cd271 2.439 . S
O275 C276 1.208 . S
C276 O274 1.247 . S
C276 O275 1.208 . S
C277 O282 1.247 . S
C277 O283 1.208 . S
C278 O270 1.315 . S
C278 O273 1.279 . S
C279 O280 1.315 . S
C279 O281 1.279 . S
O280 Cd272 2.223 . S
O280 C279 1.315 . S
O281 Cd271 2.240 . S
O281 C279 1.279 . S
O282 Cd272 2.297 . S
O282 C277 1.247 . S
O283 Cd272 2.439 . S
O283 C277 1.208 . S
O284 Cd285 2.223 1_655 S
O284 C292 1.315 . S
Cd285 O284 2.223 1_455 S
Cd285 O288 2.297 . S
Cd285 O289 2.439 . S
Cd285 O295 2.240 . S
Cd286 O287 2.240 . S
Cd286 O294 2.223 . S
Cd286 O296 2.297 1_655 S
Cd286 O297 2.439 1_655 S
O287 Cd286 2.240 . S
O287 C292 1.279 . S
O288 Cd285 2.297 . S
O288 C290 1.247 . S
O289 Cd285 2.439 . S
O289 C290 1.208 . S
C290 O288 1.247 . S
C290 O289 1.208 . S
C291 O296 1.247 . S
C291 O297 1.208 . S
C292 O284 1.315 . S
C292 O287 1.279 . S
C293 O294 1.315 . S
C293 O295 1.279 1_655 S
O294 Cd286 2.223 . S
O294 C293 1.315 . S
O295 Cd285 2.240 . S
O295 C293 1.279 1_455 S
O296 Cd286 2.297 1_455 S
O296 C291 1.247 . S
O297 Cd286 2.439 1_455 S
O297 C291 1.208 . S
O298 Cd299 2.223 . S
O298 C306 1.315 . S
Cd299 O298 2.223 . S
Cd299 O302 2.297 . S
Cd299 O303 2.439 . S
Cd299 O309 2.240 . S
Cd300 O301 2.240 . S
Cd300 O308 2.223 . S
Cd300 O310 2.297 . S
Cd300 O311 2.439 . S
O301 Cd300 2.240 . S
O301 C306 1.279 . S
O302 Cd299 2.297 . S
O302 C304 1.247 . S
O303 Cd299 2.439 . S
O303 C304 1.208 . S
C304 O302 1.247 . S
C304 O303 1.208 . S
C305 O310 1.247 . S
C305 O311 1.208 . S
C306 O298 1.315 . S
C306 O301 1.279 . S
C307 O308 1.315 . S
C307 O309 1.279 . S
O308 Cd300 2.223 . S
O308 C307 1.315 . S
O309 Cd299 2.240 . S
O309 C307 1.279 . S
O310 Cd300 2.297 . S
O310 C305 1.247 . S
O311 Cd300 2.439 . S
O311 C305 1.208 . S
H312 C318 0.930 . S
H313 C322 0.930 . S
H314 C327 0.929 . S
H315 C325 0.929 . S
H316 C320 0.929 . S
H317 C326 0.929 . S
C318 H312 0.930 . S
C318 C319 1.367 . S
C318 C326 1.378 . S
C319 C318 1.367 . S
C319 C327 1.433 . S
C320 H316 0.929 . S
C320 C322 1.378 . S
C320 C324 1.350 . S
C321 C324 1.463 . S
C321 C326 1.350 . S
C321 N329 1.427 . S
C322 H313 0.930 . S
C322 C320 1.378 . S
C322 C323 1.367 . S
C323 C322 1.367 . S
C323 C325 1.433 . S
C324 C320 1.350 . S
C324 C321 1.463 . S
C324 N328 1.427 . S
C325 H315 0.929 . S
C325 C323 1.433 . S
C325 N328 1.384 . S
C326 H317 0.929 . S
C326 C318 1.378 . S
C326 C321 1.350 . S
C327 H314 0.929 . S
C327 C319 1.433 . S
C327 N329 1.384 . S
N328 C324 1.427 . S
N328 C325 1.384 . S
N329 C321 1.427 . S
N329 C327 1.384 . S
H330 C336 0.930 . S
H331 C340 0.930 . S
H332 C345 0.929 . S
H333 C343 0.929 . S
H334 C338 0.929 . S
H335 C344 0.929 . S
C336 H330 0.930 . S
C336 C337 1.367 . S
C336 C344 1.378 . S
C337 C336 1.367 . S
C337 C345 1.433 . S
C338 H334 0.929 . S
C338 C340 1.378 . S
C338 C342 1.350 . S
C339 C342 1.461 1_655 S
C339 C344 1.351 . S
C339 N347 1.427 1_655 S
C340 H331 0.930 . S
C340 C338 1.378 . S
C340 C341 1.367 . S
C341 C340 1.367 . S
C341 C343 1.433 . S
C342 C338 1.350 . S
C342 C339 1.461 1_455 S
C342 N346 1.427 . S
C343 H333 0.929 . S
C343 C341 1.433 . S
C343 N346 1.384 . S
C344 H335 0.929 . S
C344 C336 1.378 . S
C344 C339 1.351 . S
C345 H332 0.929 . S
C345 C337 1.433 . S
C345 N347 1.384 1_655 S
N346 C342 1.427 . S
N346 C343 1.384 . S
N347 C339 1.427 1_455 S
N347 C345 1.384 1_455 S
H348 C354 0.930 . S
H349 C358 0.930 . S
H350 C363 0.929 . S
H351 C361 0.929 . S
H352 C356 0.929 . S
H353 C362 0.929 . S
C354 H348 0.930 . S
C354 C355 1.367 . S
C354 C362 1.378 . S
C355 C354 1.367 . S
C355 C363 1.433 . S
C356 H352 0.929 . S
C356 C358 1.378 . S
C356 C360 1.350 . S
C357 C360 1.463 . S
C357 C362 1.350 . S
C357 N365 1.427 . S
C358 H349 0.930 . S
C358 C356 1.378 . S
C358 C359 1.367 . S
C359 C358 1.367 . S
C359 C361 1.433 . S
C360 C356 1.350 . S
C360 C357 1.463 . S
C360 N364 1.427 . S
C361 H351 0.929 . S
C361 C359 1.433 . S
C361 N364 1.384 . S
C362 H353 0.929 . S
C362 C354 1.378 . S
C362 C357 1.350 . S
C363 H350 0.929 . S
C363 C355 1.433 . S
C363 N365 1.384 . S
N364 C360 1.427 . S
N364 C361 1.384 . S
N365 C357 1.427 . S
N365 C363 1.384 . S
H366 C372 0.930 . S
H367 C376 0.930 . S
H368 C381 0.947 . S
H369 C379 0.929 . S
H370 C374 0.929 . S
H371 C380 0.929 . S
C372 H366 0.930 . S
C372 C373 1.367 . S
C372 C380 1.378 . S
C373 C372 1.367 . S
C373 C381 1.433 . S
C374 H370 0.929 . S
C374 C376 1.378 . S
C374 C378 1.350 1_545 S
C375 C378 1.463 1_455 S
C375 C380 1.350 . S
C375 N383 1.421 1_565 S
C376 H367 0.930 . S
C376 C374 1.378 . S
C376 C377 1.367 . S
C377 C376 1.367 . S
C377 C379 1.433 1_545 S
C378 C374 1.350 1_565 S
C378 C375 1.463 1_655 S
C378 N382 1.427 . S
C379 H369 0.929 . S
C379 C377 1.433 1_565 S
C379 N382 1.384 . S
C380 H371 0.929 . S
C380 C372 1.378 . S
C380 C375 1.350 . S
C381 H368 0.947 . S
C381 C373 1.433 . S
C381 N383 1.377 1_565 S
N382 C378 1.427 . S
N382 C379 1.384 . S
N383 C375 1.421 1_545 S
N383 C381 1.377 1_545 S
H384 C390 0.930 . S
H385 C394 0.930 . S
H386 C399 0.929 . S
H387 C397 0.929 . S
H388 C392 0.929 . S
H389 C398 0.929 . S
C390 H384 0.930 . S
C390 C391 1.367 . S
C390 C398 1.378 . S
C391 C390 1.367 . S
C391 C399 1.433 . S
C392 H388 0.929 . S
C392 C394 1.378 . S
C392 C396 1.350 . S
C393 C396 1.463 . S
C393 C398 1.350 . S
C393 N401 1.427 . S
C394 H385 0.930 . S
C394 C392 1.378 . S
C394 C395 1.367 . S
C395 C394 1.367 . S
C395 C397 1.433 . S
C396 C392 1.350 . S
C396 C393 1.463 . S
C396 N400 1.427 . S
C397 H387 0.929 . S
C397 C395 1.433 . S
C397 N400 1.384 . S
C398 H389 0.929 . S
C398 C390 1.378 . S
C398 C393 1.350 . S
C399 H386 0.929 . S
C399 C391 1.433 . S
C399 N401 1.384 . S
N400 C396 1.427 . S
N400 C397 1.384 . S
N401 C393 1.427 . S
N401 C399 1.384 . S
H402 C408 0.930 . S
H403 C412 0.930 . S
H404 C417 0.929 . S
H405 C415 0.929 . S
H406 C410 0.929 . S
H407 C416 0.929 . S
C408 H402 0.930 . S
C408 C409 1.367 . S
C408 C416 1.378 . S
C409 C408 1.367 . S
C409 C417 1.433 . S
C410 H406 0.929 . S
C410 C412 1.378 . S
C410 C414 1.350 . S
C411 C414 1.463 . S
C411 C416 1.350 . S
C411 N419 1.427 . S
C412 H403 0.930 . S
C412 C410 1.378 . S
C412 C413 1.367 . S
C413 C412 1.367 . S
C413 C415 1.433 . S
C414 C410 1.350 . S
C414 C411 1.463 . S
C414 N418 1.427 . S
C415 H405 0.929 . S
C415 C413 1.433 . S
C415 N418 1.384 . S
C416 H407 0.929 . S
C416 C408 1.378 . S
C416 C411 1.350 . S
C417 H404 0.929 . S
C417 C409 1.433 . S
C417 N419 1.384 . S
N418 C414 1.427 . S
N418 C415 1.384 . S
N419 C411 1.427 . S
N419 C417 1.384 . S
H420 C426 0.930 . S
H421 C430 0.930 . S
H422 C435 0.929 . S
H423 C433 0.929 . S
H424 C428 0.929 . S
H425 C434 0.929 . S
C426 H420 0.930 . S
C426 C427 1.367 . S
C426 C434 1.378 . S
C427 C426 1.367 . S
C427 C435 1.433 . S
C428 H424 0.929 . S
C428 C430 1.378 . S
C428 C432 1.350 . S
C429 C432 1.463 . S
C429 C434 1.350 . S
C429 N437 1.427 . S
C430 H421 0.930 . S
C430 C428 1.378 . S
C430 C431 1.367 . S
C431 C430 1.367 . S
C431 C433 1.433 . S
C432 C428 1.350 . S
C432 C429 1.463 . S
C432 N436 1.427 . S
C433 H423 0.929 . S
C433 C431 1.433 . S
C433 N436 1.384 . S
C434 H425 0.929 . S
C434 C426 1.378 . S
C434 C429 1.350 . S
C435 H422 0.929 . S
C435 C427 1.433 . S
C435 N437 1.384 . S
N436 C432 1.427 . S
N436 C433 1.384 . S
N437 C429 1.427 . S
N437 C435 1.384 . S
H438 C444 0.930 . S
H439 C448 0.930 1_545 S
H440 C453 0.929 . S
H441 C451 0.929 . S
H442 C446 0.929 . S
H443 C452 0.929 . S
C444 H438 0.930 . S
C444 C445 1.367 . S
C444 C452 1.378 . S
C445 C444 1.367 . S
C445 C453 1.433 . S
C446 H442 0.929 . S
C446 C448 1.378 . S
C446 C450 1.350 . S
C447 C450 1.463 . S
C447 C452 1.350 . S
C447 N455 1.427 . S
C448 H439 0.930 1_565 S
C448 C446 1.378 . S
C448 C449 1.367 . S
C449 C448 1.367 . S
C449 C451 1.433 . S
C450 C446 1.350 . S
C450 C447 1.463 . S
C450 N454 1.427 . S
C451 H441 0.929 . S
C451 C449 1.433 . S
C451 N454 1.384 . S
C452 H443 0.929 . S
C452 C444 1.378 . S
C452 C447 1.350 . S
C453 H440 0.929 . S
C453 C445 1.433 . S
C453 N455 1.384 . S
N454 C450 1.427 . S
N454 C451 1.384 . S
N455 C447 1.427 . S
N455 C453 1.384 . S
H456 C462 0.930 . S
H457 C466 0.930 . S
H458 C471 0.929 . S
H459 C469 0.929 . S
H460 C464 0.929 . S
H461 C470 0.929 . S
C462 H456 0.930 . S
C462 C463 1.367 . S
C462 C470 1.378 . S
C463 C462 1.367 . S
C463 C471 1.433 . S
C464 H460 0.929 . S
C464 C466 1.378 . S
C464 C468 1.350 . S
C465 C468 1.463 . S
C465 C470 1.350 . S
C465 N473 1.427 . S
C466 H457 0.930 . S
C466 C464 1.378 . S
C466 C467 1.367 . S
C467 C466 1.367 . S
C467 C469 1.433 . S
C468 C464 1.350 . S
C468 C465 1.463 . S
C468 N472 1.427 . S
C469 H459 0.929 . S
C469 C467 1.433 . S
C469 N472 1.384 . S
C470 H461 0.929 . S
C470 C462 1.378 . S
C470 C465 1.350 . S
C471 H458 0.929 . S
C471 C463 1.433 . S
C471 N473 1.384 . S
N472 C468 1.427 . S
N472 C469 1.384 . S
N473 C465 1.427 . S
N473 C471 1.384 . S
H474 C480 0.930 . S
H475 C484 0.930 . S
H476 C489 0.929 . S
H477 C487 0.929 . S
H478 C482 0.929 . S
H479 C488 0.929 . S
C480 H474 0.930 . S
C480 C481 1.367 . S
C480 C488 1.378 . S
C481 C480 1.367 . S
C481 C489 1.433 . S
C482 H478 0.929 . S
C482 C484 1.378 . S
C482 C486 1.350 . S
C483 C486 1.463 . S
C483 C488 1.350 . S
C483 N491 1.427 . S
C484 H475 0.930 . S
C484 C482 1.378 . S
C484 C485 1.367 . S
C485 C484 1.367 . S
C485 C487 1.433 . S
C486 C482 1.350 . S
C486 C483 1.463 . S
C486 N490 1.427 . S
C487 H477 0.929 . S
C487 C485 1.433 . S
C487 N490 1.384 . S
C488 H479 0.929 . S
C488 C480 1.378 . S
C488 C483 1.350 . S
C489 H476 0.929 . S
C489 C481 1.433 . S
C489 N491 1.384 . S
N490 C486 1.427 . S
N490 C487 1.384 . S
N491 C483 1.427 . S
N491 C489 1.384 . S
H492 C498 0.930 . S
H493 C502 0.930 . S
H494 C507 0.929 . S
H495 C505 0.929 . S
H496 C500 0.929 . S
H497 C506 0.929 . S
C498 H492 0.930 . S
C498 C499 1.367 . S
C498 C506 1.378 . S
C499 C498 1.367 . S
C499 C507 1.433 . S
C500 H496 0.929 . S
C500 C502 1.378 . S
C500 C504 1.350 . S
C501 C504 1.463 . S
C501 C506 1.350 . S
C501 N509 1.427 . S
C502 H493 0.930 . S
C502 C500 1.378 . S
C502 C503 1.367 . S
C503 C502 1.367 . S
C503 C505 1.433 . S
C504 C500 1.350 . S
C504 C501 1.463 . S
C504 N508 1.427 . S
C505 H495 0.929 . S
C505 C503 1.433 . S
C505 N508 1.384 . S
C506 H497 0.929 . S
C506 C498 1.378 . S
C506 C501 1.350 . S
C507 H494 0.929 . S
C507 C499 1.433 . S
C507 N509 1.384 . S
N508 C504 1.427 . S
N508 C505 1.384 . S
N509 C501 1.427 . S
N509 C507 1.384 . S
H510 C516 0.930 . S
H511 C520 0.930 . S
H512 C525 0.929 . S
H513 C523 0.929 . S
H514 C518 0.929 . S
H515 C524 0.929 . S
C516 H510 0.930 . S
C516 C517 1.367 . S
C516 C524 1.378 . S
C517 C516 1.367 . S
C517 C525 1.433 . S
C518 H514 0.929 . S
C518 C520 1.378 . S
C518 C522 1.350 . S
C519 C522 1.463 . S
C519 C524 1.350 . S
C519 N527 1.427 . S
C520 H511 0.930 . S
C520 C518 1.378 . S
C520 C521 1.367 . S
C521 C520 1.367 . S
C521 C523 1.433 . S
C522 C518 1.350 . S
C522 C519 1.463 . S
C522 N526 1.427 . S
C523 H513 0.929 . S
C523 C521 1.433 . S
C523 N526 1.384 . S
C524 H515 0.929 . S
C524 C516 1.378 . S
C524 C519 1.350 . S
C525 H512 0.929 . S
C525 C517 1.433 . S
C525 N527 1.384 . S
N526 C522 1.427 . S
N526 C523 1.384 . S
N527 C519 1.427 . S
N527 C525 1.384 . S
H528 C534 0.930 . S
H529 C538 0.930 . S
H530 C543 0.929 . S
H531 C541 0.929 . S
H532 C536 0.929 . S
H533 C542 0.929 . S
C534 H528 0.930 . S
C534 C535 1.367 . S
C534 C542 1.378 . S
C535 C534 1.367 . S
C535 C543 1.433 . S
C536 H532 0.929 . S
C536 C538 1.378 . S
C536 C540 1.350 . S
C537 C540 1.463 . S
C537 C542 1.350 . S
C537 N545 1.427 . S
C538 H529 0.930 . S
C538 C536 1.378 . S
C538 C539 1.367 . S
C539 C538 1.367 . S
C539 C541 1.433 . S
C540 C536 1.350 . S
C540 C537 1.463 . S
C540 N544 1.427 . S
C541 H531 0.929 . S
C541 C539 1.433 . S
C541 N544 1.384 . S
C542 H533 0.929 . S
C542 C534 1.378 . S
C542 C537 1.350 . S
C543 H530 0.929 . S
C543 C535 1.433 . S
C543 N545 1.384 . S
N544 C540 1.427 . S
N544 C541 1.384 . S
N545 C537 1.427 . S
N545 C543 1.384 . S
H546 C552 0.930 . S
H547 C556 0.930 . S
H548 C561 0.929 . S
H549 C559 0.929 . S
H550 C554 0.929 . S
H551 C560 0.929 . S
C552 H546 0.930 . S
C552 C553 1.367 . S
C552 C560 1.378 . S
C553 C552 1.367 . S
C553 C561 1.433 . S
C554 H550 0.929 . S
C554 C556 1.378 . S
C554 C558 1.350 . S
C555 C558 1.463 . S
C555 C560 1.350 . S
C555 N563 1.427 . S
C556 H547 0.930 . S
C556 C554 1.378 . S
C556 C557 1.367 . S
C557 C556 1.367 . S
C557 C559 1.433 . S
C558 C554 1.350 . S
C558 C555 1.463 . S
C558 N562 1.427 . S
C559 H549 0.929 . S
C559 C557 1.433 . S
C559 N562 1.384 . S
C560 H551 0.929 . S
C560 C552 1.378 . S
C560 C555 1.350 . S
C561 H548 0.929 . S
C561 C553 1.433 . S
C561 N563 1.384 . S
N562 C558 1.427 . S
N562 C559 1.384 . S
N563 C555 1.427 . S
N563 C561 1.384 . S
H564 C570 0.930 . S
H565 C574 0.930 . S
H566 C579 0.929 . S
H567 C577 0.929 . S
H568 C572 0.929 . S
H569 C578 0.929 . S
C570 H564 0.930 . S
C570 C571 1.367 . S
C570 C578 1.378 . S
C571 C570 1.367 . S
C571 C579 1.433 . S
C572 H568 0.929 . S
C572 C574 1.378 . S
C572 C576 1.350 . S
C573 C576 1.463 . S
C573 C578 1.350 . S
C573 N581 1.427 . S
C574 H565 0.930 . S
C574 C572 1.378 . S
C574 C575 1.367 . S
C575 C574 1.367 . S
C575 C577 1.433 . S
C576 C572 1.350 . S
C576 C573 1.463 . S
C576 N580 1.427 . S
C577 H567 0.929 . S
C577 C575 1.433 . S
C577 N580 1.384 . S
C578 H569 0.929 . S
C578 C570 1.378 . S
C578 C573 1.350 . S
C579 H566 0.929 . S
C579 C571 1.433 . S
C579 N581 1.384 . S
N580 C576 1.427 . S
N580 C577 1.384 . S
N581 C573 1.427 . S
N581 C579 1.384 . S
H582 C588 0.930 . S
H583 C592 0.930 . S
H584 C597 0.929 . S
H585 C595 0.929 . S
H586 C590 0.929 . S
H587 C596 0.929 . S
C588 H582 0.930 . S
C588 C589 1.367 . S
C588 C596 1.378 . S
C589 C588 1.367 . S
C589 C597 1.433 . S
C590 H586 0.929 . S
C590 C592 1.378 . S
C590 C594 1.350 . S
C591 C594 1.463 . S
C591 C596 1.350 . S
C591 N599 1.427 . S
C592 H583 0.930 . S
C592 C590 1.378 . S
C592 C593 1.367 . S
C593 C592 1.367 . S
C593 C595 1.433 . S
C594 C590 1.350 . S
C594 C591 1.463 . S
C594 N598 1.427 . S
C595 H585 0.929 . S
C595 C593 1.433 . S
C595 N598 1.384 . S
C596 H587 0.929 . S
C596 C588 1.378 . S
C596 C591 1.350 . S
C597 H584 0.929 . S
C597 C589 1.433 . S
C597 N599 1.384 . S
N598 C594 1.427 . S
N598 C595 1.384 . S
N599 C591 1.427 . S
N599 C597 1.384 . S
H600 C606 0.930 . S
H601 C610 0.930 1_545 S
H602 C615 0.929 . S
H603 C613 0.929 . S
H604 C608 0.929 . S
H605 C614 0.929 . S
C606 H600 0.930 . S
C606 C607 1.367 . S
C606 C614 1.378 . S
C607 C606 1.367 . S
C607 C615 1.433 . S
C608 H604 0.929 . S
C608 C610 1.378 . S
C608 C612 1.350 . S
C609 C612 1.463 . S
C609 C614 1.350 . S
C609 N617 1.427 . S
C610 H601 0.930 1_565 S
C610 C608 1.378 . S
C610 C611 1.367 . S
C611 C610 1.367 . S
C611 C613 1.433 . S
C612 C608 1.350 . S
C612 C609 1.463 . S
C612 N616 1.427 . S
C613 H603 0.929 . S
C613 C611 1.433 . S
C613 N616 1.384 . S
C614 H605 0.929 . S
C614 C606 1.378 . S
C614 C609 1.350 . S
C615 H602 0.929 . S
C615 C607 1.433 . S
C615 N617 1.384 . S
N616 C612 1.427 . S
N616 C613 1.384 . S
N617 C609 1.427 . S
N617 C615 1.384 . S
H618 C624 0.930 . S
H619 C628 0.930 . S
H620 C633 0.929 . S
H621 C631 0.929 . S
H622 C626 0.929 . S
H623 C632 0.929 . S
C624 H618 0.930 . S
C624 C625 1.367 . S
C624 C632 1.378 . S
C625 C624 1.367 . S
C625 C633 1.433 . S
C626 H622 0.929 . S
C626 C628 1.378 . S
C626 C630 1.350 . S
C627 C630 1.463 . S
C627 C632 1.350 . S
C627 N635 1.427 . S
C628 H619 0.930 . S
C628 C626 1.378 . S
C628 C629 1.367 . S
C629 C628 1.367 . S
C629 C631 1.433 . S
C630 C626 1.350 . S
C630 C627 1.463 . S
C630 N634 1.427 . S
C631 H621 0.929 . S
C631 C629 1.433 . S
C631 N634 1.384 . S
C632 H623 0.929 . S
C632 C624 1.378 . S
C632 C627 1.350 . S
C633 H620 0.929 . S
C633 C625 1.433 . S
C633 N635 1.384 . S
N634 C630 1.427 . S
N634 C631 1.384 . S
N635 C627 1.427 . S
N635 C633 1.384 . S
H636 C642 0.930 . S
H637 C646 0.930 . S
H638 C651 0.929 . S
H639 C649 0.929 . S
H640 C644 0.929 . S
H641 C650 0.929 1_554 S
C642 H636 0.930 . S
C642 C643 1.367 . S
C642 C650 1.378 . S
C643 C642 1.367 . S
C643 C651 1.433 . S
C644 H640 0.929 . S
C644 C646 1.378 . S
C644 C648 1.350 1_565 S
C645 C648 1.463 . S
C645 C650 1.350 . S
C645 N653 1.427 . S
C646 H637 0.930 . S
C646 C644 1.378 . S
C646 C647 1.367 1_556 S
C647 C646 1.367 1_554 S
C647 C649 1.433 . S
C648 C644 1.350 1_545 S
C648 C645 1.463 . S
C648 N652 1.427 1_556 S
C649 H639 0.929 . S
C649 C647 1.433 . S
C649 N652 1.384 1_565 S
C650 H641 0.929 1_556 S
C650 C642 1.378 . S
C650 C645 1.350 . S
C651 H638 0.929 . S
C651 C643 1.433 . S
C651 N653 1.384 . S
N652 C648 1.427 1_554 S
N652 C649 1.384 1_545 S
N653 C645 1.427 . S
N653 C651 1.384 . S
H654 C660 0.930 . S
H655 C664 0.930 . S
H656 C669 0.929 . S
H657 C667 0.929 . S
H658 C662 0.929 . S
H659 C668 0.929 . S
C660 H654 0.930 . S
C660 C661 1.367 . S
C660 C668 1.378 . S
C661 C660 1.367 . S
C661 C669 1.433 . S
C662 H658 0.929 . S
C662 C664 1.378 . S
C662 C666 1.350 . S
C663 C666 1.463 . S
C663 C668 1.350 . S
C663 N671 1.427 . S
C664 H655 0.930 . S
C664 C662 1.378 . S
C664 C665 1.367 . S
C665 C664 1.367 . S
C665 C667 1.433 . S
C666 C662 1.350 . S
C666 C663 1.463 . S
C666 N670 1.427 . S
C667 H657 0.929 . S
C667 C665 1.433 . S
C667 N670 1.384 . S
C668 H659 0.929 . S
C668 C660 1.378 . S
C668 C663 1.350 . S
C669 H656 0.929 . S
C669 C661 1.433 . S
C669 N671 1.384 . S
N670 C666 1.427 . S
N670 C667 1.384 . S
N671 C663 1.427 . S
N671 C669 1.384 . S
H672 C678 0.930 1_565 S
H673 C682 0.930 . S
H674 C687 0.946 . S
H675 C685 0.929 . S
H676 C680 0.929 . S
H677 C686 0.929 . S
C678 H672 0.930 1_545 S
C678 C679 1.367 1_545 S
C678 C686 1.378 . S
C679 C678 1.367 1_565 S
C679 C687 1.441 . S
C680 H676 0.929 . S
C680 C682 1.378 . S
C680 C684 1.350 . S
C681 C684 1.463 . S
C681 C686 1.350 . S
C681 N689 1.427 . S
C682 H673 0.930 . S
C682 C680 1.378 . S
C682 C683 1.367 . S
C683 C682 1.367 . S
C683 C685 1.433 . S
C684 C680 1.350 . S
C684 C681 1.463 . S
C684 N688 1.427 . S
C685 H675 0.929 . S
C685 C683 1.433 . S
C685 N688 1.384 . S
C686 H677 0.929 . S
C686 C678 1.378 . S
C686 C681 1.350 . S
C687 H674 0.946 . S
C687 C679 1.441 . S
C687 N689 1.360 1_565 S
N688 C684 1.427 . S
N688 C685 1.384 . S
N689 C681 1.427 . S
N689 C687 1.360 1_545 S
H690 C696 0.930 . S
H691 C700 0.930 . S
H692 C705 0.929 . S
H693 C703 0.929 . S
H694 C698 0.929 . S
H695 C704 0.929 . S
C696 H690 0.930 . S
C696 C697 1.367 . S
C696 C704 1.378 . S
C697 C696 1.367 . S
C697 C705 1.433 . S
C698 H694 0.929 . S
C698 C700 1.378 . S
C698 C702 1.350 . S
C699 C702 1.463 . S
C699 C704 1.350 . S
C699 N707 1.427 . S
C700 H691 0.930 . S
C700 C698 1.378 . S
C700 C701 1.367 . S
C701 C700 1.367 . S
C701 C703 1.433 . S
C702 C698 1.350 . S
C702 C699 1.463 . S
C702 N706 1.427 . S
C703 H693 0.929 . S
C703 C701 1.433 . S
C703 N706 1.384 . S
C704 H695 0.929 . S
C704 C696 1.378 . S
C704 C699 1.350 . S
C705 H692 0.929 . S
C705 C697 1.433 . S
C705 N707 1.384 . S
N706 C702 1.427 . S
N706 C703 1.384 . S
N707 C699 1.427 . S
N707 C705 1.384 . S
H708 C714 0.930 . S
H709 C718 0.930 . S
H710 C723 0.929 . S
H711 C721 0.929 . S
H712 C716 0.929 . S
H713 C722 0.929 . S
C714 H708 0.930 . S
C714 C715 1.367 . S
C714 C722 1.378 . S
C715 C714 1.367 . S
C715 C723 1.433 . S
C716 H712 0.929 . S
C716 C718 1.378 . S
C716 C720 1.350 . S
C717 C720 1.463 . S
C717 C722 1.350 1_545 S
C717 N725 1.427 . S
C718 H709 0.930 . S
C718 C716 1.378 . S
C718 C719 1.367 . S
C719 C718 1.367 . S
C719 C721 1.433 . S
C720 C716 1.350 . S
C720 C717 1.463 . S
C720 N724 1.427 . S
C721 H711 0.929 . S
C721 C719 1.433 . S
C721 N724 1.384 . S
C722 H713 0.929 . S
C722 C714 1.378 . S
C722 C717 1.350 1_565 S
C723 H710 0.929 . S
C723 C715 1.433 . S
C723 N725 1.384 1_565 S
N724 C720 1.427 . S
N724 C721 1.384 . S
N725 C717 1.427 . S
N725 C723 1.384 1_545 S
H726 C732 0.930 . S
H727 C736 0.930 . S
H728 C741 0.929 . S
H729 C739 0.929 . S
H730 C734 0.929 . S
H731 C740 0.929 . S
C732 H726 0.930 . S
C732 C733 1.367 . S
C732 C740 1.378 . S
C733 C732 1.367 . S
C733 C741 1.433 . S
C734 H730 0.929 . S
C734 C736 1.378 . S
C734 C738 1.350 . S
C735 C738 1.463 . S
C735 C740 1.350 . S
C735 N743 1.427 . S
C736 H727 0.930 . S
C736 C734 1.378 . S
C736 C737 1.367 . S
C737 C736 1.367 . S
C737 C739 1.433 . S
C738 C734 1.350 . S
C738 C735 1.463 . S
C738 N742 1.427 . S
C739 H729 0.929 . S
C739 C737 1.433 . S
C739 N742 1.384 . S
C740 H731 0.929 . S
C740 C732 1.378 . S
C740 C735 1.350 . S
C741 H728 0.929 . S
C741 C733 1.433 . S
C741 N743 1.384 . S
N742 C738 1.427 . S
N742 C739 1.384 . S
N743 C735 1.427 . S
N743 C741 1.384 . S
H744 C750 0.930 . S
H745 C754 0.930 . S
H746 C759 0.929 . S
H747 C757 0.929 . S
H748 C752 0.929 . S
H749 C758 0.929 . S
C750 H744 0.930 . S
C750 C751 1.367 . S
C750 C758 1.378 . S
C751 C750 1.367 . S
C751 C759 1.433 . S
C752 H748 0.929 . S
C752 C754 1.378 . S
C752 C756 1.350 . S
C753 C756 1.463 . S
C753 C758 1.350 . S
C753 N761 1.427 . S
C754 H745 0.930 . S
C754 C752 1.378 . S
C754 C755 1.367 . S
C755 C754 1.367 . S
C755 C757 1.433 . S
C756 C752 1.350 . S
C756 C753 1.463 . S
C756 N760 1.427 . S
C757 H747 0.929 . S
C757 C755 1.433 . S
C757 N760 1.384 . S
C758 H749 0.929 . S
C758 C750 1.378 . S
C758 C753 1.350 . S
C759 H746 0.929 . S
C759 C751 1.433 . S
C759 N761 1.384 . S
N760 C756 1.427 . S
N760 C757 1.384 . S
N761 C753 1.427 . S
N761 C759 1.384 . S
H762 C768 0.930 . S
H763 C772 0.930 . S
H764 C777 0.929 . S
H765 C775 0.929 . S
H766 C770 0.929 . S
H767 C776 0.929 . S
C768 H762 0.930 . S
C768 C769 1.367 . S
C768 C776 1.378 . S
C769 C768 1.367 . S
C769 C777 1.433 . S
C770 H766 0.929 . S
C770 C772 1.378 . S
C770 C774 1.350 . S
C771 C774 1.463 . S
C771 C776 1.350 . S
C771 N779 1.427 . S
C772 H763 0.930 . S
C772 C770 1.378 . S
C772 C773 1.367 . S
C773 C772 1.367 . S
C773 C775 1.433 . S
C774 C770 1.350 . S
C774 C771 1.463 . S
C774 N778 1.427 . S
C775 H765 0.929 . S
C775 C773 1.433 . S
C775 N778 1.384 . S
C776 H767 0.929 . S
C776 C768 1.378 . S
C776 C771 1.350 . S
C777 H764 0.929 . S
C777 C769 1.433 . S
C777 N779 1.384 . S
N778 C774 1.427 . S
N778 C775 1.384 . S
N779 C771 1.427 . S
N779 C777 1.384 . S
H780 C786 0.930 . S
H781 C790 0.930 . S
H782 C795 0.929 . S
H783 C793 0.929 . S
H784 C788 0.929 . S
H785 C794 0.929 . S
C786 H780 0.930 . S
C786 C787 1.367 . S
C786 C794 1.378 . S
C787 C786 1.367 . S
C787 C795 1.433 . S
C788 H784 0.929 . S
C788 C790 1.378 . S
C788 C792 1.350 . S
C789 C792 1.463 . S
C789 C794 1.350 . S
C789 N797 1.427 . S
C790 H781 0.930 . S
C790 C788 1.378 . S
C790 C791 1.367 . S
C791 C790 1.367 . S
C791 C793 1.433 . S
C792 C788 1.350 . S
C792 C789 1.463 . S
C792 N796 1.427 . S
C793 H783 0.929 . S
C793 C791 1.433 . S
C793 N796 1.384 . S
C794 H785 0.929 . S
C794 C786 1.378 . S
C794 C789 1.350 . S
C795 H782 0.929 . S
C795 C787 1.433 . S
C795 N797 1.384 . S
N796 C792 1.427 . S
N796 C793 1.384 . S
N797 C789 1.427 . S
N797 C795 1.384 . S
H798 C804 0.930 . S
H799 C808 0.930 . S
H800 C813 0.929 . S
H801 C811 0.929 . S
H802 C806 0.929 . S
H803 C812 0.929 . S
C804 H798 0.930 . S
C804 C805 1.367 . S
C804 C812 1.378 . S
C805 C804 1.367 . S
C805 C813 1.433 . S
C806 H802 0.929 . S
C806 C808 1.378 . S
C806 C810 1.350 . S
C807 C810 1.463 . S
C807 C812 1.350 . S
C807 N815 1.427 . S
C808 H799 0.930 . S
C808 C806 1.378 . S
C808 C809 1.367 . S
C809 C808 1.367 . S
C809 C811 1.433 . S
C810 C806 1.350 . S
C810 C807 1.463 . S
C810 N814 1.427 . S
C811 H801 0.929 . S
C811 C809 1.433 . S
C811 N814 1.384 . S
C812 H803 0.929 . S
C812 C804 1.378 . S
C812 C807 1.350 . S
C813 H800 0.929 . S
C813 C805 1.433 . S
C813 N815 1.384 . S
N814 C810 1.427 . S
N814 C811 1.384 . S
N815 C807 1.427 . S
N815 C813 1.384 . S
H816 C822 0.930 . S
H817 C826 0.930 . S
H818 C831 0.929 . S
H819 C829 0.929 . S
H820 C824 0.929 . S
H821 C830 0.929 . S
C822 H816 0.930 . S
C822 C823 1.367 . S
C822 C830 1.378 . S
C823 C822 1.367 . S
C823 C831 1.433 . S
C824 H820 0.929 . S
C824 C826 1.378 . S
C824 C828 1.350 . S
C825 C828 1.463 . S
C825 C830 1.350 . S
C825 N833 1.427 . S
C826 H817 0.930 . S
C826 C824 1.378 . S
C826 C827 1.367 . S
C827 C826 1.367 . S
C827 C829 1.433 . S
C828 C824 1.350 . S
C828 C825 1.463 . S
C828 N832 1.427 . S
C829 H819 0.929 . S
C829 C827 1.433 . S
C829 N832 1.384 . S
C830 H821 0.929 . S
C830 C822 1.378 . S
C830 C825 1.350 . S
C831 H818 0.929 . S
C831 C823 1.433 . S
C831 N833 1.384 . S
N832 C828 1.427 . S
N832 C829 1.384 . S
N833 C825 1.427 . S
N833 C831 1.384 . S
H834 C840 0.930 . S
H835 C844 0.930 . S
H836 C849 0.929 . S
H837 C847 0.929 . S
H838 C842 0.930 . S
H839 C848 0.929 . S
C840 H834 0.930 . S
C840 C841 1.367 . S
C840 C848 1.378 . S
C841 C840 1.367 . S
C841 C849 1.433 . S
C842 H838 0.930 . S
C842 C844 1.378 . S
C842 C846 1.350 1_655 S
C843 C846 1.463 . S
C843 C848 1.350 . S
C843 N851 1.427 . S
C844 H835 0.930 . S
C844 C842 1.378 . S
C844 C845 1.367 . S
C845 C844 1.367 . S
C845 C847 1.433 . S
C846 C842 1.350 1_455 S
C846 C843 1.463 . S
C846 N850 1.427 1_455 S
C847 H837 0.929 . S
C847 C845 1.433 . S
C847 N850 1.384 . S
C848 H839 0.929 . S
C848 C840 1.378 . S
C848 C843 1.350 . S
C849 H836 0.929 . S
C849 C841 1.433 . S
C849 N851 1.384 . S
N850 C846 1.427 1_655 S
N850 C847 1.384 . S
N851 C843 1.427 . S
N851 C849 1.384 . S
H852 C858 0.930 . S
H853 C862 0.930 . S
H854 C867 0.929 . S
H855 C865 0.929 . S
H856 C860 0.929 . S
H857 C866 0.929 . S
C858 H852 0.930 . S
C858 C859 1.367 . S
C858 C866 1.378 . S
C859 C858 1.367 . S
C859 C867 1.433 . S
C860 H856 0.929 . S
C860 C862 1.378 . S
C860 C864 1.350 . S
C861 C864 1.463 . S
C861 C866 1.350 . S
C861 N869 1.427 . S
C862 H853 0.930 . S
C862 C860 1.378 . S
C862 C863 1.367 . S
C863 C862 1.367 . S
C863 C865 1.433 . S
C864 C860 1.350 . S
C864 C861 1.463 . S
C864 N868 1.427 . S
C865 H855 0.929 . S
C865 C863 1.433 . S
C865 N868 1.384 . S
C866 H857 0.929 . S
C866 C858 1.378 . S
C866 C861 1.350 . S
C867 H854 0.929 . S
C867 C859 1.433 . S
C867 N869 1.384 . S
N868 C864 1.427 . S
N868 C865 1.384 . S
N869 C861 1.427 . S
N869 C867 1.384 . S
H870 C876 0.930 . S
H871 C880 0.930 . S
H872 C885 0.929 . S
H873 C883 0.929 . S
H874 C878 0.929 . S
H875 C884 0.924 1_455 S
C876 H870 0.930 . S
C876 C877 1.367 . S
C876 C884 1.378 . S
C877 C876 1.367 . S
C877 C885 1.433 . S
C878 H874 0.929 . S
C878 C880 1.378 1_655 S
C878 C882 1.350 . S
C879 C882 1.463 . S
C879 C884 1.350 . S
C879 N887 1.427 . S
C880 H871 0.930 . S
C880 C878 1.378 1_455 S
C880 C881 1.367 . S
C881 C880 1.367 . S
C881 C883 1.433 . S
C882 C878 1.350 . S
C882 C879 1.463 . S
C882 N886 1.427 1_655 S
C883 H873 0.929 . S
C883 C881 1.433 . S
C883 N886 1.384 . S
C884 H875 0.924 1_655 S
C884 C876 1.378 . S
C884 C879 1.350 . S
C885 H872 0.929 . S
C885 C877 1.433 . S
C885 N887 1.384 . S
N886 C882 1.427 1_455 S
N886 C883 1.384 . S
N887 C879 1.427 . S
N887 C885 1.384 . S
H888 C894 0.930 . S
H889 C898 0.930 . S
H890 C903 0.929 . S
H891 C901 0.929 . S
H892 C896 0.929 . S
H893 C902 0.929 . S
C894 H888 0.930 . S
C894 C895 1.367 . S
C894 C902 1.378 . S
C895 C894 1.367 . S
C895 C903 1.433 . S
C896 H892 0.929 . S
C896 C898 1.378 . S
C896 C900 1.350 . S
C897 C900 1.463 . S
C897 C902 1.350 . S
C897 N905 1.427 . S
C898 H889 0.930 . S
C898 C896 1.378 . S
C898 C899 1.367 . S
C899 C898 1.367 . S
C899 C901 1.433 . S
C900 C896 1.350 . S
C900 C897 1.463 . S
C900 N904 1.427 . S
C901 H891 0.929 . S
C901 C899 1.433 . S
C901 N904 1.384 . S
C902 H893 0.929 . S
C902 C894 1.378 . S
C902 C897 1.350 . S
C903 H890 0.929 . S
C903 C895 1.433 . S
C903 N905 1.384 . S
N904 C900 1.427 . S
N904 C901 1.384 . S
N905 C897 1.427 . S
N905 C903 1.384 . S
H906 C912 0.930 . S
H907 C916 0.930 . S
H908 C921 0.929 . S
H909 C919 0.929 . S
H910 C914 0.929 . S
H911 C920 0.929 . S
C912 H906 0.930 . S
C912 C913 1.367 . S
C912 C920 1.378 . S
C913 C912 1.367 . S
C913 C921 1.433 . S
C914 H910 0.929 . S
C914 C916 1.378 . S
C914 C918 1.350 . S
C915 C918 1.463 1_554 S
C915 C920 1.350 . S
C915 N923 1.427 . S
C916 H907 0.930 . S
C916 C914 1.378 . S
C916 C917 1.367 . S
C917 C916 1.367 . S
C917 C919 1.433 . S
C918 C914 1.350 . S
C918 C915 1.463 1_556 S
C918 N922 1.427 . S
C919 H909 0.929 . S
C919 C917 1.433 . S
C919 N922 1.384 . S
C920 H911 0.929 . S
C920 C912 1.378 . S
C920 C915 1.350 . S
C921 H908 0.929 . S
C921 C913 1.433 . S
C921 N923 1.384 . S
N922 C918 1.427 . S
N922 C919 1.384 . S
N923 C915 1.427 . S
N923 C921 1.384 . S
H924 C930 0.930 . S
H925 C934 0.930 . S
H926 C939 0.929 . S
H927 C937 0.929 . S
H928 C932 0.929 . S
H929 C938 0.929 . S
C930 H924 0.930 . S
C930 C931 1.367 . S
C930 C938 1.378 . S
C931 C930 1.367 . S
C931 C939 1.433 . S
C932 H928 0.929 . S
C932 C934 1.378 . S
C932 C936 1.350 . S
C933 C936 1.463 . S
C933 C938 1.350 . S
C933 N941 1.427 . S
C934 H925 0.930 . S
C934 C932 1.378 . S
C934 C935 1.367 . S
C935 C934 1.367 . S
C935 C937 1.433 . S
C936 C932 1.350 . S
C936 C933 1.463 . S
C936 N940 1.427 . S
C937 H927 0.929 . S
C937 C935 1.433 . S
C937 N940 1.384 . S
C938 H929 0.929 . S
C938 C930 1.378 . S
C938 C933 1.350 . S
C939 H926 0.929 . S
C939 C931 1.433 . S
C939 N941 1.384 . S
N940 C936 1.427 . S
N940 C937 1.384 . S
N941 C933 1.427 . S
N941 C939 1.384 . S
H942 C948 0.930 . S
H943 C952 0.930 . S
H944 C957 0.929 . S
H945 C955 0.929 . S
H946 C950 0.929 . S
H947 C956 0.929 . S
C948 H942 0.930 . S
C948 C949 1.367 . S
C948 C956 1.378 . S
C949 C948 1.367 . S
C949 C957 1.433 . S
C950 H946 0.929 . S
C950 C952 1.378 1_554 S
C950 C954 1.350 . S
C951 C954 1.463 . S
C951 C956 1.350 . S
C951 N959 1.427 . S
C952 H943 0.930 . S
C952 C950 1.378 1_556 S
C952 C953 1.367 . S
C953 C952 1.367 . S
C953 C955 1.433 . S
C954 C950 1.350 . S
C954 C951 1.463 . S
C954 N958 1.427 . S
C955 H945 0.929 . S
C955 C953 1.433 . S
C955 N958 1.384 1_556 S
C956 H947 0.929 . S
C956 C948 1.378 . S
C956 C951 1.350 . S
C957 H944 0.929 . S
C957 C949 1.433 . S
C957 N959 1.384 . S
N958 C954 1.427 . S
N958 C955 1.384 1_554 S
N959 C951 1.427 . S
N959 C957 1.384 . S
H960 C966 0.930 . S
H961 C970 0.930 . S
H962 C975 0.929 . S
H963 C973 0.929 . S
H964 C968 0.929 . S
H965 C974 0.929 . S
C966 H960 0.930 . S
C966 C967 1.367 . S
C966 C974 1.378 . S
C967 C966 1.367 . S
C967 C975 1.433 . S
C968 H964 0.929 . S
C968 C970 1.378 . S
C968 C972 1.350 . S
C969 C972 1.463 . S
C969 C974 1.350 . S
C969 N977 1.427 . S
C970 H961 0.930 . S
C970 C968 1.378 . S
C970 C971 1.367 . S
C971 C970 1.367 . S
C971 C973 1.433 . S
C972 C968 1.350 . S
C972 C969 1.463 . S
C972 N976 1.427 . S
C973 H963 0.929 . S
C973 C971 1.433 . S
C973 N976 1.384 . S
C974 H965 0.929 . S
C974 C966 1.378 . S
C974 C969 1.350 . S
C975 H962 0.929 . S
C975 C967 1.433 . S
C975 N977 1.384 . S
N976 C972 1.427 . S
N976 C973 1.384 . S
N977 C969 1.427 . S
N977 C975 1.384 . S
H978 C984 0.930 . S
H979 C988 0.930 . S
H980 C993 0.929 . S
H981 C991 0.929 . S
H982 C986 0.929 . S
H983 C992 0.953 . S
C984 H978 0.930 . S
C984 C985 1.367 . S
C984 C992 1.378 . S
C985 C984 1.367 . S
C985 C993 1.433 . S
C986 H982 0.929 . S
C986 C988 1.378 . S
C986 C990 1.350 . S
C987 C990 1.463 1_556 S
C987 C992 1.350 . S
C987 N995 1.427 . S
C988 H979 0.930 . S
C988 C986 1.378 . S
C988 C989 1.367 . S
C989 C988 1.367 . S
C989 C991 1.433 . S
C990 C986 1.350 . S
C990 C987 1.463 1_554 S
C990 N994 1.427 . S
C991 H981 0.929 . S
C991 C989 1.433 . S
C991 N994 1.384 . S
C992 H983 0.953 . S
C992 C984 1.378 . S
C992 C987 1.350 . S
C993 H980 0.929 . S
C993 C985 1.433 . S
C993 N995 1.384 . S
N994 C990 1.427 . S
N994 C991 1.384 . S
N995 C987 1.427 . S
N995 C993 1.384 . S
H996 C1002 0.930 . S
H997 C1006 0.930 . S
H998 C1011 0.929 . S
H999 C1009 0.929 . S
H1000 C1004 0.929 . S
H1001 C1010 0.929 . S
C1002 H996 0.930 . S
C1002 C1003 1.367 . S
C1002 C1010 1.378 . S
C1003 C1002 1.367 . S
C1003 C1011 1.433 . S
C1004 H1000 0.929 . S
C1004 C1006 1.378 . S
C1004 C1008 1.350 . S
C1005 C1008 1.463 . S
C1005 C1010 1.350 . S
C1005 N1013 1.427 . S
C1006 H997 0.930 . S
C1006 C1004 1.378 . S
C1006 C1007 1.367 . S
C1007 C1006 1.367 . S
C1007 C1009 1.433 . S
C1008 C1004 1.350 . S
C1008 C1005 1.463 . S
C1008 N1012 1.427 . S
C1009 H999 0.929 . S
C1009 C1007 1.433 . S
C1009 N1012 1.384 . S
C1010 H1001 0.929 . S
C1010 C1002 1.378 . S
C1010 C1005 1.350 . S
C1011 H998 0.929 . S
C1011 C1003 1.433 . S
C1011 N1013 1.384 . S
N1012 C1008 1.427 . S
N1012 C1009 1.384 . S
N1013 C1005 1.427 . S
N1013 C1011 1.384 . S
H1014 C1020 0.930 . S
H1015 C1024 0.930 . S
H1016 C1029 0.929 . S
H1017 C1027 0.929 . S
H1018 C1022 0.929 . S
H1019 C1028 0.929 . S
C1020 H1014 0.930 . S
C1020 C1021 1.367 1_554 S
C1020 C1028 1.378 . S
C1021 C1020 1.367 1_556 S
C1021 C1029 1.433 . S
C1022 H1018 0.929 . S
C1022 C1024 1.378 . S
C1022 C1026 1.350 . S
C1023 C1026 1.463 . S
C1023 C1028 1.350 . S
C1023 N1031 1.427 1_554 S
C1024 H1015 0.930 . S
C1024 C1022 1.378 . S
C1024 C1025 1.367 . S
C1025 C1024 1.367 . S
C1025 C1027 1.433 . S
C1026 C1022 1.350 . S
C1026 C1023 1.463 . S
C1026 N1030 1.427 . S
C1027 H1017 0.929 . S
C1027 C1025 1.433 . S
C1027 N1030 1.384 . S
C1028 H1019 0.929 . S
C1028 C1020 1.378 . S
C1028 C1023 1.350 . S
C1029 H1016 0.929 . S
C1029 C1021 1.433 . S
C1029 N1031 1.384 . S
N1030 C1026 1.427 . S
N1030 C1027 1.384 . S
N1031 C1023 1.427 1_556 S
N1031 C1029 1.384 . S
H1032 C1038 0.930 . S
H1033 C1042 0.930 . S
H1034 C1047 0.929 . S
H1035 C1045 0.929 . S
H1036 C1040 0.929 . S
H1037 C1046 0.929 . S
C1038 H1032 0.930 . S
C1038 C1039 1.367 . S
C1038 C1046 1.378 . S
C1039 C1038 1.367 . S
C1039 C1047 1.433 . S
C1040 H1036 0.929 . S
C1040 C1042 1.378 . S
C1040 C1044 1.350 . S
C1041 C1044 1.463 . S
C1041 C1046 1.350 . S
C1041 N1049 1.427 . S
C1042 H1033 0.930 . S
C1042 C1040 1.378 . S
C1042 C1043 1.367 . S
C1043 C1042 1.367 . S
C1043 C1045 1.433 . S
C1044 C1040 1.350 . S
C1044 C1041 1.463 . S
C1044 N1048 1.427 . S
C1045 H1035 0.929 . S
C1045 C1043 1.433 . S
C1045 N1048 1.384 . S
C1046 H1037 0.929 . S
C1046 C1038 1.378 . S
C1046 C1041 1.350 . S
C1047 H1034 0.929 . S
C1047 C1039 1.433 . S
C1047 N1049 1.384 . S
N1048 C1044 1.427 . S
N1048 C1045 1.384 . S
N1049 C1041 1.427 . S
N1049 C1047 1.384 . S
H1050 C1056 0.930 . S
H1051 C1060 0.930 . S
H1052 C1065 0.929 . S
H1053 C1063 0.929 . S
H1054 C1058 0.929 . S
H1055 C1064 0.929 . S
C1056 H1050 0.930 . S
C1056 C1057 1.367 . S
C1056 C1064 1.378 . S
C1057 C1056 1.367 . S
C1057 C1065 1.433 . S
C1058 H1054 0.929 . S
C1058 C1060 1.378 . S
C1058 C1062 1.350 . S
C1059 C1062 1.463 . S
C1059 C1064 1.350 . S
C1059 N1067 1.427 . S
C1060 H1051 0.930 . S
C1060 C1058 1.378 . S
C1060 C1061 1.367 . S
C1061 C1060 1.367 . S
C1061 C1063 1.433 . S
C1062 C1058 1.350 . S
C1062 C1059 1.463 . S
C1062 N1066 1.427 . S
C1063 H1053 0.929 . S
C1063 C1061 1.433 . S
C1063 N1066 1.384 . S
C1064 H1055 0.929 . S
C1064 C1056 1.378 . S
C1064 C1059 1.350 . S
C1065 H1052 0.929 . S
C1065 C1057 1.433 . S
C1065 N1067 1.384 . S
N1066 C1062 1.427 . S
N1066 C1063 1.384 . S
N1067 C1059 1.427 . S
N1067 C1065 1.384 . S
H1068 C1074 0.930 . S
H1069 C1078 0.930 . S
H1070 C1083 0.929 . S
H1071 C1081 0.929 . S
H1072 C1076 0.929 . S
H1073 C1082 0.929 . S
C1074 H1068 0.930 . S
C1074 C1075 1.367 . S
C1074 C1082 1.378 . S
C1075 C1074 1.367 . S
C1075 C1083 1.433 . S
C1076 H1072 0.929 . S
C1076 C1078 1.378 . S
C1076 C1080 1.350 . S
C1077 C1080 1.463 . S
C1077 C1082 1.350 . S
C1077 N1085 1.427 . S
C1078 H1069 0.930 . S
C1078 C1076 1.378 . S
C1078 C1079 1.367 . S
C1079 C1078 1.367 . S
C1079 C1081 1.433 . S
C1080 C1076 1.350 . S
C1080 C1077 1.463 . S
C1080 N1084 1.427 . S
C1081 H1071 0.929 . S
C1081 C1079 1.433 . S
C1081 N1084 1.384 . S
C1082 H1073 0.929 . S
C1082 C1074 1.378 . S
C1082 C1077 1.350 . S
C1083 H1070 0.929 . S
C1083 C1075 1.433 . S
C1083 N1085 1.384 . S
N1084 C1080 1.427 . S
N1084 C1081 1.384 . S
N1085 C1077 1.427 . S
N1085 C1083 1.384 . S
H1086 C1092 0.930 . S
H1087 C1096 0.930 . S
H1088 C1101 0.929 . S
H1089 C1099 0.929 . S
H1090 C1094 0.929 . S
H1091 C1100 0.929 . S
C1092 H1086 0.930 . S
C1092 C1093 1.367 . S
C1092 C1100 1.378 . S
C1093 C1092 1.367 . S
C1093 C1101 1.433 . S
C1094 H1090 0.929 . S
C1094 C1096 1.378 . S
C1094 C1098 1.350 . S
C1095 C1098 1.463 . S
C1095 C1100 1.350 . S
C1095 N1103 1.427 . S
C1096 H1087 0.930 . S
C1096 C1094 1.378 . S
C1096 C1097 1.367 . S
C1097 C1096 1.367 . S
C1097 C1099 1.433 . S
C1098 C1094 1.350 . S
C1098 C1095 1.463 . S
C1098 N1102 1.427 . S
C1099 H1089 0.929 . S
C1099 C1097 1.433 . S
C1099 N1102 1.384 . S
C1100 H1091 0.929 . S
C1100 C1092 1.378 . S
C1100 C1095 1.350 . S
C1101 H1088 0.929 . S
C1101 C1093 1.433 . S
C1101 N1103 1.384 . S
N1102 C1098 1.427 . S
N1102 C1099 1.384 . S
N1103 C1095 1.427 . S
N1103 C1101 1.384 . S
H1104 C1110 0.930 . S
H1105 C1114 0.930 . S
H1106 C1119 0.929 . S
H1107 C1117 0.929 . S
H1108 C1112 0.929 . S
H1109 C1118 0.929 . S
C1110 H1104 0.930 . S
C1110 C1111 1.367 . S
C1110 C1118 1.378 . S
C1111 C1110 1.367 . S
C1111 C1119 1.433 . S
C1112 H1108 0.929 . S
C1112 C1114 1.378 . S
C1112 C1116 1.350 . S
C1113 C1116 1.463 . S
C1113 C1118 1.350 . S
C1113 N1121 1.427 . S
C1114 H1105 0.930 . S
C1114 C1112 1.378 . S
C1114 C1115 1.367 . S
C1115 C1114 1.367 . S
C1115 C1117 1.433 . S
C1116 C1112 1.350 . S
C1116 C1113 1.463 . S
C1116 N1120 1.427 . S
C1117 H1107 0.929 . S
C1117 C1115 1.433 . S
C1117 N1120 1.384 . S
C1118 H1109 0.929 . S
C1118 C1110 1.378 . S
C1118 C1113 1.350 . S
C1119 H1106 0.929 . S
C1119 C1111 1.433 . S
C1119 N1121 1.384 . S
N1120 C1116 1.427 . S
N1120 C1117 1.384 . S
N1121 C1113 1.427 . S
N1121 C1119 1.384 . S
H1122 C1128 0.930 . S
H1123 C1132 0.930 . S
H1124 C1137 0.929 . S
H1125 C1135 0.929 . S
H1126 C1130 0.929 . S
H1127 C1136 0.929 . S
C1128 H1122 0.930 . S
C1128 C1129 1.367 . S
C1128 C1136 1.378 . S
C1129 C1128 1.367 . S
C1129 C1137 1.433 . S
C1130 H1126 0.929 . S
C1130 C1132 1.378 . S
C1130 C1134 1.350 . S
C1131 C1134 1.463 . S
C1131 C1136 1.350 . S
C1131 N1139 1.427 . S
C1132 H1123 0.930 . S
C1132 C1130 1.378 . S
C1132 C1133 1.367 . S
C1133 C1132 1.367 . S
C1133 C1135 1.433 . S
C1134 C1130 1.350 . S
C1134 C1131 1.463 . S
C1134 N1138 1.427 . S
C1135 H1125 0.929 . S
C1135 C1133 1.433 . S
C1135 N1138 1.384 . S
C1136 H1127 0.929 . S
C1136 C1128 1.378 . S
C1136 C1131 1.350 . S
C1137 H1124 0.929 . S
C1137 C1129 1.433 . S
C1137 N1139 1.384 . S
N1138 C1134 1.427 . S
N1138 C1135 1.384 . S
N1139 C1131 1.427 . S
N1139 C1137 1.384 . S
H1140 C1146 0.930 . S
H1141 C1150 0.930 . S
H1142 C1155 0.929 . S
H1143 C1153 0.929 . S
H1144 C1148 0.929 . S
H1145 C1154 0.929 . S
C1146 H1140 0.930 . S
C1146 C1147 1.367 . S
C1146 C1154 1.378 . S
C1147 C1146 1.367 . S
C1147 C1155 1.433 . S
C1148 H1144 0.929 . S
C1148 C1150 1.378 . S
C1148 C1152 1.350 . S
C1149 C1152 1.463 . S
C1149 C1154 1.350 . S
C1149 N1157 1.427 . S
C1150 H1141 0.930 . S
C1150 C1148 1.378 . S
C1150 C1151 1.367 . S
C1151 C1150 1.367 . S
C1151 C1153 1.433 . S
C1152 C1148 1.350 . S
C1152 C1149 1.463 . S
C1152 N1156 1.427 . S
C1153 H1143 0.929 . S
C1153 C1151 1.433 . S
C1153 N1156 1.384 . S
C1154 H1145 0.929 . S
C1154 C1146 1.378 . S
C1154 C1149 1.350 . S
C1155 H1142 0.929 . S
C1155 C1147 1.433 . S
C1155 N1157 1.384 . S
N1156 C1152 1.427 . S
N1156 C1153 1.384 . S
N1157 C1149 1.427 . S
N1157 C1155 1.384 . S
H1158 C1164 0.930 . S
H1159 C1168 0.930 . S
H1160 C1173 0.929 . S
H1161 C1171 0.929 . S
H1162 C1166 0.929 . S
H1163 C1172 0.929 . S
C1164 H1158 0.930 . S
C1164 C1165 1.367 . S
C1164 C1172 1.378 . S
C1165 C1164 1.367 . S
C1165 C1173 1.433 . S
C1166 H1162 0.929 . S
C1166 C1168 1.378 1_545 S
C1166 C1170 1.350 . S
C1167 C1170 1.463 . S
C1167 C1172 1.350 . S
C1167 N1175 1.427 . S
C1168 H1159 0.930 . S
C1168 C1166 1.378 1_565 S
C1168 C1169 1.367 . S
C1169 C1168 1.367 . S
C1169 C1171 1.433 1_565 S
C1170 C1166 1.350 . S
C1170 C1167 1.463 . S
C1170 N1174 1.427 . S
C1171 H1161 0.929 . S
C1171 C1169 1.433 1_545 S
C1171 N1174 1.384 . S
C1172 H1163 0.929 . S
C1172 C1164 1.378 . S
C1172 C1167 1.350 . S
C1173 H1160 0.929 . S
C1173 C1165 1.433 . S
C1173 N1175 1.384 . S
N1174 C1170 1.427 . S
N1174 C1171 1.384 . S
N1175 C1167 1.427 . S
N1175 C1173 1.384 . S
C323 C152 1.586 1_556 S
C319 C50 1.595 . S
C341 C167 1.644 . S
C337 C61 1.672 . S
C355 C67 1.668 . S
C359 C180 1.659 . S
C377 C194 1.478 . S
C373 C41 1.514 . S
C395 C206 1.598 . S
C391 C95 1.661 . S
C413 C220 1.272 . S
C409 C113 1.294 . S
C427 C106 1.704 . S
C431 C234 1.657 . S
C449 C249 1.418 . S
C445 C86 1.441 . S
C463 C104 1.623 . S
C467 C265 1.613 . S
C485 C278 1.467 . S
C481 C88 1.476 . S
C499 C94 1.587 . S
C503 C263 1.544 . S
C521 C276 1.421 . S
C517 C112 1.412 . S
C535 C70 1.774 . S
C539 C292 1.761 . S
C553 C40 1.509 . S
C557 C291 1.479 . S
C571 C49 1.700 . S
C575 C290 1.643 . S
C589 C59 1.589 . S
C593 C293 1.567 . S
C607 C34 1.643 . S
C611 C195 1.638 1_565 S
C625 C133 1.496 . S
C629 C193 1.466 . S
C647 C153 1.496 . S
C643 C139 1.519 . S
C665 C164 1.693 . S
C661 C77 1.718 . S
C679 C43 1.551 . S
C683 C209 1.533 . S
C701 C250 1.814 . S
C697 C103 1.823 . S
C719 C207 1.451 . S
C715 C85 1.453 . S
C737 C235 1.409 . S
C733 C115 1.417 . S
C755 C236 1.585 . S
C751 C131 1.594 . S
C769 C142 1.669 . S
C773 C251 1.638 . S
C787 C76 1.669 . S
C791 C208 1.653 . S
C809 C222 1.468 . S
C805 C122 1.509 . S
C823 C32 1.661 . S
C827 C178 1.603 . S
C845 C192 1.281 . S
C841 C5 1.285 . S
C863 C150 1.664 . S
C859 C16 1.704 . S
C881 C165 1.424 . S
C877 C23 1.436 . S
C895 C14 1.624 . S
C899 C279 1.615 . S
C913 C25 1.476 . S
C917 C264 1.466 . S
C931 C31 1.587 . S
C935 C277 1.547 . S
C949 C4 1.421 . S
C953 C262 1.412 . S
C971 C306 1.764 . S
C967 C79 1.773 . S
C989 C305 1.487 . S
C985 C121 1.503 . S
C1007 C304 1.634 . S
C1003 C130 1.699 . S
C1021 C140 1.589 . S
C1025 C307 1.566 . S
C1039 C97 1.643 . S
C1043 C223 1.639 . S
C1061 C221 1.473 . S
C1057 C52 1.497 . S
C1079 C237 1.501 . S
C1075 C58 1.522 . S
C1097 C248 1.686 . S
C1093 C68 1.718 . S
C1111 C124 1.551 . S
C1115 C181 1.538 . S
C1133 C166 1.816 . S
C1129 C13 1.823 . S
C1147 C22 1.449 . S
C1151 C179 1.441 . S
C1169 C151 1.401 . S
C1165 C7 1.424 . S
