# Generated by pormake.
# Topology anh, (6,3)-cn, num edge types: 1
# Building blocks:
#     Node 0, Type 0, BuildingBlock: BETFEN_clean_sbu_0, # of connection points: 6
#     Node 1, Type 0, BuildingBlock: BETFEN_clean_sbu_0, # of connection points: 6
#     Node 2, Type 0, BuildingBlock: BETFEN_clean_sbu_0, # of connection points: 6
#     Node 3, Type 1, BuildingBlock: CUQRIR_clean_linker_1, # of connection points: 3
#     Node 4, Type 1, BuildingBlock: CUQRIR_clean_linker_1, # of connection points: 3
#     Node 5, Type 1, BuildingBlock: CUQRIR_clean_linker_1, # of connection points: 3
#     Node 6, Type 1, BuildingBlock: CUQRIR_clean_linker_1, # of connection points: 3
#     Node 7, Type 1, BuildingBlock: CUQRIR_clean_linker_1, # of connection points: 3
#     Node 8, Type 1, BuildingBlock: CUQRIR_clean_linker_1, # of connection points: 3
#     Edge 9, Type (0, 1), BuildingBlock: MIFKUJ_clean_linker_0, # of connection points: 2
#     Edge 10, Type (0, 1), BuildingBlock: MIFKUJ_clean_linker_0, # of connection points: 2
#     Edge 11, Type (0, 1), BuildingBlock: MIFKUJ_clean_linker_0, # of connection points: 2
#     Edge 12, Type (0, 1), BuildingBlock: MIFKUJ_clean_linker_0, # of connection points: 2
#     Edge 13, Type (0, 1), BuildingBlock: MIFKUJ_clean_linker_0, # of connection points: 2
#     Edge 14, Type (0, 1), BuildingBlock: MIFKUJ_clean_linker_0, # of connection points: 2
#     Edge 15, Type (0, 1), BuildingBlock: MIFKUJ_clean_linker_0, # of connection points: 2
#     Edge 16, Type (0, 1), BuildingBlock: MIFKUJ_clean_linker_0, # of connection points: 2
#     Edge 17, Type (0, 1), BuildingBlock: MIFKUJ_clean_linker_0, # of connection points: 2
#     Edge 18, Type (0, 1), BuildingBlock: MIFKUJ_clean_linker_0, # of connection points: 2
#     Edge 19, Type (0, 1), BuildingBlock: MIFKUJ_clean_linker_0, # of connection points: 2
#     Edge 20, Type (0, 1), BuildingBlock: MIFKUJ_clean_linker_0, # of connection points: 2
#     Edge 21, Type (0, 1), BuildingBlock: MIFKUJ_clean_linker_0, # of connection points: 2
#     Edge 22, Type (0, 1), BuildingBlock: MIFKUJ_clean_linker_0, # of connection points: 2
#     Edge 23, Type (0, 1), BuildingBlock: MIFKUJ_clean_linker_0, # of connection points: 2
#     Edge 24, Type (0, 1), BuildingBlock: MIFKUJ_clean_linker_0, # of connection points: 2
#     Edge 25, Type (0, 1), BuildingBlock: MIFKUJ_clean_linker_0, # of connection points: 2
#     Edge 26, Type (0, 1), BuildingBlock: MIFKUJ_clean_linker_0, # of connection points: 2
# Relax obj value: 0.161
# Max RMSD: 0.210
# Mean RMSD: 0.156
data_MOF--net-anh--node1-BETFEN_clean_sbu_0--node2-CUQRIR_clean_linker_1--edge1-MIFKUJ_clean_linker_0
_symmetry_space_group_name_H-M    P1
_symmetry_Int_Tables_number       1
_symmetry_cell_setting            triclinic
loop_
_symmetry_equiv_pos_as_xyz
'x, y, z'
_cell_length_a     36.172355
_cell_length_b     37.221544
_cell_length_c     61.876359
_cell_angle_alpha  86.676248
_cell_angle_beta   90.343108
_cell_angle_gamma 105.14594
loop_
_atom_site_label
_atom_site_type_symbol
_atom_site_fract_x
_atom_site_fract_y
_atom_site_fract_z
_atom_type_partial_charge
Pr0 Pr 0.03833 0.52536 0.15334 0.0
Pr1 Pr 0.06035 0.60884 0.14247 0.0
C2 C 1.00681 0.45539 0.16966 0.0
C3 C 0.96988 0.43009 0.17696 0.0
C4 C 0.93702 0.42452 0.16402 0.0
C5 C 0.90332 0.39794 0.1706 0.0
C6 C 0.90181 0.37657 0.19027 0.0
C7 C 0.93433 0.38349 0.20356 0.0
C8 C 0.96801 0.40984 0.1969 0.0
C9 C 0.06158 0.5455 0.11055 0.0
C10 C 0.97082 0.56794 0.13892 0.0
C11 C 0.09484 0.67902 0.1279 0.0
C12 C 0.12992 0.70696 0.13379 0.0
C13 C 0.14001 0.71193 0.15558 0.0
C14 C 0.17405 0.73746 0.16098 0.0
C15 C 0.19891 0.75821 0.1447 0.0
C16 C 0.18897 0.75287 0.12289 0.0
C17 C 0.15469 0.72753 0.1175 0.0
C18 C 0.04072 0.5883 0.18584 0.0
C19 C 0.12949 0.56575 0.15538 0.0
O20 O 1.02199 0.483 0.1818 0.0
O21 O 1.01163 0.46429 0.14891 0.0
O22 O 0.03961 0.55972 0.12098 0.0
O23 O 0.07096 0.51876 0.12187 0.0
O24 O 0.99804 0.59473 0.12942 0.0
O25 O 0.97936 0.54186 0.15194 0.0
O26 O 0.10014 0.64974 0.11895 0.0
O27 O 0.06661 0.67091 0.14202 0.0
O28 O 0.06152 0.5745 0.1744 0.0
O29 O 1.03022 0.61504 0.17518 0.0
O30 O 0.10319 0.53466 0.1607 0.0
O31 O 0.12045 0.59602 0.14741 0.0
H32 H 0.93761 0.43999 0.14859 0.0
H33 H 0.87896 0.39321 0.15988 0.0
H34 H 0.93395 0.36815 0.219 0.0
H35 H 0.99296 0.41389 0.20717 0.0
H36 H 0.12178 0.69585 0.16847 0.0
H37 H 0.18125 0.7405 0.17791 0.0
H38 H 0.20749 0.76857 0.11001 0.0
H39 H 0.14763 0.72379 0.10059 0.0
Pr40 Pr 0.62285 0.07777 0.51242 0.0
Pr41 Pr 0.53612 0.05627 0.51789 0.0
C42 C 0.69494 0.10775 0.4977 0.0
C43 C 0.7219 0.14454 0.4926 0.0
C44 C 0.73144 0.17176 0.50797 0.0
C45 C 0.75765 0.2061 0.50273 0.0
C46 C 0.77471 0.21399 0.482 0.0
C47 C 0.76454 0.18681 0.46659 0.0
C48 C 0.73856 0.15247 0.47187 0.0
C49 C 0.59709 0.06662 0.5552 0.0
C50 C 0.5775 0.14632 0.51629 0.0
C51 C 0.46226 1.02541 0.52901 0.0
C52 C 0.43406 0.98952 0.52594 0.0
C53 C 0.39696 0.98917 0.5191 0.0
C54 C 0.37074 0.95562 0.51457 0.0
C55 C 0.38115 0.9217 0.51679 0.0
C56 C 0.41817 0.92212 0.52409 0.0
C57 C 0.44436 0.95568 0.52858 0.0
C58 C 0.56142 0.06889 0.4751 0.0
C59 C 0.58265 0.98753 0.5171 0.0
O60 O 0.66547 0.09822 0.48492 0.0
O61 O 0.68665 0.09749 0.51808 0.0
O62 O 0.58377 0.08365 0.54021 0.0
O63 O 0.62676 0.0563 0.54878 0.0
O64 O 0.54709 0.1203 0.52369 0.0
O65 O 0.60779 0.13675 0.50889 0.0
O66 O 0.4908 1.02482 0.54204 0.0
O67 O 0.47269 1.04706 0.51151 0.0
O68 O 0.57486 1.05067 0.48954 0.0
O69 O 0.533 0.08005 0.48239 0.0
O70 O 0.61407 1.01308 0.51071 0.0
O71 O 0.55115 0.99735 0.52217 0.0
H72 H 0.71889 0.16649 0.52407 0.0
H73 H 0.76505 0.22617 0.51508 0.0
H74 H 0.77647 0.19211 0.45035 0.0
H75 H 0.73146 0.13199 0.45972 0.0
H76 H 0.38852 1.015 0.51683 0.0
H77 H 0.34268 0.95642 0.50871 0.0
H78 H 0.427 0.8965 0.52627 0.0
H79 H 0.47281 0.9552 0.53383 0.0
Pr80 Pr 0.57652 0.58886 0.82105 0.0
Pr81 Pr 0.59411 0.66752 0.83033 0.0
C82 C 0.57943 0.52191 0.80871 0.0
C83 C 0.60097 0.49703 0.81872 0.0
C84 C 0.60921 0.49831 0.84095 0.0
C85 C 0.62809 0.47366 0.85089 0.0
C86 C 0.63973 0.44795 0.83867 0.0
C87 C 0.63359 0.44825 0.8162 0.0
C88 C 0.61417 0.47262 0.80628 0.0
C89 C 0.58014 0.59901 0.86546 0.0
C90 C 0.66805 0.63764 0.8242 0.0
C91 C 0.58966 0.73148 0.84629 0.0
C92 C 0.55776 0.74905 0.84436 0.0
C93 C 0.53655 0.74679 0.82518 0.0
C94 C 0.50421 0.76045 0.82378 0.0
C95 C 0.49205 0.77622 0.84162 0.0
C96 C 0.51287 0.77771 0.861 0.0
C97 C 0.54547 0.76417 0.86235 0.0
C98 C 0.59194 0.65655 0.78603 0.0
C99 C 0.50237 0.6199 0.82526 0.0
O100 O 0.60025 0.55294 0.79941 0.0
O101 O 0.55132 0.52669 0.82042 0.0
O102 O 0.6036 0.61824 0.85162 0.0
O103 O 0.55448 0.57323 0.8566 0.0
O104 O 0.6563 0.6623 0.8348 0.0
O105 O 0.64314 0.61068 0.81489 0.0
O106 O 0.58185 0.69998 0.85796 0.0
O107 O 0.60849 0.73052 0.8284 0.0
O108 O 0.56773 0.63802 0.79976 0.0
O109 O 0.61786 0.68247 0.79483 0.0
O110 O 0.51422 0.59414 0.81575 0.0
O111 O 0.52697 0.64773 0.83401 0.0
H112 H 0.60009 0.51769 0.85075 0.0
H113 H 0.63246 0.47378 0.86823 0.0
H114 H 0.6419 0.42824 0.80653 0.0
H115 H 0.60864 0.47175 0.78907 0.0
H116 H 0.54482 0.73424 0.81124 0.0
H117 H 0.48935 0.75948 0.80849 0.0
H118 H 0.50405 0.78948 0.87507 0.0
H119 H 0.56086 0.76516 0.87748 0.0
C120 C 0.56283 1.03794 0.21545 0.0
N121 N 0.58551 0.05545 0.23124 0.0
N122 N 0.53745 1.00677 0.22381 0.0
C123 C 0.56418 1.05216 0.19214 0.0
C124 C 0.54568 1.00588 0.24518 0.0
N125 N 0.5752 1.03519 0.24965 0.0
C126 C 0.52253 0.97834 0.26191 0.0
H127 H 0.54493 0.07091 0.19006 0.0
H128 H 0.55424 1.02901 0.18127 0.0
H129 H 0.59365 0.06814 0.18731 0.0
H130 H 0.50809 0.95178 0.25464 0.0
H131 H 0.50033 0.99037 0.2686 0.0
H132 H 0.54072 0.97253 0.27544 0.0
C133 C 0.58273 0.56714 0.52942 0.0
N134 N 0.57983 0.59383 0.54314 0.0
N135 N 0.57849 0.53327 0.54035 0.0
C136 C 0.58777 0.57364 0.50536 0.0
C137 C 0.57324 0.54057 0.56113 0.0
N138 N 0.57369 0.57681 0.56279 0.0
C139 C 0.57029 0.51274 0.58013 0.0
H140 H 0.57243 0.59426 0.49912 0.0
H141 H 0.5773 0.5472 0.49714 0.0
H142 H 0.6187 0.58514 0.50156 0.0
H143 H 0.58429 0.52663 0.59453 0.0
H144 H 0.58378 0.49021 0.57645 0.0
H145 H 0.53962 0.50008 0.58413 0.0
C146 C 0.08511 0.61813 0.84958 0.0
N147 N 0.10909 0.61077 0.86521 0.0
N148 N 0.04916 0.61227 0.85763 0.0
C149 C 0.09659 0.63102 0.82656 0.0
C150 C 0.05196 0.60081 0.87855 0.0
N151 N 0.08818 0.59954 0.88313 0.0
C152 C 1.01995 0.59346 0.89495 0.0
H153 H 0.10813 0.66178 0.82557 0.0
H154 H 0.07161 0.62381 0.81565 0.0
H155 H 0.11926 0.61842 0.82104 0.0
H156 H 0.99171 0.59085 0.88723 0.0
H157 H 1.02562 0.61688 0.90585 0.0
H158 H 1.01894 0.56752 0.90495 0.0
C159 C 0.08327 0.57556 0.44647 0.0
N160 N 0.06237 0.55529 0.43096 0.0
N161 N 0.11226 0.60298 0.43742 0.0
C162 C 0.07726 0.56698 0.47044 0.0
C163 C 0.10832 0.59862 0.41589 0.0
N164 N 0.07829 0.56944 0.41199 0.0
C165 C 0.13202 0.62453 0.39862 0.0
H166 H 0.05586 0.58093 0.47621 0.0
H167 H 0.10432 0.57741 0.47934 0.0
H168 H 0.06622 0.53652 0.47414 0.0
H169 H 0.15706 0.61407 0.39465 0.0
H170 H 0.14264 0.65311 0.4043 0.0
H171 H 0.11528 0.62566 0.38365 0.0
C172 C 0.47912 0.10534 0.80526 0.0
N173 N 0.4702 0.09042 0.78584 0.0
N174 N 0.50902 0.13597 0.80318 0.0
C175 C 0.46283 0.08669 0.82658 0.0
C176 C 0.51813 0.13911 0.78191 0.0
N177 N 0.49482 0.11133 0.77138 0.0
C178 C 0.55169 0.1678 0.77183 0.0
H179 H 0.43109 0.07896 0.82598 0.0
H180 H 0.47247 0.10502 0.84015 0.0
H181 H 0.47204 0.06065 0.82954 0.0
H182 H 0.57781 0.15767 0.77394 0.0
H183 H 0.55625 0.19432 0.78003 0.0
H184 H 0.54721 0.17283 0.75428 0.0
C185 C 0.55164 0.57161 0.12835 0.0
N186 N 0.57668 0.57219 0.11196 0.0
N187 N 0.51659 0.57153 0.12041 0.0
C188 C 0.56054 0.56876 0.15202 0.0
C189 C 0.52117 0.57225 0.09872 0.0
N190 N 0.55746 0.57235 0.09359 0.0
C191 C 0.4906 0.57494 0.08253 0.0
H192 H 0.58164 0.55211 0.15494 0.0
H193 H 0.53417 0.55596 0.1617 0.0
H194 H 0.57314 0.59719 0.15751 0.0
H195 H 0.46934 0.58795 0.08944 0.0
H196 H 0.47544 0.54646 0.07802 0.0
H197 H 0.50333 0.59147 0.06763 0.0
H198 H 0.18807 0.62448 0.1661 0.0
H199 H 0.25636 0.6272 0.16793 0.0
H200 H 0.23154 0.51284 0.15022 0.0
H201 H 0.1631 0.50938 0.14999 0.0
H202 H 0.28582 0.52271 0.17715 0.0
H203 H 0.26192 0.59631 0.11372 0.0
H204 H 0.23937 0.64731 0.09563 0.0
H205 H 0.32242 0.72763 0.12994 0.0
H206 H 0.34487 0.67696 0.14861 0.0
H207 H 0.45267 0.51566 0.12035 0.0
H208 H 0.38923 0.51652 0.13361 0.0
H209 H 0.43744 0.62488 0.1582 0.0
H210 H 0.50114 0.62374 0.14472 0.0
H211 H 0.37521 0.62374 0.13306 0.0
H212 H 0.4039 0.54999 0.19314 0.0
H213 H 0.42559 0.4987 0.21156 0.0
H214 H 0.33448 0.41851 0.18241 0.0
H215 H 0.31255 0.4693 0.16355 0.0
C216 C 0.19727 0.59984 0.16285 0.0
C217 C 0.17041 0.56677 0.15778 0.0
C218 C 0.23634 0.60146 0.16375 0.0
C219 C 0.24948 0.57055 0.15862 0.0
C220 C 0.22237 0.53716 0.1542 0.0
C221 C 0.18322 0.53519 0.154 0.0
C222 C 0.29128 0.57305 0.15698 0.0
C223 C 0.30522 0.54468 0.16735 0.0
C224 C 0.3172 0.60236 0.14479 0.0
C225 C 0.30467 0.63282 0.13283 0.0
C226 C 0.27527 0.62483 0.11747 0.0
C227 C 0.2625 0.65368 0.10709 0.0
C228 C 0.27942 0.69069 0.11161 0.0
C229 C 0.30925 0.69895 0.12648 0.0
C230 C 0.32195 0.67018 0.137 0.0
C231 C 0.44968 0.5391 0.12912 0.0
C232 C 0.48147 0.56946 0.13177 0.0
C233 C 0.41356 0.53966 0.13669 0.0
C234 C 0.40854 0.57069 0.14704 0.0
C235 C 0.44066 0.60061 0.15034 0.0
C236 C 0.47696 0.59987 0.14285 0.0
C237 C 0.36926 0.57282 0.15269 0.0
C238 C 0.35584 0.60205 0.14307 0.0
C239 C 0.34377 0.54418 0.16539 0.0
C240 C 0.35672 0.5135 0.17682 0.0
C241 C 0.38863 0.52142 0.19053 0.0
C242 C 0.40095 0.49243 0.20107 0.0
C243 C 0.38146 0.45537 0.19813 0.0
C244 C 0.34956 0.44723 0.18467 0.0
C245 C 0.33713 0.47611 0.17408 0.0
H246 H 0.39105 0.43297 0.2063 0.0
H247 H 0.26944 0.71295 0.10355 0.0
H248 H 0.77443 0.2839 0.49404 0.0
H249 H 0.82212 0.34279 0.48525 0.0
H250 H 0.88684 0.28516 0.44815 0.0
H251 H 0.84038 0.22601 0.45772 0.0
H252 H 0.9333 0.33338 0.47208 0.0
H253 H 0.82922 0.33775 0.42386 0.0
H254 H 0.76215 0.33508 0.41466 0.0
H255 H 0.76595 0.42789 0.4535 0.0
H256 H 0.83292 0.4308 0.46316 0.0
H257 H 0.05646 0.48804 0.4154 0.0
H258 H 1.00522 0.43089 0.42312 0.0
H259 H 0.94663 0.49156 0.46218 0.0
H260 H 0.9975 0.54893 0.45386 0.0
H261 H 0.89659 0.44286 0.43796 0.0
H262 H 1.0004 0.43932 0.48578 0.0
H263 H 0.0674 0.44236 0.49527 0.0
H264 H 0.06388 0.34806 0.45774 0.0
H265 H 0.997 0.34482 0.44772 0.0
C266 C 0.799 0.28366 0.48419 0.0
C267 C 0.80339 0.25012 0.47652 0.0
C268 C 0.82604 0.31746 0.47897 0.0
C269 C 0.85782 0.31854 0.46576 0.0
C270 C 0.86248 0.2851 0.45827 0.0
C271 C 0.83562 0.2513 0.46358 0.0
C272 C 0.88656 0.35435 0.4599 0.0
C273 C 0.92528 0.35712 0.46435 0.0
C274 C 0.87608 0.38576 0.45035 0.0
C275 C 0.83595 0.38427 0.44439 0.0
C276 C 0.81567 0.35743 0.43055 0.0
C277 C 0.77769 0.3559 0.42524 0.0
C278 C 0.75977 0.38124 0.43353 0.0
C279 C 0.77985 0.40825 0.44711 0.0
C280 C 0.81783 0.40988 0.45249 0.0
C281 C 1.03226 0.48913 0.42531 0.0
C282 C 1.03084 0.52256 0.4342 0.0
C283 C 1.00322 0.45653 0.42987 0.0
C284 C 0.9724 0.45682 0.44353 0.0
C285 C 0.97022 0.49064 0.45171 0.0
C286 C 0.99928 0.52324 0.4471 0.0
C287 C 0.94326 0.42162 0.44991 0.0
C288 C 0.90453 0.41905 0.44565 0.0
C289 C 0.95369 0.39038 0.45968 0.0
C290 C 0.9938 0.39205 0.46584 0.0
C291 C 1.014 0.4194 0.47942 0.0
C292 C 0.05194 0.42114 0.48491 0.0
C293 C 0.06991 0.39547 0.47707 0.0
C294 C 0.04994 0.36795 0.46377 0.0
C295 C 1.012 0.36614 0.45819 0.0
H296 H 0.09929 0.39686 0.48134 0.0
H297 H 0.73036 0.37999 0.42941 0.0
H298 H 0.4239 0.75222 0.8202 0.0
H299 H 0.38147 0.79088 0.80802 0.0
H300 H 0.44723 0.88055 0.84475 0.0
H301 H 0.48929 0.84258 0.85677 0.0
H302 H 0.37497 0.88494 0.84171 0.0
H303 H 0.47663 0.8673 0.79184 0.0
H304 H 0.50398 0.8268 0.77006 0.0
H305 H 0.39659 0.78962 0.73762 0.0
H306 H 0.3686 0.82971 0.75942 0.0
H307 H 0.49973 1.03415 0.77738 0.0
H308 H 0.46688 0.96817 0.78028 0.0
H309 H 0.3598 0.99506 0.79205 0.0
H310 H 0.39365 0.06188 0.78937 0.0
H311 H 0.41153 0.91705 0.76449 0.0
H312 H 0.31262 0.93466 0.82802 0.0
H313 H 0.30032 0.9804 0.85259 0.0
H314 H 0.42135 1.02499 0.8607 0.0
H315 H 0.43423 0.97972 0.83601 0.0
C316 C 0.42864 0.77991 0.82605 0.0
C317 C 0.46056 0.79476 0.83898 0.0
C318 C 0.40419 0.80179 0.81923 0.0
C319 C 0.41164 0.83884 0.82511 0.0
C320 C 0.4408 0.85202 0.84 0.0
C321 C 0.46504 0.83022 0.84686 0.0
C322 C 0.39563 0.86659 0.81287 0.0
C323 C 0.3815 0.89136 0.8246 0.0
C324 C 0.40379 0.87491 0.7905 0.0
C325 C 0.42049 0.85105 0.77735 0.0
C326 C 0.4589 0.85037 0.78009 0.0
C327 C 0.47448 0.82751 0.76777 0.0
C328 C 0.452 0.80558 0.7525 0.0
C329 C 0.41392 0.80654 0.74949 0.0
C330 C 0.39817 0.82928 0.76183 0.0
C331 C 0.46897 1.02591 0.77974 0.0
C332 C 0.44902 1.05263 0.78313 0.0
C333 C 0.45008 0.98822 0.78141 0.0
C334 C 0.41082 0.97651 0.78665 0.0
C335 C 0.39014 1.0034 0.78827 0.0
C336 C 0.4093 1.04137 0.78671 0.0
C337 C 0.3946 0.93686 0.79392 0.0
C338 C 0.402 0.90954 0.78114 0.0
C339 C 0.38171 0.92677 0.81554 0.0
C340 C 0.37429 0.95415 0.83014 0.0
C341 C 0.33652 0.95433 0.83504 0.0
C342 C 0.32948 0.98018 0.84892 0.0
C343 C 0.36005 1.0057 0.85811 0.0
C344 C 0.39773 1.00536 0.85347 0.0
C345 C 0.40492 0.97968 0.83952 0.0
H346 H 0.35455 1.02565 0.86888 0.0
H347 H 0.46411 0.7879 0.74296 0.0
H348 H 0.90921 0.53814 0.1656 0.0
H349 H 0.84237 0.53773 0.15924 0.0
H350 H 0.87341 0.59318 0.09618 0.0
H351 H 0.94062 0.59579 0.10318 0.0
H352 H 0.82494 0.62115 0.11053 0.0
H353 H 0.82516 0.49525 0.10545 0.0
H354 H 0.83772 0.43459 0.11579 0.0
H355 H 0.76578 0.42304 0.17206 0.0
H356 H 0.7532 0.48395 0.16224 0.0
H357 H 0.60781 0.52214 0.09434 0.0
H358 H 0.67486 0.51936 0.09642 0.0
H359 H 0.70065 0.61437 0.13598 0.0
H360 H 0.63383 0.6176 0.13335 0.0
H361 H 0.71975 0.508 0.12871 0.0
H362 H 0.78915 0.6694 0.12267 0.0
H363 H 0.77578 0.72532 0.1044 0.0
H364 H 0.70835 0.65777 0.05697 0.0
H365 H 0.72183 0.60165 0.07472 0.0
C366 C 0.90171 0.55022 0.15038 0.0
C367 C 0.93014 0.56694 0.13488 0.0
C368 C 0.86337 0.54974 0.14666 0.0
C369 C 0.85232 0.56475 0.127 0.0
C370 C 0.88087 0.58144 0.1115 0.0
C371 C 0.91936 0.58283 0.11548 0.0
C372 C 0.81124 0.56369 0.1228 0.0
C373 C 0.8021 0.59631 0.11453 0.0
C374 C 0.78104 0.531 0.12714 0.0
C375 C 0.78848 0.49434 0.13319 0.0
C376 C 0.81223 0.47992 0.12012 0.0
C377 C 0.81933 0.44548 0.12587 0.0
C378 C 0.80258 0.425 0.14457 0.0
C379 C 0.77873 0.43895 0.15758 0.0
C380 C 0.77157 0.47342 0.15191 0.0
C381 C 0.62799 0.54247 0.10335 0.0
C382 C 0.61589 0.57013 0.11366 0.0
C383 C 0.66613 0.54071 0.1047 0.0
C384 C 0.69293 0.56675 0.11628 0.0
C385 C 0.68065 0.59417 0.12678 0.0
C386 C 0.6425 0.59589 0.12544 0.0
C387 C 0.73382 0.56569 0.11721 0.0
C388 C 0.7428 0.53271 0.12477 0.0
C389 C 0.76393 0.59738 0.11111 0.0
C390 C 0.75623 0.63126 0.10019 0.0
C391 C 0.77164 0.66652 0.10829 0.0
C392 C 0.76402 0.69826 0.09802 0.0
C393 C 0.74116 0.6951 0.07957 0.0
C394 C 0.72597 0.66021 0.0713 0.0
C395 C 0.73357 0.62843 0.08147 0.0
H396 H 0.73526 0.71969 0.07168 0.0
H397 H 0.80797 0.39826 0.14891 0.0
H398 H 0.39707 0.86525 0.49518 0.0
H399 H 0.35223 0.80831 0.48403 0.0
H400 H 0.2588 0.84148 0.51271 0.0
H401 H 0.30373 0.89796 0.52466 0.0
H402 H 0.25195 0.76778 0.52095 0.0
H403 H 0.27567 0.854 0.45844 0.0
H404 H 0.31572 0.89757 0.43106 0.0
H405 H 0.36146 0.80976 0.41013 0.0
H406 H 0.32204 0.76577 0.4376 0.0
H407 H 0.09763 0.65156 0.46462 0.0
H408 H 0.14457 0.70322 0.48042 0.0
H409 H 0.23613 0.67019 0.44942 0.0
H410 H 0.18895 0.61879 0.43354 0.0
H411 H 0.24497 0.74282 0.44293 0.0
H412 H 0.21957 0.65578 0.50449 0.0
H413 H 0.17943 0.61208 0.53176 0.0
H414 H 0.13692 0.70069 0.55449 0.0
H415 H 0.17639 0.74484 0.52713 0.0
C416 C 0.36709 0.86021 0.49944 0.0
C417 C 0.354 0.88631 0.51076 0.0
C418 C 0.34142 0.82778 0.49286 0.0
C419 C 0.30207 0.82088 0.49726 0.0
C420 C 0.28901 0.84632 0.50905 0.0
C421 C 0.31469 0.87876 0.51569 0.0
C422 C 0.27445 0.78765 0.48907 0.0
C423 C 0.25009 0.7625 0.50387 0.0
C424 C 0.27264 0.78034 0.46683 0.0
C425 C 0.29619 0.8067 0.45022 0.0
C426 C 0.29448 0.84405 0.4481 0.0
C427 C 0.31703 0.86881 0.43255 0.0
C428 C 0.34119 0.85646 0.4189 0.0
C429 C 0.34277 0.8193 0.42073 0.0
C430 C 0.32031 0.79444 0.43628 0.0
C431 C 0.12785 0.65517 0.46154 0.0
C432 C 0.13992 0.63144 0.44798 0.0
C433 C 0.15463 0.68457 0.47053 0.0
C434 C 0.19396 0.69044 0.46625 0.0
C435 C 0.20598 0.66625 0.45293 0.0
C436 C 0.17917 0.63697 0.4439 0.0
C437 C 0.2224 0.7228 0.4748 0.0
C438 C 0.24689 0.74791 0.46004 0.0
C439 C 0.22431 0.72999 0.49706 0.0
C440 C 0.20069 0.70355 0.51362 0.0
C441 C 0.20144 0.66589 0.51519 0.0
C442 C 0.17884 0.64105 0.53069 0.0
C443 C 0.15557 0.65358 0.54482 0.0
C444 C 0.15493 0.69101 0.54352 0.0
C445 C 0.17744 0.71597 0.52803 0.0
H446 H 0.13809 0.6343 0.5568 0.0
H447 H 0.35864 0.87567 0.40687 0.0
H448 H 0.60051 0.39926 0.8695 0.0
H449 H 0.60798 0.33776 0.87886 0.0
H450 H 0.71463 0.36451 0.84273 0.0
H451 H 0.7048 0.42556 0.83166 0.0
H452 H 0.67558 0.31153 0.82666 0.0
H453 H 0.7021 0.32032 0.89923 0.0
H454 H 0.70324 0.33914 0.93679 0.0
H455 H 0.58432 0.28158 0.94474 0.0
H456 H 0.58212 0.26293 0.90715 0.0
H457 H 0.57406 0.12158 0.81745 0.0
H458 H 0.62293 0.16245 0.83924 0.0
H459 H 0.54735 0.23348 0.8467 0.0
H460 H 0.49855 0.19221 0.82525 0.0
H461 H 0.6055 0.22323 0.88481 0.0
H462 H 0.61039 0.28261 0.80024 0.0
H463 H 0.61255 0.26619 0.76223 0.0
H464 H 0.67961 0.18996 0.78081 0.0
H465 H 0.67843 0.20657 0.81883 0.0
C466 C 0.62631 0.39251 0.86425 0.0
C467 C 0.65177 0.4167 0.84961 0.0
C468 C 0.63099 0.35724 0.86989 0.0
C469 C 0.66191 0.34585 0.8615 0.0
C470 C 0.69022 0.37221 0.84922 0.0
C471 C 0.68472 0.40711 0.84289 0.0
C472 C 0.65831 0.30518 0.86041 0.0
C473 C 0.66199 0.29223 0.83985 0.0
C474 C 0.64129 0.27906 0.87747 0.0
C475 C 0.64207 0.28999 0.90027 0.0
C476 C 0.67611 0.31175 0.90893 0.0
C477 C 0.67694 0.32242 0.93026 0.0
C478 C 0.6439 0.3115 0.94316 0.0
C479 C 0.60995 0.28989 0.93475 0.0
C480 C 0.60894 0.27913 0.91343 0.0
C481 C 0.56765 0.14519 0.82457 0.0
C482 C 0.53304 0.15424 0.81986 0.0
C483 C 0.59539 0.1684 0.83692 0.0
C484 C 0.58873 0.20099 0.84441 0.0
C485 C 0.55278 0.20818 0.84122 0.0
C486 C 0.52505 0.18489 0.82897 0.0
C487 C 0.62066 0.23175 0.85106 0.0
C488 C 0.62178 0.24261 0.87241 0.0
C489 C 0.64346 0.25581 0.83502 0.0
C490 C 0.64396 0.24547 0.8123 0.0
C491 C 0.62562 0.26239 0.79615 0.0
C492 C 0.62681 0.25319 0.77463 0.0
C493 C 0.64619 0.22703 0.76911 0.0
C494 C 0.66456 0.21015 0.78511 0.0
C495 C 0.66367 0.21948 0.80663 0.0
H496 H 0.6469 0.21978 0.75246 0.0
H497 H 0.6446 0.31981 0.95966 0.0
H498 H 0.64049 0.9554 0.50644 0.0
H499 H 0.64035 0.88945 0.50931 0.0
H500 H 0.52447 0.86065 0.53388 0.0
H501 H 0.52468 0.92651 0.53135 0.0
H502 H 0.56364 0.82226 0.55691 0.0
H503 H 0.54931 0.84397 0.48047 0.0
H504 H 0.56661 0.87562 0.44442 0.0
H505 H 0.67463 0.84789 0.44685 0.0
H506 H 0.65818 0.81649 0.48306 0.0
H507 H 0.52356 0.62636 0.55209 0.0
H508 H 0.5238 0.69203 0.54598 0.0
H509 H 0.6367 0.71572 0.5174 0.0
H510 H 0.63551 0.64927 0.52286 0.0
H511 H 0.60052 0.75731 0.49609 0.0
H512 H 0.61726 0.73857 0.57242 0.0
H513 H 0.60238 0.70868 0.60891 0.0
H514 H 0.492 0.73168 0.60707 0.0
H515 H 0.50643 0.76199 0.57043 0.0
C516 C 0.61485 0.93512 0.51241 0.0
C517 C 0.58252 0.94681 0.51858 0.0
C518 C 0.61473 0.8971 0.51393 0.0
C519 C 0.58221 0.86934 0.52158 0.0
C520 C 0.55002 0.88103 0.52787 0.0
C521 C 0.55012 0.919 0.52634 0.0
C522 C 0.5819 0.82844 0.52357 0.0
C523 C 0.5712 0.80809 0.54344 0.0
C524 C 0.5928 0.80951 0.50637 0.0
C525 C 0.60267 0.82821 0.48457 0.0
C526 C 0.57687 0.84486 0.47339 0.0
C527 C 0.5865 0.86272 0.45291 0.0
C528 C 0.62174 0.86386 0.44338 0.0
C529 C 0.64737 0.84704 0.45427 0.0
C530 C 0.6379 0.82918 0.47476 0.0
C531 C 0.54832 0.64559 0.54439 0.0
C532 C 0.5795 0.63253 0.538 0.0
C533 C 0.54868 0.68342 0.54105 0.0
C534 C 0.58072 0.70983 0.53169 0.0
C535 C 0.61157 0.69648 0.52474 0.0
C536 C 0.61093 0.65837 0.52782 0.0
C537 C 0.58203 0.75106 0.52943 0.0
C538 C 0.59295 0.77148 0.50955 0.0
C539 C 0.57156 0.77025 0.54666 0.0
C540 C 0.56278 0.75219 0.56865 0.0
C541 C 0.58973 0.73707 0.57976 0.0
C542 C 0.58135 0.72005 0.60049 0.0
C543 C 0.54608 0.71797 0.61031 0.0
C544 C 0.51925 0.73321 0.59943 0.0
C545 C 0.52757 0.75043 0.57871 0.0
H546 H 0.53951 0.70473 0.62635 0.0
H547 H 0.62915 0.8777 0.42753 0.0
H548 H 0.70132 0.591 0.80355 0.0
H549 H 0.76835 0.58959 0.80427 0.0
H550 H 0.7953 0.68432 0.84398 0.0
H551 H 0.72814 0.68629 0.84314 0.0
H552 H 0.85038 0.68906 0.81263 0.0
H553 H 0.78135 0.59742 0.86648 0.0
H554 H 0.7296 0.5429 0.8791 0.0
H555 H 0.76896 0.4748 0.83557 0.0
H556 H 0.8205 0.52911 0.82236 0.0
H557 H 1.02055 0.67013 0.86433 0.0
H558 H 0.95751 0.67707 0.85311 0.0
H559 H 0.93912 0.5771 0.81798 0.0
H560 H 1.00225 0.57017 0.82966 0.0
H561 H 0.87978 0.57379 0.84363 0.0
H562 H 0.95127 0.6634 0.79132 0.0
H563 H 1.0022 0.71771 0.77758 0.0
H564 H 0.95856 0.78892 0.81697 0.0
H565 H 0.90766 0.73493 0.83119 0.0
C566 C 0.72148 0.61179 0.81231 0.0
C567 C 0.70926 0.63863 0.82344 0.0
C568 C 0.75982 0.61086 0.81273 0.0
C569 C 0.78674 0.63652 0.82442 0.0
C570 C 0.77497 0.6642 0.83489 0.0
C571 C 0.73655 0.66521 0.83446 0.0
C572 C 0.82674 0.63344 0.82651 0.0
C573 C 0.8569 0.66402 0.81959 0.0
C574 C 0.83511 0.60032 0.835 0.0
C575 C 0.80456 0.56745 0.84326 0.0
C576 C 0.77881 0.57089 0.85948 0.0
C577 C 0.7495 0.54002 0.86674 0.0
C578 C 0.74589 0.50544 0.85809 0.0
C579 C 0.77169 0.50163 0.84221 0.0
C580 C 0.80097 0.53244 0.83483 0.0
C581 C 1.00333 0.65042 0.85368 0.0
C582 C 1.01605 0.62 0.84751 0.0
C583 C 0.96739 0.65427 0.84729 0.0
C584 C 0.94359 0.62776 0.83453 0.0
C585 C 0.95699 0.59796 0.82775 0.0
C586 C 0.99302 0.59415 0.83419 0.0
C587 C 0.90369 0.62959 0.82991 0.0
C588 C 0.87342 0.59876 0.83644 0.0
C589 C 0.89525 0.66243 0.82098 0.0
C590 C 0.92581 0.69502 0.81246 0.0
C591 C 0.9527 0.69058 0.79719 0.0
C592 C 0.98154 0.72133 0.78929 0.0
C593 C 0.98366 0.75673 0.79643 0.0
C594 C 0.95689 0.76147 0.81146 0.0
C595 C 0.92801 0.73081 0.81943 0.0
H596 H 1.00601 0.7805 0.79029 0.0
H597 H 0.72319 0.48159 0.86374 0.0
H598 H 0.27042 0.76838 0.12706 0.0
H599 H 0.3302 0.81197 0.13763 0.0
H600 H 0.26871 0.85252 0.18618 0.0
H601 H 0.20893 0.80926 0.17559 0.0
H602 H 0.31947 0.90943 0.16256 0.0
H603 H 0.31943 0.79279 0.20105 0.0
H604 H 0.31603 0.72565 0.20413 0.0
H605 H 0.4149 0.74442 0.16275 0.0
H606 H 0.41864 0.8117 0.15921 0.0
H607 H 0.46341 1.00062 0.23244 0.0
H608 H 0.40769 0.95908 0.21609 0.0
H609 H 0.48293 0.91949 0.17503 0.0
H610 H 0.53872 0.96028 0.19218 0.0
H611 H 0.42785 0.86274 0.19108 0.0
H612 H 0.43151 0.98041 0.15503 0.0
H613 H 0.43505 1.04757 0.15202 0.0
H614 H 0.3295 1.02732 0.18774 0.0
H615 H 0.3256 0.96008 0.19126 0.0
C616 C 0.26965 0.78678 0.13987 0.0
C617 C 0.23505 0.78526 0.15059 0.0
C618 C 0.30381 0.81151 0.14597 0.0
C619 C 0.3039 0.8353 0.16278 0.0
C620 C 0.26927 0.83438 0.17318 0.0
C621 C 0.23521 0.80946 0.16723 0.0
C622 C 0.34006 0.86087 0.16986 0.0
C623 C 0.34309 0.89927 0.16895 0.0
C624 C 0.37124 0.8476 0.17759 0.0
C625 C 0.36911 0.80721 0.17972 0.0
C626 C 0.34028 0.78256 0.19247 0.0
C627 C 0.33833 0.74451 0.19433 0.0
C628 C 0.36525 0.7308 0.18366 0.0
C629 C 0.39411 0.75511 0.17104 0.0
C630 C 0.39618 0.79321 0.16911 0.0
C631 C 0.4678 0.98303 0.21989 0.0
C632 C 0.505 0.98364 0.21334 0.0
C633 C 0.43611 0.95953 0.21044 0.0
C634 C 0.44105 0.93656 0.19403 0.0
C635 C 0.47838 0.93708 0.18755 0.0
C636 C 0.51014 0.96047 0.19717 0.0
C637 C 0.40716 0.91146 0.18411 0.0
C638 C 0.4045 0.87309 0.18446 0.0
C639 C 0.37635 0.92479 0.17576 0.0
C640 C 0.37842 0.96521 0.17354 0.0
C641 C 0.40918 0.9903 0.16237 0.0
C642 C 0.41123 1.02838 0.16055 0.0
C643 C 0.38255 1.04171 0.16971 0.0
C644 C 0.3517 1.01696 0.18066 0.0
C645 C 0.34954 0.97885 0.18255 0.0
H646 H 0.3842 0.07121 0.16829 0.0
H647 H 0.36379 0.70135 0.18522 0.0
H648 H 0.63619 0.20841 0.50441 0.0
H649 H 0.63742 0.27434 0.50584 0.0
H650 H 0.52215 0.2432 0.53139 0.0
H651 H 0.52059 0.17722 0.5298 0.0
H652 H 0.52925 0.29967 0.50181 0.0
H653 H 0.60244 0.27729 0.56389 0.0
H654 H 0.65391 0.2564 0.58294 0.0
H655 H 0.73845 0.33589 0.54401 0.0
H656 H 0.6874 0.35704 0.52461 0.0
H657 H 0.5199 0.47121 0.54406 0.0
H658 H 0.52108 0.40731 0.53733 0.0
H659 H 0.63721 0.4477 0.51352 0.0
H660 H 0.6359 0.51196 0.52066 0.0
H661 H 0.63214 0.38765 0.54003 0.0
H662 H 0.55934 0.41285 0.47935 0.0
H663 H 0.50804 0.43332 0.4599 0.0
H664 H 0.42308 0.34831 0.49525 0.0
H665 H 0.47389 0.32764 0.51515 0.0
C666 C 0.611 0.21544 0.51034 0.0
C667 C 0.57827 0.187 0.517 0.0
C668 C 0.61182 0.25343 0.51126 0.0
C669 C 0.58001 0.26437 0.51894 0.0
C670 C 0.54718 0.23599 0.52537 0.0
C671 C 0.54637 0.19801 0.52451 0.0
C672 C 0.58081 0.30512 0.52027 0.0
C673 C 0.55155 0.3187 0.51042 0.0
C674 C 0.61037 0.33081 0.53089 0.0
C675 C 0.64111 0.31849 0.54268 0.0
C676 C 0.632 0.29015 0.55932 0.0
C677 C 0.66109 0.27829 0.57019 0.0
C678 C 0.69942 0.29472 0.56464 0.0
C679 C 0.70874 0.32316 0.54827 0.0
C680 C 0.67975 0.33514 0.53736 0.0
C681 C 0.54537 0.46651 0.53692 0.0
C682 C 0.57758 0.49679 0.5326 0.0
C683 C 0.54611 0.42982 0.53307 0.0
C684 C 0.57914 0.42204 0.52468 0.0
C685 C 0.61124 0.4525 0.51995 0.0
C686 C 0.6104 0.48938 0.52376 0.0
C687 C 0.58032 0.38217 0.52174 0.0
C688 C 0.60992 0.36872 0.53131 0.0
C689 C 0.55111 0.3566 0.5108 0.0
C690 C 0.52044 0.36892 0.49888 0.0
C691 C 0.52972 0.3987 0.48311 0.0
C692 C 0.50072 0.41031 0.47198 0.0
C693 C 0.46232 0.39218 0.47637 0.0
C694 C 0.45284 0.36235 0.49188 0.0
C695 C 0.48173 0.35065 0.50307 0.0
H696 H 0.43992 0.4012 0.46774 0.0
H697 H 0.7219 0.28548 0.57306 0.0
H698 H 0.47014 0.678 0.82123 0.0
H699 H 0.40307 0.67701 0.82665 0.0
H700 H 0.37501 0.55758 0.83928 0.0
H701 H 0.44197 0.55844 0.83234 0.0
H702 H 0.31943 0.5729 0.81891 0.0
H703 H 0.39157 0.62641 0.88019 0.0
H704 H 0.44298 0.67114 0.89838 0.0
H705 H 0.39826 0.76151 0.87409 0.0
H706 H 0.3473 0.71751 0.85508 0.0
H707 H 0.14345 0.55578 0.87423 0.0
H708 H 0.21086 0.5577 0.86741 0.0
H709 H 0.23238 0.67279 0.84394 0.0
H710 H 0.16505 0.67077 0.85102 0.0
H711 H 0.29055 0.66017 0.86996 0.0
H712 H 0.21923 0.60693 0.80869 0.0
H713 H 0.16763 0.56247 0.79042 0.0
H714 H 0.21037 0.47146 0.81589 0.0
H715 H 0.2619 0.51536 0.83462 0.0
C716 C 0.44952 0.65152 0.82492 0.0
C717 C 0.46119 0.61832 0.82652 0.0
C718 C 0.41119 0.65097 0.82822 0.0
C719 C 0.38391 0.61737 0.83413 0.0
C720 C 0.39539 0.58395 0.83492 0.0
C721 C 0.43364 0.58439 0.83095 0.0
C722 C 0.34377 0.61713 0.8399 0.0
C723 C 0.31328 0.59165 0.83034 0.0
C724 C 0.33533 0.64217 0.85444 0.0
C725 C 0.36575 0.66864 0.86607 0.0
C726 C 0.39284 0.65585 0.87859 0.0
C727 C 0.42196 0.6811 0.88901 0.0
C728 C 0.42393 0.71914 0.88738 0.0
C729 C 0.39676 0.73204 0.8753 0.0
C730 C 0.3678 0.70697 0.86465 0.0
C731 C 0.16285 0.58151 0.86789 0.0
C732 C 0.14927 0.61301 0.86293 0.0
C733 C 0.20117 0.58258 0.86386 0.0
C734 C 0.22657 0.61526 0.85487 0.0
C735 C 0.2133 0.64723 0.85076 0.0
C736 C 0.17491 0.64605 0.85468 0.0
C737 C 0.26662 0.6158 0.84912 0.0
C738 C 0.29695 0.64138 0.85863 0.0
C739 C 0.27493 0.59082 0.83464 0.0
C740 C 0.24419 0.5644 0.82323 0.0
C741 C 0.21745 0.57741 0.81053 0.0
C742 C 0.18824 0.55232 0.80008 0.0
C743 C 0.18567 0.51415 0.80203 0.0
C744 C 0.21237 0.50102 0.81441 0.0
C745 C 0.24159 0.526 0.82494 0.0
H746 H 0.16303 0.49476 0.79392 0.0
H747 H 0.44646 0.73861 0.89551 0.0
H748 H 0.82581 0.37509 0.18507 0.0
H749 H 0.76996 0.32241 0.1928 0.0
H750 H 0.84405 0.25612 0.21776 0.0
H751 H 0.89987 0.30771 0.20894 0.0
H752 H 0.79394 0.21727 0.19199 0.0
H753 H 0.78758 0.29426 0.25115 0.0
H754 H 0.78465 0.35213 0.26774 0.0
H755 H 0.67954 0.35032 0.23467 0.0
H756 H 0.68209 0.29266 0.21766 0.0
H757 H 0.65861 0.06589 0.24356 0.0
H758 H 0.71062 0.12321 0.23817 0.0
H759 H 0.63122 0.17945 0.20854 0.0
H760 H 0.57912 0.12219 0.21443 0.0
H761 H 0.68166 0.22431 0.23561 0.0
H762 H 0.68752 0.14686 0.17713 0.0
H763 H 0.6901 0.08876 0.16072 0.0
H764 H 0.79655 0.09177 0.1926 0.0
H765 H 0.79429 0.14962 0.20949 0.0
C766 C 0.8302 0.3492 0.19205 0.0
C767 C 0.8674 0.34569 0.19633 0.0
C768 C 0.7982 0.31923 0.19673 0.0
C769 C 0.80272 0.28533 0.20607 0.0
C770 C 0.83978 0.28197 0.21059 0.0
C771 C 0.87171 0.31172 0.20575 0.0
C772 C 0.76921 0.25272 0.21042 0.0
C773 C 0.76967 0.21877 0.20179 0.0
C774 C 0.73692 0.25483 0.22265 0.0
C775 C 0.73523 0.28935 0.23297 0.0
C776 C 0.76398 0.30635 0.2473 0.0
C777 C 0.76237 0.33909 0.2568 0.0
C778 C 0.73198 0.35494 0.25222 0.0
C779 C 0.70308 0.33803 0.23818 0.0
C780 C 0.70458 0.3053 0.22862 0.0
C781 C 0.65242 0.09069 0.2361 0.0
C782 C 0.61531 0.08973 0.22903 0.0
C783 C 0.682 0.12328 0.23295 0.0
C784 C 0.67489 0.15542 0.22263 0.0
C785 C 0.63738 0.15491 0.2164 0.0
C786 C 0.6078 0.12225 0.21955 0.0
C787 C 0.70694 0.18892 0.21752 0.0
C788 C 0.70604 0.22296 0.22587 0.0
C789 C 0.73892 0.18698 0.20504 0.0
C790 C 0.74056 0.15239 0.19473 0.0
C791 C 0.71134 0.13499 0.18077 0.0
C792 C 0.71276 0.10212 0.17136 0.0
C793 C 0.74343 0.08654 0.17565 0.0
C794 C 0.77279 0.10385 0.18931 0.0
C795 C 0.77147 0.1367 0.19879 0.0
H796 H 0.74448 0.06109 0.16835 0.0
H797 H 0.73079 0.38029 0.25959 0.0
H798 H 0.10998 0.51897 0.08614 0.0
H799 H 0.12447 0.53247 0.04743 0.0
H800 H 0.05146 0.60756 0.04439 0.0
H801 H 0.03687 0.59415 0.08308 0.0
H802 H 1.03453 0.55807 0.01339 0.0
H803 H 0.14674 0.64227 0.03978 0.0
H804 H 0.20511 0.66176 0.06152 0.0
H805 H 0.2544 0.58465 0.03053 0.0
H806 H 0.19613 0.56452 0.00868 0.0
H807 H 0.12806 0.65238 0.90818 0.0
H808 H 0.13363 0.64554 0.94779 0.0
H809 H 0.08201 0.52738 0.94588 0.0
H810 H 0.07654 0.53455 0.90638 0.0
H811 H 0.16359 0.60245 0.97934 0.0
H812 H 1.0132 0.50464 0.98064 0.0
H813 H 0.95305 0.49229 0.95991 0.0
H814 H 0.97858 0.6076 0.93761 0.0
H815 H 0.03933 0.62036 0.95776 0.0
C816 C 0.09727 0.53857 0.07723 0.0
C817 C 0.07205 0.55528 0.08753 0.0
C818 C 0.10577 0.54644 0.05516 0.0
C819 C 0.08916 0.57112 0.04304 0.0
C820 C 0.06458 0.58842 0.05345 0.0
C821 C 0.05626 0.58074 0.07553 0.0
C822 C 0.09511 0.5768 0.01925 0.0
C823 C 0.0628 0.56775 0.00602 0.0
C824 C 0.13193 0.58978 0.00957 0.0
C825 C 0.16692 0.60164 0.02274 0.0
C826 C 0.16989 0.62923 0.03773 0.0
C827 C 0.203 0.64045 0.05004 0.0
C828 C 0.23341 0.62435 0.04747 0.0
C829 C 0.2308 0.59707 0.03253 0.0
C830 C 0.19777 0.5858 0.02014 0.0
C831 C 0.11953 0.62485 0.91626 0.0
C832 C 0.10207 0.59391 0.9045 0.0
C833 C 0.12243 0.62095 0.93881 0.0
C834 C 0.10763 0.58605 0.94977 0.0
C835 C 0.09324 0.55461 0.93774 0.0
C836 C 0.09045 0.55856 0.91526 0.0
C837 C 0.10303 0.5831 0.97367 0.0
C838 C 0.13545 0.59258 0.98684 0.0
C839 C 0.06628 0.57111 0.98344 0.0
C840 C 1.03079 0.56334 0.97053 0.0
C841 C 1.00604 0.52725 0.97118 0.0
C842 C 0.97195 0.52018 0.95948 0.0
C843 C 0.96211 0.54912 0.94736 0.0
C844 C 0.9864 0.58517 0.94687 0.0
C845 C 1.0208 0.59228 0.95826 0.0
H846 H 0.93563 0.54364 0.9384 0.0
H847 H 0.25906 0.63309 0.05699 0.0
H848 H 0.60972 1.03536 0.455 0.0
H849 H 0.62202 1.03666 0.41597 0.0
H850 H 0.54981 0.11144 0.40432 0.0
H851 H 0.53682 0.10952 0.44309 0.0
H852 H 0.52984 0.05501 0.37944 0.0
H853 H 0.64787 0.14033 0.39795 0.0
H854 H 0.70773 0.16111 0.41832 0.0
H855 H 0.74854 0.07226 0.3945 0.0
H856 H 0.6886 1.0505 0.37428 0.0
H857 H 0.56069 0.09309 0.26846 0.0
H858 H 0.56974 0.10669 0.30682 0.0
H859 H 0.62384 1.01669 0.31698 0.0
H860 H 0.6147 1.00331 0.27849 0.0
H861 H 0.65613 0.08222 0.34221 0.0
H862 H 0.53551 0.99403 0.32719 0.0
H863 H 0.47488 0.97232 0.30763 0.0
H864 H 0.43974 0.06834 0.32537 0.0
H865 H 0.50027 0.09064 0.34503 0.0
C866 C 0.59684 1.05234 0.44407 0.0
C867 C 0.57203 0.07205 0.45198 0.0
C868 C 0.60404 0.05325 0.42182 0.0
C869 C 0.58691 0.07425 0.40721 0.0
C870 C 0.56321 0.09493 0.41526 0.0
C871 C 0.55582 0.09382 0.43741 0.0
C872 C 0.59107 0.07256 0.38347 0.0
C873 C 0.55752 0.06161 0.37133 0.0
C874 C 0.62717 0.08018 0.3729 0.0
C875 C 0.66355 0.09356 0.38475 0.0
C876 C 0.66948 0.12504 0.39717 0.0
C877 C 0.70344 0.13702 0.40868 0.0
C878 C 0.73188 0.11797 0.40774 0.0
C879 C 0.72646 0.08696 0.39523 0.0
C880 C 0.6925 0.07481 0.38373 0.0
C881 C 0.57543 0.07705 0.27886 0.0
C882 C 0.58675 1.04707 0.27089 0.0
C883 C 0.58059 0.08472 0.30066 0.0
C884 C 0.59719 0.06247 0.31472 0.0
C885 C 0.61111 1.03422 0.30636 0.0
C886 C 0.60576 1.02648 0.28454 0.0
C887 C 0.59493 0.06528 0.33842 0.0
C888 C 0.62863 0.07605 0.35047 0.0
C889 C 0.559 0.05761 0.34905 0.0
C890 C 0.52251 1.04416 0.33738 0.0
C891 C 0.51495 1.01062 0.32679 0.0
C892 C 0.48059 0.99818 0.31572 0.0
C893 C 0.45357 1.01904 0.31515 0.0
C894 C 0.46074 1.05226 0.32578 0.0
C895 C 0.49501 0.06476 0.33694 0.0
H896 H 0.42702 1.0094 0.30654 0.0
H897 H 0.75813 0.12727 0.41668 0.0
H898 H 0.64313 0.69124 0.75432 0.0
H899 H 0.63857 0.68197 0.71545 0.0
H900 H 0.52912 0.60176 0.7258 0.0
H901 H 0.53415 0.61018 0.76472 0.0
H902 H 0.56994 0.57609 0.69927 0.0
H903 H 0.53834 0.69229 0.70352 0.0
H904 H 0.54646 0.75724 0.71313 0.0
H905 H 0.64984 0.79186 0.67502 0.0
H906 H 0.64265 0.72698 0.66544 0.0
H907 H 0.51454 0.56099 0.59084 0.0
H908 H 0.51609 0.57997 0.62823 0.0
H909 H 0.63115 0.64911 0.61759 0.0
H910 H 0.62907 0.63038 0.57998 0.0
H911 H 0.58866 0.68124 0.64402 0.0
H912 H 0.6191 0.56334 0.64088 0.0
H913 H 0.60868 0.49828 0.63086 0.0
H914 H 0.50214 0.46741 0.66615 0.0
H915 H 0.51189 0.53235 0.67633 0.0
C916 C 0.61806 0.67173 0.74826 0.0
C917 C 0.58893 0.65154 0.76251 0.0
C918 C 0.61537 0.66659 0.72603 0.0
C919 C 0.58322 0.64154 0.71758 0.0
C920 C 0.55417 0.62128 0.73187 0.0
C921 C 0.55702 0.62618 0.75411 0.0
C922 C 0.5803 0.63565 0.69397 0.0
C923 C 0.57329 0.59911 0.68723 0.0
C924 C 0.5856 0.66565 0.67811 0.0
C925 C 0.5902 0.70467 0.68399 0.0
C926 C 0.56302 0.71368 0.69737 0.0
C927 C 0.56741 0.7505 0.70277 0.0
C928 C 0.59872 0.77864 0.69475 0.0
C929 C 0.62565 0.77002 0.68126 0.0
C930 C 0.62142 0.73323 0.67583 0.0
C931 C 0.53966 0.581 0.59643 0.0
C932 C 0.57173 0.59422 0.58278 0.0
C933 C 0.54071 0.5916 0.61776 0.0
C934 C 0.57407 0.61532 0.62585 0.0
C935 C 0.6052 0.63063 0.61173 0.0
C936 C 0.604 0.62016 0.59029 0.0
C937 C 0.57728 0.6218 0.64936 0.0
C938 C 0.58474 0.65832 0.65606 0.0
C939 C 0.57187 0.59182 0.66519 0.0
C940 C 0.56607 0.55273 0.65921 0.0
C941 C 0.59336 0.5427 0.64641 0.0
C942 C 0.58762 0.50584 0.64075 0.0
C943 C 0.5547 0.47876 0.6478 0.0
C944 C 0.52759 0.48843 0.66066 0.0
C945 C 0.53326 0.52523 0.66644 0.0
H946 H 0.55026 0.45027 0.64333 0.0
H947 H 0.60205 0.80713 0.69894 0.0
H948 H 0.5312 0.07978 0.56877 0.0
H949 H 0.50872 0.07915 0.60585 0.0
H950 H 0.60802 1.04604 0.62959 0.0
H951 H 0.63012 1.04529 0.59213 0.0
H952 H 0.54348 1.01218 0.654 0.0
H953 H 0.60848 0.13617 0.62733 0.0
H954 H 0.62174 0.19024 0.6009 0.0
H955 H 0.50723 0.20048 0.60918 0.0
H956 H 0.49308 0.14602 0.63542 0.0
H957 H 0.55633 0.09215 0.75694 0.0
H958 H 0.56811 0.07723 0.71989 0.0
H959 H 0.45852 0.09343 0.70052 0.0
H960 H 0.44657 0.10768 0.73791 0.0
H961 H 0.52525 0.13374 0.67405 0.0
H962 H 0.46274 1.01162 0.7036 0.0
H963 H 0.45209 0.95908 0.73097 0.0
H964 H 0.56456 0.94665 0.71841 0.0
H965 H 0.57627 0.99976 0.69129 0.0
C966 C 0.54802 0.07182 0.58185 0.0
C967 C 0.58263 0.06299 0.57764 0.0
C968 C 0.53515 0.07153 0.60303 0.0
C969 C 0.55707 0.06326 0.62047 0.0
C970 C 0.59076 1.05262 0.61633 0.0
C971 C 0.60344 1.0524 0.595 0.0
C972 C 0.5462 0.06877 0.64286 0.0
C973 C 0.53984 1.03881 0.65847 0.0
C974 C 0.54091 0.10344 0.64855 0.0
C975 C 0.54962 0.1368 0.63319 0.0
C976 C 0.58606 0.14983 0.62343 0.0
C977 C 0.59374 0.18056 0.60849 0.0
C978 C 0.56532 0.19874 0.60332 0.0
C979 C 0.52921 0.18633 0.61317 0.0
C980 C 0.52134 0.15555 0.6281 0.0
C981 C 0.53487 0.09235 0.74468 0.0
C982 C 0.50079 0.10128 0.74989 0.0
C983 C 0.54145 0.0837 0.72368 0.0
C984 C 0.51414 0.08423 0.70758 0.0
C985 C 0.47986 0.0929 0.71281 0.0
C986 C 0.47302 0.10093 0.73399 0.0
C987 C 0.52238 0.07718 0.68512 0.0
C988 C 0.52852 0.10699 0.66953 0.0
C989 C 0.52778 1.04254 0.67958 0.0
C990 C 0.52053 1.00996 0.69552 0.0
C991 C 0.48536 0.99792 0.70678 0.0
C992 C 0.4791 0.968 0.72226 0.0
C993 C 0.50765 0.94957 0.72646 0.0
C994 C 0.54248 0.96098 0.71515 0.0
C995 C 0.54894 0.991 0.69972 0.0
H996 H 0.50275 0.92641 0.73845 0.0
H997 H 0.57129 0.22247 0.59171 0.0
H998 H 0.54012 0.54981 0.89626 0.0
H999 H 0.54714 0.55123 0.93537 0.0
H1000 H 0.63859 0.65222 0.92757 0.0
H1001 H 0.63223 0.65041 0.88796 0.0
H1002 H 0.65385 0.60463 0.96042 0.0
H1003 H 0.55346 0.65987 0.9421 0.0
H1004 H 0.49506 0.66734 0.92382 0.0
H1005 H 0.42975 0.56515 0.95577 0.0
H1006 H 0.48797 0.55685 0.97409 0.0
H1007 H 0.61466 0.62709 0.07519 0.0
H1008 H 0.63004 0.63714 0.03616 0.0
H1009 H 0.5483 0.53278 0.0247 0.0
H1010 H 0.53334 0.52294 0.0635 0.0
H1011 H 0.53431 0.59546 0.0018 0.0
H1012 H 0.64142 0.54176 0.01879 0.0
H1013 H 0.70084 0.54142 0.03845 0.0
H1014 H 0.75496 0.65052 0.01025 0.0
H1015 H 0.6956 0.65178 0.99069 0.0
C1016 C 0.56183 0.5723 0.9028 0.0
C1017 C 0.5854 0.60019 0.8891 0.0
C1018 C 0.56582 0.57309 0.92518 0.0
C1019 C 0.593 0.60214 0.93441 0.0
C1020 C 0.61739 0.62961 0.92077 0.0
C1021 C 0.61359 0.62866 0.89822 0.0
C1022 C 0.59414 0.60401 0.95831 0.0
C1023 C 0.62791 0.60325 0.9695 0.0
C1024 C 0.56046 0.60273 0.97018 0.0
C1025 C 0.52516 0.60763 0.95937 0.0
C1026 C 0.52669 0.63886 0.94513 0.0
C1027 C 0.49359 0.64326 0.93477 0.0
C1028 C 0.45868 0.61668 0.93857 0.0
C1029 C 0.45681 0.58571 0.95282 0.0
C1030 C 0.48985 0.58118 0.96324 0.0
C1031 C 0.60103 0.60596 0.06428 0.0
C1032 C 0.57265 0.57446 0.07202 0.0
C1033 C 0.60963 0.61171 0.04209 0.0
C1034 C 0.58993 0.58586 0.02757 0.0
C1035 C 0.56356 0.55317 0.03563 0.0
C1036 C 0.55512 0.54746 0.05769 0.0
C1037 C 0.59336 0.59408 0.00387 0.0
C1038 C 0.56036 0.59716 0.99273 0.0
C1039 C 0.62794 0.5984 0.99225 0.0
C1040 C 0.66397 0.59699 0.00341 0.0
C1041 C 0.66593 0.56575 0.01685 0.0
C1042 C 0.6996 0.56538 0.02797 0.0
C1043 C 0.73165 0.59593 0.02559 0.0
C1044 C 0.73013 0.62686 0.01205 0.0
C1045 C 0.69648 0.62741 0.00094 0.0
H1046 H 0.75766 0.59564 0.03427 0.0
H1047 H 0.43307 0.62011 0.93053 0.0
H1048 H 0.07421 0.54435 0.21155 0.0
H1049 H 0.06828 0.53289 0.25073 0.0
H1050 H 0.98688 0.59937 0.25234 0.0
H1051 H 0.99403 0.61216 0.21305 0.0
H1052 H 0.03579 0.61902 0.28212 0.0
H1053 H 0.96134 0.50104 0.2621 0.0
H1054 H 0.9447 0.44251 0.24318 0.0
H1055 H 0.03916 0.40981 0.27315 0.0
H1056 H 0.05683 0.46842 0.29195 0.0
H1057 H 1.01159 0.57629 0.39538 0.0
H1058 H 0.99233 0.57039 0.35722 0.0
H1059 H 0.09327 0.53421 0.34343 0.0
H1060 H 0.1126 0.54084 0.38147 0.0
H1061 H 1.0232 0.49588 0.32093 0.0
H1062 H 0.10211 0.62041 0.33502 0.0
H1063 H 0.11704 0.67877 0.35414 0.0
H1064 H 1.00861 0.69707 0.33542 0.0
H1065 H 0.99297 0.63865 0.31628 0.0
C1066 C 0.0548 0.55627 0.22024 0.0
C1067 C 0.03471 0.57931 0.20931 0.0
C1068 C 0.05114 0.54941 0.24265 0.0
C1069 C 1.02666 0.56476 0.25456 0.0
C1070 C 1.00589 0.58713 0.24354 0.0
C1071 C 1.00995 0.59442 0.22111 0.0
C1072 C 1.02526 0.55986 0.27862 0.0
C1073 C 1.03206 0.59189 0.29054 0.0
C1074 C 1.02094 0.52458 0.28976 0.0
C1075 C 1.01054 0.48931 0.27837 0.0
C1076 C 0.97877 0.48153 0.26453 0.0
C1077 C 0.96912 0.4483 0.25384 0.0
C1078 C 0.99085 0.42246 0.25698 0.0
C1079 C 1.02233 0.42984 0.27076 0.0
C1080 C 1.03216 0.46305 0.28145 0.0
C1081 C 1.02887 0.56609 0.38421 0.0
C1082 C 0.0634 0.55894 0.39105 0.0
C1083 C 1.01804 0.56284 0.36252 0.0
C1084 C 0.04151 0.55201 0.34754 0.0
C1085 C 0.07471 0.54241 0.35477 0.0
C1086 C 0.08576 0.5462 0.37636 0.0
C1087 C 1.03416 0.55495 0.32403 0.0
C1088 C 1.02598 0.5227 0.31233 0.0
C1089 C 0.03672 0.58989 0.31303 0.0
C1090 C 0.04619 0.62501 0.32446 0.0
C1091 C 0.08134 0.63675 0.33513 0.0
C1092 C 0.08996 0.66985 0.34593 0.0
C1093 C 0.06372 0.69151 0.34609 0.0
C1094 C 1.02887 0.68021 0.33534 0.0
C1095 C 1.02014 0.64715 0.32448 0.0
H1096 H 0.07043 0.71712 0.35447 0.0
H1097 H 0.98326 0.39668 0.24879 0.0
loop_
_geom_bond_atom_site_label_1
_geom_bond_atom_site_label_2
_geom_bond_distance
_geom_bond_site_symmetry_2
_ccdc_geom_bond_type
Pr0 C2 2.880 . S
Pr0 O20 2.562 . S
Pr0 O21 2.490 . S
Pr0 O22 2.695 1_655 S
Pr0 O23 2.512 . S
Pr0 O25 2.437 . S
Pr0 O28 2.436 . S
Pr0 O30 2.438 1_655 S
Pr1 C11 2.880 . S
Pr1 O22 2.436 . S
Pr1 O24 2.438 1_455 S
Pr1 O26 2.562 . S
Pr1 O27 2.490 . S
Pr1 O28 2.695 1_455 S
Pr1 O29 2.512 . S
Pr1 O31 2.437 . S
C2 Pr0 2.880 . S
C2 C3 1.491 . S
C2 O20 1.254 . S
C2 O21 1.225 . S
C3 C2 1.491 . S
C3 C4 1.392 . S
C3 C8 1.356 . S
C4 C3 1.392 . S
C4 C5 1.368 . S
C4 H32 0.929 . S
C5 C4 1.368 . S
C5 C6 1.386 . S
C5 H33 0.929 . S
C6 C5 1.386 . S
C6 C7 1.373 . S
C7 C6 1.373 . S
C7 C8 1.409 . S
C7 H34 0.931 . S
C8 C3 1.356 . S
C8 C7 1.409 . S
C8 H35 0.930 . S
C9 O22 1.270 . S
C9 O23 1.248 1_455 S
C10 O24 1.267 . S
C10 O25 1.278 . S
C11 Pr1 2.880 . S
C11 C12 1.491 . S
C11 O26 1.254 . S
C11 O27 1.225 . S
C12 C11 1.491 . S
C12 C13 1.392 . S
C12 C17 1.356 . S
C13 C12 1.392 . S
C13 C14 1.368 . S
C13 H36 0.929 . S
C14 C13 1.368 . S
C14 C15 1.386 . S
C14 H37 0.929 . S
C15 C14 1.386 . S
C15 C16 1.373 . S
C16 C15 1.373 . S
C16 C17 1.409 . S
C16 H38 0.931 . S
C17 C12 1.356 . S
C17 C16 1.409 . S
C17 H39 0.930 . S
C18 O28 1.270 1_455 S
C18 O29 1.248 . S
C19 O30 1.267 . S
C19 O31 1.278 . S
O20 Pr0 2.562 . S
O20 C2 1.254 . S
O21 Pr0 2.490 . S
O21 C2 1.225 . S
O22 Pr0 2.695 1_455 S
O22 Pr1 2.436 . S
O22 C9 1.270 . S
O23 Pr0 2.512 . S
O23 C9 1.248 1_655 S
O24 Pr1 2.438 1_655 S
O24 C10 1.267 . S
O25 Pr0 2.437 . S
O25 C10 1.278 . S
O26 Pr1 2.562 . S
O26 C11 1.254 . S
O27 Pr1 2.490 . S
O27 C11 1.225 . S
O28 Pr0 2.436 . S
O28 Pr1 2.695 1_655 S
O28 C18 1.270 1_655 S
O29 Pr1 2.512 . S
O29 C18 1.248 . S
O30 Pr0 2.438 1_455 S
O30 C19 1.267 . S
O31 Pr1 2.437 . S
O31 C19 1.278 . S
H32 C4 0.929 . S
H33 C5 0.929 . S
H34 C7 0.931 . S
H35 C8 0.930 . S
H36 C13 0.929 . S
H37 C14 0.929 . S
H38 C16 0.931 . S
H39 C17 0.930 . S
Pr40 C42 2.880 . S
Pr40 O60 2.562 . S
Pr40 O61 2.490 . S
Pr40 O62 2.695 . S
Pr40 O63 2.512 . S
Pr40 O65 2.437 . S
Pr40 O68 2.436 . S
Pr40 O70 2.438 1_545 S
Pr41 C51 2.880 1_545 S
Pr41 O62 2.436 . S
Pr41 O64 2.437 . S
Pr41 O66 2.563 1_545 S
Pr41 O67 2.490 1_545 S
Pr41 O68 2.695 . S
Pr41 O69 2.512 . S
Pr41 O71 2.437 1_545 S
C42 Pr40 2.880 . S
C42 C43 1.491 . S
C42 O60 1.254 . S
C42 O61 1.225 . S
C43 C42 1.491 . S
C43 C44 1.392 . S
C43 C48 1.356 . S
C44 C43 1.392 . S
C44 C45 1.368 . S
C44 H72 0.929 . S
C45 C44 1.368 . S
C45 C46 1.386 . S
C45 H73 0.929 . S
C46 C45 1.386 . S
C46 C47 1.373 . S
C47 C46 1.373 . S
C47 C48 1.409 . S
C47 H74 0.931 . S
C48 C43 1.356 . S
C48 C47 1.409 . S
C48 H75 0.930 . S
C49 O62 1.270 . S
C49 O63 1.248 . S
C50 O64 1.267 . S
C50 O65 1.278 . S
C51 Pr41 2.880 1_565 S
C51 C52 1.491 . S
C51 O66 1.254 . S
C51 O67 1.225 . S
C52 C51 1.491 . S
C52 C53 1.392 . S
C52 C57 1.356 . S
C53 C52 1.392 . S
C53 C54 1.368 . S
C53 H76 0.929 . S
C54 C53 1.368 . S
C54 C55 1.386 . S
C54 H77 0.929 . S
C55 C54 1.386 . S
C55 C56 1.373 . S
C56 C55 1.373 . S
C56 C57 1.409 . S
C56 H78 0.931 . S
C57 C52 1.356 . S
C57 C56 1.409 . S
C57 H79 0.930 . S
C58 O68 1.270 . S
C58 O69 1.248 . S
C59 O70 1.267 . S
C59 O71 1.278 . S
O60 Pr40 2.562 . S
O60 C42 1.254 . S
O61 Pr40 2.490 . S
O61 C42 1.225 . S
O62 Pr40 2.695 . S
O62 Pr41 2.436 . S
O62 C49 1.270 . S
O63 Pr40 2.512 . S
O63 C49 1.248 . S
O64 Pr41 2.437 . S
O64 C50 1.267 . S
O65 Pr40 2.437 . S
O65 C50 1.278 . S
O66 Pr41 2.563 1_565 S
O66 C51 1.254 . S
O67 Pr41 2.490 1_565 S
O67 C51 1.225 . S
O68 Pr40 2.436 . S
O68 Pr41 2.695 . S
O68 C58 1.270 . S
O69 Pr41 2.512 . S
O69 C58 1.248 . S
O70 Pr40 2.438 1_565 S
O70 C59 1.267 . S
O71 Pr41 2.437 1_565 S
O71 C59 1.278 . S
H72 C44 0.929 . S
H73 C45 0.929 . S
H74 C47 0.931 . S
H75 C48 0.930 . S
H76 C53 0.929 . S
H77 C54 0.929 . S
H78 C56 0.931 . S
H79 C57 0.930 . S
Pr80 C82 2.880 . S
Pr80 O100 2.562 . S
Pr80 O101 2.490 . S
Pr80 O102 2.695 . S
Pr80 O103 2.512 . S
Pr80 O105 2.437 . S
Pr80 O108 2.436 . S
Pr80 O110 2.438 . S
Pr81 C91 2.880 . S
Pr81 O102 2.436 . S
Pr81 O104 2.438 . S
Pr81 O106 2.562 . S
Pr81 O107 2.490 . S
Pr81 O108 2.695 . S
Pr81 O109 2.512 . S
Pr81 O111 2.437 . S
C82 Pr80 2.880 . S
C82 C83 1.491 . S
C82 O100 1.254 . S
C82 O101 1.225 . S
C83 C82 1.491 . S
C83 C84 1.392 . S
C83 C88 1.356 . S
C84 C83 1.392 . S
C84 C85 1.368 . S
C84 H112 0.929 . S
C85 C84 1.368 . S
C85 C86 1.386 . S
C85 H113 0.929 . S
C86 C85 1.386 . S
C86 C87 1.373 . S
C87 C86 1.373 . S
C87 C88 1.409 . S
C87 H114 0.931 . S
C88 C83 1.356 . S
C88 C87 1.409 . S
C88 H115 0.930 . S
C89 O102 1.270 . S
C89 O103 1.248 . S
C90 O104 1.267 . S
C90 O105 1.278 . S
C91 Pr81 2.880 . S
C91 C92 1.491 . S
C91 O106 1.254 . S
C91 O107 1.225 . S
C92 C91 1.491 . S
C92 C93 1.392 . S
C92 C97 1.356 . S
C93 C92 1.392 . S
C93 C94 1.368 . S
C93 H116 0.929 . S
C94 C93 1.368 . S
C94 C95 1.386 . S
C94 H117 0.929 . S
C95 C94 1.386 . S
C95 C96 1.373 . S
C96 C95 1.373 . S
C96 C97 1.409 . S
C96 H118 0.931 . S
C97 C92 1.356 . S
C97 C96 1.409 . S
C97 H119 0.930 . S
C98 O108 1.270 . S
C98 O109 1.248 . S
C99 O110 1.267 . S
C99 O111 1.278 . S
O100 Pr80 2.562 . S
O100 C82 1.254 . S
O101 Pr80 2.490 . S
O101 C82 1.225 . S
O102 Pr80 2.695 . S
O102 Pr81 2.436 . S
O102 C89 1.270 . S
O103 Pr80 2.512 . S
O103 C89 1.248 . S
O104 Pr81 2.438 . S
O104 C90 1.267 . S
O105 Pr80 2.437 . S
O105 C90 1.278 . S
O106 Pr81 2.562 . S
O106 C91 1.254 . S
O107 Pr81 2.490 . S
O107 C91 1.225 . S
O108 Pr80 2.436 . S
O108 Pr81 2.695 . S
O108 C98 1.270 . S
O109 Pr81 2.512 . S
O109 C98 1.248 . S
O110 Pr80 2.438 . S
O110 C99 1.267 . S
O111 Pr81 2.437 . S
O111 C99 1.278 . S
H112 C84 0.929 . S
H113 C85 0.929 . S
H114 C87 0.931 . S
H115 C88 0.930 . S
H116 C93 0.929 . S
H117 C94 0.929 . S
H118 C96 0.931 . S
H119 C97 0.930 . S
C120 N121 1.317 . S
C120 N122 1.348 1_545 S
C120 C123 1.485 . S
N121 C120 1.317 . S
N121 N125 1.370 . S
N122 C120 1.348 1_565 S
N122 C124 1.346 . S
C123 C120 1.485 . S
C123 H127 0.960 . S
C123 H128 0.975 . S
C123 H129 0.960 . S
C124 N122 1.346 . S
C124 N125 1.307 1_565 S
C124 C126 1.486 . S
N125 N121 1.370 . S
N125 C124 1.307 1_545 S
C126 C124 1.486 . S
C126 H130 0.960 . S
C126 H131 0.960 . S
C126 H132 0.959 . S
H127 C123 0.960 . S
H128 C123 0.975 . S
H129 C123 0.960 . S
H130 C126 0.960 . S
H131 C126 0.960 . S
H132 C126 0.959 . S
C133 N134 1.317 . S
C133 N135 1.348 . S
C133 C136 1.485 . S
N134 C133 1.317 . S
N134 N138 1.370 . S
N135 C133 1.348 . S
N135 C137 1.346 . S
C136 C133 1.485 . S
C136 H140 0.960 . S
C136 H141 0.961 . S
C136 H142 0.960 . S
C137 N135 1.346 . S
C137 N138 1.307 . S
C137 C139 1.486 . S
N138 N134 1.370 . S
N138 C137 1.307 . S
C139 C137 1.486 . S
C139 H143 0.960 . S
C139 H144 0.960 . S
C139 H145 0.959 . S
H140 C136 0.960 . S
H141 C136 0.961 . S
H142 C136 0.960 . S
H143 C139 0.960 . S
H144 C139 0.960 . S
H145 C139 0.959 . S
C146 N147 1.317 . S
C146 N148 1.348 1_455 S
C146 C149 1.485 . S
N147 C146 1.317 . S
N147 N151 1.370 . S
N148 C146 1.348 1_655 S
N148 C150 1.346 . S
C149 C146 1.485 . S
C149 H153 0.960 . S
C149 H154 0.961 . S
C149 H155 0.960 . S
C150 N148 1.346 . S
C150 N151 1.307 1_655 S
C150 C152 1.486 . S
N151 N147 1.370 . S
N151 C150 1.307 1_455 S
C152 C150 1.486 . S
C152 H156 0.960 . S
C152 H157 0.960 . S
C152 H158 0.959 . S
H153 C149 0.960 . S
H154 C149 0.961 . S
H155 C149 0.960 . S
H156 C152 0.960 . S
H157 C152 0.960 . S
H158 C152 0.959 . S
C159 N160 1.317 . S
C159 N161 1.348 . S
C159 C162 1.485 . S
N160 C159 1.317 . S
N160 N164 1.370 . S
N161 C159 1.348 . S
N161 C163 1.346 . S
C162 C159 1.485 . S
C162 H166 0.960 . S
C162 H167 0.961 . S
C162 H168 0.960 . S
C163 N161 1.346 . S
C163 N164 1.307 . S
C163 C165 1.486 . S
N164 N160 1.370 . S
N164 C163 1.307 . S
C165 C163 1.486 . S
C165 H169 0.960 . S
C165 H170 0.960 . S
C165 H171 0.959 . S
H166 C162 0.960 . S
H167 C162 0.961 . S
H168 C162 0.960 . S
H169 C165 0.960 . S
H170 C165 0.960 . S
H171 C165 0.959 . S
C172 N173 1.317 . S
C172 N174 1.348 . S
C172 C175 1.485 . S
N173 C172 1.317 . S
N173 N177 1.370 . S
N174 C172 1.348 . S
N174 C176 1.346 . S
C175 C172 1.485 . S
C175 H179 0.960 . S
C175 H180 0.961 . S
C175 H181 0.960 . S
C176 N174 1.346 . S
C176 N177 1.307 . S
C176 C178 1.486 . S
N177 N173 1.370 . S
N177 C176 1.307 . S
C178 C176 1.486 . S
C178 H182 0.960 . S
C178 H183 0.960 . S
C178 H184 0.959 . S
H179 C175 0.960 . S
H180 C175 0.961 . S
H181 C175 0.960 . S
H182 C178 0.960 . S
H183 C178 0.960 . S
H184 C178 0.959 . S
C185 N186 1.317 . S
C185 N187 1.348 . S
C185 C188 1.485 . S
N186 C185 1.317 . S
N186 N190 1.370 . S
N187 C185 1.348 . S
N187 C189 1.346 . S
C188 C185 1.485 . S
C188 H192 0.960 . S
C188 H193 0.961 . S
C188 H194 0.960 . S
C189 N187 1.346 . S
C189 N190 1.307 . S
C189 C191 1.486 . S
N190 N186 1.370 . S
N190 C189 1.307 . S
C191 C189 1.486 . S
C191 H195 0.960 . S
C191 H196 0.960 . S
C191 H197 0.959 . S
H192 C188 0.960 . S
H193 C188 0.961 . S
H194 C188 0.960 . S
H195 C191 0.960 . S
H196 C191 0.960 . S
H197 C191 0.959 . S
H198 C216 0.951 . S
H199 C218 0.951 . S
H200 C220 0.950 . S
H201 C221 0.950 . S
H202 C223 0.950 . S
H203 C226 0.950 . S
H204 C227 0.950 . S
H205 C229 0.950 . S
H206 C230 0.950 . S
H207 C231 0.951 . S
H208 C233 0.951 . S
H209 C235 0.950 . S
H210 C236 0.950 . S
H211 C238 0.950 . S
H212 C241 0.950 . S
H213 C242 0.950 . S
H214 C244 0.950 . S
H215 C245 0.950 . S
C216 H198 0.951 . S
C216 C217 1.366 . S
C216 C218 1.388 . S
C217 C216 1.366 . S
C217 C221 1.385 . S
C218 H199 0.951 . S
C218 C216 1.388 . S
C218 C219 1.366 . S
C219 C218 1.366 . S
C219 C220 1.414 . S
C219 C222 1.499 . S
C220 H200 0.950 . S
C220 C219 1.414 . S
C220 C221 1.374 . S
C221 H201 0.950 . S
C221 C217 1.385 . S
C221 C220 1.374 . S
C222 C219 1.499 . S
C222 C223 1.373 . S
C222 C224 1.389 . S
C223 H202 0.950 . S
C223 C222 1.373 . S
C223 C239 1.377 . S
C224 C222 1.389 . S
C224 C225 1.524 . S
C224 C238 1.377 . S
C225 C224 1.524 . S
C225 C226 1.397 . S
C225 C230 1.363 . S
C226 H203 0.950 . S
C226 C225 1.397 . S
C226 C227 1.334 . S
C227 H204 0.950 . S
C227 C226 1.334 . S
C227 C228 1.287 . S
C228 C227 1.287 . S
C228 C229 1.524 . S
C228 H247 0.913 . S
C229 H205 0.950 . S
C229 C228 1.524 . S
C229 C230 1.415 . S
C230 H206 0.950 . S
C230 C225 1.363 . S
C230 C229 1.415 . S
C231 H207 0.951 . S
C231 C232 1.366 . S
C231 C233 1.388 . S
C232 C231 1.366 . S
C232 C236 1.385 . S
C233 H208 0.951 . S
C233 C231 1.388 . S
C233 C234 1.366 . S
C234 C233 1.366 . S
C234 C235 1.414 . S
C234 C237 1.499 . S
C235 H209 0.950 . S
C235 C234 1.414 . S
C235 C236 1.374 . S
C236 H210 0.950 . S
C236 C232 1.385 . S
C236 C235 1.374 . S
C237 C234 1.499 . S
C237 C238 1.373 . S
C237 C239 1.389 . S
C238 H211 0.950 . S
C238 C224 1.377 . S
C238 C237 1.373 . S
C239 C223 1.377 . S
C239 C237 1.389 . S
C239 C240 1.524 . S
C240 C239 1.524 . S
C240 C241 1.397 . S
C240 C245 1.363 . S
C241 H212 0.950 . S
C241 C240 1.397 . S
C241 C242 1.334 . S
C242 H213 0.950 . S
C242 C241 1.334 . S
C242 C243 1.287 . S
C243 C242 1.287 . S
C243 C244 1.524 . S
C243 H246 0.999 . S
C244 H214 0.950 . S
C244 C243 1.524 . S
C244 C245 1.415 . S
C245 H215 0.950 . S
C245 C240 1.363 . S
C245 C244 1.415 . S
H246 C243 0.999 . S
H247 C228 0.913 . S
H248 C266 0.951 . S
H249 C268 0.951 . S
H250 C270 0.950 . S
H251 C271 0.950 . S
H252 C273 0.950 . S
H253 C276 0.950 . S
H254 C277 0.950 . S
H255 C279 0.950 . S
H256 C280 0.950 . S
H257 C281 0.951 . S
H258 C283 0.951 . S
H259 C285 0.950 . S
H260 C286 0.950 . S
H261 C288 0.950 . S
H262 C291 0.949 1_455 S
H263 C292 0.950 . S
H264 C294 0.950 . S
H265 C295 0.950 . S
C266 H248 0.951 . S
C266 C267 1.366 . S
C266 C268 1.388 . S
C267 C266 1.366 . S
C267 C271 1.385 . S
C268 H249 0.951 . S
C268 C266 1.388 . S
C268 C269 1.366 . S
C269 C268 1.366 . S
C269 C270 1.414 . S
C269 C272 1.499 . S
C270 H250 0.950 . S
C270 C269 1.414 . S
C270 C271 1.374 . S
C271 H251 0.950 . S
C271 C267 1.385 . S
C271 C270 1.374 . S
C272 C269 1.499 . S
C272 C273 1.373 . S
C272 C274 1.389 . S
C273 H252 0.950 . S
C273 C272 1.373 . S
C273 C289 1.377 . S
C274 C272 1.389 . S
C274 C275 1.524 . S
C274 C288 1.377 . S
C275 C274 1.524 . S
C275 C276 1.397 . S
C275 C280 1.363 . S
C276 H253 0.950 . S
C276 C275 1.397 . S
C276 C277 1.334 . S
C277 H254 0.950 . S
C277 C276 1.334 . S
C277 C278 1.287 . S
C278 C277 1.287 . S
C278 C279 1.524 . S
C278 H297 0.913 . S
C279 H255 0.950 . S
C279 C278 1.524 . S
C279 C280 1.415 . S
C280 H256 0.950 . S
C280 C275 1.363 . S
C280 C279 1.415 . S
C281 H257 0.951 . S
C281 C282 1.366 1_655 S
C281 C283 1.388 . S
C282 C281 1.366 1_455 S
C282 C286 1.385 . S
C283 H258 0.951 . S
C283 C281 1.388 . S
C283 C284 1.366 . S
C284 C283 1.366 . S
C284 C285 1.414 . S
C284 C287 1.499 . S
C285 H259 0.950 . S
C285 C284 1.414 . S
C285 C286 1.374 1_655 S
C286 H260 0.950 . S
C286 C282 1.385 . S
C286 C285 1.374 1_455 S
C287 C284 1.499 . S
C287 C288 1.373 . S
C287 C289 1.389 . S
C288 H261 0.950 . S
C288 C274 1.377 . S
C288 C287 1.373 . S
C289 C273 1.377 . S
C289 C287 1.389 . S
C289 C290 1.524 . S
C290 C289 1.524 . S
C290 C291 1.397 . S
C290 C295 1.363 . S
C291 H262 0.949 1_655 S
C291 C290 1.397 . S
C291 C292 1.334 1_655 S
C292 H263 0.950 . S
C292 C291 1.334 1_455 S
C292 C293 1.287 . S
C293 C292 1.287 . S
C293 C294 1.524 1_455 S
C293 H296 0.999 . S
C294 H264 0.950 . S
C294 C293 1.524 1_655 S
C294 C295 1.415 . S
C295 H265 0.950 . S
C295 C290 1.363 . S
C295 C294 1.415 . S
H296 C293 0.999 . S
H297 C278 0.913 . S
H298 C316 0.951 . S
H299 C318 0.951 . S
H300 C320 0.950 . S
H301 C321 0.950 . S
H302 C323 0.950 . S
H303 C326 0.950 . S
H304 C327 0.950 . S
H305 C329 0.950 . S
H306 C330 0.950 . S
H307 C331 0.951 . S
H308 C333 0.951 . S
H309 C335 0.950 . S
H310 C336 0.950 . S
H311 C338 0.950 . S
H312 C341 0.950 . S
H313 C342 0.950 . S
H314 C344 0.950 . S
H315 C345 0.950 . S
C316 H298 0.951 . S
C316 C317 1.366 . S
C316 C318 1.388 . S
C317 C316 1.366 . S
C317 C321 1.385 . S
C318 H299 0.951 . S
C318 C316 1.388 . S
C318 C319 1.366 . S
C319 C318 1.366 . S
C319 C320 1.414 . S
C319 C322 1.499 . S
C320 H300 0.950 . S
C320 C319 1.414 . S
C320 C321 1.374 . S
C321 H301 0.950 . S
C321 C317 1.385 . S
C321 C320 1.374 . S
C322 C319 1.499 . S
C322 C323 1.373 . S
C322 C324 1.389 . S
C323 H302 0.950 . S
C323 C322 1.373 . S
C323 C339 1.377 . S
C324 C322 1.389 . S
C324 C325 1.524 . S
C324 C338 1.377 . S
C325 C324 1.524 . S
C325 C326 1.397 . S
C325 C330 1.363 . S
C326 H303 0.950 . S
C326 C325 1.397 . S
C326 C327 1.334 . S
C327 H304 0.950 . S
C327 C326 1.334 . S
C327 C328 1.287 . S
C328 C327 1.287 . S
C328 C329 1.524 . S
C328 H347 0.913 . S
C329 H305 0.950 . S
C329 C328 1.524 . S
C329 C330 1.415 . S
C330 H306 0.950 . S
C330 C325 1.363 . S
C330 C329 1.415 . S
C331 H307 0.951 . S
C331 C332 1.366 . S
C331 C333 1.388 1_545 S
C332 C331 1.366 . S
C332 C336 1.385 1_545 S
C333 H308 0.951 . S
C333 C331 1.388 1_565 S
C333 C334 1.366 . S
C334 C333 1.366 . S
C334 C335 1.414 . S
C334 C337 1.499 . S
C335 H309 0.950 . S
C335 C334 1.414 . S
C335 C336 1.374 . S
C336 H310 0.950 . S
C336 C332 1.385 1_565 S
C336 C335 1.374 . S
C337 C334 1.499 . S
C337 C338 1.373 . S
C337 C339 1.389 . S
C338 H311 0.950 . S
C338 C324 1.377 . S
C338 C337 1.373 . S
C339 C323 1.377 . S
C339 C337 1.389 . S
C339 C340 1.524 . S
C340 C339 1.524 . S
C340 C341 1.397 . S
C340 C345 1.363 . S
C341 H312 0.950 . S
C341 C340 1.397 . S
C341 C342 1.334 . S
C342 H313 0.950 . S
C342 C341 1.334 . S
C342 C343 1.287 . S
C343 C342 1.287 . S
C343 C344 1.524 . S
C343 H346 0.999 . S
C344 H314 0.950 . S
C344 C343 1.524 . S
C344 C345 1.415 . S
C345 H315 0.950 . S
C345 C340 1.363 . S
C345 C344 1.415 . S
H346 C343 0.999 . S
H347 C328 0.913 . S
H348 C366 0.951 . S
H349 C368 0.951 . S
H350 C370 0.950 . S
H351 C371 0.950 . S
H352 C373 0.950 . S
H353 C376 0.950 . S
H354 C377 0.950 . S
H355 C379 0.950 . S
H356 C380 0.950 . S
H357 C381 0.951 . S
H358 C383 0.951 . S
H359 C385 0.950 . S
H360 C386 0.950 . S
H361 C388 0.950 . S
H362 C391 0.950 . S
H363 C392 0.950 . S
H364 C394 0.950 . S
H365 C395 0.950 . S
C366 H348 0.951 . S
C366 C367 1.366 . S
C366 C368 1.388 . S
C367 C366 1.366 . S
C367 C371 1.385 . S
C368 H349 0.951 . S
C368 C366 1.388 . S
C368 C369 1.366 . S
C369 C368 1.366 . S
C369 C370 1.414 . S
C369 C372 1.499 . S
C370 H350 0.950 . S
C370 C369 1.414 . S
C370 C371 1.374 . S
C371 H351 0.950 . S
C371 C367 1.385 . S
C371 C370 1.374 . S
C372 C369 1.499 . S
C372 C373 1.373 . S
C372 C374 1.389 . S
C373 H352 0.950 . S
C373 C372 1.373 . S
C373 C389 1.377 . S
C374 C372 1.389 . S
C374 C375 1.524 . S
C374 C388 1.377 . S
C375 C374 1.524 . S
C375 C376 1.397 . S
C375 C380 1.363 . S
C376 H353 0.950 . S
C376 C375 1.397 . S
C376 C377 1.334 . S
C377 H354 0.950 . S
C377 C376 1.334 . S
C377 C378 1.287 . S
C378 C377 1.287 . S
C378 C379 1.524 . S
C378 H397 0.913 . S
C379 H355 0.950 . S
C379 C378 1.524 . S
C379 C380 1.415 . S
C380 H356 0.950 . S
C380 C375 1.363 . S
C380 C379 1.415 . S
C381 H357 0.951 . S
C381 C382 1.366 . S
C381 C383 1.388 . S
C382 C381 1.366 . S
C382 C386 1.385 . S
C383 H358 0.951 . S
C383 C381 1.388 . S
C383 C384 1.366 . S
C384 C383 1.366 . S
C384 C385 1.414 . S
C384 C387 1.499 . S
C385 H359 0.950 . S
C385 C384 1.414 . S
C385 C386 1.374 . S
C386 H360 0.950 . S
C386 C382 1.385 . S
C386 C385 1.374 . S
C387 C384 1.499 . S
C387 C388 1.373 . S
C387 C389 1.389 . S
C388 H361 0.950 . S
C388 C374 1.377 . S
C388 C387 1.373 . S
C389 C373 1.377 . S
C389 C387 1.389 . S
C389 C390 1.524 . S
C390 C389 1.524 . S
C390 C391 1.397 . S
C390 C395 1.363 . S
C391 H362 0.950 . S
C391 C390 1.397 . S
C391 C392 1.334 . S
C392 H363 0.950 . S
C392 C391 1.334 . S
C392 C393 1.287 . S
C393 C392 1.287 . S
C393 C394 1.524 . S
C393 H396 0.999 . S
C394 H364 0.950 . S
C394 C393 1.524 . S
C394 C395 1.415 . S
C395 H365 0.950 . S
C395 C390 1.363 . S
C395 C394 1.415 . S
H396 C393 0.999 . S
H397 C378 0.913 . S
H398 C416 0.951 . S
H399 C418 0.951 . S
H400 C420 0.950 . S
H401 C421 0.950 . S
H402 C423 0.950 . S
H403 C426 0.950 . S
H404 C427 0.950 . S
H405 C429 0.950 . S
H406 C430 0.950 . S
H407 C431 0.951 . S
H408 C433 0.951 . S
H409 C435 0.950 . S
H410 C436 0.950 . S
H411 C438 0.950 . S
H412 C441 0.950 . S
H413 C442 0.950 . S
H414 C444 0.950 . S
H415 C445 0.950 . S
C416 H398 0.951 . S
C416 C417 1.366 . S
C416 C418 1.388 . S
C417 C416 1.366 . S
C417 C421 1.385 . S
C418 H399 0.951 . S
C418 C416 1.388 . S
C418 C419 1.366 . S
C419 C418 1.366 . S
C419 C420 1.414 . S
C419 C422 1.499 . S
C420 H400 0.950 . S
C420 C419 1.414 . S
C420 C421 1.374 . S
C421 H401 0.950 . S
C421 C417 1.385 . S
C421 C420 1.374 . S
C422 C419 1.499 . S
C422 C423 1.373 . S
C422 C424 1.389 . S
C423 H402 0.950 . S
C423 C422 1.373 . S
C423 C439 1.377 . S
C424 C422 1.389 . S
C424 C425 1.524 . S
C424 C438 1.377 . S
C425 C424 1.524 . S
C425 C426 1.397 . S
C425 C430 1.363 . S
C426 H403 0.950 . S
C426 C425 1.397 . S
C426 C427 1.334 . S
C427 H404 0.950 . S
C427 C426 1.334 . S
C427 C428 1.287 . S
C428 C427 1.287 . S
C428 C429 1.524 . S
C428 H447 0.913 . S
C429 H405 0.950 . S
C429 C428 1.524 . S
C429 C430 1.415 . S
C430 H406 0.950 . S
C430 C425 1.363 . S
C430 C429 1.415 . S
C431 H407 0.951 . S
C431 C432 1.366 . S
C431 C433 1.388 . S
C432 C431 1.366 . S
C432 C436 1.385 . S
C433 H408 0.951 . S
C433 C431 1.388 . S
C433 C434 1.366 . S
C434 C433 1.366 . S
C434 C435 1.414 . S
C434 C437 1.499 . S
C435 H409 0.950 . S
C435 C434 1.414 . S
C435 C436 1.374 . S
C436 H410 0.950 . S
C436 C432 1.385 . S
C436 C435 1.374 . S
C437 C434 1.499 . S
C437 C438 1.373 . S
C437 C439 1.389 . S
C438 H411 0.950 . S
C438 C424 1.377 . S
C438 C437 1.373 . S
C439 C423 1.377 . S
C439 C437 1.389 . S
C439 C440 1.524 . S
C440 C439 1.524 . S
C440 C441 1.397 . S
C440 C445 1.363 . S
C441 H412 0.950 . S
C441 C440 1.397 . S
C441 C442 1.334 . S
C442 H413 0.950 . S
C442 C441 1.334 . S
C442 C443 1.287 . S
C443 C442 1.287 . S
C443 C444 1.524 . S
C443 H446 0.999 . S
C444 H414 0.950 . S
C444 C443 1.524 . S
C444 C445 1.415 . S
C445 H415 0.950 . S
C445 C440 1.363 . S
C445 C444 1.415 . S
H446 C443 0.999 . S
H447 C428 0.913 . S
H448 C466 0.951 . S
H449 C468 0.951 . S
H450 C470 0.950 . S
H451 C471 0.950 . S
H452 C473 0.950 . S
H453 C476 0.950 . S
H454 C477 0.950 . S
H455 C479 0.950 . S
H456 C480 0.950 . S
H457 C481 0.951 . S
H458 C483 0.951 . S
H459 C485 0.950 . S
H460 C486 0.950 . S
H461 C488 0.950 . S
H462 C491 0.950 . S
H463 C492 0.950 . S
H464 C494 0.950 . S
H465 C495 0.950 . S
C466 H448 0.951 . S
C466 C467 1.366 . S
C466 C468 1.388 . S
C467 C466 1.366 . S
C467 C471 1.385 . S
C468 H449 0.951 . S
C468 C466 1.388 . S
C468 C469 1.366 . S
C469 C468 1.366 . S
C469 C470 1.414 . S
C469 C472 1.499 . S
C470 H450 0.950 . S
C470 C469 1.414 . S
C470 C471 1.374 . S
C471 H451 0.950 . S
C471 C467 1.385 . S
C471 C470 1.374 . S
C472 C469 1.499 . S
C472 C473 1.373 . S
C472 C474 1.389 . S
C473 H452 0.950 . S
C473 C472 1.373 . S
C473 C489 1.377 . S
C474 C472 1.389 . S
C474 C475 1.524 . S
C474 C488 1.377 . S
C475 C474 1.524 . S
C475 C476 1.397 . S
C475 C480 1.363 . S
C476 H453 0.950 . S
C476 C475 1.397 . S
C476 C477 1.334 . S
C477 H454 0.950 . S
C477 C476 1.334 . S
C477 C478 1.287 . S
C478 C477 1.287 . S
C478 C479 1.524 . S
C478 H497 0.913 . S
C479 H455 0.950 . S
C479 C478 1.524 . S
C479 C480 1.415 . S
C480 H456 0.950 . S
C480 C475 1.363 . S
C480 C479 1.415 . S
C481 H457 0.951 . S
C481 C482 1.366 . S
C481 C483 1.388 . S
C482 C481 1.366 . S
C482 C486 1.385 . S
C483 H458 0.951 . S
C483 C481 1.388 . S
C483 C484 1.366 . S
C484 C483 1.366 . S
C484 C485 1.414 . S
C484 C487 1.499 . S
C485 H459 0.950 . S
C485 C484 1.414 . S
C485 C486 1.374 . S
C486 H460 0.950 . S
C486 C482 1.385 . S
C486 C485 1.374 . S
C487 C484 1.499 . S
C487 C488 1.373 . S
C487 C489 1.389 . S
C488 H461 0.950 . S
C488 C474 1.377 . S
C488 C487 1.373 . S
C489 C473 1.377 . S
C489 C487 1.389 . S
C489 C490 1.524 . S
C490 C489 1.524 . S
C490 C491 1.397 . S
C490 C495 1.363 . S
C491 H462 0.950 . S
C491 C490 1.397 . S
C491 C492 1.334 . S
C492 H463 0.950 . S
C492 C491 1.334 . S
C492 C493 1.287 . S
C493 C492 1.287 . S
C493 C494 1.524 . S
C493 H496 0.999 . S
C494 H464 0.950 . S
C494 C493 1.524 . S
C494 C495 1.415 . S
C495 H465 0.950 . S
C495 C490 1.363 . S
C495 C494 1.415 . S
H496 C493 0.999 . S
H497 C478 0.913 . S
H498 C516 0.951 . S
H499 C518 0.951 . S
H500 C520 0.950 . S
H501 C521 0.950 . S
H502 C523 0.950 . S
H503 C526 0.950 . S
H504 C527 0.950 . S
H505 C529 0.950 . S
H506 C530 0.950 . S
H507 C531 0.951 . S
H508 C533 0.951 . S
H509 C535 0.950 . S
H510 C536 0.950 . S
H511 C538 0.950 . S
H512 C541 0.950 . S
H513 C542 0.950 . S
H514 C544 0.950 . S
H515 C545 0.950 . S
C516 H498 0.951 . S
C516 C517 1.366 . S
C516 C518 1.388 . S
C517 C516 1.366 . S
C517 C521 1.385 . S
C518 H499 0.951 . S
C518 C516 1.388 . S
C518 C519 1.366 . S
C519 C518 1.366 . S
C519 C520 1.414 . S
C519 C522 1.499 . S
C520 H500 0.950 . S
C520 C519 1.414 . S
C520 C521 1.374 . S
C521 H501 0.950 . S
C521 C517 1.385 . S
C521 C520 1.374 . S
C522 C519 1.499 . S
C522 C523 1.373 . S
C522 C524 1.389 . S
C523 H502 0.950 . S
C523 C522 1.373 . S
C523 C539 1.377 . S
C524 C522 1.389 . S
C524 C525 1.524 . S
C524 C538 1.377 . S
C525 C524 1.524 . S
C525 C526 1.397 . S
C525 C530 1.363 . S
C526 H503 0.950 . S
C526 C525 1.397 . S
C526 C527 1.334 . S
C527 H504 0.950 . S
C527 C526 1.334 . S
C527 C528 1.287 . S
C528 C527 1.287 . S
C528 C529 1.524 . S
C528 H547 0.913 . S
C529 H505 0.950 . S
C529 C528 1.524 . S
C529 C530 1.415 . S
C530 H506 0.950 . S
C530 C525 1.363 . S
C530 C529 1.415 . S
C531 H507 0.951 . S
C531 C532 1.366 . S
C531 C533 1.388 . S
C532 C531 1.366 . S
C532 C536 1.385 . S
C533 H508 0.951 . S
C533 C531 1.388 . S
C533 C534 1.366 . S
C534 C533 1.366 . S
C534 C535 1.414 . S
C534 C537 1.499 . S
C535 H509 0.950 . S
C535 C534 1.414 . S
C535 C536 1.374 . S
C536 H510 0.950 . S
C536 C532 1.385 . S
C536 C535 1.374 . S
C537 C534 1.499 . S
C537 C538 1.373 . S
C537 C539 1.389 . S
C538 H511 0.950 . S
C538 C524 1.377 . S
C538 C537 1.373 . S
C539 C523 1.377 . S
C539 C537 1.389 . S
C539 C540 1.524 . S
C540 C539 1.524 . S
C540 C541 1.397 . S
C540 C545 1.363 . S
C541 H512 0.950 . S
C541 C540 1.397 . S
C541 C542 1.334 . S
C542 H513 0.950 . S
C542 C541 1.334 . S
C542 C543 1.287 . S
C543 C542 1.287 . S
C543 C544 1.524 . S
C543 H546 0.999 . S
C544 H514 0.950 . S
C544 C543 1.524 . S
C544 C545 1.415 . S
C545 H515 0.950 . S
C545 C540 1.363 . S
C545 C544 1.415 . S
H546 C543 0.999 . S
H547 C528 0.913 . S
H548 C566 0.951 . S
H549 C568 0.951 . S
H550 C570 0.950 . S
H551 C571 0.950 . S
H552 C573 0.950 . S
H553 C576 0.950 . S
H554 C577 0.950 . S
H555 C579 0.950 . S
H556 C580 0.950 . S
H557 C581 0.951 . S
H558 C583 0.951 . S
H559 C585 0.950 . S
H560 C586 0.950 . S
H561 C588 0.950 . S
H562 C591 0.950 . S
H563 C592 0.950 . S
H564 C594 0.950 . S
H565 C595 0.950 . S
C566 H548 0.951 . S
C566 C567 1.366 . S
C566 C568 1.388 . S
C567 C566 1.366 . S
C567 C571 1.385 . S
C568 H549 0.951 . S
C568 C566 1.388 . S
C568 C569 1.366 . S
C569 C568 1.366 . S
C569 C570 1.414 . S
C569 C572 1.499 . S
C570 H550 0.950 . S
C570 C569 1.414 . S
C570 C571 1.374 . S
C571 H551 0.950 . S
C571 C567 1.385 . S
C571 C570 1.374 . S
C572 C569 1.499 . S
C572 C573 1.373 . S
C572 C574 1.389 . S
C573 H552 0.950 . S
C573 C572 1.373 . S
C573 C589 1.377 . S
C574 C572 1.389 . S
C574 C575 1.524 . S
C574 C588 1.377 . S
C575 C574 1.524 . S
C575 C576 1.397 . S
C575 C580 1.363 . S
C576 H553 0.950 . S
C576 C575 1.397 . S
C576 C577 1.334 . S
C577 H554 0.950 . S
C577 C576 1.334 . S
C577 C578 1.287 . S
C578 C577 1.287 . S
C578 C579 1.524 . S
C578 H597 0.913 . S
C579 H555 0.950 . S
C579 C578 1.524 . S
C579 C580 1.415 . S
C580 H556 0.950 . S
C580 C575 1.363 . S
C580 C579 1.415 . S
C581 H557 0.951 . S
C581 C582 1.366 . S
C581 C583 1.388 . S
C582 C581 1.366 . S
C582 C586 1.385 . S
C583 H558 0.951 . S
C583 C581 1.388 . S
C583 C584 1.366 . S
C584 C583 1.366 . S
C584 C585 1.414 . S
C584 C587 1.499 . S
C585 H559 0.950 . S
C585 C584 1.414 . S
C585 C586 1.374 . S
C586 H560 0.950 . S
C586 C582 1.385 . S
C586 C585 1.374 . S
C587 C584 1.499 . S
C587 C588 1.373 . S
C587 C589 1.389 . S
C588 H561 0.950 . S
C588 C574 1.377 . S
C588 C587 1.373 . S
C589 C573 1.377 . S
C589 C587 1.389 . S
C589 C590 1.524 . S
C590 C589 1.524 . S
C590 C591 1.397 . S
C590 C595 1.363 . S
C591 H562 0.950 . S
C591 C590 1.397 . S
C591 C592 1.334 . S
C592 H563 0.950 . S
C592 C591 1.334 . S
C592 C593 1.287 . S
C593 C592 1.287 . S
C593 C594 1.524 . S
C593 H596 0.999 . S
C594 H564 0.950 . S
C594 C593 1.524 . S
C594 C595 1.415 . S
C595 H565 0.950 . S
C595 C590 1.363 . S
C595 C594 1.415 . S
H596 C593 0.999 . S
H597 C578 0.913 . S
H598 C616 0.951 . S
H599 C618 0.951 . S
H600 C620 0.950 . S
H601 C621 0.950 . S
H602 C623 0.950 . S
H603 C626 0.950 . S
H604 C627 0.950 . S
H605 C629 0.950 . S
H606 C630 0.950 . S
H607 C631 0.951 . S
H608 C633 0.951 . S
H609 C635 0.950 . S
H610 C636 0.950 . S
H611 C638 0.950 . S
H612 C641 0.950 . S
H613 C642 0.950 . S
H614 C644 0.950 . S
H615 C645 0.950 . S
C616 H598 0.951 . S
C616 C617 1.366 . S
C616 C618 1.388 . S
C617 C616 1.366 . S
C617 C621 1.385 . S
C618 H599 0.951 . S
C618 C616 1.388 . S
C618 C619 1.366 . S
C619 C618 1.366 . S
C619 C620 1.414 . S
C619 C622 1.499 . S
C620 H600 0.950 . S
C620 C619 1.414 . S
C620 C621 1.374 . S
C621 H601 0.950 . S
C621 C617 1.385 . S
C621 C620 1.374 . S
C622 C619 1.499 . S
C622 C623 1.373 . S
C622 C624 1.389 . S
C623 H602 0.950 . S
C623 C622 1.373 . S
C623 C639 1.377 . S
C624 C622 1.389 . S
C624 C625 1.524 . S
C624 C638 1.377 . S
C625 C624 1.524 . S
C625 C626 1.397 . S
C625 C630 1.363 . S
C626 H603 0.950 . S
C626 C625 1.397 . S
C626 C627 1.334 . S
C627 H604 0.950 . S
C627 C626 1.334 . S
C627 C628 1.287 . S
C628 C627 1.287 . S
C628 C629 1.524 . S
C628 H647 0.913 . S
C629 H605 0.950 . S
C629 C628 1.524 . S
C629 C630 1.415 . S
C630 H606 0.950 . S
C630 C625 1.363 . S
C630 C629 1.415 . S
C631 H607 0.951 . S
C631 C632 1.366 . S
C631 C633 1.388 . S
C632 C631 1.366 . S
C632 C636 1.385 . S
C633 H608 0.951 . S
C633 C631 1.388 . S
C633 C634 1.366 . S
C634 C633 1.366 . S
C634 C635 1.414 . S
C634 C637 1.499 . S
C635 H609 0.950 . S
C635 C634 1.414 . S
C635 C636 1.374 . S
C636 H610 0.950 . S
C636 C632 1.385 . S
C636 C635 1.374 . S
C637 C634 1.499 . S
C637 C638 1.373 . S
C637 C639 1.389 . S
C638 H611 0.950 . S
C638 C624 1.377 . S
C638 C637 1.373 . S
C639 C623 1.377 . S
C639 C637 1.389 . S
C639 C640 1.524 . S
C640 C639 1.524 . S
C640 C641 1.397 . S
C640 C645 1.363 . S
C641 H612 0.950 . S
C641 C640 1.397 . S
C641 C642 1.334 . S
C642 H613 0.950 . S
C642 C641 1.334 . S
C642 C643 1.287 . S
C643 C642 1.287 . S
C643 C644 1.524 . S
C643 H646 0.999 . S
C644 H614 0.950 . S
C644 C643 1.524 . S
C644 C645 1.415 . S
C645 H615 0.950 . S
C645 C640 1.363 . S
C645 C644 1.415 . S
H646 C643 0.999 . S
H647 C628 0.913 . S
H648 C666 0.951 . S
H649 C668 0.951 . S
H650 C670 0.950 . S
H651 C671 0.950 . S
H652 C673 0.950 . S
H653 C676 0.950 . S
H654 C677 0.950 . S
H655 C679 0.950 . S
H656 C680 0.950 . S
H657 C681 0.951 . S
H658 C683 0.951 . S
H659 C685 0.950 . S
H660 C686 0.950 . S
H661 C688 0.950 . S
H662 C691 0.950 . S
H663 C692 0.950 . S
H664 C694 0.950 . S
H665 C695 0.950 . S
C666 H648 0.951 . S
C666 C667 1.366 . S
C666 C668 1.388 . S
C667 C666 1.366 . S
C667 C671 1.385 . S
C668 H649 0.951 . S
C668 C666 1.388 . S
C668 C669 1.366 . S
C669 C668 1.366 . S
C669 C670 1.414 . S
C669 C672 1.499 . S
C670 H650 0.950 . S
C670 C669 1.414 . S
C670 C671 1.374 . S
C671 H651 0.950 . S
C671 C667 1.385 . S
C671 C670 1.374 . S
C672 C669 1.499 . S
C672 C673 1.373 . S
C672 C674 1.389 . S
C673 H652 0.950 . S
C673 C672 1.373 . S
C673 C689 1.377 . S
C674 C672 1.389 . S
C674 C675 1.524 . S
C674 C688 1.377 . S
C675 C674 1.524 . S
C675 C676 1.397 . S
C675 C680 1.363 . S
C676 H653 0.950 . S
C676 C675 1.397 . S
C676 C677 1.334 . S
C677 H654 0.950 . S
C677 C676 1.334 . S
C677 C678 1.287 . S
C678 C677 1.287 . S
C678 C679 1.524 . S
C678 H697 0.913 . S
C679 H655 0.950 . S
C679 C678 1.524 . S
C679 C680 1.415 . S
C680 H656 0.950 . S
C680 C675 1.363 . S
C680 C679 1.415 . S
C681 H657 0.951 . S
C681 C682 1.366 . S
C681 C683 1.388 . S
C682 C681 1.366 . S
C682 C686 1.385 . S
C683 H658 0.951 . S
C683 C681 1.388 . S
C683 C684 1.366 . S
C684 C683 1.366 . S
C684 C685 1.414 . S
C684 C687 1.499 . S
C685 H659 0.950 . S
C685 C684 1.414 . S
C685 C686 1.374 . S
C686 H660 0.950 . S
C686 C682 1.385 . S
C686 C685 1.374 . S
C687 C684 1.499 . S
C687 C688 1.373 . S
C687 C689 1.389 . S
C688 H661 0.950 . S
C688 C674 1.377 . S
C688 C687 1.373 . S
C689 C673 1.377 . S
C689 C687 1.389 . S
C689 C690 1.524 . S
C690 C689 1.524 . S
C690 C691 1.397 . S
C690 C695 1.363 . S
C691 H662 0.950 . S
C691 C690 1.397 . S
C691 C692 1.334 . S
C692 H663 0.950 . S
C692 C691 1.334 . S
C692 C693 1.287 . S
C693 C692 1.287 . S
C693 C694 1.524 . S
C693 H696 0.999 . S
C694 H664 0.950 . S
C694 C693 1.524 . S
C694 C695 1.415 . S
C695 H665 0.950 . S
C695 C690 1.363 . S
C695 C694 1.415 . S
H696 C693 0.999 . S
H697 C678 0.913 . S
H698 C716 0.951 . S
H699 C718 0.951 . S
H700 C720 0.950 . S
H701 C721 0.950 . S
H702 C723 0.950 . S
H703 C726 0.950 . S
H704 C727 0.950 . S
H705 C729 0.950 . S
H706 C730 0.950 . S
H707 C731 0.951 . S
H708 C733 0.951 . S
H709 C735 0.950 . S
H710 C736 0.950 . S
H711 C738 0.950 . S
H712 C741 0.950 . S
H713 C742 0.950 . S
H714 C744 0.950 . S
H715 C745 0.950 . S
C716 H698 0.951 . S
C716 C717 1.366 . S
C716 C718 1.388 . S
C717 C716 1.366 . S
C717 C721 1.385 . S
C718 H699 0.951 . S
C718 C716 1.388 . S
C718 C719 1.366 . S
C719 C718 1.366 . S
C719 C720 1.414 . S
C719 C722 1.499 . S
C720 H700 0.950 . S
C720 C719 1.414 . S
C720 C721 1.374 . S
C721 H701 0.950 . S
C721 C717 1.385 . S
C721 C720 1.374 . S
C722 C719 1.499 . S
C722 C723 1.373 . S
C722 C724 1.389 . S
C723 H702 0.950 . S
C723 C722 1.373 . S
C723 C739 1.377 . S
C724 C722 1.389 . S
C724 C725 1.524 . S
C724 C738 1.377 . S
C725 C724 1.524 . S
C725 C726 1.397 . S
C725 C730 1.363 . S
C726 H703 0.950 . S
C726 C725 1.397 . S
C726 C727 1.334 . S
C727 H704 0.950 . S
C727 C726 1.334 . S
C727 C728 1.287 . S
C728 C727 1.287 . S
C728 C729 1.524 . S
C728 H747 0.913 . S
C729 H705 0.950 . S
C729 C728 1.524 . S
C729 C730 1.415 . S
C730 H706 0.950 . S
C730 C725 1.363 . S
C730 C729 1.415 . S
C731 H707 0.951 . S
C731 C732 1.366 . S
C731 C733 1.388 . S
C732 C731 1.366 . S
C732 C736 1.385 . S
C733 H708 0.951 . S
C733 C731 1.388 . S
C733 C734 1.366 . S
C734 C733 1.366 . S
C734 C735 1.414 . S
C734 C737 1.499 . S
C735 H709 0.950 . S
C735 C734 1.414 . S
C735 C736 1.374 . S
C736 H710 0.950 . S
C736 C732 1.385 . S
C736 C735 1.374 . S
C737 C734 1.499 . S
C737 C738 1.373 . S
C737 C739 1.389 . S
C738 H711 0.950 . S
C738 C724 1.377 . S
C738 C737 1.373 . S
C739 C723 1.377 . S
C739 C737 1.389 . S
C739 C740 1.524 . S
C740 C739 1.524 . S
C740 C741 1.397 . S
C740 C745 1.363 . S
C741 H712 0.950 . S
C741 C740 1.397 . S
C741 C742 1.334 . S
C742 H713 0.950 . S
C742 C741 1.334 . S
C742 C743 1.287 . S
C743 C742 1.287 . S
C743 C744 1.524 . S
C743 H746 0.999 . S
C744 H714 0.950 . S
C744 C743 1.524 . S
C744 C745 1.415 . S
C745 H715 0.950 . S
C745 C740 1.363 . S
C745 C744 1.415 . S
H746 C743 0.999 . S
H747 C728 0.913 . S
H748 C766 0.951 . S
H749 C768 0.951 . S
H750 C770 0.950 . S
H751 C771 0.950 . S
H752 C773 0.950 . S
H753 C776 0.950 . S
H754 C777 0.950 . S
H755 C779 0.950 . S
H756 C780 0.950 . S
H757 C781 0.951 . S
H758 C783 0.951 . S
H759 C785 0.950 . S
H760 C786 0.950 . S
H761 C788 0.950 . S
H762 C791 0.950 . S
H763 C792 0.950 . S
H764 C794 0.950 . S
H765 C795 0.950 . S
C766 H748 0.951 . S
C766 C767 1.366 . S
C766 C768 1.388 . S
C767 C766 1.366 . S
C767 C771 1.385 . S
C768 H749 0.951 . S
C768 C766 1.388 . S
C768 C769 1.366 . S
C769 C768 1.366 . S
C769 C770 1.414 . S
C769 C772 1.499 . S
C770 H750 0.950 . S
C770 C769 1.414 . S
C770 C771 1.374 . S
C771 H751 0.950 . S
C771 C767 1.385 . S
C771 C770 1.374 . S
C772 C769 1.499 . S
C772 C773 1.373 . S
C772 C774 1.389 . S
C773 H752 0.950 . S
C773 C772 1.373 . S
C773 C789 1.377 . S
C774 C772 1.389 . S
C774 C775 1.524 . S
C774 C788 1.377 . S
C775 C774 1.524 . S
C775 C776 1.397 . S
C775 C780 1.363 . S
C776 H753 0.950 . S
C776 C775 1.397 . S
C776 C777 1.334 . S
C777 H754 0.950 . S
C777 C776 1.334 . S
C777 C778 1.287 . S
C778 C777 1.287 . S
C778 C779 1.524 . S
C778 H797 0.913 . S
C779 H755 0.950 . S
C779 C778 1.524 . S
C779 C780 1.415 . S
C780 H756 0.950 . S
C780 C775 1.363 . S
C780 C779 1.415 . S
C781 H757 0.951 . S
C781 C782 1.366 . S
C781 C783 1.388 . S
C782 C781 1.366 . S
C782 C786 1.385 . S
C783 H758 0.951 . S
C783 C781 1.388 . S
C783 C784 1.366 . S
C784 C783 1.366 . S
C784 C785 1.414 . S
C784 C787 1.499 . S
C785 H759 0.950 . S
C785 C784 1.414 . S
C785 C786 1.374 . S
C786 H760 0.950 . S
C786 C782 1.385 . S
C786 C785 1.374 . S
C787 C784 1.499 . S
C787 C788 1.373 . S
C787 C789 1.389 . S
C788 H761 0.950 . S
C788 C774 1.377 . S
C788 C787 1.373 . S
C789 C773 1.377 . S
C789 C787 1.389 . S
C789 C790 1.524 . S
C790 C789 1.524 . S
C790 C791 1.397 . S
C790 C795 1.363 . S
C791 H762 0.950 . S
C791 C790 1.397 . S
C791 C792 1.334 . S
C792 H763 0.950 . S
C792 C791 1.334 . S
C792 C793 1.287 . S
C793 C792 1.287 . S
C793 C794 1.524 . S
C793 H796 0.999 . S
C794 H764 0.950 . S
C794 C793 1.524 . S
C794 C795 1.415 . S
C795 H765 0.950 . S
C795 C790 1.363 . S
C795 C794 1.415 . S
H796 C793 0.999 . S
H797 C778 0.913 . S
H798 C816 0.951 . S
H799 C818 0.951 . S
H800 C820 0.941 1_655 S
H801 C821 0.950 . S
H802 C823 0.950 . S
H803 C826 0.950 . S
H804 C827 0.950 . S
H805 C829 0.950 . S
H806 C830 0.950 . S
H807 C831 0.951 . S
H808 C833 0.951 . S
H809 C835 0.950 . S
H810 C836 0.950 . S
H811 C838 0.950 . S
H812 C841 0.950 . S
H813 C842 0.950 . S
H814 C844 0.950 . S
H815 C845 0.950 . S
C816 H798 0.951 . S
C816 C817 1.366 . S
C816 C818 1.388 . S
C817 C816 1.366 . S
C817 C821 1.385 1_455 S
C818 H799 0.951 . S
C818 C816 1.388 . S
C818 C819 1.366 . S
C819 C818 1.366 . S
C819 C820 1.425 . S
C819 C822 1.499 . S
C820 H800 0.941 1_455 S
C820 C819 1.425 . S
C820 C821 1.373 1_455 S
C821 H801 0.950 . S
C821 C817 1.385 1_655 S
C821 C820 1.373 1_655 S
C822 C819 1.499 . S
C822 C823 1.373 1_455 S
C822 C824 1.389 . S
C823 H802 0.950 . S
C823 C822 1.373 1_655 S
C823 C839 1.377 1_554 S
C824 C822 1.389 . S
C824 C825 1.524 . S
C824 C838 1.377 1_554 S
C825 C824 1.524 . S
C825 C826 1.397 . S
C825 C830 1.363 . S
C826 H803 0.950 . S
C826 C825 1.397 . S
C826 C827 1.334 . S
C827 H804 0.950 . S
C827 C826 1.334 . S
C827 C828 1.287 . S
C828 C827 1.287 . S
C828 C829 1.524 . S
C828 H847 0.913 . S
C829 H805 0.950 . S
C829 C828 1.524 . S
C829 C830 1.415 . S
C830 H806 0.950 . S
C830 C825 1.363 . S
C830 C829 1.415 . S
C831 H807 0.951 . S
C831 C832 1.366 . S
C831 C833 1.388 . S
C832 C831 1.366 . S
C832 C836 1.385 . S
C833 H808 0.951 . S
C833 C831 1.388 . S
C833 C834 1.366 . S
C834 C833 1.366 . S
C834 C835 1.414 . S
C834 C837 1.499 . S
C835 H809 0.950 . S
C835 C834 1.414 . S
C835 C836 1.374 . S
C836 H810 0.950 . S
C836 C832 1.385 . S
C836 C835 1.374 . S
C837 C834 1.499 . S
C837 C838 1.373 . S
C837 C839 1.389 1_455 S
C838 H811 0.950 . S
C838 C824 1.377 1_556 S
C838 C837 1.373 . S
C839 C823 1.377 1_556 S
C839 C837 1.389 1_655 S
C839 C840 1.524 . S
C840 C839 1.524 . S
C840 C841 1.397 . S
C840 C845 1.363 . S
C841 H812 0.950 . S
C841 C840 1.397 . S
C841 C842 1.334 . S
C842 H813 0.950 . S
C842 C841 1.334 . S
C842 C843 1.287 . S
C843 C842 1.287 . S
C843 C844 1.524 . S
C843 H846 0.999 . S
C844 H814 0.950 . S
C844 C843 1.524 . S
C844 C845 1.415 . S
C845 H815 0.950 . S
C845 C840 1.363 . S
C845 C844 1.415 . S
H846 C843 0.999 . S
H847 C828 0.913 . S
H848 C866 0.951 1_565 S
H849 C868 0.951 1_565 S
H850 C870 0.950 . S
H851 C871 0.950 . S
H852 C873 0.950 . S
H853 C876 0.950 . S
H854 C877 0.950 . S
H855 C879 0.950 . S
H856 C880 0.950 . S
H857 C881 0.951 . S
H858 C883 0.951 . S
H859 C885 0.950 1_565 S
H860 C886 0.950 1_565 S
H861 C888 0.950 . S
H862 C891 0.950 . S
H863 C892 0.950 . S
H864 C894 0.950 . S
H865 C895 0.950 . S
C866 H848 0.951 1_545 S
C866 C867 1.366 . S
C866 C868 1.388 . S
C867 C866 1.366 . S
C867 C871 1.385 . S
C868 H849 0.951 1_545 S
C868 C866 1.388 . S
C868 C869 1.366 . S
C869 C868 1.366 . S
C869 C870 1.414 . S
C869 C872 1.499 . S
C870 H850 0.950 . S
C870 C869 1.414 . S
C870 C871 1.374 . S
C871 H851 0.950 . S
C871 C867 1.385 . S
C871 C870 1.374 . S
C872 C869 1.499 . S
C872 C873 1.373 . S
C872 C874 1.389 . S
C873 H852 0.950 . S
C873 C872 1.373 . S
C873 C889 1.377 . S
C874 C872 1.389 . S
C874 C875 1.524 . S
C874 C888 1.377 . S
C875 C874 1.524 . S
C875 C876 1.397 . S
C875 C880 1.363 . S
C876 H853 0.950 . S
C876 C875 1.397 . S
C876 C877 1.334 . S
C877 H854 0.950 . S
C877 C876 1.334 . S
C877 C878 1.287 . S
C878 C877 1.287 . S
C878 C879 1.524 . S
C878 H897 0.913 . S
C879 H855 0.950 . S
C879 C878 1.524 . S
C879 C880 1.415 . S
C880 H856 0.950 . S
C880 C875 1.363 . S
C880 C879 1.415 . S
C881 H857 0.951 . S
C881 C882 1.366 . S
C881 C883 1.388 . S
C882 C881 1.366 . S
C882 C886 1.385 . S
C883 H858 0.951 . S
C883 C881 1.388 . S
C883 C884 1.366 . S
C884 C883 1.366 . S
C884 C885 1.414 . S
C884 C887 1.499 . S
C885 H859 0.950 1_545 S
C885 C884 1.414 . S
C885 C886 1.374 . S
C886 H860 0.950 1_545 S
C886 C882 1.385 . S
C886 C885 1.374 . S
C887 C884 1.499 . S
C887 C888 1.373 . S
C887 C889 1.389 . S
C888 H861 0.950 . S
C888 C874 1.377 . S
C888 C887 1.373 . S
C889 C873 1.377 . S
C889 C887 1.389 . S
C889 C890 1.524 . S
C890 C889 1.524 . S
C890 C891 1.397 1_545 S
C890 C895 1.363 . S
C891 H862 0.950 . S
C891 C890 1.397 1_565 S
C891 C892 1.334 . S
C892 H863 0.950 . S
C892 C891 1.334 . S
C892 C893 1.287 . S
C893 C892 1.287 . S
C893 C894 1.524 1_565 S
C893 H896 0.999 . S
C894 H864 0.950 . S
C894 C893 1.524 1_545 S
C894 C895 1.415 . S
C895 H865 0.950 . S
C895 C890 1.363 . S
C895 C894 1.415 . S
H896 C893 0.999 . S
H897 C878 0.913 . S
H898 C916 0.951 . S
H899 C918 0.951 . S
H900 C920 0.950 . S
H901 C921 0.950 . S
H902 C923 0.950 . S
H903 C926 0.950 . S
H904 C927 0.950 . S
H905 C929 0.950 . S
H906 C930 0.950 . S
H907 C931 0.951 . S
H908 C933 0.951 . S
H909 C935 0.950 . S
H910 C936 0.950 . S
H911 C938 0.950 . S
H912 C941 0.950 . S
H913 C942 0.950 . S
H914 C944 0.950 . S
H915 C945 0.950 . S
C916 H898 0.951 . S
C916 C917 1.366 . S
C916 C918 1.388 . S
C917 C916 1.366 . S
C917 C921 1.385 . S
C918 H899 0.951 . S
C918 C916 1.388 . S
C918 C919 1.366 . S
C919 C918 1.366 . S
C919 C920 1.414 . S
C919 C922 1.499 . S
C920 H900 0.950 . S
C920 C919 1.414 . S
C920 C921 1.374 . S
C921 H901 0.950 . S
C921 C917 1.385 . S
C921 C920 1.374 . S
C922 C919 1.499 . S
C922 C923 1.373 . S
C922 C924 1.389 . S
C923 H902 0.950 . S
C923 C922 1.373 . S
C923 C939 1.377 . S
C924 C922 1.389 . S
C924 C925 1.524 . S
C924 C938 1.377 . S
C925 C924 1.524 . S
C925 C926 1.397 . S
C925 C930 1.363 . S
C926 H903 0.950 . S
C926 C925 1.397 . S
C926 C927 1.334 . S
C927 H904 0.950 . S
C927 C926 1.334 . S
C927 C928 1.287 . S
C928 C927 1.287 . S
C928 C929 1.524 . S
C928 H947 0.913 . S
C929 H905 0.950 . S
C929 C928 1.524 . S
C929 C930 1.415 . S
C930 H906 0.950 . S
C930 C925 1.363 . S
C930 C929 1.415 . S
C931 H907 0.951 . S
C931 C932 1.366 . S
C931 C933 1.388 . S
C932 C931 1.366 . S
C932 C936 1.385 . S
C933 H908 0.951 . S
C933 C931 1.388 . S
C933 C934 1.366 . S
C934 C933 1.366 . S
C934 C935 1.414 . S
C934 C937 1.499 . S
C935 H909 0.950 . S
C935 C934 1.414 . S
C935 C936 1.374 . S
C936 H910 0.950 . S
C936 C932 1.385 . S
C936 C935 1.374 . S
C937 C934 1.499 . S
C937 C938 1.373 . S
C937 C939 1.389 . S
C938 H911 0.950 . S
C938 C924 1.377 . S
C938 C937 1.373 . S
C939 C923 1.377 . S
C939 C937 1.389 . S
C939 C940 1.524 . S
C940 C939 1.524 . S
C940 C941 1.397 . S
C940 C945 1.363 . S
C941 H912 0.950 . S
C941 C940 1.397 . S
C941 C942 1.334 . S
C942 H913 0.950 . S
C942 C941 1.334 . S
C942 C943 1.287 . S
C943 C942 1.287 . S
C943 C944 1.524 . S
C943 H946 0.999 . S
C944 H914 0.950 . S
C944 C943 1.524 . S
C944 C945 1.415 . S
C945 H915 0.950 . S
C945 C940 1.363 . S
C945 C944 1.415 . S
H946 C943 0.999 . S
H947 C928 0.913 . S
H948 C966 0.951 1_565 S
H949 C968 0.951 1_565 S
H950 C970 0.950 . S
H951 C971 0.950 . S
H952 C973 0.950 . S
H953 C976 0.950 . S
H954 C977 0.950 . S
H955 C979 0.950 . S
H956 C980 0.950 . S
H957 C981 0.951 . S
H958 C983 0.951 . S
H959 C985 0.950 . S
H960 C986 0.950 . S
H961 C988 0.950 . S
H962 C991 0.950 . S
H963 C992 0.950 . S
H964 C994 0.950 . S
H965 C995 0.950 . S
C966 H948 0.951 1_545 S
C966 C967 1.366 . S
C966 C968 1.388 . S
C967 C966 1.366 . S
C967 C971 1.385 . S
C968 H949 0.951 1_545 S
C968 C966 1.388 . S
C968 C969 1.366 . S
C969 C968 1.366 . S
C969 C970 1.414 . S
C969 C972 1.499 . S
C970 H950 0.950 . S
C970 C969 1.414 . S
C970 C971 1.374 . S
C971 H951 0.950 . S
C971 C967 1.385 . S
C971 C970 1.374 . S
C972 C969 1.499 . S
C972 C973 1.373 . S
C972 C974 1.389 . S
C973 H952 0.950 . S
C973 C972 1.373 . S
C973 C989 1.377 . S
C974 C972 1.389 . S
C974 C975 1.524 . S
C974 C988 1.377 . S
C975 C974 1.524 . S
C975 C976 1.397 . S
C975 C980 1.363 . S
C976 H953 0.950 . S
C976 C975 1.397 . S
C976 C977 1.334 . S
C977 H954 0.950 . S
C977 C976 1.334 . S
C977 C978 1.287 . S
C978 C977 1.287 . S
C978 C979 1.524 . S
C978 H997 0.913 . S
C979 H955 0.950 . S
C979 C978 1.524 . S
C979 C980 1.415 . S
C980 H956 0.950 . S
C980 C975 1.363 . S
C980 C979 1.415 . S
C981 H957 0.951 . S
C981 C982 1.366 . S
C981 C983 1.388 . S
C982 C981 1.366 . S
C982 C986 1.385 . S
C983 H958 0.951 . S
C983 C981 1.388 . S
C983 C984 1.366 . S
C984 C983 1.366 . S
C984 C985 1.414 . S
C984 C987 1.499 . S
C985 H959 0.950 . S
C985 C984 1.414 . S
C985 C986 1.374 . S
C986 H960 0.950 . S
C986 C982 1.385 . S
C986 C985 1.374 . S
C987 C984 1.499 . S
C987 C988 1.373 . S
C987 C989 1.389 . S
C988 H961 0.950 . S
C988 C974 1.377 . S
C988 C987 1.373 . S
C989 C973 1.377 . S
C989 C987 1.389 . S
C989 C990 1.524 1_545 S
C990 C989 1.524 1_565 S
C990 C991 1.397 . S
C990 C995 1.363 1_565 S
C991 H962 0.950 . S
C991 C990 1.397 . S
C991 C992 1.334 . S
C992 H963 0.950 . S
C992 C991 1.334 . S
C992 C993 1.287 . S
C993 C992 1.287 . S
C993 C994 1.524 . S
C993 H996 0.999 . S
C994 H964 0.950 . S
C994 C993 1.524 . S
C994 C995 1.415 1_565 S
C995 H965 0.950 . S
C995 C990 1.363 1_545 S
C995 C994 1.415 1_545 S
H996 C993 0.999 . S
H997 C978 0.913 . S
H998 C1016 0.951 . S
H999 C1018 0.951 . S
H1000 C1020 0.950 . S
H1001 C1021 0.950 . S
H1002 C1023 0.950 . S
H1003 C1026 0.950 . S
H1004 C1027 0.950 . S
H1005 C1029 0.950 . S
H1006 C1030 0.950 . S
H1007 C1031 0.951 . S
H1008 C1033 0.951 . S
H1009 C1035 0.950 . S
H1010 C1036 0.950 . S
H1011 C1038 0.950 . S
H1012 C1041 0.950 . S
H1013 C1042 0.950 . S
H1014 C1044 0.950 . S
H1015 C1045 0.950 . S
C1016 H998 0.951 . S
C1016 C1017 1.366 . S
C1016 C1018 1.388 . S
C1017 C1016 1.366 . S
C1017 C1021 1.385 . S
C1018 H999 0.951 . S
C1018 C1016 1.388 . S
C1018 C1019 1.366 . S
C1019 C1018 1.366 . S
C1019 C1020 1.414 . S
C1019 C1022 1.499 . S
C1020 H1000 0.950 . S
C1020 C1019 1.414 . S
C1020 C1021 1.374 . S
C1021 H1001 0.950 . S
C1021 C1017 1.385 . S
C1021 C1020 1.374 . S
C1022 C1019 1.499 . S
C1022 C1023 1.373 . S
C1022 C1024 1.389 . S
C1023 H1002 0.950 . S
C1023 C1022 1.373 . S
C1023 C1039 1.377 1_556 S
C1024 C1022 1.389 . S
C1024 C1025 1.524 . S
C1024 C1038 1.377 1_556 S
C1025 C1024 1.524 . S
C1025 C1026 1.397 . S
C1025 C1030 1.363 . S
C1026 H1003 0.950 . S
C1026 C1025 1.397 . S
C1026 C1027 1.334 . S
C1027 H1004 0.950 . S
C1027 C1026 1.334 . S
C1027 C1028 1.287 . S
C1028 C1027 1.287 . S
C1028 C1029 1.524 . S
C1028 H1047 0.913 . S
C1029 H1005 0.950 . S
C1029 C1028 1.524 . S
C1029 C1030 1.415 . S
C1030 H1006 0.950 . S
C1030 C1025 1.363 . S
C1030 C1029 1.415 . S
C1031 H1007 0.951 . S
C1031 C1032 1.366 . S
C1031 C1033 1.388 . S
C1032 C1031 1.366 . S
C1032 C1036 1.385 . S
C1033 H1008 0.951 . S
C1033 C1031 1.388 . S
C1033 C1034 1.366 . S
C1034 C1033 1.366 . S
C1034 C1035 1.414 . S
C1034 C1037 1.499 . S
C1035 H1009 0.950 . S
C1035 C1034 1.414 . S
C1035 C1036 1.374 . S
C1036 H1010 0.950 . S
C1036 C1032 1.385 . S
C1036 C1035 1.374 . S
C1037 C1034 1.499 . S
C1037 C1038 1.373 . S
C1037 C1039 1.389 . S
C1038 H1011 0.950 . S
C1038 C1024 1.377 1_554 S
C1038 C1037 1.373 . S
C1039 C1023 1.377 1_554 S
C1039 C1037 1.389 . S
C1039 C1040 1.524 . S
C1040 C1039 1.524 . S
C1040 C1041 1.397 . S
C1040 C1045 1.363 . S
C1041 H1012 0.950 . S
C1041 C1040 1.397 . S
C1041 C1042 1.334 . S
C1042 H1013 0.950 . S
C1042 C1041 1.334 . S
C1042 C1043 1.287 . S
C1043 C1042 1.287 . S
C1043 C1044 1.524 . S
C1043 H1046 0.999 . S
C1044 H1014 0.950 . S
C1044 C1043 1.524 . S
C1044 C1045 1.415 . S
C1045 H1015 0.950 . S
C1045 C1040 1.363 . S
C1045 C1044 1.415 . S
H1046 C1043 0.999 . S
H1047 C1028 0.913 . S
H1048 C1066 0.951 . S
H1049 C1068 0.951 . S
H1050 C1070 0.950 . S
H1051 C1071 0.950 . S
H1052 C1073 0.950 . S
H1053 C1076 0.950 . S
H1054 C1077 0.950 . S
H1055 C1079 0.950 . S
H1056 C1080 0.950 . S
H1057 C1081 0.951 1_655 S
H1058 C1083 0.951 1_655 S
H1059 C1085 0.950 . S
H1060 C1086 0.950 . S
H1061 C1088 0.950 . S
H1062 C1091 0.950 . S
H1063 C1092 0.950 . S
H1064 C1094 0.950 . S
H1065 C1095 0.950 1_655 S
C1066 H1048 0.951 . S
C1066 C1067 1.366 . S
C1066 C1068 1.388 . S
C1067 C1066 1.366 . S
C1067 C1071 1.385 1_455 S
C1068 H1049 0.951 . S
C1068 C1066 1.388 . S
C1068 C1069 1.366 . S
C1069 C1068 1.366 . S
C1069 C1070 1.414 1_455 S
C1069 C1072 1.499 . S
C1070 H1050 0.950 . S
C1070 C1069 1.414 1_655 S
C1070 C1071 1.374 . S
C1071 H1051 0.950 . S
C1071 C1067 1.385 1_655 S
C1071 C1070 1.374 . S
C1072 C1069 1.499 . S
C1072 C1073 1.373 . S
C1072 C1074 1.389 . S
C1073 H1052 0.950 . S
C1073 C1072 1.373 . S
C1073 C1089 1.377 . S
C1074 C1072 1.389 . S
C1074 C1075 1.525 1_455 S
C1074 C1088 1.377 . S
C1075 C1074 1.525 1_655 S
C1075 C1076 1.401 . S
C1075 C1080 1.359 1_655 S
C1076 H1053 0.950 . S
C1076 C1075 1.401 . S
C1076 C1077 1.334 . S
C1077 H1054 0.950 . S
C1077 C1076 1.334 . S
C1077 C1078 1.287 . S
C1078 C1077 1.287 . S
C1078 C1079 1.524 1_655 S
C1078 H1097 0.913 . S
C1079 H1055 0.950 . S
C1079 C1078 1.524 1_455 S
C1079 C1080 1.415 . S
C1080 H1056 0.950 . S
C1080 C1075 1.359 1_455 S
C1080 C1079 1.415 . S
C1081 H1057 0.951 1_455 S
C1081 C1082 1.366 . S
C1081 C1083 1.388 . S
C1082 C1081 1.366 . S
C1082 C1086 1.385 . S
C1083 H1058 0.951 1_455 S
C1083 C1081 1.388 . S
C1083 C1084 1.366 . S
C1084 C1083 1.366 . S
C1084 C1085 1.414 . S
C1084 C1087 1.499 . S
C1085 H1059 0.950 . S
C1085 C1084 1.414 . S
C1085 C1086 1.374 . S
C1086 H1060 0.950 . S
C1086 C1082 1.385 . S
C1086 C1085 1.374 . S
C1087 C1084 1.499 . S
C1087 C1088 1.373 . S
C1087 C1089 1.389 . S
C1088 H1061 0.950 . S
C1088 C1074 1.377 . S
C1088 C1087 1.373 . S
C1089 C1073 1.377 . S
C1089 C1087 1.389 . S
C1089 C1090 1.524 . S
C1090 C1089 1.524 . S
C1090 C1091 1.397 . S
C1090 C1095 1.363 . S
C1091 H1062 0.950 . S
C1091 C1090 1.397 . S
C1091 C1092 1.334 . S
C1092 H1063 0.950 . S
C1092 C1091 1.334 . S
C1092 C1093 1.287 . S
C1093 C1092 1.287 . S
C1093 C1094 1.524 . S
C1093 H1096 0.999 . S
C1094 H1064 0.950 . S
C1094 C1093 1.524 . S
C1094 C1095 1.415 . S
C1095 H1065 0.950 1_455 S
C1095 C1090 1.363 . S
C1095 C1094 1.415 . S
H1096 C1093 0.999 . S
H1097 C1078 0.913 . S
C217 C19 1.535 . S
C232 N187 1.510 . S
C267 C46 1.100 . S
C282 N160 1.098 . S
C317 C95 0.279 . S
C332 N173 0.147 . S
C367 C10 2.207 . S
C382 N186 2.250 . S
C432 N161 1.332 . S
C417 C55 1.323 . S
C482 N174 0.522 . S
C467 C86 0.540 . S
C517 C59 2.940 . S
C532 N134 2.941 . S
C567 C90 1.591 . S
C582 N148 1.577 . S
C617 C15 1.307 . S
C632 N122 1.322 . S
C682 N135 3.021 . S
C667 C50 3.008 . S
C732 N147 2.179 . S
C717 C99 2.159 . S
C767 C6 1.024 . S
C782 N121 1.025 . S
C832 N151 1.461 . S
C817 C9 1.458 . S
C867 C58 1.518 . S
C882 N125 1.610 . S
C917 C98 1.692 . S
C932 N138 1.716 . S
C982 N177 1.350 . S
C967 C49 1.341 . S
C1032 N190 1.437 . S
C1017 C89 1.405 . S
C1067 C18 1.463 . S
C1082 N164 1.529 . S
