# Generated by pormake.
# Topology ssa, (4,4)-cn, num edge types: 1
# Building blocks:
#     Node 0, Type 0, BuildingBlock: NAWXER_clean_sbu_0, # of connection points: 4
#     Node 1, Type 0, BuildingBlock: NAWXER_clean_sbu_0, # of connection points: 4
#     Node 2, Type 0, BuildingBlock: NAWXER_clean_sbu_0, # of connection points: 4
#     Node 3, Type 0, BuildingBlock: NAWXER_clean_sbu_0, # of connection points: 4
#     Node 4, Type 0, BuildingBlock: NAWXER_clean_sbu_0, # of connection points: 4
#     Node 5, Type 0, BuildingBlock: NAWXER_clean_sbu_0, # of connection points: 4
#     Node 6, Type 1, BuildingBlock: GIZVER_clean_linker_0, # of connection points: 4
#     Node 7, Type 1, BuildingBlock: GIZVER_clean_linker_0, # of connection points: 4
#     Node 8, Type 1, BuildingBlock: GIZVER_clean_linker_0, # of connection points: 4
#     Node 9, Type 1, BuildingBlock: GIZVER_clean_linker_0, # of connection points: 4
#     Node 10, Type 1, BuildingBlock: GIZVER_clean_linker_0, # of connection points: 4
#     Node 11, Type 1, BuildingBlock: GIZVER_clean_linker_0, # of connection points: 4
#     Edge 12, Type (0, 1), BuildingBlock: KIFKEQ_clean_linker_1, # of connection points: 2
#     Edge 13, Type (0, 1), BuildingBlock: KIFKEQ_clean_linker_1, # of connection points: 2
#     Edge 14, Type (0, 1), BuildingBlock: KIFKEQ_clean_linker_1, # of connection points: 2
#     Edge 15, Type (0, 1), BuildingBlock: KIFKEQ_clean_linker_1, # of connection points: 2
#     Edge 16, Type (0, 1), BuildingBlock: KIFKEQ_clean_linker_1, # of connection points: 2
#     Edge 17, Type (0, 1), BuildingBlock: KIFKEQ_clean_linker_1, # of connection points: 2
#     Edge 18, Type (0, 1), BuildingBlock: KIFKEQ_clean_linker_1, # of connection points: 2
#     Edge 19, Type (0, 1), BuildingBlock: KIFKEQ_clean_linker_1, # of connection points: 2
#     Edge 20, Type (0, 1), BuildingBlock: KIFKEQ_clean_linker_1, # of connection points: 2
#     Edge 21, Type (0, 1), BuildingBlock: KIFKEQ_clean_linker_1, # of connection points: 2
#     Edge 22, Type (0, 1), BuildingBlock: KIFKEQ_clean_linker_1, # of connection points: 2
#     Edge 23, Type (0, 1), BuildingBlock: KIFKEQ_clean_linker_1, # of connection points: 2
#     Edge 24, Type (0, 1), BuildingBlock: KIFKEQ_clean_linker_1, # of connection points: 2
#     Edge 25, Type (0, 1), BuildingBlock: KIFKEQ_clean_linker_1, # of connection points: 2
#     Edge 26, Type (0, 1), BuildingBlock: KIFKEQ_clean_linker_1, # of connection points: 2
#     Edge 27, Type (0, 1), BuildingBlock: KIFKEQ_clean_linker_1, # of connection points: 2
#     Edge 28, Type (0, 1), BuildingBlock: KIFKEQ_clean_linker_1, # of connection points: 2
#     Edge 29, Type (0, 1), BuildingBlock: KIFKEQ_clean_linker_1, # of connection points: 2
#     Edge 30, Type (0, 1), BuildingBlock: KIFKEQ_clean_linker_1, # of connection points: 2
#     Edge 31, Type (0, 1), BuildingBlock: KIFKEQ_clean_linker_1, # of connection points: 2
#     Edge 32, Type (0, 1), BuildingBlock: KIFKEQ_clean_linker_1, # of connection points: 2
#     Edge 33, Type (0, 1), BuildingBlock: KIFKEQ_clean_linker_1, # of connection points: 2
#     Edge 34, Type (0, 1), BuildingBlock: KIFKEQ_clean_linker_1, # of connection points: 2
#     Edge 35, Type (0, 1), BuildingBlock: KIFKEQ_clean_linker_1, # of connection points: 2
# Relax obj value: 0.007
# Max RMSD: 0.038
# Mean RMSD: 0.029
data_MOF--net-ssa--node1-NAWXER_clean_sbu_0--node2-GIZVER_clean_linker_0--edge1-KIFKEQ_clean_linker_1
_symmetry_space_group_name_H-M    P1
_symmetry_Int_Tables_number       1
_symmetry_cell_setting            triclinic
loop_
_symmetry_equiv_pos_as_xyz
'x, y, z'
_cell_length_a     53.444482
_cell_length_b     53.452202
_cell_length_c     29.013855
_cell_angle_alpha  89.455009
_cell_angle_beta   89.897069
_cell_angle_gamma 120.17926
loop_
_atom_site_label
_atom_site_type_symbol
_atom_site_fract_x
_atom_site_fract_y
_atom_site_fract_z
_atom_type_partial_charge
C0 C 0.05732 0.57577 0.01656 0.0
C1 C 0.99523 0.48413 0.93844 0.0
O2 O 0.03813 0.55586 0.04272 0.0
Zn3 Zn 1.00422 0.51167 0.03874 0.0
O4 O 0.05869 0.57068 0.97414 0.0
Zn5 Zn 0.02675 0.53087 0.97475 0.0
O6 O 0.99004 0.53524 0.98787 0.0
O7 O 0.96904 0.51277 0.05315 0.0
O8 O 0.01453 0.50749 0.91926 0.0
O9 O 0.99011 0.48357 0.9816 0.0
O10 O 0.01841 0.49206 0.07855 0.0
O11 O 0.04424 0.5098 0.01476 0.0
C12 C 0.96971 0.52734 0.01773 0.0
C13 C 0.03947 0.49588 0.05295 0.0
C14 C 0.52423 0.05828 0.50917 0.0
C15 C 0.55084 0.99315 0.43432 0.0
O16 O 0.52331 0.03852 0.53573 0.0
Zn17 Zn 0.52982 1.00234 0.53287 0.0
O18 O 0.53024 0.0587 0.46659 0.0
Zn19 Zn 0.53645 0.02574 0.46853 0.0
O20 O 0.49415 0.9902 0.47879 0.0
O21 O 0.49155 0.96833 0.54496 0.0
O22 O 0.54853 0.01317 0.41421 0.0
O23 O 0.54461 0.98777 0.47716 0.0
O24 O 0.56197 0.01428 0.57503 0.0
O25 O 0.57368 0.04108 0.5115 0.0
C26 C 0.47956 0.96986 0.50802 0.0
C27 C 0.5809 0.03518 0.55047 0.0
C28 C 0.48936 0.45925 0.93307 0.0
C29 C 0.51721 0.55468 -0.00799 0.0
O30 O 0.49042 0.48061 0.91158 0.0
Zn31 Zn 0.50323 0.507 0.96208 0.0
O32 O 0.49544 0.46136 0.97614 0.0
Zn33 Zn 0.50921 0.49406 0.02856 0.0
O34 O 0.47765 0.47669 0.07216 0.0
O35 O 0.46571 0.48923 0.00672 0.0
O36 O 0.51677 0.5374 0.02341 0.0
O37 O 0.51187 0.54633 0.95054 0.0
O38 O 0.54481 0.51162 0.97392 0.0
O39 O 0.54686 0.49959 0.04626 0.0
C40 C 0.45892 0.47853 0.04768 0.0
C41 C 0.55875 0.50817 0.00689 0.0
C42 C 0.05288 0.5814 0.51464 0.0
C43 C 0.988 0.47964 0.55915 0.0
O44 O 0.05262 0.57033 0.55388 0.0
Zn45 Zn 0.02017 0.53159 0.54169 0.0
O46 O 0.03438 0.56588 0.48409 0.0
Zn47 Zn 1.00003 0.52265 0.47402 0.0
O48 O 0.96548 0.52626 0.46672 0.0
O49 O 0.98454 0.5384 0.53615 0.0
O50 O 0.98459 0.48637 0.51824 0.0
O51 O 1.00577 0.49919 0.58605 0.0
O52 O 0.03957 0.51847 0.49082 0.0
O53 O 0.01631 0.5102 0.42478 0.0
C54 C 0.96533 0.53544 0.50699 0.0
C55 C 0.03678 0.51103 0.44854 0.0
C56 C 0.51289 0.9869 0.03234 0.0
C57 C 0.47772 0.05357 -0.00694 0.0
O58 O 0.51267 1.00539 0.05954 0.0
Zn59 Zn 0.49572 0.02104 0.01636 0.0
O60 O 0.50365 0.985 0.99114 0.0
Zn61 Zn 0.4857 1.00367 0.94708 0.0
O62 O 0.51585 0.02252 0.89948 0.0
O63 O 0.52994 0.04186 0.96817 0.0
O64 O 0.4754 0.03634 0.96087 0.0
O65 O 0.4887 0.05267 0.03151 0.0
O66 O 0.45348 0.98448 0.00772 0.0
O67 O 0.44806 0.96954 0.93557 0.0
C68 C 0.53545 0.04106 0.92551 0.0
C69 C 0.43804 0.96675 0.97634 0.0
C70 C 0.55826 0.53304 0.55329 0.0
C71 C 0.46343 0.50439 0.4892 0.0
O72 O 0.5367 0.53247 0.57285 0.0
Zn73 Zn 0.51098 0.52002 0.52079 0.0
O74 O 0.5567 0.52642 0.51064 0.0
Zn75 Zn 0.52504 0.51231 0.45702 0.0
O76 O 0.54252 0.54293 0.41131 0.0
O77 O 0.52955 0.55652 0.47409 0.0
O78 O 0.48063 0.50286 0.45985 0.0
O79 O 0.47242 0.51378 0.52943 0.0
O80 O 0.50255 0.47648 0.51072 0.0
O81 O 0.52041 0.47486 0.44279 0.0
C82 C 0.54059 0.56231 0.43339 0.0
C83 C 0.50729 0.46224 0.47994 0.0
H84 H 0.22111 0.4806 0.1807 0.0
H85 H 0.21819 0.49098 0.3273 0.0
H86 H 0.13955 0.448 0.25014 0.0
H87 H 0.26347 0.5173 0.2223 0.0
H88 H 0.26231 0.52111 0.28305 0.0
H89 H 0.2741 0.48153 0.18945 0.0
H90 H 0.31738 0.45127 0.27909 0.0
H91 H 0.27296 0.49204 0.33639 0.0
C92 C 0.20877 0.47575 0.21251 0.0
C93 C 0.17842 0.46162 0.21088 0.0
C94 C 0.22327 0.48575 0.25472 0.0
C95 C 0.20709 0.48169 0.2953 0.0
C96 C 0.17673 0.46781 0.29387 0.0
C97 C 0.16277 0.45684 0.25194 0.0
C98 C 0.25577 0.50482 0.25526 0.0
C99 C 0.27065 0.48745 0.26228 0.0
C100 C 0.27923 0.47756 0.22391 0.0
C101 C 0.29595 0.46423 0.22977 0.0
C102 C 0.30302 0.45992 0.27452 0.0
C103 C 0.29499 0.46993 0.31312 0.0
C104 C 0.27851 0.48346 0.30688 0.0
H105 H 0.77051 0.22112 0.68074 0.0
H106 H 0.74283 0.22965 0.81645 0.0
H107 H 0.71241 0.14569 0.75984 0.0
H108 H 0.76818 0.26732 0.71357 0.0
H109 H 0.7732 0.27226 0.77403 0.0
H110 H 0.80628 0.27056 0.66261 0.0
H111 H 0.89186 0.30798 0.71723 0.0
H112 H 0.82071 0.29155 0.80579 0.0
C113 C 0.75972 0.21148 0.71312 0.0
C114 C 0.74244 0.18121 0.71678 0.0
C115 C 0.76125 0.22926 0.74997 0.0
C116 C 0.74401 0.2163 0.78962 0.0
C117 C 0.72672 0.1861 0.79324 0.0
C118 C 0.72724 0.16888 0.75784 0.0
C119 C 0.77719 0.26186 0.74406 0.0
C120 C 0.80942 0.2746 0.73683 0.0
C121 C 0.82059 0.27671 0.69199 0.0
C122 C 0.8506 0.29031 0.68452 0.0
C123 C 0.86874 0.29834 0.72281 0.0
C124 C 0.859 0.30296 0.76495 0.0
C125 C 0.82892 0.289 0.77307 0.0
H126 H 0.53277 0.7499 0.13356 0.0
H127 H 0.54452 0.74895 0.28023 0.0
H128 H 0.57065 0.70245 0.19079 0.0
H129 H 0.5052 0.76202 0.18674 0.0
H130 H 0.50942 0.76096 0.24741 0.0
H131 H 0.53703 0.80547 0.14089 0.0
H132 H 0.5808 0.88453 0.21684 0.0
H133 H 0.54485 0.80328 0.28843 0.0
C134 C 0.54143 0.74418 0.16299 0.0
C135 C 0.55342 0.72634 0.15684 0.0
C136 C 0.53864 0.75287 0.2074 0.0
C137 C 0.54794 0.74347 0.24581 0.0
C138 C 0.55985 0.72545 0.24008 0.0
C139 C 0.56325 0.71781 0.19534 0.0
C140 C 0.52168 0.76816 0.21428 0.0
C141 C 0.54098 0.80065 0.21416 0.0
C142 C 0.5461 0.81669 0.17286 0.0
C143 C 0.56057 0.84712 0.17351 0.0
C144 C 0.57137 0.86122 0.2154 0.0
C145 C 0.5654 0.84569 0.25688 0.0
C146 C 0.55063 0.81536 0.25617 0.0
H147 H 0.75962 0.57746 0.71259 0.0
H148 H 0.77237 0.57415 0.85889 0.0
H149 H 0.6865 0.53515 0.80481 0.0
H150 H 0.80685 0.60863 0.74534 0.0
H151 H 0.81164 0.61074 0.80631 0.0
H152 H 0.81741 0.57695 0.70057 0.0
H153 H 0.85846 0.53555 0.76926 0.0
H154 H 0.81881 0.574 0.84871 0.0
C155 C 0.75078 0.57028 0.74697 0.0
C156 C 0.72061 0.555 0.75382 0.0
C157 C 0.76965 0.57699 0.78464 0.0
C158 C 0.75811 0.5683 0.82948 0.0
C159 C 0.72809 0.55256 0.83636 0.0
C160 C 0.70966 0.54599 0.79861 0.0
C161 C 0.80194 0.59531 0.77738 0.0
C162 C 0.81599 0.57691 0.77493 0.0
C163 C 0.823 0.56986 0.73205 0.0
C164 C 0.83813 0.55468 0.72967 0.0
C165 C 0.84557 0.546 0.77085 0.0
C166 C 0.83886 0.55297 0.81401 0.0
C167 C 0.82377 0.56817 0.81567 0.0
H168 H 0.29054 0.78709 0.18969 0.0
H169 H 0.31 0.78979 0.33409 0.0
H170 H 0.3504 0.86793 0.25254 0.0
H171 H 0.28547 0.74342 0.2344 0.0
H172 H 0.2866 0.74423 0.29573 0.0
H173 H 0.24315 0.73732 0.1928 0.0
H174 H 0.16416 0.70346 0.27135 0.0
H175 H 0.2457 0.74023 0.34107 0.0
C176 C 0.30161 0.79945 0.21988 0.0
C177 C 0.32052 0.82951 0.21588 0.0
C178 C 0.29754 0.78504 0.26251 0.0
C179 C 0.31236 0.80097 0.3016 0.0
C180 C 0.33169 0.83089 0.29812 0.0
C181 C 0.3352 0.84491 0.25536 0.0
C182 C 0.28027 0.75239 0.26505 0.0
C183 C 0.24808 0.74101 0.26666 0.0
C184 C 0.23204 0.73362 0.22562 0.0
C185 C 0.20169 0.72016 0.22688 0.0
C186 C 0.18762 0.7151 0.26981 0.0
C187 C 0.20325 0.72218 0.31112 0.0
C188 C 0.23354 0.73536 0.30931 0.0
H189 H 0.44782 0.25819 0.77629 0.0
H190 H 0.44673 0.24896 0.62865 0.0
H191 H 0.48819 0.33347 0.68788 0.0
H192 H 0.412 0.21226 0.7375 0.0
H193 H 0.41552 0.20752 0.67744 0.0
H194 H 0.43932 0.20236 0.79381 0.0
H195 H 0.49078 0.1664 0.74697 0.0
H196 H 0.45726 0.20269 0.64891 0.0
C197 C 0.45426 0.26783 0.74218 0.0
C198 C 0.46966 0.29809 0.73695 0.0
C199 C 0.44631 0.24991 0.7033 0.0
C200 C 0.45372 0.26253 0.65886 0.0
C201 C 0.46944 0.29273 0.65345 0.0
C202 C 0.47755 0.31017 0.69251 0.0
C203 C 0.42806 0.21752 0.70925 0.0
C204 C 0.44666 0.20441 0.72021 0.0
C205 C 0.44992 0.1977 0.76608 0.0
C206 C 0.46618 0.18429 0.77607 0.0
C207 C 0.47945 0.17805 0.73968 0.0
C208 C 0.4763 0.18442 0.69371 0.0
C209 C 0.46004 0.19785 0.68426 0.0
H210 H 0.0874 0.50375 0.00677 0.0
H211 H 0.03598 0.46338 0.12926 0.0
H212 H 0.12176 0.48898 0.03046 0.0
H213 H 0.07063 0.44872 0.153 0.0
H214 H 0.12824 0.41477 0.18166 0.0
H215 H 0.09276 0.4181 0.13289 0.0
H216 H 0.15695 0.50572 0.09507 0.0
H217 H 0.19209 0.50251 0.14407 0.0
C218 C 0.08323 0.49148 0.03859 0.0
C219 C 0.05905 0.48502 0.06646 0.0
C220 C 0.10296 0.483 0.05202 0.0
C221 C 0.09888 0.46765 0.09343 0.0
C222 C 0.07412 0.46016 0.12046 0.0
C223 C 0.05442 0.46882 0.10717 0.0
C224 C 0.13508 0.43424 0.16118 0.0
C225 C 0.16274 0.45856 0.1673 0.0
C226 C 0.11469 0.43626 0.13378 0.0
C227 C 0.12187 0.46244 0.11135 0.0
C228 C 0.15073 0.48528 0.11213 0.0
C229 C 0.17103 0.48335 0.13991 0.0
H230 H 0.60381 0.03445 0.63481 0.0
H231 H 0.62621 0.07809 0.50219 0.0
H232 H 0.65177 0.06929 0.66325 0.0
H233 H 0.67411 0.11258 0.53047 0.0
H234 H 0.73946 0.12889 0.70757 0.0
H235 H 0.705 0.09025 0.65797 0.0
H236 H 0.6889 0.15178 0.58585 0.0
H237 H 0.72307 0.1901 0.63531 0.0
C238 C 0.61911 0.05109 0.61149 0.0
C239 C 0.61098 0.05374 0.56655 0.0
C240 C 0.64672 0.07093 0.62761 0.0
C241 C 0.66674 0.09378 0.59908 0.0
C242 C 0.6591 0.09541 0.55338 0.0
C243 C 0.63158 0.07562 0.53729 0.0
C244 C 0.72955 0.13433 0.67962 0.0
C245 C 0.73354 0.16237 0.6758 0.0
C246 C 0.70956 0.11216 0.65165 0.0
C247 C 0.6936 0.11781 0.61898 0.0
C248 C 0.70075 0.14666 0.6108 0.0
C249 C 0.72061 0.16878 0.63896 0.0
H250 H 0.54299 0.60538 0.9413 0.0
H251 H 0.50252 0.56856 0.07283 0.0
H252 H 0.55264 0.65333 0.96688 0.0
H253 H 0.51123 0.61575 0.09729 0.0
H254 H 0.50388 0.69463 0.10919 0.0
H255 H 0.4945 0.65566 0.05617 0.0
H256 H 0.58532 0.68282 0.0546 0.0
H257 H 0.59477 0.72165 0.1084 0.0
C258 C 0.53588 0.60749 0.97529 0.0
C259 C 0.52221 0.5834 0.00528 0.0
C260 C 0.54136 0.63476 0.98976 0.0
C261 C 0.53233 0.6379 0.03372 0.0
C262 C 0.51806 0.61368 0.06303 0.0
C263 C 0.51331 0.58679 0.04916 0.0
C264 C 0.52206 0.69325 0.0957 0.0
C265 C 0.55003 0.71101 0.11301 0.0
C266 C 0.51665 0.67089 0.06554 0.0
C267 C 0.53921 0.66637 0.05163 0.0
C268 C 0.56768 0.68617 0.06458 0.0
C269 C 0.57305 0.70829 0.09533 0.0
H270 H 0.90665 0.5009 0.49889 0.0
H271 H 0.97293 0.58204 0.55372 0.0
H272 H 0.86983 0.50518 0.54352 0.0
H273 H 0.9365 0.58666 0.59734 0.0
H274 H 0.8657 0.59493 0.66125 0.0
H275 H 0.89183 0.59132 0.5948 0.0
H276 H 0.863 0.50238 0.63138 0.0
H277 H 0.83669 0.50593 0.69768 0.0
C278 C 0.91313 0.52015 0.51901 0.0
C279 C 0.94251 0.54123 0.52281 0.0
C280 C 0.89217 0.52248 0.54486 0.0
C281 C 0.90028 0.54622 0.57404 0.0
C282 C 0.92946 0.56828 0.57485 0.0
C283 C 0.95035 0.56565 0.54992 0.0
C284 C 0.86422 0.57435 0.65433 0.0
C285 C 0.84931 0.55077 0.68491 0.0
C286 C 0.87932 0.57235 0.61643 0.0
C287 C 0.87961 0.54663 0.608 0.0
C288 C 0.86301 0.52242 0.63669 0.0
C289 C 0.84816 0.52452 0.67489 0.0
H290 H 0.42763 0.91204 0.98437 0.0
H291 H 0.38888 0.96484 0.00563 0.0
H292 H 0.39136 0.87459 0.03445 0.0
H293 H 0.35096 0.9266 0.05312 0.0
H294 H 0.32927 0.88359 0.19665 0.0
H295 H 0.35048 0.91249 0.12783 0.0
H296 H 0.34662 0.83869 0.06076 0.0
H297 H 0.32754 0.81041 0.13159 0.0
C298 C 0.41027 0.91484 -0.00222 0.0
C299 C 0.41081 0.9411 0.99098 0.0
C300 C 0.38937 0.89336 0.02673 0.0
C301 C 0.36834 0.89761 0.04905 0.0
C302 C 0.36726 0.9228 0.03796 0.0
C303 C 0.38863 0.94455 0.01 0.0
C304 C 0.33285 0.87344 0.16721 0.0
C305 C 0.32734 0.84484 0.17028 0.0
C306 C 0.34465 0.88996 0.1271 0.0
C307 C 0.35079 0.87824 0.08832 0.0
C308 C 0.34294 0.84881 0.0901 0.0
C309 C 0.33153 0.83238 0.13065 0.0
H310 H 0.46242 0.42413 0.53355 0.0
H311 H 0.53215 0.43149 0.44829 0.0
H312 H 0.45139 0.37612 0.55892 0.0
H313 H 0.5213 0.38317 0.47443 0.0
H314 H 0.5208 0.33154 0.6138 0.0
H315 H 0.52765 0.36789 0.55581 0.0
H316 H 0.43526 0.32459 0.5353 0.0
H317 H 0.42854 0.28812 0.59332 0.0
C318 C 0.47506 0.41521 0.5196 0.0
C319 C 0.4983 0.43161 0.48929 0.0
C320 C 0.46856 0.38757 0.53377 0.0
C321 C 0.48543 0.37583 0.51856 0.0
C322 C 0.50791 0.39169 0.48659 0.0
C323 C 0.51408 0.41926 0.47163 0.0
C324 C 0.50214 0.32905 0.59517 0.0
C325 C 0.47417 0.30716 0.60794 0.0
C326 C 0.50602 0.34986 0.562 0.0
C327 C 0.48194 0.34931 0.54156 0.0
C328 C 0.45417 0.32564 0.55084 0.0
C329 C 0.45033 0.30462 0.58366 0.0
H330 H 0.58376 0.97149 0.46602 0.0
H331 H 0.53496 0.97164 0.34767 0.0
H332 H 0.59014 0.93344 0.43116 0.0
H333 H 0.54072 0.93295 0.31345 0.0
H334 H 0.52077 0.83847 0.30976 0.0
H335 H 0.52042 0.87642 0.35561 0.0
H336 H 0.61323 0.92843 0.34198 0.0
H337 H 0.61356 0.89066 0.29486 0.0
C338 C 0.57484 0.96367 0.43219 0.0
C339 C 0.55895 0.97445 0.4093 0.0
C340 C 0.57842 0.94193 0.41251 0.0
C341 C 0.56555 0.9302 0.3702 0.0
C342 C 0.55058 0.94166 0.34643 0.0
C343 C 0.54757 0.96391 0.36565 0.0
C344 C 0.54124 0.85734 0.3185 0.0
C345 C 0.56722 0.86163 0.29913 0.0
C346 C 0.54096 0.87921 0.34395 0.0
C347 C 0.56673 0.90535 0.35124 0.0
C348 C 0.59313 0.9084 0.33642 0.0
C349 C 0.59336 0.88672 0.31015 0.0
H350 H 0.60935 0.53602 0.05647 0.0
H351 H 0.57172 0.48723 0.93296 0.0
H352 H 0.65738 0.54496 0.0313 0.0
H353 H 0.61873 0.49533 0.90868 0.0
H354 H 0.69683 0.49886 0.87362 0.0
H355 H 0.65871 0.48469 0.93159 0.0
H356 H 0.68864 0.57469 0.958 0.0
H357 H 0.72706 0.58876 0.90032 0.0
C358 C 0.6113 0.52672 0.02462 0.0
C359 C 0.58707 0.51114 -0.00362 0.0
C360 C 0.63863 0.5318 0.01027 0.0
C361 C 0.64169 0.52053 0.96834 0.0
C362 C 0.61703 0.50383 0.94156 0.0
C363 C 0.59014 0.49943 0.9552 0.0
C364 C 0.69623 0.51553 0.89376 0.0
C365 C 0.71469 0.54484 0.88264 0.0
C366 C 0.67434 0.50746 0.92667 0.0
C367 C 0.67042 0.52861 0.94857 0.0
C368 C 0.69124 0.55796 0.94179 0.0
C369 C 0.71328 0.56603 0.90887 0.0
H370 H 0.04981 0.61584 0.44877 0.0
H371 H 0.10855 0.61263 0.54733 0.0
H372 H 0.08967 0.65716 0.41091 0.0
H373 H 0.149 0.65508 0.50992 0.0
H374 H 0.2085 0.6884 0.37677 0.0
H375 H 0.17415 0.66138 0.43849 0.0
H376 H 0.12707 0.70561 0.4072 0.0
H377 H 0.16088 0.73163 0.34412 0.0
C378 C 0.07125 0.6246 0.46326 0.0
C379 C 0.07607 0.61075 0.50069 0.0
C380 C 0.09423 0.64857 0.44167 0.0
C381 C 0.1228 0.65946 0.45691 0.0
C382 C 0.12736 0.64701 0.49678 0.0
C383 C 0.10416 0.6229 0.51858 0.0
C384 C 0.19131 0.69295 0.38408 0.0
C385 C 0.18712 0.71183 0.3554 0.0
C386 C 0.17159 0.6775 0.41961 0.0
C387 C 0.1474 0.68083 0.42744 0.0
C388 C 0.14496 0.70189 0.40145 0.0
C389 C 0.16442 0.71698 0.36551 0.0
H390 H 0.4317 0.04672 0.94461 0.0
H391 H 0.50835 0.11126 0.01322 0.0
H392 H 0.42712 0.0845 0.90515 0.0
H393 H 0.50392 0.14956 0.97337 0.0
H394 H 0.51315 0.18984 0.82233 0.0
H395 H 0.51274 0.16241 0.89018 0.0
H396 H 0.42044 0.12672 0.90434 0.0
H397 H 0.42084 0.15382 0.83572 0.0
C398 C 0.44694 0.06911 0.95257 0.0
C399 C 0.47039 0.0761 0.98183 0.0
C400 C 0.4443 0.09083 0.93003 0.0
C401 C 0.46534 0.12011 0.93569 0.0
C402 C 0.4875 0.12719 0.96802 0.0
C403 C 0.48988 0.10532 0.9912 0.0
C404 C 0.4929 0.1767 0.84065 0.0
C405 C 0.46698 0.17365 0.8233 0.0
C406 C 0.49268 0.16116 0.87984 0.0
C407 C 0.46648 0.14209 0.90244 0.0
C408 C 0.44093 0.14099 0.8874 0.0
C409 C 0.44118 0.15668 0.84828 0.0
H410 H 0.43295 0.46828 0.4199 0.0
H411 H 0.42635 0.52025 0.5271 0.0
H412 H 0.38542 0.45625 0.39203 0.0
H413 H 0.37835 0.50824 0.49867 0.0
H414 H 0.32621 0.51658 0.36784 0.0
H415 H 0.36259 0.52159 0.42354 0.0
H416 H 0.33269 0.43032 0.41303 0.0
H417 H 0.29637 0.42537 0.35721 0.0
C418 C 0.42117 0.4769 0.43783 0.0
C419 C 0.43347 0.49539 0.47545 0.0
C420 C 0.39376 0.46974 0.42217 0.0
C421 C 0.37804 0.48113 0.44338 0.0
C422 C 0.38998 0.4991 0.48177 0.0
C423 C 0.41737 0.50593 0.49801 0.0
C424 C 0.32649 0.49734 0.37911 0.0
C425 C 0.30878 0.47066 0.35777 0.0
C426 C 0.34742 0.50023 0.41092 0.0
C427 C 0.35089 0.47646 0.42175 0.0
C428 C 0.33083 0.4491 0.4046 0.0
C429 C 0.30995 0.44623 0.3729 0.0
H430 H 0.97312 0.42889 0.96894 0.0
H431 H 0.9768 0.47946 0.84963 0.0
H432 H 0.94068 0.38447 0.9287 0.0
H433 H 0.94285 0.43532 0.81012 0.0
H434 H 0.90405 0.35396 0.73254 0.0
H435 H 0.93806 0.39549 0.7742 0.0
H436 H 0.89353 0.35485 0.90181 0.0
H437 H 0.86061 0.31097 0.85976 0.0
C438 C 0.9669 0.43042 0.93395 0.0
C439 C 0.97765 0.45753 0.91209 0.0
C440 C 0.948 0.40496 0.91108 0.0
C441 C 0.93891 0.40605 0.86607 0.0
C442 C 0.94979 0.43337 0.84432 0.0
C443 C 0.96925 0.45879 0.86687 0.0
C444 C 0.90187 0.353 0.76973 0.0
C445 C 0.87992 0.32827 0.79281 0.0
C446 C 0.92115 0.37754 0.79366 0.0
C447 C 0.91861 0.37894 0.8415 0.0
C448 C 0.89649 0.35447 0.86496 0.0
C449 C 0.87739 0.32936 0.84086 0.0
H450 H 0.91142 0.49022 0.02642 0.0
H451 H 0.97498 0.57642 0.98147 0.0
H452 H 0.87344 0.49536 0.98746 0.0
H453 H 0.93743 0.58175 0.9432 0.0
H454 H 0.86566 0.58979 0.88543 0.0
H455 H 0.89202 0.5836 0.94889 0.0
H456 H 0.86631 0.49767 0.90168 0.0
H457 H 0.83942 0.50362 0.83867 0.0
C458 C 0.91703 0.51065 0.00985 0.0
C459 C 0.94603 0.53296 0.0069 0.0
C460 C 0.89541 0.51349 0.98716 0.0
C461 C 0.90248 0.53888 0.96199 0.0
C462 C 0.93117 0.56202 0.96259 0.0
C463 C 0.95272 0.55899 0.98447 0.0
C464 C 0.86487 0.56923 0.88937 0.0
C465 C 0.85065 0.54727 0.85674 0.0
C466 C 0.88014 0.56578 0.92558 0.0
C467 C 0.88142 0.54024 0.93013 0.0
C468 C 0.86556 0.51752 0.89939 0.0
C469 C 0.85042 0.52104 0.86298 0.0
H470 H 0.44147 0.97644 0.45566 0.0
H471 H 0.45262 0.91151 0.52709 0.0
H472 H 0.40106 0.93869 0.41301 0.0
H473 H 0.41179 0.8735 0.48388 0.0
H474 H 0.31603 0.82883 0.38947 0.0
H475 H 0.34675 0.85942 0.45254 0.0
H476 H 0.4193 0.90075 0.35859 0.0
H477 H 0.38936 0.87018 0.29638 0.0
C478 C 0.43457 0.95402 0.4635 0.0
C479 C 0.45032 0.94691 0.49442 0.0
C480 C 0.41143 0.93247 0.43913 0.0
C481 C 0.40351 0.90336 0.44523 0.0
C482 C 0.41742 0.89586 0.4791 0.0
C483 C 0.44067 0.91757 0.50383 0.0
C484 C 0.33865 0.84415 0.38258 0.0
C485 C 0.35012 0.84748 0.33769 0.0
C486 C 0.35611 0.86156 0.41857 0.0
C487 C 0.38519 0.88239 0.41002 0.0
C488 C 0.39684 0.88491 0.36577 0.0
C489 C 0.3796 0.86758 0.33014 0.0
H490 H 0.49385 0.45393 0.84059 0.0
H491 H 0.47349 0.40573 0.96898 0.0
H492 H 0.49033 0.41252 0.79998 0.0
H493 H 0.46947 0.364 0.92779 0.0
H494 H 0.43175 0.29151 0.80615 0.0
H495 H 0.43604 0.32905 0.85871 0.0
H496 H 0.52223 0.38697 0.80694 0.0
H497 H 0.51848 0.34935 0.75563 0.0
C498 C 0.48821 0.43437 0.86003 0.0
C499 C 0.48399 0.43309 0.90797 0.0
C500 C 0.48646 0.4108 0.83686 0.0
C501 C 0.47998 0.38531 0.86098 0.0
C502 C 0.4746 0.3835 0.90858 0.0
C503 C 0.47689 0.40733 0.932 0.0
C504 C 0.452 0.31186 0.80721 0.0
C505 C 0.47463 0.31763 0.77626 0.0
C506 C 0.45434 0.33338 0.83703 0.0
C507 C 0.47921 0.36098 0.83596 0.0
C508 C 0.50263 0.36599 0.80768 0.0
C509 C 0.50047 0.34445 0.77844 0.0
H510 H 0.08906 0.52493 0.48372 0.0
H511 H 0.03213 0.48025 0.37021 0.0
H512 H 0.1236 0.51169 0.45543 0.0
H513 H 0.06714 0.46697 0.34171 0.0
H514 H 0.12363 0.42648 0.32701 0.0
H515 H 0.08914 0.43585 0.36774 0.0
H516 H 0.15592 0.5249 0.38542 0.0
H517 H 0.19012 0.51583 0.34379 0.0
C518 C 0.08387 0.51223 0.45265 0.0
C519 C 0.05781 0.50362 0.42911 0.0
C520 C 0.10375 0.50471 0.43651 0.0
C521 C 0.09797 0.48816 0.39667 0.0
C522 C 0.07192 0.47944 0.37297 0.0
C523 C 0.05205 0.48727 0.38891 0.0
C524 C 0.13112 0.44785 0.34074 0.0
C525 C 0.15952 0.47049 0.33173 0.0
C526 C 0.11131 0.45326 0.36355 0.0
C527 C 0.11972 0.48124 0.37867 0.0
C528 C 0.14884 0.50313 0.37394 0.0
C529 C 0.16856 0.49783 0.35058 0.0
H530 H 0.58503 0.06668 0.97456 0.0
H531 H 0.55171 0.06401 0.83804 0.0
H532 H 0.63271 0.10517 0.94976 0.0
H533 H 0.59975 0.103 0.81325 0.0
H534 H 0.67999 0.19268 0.80021 0.0
H535 H 0.63319 0.15741 0.83419 0.0
H536 H 0.67176 0.11018 0.89235 0.0
H537 H 0.71841 0.14524 0.85767 0.0
C538 C 0.58795 0.07426 0.93911 0.0
C539 C 0.56464 0.06235 0.90815 0.0
C540 C 0.61526 0.09629 0.92502 0.0
C541 C 0.61981 0.10727 0.87984 0.0
C542 C 0.59665 0.09516 0.84854 0.0
C543 C 0.56932 0.07267 0.86249 0.0
C544 C 0.67868 0.17546 0.82196 0.0
C545 C 0.7028 0.17185 0.82705 0.0
C546 C 0.65183 0.155 0.84056 0.0
C547 C 0.64881 0.13085 0.86513 0.0
C548 C 0.67351 0.1286 0.87351 0.0
C549 C 0.70024 0.1488 0.85425 0.0
H550 H 0.56542 0.58237 0.34839 0.0
H551 H 0.53517 0.60667 0.46876 0.0
H552 H 0.57511 0.62701 0.30964 0.0
H553 H 0.54523 0.65155 0.43009 0.0
H554 H 0.60479 0.71567 0.25565 0.0
H555 H 0.60486 0.67993 0.30866 0.0
H556 H 0.52315 0.66335 0.36581 0.0
H557 H 0.5231 0.69895 0.31292 0.0
C558 C 0.56124 0.59741 0.36686 0.0
C559 C 0.5493 0.59078 0.41155 0.0
C560 C 0.567 0.62316 0.34476 0.0
C561 C 0.56091 0.64288 0.36674 0.0
C562 C 0.54991 0.63671 0.41204 0.0
C563 C 0.54425 0.61101 0.43422 0.0
C564 C 0.5872 0.70486 0.28032 0.0
C565 C 0.56382 0.70998 0.27978 0.0
C566 C 0.58714 0.68427 0.31047 0.0
C567 C 0.56376 0.6684 0.3409 0.0
C568 C 0.54159 0.67526 0.343 0.0
C569 C 0.54162 0.69582 0.31277 0.0
H570 H 0.52936 0.07281 0.59904 0.0
H571 H 0.50922 0.09517 0.46615 0.0
H572 H 0.52139 0.10887 0.63527 0.0
H573 H 0.5009 0.13167 0.50319 0.0
H574 H 0.44851 0.15567 0.61541 0.0
H575 H 0.46332 0.12967 0.56326 0.0
H576 H 0.5442 0.16326 0.63572 0.0
H577 H 0.52955 0.18933 0.68758 0.0
C578 C 0.52325 0.08549 0.57746 0.0
C579 C 0.51978 0.08101 0.5297 0.0
C580 C 0.51897 0.10641 0.59825 0.0
C581 C 0.51081 0.1233 0.57202 0.0
C582 C 0.50727 0.11897 0.52415 0.0
C583 C 0.51206 0.09817 0.50303 0.0
C584 C 0.46985 0.15827 0.61922 0.0
C585 C 0.48769 0.17415 0.65607 0.0
C586 C 0.4783 0.14336 0.58935 0.0
C587 C 0.50469 0.14408 0.59597 0.0
C588 C 0.52352 0.16194 0.63034 0.0
C589 C 0.51513 0.17683 0.66003 0.0
H590 H 0.4164 0.48549 0.00792 0.0
H591 H 0.43614 0.45302 0.13133 0.0
H592 H 0.37094 0.47635 0.04279 0.0
H593 H 0.39088 0.44417 0.16621 0.0
H594 H 0.32429 0.50102 0.15774 0.0
H595 H 0.35949 0.49937 0.10638 0.0
H596 H 0.33755 0.4156 0.16252 0.0
H597 H 0.30216 0.41722 0.21394 0.0
C598 C 0.41091 0.47607 0.04227 0.0
C599 C 0.43004 0.47019 0.06701 0.0
C600 C 0.38488 0.47093 0.06224 0.0
C601 C 0.3773 0.45958 0.10725 0.0
C602 C 0.39587 0.45256 0.13121 0.0
C603 C 0.42196 0.45785 0.11137 0.0
C604 C 0.32612 0.48173 0.15787 0.0
C605 C 0.31068 0.45939 0.19026 0.0
C606 C 0.34643 0.48083 0.12853 0.0
C607 C 0.3517 0.45759 0.13103 0.0
C608 C 0.33439 0.43407 0.1605 0.0
C609 C 0.31403 0.43493 0.18971 0.0
H610 H 0.97346 0.43288 0.50655 0.0
H611 H 0.96213 0.45755 0.64289 0.0
H612 H 0.93785 0.38226 0.52436 0.0
H613 H 0.92591 0.40683 0.66023 0.0
H614 H 0.83692 0.32765 0.64493 0.0
H615 H 0.87277 0.37339 0.6101 0.0
H616 H 0.93225 0.34159 0.59714 0.0
H617 H 0.89638 0.29556 0.63312 0.0
C618 C 0.96361 0.42735 0.54057 0.0
C619 C 0.97044 0.44903 0.57345 0.0
C620 C 0.94329 0.39848 0.55056 0.0
C621 C 0.929 0.39095 0.59323 0.0
C622 C 0.93657 0.41238 0.62683 0.0
C623 C 0.95741 0.44122 0.61718 0.0
C624 C 0.85691 0.32959 0.63228 0.0
C625 C 0.86396 0.30808 0.6424 0.0
C626 C 0.87766 0.35608 0.61324 0.0
C627 C 0.9054 0.36111 0.60257 0.0
C628 C 0.91102 0.33818 0.60582 0.0
C629 C 0.89034 0.31171 0.62559 0.0
H630 H 0.54522 0.99001 0.10823 0.0
H631 H 0.50267 0.93778 0.98937 0.0
H632 H 0.56048 0.95542 0.1312 0.0
H633 H 0.51773 0.9035 0.01246 0.0
H634 H 0.51296 0.83397 0.12197 0.0
H635 H 0.50399 0.86869 0.08124 0.0
H636 H 0.59291 0.93526 0.10092 0.0
H637 H 0.60228 0.90021 0.14044 0.0
C638 C 0.53923 0.9713 0.08701 0.0
C639 C 0.52272 0.96666 0.04709 0.0
C640 C 0.54817 0.95166 0.09985 0.0
C641 C 0.5404 0.92689 0.07335 0.0
C642 C 0.52402 0.92238 0.03345 0.0
C643 C 0.51545 0.9421 0.02032 0.0
C644 C 0.53101 0.85558 0.11566 0.0
C645 C 0.55826 0.8644 0.13501 0.0
C646 C 0.52575 0.8756 0.09279 0.0
C647 C 0.54758 0.90481 0.08912 0.0
C648 C 0.57556 0.91299 0.10426 0.0
C649 C 0.58095 0.89287 0.12643 0.0
H650 H 0.56256 0.52953 0.64652 0.0
H651 H 0.61237 0.54938 0.5203 0.0
H652 H 0.6039 0.53437 0.68987 0.0
H653 H 0.65395 0.55476 0.56412 0.0
H654 H 0.72607 0.59327 0.68518 0.0
H655 H 0.68813 0.58894 0.63297 0.0
H656 H 0.63026 0.50314 0.68659 0.0
H657 H 0.66827 0.5068 0.73728 0.0
C658 C 0.58244 0.53534 0.62813 0.0
C659 C 0.58419 0.539 0.58 0.0
C660 C 0.606 0.53789 0.65288 0.0
C661 C 0.63193 0.54467 0.63016 0.0
C662 C 0.63415 0.54949 0.58233 0.0
C663 C 0.61037 0.54637 0.55738 0.0
C664 C 0.70558 0.57313 0.6848 0.0
C665 C 0.70008 0.55054 0.71592 0.0
C666 C 0.68384 0.57078 0.65518 0.0
C667 C 0.65619 0.54596 0.65662 0.0
C668 C 0.65125 0.52274 0.68558 0.0
C669 C 0.67303 0.52487 0.71454 0.0
H670 H 0.11191 0.61552 0.98528 0.0
H671 H 0.05102 0.59851 0.0959 0.0
H672 H 0.14912 0.65729 0.02731 0.0
H673 H 0.08783 0.63968 0.13763 0.0
H674 H 0.15305 0.72119 0.20016 0.0
H675 H 0.11901 0.6922 0.14023 0.0
H676 H 0.17623 0.66122 0.09888 0.0
H677 H 0.21018 0.69014 0.15865 0.0
C678 C 0.1063 0.62105 0.01802 0.0
C679 C 0.07862 0.6036 0.03746 0.0
C680 C 0.12763 0.64482 0.04221 0.0
C681 C 0.12148 0.65179 0.0859 0.0
C682 C 0.09328 0.63523 0.10388 0.0
C683 C 0.07219 0.61142 0.08007 0.0
C684 C 0.15858 0.70859 0.1777 0.0
C685 C 0.18416 0.7077 0.1846 0.0
C686 C 0.13909 0.69198 0.14339 0.0
C687 C 0.1447 0.67406 0.1152 0.0
C688 C 0.17131 0.67493 0.11972 0.0
C689 C 0.19083 0.69156 0.15406 0.0
loop_
_geom_bond_atom_site_label_1
_geom_bond_atom_site_label_2
_geom_bond_distance
_geom_bond_site_symmetry_2
_ccdc_geom_bond_type
C0 O2 1.247 . S
C0 O4 1.258 . S
C1 O8 1.247 . S
C1 O9 1.258 1_556 S
O2 C0 1.247 . S
O2 Zn3 2.028 1_455 S
Zn3 O2 2.028 1_655 S
Zn3 O7 2.035 . S
Zn3 O9 2.035 . S
Zn3 O10 2.028 1_655 S
O4 C0 1.258 . S
O4 Zn5 2.035 1_554 S
Zn5 O4 2.035 1_556 S
Zn5 O6 2.028 1_455 S
Zn5 O8 2.028 1_455 S
Zn5 O11 2.035 1_556 S
O6 Zn5 2.028 1_655 S
O6 C12 1.247 . S
O7 Zn3 2.035 . S
O7 C12 1.258 1_554 S
O8 C1 1.247 . S
O8 Zn5 2.028 1_655 S
O9 C1 1.258 1_554 S
O9 Zn3 2.035 . S
O10 Zn3 2.028 1_455 S
O10 C13 1.247 . S
O11 Zn5 2.035 1_554 S
O11 C13 1.258 . S
C12 O6 1.247 . S
C12 O7 1.258 1_556 S
C13 O10 1.247 . S
C13 O11 1.258 . S
C14 O16 1.247 . S
C14 O18 1.258 . S
C15 O22 1.247 . S
C15 O23 1.258 . S
O16 C14 1.247 . S
O16 Zn17 2.028 1_545 S
Zn17 O16 2.028 1_565 S
Zn17 O21 2.035 . S
Zn17 O23 2.035 . S
Zn17 O24 2.028 1_565 S
O18 C14 1.258 . S
O18 Zn19 2.035 . S
Zn19 O18 2.035 . S
Zn19 O20 2.028 1_545 S
Zn19 O22 2.028 1_545 S
Zn19 O25 2.035 . S
O20 Zn19 2.028 1_565 S
O20 C26 1.247 . S
O21 Zn17 2.035 . S
O21 C26 1.258 . S
O22 C15 1.247 . S
O22 Zn19 2.028 1_565 S
O23 C15 1.258 . S
O23 Zn17 2.035 . S
O24 Zn17 2.028 1_545 S
O24 C27 1.247 . S
O25 Zn19 2.035 . S
O25 C27 1.258 . S
C26 O20 1.247 . S
C26 O21 1.258 . S
C27 O24 1.247 . S
C27 O25 1.258 . S
C28 O30 1.247 . S
C28 O32 1.258 1_556 S
C29 O36 1.247 . S
C29 O37 1.258 . S
O30 C28 1.247 . S
O30 Zn31 2.028 . S
Zn31 O30 2.028 . S
Zn31 O35 2.035 1_556 S
Zn31 O37 2.035 1_556 S
Zn31 O38 2.028 . S
O32 C28 1.258 1_554 S
O32 Zn33 2.035 . S
Zn33 O32 2.035 . S
Zn33 O34 2.028 . S
Zn33 O36 2.028 . S
Zn33 O39 2.035 . S
O34 Zn33 2.028 . S
O34 C40 1.247 . S
O35 Zn31 2.035 1_554 S
O35 C40 1.258 . S
O36 C29 1.247 . S
O36 Zn33 2.028 . S
O37 C29 1.258 . S
O37 Zn31 2.035 1_554 S
O38 Zn31 2.028 . S
O38 C41 1.247 . S
O39 Zn33 2.035 . S
O39 C41 1.258 1_554 S
C40 O34 1.247 . S
C40 O35 1.258 . S
C41 O38 1.247 . S
C41 O39 1.258 1_556 S
C42 O44 1.247 . S
C42 O46 1.258 . S
C43 O50 1.247 . S
C43 O51 1.258 . S
O44 C42 1.247 . S
O44 Zn45 2.028 . S
Zn45 O44 2.028 . S
Zn45 O49 2.035 1_455 S
Zn45 O51 2.035 1_455 S
Zn45 O52 2.028 . S
O46 C42 1.258 . S
O46 Zn47 2.035 1_455 S
Zn47 O46 2.035 1_655 S
Zn47 O48 2.028 . S
Zn47 O50 2.028 . S
Zn47 O53 2.035 1_655 S
O48 Zn47 2.028 . S
O48 C54 1.247 . S
O49 Zn45 2.035 1_655 S
O49 C54 1.258 . S
O50 C43 1.247 . S
O50 Zn47 2.028 . S
O51 C43 1.258 . S
O51 Zn45 2.035 1_655 S
O52 Zn45 2.028 . S
O52 C55 1.247 . S
O53 Zn47 2.035 1_455 S
O53 C55 1.258 . S
C54 O48 1.247 . S
C54 O49 1.258 . S
C55 O52 1.247 . S
C55 O53 1.258 . S
C56 O58 1.247 . S
C56 O60 1.264 . S
C57 O64 1.247 . S
C57 O65 1.258 1_556 S
O58 C56 1.247 . S
O58 Zn59 2.028 1_565 S
Zn59 O58 2.028 1_545 S
Zn59 O63 2.035 . S
Zn59 O65 2.035 . S
Zn59 O66 2.028 1_545 S
O60 C56 1.264 . S
O60 Zn61 2.032 1_554 S
Zn61 O60 2.032 1_556 S
Zn61 O62 2.028 1_565 S
Zn61 O64 2.028 1_565 S
Zn61 O67 2.029 1_556 S
O62 Zn61 2.028 1_545 S
O62 C68 1.247 . S
O63 Zn59 2.035 . S
O63 C68 1.258 1_554 S
O64 C57 1.247 . S
O64 Zn61 2.028 1_545 S
O65 C57 1.258 1_554 S
O65 Zn59 2.035 . S
O66 Zn59 2.028 1_565 S
O66 C69 1.247 . S
O67 Zn61 2.029 1_554 S
O67 C69 1.268 . S
C68 O62 1.247 . S
C68 O63 1.258 1_556 S
C69 O66 1.247 . S
C69 O67 1.268 . S
C70 O72 1.247 . S
C70 O74 1.258 . S
C71 O78 1.247 . S
C71 O79 1.258 . S
O72 C70 1.247 . S
O72 Zn73 2.028 . S
Zn73 O72 2.028 . S
Zn73 O77 2.035 . S
Zn73 O79 2.035 . S
Zn73 O80 2.028 . S
O74 C70 1.258 . S
O74 Zn75 2.035 . S
Zn75 O74 2.035 . S
Zn75 O76 2.028 . S
Zn75 O78 2.028 . S
Zn75 O81 2.035 . S
O76 Zn75 2.028 . S
O76 C82 1.247 . S
O77 Zn73 2.035 . S
O77 C82 1.258 . S
O78 C71 1.247 . S
O78 Zn75 2.028 . S
O79 C71 1.258 . S
O79 Zn73 2.035 . S
O80 Zn73 2.028 . S
O80 C83 1.247 . S
O81 Zn75 2.035 . S
O81 C83 1.258 . S
C82 O76 1.247 . S
C82 O77 1.258 . S
C83 O80 1.247 . S
C83 O81 1.258 . S
H84 C92 0.930 . S
H85 C95 0.930 . S
H86 C97 0.930 . S
H87 C98 0.970 . S
H88 C98 0.970 . S
H89 C100 0.930 . S
H90 C102 0.930 . S
H91 C104 0.930 . S
C92 H84 0.930 . S
C92 C93 1.382 . S
C92 C94 1.426 . S
C93 C92 1.382 . S
C93 C97 1.389 . S
C94 C92 1.426 . S
C94 C95 1.375 . S
C94 C98 1.532 . S
C95 H85 0.930 . S
C95 C94 1.375 . S
C95 C96 1.416 . S
C96 C95 1.416 . S
C96 C97 1.371 . S
C97 H86 0.930 . S
C97 C93 1.389 . S
C97 C96 1.371 . S
C98 H87 0.970 . S
C98 H88 0.970 . S
C98 C94 1.532 . S
C98 C99 1.499 . S
C99 C98 1.499 . S
C99 C100 1.370 . S
C99 C104 1.415 . S
C100 H89 0.930 . S
C100 C99 1.370 . S
C100 C101 1.407 . S
C101 C100 1.407 . S
C101 C102 1.365 . S
C102 H90 0.930 . S
C102 C101 1.365 . S
C102 C103 1.393 . S
C103 C102 1.393 . S
C103 C104 1.387 . S
C104 H91 0.930 . S
C104 C99 1.415 . S
C104 C103 1.387 . S
H105 C113 0.930 . S
H106 C116 0.930 . S
H107 C118 0.930 . S
H108 C119 0.970 . S
H109 C119 0.970 . S
H110 C121 0.930 . S
H111 C123 0.930 . S
H112 C125 0.930 . S
C113 H105 0.930 . S
C113 C114 1.382 . S
C113 C115 1.426 . S
C114 C113 1.382 . S
C114 C118 1.389 . S
C115 C113 1.426 . S
C115 C116 1.375 . S
C115 C119 1.532 . S
C116 H106 0.930 . S
C116 C115 1.375 . S
C116 C117 1.416 . S
C117 C116 1.416 . S
C117 C118 1.371 . S
C118 H107 0.930 . S
C118 C114 1.389 . S
C118 C117 1.371 . S
C119 H108 0.970 . S
C119 H109 0.970 . S
C119 C115 1.532 . S
C119 C120 1.499 . S
C120 C119 1.499 . S
C120 C121 1.370 . S
C120 C125 1.415 . S
C121 H110 0.930 . S
C121 C120 1.370 . S
C121 C122 1.407 . S
C122 C121 1.407 . S
C122 C123 1.365 . S
C123 H111 0.930 . S
C123 C122 1.365 . S
C123 C124 1.393 . S
C124 C123 1.393 . S
C124 C125 1.387 . S
C125 H112 0.930 . S
C125 C120 1.415 . S
C125 C124 1.387 . S
H126 C134 0.930 . S
H127 C137 0.930 . S
H128 C139 0.930 . S
H129 C140 0.970 . S
H130 C140 0.970 . S
H131 C142 0.930 . S
H132 C144 0.930 . S
H133 C146 0.930 . S
C134 H126 0.930 . S
C134 C135 1.382 . S
C134 C136 1.426 . S
C135 C134 1.382 . S
C135 C139 1.389 . S
C136 C134 1.426 . S
C136 C137 1.375 . S
C136 C140 1.532 . S
C137 H127 0.930 . S
C137 C136 1.375 . S
C137 C138 1.416 . S
C138 C137 1.416 . S
C138 C139 1.371 . S
C139 H128 0.930 . S
C139 C135 1.389 . S
C139 C138 1.371 . S
C140 H129 0.970 . S
C140 H130 0.970 . S
C140 C136 1.532 . S
C140 C141 1.499 . S
C141 C140 1.499 . S
C141 C142 1.370 . S
C141 C146 1.415 . S
C142 H131 0.930 . S
C142 C141 1.370 . S
C142 C143 1.407 . S
C143 C142 1.407 . S
C143 C144 1.365 . S
C144 H132 0.930 . S
C144 C143 1.365 . S
C144 C145 1.393 . S
C145 C144 1.393 . S
C145 C146 1.387 . S
C146 H133 0.930 . S
C146 C141 1.415 . S
C146 C145 1.387 . S
H147 C155 0.930 . S
H148 C158 0.930 . S
H149 C160 0.930 . S
H150 C161 0.970 . S
H151 C161 0.970 . S
H152 C163 0.930 . S
H153 C165 0.930 . S
H154 C167 0.930 . S
C155 H147 0.930 . S
C155 C156 1.382 . S
C155 C157 1.426 . S
C156 C155 1.382 . S
C156 C160 1.389 . S
C157 C155 1.426 . S
C157 C158 1.375 . S
C157 C161 1.532 . S
C158 H148 0.930 . S
C158 C157 1.375 . S
C158 C159 1.416 . S
C159 C158 1.416 . S
C159 C160 1.371 . S
C160 H149 0.930 . S
C160 C156 1.389 . S
C160 C159 1.371 . S
C161 H150 0.970 . S
C161 H151 0.970 . S
C161 C157 1.532 . S
C161 C162 1.499 . S
C162 C161 1.499 . S
C162 C163 1.370 . S
C162 C167 1.415 . S
C163 H152 0.930 . S
C163 C162 1.370 . S
C163 C164 1.407 . S
C164 C163 1.407 . S
C164 C165 1.365 . S
C165 H153 0.930 . S
C165 C164 1.365 . S
C165 C166 1.393 . S
C166 C165 1.393 . S
C166 C167 1.387 . S
C167 H154 0.930 . S
C167 C162 1.415 . S
C167 C166 1.387 . S
H168 C176 0.930 . S
H169 C179 0.930 . S
H170 C181 0.930 . S
H171 C182 0.970 . S
H172 C182 0.970 . S
H173 C184 0.930 . S
H174 C186 0.930 . S
H175 C188 0.930 . S
C176 H168 0.930 . S
C176 C177 1.382 . S
C176 C178 1.426 . S
C177 C176 1.382 . S
C177 C181 1.389 . S
C178 C176 1.426 . S
C178 C179 1.375 . S
C178 C182 1.532 . S
C179 H169 0.930 . S
C179 C178 1.375 . S
C179 C180 1.416 . S
C180 C179 1.416 . S
C180 C181 1.371 . S
C181 H170 0.930 . S
C181 C177 1.389 . S
C181 C180 1.371 . S
C182 H171 0.970 . S
C182 H172 0.970 . S
C182 C178 1.532 . S
C182 C183 1.499 . S
C183 C182 1.499 . S
C183 C184 1.370 . S
C183 C188 1.415 . S
C184 H173 0.930 . S
C184 C183 1.370 . S
C184 C185 1.407 . S
C185 C184 1.407 . S
C185 C186 1.365 . S
C186 H174 0.930 . S
C186 C185 1.365 . S
C186 C187 1.393 . S
C187 C186 1.393 . S
C187 C188 1.387 . S
C188 H175 0.930 . S
C188 C183 1.415 . S
C188 C187 1.387 . S
H189 C197 0.930 . S
H190 C200 0.930 . S
H191 C202 0.930 . S
H192 C203 0.970 . S
H193 C203 0.970 . S
H194 C205 0.930 . S
H195 C207 0.930 . S
H196 C209 0.930 . S
C197 H189 0.930 . S
C197 C198 1.382 . S
C197 C199 1.426 . S
C198 C197 1.382 . S
C198 C202 1.389 . S
C199 C197 1.426 . S
C199 C200 1.375 . S
C199 C203 1.532 . S
C200 H190 0.930 . S
C200 C199 1.375 . S
C200 C201 1.416 . S
C201 C200 1.416 . S
C201 C202 1.371 . S
C202 H191 0.930 . S
C202 C198 1.389 . S
C202 C201 1.371 . S
C203 H192 0.970 . S
C203 H193 0.970 . S
C203 C199 1.532 . S
C203 C204 1.499 . S
C204 C203 1.499 . S
C204 C205 1.370 . S
C204 C209 1.415 . S
C205 H194 0.930 . S
C205 C204 1.370 . S
C205 C206 1.407 . S
C206 C205 1.407 . S
C206 C207 1.365 . S
C207 H195 0.930 . S
C207 C206 1.365 . S
C207 C208 1.393 . S
C208 C207 1.393 . S
C208 C209 1.387 . S
C209 H196 0.930 . S
C209 C204 1.415 . S
C209 C208 1.387 . S
H210 C218 0.950 . S
H211 C223 0.950 . S
H212 C220 0.950 . S
H213 C222 0.950 . S
H214 C224 0.950 . S
H215 C226 0.950 . S
H216 C228 0.950 . S
H217 C229 0.950 . S
C218 H210 0.950 . S
C218 C219 1.386 . S
C218 C220 1.391 . S
C219 C218 1.386 . S
C219 C223 1.393 . S
C220 H212 0.950 . S
C220 C218 1.391 . S
C220 C221 1.400 . S
C221 C220 1.400 . S
C221 C222 1.398 . S
C221 C227 1.491 . S
C222 H213 0.950 . S
C222 C221 1.398 . S
C222 C223 1.391 . S
C223 H211 0.950 . S
C223 C219 1.393 . S
C223 C222 1.391 . S
C224 H214 0.950 . S
C224 C225 1.386 . S
C224 C226 1.391 . S
C225 C224 1.386 . S
C225 C229 1.393 . S
C226 H215 0.950 . S
C226 C224 1.391 . S
C226 C227 1.400 . S
C227 C221 1.491 . S
C227 C226 1.400 . S
C227 C228 1.398 . S
C228 H216 0.950 . S
C228 C227 1.398 . S
C228 C229 1.391 . S
C229 H217 0.950 . S
C229 C225 1.393 . S
C229 C228 1.391 . S
H230 C238 0.950 . S
H231 C243 0.950 . S
H232 C240 0.950 . S
H233 C242 0.950 . S
H234 C244 0.950 . S
H235 C246 0.950 . S
H236 C248 0.950 . S
H237 C249 0.950 . S
C238 H230 0.950 . S
C238 C239 1.386 . S
C238 C240 1.391 . S
C239 C238 1.386 . S
C239 C243 1.393 . S
C240 H232 0.950 . S
C240 C238 1.391 . S
C240 C241 1.400 . S
C241 C240 1.400 . S
C241 C242 1.398 . S
C241 C247 1.491 . S
C242 H233 0.950 . S
C242 C241 1.398 . S
C242 C243 1.391 . S
C243 H231 0.950 . S
C243 C239 1.393 . S
C243 C242 1.391 . S
C244 H234 0.950 . S
C244 C245 1.386 . S
C244 C246 1.391 . S
C245 C244 1.386 . S
C245 C249 1.393 . S
C246 H235 0.950 . S
C246 C244 1.391 . S
C246 C247 1.400 . S
C247 C241 1.491 . S
C247 C246 1.400 . S
C247 C248 1.398 . S
C248 H236 0.950 . S
C248 C247 1.398 . S
C248 C249 1.391 . S
C249 H237 0.950 . S
C249 C245 1.393 . S
C249 C248 1.391 . S
H250 C258 0.950 . S
H251 C263 0.950 . S
H252 C260 0.950 . S
H253 C262 0.950 . S
H254 C264 0.950 . S
H255 C266 0.950 . S
H256 C268 0.950 . S
H257 C269 0.950 . S
C258 H250 0.950 . S
C258 C259 1.386 . S
C258 C260 1.391 . S
C259 C258 1.386 . S
C259 C263 1.393 . S
C260 H252 0.950 . S
C260 C258 1.391 . S
C260 C261 1.400 . S
C261 C260 1.400 . S
C261 C262 1.398 . S
C261 C267 1.491 . S
C262 H253 0.950 . S
C262 C261 1.398 . S
C262 C263 1.391 . S
C263 H251 0.950 . S
C263 C259 1.393 . S
C263 C262 1.391 . S
C264 H254 0.950 . S
C264 C265 1.386 . S
C264 C266 1.391 . S
C265 C264 1.386 . S
C265 C269 1.393 . S
C266 H255 0.950 . S
C266 C264 1.391 . S
C266 C267 1.400 . S
C267 C261 1.491 . S
C267 C266 1.400 . S
C267 C268 1.398 . S
C268 H256 0.950 . S
C268 C267 1.398 . S
C268 C269 1.391 . S
C269 H257 0.950 . S
C269 C265 1.393 . S
C269 C268 1.391 . S
H270 C278 0.950 . S
H271 C283 0.950 . S
H272 C280 0.950 . S
H273 C282 0.950 . S
H274 C284 0.950 . S
H275 C286 0.950 . S
H276 C288 0.950 . S
H277 C289 0.950 . S
C278 H270 0.950 . S
C278 C279 1.386 . S
C278 C280 1.391 . S
C279 C278 1.386 . S
C279 C283 1.393 . S
C280 H272 0.950 . S
C280 C278 1.391 . S
C280 C281 1.400 . S
C281 C280 1.400 . S
C281 C282 1.398 . S
C281 C287 1.491 . S
C282 H273 0.950 . S
C282 C281 1.398 . S
C282 C283 1.391 . S
C283 H271 0.950 . S
C283 C279 1.393 . S
C283 C282 1.391 . S
C284 H274 0.950 . S
C284 C285 1.386 . S
C284 C286 1.391 . S
C285 C284 1.386 . S
C285 C289 1.393 . S
C286 H275 0.950 . S
C286 C284 1.391 . S
C286 C287 1.400 . S
C287 C281 1.491 . S
C287 C286 1.400 . S
C287 C288 1.398 . S
C288 H276 0.950 . S
C288 C287 1.398 . S
C288 C289 1.391 . S
C289 H277 0.950 . S
C289 C285 1.393 . S
C289 C288 1.391 . S
H290 C298 0.950 . S
H291 C303 0.950 . S
H292 C300 0.950 . S
H293 C302 0.950 . S
H294 C304 0.950 . S
H295 C306 0.950 . S
H296 C308 0.950 . S
H297 C309 0.950 . S
C298 H290 0.950 . S
C298 C299 1.386 . S
C298 C300 1.391 . S
C299 C298 1.386 . S
C299 C303 1.393 . S
C300 H292 0.950 . S
C300 C298 1.391 . S
C300 C301 1.400 . S
C301 C300 1.400 . S
C301 C302 1.398 . S
C301 C307 1.491 . S
C302 H293 0.950 . S
C302 C301 1.398 . S
C302 C303 1.391 . S
C303 H291 0.950 . S
C303 C299 1.393 . S
C303 C302 1.391 . S
C304 H294 0.950 . S
C304 C305 1.386 . S
C304 C306 1.391 . S
C305 C304 1.386 . S
C305 C309 1.393 . S
C306 H295 0.950 . S
C306 C304 1.391 . S
C306 C307 1.400 . S
C307 C301 1.491 . S
C307 C306 1.400 . S
C307 C308 1.398 . S
C308 H296 0.950 . S
C308 C307 1.398 . S
C308 C309 1.391 . S
C309 H297 0.950 . S
C309 C305 1.393 . S
C309 C308 1.391 . S
H310 C318 0.950 . S
H311 C323 0.950 . S
H312 C320 0.950 . S
H313 C322 0.950 . S
H314 C324 0.950 . S
H315 C326 0.950 . S
H316 C328 0.950 . S
H317 C329 0.950 . S
C318 H310 0.950 . S
C318 C319 1.386 . S
C318 C320 1.391 . S
C319 C318 1.386 . S
C319 C323 1.393 . S
C320 H312 0.950 . S
C320 C318 1.391 . S
C320 C321 1.400 . S
C321 C320 1.400 . S
C321 C322 1.398 . S
C321 C327 1.491 . S
C322 H313 0.950 . S
C322 C321 1.398 . S
C322 C323 1.391 . S
C323 H311 0.950 . S
C323 C319 1.393 . S
C323 C322 1.391 . S
C324 H314 0.950 . S
C324 C325 1.386 . S
C324 C326 1.391 . S
C325 C324 1.386 . S
C325 C329 1.393 . S
C326 H315 0.950 . S
C326 C324 1.391 . S
C326 C327 1.400 . S
C327 C321 1.491 . S
C327 C326 1.400 . S
C327 C328 1.398 . S
C328 H316 0.950 . S
C328 C327 1.398 . S
C328 C329 1.391 . S
C329 H317 0.950 . S
C329 C325 1.393 . S
C329 C328 1.391 . S
H330 C338 0.950 . S
H331 C343 0.950 . S
H332 C340 0.950 . S
H333 C342 0.950 . S
H334 C344 0.950 . S
H335 C346 0.950 . S
H336 C348 0.950 . S
H337 C349 0.950 . S
C338 H330 0.950 . S
C338 C339 1.386 . S
C338 C340 1.391 . S
C339 C338 1.386 . S
C339 C343 1.393 . S
C340 H332 0.950 . S
C340 C338 1.391 . S
C340 C341 1.400 . S
C341 C340 1.400 . S
C341 C342 1.398 . S
C341 C347 1.491 . S
C342 H333 0.950 . S
C342 C341 1.398 . S
C342 C343 1.391 . S
C343 H331 0.950 . S
C343 C339 1.393 . S
C343 C342 1.391 . S
C344 H334 0.950 . S
C344 C345 1.386 . S
C344 C346 1.391 . S
C345 C344 1.386 . S
C345 C349 1.393 . S
C346 H335 0.950 . S
C346 C344 1.391 . S
C346 C347 1.400 . S
C347 C341 1.491 . S
C347 C346 1.400 . S
C347 C348 1.398 . S
C348 H336 0.950 . S
C348 C347 1.398 . S
C348 C349 1.391 . S
C349 H337 0.950 . S
C349 C345 1.393 . S
C349 C348 1.391 . S
H350 C358 0.950 . S
H351 C363 0.950 . S
H352 C360 0.950 . S
H353 C362 0.950 . S
H354 C364 0.950 . S
H355 C366 0.950 . S
H356 C368 0.950 . S
H357 C369 0.950 . S
C358 H350 0.950 . S
C358 C359 1.386 . S
C358 C360 1.391 . S
C359 C358 1.386 . S
C359 C363 1.393 . S
C360 H352 0.950 . S
C360 C358 1.391 . S
C360 C361 1.400 . S
C361 C360 1.400 . S
C361 C362 1.398 . S
C361 C367 1.491 . S
C362 H353 0.950 . S
C362 C361 1.398 . S
C362 C363 1.391 . S
C363 H351 0.950 . S
C363 C359 1.393 . S
C363 C362 1.391 . S
C364 H354 0.950 . S
C364 C365 1.386 . S
C364 C366 1.391 . S
C365 C364 1.386 . S
C365 C369 1.393 . S
C366 H355 0.950 . S
C366 C364 1.391 . S
C366 C367 1.400 . S
C367 C361 1.491 . S
C367 C366 1.400 . S
C367 C368 1.398 . S
C368 H356 0.950 . S
C368 C367 1.398 . S
C368 C369 1.391 . S
C369 H357 0.950 . S
C369 C365 1.393 . S
C369 C368 1.391 . S
H370 C378 0.950 . S
H371 C383 0.950 . S
H372 C380 0.950 . S
H373 C382 0.950 . S
H374 C384 0.950 . S
H375 C386 0.950 . S
H376 C388 0.950 . S
H377 C389 0.950 . S
C378 H370 0.950 . S
C378 C379 1.386 . S
C378 C380 1.391 . S
C379 C378 1.386 . S
C379 C383 1.393 . S
C380 H372 0.950 . S
C380 C378 1.391 . S
C380 C381 1.400 . S
C381 C380 1.400 . S
C381 C382 1.398 . S
C381 C387 1.491 . S
C382 H373 0.950 . S
C382 C381 1.398 . S
C382 C383 1.391 . S
C383 H371 0.950 . S
C383 C379 1.393 . S
C383 C382 1.391 . S
C384 H374 0.950 . S
C384 C385 1.386 . S
C384 C386 1.391 . S
C385 C384 1.386 . S
C385 C389 1.393 . S
C386 H375 0.950 . S
C386 C384 1.391 . S
C386 C387 1.400 . S
C387 C381 1.491 . S
C387 C386 1.400 . S
C387 C388 1.398 . S
C388 H376 0.950 . S
C388 C387 1.398 . S
C388 C389 1.391 . S
C389 H377 0.950 . S
C389 C385 1.393 . S
C389 C388 1.391 . S
H390 C398 0.950 . S
H391 C403 0.950 . S
H392 C400 0.950 . S
H393 C402 0.950 . S
H394 C404 0.950 . S
H395 C406 0.950 . S
H396 C408 0.950 . S
H397 C409 0.950 . S
C398 H390 0.950 . S
C398 C399 1.386 . S
C398 C400 1.391 . S
C399 C398 1.386 . S
C399 C403 1.393 . S
C400 H392 0.950 . S
C400 C398 1.391 . S
C400 C401 1.400 . S
C401 C400 1.400 . S
C401 C402 1.398 . S
C401 C407 1.491 . S
C402 H393 0.950 . S
C402 C401 1.398 . S
C402 C403 1.391 . S
C403 H391 0.950 . S
C403 C399 1.393 . S
C403 C402 1.391 . S
C404 H394 0.950 . S
C404 C405 1.386 . S
C404 C406 1.391 . S
C405 C404 1.386 . S
C405 C409 1.393 . S
C406 H395 0.950 . S
C406 C404 1.391 . S
C406 C407 1.400 . S
C407 C401 1.491 . S
C407 C406 1.400 . S
C407 C408 1.398 . S
C408 H396 0.950 . S
C408 C407 1.398 . S
C408 C409 1.391 . S
C409 H397 0.950 . S
C409 C405 1.393 . S
C409 C408 1.391 . S
H410 C418 0.950 . S
H411 C423 0.950 . S
H412 C420 0.950 . S
H413 C422 0.950 . S
H414 C424 0.950 . S
H415 C426 0.950 . S
H416 C428 0.950 . S
H417 C429 0.950 . S
C418 H410 0.950 . S
C418 C419 1.386 . S
C418 C420 1.391 . S
C419 C418 1.386 . S
C419 C423 1.393 . S
C420 H412 0.950 . S
C420 C418 1.391 . S
C420 C421 1.400 . S
C421 C420 1.400 . S
C421 C422 1.398 . S
C421 C427 1.491 . S
C422 H413 0.950 . S
C422 C421 1.398 . S
C422 C423 1.391 . S
C423 H411 0.950 . S
C423 C419 1.393 . S
C423 C422 1.391 . S
C424 H414 0.950 . S
C424 C425 1.386 . S
C424 C426 1.391 . S
C425 C424 1.386 . S
C425 C429 1.393 . S
C426 H415 0.950 . S
C426 C424 1.391 . S
C426 C427 1.400 . S
C427 C421 1.491 . S
C427 C426 1.400 . S
C427 C428 1.398 . S
C428 H416 0.950 . S
C428 C427 1.398 . S
C428 C429 1.391 . S
C429 H417 0.950 . S
C429 C425 1.393 . S
C429 C428 1.391 . S
H430 C438 0.943 1_554 S
H431 C443 0.950 . S
H432 C440 0.950 . S
H433 C442 0.950 . S
H434 C444 0.950 . S
H435 C446 0.950 . S
H436 C448 0.950 . S
H437 C449 0.950 . S
C438 H430 0.943 1_556 S
C438 C439 1.386 . S
C438 C440 1.391 . S
C439 C438 1.386 . S
C439 C443 1.393 . S
C440 H432 0.950 . S
C440 C438 1.391 . S
C440 C441 1.400 . S
C441 C440 1.400 . S
C441 C442 1.398 . S
C441 C447 1.491 . S
C442 H433 0.950 . S
C442 C441 1.398 . S
C442 C443 1.391 . S
C443 H431 0.950 . S
C443 C439 1.393 . S
C443 C442 1.391 . S
C444 H434 0.950 . S
C444 C445 1.386 . S
C444 C446 1.391 . S
C445 C444 1.386 . S
C445 C449 1.393 . S
C446 H435 0.950 . S
C446 C444 1.391 . S
C446 C447 1.400 . S
C447 C441 1.491 . S
C447 C446 1.400 . S
C447 C448 1.398 . S
C448 H436 0.950 . S
C448 C447 1.398 . S
C448 C449 1.391 . S
C449 H437 0.950 . S
C449 C445 1.393 . S
C449 C448 1.391 . S
H450 C458 0.950 . S
H451 C463 0.950 . S
H452 C460 0.950 . S
H453 C462 0.950 . S
H454 C464 0.950 . S
H455 C466 0.950 . S
H456 C468 0.950 . S
H457 C469 0.950 . S
C458 H450 0.950 . S
C458 C459 1.386 . S
C458 C460 1.391 . S
C459 C458 1.386 . S
C459 C463 1.393 . S
C460 H452 0.950 . S
C460 C458 1.391 . S
C460 C461 1.400 . S
C461 C460 1.400 . S
C461 C462 1.398 . S
C461 C467 1.491 . S
C462 H453 0.950 . S
C462 C461 1.398 . S
C462 C463 1.391 . S
C463 H451 0.950 . S
C463 C459 1.393 . S
C463 C462 1.391 . S
C464 H454 0.950 . S
C464 C465 1.386 . S
C464 C466 1.391 . S
C465 C464 1.386 . S
C465 C469 1.393 . S
C466 H455 0.950 . S
C466 C464 1.391 . S
C466 C467 1.400 . S
C467 C461 1.491 . S
C467 C466 1.400 . S
C467 C468 1.398 . S
C468 H456 0.950 . S
C468 C467 1.398 . S
C468 C469 1.391 . S
C469 H457 0.950 . S
C469 C465 1.393 . S
C469 C468 1.391 . S
H470 C478 0.950 . S
H471 C483 0.950 . S
H472 C480 0.950 . S
H473 C482 0.950 . S
H474 C484 0.950 . S
H475 C486 0.950 . S
H476 C488 0.950 . S
H477 C489 0.950 . S
C478 H470 0.950 . S
C478 C479 1.386 . S
C478 C480 1.391 . S
C479 C478 1.386 . S
C479 C483 1.393 . S
C480 H472 0.950 . S
C480 C478 1.391 . S
C480 C481 1.400 . S
C481 C480 1.400 . S
C481 C482 1.398 . S
C481 C487 1.491 . S
C482 H473 0.950 . S
C482 C481 1.398 . S
C482 C483 1.391 . S
C483 H471 0.950 . S
C483 C479 1.393 . S
C483 C482 1.391 . S
C484 H474 0.950 . S
C484 C485 1.386 . S
C484 C486 1.391 . S
C485 C484 1.386 . S
C485 C489 1.393 . S
C486 H475 0.950 . S
C486 C484 1.391 . S
C486 C487 1.400 . S
C487 C481 1.491 . S
C487 C486 1.400 . S
C487 C488 1.398 . S
C488 H476 0.950 . S
C488 C487 1.398 . S
C488 C489 1.391 . S
C489 H477 0.950 . S
C489 C485 1.393 . S
C489 C488 1.391 . S
H490 C498 0.950 . S
H491 C503 0.950 . S
H492 C500 0.950 . S
H493 C502 0.950 . S
H494 C504 0.950 . S
H495 C506 0.950 . S
H496 C508 0.950 . S
H497 C509 0.950 . S
C498 H490 0.950 . S
C498 C499 1.386 . S
C498 C500 1.391 . S
C499 C498 1.386 . S
C499 C503 1.393 . S
C500 H492 0.950 . S
C500 C498 1.391 . S
C500 C501 1.400 . S
C501 C500 1.400 . S
C501 C502 1.398 . S
C501 C507 1.491 . S
C502 H493 0.950 . S
C502 C501 1.398 . S
C502 C503 1.391 . S
C503 H491 0.950 . S
C503 C499 1.393 . S
C503 C502 1.391 . S
C504 H494 0.950 . S
C504 C505 1.386 . S
C504 C506 1.391 . S
C505 C504 1.386 . S
C505 C509 1.393 . S
C506 H495 0.950 . S
C506 C504 1.391 . S
C506 C507 1.400 . S
C507 C501 1.491 . S
C507 C506 1.400 . S
C507 C508 1.398 . S
C508 H496 0.950 . S
C508 C507 1.398 . S
C508 C509 1.391 . S
C509 H497 0.950 . S
C509 C505 1.393 . S
C509 C508 1.391 . S
H510 C518 0.950 . S
H511 C523 0.950 . S
H512 C520 0.950 . S
H513 C522 0.950 . S
H514 C524 0.950 . S
H515 C526 0.950 . S
H516 C528 0.950 . S
H517 C529 0.950 . S
C518 H510 0.950 . S
C518 C519 1.386 . S
C518 C520 1.391 . S
C519 C518 1.386 . S
C519 C523 1.393 . S
C520 H512 0.950 . S
C520 C518 1.391 . S
C520 C521 1.400 . S
C521 C520 1.400 . S
C521 C522 1.398 . S
C521 C527 1.491 . S
C522 H513 0.950 . S
C522 C521 1.398 . S
C522 C523 1.391 . S
C523 H511 0.950 . S
C523 C519 1.393 . S
C523 C522 1.391 . S
C524 H514 0.950 . S
C524 C525 1.386 . S
C524 C526 1.391 . S
C525 C524 1.386 . S
C525 C529 1.393 . S
C526 H515 0.950 . S
C526 C524 1.391 . S
C526 C527 1.400 . S
C527 C521 1.491 . S
C527 C526 1.400 . S
C527 C528 1.398 . S
C528 H516 0.950 . S
C528 C527 1.398 . S
C528 C529 1.391 . S
C529 H517 0.950 . S
C529 C525 1.393 . S
C529 C528 1.391 . S
H530 C538 0.950 . S
H531 C543 0.950 . S
H532 C540 0.950 . S
H533 C542 0.950 . S
H534 C544 0.950 . S
H535 C546 0.950 . S
H536 C548 0.950 . S
H537 C549 0.950 . S
C538 H530 0.950 . S
C538 C539 1.386 . S
C538 C540 1.391 . S
C539 C538 1.386 . S
C539 C543 1.393 . S
C540 H532 0.950 . S
C540 C538 1.391 . S
C540 C541 1.400 . S
C541 C540 1.400 . S
C541 C542 1.398 . S
C541 C547 1.491 . S
C542 H533 0.950 . S
C542 C541 1.398 . S
C542 C543 1.391 . S
C543 H531 0.950 . S
C543 C539 1.393 . S
C543 C542 1.391 . S
C544 H534 0.950 . S
C544 C545 1.386 . S
C544 C546 1.391 . S
C545 C544 1.386 . S
C545 C549 1.393 . S
C546 H535 0.950 . S
C546 C544 1.391 . S
C546 C547 1.400 . S
C547 C541 1.491 . S
C547 C546 1.400 . S
C547 C548 1.398 . S
C548 H536 0.950 . S
C548 C547 1.398 . S
C548 C549 1.391 . S
C549 H537 0.950 . S
C549 C545 1.393 . S
C549 C548 1.391 . S
H550 C558 0.950 . S
H551 C563 0.950 . S
H552 C560 0.950 . S
H553 C562 0.950 . S
H554 C564 0.950 . S
H555 C566 0.950 . S
H556 C568 0.950 . S
H557 C569 0.950 . S
C558 H550 0.950 . S
C558 C559 1.386 . S
C558 C560 1.391 . S
C559 C558 1.386 . S
C559 C563 1.393 . S
C560 H552 0.950 . S
C560 C558 1.391 . S
C560 C561 1.400 . S
C561 C560 1.400 . S
C561 C562 1.398 . S
C561 C567 1.491 . S
C562 H553 0.950 . S
C562 C561 1.398 . S
C562 C563 1.391 . S
C563 H551 0.950 . S
C563 C559 1.393 . S
C563 C562 1.391 . S
C564 H554 0.950 . S
C564 C565 1.386 . S
C564 C566 1.391 . S
C565 C564 1.386 . S
C565 C569 1.393 . S
C566 H555 0.950 . S
C566 C564 1.391 . S
C566 C567 1.400 . S
C567 C561 1.491 . S
C567 C566 1.400 . S
C567 C568 1.398 . S
C568 H556 0.950 . S
C568 C567 1.398 . S
C568 C569 1.391 . S
C569 H557 0.950 . S
C569 C565 1.393 . S
C569 C568 1.391 . S
H570 C578 0.950 . S
H571 C583 0.950 . S
H572 C580 0.950 . S
H573 C582 0.950 . S
H574 C584 0.950 . S
H575 C586 0.950 . S
H576 C588 0.950 . S
H577 C589 0.950 . S
C578 H570 0.950 . S
C578 C579 1.386 . S
C578 C580 1.391 . S
C579 C578 1.386 . S
C579 C583 1.393 . S
C580 H572 0.950 . S
C580 C578 1.391 . S
C580 C581 1.400 . S
C581 C580 1.400 . S
C581 C582 1.398 . S
C581 C587 1.491 . S
C582 H573 0.950 . S
C582 C581 1.398 . S
C582 C583 1.391 . S
C583 H571 0.950 . S
C583 C579 1.393 . S
C583 C582 1.391 . S
C584 H574 0.950 . S
C584 C585 1.386 . S
C584 C586 1.391 . S
C585 C584 1.386 . S
C585 C589 1.393 . S
C586 H575 0.950 . S
C586 C584 1.391 . S
C586 C587 1.400 . S
C587 C581 1.491 . S
C587 C586 1.400 . S
C587 C588 1.398 . S
C588 H576 0.950 . S
C588 C587 1.398 . S
C588 C589 1.391 . S
C589 H577 0.950 . S
C589 C585 1.393 . S
C589 C588 1.391 . S
H590 C598 0.950 . S
H591 C603 0.950 . S
H592 C600 0.950 . S
H593 C602 0.950 . S
H594 C604 0.950 . S
H595 C606 0.950 . S
H596 C608 0.950 . S
H597 C609 0.950 . S
C598 H590 0.950 . S
C598 C599 1.386 . S
C598 C600 1.391 . S
C599 C598 1.386 . S
C599 C603 1.393 . S
C600 H592 0.950 . S
C600 C598 1.391 . S
C600 C601 1.400 . S
C601 C600 1.400 . S
C601 C602 1.398 . S
C601 C607 1.491 . S
C602 H593 0.950 . S
C602 C601 1.398 . S
C602 C603 1.391 . S
C603 H591 0.950 . S
C603 C599 1.393 . S
C603 C602 1.391 . S
C604 H594 0.950 . S
C604 C605 1.386 . S
C604 C606 1.391 . S
C605 C604 1.386 . S
C605 C609 1.393 . S
C606 H595 0.950 . S
C606 C604 1.391 . S
C606 C607 1.400 . S
C607 C601 1.491 . S
C607 C606 1.400 . S
C607 C608 1.398 . S
C608 H596 0.950 . S
C608 C607 1.398 . S
C608 C609 1.391 . S
C609 H597 0.950 . S
C609 C605 1.393 . S
C609 C608 1.391 . S
H610 C618 0.950 . S
H611 C623 0.950 . S
H612 C620 0.950 . S
H613 C622 0.950 . S
H614 C624 0.950 . S
H615 C626 0.950 . S
H616 C628 0.950 . S
H617 C629 0.950 . S
C618 H610 0.950 . S
C618 C619 1.386 . S
C618 C620 1.391 . S
C619 C618 1.386 . S
C619 C623 1.393 . S
C620 H612 0.950 . S
C620 C618 1.391 . S
C620 C621 1.400 . S
C621 C620 1.400 . S
C621 C622 1.398 . S
C621 C627 1.491 . S
C622 H613 0.950 . S
C622 C621 1.398 . S
C622 C623 1.391 . S
C623 H611 0.950 . S
C623 C619 1.393 . S
C623 C622 1.391 . S
C624 H614 0.950 . S
C624 C625 1.386 . S
C624 C626 1.391 . S
C625 C624 1.386 . S
C625 C629 1.393 . S
C626 H615 0.950 . S
C626 C624 1.391 . S
C626 C627 1.400 . S
C627 C621 1.491 . S
C627 C626 1.400 . S
C627 C628 1.398 . S
C628 H616 0.950 . S
C628 C627 1.398 . S
C628 C629 1.391 . S
C629 H617 0.950 . S
C629 C625 1.393 . S
C629 C628 1.391 . S
H630 C638 0.950 . S
H631 C643 0.950 . S
H632 C640 0.950 . S
H633 C642 0.950 . S
H634 C644 0.950 . S
H635 C646 0.950 . S
H636 C648 0.950 . S
H637 C649 0.950 . S
C638 H630 0.950 . S
C638 C639 1.386 . S
C638 C640 1.391 . S
C639 C638 1.386 . S
C639 C643 1.393 . S
C640 H632 0.950 . S
C640 C638 1.391 . S
C640 C641 1.400 . S
C641 C640 1.400 . S
C641 C642 1.398 . S
C641 C647 1.491 . S
C642 H633 0.950 . S
C642 C641 1.398 . S
C642 C643 1.391 . S
C643 H631 0.950 . S
C643 C639 1.393 . S
C643 C642 1.391 . S
C644 H634 0.950 . S
C644 C645 1.386 . S
C644 C646 1.391 . S
C645 C644 1.386 . S
C645 C649 1.393 . S
C646 H635 0.950 . S
C646 C644 1.391 . S
C646 C647 1.400 . S
C647 C641 1.491 . S
C647 C646 1.400 . S
C647 C648 1.398 . S
C648 H636 0.950 . S
C648 C647 1.398 . S
C648 C649 1.391 . S
C649 H637 0.950 . S
C649 C645 1.393 . S
C649 C648 1.391 . S
H650 C658 0.950 . S
H651 C663 0.950 . S
H652 C660 0.950 . S
H653 C662 0.950 . S
H654 C664 0.950 . S
H655 C666 0.950 . S
H656 C668 0.950 . S
H657 C669 0.950 . S
C658 H650 0.950 . S
C658 C659 1.386 . S
C658 C660 1.391 . S
C659 C658 1.386 . S
C659 C663 1.393 . S
C660 H652 0.950 . S
C660 C658 1.391 . S
C660 C661 1.400 . S
C661 C660 1.400 . S
C661 C662 1.398 . S
C661 C667 1.491 . S
C662 H653 0.950 . S
C662 C661 1.398 . S
C662 C663 1.391 . S
C663 H651 0.950 . S
C663 C659 1.393 . S
C663 C662 1.391 . S
C664 H654 0.950 . S
C664 C665 1.386 . S
C664 C666 1.391 . S
C665 C664 1.386 . S
C665 C669 1.393 . S
C666 H655 0.950 . S
C666 C664 1.391 . S
C666 C667 1.400 . S
C667 C661 1.491 . S
C667 C666 1.400 . S
C667 C668 1.398 . S
C668 H656 0.950 . S
C668 C667 1.398 . S
C668 C669 1.391 . S
C669 H657 0.950 . S
C669 C665 1.393 . S
C669 C668 1.391 . S
H670 C678 0.950 . S
H671 C683 0.950 . S
H672 C680 0.950 . S
H673 C682 0.950 . S
H674 C684 0.950 . S
H675 C686 0.950 . S
H676 C688 0.950 . S
H677 C689 0.950 . S
C678 H670 0.950 . S
C678 C679 1.386 . S
C678 C680 1.391 . S
C679 C678 1.386 . S
C679 C683 1.393 . S
C680 H672 0.950 . S
C680 C678 1.391 . S
C680 C681 1.400 . S
C681 C680 1.400 . S
C681 C682 1.398 . S
C681 C687 1.491 . S
C682 H673 0.950 . S
C682 C681 1.398 . S
C682 C683 1.391 . S
C683 H671 0.950 . S
C683 C679 1.393 . S
C683 C682 1.391 . S
C684 H674 0.950 . S
C684 C685 1.386 . S
C684 C686 1.391 . S
C685 C684 1.386 . S
C685 C689 1.393 . S
C686 H675 0.950 . S
C686 C684 1.391 . S
C686 C687 1.400 . S
C687 C681 1.491 . S
C687 C686 1.400 . S
C687 C688 1.398 . S
C688 H676 0.950 . S
C688 C687 1.398 . S
C688 C689 1.391 . S
C689 H677 0.950 . S
C689 C685 1.393 . S
C689 C688 1.391 . S
C219 C13 1.586 . S
C225 C93 1.447 . S
C239 C27 1.618 . S
C245 C114 1.468 . S
C265 C135 1.434 . S
C259 C29 1.590 . S
C285 C164 1.563 . S
C279 C54 1.633 . S
C305 C177 1.434 . S
C299 C69 1.582 . S
C325 C201 1.527 . S
C319 C83 1.618 . S
C339 C15 1.578 . S
C345 C145 1.450 . S
C359 C41 1.625 . S
C365 C159 1.529 . S
C385 C187 1.425 . S
C379 C42 1.576 . S
C405 C206 1.543 . S
C399 C57 1.629 . S
C419 C71 1.578 . S
C425 C103 1.426 . S
C445 C124 1.490 . S
C439 C1 1.621 . S
C465 C166 1.541 . S
C459 C12 1.605 . S
C479 C26 1.663 . S
C485 C180 1.465 . S
C505 C198 1.538 . S
C499 C28 1.624 . S
C519 C55 1.657 . S
C525 C96 1.438 . S
C539 C68 1.625 . S
C545 C117 1.440 . S
C559 C82 1.660 . S
C565 C138 1.457 . S
C579 C14 1.609 . S
C585 C208 1.529 . S
C605 C101 1.481 . S
C599 C40 1.657 . S
C619 C43 1.623 . S
C625 C122 1.452 . S
C639 C56 1.667 . S
C645 C143 1.502 . S
C659 C70 1.620 . S
C665 C156 1.535 . S
C679 C0 1.655 . S
C685 C185 1.462 . S
