# Generated by pormake.
# Topology apo, (3,6)-cn, num edge types: 1
# Building blocks:
#     Node 0, Type 0, BuildingBlock: VETTIZ_charged_linker_0, # of connection points: 3
#     Node 1, Type 0, BuildingBlock: VETTIZ_charged_linker_0, # of connection points: 3
#     Node 2, Type 0, BuildingBlock: VETTIZ_charged_linker_0, # of connection points: 3
#     Node 3, Type 0, BuildingBlock: VETTIZ_charged_linker_0, # of connection points: 3
#     Node 4, Type 0, BuildingBlock: VETTIZ_charged_linker_0, # of connection points: 3
#     Node 5, Type 0, BuildingBlock: VETTIZ_charged_linker_0, # of connection points: 3
#     Node 6, Type 0, BuildingBlock: VETTIZ_charged_linker_0, # of connection points: 3
#     Node 7, Type 0, BuildingBlock: VETTIZ_charged_linker_0, # of connection points: 3
#     Node 8, Type 1, BuildingBlock: MIDCAF_clean_sbu_0, # of connection points: 6
#     Node 9, Type 1, BuildingBlock: MIDCAF_clean_sbu_0, # of connection points: 6
#     Node 10, Type 1, BuildingBlock: MIDCAF_clean_sbu_0, # of connection points: 6
#     Node 11, Type 1, BuildingBlock: MIDCAF_clean_sbu_0, # of connection points: 6
#     Edge 12, Type (0, 1), BuildingBlock: TEMPAE_clean_linker_10, # of connection points: 2
#     Edge 13, Type (0, 1), BuildingBlock: TEMPAE_clean_linker_10, # of connection points: 2
#     Edge 14, Type (0, 1), BuildingBlock: TEMPAE_clean_linker_10, # of connection points: 2
#     Edge 15, Type (0, 1), BuildingBlock: TEMPAE_clean_linker_10, # of connection points: 2
#     Edge 16, Type (0, 1), BuildingBlock: TEMPAE_clean_linker_10, # of connection points: 2
#     Edge 17, Type (0, 1), BuildingBlock: TEMPAE_clean_linker_10, # of connection points: 2
#     Edge 18, Type (0, 1), BuildingBlock: TEMPAE_clean_linker_10, # of connection points: 2
#     Edge 19, Type (0, 1), BuildingBlock: TEMPAE_clean_linker_10, # of connection points: 2
#     Edge 20, Type (0, 1), BuildingBlock: TEMPAE_clean_linker_10, # of connection points: 2
#     Edge 21, Type (0, 1), BuildingBlock: TEMPAE_clean_linker_10, # of connection points: 2
#     Edge 22, Type (0, 1), BuildingBlock: TEMPAE_clean_linker_10, # of connection points: 2
#     Edge 23, Type (0, 1), BuildingBlock: TEMPAE_clean_linker_10, # of connection points: 2
#     Edge 24, Type (0, 1), BuildingBlock: TEMPAE_clean_linker_10, # of connection points: 2
#     Edge 25, Type (0, 1), BuildingBlock: TEMPAE_clean_linker_10, # of connection points: 2
#     Edge 26, Type (0, 1), BuildingBlock: TEMPAE_clean_linker_10, # of connection points: 2
#     Edge 27, Type (0, 1), BuildingBlock: TEMPAE_clean_linker_10, # of connection points: 2
#     Edge 28, Type (0, 1), BuildingBlock: TEMPAE_clean_linker_10, # of connection points: 2
#     Edge 29, Type (0, 1), BuildingBlock: TEMPAE_clean_linker_10, # of connection points: 2
#     Edge 30, Type (0, 1), BuildingBlock: TEMPAE_clean_linker_10, # of connection points: 2
#     Edge 31, Type (0, 1), BuildingBlock: TEMPAE_clean_linker_10, # of connection points: 2
#     Edge 32, Type (0, 1), BuildingBlock: TEMPAE_clean_linker_10, # of connection points: 2
#     Edge 33, Type (0, 1), BuildingBlock: TEMPAE_clean_linker_10, # of connection points: 2
#     Edge 34, Type (0, 1), BuildingBlock: TEMPAE_clean_linker_10, # of connection points: 2
#     Edge 35, Type (0, 1), BuildingBlock: TEMPAE_clean_linker_10, # of connection points: 2
# Relax obj value: 0.090
# Max RMSD: 0.101
# Mean RMSD: 0.093
data_MOF--net-apo--node1-MIDCAF_clean_sbu_0--node2-VETTIZ_charged_linker_0--edge1-TEMPAE_clean_linker_10
_symmetry_space_group_name_H-M    P1
_symmetry_Int_Tables_number       1
_symmetry_cell_setting            triclinic
loop_
_symmetry_equiv_pos_as_xyz
'x, y, z'
_cell_length_a     42.560632
_cell_length_b     50.875215
_cell_length_c     45.656473
_cell_angle_alpha  89.960661
_cell_angle_beta   89.988136
_cell_angle_gamma 90.188079
loop_
_atom_site_label
_atom_site_type_symbol
_atom_site_fract_x
_atom_site_fract_y
_atom_site_fract_z
_atom_type_partial_charge
C0 C 0.34623 0.3156 0.50158 0.0
C1 C 0.3646 0.33222 0.51948 0.0
C2 C 0.37673 0.35567 0.50725 0.0
C3 C 0.35588 0.34409 0.45971 0.0
C4 C 0.34198 0.32206 0.47188 0.0
C5 C 0.32271 0.3071 0.44969 0.0
H6 H 0.2703 0.29604 0.30969 0.0
C7 C 0.34887 0.34439 0.42806 0.0
C8 C 0.32911 0.32294 0.422 0.0
H9 H 0.24237 0.25033 0.38524 0.0
H10 H 0.27946 0.27403 0.41538 0.0
H11 H 0.27261 0.35191 0.34222 0.0
H12 H 0.34392 0.29467 0.32317 0.0
H13 H 0.36252 0.32547 0.32137 0.0
H14 H 0.33107 0.31784 0.29613 0.0
H15 H 0.28576 0.34417 0.30585 0.0
H16 H 0.30565 0.36836 0.32777 0.0
C17 C 0.28773 0.30843 0.4591 0.0
C18 C 0.33586 0.27886 0.44735 0.0
C19 C 0.39955 0.41351 0.36287 0.0
C20 C 0.39942 0.41758 0.33249 0.0
C21 C 0.38304 0.40004 0.31424 0.0
C22 C 0.3662 0.37888 0.32628 0.0
C23 C 0.36592 0.3753 0.35686 0.0
C24 C 0.38296 0.39216 0.37453 0.0
C25 C 0.3811 0.38473 0.40636 0.0
C26 C 0.35974 0.3608 0.40497 0.0
C27 C 0.35062 0.35562 0.376 0.0
C28 C 0.36574 0.40774 0.42337 0.0
C29 C 0.4147 0.37761 0.41668 0.0
C30 C 0.27245 0.29096 0.33264 0.0
C31 C 0.25316 0.27151 0.34516 0.0
C32 C 0.25656 0.26558 0.3752 0.0
C33 C 0.27809 0.27934 0.39268 0.0
C34 C 0.29639 0.29938 0.38008 0.0
C35 C 0.29367 0.30469 0.35047 0.0
C36 C 0.31471 0.32689 0.34096 0.0
C37 C 0.32954 0.33467 0.36993 0.0
C38 C 0.31886 0.31841 0.39277 0.0
C39 C 0.29382 0.34906 0.32834 0.0
C40 C 0.33928 0.31588 0.31912 0.0
H41 H 0.38302 0.37945 0.46971 0.0
H42 H 0.33608 0.29765 0.51019 0.0
H43 H 0.36198 0.27927 0.44649 0.0
H44 H 0.32823 0.26862 0.42726 0.0
H45 H 0.3288 0.26685 0.4666 0.0
H46 H 0.28288 0.32637 0.47226 0.0
H47 H 0.28105 0.29116 0.47266 0.0
H48 H 0.27156 0.30988 0.44022 0.0
H49 H 0.41213 0.42683 0.37724 0.0
H50 H 0.3827 0.4031 0.29075 0.0
H51 H 0.35372 0.36636 0.31137 0.0
H52 H 0.34919 0.4189 0.40921 0.0
H53 H 0.38374 0.42182 0.43149 0.0
H54 H 0.35119 0.40095 0.44199 0.0
H55 H 0.42722 0.36612 0.39958 0.0
H56 H 0.41505 0.36504 0.43635 0.0
H57 H 0.42875 0.39561 0.42109 0.0
H58 H 0.38976 0.36951 0.52059 0.0
C59 C 0.37267 0.36156 0.4776 0.0
C60 C 0.22836 0.20911 0.82426 0.0
C61 C 0.24793 0.22862 0.83637 0.0
C62 C 0.2457 0.23392 0.86668 0.0
C63 C 0.20668 0.19956 0.87239 0.0
C64 C 0.20817 0.19479 0.84261 0.0
C65 C 0.18732 0.1723 0.83355 0.0
H66 H 0.09528 0.06942 0.87261 0.0
C67 C 0.18535 0.1799 0.88563 0.0
C68 C 0.17406 0.16376 0.86295 0.0
H69 H 0.11963 0.09451 0.7852 0.0
H70 H 0.14811 0.13194 0.80493 0.0
H71 H 0.15973 0.07921 0.90217 0.0
H72 H 0.07836 0.12865 0.8955 0.0
H73 H 0.09255 0.13163 0.93144 0.0
H74 H 0.07975 0.09996 0.91835 0.0
H75 H 0.12582 0.07442 0.92492 0.0
H76 H 0.15737 0.09628 0.93547 0.0
C77 C 0.20821 0.15077 0.81965 0.0
C78 C 0.16145 0.18311 0.81296 0.0
C79 C 0.16388 0.18018 0.99568 0.0
C80 C 0.14645 0.16314 0.0139 0.0
C81 C 0.13362 0.14 1.00164 0.0
C82 C 0.13628 0.13471 0.97173 0.0
C83 C 0.15226 0.15252 0.95359 0.0
C84 C 0.16657 0.17441 0.96565 0.0
C85 C 0.18432 0.19007 0.94293 0.0
C86 C 0.17669 0.17471 0.91518 0.0
C87 C 0.15771 0.15289 0.92166 0.0
C88 C 0.21979 0.18905 0.95062 0.0
C89 C 0.17051 0.21815 0.94194 0.0
C90 C 0.10669 0.08314 0.85784 0.0
C91 C 0.10556 0.07924 0.82747 0.0
C92 C 0.12033 0.09738 0.8087 0.0
C93 C 0.13689 0.11894 0.82022 0.0
C94 C 0.13849 0.12232 0.8508 0.0
C95 C 0.12295 0.10486 0.86898 0.0
C96 C 0.1259 0.1121 0.90075 0.0
C97 C 0.14628 0.13656 0.89878 0.0
C98 C 0.15392 0.14226 0.86954 0.0
C99 C 0.14285 0.08937 0.91691 0.0
C100 C 0.09251 0.11828 0.91242 0.0
H101 H 0.22488 0.22438 0.90753 0.0
H102 H 0.22915 0.2047 0.80107 0.0
H103 H 0.15579 0.20393 0.81822 0.0
H104 H 0.13887 0.17252 0.81536 0.0
H105 H 0.16901 0.1824 0.78969 0.0
H106 H 0.23016 0.14817 0.83255 0.0
H107 H 0.21501 0.15617 0.79693 0.0
H108 H 0.19695 0.13124 0.81923 0.0
H109 H 0.1744 0.19795 0.00434 0.0
H110 H 0.1211 0.12598 0.01521 0.0
H111 H 0.12548 0.117 0.96388 0.0
H112 H 0.22568 0.17097 0.96319 0.0
H113 H 0.22692 0.20618 0.96416 0.0
H114 H 0.23492 0.1881 0.93096 0.0
H115 H 0.14438 0.21739 0.94241 0.0
H116 H 0.17672 0.2289 0.92174 0.0
H117 H 0.17846 0.22989 0.96109 0.0
H118 H 0.26074 0.24851 0.87682 0.0
C119 C 0.22514 0.21962 0.88465 0.0
C120 C 0.85427 0.1906 0.51097 0.0
C121 C 0.87468 0.1755 0.4934 0.0
C122 C 0.88852 0.15284 0.50574 0.0
C123 C 0.86403 0.1617 0.55244 0.0
C124 C 0.84912 0.18319 0.54029 0.0
C125 C 0.82745 0.19627 0.56196 0.0
H126 H 0.76425 0.1987 0.69874 0.0
C127 C 0.85433 0.15942 0.58336 0.0
C128 C 0.83254 0.17939 0.58912 0.0
H129 H 0.74293 0.24959 0.62558 0.0
H130 H 0.7814 0.22723 0.59586 0.0
H131 H 0.76604 0.14677 0.66357 0.0
H132 H 0.84112 0.19908 0.68833 0.0
H133 H 0.85394 0.16674 0.69457 0.0
H134 H 0.82025 0.17894 0.71418 0.0
H135 H 0.78143 0.14753 0.70014 0.0
H136 H 0.79837 0.12692 0.67215 0.0
C137 C 0.79342 0.19396 0.55016 0.0
C138 C 0.83892 0.22485 0.56664 0.0
C139 C 0.90314 0.08887 0.64749 0.0
C140 C 0.89742 0.08074 0.67636 0.0
C141 C 0.87529 0.09429 0.69347 0.0
C142 C 0.85899 0.11585 0.6819 0.0
C143 C 0.86454 0.12359 0.65275 0.0
C144 C 0.88623 0.11007 0.63605 0.0
C145 C 0.88753 0.1198 0.60498 0.0
C146 C 0.86365 0.14189 0.60595 0.0
C147 C 0.8504 0.14408 0.63398 0.0
C148 C 0.87699 0.0971 0.58442 0.0
C149 C 0.92119 0.13018 0.59913 0.0
C150 C 0.76815 0.20522 0.67644 0.0
C151 C 0.75041 0.22583 0.66447 0.0
C152 C 0.75597 0.23349 0.63519 0.0
C153 C 0.77835 0.22053 0.61797 0.0
C154 C 0.79537 0.19954 0.63004 0.0
C155 C 0.7903 0.19237 0.65889 0.0
C156 C 0.8102 0.16944 0.66796 0.0
C157 C 0.82781 0.16386 0.63976 0.0
C158 C 0.81907 0.18154 0.61755 0.0
C159 C 0.78809 0.14641 0.67665 0.0
C160 C 0.83251 0.17877 0.69269 0.0
H161 H 0.89526 0.12885 0.54293 0.0
H162 H 0.84292 0.20796 0.50234 0.0
H163 H 0.86502 0.22562 0.56784 0.0
H164 H 0.83064 0.23343 0.58743 0.0
H165 H 0.83143 0.23771 0.54827 0.0
H166 H 0.78997 0.17515 0.53813 0.0
H167 H 0.78797 0.21026 0.53479 0.0
H168 H 0.77561 0.19353 0.56773 0.0
H169 H 0.91946 0.07822 0.63371 0.0
H170 H 0.87041 0.08799 0.71569 0.0
H171 H 0.84232 0.12535 0.69595 0.0
H172 H 0.86229 0.08234 0.59615 0.0
H173 H 0.89752 0.08655 0.57515 0.0
H174 H 0.86186 0.10403 0.56628 0.0
H175 H 0.92961 0.14222 0.61791 0.0
H176 H 0.92274 0.14316 0.57983 0.0
H177 H 0.93789 0.11365 0.59618 0.0
H178 H 0.90327 0.14009 0.4927 0.0
C179 C 0.88358 0.14607 0.53503 0.0
C180 C 0.73304 0.29235 0.18641 0.0
C181 C 0.75151 0.27183 0.17509 0.0
C182 C 0.74772 0.26477 0.14535 0.0
C183 C 0.70852 0.29868 0.13881 0.0
C184 C 0.71198 0.30551 0.16795 0.0
C185 C 0.69198 0.32866 0.17618 0.0
H186 H 0.58606 0.42123 0.13699 0.0
C187 C 0.68558 0.31683 0.12539 0.0
C188 C 0.67584 0.33447 0.14725 0.0
H189 H 0.63241 0.41217 0.22042 0.0
H190 H 0.65993 0.37382 0.20239 0.0
H191 H 0.64485 0.41486 0.10078 0.0
H192 H 0.57443 0.35772 0.12329 0.0
H193 H 0.58311 0.35385 0.08586 0.0
H194 H 0.56789 0.38475 0.09877 0.0
H195 H 0.60889 0.41219 0.08054 0.0
H196 H 0.64327 0.39335 0.07085 0.0
C197 C 0.71397 0.35144 0.18585 0.0
C198 C 0.66832 0.31958 0.1999 0.0
C199 C 0.65574 0.3082 0.01735 0.0
C200 C 0.63516 0.32268 0.99936 0.0
C201 C 0.61925 0.34441 0.0115 0.0
C202 C 0.62286 0.35115 0.04095 0.0
C203 C 0.64291 0.33629 0.05876 0.0
C204 C 0.65923 0.31537 0.04695 0.0
C205 C 0.68012 0.30243 0.06939 0.0
C206 C 0.67331 0.31895 0.09648 0.0
C207 C 0.65138 0.33865 0.09 0.0
C208 C 0.71463 0.30541 0.05908 0.0
C209 C 0.66905 0.27363 0.07325 0.0
C210 C 0.60171 0.41058 0.15144 0.0
C211 C 0.60684 0.41922 0.18021 0.0
C212 C 0.62803 0.40553 0.19824 0.0
C213 C 0.64402 0.38341 0.18767 0.0
C214 C 0.63916 0.37523 0.15857 0.0
C215 C 0.61834 0.38883 0.14099 0.0
C216 C 0.61769 0.37853 0.11016 0.0
C217 C 0.64127 0.35628 0.11216 0.0
C218 C 0.65356 0.35429 0.14058 0.0
C219 C 0.62901 0.40078 0.08932 0.0
C220 C 0.58405 0.36827 0.10388 0.0
H221 H 0.72482 0.27174 0.10487 0.0
H222 H 0.7351 0.2983 0.20909 0.0
H223 H 0.65871 0.2998 0.19454 0.0
H224 H 0.64764 0.33251 0.20166 0.0
H225 H 0.67982 0.31829 0.22169 0.0
H226 H 0.73712 0.35036 0.17458 0.0
H227 H 0.71846 0.3508 0.2098 0.0
H228 H 0.70473 0.37101 0.17992 0.0
H229 H 0.66843 0.29147 0.00877 0.0
H230 H 0.60398 0.35644 0.99811 0.0
H231 H 0.60985 0.36776 0.04865 0.0
H232 H 0.71828 0.32449 0.04762 0.0
H233 H 0.72114 0.28949 0.04361 0.0
H234 H 0.73156 0.30571 0.0774 0.0
H235 H 0.64295 0.27239 0.07296 0.0
H236 H 0.67612 0.26504 0.09443 0.0
H237 H 0.67804 0.26102 0.05526 0.0
H238 H 0.76202 0.24949 0.13568 0.0
C239 C 0.72631 0.27794 0.12728 0.0
C240 C 0.61361 0.59388 0.67398 0.0
C241 C 0.58824 0.58026 0.66145 0.0
C242 C 0.57709 0.58786 0.63369 0.0
C243 C 0.6184 0.62065 0.63013 0.0
C244 C 0.62805 0.61416 0.65812 0.0
C245 C 0.6552 0.6308 0.66824 0.0
H246 H 0.76456 0.72382 0.63929 0.0
C247 C 0.64001 0.64108 0.61876 0.0
C248 C 0.66131 0.64736 0.64113 0.0
H249 H 0.74579 0.68433 0.72142 0.0
H250 H 0.70379 0.65979 0.69886 0.0
H251 H 0.75679 0.67173 0.59873 0.0
H252 H 0.69131 0.73319 0.62097 0.0
H253 H 0.6894 0.72711 0.583 0.0
H254 H 0.72554 0.73889 0.59878 0.0
H255 H 0.75977 0.70409 0.58325 0.0
H256 H 0.73479 0.67921 0.56728 0.0
C257 C 0.68316 0.61239 0.67517 0.0
C258 C 0.64399 0.64765 0.69457 0.0
C259 C 0.63287 0.6684 0.51214 0.0
C260 C 0.65149 0.68439 0.49383 0.0
C261 C 0.67719 0.69797 0.50631 0.0
C262 C 0.6844 0.69525 0.53626 0.0
C263 C 0.66584 0.67868 0.55399 0.0
C264 C 0.64061 0.66559 0.54172 0.0
C265 C 0.62402 0.64802 0.56325 0.0
C266 C 0.64335 0.6527 0.59063 0.0
C267 C 0.66774 0.6708 0.58524 0.0
C268 C 0.62684 0.61935 0.55208 0.0
C269 C 0.5898 0.65786 0.56683 0.0
C270 C 0.75152 0.70972 0.65233 0.0
C271 C 0.75849 0.70603 0.68224 0.0
C272 C 0.74067 0.68777 0.69849 0.0
C273 C 0.71632 0.67348 0.68531 0.0
C274 C 0.70954 0.67747 0.65551 0.0
C275 C 0.72696 0.69536 0.63949 0.0
C276 C 0.71606 0.69709 0.60812 0.0
C277 C 0.6887 0.67781 0.60825 0.0
C278 C 0.68531 0.66623 0.63603 0.0
C279 C 0.74318 0.68775 0.58809 0.0
C280 C 0.70511 0.72556 0.60212 0.0
H281 H 0.58299 0.61249 0.5966 0.0
H282 H 0.62229 0.58856 0.69548 0.0
H283 H 0.61808 0.65046 0.69433 0.0
H284 H 0.65374 0.66785 0.69407 0.0
H285 H 0.65013 0.63826 0.71576 0.0
H286 H 0.68538 0.59694 0.65806 0.0
H287 H 0.6798 0.60238 0.69658 0.0
H288 H 0.70602 0.62267 0.67543 0.0
H289 H 0.61245 0.65815 0.50371 0.0
H290 H 0.69207 0.71035 0.49286 0.0
H291 H 0.70431 0.70597 0.54442 0.0
H292 H 0.65059 0.61576 0.54274 0.0
H293 H 0.60932 0.61527 0.53461 0.0
H294 H 0.62411 0.60452 0.56951 0.0
H295 H 0.58844 0.67956 0.56401 0.0
H296 H 0.58027 0.65417 0.58899 0.0
H297 H 0.57399 0.64875 0.55032 0.0
H298 H 0.55756 0.5775 0.62371 0.0
C299 C 0.59207 0.60798 0.61793 0.0
C300 C 0.76048 0.79599 0.17822 0.0
C301 C 0.7447 0.77373 0.16737 0.0
C302 C 0.75193 0.76485 0.13882 0.0
C303 C 0.78888 0.80078 0.13228 0.0
C304 C 0.78239 0.80901 0.16049 0.0
C305 C 0.80103 0.8329 0.16899 0.0
H306 H 0.90947 0.92524 0.13496 0.0
C307 C 0.81208 0.81926 0.11946 0.0
C308 C 0.81935 0.838 0.14108 0.0
H309 H 0.85826 0.91613 0.21594 0.0
H310 H 0.83077 0.87838 0.19619 0.0
H311 H 0.9208 0.86156 0.12052 0.0
H312 H 0.85301 0.91979 0.09603 0.0
H313 H 0.85295 0.89727 0.06694 0.0
H314 H 0.88838 0.91544 0.07537 0.0
H315 H 0.92895 0.89008 0.09852 0.0
H316 H 0.91497 0.86007 0.08228 0.0
C317 C 0.82281 0.82524 0.19483 0.0
C318 C 0.77774 0.85546 0.17584 0.0
C319 C 0.84944 0.80942 0.01346 0.0
C320 C 0.86945 0.82497 0.99579 0.0
C321 C 0.88224 0.84822 0.00786 0.0
C322 C 0.87665 0.85523 0.03695 0.0
C323 C 0.85747 0.83924 0.05446 0.0
C324 C 0.8436 0.81707 0.04261 0.0
C325 C 0.8223 0.80354 0.06442 0.0
C326 C 0.82616 0.82114 0.09121 0.0
C327 C 0.84719 0.84177 0.08519 0.0
C328 C 0.83505 0.77554 0.06996 0.0
C329 C 0.7884 0.80424 0.05219 0.0
C330 C 0.89271 0.9147 0.14849 0.0
C331 C 0.88629 0.92309 0.17713 0.0
C332 C 0.86366 0.90965 0.19391 0.0
C333 C 0.84776 0.88783 0.18235 0.0
C334 C 0.85428 0.87963 0.15354 0.0
C335 C 0.87623 0.89318 0.13705 0.0
C336 C 0.87855 0.88286 0.10627 0.0
C337 C 0.85525 0.86018 0.10735 0.0
C338 C 0.84127 0.85835 0.13508 0.0
C339 C 0.9126 0.8732 0.10136 0.0
C340 C 0.86791 0.90489 0.08491 0.0
H341 H 0.7782 0.77057 0.09976 0.0
H342 H 0.75543 0.80358 0.19986 0.0
H343 H 0.75655 0.85418 0.16162 0.0
H344 H 0.78766 0.87515 0.17134 0.0
H345 H 0.76969 0.85464 0.19896 0.0
H346 H 0.83137 0.80471 0.19239 0.0
H347 H 0.81018 0.8265 0.21607 0.0
H348 H 0.84436 0.83732 0.19599 0.0
H349 H 0.83893 0.79156 0.00504 0.0
H350 H 0.89665 0.86128 0.99475 0.0
H351 H 0.88757 0.87291 0.04465 0.0
H352 H 0.86119 0.77565 0.07064 0.0
H353 H 0.82766 0.76185 0.05229 0.0
H354 H 0.82765 0.76739 0.09129 0.0
H355 H 0.78357 0.82349 0.04153 0.0
H356 H 0.77031 0.80223 0.06933 0.0
H357 H 0.78478 0.78863 0.03552 0.0
H358 H 0.74067 0.74745 0.13003 0.0
C359 C 0.77384 0.77825 0.12126 0.0
C360 C 0.11512 0.90317 0.32965 0.0
C361 C 0.09067 0.91796 0.34196 0.0
C362 C 0.07995 0.91193 0.37034 0.0
C363 C 0.11909 0.87763 0.37448 0.0
C364 C 0.12865 0.88289 0.34613 0.0
C365 C 0.15435 0.8647 0.33624 0.0
H366 H 0.25554 0.76613 0.36665 0.0
C367 C 0.13878 0.8561 0.38602 0.0
C368 C 0.1591 0.84811 0.36357 0.0
H369 H 0.24271 0.80745 0.28473 0.0
H370 H 0.20152 0.83342 0.30633 0.0
H371 H 0.2486 0.81871 0.40928 0.0
H372 H 0.18253 0.75926 0.38122 0.0
H373 H 0.17508 0.76635 0.41824 0.0
H374 H 0.21244 0.75246 0.40788 0.0
H375 H 0.2516 0.78487 0.42015 0.0
H376 H 0.22693 0.80749 0.43974 0.0
C377 C 0.18374 0.88157 0.32907 0.0
C378 C 0.14176 0.8482 0.31017 0.0
C379 C 0.12879 0.82989 0.4928 0.0
C380 C 0.14236 0.81005 0.51019 0.0
C381 C 0.16492 0.7934 0.49717 0.0
C382 C 0.17351 0.79642 0.46757 0.0
C383 C 0.15928 0.81617 0.45057 0.0
C384 C 0.13708 0.83227 0.46329 0.0
C385 C 0.12287 0.85121 0.44182 0.0
C386 C 0.14076 0.84434 0.41417 0.0
C387 C 0.16234 0.824 0.41937 0.0
C388 C 0.1303 0.87947 0.45239 0.0
C389 C 0.08726 0.84493 0.43903 0.0
C390 C 0.244 0.78094 0.35347 0.0
C391 C 0.25247 0.78479 0.32392 0.0
C392 C 0.23646 0.80392 0.3074 0.0
C393 C 0.21262 0.81908 0.32005 0.0
C394 C 0.20454 0.8151 0.34959 0.0
C395 C 0.22003 0.79622 0.36579 0.0
C396 C 0.20784 0.7945 0.39675 0.0
C397 C 0.18252 0.8155 0.39642 0.0
C398 C 0.18087 0.82753 0.36872 0.0
C399 C 0.23506 0.80159 0.41779 0.0
C400 C 0.19388 0.76668 0.40157 0.0
H401 H 0.08538 0.88866 0.40845 0.0
H402 H 0.12358 0.90742 0.30776 0.0
H403 H 0.11583 0.84558 0.31148 0.0
H404 H 0.15113 0.82795 0.30998 0.0
H405 H 0.1471 0.85782 0.28889 0.0
H406 H 0.18682 0.89746 0.34557 0.0
H407 H 0.18151 0.891 0.30722 0.0
H408 H 0.20582 0.87028 0.32971 0.0
H409 H 0.11184 0.84347 0.50183 0.0
H410 H 0.17554 0.77766 0.50964 0.0
H411 H 0.19067 0.78308 0.45896 0.0
H412 H 0.15518 0.88102 0.45968 0.0
H413 H 0.1151 0.88495 0.47119 0.0
H414 H 0.12755 0.89441 0.43509 0.0
H415 H 0.08198 0.82416 0.44497 0.0
H416 H 0.07862 0.84692 0.41627 0.0
H417 H 0.07304 0.85766 0.45364 0.0
H418 H 0.06125 0.92331 0.38018 0.0
C419 C 0.09411 0.89192 0.38672 0.0
C420 C 0.25954 0.7019 0.8319 0.0
C421 C 0.24228 0.72262 0.84418 0.0
C422 C 0.24779 0.72961 0.87367 0.0
C423 C 0.28639 0.69491 0.87826 0.0
C424 C 0.28128 0.68838 0.84924 0.0
C425 C 0.3008 0.66544 0.83962 0.0
H426 H 0.40904 0.5727 0.87076 0.0
C427 C 0.30978 0.67636 0.89033 0.0
C428 C 0.31824 0.65907 0.86768 0.0
H429 H 0.35999 0.58516 0.78925 0.0
H430 H 0.33205 0.62193 0.81039 0.0
H431 H 0.41961 0.63625 0.88871 0.0
H432 H 0.35182 0.57622 0.90892 0.0
H433 H 0.35181 0.59718 0.93941 0.0
H434 H 0.38722 0.57963 0.92984 0.0
H435 H 0.42779 0.60694 0.90928 0.0
H436 H 0.41301 0.63598 0.92687 0.0
C437 C 0.32331 0.67508 0.81514 0.0
C438 C 0.27832 0.64286 0.83034 0.0
C439 C 0.34556 0.68288 0.99698 0.0
C440 C 0.36582 0.66724 0.01413 0.0
C441 C 0.3792 0.64464 1.00124 0.0
C442 C 0.37397 0.63846 0.97183 0.0
C443 C 0.3546 0.65464 0.95484 0.0
C444 C 0.3401 0.67607 0.96753 0.0
C445 C 0.31857 0.68983 0.94625 0.0
C446 C 0.32329 0.67345 0.91868 0.0
C447 C 0.34478 0.6531 0.92389 0.0
C448 C 0.33046 0.71837 0.9422 0.0
C449 C 0.28457 0.68767 0.95811 0.0
C450 C 0.39267 0.58379 0.85746 0.0
C451 C 0.38694 0.57663 0.82828 0.0
C452 C 0.36485 0.59073 0.8117 0.0
C453 C 0.34866 0.61195 0.82409 0.0
C454 C 0.35433 0.61881 0.85349 0.0
C455 C 0.37592 0.60471 0.86969 0.0
C456 C 0.37744 0.61367 0.90104 0.0
C457 C 0.35379 0.63598 0.90081 0.0
C458 C 0.34051 0.63894 0.8729 0.0
C459 C 0.41122 0.62366 0.90707 0.0
C460 C 0.36676 0.59057 0.921 0.0
H461 H 0.27284 0.72215 0.91299 0.0
H462 H 0.25567 0.69584 0.80944 0.0
H463 H 0.25619 0.64326 0.84333 0.0
H464 H 0.28821 0.62315 0.83448 0.0
H465 H 0.27182 0.64449 0.80686 0.0
H466 H 0.33191 0.69533 0.81982 0.0
H467 H 0.31123 0.67552 0.79358 0.0
H468 H 0.34477 0.66309 0.81326 0.0
H469 H 0.33459 0.70024 0.006 0.0
H470 H 0.39384 0.63151 0.01393 0.0
H471 H 0.38531 0.62126 0.96348 0.0
H472 H 0.35656 0.71888 0.94088 0.0
H473 H 0.32327 0.73093 0.96092 0.0
H474 H 0.32218 0.72747 0.92168 0.0
H475 H 0.28074 0.66849 0.96932 0.0
H476 H 0.26667 0.6882 0.94063 0.0
H477 H 0.27959 0.70348 0.9742 0.0
H478 H 0.23513 0.74577 0.88355 0.0
C479 C 0.26975 0.71592 0.89073 0.0
Zn480 Zn 0.02458 0.14841 0.30588 0.0
Zn481 Zn 0.98949 0.15132 0.19773 0.0
Zn482 Zn 0.00582 0.1496 0.25219 0.0
C483 C 0.04927 0.1706 0.19776 0.0
C484 C 0.98215 0.0993 0.21469 0.0
O485 O 0.97059 0.17093 0.27952 0.0
O486 O 0.99255 0.17134 0.32345 0.0
C487 C 0.07395 0.16994 0.27559 0.0
O488 O 0.04503 0.16695 0.22545 0.0
O489 O 0.02815 0.16438 0.1797 0.0
O490 O 0.97781 0.11393 0.19274 0.0
O491 O 0.99371 0.10899 0.23848 0.0
O492 O 0.06726 0.16222 0.30107 0.0
O493 O 0.05374 0.16763 0.25468 0.0
O494 O 0.00961 0.10765 0.26569 0.0
O495 O 0.02178 0.1102 0.31265 0.0
C496 C 0.01628 0.09642 0.29026 0.0
O497 O 0.96226 0.17396 0.24985 0.0
O498 O 0.95557 0.17693 0.20196 0.0
C499 C 0.97021 0.17766 0.30676 0.0
C500 C 0.9473 0.18317 0.22754 0.0
Zn501 Zn 0.5229 0.34795 0.70333 0.0
Zn502 Zn 0.48762 0.34964 0.8111 0.0
Zn503 Zn 0.50389 0.34914 0.75697 0.0
C504 C 0.4811 0.40088 0.79215 0.0
C505 C 0.44513 0.31673 0.78298 0.0
O506 O 0.55106 0.32978 0.75519 0.0
O507 O 0.56493 0.33323 0.70862 0.0
C508 C 0.51607 0.40073 0.71679 0.0
O509 O 0.49333 0.39046 0.76908 0.0
O510 O 0.47531 0.38685 0.81431 0.0
O511 O 0.45418 0.32305 0.80833 0.0
O512 O 0.45963 0.32575 0.76027 0.0
O513 O 0.5215 0.38605 0.69512 0.0
O514 O 0.50896 0.39052 0.74182 0.0
O515 O 0.46755 0.3283 0.73031 0.0
O516 O 0.4898 0.32533 0.68666 0.0
C517 C 0.46687 0.32066 0.70338 0.0
O518 O 0.54248 0.33169 0.78438 0.0
O519 O 0.52669 0.33882 0.82987 0.0
C520 C 0.57117 0.3262 0.73443 0.0
C521 C 0.54717 0.33052 0.81228 0.0
Zn522 Zn 0.02078 0.85161 0.80492 0.0
Zn523 Zn 0.97873 0.84889 0.69794 0.0
Zn524 Zn 0.00012 0.84942 0.7515 0.0
C525 C 0.98245 0.90123 0.71283 0.0
C526 C 0.93376 0.8237 0.73209 0.0
O527 O 0.04662 0.8296 0.75184 0.0
O528 O 0.06279 0.83726 0.79709 0.0
C529 C 0.0144 0.90302 0.78843 0.0
O530 O 0.99121 0.89048 0.73709 0.0
O531 O 0.97723 0.88715 0.69061 0.0
O532 O 0.93826 0.83178 0.7063 0.0
O533 O 0.95463 0.8277 0.75207 0.0
O534 O 0.01886 0.88999 0.81157 0.0
O535 O 0.00743 0.8911 0.76433 0.0
O536 O 0.96559 0.82926 0.78093 0.0
O537 O 0.9894 0.82863 0.82398 0.0
C538 C 0.96622 0.82251 0.80817 0.0
O539 O 0.03557 0.82975 0.72294 0.0
O540 O 0.01238 0.82793 0.67962 0.0
C541 C 0.06781 0.828 0.77192 0.0
C542 C 0.0356 0.82284 0.69578 0.0
Zn543 Zn 0.52279 0.65241 0.20486 0.0
Zn544 Zn 0.47458 0.64379 0.30821 0.0
Zn545 Zn 0.49961 0.64899 0.2576 0.0
C546 C 0.5275 0.67485 0.31695 0.0
C547 C 0.48594 0.59358 0.29149 0.0
O548 O 0.46464 0.66822 0.22799 0.0
O549 O 0.48953 0.67318 0.18581 0.0
C550 C 0.56556 0.67696 0.24209 0.0
O551 O 0.53118 0.66963 0.2895 0.0
O552 O 0.50322 0.66686 0.33013 0.0
O553 O 0.47825 0.60568 0.31446 0.0
O554 O 0.49403 0.60648 0.26833 0.0
O555 O 0.56191 0.67031 0.21572 0.0
O556 O 0.54443 0.6715 0.26142 0.0
O557 O 0.51109 0.60884 0.24178 0.0
O558 O 0.52644 0.6144 0.19593 0.0
C559 C 0.52122 0.59932 0.21736 0.0
O560 O 0.45243 0.66805 0.25658 0.0
O561 O 0.43232 0.65724 0.29958 0.0
C562 C 0.46527 0.67639 0.20123 0.0
C563 C 0.42944 0.66831 0.27501 0.0
C564 C 0.04602 0.94251 0.31944 0.0
C565 C 0.07797 0.94109 0.32653 0.0
C566 C 0.03311 0.96583 0.30827 0.0
C567 C 0.05244 0.98838 0.30529 0.0
C568 C 0.08505 0.98655 0.31118 0.0
C569 C 0.09749 0.96278 0.32142 0.0
C570 C 0.99865 0.96668 0.30064 0.0
C571 C 0.10645 0.01016 0.30849 0.0
C572 C 0.02982 0.05261 0.26841 0.0
C573 C 0.02039 0.06762 0.29259 0.0
C574 C 0.03807 0.02604 0.27167 0.0
C575 C 0.03821 0.01463 0.3 0.0
C576 C 0.02766 0.02949 0.32428 0.0
C577 C 0.01855 0.05565 0.3202 0.0
C578 C 0.04832 0.01092 0.24495 0.0
C579 C 0.02793 0.01835 0.35498 0.0
H580 H 0.03107 0.92553 0.32319 0.0
H581 H 0.1222 0.96156 0.32705 0.0
H582 H 0.98598 0.97935 0.31645 0.0
H583 H 0.99554 0.97546 0.2786 0.0
H584 H 0.9877 0.94683 0.30087 0.0
H585 H 0.13141 0.00521 0.31291 0.0
H586 H 0.10474 0.01865 0.28618 0.0
H587 H 0.099 0.02556 0.32421 0.0
H588 H 0.03187 0.06183 0.24708 0.0
H589 H 0.01126 0.06714 0.33898 0.0
H590 H 0.04438 0.98947 0.24745 0.0
H591 H 0.07377 0.01432 0.24123 0.0
H592 H 0.0356 0.01785 0.22515 0.0
H593 H 0.01417 -0.00017 0.35588 0.0
H594 H 0.01808 0.03224 0.37133 0.0
H595 H 0.05241 0.0136 0.36143 0.0
C596 C 0.43465 0.55293 0.81112 0.0
C597 C 0.40222 0.55315 0.81609 0.0
C598 C 0.44983 0.52971 0.80257 0.0
C599 C 0.43221 0.50616 0.80001 0.0
C600 C 0.39919 0.50668 0.80388 0.0
C601 C 0.38453 0.53031 0.81162 0.0
C602 C 0.48476 0.53014 0.79708 0.0
C603 C 0.3796 0.48199 0.80144 0.0
C604 C 0.46272 0.44226 0.76776 0.0
C605 C 0.47227 0.42893 0.79308 0.0
C606 C 0.45156 0.46819 0.76925 0.0
C607 C 0.44848 0.4805 0.79693 0.0
C608 C 0.45855 0.4672 0.8225 0.0
C609 C 0.47061 0.44173 0.82019 0.0
C610 C 0.44178 0.48158 0.74123 0.0
C611 C 0.4551 0.47933 0.85254 0.0
H612 H 0.44814 0.5708 0.81441 0.0
H613 H 0.35941 0.53068 0.81557 0.0
H614 H 0.49705 0.51896 0.81449 0.0
H615 H 0.48997 0.52037 0.77595 0.0
H616 H 0.49439 0.55046 0.79652 0.0
H617 H 0.35411 0.48589 0.80426 0.0
H618 H 0.38329 0.4727 0.77975 0.0
H619 H 0.38707 0.46764 0.81837 0.0
H620 H 0.46301 0.43221 0.74686 0.0
H621 H 0.47787 0.43146 0.83986 0.0
H622 H 0.44259 0.50332 0.74303 0.0
H623 H 0.41737 0.47564 0.73579 0.0
H624 H 0.45709 0.47541 0.72277 0.0
H625 H 0.46743 0.49854 0.8534 0.0
H626 H 0.46462 0.46654 0.87014 0.0
H627 H 0.42988 0.48303 0.85715 0.0
C628 C 0.5952 0.53532 0.68159 0.0
C629 C 0.57534 0.55658 0.67587 0.0
C630 C 0.58309 0.51136 0.69181 0.0
C631 C 0.55041 0.50888 0.69707 0.0
C632 C 0.53057 0.53089 0.69314 0.0
C633 C 0.5432 0.55443 0.68204 0.0
C634 C 0.60503 0.48833 0.69548 0.0
C635 C 0.49597 0.52934 0.70009 0.0
C636 C 0.51856 0.44029 0.68486 0.0
C637 C 0.5202 0.42943 0.71304 0.0
C638 C 0.52709 0.46648 0.67966 0.0
C639 C 0.53686 0.48248 0.70335 0.0
C640 C 0.5367 0.4721 0.73217 0.0
C641 C 0.52904 0.4455 0.73657 0.0
C642 C 0.52756 0.47648 0.64848 0.0
C643 C 0.54627 0.48837 0.75831 0.0
H644 H 0.62006 0.53706 0.67667 0.0
H645 H 0.52798 0.57106 0.67789 0.0
H646 H 0.60344 0.48056 0.71813 0.0
H647 H 0.59799 0.47224 0.6804 0.0
H648 H 0.62989 0.49366 0.69091 0.0
H649 H 0.48429 0.54877 0.69836 0.0
H650 H 0.48417 0.51544 0.68493 0.0
H651 H 0.49269 0.52164 0.7226 0.0
H652 H 0.51176 0.42797 0.66655 0.0
H653 H 0.53102 0.43713 0.75833 0.0
H654 H 0.55203 0.48151 0.64212 0.0
H655 H 0.51342 0.49467 0.64657 0.0
H656 H 0.51827 0.46179 0.63269 0.0
H657 H 0.5716 0.4852 0.7628 0.0
H658 H 0.53299 0.48218 0.77813 0.0
H659 H 0.54248 0.50968 0.75466 0.0
C660 C 0.93443 0.94764 0.19218 0.0
C661 C 0.90178 0.94688 0.1886 0.0
C662 C 0.94963 0.971 0.20046 0.0
C663 C 0.93179 0.99421 0.20413 0.0
C664 C 0.89864 0.99321 0.2015 0.0
C665 C 0.88398 0.96941 0.19406 0.0
C666 C 0.98479 0.97106 0.20455 0.0
C667 C 0.87881 0.01754 0.20512 0.0
C668 C 0.96325 0.05735 0.23779 0.0
C669 C 0.97235 0.07142 0.21278 0.0
C670 C 0.95189 0.03148 0.23563 0.0
C671 C 0.94782 0.02002 0.2076 0.0
C672 C 0.95705 0.03415 0.18228 0.0
C673 C 0.96956 0.0595 0.18523 0.0
C674 C 0.94312 0.01711 0.26339 0.0
C675 C 0.95245 0.02297 0.15192 0.0
H676 H 0.94803 0.93002 0.18816 0.0
H677 H 0.8587 0.96866 0.19118 0.0
H678 H 0.99612 0.9823 0.18658 0.0
H679 H 0.99091 0.98099 0.2254 0.0
H680 H 0.99465 0.95087 0.20481 0.0
H681 H 0.8533 0.01332 0.2029 0.0
H682 H 0.88308 0.02643 0.22693 0.0
H683 H 0.88557 0.03236 0.18838 0.0
H684 H 0.96421 0.06674 0.25904 0.0
H685 H 0.97637 0.07033 0.16576 0.0
H686 H 0.94473 0.99548 0.26088 0.0
H687 H 0.91859 0.02209 0.26936 0.0
H688 H 0.95851 0.02327 0.28184 0.0
H689 H 0.96493 0.00397 0.14984 0.0
H690 H 0.9611 0.03644 0.13452 0.0
H691 H 0.9271 0.01907 0.14809 0.0
C692 C 0.94516 0.05512 0.68992 0.0
C693 C 0.91245 0.05665 0.68744 0.0
C694 C 0.95977 0.03137 0.69751 0.0
C695 C 0.94113 0.00852 0.70166 0.0
C696 C 0.90795 0.01025 0.69973 0.0
C697 C 0.894 0.03444 0.69307 0.0
C698 C 0.99515 0.03097 0.69975 0.0
C699 C 0.88723 0.98628 0.70308 0.0
C700 C 0.97584 0.94209 0.68345 0.0
C701 C 0.97605 0.92974 0.7109 0.0
C702 C 0.96546 0.96805 0.68032 0.0
C703 C 0.95595 0.98232 0.7054 0.0
C704 C 0.95799 0.97049 0.73342 0.0
C705 C 0.96699 0.94406 0.73569 0.0
C706 C 0.96331 0.97976 0.64997 0.0
C707 C 0.94943 0.98507 0.76106 0.0
H708 H 0.95937 0.07242 0.68551 0.0
H709 H 0.86868 0.03574 0.69081 0.0
H710 H 0.00422 0.01316 0.71083 0.0
H711 H 0.00536 0.03196 0.6774 0.0
H712 H 0.00361 0.04859 0.7118 0.0
H713 H 0.86198 0.9908 0.69961 0.0
H714 H 0.89437 0.97095 0.68713 0.0
H715 H 0.89003 0.97788 0.72533 0.0
H716 H 0.98271 0.93111 0.66415 0.0
H717 H 0.96585 0.93442 0.7568 0.0
H718 H 0.9789 0.9972 0.64839 0.0
H719 H 0.93893 0.98643 0.64564 0.0
H720 H 0.97016 0.96558 0.63264 0.0
H721 H 0.95146 0.00669 0.75849 0.0
H722 H 0.96473 0.97882 0.7795 0.0
H723 H 0.92487 0.9802 0.76718 0.0
C724 C 0.61097 0.46582 0.19581 0.0
C725 C 0.59214 0.4438 0.19031 0.0
C726 C 0.59743 0.49028 0.20196 0.0
C727 C 0.56428 0.49252 0.2035 0.0
C728 C 0.54521 0.46993 0.19925 0.0
C729 C 0.55942 0.44589 0.19216 0.0
C730 C 0.61857 0.51399 0.20534 0.0
C731 C 0.50982 0.47101 0.20092 0.0
C732 C 0.53735 0.55609 0.23888 0.0
C733 C 0.52885 0.57108 0.21439 0.0
C734 C 0.54682 0.52983 0.23591 0.0
C735 C 0.54987 0.51886 0.20756 0.0
C736 C 0.54123 0.53387 0.18273 0.0
C737 C 0.53044 0.55966 0.18649 0.0
C738 C 0.55467 0.51434 0.26314 0.0
C739 C 0.54449 0.52304 0.1521 0.0
H740 H 0.63628 0.46411 0.19397 0.0
H741 H 0.54492 0.42877 0.18777 0.0
H742 H 0.61243 0.52901 0.18867 0.0
H743 H 0.61507 0.52302 0.22719 0.0
H744 H 0.64382 0.50898 0.20288 0.0
H745 H 0.5003 0.45263 0.21069 0.0
H746 H 0.50128 0.48796 0.21388 0.0
H747 H 0.50014 0.4726 0.17842 0.0
H748 H 0.53759 0.56508 0.26035 0.0
H749 H 0.52409 0.57118 0.16741 0.0
H750 H 0.58014 0.51623 0.26779 0.0
H751 H 0.54913 0.49316 0.26042 0.0
H752 H 0.54167 0.52189 0.28246 0.0
H753 H 0.56913 0.51688 0.14816 0.0
H754 H 0.5378 0.53759 0.13507 0.0
H755 H 0.52939 0.50539 0.14957 0.0
C756 C 0.44371 0.43951 0.30608 0.0
C757 C 0.41466 0.44116 0.32032 0.0
C758 C 0.45952 0.4624 0.29695 0.0
C759 C 0.44568 0.48726 0.30213 0.0
C760 C 0.41564 0.48874 0.31545 0.0
C761 C 0.40063 0.46563 0.32461 0.0
C762 C 0.49156 0.45997 0.28313 0.0
C763 C 0.39984 0.5148 0.32106 0.0
C764 C 0.48925 0.55045 0.31659 0.0
C765 C 0.48247 0.56477 0.2912 0.0
C766 C 0.48009 0.5241 0.31927 0.0
C767 C 0.46318 0.51203 0.2962 0.0
C768 C 0.45871 0.52574 0.26951 0.0
C769 C 0.46835 0.5521 0.26735 0.0
C770 C 0.48627 0.5099 0.34772 0.0
C771 C 0.44132 0.51344 0.24418 0.0
H772 H 0.45447 0.42043 0.30299 0.0
H773 H 0.37809 0.46667 0.33563 0.0
H774 H 0.49549 0.43999 0.27406 0.0
H775 H 0.49475 0.47461 0.26541 0.0
H776 H 0.50982 0.46384 0.29994 0.0
H777 H 0.37556 0.51239 0.32963 0.0
H778 H 0.41369 0.52625 0.33724 0.0
H779 H 0.39886 0.5265 0.30057 0.0
H780 H 0.5005 0.56023 0.33492 0.0
H781 H 0.46305 0.56322 0.2477 0.0
H782 H 0.49526 0.48982 0.34345 0.0
H783 H 0.46397 0.50787 0.36013 0.0
H784 H 0.5035 0.52056 0.36166 0.0
H785 H 0.44748 0.49238 0.24173 0.0
H786 H 0.44645 0.52378 0.22327 0.0
H787 H 0.41568 0.5146 0.24837 0.0
C788 C 0.10488 0.03108 0.82011 0.0
C789 C 0.09041 0.05539 0.81584 0.0
C790 C 0.08983 0.00772 0.81184 0.0
C791 C 0.05931 0.00877 0.7995 0.0
C792 C 0.04497 0.03344 0.79436 0.0
C793 C 0.06082 0.05659 0.80255 0.0
C794 C 0.10616 0.98186 0.81733 0.0
C795 C 0.01239 0.03541 0.78157 0.0
C796 C 0.03484 0.9441 0.76517 0.0
C797 C 0.0204 0.9316 0.78902 0.0
C798 C 0.04545 0.97019 0.76738 0.0
C799 C 0.04195 0.9838 0.79422 0.0
C800 C 0.02544 0.97182 0.81763 0.0
C801 C 0.01503 0.94578 0.81481 0.0
C802 C 0.06238 0.98239 0.74171 0.0
C803 C 0.02051 0.9859 0.84636 0.0
H804 H 0.12781 0.03037 0.83044 0.0
H805 H 0.04967 0.07553 0.79954 0.0
H806 H 0.09293 0.97039 0.83397 0.0
H807 H 0.10669 0.97002 0.79693 0.0
H808 H 0.13064 0.98457 0.82523 0.0
H809 H 0.00766 0.05534 0.77268 0.0
H810 H 0.0089 0.02075 0.76393 0.0
H811 H 0.99485 0.03118 0.79894 0.0
H812 H 0.03922 0.93311 0.74526 0.0
H813 H 0.00365 0.93618 0.83319 0.0
H814 H 0.0881 0.98128 0.7455 0.0
H815 H 0.05616 0.00344 0.73926 0.0
H816 H 0.05689 0.97202 0.72091 0.0
H817 H 0.04337 0.98808 0.8578 0.0
H818 H 0.00408 0.97512 0.86102 0.0
H819 H 0.01113 0.00592 0.84249 0.0
C820 C 0.11027 0.16406 0.0569 0.0
C821 C 0.14002 0.16958 0.04519 0.0
C822 C 0.10358 0.1683 0.0865 0.0
C823 C 0.12698 0.17911 0.10508 0.0
C824 C 0.15674 0.18582 0.09327 0.0
C825 C 0.16303 0.18074 0.06347 0.0
C826 C 0.07134 0.16089 0.09787 0.0
C827 C 0.18221 0.19775 0.11204 0.0
C828 C 0.0807 0.2022 0.1693 0.0
C829 C 0.0796 0.17888 0.18555 0.0
C830 C 0.10087 0.20459 0.14511 0.0
C831 C 0.11934 0.18276 0.13669 0.0
C832 C 0.12209 0.16108 0.15602 0.0
C833 C 0.10215 0.15947 0.18049 0.0
C834 C 0.09863 0.22873 0.12606 0.0
C835 C 0.14214 0.1377 0.14839 0.0
H836 H 0.09197 0.15628 0.04283 0.0
H837 H 0.18613 0.18506 0.05468 0.0
H838 H 0.07349 0.14675 0.11627 0.0
H839 H 0.05921 0.1786 0.10632 0.0
H840 H 0.0563 0.15185 0.08072 0.0
H841 H 0.19958 0.20876 0.09858 0.0
H842 H 0.17235 0.21119 0.1288 0.0
H843 H 0.1949 0.18183 0.12364 0.0
H844 H 0.06326 0.21727 0.17332 0.0
H845 H 0.10121 0.1414 0.1931 0.0
H846 H 0.08177 0.22495 0.10799 0.0
H847 H 0.12175 0.23358 0.11616 0.0
H848 H 0.09013 0.24594 0.13872 0.0
H849 H 0.12979 0.1256 0.13173 0.0
H850 H 0.14673 0.12518 0.16786 0.0
H851 H 0.1649 0.14408 0.1389 0.0
C852 C 0.40247 0.33126 0.56132 0.0
C853 C 0.37258 0.32505 0.55032 0.0
C854 C 0.41052 0.3262 0.59047 0.0
C855 C 0.38856 0.31364 0.60922 0.0
C856 C 0.35876 0.3062 0.59809 0.0
C857 C 0.35095 0.31231 0.56885 0.0
C858 C 0.44265 0.33461 0.6012 0.0
C859 C 0.33483 0.29233 0.61701 0.0
C860 C 0.43812 0.2898 0.67121 0.0
C861 C 0.4376 0.31207 0.6892 0.0
C862 C 0.41783 0.28778 0.64706 0.0
C863 C 0.39764 0.30901 0.64033 0.0
C864 C 0.39381 0.32951 0.66098 0.0
C865 C 0.41389 0.33075 0.68534 0.0
C866 C 0.42128 0.26477 0.62652 0.0
C867 C 0.37208 0.35226 0.65512 0.0
H868 H 0.41984 0.34019 0.54707 0.0
H869 H 0.32773 0.30745 0.56071 0.0
H870 H 0.44032 0.34763 0.62056 0.0
H871 H 0.45634 0.31714 0.60803 0.0
H872 H 0.4563 0.34528 0.58416 0.0
H873 H 0.31779 0.28101 0.60353 0.0
H874 H 0.3462 0.27876 0.6328 0.0
H875 H 0.32146 0.30712 0.62972 0.0
H876 H 0.45652 0.27534 0.67418 0.0
H877 H 0.41368 0.34811 0.69912 0.0
H878 H 0.4372 0.27031 0.60826 0.0
H879 H 0.39824 0.25918 0.61695 0.0
H880 H 0.43145 0.24745 0.63787 0.0
H881 H 0.38313 0.3656 0.63881 0.0
H882 H 0.36727 0.3637 0.67534 0.0
H883 H 0.34947 0.34528 0.64586 0.0
C884 C 0.65437 0.30864 0.94932 0.0
C885 C 0.62961 0.31566 0.96808 0.0
C886 C 0.64931 0.30539 0.91901 0.0
C887 C 0.61898 0.30986 0.90724 0.0
C888 C 0.59366 0.31543 0.92642 0.0
C889 C 0.59923 0.31781 0.9565 0.0
C890 C 0.67679 0.29839 0.89971 0.0
C891 C 0.56077 0.32032 0.91513 0.0
C892 C 0.59679 0.3414 0.83637 0.0
C893 C 0.57705 0.32188 0.82501 0.0
C894 C 0.61495 0.3366 0.86142 0.0
C895 C 0.61336 0.3116 0.87504 0.0
C896 C 0.59801 0.29066 0.86037 0.0
C897 C 0.57945 0.29615 0.83563 0.0
C898 C 0.63164 0.3594 0.87578 0.0
C899 C 0.5976 0.2633 0.87303 0.0
H900 H 0.67793 0.30673 0.95805 0.0
H901 H 0.57976 0.32227 0.97096 0.0
H902 H 0.66925 0.2877 0.87972 0.0
H903 H 0.68905 0.31666 0.89288 0.0
H904 H 0.694 0.2861 0.91181 0.0
H905 H 0.54385 0.3246 0.93301 0.0
H906 H 0.56088 0.33722 0.89975 0.0
H907 H 0.55214 0.30289 0.90294 0.0
H908 H 0.59479 0.36132 0.82811 0.0
H909 H 0.56415 0.28102 0.8268 0.0
H910 H 0.65501 0.35331 0.884 0.0
H911 H 0.61765 0.36624 0.89482 0.0
H912 H 0.63479 0.37618 0.86046 0.0
H913 H 0.62039 0.25863 0.88362 0.0
H914 H 0.59256 0.24839 0.85587 0.0
H915 H 0.57895 0.2619 0.88995 0.0
C916 C 0.91237 0.17802 0.45141 0.0
C917 C 0.88222 0.18296 0.46251 0.0
C918 C 0.91953 0.1819 0.42183 0.0
C919 C 0.89643 0.19232 0.40274 0.0
C920 C 0.86656 0.19915 0.41408 0.0
C921 C 0.85961 0.19397 0.44373 0.0
C922 C 0.95174 0.17405 0.41093 0.0
C923 C 0.84148 0.21117 0.395 0.0
C924 C 0.94309 0.21116 0.33665 0.0
C925 C 0.94168 0.18753 0.32102 0.0
C926 C 0.92378 0.21516 0.3612 0.0
C927 C 0.90404 0.19448 0.37094 0.0
C928 C 0.89928 0.17234 0.35264 0.0
C929 C 0.9181 0.16924 0.32764 0.0
C930 C 0.92766 0.23998 0.37888 0.0
C931 C 0.87795 0.15006 0.36174 0.0
H932 H 0.93051 0.1706 0.46584 0.0
H933 H 0.8362 0.19796 0.45191 0.0
H934 H 0.94953 0.15998 0.39247 0.0
H935 H 0.96454 0.19158 0.40273 0.0
H936 H 0.96622 0.16474 0.4283 0.0
H937 H 0.82627 0.22453 0.40797 0.0
H938 H 0.85161 0.22234 0.37635 0.0
H939 H 0.82628 0.19533 0.38611 0.0
H940 H 0.96135 0.22534 0.3315 0.0
H941 H 0.91718 0.15089 0.31558 0.0
H942 H 0.94458 0.23648 0.39693 0.0
H943 H 0.90494 0.24595 0.38877 0.0
H944 H 0.93683 0.25635 0.36517 0.0
H945 H 0.88911 0.13895 0.37989 0.0
H946 H 0.87333 0.13625 0.34338 0.0
H947 H 0.85522 0.15772 0.36986 0.0
C948 C 0.85567 0.80561 0.94616 0.0
C949 C 0.87764 0.81746 0.96505 0.0
C950 C 0.86312 0.8005 0.9166 0.0
C951 C 0.89284 0.80821 0.90544 0.0
C952 C 0.91532 0.81947 0.92465 0.0
C953 C 0.9077 0.8233 0.95415 0.0
C954 C 0.83876 0.78756 0.89738 0.0
C955 C 0.94735 0.82822 0.91396 0.0
C956 C 0.94035 0.78937 0.83978 0.0
C957 C 0.93816 0.81254 0.82335 0.0
C958 C 0.92129 0.78547 0.86454 0.0
C959 C 0.90097 0.80585 0.87374 0.0
C960 C 0.89564 0.8275 0.85483 0.0
C961 C 0.91411 0.83039 0.82951 0.0
C962 C 0.92591 0.76114 0.88289 0.0
C963 C 0.87392 0.84954 0.86346 0.0
H964 H 0.83235 0.80092 0.95418 0.0
H965 H 0.9254 0.83139 0.96865 0.0
H966 H 0.82388 0.80292 0.88722 0.0
H967 H 0.84966 0.77584 0.8796 0.0
H968 H 0.82313 0.77452 0.91044 0.0
H969 H 0.96129 0.8381 0.93136 0.0
H970 H 0.96085 0.81103 0.90606 0.0
H971 H 0.94482 0.84206 0.89531 0.0
H972 H 0.95892 0.7755 0.83493 0.0
H973 H 0.91256 0.84838 0.81682 0.0
H974 H 0.90338 0.75472 0.8929 0.0
H975 H 0.94266 0.76548 0.90088 0.0
H976 H 0.93565 0.74475 0.86966 0.0
H977 H 0.85141 0.84161 0.87197 0.0
H978 H 0.86889 0.86287 0.84477 0.0
H979 H 0.88499 0.86123 0.88123 0.0
C980 C 0.63143 0.66481 0.44705 0.0
C981 C 0.64353 0.68669 0.46205 0.0
C982 C 0.61847 0.66727 0.41899 0.0
C983 C 0.61856 0.69209 0.40491 0.0
C984 C 0.63391 0.71362 0.41849 0.0
C985 C 0.64579 0.7108 0.44712 0.0
C986 C 0.60245 0.64366 0.40547 0.0
C987 C 0.63615 0.74005 0.40365 0.0
C988 C 0.58435 0.68334 0.32892 0.0
C989 C 0.5524 0.68725 0.33497 0.0
C990 C 0.60727 0.68809 0.35058 0.0
C991 C 0.59772 0.69601 0.379 0.0
C992 C 0.56591 0.70274 0.38396 0.0
C993 C 0.5438 0.69863 0.36175 0.0
C994 C 0.6412 0.68239 0.34369 0.0
C995 C 0.55444 0.71138 0.41376 0.0
H996 H 0.63083 0.64582 0.45779 0.0
H997 H 0.65542 0.72783 0.45822 0.0
H998 H 0.5769 0.64751 0.40325 0.0
H999 H 0.61188 0.63997 0.38322 0.0
H1000 H 0.60555 0.62555 0.41877 0.0
H1001 H 0.65673 0.75138 0.41178 0.0
H1002 H 0.63804 0.73797 0.37951 0.0
H1003 H 0.61474 0.75161 0.40854 0.0
H1004 H 0.59126 0.67457 0.30833 0.0
H1005 H 0.51918 0.70223 0.36632 0.0
H1006 H 0.64648 0.66166 0.3493 0.0
H1007 H 0.65722 0.69522 0.35653 0.0
H1008 H 0.64611 0.68517 0.31997 0.0
H1009 H 0.55664 0.69483 0.4295 0.0
H1010 H 0.5295 0.71774 0.41335 0.0
H1011 H 0.56896 0.72785 0.42213 0.0
C1012 C 0.35171 0.68556 0.06413 0.0
C1013 C 0.37383 0.67422 0.04509 0.0
C1014 C 0.35929 0.69098 0.0936 0.0
C1015 C 0.38933 0.6841 0.10451 0.0
C1016 C 0.41181 0.67304 0.08526 0.0
C1017 C 0.40402 0.66884 0.05586 0.0
C1018 C 0.33483 0.7035 0.11297 0.0
C1019 C 0.44419 0.66523 0.09573 0.0
C1020 C 0.43722 0.70705 0.16834 0.0
C1021 C 0.43652 0.68444 0.18583 0.0
C1022 C 0.41757 0.70927 0.14377 0.0
C1023 C 0.39808 0.6878 0.13591 0.0
C1024 C 0.39419 0.66666 0.15585 0.0
C1025 C 0.41326 0.66544 0.18094 0.0
C1026 C 0.42079 0.733 0.12419 0.0
C1027 C 0.37342 0.6435 0.14861 0.0
H1028 H 0.32825 0.68979 0.05625 0.0
H1029 H 0.4218 0.66108 0.04127 0.0
H1030 H 0.32155 0.68788 0.12462 0.0
H1031 H 0.34567 0.71655 0.12963 0.0
H1032 H 0.31777 0.71509 0.09989 0.0
H1033 H 0.45812 0.65533 0.0784 0.0
H1034 H 0.45736 0.68289 0.10303 0.0
H1035 H 0.44228 0.65172 0.11475 0.0
H1036 H 0.45515 0.72184 0.17225 0.0
H1037 H 0.41282 0.6479 0.19447 0.0
H1038 H 0.39778 0.73834 0.11445 0.0
H1039 H 0.43719 0.72847 0.106 0.0
H1040 H 0.43026 0.75018 0.13637 0.0
H1041 H 0.35058 0.65017 0.13969 0.0
H1042 H 0.369 0.63092 0.1681 0.0
H1043 H 0.385 0.63136 0.13156 0.0
C1044 C 0.15345 0.79854 0.56328 0.0
C1045 C 0.13231 0.80671 0.54143 0.0
C1046 C 0.1441 0.79663 0.59284 0.0
C1047 C 0.11323 0.80402 0.60092 0.0
C1048 C 0.09171 0.81183 0.57893 0.0
C1049 C 0.10126 0.81245 0.54959 0.0
C1050 C 0.16754 0.78731 0.61531 0.0
C1051 C 0.05856 0.82014 0.58637 0.0
C1052 C 0.06399 0.78904 0.66727 0.0
C1053 C 0.06421 0.81356 0.68112 0.0
C1054 C 0.08379 0.78411 0.64327 0.0
C1055 C 0.10292 0.80467 0.63217 0.0
C1056 C 0.10584 0.82833 0.64833 0.0
C1057 C 0.08665 0.83234 0.67296 0.0
C1058 C 0.08147 0.758 0.62779 0.0
C1059 C 0.12584 0.85082 0.63741 0.0
H1060 H 0.17755 0.79411 0.55751 0.0
H1061 H 0.08422 0.81773 0.53301 0.0
H1062 H 0.17888 0.80457 0.62578 0.0
H1063 H 0.15599 0.77555 0.63277 0.0
H1064 H 0.1863 0.77526 0.60508 0.0
H1065 H 0.04536 0.82708 0.56687 0.0
H1066 H 0.0455 0.80341 0.59617 0.0
H1067 H 0.05902 0.83622 0.60279 0.0
H1068 H 0.04651 0.77454 0.67356 0.0
H1069 H 0.08648 0.85143 0.68354 0.0
H1070 H 0.10481 0.75179 0.61949 0.0
H1071 H 0.06546 0.75982 0.60873 0.0
H1072 H 0.07202 0.74246 0.6425 0.0
H1073 H 0.14921 0.84372 0.63028 0.0
H1074 H 0.12918 0.86619 0.65442 0.0
H1075 H 0.11429 0.85994 0.61814 0.0
C1076 C 0.19837 0.25487 0.33901 0.0
C1077 C 0.22859 0.25818 0.32742 0.0
C1078 C 0.17506 0.24135 0.32342 0.0
C1079 C 0.1821 0.2308 0.29546 0.0
C1080 C 0.21216 0.23506 0.28302 0.0
C1081 C 0.23512 0.24873 0.29919 0.0
C1082 C 0.14322 0.2375 0.33746 0.0
C1083 C 0.22054 0.22423 0.25328 0.0
C1084 C 0.13088 0.17141 0.28516 0.0
C1085 C 0.10479 0.18246 0.27121 0.0
C1086 C 0.15807 0.18625 0.29016 0.0
C1087 C 0.15888 0.21292 0.28137 0.0
C1088 C 0.13401 0.22319 0.26418 0.0
C1089 C 0.10709 0.20769 0.25916 0.0
C1090 C 0.18427 0.17424 0.30795 0.0
C1091 C 0.13424 0.25135 0.25387 0.0
H1092 H 0.19298 0.26272 0.36049 0.0
H1093 H 0.25847 0.25128 0.29011 0.0
H1094 H 0.12438 0.24401 0.32235 0.0
H1095 H 0.13932 0.2163 0.34203 0.0
H1096 H 0.14089 0.24849 0.35836 0.0
H1097 H 0.24231 0.23335 0.24443 0.0
H1098 H 0.22433 0.20272 0.25503 0.0
H1099 H 0.20112 0.22738 0.23747 0.0
H1100 H 0.12909 0.15173 0.29419 0.0
H1101 H 0.08684 0.21618 0.24832 0.0
H1102 H 0.1832 0.18187 0.3307 0.0
H1103 H 0.20752 0.17969 0.29878 0.0
H1104 H 0.18247 0.15246 0.3088 0.0
H1105 H 0.12708 0.26431 0.27222 0.0
H1106 H 0.1176 0.2544 0.23543 0.0
H1107 H 0.15812 0.25747 0.24684 0.0
C1108 C 0.27988 0.2685 0.82341 0.0
C1109 C 0.27232 0.24205 0.81829 0.0
C1110 C 0.30653 0.28006 0.81065 0.0
C1111 C 0.3259 0.26492 0.79196 0.0
C1112 C 0.31665 0.23908 0.78435 0.0
C1113 C 0.29012 0.22784 0.79781 0.0
C1114 C 0.31537 0.30778 0.8192 0.0
C1115 C 0.33612 0.22258 0.7638 0.0
C1116 C 0.39407 0.30376 0.75938 0.0
C1117 C 0.41714 0.29963 0.78074 0.0
C1118 C 0.36469 0.29104 0.76129 0.0
C1119 C 0.35832 0.27431 0.78545 0.0
C1120 C 0.38244 0.26877 0.80587 0.0
C1121 C 0.41151 0.2814 0.80315 0.0
C1122 C 0.33999 0.29695 0.73857 0.0
C1123 C 0.37689 0.251 0.83193 0.0
H1124 H 0.26572 0.27989 0.83848 0.0
H1125 H 0.28455 0.20739 0.79357 0.0
H1126 H 0.3365 0.30734 0.83344 0.0
H1127 H 0.32135 0.31954 0.79951 0.0
H1128 H 0.29619 0.31785 0.83125 0.0
H1129 H 0.32263 0.20547 0.75531 0.0
H1130 H 0.34462 0.23449 0.74502 0.0
H1131 H 0.35703 0.21507 0.77561 0.0
H1132 H 0.39812 0.3182 0.74242 0.0
H1133 H 0.42947 0.27799 0.81957 0.0
H1134 H 0.32427 0.31261 0.7469 0.0
H1135 H 0.32535 0.27937 0.73389 0.0
H1136 H 0.35074 0.304 0.71779 0.0
H1137 H 0.35923 0.26001 0.8467 0.0
H1138 H 0.3987 0.24747 0.8447 0.0
H1139 H 0.3674 0.23175 0.8247 0.0
C1140 C 0.73093 0.2464 0.71114 0.0
C1141 C 0.7255 0.23881 0.682 0.0
C1142 C 0.70776 0.25971 0.72729 0.0
C1143 C 0.67857 0.26549 0.71394 0.0
C1144 C 0.67262 0.25691 0.68493 0.0
C1145 C 0.69614 0.24373 0.66936 0.0
C1146 C 0.715 0.2685 0.75812 0.0
C1147 C 0.64171 0.26243 0.66987 0.0
C1148 C 0.60262 0.28727 0.74931 0.0
C1149 C 0.60152 0.31328 0.73941 0.0
C1150 C 0.62931 0.27173 0.74393 0.0
C1151 C 0.65518 0.28275 0.72858 0.0
C1152 C 0.65546 0.30996 0.72208 0.0
C1153 C 0.62845 0.32483 0.72735 0.0
C1154 C 0.62828 0.24293 0.75169 0.0
C1155 C 0.68274 0.32273 0.70635 0.0
H1156 H 0.75363 0.24264 0.72102 0.0
H1157 H 0.69158 0.23737 0.64709 0.0
H1158 H 0.71899 0.29006 0.75832 0.0
H1159 H 0.69491 0.26434 0.77291 0.0
H1160 H 0.73632 0.25877 0.76698 0.0
H1161 H 0.64009 0.25292 0.64803 0.0
H1162 H 0.62187 0.25536 0.68356 0.0
H1163 H 0.63883 0.28394 0.66695 0.0
H1164 H 0.58167 0.27837 0.75858 0.0
H1165 H 0.62749 0.34505 0.71984 0.0
H1166 H 0.65161 0.23594 0.75914 0.0
H1167 H 0.62172 0.23144 0.73196 0.0
H1168 H 0.61066 0.23884 0.76909 0.0
H1169 H 0.70542 0.31619 0.71576 0.0
H1170 H 0.68164 0.34452 0.70746 0.0
H1171 H 0.68236 0.31682 0.68296 0.0
C1172 C 0.7944 0.27349 0.21311 0.0
C1173 C 0.77601 0.25883 0.19338 0.0
C1174 C 0.82067 0.26231 0.22695 0.0
C1175 C 0.8292 0.23613 0.22034 0.0
C1176 C 0.80924 0.22062 0.20247 0.0
C1177 C 0.78276 0.23208 0.18948 0.0
C1178 C 0.84062 0.27917 0.24682 0.0
C1179 C 0.81731 0.19254 0.19497 0.0
C1180 C 0.91417 0.21881 0.20792 0.0
C1181 C 0.91987 0.2007 0.23042 0.0
C1182 C 0.88535 0.2317 0.20558 0.0
C1183 C 0.8616 0.2267 0.22658 0.0
C1184 C 0.86821 0.21028 0.25094 0.0
C1185 C 0.89729 0.19717 0.2524 0.0
C1186 C 0.87958 0.24906 0.17923 0.0
C1187 C 0.84404 0.2051 0.27441 0.0
H1188 H 0.78949 0.29414 0.2165 0.0
H1189 H 0.76808 0.22031 0.17517 0.0
H1190 H 0.84923 0.26763 0.26581 0.0
H1191 H 0.86144 0.2864 0.23458 0.0
H1192 H 0.82743 0.29649 0.25502 0.0
H1193 H 0.79785 0.18237 0.18331 0.0
H1194 H 0.83845 0.19225 0.18073 0.0
H1195 H 0.82296 0.18132 0.2151 0.0
H1196 H 0.9318 0.22185 0.19108 0.0
H1197 H 0.90143 0.18294 0.26957 0.0
H1198 H 0.87092 0.2686 0.18624 0.0
H1199 H 0.86121 0.24008 0.16515 0.0
H1200 H 0.90109 0.25199 0.16582 0.0
H1201 H 0.82931 0.22269 0.27845 0.0
H1202 H 0.85533 0.19908 0.2953 0.0
H1203 H 0.82834 0.18888 0.26726 0.0
C1204 C 0.81282 0.72494 0.68213 0.0
C1205 C 0.78404 0.72132 0.69649 0.0
C1206 C 0.83651 0.74065 0.69438 0.0
C1207 C 0.8313 0.75319 0.72167 0.0
C1208 C 0.80284 0.7487 0.73692 0.0
C1209 C 0.77951 0.73282 0.72413 0.0
C1210 C 0.86664 0.74475 0.67746 0.0
C1211 C 0.7964 0.76168 0.76601 0.0
C1212 C 0.90597 0.78406 0.75158 0.0
C1213 C 0.90483 0.8086 0.73774 0.0
C1214 C 0.8808 0.76621 0.74875 0.0
C1215 C 0.85412 0.7734 0.73195 0.0
C1216 C 0.85166 0.79929 0.72088 0.0
C1217 C 0.87715 0.8165 0.72377 0.0
C1218 C 0.88412 0.73895 0.76132 0.0
C1219 C 0.82343 0.80805 0.70339 0.0
H1220 H 0.81669 0.71566 0.66107 0.0
H1221 H 0.75725 0.73019 0.7353 0.0
H1222 H 0.86832 0.76553 0.67021 0.0
H1223 H 0.88723 0.74074 0.69166 0.0
H1224 H 0.86806 0.73192 0.65782 0.0
H1225 H 0.77565 0.75295 0.77718 0.0
H1226 H 0.81708 0.76005 0.78069 0.0
H1227 H 0.7919 0.78292 0.76253 0.0
H1228 H 0.92745 0.77796 0.76235 0.0
H1229 H 0.87625 0.83565 0.71332 0.0
H1230 H 0.89125 0.72525 0.74364 0.0
H1231 H 0.86146 0.73178 0.77035 0.0
H1232 H 0.90222 0.7383 0.77883 0.0
H1233 H 0.82374 0.79834 0.68163 0.0
H1234 H 0.82322 0.82967 0.69995 0.0
H1235 H 0.80133 0.80221 0.71452 0.0
C1236 C 0.72383 0.75739 0.21583 0.0
C1237 C 0.72018 0.76036 0.18539 0.0
C1238 C 0.70048 0.74515 0.23294 0.0
C1239 C 0.67306 0.73533 0.21922 0.0
C1240 C 0.66917 0.73843 0.18858 0.0
C1241 C 0.69263 0.75101 0.17214 0.0
C1242 C 0.70535 0.74239 0.26554 0.0
C1243 C 0.64031 0.72818 0.17298 0.0
C1244 C 0.62312 0.67831 0.24343 0.0
C1245 C 0.5947 0.69102 0.24922 0.0
C1246 C 0.65034 0.69273 0.23695 0.0
C1247 C 0.64883 0.72051 0.2361 0.0
C1248 C 0.6212 0.73337 0.24579 0.0
C1249 C 0.59423 0.71837 0.25219 0.0
C1250 C 0.6793 0.67812 0.22715 0.0
C1251 C 0.61885 0.76294 0.24592 0.0
H1252 H 0.74515 0.76431 0.2263 0.0
H1253 H 0.68919 0.75374 0.14882 0.0
H1254 H 0.68438 0.74945 0.27759 0.0
H1255 H 0.70847 0.72136 0.27122 0.0
H1256 H 0.72629 0.75348 0.27328 0.0
H1257 H 0.64078 0.73241 0.1491 0.0
H1258 H 0.63836 0.7066 0.17605 0.0
H1259 H 0.61888 0.73717 0.18244 0.0
H1260 H 0.62327 0.6571 0.24098 0.0
H1261 H 0.57209 0.72816 0.2564 0.0
H1262 H 0.70093 0.68756 0.23574 0.0
H1263 H 0.68063 0.67854 0.20287 0.0
H1264 H 0.67882 0.65726 0.23434 0.0
H1265 H 0.64101 0.77204 0.25377 0.0
H1266 H 0.59914 0.76977 0.25991 0.0
H1267 H 0.61466 0.76999 0.22325 0.0
C1268 C 0.30599 0.76469 0.3258 0.0
C1269 C 0.278 0.76903 0.31042 0.0
C1270 C 0.32988 0.749 0.314 0.0
C1271 C 0.32567 0.73721 0.28614 0.0
C1272 C 0.29791 0.74221 0.27005 0.0
C1273 C 0.27438 0.75809 0.28238 0.0
C1274 C 0.35924 0.74436 0.33183 0.0
C1275 C 0.29251 0.72997 0.24037 0.0
C1276 C 0.40163 0.70839 0.25698 0.0
C1277 C 0.40041 0.6833 0.26958 0.0
C1278 C 0.37618 0.72579 0.25998 0.0
C1279 C 0.34908 0.71765 0.27567 0.0
C1280 C 0.34659 0.69133 0.28545 0.0
C1281 C 0.37236 0.67453 0.28241 0.0
C1282 C 0.3796 0.75356 0.24883 0.0
C1283 C 0.31793 0.68158 0.30173 0.0
H1284 H 0.30917 0.7735 0.34721 0.0
H1285 H 0.25272 0.76128 0.27044 0.0
H1286 H 0.36063 0.72332 0.33811 0.0
H1287 H 0.38041 0.74901 0.31861 0.0
H1288 H 0.35981 0.75641 0.35211 0.0
H1289 H 0.27181 0.73852 0.22906 0.0
H1290 H 0.3135 0.73255 0.22624 0.0
H1291 H 0.28856 0.70853 0.24295 0.0
H1292 H 0.42333 0.7152 0.24706 0.0
H1293 H 0.3713 0.65498 0.29186 0.0
H1294 H 0.3857 0.7667 0.26739 0.0
H1295 H 0.35724 0.7607 0.23927 0.0
H1296 H 0.39844 0.75519 0.23206 0.0
H1297 H 0.31752 0.69035 0.32398 0.0
H1298 H 0.31778 0.65983 0.30403 0.0
H1299 H 0.29611 0.68768 0.29036 0.0
C1300 C 0.18884 0.74229 0.83905 0.0
C1301 C 0.21807 0.73648 0.82658 0.0
C1302 C 0.16596 0.75606 0.82325 0.0
C1303 C 0.17242 0.7643 0.79419 0.0
C1304 C 0.20144 0.75768 0.78105 0.0
C1305 C 0.22398 0.74386 0.79743 0.0
C1306 C 0.13521 0.76253 0.83809 0.0
C1307 C 0.20919 0.76605 0.75016 0.0
C1308 C 0.09771 0.78793 0.75792 0.0
C1309 C 0.09764 0.81409 0.76737 0.0
C1310 C 0.12363 0.77165 0.76382 0.0
C1311 C 0.1498 0.78207 0.77922 0.0
C1312 C 0.15122 0.80932 0.78525 0.0
C1313 C 0.12498 0.82496 0.77941 0.0
C1314 C 0.12146 0.74281 0.75648 0.0
C1315 C 0.17885 0.82144 0.80107 0.0
H1316 H 0.18386 0.73611 0.8613 0.0
H1317 H 0.24658 0.73946 0.78768 0.0
H1318 H 0.1331 0.78414 0.84068 0.0
H1319 H 0.11519 0.75583 0.82442 0.0
H1320 H 0.13313 0.7533 0.86007 0.0
H1321 H 0.23025 0.75578 0.74155 0.0
H1322 H 0.18908 0.76219 0.7353 0.0
H1323 H 0.21384 0.78752 0.74971 0.0
H1324 H 0.07648 0.77954 0.74862 0.0
H1325 H 0.12489 0.84531 0.7865 0.0
H1326 H 0.11433 0.73172 0.77635 0.0
H1327 H 0.14454 0.73509 0.74925 0.0
H1328 H 0.10379 0.73904 0.73906 0.0
H1329 H 0.17803 0.81571 0.82452 0.0
H1330 H 0.17864 0.84325 0.79974 0.0
H1331 H 0.20134 0.8142 0.79191 0.0
loop_
_geom_bond_atom_site_label_1
_geom_bond_atom_site_label_2
_geom_bond_distance
_geom_bond_site_symmetry_2
_ccdc_geom_bond_type
C0 C1 1.391 . S
C0 C4 1.391 . S
C0 H42 0.948 . S
C1 C0 1.391 . S
C1 C2 1.391 . S
C2 C1 1.391 . S
C2 H58 0.947 . S
C2 C59 1.392 . S
C3 C4 1.391 . S
C3 C7 1.397 . S
C3 C59 1.419 . S
C4 C0 1.391 . S
C4 C3 1.391 . S
C4 C5 1.399 . S
C5 C4 1.399 . S
C5 C8 1.396 . S
C5 C17 1.453 . S
C5 C18 1.684 . S
H6 C30 0.948 . S
C7 C3 1.397 . S
C7 C8 1.394 . S
C7 C26 1.723 . S
C8 C5 1.396 . S
C8 C7 1.394 . S
C8 C38 1.723 . S
H9 C32 0.947 . S
H10 C33 0.948 . S
H11 C39 0.982 . S
H12 C40 0.979 . S
H13 C40 0.980 . S
H14 C40 0.983 . S
H15 C39 0.979 . S
H16 C39 0.977 . S
C17 C5 1.453 . S
C17 H46 0.982 . S
C17 H47 0.979 . S
C17 H48 0.977 . S
C18 C5 1.684 . S
C18 H43 0.979 . S
C18 H44 0.980 . S
C18 H45 0.983 . S
C19 C20 1.391 . S
C19 C24 1.391 . S
C19 H49 0.948 . S
C20 C19 1.391 . S
C20 C21 1.391 . S
C21 C20 1.391 . S
C21 C22 1.392 . S
C21 H50 0.947 . S
C22 C21 1.392 . S
C22 C23 1.419 . S
C22 H51 0.948 . S
C23 C22 1.419 . S
C23 C24 1.391 . S
C23 C27 1.397 . S
C24 C19 1.391 . S
C24 C23 1.391 . S
C24 C25 1.399 . S
C25 C24 1.399 . S
C25 C26 1.396 . S
C25 C28 1.453 . S
C25 C29 1.684 . S
C26 C7 1.723 . S
C26 C25 1.396 . S
C26 C27 1.394 . S
C27 C23 1.397 . S
C27 C26 1.394 . S
C27 C37 1.723 . S
C28 C25 1.453 . S
C28 H52 0.982 . S
C28 H53 0.979 . S
C28 H54 0.977 . S
C29 C25 1.684 . S
C29 H55 0.979 . S
C29 H56 0.980 . S
C29 H57 0.983 . S
C30 H6 0.948 . S
C30 C31 1.391 . S
C30 C35 1.391 . S
C31 C30 1.391 . S
C31 C32 1.391 . S
C32 H9 0.947 . S
C32 C31 1.391 . S
C32 C33 1.392 . S
C33 H10 0.948 . S
C33 C32 1.392 . S
C33 C34 1.419 . S
C34 C33 1.419 . S
C34 C35 1.391 . S
C34 C38 1.397 . S
C35 C30 1.391 . S
C35 C34 1.391 . S
C35 C36 1.399 . S
C36 C35 1.399 . S
C36 C37 1.396 . S
C36 C39 1.453 . S
C36 C40 1.684 . S
C37 C27 1.723 . S
C37 C36 1.396 . S
C37 C38 1.394 . S
C38 C8 1.723 . S
C38 C34 1.397 . S
C38 C37 1.394 . S
C39 H11 0.982 . S
C39 H15 0.979 . S
C39 H16 0.977 . S
C39 C36 1.453 . S
C40 H12 0.979 . S
C40 H13 0.980 . S
C40 H14 0.983 . S
C40 C36 1.684 . S
H41 C59 0.948 . S
H42 C0 0.948 . S
H43 C18 0.979 . S
H44 C18 0.980 . S
H45 C18 0.983 . S
H46 C17 0.982 . S
H47 C17 0.979 . S
H48 C17 0.977 . S
H49 C19 0.948 . S
H50 C21 0.947 . S
H51 C22 0.948 . S
H52 C28 0.982 . S
H53 C28 0.979 . S
H54 C28 0.977 . S
H55 C29 0.979 . S
H56 C29 0.980 . S
H57 C29 0.983 . S
H58 C2 0.947 . S
C59 C2 1.392 . S
C59 C3 1.419 . S
C59 H41 0.948 . S
C60 C61 1.391 . S
C60 C64 1.391 . S
C60 H102 0.948 . S
C61 C60 1.391 . S
C61 C62 1.391 . S
C62 C61 1.391 . S
C62 H118 0.947 . S
C62 C119 1.392 . S
C63 C64 1.391 . S
C63 C67 1.397 . S
C63 C119 1.419 . S
C64 C60 1.391 . S
C64 C63 1.391 . S
C64 C65 1.399 . S
C65 C64 1.399 . S
C65 C68 1.396 . S
C65 C77 1.453 . S
C65 C78 1.684 . S
H66 C90 0.948 . S
C67 C63 1.397 . S
C67 C68 1.394 . S
C67 C86 1.723 . S
C68 C65 1.396 . S
C68 C67 1.394 . S
C68 C98 1.723 . S
H69 C92 0.947 . S
H70 C93 0.948 . S
H71 C99 0.982 . S
H72 C100 0.979 . S
H73 C100 0.980 . S
H74 C100 0.983 . S
H75 C99 0.979 . S
H76 C99 0.977 . S
C77 C65 1.453 . S
C77 H106 0.982 . S
C77 H107 0.979 . S
C77 H108 0.977 . S
C78 C65 1.684 . S
C78 H103 0.979 . S
C78 H104 0.980 . S
C78 H105 0.983 . S
C79 C80 1.391 1_556 S
C79 C84 1.391 . S
C79 H109 0.948 . S
C80 C79 1.391 1_554 S
C80 C81 1.391 1_554 S
C81 C80 1.391 1_556 S
C81 C82 1.392 . S
C81 H110 0.947 . S
C82 C81 1.392 . S
C82 C83 1.419 . S
C82 H111 0.948 . S
C83 C82 1.419 . S
C83 C84 1.391 . S
C83 C87 1.397 . S
C84 C79 1.391 . S
C84 C83 1.391 . S
C84 C85 1.399 . S
C85 C84 1.399 . S
C85 C86 1.396 . S
C85 C88 1.453 . S
C85 C89 1.684 . S
C86 C67 1.723 . S
C86 C85 1.396 . S
C86 C87 1.394 . S
C87 C83 1.397 . S
C87 C86 1.394 . S
C87 C97 1.723 . S
C88 C85 1.453 . S
C88 H112 0.982 . S
C88 H113 0.979 . S
C88 H114 0.977 . S
C89 C85 1.684 . S
C89 H115 0.979 . S
C89 H116 0.980 . S
C89 H117 0.983 . S
C90 H66 0.948 . S
C90 C91 1.391 . S
C90 C95 1.391 . S
C91 C90 1.391 . S
C91 C92 1.391 . S
C92 H69 0.947 . S
C92 C91 1.391 . S
C92 C93 1.392 . S
C93 H70 0.948 . S
C93 C92 1.392 . S
C93 C94 1.419 . S
C94 C93 1.419 . S
C94 C95 1.391 . S
C94 C98 1.397 . S
C95 C90 1.391 . S
C95 C94 1.391 . S
C95 C96 1.399 . S
C96 C95 1.399 . S
C96 C97 1.396 . S
C96 C99 1.453 . S
C96 C100 1.684 . S
C97 C87 1.723 . S
C97 C96 1.396 . S
C97 C98 1.394 . S
C98 C68 1.723 . S
C98 C94 1.397 . S
C98 C97 1.394 . S
C99 H71 0.982 . S
C99 H75 0.979 . S
C99 H76 0.977 . S
C99 C96 1.453 . S
C100 H72 0.979 . S
C100 H73 0.980 . S
C100 H74 0.983 . S
C100 C96 1.684 . S
H101 C119 0.948 . S
H102 C60 0.948 . S
H103 C78 0.979 . S
H104 C78 0.980 . S
H105 C78 0.983 . S
H106 C77 0.982 . S
H107 C77 0.979 . S
H108 C77 0.977 . S
H109 C79 0.948 . S
H110 C81 0.947 . S
H111 C82 0.948 . S
H112 C88 0.982 . S
H113 C88 0.979 . S
H114 C88 0.977 . S
H115 C89 0.979 . S
H116 C89 0.980 . S
H117 C89 0.983 . S
H118 C62 0.947 . S
C119 C62 1.392 . S
C119 C63 1.419 . S
C119 H101 0.948 . S
C120 C121 1.391 . S
C120 C124 1.391 . S
C120 H162 0.948 . S
C121 C120 1.391 . S
C121 C122 1.391 . S
C122 C121 1.391 . S
C122 H178 0.947 . S
C122 C179 1.392 . S
C123 C124 1.391 . S
C123 C127 1.397 . S
C123 C179 1.419 . S
C124 C120 1.391 . S
C124 C123 1.391 . S
C124 C125 1.399 . S
C125 C124 1.399 . S
C125 C128 1.396 . S
C125 C137 1.453 . S
C125 C138 1.684 . S
H126 C150 0.948 . S
C127 C123 1.397 . S
C127 C128 1.394 . S
C127 C146 1.723 . S
C128 C125 1.396 . S
C128 C127 1.394 . S
C128 C158 1.723 . S
H129 C152 0.947 . S
H130 C153 0.948 . S
H131 C159 0.982 . S
H132 C160 0.979 . S
H133 C160 0.980 . S
H134 C160 0.983 . S
H135 C159 0.979 . S
H136 C159 0.977 . S
C137 C125 1.453 . S
C137 H166 0.982 . S
C137 H167 0.979 . S
C137 H168 0.977 . S
C138 C125 1.684 . S
C138 H163 0.979 . S
C138 H164 0.980 . S
C138 H165 0.983 . S
C139 C140 1.391 . S
C139 C144 1.391 . S
C139 H169 0.948 . S
C140 C139 1.391 . S
C140 C141 1.391 . S
C141 C140 1.391 . S
C141 C142 1.392 . S
C141 H170 0.947 . S
C142 C141 1.392 . S
C142 C143 1.419 . S
C142 H171 0.948 . S
C143 C142 1.419 . S
C143 C144 1.391 . S
C143 C147 1.397 . S
C144 C139 1.391 . S
C144 C143 1.391 . S
C144 C145 1.399 . S
C145 C144 1.399 . S
C145 C146 1.396 . S
C145 C148 1.453 . S
C145 C149 1.684 . S
C146 C127 1.723 . S
C146 C145 1.396 . S
C146 C147 1.394 . S
C147 C143 1.397 . S
C147 C146 1.394 . S
C147 C157 1.723 . S
C148 C145 1.453 . S
C148 H172 0.982 . S
C148 H173 0.979 . S
C148 H174 0.977 . S
C149 C145 1.684 . S
C149 H175 0.979 . S
C149 H176 0.980 . S
C149 H177 0.983 . S
C150 H126 0.948 . S
C150 C151 1.391 . S
C150 C155 1.391 . S
C151 C150 1.391 . S
C151 C152 1.391 . S
C152 H129 0.947 . S
C152 C151 1.391 . S
C152 C153 1.392 . S
C153 H130 0.948 . S
C153 C152 1.392 . S
C153 C154 1.419 . S
C154 C153 1.419 . S
C154 C155 1.391 . S
C154 C158 1.397 . S
C155 C150 1.391 . S
C155 C154 1.391 . S
C155 C156 1.399 . S
C156 C155 1.399 . S
C156 C157 1.396 . S
C156 C159 1.453 . S
C156 C160 1.684 . S
C157 C147 1.723 . S
C157 C156 1.396 . S
C157 C158 1.394 . S
C158 C128 1.723 . S
C158 C154 1.397 . S
C158 C157 1.394 . S
C159 H131 0.982 . S
C159 H135 0.979 . S
C159 H136 0.977 . S
C159 C156 1.453 . S
C160 H132 0.979 . S
C160 H133 0.980 . S
C160 H134 0.983 . S
C160 C156 1.684 . S
H161 C179 0.948 . S
H162 C120 0.948 . S
H163 C138 0.979 . S
H164 C138 0.980 . S
H165 C138 0.983 . S
H166 C137 0.982 . S
H167 C137 0.979 . S
H168 C137 0.977 . S
H169 C139 0.948 . S
H170 C141 0.947 . S
H171 C142 0.948 . S
H172 C148 0.982 . S
H173 C148 0.979 . S
H174 C148 0.977 . S
H175 C149 0.979 . S
H176 C149 0.980 . S
H177 C149 0.983 . S
H178 C122 0.947 . S
C179 C122 1.392 . S
C179 C123 1.419 . S
C179 H161 0.948 . S
C180 C181 1.391 . S
C180 C184 1.391 . S
C180 H222 0.948 . S
C181 C180 1.391 . S
C181 C182 1.391 . S
C182 C181 1.391 . S
C182 H238 0.947 . S
C182 C239 1.392 . S
C183 C184 1.391 . S
C183 C187 1.397 . S
C183 C239 1.419 . S
C184 C180 1.391 . S
C184 C183 1.391 . S
C184 C185 1.399 . S
C185 C184 1.399 . S
C185 C188 1.396 . S
C185 C197 1.453 . S
C185 C198 1.684 . S
H186 C210 0.948 . S
C187 C183 1.397 . S
C187 C188 1.394 . S
C187 C206 1.723 . S
C188 C185 1.396 . S
C188 C187 1.394 . S
C188 C218 1.723 . S
H189 C212 0.947 . S
H190 C213 0.948 . S
H191 C219 0.982 . S
H192 C220 0.979 . S
H193 C220 0.980 . S
H194 C220 0.983 . S
H195 C219 0.979 . S
H196 C219 0.977 . S
C197 C185 1.453 . S
C197 H226 0.982 . S
C197 H227 0.979 . S
C197 H228 0.977 . S
C198 C185 1.684 . S
C198 H223 0.979 . S
C198 H224 0.980 . S
C198 H225 0.983 . S
C199 C200 1.393 . S
C199 C204 1.391 . S
C199 H229 0.948 . S
C200 C199 1.393 . S
C200 C201 1.393 . S
C201 C200 1.393 . S
C201 C202 1.392 . S
C201 H230 0.947 . S
C202 C201 1.392 . S
C202 C203 1.419 . S
C202 H231 0.948 . S
C203 C202 1.419 . S
C203 C204 1.391 . S
C203 C207 1.397 . S
C204 C199 1.391 . S
C204 C203 1.391 . S
C204 C205 1.399 . S
C205 C204 1.399 . S
C205 C206 1.396 . S
C205 C208 1.453 . S
C205 C209 1.684 . S
C206 C187 1.723 . S
C206 C205 1.396 . S
C206 C207 1.394 . S
C207 C203 1.397 . S
C207 C206 1.394 . S
C207 C217 1.723 . S
C208 C205 1.453 . S
C208 H232 0.982 . S
C208 H233 0.979 . S
C208 H234 0.977 . S
C209 C205 1.684 . S
C209 H235 0.979 . S
C209 H236 0.980 . S
C209 H237 0.983 . S
C210 H186 0.948 . S
C210 C211 1.391 . S
C210 C215 1.391 . S
C211 C210 1.391 . S
C211 C212 1.391 . S
C212 H189 0.947 . S
C212 C211 1.391 . S
C212 C213 1.392 . S
C213 H190 0.948 . S
C213 C212 1.392 . S
C213 C214 1.419 . S
C214 C213 1.419 . S
C214 C215 1.391 . S
C214 C218 1.397 . S
C215 C210 1.391 . S
C215 C214 1.391 . S
C215 C216 1.399 . S
C216 C215 1.399 . S
C216 C217 1.396 . S
C216 C219 1.453 . S
C216 C220 1.684 . S
C217 C207 1.723 . S
C217 C216 1.396 . S
C217 C218 1.394 . S
C218 C188 1.723 . S
C218 C214 1.397 . S
C218 C217 1.394 . S
C219 H191 0.982 . S
C219 H195 0.979 . S
C219 H196 0.977 . S
C219 C216 1.453 . S
C220 H192 0.979 . S
C220 H193 0.980 . S
C220 H194 0.983 . S
C220 C216 1.684 . S
H221 C239 0.948 . S
H222 C180 0.948 . S
H223 C198 0.979 . S
H224 C198 0.980 . S
H225 C198 0.983 . S
H226 C197 0.982 . S
H227 C197 0.979 . S
H228 C197 0.977 . S
H229 C199 0.948 . S
H230 C201 0.947 . S
H231 C202 0.948 . S
H232 C208 0.982 . S
H233 C208 0.979 . S
H234 C208 0.977 . S
H235 C209 0.979 . S
H236 C209 0.980 . S
H237 C209 0.983 . S
H238 C182 0.947 . S
C239 C182 1.392 . S
C239 C183 1.419 . S
C239 H221 0.948 . S
C240 C241 1.391 . S
C240 C244 1.391 . S
C240 H282 0.948 . S
C241 C240 1.391 . S
C241 C242 1.391 . S
C242 C241 1.391 . S
C242 H298 0.947 . S
C242 C299 1.392 . S
C243 C244 1.391 . S
C243 C247 1.397 . S
C243 C299 1.419 . S
C244 C240 1.391 . S
C244 C243 1.391 . S
C244 C245 1.399 . S
C245 C244 1.399 . S
C245 C248 1.396 . S
C245 C257 1.453 . S
C245 C258 1.684 . S
H246 C270 0.948 . S
C247 C243 1.397 . S
C247 C248 1.394 . S
C247 C266 1.723 . S
C248 C245 1.396 . S
C248 C247 1.394 . S
C248 C278 1.723 . S
H249 C272 0.947 . S
H250 C273 0.948 . S
H251 C279 0.982 . S
H252 C280 0.979 . S
H253 C280 0.980 . S
H254 C280 0.983 . S
H255 C279 0.979 . S
H256 C279 0.977 . S
C257 C245 1.453 . S
C257 H286 0.982 . S
C257 H287 0.979 . S
C257 H288 0.977 . S
C258 C245 1.684 . S
C258 H283 0.979 . S
C258 H284 0.980 . S
C258 H285 0.983 . S
C259 C260 1.391 . S
C259 C264 1.391 . S
C259 H289 0.948 . S
C260 C259 1.391 . S
C260 C261 1.391 . S
C261 C260 1.391 . S
C261 C262 1.392 . S
C261 H290 0.947 . S
C262 C261 1.392 . S
C262 C263 1.419 . S
C262 H291 0.948 . S
C263 C262 1.419 . S
C263 C264 1.391 . S
C263 C267 1.397 . S
C264 C259 1.391 . S
C264 C263 1.391 . S
C264 C265 1.399 . S
C265 C264 1.399 . S
C265 C266 1.396 . S
C265 C268 1.453 . S
C265 C269 1.684 . S
C266 C247 1.723 . S
C266 C265 1.396 . S
C266 C267 1.394 . S
C267 C263 1.397 . S
C267 C266 1.394 . S
C267 C277 1.723 . S
C268 C265 1.453 . S
C268 H292 0.982 . S
C268 H293 0.979 . S
C268 H294 0.977 . S
C269 C265 1.684 . S
C269 H295 0.979 . S
C269 H296 0.980 . S
C269 H297 0.983 . S
C270 H246 0.948 . S
C270 C271 1.391 . S
C270 C275 1.391 . S
C271 C270 1.391 . S
C271 C272 1.391 . S
C272 H249 0.947 . S
C272 C271 1.391 . S
C272 C273 1.392 . S
C273 H250 0.948 . S
C273 C272 1.392 . S
C273 C274 1.419 . S
C274 C273 1.419 . S
C274 C275 1.391 . S
C274 C278 1.397 . S
C275 C270 1.391 . S
C275 C274 1.391 . S
C275 C276 1.399 . S
C276 C275 1.399 . S
C276 C277 1.396 . S
C276 C279 1.453 . S
C276 C280 1.684 . S
C277 C267 1.723 . S
C277 C276 1.396 . S
C277 C278 1.394 . S
C278 C248 1.723 . S
C278 C274 1.397 . S
C278 C277 1.394 . S
C279 H251 0.982 . S
C279 H255 0.979 . S
C279 H256 0.977 . S
C279 C276 1.453 . S
C280 H252 0.979 . S
C280 H253 0.980 . S
C280 H254 0.983 . S
C280 C276 1.684 . S
H281 C299 0.948 . S
H282 C240 0.948 . S
H283 C258 0.979 . S
H284 C258 0.980 . S
H285 C258 0.983 . S
H286 C257 0.982 . S
H287 C257 0.979 . S
H288 C257 0.977 . S
H289 C259 0.948 . S
H290 C261 0.947 . S
H291 C262 0.948 . S
H292 C268 0.982 . S
H293 C268 0.979 . S
H294 C268 0.977 . S
H295 C269 0.979 . S
H296 C269 0.980 . S
H297 C269 0.983 . S
H298 C242 0.947 . S
C299 C242 1.392 . S
C299 C243 1.419 . S
C299 H281 0.948 . S
C300 C301 1.391 . S
C300 C304 1.391 . S
C300 H342 0.948 . S
C301 C300 1.391 . S
C301 C302 1.391 . S
C302 C301 1.391 . S
C302 H358 0.947 . S
C302 C359 1.392 . S
C303 C304 1.391 . S
C303 C307 1.397 . S
C303 C359 1.419 . S
C304 C300 1.391 . S
C304 C303 1.391 . S
C304 C305 1.399 . S
C305 C304 1.399 . S
C305 C308 1.396 . S
C305 C317 1.453 . S
C305 C318 1.684 . S
H306 C330 0.948 . S
C307 C303 1.397 . S
C307 C308 1.394 . S
C307 C326 1.723 . S
C308 C305 1.396 . S
C308 C307 1.394 . S
C308 C338 1.723 . S
H309 C332 0.947 . S
H310 C333 0.948 . S
H311 C339 0.982 . S
H312 C340 0.979 . S
H313 C340 0.980 . S
H314 C340 0.983 . S
H315 C339 0.979 . S
H316 C339 0.977 . S
C317 C305 1.453 . S
C317 H346 0.982 . S
C317 H347 0.979 . S
C317 H348 0.977 . S
C318 C305 1.684 . S
C318 H343 0.979 . S
C318 H344 0.980 . S
C318 H345 0.983 . S
C319 C320 1.391 1_554 S
C319 C324 1.391 . S
C319 H349 0.930 1_554 S
C320 C319 1.391 1_556 S
C320 C321 1.391 1_556 S
C321 C320 1.391 1_554 S
C321 C322 1.392 . S
C321 H350 0.958 . S
C322 C321 1.392 . S
C322 C323 1.419 . S
C322 H351 0.948 . S
C323 C322 1.419 . S
C323 C324 1.391 . S
C323 C327 1.397 . S
C324 C319 1.391 . S
C324 C323 1.391 . S
C324 C325 1.399 . S
C325 C324 1.399 . S
C325 C326 1.396 . S
C325 C328 1.453 . S
C325 C329 1.684 . S
C326 C307 1.723 . S
C326 C325 1.396 . S
C326 C327 1.394 . S
C327 C323 1.397 . S
C327 C326 1.394 . S
C327 C337 1.723 . S
C328 C325 1.453 . S
C328 H352 0.982 . S
C328 H353 0.979 . S
C328 H354 0.977 . S
C329 C325 1.684 . S
C329 H355 0.979 . S
C329 H356 0.980 . S
C329 H357 0.983 . S
C330 H306 0.948 . S
C330 C331 1.391 . S
C330 C335 1.391 . S
C331 C330 1.391 . S
C331 C332 1.391 . S
C332 H309 0.947 . S
C332 C331 1.391 . S
C332 C333 1.392 . S
C333 H310 0.948 . S
C333 C332 1.392 . S
C333 C334 1.419 . S
C334 C333 1.419 . S
C334 C335 1.391 . S
C334 C338 1.397 . S
C335 C330 1.391 . S
C335 C334 1.391 . S
C335 C336 1.399 . S
C336 C335 1.399 . S
C336 C337 1.396 . S
C336 C339 1.453 . S
C336 C340 1.684 . S
C337 C327 1.723 . S
C337 C336 1.396 . S
C337 C338 1.394 . S
C338 C308 1.723 . S
C338 C334 1.397 . S
C338 C337 1.394 . S
C339 H311 0.982 . S
C339 H315 0.979 . S
C339 H316 0.977 . S
C339 C336 1.453 . S
C340 H312 0.979 . S
C340 H313 0.980 . S
C340 H314 0.983 . S
C340 C336 1.684 . S
H341 C359 0.948 . S
H342 C300 0.948 . S
H343 C318 0.979 . S
H344 C318 0.980 . S
H345 C318 0.983 . S
H346 C317 0.982 . S
H347 C317 0.979 . S
H348 C317 0.977 . S
H349 C319 0.930 1_556 S
H350 C321 0.958 . S
H351 C322 0.948 . S
H352 C328 0.982 . S
H353 C328 0.979 . S
H354 C328 0.977 . S
H355 C329 0.979 . S
H356 C329 0.980 . S
H357 C329 0.983 . S
H358 C302 0.947 . S
C359 C302 1.392 . S
C359 C303 1.419 . S
C359 H341 0.948 . S
C360 C361 1.391 . S
C360 C364 1.391 . S
C360 H402 0.948 . S
C361 C360 1.391 . S
C361 C362 1.391 . S
C362 C361 1.391 . S
C362 H418 0.947 . S
C362 C419 1.392 . S
C363 C364 1.391 . S
C363 C367 1.397 . S
C363 C419 1.419 . S
C364 C360 1.391 . S
C364 C363 1.391 . S
C364 C365 1.399 . S
C365 C364 1.399 . S
C365 C368 1.396 . S
C365 C377 1.453 . S
C365 C378 1.684 . S
H366 C390 0.948 . S
C367 C363 1.397 . S
C367 C368 1.394 . S
C367 C386 1.723 . S
C368 C365 1.396 . S
C368 C367 1.394 . S
C368 C398 1.723 . S
H369 C392 0.947 . S
H370 C393 0.948 . S
H371 C399 0.982 . S
H372 C400 0.979 . S
H373 C400 0.980 . S
H374 C400 0.983 . S
H375 C399 0.979 . S
H376 C399 0.977 . S
C377 C365 1.453 . S
C377 H406 0.982 . S
C377 H407 0.979 . S
C377 H408 0.977 . S
C378 C365 1.684 . S
C378 H403 0.979 . S
C378 H404 0.980 . S
C378 H405 0.983 . S
C379 C380 1.391 . S
C379 C384 1.391 . S
C379 H409 0.948 . S
C380 C379 1.391 . S
C380 C381 1.391 . S
C381 C380 1.391 . S
C381 C382 1.392 . S
C381 H410 0.947 . S
C382 C381 1.392 . S
C382 C383 1.419 . S
C382 H411 0.948 . S
C383 C382 1.419 . S
C383 C384 1.391 . S
C383 C387 1.397 . S
C384 C379 1.391 . S
C384 C383 1.391 . S
C384 C385 1.399 . S
C385 C384 1.399 . S
C385 C386 1.396 . S
C385 C388 1.453 . S
C385 C389 1.684 . S
C386 C367 1.723 . S
C386 C385 1.396 . S
C386 C387 1.394 . S
C387 C383 1.397 . S
C387 C386 1.394 . S
C387 C397 1.723 . S
C388 C385 1.453 . S
C388 H412 0.982 . S
C388 H413 0.979 . S
C388 H414 0.977 . S
C389 C385 1.684 . S
C389 H415 0.979 . S
C389 H416 0.980 . S
C389 H417 0.983 . S
C390 H366 0.948 . S
C390 C391 1.391 . S
C390 C395 1.391 . S
C391 C390 1.391 . S
C391 C392 1.391 . S
C392 H369 0.947 . S
C392 C391 1.391 . S
C392 C393 1.392 . S
C393 H370 0.948 . S
C393 C392 1.392 . S
C393 C394 1.419 . S
C394 C393 1.419 . S
C394 C395 1.391 . S
C394 C398 1.397 . S
C395 C390 1.391 . S
C395 C394 1.391 . S
C395 C396 1.399 . S
C396 C395 1.399 . S
C396 C397 1.396 . S
C396 C399 1.453 . S
C396 C400 1.684 . S
C397 C387 1.723 . S
C397 C396 1.396 . S
C397 C398 1.394 . S
C398 C368 1.723 . S
C398 C394 1.397 . S
C398 C397 1.394 . S
C399 H371 0.982 . S
C399 H375 0.979 . S
C399 H376 0.977 . S
C399 C396 1.453 . S
C400 H372 0.979 . S
C400 H373 0.980 . S
C400 H374 0.983 . S
C400 C396 1.684 . S
H401 C419 0.948 . S
H402 C360 0.948 . S
H403 C378 0.979 . S
H404 C378 0.980 . S
H405 C378 0.983 . S
H406 C377 0.982 . S
H407 C377 0.979 . S
H408 C377 0.977 . S
H409 C379 0.948 . S
H410 C381 0.947 . S
H411 C382 0.948 . S
H412 C388 0.982 . S
H413 C388 0.979 . S
H414 C388 0.977 . S
H415 C389 0.979 . S
H416 C389 0.980 . S
H417 C389 0.983 . S
H418 C362 0.947 . S
C419 C362 1.392 . S
C419 C363 1.419 . S
C419 H401 0.948 . S
C420 C421 1.391 . S
C420 C424 1.391 . S
C420 H462 0.948 . S
C421 C420 1.391 . S
C421 C422 1.391 . S
C422 C421 1.391 . S
C422 H478 0.947 . S
C422 C479 1.392 . S
C423 C424 1.391 . S
C423 C427 1.397 . S
C423 C479 1.419 . S
C424 C420 1.391 . S
C424 C423 1.391 . S
C424 C425 1.399 . S
C425 C424 1.399 . S
C425 C428 1.396 . S
C425 C437 1.453 . S
C425 C438 1.684 . S
H426 C450 0.948 . S
C427 C423 1.397 . S
C427 C428 1.394 . S
C427 C446 1.723 . S
C428 C425 1.396 . S
C428 C427 1.394 . S
C428 C458 1.723 . S
H429 C452 0.947 . S
H430 C453 0.948 . S
H431 C459 0.982 . S
H432 C460 0.979 . S
H433 C460 0.980 . S
H434 C460 0.983 . S
H435 C459 0.979 . S
H436 C459 0.977 . S
C437 C425 1.453 . S
C437 H466 0.982 . S
C437 H467 0.979 . S
C437 H468 0.977 . S
C438 C425 1.684 . S
C438 H463 0.979 . S
C438 H464 0.980 . S
C438 H465 0.983 . S
C439 C440 1.391 1_556 S
C439 C444 1.391 . S
C439 H469 0.948 . S
C440 C439 1.391 1_554 S
C440 C441 1.391 1_554 S
C441 C440 1.391 1_556 S
C441 C442 1.392 . S
C441 H470 0.947 . S
C442 C441 1.392 . S
C442 C443 1.419 . S
C442 H471 0.948 . S
C443 C442 1.419 . S
C443 C444 1.391 . S
C443 C447 1.397 . S
C444 C439 1.391 . S
C444 C443 1.391 . S
C444 C445 1.399 . S
C445 C444 1.399 . S
C445 C446 1.396 . S
C445 C448 1.453 . S
C445 C449 1.684 . S
C446 C427 1.723 . S
C446 C445 1.396 . S
C446 C447 1.394 . S
C447 C443 1.397 . S
C447 C446 1.394 . S
C447 C457 1.723 . S
C448 C445 1.453 . S
C448 H472 0.982 . S
C448 H473 0.979 . S
C448 H474 0.977 . S
C449 C445 1.684 . S
C449 H475 0.979 . S
C449 H476 0.980 . S
C449 H477 0.983 . S
C450 H426 0.948 . S
C450 C451 1.391 . S
C450 C455 1.391 . S
C451 C450 1.391 . S
C451 C452 1.391 . S
C452 H429 0.947 . S
C452 C451 1.391 . S
C452 C453 1.392 . S
C453 H430 0.948 . S
C453 C452 1.392 . S
C453 C454 1.419 . S
C454 C453 1.419 . S
C454 C455 1.391 . S
C454 C458 1.397 . S
C455 C450 1.391 . S
C455 C454 1.391 . S
C455 C456 1.399 . S
C456 C455 1.399 . S
C456 C457 1.396 . S
C456 C459 1.453 . S
C456 C460 1.684 . S
C457 C447 1.723 . S
C457 C456 1.396 . S
C457 C458 1.394 . S
C458 C428 1.723 . S
C458 C454 1.397 . S
C458 C457 1.394 . S
C459 H431 0.982 . S
C459 H435 0.979 . S
C459 H436 0.977 . S
C459 C456 1.453 . S
C460 H432 0.979 . S
C460 H433 0.980 . S
C460 H434 0.983 . S
C460 C456 1.684 . S
H461 C479 0.948 . S
H462 C420 0.948 . S
H463 C438 0.979 . S
H464 C438 0.980 . S
H465 C438 0.983 . S
H466 C437 0.982 . S
H467 C437 0.979 . S
H468 C437 0.977 . S
H469 C439 0.948 . S
H470 C441 0.947 . S
H471 C442 0.948 . S
H472 C448 0.982 . S
H473 C448 0.979 . S
H474 C448 0.977 . S
H475 C449 0.979 . S
H476 C449 0.980 . S
H477 C449 0.983 . S
H478 C422 0.947 . S
C479 C422 1.392 . S
C479 C423 1.419 . S
C479 H461 0.948 . S
Zn480 O486 1.913 1_455 S
Zn480 O492 1.898 . S
Zn480 O495 1.905 . S
Zn481 O489 1.905 1_655 S
Zn481 O490 1.898 . S
Zn481 O498 1.920 . S
Zn482 O485 2.080 1_455 S
Zn482 O488 2.114 . S
Zn482 O491 2.120 1_455 S
Zn482 O493 2.120 . S
Zn482 O494 2.114 . S
Zn482 O497 2.080 1_455 S
C483 O488 1.166 . S
C483 O489 1.182 . S
C484 O490 1.167 . S
C484 O491 1.299 . S
O485 Zn482 2.080 1_655 S
O485 C499 1.305 . S
O486 Zn480 1.913 1_655 S
O486 C499 1.241 . S
C487 O492 1.167 . S
C487 O493 1.299 . S
O488 Zn482 2.114 . S
O488 C483 1.166 . S
O489 Zn481 1.905 1_455 S
O489 C483 1.182 . S
O490 Zn481 1.898 . S
O490 C484 1.167 . S
O491 Zn482 2.120 1_655 S
O491 C484 1.299 . S
O492 Zn480 1.898 . S
O492 C487 1.167 . S
O493 Zn482 2.120 . S
O493 C487 1.299 . S
O494 Zn482 2.114 . S
O494 C496 1.166 . S
O495 Zn480 1.905 . S
O495 C496 1.182 . S
C496 O494 1.166 . S
C496 O495 1.182 . S
O497 Zn482 2.080 1_655 S
O497 C500 1.305 . S
O498 Zn481 1.920 . S
O498 C500 1.234 . S
C499 O485 1.305 . S
C499 O486 1.241 . S
C500 O497 1.305 . S
C500 O498 1.234 . S
Zn501 O507 1.920 . S
Zn501 O513 1.898 . S
Zn501 O516 1.905 . S
Zn502 O510 1.905 . S
Zn502 O511 1.898 . S
Zn502 O519 1.920 . S
Zn503 O506 2.080 . S
Zn503 O509 2.114 . S
Zn503 O512 2.120 . S
Zn503 O514 2.120 . S
Zn503 O515 2.114 . S
Zn503 O518 2.080 . S
C504 O509 1.166 . S
C504 O510 1.182 . S
C505 O511 1.167 . S
C505 O512 1.299 . S
O506 Zn503 2.080 . S
O506 C520 1.305 . S
O507 Zn501 1.920 . S
O507 C520 1.234 . S
C508 O513 1.167 . S
C508 O514 1.299 . S
O509 Zn503 2.114 . S
O509 C504 1.166 . S
O510 Zn502 1.905 . S
O510 C504 1.182 . S
O511 Zn502 1.898 . S
O511 C505 1.167 . S
O512 Zn503 2.120 . S
O512 C505 1.299 . S
O513 Zn501 1.898 . S
O513 C508 1.167 . S
O514 Zn503 2.120 . S
O514 C508 1.299 . S
O515 Zn503 2.114 . S
O515 C517 1.166 . S
O516 Zn501 1.905 . S
O516 C517 1.182 . S
C517 O515 1.166 . S
C517 O516 1.182 . S
O518 Zn503 2.080 . S
O518 C521 1.305 . S
O519 Zn502 1.920 . S
O519 C521 1.234 . S
C520 O506 1.305 . S
C520 O507 1.234 . S
C521 O518 1.305 . S
C521 O519 1.234 . S
Zn522 O528 1.920 . S
Zn522 O534 1.898 . S
Zn522 O537 1.905 1_455 S
Zn523 O531 1.905 . S
Zn523 O532 1.898 . S
Zn523 O540 1.920 1_655 S
Zn524 O527 2.080 . S
Zn524 O530 2.114 1_455 S
Zn524 O533 2.120 1_455 S
Zn524 O535 2.120 . S
Zn524 O536 2.114 1_455 S
Zn524 O539 2.080 . S
C525 O530 1.166 . S
C525 O531 1.182 . S
C526 O532 1.167 . S
C526 O533 1.299 . S
O527 Zn524 2.080 . S
O527 C541 1.305 . S
O528 Zn522 1.920 . S
O528 C541 1.234 . S
C529 O534 1.167 . S
C529 O535 1.299 . S
O530 Zn524 2.114 1_655 S
O530 C525 1.166 . S
O531 Zn523 1.905 . S
O531 C525 1.182 . S
O532 Zn523 1.898 . S
O532 C526 1.167 . S
O533 Zn524 2.120 1_655 S
O533 C526 1.299 . S
O534 Zn522 1.898 . S
O534 C529 1.167 . S
O535 Zn524 2.120 . S
O535 C529 1.299 . S
O536 Zn524 2.114 1_655 S
O536 C538 1.166 . S
O537 Zn522 1.905 1_655 S
O537 C538 1.182 . S
C538 O536 1.166 . S
C538 O537 1.182 . S
O539 Zn524 2.080 . S
O539 C542 1.305 . S
O540 Zn523 1.920 1_455 S
O540 C542 1.234 . S
C541 O527 1.305 . S
C541 O528 1.234 . S
C542 O539 1.305 . S
C542 O540 1.234 . S
Zn543 O549 1.920 . S
Zn543 O555 1.898 . S
Zn543 O558 1.905 . S
Zn544 O552 1.905 . S
Zn544 O553 1.898 . S
Zn544 O561 1.920 . S
Zn545 O548 2.080 . S
Zn545 O551 2.114 . S
Zn545 O554 2.120 . S
Zn545 O556 2.120 . S
Zn545 O557 2.114 . S
Zn545 O560 2.080 . S
C546 O551 1.166 . S
C546 O552 1.182 . S
C547 O553 1.167 . S
C547 O554 1.299 . S
O548 Zn545 2.080 . S
O548 C562 1.305 . S
O549 Zn543 1.920 . S
O549 C562 1.234 . S
C550 O555 1.167 . S
C550 O556 1.299 . S
O551 Zn545 2.114 . S
O551 C546 1.166 . S
O552 Zn544 1.905 . S
O552 C546 1.182 . S
O553 Zn544 1.898 . S
O553 C547 1.167 . S
O554 Zn545 2.120 . S
O554 C547 1.299 . S
O555 Zn543 1.898 . S
O555 C550 1.167 . S
O556 Zn545 2.120 . S
O556 C550 1.299 . S
O557 Zn545 2.114 . S
O557 C559 1.166 . S
O558 Zn543 1.905 . S
O558 C559 1.182 . S
C559 O557 1.166 . S
C559 O558 1.182 . S
O560 Zn545 2.080 . S
O560 C563 1.305 . S
O561 Zn544 1.920 . S
O561 C563 1.234 . S
C562 O548 1.305 . S
C562 O549 1.234 . S
C563 O560 1.305 . S
C563 O561 1.234 . S
C564 C565 1.391 . S
C564 C566 1.394 . S
C564 H580 0.931 . S
C565 C564 1.391 . S
C565 C569 1.376 . S
C566 C564 1.394 . S
C566 C567 1.369 1_565 S
C566 C570 1.531 . S
C567 C566 1.369 1_545 S
C567 C568 1.410 . S
C567 C575 1.503 . S
C568 C567 1.410 . S
C568 C569 1.392 1_545 S
C568 C571 1.511 . S
C569 C565 1.376 . S
C569 C568 1.392 1_565 S
C569 H581 0.929 . S
C570 C566 1.531 . S
C570 H582 0.960 . S
C570 H583 0.962 . S
C570 H584 0.960 . S
C571 C568 1.511 . S
C571 H585 0.961 . S
C571 H586 0.961 . S
C571 H587 0.961 . S
C572 C573 1.370 . S
C572 C574 1.363 . S
C572 H588 0.931 . S
C573 C572 1.370 . S
C573 C577 1.408 . S
C574 C572 1.363 . S
C574 C575 1.370 . S
C574 C578 1.524 . S
C575 C567 1.503 . S
C575 C574 1.370 . S
C575 C576 1.403 . S
C576 C575 1.403 . S
C576 C577 1.404 . S
C576 C579 1.539 . S
C577 C573 1.408 . S
C577 C576 1.404 . S
C577 H589 0.930 . S
C578 C574 1.524 . S
C578 H590 0.956 . S
C578 H591 0.961 . S
C578 H592 0.961 . S
C579 C576 1.539 . S
C579 H593 0.958 . S
C579 H594 0.961 . S
C579 H595 0.960 . S
H580 C564 0.931 . S
H581 C569 0.929 . S
H582 C570 0.960 . S
H583 C570 0.962 . S
H584 C570 0.960 . S
H585 C571 0.961 . S
H586 C571 0.961 . S
H587 C571 0.961 . S
H588 C572 0.931 . S
H589 C577 0.930 . S
H590 C578 0.956 . S
H591 C578 0.961 . S
H592 C578 0.961 . S
H593 C579 0.958 . S
H594 C579 0.961 . S
H595 C579 0.960 . S
C596 C597 1.391 . S
C596 C598 1.394 . S
C596 H612 0.931 . S
C597 C596 1.391 . S
C597 C601 1.376 . S
C598 C596 1.394 . S
C598 C599 1.369 . S
C598 C602 1.531 . S
C599 C598 1.369 . S
C599 C600 1.410 . S
C599 C607 1.503 . S
C600 C599 1.410 . S
C600 C601 1.392 . S
C600 C603 1.511 . S
C601 C597 1.376 . S
C601 C600 1.392 . S
C601 H613 0.929 . S
C602 C598 1.531 . S
C602 H614 0.960 . S
C602 H615 0.962 . S
C602 H616 0.960 . S
C603 C600 1.511 . S
C603 H617 0.961 . S
C603 H618 0.961 . S
C603 H619 0.961 . S
C604 C605 1.370 . S
C604 C606 1.363 . S
C604 H620 0.931 . S
C605 C604 1.370 . S
C605 C609 1.408 . S
C606 C604 1.363 . S
C606 C607 1.370 . S
C606 C610 1.524 . S
C607 C599 1.503 . S
C607 C606 1.370 . S
C607 C608 1.403 . S
C608 C607 1.403 . S
C608 C609 1.404 . S
C608 C611 1.539 . S
C609 C605 1.408 . S
C609 C608 1.404 . S
C609 H621 0.930 . S
C610 C606 1.524 . S
C610 H622 0.956 . S
C610 H623 0.961 . S
C610 H624 0.961 . S
C611 C608 1.539 . S
C611 H625 0.958 . S
C611 H626 0.961 . S
C611 H627 0.960 . S
H612 C596 0.931 . S
H613 C601 0.929 . S
H614 C602 0.960 . S
H615 C602 0.962 . S
H616 C602 0.960 . S
H617 C603 0.961 . S
H618 C603 0.961 . S
H619 C603 0.961 . S
H620 C604 0.931 . S
H621 C609 0.930 . S
H622 C610 0.956 . S
H623 C610 0.961 . S
H624 C610 0.961 . S
H625 C611 0.958 . S
H626 C611 0.961 . S
H627 C611 0.960 . S
C628 C629 1.391 . S
C628 C630 1.394 . S
C628 H644 0.931 . S
C629 C628 1.391 . S
C629 C633 1.376 . S
C630 C628 1.394 . S
C630 C631 1.369 . S
C630 C634 1.531 . S
C631 C630 1.369 . S
C631 C632 1.410 . S
C631 C639 1.503 . S
C632 C631 1.410 . S
C632 C633 1.392 . S
C632 C635 1.511 . S
C633 C629 1.376 . S
C633 C632 1.392 . S
C633 H645 0.929 . S
C634 C630 1.531 . S
C634 H646 0.960 . S
C634 H647 0.962 . S
C634 H648 0.960 . S
C635 C632 1.511 . S
C635 H649 0.961 . S
C635 H650 0.961 . S
C635 H651 0.961 . S
C636 C637 1.370 . S
C636 C638 1.363 . S
C636 H652 0.931 . S
C637 C636 1.370 . S
C637 C641 1.408 . S
C638 C636 1.363 . S
C638 C639 1.370 . S
C638 C642 1.524 . S
C639 C631 1.503 . S
C639 C638 1.370 . S
C639 C640 1.403 . S
C640 C639 1.403 . S
C640 C641 1.404 . S
C640 C643 1.539 . S
C641 C637 1.408 . S
C641 C640 1.404 . S
C641 H653 0.930 . S
C642 C638 1.524 . S
C642 H654 0.956 . S
C642 H655 0.961 . S
C642 H656 0.961 . S
C643 C640 1.539 . S
C643 H657 0.958 . S
C643 H658 0.961 . S
C643 H659 0.960 . S
H644 C628 0.931 . S
H645 C633 0.929 . S
H646 C634 0.960 . S
H647 C634 0.962 . S
H648 C634 0.960 . S
H649 C635 0.961 . S
H650 C635 0.961 . S
H651 C635 0.961 . S
H652 C636 0.931 . S
H653 C641 0.930 . S
H654 C642 0.956 . S
H655 C642 0.961 . S
H656 C642 0.961 . S
H657 C643 0.958 . S
H658 C643 0.961 . S
H659 C643 0.960 . S
C660 C661 1.391 . S
C660 C662 1.394 . S
C660 H676 0.931 . S
C661 C660 1.391 . S
C661 C665 1.376 . S
C662 C660 1.394 . S
C662 C663 1.369 1_565 S
C662 C666 1.531 . S
C663 C662 1.369 1_545 S
C663 C664 1.410 . S
C663 C671 1.503 . S
C664 C663 1.410 . S
C664 C665 1.392 1_545 S
C664 C667 1.511 . S
C665 C661 1.376 . S
C665 C664 1.392 1_565 S
C665 H677 0.929 . S
C666 C662 1.531 . S
C666 H678 0.960 1_565 S
C666 H679 0.962 . S
C666 H680 0.960 . S
C667 C664 1.511 . S
C667 H681 0.961 . S
C667 H682 0.961 . S
C667 H683 0.961 . S
C668 C669 1.370 . S
C668 C670 1.363 . S
C668 H684 0.931 . S
C669 C668 1.370 . S
C669 C673 1.408 . S
C670 C668 1.363 . S
C670 C671 1.370 . S
C670 C674 1.524 . S
C671 C663 1.503 . S
C671 C670 1.370 . S
C671 C672 1.403 . S
C672 C671 1.403 . S
C672 C673 1.404 . S
C672 C675 1.539 . S
C673 C669 1.408 . S
C673 C672 1.404 . S
C673 H685 0.930 . S
C674 C670 1.524 . S
C674 H686 0.956 1_545 S
C674 H687 0.961 . S
C674 H688 0.961 . S
C675 C672 1.539 . S
C675 H689 0.958 . S
C675 H690 0.961 . S
C675 H691 0.960 . S
H676 C660 0.931 . S
H677 C665 0.929 . S
H678 C666 0.960 1_545 S
H679 C666 0.962 . S
H680 C666 0.960 . S
H681 C667 0.961 . S
H682 C667 0.961 . S
H683 C667 0.961 . S
H684 C668 0.931 . S
H685 C673 0.930 . S
H686 C674 0.956 1_565 S
H687 C674 0.961 . S
H688 C674 0.961 . S
H689 C675 0.958 . S
H690 C675 0.961 . S
H691 C675 0.960 . S
C692 C693 1.391 . S
C692 C694 1.394 . S
C692 H708 0.931 . S
C693 C692 1.391 . S
C693 C697 1.376 . S
C694 C692 1.394 . S
C694 C695 1.369 1_545 S
C694 C698 1.531 . S
C695 C694 1.369 1_565 S
C695 C696 1.414 . S
C695 C703 1.503 . S
C696 C695 1.414 . S
C696 C697 1.358 1_565 S
C696 C699 1.541 . S
C697 C693 1.376 . S
C697 C696 1.358 1_545 S
C697 H709 0.929 . S
C698 C694 1.531 . S
C698 H710 0.960 . S
C698 H711 0.962 . S
C698 H712 0.960 . S
C699 C696 1.541 . S
C699 H713 0.961 . S
C699 H714 0.961 . S
C699 H715 0.961 . S
C700 C701 1.370 . S
C700 C702 1.363 . S
C700 H716 0.931 . S
C701 C700 1.370 . S
C701 C705 1.408 . S
C702 C700 1.363 . S
C702 C703 1.370 . S
C702 C706 1.524 . S
C703 C695 1.503 . S
C703 C702 1.370 . S
C703 C704 1.403 . S
C704 C703 1.403 . S
C704 C705 1.404 . S
C704 C707 1.539 . S
C705 C701 1.408 . S
C705 C704 1.404 . S
C705 H717 0.930 . S
C706 C702 1.524 . S
C706 H718 0.956 . S
C706 H719 0.961 . S
C706 H720 0.961 . S
C707 C704 1.539 . S
C707 H721 0.958 . S
C707 H722 0.961 . S
C707 H723 0.960 . S
H708 C692 0.931 . S
H709 C697 0.929 . S
H710 C698 0.960 . S
H711 C698 0.962 . S
H712 C698 0.960 . S
H713 C699 0.961 . S
H714 C699 0.961 . S
H715 C699 0.961 . S
H716 C700 0.931 . S
H717 C705 0.930 . S
H718 C706 0.956 . S
H719 C706 0.961 . S
H720 C706 0.961 . S
H721 C707 0.958 . S
H722 C707 0.961 . S
H723 C707 0.960 . S
C724 C725 1.391 . S
C724 C726 1.394 . S
C724 H740 0.931 . S
C725 C724 1.391 . S
C725 C729 1.376 . S
C726 C724 1.394 . S
C726 C727 1.369 . S
C726 C730 1.531 . S
C727 C726 1.369 . S
C727 C728 1.410 . S
C727 C735 1.503 . S
C728 C727 1.410 . S
C728 C729 1.392 . S
C728 C731 1.511 . S
C729 C725 1.376 . S
C729 C728 1.392 . S
C729 H741 0.929 . S
C730 C726 1.531 . S
C730 H742 0.960 . S
C730 H743 0.962 . S
C730 H744 0.960 . S
C731 C728 1.511 . S
C731 H745 0.961 . S
C731 H746 0.961 . S
C731 H747 0.961 . S
C732 C733 1.370 . S
C732 C734 1.363 . S
C732 H748 0.931 . S
C733 C732 1.370 . S
C733 C737 1.408 . S
C734 C732 1.363 . S
C734 C735 1.370 . S
C734 C738 1.524 . S
C735 C727 1.503 . S
C735 C734 1.370 . S
C735 C736 1.403 . S
C736 C735 1.403 . S
C736 C737 1.404 . S
C736 C739 1.539 . S
C737 C733 1.408 . S
C737 C736 1.404 . S
C737 H749 0.930 . S
C738 C734 1.524 . S
C738 H750 0.956 . S
C738 H751 0.961 . S
C738 H752 0.961 . S
C739 C736 1.539 . S
C739 H753 0.958 . S
C739 H754 0.961 . S
C739 H755 0.960 . S
H740 C724 0.931 . S
H741 C729 0.929 . S
H742 C730 0.960 . S
H743 C730 0.962 . S
H744 C730 0.960 . S
H745 C731 0.961 . S
H746 C731 0.961 . S
H747 C731 0.961 . S
H748 C732 0.931 . S
H749 C737 0.930 . S
H750 C738 0.956 . S
H751 C738 0.961 . S
H752 C738 0.961 . S
H753 C739 0.958 . S
H754 C739 0.961 . S
H755 C739 0.960 . S
C756 C757 1.391 . S
C756 C758 1.394 . S
C756 H772 0.931 . S
C757 C756 1.391 . S
C757 C761 1.376 . S
C758 C756 1.394 . S
C758 C759 1.369 . S
C758 C762 1.531 . S
C759 C758 1.369 . S
C759 C760 1.410 . S
C759 C767 1.503 . S
C760 C759 1.410 . S
C760 C761 1.392 . S
C760 C763 1.511 . S
C761 C757 1.376 . S
C761 C760 1.392 . S
C761 H773 0.929 . S
C762 C758 1.531 . S
C762 H774 0.960 . S
C762 H775 0.962 . S
C762 H776 0.960 . S
C763 C760 1.511 . S
C763 H777 0.961 . S
C763 H778 0.961 . S
C763 H779 0.961 . S
C764 C765 1.370 . S
C764 C766 1.363 . S
C764 H780 0.931 . S
C765 C764 1.370 . S
C765 C769 1.408 . S
C766 C764 1.363 . S
C766 C767 1.370 . S
C766 C770 1.524 . S
C767 C759 1.503 . S
C767 C766 1.370 . S
C767 C768 1.403 . S
C768 C767 1.403 . S
C768 C769 1.404 . S
C768 C771 1.539 . S
C769 C765 1.408 . S
C769 C768 1.404 . S
C769 H781 0.930 . S
C770 C766 1.524 . S
C770 H782 0.956 . S
C770 H783 0.961 . S
C770 H784 0.961 . S
C771 C768 1.539 . S
C771 H785 0.958 . S
C771 H786 0.961 . S
C771 H787 0.960 . S
H772 C756 0.931 . S
H773 C761 0.929 . S
H774 C762 0.960 . S
H775 C762 0.962 . S
H776 C762 0.960 . S
H777 C763 0.961 . S
H778 C763 0.961 . S
H779 C763 0.961 . S
H780 C764 0.931 . S
H781 C769 0.930 . S
H782 C770 0.956 . S
H783 C770 0.961 . S
H784 C770 0.961 . S
H785 C771 0.958 . S
H786 C771 0.961 . S
H787 C771 0.960 . S
C788 C789 1.391 . S
C788 C790 1.357 1_545 S
C788 H804 0.931 . S
C789 C788 1.391 . S
C789 C793 1.376 . S
C790 C788 1.357 1_565 S
C790 C791 1.372 . S
C790 C794 1.566 . S
C791 C790 1.372 . S
C791 C792 1.410 1_565 S
C791 C799 1.503 . S
C792 C791 1.410 1_545 S
C792 C793 1.392 . S
C792 C795 1.511 . S
C793 C789 1.376 . S
C793 C792 1.392 . S
C793 H805 0.929 . S
C794 C790 1.566 . S
C794 H806 0.960 . S
C794 H807 0.962 . S
C794 H808 0.960 . S
C795 C792 1.511 . S
C795 H809 0.961 . S
C795 H810 0.961 . S
C795 H811 0.961 . S
C796 C797 1.370 . S
C796 C798 1.363 . S
C796 H812 0.931 . S
C797 C796 1.370 . S
C797 C801 1.408 . S
C798 C796 1.363 . S
C798 C799 1.370 . S
C798 C802 1.524 . S
C799 C791 1.503 . S
C799 C798 1.370 . S
C799 C800 1.403 . S
C800 C799 1.403 . S
C800 C801 1.404 . S
C800 C803 1.539 . S
C801 C797 1.408 . S
C801 C800 1.404 . S
C801 H813 0.930 . S
C802 C798 1.524 . S
C802 H814 0.956 . S
C802 H815 0.961 . S
C802 H816 0.961 . S
C803 C800 1.539 . S
C803 H817 0.958 . S
C803 H818 0.961 . S
C803 H819 0.960 . S
H804 C788 0.931 . S
H805 C793 0.929 . S
H806 C794 0.960 . S
H807 C794 0.962 . S
H808 C794 0.960 . S
H809 C795 0.961 . S
H810 C795 0.961 . S
H811 C795 0.961 . S
H812 C796 0.931 . S
H813 C801 0.930 . S
H814 C802 0.956 . S
H815 C802 0.961 . S
H816 C802 0.961 . S
H817 C803 0.958 . S
H818 C803 0.961 . S
H819 C803 0.960 . S
C820 C821 1.391 . S
C820 C822 1.394 . S
C820 H836 0.931 . S
C821 C820 1.391 . S
C821 C825 1.376 . S
C822 C820 1.394 . S
C822 C823 1.369 . S
C822 C826 1.531 . S
C823 C822 1.369 . S
C823 C824 1.410 . S
C823 C831 1.503 . S
C824 C823 1.410 . S
C824 C825 1.392 . S
C824 C827 1.511 . S
C825 C821 1.376 . S
C825 C824 1.392 . S
C825 H837 0.929 . S
C826 C822 1.531 . S
C826 H838 0.960 . S
C826 H839 0.962 . S
C826 H840 0.960 . S
C827 C824 1.511 . S
C827 H841 0.961 . S
C827 H842 0.961 . S
C827 H843 0.961 . S
C828 C829 1.370 . S
C828 C830 1.363 . S
C828 H844 0.931 . S
C829 C828 1.370 . S
C829 C833 1.408 . S
C830 C828 1.363 . S
C830 C831 1.370 . S
C830 C834 1.524 . S
C831 C823 1.503 . S
C831 C830 1.370 . S
C831 C832 1.403 . S
C832 C831 1.403 . S
C832 C833 1.404 . S
C832 C835 1.539 . S
C833 C829 1.408 . S
C833 C832 1.404 . S
C833 H845 0.930 . S
C834 C830 1.524 . S
C834 H846 0.956 . S
C834 H847 0.961 . S
C834 H848 0.961 . S
C835 C832 1.539 . S
C835 H849 0.958 . S
C835 H850 0.961 . S
C835 H851 0.960 . S
H836 C820 0.931 . S
H837 C825 0.929 . S
H838 C826 0.960 . S
H839 C826 0.962 . S
H840 C826 0.960 . S
H841 C827 0.961 . S
H842 C827 0.961 . S
H843 C827 0.961 . S
H844 C828 0.931 . S
H845 C833 0.930 . S
H846 C834 0.956 . S
H847 C834 0.961 . S
H848 C834 0.961 . S
H849 C835 0.958 . S
H850 C835 0.961 . S
H851 C835 0.960 . S
C852 C853 1.391 . S
C852 C854 1.394 . S
C852 H868 0.931 . S
C853 C852 1.391 . S
C853 C857 1.376 . S
C854 C852 1.394 . S
C854 C855 1.369 . S
C854 C858 1.531 . S
C855 C854 1.369 . S
C855 C856 1.410 . S
C855 C863 1.503 . S
C856 C855 1.410 . S
C856 C857 1.392 . S
C856 C859 1.511 . S
C857 C853 1.376 . S
C857 C856 1.392 . S
C857 H869 0.929 . S
C858 C854 1.531 . S
C858 H870 0.960 . S
C858 H871 0.962 . S
C858 H872 0.960 . S
C859 C856 1.511 . S
C859 H873 0.961 . S
C859 H874 0.961 . S
C859 H875 0.961 . S
C860 C861 1.370 . S
C860 C862 1.363 . S
C860 H876 0.931 . S
C861 C860 1.370 . S
C861 C865 1.408 . S
C862 C860 1.363 . S
C862 C863 1.370 . S
C862 C866 1.524 . S
C863 C855 1.503 . S
C863 C862 1.370 . S
C863 C864 1.403 . S
C864 C863 1.403 . S
C864 C865 1.404 . S
C864 C867 1.539 . S
C865 C861 1.408 . S
C865 C864 1.404 . S
C865 H877 0.930 . S
C866 C862 1.524 . S
C866 H878 0.956 . S
C866 H879 0.961 . S
C866 H880 0.961 . S
C867 C864 1.539 . S
C867 H881 0.958 . S
C867 H882 0.961 . S
C867 H883 0.960 . S
H868 C852 0.931 . S
H869 C857 0.929 . S
H870 C858 0.960 . S
H871 C858 0.962 . S
H872 C858 0.960 . S
H873 C859 0.961 . S
H874 C859 0.961 . S
H875 C859 0.961 . S
H876 C860 0.931 . S
H877 C865 0.930 . S
H878 C866 0.956 . S
H879 C866 0.961 . S
H880 C866 0.961 . S
H881 C867 0.958 . S
H882 C867 0.961 . S
H883 C867 0.960 . S
C884 C885 1.391 . S
C884 C886 1.394 . S
C884 H900 0.931 . S
C885 C884 1.391 . S
C885 C889 1.376 . S
C886 C884 1.394 . S
C886 C887 1.369 . S
C886 C890 1.531 . S
C887 C886 1.369 . S
C887 C888 1.410 . S
C887 C895 1.503 . S
C888 C887 1.410 . S
C888 C889 1.392 . S
C888 C891 1.511 . S
C889 C885 1.376 . S
C889 C888 1.392 . S
C889 H901 0.929 . S
C890 C886 1.531 . S
C890 H902 0.960 . S
C890 H903 0.962 . S
C890 H904 0.960 . S
C891 C888 1.511 . S
C891 H905 0.961 . S
C891 H906 0.961 . S
C891 H907 0.961 . S
C892 C893 1.370 . S
C892 C894 1.363 . S
C892 H908 0.931 . S
C893 C892 1.370 . S
C893 C897 1.408 . S
C894 C892 1.363 . S
C894 C895 1.370 . S
C894 C898 1.524 . S
C895 C887 1.503 . S
C895 C894 1.370 . S
C895 C896 1.403 . S
C896 C895 1.403 . S
C896 C897 1.404 . S
C896 C899 1.539 . S
C897 C893 1.408 . S
C897 C896 1.404 . S
C897 H909 0.930 . S
C898 C894 1.524 . S
C898 H910 0.956 . S
C898 H911 0.961 . S
C898 H912 0.961 . S
C899 C896 1.539 . S
C899 H913 0.958 . S
C899 H914 0.961 . S
C899 H915 0.960 . S
H900 C884 0.931 . S
H901 C889 0.929 . S
H902 C890 0.960 . S
H903 C890 0.962 . S
H904 C890 0.960 . S
H905 C891 0.961 . S
H906 C891 0.961 . S
H907 C891 0.961 . S
H908 C892 0.931 . S
H909 C897 0.930 . S
H910 C898 0.956 . S
H911 C898 0.961 . S
H912 C898 0.961 . S
H913 C899 0.958 . S
H914 C899 0.961 . S
H915 C899 0.960 . S
C916 C917 1.391 . S
C916 C918 1.394 . S
C916 H932 0.931 . S
C917 C916 1.391 . S
C917 C921 1.376 . S
C918 C916 1.394 . S
C918 C919 1.369 . S
C918 C922 1.531 . S
C919 C918 1.369 . S
C919 C920 1.410 . S
C919 C927 1.503 . S
C920 C919 1.410 . S
C920 C921 1.392 . S
C920 C923 1.511 . S
C921 C917 1.376 . S
C921 C920 1.392 . S
C921 H933 0.929 . S
C922 C918 1.531 . S
C922 H934 0.960 . S
C922 H935 0.962 . S
C922 H936 0.960 . S
C923 C920 1.511 . S
C923 H937 0.961 . S
C923 H938 0.961 . S
C923 H939 0.961 . S
C924 C925 1.370 . S
C924 C926 1.363 . S
C924 H940 0.931 . S
C925 C924 1.370 . S
C925 C929 1.408 . S
C926 C924 1.363 . S
C926 C927 1.370 . S
C926 C930 1.524 . S
C927 C919 1.503 . S
C927 C926 1.370 . S
C927 C928 1.403 . S
C928 C927 1.403 . S
C928 C929 1.404 . S
C928 C931 1.539 . S
C929 C925 1.408 . S
C929 C928 1.404 . S
C929 H941 0.930 . S
C930 C926 1.524 . S
C930 H942 0.956 . S
C930 H943 0.961 . S
C930 H944 0.961 . S
C931 C928 1.539 . S
C931 H945 0.958 . S
C931 H946 0.961 . S
C931 H947 0.960 . S
H932 C916 0.931 . S
H933 C921 0.929 . S
H934 C922 0.960 . S
H935 C922 0.962 . S
H936 C922 0.960 . S
H937 C923 0.961 . S
H938 C923 0.961 . S
H939 C923 0.961 . S
H940 C924 0.931 . S
H941 C929 0.930 . S
H942 C930 0.956 . S
H943 C930 0.961 . S
H944 C930 0.961 . S
H945 C931 0.958 . S
H946 C931 0.961 . S
H947 C931 0.960 . S
C948 C949 1.391 . S
C948 C950 1.394 . S
C948 H964 0.931 . S
C949 C948 1.391 . S
C949 C953 1.376 . S
C950 C948 1.394 . S
C950 C951 1.369 . S
C950 C954 1.531 . S
C951 C950 1.369 . S
C951 C952 1.410 . S
C951 C959 1.503 . S
C952 C951 1.410 . S
C952 C953 1.392 . S
C952 C955 1.511 . S
C953 C949 1.376 . S
C953 C952 1.392 . S
C953 H965 0.929 . S
C954 C950 1.531 . S
C954 H966 0.960 . S
C954 H967 0.962 . S
C954 H968 0.960 . S
C955 C952 1.511 . S
C955 H969 0.961 . S
C955 H970 0.961 . S
C955 H971 0.961 . S
C956 C957 1.370 . S
C956 C958 1.363 . S
C956 H972 0.931 . S
C957 C956 1.370 . S
C957 C961 1.408 . S
C958 C956 1.363 . S
C958 C959 1.370 . S
C958 C962 1.524 . S
C959 C951 1.503 . S
C959 C958 1.370 . S
C959 C960 1.403 . S
C960 C959 1.403 . S
C960 C961 1.404 . S
C960 C963 1.539 . S
C961 C957 1.408 . S
C961 C960 1.404 . S
C961 H973 0.930 . S
C962 C958 1.524 . S
C962 H974 0.956 . S
C962 H975 0.961 . S
C962 H976 0.961 . S
C963 C960 1.539 . S
C963 H977 0.958 . S
C963 H978 0.961 . S
C963 H979 0.960 . S
H964 C948 0.931 . S
H965 C953 0.929 . S
H966 C954 0.960 . S
H967 C954 0.962 . S
H968 C954 0.960 . S
H969 C955 0.961 . S
H970 C955 0.961 . S
H971 C955 0.961 . S
H972 C956 0.931 . S
H973 C961 0.930 . S
H974 C962 0.956 . S
H975 C962 0.961 . S
H976 C962 0.961 . S
H977 C963 0.958 . S
H978 C963 0.961 . S
H979 C963 0.960 . S
C980 C981 1.391 . S
C980 C982 1.394 . S
C980 H996 0.931 . S
C981 C980 1.391 . S
C981 C985 1.376 . S
C982 C980 1.394 . S
C982 C983 1.369 . S
C982 C986 1.531 . S
C983 C982 1.369 . S
C983 C984 1.410 . S
C983 C991 1.503 . S
C984 C983 1.410 . S
C984 C985 1.392 . S
C984 C987 1.511 . S
C985 C981 1.376 . S
C985 C984 1.392 . S
C985 H997 0.929 . S
C986 C982 1.531 . S
C986 H998 0.960 . S
C986 H999 0.962 . S
C986 H1000 0.960 . S
C987 C984 1.511 . S
C987 H1001 0.961 . S
C987 H1002 0.961 . S
C987 H1003 0.961 . S
C988 C989 1.370 . S
C988 C990 1.363 . S
C988 H1004 0.931 . S
C989 C988 1.370 . S
C989 C993 1.408 . S
C990 C988 1.363 . S
C990 C991 1.370 . S
C990 C994 1.524 . S
C991 C983 1.503 . S
C991 C990 1.370 . S
C991 C992 1.403 . S
C992 C991 1.403 . S
C992 C993 1.404 . S
C992 C995 1.539 . S
C993 C989 1.408 . S
C993 C992 1.404 . S
C993 H1005 0.930 . S
C994 C990 1.524 . S
C994 H1006 0.956 . S
C994 H1007 0.961 . S
C994 H1008 0.961 . S
C995 C992 1.539 . S
C995 H1009 0.958 . S
C995 H1010 0.961 . S
C995 H1011 0.960 . S
H996 C980 0.931 . S
H997 C985 0.929 . S
H998 C986 0.960 . S
H999 C986 0.962 . S
H1000 C986 0.960 . S
H1001 C987 0.961 . S
H1002 C987 0.961 . S
H1003 C987 0.961 . S
H1004 C988 0.931 . S
H1005 C993 0.930 . S
H1006 C994 0.956 . S
H1007 C994 0.961 . S
H1008 C994 0.961 . S
H1009 C995 0.958 . S
H1010 C995 0.961 . S
H1011 C995 0.960 . S
C1012 C1013 1.391 . S
C1012 C1014 1.394 . S
C1012 H1028 0.931 . S
C1013 C1012 1.391 . S
C1013 C1017 1.376 . S
C1014 C1012 1.394 . S
C1014 C1015 1.369 . S
C1014 C1018 1.531 . S
C1015 C1014 1.369 . S
C1015 C1016 1.410 . S
C1015 C1023 1.503 . S
C1016 C1015 1.410 . S
C1016 C1017 1.392 . S
C1016 C1019 1.511 . S
C1017 C1013 1.376 . S
C1017 C1016 1.392 . S
C1017 H1029 0.929 . S
C1018 C1014 1.531 . S
C1018 H1030 0.960 . S
C1018 H1031 0.962 . S
C1018 H1032 0.960 . S
C1019 C1016 1.511 . S
C1019 H1033 0.961 . S
C1019 H1034 0.961 . S
C1019 H1035 0.961 . S
C1020 C1021 1.370 . S
C1020 C1022 1.363 . S
C1020 H1036 0.931 . S
C1021 C1020 1.370 . S
C1021 C1025 1.408 . S
C1022 C1020 1.363 . S
C1022 C1023 1.370 . S
C1022 C1026 1.524 . S
C1023 C1015 1.503 . S
C1023 C1022 1.370 . S
C1023 C1024 1.403 . S
C1024 C1023 1.403 . S
C1024 C1025 1.404 . S
C1024 C1027 1.539 . S
C1025 C1021 1.408 . S
C1025 C1024 1.404 . S
C1025 H1037 0.930 . S
C1026 C1022 1.524 . S
C1026 H1038 0.956 . S
C1026 H1039 0.961 . S
C1026 H1040 0.961 . S
C1027 C1024 1.539 . S
C1027 H1041 0.958 . S
C1027 H1042 0.961 . S
C1027 H1043 0.960 . S
H1028 C1012 0.931 . S
H1029 C1017 0.929 . S
H1030 C1018 0.960 . S
H1031 C1018 0.962 . S
H1032 C1018 0.960 . S
H1033 C1019 0.961 . S
H1034 C1019 0.961 . S
H1035 C1019 0.961 . S
H1036 C1020 0.931 . S
H1037 C1025 0.930 . S
H1038 C1026 0.956 . S
H1039 C1026 0.961 . S
H1040 C1026 0.961 . S
H1041 C1027 0.958 . S
H1042 C1027 0.961 . S
H1043 C1027 0.960 . S
C1044 C1045 1.391 . S
C1044 C1046 1.394 . S
C1044 H1060 0.931 . S
C1045 C1044 1.391 . S
C1045 C1049 1.376 . S
C1046 C1044 1.394 . S
C1046 C1047 1.369 . S
C1046 C1050 1.531 . S
C1047 C1046 1.369 . S
C1047 C1048 1.410 . S
C1047 C1055 1.503 . S
C1048 C1047 1.410 . S
C1048 C1049 1.392 . S
C1048 C1051 1.511 . S
C1049 C1045 1.376 . S
C1049 C1048 1.392 . S
C1049 H1061 0.929 . S
C1050 C1046 1.531 . S
C1050 H1062 0.960 . S
C1050 H1063 0.962 . S
C1050 H1064 0.960 . S
C1051 C1048 1.511 . S
C1051 H1065 0.961 . S
C1051 H1066 0.961 . S
C1051 H1067 0.961 . S
C1052 C1053 1.370 . S
C1052 C1054 1.363 . S
C1052 H1068 0.931 . S
C1053 C1052 1.370 . S
C1053 C1057 1.408 . S
C1054 C1052 1.363 . S
C1054 C1055 1.370 . S
C1054 C1058 1.524 . S
C1055 C1047 1.503 . S
C1055 C1054 1.370 . S
C1055 C1056 1.403 . S
C1056 C1055 1.403 . S
C1056 C1057 1.404 . S
C1056 C1059 1.539 . S
C1057 C1053 1.408 . S
C1057 C1056 1.404 . S
C1057 H1069 0.930 . S
C1058 C1054 1.524 . S
C1058 H1070 0.956 . S
C1058 H1071 0.961 . S
C1058 H1072 0.961 . S
C1059 C1056 1.539 . S
C1059 H1073 0.958 . S
C1059 H1074 0.961 . S
C1059 H1075 0.960 . S
H1060 C1044 0.931 . S
H1061 C1049 0.929 . S
H1062 C1050 0.960 . S
H1063 C1050 0.962 . S
H1064 C1050 0.960 . S
H1065 C1051 0.961 . S
H1066 C1051 0.961 . S
H1067 C1051 0.961 . S
H1068 C1052 0.931 . S
H1069 C1057 0.930 . S
H1070 C1058 0.956 . S
H1071 C1058 0.961 . S
H1072 C1058 0.961 . S
H1073 C1059 0.958 . S
H1074 C1059 0.961 . S
H1075 C1059 0.960 . S
C1076 C1077 1.391 . S
C1076 C1078 1.394 . S
C1076 H1092 0.931 . S
C1077 C1076 1.391 . S
C1077 C1081 1.376 . S
C1078 C1076 1.394 . S
C1078 C1079 1.369 . S
C1078 C1082 1.531 . S
C1079 C1078 1.369 . S
C1079 C1080 1.410 . S
C1079 C1087 1.503 . S
C1080 C1079 1.410 . S
C1080 C1081 1.392 . S
C1080 C1083 1.511 . S
C1081 C1077 1.376 . S
C1081 C1080 1.392 . S
C1081 H1093 0.929 . S
C1082 C1078 1.531 . S
C1082 H1094 0.960 . S
C1082 H1095 0.962 . S
C1082 H1096 0.960 . S
C1083 C1080 1.511 . S
C1083 H1097 0.961 . S
C1083 H1098 0.961 . S
C1083 H1099 0.961 . S
C1084 C1085 1.370 . S
C1084 C1086 1.363 . S
C1084 H1100 0.931 . S
C1085 C1084 1.370 . S
C1085 C1089 1.408 . S
C1086 C1084 1.363 . S
C1086 C1087 1.370 . S
C1086 C1090 1.524 . S
C1087 C1079 1.503 . S
C1087 C1086 1.370 . S
C1087 C1088 1.403 . S
C1088 C1087 1.403 . S
C1088 C1089 1.404 . S
C1088 C1091 1.539 . S
C1089 C1085 1.408 . S
C1089 C1088 1.404 . S
C1089 H1101 0.930 . S
C1090 C1086 1.524 . S
C1090 H1102 0.956 . S
C1090 H1103 0.961 . S
C1090 H1104 0.961 . S
C1091 C1088 1.539 . S
C1091 H1105 0.958 . S
C1091 H1106 0.961 . S
C1091 H1107 0.960 . S
H1092 C1076 0.931 . S
H1093 C1081 0.929 . S
H1094 C1082 0.960 . S
H1095 C1082 0.962 . S
H1096 C1082 0.960 . S
H1097 C1083 0.961 . S
H1098 C1083 0.961 . S
H1099 C1083 0.961 . S
H1100 C1084 0.931 . S
H1101 C1089 0.930 . S
H1102 C1090 0.956 . S
H1103 C1090 0.961 . S
H1104 C1090 0.961 . S
H1105 C1091 0.958 . S
H1106 C1091 0.961 . S
H1107 C1091 0.960 . S
C1108 C1109 1.391 . S
C1108 C1110 1.394 . S
C1108 H1124 0.931 . S
C1109 C1108 1.391 . S
C1109 C1113 1.376 . S
C1110 C1108 1.394 . S
C1110 C1111 1.369 . S
C1110 C1114 1.531 . S
C1111 C1110 1.369 . S
C1111 C1112 1.410 . S
C1111 C1119 1.503 . S
C1112 C1111 1.410 . S
C1112 C1113 1.392 . S
C1112 C1115 1.511 . S
C1113 C1109 1.376 . S
C1113 C1112 1.392 . S
C1113 H1125 0.929 . S
C1114 C1110 1.531 . S
C1114 H1126 0.960 . S
C1114 H1127 0.962 . S
C1114 H1128 0.960 . S
C1115 C1112 1.511 . S
C1115 H1129 0.961 . S
C1115 H1130 0.961 . S
C1115 H1131 0.961 . S
C1116 C1117 1.370 . S
C1116 C1118 1.363 . S
C1116 H1132 0.931 . S
C1117 C1116 1.370 . S
C1117 C1121 1.408 . S
C1118 C1116 1.363 . S
C1118 C1119 1.370 . S
C1118 C1122 1.524 . S
C1119 C1111 1.503 . S
C1119 C1118 1.370 . S
C1119 C1120 1.403 . S
C1120 C1119 1.403 . S
C1120 C1121 1.404 . S
C1120 C1123 1.539 . S
C1121 C1117 1.408 . S
C1121 C1120 1.404 . S
C1121 H1133 0.930 . S
C1122 C1118 1.524 . S
C1122 H1134 0.956 . S
C1122 H1135 0.961 . S
C1122 H1136 0.961 . S
C1123 C1120 1.539 . S
C1123 H1137 0.958 . S
C1123 H1138 0.961 . S
C1123 H1139 0.960 . S
H1124 C1108 0.931 . S
H1125 C1113 0.929 . S
H1126 C1114 0.960 . S
H1127 C1114 0.962 . S
H1128 C1114 0.960 . S
H1129 C1115 0.961 . S
H1130 C1115 0.961 . S
H1131 C1115 0.961 . S
H1132 C1116 0.931 . S
H1133 C1121 0.930 . S
H1134 C1122 0.956 . S
H1135 C1122 0.961 . S
H1136 C1122 0.961 . S
H1137 C1123 0.958 . S
H1138 C1123 0.961 . S
H1139 C1123 0.960 . S
C1140 C1141 1.391 . S
C1140 C1142 1.394 . S
C1140 H1156 0.931 . S
C1141 C1140 1.391 . S
C1141 C1145 1.376 . S
C1142 C1140 1.394 . S
C1142 C1143 1.369 . S
C1142 C1146 1.531 . S
C1143 C1142 1.369 . S
C1143 C1144 1.410 . S
C1143 C1151 1.503 . S
C1144 C1143 1.410 . S
C1144 C1145 1.392 . S
C1144 C1147 1.511 . S
C1145 C1141 1.376 . S
C1145 C1144 1.392 . S
C1145 H1157 0.929 . S
C1146 C1142 1.531 . S
C1146 H1158 0.960 . S
C1146 H1159 0.962 . S
C1146 H1160 0.960 . S
C1147 C1144 1.511 . S
C1147 H1161 0.961 . S
C1147 H1162 0.961 . S
C1147 H1163 0.961 . S
C1148 C1149 1.370 . S
C1148 C1150 1.363 . S
C1148 H1164 0.931 . S
C1149 C1148 1.370 . S
C1149 C1153 1.408 . S
C1150 C1148 1.363 . S
C1150 C1151 1.370 . S
C1150 C1154 1.524 . S
C1151 C1143 1.503 . S
C1151 C1150 1.370 . S
C1151 C1152 1.403 . S
C1152 C1151 1.403 . S
C1152 C1153 1.404 . S
C1152 C1155 1.539 . S
C1153 C1149 1.408 . S
C1153 C1152 1.404 . S
C1153 H1165 0.930 . S
C1154 C1150 1.524 . S
C1154 H1166 0.956 . S
C1154 H1167 0.961 . S
C1154 H1168 0.961 . S
C1155 C1152 1.539 . S
C1155 H1169 0.958 . S
C1155 H1170 0.961 . S
C1155 H1171 0.960 . S
H1156 C1140 0.931 . S
H1157 C1145 0.929 . S
H1158 C1146 0.960 . S
H1159 C1146 0.962 . S
H1160 C1146 0.960 . S
H1161 C1147 0.961 . S
H1162 C1147 0.961 . S
H1163 C1147 0.961 . S
H1164 C1148 0.931 . S
H1165 C1153 0.930 . S
H1166 C1154 0.956 . S
H1167 C1154 0.961 . S
H1168 C1154 0.961 . S
H1169 C1155 0.958 . S
H1170 C1155 0.961 . S
H1171 C1155 0.960 . S
C1172 C1173 1.391 . S
C1172 C1174 1.394 . S
C1172 H1188 0.931 . S
C1173 C1172 1.391 . S
C1173 C1177 1.376 . S
C1174 C1172 1.394 . S
C1174 C1175 1.369 . S
C1174 C1178 1.531 . S
C1175 C1174 1.369 . S
C1175 C1176 1.410 . S
C1175 C1183 1.503 . S
C1176 C1175 1.410 . S
C1176 C1177 1.392 . S
C1176 C1179 1.511 . S
C1177 C1173 1.376 . S
C1177 C1176 1.392 . S
C1177 H1189 0.929 . S
C1178 C1174 1.531 . S
C1178 H1190 0.960 . S
C1178 H1191 0.962 . S
C1178 H1192 0.960 . S
C1179 C1176 1.511 . S
C1179 H1193 0.961 . S
C1179 H1194 0.961 . S
C1179 H1195 0.961 . S
C1180 C1181 1.370 . S
C1180 C1182 1.363 . S
C1180 H1196 0.931 . S
C1181 C1180 1.370 . S
C1181 C1185 1.408 . S
C1182 C1180 1.363 . S
C1182 C1183 1.370 . S
C1182 C1186 1.524 . S
C1183 C1175 1.503 . S
C1183 C1182 1.370 . S
C1183 C1184 1.403 . S
C1184 C1183 1.403 . S
C1184 C1185 1.404 . S
C1184 C1187 1.539 . S
C1185 C1181 1.408 . S
C1185 C1184 1.404 . S
C1185 H1197 0.930 . S
C1186 C1182 1.524 . S
C1186 H1198 0.956 . S
C1186 H1199 0.961 . S
C1186 H1200 0.961 . S
C1187 C1184 1.539 . S
C1187 H1201 0.958 . S
C1187 H1202 0.961 . S
C1187 H1203 0.960 . S
H1188 C1172 0.931 . S
H1189 C1177 0.929 . S
H1190 C1178 0.960 . S
H1191 C1178 0.962 . S
H1192 C1178 0.960 . S
H1193 C1179 0.961 . S
H1194 C1179 0.961 . S
H1195 C1179 0.961 . S
H1196 C1180 0.931 . S
H1197 C1185 0.930 . S
H1198 C1186 0.956 . S
H1199 C1186 0.961 . S
H1200 C1186 0.961 . S
H1201 C1187 0.958 . S
H1202 C1187 0.961 . S
H1203 C1187 0.960 . S
C1204 C1205 1.391 . S
C1204 C1206 1.394 . S
C1204 H1220 0.931 . S
C1205 C1204 1.391 . S
C1205 C1209 1.376 . S
C1206 C1204 1.394 . S
C1206 C1207 1.369 . S
C1206 C1210 1.531 . S
C1207 C1206 1.369 . S
C1207 C1208 1.410 . S
C1207 C1215 1.503 . S
C1208 C1207 1.410 . S
C1208 C1209 1.392 . S
C1208 C1211 1.511 . S
C1209 C1205 1.376 . S
C1209 C1208 1.392 . S
C1209 H1221 0.929 . S
C1210 C1206 1.531 . S
C1210 H1222 0.960 . S
C1210 H1223 0.962 . S
C1210 H1224 0.960 . S
C1211 C1208 1.511 . S
C1211 H1225 0.961 . S
C1211 H1226 0.961 . S
C1211 H1227 0.961 . S
C1212 C1213 1.370 . S
C1212 C1214 1.363 . S
C1212 H1228 0.931 . S
C1213 C1212 1.370 . S
C1213 C1217 1.408 . S
C1214 C1212 1.363 . S
C1214 C1215 1.370 . S
C1214 C1218 1.524 . S
C1215 C1207 1.503 . S
C1215 C1214 1.370 . S
C1215 C1216 1.403 . S
C1216 C1215 1.403 . S
C1216 C1217 1.404 . S
C1216 C1219 1.539 . S
C1217 C1213 1.408 . S
C1217 C1216 1.404 . S
C1217 H1229 0.930 . S
C1218 C1214 1.524 . S
C1218 H1230 0.956 . S
C1218 H1231 0.961 . S
C1218 H1232 0.961 . S
C1219 C1216 1.539 . S
C1219 H1233 0.958 . S
C1219 H1234 0.961 . S
C1219 H1235 0.960 . S
H1220 C1204 0.931 . S
H1221 C1209 0.929 . S
H1222 C1210 0.960 . S
H1223 C1210 0.962 . S
H1224 C1210 0.960 . S
H1225 C1211 0.961 . S
H1226 C1211 0.961 . S
H1227 C1211 0.961 . S
H1228 C1212 0.931 . S
H1229 C1217 0.930 . S
H1230 C1218 0.956 . S
H1231 C1218 0.961 . S
H1232 C1218 0.961 . S
H1233 C1219 0.958 . S
H1234 C1219 0.961 . S
H1235 C1219 0.960 . S
C1236 C1237 1.391 . S
C1236 C1238 1.394 . S
C1236 H1252 0.931 . S
C1237 C1236 1.391 . S
C1237 C1241 1.376 . S
C1238 C1236 1.394 . S
C1238 C1239 1.369 . S
C1238 C1242 1.531 . S
C1239 C1238 1.369 . S
C1239 C1240 1.410 . S
C1239 C1247 1.503 . S
C1240 C1239 1.410 . S
C1240 C1241 1.392 . S
C1240 C1243 1.511 . S
C1241 C1237 1.376 . S
C1241 C1240 1.392 . S
C1241 H1253 0.929 . S
C1242 C1238 1.531 . S
C1242 H1254 0.960 . S
C1242 H1255 0.962 . S
C1242 H1256 0.960 . S
C1243 C1240 1.511 . S
C1243 H1257 0.961 . S
C1243 H1258 0.961 . S
C1243 H1259 0.961 . S
C1244 C1245 1.370 . S
C1244 C1246 1.363 . S
C1244 H1260 0.931 . S
C1245 C1244 1.370 . S
C1245 C1249 1.408 . S
C1246 C1244 1.363 . S
C1246 C1247 1.370 . S
C1246 C1250 1.524 . S
C1247 C1239 1.503 . S
C1247 C1246 1.370 . S
C1247 C1248 1.403 . S
C1248 C1247 1.403 . S
C1248 C1249 1.404 . S
C1248 C1251 1.539 . S
C1249 C1245 1.408 . S
C1249 C1248 1.404 . S
C1249 H1261 0.930 . S
C1250 C1246 1.524 . S
C1250 H1262 0.956 . S
C1250 H1263 0.961 . S
C1250 H1264 0.961 . S
C1251 C1248 1.539 . S
C1251 H1265 0.958 . S
C1251 H1266 0.961 . S
C1251 H1267 0.960 . S
H1252 C1236 0.931 . S
H1253 C1241 0.929 . S
H1254 C1242 0.960 . S
H1255 C1242 0.962 . S
H1256 C1242 0.960 . S
H1257 C1243 0.961 . S
H1258 C1243 0.961 . S
H1259 C1243 0.961 . S
H1260 C1244 0.931 . S
H1261 C1249 0.930 . S
H1262 C1250 0.956 . S
H1263 C1250 0.961 . S
H1264 C1250 0.961 . S
H1265 C1251 0.958 . S
H1266 C1251 0.961 . S
H1267 C1251 0.960 . S
C1268 C1269 1.391 . S
C1268 C1270 1.394 . S
C1268 H1284 0.931 . S
C1269 C1268 1.391 . S
C1269 C1273 1.376 . S
C1270 C1268 1.394 . S
C1270 C1271 1.369 . S
C1270 C1274 1.531 . S
C1271 C1270 1.369 . S
C1271 C1272 1.410 . S
C1271 C1279 1.503 . S
C1272 C1271 1.410 . S
C1272 C1273 1.392 . S
C1272 C1275 1.511 . S
C1273 C1269 1.376 . S
C1273 C1272 1.392 . S
C1273 H1285 0.929 . S
C1274 C1270 1.531 . S
C1274 H1286 0.960 . S
C1274 H1287 0.962 . S
C1274 H1288 0.960 . S
C1275 C1272 1.511 . S
C1275 H1289 0.961 . S
C1275 H1290 0.961 . S
C1275 H1291 0.961 . S
C1276 C1277 1.370 . S
C1276 C1278 1.363 . S
C1276 H1292 0.931 . S
C1277 C1276 1.370 . S
C1277 C1281 1.408 . S
C1278 C1276 1.363 . S
C1278 C1279 1.370 . S
C1278 C1282 1.524 . S
C1279 C1271 1.503 . S
C1279 C1278 1.370 . S
C1279 C1280 1.403 . S
C1280 C1279 1.403 . S
C1280 C1281 1.404 . S
C1280 C1283 1.539 . S
C1281 C1277 1.408 . S
C1281 C1280 1.404 . S
C1281 H1293 0.930 . S
C1282 C1278 1.524 . S
C1282 H1294 0.956 . S
C1282 H1295 0.961 . S
C1282 H1296 0.961 . S
C1283 C1280 1.539 . S
C1283 H1297 0.958 . S
C1283 H1298 0.961 . S
C1283 H1299 0.960 . S
H1284 C1268 0.931 . S
H1285 C1273 0.929 . S
H1286 C1274 0.960 . S
H1287 C1274 0.962 . S
H1288 C1274 0.960 . S
H1289 C1275 0.961 . S
H1290 C1275 0.961 . S
H1291 C1275 0.961 . S
H1292 C1276 0.931 . S
H1293 C1281 0.930 . S
H1294 C1282 0.956 . S
H1295 C1282 0.961 . S
H1296 C1282 0.961 . S
H1297 C1283 0.958 . S
H1298 C1283 0.961 . S
H1299 C1283 0.960 . S
C1300 C1301 1.391 . S
C1300 C1302 1.394 . S
C1300 H1316 0.931 . S
C1301 C1300 1.391 . S
C1301 C1305 1.376 . S
C1302 C1300 1.394 . S
C1302 C1303 1.369 . S
C1302 C1306 1.531 . S
C1303 C1302 1.369 . S
C1303 C1304 1.410 . S
C1303 C1311 1.503 . S
C1304 C1303 1.410 . S
C1304 C1305 1.392 . S
C1304 C1307 1.511 . S
C1305 C1301 1.376 . S
C1305 C1304 1.392 . S
C1305 H1317 0.929 . S
C1306 C1302 1.531 . S
C1306 H1318 0.960 . S
C1306 H1319 0.962 . S
C1306 H1320 0.960 . S
C1307 C1304 1.511 . S
C1307 H1321 0.961 . S
C1307 H1322 0.961 . S
C1307 H1323 0.961 . S
C1308 C1309 1.370 . S
C1308 C1310 1.363 . S
C1308 H1324 0.931 . S
C1309 C1308 1.370 . S
C1309 C1313 1.408 . S
C1310 C1308 1.363 . S
C1310 C1311 1.370 . S
C1310 C1314 1.524 . S
C1311 C1303 1.503 . S
C1311 C1310 1.370 . S
C1311 C1312 1.403 . S
C1312 C1311 1.403 . S
C1312 C1313 1.404 . S
C1312 C1315 1.539 . S
C1313 C1309 1.408 . S
C1313 C1312 1.404 . S
C1313 H1325 0.930 . S
C1314 C1310 1.524 . S
C1314 H1326 0.956 . S
C1314 H1327 0.961 . S
C1314 H1328 0.961 . S
C1315 C1312 1.539 . S
C1315 H1329 0.958 . S
C1315 H1330 0.961 . S
C1315 H1331 0.960 . S
H1316 C1300 0.931 . S
H1317 C1305 0.929 . S
H1318 C1306 0.960 . S
H1319 C1306 0.962 . S
H1320 C1306 0.960 . S
H1321 C1307 0.961 . S
H1322 C1307 0.961 . S
H1323 C1307 0.961 . S
H1324 C1308 0.931 . S
H1325 C1313 0.930 . S
H1326 C1314 0.956 . S
H1327 C1314 0.961 . S
H1328 C1314 0.961 . S
H1329 C1315 0.958 . S
H1330 C1315 0.961 . S
H1331 C1315 0.960 . S
C565 C361 1.324 . S
C573 C496 1.364 . S
C605 C504 1.357 . S
C597 C451 1.402 . S
C637 C508 1.372 . S
C629 C241 1.383 . S
C661 C331 1.393 . S
C669 C484 1.339 . S
C701 C525 1.387 . S
C693 C140 1.437 . S
C733 C559 1.369 . S
C725 C211 1.435 . S
C757 C20 1.428 . S
C765 C547 1.348 . S
C789 C91 1.425 . S
C797 C529 1.353 . S
C829 C483 1.313 . S
C821 C80 1.400 . S
C861 C517 1.305 . S
C853 C1 1.388 . S
C893 C521 1.308 . S
C885 C200 1.426 1_556 S
C925 C499 1.317 . S
C917 C121 1.406 . S
C957 C538 1.293 . S
C949 C320 1.352 . S
C981 C260 1.456 . S
C989 C546 1.279 . S
C1021 C562 1.281 . S
C1013 C440 1.365 . S
C1045 C380 1.462 . S
C1053 C542 1.285 . S
C1085 C487 1.330 . S
C1077 C31 1.500 . S
C1117 C505 1.289 . S
C1109 C61 1.472 . S
C1141 C151 1.460 . S
C1149 C520 1.302 . S
C1181 C500 1.310 . S
C1173 C181 1.465 . S
C1213 C526 1.315 . S
C1205 C271 1.474 . S
C1237 C301 1.480 . S
C1245 C550 1.331 . S
C1269 C391 1.482 . S
C1277 C563 1.285 . S
C1301 C421 1.452 . S
C1309 C541 1.293 . S
