# Generated by pormake.
# Topology pyr, (3,6)-cn, num edge types: 1
# Building blocks:
#     Node 0, Type 0, BuildingBlock: BETDIP_clean_linker_0, # of connection points: 3
#     Node 1, Type 0, BuildingBlock: BETDIP_clean_linker_0, # of connection points: 3
#     Node 2, Type 0, BuildingBlock: BETDIP_clean_linker_0, # of connection points: 3
#     Node 3, Type 0, BuildingBlock: BETDIP_clean_linker_0, # of connection points: 3
#     Node 4, Type 0, BuildingBlock: BETDIP_clean_linker_0, # of connection points: 3
#     Node 5, Type 0, BuildingBlock: BETDIP_clean_linker_0, # of connection points: 3
#     Node 6, Type 0, BuildingBlock: BETDIP_clean_linker_0, # of connection points: 3
#     Node 7, Type 0, BuildingBlock: BETDIP_clean_linker_0, # of connection points: 3
#     Node 8, Type 1, BuildingBlock: PAMTOO_clean_sbu_0, # of connection points: 6
#     Node 9, Type 1, BuildingBlock: PAMTOO_clean_sbu_0, # of connection points: 6
#     Node 10, Type 1, BuildingBlock: PAMTOO_clean_sbu_0, # of connection points: 6
#     Node 11, Type 1, BuildingBlock: PAMTOO_clean_sbu_0, # of connection points: 6
#     Edge 12, Type (0, 1), BuildingBlock: CIFDUS_clean_linker_0, # of connection points: 2
#     Edge 13, Type (0, 1), BuildingBlock: CIFDUS_clean_linker_0, # of connection points: 2
#     Edge 14, Type (0, 1), BuildingBlock: CIFDUS_clean_linker_0, # of connection points: 2
#     Edge 15, Type (0, 1), BuildingBlock: CIFDUS_clean_linker_0, # of connection points: 2
#     Edge 16, Type (0, 1), BuildingBlock: CIFDUS_clean_linker_0, # of connection points: 2
#     Edge 17, Type (0, 1), BuildingBlock: CIFDUS_clean_linker_0, # of connection points: 2
#     Edge 18, Type (0, 1), BuildingBlock: CIFDUS_clean_linker_0, # of connection points: 2
#     Edge 19, Type (0, 1), BuildingBlock: CIFDUS_clean_linker_0, # of connection points: 2
#     Edge 20, Type (0, 1), BuildingBlock: CIFDUS_clean_linker_0, # of connection points: 2
#     Edge 21, Type (0, 1), BuildingBlock: CIFDUS_clean_linker_0, # of connection points: 2
#     Edge 22, Type (0, 1), BuildingBlock: CIFDUS_clean_linker_0, # of connection points: 2
#     Edge 23, Type (0, 1), BuildingBlock: CIFDUS_clean_linker_0, # of connection points: 2
#     Edge 24, Type (0, 1), BuildingBlock: CIFDUS_clean_linker_0, # of connection points: 2
#     Edge 25, Type (0, 1), BuildingBlock: CIFDUS_clean_linker_0, # of connection points: 2
#     Edge 26, Type (0, 1), BuildingBlock: CIFDUS_clean_linker_0, # of connection points: 2
#     Edge 27, Type (0, 1), BuildingBlock: CIFDUS_clean_linker_0, # of connection points: 2
#     Edge 28, Type (0, 1), BuildingBlock: CIFDUS_clean_linker_0, # of connection points: 2
#     Edge 29, Type (0, 1), BuildingBlock: CIFDUS_clean_linker_0, # of connection points: 2
#     Edge 30, Type (0, 1), BuildingBlock: CIFDUS_clean_linker_0, # of connection points: 2
#     Edge 31, Type (0, 1), BuildingBlock: CIFDUS_clean_linker_0, # of connection points: 2
#     Edge 32, Type (0, 1), BuildingBlock: CIFDUS_clean_linker_0, # of connection points: 2
#     Edge 33, Type (0, 1), BuildingBlock: CIFDUS_clean_linker_0, # of connection points: 2
#     Edge 34, Type (0, 1), BuildingBlock: CIFDUS_clean_linker_0, # of connection points: 2
#     Edge 35, Type (0, 1), BuildingBlock: CIFDUS_clean_linker_0, # of connection points: 2
# Relax obj value: 0.144
# Max RMSD: 0.207
# Mean RMSD: 0.130
data_MOF--net-pyr--node1-PAMTOO_clean_sbu_0--node2-BETDIP_clean_linker_0--edge1-CIFDUS_clean_linker_0
_symmetry_space_group_name_H-M    P1
_symmetry_Int_Tables_number       1
_symmetry_cell_setting            triclinic
loop_
_symmetry_equiv_pos_as_xyz
'x, y, z'
_cell_length_a     32.221145
_cell_length_b     34.064137
_cell_length_c     34.738063
_cell_angle_alpha  90.819461
_cell_angle_beta   88.917131
_cell_angle_gamma 110.2137
loop_
_atom_site_label
_atom_site_type_symbol
_atom_site_fract_x
_atom_site_fract_y
_atom_site_fract_z
_atom_type_partial_charge
H0 H 0.36201 0.33669 0.23892 0.0
H1 H 0.39721 0.2853 0.135 0.0
H2 H 0.40779 0.23215 0.24396 0.0
H3 H 0.35104 0.31305 0.10682 0.0
C4 C 0.3395 0.33073 0.12807 0.0
C5 C 0.37533 0.31485 0.22497 0.0
C6 C 0.38447 0.28449 0.24676 0.0
C7 C 0.37822 0.31447 0.1848 0.0
C8 C 0.39449 0.28576 0.16608 0.0
C9 C 0.40703 0.25714 0.18763 0.0
C10 C 0.4018 0.25665 0.22786 0.0
N11 N 0.35953 0.34017 0.16471 0.0
H12 H 0.12306 0.78598 0.77233 0.0
H13 H 0.13313 0.71941 0.66857 0.0
H14 H 0.21456 0.71964 0.76498 0.0
H15 H 0.11545 0.77108 0.64278 0.0
C16 C 0.09493 0.78115 0.66295 0.0
C17 C 0.13637 0.76485 0.75714 0.0
C18 C 0.17019 0.75375 0.77352 0.0
C19 C 0.12309 0.75308 0.7193 0.0
C20 C 0.14275 0.72841 0.69795 0.0
C21 C 0.17606 0.71629 0.71422 0.0
C22 C 0.18814 0.72783 0.75248 0.0
N23 N 0.0938 0.77077 0.70249 0.0
H24 H 0.70173 0.42281 0.85446 0.0
H25 H 0.59347 0.30529 0.85233 0.0
H26 H 0.69427 0.32794 0.93753 0.0
H27 H 0.65234 0.44553 0.82209 0.0
C28 C 0.63514 0.4196 0.80316 0.0
C29 C 0.68473 0.39222 0.86645 0.0
C30 C 0.70299 0.37891 0.89846 0.0
C31 C 0.645 0.36584 0.84958 0.0
C32 C 0.6236 0.32575 0.86538 0.0
C33 C 0.64094 0.31178 0.89743 0.0
C34 C 0.68058 0.3387 0.91333 0.0
N35 N 0.62672 0.37767 0.81597 0.0
H36 H 0.81287 0.61819 0.36221 0.0
H37 H 0.92661 0.73049 0.35151 0.0
H38 H 0.82602 0.72382 0.43667 0.0
H39 H 0.91245 0.70319 0.28211 0.0
C40 C 0.90861 0.67091 0.28817 0.0
C41 C 0.83051 0.65011 0.37124 0.0
C42 C 0.81372 0.66817 0.40171 0.0
C43 C 0.87018 0.67266 0.35206 0.0
C44 C 0.89482 0.71361 0.3647 0.0
C45 C 0.87936 0.73135 0.39634 0.0
C46 C 0.83838 0.70901 0.41352 0.0
N47 N 0.88556 0.65181 0.32216 0.0
H48 H 0.60935 0.74699 0.96301 0.0
H49 H 0.68247 0.72547 0.86517 0.0
H50 H 0.6639 0.84382 0.87913 0.0
H51 H 0.64543 0.6477 0.88772 0.0
C52 C 0.65956 0.66416 0.91401 0.0
C53 C 0.62744 0.75792 0.93636 0.0
C54 C 0.63369 0.7984 0.92312 0.0
C55 C 0.64498 0.73149 0.9158 0.0
C56 C 0.66885 0.74565 0.88141 0.0
C57 C 0.67565 0.78603 0.86784 0.0
C58 C 0.65756 0.81209 0.88869 0.0
N59 N 0.6397 0.69155 0.9311 0.0
H60 H 0.87186 0.27481 0.34502 0.0
H61 H 0.85757 0.32578 0.45547 0.0
H62 H 0.80906 0.36771 0.35563 0.0
H63 H 0.9262 0.31154 0.46482 0.0
C64 C 0.91573 0.28088 0.45109 0.0
C65 C 0.86268 0.29779 0.36158 0.0
C66 C 0.83983 0.32138 0.34444 0.0
C67 C 0.87132 0.3009 0.40098 0.0
C68 C 0.85495 0.32632 0.42445 0.0
C69 C 0.8319 0.34995 0.40794 0.0
C70 C 0.82692 0.34928 0.36786 0.0
N71 N 0.89157 0.27383 0.41645 0.0
H72 H 0.3127 0.61842 0.24537 0.0
H73 H 0.41609 0.73925 0.2572 0.0
H74 H 0.32573 0.71567 0.16371 0.0
H75 H 0.4274 0.71591 0.31314 0.0
C76 C 0.41319 0.68221 0.3158 0.0
C77 C 0.32967 0.64984 0.23502 0.0
C78 C 0.31342 0.66424 0.2026 0.0
C79 C 0.36695 0.67605 0.25519 0.0
C80 C 0.38801 0.71799 0.24227 0.0
C81 C 0.37207 0.73293 0.20986 0.0
C82 C 0.33624 0.70506 0.18982 0.0
N83 N 0.38127 0.65906 0.28821 0.0
H84 H 0.08916 0.31122 0.74603 0.0
H85 H 0.20926 0.4188 0.74777 0.0
H86 H 0.20041 0.31574 0.67296 0.0
H87 H 0.16005 0.45037 0.76665 0.0
C88 C 0.14054 0.42865 0.78821 0.0
C89 C 0.12258 0.32709 0.7356 0.0
C90 C 0.14106 0.30845 0.70646 0.0
C91 C 0.14667 0.36709 0.75063 0.0
C92 C 0.18981 0.38843 0.7363 0.0
C93 C 0.20895 0.36989 0.70812 0.0
C94 C 0.18477 0.32994 0.69411 0.0
N95 N 0.12744 0.38477 0.78062 0.0
Dy96 Dy 0.05755 0.04397 0.50508 0.0
Dy97 Dy 0.97005 1.01266 0.56267 0.0
C98 C 0.05195 0.09721 0.58069 0.0
O99 O 0.05937 0.98665 0.53361 0.0
O100 O 0.01629 0.98383 0.58766 0.0
O101 O 0.12727 0.05597 0.49573 0.0
O102 O 0.08629 0.06211 0.44877 0.0
O103 O 0.96576 0.95808 0.52433 0.0
O104 O 1.00368 0.99546 0.47272 0.0
O105 O 0.95549 0.04785 0.51379 0.0
O106 O 0.02567 0.0921 0.50067 0.0
O107 O 0.89896 0.98336 0.56857 0.0
O108 O 0.93892 1.01153 0.61812 0.0
C109 C 0.04526 0.97196 0.56796 0.0
O110 O 0.07756 0.08453 0.55746 0.0
O111 O 1.00909 0.0774 0.58317 0.0
C112 C 0.16139 0.10506 0.44761 0.0
C113 C 0.22569 0.17595 0.41543 0.0
C114 C 0.18908 0.17978 0.43583 0.0
C115 C 0.15711 0.14451 0.45189 0.0
C116 C 0.19893 0.1015 0.42926 0.0
C117 C 0.23084 0.1366 0.4133 0.0
C118 C 0.12621 0.06688 0.46003 0.0
C119 C 0.97699 0.96039 0.48765 0.0
C120 C 0.98281 0.0834 0.50043 0.0
C121 C 0.87068 0.95653 0.6304 0.0
C122 C 0.81033 0.90294 0.68301 0.0
C123 C 0.79634 0.91009 0.6465 0.0
C124 C 0.8262 0.93677 0.62055 0.0
C125 C 0.88525 0.94766 0.66603 0.0
C126 C 0.85536 0.92118 0.69206 0.0
C127 C 0.8995 0.99015 0.60566 0.0
H128 H 0.1844 0.20972 0.43817 0.0
H129 H 0.12839 0.14775 0.46641 0.0
H130 H 0.2027 0.07123 0.42588 0.0
H131 H 0.25814 0.13231 0.39728 0.0
H132 H 0.76203 0.89599 0.63838 0.0
H133 H 0.81411 0.94327 0.59333 0.0
H134 H 0.9193 0.96256 0.6746 0.0
H135 H 0.86723 0.91678 0.72007 0.0
Dy136 Dy 0.47929 1.01633 0.04297 0.0
Dy137 Dy 0.57491 0.04078 0.08621 0.0
C138 C 0.49388 0.95664 0.11003 0.0
O139 O 0.47213 0.05218 0.09505 0.0
O140 O 0.54536 0.08777 0.10742 0.0
O141 O 0.40804 0.9869 1.04179 0.0
O142 O 0.44368 0.02291 0.99321 0.0
O143 O 0.58692 0.07727 1.03129 0.0
O144 O 0.51871 0.08232 1.02534 0.0
O145 O 0.5691 0.98353 0.05218 0.0
O146 O 0.52016 0.98801 1.00675 0.0
O147 O 0.64651 0.06326 0.08198 0.0
O148 O 0.61324 0.04746 0.13738 0.0
C149 C 0.50335 0.08325 0.11125 0.0
O150 O 0.47162 0.95996 0.07952 0.0
O151 O 0.53073 0.98631 0.12019 0.0
C152 C 0.37995 0.9645 0.9793 0.0
C153 C 0.33124 0.90183 0.92746 0.0
C154 C 0.32085 0.89831 0.967 0.0
C155 C 0.34502 0.92942 0.99273 0.0
C156 C 0.38948 0.96834 0.93961 0.0
C157 C 0.3655 0.93734 0.91405 0.0
C158 C 0.40581 0.99753 1.00616 0.0
C159 C 0.56129 0.09622 1.01733 0.0
C160 C 0.54944 0.97233 1.01907 0.0
C161 C 0.68031 0.10511 0.13565 0.0
C162 C 0.73807 0.1796 0.16893 0.0
C163 C 0.75123 0.16214 0.13598 0.0
C164 C 0.7226 0.12512 0.11957 0.0
C165 C 0.66687 0.12307 0.16801 0.0
C166 C 0.69543 0.15961 0.18453 0.0
C167 C 0.65081 0.06521 0.1193 0.0
H168 H 0.29453 0.87126 0.97805 0.0
H169 H 0.3365 0.92592 1.02311 0.0
H170 H 0.41553 0.99533 0.92815 0.0
H171 H 0.37356 0.94139 0.88361 0.0
H172 H 0.78373 0.17678 0.12315 0.0
H173 H 0.73367 0.11186 0.09457 0.0
H174 H 0.63454 0.10855 0.18123 0.0
H175 H 0.68441 0.17126 0.21049 0.0
Dy176 Dy 0.50483 0.49318 0.53746 0.0
Dy177 Dy 0.51243 0.58129 0.57966 0.0
C178 C 0.54743 0.51415 0.62162 0.0
O179 O 0.44846 0.47761 0.57954 0.0
O180 O 0.44091 0.5417 0.58184 0.0
O181 O 0.49296 0.42679 0.53969 0.0
O182 O 0.50958 0.4592 0.48552 0.0
O183 O 0.50077 0.58889 0.51703 0.0
O184 O 0.46335 0.52051 0.50166 0.0
O185 O 0.58239 0.59155 0.562 0.0
O186 O 0.56669 0.54094 0.51475 0.0
O187 O 0.51735 0.64625 0.57743 0.0
O188 O 0.50938 0.61495 0.63216 0.0
C189 C 0.42583 0.50166 0.58943 0.0
O190 O 0.54886 0.49622 0.58804 0.0
O191 O 0.52926 0.54322 0.62532 0.0
C192 C 0.54467 0.41159 0.49974 0.0
C193 C 0.61941 0.38727 0.49069 0.0
C194 C 0.62324 0.42589 0.50789 0.0
C195 C 0.58621 0.43789 0.51239 0.0
C196 C 0.54036 0.37275 0.48307 0.0
C197 C 0.57751 0.36061 0.4786 0.0
C198 C 0.5065 0.42544 0.5043 0.0
C199 C 0.47423 0.56073 0.49398 0.0
C200 C 0.5941 0.57438 0.53149 0.0
C201 C 0.46675 0.65711 0.62311 0.0
C202 C 0.38407 0.66124 0.64631 0.0
C203 C 0.39103 0.65038 0.60822 0.0
C204 C 0.43192 0.64795 0.59679 0.0
C205 C 0.46036 0.66977 0.66065 0.0
C206 C 0.41934 0.67169 0.6722 0.0
C207 C 0.50671 0.64699 0.61378 0.0
H208 H 0.65488 0.44686 0.51788 0.0
H209 H 0.59007 0.46794 0.52558 0.0
H210 H 0.50849 0.35209 0.47322 0.0
H211 H 0.57366 0.33084 0.46485 0.0
H212 H 0.36431 0.64201 0.5878 0.0
H213 H 0.43565 0.63726 0.56784 0.0
H214 H 0.48654 0.67642 0.68151 0.0
H215 H 0.41491 0.68064 0.70163 0.0
Dy216 Dy 0.0165 0.56762 1.01727 0.0
Dy217 Dy 1.00581 0.48707 0.07154 0.0
C218 C 0.97218 0.56094 0.10102 0.0
O219 O 0.07142 0.58959 0.05979 0.0
O220 O 0.07778 0.5267 0.07441 0.0
O221 O 0.02779 0.63353 1.01073 0.0
O222 O 0.0147 0.5928 0.96075 0.0
O223 O 0.02347 0.47145 1.01191 0.0
O224 O 0.06099 0.53711 0.9896 0.0
O225 O 0.93663 0.47751 0.05234 0.0
O226 O 0.95607 0.51592 0.99717 0.0
O227 O 0.98739 0.42008 0.07757 0.0
O228 O 0.01513 0.46101 0.12569 0.0
C229 C 0.09304 0.56778 0.07582 0.0
O230 O 0.96966 0.5703 0.06478 0.0
O231 O 0.98998 0.53316 0.11066 0.0
C232 C 0.97904 0.64206 0.96449 0.0
C233 C 0.90135 0.65532 0.94184 0.0
C234 C 0.90487 0.64162 0.97919 0.0
C235 C 0.94319 0.6349 0.99032 0.0
C236 C 0.97631 0.65694 0.92754 0.0
C237 C 0.93773 0.66353 0.91626 0.0
C238 C 0.01651 0.62908 0.97463 0.0
C239 C 0.05067 0.49636 0.98684 0.0
C240 C 0.9266 0.48759 1.01813 0.0
C241 C 0.04075 0.40557 0.11442 0.0
C242 C 0.11461 0.38063 0.12463 0.0
C243 C 0.11188 0.40354 0.09203 0.0
C244 C 0.07539 0.41599 0.08705 0.0
C245 C 0.04257 0.38171 0.14641 0.0
C246 C 0.07922 0.36926 0.15148 0.0
C247 C 1.00551 0.42347 0.11127 0.0
H248 H 0.87724 0.63427 0.99936 0.0
H249 H 0.9441 0.62262 1.01874 0.0
H250 H 1.00343 0.66218 0.90706 0.0
H251 H 0.93605 0.67434 0.88736 0.0
H252 H 0.13879 0.41338 0.07114 0.0
H253 H 0.0749 0.43499 0.06242 0.0
H254 H 0.01629 0.37371 0.16796 0.0
H255 H 0.08018 0.3513 0.17671 0.0
H256 H 0.30787 0.28958 0.27624 0.0
H257 H 0.42226 0.25942 0.30795 0.0
H258 H 0.38495 0.22874 0.36794 0.0
H259 H 0.31531 0.20027 0.40527 0.0
H260 H 0.20095 0.2289 0.37084 0.0
H261 H 0.24387 0.2725 0.3191 0.0
C262 C 0.32563 0.27789 0.29677 0.0
C263 C 0.36764 0.27622 0.28713 0.0
C264 C 0.30383 0.25984 0.33078 0.0
C265 C 0.38951 0.26027 0.31419 0.0
C266 C 0.36822 0.24276 0.34852 0.0
C267 C 0.30008 0.21672 0.38685 0.0
C268 C 0.25478 0.21066 0.39149 0.0
C269 C 0.32457 0.24062 0.35617 0.0
C270 C 0.23573 0.23297 0.36804 0.0
C271 C 0.26014 0.25757 0.33809 0.0
H272 H 0.25818 0.78394 0.78632 0.0
H273 H 0.13284 0.7739 0.8397 0.0
H274 H 0.17173 0.81706 0.89386 0.0
H275 H 0.24191 0.86176 0.92331 0.0
H276 H 0.36594 0.86832 0.8694 0.0
H277 H 0.3266 0.82103 0.81847 0.0
C278 C 0.23899 0.78977 0.81028 0.0
C279 C 0.19251 0.77529 0.80896 0.0
C280 C 0.26138 0.81418 0.84113 0.0
C281 C 0.16864 0.78484 0.83982 0.0
C282 C 0.19086 0.80941 0.87082 0.0
C283 C 0.26021 0.85215 0.90078 0.0
C284 C 0.30673 0.86901 0.89972 0.0
C285 C 0.2373 0.82489 0.87141 0.0
C286 C 0.33011 0.85645 0.87034 0.0
C287 C 0.30768 0.82934 0.8413 0.0
H288 H 0.62979 0.49409 0.78219 0.0
H289 H 0.59989 0.36763 0.7409 0.0
H290 H 0.57239 0.38573 0.68061 0.0
H291 H 0.55601 0.43808 0.63927 0.0
H292 H 0.58223 0.5631 0.68372 0.0
H293 H 0.61187 0.54518 0.74236 0.0
C294 C 0.6172 0.47041 0.76002 0.0
C295 C 0.61703 0.4295 0.76631 0.0
C296 C 0.60076 0.48094 0.72562 0.0
C297 C 0.60037 0.39929 0.73716 0.0
C298 C 0.5847 0.40973 0.70251 0.0
C299 C 0.56848 0.46145 0.66169 0.0
C300 C 0.56695 0.50214 0.65665 0.0
C301 C 0.58468 0.45054 0.6963 0.0
C302 C 0.58278 0.53165 0.6865 0.0
C303 C 0.59982 0.5214 0.72023 0.0
H304 H 0.92109 0.68738 0.21181 0.0
H305 H 0.92158 0.59604 0.29621 0.0
H306 H 0.94049 0.55364 0.24605 0.0
H307 H 0.95789 0.54282 0.17795 0.0
H308 H 0.95348 0.63271 0.09322 0.0
H309 H 0.93472 0.67478 0.14336 0.0
C310 C 0.92539 0.65819 0.21915 0.0
C311 C 0.92014 0.64503 0.25771 0.0
C312 C 0.93535 0.63347 0.18996 0.0
C313 C 0.92536 0.60692 0.26677 0.0
C314 C 0.93621 0.58263 0.23806 0.0
C315 C 0.95256 0.57147 0.1704 0.0
C316 C 0.9572 0.58441 0.13167 0.0
C317 C 0.94133 0.59557 0.1995 0.0
C318 C 0.94994 0.62165 0.12258 0.0
C319 C 0.93941 0.64597 0.15136 0.0
H320 H 0.47798 0.2347 0.20383 0.0
H321 H 0.36614 0.20575 0.12868 0.0
H322 H 0.3851 0.14822 0.09975 0.0
H323 H 0.43277 0.10573 0.09633 0.0
H324 H 0.5471 0.13636 0.16873 0.0
H325 H 0.52767 0.19344 0.19863 0.0
C326 C 0.45795 0.21581 0.18101 0.0
C327 C 0.42082 0.22445 0.16828 0.0
C328 C 0.46922 0.18292 0.16437 0.0
C329 C 0.3952 0.20001 0.13857 0.0
C330 C 0.40581 0.16693 0.12227 0.0
C331 C 0.4532 0.12462 0.11895 0.0
C332 C 0.49092 0.11649 0.13077 0.0
C333 C 0.44254 0.15795 0.13511 0.0
C334 C 0.51771 0.14187 0.15938 0.0
C335 C 0.50667 0.17453 0.17638 0.0
H336 H 0.11803 0.82577 0.5983 0.0
H337 H 0.03681 0.81213 0.70069 0.0
H338 H 0.01459 0.87069 0.68089 0.0
H339 H 0.01906 0.92637 0.63427 0.0
H340 H 0.10331 0.94026 0.53331 0.0
H341 H 0.12373 0.8815 0.553 0.0
C342 C 0.09523 0.8355 0.61613 0.0
C343 C 0.07896 0.81473 0.6507 0.0
C344 C 0.08343 0.86955 0.605 0.0
C345 C 0.04978 0.82774 0.67385 0.0
C346 C 0.03717 0.86126 0.66259 0.0
C347 C 0.04211 0.91672 0.61675 0.0
C348 C 0.05948 0.93788 0.58233 0.0
C349 C 0.05404 0.88263 0.62828 0.0
C350 C 0.08926 0.92475 0.55995 0.0
C351 C 0.10098 0.89095 0.57107 0.0
H352 H 0.7277 0.38531 0.9746 0.0
H353 H 0.77697 0.43312 0.86188 0.0
H354 H 0.84885 0.47217 0.88916 0.0
H355 H 0.89945 0.48976 0.94421 0.0
H356 H 0.85176 0.43751 0.05578 0.0
H357 H 0.77822 0.4023 1.02938 0.0
C358 C 0.75412 0.40379 0.95567 0.0
C359 C 0.74628 0.40565 0.91586 0.0
C360 C 0.79612 0.42513 0.97133 0.0
C361 C 0.78117 0.43116 0.89255 0.0
C362 C 0.82269 0.45327 0.90811 0.0
C363 C 0.873 0.47078 0.96289 0.0
C364 C 0.88148 0.46636 1.00209 0.0
C365 C 0.83076 0.45005 0.94735 0.0
C366 C 0.84655 0.44143 1.02557 0.0
C367 C 0.80434 0.42132 1.01046 0.0
H368 H 0.79112 0.67116 0.47806 0.0
H369 H 0.73872 0.61229 0.36984 0.0
H370 H 0.66764 0.57645 0.40115 0.0
H371 H 0.61911 0.56451 0.45815 0.0
H372 H 0.66892 0.62834 0.56485 0.0
H373 H 0.742 0.66066 0.53474 0.0
C374 C 0.76412 0.65104 0.46099 0.0
C375 C 0.77068 0.64482 0.42136 0.0
C376 C 0.72266 0.6317 0.47884 0.0
C377 C 0.73526 0.61741 0.40038 0.0
C378 C 0.69431 0.59715 0.4182 0.0
C379 C 0.64598 0.58535 0.47495 0.0
C380 C 0.63858 0.59395 0.51376 0.0
C381 C 0.68752 0.60441 0.45727 0.0
C382 C 0.67367 0.62135 0.53492 0.0
C383 C 0.71547 0.63973 0.51773 0.0
H384 H 0.29008 0.35747 0.17974 0.0
H385 H 0.29604 0.32237 0.06049 0.0
H386 H 0.22627 0.33376 0.04872 0.0
H387 H 0.16346 0.35323 0.07273 0.0
H388 H 0.15808 0.3875 0.19235 0.0
H389 H 0.22742 0.37597 0.20374 0.0
C390 C 0.2764 0.35258 0.15106 0.0
C391 C 0.2984 0.3395 0.12084 0.0
C392 C 0.23611 0.35852 0.14473 0.0
C393 C 0.27977 0.33273 0.08408 0.0
C394 C 0.23988 0.3391 0.07741 0.0
C395 C 0.17756 0.35829 0.10125 0.0
C396 C 0.15551 0.37114 0.13165 0.0
C397 C 0.21771 0.35191 0.10756 0.0
C398 C 0.17394 0.37701 0.16856 0.0
C399 C 0.21383 0.3708 0.17504 0.0
H400 H 0.67827 0.25639 0.92407 0.0
H401 H 0.55182 0.27163 0.91143 0.0
H402 H 0.51567 0.20614 0.94602 0.0
H403 H 0.52048 0.14598 0.98323 0.0
H404 H 0.64812 0.13299 0.99642 0.0
H405 H 0.68289 0.19611 0.95909 0.0
C406 C 0.64278 0.24562 0.92894 0.0
C407 C 0.61805 0.26953 0.91525 0.0
C408 C 0.62226 0.20822 0.94942 0.0
C409 C 0.57188 0.25407 0.92122 0.0
C410 C 0.55116 0.21666 0.94137 0.0
C411 C 0.55588 0.15682 0.97782 0.0
C412 C 0.58144 0.13438 0.993 0.0
C413 C 0.57607 0.19367 0.95612 0.0
C414 C 0.62733 0.14924 0.98542 0.0
C415 C 0.64741 0.18553 0.96394 0.0
H416 H 0.90751 0.81101 0.36699 0.0
H417 H 0.90965 0.74066 0.46863 0.0
H418 H 0.94012 0.80524 0.50583 0.0
H419 H 0.96064 0.88118 0.51104 0.0
H420 H 0.96151 0.9534 0.41001 0.0
H421 H 0.93537 0.88902 0.37108 0.0
C422 C 0.91575 0.81009 0.39701 0.0
C423 C 0.90641 0.7712 0.4151 0.0
C424 C 0.93292 0.84763 0.41853 0.0
C425 C 0.9167 0.77029 0.45415 0.0
C426 C 0.93378 0.80716 0.47551 0.0
C427 C 0.95499 0.88283 0.4805 0.0
C428 C 0.9621 0.92187 0.46357 0.0
C429 C 0.9409 0.84591 0.4583 0.0
C430 C 0.95582 0.92362 0.42377 0.0
C431 C 0.94096 0.88682 0.40151 0.0
H432 H 0.21024 0.65668 0.73414 0.0
H433 H 0.20695 0.73759 0.64064 0.0
H434 H 0.26839 0.72339 0.60872 0.0
H435 H 0.3308 0.69739 0.61267 0.0
H436 H 0.33826 0.62265 0.70967 0.0
H437 H 0.26846 0.62597 0.73543 0.0
C438 C 0.22262 0.67084 0.70654 0.0
C439 C 0.20434 0.69868 0.69023 0.0
C440 C 0.25964 0.66457 0.68947 0.0
C441 C 0.22005 0.71584 0.65392 0.0
C442 C 0.25575 0.70827 0.63587 0.0
C443 C 0.31669 0.68137 0.63913 0.0
C444 C 0.33984 0.66038 0.65962 0.0
C445 C 0.27701 0.6842 0.65421 0.0
C446 C 0.32136 0.6397 0.69386 0.0
C447 C 0.28138 0.64139 0.70846 0.0
H448 H 0.6607 0.83154 0.80935 0.0
H449 H 0.75395 0.77597 0.84861 0.0
H450 H 0.80196 0.80417 0.7931 0.0
H451 H 0.81935 0.84755 0.73523 0.0
H452 H 0.72814 0.90654 0.69806 0.0
H453 H 0.6773 0.87358 0.75051 0.0
C454 C 0.69159 0.82572 0.80578 0.0
C455 C 0.70371 0.80176 0.8331 0.0
C456 C 0.71939 0.8425 0.77407 0.0
C457 C 0.74353 0.79391 0.82777 0.0
C458 C 0.77118 0.81023 0.79615 0.0
C459 C 0.78838 0.85324 0.73861 0.0
C460 C 0.77774 0.87958 0.71274 0.0
C461 C 0.75969 0.83499 0.76939 0.0
C462 C 0.73702 0.88596 0.71717 0.0
C463 C 0.70805 0.86746 0.74742 0.0
H464 H 0.8771 0.29319 0.28279 0.0
H465 H 0.7621 0.32491 0.31536 0.0
H466 H 0.72586 0.29288 0.25706 0.0
H467 H 0.71953 0.24325 0.2046 0.0
H468 H 0.82714 0.19826 0.17985 0.0
H469 H 0.873 0.24777 0.22654 0.0
C470 C 0.8441 0.29317 0.27734 0.0
C471 C 0.82249 0.31091 0.30453 0.0
C472 C 0.82147 0.27147 0.24505 0.0
C473 C 0.78043 0.31213 0.2955 0.0
C474 C 0.75903 0.29308 0.26213 0.0
C475 C 0.75313 0.24437 0.20923 0.0
C476 C 0.76929 0.21615 0.18954 0.0
C477 C 0.77819 0.27068 0.23798 0.0
C478 C 0.81357 0.21938 0.19467 0.0
C479 C 0.83973 0.24742 0.22175 0.0
H480 H 0.38964 0.59803 0.33851 0.0
H481 H 0.46775 0.72423 0.37147 0.0
H482 H 0.49268 0.69856 0.42842 0.0
H483 H 0.49337 0.64109 0.46941 0.0
H484 H 0.41702 0.51396 0.43822 0.0
H485 H 0.39071 0.53897 0.38081 0.0
C486 C 0.41206 0.61985 0.35818 0.0
C487 C 0.42665 0.66331 0.35037 0.0
C488 C 0.42678 0.60468 0.3915 0.0
C489 C 0.45583 0.69081 0.37643 0.0
C490 C 0.47022 0.67612 0.40921 0.0
C491 C 0.47093 0.61859 0.45022 0.0
C492 C 0.45739 0.57546 0.45864 0.0
C493 C 0.45605 0.63321 0.41711 0.0
C494 C 0.42823 0.54727 0.43289 0.0
C495 C 0.4131 0.56165 0.39987 0.0
H496 H 0.09557 0.38781 0.85281 0.0
H497 H 0.1552 0.51012 0.80301 0.0
H498 H 0.13448 0.5423 0.86001 0.0
H499 H 0.09841 0.53597 0.92377 0.0
H500 H 0.03905 0.41377 0.97415 0.0
H501 H 0.06085 0.38165 0.9177 0.0
C502 C 0.10391 0.42146 0.85444 0.0
C503 C 0.12668 0.44651 0.82352 0.0
C504 C 0.09207 0.43994 0.88761 0.0
C505 C 0.13752 0.49011 0.82631 0.0
C506 C 0.12575 0.50859 0.85896 0.0
C507 C 0.09048 0.50234 0.9226 0.0
C508 C 0.06696 0.4775 0.95336 0.0
C509 C 0.10294 0.48387 0.88981 0.0
C510 C 0.05699 0.43387 0.95102 0.0
C511 C 0.0694 0.41534 0.91861 0.0
H512 H 0.58948 0.84849 0.8986 0.0
H513 H 0.64345 0.81378 1.00006 0.0
H514 H 0.62155 0.86408 1.03856 0.0
H515 H 0.5892 0.91909 0.04312 0.0
H516 H 0.53382 0.95379 0.94241 0.0
H517 H 0.55422 0.90233 0.90382 0.0
C518 C 0.59637 0.85201 0.92915 0.0
C519 C 0.61803 0.82746 0.94649 0.0
C520 C 0.58365 0.88103 0.95115 0.0
C521 C 0.62637 0.83195 0.98615 0.0
C522 C 0.61413 0.86089 1.00812 0.0
C523 C 0.58166 0.91556 1.01269 0.0
C524 C 0.56046 0.94058 0.99558 0.0
C525 C 0.59309 0.88578 0.99087 0.0
C526 C 0.55025 0.93501 0.95627 0.0
C527 C 0.56195 0.90563 0.93419 0.0
H528 H 0.88134 0.19723 0.43839 0.0
H529 H 0.98922 0.29282 0.49337 0.0
H530 H 0.02106 0.24014 0.51193 0.0
H531 H 0.0182 0.16687 0.51183 0.0
H532 H 0.90695 0.07085 0.46136 0.0
H533 H 0.87637 0.12379 0.44129 0.0
C534 C 0.91185 0.2065 0.45439 0.0
C535 C 0.93335 0.24878 0.46418 0.0
C536 C 0.92934 0.17603 0.46548 0.0
C537 C 0.97231 0.26037 0.48554 0.0
C538 C 0.99053 0.23034 0.49597 0.0
C539 C 0.98746 0.15772 0.49613 0.0
C540 C 0.96505 0.11529 0.48747 0.0
C541 C 0.96945 0.18813 0.48587 0.0
C542 C 0.92474 0.10346 0.46806 0.0
C543 C 0.9073 0.13365 0.45667 0.0
H544 H 0.25062 0.6908 0.17153 0.0
H545 H 0.28179 0.57871 0.18737 0.0
H546 H 0.2166 0.53865 0.15005 0.0
H547 H 0.15155 0.53617 0.11065 0.0
H548 H 0.12609 0.65099 0.09241 0.0
H549 H 0.18905 0.68913 0.13157 0.0
C550 C 0.24395 0.65772 0.16642 0.0
C551 C 0.27204 0.63824 0.18201 0.0
C552 C 0.20742 0.63526 0.14391 0.0
C553 C 0.26106 0.59484 0.17606 0.0
C554 C 0.22388 0.57192 0.15433 0.0
C555 C 0.15995 0.56958 0.11503 0.0
C556 C 0.13377 0.59047 0.09818 0.0
C557 C 0.19698 0.59189 0.13769 0.0
C558 C 0.14537 0.63383 0.10452 0.0
C559 C 0.18144 0.65582 0.12719 0.0
H560 H 0.24172 0.44874 0.67883 0.0
H561 H 0.27643 0.33963 0.7002 0.0
H562 H 0.3461 0.37054 0.66484 0.0
H563 H 0.39538 0.4267 0.62526 0.0
H564 H 0.36237 0.53692 0.60424 0.0
H565 H 0.29387 0.50748 0.64191 0.0
C566 C 0.26499 0.43219 0.67631 0.0
C567 C 0.25389 0.39189 0.69191 0.0
C568 C 0.30493 0.45002 0.6555 0.0
C569 C 0.28412 0.37055 0.68815 0.0
C570 C 0.32388 0.38813 0.66785 0.0
C571 C 0.37314 0.44426 0.62868 0.0
C572 C 0.38372 0.48367 0.61141 0.0
C573 C 0.3342 0.42744 0.65076 0.0
C574 C 0.35485 0.5063 0.61687 0.0
C575 C 0.31572 0.48955 0.63854 0.0
H576 H 0.7163 0.63803 0.87177 0.0
H577 H 0.70423 0.69778 0.97958 0.0
H578 H 0.77907 0.70253 0.99664 0.0
H579 H 0.84718 0.68804 0.98162 0.0
H580 H 0.85935 0.62809 0.87385 0.0
H581 H 0.78579 0.62606 0.8556 0.0
C582 C 0.73017 0.65203 0.89899 0.0
C583 C 0.70484 0.66724 0.92449 0.0
C584 C 0.77335 0.65499 0.90843 0.0
C585 C 0.72313 0.68577 0.9595 0.0
C586 C 0.76591 0.68853 0.96925 0.0
C587 C 0.83373 0.67457 0.95412 0.0
C588 C 0.85867 0.65811 0.92921 0.0
C589 C 0.79121 0.67302 0.94404 0.0
C590 C 0.84108 0.64139 0.89339 0.0
C591 C 0.79883 0.63985 0.88309 0.0
H592 H 0.45939 0.78612 0.20001 0.0
H593 H 0.32448 0.78134 0.18952 0.0
H594 H 0.34944 0.84852 0.15732 0.0
H595 H 0.40904 0.90747 0.1282 0.0
H596 H 0.54452 0.91675 0.14293 0.0
H597 H 0.52018 0.84993 0.17705 0.0
C598 C 0.43555 0.80012 0.19132 0.0
C599 C 0.3899 0.77772 0.19651 0.0
C600 C 0.45023 0.83972 0.17298 0.0
C601 C 0.35972 0.79695 0.18511 0.0
C602 C 0.37394 0.83561 0.16663 0.0
C603 C 0.43323 0.89493 0.13902 0.0
C604 C 0.47854 0.91703 0.13264 0.0
C605 C 0.41901 0.85692 0.15958 0.0
C606 C 0.50941 0.90051 0.14743 0.0
C607 C 0.49548 0.86215 0.16694 0.0
H608 H 0.14665 0.28416 0.63181 0.0
H609 H 0.07772 0.23878 0.73895 0.0
H610 H 0.04204 0.16997 0.70915 0.0
H611 H 0.03388 0.12119 0.65313 0.0
H612 H 0.11217 0.16632 0.55033 0.0
H613 H 0.14221 0.23616 0.57861 0.0
C614 C 0.12471 0.25921 0.6493 0.0
C615 C 0.11592 0.26699 0.6881 0.0
C616 C 0.10638 0.21925 0.63277 0.0
C617 C 0.08529 0.23424 0.70909 0.0
C618 C 0.06517 0.1946 0.69214 0.0
C619 C 0.05772 0.14638 0.63716 0.0
C620 C 0.07112 0.13854 0.5998 0.0
C621 C 0.07604 0.18651 0.65414 0.0
C622 C 0.10191 0.17138 0.57932 0.0
C623 C 0.11885 0.21141 0.59536 0.0
H624 H 0.76518 0.30689 0.4548 0.0
H625 H 0.8338 0.43061 0.41131 0.0
H626 H 0.77491 0.4543 0.43681 0.0
H627 H 0.69959 0.4369 0.46332 0.0
H628 H 0.62868 0.3116 0.50268 0.0
H629 H 0.69256 0.29109 0.48652 0.0
C630 C 0.76785 0.33939 0.45217 0.0
C631 C 0.80384 0.36725 0.43181 0.0
C632 C 0.73293 0.35205 0.46519 0.0
C633 C 0.80657 0.40895 0.42742 0.0
C634 C 0.77271 0.42227 0.44158 0.0
C635 C 0.69844 0.40533 0.46908 0.0
C636 C 0.65935 0.37571 0.48391 0.0
C637 C 0.73503 0.39367 0.45925 0.0
C638 C 0.65814 0.33476 0.49071 0.0
C639 C 0.69472 0.32311 0.48171 0.0
loop_
_geom_bond_atom_site_label_1
_geom_bond_atom_site_label_2
_geom_bond_distance
_geom_bond_site_symmetry_2
_ccdc_geom_bond_type
H0 C5 0.930 . S
H1 C8 0.930 . S
H2 C10 0.930 . S
H3 C4 1.016 . S
C4 H3 1.016 . S
C4 N11 1.286 . S
C5 H0 0.930 . S
C5 C6 1.397 . S
C5 C7 1.361 . S
C6 C5 1.397 . S
C6 C10 1.390 . S
C7 C5 1.361 . S
C7 C8 1.393 . S
C7 N11 1.413 . S
C8 H1 0.930 . S
C8 C7 1.393 . S
C8 C9 1.399 . S
C9 C8 1.399 . S
C9 C10 1.381 . S
C10 H2 0.930 . S
C10 C6 1.390 . S
C10 C9 1.381 . S
N11 C4 1.286 . S
N11 C7 1.413 . S
H12 C17 0.930 . S
H13 C20 0.930 . S
H14 C22 0.930 . S
H15 C16 1.016 . S
C16 H15 1.016 . S
C16 N23 1.286 . S
C17 H12 0.930 . S
C17 C18 1.397 . S
C17 C19 1.361 . S
C18 C17 1.397 . S
C18 C22 1.390 . S
C19 C17 1.361 . S
C19 C20 1.393 . S
C19 N23 1.413 . S
C20 H13 0.930 . S
C20 C19 1.393 . S
C20 C21 1.399 . S
C21 C20 1.399 . S
C21 C22 1.381 . S
C22 H14 0.930 . S
C22 C18 1.390 . S
C22 C21 1.381 . S
N23 C16 1.286 . S
N23 C19 1.413 . S
H24 C29 0.930 . S
H25 C32 0.930 . S
H26 C34 0.930 . S
H27 C28 1.016 . S
C28 H27 1.016 . S
C28 N35 1.286 . S
C29 H24 0.930 . S
C29 C30 1.397 . S
C29 C31 1.361 . S
C30 C29 1.397 . S
C30 C34 1.390 . S
C31 C29 1.361 . S
C31 C32 1.393 . S
C31 N35 1.413 . S
C32 H25 0.930 . S
C32 C31 1.393 . S
C32 C33 1.399 . S
C33 C32 1.399 . S
C33 C34 1.381 . S
C34 H26 0.930 . S
C34 C30 1.390 . S
C34 C33 1.381 . S
N35 C28 1.286 . S
N35 C31 1.413 . S
H36 C41 0.930 . S
H37 C44 0.930 . S
H38 C46 0.930 . S
H39 C40 1.016 . S
C40 H39 1.016 . S
C40 N47 1.286 . S
C41 H36 0.930 . S
C41 C42 1.397 . S
C41 C43 1.361 . S
C42 C41 1.397 . S
C42 C46 1.390 . S
C43 C41 1.361 . S
C43 C44 1.393 . S
C43 N47 1.413 . S
C44 H37 0.930 . S
C44 C43 1.393 . S
C44 C45 1.399 . S
C45 C44 1.399 . S
C45 C46 1.381 . S
C46 H38 0.930 . S
C46 C42 1.390 . S
C46 C45 1.381 . S
N47 C40 1.286 . S
N47 C43 1.413 . S
H48 C53 0.930 . S
H49 C56 0.930 . S
H50 C58 0.930 . S
H51 C52 1.016 . S
C52 H51 1.016 . S
C52 N59 1.286 . S
C53 H48 0.930 . S
C53 C54 1.397 . S
C53 C55 1.361 . S
C54 C53 1.397 . S
C54 C58 1.390 . S
C55 C53 1.361 . S
C55 C56 1.393 . S
C55 N59 1.413 . S
C56 H49 0.930 . S
C56 C55 1.393 . S
C56 C57 1.399 . S
C57 C56 1.399 . S
C57 C58 1.381 . S
C58 H50 0.930 . S
C58 C54 1.390 . S
C58 C57 1.381 . S
N59 C52 1.286 . S
N59 C55 1.413 . S
H60 C65 0.930 . S
H61 C68 0.930 . S
H62 C70 0.930 . S
H63 C64 1.016 . S
C64 H63 1.016 . S
C64 N71 1.286 . S
C65 H60 0.930 . S
C65 C66 1.397 . S
C65 C67 1.361 . S
C66 C65 1.397 . S
C66 C70 1.390 . S
C67 C65 1.361 . S
C67 C68 1.393 . S
C67 N71 1.413 . S
C68 H61 0.930 . S
C68 C67 1.393 . S
C68 C69 1.399 . S
C69 C68 1.399 . S
C69 C70 1.381 . S
C70 H62 0.930 . S
C70 C66 1.390 . S
C70 C69 1.381 . S
N71 C64 1.286 . S
N71 C67 1.413 . S
H72 C77 0.930 . S
H73 C80 0.930 . S
H74 C82 0.930 . S
H75 C76 1.016 . S
C76 H75 1.016 . S
C76 N83 1.286 . S
C77 H72 0.930 . S
C77 C78 1.397 . S
C77 C79 1.361 . S
C78 C77 1.397 . S
C78 C82 1.390 . S
C79 C77 1.361 . S
C79 C80 1.393 . S
C79 N83 1.413 . S
C80 H73 0.930 . S
C80 C79 1.393 . S
C80 C81 1.399 . S
C81 C80 1.399 . S
C81 C82 1.381 . S
C82 H74 0.930 . S
C82 C78 1.390 . S
C82 C81 1.381 . S
N83 C76 1.286 . S
N83 C79 1.413 . S
H84 C89 0.930 . S
H85 C92 0.930 . S
H86 C94 0.930 . S
H87 C88 1.016 . S
C88 H87 1.016 . S
C88 N95 1.286 . S
C89 H84 0.930 . S
C89 C90 1.397 . S
C89 C91 1.361 . S
C90 C89 1.397 . S
C90 C94 1.390 . S
C91 C89 1.361 . S
C91 C92 1.393 . S
C91 N95 1.413 . S
C92 H85 0.930 . S
C92 C91 1.393 . S
C92 C93 1.399 . S
C93 C92 1.399 . S
C93 C94 1.381 . S
C94 H86 0.930 . S
C94 C90 1.390 . S
C94 C93 1.381 . S
N95 C88 1.286 . S
N95 C91 1.413 . S
Dy96 O99 2.307 1_545 S
Dy96 O101 2.395 . S
Dy96 O102 2.379 . S
Dy96 O104 2.339 1_545 S
Dy96 O106 2.298 . S
Dy96 O110 2.275 . S
Dy96 C118 2.738 . S
Dy97 O100 2.298 . S
Dy97 O103 2.275 . S
Dy97 O105 2.307 1_565 S
Dy97 O107 2.395 . S
Dy97 O108 2.379 . S
Dy97 O111 2.339 1_565 S
Dy97 C127 2.738 . S
C98 O110 1.254 . S
C98 O111 1.257 1_455 S
O99 Dy96 2.307 1_565 S
O99 C109 1.266 . S
O100 Dy97 2.298 . S
O100 C109 1.236 1_655 S
O101 Dy96 2.395 . S
O101 C118 1.255 . S
O102 Dy96 2.379 . S
O102 C118 1.249 . S
O103 Dy97 2.275 . S
O103 C119 1.254 . S
O104 Dy96 2.339 1_565 S
O104 C119 1.257 1_455 S
O105 Dy97 2.307 1_545 S
O105 C120 1.266 . S
O106 Dy96 2.298 . S
O106 C120 1.236 1_455 S
O107 Dy97 2.395 . S
O107 C127 1.255 . S
O108 Dy97 2.379 . S
O108 C127 1.249 . S
C109 O99 1.266 . S
C109 O100 1.236 1_455 S
O110 Dy96 2.275 . S
O110 C98 1.254 . S
O111 Dy97 2.339 1_545 S
O111 C98 1.257 1_655 S
C112 C115 1.344 . S
C112 C116 1.328 . S
C112 C118 1.516 . S
C113 C114 1.304 . S
C113 C117 1.323 . S
C114 C113 1.304 . S
C114 C115 1.371 . S
C114 H128 0.930 . S
C115 C112 1.344 . S
C115 C114 1.371 . S
C115 H129 0.931 . S
C116 C112 1.328 . S
C116 C117 1.433 . S
C116 H130 0.931 . S
C117 C113 1.323 . S
C117 C116 1.433 . S
C117 H131 0.933 . S
C118 Dy96 2.738 . S
C118 O101 1.255 . S
C118 O102 1.249 . S
C118 C112 1.516 . S
C119 O103 1.254 . S
C119 O104 1.257 1_655 S
C120 O105 1.266 . S
C120 O106 1.236 1_655 S
C121 C124 1.344 . S
C121 C125 1.328 . S
C121 C127 1.516 . S
C122 C123 1.304 . S
C122 C126 1.323 . S
C123 C122 1.304 . S
C123 C124 1.371 . S
C123 H132 0.930 . S
C124 C121 1.344 . S
C124 C123 1.371 . S
C124 H133 0.931 . S
C125 C121 1.328 . S
C125 C126 1.433 . S
C125 H134 0.931 . S
C126 C122 1.323 . S
C126 C125 1.433 . S
C126 H135 0.933 . S
C127 Dy97 2.738 . S
C127 O107 1.255 . S
C127 O108 1.249 . S
C127 C121 1.516 . S
H128 C114 0.930 . S
H129 C115 0.931 . S
H130 C116 0.931 . S
H131 C117 0.933 . S
H132 C123 0.930 . S
H133 C124 0.931 . S
H134 C125 0.931 . S
H135 C126 0.933 . S
Dy136 O139 2.307 1_556 S
Dy136 O141 2.395 1_545 S
Dy136 O142 2.379 1_545 S
Dy136 O144 2.339 . S
Dy136 O146 2.298 1_545 S
Dy136 O150 2.275 1_546 S
Dy136 C158 2.738 1_545 S
Dy137 O140 2.298 . S
Dy137 O143 2.275 1_554 S
Dy137 O145 2.307 1_544 S
Dy137 O147 2.395 . S
Dy137 O148 2.379 . S
Dy137 O151 2.339 1_545 S
Dy137 C167 2.738 . S
C138 O150 1.254 . S
C138 O151 1.257 . S
O139 Dy136 2.307 1_554 S
O139 C149 1.266 . S
O140 Dy137 2.298 . S
O140 C149 1.236 . S
O141 Dy136 2.395 1_565 S
O141 C158 1.255 . S
O142 Dy136 2.379 1_565 S
O142 C158 1.249 . S
O143 Dy137 2.275 1_556 S
O143 C159 1.254 . S
O144 Dy136 2.339 . S
O144 C159 1.257 . S
O145 Dy137 2.307 1_566 S
O145 C160 1.266 . S
O146 Dy136 2.298 1_565 S
O146 C160 1.236 . S
O147 Dy137 2.395 . S
O147 C167 1.255 . S
O148 Dy137 2.379 . S
O148 C167 1.249 . S
C149 O139 1.266 . S
C149 O140 1.236 . S
O150 Dy136 2.275 1_564 S
O150 C138 1.254 . S
O151 Dy137 2.339 1_565 S
O151 C138 1.257 . S
C152 C155 1.344 . S
C152 C156 1.328 . S
C152 C158 1.516 . S
C153 C154 1.304 . S
C153 C157 1.323 . S
C154 C153 1.304 . S
C154 C155 1.371 . S
C154 H168 0.930 . S
C155 C152 1.344 . S
C155 C154 1.371 . S
C155 H169 0.931 . S
C156 C152 1.328 . S
C156 C157 1.433 . S
C156 H170 0.931 . S
C157 C153 1.323 . S
C157 C156 1.433 . S
C157 H171 0.933 . S
C158 Dy136 2.738 1_565 S
C158 O141 1.255 . S
C158 O142 1.249 . S
C158 C152 1.516 . S
C159 O143 1.254 . S
C159 O144 1.257 . S
C160 O145 1.266 . S
C160 O146 1.236 . S
C161 C164 1.344 . S
C161 C165 1.328 . S
C161 C167 1.516 . S
C162 C163 1.304 . S
C162 C166 1.323 . S
C163 C162 1.304 . S
C163 C164 1.371 . S
C163 H172 0.930 . S
C164 C161 1.344 . S
C164 C163 1.371 . S
C164 H173 0.931 . S
C165 C161 1.328 . S
C165 C166 1.433 . S
C165 H174 0.931 . S
C166 C162 1.323 . S
C166 C165 1.433 . S
C166 H175 0.933 . S
C167 Dy137 2.738 . S
C167 O147 1.255 . S
C167 O148 1.249 . S
C167 C161 1.516 . S
H168 C154 0.930 . S
H169 C155 0.931 . S
H170 C156 0.931 . S
H171 C157 0.933 . S
H172 C163 0.930 . S
H173 C164 0.931 . S
H174 C165 0.931 . S
H175 C166 0.933 . S
Dy176 O179 2.307 . S
Dy176 O181 2.395 . S
Dy176 O182 2.379 . S
Dy176 O184 2.339 . S
Dy176 O186 2.298 . S
Dy176 O190 2.275 . S
Dy176 C198 2.738 . S
Dy177 O180 2.298 . S
Dy177 O183 2.275 . S
Dy177 O185 2.307 . S
Dy177 O187 2.395 . S
Dy177 O188 2.379 . S
Dy177 O191 2.339 . S
Dy177 C207 2.738 . S
C178 O190 1.254 . S
C178 O191 1.257 . S
O179 Dy176 2.307 . S
O179 C189 1.266 . S
O180 Dy177 2.298 . S
O180 C189 1.236 . S
O181 Dy176 2.395 . S
O181 C198 1.255 . S
O182 Dy176 2.379 . S
O182 C198 1.249 . S
O183 Dy177 2.275 . S
O183 C199 1.254 . S
O184 Dy176 2.339 . S
O184 C199 1.257 . S
O185 Dy177 2.307 . S
O185 C200 1.266 . S
O186 Dy176 2.298 . S
O186 C200 1.236 . S
O187 Dy177 2.395 . S
O187 C207 1.255 . S
O188 Dy177 2.379 . S
O188 C207 1.249 . S
C189 O179 1.266 . S
C189 O180 1.236 . S
O190 Dy176 2.275 . S
O190 C178 1.254 . S
O191 Dy177 2.339 . S
O191 C178 1.257 . S
C192 C195 1.344 . S
C192 C196 1.328 . S
C192 C198 1.516 . S
C193 C194 1.304 . S
C193 C197 1.323 . S
C194 C193 1.304 . S
C194 C195 1.371 . S
C194 H208 0.930 . S
C195 C192 1.344 . S
C195 C194 1.371 . S
C195 H209 0.931 . S
C196 C192 1.328 . S
C196 C197 1.433 . S
C196 H210 0.931 . S
C197 C193 1.323 . S
C197 C196 1.433 . S
C197 H211 0.933 . S
C198 Dy176 2.738 . S
C198 O181 1.255 . S
C198 O182 1.249 . S
C198 C192 1.516 . S
C199 O183 1.254 . S
C199 O184 1.257 . S
C200 O185 1.266 . S
C200 O186 1.236 . S
C201 C204 1.344 . S
C201 C205 1.328 . S
C201 C207 1.516 . S
C202 C203 1.304 . S
C202 C206 1.323 . S
C203 C202 1.304 . S
C203 C204 1.371 . S
C203 H212 0.930 . S
C204 C201 1.344 . S
C204 C203 1.371 . S
C204 H213 0.931 . S
C205 C201 1.328 . S
C205 C206 1.433 . S
C205 H214 0.931 . S
C206 C202 1.323 . S
C206 C205 1.433 . S
C206 H215 0.933 . S
C207 Dy177 2.738 . S
C207 O187 1.255 . S
C207 O188 1.249 . S
C207 C201 1.516 . S
H208 C194 0.930 . S
H209 C195 0.931 . S
H210 C196 0.931 . S
H211 C197 0.933 . S
H212 C203 0.930 . S
H213 C204 0.931 . S
H214 C205 0.931 . S
H215 C206 0.933 . S
Dy216 O219 2.307 1_556 S
Dy216 O221 2.395 1_455 S
Dy216 O222 2.379 1_455 S
Dy216 O224 2.339 . S
Dy216 O226 2.298 1_455 S
Dy216 O230 2.275 1_456 S
Dy216 C238 2.738 1_455 S
Dy217 O220 2.298 . S
Dy217 O223 2.275 1_554 S
Dy217 O225 2.307 1_455 S
Dy217 O227 2.395 . S
Dy217 O228 2.379 . S
Dy217 O231 2.339 1_455 S
Dy217 C247 2.738 . S
C218 O230 1.254 . S
C218 O231 1.257 . S
O219 Dy216 2.307 1_554 S
O219 C229 1.266 . S
O220 Dy217 2.298 . S
O220 C229 1.236 . S
O221 Dy216 2.395 1_655 S
O221 C238 1.255 . S
O222 Dy216 2.379 1_655 S
O222 C238 1.249 . S
O223 Dy217 2.275 1_556 S
O223 C239 1.254 . S
O224 Dy216 2.339 . S
O224 C239 1.257 . S
O225 Dy217 2.307 1_655 S
O225 C240 1.266 1_554 S
O226 Dy216 2.298 1_655 S
O226 C240 1.236 . S
O227 Dy217 2.395 . S
O227 C247 1.255 . S
O228 Dy217 2.379 . S
O228 C247 1.249 . S
C229 O219 1.266 . S
C229 O220 1.236 . S
O230 Dy216 2.275 1_654 S
O230 C218 1.254 . S
O231 Dy217 2.339 1_655 S
O231 C218 1.257 . S
C232 C235 1.344 . S
C232 C236 1.328 . S
C232 C238 1.516 . S
C233 C234 1.304 . S
C233 C237 1.323 . S
C234 C233 1.304 . S
C234 C235 1.371 . S
C234 H248 0.930 . S
C235 C232 1.344 . S
C235 C234 1.371 . S
C235 H249 0.931 . S
C236 C232 1.328 . S
C236 C237 1.433 . S
C236 H250 0.931 . S
C237 C233 1.323 . S
C237 C236 1.433 . S
C237 H251 0.933 . S
C238 Dy216 2.738 1_655 S
C238 O221 1.255 . S
C238 O222 1.249 . S
C238 C232 1.516 . S
C239 O223 1.254 . S
C239 O224 1.257 . S
C240 O225 1.266 1_556 S
C240 O226 1.236 . S
C241 C244 1.344 . S
C241 C245 1.328 . S
C241 C247 1.516 . S
C242 C243 1.304 . S
C242 C246 1.323 . S
C243 C242 1.304 . S
C243 C244 1.371 . S
C243 H252 0.930 . S
C244 C241 1.344 . S
C244 C243 1.371 . S
C244 H253 0.931 . S
C245 C241 1.328 . S
C245 C246 1.433 . S
C245 H254 0.931 . S
C246 C242 1.323 . S
C246 C245 1.433 . S
C246 H255 0.933 . S
C247 Dy217 2.738 . S
C247 O227 1.255 . S
C247 O228 1.249 . S
C247 C241 1.516 . S
H248 C234 0.930 . S
H249 C235 0.931 . S
H250 C236 0.931 . S
H251 C237 0.933 . S
H252 C243 0.930 . S
H253 C244 0.931 . S
H254 C245 0.931 . S
H255 C246 0.933 . S
H256 C262 0.930 . S
H257 C265 0.930 . S
H258 C266 0.930 . S
H259 C267 0.930 . S
H260 C270 0.930 . S
H261 C271 0.930 . S
C262 H256 0.930 . S
C262 C263 1.355 . S
C262 C264 1.415 . S
C263 C262 1.355 . S
C263 C265 1.419 . S
C264 C262 1.415 . S
C264 C269 1.425 . S
C264 C271 1.409 . S
C265 H257 0.930 . S
C265 C263 1.419 . S
C265 C266 1.362 . S
C266 H258 0.930 . S
C266 C265 1.362 . S
C266 C269 1.409 . S
C267 H259 0.930 . S
C267 C268 1.355 . S
C267 C269 1.415 . S
C268 C267 1.355 . S
C268 C270 1.419 . S
C269 C264 1.425 . S
C269 C266 1.409 . S
C269 C267 1.415 . S
C270 H260 0.930 . S
C270 C268 1.419 . S
C270 C271 1.362 . S
C271 H261 0.930 . S
C271 C264 1.409 . S
C271 C270 1.362 . S
H272 C278 0.930 . S
H273 C281 0.930 . S
H274 C282 0.930 . S
H275 C283 0.930 . S
H276 C286 0.930 . S
H277 C287 0.930 . S
C278 H272 0.930 . S
C278 C279 1.355 . S
C278 C280 1.415 . S
C279 C278 1.355 . S
C279 C281 1.419 . S
C280 C278 1.415 . S
C280 C285 1.425 . S
C280 C287 1.409 . S
C281 H273 0.930 . S
C281 C279 1.419 . S
C281 C282 1.362 . S
C282 H274 0.930 . S
C282 C281 1.362 . S
C282 C285 1.409 . S
C283 H275 0.930 . S
C283 C284 1.355 . S
C283 C285 1.415 . S
C284 C283 1.355 . S
C284 C286 1.419 . S
C285 C280 1.425 . S
C285 C282 1.409 . S
C285 C283 1.415 . S
C286 H276 0.930 . S
C286 C284 1.419 . S
C286 C287 1.362 . S
C287 H277 0.930 . S
C287 C280 1.409 . S
C287 C286 1.362 . S
H288 C294 0.930 . S
H289 C297 0.930 . S
H290 C298 0.930 . S
H291 C299 0.930 . S
H292 C302 0.930 . S
H293 C303 0.930 . S
C294 H288 0.930 . S
C294 C295 1.355 . S
C294 C296 1.415 . S
C295 C294 1.355 . S
C295 C297 1.419 . S
C296 C294 1.415 . S
C296 C301 1.425 . S
C296 C303 1.409 . S
C297 H289 0.930 . S
C297 C295 1.419 . S
C297 C298 1.362 . S
C298 H290 0.930 . S
C298 C297 1.362 . S
C298 C301 1.409 . S
C299 H291 0.930 . S
C299 C300 1.355 . S
C299 C301 1.415 . S
C300 C299 1.355 . S
C300 C302 1.419 . S
C301 C296 1.425 . S
C301 C298 1.409 . S
C301 C299 1.415 . S
C302 H292 0.930 . S
C302 C300 1.419 . S
C302 C303 1.362 . S
C303 H293 0.930 . S
C303 C296 1.409 . S
C303 C302 1.362 . S
H304 C310 0.930 . S
H305 C313 0.930 . S
H306 C314 0.930 . S
H307 C315 0.930 . S
H308 C318 0.930 . S
H309 C319 0.930 . S
C310 H304 0.930 . S
C310 C311 1.355 . S
C310 C312 1.415 . S
C311 C310 1.355 . S
C311 C313 1.419 . S
C312 C310 1.415 . S
C312 C317 1.425 . S
C312 C319 1.409 . S
C313 H305 0.930 . S
C313 C311 1.419 . S
C313 C314 1.362 . S
C314 H306 0.930 . S
C314 C313 1.362 . S
C314 C317 1.409 . S
C315 H307 0.930 . S
C315 C316 1.355 . S
C315 C317 1.415 . S
C316 C315 1.355 . S
C316 C318 1.419 . S
C317 C312 1.425 . S
C317 C314 1.409 . S
C317 C315 1.415 . S
C318 H308 0.930 . S
C318 C316 1.419 . S
C318 C319 1.362 . S
C319 H309 0.930 . S
C319 C312 1.409 . S
C319 C318 1.362 . S
H320 C326 0.930 . S
H321 C329 0.930 . S
H322 C330 0.930 . S
H323 C331 0.930 . S
H324 C334 0.930 . S
H325 C335 0.930 . S
C326 H320 0.930 . S
C326 C327 1.355 . S
C326 C328 1.415 . S
C327 C326 1.355 . S
C327 C329 1.419 . S
C328 C326 1.415 . S
C328 C333 1.425 . S
C328 C335 1.409 . S
C329 H321 0.930 . S
C329 C327 1.419 . S
C329 C330 1.362 . S
C330 H322 0.930 . S
C330 C329 1.362 . S
C330 C333 1.409 . S
C331 H323 0.930 . S
C331 C332 1.355 . S
C331 C333 1.415 . S
C332 C331 1.355 . S
C332 C334 1.419 . S
C333 C328 1.425 . S
C333 C330 1.409 . S
C333 C331 1.415 . S
C334 H324 0.930 . S
C334 C332 1.419 . S
C334 C335 1.362 . S
C335 H325 0.930 . S
C335 C328 1.409 . S
C335 C334 1.362 . S
H336 C342 0.930 1_655 S
H337 C345 0.930 . S
H338 C346 0.930 . S
H339 C347 0.930 . S
H340 C350 0.930 . S
H341 C351 0.930 . S
C342 H336 0.930 1_455 S
C342 C343 1.355 . S
C342 C344 1.415 . S
C343 C342 1.355 . S
C343 C345 1.419 . S
C344 C342 1.415 . S
C344 C349 1.425 . S
C344 C351 1.409 1_455 S
C345 H337 0.930 . S
C345 C343 1.419 . S
C345 C346 1.362 . S
C346 H338 0.930 . S
C346 C345 1.362 . S
C346 C349 1.409 . S
C347 H339 0.930 . S
C347 C348 1.355 . S
C347 C349 1.415 . S
C348 C347 1.355 . S
C348 C350 1.419 1_455 S
C349 C344 1.425 . S
C349 C346 1.409 . S
C349 C347 1.415 . S
C350 H340 0.930 . S
C350 C348 1.419 1_655 S
C350 C351 1.362 . S
C351 H341 0.930 . S
C351 C344 1.409 1_655 S
C351 C350 1.362 . S
H352 C358 0.930 . S
H353 C361 0.930 . S
H354 C362 0.930 . S
H355 C363 0.930 . S
H356 C366 0.930 1_554 S
H357 C367 0.930 . S
C358 H352 0.930 . S
C358 C359 1.355 . S
C358 C360 1.415 . S
C359 C358 1.355 . S
C359 C361 1.419 . S
C360 C358 1.415 . S
C360 C365 1.425 . S
C360 C367 1.409 . S
C361 H353 0.930 . S
C361 C359 1.419 . S
C361 C362 1.362 . S
C362 H354 0.930 . S
C362 C361 1.362 . S
C362 C365 1.409 . S
C363 H355 0.930 . S
C363 C364 1.355 . S
C363 C365 1.415 . S
C364 C363 1.355 . S
C364 C366 1.419 . S
C365 C360 1.425 . S
C365 C362 1.409 . S
C365 C363 1.415 . S
C366 H356 0.930 1_556 S
C366 C364 1.419 . S
C366 C367 1.362 . S
C367 H357 0.930 . S
C367 C360 1.409 . S
C367 C366 1.362 . S
H368 C374 0.930 . S
H369 C377 0.930 . S
H370 C378 0.930 . S
H371 C379 0.930 . S
H372 C382 0.930 . S
H373 C383 0.930 . S
C374 H368 0.930 . S
C374 C375 1.355 . S
C374 C376 1.415 . S
C375 C374 1.355 . S
C375 C377 1.419 . S
C376 C374 1.415 . S
C376 C381 1.425 . S
C376 C383 1.409 . S
C377 H369 0.930 . S
C377 C375 1.419 . S
C377 C378 1.362 . S
C378 H370 0.930 . S
C378 C377 1.362 . S
C378 C381 1.409 . S
C379 H371 0.930 . S
C379 C380 1.355 . S
C379 C381 1.415 . S
C380 C379 1.355 . S
C380 C382 1.419 . S
C381 C376 1.425 . S
C381 C378 1.409 . S
C381 C379 1.415 . S
C382 H372 0.930 . S
C382 C380 1.419 . S
C382 C383 1.362 . S
C383 H373 0.930 . S
C383 C376 1.409 . S
C383 C382 1.362 . S
H384 C390 0.930 . S
H385 C393 0.930 . S
H386 C394 0.930 . S
H387 C395 0.930 . S
H388 C398 0.930 . S
H389 C399 0.930 . S
C390 H384 0.930 . S
C390 C391 1.355 . S
C390 C392 1.415 . S
C391 C390 1.355 . S
C391 C393 1.419 . S
C392 C390 1.415 . S
C392 C397 1.425 . S
C392 C399 1.409 . S
C393 H385 0.930 . S
C393 C391 1.419 . S
C393 C394 1.362 . S
C394 H386 0.930 . S
C394 C393 1.362 . S
C394 C397 1.409 . S
C395 H387 0.930 . S
C395 C396 1.355 . S
C395 C397 1.415 . S
C396 C395 1.355 . S
C396 C398 1.419 . S
C397 C392 1.425 . S
C397 C394 1.409 . S
C397 C395 1.415 . S
C398 H388 0.930 . S
C398 C396 1.419 . S
C398 C399 1.362 . S
C399 H389 0.930 . S
C399 C392 1.409 . S
C399 C398 1.362 . S
H400 C406 0.930 . S
H401 C409 0.930 . S
H402 C410 0.930 . S
H403 C411 0.930 . S
H404 C414 0.930 . S
H405 C415 0.930 . S
C406 H400 0.930 . S
C406 C407 1.355 . S
C406 C408 1.415 . S
C407 C406 1.355 . S
C407 C409 1.419 . S
C408 C406 1.415 . S
C408 C413 1.425 . S
C408 C415 1.409 . S
C409 H401 0.930 . S
C409 C407 1.419 . S
C409 C410 1.362 . S
C410 H402 0.930 . S
C410 C409 1.362 . S
C410 C413 1.409 . S
C411 H403 0.930 . S
C411 C412 1.355 . S
C411 C413 1.415 . S
C412 C411 1.355 . S
C412 C414 1.419 . S
C413 C408 1.425 . S
C413 C410 1.409 . S
C413 C411 1.415 . S
C414 H404 0.930 . S
C414 C412 1.419 . S
C414 C415 1.362 . S
C415 H405 0.930 . S
C415 C408 1.409 . S
C415 C414 1.362 . S
H416 C422 0.930 . S
H417 C425 0.930 . S
H418 C426 0.930 . S
H419 C427 0.930 . S
H420 C430 0.930 1_455 S
H421 C431 0.930 . S
C422 H416 0.930 . S
C422 C423 1.355 . S
C422 C424 1.415 . S
C423 C422 1.355 . S
C423 C425 1.419 . S
C424 C422 1.415 . S
C424 C429 1.425 . S
C424 C431 1.409 . S
C425 H417 0.930 . S
C425 C423 1.419 . S
C425 C426 1.362 . S
C426 H418 0.930 . S
C426 C425 1.362 . S
C426 C429 1.409 . S
C427 H419 0.930 . S
C427 C428 1.355 . S
C427 C429 1.415 . S
C428 C427 1.355 . S
C428 C430 1.419 . S
C429 C424 1.425 . S
C429 C426 1.409 . S
C429 C427 1.415 . S
C430 H420 0.930 1_655 S
C430 C428 1.419 . S
C430 C431 1.362 . S
C431 H421 0.930 . S
C431 C424 1.409 . S
C431 C430 1.362 . S
H432 C438 0.930 . S
H433 C441 0.930 . S
H434 C442 0.930 . S
H435 C443 0.930 . S
H436 C446 0.930 . S
H437 C447 0.930 . S
C438 H432 0.930 . S
C438 C439 1.355 . S
C438 C440 1.415 . S
C439 C438 1.355 . S
C439 C441 1.419 . S
C440 C438 1.415 . S
C440 C445 1.425 . S
C440 C447 1.409 . S
C441 H433 0.930 . S
C441 C439 1.419 . S
C441 C442 1.362 . S
C442 H434 0.930 . S
C442 C441 1.362 . S
C442 C445 1.409 . S
C443 H435 0.930 . S
C443 C444 1.355 . S
C443 C445 1.415 . S
C444 C443 1.355 . S
C444 C446 1.419 . S
C445 C440 1.425 . S
C445 C442 1.409 . S
C445 C443 1.415 . S
C446 H436 0.930 . S
C446 C444 1.419 . S
C446 C447 1.362 . S
C447 H437 0.930 . S
C447 C440 1.409 . S
C447 C446 1.362 . S
H448 C454 0.930 . S
H449 C457 0.930 . S
H450 C458 0.930 . S
H451 C459 0.930 . S
H452 C462 0.930 . S
H453 C463 0.930 . S
C454 H448 0.930 . S
C454 C455 1.355 . S
C454 C456 1.415 . S
C455 C454 1.355 . S
C455 C457 1.419 . S
C456 C454 1.415 . S
C456 C461 1.425 . S
C456 C463 1.409 . S
C457 H449 0.930 . S
C457 C455 1.419 . S
C457 C458 1.362 . S
C458 H450 0.930 . S
C458 C457 1.362 . S
C458 C461 1.409 . S
C459 H451 0.930 . S
C459 C460 1.355 . S
C459 C461 1.415 . S
C460 C459 1.355 . S
C460 C462 1.419 . S
C461 C456 1.425 . S
C461 C458 1.409 . S
C461 C459 1.415 . S
C462 H452 0.930 . S
C462 C460 1.419 . S
C462 C463 1.362 . S
C463 H453 0.930 . S
C463 C456 1.409 . S
C463 C462 1.362 . S
H464 C470 0.930 . S
H465 C473 0.930 . S
H466 C474 0.930 . S
H467 C475 0.930 . S
H468 C478 0.930 . S
H469 C479 0.930 . S
C470 H464 0.930 . S
C470 C471 1.355 . S
C470 C472 1.415 . S
C471 C470 1.355 . S
C471 C473 1.419 . S
C472 C470 1.415 . S
C472 C477 1.425 . S
C472 C479 1.409 . S
C473 H465 0.930 . S
C473 C471 1.419 . S
C473 C474 1.362 . S
C474 H466 0.930 . S
C474 C473 1.362 . S
C474 C477 1.409 . S
C475 H467 0.930 . S
C475 C476 1.355 . S
C475 C477 1.415 . S
C476 C475 1.355 . S
C476 C478 1.419 . S
C477 C472 1.425 . S
C477 C474 1.409 . S
C477 C475 1.415 . S
C478 H468 0.930 . S
C478 C476 1.419 . S
C478 C479 1.362 . S
C479 H469 0.930 . S
C479 C472 1.409 . S
C479 C478 1.362 . S
H480 C486 0.930 . S
H481 C489 0.930 . S
H482 C490 0.930 . S
H483 C491 0.930 . S
H484 C494 0.930 . S
H485 C495 0.930 . S
C486 H480 0.930 . S
C486 C487 1.355 . S
C486 C488 1.415 . S
C487 C486 1.355 . S
C487 C489 1.419 . S
C488 C486 1.415 . S
C488 C493 1.425 . S
C488 C495 1.409 . S
C489 H481 0.930 . S
C489 C487 1.419 . S
C489 C490 1.362 . S
C490 H482 0.930 . S
C490 C489 1.362 . S
C490 C493 1.409 . S
C491 H483 0.930 . S
C491 C492 1.355 . S
C491 C493 1.415 . S
C492 C491 1.355 . S
C492 C494 1.419 . S
C493 C488 1.425 . S
C493 C490 1.409 . S
C493 C491 1.415 . S
C494 H484 0.930 . S
C494 C492 1.419 . S
C494 C495 1.362 . S
C495 H485 0.930 . S
C495 C488 1.409 . S
C495 C494 1.362 . S
H496 C502 0.930 . S
H497 C505 0.930 . S
H498 C506 0.930 . S
H499 C507 0.930 . S
H500 C510 0.930 . S
H501 C511 0.930 . S
C502 H496 0.930 . S
C502 C503 1.355 . S
C502 C504 1.415 . S
C503 C502 1.355 . S
C503 C505 1.419 . S
C504 C502 1.415 . S
C504 C509 1.425 . S
C504 C511 1.409 . S
C505 H497 0.930 . S
C505 C503 1.419 . S
C505 C506 1.362 . S
C506 H498 0.930 . S
C506 C505 1.362 . S
C506 C509 1.409 . S
C507 H499 0.930 . S
C507 C508 1.355 . S
C507 C509 1.415 . S
C508 C507 1.355 . S
C508 C510 1.419 . S
C509 C504 1.425 . S
C509 C506 1.409 . S
C509 C507 1.415 . S
C510 H500 0.930 . S
C510 C508 1.419 . S
C510 C511 1.362 . S
C511 H501 0.930 . S
C511 C504 1.409 . S
C511 C510 1.362 . S
H512 C518 0.930 . S
H513 C521 0.930 . S
H514 C522 0.930 . S
H515 C523 0.930 . S
H516 C526 0.930 . S
H517 C527 0.930 . S
C518 H512 0.930 . S
C518 C519 1.355 . S
C518 C520 1.415 . S
C519 C518 1.355 . S
C519 C521 1.419 . S
C520 C518 1.415 . S
C520 C525 1.425 . S
C520 C527 1.409 . S
C521 H513 0.930 . S
C521 C519 1.419 . S
C521 C522 1.362 . S
C522 H514 0.930 . S
C522 C521 1.362 . S
C522 C525 1.409 . S
C523 H515 0.930 . S
C523 C524 1.355 . S
C523 C525 1.415 . S
C524 C523 1.355 . S
C524 C526 1.419 . S
C525 C520 1.425 . S
C525 C522 1.409 . S
C525 C523 1.415 . S
C526 H516 0.930 . S
C526 C524 1.419 . S
C526 C527 1.362 . S
C527 H517 0.930 . S
C527 C520 1.409 . S
C527 C526 1.362 . S
H528 C534 0.930 . S
H529 C537 0.930 . S
H530 C538 0.930 . S
H531 C539 0.930 1_455 S
H532 C542 0.930 . S
H533 C543 0.930 . S
C534 H528 0.930 . S
C534 C535 1.355 . S
C534 C536 1.415 . S
C535 C534 1.355 . S
C535 C537 1.419 1_655 S
C536 C534 1.415 . S
C536 C541 1.425 . S
C536 C543 1.409 . S
C537 H529 0.930 . S
C537 C535 1.419 1_455 S
C537 C538 1.362 . S
C538 H530 0.930 . S
C538 C537 1.362 . S
C538 C541 1.409 1_455 S
C539 H531 0.930 1_655 S
C539 C540 1.355 . S
C539 C541 1.415 . S
C540 C539 1.355 . S
C540 C542 1.419 . S
C541 C536 1.425 . S
C541 C538 1.409 1_655 S
C541 C539 1.415 . S
C542 H532 0.930 . S
C542 C540 1.419 . S
C542 C543 1.362 . S
C543 H533 0.930 . S
C543 C536 1.409 . S
C543 C542 1.362 . S
H544 C550 0.930 . S
H545 C553 0.930 . S
H546 C554 0.930 . S
H547 C555 0.930 . S
H548 C558 0.930 . S
H549 C559 0.930 . S
C550 H544 0.930 . S
C550 C551 1.355 . S
C550 C552 1.415 . S
C551 C550 1.355 . S
C551 C553 1.419 . S
C552 C550 1.415 . S
C552 C557 1.425 . S
C552 C559 1.409 . S
C553 H545 0.930 . S
C553 C551 1.419 . S
C553 C554 1.362 . S
C554 H546 0.930 . S
C554 C553 1.362 . S
C554 C557 1.409 . S
C555 H547 0.930 . S
C555 C556 1.355 . S
C555 C557 1.415 . S
C556 C555 1.355 . S
C556 C558 1.419 . S
C557 C552 1.425 . S
C557 C554 1.409 . S
C557 C555 1.415 . S
C558 H548 0.930 . S
C558 C556 1.419 . S
C558 C559 1.362 . S
C559 H549 0.930 . S
C559 C552 1.409 . S
C559 C558 1.362 . S
H560 C566 0.930 . S
H561 C569 0.930 . S
H562 C570 0.930 . S
H563 C571 0.930 . S
H564 C574 0.930 . S
H565 C575 0.930 . S
C566 H560 0.930 . S
C566 C567 1.355 . S
C566 C568 1.415 . S
C567 C566 1.355 . S
C567 C569 1.419 . S
C568 C566 1.415 . S
C568 C573 1.425 . S
C568 C575 1.409 . S
C569 H561 0.930 . S
C569 C567 1.419 . S
C569 C570 1.362 . S
C570 H562 0.930 . S
C570 C569 1.362 . S
C570 C573 1.409 . S
C571 H563 0.930 . S
C571 C572 1.355 . S
C571 C573 1.415 . S
C572 C571 1.355 . S
C572 C574 1.419 . S
C573 C568 1.425 . S
C573 C570 1.409 . S
C573 C571 1.415 . S
C574 H564 0.930 . S
C574 C572 1.419 . S
C574 C575 1.362 . S
C575 H565 0.930 . S
C575 C568 1.409 . S
C575 C574 1.362 . S
H576 C582 0.930 . S
H577 C585 0.930 . S
H578 C586 0.930 . S
H579 C587 0.930 . S
H580 C590 0.930 . S
H581 C591 0.930 . S
C582 H576 0.930 . S
C582 C583 1.355 . S
C582 C584 1.415 . S
C583 C582 1.355 . S
C583 C585 1.419 . S
C584 C582 1.415 . S
C584 C589 1.425 . S
C584 C591 1.409 . S
C585 H577 0.930 . S
C585 C583 1.419 . S
C585 C586 1.362 . S
C586 H578 0.930 . S
C586 C585 1.362 . S
C586 C589 1.409 . S
C587 H579 0.930 . S
C587 C588 1.355 . S
C587 C589 1.415 . S
C588 C587 1.355 . S
C588 C590 1.419 . S
C589 C584 1.425 . S
C589 C586 1.409 . S
C589 C587 1.415 . S
C590 H580 0.930 . S
C590 C588 1.419 . S
C590 C591 1.362 . S
C591 H581 0.930 . S
C591 C584 1.409 . S
C591 C590 1.362 . S
H592 C598 0.930 . S
H593 C601 0.930 . S
H594 C602 0.930 . S
H595 C603 0.930 . S
H596 C606 0.930 . S
H597 C607 0.930 . S
C598 H592 0.930 . S
C598 C599 1.355 . S
C598 C600 1.415 . S
C599 C598 1.355 . S
C599 C601 1.419 . S
C600 C598 1.415 . S
C600 C605 1.425 . S
C600 C607 1.409 . S
C601 H593 0.930 . S
C601 C599 1.419 . S
C601 C602 1.362 . S
C602 H594 0.930 . S
C602 C601 1.362 . S
C602 C605 1.409 . S
C603 H595 0.930 . S
C603 C604 1.355 . S
C603 C605 1.415 . S
C604 C603 1.355 . S
C604 C606 1.419 . S
C605 C600 1.425 . S
C605 C602 1.409 . S
C605 C603 1.415 . S
C606 H596 0.930 . S
C606 C604 1.419 . S
C606 C607 1.362 . S
C607 H597 0.930 . S
C607 C600 1.409 . S
C607 C606 1.362 . S
H608 C614 0.930 . S
H609 C617 0.930 . S
H610 C618 0.930 . S
H611 C619 0.930 . S
H612 C622 0.930 . S
H613 C623 0.930 . S
C614 H608 0.930 . S
C614 C615 1.355 . S
C614 C616 1.415 . S
C615 C614 1.355 . S
C615 C617 1.419 . S
C616 C614 1.415 . S
C616 C621 1.425 . S
C616 C623 1.409 . S
C617 H609 0.930 . S
C617 C615 1.419 . S
C617 C618 1.362 . S
C618 H610 0.930 . S
C618 C617 1.362 . S
C618 C621 1.409 . S
C619 H611 0.930 . S
C619 C620 1.355 . S
C619 C621 1.415 . S
C620 C619 1.355 . S
C620 C622 1.419 . S
C621 C616 1.425 . S
C621 C618 1.409 . S
C621 C619 1.415 . S
C622 H612 0.930 . S
C622 C620 1.419 . S
C622 C623 1.362 . S
C623 H613 0.930 . S
C623 C616 1.409 . S
C623 C622 1.362 . S
H624 C630 0.930 . S
H625 C633 0.930 . S
H626 C634 0.930 . S
H627 C635 0.930 . S
H628 C638 0.930 . S
H629 C639 0.930 . S
C630 H624 0.930 . S
C630 C631 1.355 . S
C630 C632 1.415 . S
C631 C630 1.355 . S
C631 C633 1.419 . S
C632 C630 1.415 . S
C632 C637 1.425 . S
C632 C639 1.409 . S
C633 H625 0.930 . S
C633 C631 1.419 . S
C633 C634 1.362 . S
C634 H626 0.930 . S
C634 C633 1.362 . S
C634 C637 1.409 . S
C635 H627 0.930 . S
C635 C636 1.355 . S
C635 C637 1.415 . S
C636 C635 1.355 . S
C636 C638 1.419 . S
C637 C632 1.425 . S
C637 C634 1.409 . S
C637 C635 1.415 . S
C638 H628 0.930 . S
C638 C636 1.419 . S
C638 C639 1.362 . S
C639 H629 0.930 . S
C639 C632 1.409 . S
C639 C638 1.362 . S
C263 C6 1.096 . S
C268 C113 1.097 . S
C279 C18 1.275 . S
C284 C153 1.276 . S
C300 C178 2.544 . S
C295 C28 2.593 . S
C311 C40 1.907 . S
C316 C218 1.855 . S
C332 C149 1.792 . S
C327 C9 1.669 . S
C348 C109 1.693 . S
C343 C16 1.570 . S
C364 C240 1.755 . S
C359 C30 1.773 . S
C380 C200 1.415 . S
C375 C42 1.442 . S
C391 C4 1.280 . S
C396 C242 1.278 . S
C412 C159 2.393 . S
C407 C33 2.419 . S
C423 C45 1.913 . S
C428 C119 1.877 . S
C439 C21 1.445 . S
C444 C202 1.496 . S
C460 C122 1.083 . S
C455 C57 1.041 . S
C471 C66 1.194 . S
C476 C162 1.243 . S
C487 C76 2.647 . S
C492 C199 2.602 . S
C503 C88 1.808 . S
C508 C239 1.796 . S
C519 C54 1.676 . S
C524 C160 1.796 . S
C540 C120 1.802 . S
C535 C64 1.750 . S
C556 C229 1.624 . S
C551 C78 1.678 . S
C572 C189 1.486 . S
C567 C93 1.489 . S
C583 C52 1.379 . S
C588 C233 1.411 . S
C604 C138 2.350 . S
C599 C81 2.380 . S
C620 C98 1.885 . S
C615 C90 1.901 . S
C631 C69 1.462 . S
C636 C193 1.514 . S
