# Generated by pormake.
# Topology ctn, (3,4)-cn, num edge types: 1
# Building blocks:
#     Node 0, Type 0, BuildingBlock: BETDAH_clean_linker_0, # of connection points: 3
#     Node 1, Type 0, BuildingBlock: BETDAH_clean_linker_0, # of connection points: 3
#     Node 2, Type 0, BuildingBlock: BETDAH_clean_linker_0, # of connection points: 3
#     Node 3, Type 0, BuildingBlock: BETDAH_clean_linker_0, # of connection points: 3
#     Node 4, Type 0, BuildingBlock: BETDAH_clean_linker_0, # of connection points: 3
#     Node 5, Type 0, BuildingBlock: BETDAH_clean_linker_0, # of connection points: 3
#     Node 6, Type 0, BuildingBlock: BETDAH_clean_linker_0, # of connection points: 3
#     Node 7, Type 0, BuildingBlock: BETDAH_clean_linker_0, # of connection points: 3
#     Node 8, Type 0, BuildingBlock: BETDAH_clean_linker_0, # of connection points: 3
#     Node 9, Type 0, BuildingBlock: BETDAH_clean_linker_0, # of connection points: 3
#     Node 10, Type 0, BuildingBlock: BETDAH_clean_linker_0, # of connection points: 3
#     Node 11, Type 0, BuildingBlock: BETDAH_clean_linker_0, # of connection points: 3
#     Node 12, Type 0, BuildingBlock: BETDAH_clean_linker_0, # of connection points: 3
#     Node 13, Type 0, BuildingBlock: BETDAH_clean_linker_0, # of connection points: 3
#     Node 14, Type 0, BuildingBlock: BETDAH_clean_linker_0, # of connection points: 3
#     Node 15, Type 0, BuildingBlock: BETDAH_clean_linker_0, # of connection points: 3
#     Node 16, Type 1, BuildingBlock: KUFVIS_clean_sbu_0, # of connection points: 4
#     Node 17, Type 1, BuildingBlock: KUFVIS_clean_sbu_0, # of connection points: 4
#     Node 18, Type 1, BuildingBlock: KUFVIS_clean_sbu_0, # of connection points: 4
#     Node 19, Type 1, BuildingBlock: KUFVIS_clean_sbu_0, # of connection points: 4
#     Node 20, Type 1, BuildingBlock: KUFVIS_clean_sbu_0, # of connection points: 4
#     Node 21, Type 1, BuildingBlock: KUFVIS_clean_sbu_0, # of connection points: 4
#     Node 22, Type 1, BuildingBlock: KUFVIS_clean_sbu_0, # of connection points: 4
#     Node 23, Type 1, BuildingBlock: KUFVIS_clean_sbu_0, # of connection points: 4
#     Node 24, Type 1, BuildingBlock: KUFVIS_clean_sbu_0, # of connection points: 4
#     Node 25, Type 1, BuildingBlock: KUFVIS_clean_sbu_0, # of connection points: 4
#     Node 26, Type 1, BuildingBlock: KUFVIS_clean_sbu_0, # of connection points: 4
#     Node 27, Type 1, BuildingBlock: KUFVIS_clean_sbu_0, # of connection points: 4
#     Edge 28, Type (0, 1), BuildingBlock: XIVTED_clean_linker_0, # of connection points: 2
#     Edge 29, Type (0, 1), BuildingBlock: XIVTED_clean_linker_0, # of connection points: 2
#     Edge 30, Type (0, 1), BuildingBlock: XIVTED_clean_linker_0, # of connection points: 2
#     Edge 31, Type (0, 1), BuildingBlock: XIVTED_clean_linker_0, # of connection points: 2
#     Edge 32, Type (0, 1), BuildingBlock: XIVTED_clean_linker_0, # of connection points: 2
#     Edge 33, Type (0, 1), BuildingBlock: XIVTED_clean_linker_0, # of connection points: 2
#     Edge 34, Type (0, 1), BuildingBlock: XIVTED_clean_linker_0, # of connection points: 2
#     Edge 35, Type (0, 1), BuildingBlock: XIVTED_clean_linker_0, # of connection points: 2
#     Edge 36, Type (0, 1), BuildingBlock: XIVTED_clean_linker_0, # of connection points: 2
#     Edge 37, Type (0, 1), BuildingBlock: XIVTED_clean_linker_0, # of connection points: 2
#     Edge 38, Type (0, 1), BuildingBlock: XIVTED_clean_linker_0, # of connection points: 2
#     Edge 39, Type (0, 1), BuildingBlock: XIVTED_clean_linker_0, # of connection points: 2
#     Edge 40, Type (0, 1), BuildingBlock: XIVTED_clean_linker_0, # of connection points: 2
#     Edge 41, Type (0, 1), BuildingBlock: XIVTED_clean_linker_0, # of connection points: 2
#     Edge 42, Type (0, 1), BuildingBlock: XIVTED_clean_linker_0, # of connection points: 2
#     Edge 43, Type (0, 1), BuildingBlock: XIVTED_clean_linker_0, # of connection points: 2
#     Edge 44, Type (0, 1), BuildingBlock: XIVTED_clean_linker_0, # of connection points: 2
#     Edge 45, Type (0, 1), BuildingBlock: XIVTED_clean_linker_0, # of connection points: 2
#     Edge 46, Type (0, 1), BuildingBlock: XIVTED_clean_linker_0, # of connection points: 2
#     Edge 47, Type (0, 1), BuildingBlock: XIVTED_clean_linker_0, # of connection points: 2
#     Edge 48, Type (0, 1), BuildingBlock: XIVTED_clean_linker_0, # of connection points: 2
#     Edge 49, Type (0, 1), BuildingBlock: XIVTED_clean_linker_0, # of connection points: 2
#     Edge 50, Type (0, 1), BuildingBlock: XIVTED_clean_linker_0, # of connection points: 2
#     Edge 51, Type (0, 1), BuildingBlock: XIVTED_clean_linker_0, # of connection points: 2
#     Edge 52, Type (0, 1), BuildingBlock: XIVTED_clean_linker_0, # of connection points: 2
#     Edge 53, Type (0, 1), BuildingBlock: XIVTED_clean_linker_0, # of connection points: 2
#     Edge 54, Type (0, 1), BuildingBlock: XIVTED_clean_linker_0, # of connection points: 2
#     Edge 55, Type (0, 1), BuildingBlock: XIVTED_clean_linker_0, # of connection points: 2
#     Edge 56, Type (0, 1), BuildingBlock: XIVTED_clean_linker_0, # of connection points: 2
#     Edge 57, Type (0, 1), BuildingBlock: XIVTED_clean_linker_0, # of connection points: 2
#     Edge 58, Type (0, 1), BuildingBlock: XIVTED_clean_linker_0, # of connection points: 2
#     Edge 59, Type (0, 1), BuildingBlock: XIVTED_clean_linker_0, # of connection points: 2
#     Edge 60, Type (0, 1), BuildingBlock: XIVTED_clean_linker_0, # of connection points: 2
#     Edge 61, Type (0, 1), BuildingBlock: XIVTED_clean_linker_0, # of connection points: 2
#     Edge 62, Type (0, 1), BuildingBlock: XIVTED_clean_linker_0, # of connection points: 2
#     Edge 63, Type (0, 1), BuildingBlock: XIVTED_clean_linker_0, # of connection points: 2
#     Edge 64, Type (0, 1), BuildingBlock: XIVTED_clean_linker_0, # of connection points: 2
#     Edge 65, Type (0, 1), BuildingBlock: XIVTED_clean_linker_0, # of connection points: 2
#     Edge 66, Type (0, 1), BuildingBlock: XIVTED_clean_linker_0, # of connection points: 2
#     Edge 67, Type (0, 1), BuildingBlock: XIVTED_clean_linker_0, # of connection points: 2
#     Edge 68, Type (0, 1), BuildingBlock: XIVTED_clean_linker_0, # of connection points: 2
#     Edge 69, Type (0, 1), BuildingBlock: XIVTED_clean_linker_0, # of connection points: 2
#     Edge 70, Type (0, 1), BuildingBlock: XIVTED_clean_linker_0, # of connection points: 2
#     Edge 71, Type (0, 1), BuildingBlock: XIVTED_clean_linker_0, # of connection points: 2
#     Edge 72, Type (0, 1), BuildingBlock: XIVTED_clean_linker_0, # of connection points: 2
#     Edge 73, Type (0, 1), BuildingBlock: XIVTED_clean_linker_0, # of connection points: 2
#     Edge 74, Type (0, 1), BuildingBlock: XIVTED_clean_linker_0, # of connection points: 2
#     Edge 75, Type (0, 1), BuildingBlock: XIVTED_clean_linker_0, # of connection points: 2
# Relax obj value: 0.060
# Max RMSD: 0.158
# Mean RMSD: 0.106
data_MOF--net-ctn--node1-KUFVIS_clean_sbu_0--node2-BETDAH_clean_linker_0--edge1-XIVTED_clean_linker_0
_symmetry_space_group_name_H-M    P1
_symmetry_Int_Tables_number       1
_symmetry_cell_setting            triclinic
loop_
_symmetry_equiv_pos_as_xyz
'x, y, z'
_cell_length_a     53.52437
_cell_length_b     53.213989
_cell_length_c     54.291831
_cell_angle_alpha  99.786733
_cell_angle_beta   90.804152
_cell_angle_gamma 96.345873
loop_
_atom_site_label
_atom_site_type_symbol
_atom_site_fract_x
_atom_site_fract_y
_atom_site_fract_z
_atom_type_partial_charge
H0 H 0.08613 0.00881 0.10686 0.0
H1 H 0.10494 0.06048 0.05491 0.0
H2 H 0.05221 0.07904 0.11189 0.0
C3 C 0.08379 0.02635 0.09993 0.0
C4 C 0.06729 0.04297 0.11194 0.0
C5 C 0.09769 0.03241 0.07939 0.0
C6 C 0.09412 0.05513 0.0703 0.0
C7 C 0.07778 0.07192 0.08225 0.0
C8 C 0.06478 0.06587 0.10302 0.0
N9 N 0.07543 0.09607 0.07524 0.0
C10 C 0.07441 0.10058 0.05078 0.0
H11 H 0.34266 0.68249 0.24036 0.0
H12 H 0.39265 0.73024 0.20194 0.0
H13 H 0.31768 0.70412 0.17187 0.0
C14 C 0.34625 0.69266 0.22485 0.0
C15 C 0.32729 0.69162 0.20638 0.0
C16 C 0.36977 0.70669 0.22359 0.0
C17 C 0.3744 0.71959 0.20336 0.0
C18 C 0.35576 0.71906 0.18487 0.0
C19 C 0.33208 0.70496 0.1863 0.0
N20 N 0.3621 0.73212 0.16471 0.0
C21 C 0.34539 0.74276 0.15076 0.0
H22 H 0.0366 0.44533 0.06347 0.0
H23 H 0.00699 0.5173 0.06118 0.0
H24 H 0.00446 0.4598 0.99518 0.0
C25 C 0.02692 0.45771 0.05366 0.0
C26 C 0.0202 0.44927 0.0283 0.0
C27 C 0.02267 0.48238 0.06588 0.0
C28 C 0.01057 0.49829 0.0523 0.0
C29 C 1.00413 0.49008 0.02677 0.0
C30 C 0.00936 0.46587 0.0149 0.0
N31 N 0.9946 0.50659 0.01193 0.0
C32 C 0.97428 0.52035 0.01808 0.0
H33 H 0.76378 0.83316 0.17698 0.0
H34 H 0.68642 0.80194 0.18075 0.0
H35 H 0.71486 0.87149 0.22953 0.0
C36 C 0.74558 0.83395 0.18539 0.0
C37 C 0.74195 0.85452 0.20448 0.0
C38 C 0.72575 0.81474 0.17669 0.0
C39 C 0.70209 0.81632 0.18738 0.0
C40 C 0.69835 0.83645 0.20666 0.0
C41 C 0.71824 0.85545 0.21526 0.0
N42 N 0.67381 0.83909 0.2152 0.0
C43 C 0.66599 0.83266 0.23782 0.0
H44 H 0.07868 0.01374 0.46433 0.0
H45 H 0.08189 1.00419 0.54182 0.0
H46 H 0.01277 0.98438 0.49885 0.0
C47 C 0.06991 0.00843 0.48082 0.0
C48 C 0.04418 0.99947 0.47908 0.0
C49 C 0.0841 0.0107 0.50337 0.0
C50 C 0.07208 1.00201 0.52389 0.0
C51 C 0.04664 0.99176 0.52195 0.0
C52 C 0.03273 0.99091 0.49971 0.0
N53 N 0.03396 0.98603 0.5434 0.0
C54 C 0.03503 0.96313 0.5523 0.0
H55 H 0.27493 0.70398 0.84838 0.0
H56 H 0.20535 0.71752 0.8147 0.0
H57 H 0.24248 0.65226 0.78357 0.0
C58 C 0.26028 0.69871 0.83384 0.0
C59 C 0.2613 0.6765 0.81596 0.0
C60 C 0.24004 0.71353 0.83373 0.0
C61 C 0.22081 0.70605 0.81511 0.0
C62 C 0.22177 0.68396 0.7969 0.0
C63 C 0.24186 0.66925 0.79765 0.0
N64 N 0.20303 0.67581 0.7775 0.0
C65 C 0.1827 0.68886 0.77314 0.0
H66 H 0.96357 0.56047 0.52046 0.0
H67 H 0.03646 0.56316 0.48778 0.0
H68 H 0.99248 0.49077 0.48634 0.0
C69 C 0.97807 0.55063 0.5106 0.0
C70 C 0.97441 0.52371 0.50335 0.0
C71 C 1.00065 0.56503 0.50571 0.0
C72 C 0.01916 0.55237 0.49205 0.0
C73 C 0.01579 0.5256 0.48475 0.0
C74 C 0.994 0.51149 0.49118 0.0
N75 N 0.03458 0.51208 0.47213 0.0
C76 C 0.04766 0.51981 0.45225 0.0
H77 H 0.85938 0.77483 0.83348 0.0
H78 H 0.83382 0.84005 0.8074 0.0
H79 H 0.80423 0.81673 0.87409 0.0
C80 C 0.84746 0.79019 0.83558 0.0
C81 C 0.83173 0.7935 0.85613 0.0
C82 C 0.84837 0.80682 0.81786 0.0
C83 C 0.83333 0.82722 0.82093 0.0
C84 C 0.8175 0.83073 0.84144 0.0
C85 C 0.81696 0.81399 0.85877 0.0
N86 N 0.80193 0.8509 0.84584 0.0
C87 C 0.79481 0.86578 0.82877 0.0
H88 H 0.36417 0.28203 0.33911 0.0
H89 H 0.33775 0.3446 0.30894 0.0
H90 H 0.30783 0.32457 0.3768 0.0
C91 C 0.35197 0.29709 0.3402 0.0
C92 C 0.33597 0.30119 0.36047 0.0
C93 C 0.35277 0.31258 0.32147 0.0
C94 C 0.33737 0.33265 0.32325 0.0
C95 C 0.32128 0.33693 0.34346 0.0
C96 C 0.3208 0.32128 0.36176 0.0
N97 N 0.3053 0.3568 0.34658 0.0
C98 C 0.29862 0.37097 0.32872 0.0
H99 H 0.53247 0.94976 0.56925 0.0
H100 H 0.50787 0.02411 0.56737 0.0
H101 H 0.50311 0.96703 0.50091 0.0
C102 C 0.52389 0.96293 0.55948 0.0
C103 C 0.51727 0.95512 0.53402 0.0
C104 C 0.52097 0.98789 0.57188 0.0
C105 C 0.51036 1.00481 0.55837 0.0
C106 C 0.504 0.9972 0.53277 0.0
C107 C 0.50787 0.97262 0.5207 0.0
N108 N 0.49616 0.01475 0.51814 0.0
C109 C 0.47491 0.02743 0.52276 0.0
H110 H 0.27011 0.34134 0.6783 0.0
H111 H 0.19459 0.31174 0.69361 0.0
H112 H 0.22571 0.38677 0.72987 0.0
C113 C 0.25278 0.34349 0.68813 0.0
C114 C 0.25067 0.36611 0.70514 0.0
C115 C 0.23261 0.32374 0.6836 0.0
C116 C 0.21031 0.32672 0.69677 0.0
C117 C 0.208 0.3495 0.71349 0.0
C118 C 0.22794 0.36912 0.71723 0.0
N119 N 0.18531 0.35392 0.72568 0.0
C120 C 0.17246 0.3367 0.73889 0.0
H121 H 0.84768 0.17224 0.74198 0.0
H122 H 0.89746 0.21865 0.70204 0.0
H123 H 0.82107 0.1955 0.67493 0.0
C124 C 0.85103 0.18239 0.72642 0.0
C125 C 0.8315 0.18222 0.70877 0.0
C126 C 0.87479 0.19564 0.72434 0.0
C127 C 0.87908 0.20856 0.70408 0.0
C128 C 0.85986 0.20889 0.68641 0.0
C129 C 0.83595 0.1956 0.68869 0.0
N130 N 0.86576 0.22215 0.6663 0.0
C131 C 0.84876 0.23317 0.65305 0.0
H132 H 0.59651 0.51882 0.60164 0.0
H133 H 0.58903 0.52788 0.52454 0.0
H134 H 0.53157 0.54892 0.57535 0.0
C135 C 0.58619 0.52473 0.58672 0.0
C136 C 0.56298 0.5344 0.59172 0.0
C137 C 0.59598 0.52225 0.56255 0.0
C138 C 0.58256 0.53057 0.54353 0.0
C139 C 0.55974 0.54075 0.54836 0.0
C140 C 0.54996 0.54247 0.57231 0.0
N141 N 0.54453 0.54493 0.52825 0.0
C142 C 0.5465 0.56798 0.51925 0.0
H143 H 0.57805 0.52161 0.96765 0.0
H144 H 0.57722 0.49431 0.03816 0.0
H145 H 0.50874 0.48933 0.9946 0.0
C146 C 0.56798 0.51276 0.98173 0.0
C147 C 0.54201 0.5054 0.97819 0.0
C148 C 0.581 0.50887 1.00326 0.0
C149 C 0.5676 0.49726 0.02138 0.0
C150 C 0.5415 0.4902 0.01816 0.0
C151 C 0.52891 0.49453 0.99676 0.0
N152 N 0.52701 0.48078 0.03704 0.0
C153 C 0.53263 0.46068 0.04877 0.0
H154 H 0.7759 0.19983 0.35184 0.0
H155 H 0.70582 0.21525 0.32022 0.0
H156 H 0.74241 0.15095 0.28603 0.0
C157 C 0.76074 0.19514 0.33785 0.0
C158 C 0.76129 0.17342 0.31926 0.0
C159 C 0.74059 0.2103 0.33883 0.0
C160 C 0.72157 0.20409 0.31978 0.0
C161 C 0.72248 0.18289 0.30051 0.0
C162 C 0.74207 0.16751 0.30068 0.0
N163 N 0.70394 0.17601 0.2808 0.0
C164 C 0.68427 0.19 0.27663 0.0
H165 H 0.4591 0.06734 0.02413 0.0
H166 H 0.53069 0.06314 0.98924 0.0
H167 H 0.47932 0.9947 0.98708 0.0
C168 C 0.47225 0.05621 0.01333 0.0
C169 C 0.46616 0.02959 0.00613 0.0
C170 C 0.49559 0.06845 0.00763 0.0
C171 C 0.5127 0.05388 0.99379 0.0
C172 C 0.50666 0.02723 0.98627 0.0
C173 C 0.48375 0.01524 0.99298 0.0
N174 N 0.52345 0.0117 0.97263 0.0
C175 C 0.53873 0.01932 0.9541 0.0
Mn176 Mn 0.26461 0.88219 0.01631 0.0
Mn177 Mn 0.26217 0.90735 0.96336 0.0
C178 C 0.24653 0.85774 0.97962 0.0
C179 C 0.28356 0.85929 0.04316 0.0
C180 C 0.22836 0.92076 0.00677 0.0
O181 O 0.29205 0.91272 0.02307 0.0
O182 O 0.28894 0.9276 0.98662 0.0
C183 C 0.31178 0.89606 0.94364 0.0
N184 N 0.28626 0.89352 0.94076 0.0
C185 C 0.28772 0.86758 0.90002 0.0
C186 C 0.31403 0.87003 0.90252 0.0
C187 C 0.3261 0.88432 0.92443 0.0
C188 C 0.27445 0.8799 0.9197 0.0
H189 H 0.32115 0.90689 0.96051 0.0
C190 C 0.29906 0.92841 0.00836 0.0
O191 O 0.26739 0.87504 0.05109 0.0
O192 O 0.28956 0.85773 0.01992 0.0
N193 N 0.2373 0.88885 0.93935 0.0
C194 C 0.21177 0.88686 0.94063 0.0
C195 C 0.19685 0.87242 0.92055 0.0
C196 C 0.20832 0.8602 0.89939 0.0
C197 C 0.23463 0.86258 0.89848 0.0
C198 C 0.24852 0.87743 0.91895 0.0
H199 H 0.20286 0.89608 0.95692 0.0
O200 O 0.2398 0.85217 1.00112 0.0
O201 O 0.26271 0.87789 0.98046 0.0
O202 O 0.2371 0.90639 0.02054 0.0
O203 O 0.23632 0.92249 0.985 0.0
C204 C 0.2476 0.85035 0.87829 0.0
C205 C 0.27413 0.85285 0.87906 0.0
H206 H 0.32513 0.86082 0.88784 0.0
H207 H 0.34639 0.88619 0.92655 0.0
H208 H 0.17656 0.8706 0.92143 0.0
H209 H 0.19675 0.84886 0.88405 0.0
H210 H 0.23735 0.83865 0.86225 0.0
H211 H 0.28388 0.84304 0.8636 0.0
Mn212 Mn 0.17149 0.52393 0.25397 0.0
Mn213 Mn 0.15043 0.58234 0.26186 0.0
C214 C 0.19273 0.55694 0.23696 0.0
C215 C 0.19585 0.49453 0.26749 0.0
C216 C 0.12658 0.53678 0.22443 0.0
O217 O 0.1478 0.52275 0.28299 0.0
O218 O 0.13618 0.56267 0.28752 0.0
C219 C 0.17573 0.60437 0.31085 0.0
N220 N 0.17135 0.60568 0.28635 0.0
C221 C 0.19803 0.64573 0.29015 0.0
C222 C 0.20268 0.64489 0.31546 0.0
C223 C 0.19153 0.62409 0.32583 0.0
C224 C 0.182 0.6256 0.27618 0.0
H225 H 0.16728 0.58838 0.31889 0.0
C226 C 0.13588 0.54066 0.29421 0.0
O227 O 0.17659 0.48699 0.25217 0.0
O228 O 0.20054 0.51904 0.27539 0.0
N229 N 0.16297 0.60368 0.23867 0.0
C230 C 0.15783 0.60082 0.21362 0.0
C231 C 0.16812 0.61965 0.20025 0.0
C232 C 0.1835 0.64128 0.21276 0.0
C233 C 0.1884 0.64391 0.23857 0.0
C234 C 0.17742 0.62464 0.25095 0.0
H235 H 0.14616 0.58417 0.20387 0.0
O236 O 0.19537 0.53321 0.228 0.0
O237 O 0.17785 0.56065 0.25562 0.0
O238 O 0.14143 0.52089 0.22922 0.0
O239 O 0.12812 0.56001 0.2358 0.0
C240 C 0.20419 0.6646 0.25237 0.0
C241 C 0.20904 0.66549 0.27813 0.0
H242 H 0.21497 0.65999 0.32705 0.0
H243 H 0.19514 0.62324 0.34532 0.0
H244 H 0.16433 0.61744 0.18032 0.0
H245 H 0.19164 0.65562 0.20234 0.0
H246 H 0.21304 0.67973 0.24327 0.0
H247 H 0.22154 0.68129 0.28845 0.0
Mn248 Mn 0.78683 0.63452 0.00916 0.0
Mn249 Mn 0.73251 0.64691 0.98326 0.0
C250 C 0.74979 0.60828 0.01197 0.0
C251 C 0.82428 0.61545 0.00768 0.0
C252 C 0.75426 0.67588 0.03293 0.0
O253 O 0.79943 0.65895 0.98554 0.0
O254 O 0.76197 0.66625 0.97037 0.0
C255 C 0.74073 0.62122 0.93171 0.0
N256 N 0.72613 0.62404 0.95211 0.0
C257 C 0.69381 0.59213 0.93135 0.0
C258 C 0.70844 0.58897 0.91005 0.0
C259 C 0.73204 0.60352 0.91027 0.0
C260 C 0.70352 0.60995 0.95219 0.0
H261 H 0.75887 0.63238 0.93181 0.0
C262 C 0.78602 0.66989 0.97187 0.0
O263 O 0.82131 0.63566 0.02397 0.0
O264 O 0.80582 0.60684 0.99161 0.0
N265 N 0.70196 0.63008 0.99359 0.0
C266 C 0.69018 0.63546 0.01565 0.0
C267 C 0.66627 0.62266 0.01848 0.0
C268 C 0.65454 0.60483 0.99848 0.0
C269 C 0.66677 0.60005 0.97578 0.0
C270 C 0.69052 0.61349 0.97402 0.0
H271 H 0.69898 0.64935 0.031 0.0
O272 O 0.76847 0.60917 0.02768 0.0
O273 O 0.7533 0.62249 0.99472 0.0
O274 O 0.77394 0.66432 0.03286 0.0
O275 O 0.73735 0.67069 0.01542 0.0
C276 C 0.65648 0.58224 0.95492 0.0
C277 C 0.67005 0.57819 0.93277 0.0
H278 H 0.70179 0.57538 0.89347 0.0
H279 H 0.74348 0.60113 0.89394 0.0
H280 H 0.65691 0.62654 0.03603 0.0
H281 H 0.63619 0.59483 1.0008 0.0
H282 H 0.63825 0.57139 0.95581 0.0
H283 H 0.66205 0.56428 0.91694 0.0
Mn284 Mn 0.9138 0.01979 0.28458 0.0
Mn285 Mn 0.92618 0.9581 0.27259 0.0
C286 C 0.88741 0.98885 0.25815 0.0
C287 C 0.8931 0.05286 0.30622 0.0
C288 C 0.95473 1.00044 0.24961 0.0
O289 O 0.93802 0.01803 0.31379 0.0
O290 O 0.94355 0.97602 0.30431 0.0
C291 C 0.89996 0.93967 0.31497 0.0
N292 N 0.90315 0.93775 0.2899 0.0
C293 C 0.87052 0.9022 0.28104 0.0
C294 C 0.86709 0.90364 0.30678 0.0
C295 C 0.88183 0.9225 0.3238 0.0
C296 C 0.88899 0.91972 0.27335 0.0
H297 H 0.91105 0.95427 0.32813 0.0
C298 C 0.9472 0.99804 0.31857 0.0
O299 O 0.91317 0.0577 0.29389 0.0
O300 O 0.8864 0.02899 0.30768 0.0
N301 N 0.90981 0.93868 0.24263 0.0
C302 C 0.91437 0.94086 0.21841 0.0
C303 C 0.90069 0.92383 0.19903 0.0
C304 C 0.88252 0.90473 0.20474 0.0
C305 C 0.87822 0.90279 0.2298 0.0
C306 C 0.89262 0.92013 0.24832 0.0
H307 H 0.92822 0.95557 0.21389 0.0
O308 O 0.88811 0.01284 0.2561 0.0
O309 O 0.9026 0.98379 0.27493 0.0
O310 O 0.94266 0.01847 0.26015 0.0
O311 O 0.95034 0.97729 0.25327 0.0
C312 C 0.85984 0.88469 0.23712 0.0
C313 C 0.85595 0.88444 0.26272 0.0
H314 H 0.853 0.89056 0.31366 0.0
H315 H 0.87916 0.92387 0.34369 0.0
H316 H 0.90406 0.9255 0.17974 0.0
H317 H 0.87181 0.89181 0.18974 0.0
H318 H 0.84831 0.87116 0.22322 0.0
H319 H 0.84148 0.87071 0.26812 0.0
Mn320 Mn 0.28851 0.1432 0.51389 0.0
Mn321 Mn 0.23498 0.15805 0.48854 0.0
C322 C 0.25101 0.11702 0.51489 0.0
C323 C 0.32578 0.12382 0.51249 0.0
C324 C 0.25631 0.18417 0.5393 0.0
O325 O 0.30201 0.16856 0.49148 0.0
O326 O 0.26501 0.17774 0.477 0.0
C327 C 0.24337 0.13524 0.43608 0.0
N328 N 0.22851 0.13722 0.45631 0.0
C329 C 0.19512 0.1084 0.43329 0.0
C330 C 0.21 0.10614 0.41215 0.0
C331 C 0.23427 0.11953 0.41359 0.0
C332 C 0.20526 0.1242 0.45522 0.0
H333 H 0.26198 0.1456 0.43709 0.0
C334 C 0.28907 0.18066 0.47851 0.0
O335 O 0.32251 0.14353 0.52925 0.0
O336 O 0.30767 0.11579 0.49586 0.0
N337 N 0.20401 0.14097 0.49759 0.0
C338 C 0.19249 0.14443 0.51995 0.0
C339 C 0.16815 0.13215 0.5218 0.0
C340 C 0.15574 0.11683 0.50057 0.0
C341 C 0.16787 0.11378 0.4777 0.0
C342 C 0.1921 0.12654 0.47698 0.0
H343 H 0.2018 0.15646 0.53624 0.0
O344 O 0.26927 0.11708 0.53088 0.0
O345 O 0.2551 0.1322 0.49853 0.0
O346 O 0.27583 0.17236 0.53859 0.0
O347 O 0.23956 0.18004 0.5217 0.0
C348 C 0.15704 0.09825 0.45569 0.0
C349 C 0.17072 0.09542 0.43355 0.0
H350 H 0.20304 0.09409 0.39475 0.0
H351 H 0.2459 0.11782 0.39737 0.0
H352 H 0.15892 0.13459 0.53951 0.0
H353 H 0.13698 0.10739 0.5021 0.0
H354 H 0.13833 0.08812 0.45566 0.0
H355 H 0.16234 0.08314 0.41684 0.0
Mn356 Mn 0.42271 0.53269 0.77913 0.0
Mn357 Mn 0.43686 0.47161 0.76817 0.0
C358 C 0.39695 0.50068 0.75322 0.0
C359 C 0.40077 0.56479 0.80078 0.0
C360 C 0.46378 0.51403 0.74402 0.0
O361 O 0.44752 0.53224 0.80835 0.0
O362 O 0.4539 0.49046 0.79961 0.0
C363 C 0.41153 0.45314 0.81099 0.0
N364 N 0.41449 0.45099 0.78587 0.0
C365 C 0.38274 0.41461 0.77759 0.0
C366 C 0.37951 0.41631 0.80338 0.0
C367 C 0.39394 0.43569 0.82014 0.0
C368 C 0.40066 0.43244 0.76957 0.0
H369 H 0.42241 0.46812 0.82395 0.0
C370 C 0.45716 0.51265 0.81354 0.0
O371 O 0.42042 0.57045 0.78814 0.0
O372 O 0.3953 0.54083 0.80249 0.0
N373 N 0.42079 0.45135 0.73845 0.0
C374 C 0.42514 0.45323 0.71412 0.0
C375 C 0.41167 0.43568 0.69498 0.0
C376 C 0.39395 0.41635 0.70102 0.0
C377 C 0.38992 0.41469 0.72618 0.0
C378 C 0.40406 0.43257 0.74446 0.0
H379 H 0.43868 0.46808 0.70934 0.0
O380 O 0.39671 0.52449 0.7509 0.0
O381 O 0.41259 0.49648 0.77003 0.0
O382 O 0.45122 0.5319 0.75412 0.0
O383 O 0.46028 0.49113 0.74856 0.0
C384 C 0.37208 0.3963 0.73384 0.0
C385 C 0.36846 0.39628 0.75952 0.0
H386 H 0.36583 0.40301 0.81051 0.0
H387 H 0.39143 0.43724 0.84006 0.0
H388 H 0.41486 0.43711 0.6756 0.0
H389 H 0.38342 0.40302 0.68621 0.0
H390 H 0.36076 0.38233 0.72012 0.0
H391 H 0.35441 0.3823 0.76517 0.0
Mn392 Mn 0.77129 0.37698 0.5214 0.0
Mn393 Mn 0.77302 0.40313 0.46891 0.0
C394 C 0.75211 0.35446 0.48437 0.0
C395 C 0.78796 0.35209 0.54776 0.0
C396 C 0.73943 0.41916 0.512 0.0
O397 O 0.80065 0.40551 0.52895 0.0
O398 O 0.80106 0.42042 0.49228 0.0
C399 C 0.82084 0.38602 0.44934 0.0
N400 N 0.79558 0.38643 0.44634 0.0
C401 C 0.79491 0.35953 0.40588 0.0
C402 C 0.82093 0.35897 0.40848 0.0
C403 C 0.83394 0.37225 0.43032 0.0
C404 C 0.78289 0.37371 0.4254 0.0
H405 H 0.8309 0.39604 0.46615 0.0
C406 C 0.80987 0.4204 0.51436 0.0
O407 O 0.77285 0.36889 0.55597 0.0
O408 O 0.79407 0.35049 0.52456 0.0
N409 N 0.74707 0.38743 0.44474 0.0
C410 C 0.72182 0.38885 0.44567 0.0
C411 C 0.70603 0.37617 0.42544 0.0
C412 C 0.71634 0.36219 0.40448 0.0
C413 C 0.74238 0.3611 0.4039 0.0
C414 C 0.75722 0.37436 0.42449 0.0
H415 H 0.71378 0.39948 0.46177 0.0
O416 O 0.74472 0.34894 0.50568 0.0
O417 O 0.7699 0.37328 0.48563 0.0
O418 O 0.74579 0.40332 0.52548 0.0
O419 O 0.74878 0.421 0.49075 0.0
C420 C 0.75414 0.34703 0.38388 0.0
C421 C 0.78037 0.34619 0.38489 0.0
H422 H 0.83108 0.34823 0.39392 0.0
H423 H 0.854 0.37179 0.43253 0.0
H424 H 0.68594 0.37706 0.42605 0.0
H425 H 0.70406 0.35221 0.38903 0.0
H426 H 0.74314 0.33655 0.36772 0.0
H427 H 0.78915 0.33504 0.36953 0.0
Mn428 Mn 0.6685 0.02258 0.75968 0.0
Mn429 Mn 0.65111 0.08261 0.7681 0.0
C430 C 0.69143 0.0545 0.74253 0.0
C431 C 0.69121 0.99156 0.77256 0.0
C432 C 0.62485 0.03848 0.7306 0.0
O433 O 0.64499 0.02269 0.78899 0.0
O434 O 0.6356 0.06345 0.79356 0.0
C435 C 0.67727 0.1027 0.81707 0.0
N436 N 0.67314 0.10455 0.79266 0.0
C437 C 0.70209 0.1431 0.79669 0.0
C438 C 0.70652 0.1417 0.82191 0.0
C439 C 0.69409 0.12139 0.83212 0.0
C440 C 0.68502 0.124 0.78264 0.0
H441 H 0.66783 0.08708 0.82498 0.0
C442 C 0.63401 0.04134 0.80022 0.0
O443 O 0.67155 0.98513 0.75758 0.0
O444 O 0.69714 0.0159 0.78062 0.0
N445 N 0.66496 0.10356 0.7451 0.0
C446 C 0.65971 0.10132 0.72013 0.0
C447 C 0.67112 0.1198 0.70693 0.0
C448 C 0.68768 0.14043 0.71954 0.0
C449 C 0.69264 0.14245 0.74527 0.0
C450 C 0.68053 0.1236 0.75749 0.0
H451 H 0.64713 0.08543 0.7103 0.0
O452 O 0.69261 0.0305 0.73343 0.0
O453 O 0.67698 0.05912 0.76143 0.0
O454 O 0.63846 0.02147 0.73529 0.0
O455 O 0.62785 0.06173 0.742 0.0
C456 C 0.70954 0.16212 0.75915 0.0
C457 C 0.71431 0.16241 0.78482 0.0
H458 H 0.71958 0.156 0.83355 0.0
H459 H 0.6975 0.12011 0.85154 0.0
H460 H 0.66726 0.11806 0.68706 0.0
H461 H 0.69667 0.15448 0.70923 0.0
H462 H 0.71928 0.17688 0.75017 0.0
H463 H 0.72763 0.17741 0.79521 0.0
Mn464 Mn 0.03861 0.23765 0.88638 0.0
Mn465 Mn 0.98174 0.22963 0.91154 0.0
C466 C 0.00467 0.21439 0.86278 0.0
C467 C 0.06679 0.26052 0.86355 0.0
C468 C 0.02542 0.20132 0.92362 0.0
O469 O 0.04123 0.26657 0.91655 0.0
O470 O 1.00203 0.26039 0.93109 0.0
C471 C 0.96141 0.27628 0.90068 0.0
N472 N 0.95969 0.25023 0.89811 0.0
C473 C 0.92209 0.24532 0.87209 0.0
C474 C 0.92339 0.2721 0.87458 0.0
C475 C 0.94314 0.28763 0.88894 0.0
C476 C 0.94069 0.2351 0.88444 0.0
H477 H 0.97667 0.28832 0.91151 0.0
C478 C 0.02404 0.27291 0.93177 0.0
O479 O 0.07462 0.24554 0.87786 0.0
O480 O 0.04298 0.26292 0.86346 0.0
N481 N 0.96053 0.20082 0.89353 0.0
C482 C 0.96296 0.17534 0.89155 0.0
C483 C 0.94513 0.1572 0.87716 0.0
C484 C 0.92506 0.16543 0.86489 0.0
C485 C 0.92296 0.19175 0.86717 0.0
C486 C 0.94112 0.20893 0.88203 0.0
H487 H 0.97849 0.16891 0.90071 0.0
O488 O 0.02743 0.21022 0.85683 0.0
O489 O 1.0028 0.23107 0.88282 0.0
O490 O 0.04116 0.21091 0.9093 0.0
O491 O 1.00295 0.2072 0.92588 0.0
C492 C 0.90388 0.20162 0.85484 0.0
C493 C 0.90344 0.22838 0.85731 0.0
H494 H 0.90948 0.28093 0.86535 0.0
H495 H 0.94436 0.30831 0.89084 0.0
H496 H 0.94696 0.13693 0.87537 0.0
H497 H 0.91152 0.15139 0.85356 0.0
H498 H 0.88966 0.1888 0.84314 0.0
H499 H 0.88888 0.23574 0.84746 0.0
Mn500 Mn 0.53118 0.74409 0.38871 0.0
Mn501 Mn 0.47325 0.73859 0.41207 0.0
C502 C 0.49729 0.72251 0.36386 0.0
C503 C 0.56149 0.76689 0.36793 0.0
C504 C 0.51491 0.70822 0.42545 0.0
O505 O 0.53401 0.77231 0.41951 0.0
O506 O 0.49375 0.769 0.43179 0.0
C507 C 0.45494 0.78559 0.39967 0.0
N508 N 0.45244 0.75956 0.39754 0.0
C509 C 0.41559 0.75526 0.37057 0.0
C510 C 0.41769 0.78204 0.3726 0.0
C511 C 0.43746 0.79726 0.38721 0.0
C512 C 0.43342 0.74473 0.38362 0.0
H513 H 0.47023 0.79737 0.41071 0.0
C514 C 0.51645 0.78 0.43364 0.0
O515 O 0.56777 0.75069 0.38168 0.0
O516 O 0.53792 0.77022 0.36689 0.0
N517 N 0.45181 0.71007 0.39388 0.0
C518 C 0.45338 0.68449 0.39257 0.0
C519 C 0.4354 0.6666 0.37809 0.0
C520 C 0.41604 0.67518 0.3651 0.0
C521 C 0.41479 0.70159 0.36676 0.0
C522 C 0.43306 0.71852 0.38171 0.0
H523 H 0.46831 0.67779 0.40238 0.0
O524 O 0.52 0.71773 0.35835 0.0
O525 O 0.49539 0.7391 0.38398 0.0
O526 O 0.53124 0.71629 0.41081 0.0
O527 O 0.4931 0.71588 0.42763 0.0
C528 C 0.39646 0.71178 0.35373 0.0
C529 C 0.39686 0.73859 0.35562 0.0
H530 H 0.40439 0.7911 0.36283 0.0
H531 H 0.43929 0.81793 0.38876 0.0
H532 H 0.43654 0.64625 0.37683 0.0
H533 H 0.40237 0.66132 0.35373 0.0
H534 H 0.38217 0.69915 0.34192 0.0
H535 H 0.38288 0.74618 0.34524 0.0
Mn536 Mn 0.01433 0.76858 0.64933 0.0
Mn537 Mn 0.98744 0.70991 0.65715 0.0
C538 C 0.01868 0.73255 0.6194 0.0
C539 C 0.01354 0.8075 0.63466 0.0
C540 C 0.03543 0.7364 0.6849 0.0
O541 O 0.98851 0.77737 0.67634 0.0
O542 O 0.97069 0.73725 0.6776 0.0
C543 C 0.93743 0.71136 0.63374 0.0
N544 N 0.9586 0.69957 0.63513 0.0
C545 C 0.94237 0.66451 0.60286 0.0
C546 C 0.92032 0.6762 0.60118 0.0
C547 C 0.91789 0.69978 0.61662 0.0
C548 C 0.96124 0.67702 0.62019 0.0
H549 H 0.93548 0.72945 0.6456 0.0
C550 C 0.97202 0.76164 0.68436 0.0
O551 O 0.02894 0.80522 0.65261 0.0
O552 O 0.99778 0.7875 0.62599 0.0
N553 N 1.00145 0.6813 0.63839 0.0
C554 C 0.02423 0.67296 0.64176 0.0
C555 C 0.02978 0.64974 0.62756 0.0
C556 C 0.01175 0.63516 0.6103 0.0
C557 C 0.9883 0.64393 0.60742 0.0
C558 C 0.98381 0.66717 0.62216 0.0
H559 H 0.03808 0.68393 0.65517 0.0
O560 O 0.03455 0.75305 0.62096 0.0
O561 O 1.00069 0.73369 0.63522 0.0
O562 O 0.03705 0.75636 0.67464 0.0
O563 O 0.01728 0.71838 0.68019 0.0
C564 C 0.96935 0.63071 0.59026 0.0
C565 C 0.94647 0.64108 0.58785 0.0
H566 H 0.9052 0.66733 0.58802 0.0
H567 H 0.90097 0.70896 0.61536 0.0
H568 H 0.04791 0.64309 0.62992 0.0
H569 H 0.01616 0.61736 0.59925 0.0
H570 H 0.97232 0.61274 0.57855 0.0
H571 H 0.93221 0.63094 0.5743 0.0
Mn572 Mn 0.51726 0.2704 0.15194 0.0
Mn573 Mn 0.48961 0.21205 0.15967 0.0
C574 C 0.52067 0.2343 0.12175 0.0
C575 C 0.51646 0.3092 0.13705 0.0
C576 C 0.53799 0.23781 0.18725 0.0
O577 O 0.49185 0.27949 0.17931 0.0
O578 O 0.47333 0.23956 0.18041 0.0
C579 C 0.43954 0.21418 0.13673 0.0
N580 N 0.46062 0.20217 0.13778 0.0
C581 C 0.44405 0.16765 0.10513 0.0
C582 C 0.4221 0.17958 0.10378 0.0
C583 C 0.41989 0.20299 0.11959 0.0
C584 C 0.46304 0.17976 0.12251 0.0
H585 H 0.43775 0.23216 0.14887 0.0
C586 C 0.47516 0.26396 0.18736 0.0
O587 O 0.53217 0.30701 0.15479 0.0
O588 O 0.50049 0.28926 0.12884 0.0
N589 N 0.50327 0.18342 0.14052 0.0
C590 C 0.52603 0.1749 0.14352 0.0
C591 C 0.53142 0.15187 0.12883 0.0
C592 C 0.51327 0.13768 0.11147 0.0
C593 C 0.48986 0.14664 0.10896 0.0
C594 C 0.48553 0.16968 0.12415 0.0
H595 H 0.53999 0.18559 0.15698 0.0
O596 O 0.53689 0.25452 0.12315 0.0
O597 O 0.50303 0.2358 0.13792 0.0
O598 O 0.54004 0.25778 0.17697 0.0
O599 O 0.51956 0.22009 0.18255 0.0
C600 C 0.4708 0.13383 0.09169 0.0
C601 C 0.44796 0.14439 0.08969 0.0
H602 H 0.40691 0.17102 0.09058 0.0
H603 H 0.40305 0.21236 0.11858 0.0
H604 H 0.54952 0.14506 0.13091 0.0
H605 H 0.51755 0.12001 0.10007 0.0
H606 H 0.47367 0.11605 0.07958 0.0
H607 H 0.43362 0.13458 0.07606 0.0
H608 H 0.19939 0.72909 0.86039 0.0
H609 H 0.28427 0.84067 0.95184 0.0
H610 H 0.27857 0.75039 0.85198 0.0
H611 H 0.20388 0.82784 0.95787 0.0
H612 H 0.28175 0.80721 0.91505 0.0
H613 H 0.19955 0.76523 0.89519 0.0
C614 C 0.21673 0.74152 0.86567 0.0
C615 C 0.23909 0.73652 0.85342 0.0
C616 C 0.26454 0.81168 0.92418 0.0
C617 C 0.23944 0.7776 0.89334 0.0
C618 C 0.26598 0.83089 0.94513 0.0
C619 C 0.24415 0.83749 0.9573 0.0
C620 C 0.24107 0.7985 0.91546 0.0
C621 C 0.22105 0.82356 0.94858 0.0
C622 C 0.21683 0.76203 0.88561 0.0
C623 C 0.26102 0.75315 0.86117 0.0
N624 N 0.22005 0.80472 0.92801 0.0
N625 N 0.26065 0.77278 0.88066 0.0
H626 H 0.04946 0.56138 0.42917 0.0
H627 H 0.13203 0.49833 0.31759 0.0
H628 H 0.07524 0.48695 0.42476 0.0
H629 H 0.108 0.57391 0.32314 0.0
H630 H 0.11068 0.49342 0.35631 0.0
H631 H 0.07056 0.56631 0.39003 0.0
C632 C 0.05974 0.54619 0.41995 0.0
C633 C 0.06088 0.52383 0.43001 0.0
C634 C 0.11004 0.51105 0.349 0.0
C635 C 0.08473 0.52904 0.3854 0.0
C636 C 0.12218 0.51384 0.32681 0.0
C637 C 0.12188 0.53657 0.31695 0.0
C638 C 0.09747 0.53111 0.3615 0.0
C639 C 0.10881 0.55601 0.32991 0.0
C640 C 0.0717 0.54892 0.39764 0.0
C641 C 0.07415 0.50454 0.41748 0.0
N642 N 0.0972 0.55284 0.35146 0.0
N643 N 0.08556 0.50755 0.39579 0.0
H644 H 0.83439 0.74112 0.8475 0.0
H645 H 0.77863 0.71977 0.97696 0.0
H646 H 0.82515 0.80422 0.90694 0.0
H647 H 0.81967 0.66306 0.93419 0.0
H648 H 0.79383 0.75051 0.95024 0.0
H649 H 0.828 0.71159 0.87745 0.0
C650 C 0.83138 0.74891 0.86684 0.0
C651 C 0.83002 0.77535 0.87448 0.0
C652 C 0.79986 0.7315 0.94687 0.0
C653 C 0.8221 0.74137 0.90873 0.0
C654 C 0.79121 0.71399 0.96211 0.0
C655 C 0.79815 0.68904 0.95783 0.0
C656 C 0.81502 0.72379 0.92669 0.0
C657 C 0.81421 0.68229 0.9382 0.0
C658 C 0.82763 0.73195 0.8839 0.0
C659 C 0.82568 0.78402 0.89985 0.0
N660 N 0.82184 0.69948 0.92305 0.0
N661 N 0.82157 0.7671 0.9159 0.0
H662 H 0.04402 0.03927 0.45308 0.0
H663 H 0.95883 0.95775 0.33983 0.0
H664 H 0.01022 0.96178 0.45268 0.0
H665 H 0.96838 0.04066 0.35208 0.0
H666 H 0.9814 0.95881 0.37909 0.0
H667 H 0.02004 0.04006 0.41442 0.0
C668 C 0.03158 0.0224 0.4448 0.0
C669 C 0.02921 1.00033 0.45601 0.0
C670 C 0.97856 0.9768 0.37327 0.0
C671 C 1.00183 1.00114 0.41183 0.0
C672 C 0.96575 0.97628 0.35069 0.0
C673 C 0.96164 0.99921 0.34244 0.0
C674 C 0.9878 1.0004 0.38784 0.0
C675 C 0.97106 0.02252 0.35764 0.0
C676 C 0.01781 0.02295 0.42287 0.0
C677 C 0.01257 0.97918 0.44471 0.0
N678 N 0.98386 0.02253 0.37956 0.0
N679 N 0.9997 0.98003 0.42314 0.0
H680 H 0.19726 0.29966 0.64785 0.0
H681 H 0.2887 0.20195 0.57984 0.0
H682 H 0.27264 0.29566 0.67499 0.0
H683 H 0.21535 0.21034 0.55014 0.0
H684 H 0.2821 0.23404 0.61635 0.0
H685 H 0.20226 0.26427 0.61384 0.0
C686 C 0.21475 0.29111 0.64686 0.0
C687 C 0.23461 0.30074 0.66424 0.0
C688 C 0.26744 0.22881 0.60185 0.0
C689 C 0.24062 0.26044 0.62508 0.0
C690 C 0.2712 0.21048 0.58096 0.0
C691 C 0.25263 0.20347 0.56173 0.0
C692 C 0.24493 0.2402 0.60362 0.0
C693 C 0.2303 0.21519 0.56435 0.0
C694 C 0.21768 0.27104 0.6273 0.0
C695 C 0.25697 0.28911 0.6618 0.0
N696 N 0.22712 0.23297 0.58485 0.0
N697 N 0.25941 0.26966 0.64254 0.0
H698 H 0.53625 0.57046 0.61887 0.0
H699 H 0.49725 0.48276 0.72137 0.0
H700 H 0.56257 0.49702 0.62091 0.0
H701 H 0.47168 0.557 0.72175 0.0
H702 H 0.52365 0.48941 0.68637 0.0
H703 H 0.51457 0.56742 0.65788 0.0
C704 C 0.53757 0.55375 0.62754 0.0
C705 C 0.55128 0.53396 0.61648 0.0
C706 C 0.51244 0.50437 0.69419 0.0
C707 C 0.52653 0.5304 0.66126 0.0
C708 C 0.49732 0.5006 0.71428 0.0
C709 C 0.48201 0.51928 0.72457 0.0
C710 C 0.51226 0.52693 0.68403 0.0
C711 C 0.4831 0.54203 0.71449 0.0
C712 C 0.52527 0.55209 0.64989 0.0
C713 C 0.55255 0.51293 0.62881 0.0
N714 N 0.49777 0.54511 0.69467 0.0
N715 N 0.54024 0.51166 0.65037 0.0
H716 H 0.81954 0.27083 0.66889 0.0
H717 H 0.81661 0.31293 0.53407 0.0
H718 H 0.85009 0.22952 0.60314 0.0
H719 H 0.77867 0.35048 0.59718 0.0
H720 H 0.82903 0.2824 0.55941 0.0
H721 H 0.80346 0.29981 0.6432 0.0
C722 C 0.82237 0.26763 0.64893 0.0
C723 C 0.8358 0.24776 0.6379 0.0
C724 C 0.81798 0.29729 0.56778 0.0
C725 C 0.81823 0.28096 0.60862 0.0
C726 C 0.81098 0.31485 0.55332 0.0
C727 C 0.79663 0.33437 0.56353 0.0
C728 C 0.81069 0.29923 0.59273 0.0
C729 C 0.7898 0.33579 0.58857 0.0
C730 C 0.81339 0.28422 0.63431 0.0
C731 C 0.83953 0.24454 0.61216 0.0
N732 N 0.79692 0.31848 0.60233 0.0
N733 N 0.83091 0.26107 0.59839 0.0
H734 H 0.52105 0.96007 0.6104 0.0
H735 H 0.60035 0.07089 0.70711 0.0
H736 H 0.54445 0.03543 0.59349 0.0
H737 H 0.60547 0.99034 0.70645 0.0
H738 H 0.57163 0.05945 0.67059 0.0
H739 H 0.54375 0.97253 0.65076 0.0
C740 C 0.5308 0.97927 0.61513 0.0
C741 C 0.53111 0.99654 0.59812 0.0
C742 C 0.57893 0.04431 0.67857 0.0
C743 C 0.55663 0.01103 0.64474 0.0
C744 C 0.5953 0.05077 0.69949 0.0
C745 C 0.60563 0.03154 0.70982 0.0
C746 C 0.57242 0.01842 0.66807 0.0
C747 C 0.5982 0.00582 0.69904 0.0
C748 C 0.54368 0.98635 0.63825 0.0
C749 C 0.54346 0.02143 0.60586 0.0
N750 N 0.58205 1.00001 0.67875 0.0
N751 N 0.55581 0.02787 0.62852 0.0
H752 H 0.88932 0.15637 0.74628 0.0
H753 H 0.98081 0.25073 0.84697 0.0
H754 H 0.90522 0.23782 0.74731 0.0
H755 H 0.98505 0.16917 0.83276 0.0
H756 H 0.94936 0.24549 0.81312 0.0
H757 H 0.92096 0.15978 0.78028 0.0
C758 C 0.89951 0.17493 0.75362 0.0
C759 C 0.89471 0.19686 0.74394 0.0
C760 C 0.95706 0.22866 0.81732 0.0
C761 C 0.93066 0.20085 0.78272 0.0
C762 C 0.97483 0.23162 0.83678 0.0
C763 C 0.98496 0.21024 0.84293 0.0
C764 C 0.9494 0.20411 0.8037 0.0
C765 C 0.97727 0.18601 0.82872 0.0
C766 C 0.91759 0.17682 0.7729 0.0
C767 C 0.90852 0.22039 0.754 0.0
N768 N 0.95968 0.18352 0.80979 0.0
N769 N 0.92573 0.22177 0.77291 0.0
H770 H 0.5025 0.91001 0.55007 0.0
H771 H 0.55182 0.8208 0.43108 0.0
H772 H 0.5391 0.94022 0.48928 0.0
H773 H 0.49214 0.7949 0.47664 0.0
H774 H 0.55507 0.86338 0.45745 0.0
H775 H 0.50606 0.86641 0.52814 0.0
C776 C 0.51149 0.90744 0.5322 0.0
C777 C 0.52035 0.92871 0.52136 0.0
C778 C 0.54149 0.84824 0.4618 0.0
C779 C 0.5246 0.87898 0.49629 0.0
C780 C 0.53978 0.8239 0.44693 0.0
C781 C 0.52159 0.80432 0.45161 0.0
C782 C 0.52516 0.85288 0.48168 0.0
C783 C 0.50629 0.8095 0.47225 0.0
C784 C 0.51343 0.8826 0.51968 0.0
C785 C 0.53173 0.92431 0.49811 0.0
N786 N 0.50838 0.83328 0.48647 0.0
N787 N 0.53354 0.89992 0.48633 0.0
H788 H 0.18935 0.30869 0.77167 0.0
H789 H 0.05418 0.29214 0.83212 0.0
H790 H 0.12256 0.33438 0.74394 0.0
H791 H 0.11702 0.25636 0.8553 0.0
H792 H 0.08008 0.30924 0.80104 0.0
H793 H 0.16414 0.2898 0.803 0.0
C794 C 0.16928 0.30994 0.77201 0.0
C795 C 0.15777 0.32274 0.75526 0.0
C796 C 0.08831 0.2977 0.81291 0.0
C797 C 0.12911 0.30195 0.79104 0.0
C798 C 0.07354 0.28801 0.83081 0.0
C799 C 0.08343 0.27275 0.84636 0.0
C800 C 0.11329 0.2922 0.81043 0.0
C801 C 0.10865 0.26808 0.84372 0.0
C802 C 0.15496 0.29935 0.7899 0.0
C803 C 0.13194 0.32437 0.75649 0.0
N804 N 0.12275 0.27774 0.82604 0.0
N805 N 0.11848 0.31419 0.77416 0.0
H806 H 0.57692 0.58497 0.48452 0.0
H807 H 0.48746 0.69075 0.46252 0.0
H808 H 0.5122 0.60145 0.528 0.0
H809 H 0.55645 0.68144 0.42343 0.0
H810 H 0.49699 0.6585 0.48693 0.0
H811 H 0.57088 0.62078 0.46251 0.0
C812 C 0.56167 0.59643 0.48962 0.0
C813 C 0.54509 0.59058 0.50808 0.0
C814 C 0.51014 0.66352 0.4731 0.0
C815 C 0.53776 0.63101 0.48291 0.0
C816 C 0.50468 0.68197 0.45903 0.0
C817 C 0.52113 0.68888 0.44073 0.0
C818 C 0.53217 0.65158 0.46886 0.0
C819 C 0.54319 0.67677 0.43729 0.0
C820 C 0.55816 0.61675 0.47704 0.0
C821 C 0.52544 0.6056 0.51392 0.0
N822 N 0.548 0.65863 0.45112 0.0
N823 N 0.52223 0.62505 0.5013 0.0
H824 H 0.85131 0.76154 0.78683 0.0
H825 H 0.97015 0.81049 0.71216 0.0
H826 H 0.88268 0.84101 0.79925 0.0
H827 H 0.92983 0.73427 0.69746 0.0
H828 H 0.93873 0.8234 0.74325 0.0
H829 H 0.88024 0.75236 0.75321 0.0
C830 C 0.86432 0.77711 0.78239 0.0
C831 C 0.86471 0.80202 0.79598 0.0
C832 C 0.93682 0.80392 0.73305 0.0
C833 C 0.89827 0.79166 0.7573 0.0
C834 C 0.95473 0.79654 0.7153 0.0
C835 C 0.95293 0.77115 0.70229 0.0
C836 C 0.91704 0.78576 0.73771 0.0
C837 C 0.93242 0.75396 0.70714 0.0
C838 C 0.88086 0.7719 0.7631 0.0
C839 C 0.88176 0.82153 0.78916 0.0
N840 N 0.91553 0.76154 0.7244 0.0
N841 N 0.89807 0.81591 0.77042 0.0
H842 H 0.06324 0.95436 0.59106 0.0
H843 H 0.98543 0.81712 0.59535 0.0
H844 H 1.00238 0.92026 0.53916 0.0
H845 H 0.04621 0.85145 0.64753 0.0
H846 H 0.99105 0.85477 0.57476 0.0
H847 H 0.05763 0.9166 0.6118 0.0
C848 C 0.04887 0.93872 0.58393 0.0
C849 C 0.03337 0.94012 0.56335 0.0
C850 C 1.00311 0.85413 0.59077 0.0
C851 C 0.02652 0.89716 0.58704 0.0
C852 C 0.99983 0.83265 0.60262 0.0
C853 C 0.01534 0.83109 0.62324 0.0
C854 C 0.02209 0.87425 0.59955 0.0
C855 C 0.03377 0.85181 0.63173 0.0
C856 C 0.04557 0.91726 0.5958 0.0
C857 C 0.01482 0.91966 0.55491 0.0
N858 N 0.03666 0.87244 0.61983 0.0
N859 N 0.01187 0.89901 0.5668 0.0
H860 H 0.13436 0.67022 0.77718 0.0
H861 H 0.08141 0.76563 0.69476 0.0
H862 H 0.18128 0.73047 0.7507 0.0
H863 H 0.0374 0.69902 0.7138 0.0
H864 H 0.11681 0.75689 0.71981 0.0
H865 H 0.09731 0.68446 0.75897 0.0
C866 C 0.13671 0.68675 0.76784 0.0
C867 C 0.16067 0.69934 0.76543 0.0
C868 C 0.09932 0.74432 0.71864 0.0
C869 C 0.11865 0.71551 0.74421 0.0
C870 C 0.07904 0.74934 0.7044 0.0
C871 C 0.05632 0.73296 0.70196 0.0
C872 C 0.09692 0.72282 0.73067 0.0
C873 C 0.0545 0.71213 0.71492 0.0
C874 C 0.11564 0.6948 0.75734 0.0
C875 C 0.16296 0.72043 0.75299 0.0
N876 N 0.07452 0.70762 0.72857 0.0
N877 N 0.1422 0.72781 0.7427 0.0
H878 H 0.96821 0.60195 0.50779 0.0
H879 H 0.05757 0.70528 0.60366 0.0
H880 H 0.04391 0.59148 0.52884 0.0
H881 H 0.98046 0.71303 0.58591 0.0
H882 H 0.05563 0.6673 0.57053 0.0
H883 H 0.97479 0.64593 0.53079 0.0
C884 C 0.9863 0.60897 0.51705 0.0
C885 C 0.00544 0.59286 0.51655 0.0
C886 C 0.0392 0.67745 0.57368 0.0
C887 C 0.01316 0.64333 0.54294 0.0
C888 C 0.04033 0.69904 0.59257 0.0
C889 C 0.01879 0.71137 0.59809 0.0
C890 C 0.01646 0.66854 0.56005 0.0
C891 C 0.99713 0.70324 0.58279 0.0
C892 C 0.9901 0.63415 0.53008 0.0
C893 C 0.02865 0.6032 0.52858 0.0
N894 N 0.99638 0.6821 0.56468 0.0
N895 N 0.03175 0.62764 0.54152 0.0
H896 H 0.75675 0.87782 0.25212 0.0
H897 H 0.86794 0.97405 0.2101 0.0
H898 H 0.77412 0.87895 0.17492 0.0
H899 H 0.85561 0.96409 0.28626 0.0
H900 H 0.83123 0.9422 0.19649 0.0
H901 H 0.79094 0.9122 0.26484 0.0
C902 C 0.76769 0.88542 0.23785 0.0
C903 C 0.76264 0.87546 0.21245 0.0
C904 C 0.83656 0.94705 0.21618 0.0
C905 C 0.80182 0.91487 0.22681 0.0
C906 C 0.8574 0.96517 0.22387 0.0
C907 C 0.86507 0.97088 0.24914 0.0
C908 C 0.82316 0.93519 0.23407 0.0
C909 C 0.85062 0.9595 0.26647 0.0
C910 C 0.78727 0.90499 0.2451 0.0
C911 C 0.7776 0.88585 0.19474 0.0
N912 N 0.83047 0.94208 0.25861 0.0
N913 N 0.7965 0.90501 0.20225 0.0
H914 H 0.75579 0.1213 0.31549 0.0
H915 H 0.90127 0.10476 0.30584 0.0
H916 H 0.81249 0.18665 0.32446 0.0
H917 H 0.84571 0.04602 0.32377 0.0
H918 H 0.86977 0.13527 0.31164 0.0
H919 H 0.78886 0.09318 0.31636 0.0
C920 C 0.77525 0.1297 0.31755 0.0
C921 C 0.78142 0.15632 0.31977 0.0
C922 C 0.86462 0.11579 0.31466 0.0
C923 C 0.81945 0.12424 0.32084 0.0
C924 C 0.88261 0.09839 0.31144 0.0
C925 C 0.87612 0.07274 0.31423 0.0
C926 C 0.83988 0.10735 0.32028 0.0
C927 C 0.85161 0.06556 0.3214 0.0
C928 C 0.79411 0.11368 0.31826 0.0
C929 C 0.80694 0.16623 0.32275 0.0
N930 N 0.83433 0.08264 0.32382 0.0
N931 N 0.82506 0.15017 0.32296 0.0
H932 H 0.45559 0.98429 0.02383 0.0
H933 H 0.3089 0.97546 0.99499 0.0
H934 H 0.4199 0.04584 1.00098 0.0
H935 H 0.34102 0.92354 0.03607 0.0
H936 H 0.34916 1.00246 0.99892 0.0
H937 H 0.414 0.96225 0.02976 0.0
C938 C 0.439 0.99321 0.02016 0.0
C939 C 0.44122 0.01686 0.01171 0.0
C940 C 0.34737 0.9854 0.00746 0.0
C941 C 0.39359 0.99176 0.01849 0.0
C942 C 0.32435 0.96999 0.00525 0.0
C943 C 0.32164 0.94718 0.01515 0.0
C944 C 0.36807 0.97773 0.01922 0.0
C945 C 0.34228 0.94104 0.02828 0.0
C946 C 0.41529 0.98071 0.02373 0.0
C947 C 0.41911 0.02771 0.00762 0.0
N948 N 0.36478 0.956 0.02956 0.0
N949 N 0.39625 0.01496 0.01077 0.0
H950 H 0.26048 0.35822 0.29404 0.0
H951 H 0.23868 0.50541 0.29726 0.0
H952 H 0.3098 0.42224 0.3335 0.0
H953 H 0.19067 0.44192 0.2547 0.0
H954 H 0.26591 0.4752 0.30909 0.0
H955 H 0.23618 0.38833 0.27703 0.0
C956 C 0.2665 0.37864 0.29859 0.0
C957 C 0.28726 0.38791 0.31484 0.0
C958 C 0.24946 0.46783 0.29712 0.0
C959 C 0.25929 0.42242 0.29621 0.0
C960 C 0.23382 0.48509 0.29042 0.0
C961 C 0.21225 0.47621 0.27505 0.0
C962 C 0.24354 0.44137 0.28849 0.0
C963 C 0.20704 0.44964 0.26666 0.0
C964 C 0.25254 0.39582 0.28909 0.0
C965 C 0.29405 0.41444 0.32072 0.0
N966 N 0.22251 0.43317 0.27355 0.0
N967 N 0.28001 0.4308 0.31154 0.0
H968 H 0.12347 1.00485 0.53548 0.0
H969 H 0.2298 0.08543 0.47349 0.0
H970 H 0.10635 0.04689 0.47686 0.0
H971 H 0.22325 0.10324 0.55337 0.0
H972 H 0.19076 0.05589 0.47093 0.0
H973 H 0.16605 0.02782 0.53934 0.0
C974 C 0.12836 0.01865 0.52334 0.0
C975 C 0.11075 0.02349 0.50562 0.0
C976 C 0.19807 0.06612 0.48901 0.0
C977 C 0.16001 0.04866 0.50926 0.0
C978 C 0.22005 0.08313 0.49045 0.0
C979 C 0.22877 0.09775 0.51348 0.0
C980 C 0.18526 0.06321 0.51088 0.0
C981 C 0.21647 0.09293 0.53516 0.0
C982 C 0.15281 0.03153 0.52548 0.0
C983 C 0.11895 0.0414 0.49019 0.0
N984 N 0.19502 0.07626 0.53334 0.0
N985 N 0.14293 0.053 0.49221 0.0
H986 H 0.80416 0.18363 0.75077 0.0
H987 H 0.7035 0.0638 0.69578 0.0
H988 H 0.80329 0.14669 0.6736 0.0
H989 H 0.72316 0.08863 0.77399 0.0
H990 H 0.73533 0.09741 0.68571 0.0
H991 H 0.7683 0.15354 0.75786 0.0
C992 C 0.79618 0.16931 0.73523 0.0
C993 C 0.80691 0.16736 0.71166 0.0
C994 C 0.73251 0.09557 0.70506 0.0
C995 C 0.76599 0.13264 0.71969 0.0
C996 C 0.71445 0.07647 0.71077 0.0
C997 C 0.71018 0.0743 0.73577 0.0
C998 C 0.74647 0.11221 0.72456 0.0
C999 C 0.72525 0.09048 0.75455 0.0
C1000 C 0.77579 0.15207 0.73931 0.0
C1001 C 0.79557 0.14877 0.69206 0.0
N1002 N 0.74257 0.10889 0.74859 0.0
N1003 N 0.77582 0.13187 0.69657 0.0
H1004 H 0.43269 0.01116 0.49456 0.0
H1005 H 0.36709 0.13787 0.54407 0.0
H1006 H 0.46684 0.07317 0.55043 0.0
H1007 H 0.33601 0.07871 0.48364 0.0
H1008 H 0.40312 0.11406 0.5475 0.0
H1009 H 0.39617 0.03473 0.49163 0.0
C1010 C 0.43226 0.02967 0.50642 0.0
C1011 C 0.45249 0.04028 0.5229 0.0
C1012 C 0.38848 0.1063 0.53343 0.0
C1013 C 0.41115 0.06752 0.51947 0.0
C1014 C 0.3679 0.11992 0.5314 0.0
C1015 C 0.34847 0.11029 0.5135 0.0
C1016 C 0.38969 0.08275 0.51752 0.0
C1017 C 0.35057 0.08691 0.49765 0.0
C1018 C 0.41154 0.04318 0.50465 0.0
C1019 C 0.45139 0.06436 0.53766 0.0
N1020 N 0.37074 0.07391 0.50009 0.0
N1021 N 0.43103 0.07723 0.53559 0.0
H1022 H 0.63366 0.53323 0.53055 0.0
H1023 H 0.71018 0.41743 0.55302 0.0
H1024 H 0.61074 0.48082 0.5808 0.0
H1025 H 0.72342 0.45882 0.49168 0.0
H1026 H 0.67672 0.44381 0.56661 0.0
H1027 H 0.66949 0.50933 0.51913 0.0
C1028 C 0.63612 0.51676 0.53923 0.0
C1029 C 0.61898 0.5091 0.55668 0.0
C1030 C 0.687 0.44716 0.55021 0.0
C1031 C 0.66027 0.48178 0.54384 0.0
C1032 C 0.70619 0.43213 0.54245 0.0
C1033 C 0.7197 0.43577 0.52108 0.0
C1034 C 0.68126 0.46616 0.53665 0.0
C1035 C 0.71353 0.45518 0.5082 0.0
C1036 C 0.65666 0.50317 0.53275 0.0
C1037 C 0.62354 0.4878 0.56758 0.0
N1038 N 0.69479 0.4696 0.51617 0.0
N1039 N 0.64365 0.47491 0.56095 0.0
H1040 H 0.72067 0.25643 0.33917 0.0
H1041 H 0.78832 0.33087 0.45944 0.0
H1042 H 0.75716 0.21395 0.38769 0.0
H1043 H 0.70794 0.33217 0.45919 0.0
H1044 H 0.78324 0.29584 0.42343 0.0
H1045 H 0.72043 0.29196 0.37454 0.0
C1046 C 0.72846 0.25433 0.3571 0.0
C1047 C 0.73933 0.23203 0.3601 0.0
C1048 C 0.76678 0.304 0.43116 0.0
C1049 C 0.7397 0.27297 0.40012 0.0
C1050 C 0.76962 0.32394 0.45153 0.0
C1051 C 0.74851 0.33453 0.46188 0.0
C1052 C 0.74271 0.29483 0.4209 0.0
C1053 C 0.72462 0.32457 0.45141 0.0
C1054 C 0.72836 0.2747 0.37718 0.0
C1055 C 0.74941 0.23089 0.38393 0.0
N1056 N 0.7223 0.30531 0.43114 0.0
N1057 N 0.74974 0.25121 0.40283 0.0
H1058 H 0.56794 0.98624 0.92931 0.0
H1059 H 0.60658 0.07579 0.82808 0.0
H1060 H 0.54304 0.06067 0.93061 0.0
H1061 H 0.62819 0.99941 0.8242 0.0
H1062 H 0.58407 0.07093 0.86596 0.0
H1063 H 0.59132 0.99123 0.89157 0.0
C1064 C 0.56764 1.00374 0.92167 0.0
C1065 C 0.55382 0.02317 0.93294 0.0
C1066 C 0.59368 0.05519 0.85682 0.0
C1067 C 0.58015 0.02898 0.88979 0.0
C1068 C 0.60656 0.05791 0.83509 0.0
C1069 C 0.61937 0.03795 0.82275 0.0
C1070 C 0.59356 0.03237 0.86653 0.0
C1071 C 0.61858 0.0153 0.83294 0.0
C1072 C 0.58086 0.00656 0.90011 0.0
C1073 C 0.55369 0.04537 0.9224 0.0
N1074 N 0.60595 0.01316 0.85422 0.0
N1075 N 0.56667 0.04769 0.90135 0.0
H1076 H 0.32851 0.31452 0.41091 0.0
H1077 H 0.32619 0.17365 0.44439 0.0
H1078 H 0.33991 0.24908 0.35489 0.0
H1079 H 0.27991 0.2298 0.47971 0.0
H1080 H 0.34184 0.2037 0.41655 0.0
H1081 H 0.32108 0.28597 0.44141 0.0
C1082 C 0.32948 0.29419 0.40491 0.0
C1083 C 0.33435 0.28427 0.37996 0.0
C1084 C 0.32854 0.20948 0.43067 0.0
C1085 C 0.32662 0.25152 0.41532 0.0
C1086 C 0.31982 0.1925 0.44663 0.0
C1087 C 0.30184 0.1994 0.46433 0.0
C1088 C 0.31958 0.23362 0.43293 0.0
C1089 C 0.29379 0.22383 0.46628 0.0
C1090 C 0.32541 0.27794 0.42247 0.0
C1091 C 0.33629 0.25776 0.37382 0.0
N1092 N 0.30275 0.24007 0.45084 0.0
N1093 N 0.3323 0.24229 0.39132 0.0
H1094 H 0.50939 0.46955 0.94865 0.0
H1095 H 0.47372 0.55548 0.84942 0.0
H1096 H 0.54456 0.54733 0.95419 0.0
H1097 H 0.47237 0.47294 0.83333 0.0
H1098 H 0.49442 0.55538 0.89036 0.0
H1099 H 0.48901 0.47307 0.90908 0.0
C1100 C 0.51263 0.48747 0.94163 0.0
C1101 C 0.52873 0.50814 0.9547 0.0
C1102 C 0.48962 0.53742 0.87765 0.0
C1103 C 0.50548 0.51232 0.90926 0.0
C1104 C 0.47783 0.53744 0.85433 0.0
C1105 C 0.47121 0.51422 0.83775 0.0
C1106 C 0.49425 0.51398 0.88451 0.0
C1107 C 0.47702 0.49141 0.84524 0.0
C1108 C 0.50114 0.48942 0.91895 0.0
C1109 C 0.53244 0.53086 0.94455 0.0
N1110 N 0.48792 0.4919 0.868 0.0
N1111 N 0.52083 0.53241 0.92242 0.0
H1112 H 0.69402 0.79459 0.13644 0.0
H1113 H 0.7859 0.69451 0.07392 0.0
H1114 H 0.76613 0.78699 0.16925 0.0
H1115 H 0.71399 0.70348 0.04136 0.0
H1116 H 0.77893 0.72781 0.10929 0.0
H1117 H 0.70079 0.76045 0.10193 0.0
C1118 C 0.71121 0.78559 0.1365 0.0
C1119 C 0.72952 0.79366 0.15582 0.0
C1120 C 0.7647 0.72247 0.09438 0.0
C1121 C 0.73758 0.7547 0.11609 0.0
C1122 C 0.76866 0.70345 0.07415 0.0
C1123 C 0.75055 0.69614 0.05452 0.0
C1124 C 0.74246 0.73429 0.09504 0.0
C1125 C 0.72856 0.70846 0.05595 0.0
C1126 C 0.71515 0.76619 0.11668 0.0
C1127 C 0.75163 0.78158 0.15463 0.0
N1128 N 0.72517 0.72688 0.07582 0.0
N1129 N 0.75504 0.76272 0.1351 0.0
H1130 H 0.05639 0.07565 0.15442 0.0
H1131 H 0.97836 0.96659 0.21638 0.0
H1132 H 0.04502 0.99582 0.11966 0.0
H1133 H 0.97458 0.0477 0.24032 0.0
H1134 H 0.00731 0.97662 0.18408 0.0
H1135 H 0.03071 0.06532 0.18892 0.0
C1136 C 0.04845 0.05595 0.15393 0.0
C1137 C 0.05277 0.03664 0.13383 0.0
C1138 C 1.00021 0.99221 0.19648 0.0
C1139 C 0.02361 0.02461 0.17375 0.0
C1140 C 0.98373 0.98653 0.21504 0.0
C1141 C 0.97382 0.00632 0.23112 0.0
C1142 C 0.00709 0.01789 0.19404 0.0
C1143 C 0.98156 0.03177 0.22832 0.0
C1144 C 0.03388 0.05006 0.17377 0.0
C1145 C 0.04246 0.01135 0.13475 0.0
N1146 N 0.99767 0.0368 0.21015 0.0
N1147 N 0.02834 0.0061 0.15431 0.0
H1148 H 0.31414 0.77892 0.16516 0.0
H1149 H 0.31468 0.82198 0.03049 0.0
H1150 H 0.34958 0.74018 0.10115 0.0
H1151 H 0.2738 0.85756 0.09238 0.0
H1152 H 0.32786 0.79216 0.05636 0.0
H1153 H 0.29841 0.80757 0.13892 0.0
C1154 C 0.31815 0.77621 0.14544 0.0
C1155 C 0.33281 0.75713 0.13507 0.0
C1156 C 0.31604 0.80651 0.06433 0.0
C1157 C 0.31563 0.79 0.10518 0.0
C1158 C 0.30861 0.82366 0.04959 0.0
C1159 C 0.29315 0.84237 0.05928 0.0
C1160 C 0.30802 0.80803 0.08903 0.0
C1161 C 0.28578 0.84349 0.08415 0.0
C1162 C 0.30938 0.79262 0.13052 0.0
C1163 C 0.33802 0.75456 0.10964 0.0
N1164 N 0.29327 0.82657 0.09815 0.0
N1165 N 0.32954 0.77089 0.09557 0.0
H1166 H 0.0436 0.53118 0.08672 0.0
H1167 H 0.10988 0.48769 0.20087 0.0
H1168 H 0.02571 0.45536 0.10476 0.0
H1169 H 0.09987 0.56702 0.20028 0.0
H1170 H 0.08085 0.47506 0.16448 0.0
H1171 H 0.06541 0.54475 0.12738 0.0
C1172 C 0.0438 0.51745 0.0993 0.0
C1173 C 0.03293 0.49192 0.09196 0.0
C1174 C 0.08487 0.49521 0.1725 0.0
C1175 C 0.05871 0.50728 0.13839 0.0
C1176 C 0.10151 0.50245 0.19322 0.0
C1177 C 0.10753 0.52849 0.20363 0.0
C1178 C 0.07451 0.51414 0.16179 0.0
C1179 C 0.09593 0.54672 0.19291 0.0
C1180 C 0.05647 0.52521 0.1225 0.0
C1181 C 0.03433 0.47503 0.10916 0.0
N1182 N 0.08027 0.53923 0.17242 0.0
N1183 N 0.0473 0.48289 0.13136 0.0
H1184 H 0.39856 0.74958 0.24759 0.0
H1185 H 0.47697 0.67712 0.33486 0.0
H1186 H 0.38482 0.66785 0.24577 0.0
H1187 H 0.47478 0.75896 0.34653 0.0
H1188 H 0.44554 0.67236 0.30018 0.0
H1189 H 0.42942 0.75263 0.28178 0.0
C1190 C 0.40222 0.73224 0.25427 0.0
C1191 C 0.38917 0.70844 0.2438 0.0
C1192 C 0.45186 0.69131 0.31048 0.0
C1193 C 0.42441 0.71175 0.2831 0.0
C1194 C 0.46971 0.69398 0.33016 0.0
C1195 C 0.47781 0.71837 0.3438 0.0
C1196 C 0.44281 0.71331 0.30413 0.0
C1197 C 0.46843 0.73977 0.3368 0.0
C1198 C 0.4197 0.73399 0.27392 0.0
C1199 C 0.39438 0.68661 0.25345 0.0
N1200 N 0.45145 0.73675 0.31748 0.0
N1201 N 0.41168 0.68876 0.27253 0.0
H1202 H 0.0417 0.43534 0.98319 0.0
H1203 H 1.00097 0.28647 0.97586 0.0
H1204 H 0.00861 0.40384 0.04492 0.0
H1205 H 0.05638 0.31561 0.92767 0.0
H1206 H 1.00326 0.32923 1.00134 0.0
H1207 H 0.04662 0.39176 0.96197 0.0
C1208 C 0.03553 0.41923 0.99228 0.0
C1209 C 0.0246 0.42316 0.01577 0.0
C1210 C 0.0152 0.3262 0.98541 0.0
C1211 C 0.03011 0.37333 0.99163 0.0
C1212 C 0.01391 0.30179 0.97086 0.0
C1213 C 0.02846 0.29746 0.94956 0.0
C1214 C 0.03077 0.34662 0.97837 0.0
C1215 C 0.04491 0.31804 0.94399 0.0
C1216 C 0.03851 0.39441 0.98026 0.0
C1217 C 0.01721 0.40165 0.02686 0.0
N1218 N 0.04533 0.34183 0.95808 0.0
N1219 N 0.01983 0.37764 0.01458 0.0
H1220 H 0.67822 0.79646 0.26419 0.0
H1221 H 0.55477 0.80716 0.34466 0.0
H1222 H 0.62704 0.85289 0.26089 0.0
H1223 H 0.60936 0.75592 0.35585 0.0
H1224 H 0.58256 0.82553 0.31562 0.0
H1225 H 0.65499 0.78252 0.29927 0.0
C1226 C 0.66228 0.80608 0.27116 0.0
C1227 C 0.65441 0.82581 0.25993 0.0
C1228 C 0.58866 0.81044 0.32455 0.0
C1229 C 0.62771 0.80998 0.29949 0.0
C1230 C 0.57276 0.79992 0.34117 0.0
C1231 C 0.5797 0.77988 0.35261 0.0
C1232 C 0.61166 0.80071 0.31899 0.0
C1233 C 0.60329 0.77136 0.34744 0.0
C1234 C 0.64902 0.79815 0.29108 0.0
C1235 C 0.63363 0.83764 0.26925 0.0
N1236 N 0.61834 0.78164 0.33078 0.0
N1237 N 0.62089 0.82944 0.2884 0.0
H1238 H 0.10724 0.12845 0.0254 0.0
H1239 H 0.99549 0.16803 0.9468 0.0
H1240 H 0.03036 0.09448 0.02498 0.0
H1241 H 0.07353 0.19216 0.93541 0.0
H1242 H 0.0085 0.13969 0.97412 0.0
H1243 H 0.09625 0.15021 0.99087 0.0
C1244 C 0.08819 0.12514 0.01757 0.0
C1245 C 0.06966 0.10959 0.0277 0.0
C1246 C 0.02284 0.151 0.96553 0.0
C1247 C 0.05678 0.13477 0.98893 0.0
C1248 C 0.01541 0.16732 0.94995 0.0
C1249 C 0.03342 0.18273 0.93887 0.0
C1250 C 0.04853 0.15019 0.97048 0.0
C1251 C 0.05897 0.18069 0.94355 0.0
C1252 C 0.08188 0.13763 0.99801 0.0
C1253 C 0.04517 0.10619 0.0174 0.0
N1254 N 0.06576 0.16495 0.95921 0.0
N1255 N 0.03938 0.11887 0.99874 0.0
H1256 H 0.35712 0.26612 0.29302 0.0
H1257 H 0.47328 0.31333 0.21402 0.0
H1258 H 0.38607 0.34606 0.30079 0.0
H1259 H 0.43386 0.23669 0.20245 0.0
H1260 H 0.44241 0.32685 0.24549 0.0
H1261 H 0.38598 0.25592 0.25956 0.0
C1262 C 0.36961 0.28157 0.28763 0.0
C1263 C 0.3693 0.30694 0.29986 0.0
C1264 C 0.44059 0.30713 0.23589 0.0
C1265 C 0.40272 0.29542 0.26127 0.0
C1266 C 0.45819 0.2994 0.21794 0.0
C1267 C 0.45647 0.27374 0.20565 0.0
C1268 C 0.42122 0.28904 0.24152 0.0
C1269 C 0.43638 0.2566 0.2115 0.0
C1270 C 0.38609 0.27577 0.26841 0.0
C1271 C 0.38567 0.32624 0.29179 0.0
N1272 N 0.41979 0.26452 0.22896 0.0
N1273 N 0.40192 0.32007 0.27312 0.0
H1274 H 0.55987 0.45665 0.09044 0.0
H1275 H 0.48803 0.31745 0.09758 0.0
H1276 H 0.50494 0.41508 0.03538 0.0
H1277 H 0.54889 0.35371 0.14887 0.0
H1278 H 0.49301 0.35414 0.07584 0.0
H1279 H 0.55599 0.41993 0.1129 0.0
C1280 C 0.54726 0.43961 0.08297 0.0
C1281 C 0.53287 0.43858 0.06101 0.0
C1282 C 0.50527 0.35417 0.09189 0.0
C1283 C 0.52788 0.39695 0.08664 0.0
C1284 C 0.50233 0.33323 0.10442 0.0
C1285 C 0.51805 0.33245 0.12513 0.0
C1286 C 0.52405 0.37465 0.10006 0.0
C1287 C 0.53632 0.35349 0.13302 0.0
C1288 C 0.54493 0.41875 0.0958 0.0
C1289 C 0.51651 0.41639 0.05218 0.0
N1290 N 0.53885 0.37371 0.12047 0.0
N1291 N 0.51439 0.3965 0.06505 0.0
H1292 H 0.68469 0.23212 0.25466 0.0
H1293 H 0.53804 0.20144 0.21741 0.0
H1294 H 0.63546 0.17258 0.27966 0.0
H1295 H 0.58503 0.26518 0.19636 0.0
H1296 H 0.57295 0.19281 0.24275 0.0
H1297 H 0.64811 0.24691 0.23587 0.0
C1298 C 0.66606 0.22251 0.25654 0.0
C1299 C 0.66284 0.20128 0.26874 0.0
C1300 C 0.57562 0.20882 0.23277 0.0
C1301 C 0.62116 0.21758 0.24703 0.0
C1302 C 0.55564 0.21378 0.21822 0.0
C1303 C 0.55854 0.234 0.20451 0.0
C1304 C 0.59891 0.22401 0.23357 0.0
C1305 C 0.58186 0.24936 0.20654 0.0
C1306 C 0.64523 0.23084 0.24576 0.0
C1307 C 0.63854 0.18917 0.27049 0.0
N1308 N 0.6012 0.2439 0.22058 0.0
N1309 N 0.61863 0.19737 0.25959 0.0
H1310 H 0.46832 0.10771 1.00249 0.0
H1311 H 0.48097 0.21892 0.08952 0.0
H1312 H 0.53744 0.09209 0.03534 0.0
H1313 H 0.55699 0.20434 0.10319 0.0
H1314 H 0.47599 0.18246 0.05571 0.0
H1315 H 0.47599 0.15204 0.02366 0.0
C1316 C 0.48521 0.11378 0.01418 0.0
C1317 C 0.50211 0.0962 0.01743 0.0
C1318 C 0.49408 0.18722 0.06542 0.0
C1319 C 0.51062 0.14689 0.04302 0.0
C1320 C 0.49674 0.20801 0.08506 0.0
C1321 C 0.51905 0.21387 0.09961 0.0
C1322 C 0.51399 0.17209 0.06025 0.0
C1323 C 0.53925 0.19986 0.09269 0.0
C1324 C 0.48952 0.13914 0.0266 0.0
C1325 C 0.52391 0.10508 0.0324 0.0
N1326 N 0.53606 0.1792 0.07383 0.0
N1327 N 0.52735 0.1297 0.04494 0.0
H1328 H 0.28317 0.38613 0.67257 0.0
H1329 H 0.3665 0.47698 0.78296 0.0
H1330 H 0.26736 0.39221 0.75096 0.0
H1331 H 0.37673 0.48334 0.70561 0.0
H1332 H 0.33052 0.44492 0.77077 0.0
H1333 H 0.3185 0.42011 0.68336 0.0
C1334 C 0.28716 0.39457 0.69202 0.0
C1335 C 0.27223 0.38645 0.71091 0.0
C1336 C 0.34046 0.45327 0.75634 0.0
C1337 C 0.31228 0.42528 0.72327 0.0
C1338 C 0.36107 0.47147 0.76331 0.0
C1339 C 0.37483 0.48211 0.74514 0.0
C1340 C 0.33348 0.44562 0.73093 0.0
C1341 C 0.36671 0.47506 0.72003 0.0
C1342 C 0.30716 0.41405 0.69812 0.0
C1343 C 0.2781 0.39813 0.73576 0.0
N1344 N 0.34664 0.45688 0.71355 0.0
N1345 N 0.29764 0.41686 0.74118 0.0
H1346 H 0.25887 0.62451 0.81329 0.0
H1347 H 0.40549 0.61656 0.79911 0.0
H1348 H 0.31195 0.69264 0.82005 0.0
H1349 H 0.3545 0.55569 0.8201 0.0
H1350 H 0.37212 0.64496 0.80559 0.0
H1351 H 0.29394 0.59868 0.81359 0.0
C1352 C 0.27794 0.63401 0.8148 0.0
C1353 C 0.28252 0.66073 0.81656 0.0
C1354 C 0.36841 0.62549 0.80911 0.0
C1355 C 0.32282 0.63129 0.81687 0.0
C1356 C 0.38748 0.6093 0.80551 0.0
C1357 C 0.3828 0.58365 0.80897 0.0
C1358 C 0.34442 0.61581 0.81579 0.0
C1359 C 0.35902 0.57528 0.81716 0.0
C1360 C 0.29795 0.6193 0.81516 0.0
C1361 C 0.30762 0.67209 0.81875 0.0
N1362 N 0.34066 0.59117 0.81993 0.0
N1363 N 0.32685 0.65729 0.8186 0.0
H1364 H 0.9518 0.47838 0.47567 0.0
H1365 H 0.81918 0.47236 0.52941 0.0
H1366 H 0.94117 0.53356 0.54195 0.0
H1367 H 0.85549 0.40348 0.51218 0.0
H1368 H 0.86062 0.4981 0.53058 0.0
H1369 H 0.91329 0.45303 0.48403 0.0
C1370 C 0.94175 0.48517 0.49218 0.0
C1371 C 0.95035 0.50827 0.50824 0.0
C1372 C 0.85948 0.47734 0.52719 0.0
C1373 C 0.90521 0.4795 0.51711 0.0
C1374 C 0.83599 0.46273 0.52665 0.0
C1375 C 0.8342 0.43588 0.52118 0.0
C1376 C 0.88094 0.46488 0.52118 0.0
C1377 C 0.85629 0.42417 0.51694 0.0
C1378 C 0.91957 0.47065 0.49678 0.0
C1379 C 0.93541 0.51624 0.5287 0.0
N1380 N 0.87873 0.43875 0.51652 0.0
N1381 N 0.91341 0.50203 0.53238 0.0
H1382 H 0.80863 0.91656 0.83205 0.0
H1383 H 0.68327 0.939 0.75963 0.0
H1384 H 0.75361 0.8549 0.79776 0.0
H1385 H 0.73522 1.00015 0.80051 0.0
H1386 H 0.71029 0.90779 0.77021 0.0
H1387 H 0.78413 0.94736 0.81661 0.0
C1388 C 0.79165 0.90953 0.82073 0.0
C1389 C 0.78318 0.88329 0.81581 0.0
C1390 C 0.71578 0.92804 0.77684 0.0
C1391 C 0.75467 0.91826 0.79869 0.0
C1392 C 0.70032 0.94587 0.77087 0.0
C1393 C 0.7069 0.97225 0.7793 0.0
C1394 C 0.73807 0.93663 0.79127 0.0
C1395 C 0.72929 0.98002 0.7937 0.0
C1396 C 0.77753 0.92708 0.81212 0.0
C1397 C 0.76085 0.87505 0.80159 0.0
N1398 N 0.74402 0.96233 0.79921 0.0
N1399 N 0.74725 0.89249 0.79361 0.0
H1400 H 0.60625 0.53502 0.04603 0.0
H1401 H 0.73033 0.57137 0.97358 0.0
H1402 H 0.61795 0.50423 0.96882 0.0
H1403 H 0.72018 0.60109 0.05118 0.0
H1404 H 0.69181 0.54176 0.97328 0.0
H1405 H 0.64997 0.55479 0.05007 0.0
C1406 C 0.61812 0.53201 0.03005 0.0
C1407 C 0.60831 0.51814 0.00698 0.0
C1408 C 0.69802 0.5546 0.99047 0.0
C1409 C 0.65834 0.54094 0.01139 0.0
C1410 C 0.71986 0.5716 0.99054 0.0
C1411 C 0.72758 0.58935 0.01211 0.0
C1412 C 0.68378 0.55553 0.01212 0.0
C1413 C 0.71422 0.58818 0.03397 0.0
C1414 C 0.64307 0.54342 0.03233 0.0
C1415 C 0.62456 0.51514 0.98684 0.0
N1416 N 0.69262 0.57194 0.0333 0.0
N1417 N 0.64864 0.52662 0.98946 0.0
H1418 H 0.29814 0.69216 0.24708 0.0
H1419 H 0.20481 0.56692 0.19038 0.0
H1420 H 0.30176 0.65458 0.17053 0.0
H1421 H 0.22234 0.59276 0.26888 0.0
H1422 H 0.23499 0.60222 0.18084 0.0
H1423 H 0.26342 0.66032 0.25322 0.0
C1424 C 0.29134 0.67735 0.23145 0.0
C1425 C 0.30306 0.67574 0.20837 0.0
C1426 C 0.23205 0.60022 0.20013 0.0
C1427 C 0.26345 0.63902 0.21532 0.0
C1428 C 0.21492 0.58017 0.20554 0.0
C1429 C 0.21051 0.57774 0.23047 0.0
C1430 C 0.24491 0.61759 0.21985 0.0
C1431 C 0.22452 0.59472 0.24948 0.0
C1432 C 0.27162 0.65911 0.23499 0.0
C1433 C 0.29324 0.65644 0.18862 0.0
N1434 N 0.24092 0.61406 0.2438 0.0
N1435 N 0.27413 0.63857 0.19261 0.0
H1436 H 0.96758 0.56634 0.04639 0.0
H1437 H 0.8341 0.57054 0.97857 0.0
H1438 H 0.93135 0.50502 0.99103 0.0
H1439 H 0.86597 0.62917 0.03908 0.0
H1440 H 0.87035 0.54704 0.98212 0.0
H1441 H 0.93096 0.59018 0.04397 0.0
C1442 C 0.95172 0.55784 0.03398 0.0
C1443 C 0.95215 0.53373 0.01904 0.0
C1444 C 0.86947 0.56507 0.99461 0.0
C1445 C 0.91066 0.56081 0.01575 0.0
C1446 C 0.8488 0.57857 0.9925 0.0
C1447 C 0.84697 0.60188 0.00853 0.0
C1448 C 0.88856 0.57494 0.01286 0.0
C1449 C 0.86659 0.61128 0.02631 0.0
C1450 C 0.93092 0.57143 0.03249 0.0
C1451 C 0.93148 0.52354 1.00299 0.0
N1452 N 0.88654 0.59779 0.02801 0.0
N1453 N 0.91159 0.53715 1.00169 0.0
H1454 H 0.1298 0.00749 0.10398 0.0
H1455 H 0.20027 0.94946 0.98185 0.0
H1456 H 0.10958 0.01921 0.02984 0.0
H1457 H 0.21064 0.9284 0.05439 0.0
H1458 H 0.16824 0.97634 0.999 0.0
H1459 H 0.16058 0.9798 0.08609 0.0
C1460 C 0.1316 1.00407 0.08388 0.0
C1461 C 0.11675 0.0156 0.06842 0.0
C1462 C 0.17749 0.96578 0.01113 0.0
C1463 C 0.15263 0.98409 0.04775 0.0
C1464 C 0.19584 0.95043 1.00137 0.0
C1465 C 0.20831 0.9366 0.01668 0.0
C1466 C 0.17161 0.96752 0.03645 0.0
C1467 C 0.20159 0.93862 0.04181 0.0
C1468 C 0.14937 0.98833 0.07368 0.0
C1469 C 0.12065 0.01093 0.04256 0.0
N1470 N 0.18383 0.95383 0.05089 0.0
N1471 N 0.13819 0.99556 0.03305 0.0
loop_
_geom_bond_atom_site_label_1
_geom_bond_atom_site_label_2
_geom_bond_distance
_geom_bond_site_symmetry_2
_ccdc_geom_bond_type
H0 C3 0.929 . S
H1 C6 0.929 . S
H2 C8 0.930 . S
C3 H0 0.929 . S
C3 C4 1.398 . S
C3 C5 1.396 . S
C4 C3 1.398 . S
C4 C8 1.407 . S
C5 C3 1.396 . S
C5 C6 1.394 . S
C6 H1 0.929 . S
C6 C5 1.394 . S
C6 C7 1.382 . S
C7 C6 1.382 . S
C7 C8 1.392 . S
C7 N9 1.420 . S
C8 H2 0.930 . S
C8 C4 1.407 . S
C8 C7 1.392 . S
N9 C7 1.420 . S
N9 C10 1.244 . S
C10 N9 1.244 . S
H11 C14 0.929 . S
H12 C17 0.929 . S
H13 C19 0.930 . S
C14 H11 0.929 . S
C14 C15 1.398 . S
C14 C16 1.396 . S
C15 C14 1.398 . S
C15 C19 1.407 . S
C16 C14 1.396 . S
C16 C17 1.394 . S
C17 H12 0.929 . S
C17 C16 1.394 . S
C17 C18 1.382 . S
C18 C17 1.382 . S
C18 C19 1.392 . S
C18 N20 1.420 . S
C19 H13 0.930 . S
C19 C15 1.407 . S
C19 C18 1.392 . S
N20 C18 1.420 . S
N20 C21 1.244 . S
C21 N20 1.244 . S
H22 C25 0.929 . S
H23 C28 0.929 . S
H24 C30 0.930 1_556 S
C25 H22 0.929 . S
C25 C26 1.390 1_455 S
C25 C27 1.396 . S
C26 C25 1.390 1_655 S
C26 C30 1.419 . S
C27 C25 1.396 . S
C27 C28 1.394 1_455 S
C28 H23 0.929 . S
C28 C27 1.394 1_655 S
C28 C29 1.382 . S
C29 C28 1.382 . S
C29 C30 1.392 . S
C29 N31 1.420 . S
C30 H24 0.930 1_554 S
C30 C26 1.419 . S
C30 C29 1.392 . S
N31 C29 1.420 . S
N31 C32 1.244 . S
C32 N31 1.244 . S
H33 C36 0.929 . S
H34 C39 0.929 . S
H35 C41 0.930 . S
C36 H33 0.929 . S
C36 C37 1.398 . S
C36 C38 1.396 . S
C37 C36 1.398 . S
C37 C41 1.407 . S
C38 C36 1.396 . S
C38 C39 1.394 . S
C39 H34 0.929 . S
C39 C38 1.394 . S
C39 C40 1.382 . S
C40 C39 1.382 . S
C40 C41 1.392 . S
C40 N42 1.420 . S
C41 H35 0.930 . S
C41 C37 1.407 . S
C41 C40 1.392 . S
N42 C40 1.420 . S
N42 C43 1.244 . S
C43 N42 1.244 . S
H44 C47 0.904 1_545 S
H45 C50 0.929 . S
H46 C52 0.930 . S
C47 H44 0.904 1_565 S
C47 C48 1.413 . S
C47 C49 1.408 . S
C48 C47 1.413 . S
C48 C52 1.407 . S
C49 C47 1.408 . S
C49 C50 1.394 . S
C50 H45 0.929 . S
C50 C49 1.394 . S
C50 C51 1.382 . S
C51 C50 1.382 . S
C51 C52 1.392 . S
C51 N53 1.420 . S
C52 H46 0.930 . S
C52 C48 1.407 . S
C52 C51 1.392 . S
N53 C51 1.420 . S
N53 C54 1.244 . S
C54 N53 1.244 . S
H55 C58 0.929 . S
H56 C61 0.929 . S
H57 C63 0.930 . S
C58 H55 0.929 . S
C58 C59 1.398 . S
C58 C60 1.396 . S
C59 C58 1.398 . S
C59 C63 1.407 . S
C60 C58 1.396 . S
C60 C61 1.394 . S
C61 H56 0.929 . S
C61 C60 1.394 . S
C61 C62 1.382 . S
C62 C61 1.382 . S
C62 C63 1.392 . S
C62 N64 1.420 . S
C63 H57 0.930 . S
C63 C59 1.407 . S
C63 C62 1.392 . S
N64 C62 1.420 . S
N64 C65 1.244 . S
C65 N64 1.244 . S
H66 C69 0.929 . S
H67 C72 0.929 . S
H68 C74 0.930 . S
C69 H66 0.929 . S
C69 C70 1.398 . S
C69 C71 1.396 . S
C70 C69 1.398 . S
C70 C74 1.407 . S
C71 C69 1.396 . S
C71 C72 1.394 1_655 S
C72 H67 0.929 . S
C72 C71 1.394 1_455 S
C72 C73 1.382 . S
C73 C72 1.382 . S
C73 C74 1.392 1_455 S
C73 N75 1.420 . S
C74 H68 0.930 . S
C74 C70 1.407 . S
C74 C73 1.392 1_655 S
N75 C73 1.420 . S
N75 C76 1.244 . S
C76 N75 1.244 . S
H77 C80 0.929 . S
H78 C83 0.929 . S
H79 C85 0.930 . S
C80 H77 0.929 . S
C80 C81 1.398 . S
C80 C82 1.396 . S
C81 C80 1.398 . S
C81 C85 1.407 . S
C82 C80 1.396 . S
C82 C83 1.394 . S
C83 H78 0.929 . S
C83 C82 1.394 . S
C83 C84 1.382 . S
C84 C83 1.382 . S
C84 C85 1.392 . S
C84 N86 1.420 . S
C85 H79 0.930 . S
C85 C81 1.407 . S
C85 C84 1.392 . S
N86 C84 1.420 . S
N86 C87 1.244 . S
C87 N86 1.244 . S
H88 C91 0.929 . S
H89 C94 0.929 . S
H90 C96 0.930 . S
C91 H88 0.929 . S
C91 C92 1.398 . S
C91 C93 1.396 . S
C92 C91 1.398 . S
C92 C96 1.407 . S
C93 C91 1.396 . S
C93 C94 1.394 . S
C94 H89 0.929 . S
C94 C93 1.394 . S
C94 C95 1.382 . S
C95 C94 1.382 . S
C95 C96 1.392 . S
C95 N97 1.420 . S
C96 H90 0.930 . S
C96 C92 1.407 . S
C96 C95 1.392 . S
N97 C95 1.420 . S
N97 C98 1.244 . S
C98 N97 1.244 . S
H99 C102 0.929 . S
H100 C105 0.921 1_545 S
H101 C107 0.930 . S
C102 H99 0.929 . S
C102 C103 1.398 . S
C102 C104 1.396 . S
C103 C102 1.398 . S
C103 C107 1.407 . S
C104 C102 1.396 . S
C104 C105 1.401 . S
C105 H100 0.921 1_565 S
C105 C104 1.401 . S
C105 C106 1.382 . S
C106 C105 1.382 . S
C106 C107 1.392 . S
C106 N108 1.420 1_565 S
C107 H101 0.930 . S
C107 C103 1.407 . S
C107 C106 1.392 . S
N108 C106 1.420 1_545 S
N108 C109 1.244 . S
C109 N108 1.244 . S
H110 C113 0.929 . S
H111 C116 0.929 . S
H112 C118 0.930 . S
C113 H110 0.929 . S
C113 C114 1.398 . S
C113 C115 1.396 . S
C114 C113 1.398 . S
C114 C118 1.407 . S
C115 C113 1.396 . S
C115 C116 1.394 . S
C116 H111 0.929 . S
C116 C115 1.394 . S
C116 C117 1.382 . S
C117 C116 1.382 . S
C117 C118 1.392 . S
C117 N119 1.420 . S
C118 H112 0.930 . S
C118 C114 1.407 . S
C118 C117 1.392 . S
N119 C117 1.420 . S
N119 C120 1.244 . S
C120 N119 1.244 . S
H121 C124 0.929 . S
H122 C127 0.929 . S
H123 C129 0.930 . S
C124 H121 0.929 . S
C124 C125 1.398 . S
C124 C126 1.396 . S
C125 C124 1.398 . S
C125 C129 1.407 . S
C126 C124 1.396 . S
C126 C127 1.394 . S
C127 H122 0.929 . S
C127 C126 1.394 . S
C127 C128 1.382 . S
C128 C127 1.382 . S
C128 C129 1.392 . S
C128 N130 1.420 . S
C129 H123 0.930 . S
C129 C125 1.407 . S
C129 C128 1.392 . S
N130 C128 1.420 . S
N130 C131 1.244 . S
C131 N130 1.244 . S
H132 C135 0.929 . S
H133 C138 0.929 . S
H134 C140 0.930 . S
C135 H132 0.929 . S
C135 C136 1.398 . S
C135 C137 1.396 . S
C136 C135 1.398 . S
C136 C140 1.407 . S
C137 C135 1.396 . S
C137 C138 1.394 . S
C138 H133 0.929 . S
C138 C137 1.394 . S
C138 C139 1.382 . S
C139 C138 1.382 . S
C139 C140 1.392 . S
C139 N141 1.420 . S
C140 H134 0.930 . S
C140 C136 1.407 . S
C140 C139 1.392 . S
N141 C139 1.420 . S
N141 C142 1.244 . S
C142 N141 1.244 . S
H143 C146 0.929 . S
H144 C149 0.929 . S
H145 C151 0.930 . S
C146 H143 0.929 . S
C146 C147 1.398 . S
C146 C148 1.396 . S
C147 C146 1.398 . S
C147 C151 1.407 . S
C148 C146 1.396 . S
C148 C149 1.394 1_556 S
C149 H144 0.929 . S
C149 C148 1.394 1_554 S
C149 C150 1.382 1_554 S
C150 C149 1.382 1_556 S
C150 C151 1.392 . S
C150 N152 1.420 1_556 S
C151 H145 0.930 . S
C151 C147 1.407 . S
C151 C150 1.392 . S
N152 C150 1.420 1_554 S
N152 C153 1.244 . S
C153 N152 1.244 . S
H154 C157 0.929 . S
H155 C160 0.929 . S
H156 C162 0.930 . S
C157 H154 0.929 . S
C157 C158 1.398 . S
C157 C159 1.396 . S
C158 C157 1.398 . S
C158 C162 1.407 . S
C159 C157 1.396 . S
C159 C160 1.394 . S
C160 H155 0.929 . S
C160 C159 1.394 . S
C160 C161 1.382 . S
C161 C160 1.382 . S
C161 C162 1.392 . S
C161 N163 1.420 . S
C162 H156 0.930 . S
C162 C158 1.407 . S
C162 C161 1.392 . S
N163 C161 1.420 . S
N163 C164 1.244 . S
C164 N163 1.244 . S
H165 C168 0.922 1_554 S
H166 C171 0.929 . S
H167 C173 0.930 1_565 S
C168 H165 0.922 1_556 S
C168 C169 1.402 . S
C168 C170 1.399 . S
C169 C168 1.402 . S
C169 C173 1.407 . S
C170 C168 1.399 . S
C170 C171 1.394 . S
C171 H166 0.929 . S
C171 C170 1.394 . S
C171 C172 1.382 . S
C172 C171 1.382 . S
C172 C173 1.392 . S
C172 N174 1.420 . S
C173 H167 0.930 1_545 S
C173 C169 1.407 . S
C173 C172 1.392 . S
N174 C172 1.420 . S
N174 C175 1.244 . S
C175 N174 1.244 . S
Mn176 O181 2.095 . S
Mn176 O191 2.162 . S
Mn176 O192 2.297 . S
Mn176 O200 2.385 . S
Mn176 O201 2.209 . S
Mn176 O202 2.094 . S
Mn177 O182 2.121 1_556 S
Mn177 N184 2.257 . S
Mn177 N193 2.282 . S
Mn177 O201 2.215 1_556 S
Mn177 O203 2.117 1_556 S
C178 O200 1.234 . S
C178 O201 1.283 . S
C179 O191 1.281 . S
C179 O192 1.236 . S
C180 O202 1.240 . S
C180 O203 1.264 . S
O181 Mn176 2.095 . S
O181 C190 1.250 . S
O182 Mn177 2.121 1_554 S
O182 C190 1.258 . S
C183 N184 1.326 . S
C183 C187 1.460 . S
C183 H189 0.929 . S
N184 Mn177 2.257 . S
N184 C183 1.326 . S
N184 C188 1.362 . S
C185 C186 1.258 . S
C185 C188 1.431 . S
C185 C205 1.449 . S
C186 C185 1.258 . S
C186 C187 1.477 . S
C186 H206 0.931 . S
C187 C183 1.460 . S
C187 C186 1.477 . S
C187 H207 0.930 . S
C188 N184 1.362 . S
C188 C185 1.431 . S
C188 C198 1.476 . S
H189 C183 0.929 . S
C190 O181 1.250 . S
C190 O182 1.258 . S
O191 Mn176 2.162 . S
O191 C179 1.281 . S
O192 Mn176 2.297 . S
O192 C179 1.236 . S
N193 Mn177 2.282 . S
N193 C194 1.328 . S
N193 C198 1.318 . S
C194 N193 1.328 . S
C194 C195 1.457 . S
C194 H199 0.929 . S
C195 C194 1.457 . S
C195 C196 1.291 . S
C195 H208 0.931 . S
C196 C195 1.291 . S
C196 C197 1.373 . S
C196 H209 0.929 . S
C197 C196 1.373 . S
C197 C198 1.396 . S
C197 C204 1.403 . S
C198 C188 1.476 . S
C198 N193 1.318 . S
C198 C197 1.396 . S
H199 C194 0.929 . S
O200 Mn176 2.385 . S
O200 C178 1.234 . S
O201 Mn176 2.209 . S
O201 Mn177 2.215 1_554 S
O201 C178 1.283 . S
O202 Mn176 2.094 . S
O202 C180 1.240 . S
O203 Mn177 2.117 1_554 S
O203 C180 1.264 . S
C204 C197 1.403 . S
C204 C205 1.399 . S
C204 H210 0.929 . S
C205 C185 1.449 . S
C205 C204 1.399 . S
C205 H211 0.930 . S
H206 C186 0.931 . S
H207 C187 0.930 . S
H208 C195 0.931 . S
H209 C196 0.929 . S
H210 C204 0.929 . S
H211 C205 0.930 . S
Mn212 O217 2.095 . S
Mn212 O227 2.162 . S
Mn212 O228 2.297 . S
Mn212 O236 2.385 . S
Mn212 O237 2.209 . S
Mn212 O238 2.094 . S
Mn213 O218 2.121 . S
Mn213 N220 2.257 . S
Mn213 N229 2.282 . S
Mn213 O237 2.215 . S
Mn213 O239 2.117 . S
C214 O236 1.234 . S
C214 O237 1.283 . S
C215 O227 1.281 . S
C215 O228 1.236 . S
C216 O238 1.240 . S
C216 O239 1.264 . S
O217 Mn212 2.095 . S
O217 C226 1.250 . S
O218 Mn213 2.121 . S
O218 C226 1.258 . S
C219 N220 1.326 . S
C219 C223 1.460 . S
C219 H225 0.929 . S
N220 Mn213 2.257 . S
N220 C219 1.326 . S
N220 C224 1.362 . S
C221 C222 1.258 . S
C221 C224 1.431 . S
C221 C241 1.449 . S
C222 C221 1.258 . S
C222 C223 1.477 . S
C222 H242 0.931 . S
C223 C219 1.460 . S
C223 C222 1.477 . S
C223 H243 0.930 . S
C224 N220 1.362 . S
C224 C221 1.431 . S
C224 C234 1.476 . S
H225 C219 0.929 . S
C226 O217 1.250 . S
C226 O218 1.258 . S
O227 Mn212 2.162 . S
O227 C215 1.281 . S
O228 Mn212 2.297 . S
O228 C215 1.236 . S
N229 Mn213 2.282 . S
N229 C230 1.328 . S
N229 C234 1.318 . S
C230 N229 1.328 . S
C230 C231 1.457 . S
C230 H235 0.929 . S
C231 C230 1.457 . S
C231 C232 1.291 . S
C231 H244 0.931 . S
C232 C231 1.291 . S
C232 C233 1.373 . S
C232 H245 0.929 . S
C233 C232 1.373 . S
C233 C234 1.396 . S
C233 C240 1.403 . S
C234 C224 1.476 . S
C234 N229 1.318 . S
C234 C233 1.396 . S
H235 C230 0.929 . S
O236 Mn212 2.385 . S
O236 C214 1.234 . S
O237 Mn212 2.209 . S
O237 Mn213 2.215 . S
O237 C214 1.283 . S
O238 Mn212 2.094 . S
O238 C216 1.240 . S
O239 Mn213 2.117 . S
O239 C216 1.264 . S
C240 C233 1.403 . S
C240 C241 1.399 . S
C240 H246 0.929 . S
C241 C221 1.449 . S
C241 C240 1.399 . S
C241 H247 0.930 . S
H242 C222 0.931 . S
H243 C223 0.930 . S
H244 C231 0.931 . S
H245 C232 0.929 . S
H246 C240 0.929 . S
H247 C241 0.930 . S
Mn248 O253 2.095 1_554 S
Mn248 O263 2.162 . S
Mn248 O264 2.297 1_554 S
Mn248 O272 2.385 . S
Mn248 O273 2.209 1_554 S
Mn248 O274 2.094 . S
Mn249 O254 2.121 . S
Mn249 N256 2.257 . S
Mn249 N265 2.282 1_556 S
Mn249 O273 2.215 . S
Mn249 O275 2.117 1_556 S
C250 O272 1.236 1_556 S
C250 O273 1.281 . S
C251 O263 1.297 . S
C251 O264 1.219 1_554 S
C252 O274 1.240 . S
C252 O275 1.264 . S
O253 Mn248 2.095 1_556 S
O253 C262 1.250 . S
O254 Mn249 2.121 . S
O254 C262 1.258 . S
C255 N256 1.326 . S
C255 C259 1.460 . S
C255 H261 0.929 . S
N256 Mn249 2.257 . S
N256 C255 1.326 . S
N256 C260 1.362 . S
C257 C258 1.258 . S
C257 C260 1.431 . S
C257 C277 1.449 . S
C258 C257 1.258 . S
C258 C259 1.477 . S
C258 H278 0.931 . S
C259 C255 1.460 . S
C259 C258 1.477 . S
C259 H279 0.930 . S
C260 N256 1.362 . S
C260 C257 1.431 . S
C260 C270 1.476 . S
H261 C255 0.929 . S
C262 O253 1.250 . S
C262 O254 1.258 . S
O263 Mn248 2.162 . S
O263 C251 1.297 . S
O264 Mn248 2.297 1_556 S
O264 C251 1.219 1_556 S
N265 Mn249 2.282 1_554 S
N265 C266 1.328 . S
N265 C270 1.318 1_554 S
C266 N265 1.328 . S
C266 C267 1.457 . S
C266 H271 0.929 . S
C267 C266 1.457 . S
C267 C268 1.291 . S
C267 H280 0.931 . S
C268 C267 1.291 . S
C268 C269 1.373 1_554 S
C268 H281 0.929 . S
C269 C268 1.373 1_556 S
C269 C270 1.396 . S
C269 C276 1.403 . S
C270 C260 1.476 . S
C270 N265 1.318 1_556 S
C270 C269 1.396 . S
H271 C266 0.929 . S
O272 Mn248 2.385 . S
O272 C250 1.236 1_554 S
O273 Mn248 2.209 1_556 S
O273 Mn249 2.215 . S
O273 C250 1.281 . S
O274 Mn248 2.094 . S
O274 C252 1.240 . S
O275 Mn249 2.117 1_554 S
O275 C252 1.264 . S
C276 C269 1.403 . S
C276 C277 1.399 . S
C276 H282 0.929 . S
C277 C257 1.449 . S
C277 C276 1.399 . S
C277 H283 0.930 . S
H278 C258 0.931 . S
H279 C259 0.930 . S
H280 C267 0.931 . S
H281 C268 0.929 . S
H282 C276 0.929 . S
H283 C277 0.930 . S
Mn284 O289 2.095 . S
Mn284 O299 2.162 . S
Mn284 O300 2.297 . S
Mn284 O308 2.385 . S
Mn284 O309 2.209 1_545 S
Mn284 O310 2.094 . S
Mn285 O290 2.121 . S
Mn285 N292 2.257 . S
Mn285 N301 2.282 . S
Mn285 O309 2.215 . S
Mn285 O311 2.117 1_565 S
C286 O308 1.234 1_565 S
C286 O309 1.283 . S
C287 O299 1.281 . S
C287 O300 1.236 . S
C288 O310 1.240 . S
C288 O311 1.264 . S
O289 Mn284 2.095 . S
O289 C298 1.250 . S
O290 Mn285 2.121 . S
O290 C298 1.258 1_565 S
C291 N292 1.326 . S
C291 C295 1.460 . S
C291 H297 0.929 . S
N292 Mn285 2.257 . S
N292 C291 1.326 . S
N292 C296 1.362 . S
C293 C294 1.258 . S
C293 C296 1.431 . S
C293 C313 1.449 . S
C294 C293 1.258 . S
C294 C295 1.477 . S
C294 H314 0.931 . S
C295 C291 1.460 . S
C295 C294 1.477 . S
C295 H315 0.930 . S
C296 N292 1.362 . S
C296 C293 1.431 . S
C296 C306 1.476 . S
H297 C291 0.929 . S
C298 O289 1.250 . S
C298 O290 1.258 1_545 S
O299 Mn284 2.162 . S
O299 C287 1.281 . S
O300 Mn284 2.297 . S
O300 C287 1.236 . S
N301 Mn285 2.282 . S
N301 C302 1.328 . S
N301 C306 1.318 . S
C302 N301 1.328 . S
C302 C303 1.457 . S
C302 H307 0.929 . S
C303 C302 1.457 . S
C303 C304 1.291 . S
C303 H316 0.931 . S
C304 C303 1.291 . S
C304 C305 1.373 . S
C304 H317 0.929 . S
C305 C304 1.373 . S
C305 C306 1.396 . S
C305 C312 1.403 . S
C306 C296 1.476 . S
C306 N301 1.318 . S
C306 C305 1.396 . S
H307 C302 0.929 . S
O308 Mn284 2.385 . S
O308 C286 1.234 1_545 S
O309 Mn284 2.209 1_565 S
O309 Mn285 2.215 . S
O309 C286 1.283 . S
O310 Mn284 2.094 . S
O310 C288 1.240 . S
O311 Mn285 2.117 1_545 S
O311 C288 1.264 . S
C312 C305 1.403 . S
C312 C313 1.399 . S
C312 H318 0.929 . S
C313 C293 1.449 . S
C313 C312 1.399 . S
C313 H319 0.930 . S
H314 C294 0.931 . S
H315 C295 0.930 . S
H316 C303 0.931 . S
H317 C304 0.929 . S
H318 C312 0.929 . S
H319 C313 0.930 . S
Mn320 O325 2.095 . S
Mn320 O335 2.162 . S
Mn320 O336 2.297 . S
Mn320 O344 2.385 . S
Mn320 O345 2.209 . S
Mn320 O346 2.094 . S
Mn321 O326 2.121 . S
Mn321 N328 2.257 . S
Mn321 N337 2.282 . S
Mn321 O345 2.215 . S
Mn321 O347 2.117 . S
C322 O344 1.234 . S
C322 O345 1.283 . S
C323 O335 1.281 . S
C323 O336 1.236 . S
C324 O346 1.240 . S
C324 O347 1.264 . S
O325 Mn320 2.095 . S
O325 C334 1.250 . S
O326 Mn321 2.121 . S
O326 C334 1.258 . S
C327 N328 1.326 . S
C327 C331 1.460 . S
C327 H333 0.929 . S
N328 Mn321 2.257 . S
N328 C327 1.326 . S
N328 C332 1.362 . S
C329 C330 1.258 . S
C329 C332 1.431 . S
C329 C349 1.449 . S
C330 C329 1.258 . S
C330 C331 1.477 . S
C330 H350 0.931 . S
C331 C327 1.460 . S
C331 C330 1.477 . S
C331 H351 0.930 . S
C332 N328 1.362 . S
C332 C329 1.431 . S
C332 C342 1.476 . S
H333 C327 0.929 . S
C334 O325 1.250 . S
C334 O326 1.258 . S
O335 Mn320 2.162 . S
O335 C323 1.281 . S
O336 Mn320 2.297 . S
O336 C323 1.236 . S
N337 Mn321 2.282 . S
N337 C338 1.328 . S
N337 C342 1.318 . S
C338 N337 1.328 . S
C338 C339 1.457 . S
C338 H343 0.929 . S
C339 C338 1.457 . S
C339 C340 1.291 . S
C339 H352 0.931 . S
C340 C339 1.291 . S
C340 C341 1.373 . S
C340 H353 0.929 . S
C341 C340 1.373 . S
C341 C342 1.396 . S
C341 C348 1.403 . S
C342 C332 1.476 . S
C342 N337 1.318 . S
C342 C341 1.396 . S
H343 C338 0.929 . S
O344 Mn320 2.385 . S
O344 C322 1.234 . S
O345 Mn320 2.209 . S
O345 Mn321 2.215 . S
O345 C322 1.283 . S
O346 Mn320 2.094 . S
O346 C324 1.240 . S
O347 Mn321 2.117 . S
O347 C324 1.264 . S
C348 C341 1.403 . S
C348 C349 1.399 . S
C348 H354 0.929 . S
C349 C329 1.449 . S
C349 C348 1.399 . S
C349 H355 0.930 . S
H350 C330 0.931 . S
H351 C331 0.930 . S
H352 C339 0.931 . S
H353 C340 0.929 . S
H354 C348 0.929 . S
H355 C349 0.930 . S
Mn356 O361 2.095 . S
Mn356 O371 2.162 . S
Mn356 O372 2.297 . S
Mn356 O380 2.385 . S
Mn356 O381 2.209 . S
Mn356 O382 2.094 . S
Mn357 O362 2.121 . S
Mn357 N364 2.257 . S
Mn357 N373 2.282 . S
Mn357 O381 2.215 . S
Mn357 O383 2.117 . S
C358 O380 1.234 . S
C358 O381 1.283 . S
C359 O371 1.281 . S
C359 O372 1.236 . S
C360 O382 1.240 . S
C360 O383 1.264 . S
O361 Mn356 2.095 . S
O361 C370 1.250 . S
O362 Mn357 2.121 . S
O362 C370 1.258 . S
C363 N364 1.326 . S
C363 C367 1.460 . S
C363 H369 0.929 . S
N364 Mn357 2.257 . S
N364 C363 1.326 . S
N364 C368 1.362 . S
C365 C366 1.258 . S
C365 C368 1.431 . S
C365 C385 1.449 . S
C366 C365 1.258 . S
C366 C367 1.477 . S
C366 H386 0.931 . S
C367 C363 1.460 . S
C367 C366 1.477 . S
C367 H387 0.930 . S
C368 N364 1.362 . S
C368 C365 1.431 . S
C368 C378 1.476 . S
H369 C363 0.929 . S
C370 O361 1.250 . S
C370 O362 1.258 . S
O371 Mn356 2.162 . S
O371 C359 1.281 . S
O372 Mn356 2.297 . S
O372 C359 1.236 . S
N373 Mn357 2.282 . S
N373 C374 1.328 . S
N373 C378 1.318 . S
C374 N373 1.328 . S
C374 C375 1.457 . S
C374 H379 0.929 . S
C375 C374 1.457 . S
C375 C376 1.291 . S
C375 H388 0.931 . S
C376 C375 1.291 . S
C376 C377 1.373 . S
C376 H389 0.929 . S
C377 C376 1.373 . S
C377 C378 1.396 . S
C377 C384 1.403 . S
C378 C368 1.476 . S
C378 N373 1.318 . S
C378 C377 1.396 . S
H379 C374 0.929 . S
O380 Mn356 2.385 . S
O380 C358 1.234 . S
O381 Mn356 2.209 . S
O381 Mn357 2.215 . S
O381 C358 1.283 . S
O382 Mn356 2.094 . S
O382 C360 1.240 . S
O383 Mn357 2.117 . S
O383 C360 1.264 . S
C384 C377 1.403 . S
C384 C385 1.399 . S
C384 H390 0.929 . S
C385 C365 1.449 . S
C385 C384 1.399 . S
C385 H391 0.930 . S
H386 C366 0.931 . S
H387 C367 0.930 . S
H388 C375 0.931 . S
H389 C376 0.929 . S
H390 C384 0.929 . S
H391 C385 0.930 . S
Mn392 O397 2.095 . S
Mn392 O407 2.162 . S
Mn392 O408 2.297 . S
Mn392 O416 2.385 . S
Mn392 O417 2.209 . S
Mn392 O418 2.094 . S
Mn393 O398 2.121 . S
Mn393 N400 2.257 . S
Mn393 N409 2.282 . S
Mn393 O417 2.215 . S
Mn393 O419 2.117 . S
C394 O416 1.234 . S
C394 O417 1.283 . S
C395 O407 1.281 . S
C395 O408 1.236 . S
C396 O418 1.240 . S
C396 O419 1.264 . S
O397 Mn392 2.095 . S
O397 C406 1.250 . S
O398 Mn393 2.121 . S
O398 C406 1.258 . S
C399 N400 1.326 . S
C399 C403 1.460 . S
C399 H405 0.929 . S
N400 Mn393 2.257 . S
N400 C399 1.326 . S
N400 C404 1.362 . S
C401 C402 1.258 . S
C401 C404 1.431 . S
C401 C421 1.449 . S
C402 C401 1.258 . S
C402 C403 1.477 . S
C402 H422 0.931 . S
C403 C399 1.460 . S
C403 C402 1.477 . S
C403 H423 0.930 . S
C404 N400 1.362 . S
C404 C401 1.431 . S
C404 C414 1.476 . S
H405 C399 0.929 . S
C406 O397 1.250 . S
C406 O398 1.258 . S
O407 Mn392 2.162 . S
O407 C395 1.281 . S
O408 Mn392 2.297 . S
O408 C395 1.236 . S
N409 Mn393 2.282 . S
N409 C410 1.328 . S
N409 C414 1.318 . S
C410 N409 1.328 . S
C410 C411 1.457 . S
C410 H415 0.929 . S
C411 C410 1.457 . S
C411 C412 1.291 . S
C411 H424 0.931 . S
C412 C411 1.291 . S
C412 C413 1.373 . S
C412 H425 0.929 . S
C413 C412 1.373 . S
C413 C414 1.396 . S
C413 C420 1.403 . S
C414 C404 1.476 . S
C414 N409 1.318 . S
C414 C413 1.396 . S
H415 C410 0.929 . S
O416 Mn392 2.385 . S
O416 C394 1.234 . S
O417 Mn392 2.209 . S
O417 Mn393 2.215 . S
O417 C394 1.283 . S
O418 Mn392 2.094 . S
O418 C396 1.240 . S
O419 Mn393 2.117 . S
O419 C396 1.264 . S
C420 C413 1.403 . S
C420 C421 1.399 . S
C420 H426 0.929 . S
C421 C401 1.449 . S
C421 C420 1.399 . S
C421 H427 0.930 . S
H422 C402 0.931 . S
H423 C403 0.930 . S
H424 C411 0.931 . S
H425 C412 0.929 . S
H426 C420 0.929 . S
H427 C421 0.930 . S
Mn428 O433 2.095 . S
Mn428 O443 2.162 . S
Mn428 O444 2.297 . S
Mn428 O452 2.385 1_565 S
Mn428 O453 2.209 1_565 S
Mn428 O454 2.094 . S
Mn429 O434 2.121 . S
Mn429 N436 2.257 . S
Mn429 N445 2.282 . S
Mn429 O453 2.215 . S
Mn429 O455 2.117 . S
C430 O452 1.234 . S
C430 O453 1.283 . S
C431 O443 1.281 . S
C431 O444 1.236 . S
C432 O454 1.278 . S
C432 O455 1.223 1_565 S
O433 Mn428 2.095 . S
O433 C442 1.250 1_565 S
O434 Mn429 2.121 . S
O434 C442 1.258 . S
C435 N436 1.326 . S
C435 C439 1.460 . S
C435 H441 0.929 . S
N436 Mn429 2.257 . S
N436 C435 1.326 . S
N436 C440 1.362 . S
C437 C438 1.258 . S
C437 C440 1.431 . S
C437 C457 1.449 . S
C438 C437 1.258 . S
C438 C439 1.477 . S
C438 H458 0.931 . S
C439 C435 1.460 . S
C439 C438 1.477 . S
C439 H459 0.930 . S
C440 N436 1.362 . S
C440 C437 1.431 . S
C440 C450 1.476 . S
H441 C435 0.929 . S
C442 O433 1.250 1_545 S
C442 O434 1.258 . S
O443 Mn428 2.162 . S
O443 C431 1.281 . S
O444 Mn428 2.297 . S
O444 C431 1.236 . S
N445 Mn429 2.282 . S
N445 C446 1.328 . S
N445 C450 1.318 . S
C446 N445 1.328 . S
C446 C447 1.457 . S
C446 H451 0.929 . S
C447 C446 1.457 . S
C447 C448 1.291 . S
C447 H460 0.931 . S
C448 C447 1.291 . S
C448 C449 1.373 . S
C448 H461 0.929 . S
C449 C448 1.373 . S
C449 C450 1.396 . S
C449 C456 1.403 . S
C450 C440 1.476 . S
C450 N445 1.318 . S
C450 C449 1.396 . S
H451 C446 0.929 . S
O452 Mn428 2.385 1_545 S
O452 C430 1.234 . S
O453 Mn428 2.209 1_545 S
O453 Mn429 2.215 . S
O453 C430 1.283 . S
O454 Mn428 2.094 . S
O454 C432 1.278 . S
O455 Mn429 2.117 . S
O455 C432 1.223 1_545 S
C456 C449 1.403 . S
C456 C457 1.399 . S
C456 H462 0.929 . S
C457 C437 1.449 . S
C457 C456 1.399 . S
C457 H463 0.930 . S
H458 C438 0.931 . S
H459 C439 0.930 . S
H460 C447 0.931 . S
H461 C448 0.929 . S
H462 C456 0.929 . S
H463 C457 0.930 . S
Mn464 O469 2.095 . S
Mn464 O479 2.162 . S
Mn464 O480 2.297 . S
Mn464 O488 2.385 . S
Mn464 O489 2.209 1_455 S
Mn464 O490 2.094 . S
Mn465 O470 2.121 . S
Mn465 N472 2.257 . S
Mn465 N481 2.282 . S
Mn465 O489 2.215 . S
Mn465 O491 2.117 . S
C466 O488 1.234 1_655 S
C466 O489 1.283 . S
C467 O479 1.281 . S
C467 O480 1.236 . S
C468 O490 1.240 . S
C468 O491 1.264 1_455 S
O469 Mn464 2.095 . S
O469 C478 1.250 . S
O470 Mn465 2.121 . S
O470 C478 1.258 1_655 S
C471 N472 1.326 . S
C471 C475 1.460 . S
C471 H477 0.929 . S
N472 Mn465 2.257 . S
N472 C471 1.326 . S
N472 C476 1.362 . S
C473 C474 1.258 . S
C473 C476 1.431 . S
C473 C493 1.449 . S
C474 C473 1.258 . S
C474 C475 1.477 . S
C474 H494 0.931 . S
C475 C471 1.460 . S
C475 C474 1.477 . S
C475 H495 0.930 . S
C476 N472 1.362 . S
C476 C473 1.431 . S
C476 C486 1.476 . S
H477 C471 0.929 . S
C478 O469 1.250 . S
C478 O470 1.258 1_455 S
O479 Mn464 2.162 . S
O479 C467 1.281 . S
O480 Mn464 2.297 . S
O480 C467 1.236 . S
N481 Mn465 2.282 . S
N481 C482 1.328 . S
N481 C486 1.318 . S
C482 N481 1.328 . S
C482 C483 1.457 . S
C482 H487 0.929 . S
C483 C482 1.457 . S
C483 C484 1.291 . S
C483 H496 0.931 . S
C484 C483 1.291 . S
C484 C485 1.373 . S
C484 H497 0.929 . S
C485 C484 1.373 . S
C485 C486 1.396 . S
C485 C492 1.403 . S
C486 C476 1.476 . S
C486 N481 1.318 . S
C486 C485 1.396 . S
H487 C482 0.929 . S
O488 Mn464 2.385 . S
O488 C466 1.234 1_455 S
O489 Mn464 2.209 1_655 S
O489 Mn465 2.215 . S
O489 C466 1.283 . S
O490 Mn464 2.094 . S
O490 C468 1.240 . S
O491 Mn465 2.117 . S
O491 C468 1.264 1_655 S
C492 C485 1.403 . S
C492 C493 1.399 . S
C492 H498 0.929 . S
C493 C473 1.449 . S
C493 C492 1.399 . S
C493 H499 0.930 . S
H494 C474 0.931 . S
H495 C475 0.930 . S
H496 C483 0.931 . S
H497 C484 0.929 . S
H498 C492 0.929 . S
H499 C493 0.930 . S
Mn500 O505 2.095 . S
Mn500 O515 2.162 . S
Mn500 O516 2.297 . S
Mn500 O524 2.385 . S
Mn500 O525 2.209 . S
Mn500 O526 2.094 . S
Mn501 O506 2.121 . S
Mn501 N508 2.257 . S
Mn501 N517 2.282 . S
Mn501 O525 2.215 . S
Mn501 O527 2.117 . S
C502 O524 1.234 . S
C502 O525 1.283 . S
C503 O515 1.281 . S
C503 O516 1.236 . S
C504 O526 1.240 . S
C504 O527 1.264 . S
O505 Mn500 2.095 . S
O505 C514 1.250 . S
O506 Mn501 2.121 . S
O506 C514 1.258 . S
C507 N508 1.326 . S
C507 C511 1.460 . S
C507 H513 0.929 . S
N508 Mn501 2.257 . S
N508 C507 1.326 . S
N508 C512 1.362 . S
C509 C510 1.258 . S
C509 C512 1.431 . S
C509 C529 1.449 . S
C510 C509 1.258 . S
C510 C511 1.477 . S
C510 H530 0.931 . S
C511 C507 1.460 . S
C511 C510 1.477 . S
C511 H531 0.930 . S
C512 N508 1.362 . S
C512 C509 1.431 . S
C512 C522 1.476 . S
H513 C507 0.929 . S
C514 O505 1.250 . S
C514 O506 1.258 . S
O515 Mn500 2.162 . S
O515 C503 1.281 . S
O516 Mn500 2.297 . S
O516 C503 1.236 . S
N517 Mn501 2.282 . S
N517 C518 1.328 . S
N517 C522 1.318 . S
C518 N517 1.328 . S
C518 C519 1.457 . S
C518 H523 0.929 . S
C519 C518 1.457 . S
C519 C520 1.291 . S
C519 H532 0.931 . S
C520 C519 1.291 . S
C520 C521 1.373 . S
C520 H533 0.929 . S
C521 C520 1.373 . S
C521 C522 1.396 . S
C521 C528 1.403 . S
C522 C512 1.476 . S
C522 N517 1.318 . S
C522 C521 1.396 . S
H523 C518 0.929 . S
O524 Mn500 2.385 . S
O524 C502 1.234 . S
O525 Mn500 2.209 . S
O525 Mn501 2.215 . S
O525 C502 1.283 . S
O526 Mn500 2.094 . S
O526 C504 1.240 . S
O527 Mn501 2.117 . S
O527 C504 1.264 . S
C528 C521 1.403 . S
C528 C529 1.399 . S
C528 H534 0.929 . S
C529 C509 1.449 . S
C529 C528 1.399 . S
C529 H535 0.930 . S
H530 C510 0.931 . S
H531 C511 0.930 . S
H532 C519 0.931 . S
H533 C520 0.929 . S
H534 C528 0.929 . S
H535 C529 0.930 . S
Mn536 O541 2.095 1_455 S
Mn536 O551 2.162 . S
Mn536 O552 2.297 . S
Mn536 O560 2.385 . S
Mn536 O561 2.209 1_455 S
Mn536 O562 2.094 . S
Mn537 O542 2.121 . S
Mn537 N544 2.257 . S
Mn537 N553 2.282 1_655 S
Mn537 O561 2.215 . S
Mn537 O563 2.117 1_655 S
C538 O560 1.234 . S
C538 O561 1.283 1_455 S
C539 O551 1.281 . S
C539 O552 1.236 . S
C540 O562 1.240 . S
C540 O563 1.264 . S
O541 Mn536 2.095 1_655 S
O541 C550 1.250 . S
O542 Mn537 2.121 . S
O542 C550 1.258 . S
C543 N544 1.326 . S
C543 C547 1.460 . S
C543 H549 0.929 . S
N544 Mn537 2.257 . S
N544 C543 1.326 . S
N544 C548 1.362 . S
C545 C546 1.258 . S
C545 C548 1.431 . S
C545 C565 1.449 . S
C546 C545 1.258 . S
C546 C547 1.477 . S
C546 H566 0.931 . S
C547 C543 1.460 . S
C547 C546 1.477 . S
C547 H567 0.930 . S
C548 N544 1.362 . S
C548 C545 1.431 . S
C548 C558 1.476 . S
H549 C543 0.929 . S
C550 O541 1.250 . S
C550 O542 1.258 . S
O551 Mn536 2.162 . S
O551 C539 1.281 . S
O552 Mn536 2.297 . S
O552 C539 1.236 . S
N553 Mn537 2.282 1_455 S
N553 C554 1.328 . S
N553 C558 1.318 1_455 S
C554 N553 1.328 . S
C554 C555 1.457 . S
C554 H559 0.929 . S
C555 C554 1.457 . S
C555 C556 1.291 . S
C555 H568 0.931 . S
C556 C555 1.291 . S
C556 C557 1.373 1_455 S
C556 H569 0.929 . S
C557 C556 1.373 1_655 S
C557 C558 1.396 . S
C557 C564 1.403 . S
C558 C548 1.476 . S
C558 N553 1.318 1_655 S
C558 C557 1.396 . S
H559 C554 0.929 . S
O560 Mn536 2.385 . S
O560 C538 1.234 . S
O561 Mn536 2.209 1_655 S
O561 Mn537 2.215 . S
O561 C538 1.283 1_655 S
O562 Mn536 2.094 . S
O562 C540 1.240 . S
O563 Mn537 2.117 1_455 S
O563 C540 1.264 . S
C564 C557 1.403 . S
C564 C565 1.399 . S
C564 H570 0.929 . S
C565 C545 1.449 . S
C565 C564 1.399 . S
C565 H571 0.930 . S
H566 C546 0.931 . S
H567 C547 0.930 . S
H568 C555 0.931 . S
H569 C556 0.929 . S
H570 C564 0.929 . S
H571 C565 0.930 . S
Mn572 O577 2.095 . S
Mn572 O587 2.162 . S
Mn572 O588 2.297 . S
Mn572 O596 2.385 . S
Mn572 O597 2.209 . S
Mn572 O598 2.094 . S
Mn573 O578 2.121 . S
Mn573 N580 2.257 . S
Mn573 N589 2.282 . S
Mn573 O597 2.215 . S
Mn573 O599 2.117 . S
C574 O596 1.234 . S
C574 O597 1.283 . S
C575 O587 1.281 . S
C575 O588 1.236 . S
C576 O598 1.240 . S
C576 O599 1.264 . S
O577 Mn572 2.095 . S
O577 C586 1.250 . S
O578 Mn573 2.121 . S
O578 C586 1.258 . S
C579 N580 1.326 . S
C579 C583 1.460 . S
C579 H585 0.929 . S
N580 Mn573 2.257 . S
N580 C579 1.326 . S
N580 C584 1.362 . S
C581 C582 1.258 . S
C581 C584 1.431 . S
C581 C601 1.449 . S
C582 C581 1.258 . S
C582 C583 1.477 . S
C582 H602 0.931 . S
C583 C579 1.460 . S
C583 C582 1.477 . S
C583 H603 0.930 . S
C584 N580 1.362 . S
C584 C581 1.431 . S
C584 C594 1.476 . S
H585 C579 0.929 . S
C586 O577 1.250 . S
C586 O578 1.258 . S
O587 Mn572 2.162 . S
O587 C575 1.281 . S
O588 Mn572 2.297 . S
O588 C575 1.236 . S
N589 Mn573 2.282 . S
N589 C590 1.328 . S
N589 C594 1.318 . S
C590 N589 1.328 . S
C590 C591 1.457 . S
C590 H595 0.929 . S
C591 C590 1.457 . S
C591 C592 1.291 . S
C591 H604 0.931 . S
C592 C591 1.291 . S
C592 C593 1.373 . S
C592 H605 0.929 . S
C593 C592 1.373 . S
C593 C594 1.396 . S
C593 C600 1.403 . S
C594 C584 1.476 . S
C594 N589 1.318 . S
C594 C593 1.396 . S
H595 C590 0.929 . S
O596 Mn572 2.385 . S
O596 C574 1.234 . S
O597 Mn572 2.209 . S
O597 Mn573 2.215 . S
O597 C574 1.283 . S
O598 Mn572 2.094 . S
O598 C576 1.240 . S
O599 Mn573 2.117 . S
O599 C576 1.264 . S
C600 C593 1.403 . S
C600 C601 1.399 . S
C600 H606 0.929 . S
C601 C581 1.449 . S
C601 C600 1.399 . S
C601 H607 0.930 . S
H602 C582 0.931 . S
H603 C583 0.930 . S
H604 C591 0.931 . S
H605 C592 0.929 . S
H606 C600 0.929 . S
H607 C601 0.930 . S
H608 C614 0.930 . S
H609 C618 0.930 . S
H610 C623 0.929 . S
H611 C621 0.929 . S
H612 C616 0.929 . S
H613 C622 0.929 . S
C614 H608 0.930 . S
C614 C615 1.367 . S
C614 C622 1.378 . S
C615 C614 1.367 . S
C615 C623 1.433 . S
C616 H612 0.929 . S
C616 C618 1.378 . S
C616 C620 1.350 . S
C617 C620 1.463 . S
C617 C622 1.350 . S
C617 N625 1.427 . S
C618 H609 0.930 . S
C618 C616 1.378 . S
C618 C619 1.367 . S
C619 C618 1.367 . S
C619 C621 1.433 . S
C620 C616 1.350 . S
C620 C617 1.463 . S
C620 N624 1.427 . S
C621 H611 0.929 . S
C621 C619 1.433 . S
C621 N624 1.384 . S
C622 H613 0.929 . S
C622 C614 1.378 . S
C622 C617 1.350 . S
C623 H610 0.929 . S
C623 C615 1.433 . S
C623 N625 1.384 . S
N624 C620 1.427 . S
N624 C621 1.384 . S
N625 C617 1.427 . S
N625 C623 1.384 . S
H626 C632 0.930 . S
H627 C636 0.930 . S
H628 C641 0.929 . S
H629 C639 0.929 . S
H630 C634 0.929 . S
H631 C640 0.929 . S
C632 H626 0.930 . S
C632 C633 1.367 . S
C632 C640 1.378 . S
C633 C632 1.367 . S
C633 C641 1.433 . S
C634 H630 0.929 . S
C634 C636 1.378 . S
C634 C638 1.350 . S
C635 C638 1.463 . S
C635 C640 1.350 . S
C635 N643 1.427 . S
C636 H627 0.930 . S
C636 C634 1.378 . S
C636 C637 1.367 . S
C637 C636 1.367 . S
C637 C639 1.433 . S
C638 C634 1.350 . S
C638 C635 1.463 . S
C638 N642 1.427 . S
C639 H629 0.929 . S
C639 C637 1.433 . S
C639 N642 1.384 . S
C640 H631 0.929 . S
C640 C632 1.378 . S
C640 C635 1.350 . S
C641 H628 0.929 . S
C641 C633 1.433 . S
C641 N643 1.384 . S
N642 C638 1.427 . S
N642 C639 1.384 . S
N643 C635 1.427 . S
N643 C641 1.384 . S
H644 C650 0.930 . S
H645 C654 0.930 . S
H646 C659 0.929 . S
H647 C657 0.929 . S
H648 C652 0.929 . S
H649 C658 0.929 . S
C650 H644 0.930 . S
C650 C651 1.367 . S
C650 C658 1.378 . S
C651 C650 1.367 . S
C651 C659 1.433 . S
C652 H648 0.929 . S
C652 C654 1.378 . S
C652 C656 1.350 . S
C653 C656 1.463 . S
C653 C658 1.350 . S
C653 N661 1.427 . S
C654 H645 0.930 . S
C654 C652 1.378 . S
C654 C655 1.367 . S
C655 C654 1.367 . S
C655 C657 1.433 . S
C656 C652 1.350 . S
C656 C653 1.463 . S
C656 N660 1.427 . S
C657 H647 0.929 . S
C657 C655 1.433 . S
C657 N660 1.384 . S
C658 H649 0.929 . S
C658 C650 1.378 . S
C658 C653 1.350 . S
C659 H646 0.929 . S
C659 C651 1.433 . S
C659 N661 1.384 . S
N660 C656 1.427 . S
N660 C657 1.384 . S
N661 C653 1.427 . S
N661 C659 1.384 . S
H662 C668 0.930 . S
H663 C672 0.930 . S
H664 C677 0.929 . S
H665 C675 0.929 . S
H666 C670 0.929 . S
H667 C676 0.929 . S
C668 H662 0.930 . S
C668 C669 1.367 1_545 S
C668 C676 1.378 . S
C669 C668 1.367 1_565 S
C669 C677 1.433 . S
C670 H666 0.929 . S
C670 C672 1.378 . S
C670 C674 1.350 1_565 S
C671 C674 1.463 1_455 S
C671 C676 1.350 . S
C671 N679 1.427 1_545 S
C672 H663 0.930 . S
C672 C670 1.378 . S
C672 C673 1.367 1_565 S
C673 C672 1.367 1_545 S
C673 C675 1.433 . S
C674 C670 1.350 1_545 S
C674 C671 1.463 1_655 S
C674 N678 1.427 . S
C675 H665 0.929 . S
C675 C673 1.433 . S
C675 N678 1.384 . S
C676 H667 0.929 . S
C676 C668 1.378 . S
C676 C671 1.350 . S
C677 H664 0.929 . S
C677 C669 1.433 . S
C677 N679 1.384 . S
N678 C674 1.427 . S
N678 C675 1.384 . S
N679 C671 1.427 1_565 S
N679 C677 1.384 . S
H680 C686 0.930 . S
H681 C690 0.930 . S
H682 C695 0.929 . S
H683 C693 0.929 . S
H684 C688 0.929 . S
H685 C694 0.929 . S
C686 H680 0.930 . S
C686 C687 1.367 . S
C686 C694 1.378 . S
C687 C686 1.367 . S
C687 C695 1.433 . S
C688 H684 0.929 . S
C688 C690 1.378 . S
C688 C692 1.350 . S
C689 C692 1.463 . S
C689 C694 1.350 . S
C689 N697 1.427 . S
C690 H681 0.930 . S
C690 C688 1.378 . S
C690 C691 1.367 . S
C691 C690 1.367 . S
C691 C693 1.433 . S
C692 C688 1.350 . S
C692 C689 1.463 . S
C692 N696 1.427 . S
C693 H683 0.929 . S
C693 C691 1.433 . S
C693 N696 1.384 . S
C694 H685 0.929 . S
C694 C686 1.378 . S
C694 C689 1.350 . S
C695 H682 0.929 . S
C695 C687 1.433 . S
C695 N697 1.384 . S
N696 C692 1.427 . S
N696 C693 1.384 . S
N697 C689 1.427 . S
N697 C695 1.384 . S
H698 C704 0.930 . S
H699 C708 0.930 . S
H700 C713 0.929 . S
H701 C711 0.929 . S
H702 C706 0.929 . S
H703 C712 0.929 . S
C704 H698 0.930 . S
C704 C705 1.367 . S
C704 C712 1.378 . S
C705 C704 1.367 . S
C705 C713 1.433 . S
C706 H702 0.929 . S
C706 C708 1.378 . S
C706 C710 1.350 . S
C707 C710 1.463 . S
C707 C712 1.350 . S
C707 N715 1.427 . S
C708 H699 0.930 . S
C708 C706 1.378 . S
C708 C709 1.367 . S
C709 C708 1.367 . S
C709 C711 1.433 . S
C710 C706 1.350 . S
C710 C707 1.463 . S
C710 N714 1.427 . S
C711 H701 0.929 . S
C711 C709 1.433 . S
C711 N714 1.384 . S
C712 H703 0.929 . S
C712 C704 1.378 . S
C712 C707 1.350 . S
C713 H700 0.929 . S
C713 C705 1.433 . S
C713 N715 1.384 . S
N714 C710 1.427 . S
N714 C711 1.384 . S
N715 C707 1.427 . S
N715 C713 1.384 . S
H716 C722 0.930 . S
H717 C726 0.930 . S
H718 C731 0.929 . S
H719 C729 0.929 . S
H720 C724 0.929 . S
H721 C730 0.929 . S
C722 H716 0.930 . S
C722 C723 1.367 . S
C722 C730 1.378 . S
C723 C722 1.367 . S
C723 C731 1.433 . S
C724 H720 0.929 . S
C724 C726 1.378 . S
C724 C728 1.350 . S
C725 C728 1.463 . S
C725 C730 1.350 . S
C725 N733 1.427 . S
C726 H717 0.930 . S
C726 C724 1.378 . S
C726 C727 1.367 . S
C727 C726 1.367 . S
C727 C729 1.433 . S
C728 C724 1.350 . S
C728 C725 1.463 . S
C728 N732 1.427 . S
C729 H719 0.929 . S
C729 C727 1.433 . S
C729 N732 1.384 . S
C730 H721 0.929 . S
C730 C722 1.378 . S
C730 C725 1.350 . S
C731 H718 0.929 . S
C731 C723 1.433 . S
C731 N733 1.384 . S
N732 C728 1.427 . S
N732 C729 1.384 . S
N733 C725 1.427 . S
N733 C731 1.384 . S
H734 C740 0.930 . S
H735 C744 0.930 . S
H736 C749 0.929 . S
H737 C747 0.929 . S
H738 C742 0.929 . S
H739 C748 0.929 . S
C740 H734 0.930 . S
C740 C741 1.367 . S
C740 C748 1.378 . S
C741 C740 1.367 . S
C741 C749 1.433 1_565 S
C742 H738 0.929 . S
C742 C744 1.378 . S
C742 C746 1.350 1_545 S
C743 C746 1.463 . S
C743 C748 1.350 . S
C743 N751 1.427 1_565 S
C744 H735 0.930 . S
C744 C742 1.378 . S
C744 C745 1.367 1_545 S
C745 C744 1.367 1_565 S
C745 C747 1.433 . S
C746 C742 1.350 1_565 S
C746 C743 1.463 . S
C746 N750 1.427 . S
C747 H737 0.929 . S
C747 C745 1.433 . S
C747 N750 1.384 . S
C748 H739 0.929 . S
C748 C740 1.378 . S
C748 C743 1.350 . S
C749 H736 0.929 . S
C749 C741 1.433 1_545 S
C749 N751 1.384 . S
N750 C746 1.427 . S
N750 C747 1.384 . S
N751 C743 1.427 1_545 S
N751 C749 1.384 . S
H752 C758 0.930 . S
H753 C762 0.930 . S
H754 C767 0.929 . S
H755 C765 0.929 . S
H756 C760 0.929 . S
H757 C766 0.929 . S
C758 H752 0.930 . S
C758 C759 1.367 . S
C758 C766 1.378 . S
C759 C758 1.367 . S
C759 C767 1.433 . S
C760 H756 0.929 . S
C760 C762 1.378 . S
C760 C764 1.350 . S
C761 C764 1.463 . S
C761 C766 1.350 . S
C761 N769 1.427 . S
C762 H753 0.930 . S
C762 C760 1.378 . S
C762 C763 1.367 . S
C763 C762 1.367 . S
C763 C765 1.433 . S
C764 C760 1.350 . S
C764 C761 1.463 . S
C764 N768 1.427 . S
C765 H755 0.929 . S
C765 C763 1.433 . S
C765 N768 1.384 . S
C766 H757 0.929 . S
C766 C758 1.378 . S
C766 C761 1.350 . S
C767 H754 0.929 . S
C767 C759 1.433 . S
C767 N769 1.384 . S
N768 C764 1.427 . S
N768 C765 1.384 . S
N769 C761 1.427 . S
N769 C767 1.384 . S
H770 C776 0.930 . S
H771 C780 0.930 . S
H772 C785 0.929 . S
H773 C783 0.929 . S
H774 C778 0.929 . S
H775 C784 0.929 . S
C776 H770 0.930 . S
C776 C777 1.367 . S
C776 C784 1.378 . S
C777 C776 1.367 . S
C777 C785 1.433 . S
C778 H774 0.929 . S
C778 C780 1.378 . S
C778 C782 1.350 . S
C779 C782 1.463 . S
C779 C784 1.350 . S
C779 N787 1.427 . S
C780 H771 0.930 . S
C780 C778 1.378 . S
C780 C781 1.367 . S
C781 C780 1.367 . S
C781 C783 1.433 . S
C782 C778 1.350 . S
C782 C779 1.463 . S
C782 N786 1.427 . S
C783 H773 0.929 . S
C783 C781 1.433 . S
C783 N786 1.384 . S
C784 H775 0.929 . S
C784 C776 1.378 . S
C784 C779 1.350 . S
C785 H772 0.929 . S
C785 C777 1.433 . S
C785 N787 1.384 . S
N786 C782 1.427 . S
N786 C783 1.384 . S
N787 C779 1.427 . S
N787 C785 1.384 . S
H788 C794 0.930 . S
H789 C798 0.930 . S
H790 C803 0.929 . S
H791 C801 0.929 . S
H792 C796 0.929 . S
H793 C802 0.929 . S
C794 H788 0.930 . S
C794 C795 1.367 . S
C794 C802 1.378 . S
C795 C794 1.367 . S
C795 C803 1.433 . S
C796 H792 0.929 . S
C796 C798 1.378 . S
C796 C800 1.350 . S
C797 C800 1.463 . S
C797 C802 1.350 . S
C797 N805 1.427 . S
C798 H789 0.930 . S
C798 C796 1.378 . S
C798 C799 1.367 . S
C799 C798 1.367 . S
C799 C801 1.433 . S
C800 C796 1.350 . S
C800 C797 1.463 . S
C800 N804 1.427 . S
C801 H791 0.929 . S
C801 C799 1.433 . S
C801 N804 1.384 . S
C802 H793 0.929 . S
C802 C794 1.378 . S
C802 C797 1.350 . S
C803 H790 0.929 . S
C803 C795 1.433 . S
C803 N805 1.384 . S
N804 C800 1.427 . S
N804 C801 1.384 . S
N805 C797 1.427 . S
N805 C803 1.384 . S
H806 C812 0.930 . S
H807 C816 0.930 . S
H808 C821 0.929 . S
H809 C819 0.929 . S
H810 C814 0.929 . S
H811 C820 0.929 . S
C812 H806 0.930 . S
C812 C813 1.367 . S
C812 C820 1.378 . S
C813 C812 1.367 . S
C813 C821 1.433 . S
C814 H810 0.929 . S
C814 C816 1.378 . S
C814 C818 1.350 . S
C815 C818 1.463 . S
C815 C820 1.350 . S
C815 N823 1.427 . S
C816 H807 0.930 . S
C816 C814 1.378 . S
C816 C817 1.367 . S
C817 C816 1.367 . S
C817 C819 1.433 . S
C818 C814 1.350 . S
C818 C815 1.463 . S
C818 N822 1.427 . S
C819 H809 0.929 . S
C819 C817 1.433 . S
C819 N822 1.384 . S
C820 H811 0.929 . S
C820 C812 1.378 . S
C820 C815 1.350 . S
C821 H808 0.929 . S
C821 C813 1.433 . S
C821 N823 1.384 . S
N822 C818 1.427 . S
N822 C819 1.384 . S
N823 C815 1.427 . S
N823 C821 1.384 . S
H824 C830 0.930 . S
H825 C834 0.930 . S
H826 C839 0.929 . S
H827 C837 0.929 . S
H828 C832 0.929 . S
H829 C838 0.929 . S
C830 H824 0.930 . S
C830 C831 1.367 . S
C830 C838 1.378 . S
C831 C830 1.367 . S
C831 C839 1.433 . S
C832 H828 0.929 . S
C832 C834 1.378 . S
C832 C836 1.350 . S
C833 C836 1.463 . S
C833 C838 1.350 . S
C833 N841 1.427 . S
C834 H825 0.930 . S
C834 C832 1.378 . S
C834 C835 1.367 . S
C835 C834 1.367 . S
C835 C837 1.433 . S
C836 C832 1.350 . S
C836 C833 1.463 . S
C836 N840 1.427 . S
C837 H827 0.929 . S
C837 C835 1.433 . S
C837 N840 1.384 . S
C838 H829 0.929 . S
C838 C830 1.378 . S
C838 C833 1.350 . S
C839 H826 0.929 . S
C839 C831 1.433 . S
C839 N841 1.384 . S
N840 C836 1.427 . S
N840 C837 1.384 . S
N841 C833 1.427 . S
N841 C839 1.384 . S
H842 C848 0.930 . S
H843 C852 0.930 . S
H844 C857 0.929 . S
H845 C855 0.929 . S
H846 C850 0.929 . S
H847 C856 0.929 . S
C848 H842 0.930 . S
C848 C849 1.367 . S
C848 C856 1.378 . S
C849 C848 1.367 . S
C849 C857 1.433 . S
C850 H846 0.929 . S
C850 C852 1.378 . S
C850 C854 1.350 . S
C851 C854 1.463 . S
C851 C856 1.350 . S
C851 N859 1.427 . S
C852 H843 0.930 . S
C852 C850 1.378 . S
C852 C853 1.367 . S
C853 C852 1.367 . S
C853 C855 1.433 . S
C854 C850 1.350 . S
C854 C851 1.463 . S
C854 N858 1.427 . S
C855 H845 0.929 . S
C855 C853 1.433 . S
C855 N858 1.384 . S
C856 H847 0.929 . S
C856 C848 1.378 . S
C856 C851 1.350 . S
C857 H844 0.929 . S
C857 C849 1.433 . S
C857 N859 1.384 . S
N858 C854 1.427 . S
N858 C855 1.384 . S
N859 C851 1.427 . S
N859 C857 1.384 . S
H860 C866 0.930 . S
H861 C870 0.930 . S
H862 C875 0.929 . S
H863 C873 0.929 . S
H864 C868 0.929 . S
H865 C874 0.929 . S
C866 H860 0.930 . S
C866 C867 1.367 . S
C866 C874 1.378 . S
C867 C866 1.367 . S
C867 C875 1.433 . S
C868 H864 0.929 . S
C868 C870 1.378 . S
C868 C872 1.350 . S
C869 C872 1.463 . S
C869 C874 1.350 . S
C869 N877 1.427 . S
C870 H861 0.930 . S
C870 C868 1.378 . S
C870 C871 1.367 . S
C871 C870 1.367 . S
C871 C873 1.433 . S
C872 C868 1.350 . S
C872 C869 1.463 . S
C872 N876 1.427 . S
C873 H863 0.929 . S
C873 C871 1.433 . S
C873 N876 1.384 . S
C874 H865 0.929 . S
C874 C866 1.378 . S
C874 C869 1.350 . S
C875 H862 0.929 . S
C875 C867 1.433 . S
C875 N877 1.384 . S
N876 C872 1.427 . S
N876 C873 1.384 . S
N877 C869 1.427 . S
N877 C875 1.384 . S
H878 C884 0.930 . S
H879 C888 0.930 . S
H880 C893 0.929 . S
H881 C891 0.929 . S
H882 C886 0.929 . S
H883 C892 0.929 . S
C884 H878 0.930 . S
C884 C885 1.367 . S
C884 C892 1.378 . S
C885 C884 1.367 . S
C885 C893 1.433 1_655 S
C886 H882 0.929 . S
C886 C888 1.378 . S
C886 C890 1.350 . S
C887 C890 1.463 . S
C887 C892 1.350 1_455 S
C887 N895 1.427 . S
C888 H879 0.930 . S
C888 C886 1.378 . S
C888 C889 1.367 . S
C889 C888 1.367 . S
C889 C891 1.433 1_455 S
C890 C886 1.350 . S
C890 C887 1.463 . S
C890 N894 1.427 1_455 S
C891 H881 0.929 . S
C891 C889 1.433 1_655 S
C891 N894 1.384 . S
C892 H883 0.929 . S
C892 C884 1.378 . S
C892 C887 1.350 1_655 S
C893 H880 0.929 . S
C893 C885 1.433 1_455 S
C893 N895 1.384 . S
N894 C890 1.427 1_655 S
N894 C891 1.384 . S
N895 C887 1.427 . S
N895 C893 1.384 . S
H896 C902 0.930 . S
H897 C906 0.930 . S
H898 C911 0.929 . S
H899 C909 0.929 . S
H900 C904 0.929 . S
H901 C910 0.929 . S
C902 H896 0.930 . S
C902 C903 1.367 . S
C902 C910 1.378 . S
C903 C902 1.367 . S
C903 C911 1.433 . S
C904 H900 0.929 . S
C904 C906 1.378 . S
C904 C908 1.350 . S
C905 C908 1.463 . S
C905 C910 1.350 . S
C905 N913 1.427 . S
C906 H897 0.930 . S
C906 C904 1.378 . S
C906 C907 1.367 . S
C907 C906 1.367 . S
C907 C909 1.433 . S
C908 C904 1.350 . S
C908 C905 1.463 . S
C908 N912 1.427 . S
C909 H899 0.929 . S
C909 C907 1.433 . S
C909 N912 1.384 . S
C910 H901 0.929 . S
C910 C902 1.378 . S
C910 C905 1.350 . S
C911 H898 0.929 . S
C911 C903 1.433 . S
C911 N913 1.384 . S
N912 C908 1.427 . S
N912 C909 1.384 . S
N913 C905 1.427 . S
N913 C911 1.384 . S
H914 C920 0.930 . S
H915 C924 0.930 . S
H916 C929 0.929 . S
H917 C927 0.929 . S
H918 C922 0.929 . S
H919 C928 0.929 . S
C920 H914 0.930 . S
C920 C921 1.367 . S
C920 C928 1.378 . S
C921 C920 1.367 . S
C921 C929 1.433 . S
C922 H918 0.929 . S
C922 C924 1.378 . S
C922 C926 1.350 . S
C923 C926 1.463 . S
C923 C928 1.350 . S
C923 N931 1.427 . S
C924 H915 0.930 . S
C924 C922 1.378 . S
C924 C925 1.367 . S
C925 C924 1.367 . S
C925 C927 1.433 . S
C926 C922 1.350 . S
C926 C923 1.463 . S
C926 N930 1.427 . S
C927 H917 0.929 . S
C927 C925 1.433 . S
C927 N930 1.384 . S
C928 H919 0.929 . S
C928 C920 1.378 . S
C928 C923 1.350 . S
C929 H916 0.929 . S
C929 C921 1.433 . S
C929 N931 1.384 . S
N930 C926 1.427 . S
N930 C927 1.384 . S
N931 C923 1.427 . S
N931 C929 1.384 . S
H932 C938 0.930 . S
H933 C942 0.930 . S
H934 C947 0.929 . S
H935 C945 0.929 . S
H936 C940 0.929 1_556 S
H937 C946 0.929 . S
C938 H932 0.930 . S
C938 C939 1.367 1_564 S
C938 C946 1.378 . S
C939 C938 1.367 1_546 S
C939 C947 1.433 . S
C940 H936 0.929 1_554 S
C940 C942 1.378 . S
C940 C944 1.350 . S
C941 C944 1.463 . S
C941 C946 1.350 . S
C941 N949 1.427 1_554 S
C942 H933 0.930 . S
C942 C940 1.378 . S
C942 C943 1.367 . S
C943 C942 1.367 . S
C943 C945 1.433 . S
C944 C940 1.350 . S
C944 C941 1.463 . S
C944 N948 1.427 . S
C945 H935 0.929 . S
C945 C943 1.433 . S
C945 N948 1.384 . S
C946 H937 0.929 . S
C946 C938 1.378 . S
C946 C941 1.350 . S
C947 H934 0.929 . S
C947 C939 1.433 . S
C947 N949 1.384 1_545 S
N948 C944 1.427 . S
N948 C945 1.384 . S
N949 C941 1.427 1_556 S
N949 C947 1.384 1_565 S
H950 C956 0.930 . S
H951 C960 0.930 . S
H952 C965 0.929 . S
H953 C963 0.929 . S
H954 C958 0.929 . S
H955 C964 0.929 . S
C956 H950 0.930 . S
C956 C957 1.367 . S
C956 C964 1.378 . S
C957 C956 1.367 . S
C957 C965 1.433 . S
C958 H954 0.929 . S
C958 C960 1.378 . S
C958 C962 1.350 . S
C959 C962 1.463 . S
C959 C964 1.350 . S
C959 N967 1.427 . S
C960 H951 0.930 . S
C960 C958 1.378 . S
C960 C961 1.367 . S
C961 C960 1.367 . S
C961 C963 1.433 . S
C962 C958 1.350 . S
C962 C959 1.463 . S
C962 N966 1.427 . S
C963 H953 0.929 . S
C963 C961 1.433 . S
C963 N966 1.384 . S
C964 H955 0.929 . S
C964 C956 1.378 . S
C964 C959 1.350 . S
C965 H952 0.929 . S
C965 C957 1.433 . S
C965 N967 1.384 . S
N966 C962 1.427 . S
N966 C963 1.384 . S
N967 C959 1.427 . S
N967 C965 1.384 . S
H968 C974 0.930 . S
H969 C978 0.930 . S
H970 C983 0.929 . S
H971 C981 0.929 . S
H972 C976 0.929 . S
H973 C982 0.929 . S
C974 H968 0.930 . S
C974 C975 1.367 . S
C974 C982 1.378 . S
C975 C974 1.367 . S
C975 C983 1.433 . S
C976 H972 0.929 . S
C976 C978 1.378 . S
C976 C980 1.350 . S
C977 C980 1.463 . S
C977 C982 1.350 . S
C977 N985 1.427 . S
C978 H969 0.930 . S
C978 C976 1.378 . S
C978 C979 1.367 . S
C979 C978 1.367 . S
C979 C981 1.433 . S
C980 C976 1.350 . S
C980 C977 1.463 . S
C980 N984 1.427 . S
C981 H971 0.929 . S
C981 C979 1.433 . S
C981 N984 1.384 . S
C982 H973 0.929 . S
C982 C974 1.378 . S
C982 C977 1.350 . S
C983 H970 0.929 . S
C983 C975 1.433 . S
C983 N985 1.384 . S
N984 C980 1.427 . S
N984 C981 1.384 . S
N985 C977 1.427 . S
N985 C983 1.384 . S
H986 C992 0.930 . S
H987 C996 0.930 . S
H988 C1001 0.929 . S
H989 C999 0.929 . S
H990 C994 0.929 . S
H991 C1000 0.929 . S
C992 H986 0.930 . S
C992 C993 1.367 . S
C992 C1000 1.378 . S
C993 C992 1.367 . S
C993 C1001 1.433 . S
C994 H990 0.929 . S
C994 C996 1.378 . S
C994 C998 1.350 . S
C995 C998 1.463 . S
C995 C1000 1.350 . S
C995 N1003 1.427 . S
C996 H987 0.930 . S
C996 C994 1.378 . S
C996 C997 1.367 . S
C997 C996 1.367 . S
C997 C999 1.433 . S
C998 C994 1.350 . S
C998 C995 1.463 . S
C998 N1002 1.427 . S
C999 H989 0.929 . S
C999 C997 1.433 . S
C999 N1002 1.384 . S
C1000 H991 0.929 . S
C1000 C992 1.378 . S
C1000 C995 1.350 . S
C1001 H988 0.929 . S
C1001 C993 1.433 . S
C1001 N1003 1.384 . S
N1002 C998 1.427 . S
N1002 C999 1.384 . S
N1003 C995 1.427 . S
N1003 C1001 1.384 . S
H1004 C1010 0.930 . S
H1005 C1014 0.930 . S
H1006 C1019 0.929 . S
H1007 C1017 0.929 . S
H1008 C1012 0.929 . S
H1009 C1018 0.929 . S
C1010 H1004 0.930 . S
C1010 C1011 1.367 . S
C1010 C1018 1.378 . S
C1011 C1010 1.367 . S
C1011 C1019 1.433 . S
C1012 H1008 0.929 . S
C1012 C1014 1.378 . S
C1012 C1016 1.350 . S
C1013 C1016 1.463 . S
C1013 C1018 1.350 . S
C1013 N1021 1.427 . S
C1014 H1005 0.930 . S
C1014 C1012 1.378 . S
C1014 C1015 1.367 . S
C1015 C1014 1.367 . S
C1015 C1017 1.433 . S
C1016 C1012 1.350 . S
C1016 C1013 1.463 . S
C1016 N1020 1.427 . S
C1017 H1007 0.929 . S
C1017 C1015 1.433 . S
C1017 N1020 1.384 . S
C1018 H1009 0.929 . S
C1018 C1010 1.378 . S
C1018 C1013 1.350 . S
C1019 H1006 0.929 . S
C1019 C1011 1.433 . S
C1019 N1021 1.384 . S
N1020 C1016 1.427 . S
N1020 C1017 1.384 . S
N1021 C1013 1.427 . S
N1021 C1019 1.384 . S
H1022 C1028 0.930 . S
H1023 C1032 0.930 . S
H1024 C1037 0.929 . S
H1025 C1035 0.929 . S
H1026 C1030 0.929 . S
H1027 C1036 0.929 . S
C1028 H1022 0.930 . S
C1028 C1029 1.367 . S
C1028 C1036 1.378 . S
C1029 C1028 1.367 . S
C1029 C1037 1.433 . S
C1030 H1026 0.929 . S
C1030 C1032 1.378 . S
C1030 C1034 1.350 . S
C1031 C1034 1.463 . S
C1031 C1036 1.350 . S
C1031 N1039 1.427 . S
C1032 H1023 0.930 . S
C1032 C1030 1.378 . S
C1032 C1033 1.367 . S
C1033 C1032 1.367 . S
C1033 C1035 1.433 . S
C1034 C1030 1.350 . S
C1034 C1031 1.463 . S
C1034 N1038 1.427 . S
C1035 H1025 0.929 . S
C1035 C1033 1.433 . S
C1035 N1038 1.384 . S
C1036 H1027 0.929 . S
C1036 C1028 1.378 . S
C1036 C1031 1.350 . S
C1037 H1024 0.929 . S
C1037 C1029 1.433 . S
C1037 N1039 1.384 . S
N1038 C1034 1.427 . S
N1038 C1035 1.384 . S
N1039 C1031 1.427 . S
N1039 C1037 1.384 . S
H1040 C1046 0.930 . S
H1041 C1050 0.930 . S
H1042 C1055 0.929 . S
H1043 C1053 0.929 . S
H1044 C1048 0.929 . S
H1045 C1054 0.929 . S
C1046 H1040 0.930 . S
C1046 C1047 1.367 . S
C1046 C1054 1.378 . S
C1047 C1046 1.367 . S
C1047 C1055 1.433 . S
C1048 H1044 0.929 . S
C1048 C1050 1.378 . S
C1048 C1052 1.350 . S
C1049 C1052 1.463 . S
C1049 C1054 1.350 . S
C1049 N1057 1.427 . S
C1050 H1041 0.930 . S
C1050 C1048 1.378 . S
C1050 C1051 1.367 . S
C1051 C1050 1.367 . S
C1051 C1053 1.433 . S
C1052 C1048 1.350 . S
C1052 C1049 1.463 . S
C1052 N1056 1.427 . S
C1053 H1043 0.929 . S
C1053 C1051 1.433 . S
C1053 N1056 1.384 . S
C1054 H1045 0.929 . S
C1054 C1046 1.378 . S
C1054 C1049 1.350 . S
C1055 H1042 0.929 . S
C1055 C1047 1.433 . S
C1055 N1057 1.384 . S
N1056 C1052 1.427 . S
N1056 C1053 1.384 . S
N1057 C1049 1.427 . S
N1057 C1055 1.384 . S
H1058 C1064 0.930 . S
H1059 C1068 0.930 . S
H1060 C1073 0.929 . S
H1061 C1071 0.929 . S
H1062 C1066 0.929 . S
H1063 C1072 0.915 1_565 S
C1064 H1058 0.930 . S
C1064 C1065 1.367 . S
C1064 C1072 1.378 . S
C1065 C1064 1.367 . S
C1065 C1073 1.433 . S
C1066 H1062 0.929 . S
C1066 C1068 1.378 . S
C1066 C1070 1.350 . S
C1067 C1070 1.463 . S
C1067 C1072 1.350 . S
C1067 N1075 1.427 . S
C1068 H1059 0.930 . S
C1068 C1066 1.378 . S
C1068 C1069 1.367 . S
C1069 C1068 1.367 . S
C1069 C1071 1.433 1_545 S
C1070 C1066 1.350 . S
C1070 C1067 1.463 . S
C1070 N1074 1.427 . S
C1071 H1061 0.929 . S
C1071 C1069 1.433 1_565 S
C1071 N1074 1.384 1_565 S
C1072 H1063 0.915 1_545 S
C1072 C1064 1.378 . S
C1072 C1067 1.350 . S
C1073 H1060 0.929 . S
C1073 C1065 1.433 . S
C1073 N1075 1.384 . S
N1074 C1070 1.427 . S
N1074 C1071 1.384 1_545 S
N1075 C1067 1.427 . S
N1075 C1073 1.384 . S
H1076 C1082 0.930 . S
H1077 C1086 0.930 . S
H1078 C1091 0.929 . S
H1079 C1089 0.929 . S
H1080 C1084 0.929 . S
H1081 C1090 0.929 . S
C1082 H1076 0.930 . S
C1082 C1083 1.367 . S
C1082 C1090 1.378 . S
C1083 C1082 1.367 . S
C1083 C1091 1.433 . S
C1084 H1080 0.929 . S
C1084 C1086 1.378 . S
C1084 C1088 1.350 . S
C1085 C1088 1.463 . S
C1085 C1090 1.350 . S
C1085 N1093 1.427 . S
C1086 H1077 0.930 . S
C1086 C1084 1.378 . S
C1086 C1087 1.367 . S
C1087 C1086 1.367 . S
C1087 C1089 1.433 . S
C1088 C1084 1.350 . S
C1088 C1085 1.463 . S
C1088 N1092 1.427 . S
C1089 H1079 0.929 . S
C1089 C1087 1.433 . S
C1089 N1092 1.384 . S
C1090 H1081 0.929 . S
C1090 C1082 1.378 . S
C1090 C1085 1.350 . S
C1091 H1078 0.929 . S
C1091 C1083 1.433 . S
C1091 N1093 1.384 . S
N1092 C1088 1.427 . S
N1092 C1089 1.384 . S
N1093 C1085 1.427 . S
N1093 C1091 1.384 . S
H1094 C1100 0.930 . S
H1095 C1104 0.930 . S
H1096 C1109 0.929 . S
H1097 C1107 0.929 . S
H1098 C1102 0.929 . S
H1099 C1108 0.929 . S
C1100 H1094 0.930 . S
C1100 C1101 1.367 . S
C1100 C1108 1.378 . S
C1101 C1100 1.367 . S
C1101 C1109 1.433 . S
C1102 H1098 0.929 . S
C1102 C1104 1.378 . S
C1102 C1106 1.350 . S
C1103 C1106 1.463 . S
C1103 C1108 1.350 . S
C1103 N1111 1.427 . S
C1104 H1095 0.930 . S
C1104 C1102 1.378 . S
C1104 C1105 1.367 . S
C1105 C1104 1.367 . S
C1105 C1107 1.433 . S
C1106 C1102 1.350 . S
C1106 C1103 1.463 . S
C1106 N1110 1.427 . S
C1107 H1097 0.929 . S
C1107 C1105 1.433 . S
C1107 N1110 1.384 . S
C1108 H1099 0.929 . S
C1108 C1100 1.378 . S
C1108 C1103 1.350 . S
C1109 H1096 0.929 . S
C1109 C1101 1.433 . S
C1109 N1111 1.384 . S
N1110 C1106 1.427 . S
N1110 C1107 1.384 . S
N1111 C1103 1.427 . S
N1111 C1109 1.384 . S
H1112 C1118 0.930 . S
H1113 C1122 0.930 . S
H1114 C1127 0.929 . S
H1115 C1125 0.929 . S
H1116 C1120 0.929 . S
H1117 C1126 0.929 . S
C1118 H1112 0.930 . S
C1118 C1119 1.367 . S
C1118 C1126 1.378 . S
C1119 C1118 1.367 . S
C1119 C1127 1.433 . S
C1120 H1116 0.929 . S
C1120 C1122 1.378 . S
C1120 C1124 1.350 . S
C1121 C1124 1.463 . S
C1121 C1126 1.350 . S
C1121 N1129 1.427 . S
C1122 H1113 0.930 . S
C1122 C1120 1.378 . S
C1122 C1123 1.367 . S
C1123 C1122 1.367 . S
C1123 C1125 1.433 . S
C1124 C1120 1.350 . S
C1124 C1121 1.463 . S
C1124 N1128 1.427 . S
C1125 H1115 0.929 . S
C1125 C1123 1.433 . S
C1125 N1128 1.384 . S
C1126 H1117 0.929 . S
C1126 C1118 1.378 . S
C1126 C1121 1.350 . S
C1127 H1114 0.929 . S
C1127 C1119 1.433 . S
C1127 N1129 1.384 . S
N1128 C1124 1.427 . S
N1128 C1125 1.384 . S
N1129 C1121 1.427 . S
N1129 C1127 1.384 . S
H1130 C1136 0.930 . S
H1131 C1140 0.930 . S
H1132 C1145 0.929 . S
H1133 C1143 0.929 . S
H1134 C1138 0.929 . S
H1135 C1144 0.963 . S
C1136 H1130 0.930 . S
C1136 C1137 1.367 . S
C1136 C1144 1.359 1_455 S
C1137 C1136 1.367 . S
C1137 C1145 1.433 . S
C1138 H1134 0.929 . S
C1138 C1140 1.378 1_455 S
C1138 C1142 1.350 1_455 S
C1139 C1142 1.463 1_455 S
C1139 C1144 1.335 1_455 S
C1139 N1147 1.427 . S
C1140 H1131 0.930 . S
C1140 C1138 1.378 1_655 S
C1140 C1141 1.367 . S
C1141 C1140 1.367 . S
C1141 C1143 1.433 . S
C1142 C1138 1.350 1_655 S
C1142 C1139 1.463 1_655 S
C1142 N1146 1.427 . S
C1143 H1133 0.929 . S
C1143 C1141 1.433 . S
C1143 N1146 1.384 . S
C1144 H1135 0.963 . S
C1144 C1136 1.359 1_655 S
C1144 C1139 1.335 1_655 S
C1145 H1132 0.929 . S
C1145 C1137 1.433 . S
C1145 N1147 1.384 . S
N1146 C1142 1.427 . S
N1146 C1143 1.384 . S
N1147 C1139 1.427 . S
N1147 C1145 1.384 . S
H1148 C1154 0.930 . S
H1149 C1158 0.930 . S
H1150 C1163 0.929 . S
H1151 C1161 0.929 . S
H1152 C1156 0.929 . S
H1153 C1162 0.929 . S
C1154 H1148 0.930 . S
C1154 C1155 1.367 . S
C1154 C1162 1.378 . S
C1155 C1154 1.367 . S
C1155 C1163 1.433 . S
C1156 H1152 0.929 . S
C1156 C1158 1.378 . S
C1156 C1160 1.350 . S
C1157 C1160 1.463 . S
C1157 C1162 1.350 . S
C1157 N1165 1.427 . S
C1158 H1149 0.930 . S
C1158 C1156 1.378 . S
C1158 C1159 1.367 . S
C1159 C1158 1.367 . S
C1159 C1161 1.433 . S
C1160 C1156 1.350 . S
C1160 C1157 1.463 . S
C1160 N1164 1.427 . S
C1161 H1151 0.929 . S
C1161 C1159 1.433 . S
C1161 N1164 1.384 . S
C1162 H1153 0.929 . S
C1162 C1154 1.378 . S
C1162 C1157 1.350 . S
C1163 H1150 0.929 . S
C1163 C1155 1.433 . S
C1163 N1165 1.384 . S
N1164 C1160 1.427 . S
N1164 C1161 1.384 . S
N1165 C1157 1.427 . S
N1165 C1163 1.384 . S
H1166 C1172 0.930 . S
H1167 C1176 0.930 . S
H1168 C1181 0.929 . S
H1169 C1179 0.929 . S
H1170 C1174 0.929 . S
H1171 C1180 0.929 . S
C1172 H1166 0.930 . S
C1172 C1173 1.367 . S
C1172 C1180 1.378 . S
C1173 C1172 1.367 . S
C1173 C1181 1.433 . S
C1174 H1170 0.929 . S
C1174 C1176 1.378 . S
C1174 C1178 1.350 . S
C1175 C1178 1.463 . S
C1175 C1180 1.350 . S
C1175 N1183 1.427 . S
C1176 H1167 0.930 . S
C1176 C1174 1.378 . S
C1176 C1177 1.367 . S
C1177 C1176 1.367 . S
C1177 C1179 1.433 . S
C1178 C1174 1.350 . S
C1178 C1175 1.463 . S
C1178 N1182 1.427 . S
C1179 H1169 0.929 . S
C1179 C1177 1.433 . S
C1179 N1182 1.384 . S
C1180 H1171 0.929 . S
C1180 C1172 1.378 . S
C1180 C1175 1.350 . S
C1181 H1168 0.929 . S
C1181 C1173 1.433 . S
C1181 N1183 1.384 . S
N1182 C1178 1.427 . S
N1182 C1179 1.384 . S
N1183 C1175 1.427 . S
N1183 C1181 1.384 . S
H1184 C1190 0.930 . S
H1185 C1194 0.930 . S
H1186 C1199 0.929 . S
H1187 C1197 0.929 . S
H1188 C1192 0.929 . S
H1189 C1198 0.929 . S
C1190 H1184 0.930 . S
C1190 C1191 1.367 . S
C1190 C1198 1.378 . S
C1191 C1190 1.367 . S
C1191 C1199 1.433 . S
C1192 H1188 0.929 . S
C1192 C1194 1.378 . S
C1192 C1196 1.350 . S
C1193 C1196 1.463 . S
C1193 C1198 1.350 . S
C1193 N1201 1.427 . S
C1194 H1185 0.930 . S
C1194 C1192 1.378 . S
C1194 C1195 1.367 . S
C1195 C1194 1.367 . S
C1195 C1197 1.433 . S
C1196 C1192 1.350 . S
C1196 C1193 1.463 . S
C1196 N1200 1.427 . S
C1197 H1187 0.929 . S
C1197 C1195 1.433 . S
C1197 N1200 1.384 . S
C1198 H1189 0.929 . S
C1198 C1190 1.378 . S
C1198 C1193 1.350 . S
C1199 H1186 0.929 . S
C1199 C1191 1.433 . S
C1199 N1201 1.384 . S
N1200 C1196 1.427 . S
N1200 C1197 1.384 . S
N1201 C1193 1.427 . S
N1201 C1199 1.384 . S
H1202 C1208 0.930 . S
H1203 C1212 0.930 1_655 S
H1204 C1217 0.929 . S
H1205 C1215 0.929 . S
H1206 C1210 0.914 1_655 S
H1207 C1216 0.929 . S
C1208 H1202 0.930 . S
C1208 C1209 1.358 1_556 S
C1208 C1216 1.378 . S
C1209 C1208 1.358 1_554 S
C1209 C1217 1.438 1_455 S
C1210 H1206 0.914 1_455 S
C1210 C1212 1.384 . S
C1210 C1214 1.358 . S
C1211 C1214 1.463 . S
C1211 C1216 1.350 . S
C1211 N1219 1.427 1_455 S
C1212 H1203 0.930 1_455 S
C1212 C1210 1.384 . S
C1212 C1213 1.367 . S
C1213 C1212 1.367 . S
C1213 C1215 1.433 . S
C1214 C1210 1.358 . S
C1214 C1211 1.463 . S
C1214 N1218 1.427 . S
C1215 H1205 0.929 . S
C1215 C1213 1.433 . S
C1215 N1218 1.384 . S
C1216 H1207 0.929 . S
C1216 C1208 1.378 . S
C1216 C1211 1.350 . S
C1217 H1204 0.929 . S
C1217 C1209 1.438 1_655 S
C1217 N1219 1.384 1_554 S
N1218 C1214 1.427 . S
N1218 C1215 1.384 . S
N1219 C1211 1.427 1_655 S
N1219 C1217 1.384 1_556 S
H1220 C1226 0.930 . S
H1221 C1230 0.930 . S
H1222 C1235 0.929 . S
H1223 C1233 0.929 . S
H1224 C1228 0.929 . S
H1225 C1234 0.929 . S
C1226 H1220 0.930 . S
C1226 C1227 1.367 . S
C1226 C1234 1.378 . S
C1227 C1226 1.367 . S
C1227 C1235 1.433 . S
C1228 H1224 0.929 . S
C1228 C1230 1.378 . S
C1228 C1232 1.350 . S
C1229 C1232 1.463 . S
C1229 C1234 1.350 . S
C1229 N1237 1.427 . S
C1230 H1221 0.930 . S
C1230 C1228 1.378 . S
C1230 C1231 1.367 . S
C1231 C1230 1.367 . S
C1231 C1233 1.433 . S
C1232 C1228 1.350 . S
C1232 C1229 1.463 . S
C1232 N1236 1.427 . S
C1233 H1223 0.929 . S
C1233 C1231 1.433 . S
C1233 N1236 1.384 . S
C1234 H1225 0.929 . S
C1234 C1226 1.378 . S
C1234 C1229 1.350 . S
C1235 H1222 0.929 . S
C1235 C1227 1.433 . S
C1235 N1237 1.384 . S
N1236 C1232 1.427 . S
N1236 C1233 1.384 . S
N1237 C1229 1.427 . S
N1237 C1235 1.384 . S
H1238 C1244 0.930 . S
H1239 C1248 0.930 . S
H1240 C1253 0.929 . S
H1241 C1251 0.929 . S
H1242 C1246 0.929 . S
H1243 C1252 0.929 . S
C1244 H1238 0.930 . S
C1244 C1245 1.367 1_554 S
C1244 C1252 1.378 1_554 S
C1245 C1244 1.367 1_556 S
C1245 C1253 1.433 . S
C1246 H1242 0.929 . S
C1246 C1248 1.378 . S
C1246 C1250 1.350 . S
C1247 C1250 1.463 . S
C1247 C1252 1.350 . S
C1247 N1255 1.427 . S
C1248 H1239 0.930 . S
C1248 C1246 1.378 . S
C1248 C1249 1.367 . S
C1249 C1248 1.367 . S
C1249 C1251 1.433 . S
C1250 C1246 1.350 . S
C1250 C1247 1.463 . S
C1250 N1254 1.427 . S
C1251 H1241 0.929 . S
C1251 C1249 1.433 . S
C1251 N1254 1.384 . S
C1252 H1243 0.929 . S
C1252 C1244 1.378 1_556 S
C1252 C1247 1.350 . S
C1253 H1240 0.929 . S
C1253 C1245 1.433 . S
C1253 N1255 1.384 . S
N1254 C1250 1.427 . S
N1254 C1251 1.384 . S
N1255 C1247 1.427 . S
N1255 C1253 1.384 . S
H1256 C1262 0.930 . S
H1257 C1266 0.930 . S
H1258 C1271 0.929 . S
H1259 C1269 0.929 . S
H1260 C1264 0.929 . S
H1261 C1270 0.929 . S
C1262 H1256 0.930 . S
C1262 C1263 1.367 . S
C1262 C1270 1.378 . S
C1263 C1262 1.367 . S
C1263 C1271 1.433 . S
C1264 H1260 0.929 . S
C1264 C1266 1.378 . S
C1264 C1268 1.350 . S
C1265 C1268 1.463 . S
C1265 C1270 1.350 . S
C1265 N1273 1.427 . S
C1266 H1257 0.930 . S
C1266 C1264 1.378 . S
C1266 C1267 1.367 . S
C1267 C1266 1.367 . S
C1267 C1269 1.433 . S
C1268 C1264 1.350 . S
C1268 C1265 1.463 . S
C1268 N1272 1.427 . S
C1269 H1259 0.929 . S
C1269 C1267 1.433 . S
C1269 N1272 1.384 . S
C1270 H1261 0.929 . S
C1270 C1262 1.378 . S
C1270 C1265 1.350 . S
C1271 H1258 0.929 . S
C1271 C1263 1.433 . S
C1271 N1273 1.384 . S
N1272 C1268 1.427 . S
N1272 C1269 1.384 . S
N1273 C1265 1.427 . S
N1273 C1271 1.384 . S
H1274 C1280 0.930 . S
H1275 C1284 0.930 . S
H1276 C1289 0.929 . S
H1277 C1287 0.929 . S
H1278 C1282 0.929 . S
H1279 C1288 0.929 . S
C1280 H1274 0.930 . S
C1280 C1281 1.367 . S
C1280 C1288 1.378 . S
C1281 C1280 1.367 . S
C1281 C1289 1.433 . S
C1282 H1278 0.929 . S
C1282 C1284 1.378 . S
C1282 C1286 1.350 . S
C1283 C1286 1.463 . S
C1283 C1288 1.350 . S
C1283 N1291 1.427 . S
C1284 H1275 0.930 . S
C1284 C1282 1.378 . S
C1284 C1285 1.367 . S
C1285 C1284 1.367 . S
C1285 C1287 1.433 . S
C1286 C1282 1.350 . S
C1286 C1283 1.463 . S
C1286 N1290 1.427 . S
C1287 H1277 0.929 . S
C1287 C1285 1.433 . S
C1287 N1290 1.384 . S
C1288 H1279 0.929 . S
C1288 C1280 1.378 . S
C1288 C1283 1.350 . S
C1289 H1276 0.929 . S
C1289 C1281 1.433 . S
C1289 N1291 1.384 . S
N1290 C1286 1.427 . S
N1290 C1287 1.384 . S
N1291 C1283 1.427 . S
N1291 C1289 1.384 . S
H1292 C1298 0.930 . S
H1293 C1302 0.930 . S
H1294 C1307 0.929 . S
H1295 C1305 0.929 . S
H1296 C1300 0.929 . S
H1297 C1306 0.929 . S
C1298 H1292 0.930 . S
C1298 C1299 1.367 . S
C1298 C1306 1.378 . S
C1299 C1298 1.367 . S
C1299 C1307 1.433 . S
C1300 H1296 0.929 . S
C1300 C1302 1.378 . S
C1300 C1304 1.350 . S
C1301 C1304 1.463 . S
C1301 C1306 1.350 . S
C1301 N1309 1.427 . S
C1302 H1293 0.930 . S
C1302 C1300 1.378 . S
C1302 C1303 1.367 . S
C1303 C1302 1.367 . S
C1303 C1305 1.433 . S
C1304 C1300 1.350 . S
C1304 C1301 1.463 . S
C1304 N1308 1.427 . S
C1305 H1295 0.929 . S
C1305 C1303 1.433 . S
C1305 N1308 1.384 . S
C1306 H1297 0.929 . S
C1306 C1298 1.378 . S
C1306 C1301 1.350 . S
C1307 H1294 0.929 . S
C1307 C1299 1.433 . S
C1307 N1309 1.384 . S
N1308 C1304 1.427 . S
N1308 C1305 1.384 . S
N1309 C1301 1.427 . S
N1309 C1307 1.384 . S
H1310 C1316 0.930 1_556 S
H1311 C1320 0.930 . S
H1312 C1325 0.929 . S
H1313 C1323 0.929 . S
H1314 C1318 0.929 . S
H1315 C1324 0.929 . S
C1316 H1310 0.930 1_554 S
C1316 C1317 1.367 . S
C1316 C1324 1.378 . S
C1317 C1316 1.367 . S
C1317 C1325 1.433 . S
C1318 H1314 0.929 . S
C1318 C1320 1.378 . S
C1318 C1322 1.350 . S
C1319 C1322 1.463 . S
C1319 C1324 1.350 . S
C1319 N1327 1.427 . S
C1320 H1311 0.930 . S
C1320 C1318 1.378 . S
C1320 C1321 1.367 . S
C1321 C1320 1.367 . S
C1321 C1323 1.433 . S
C1322 C1318 1.350 . S
C1322 C1319 1.463 . S
C1322 N1326 1.427 . S
C1323 H1313 0.929 . S
C1323 C1321 1.433 . S
C1323 N1326 1.384 . S
C1324 H1315 0.929 . S
C1324 C1316 1.378 . S
C1324 C1319 1.350 . S
C1325 H1312 0.929 . S
C1325 C1317 1.433 . S
C1325 N1327 1.384 . S
N1326 C1322 1.427 . S
N1326 C1323 1.384 . S
N1327 C1319 1.427 . S
N1327 C1325 1.384 . S
H1328 C1334 0.930 . S
H1329 C1338 0.930 . S
H1330 C1343 0.929 . S
H1331 C1341 0.929 . S
H1332 C1336 0.929 . S
H1333 C1342 0.929 . S
C1334 H1328 0.930 . S
C1334 C1335 1.367 . S
C1334 C1342 1.378 . S
C1335 C1334 1.367 . S
C1335 C1343 1.433 . S
C1336 H1332 0.929 . S
C1336 C1338 1.378 . S
C1336 C1340 1.350 . S
C1337 C1340 1.463 . S
C1337 C1342 1.350 . S
C1337 N1345 1.427 . S
C1338 H1329 0.930 . S
C1338 C1336 1.378 . S
C1338 C1339 1.367 . S
C1339 C1338 1.367 . S
C1339 C1341 1.433 . S
C1340 C1336 1.350 . S
C1340 C1337 1.463 . S
C1340 N1344 1.427 . S
C1341 H1331 0.929 . S
C1341 C1339 1.433 . S
C1341 N1344 1.384 . S
C1342 H1333 0.929 . S
C1342 C1334 1.378 . S
C1342 C1337 1.350 . S
C1343 H1330 0.929 . S
C1343 C1335 1.433 . S
C1343 N1345 1.384 . S
N1344 C1340 1.427 . S
N1344 C1341 1.384 . S
N1345 C1337 1.427 . S
N1345 C1343 1.384 . S
H1346 C1352 0.930 . S
H1347 C1356 0.930 . S
H1348 C1361 0.929 . S
H1349 C1359 0.929 . S
H1350 C1354 0.929 . S
H1351 C1360 0.929 . S
C1352 H1346 0.930 . S
C1352 C1353 1.367 . S
C1352 C1360 1.378 . S
C1353 C1352 1.367 . S
C1353 C1361 1.433 . S
C1354 H1350 0.929 . S
C1354 C1356 1.378 . S
C1354 C1358 1.350 . S
C1355 C1358 1.463 . S
C1355 C1360 1.350 . S
C1355 N1363 1.427 . S
C1356 H1347 0.930 . S
C1356 C1354 1.378 . S
C1356 C1357 1.367 . S
C1357 C1356 1.367 . S
C1357 C1359 1.433 . S
C1358 C1354 1.350 . S
C1358 C1355 1.463 . S
C1358 N1362 1.427 . S
C1359 H1349 0.929 . S
C1359 C1357 1.433 . S
C1359 N1362 1.384 . S
C1360 H1351 0.929 . S
C1360 C1352 1.378 . S
C1360 C1355 1.350 . S
C1361 H1348 0.929 . S
C1361 C1353 1.433 . S
C1361 N1363 1.384 . S
N1362 C1358 1.427 . S
N1362 C1359 1.384 . S
N1363 C1355 1.427 . S
N1363 C1361 1.384 . S
H1364 C1370 0.930 . S
H1365 C1374 0.930 . S
H1366 C1379 0.929 . S
H1367 C1377 0.929 . S
H1368 C1372 0.929 . S
H1369 C1378 0.929 . S
C1370 H1364 0.930 . S
C1370 C1371 1.367 . S
C1370 C1378 1.378 . S
C1371 C1370 1.367 . S
C1371 C1379 1.433 . S
C1372 H1368 0.929 . S
C1372 C1374 1.378 . S
C1372 C1376 1.350 . S
C1373 C1376 1.463 . S
C1373 C1378 1.350 . S
C1373 N1381 1.427 . S
C1374 H1365 0.930 . S
C1374 C1372 1.378 . S
C1374 C1375 1.367 . S
C1375 C1374 1.367 . S
C1375 C1377 1.433 . S
C1376 C1372 1.350 . S
C1376 C1373 1.463 . S
C1376 N1380 1.427 . S
C1377 H1367 0.929 . S
C1377 C1375 1.433 . S
C1377 N1380 1.384 . S
C1378 H1369 0.929 . S
C1378 C1370 1.378 . S
C1378 C1373 1.350 . S
C1379 H1366 0.929 . S
C1379 C1371 1.433 . S
C1379 N1381 1.384 . S
N1380 C1376 1.427 . S
N1380 C1377 1.384 . S
N1381 C1373 1.427 . S
N1381 C1379 1.384 . S
H1382 C1388 0.930 . S
H1383 C1392 0.930 . S
H1384 C1397 0.929 . S
H1385 C1395 0.929 . S
H1386 C1390 0.929 . S
H1387 C1396 0.929 . S
C1388 H1382 0.930 . S
C1388 C1389 1.367 . S
C1388 C1396 1.378 . S
C1389 C1388 1.367 . S
C1389 C1397 1.433 . S
C1390 H1386 0.929 . S
C1390 C1392 1.378 . S
C1390 C1394 1.350 . S
C1391 C1394 1.463 . S
C1391 C1396 1.350 . S
C1391 N1399 1.427 . S
C1392 H1383 0.930 . S
C1392 C1390 1.378 . S
C1392 C1393 1.367 . S
C1393 C1392 1.367 . S
C1393 C1395 1.433 . S
C1394 C1390 1.350 . S
C1394 C1391 1.463 . S
C1394 N1398 1.427 . S
C1395 H1385 0.929 . S
C1395 C1393 1.433 . S
C1395 N1398 1.384 . S
C1396 H1387 0.929 . S
C1396 C1388 1.378 . S
C1396 C1391 1.350 . S
C1397 H1384 0.929 . S
C1397 C1389 1.433 . S
C1397 N1399 1.384 . S
N1398 C1394 1.427 . S
N1398 C1395 1.384 . S
N1399 C1391 1.427 . S
N1399 C1397 1.384 . S
H1400 C1406 0.930 . S
H1401 C1410 0.930 . S
H1402 C1415 0.929 . S
H1403 C1413 0.929 . S
H1404 C1408 0.929 . S
H1405 C1414 0.929 . S
C1406 H1400 0.930 . S
C1406 C1407 1.367 1_554 S
C1406 C1414 1.378 . S
C1407 C1406 1.367 1_556 S
C1407 C1415 1.433 . S
C1408 H1404 0.929 . S
C1408 C1410 1.378 . S
C1408 C1412 1.350 . S
C1409 C1412 1.463 . S
C1409 C1414 1.350 1_556 S
C1409 N1417 1.427 . S
C1410 H1401 0.930 . S
C1410 C1408 1.378 . S
C1410 C1411 1.367 . S
C1411 C1410 1.367 . S
C1411 C1413 1.433 1_556 S
C1412 C1408 1.350 . S
C1412 C1409 1.463 . S
C1412 N1416 1.427 1_556 S
C1413 H1403 0.929 . S
C1413 C1411 1.433 1_554 S
C1413 N1416 1.384 . S
C1414 H1405 0.929 . S
C1414 C1406 1.378 . S
C1414 C1409 1.350 1_554 S
C1415 H1402 0.929 . S
C1415 C1407 1.433 . S
C1415 N1417 1.384 . S
N1416 C1412 1.427 1_554 S
N1416 C1413 1.384 . S
N1417 C1409 1.427 . S
N1417 C1415 1.384 . S
H1418 C1424 0.930 . S
H1419 C1428 0.930 . S
H1420 C1433 0.929 . S
H1421 C1431 0.929 . S
H1422 C1426 0.929 . S
H1423 C1432 0.929 . S
C1424 H1418 0.930 . S
C1424 C1425 1.367 . S
C1424 C1432 1.378 . S
C1425 C1424 1.367 . S
C1425 C1433 1.433 . S
C1426 H1422 0.929 . S
C1426 C1428 1.378 . S
C1426 C1430 1.350 . S
C1427 C1430 1.463 . S
C1427 C1432 1.350 . S
C1427 N1435 1.427 . S
C1428 H1419 0.930 . S
C1428 C1426 1.378 . S
C1428 C1429 1.367 . S
C1429 C1428 1.367 . S
C1429 C1431 1.433 . S
C1430 C1426 1.350 . S
C1430 C1427 1.463 . S
C1430 N1434 1.427 . S
C1431 H1421 0.929 . S
C1431 C1429 1.433 . S
C1431 N1434 1.384 . S
C1432 H1423 0.929 . S
C1432 C1424 1.378 . S
C1432 C1427 1.350 . S
C1433 H1420 0.929 . S
C1433 C1425 1.433 . S
C1433 N1435 1.384 . S
N1434 C1430 1.427 . S
N1434 C1431 1.384 . S
N1435 C1427 1.427 . S
N1435 C1433 1.384 . S
H1436 C1442 0.930 . S
H1437 C1446 0.930 . S
H1438 C1451 0.929 1_556 S
H1439 C1449 0.929 . S
H1440 C1444 0.929 . S
H1441 C1450 0.929 . S
C1442 H1436 0.930 . S
C1442 C1443 1.367 . S
C1442 C1450 1.378 . S
C1443 C1442 1.367 . S
C1443 C1451 1.433 . S
C1444 H1440 0.929 . S
C1444 C1446 1.378 . S
C1444 C1448 1.350 1_556 S
C1445 C1448 1.463 . S
C1445 C1450 1.350 . S
C1445 N1453 1.427 1_554 S
C1446 H1437 0.930 . S
C1446 C1444 1.378 . S
C1446 C1447 1.367 1_556 S
C1447 C1446 1.367 1_554 S
C1447 C1449 1.433 . S
C1448 C1444 1.350 1_554 S
C1448 C1445 1.463 . S
C1448 N1452 1.427 . S
C1449 H1439 0.929 . S
C1449 C1447 1.433 . S
C1449 N1452 1.384 . S
C1450 H1441 0.929 . S
C1450 C1442 1.378 . S
C1450 C1445 1.350 . S
C1451 H1438 0.929 1_554 S
C1451 C1443 1.433 . S
C1451 N1453 1.384 1_554 S
N1452 C1448 1.427 . S
N1452 C1449 1.384 . S
N1453 C1445 1.427 1_556 S
N1453 C1451 1.384 1_556 S
H1454 C1460 0.930 . S
H1455 C1464 0.930 . S
H1456 C1469 0.929 . S
H1457 C1467 0.929 . S
H1458 C1462 0.929 . S
H1459 C1468 0.929 . S
C1460 H1454 0.930 . S
C1460 C1461 1.367 . S
C1460 C1468 1.378 1_545 S
C1461 C1460 1.367 . S
C1461 C1469 1.433 1_545 S
C1462 H1458 0.929 . S
C1462 C1464 1.378 . S
C1462 C1466 1.350 . S
C1463 C1466 1.463 . S
C1463 C1468 1.350 . S
C1463 N1471 1.427 . S
C1464 H1455 0.930 . S
C1464 C1462 1.378 . S
C1464 C1465 1.367 . S
C1465 C1464 1.367 . S
C1465 C1467 1.433 . S
C1466 C1462 1.350 . S
C1466 C1463 1.463 . S
C1466 N1470 1.427 . S
C1467 H1457 0.929 . S
C1467 C1465 1.433 . S
C1467 N1470 1.384 . S
C1468 H1459 0.929 . S
C1468 C1460 1.378 1_565 S
C1468 C1463 1.350 . S
C1469 H1456 0.929 . S
C1469 C1461 1.433 1_565 S
C1469 N1471 1.384 . S
N1470 C1466 1.427 . S
N1470 C1467 1.384 . S
N1471 C1463 1.427 . S
N1471 C1469 1.384 . S
C619 C178 1.524 1_556 S
C615 C60 1.522 . S
C637 C226 1.416 . S
C633 C76 1.451 . S
C651 C81 1.556 . S
C655 C262 1.483 . S
C673 C298 1.622 . S
C669 C48 1.699 . S
C691 C324 1.439 . S
C687 C115 1.432 . S
C709 C360 1.698 . S
C705 C136 1.713 . S
C723 C131 1.395 . S
C727 C395 1.408 . S
C745 C432 1.544 . S
C741 C104 1.547 . S
C759 C126 1.461 . S
C763 C466 1.464 . S
C781 C514 1.487 . S
C777 C103 1.519 . S
C795 C120 1.354 . S
C799 C467 1.366 . S
C817 C504 1.560 . S
C813 C142 1.559 . S
C831 C82 1.391 . S
C835 C550 1.348 . S
C849 C54 1.852 . S
C853 C539 1.853 . S
C867 C65 1.455 . S
C871 C540 1.458 . S
C885 C71 1.373 . S
C889 C538 1.372 . S
C903 C37 1.485 . S
C907 C286 1.482 . S
C921 C158 1.893 . S
C925 C287 1.901 . S
C943 C190 1.470 . S
C939 C169 1.555 . S
C961 C215 1.195 . S
C957 C98 1.190 . S
C975 C49 1.800 1_545 S
C979 C322 1.799 . S
C997 C430 1.411 . S
C993 C125 1.422 . S
C1015 C323 1.436 . S
C1011 C109 1.442 . S
C1033 C396 1.851 . S
C1029 C137 1.859 . S
C1051 C394 1.521 . S
C1047 C159 1.518 . S
C1065 C175 1.452 . S
C1069 C442 1.415 . S
C1083 C92 1.557 . S
C1087 C334 1.498 . S
C1105 C370 1.635 . S
C1101 C147 1.702 . S
C1119 C38 1.434 . S
C1123 C252 1.440 . S
C1141 C288 1.700 . S
C1137 C4 1.713 . S
C1159 C179 1.404 . S
C1155 C21 1.391 . S
C1177 C216 1.553 . S
C1173 C27 1.551 . S
C1191 C16 1.457 . S
C1195 C502 1.460 . S
C1209 C26 1.520 1_455 S
C1213 C478 1.477 . S
C1227 C43 1.354 . S
C1231 C503 1.366 . S
C1245 C10 1.557 1_556 S
C1249 C468 1.560 . S
C1267 C586 1.350 . S
C1263 C93 1.391 . S
C1285 C575 1.853 . S
C1281 C153 1.852 . S
C1303 C576 1.453 . S
C1299 C164 1.448 . S
C1317 C170 1.375 1_554 S
C1321 C574 1.374 . S
C1335 C114 1.493 . S
C1339 C358 1.491 . S
C1357 C359 1.900 . S
C1353 C59 1.894 . S
C1375 C406 1.482 . S
C1371 C70 1.557 . S
C1393 C431 1.196 . S
C1389 C87 1.195 . S
C1407 C148 1.800 . S
C1411 C250 1.799 . S
C1429 C214 1.414 . S
C1425 C15 1.425 . S
C1443 C32 1.442 . S
C1447 C251 1.442 . S
C1465 C180 1.846 . S
C1461 C5 1.854 . S
