# Generated by pormake.
# Topology anh, (6,3)-cn, num edge types: 1
# Building blocks:
#     Node 0, Type 0, BuildingBlock: INOVEN_clean_sbu_0, # of connection points: 6
#     Node 1, Type 0, BuildingBlock: INOVEN_clean_sbu_0, # of connection points: 6
#     Node 2, Type 0, BuildingBlock: INOVEN_clean_sbu_0, # of connection points: 6
#     Node 3, Type 1, BuildingBlock: QEWDON_clean_linker_0, # of connection points: 3
#     Node 4, Type 1, BuildingBlock: QEWDON_clean_linker_0, # of connection points: 3
#     Node 5, Type 1, BuildingBlock: QEWDON_clean_linker_0, # of connection points: 3
#     Node 6, Type 1, BuildingBlock: QEWDON_clean_linker_0, # of connection points: 3
#     Node 7, Type 1, BuildingBlock: QEWDON_clean_linker_0, # of connection points: 3
#     Node 8, Type 1, BuildingBlock: QEWDON_clean_linker_0, # of connection points: 3
#     Edge 9, Type (0, 1), BuildingBlock: CIFDUS_clean_linker_0, # of connection points: 2
#     Edge 10, Type (0, 1), BuildingBlock: CIFDUS_clean_linker_0, # of connection points: 2
#     Edge 11, Type (0, 1), BuildingBlock: CIFDUS_clean_linker_0, # of connection points: 2
#     Edge 12, Type (0, 1), BuildingBlock: CIFDUS_clean_linker_0, # of connection points: 2
#     Edge 13, Type (0, 1), BuildingBlock: CIFDUS_clean_linker_0, # of connection points: 2
#     Edge 14, Type (0, 1), BuildingBlock: CIFDUS_clean_linker_0, # of connection points: 2
#     Edge 15, Type (0, 1), BuildingBlock: CIFDUS_clean_linker_0, # of connection points: 2
#     Edge 16, Type (0, 1), BuildingBlock: CIFDUS_clean_linker_0, # of connection points: 2
#     Edge 17, Type (0, 1), BuildingBlock: CIFDUS_clean_linker_0, # of connection points: 2
#     Edge 18, Type (0, 1), BuildingBlock: CIFDUS_clean_linker_0, # of connection points: 2
#     Edge 19, Type (0, 1), BuildingBlock: CIFDUS_clean_linker_0, # of connection points: 2
#     Edge 20, Type (0, 1), BuildingBlock: CIFDUS_clean_linker_0, # of connection points: 2
#     Edge 21, Type (0, 1), BuildingBlock: CIFDUS_clean_linker_0, # of connection points: 2
#     Edge 22, Type (0, 1), BuildingBlock: CIFDUS_clean_linker_0, # of connection points: 2
#     Edge 23, Type (0, 1), BuildingBlock: CIFDUS_clean_linker_0, # of connection points: 2
#     Edge 24, Type (0, 1), BuildingBlock: CIFDUS_clean_linker_0, # of connection points: 2
#     Edge 25, Type (0, 1), BuildingBlock: CIFDUS_clean_linker_0, # of connection points: 2
#     Edge 26, Type (0, 1), BuildingBlock: CIFDUS_clean_linker_0, # of connection points: 2
# Relax obj value: 0.149
# Max RMSD: 0.187
# Mean RMSD: 0.125
data_MOF--net-anh--node1-INOVEN_clean_sbu_0--node2-QEWDON_clean_linker_0--edge1-CIFDUS_clean_linker_0
_symmetry_space_group_name_H-M    P1
_symmetry_Int_Tables_number       1
_symmetry_cell_setting            triclinic
loop_
_symmetry_equiv_pos_as_xyz
'x, y, z'
_cell_length_a     29.601371
_cell_length_b     35.69774
_cell_length_c     42.205109
_cell_angle_alpha  96.856488
_cell_angle_beta   92.256597
_cell_angle_gamma 131.11855
loop_
_atom_site_label
_atom_site_type_symbol
_atom_site_fract_x
_atom_site_fract_y
_atom_site_fract_z
_atom_type_partial_charge
Gd0 Gd 0.1347 0.54353 0.14051 0.0
Gd1 Gd 1.07724 0.58055 0.17073 0.0
C2 C 0.21748 0.66481 0.15922 0.0
C3 C 0.17871 0.51191 0.10752 0.0
C4 C 0.24286 0.53689 0.11034 0.0
C5 C 0.28537 0.58255 0.13263 0.0
C6 C 0.26182 0.51446 0.09326 0.0
C7 C 0.36442 0.58158 0.12274 0.0
C8 C 0.32262 0.53694 0.09931 0.0
C9 C 0.34551 0.60465 0.13885 0.0
C10 C 0.15895 0.56748 0.20556 0.0
C11 C 0.99343 0.46105 0.15079 0.0
C12 C 1.04159 0.61191 0.21193 0.0
C13 C 0.98949 0.58125 0.22912 0.0
C14 C 0.95473 0.59429 0.23475 0.0
C15 C 0.96644 0.5331 0.23292 0.0
C16 C 0.86838 0.50682 0.23777 0.0
C17 C 0.90619 0.49606 0.2373 0.0
C18 C 0.89457 0.55737 0.23948 0.0
C19 C 1.05609 0.55887 0.10508 0.0
O20 O 0.21278 0.62748 0.14413 0.0
O21 O 0.17195 0.65608 0.17199 0.0
O22 O 0.15449 0.49488 0.13328 0.0
O23 O 0.16536 0.5367 0.09616 0.0
O24 O 0.19787 0.57651 0.18723 0.0
O25 O 0.10808 0.54423 0.18873 0.0
O26 O 1.00338 0.49804 0.17058 0.0
O27 O 1.03486 0.47006 0.13331 0.0
O28 O 1.02685 0.60388 0.18063 0.0
O29 O 0.08634 0.61373 0.21969 0.0
O30 O 1.01632 0.55068 0.12267 0.0
O31 O 0.10543 0.58081 0.12292 0.0
H32 H 0.27177 0.60041 0.14614 0.0
H33 H 0.2295 0.47909 0.07608 0.0
H34 H 0.33639 0.51839 0.08675 0.0
H35 H 0.377 0.63923 0.15681 0.0
H36 H 0.97171 0.63122 0.23198 0.0
H37 H 0.99252 0.5222 0.22887 0.0
H38 H 0.88714 0.45747 0.23584 0.0
H39 H 0.86646 0.5668 0.23964 0.0
Gd40 Gd 0.69659 0.07987 0.48589 0.0
Gd41 Gd 0.62177 0.10789 0.4608 0.0
C42 C 0.55134 0.99134 0.46311 0.0
C43 C 0.75157 0.05811 0.51647 0.0
C44 C 0.73149 1.00823 0.51771 0.0
C45 C 0.76276 1.00288 0.53975 0.0
C46 C 0.67772 0.96491 0.49803 0.0
C47 C 0.68495 0.91093 0.5233 0.0
C48 C 0.65466 0.91679 0.50081 0.0
C49 C 0.73982 0.95448 0.54241 0.0
C50 C 0.66507 0.0593 0.42121 0.0
C51 C 0.76671 0.19895 0.48622 0.0
C52 C 0.58184 0.14144 0.43009 0.0
C53 C 0.59087 0.1867 0.44215 0.0
C54 C 0.62258 0.21419 0.47342 0.0
C55 C 0.57049 0.20389 0.42296 0.0
C56 C 0.61377 0.27587 0.46651 0.0
C57 C 0.58177 0.24819 0.43508 0.0
C58 C 0.63369 0.25803 0.4855 0.0
C59 C 0.62445 0.11052 0.52593 0.0
O60 O 0.59861 1.00732 0.48359 0.0
O61 O 0.55392 0.02245 0.44711 0.0
O62 O 0.76332 0.07205 0.48839 0.0
O63 O 0.71882 0.06612 0.52992 0.0
O64 O 0.66911 0.03217 0.43677 0.0
O65 O 0.68119 0.09754 0.44035 0.0
O66 O 0.71401 0.18503 0.47596 0.0
O67 O 0.77221 0.16598 0.49148 0.0
O68 O 0.54763 0.1039 0.44549 0.0
O69 O 0.63171 0.15101 0.42531 0.0
O70 O 0.59648 0.11955 0.50879 0.0
O71 O 0.64901 0.10096 0.50719 0.0
H72 H 0.80411 0.03596 0.55529 0.0
H73 H 0.65291 0.96825 0.48086 0.0
H74 H 0.61284 0.88406 0.48538 0.0
H75 H 0.76396 0.95106 0.56003 0.0
H76 H 0.63911 0.20186 0.4886 0.0
H77 H 0.54635 0.18337 0.39866 0.0
H78 H 0.56618 0.2611 0.41973 0.0
H79 H 0.65734 0.27761 0.50998 0.0
Gd80 Gd 0.67145 0.60278 0.83832 0.0
Gd81 Gd 0.57674 0.49378 0.83754 0.0
C82 C 0.52471 0.55135 0.84118 0.0
C83 C 0.73072 0.69278 0.82609 0.0
C84 C 0.71908 0.72684 0.82269 0.0
C85 C 0.75169 0.77262 0.84496 0.0
C86 C 0.67616 0.7146 0.79756 0.0
C87 C 0.6972 0.79239 0.81792 0.0
C88 C 0.66554 0.74715 0.79515 0.0
C89 C 0.74067 0.80487 0.84272 0.0
C90 C 0.65793 0.57656 0.89649 0.0
C91 C 0.72558 0.54754 0.84095 0.0
C92 C 0.51851 0.40188 0.84535 0.0
C93 C 0.5332 0.36928 0.84134 0.0
C94 C 0.49099 0.3202 0.82257 0.0
C95 C 0.59095 0.38815 0.85357 0.0
C96 C 0.5656 0.31095 0.82627 0.0
C97 C 0.60716 0.3595 0.84594 0.0
C98 C 0.50689 0.2912 0.81523 0.0
C99 C 0.58802 0.51889 0.7789 0.0
O100 O 0.58105 0.58913 0.83512 0.0
O101 O 0.5124 0.50944 0.84657 0.0
O102 O 0.73334 0.68425 0.85511 0.0
O103 O 0.70229 0.65217 0.80358 0.0
O104 O 0.71067 0.6105 0.88816 0.0
O105 O 0.61583 0.55967 0.87434 0.0
O106 O 0.66802 0.50904 0.84488 0.0
O107 O 0.73844 0.58919 0.83462 0.0
O108 O 0.5095 0.4128 0.8187 0.0
O109 O 0.5509 0.44102 0.86929 0.0
O110 O 0.53645 0.48573 0.78837 0.0
O111 O 0.63162 0.53656 0.80048 0.0
H112 H 0.78544 0.78329 0.86435 0.0
H113 H 0.65022 0.67965 0.77993 0.0
H114 H 0.63129 0.73621 0.77599 0.0
H115 H 0.76615 0.83965 0.86048 0.0
H116 H 0.44626 0.30485 0.81275 0.0
H117 H 0.62407 0.42553 0.86844 0.0
H118 H 0.65247 0.37554 0.85517 0.0
H119 H 0.47397 0.2541 0.79984 0.0
H120 H 0.6435 0.1063 0.22162 0.0
C121 C 0.60538 0.06668 0.2117 0.0
C122 C 0.58074 0.03111 0.23225 0.0
C123 C 0.57973 0.05166 0.17882 0.0
H124 H 0.50896 0.95242 0.23527 0.0
C125 C 0.53011 0.97984 0.2195 0.0
C126 C 0.50355 0.96367 0.18706 0.0
C127 C 0.5287 0.99952 0.16679 0.0
C128 C 0.60247 0.09057 0.15785 0.0
H129 H 0.50792 0.98645 0.14168 0.0
C130 C 0.66442 0.13649 0.16179 0.0
C131 C 0.68302 0.17339 0.14275 0.0
C132 C 0.56051 0.08267 0.1343 0.0
H133 H 0.5126 0.04944 0.13107 0.0
C134 C 0.57903 0.11813 0.11498 0.0
H135 H 0.69783 0.14395 0.17979 0.0
C136 C 0.63945 0.16292 0.11909 0.0
H137 H 0.65214 0.18966 0.10365 0.0
H138 H 0.54603 0.11113 0.09692 0.0
H139 H 0.60888 0.58771 0.5932 0.0
C140 C 0.61178 0.56207 0.57913 0.0
C141 C 0.62853 0.53939 0.595 0.0
C142 C 0.59548 0.54959 0.54536 0.0
H143 H 0.64053 0.48563 0.5888 0.0
C144 C 0.6302 0.50485 0.57663 0.0
C145 C 0.61322 0.49153 0.5429 0.0
C146 C 0.5968 0.5146 0.52749 0.0
C147 C 0.57159 0.56916 0.52879 0.0
H148 H 0.58389 0.5045 0.50144 0.0
C149 C 0.60136 0.62095 0.53541 0.0
C150 C 0.57801 0.63874 0.51924 0.0
C151 C 0.51801 0.53536 0.50607 0.0
H152 H 0.49366 0.49524 0.50086 0.0
C153 C 0.4948 0.55276 0.49007 0.0
H154 H 0.64257 0.64725 0.55295 0.0
C155 C 0.52454 0.60401 0.49647 0.0
H156 H 0.50606 0.61657 0.48319 0.0
H157 H 0.45366 0.52642 0.47254 0.0
H158 H 0.13805 0.55014 0.90725 0.0
C159 C 0.1053 0.55044 0.8954 0.0
C160 C 1.06684 0.55077 0.91421 0.0
C161 C 0.10365 0.55187 0.86219 0.0
H162 H 0.99624 0.5533 0.9148 0.0
C163 C 1.02302 0.55078 0.89954 0.0
C164 C 1.0149 0.55071 0.86644 0.0
C165 C 1.05697 0.55207 0.84795 0.0
C166 C 0.15315 0.55629 0.84408 0.0
H167 H 1.0522 0.55251 0.82256 0.0
C168 C 0.1949 0.54897 0.85564 0.0
C169 C 0.24195 0.55755 0.83738 0.0
C170 C 0.16106 0.57125 0.81401 0.0
H171 H 0.13433 0.57866 0.80363 0.0
C172 C 0.20435 0.57845 0.7964 0.0
H173 H 0.19155 0.53729 0.87854 0.0
C174 C 0.24333 0.57191 0.8076 0.0
H175 H 0.27471 0.57755 0.79198 0.0
H176 H 0.20802 0.58976 0.77326 0.0
H177 H 0.11593 0.55018 0.41198 0.0
C178 C 0.15812 0.58866 0.42078 0.0
C179 C 0.1918 0.61927 0.3982 0.0
C180 C 0.17849 0.60778 0.45438 0.0
H181 H 0.26975 0.69412 0.39199 0.0
C182 C 0.24487 0.67013 0.40935 0.0
C183 C 0.2666 0.69076 0.44236 0.0
C184 C 0.23436 0.65886 0.46468 0.0
C185 C 0.14016 0.57613 0.47869 0.0
H186 H 0.25254 0.67464 0.49009 0.0
C187 C 0.0976 0.52191 0.47217 0.0
C188 C 1.06056 0.49401 0.4953 0.0
C189 C 0.14427 0.60086 0.50882 0.0
H190 H 0.1732 0.64158 0.51471 0.0
C191 C 0.11 0.57369 0.53195 0.0
H192 H 0.09242 0.50135 0.44924 0.0
C193 C 1.06895 0.52106 0.52542 0.0
H194 H 1.04318 0.50141 0.54413 0.0
H195 H 0.11464 0.59366 0.55505 0.0
H196 H 0.60958 0.01821 0.71176 0.0
C197 C 0.61061 0.04613 0.72606 0.0
C198 C 0.62249 0.08542 0.71228 0.0
C199 C 0.59456 0.04018 0.75723 0.0
H200 H 0.62886 0.14981 0.72012 0.0
C201 C 0.62059 0.11992 0.73065 0.0
C202 C 0.60414 0.1143 0.76159 0.0
C203 C 0.59235 0.07492 0.77485 0.0
C204 C 0.57231 0.99446 0.77016 0.0
H205 H 0.57963 0.07041 0.79877 0.0
C206 C 0.60406 0.97746 0.76995 0.0
C207 C 0.58287 0.93557 0.78419 0.0
C208 C 0.51819 0.96775 0.78348 0.0
H209 H 0.49205 0.97907 0.78335 0.0
C210 C 0.49677 0.92599 0.79696 0.0
H211 H 0.64585 0.99761 0.75984 0.0
C212 C 0.52893 0.91016 0.79752 0.0
H213 H 0.51118 0.87749 0.80814 0.0
H214 H 0.45507 0.90584 0.80711 0.0
H215 H 0.68859 0.57305 0.06902 0.0
C216 C 0.68527 0.54601 0.08072 0.0
C217 C 0.67312 0.5045 0.06183 0.0
C218 C 0.6952 0.55407 0.11439 0.0
H219 H 0.66116 0.43815 0.06188 0.0
C220 C 0.67007 0.46993 0.07673 0.0
C221 C 0.67944 0.47718 0.11077 0.0
C222 C 0.69264 0.51992 0.12924 0.0
C223 C 0.70599 0.59735 0.13376 0.0
H224 H 0.70222 0.52758 0.15537 0.0
C225 C 0.66808 0.60636 0.12545 0.0
C226 C 0.67509 0.64573 0.14372 0.0
C227 C 0.75217 0.62878 0.16068 0.0
H228 H 0.7823 0.62273 0.1675 0.0
C229 C 0.75983 0.66853 0.1789 0.0
H230 H 0.63087 0.58091 0.10547 0.0
C231 C 0.72114 0.67682 0.17067 0.0
H232 H 0.72677 0.70705 0.18539 0.0
H233 H 0.79537 0.6926 0.19966 0.0
H234 H 0.44718 0.60523 0.0838 0.0
H235 H 0.41986 0.60415 0.18339 0.0
H236 H 0.51979 0.63278 0.19973 0.0
H237 H 0.60937 0.64848 0.18477 0.0
H238 H 0.63647 0.64847 0.08517 0.0
H239 H 0.54294 0.63109 0.06973 0.0
C240 C 0.46355 0.61166 0.10905 0.0
C241 C 0.42644 0.6022 0.13234 0.0
C242 C 0.52099 0.62815 0.11825 0.0
C243 C 0.448 0.61127 0.16509 0.0
C244 C 0.50498 0.62756 0.17443 0.0
C245 C 0.59576 0.64635 0.1599 0.0
C246 C 0.62918 0.64936 0.13609 0.0
C247 C 0.54129 0.63508 0.15113 0.0
C248 C 0.61092 0.64595 0.10382 0.0
C249 C 0.55734 0.63564 0.09497 0.0
H250 H 0.8823 0.25181 0.4699 0.0
H251 H 0.76938 0.27159 0.51525 0.0
H252 H 0.84803 0.36297 0.52029 0.0
H253 H 0.94689 0.43737 0.51074 0.0
H254 H 1.06321 0.42181 0.46563 0.0
H255 H 0.98504 0.32924 0.4606 0.0
C256 C 0.87563 0.27634 0.48143 0.0
C257 C 0.82005 0.25466 0.4926 0.0
C258 C 0.92121 0.32968 0.48366 0.0
C259 C 0.81164 0.28704 0.50669 0.0
C260 C 0.85654 0.33944 0.50942 0.0
C261 C 0.95571 0.41397 0.50001 0.0
C262 C 1.01156 0.43705 0.48893 0.0
C263 C 0.91115 0.36115 0.49774 0.0
C264 C 1.0208 0.40545 0.47426 0.0
C265 C 0.9762 0.35241 0.47169 0.0
H266 H 0.68367 0.82514 0.76583 0.0
H267 H 0.67738 0.83261 0.86818 0.0
H268 H 0.64733 0.88182 0.86722 0.0
H269 H 0.61605 0.91772 0.83688 0.0
H270 H 0.62159 0.91112 0.73465 0.0
H271 H 0.65974 0.8675 0.73599 0.0
C272 C 0.67586 0.83772 0.78789 0.0
C273 C 0.68249 0.82497 0.81702 0.0
C274 C 0.65865 0.86629 0.7872 0.0
C275 C 0.67303 0.84214 0.84551 0.0
C276 C 0.65559 0.87014 0.84497 0.0
C277 C 0.62627 0.90719 0.81496 0.0
C278 C 0.61559 0.9172 0.78565 0.0
C279 C 0.64744 0.88179 0.81591 0.0
C280 C 0.62972 0.904 0.75751 0.0
C281 C 0.65098 0.87867 0.75825 0.0
H282 H 0.82406 0.44175 0.18213 0.0
H283 H 0.76872 0.48458 0.26068 0.0
H284 H 0.68071 0.45571 0.22431 0.0
H285 H 0.64538 0.44914 0.16884 0.0
H286 H 0.72511 0.43312 0.09094 0.0
H287 H 0.7738 0.41703 0.12722 0.0
C288 C 0.79086 0.44212 0.19164 0.0
C289 C 0.80348 0.46642 0.22372 0.0
C290 C 0.74514 0.43132 0.16991 0.0
C291 C 0.76017 0.46658 0.23593 0.0
C292 C 0.71048 0.45085 0.21495 0.0
C293 C 0.67261 0.44123 0.15969 0.0
C294 C 0.68459 0.44556 0.12769 0.0
C295 C 0.70643 0.43814 0.18151 0.0
C296 C 0.71624 0.43159 0.1156 0.0
C297 C 0.74496 0.42301 0.13656 0.0
H298 H 0.52368 0.91375 0.4916 0.0
H299 H 0.44819 0.94521 0.42114 0.0
H300 H 0.35423 0.85691 0.41005 0.0
H301 H 0.29316 0.77015 0.4191 0.0
H302 H 0.36604 0.73609 0.48875 0.0
H303 H 0.46023 0.82565 0.50174 0.0
C304 C 0.48667 0.90137 0.47387 0.0
C305 C 0.49374 0.93673 0.45723 0.0
C306 C 0.43183 0.84985 0.4675 0.0
C307 C 0.44478 0.91947 0.43439 0.0
C308 C 0.39066 0.8687 0.42798 0.0
C309 C 0.32964 0.78216 0.43711 0.0
C310 C 0.32237 0.74601 0.45269 0.0
C311 C 0.38372 0.83353 0.44421 0.0
C312 C 0.36993 0.76284 0.47645 0.0
C313 C 0.42408 0.81412 0.48373 0.0
H314 H 0.50307 0.21091 0.8252 0.0
H315 H 0.67023 0.34631 0.80383 0.0
H316 H 0.69868 0.29838 0.78346 0.0
H317 H 0.67371 0.21686 0.76919 0.0
H318 H 0.50643 0.08168 0.79077 0.0
H319 H 0.48081 0.13054 0.81374 0.0
C320 C 0.54574 0.22989 0.81611 0.0
C321 C 0.58427 0.28206 0.81591 0.0
C322 C 0.5619 0.20209 0.80447 0.0
C323 C 0.63988 0.30627 0.80449 0.0
C324 C 0.65606 0.27882 0.79266 0.0
C325 C 0.63181 0.1982 0.77907 0.0
C326 C 0.59214 0.14564 0.77824 0.0
C327 C 0.61711 0.22657 0.79217 0.0
C328 C 0.53825 0.12214 0.79144 0.0
C329 C 0.52326 0.15 0.80437 0.0
H330 H 0.74198 0.87463 0.52766 0.0
H331 H 0.56713 0.83121 0.52718 0.0
H332 H 0.51969 0.74412 0.52842 0.0
H333 H 0.52653 0.67934 0.52645 0.0
H334 H 0.7 0.72085 0.52511 0.0
H335 H 0.7496 0.80979 0.52881 0.0
C336 C 0.69368 0.84619 0.52829 0.0
C337 C 0.65803 0.85924 0.52693 0.0
C338 C 0.66646 0.79587 0.52874 0.0
C339 C 0.5954 0.82195 0.52761 0.0
C340 C 0.56825 0.77217 0.52846 0.0
C341 C 0.57523 0.70784 0.52697 0.0
C342 C 0.60937 0.69337 0.52515 0.0
C343 C 0.60311 0.75854 0.52841 0.0
C344 C 0.67265 0.73096 0.52664 0.0
C345 C 0.70097 0.78178 0.52849 0.0
H346 H 0.8406 0.59477 0.81626 0.0
H347 H 0.72866 0.4919 0.87935 0.0
H348 H 0.80101 0.48173 0.89051 0.0
H349 H 0.89833 0.50191 0.88452 0.0
H350 H 1.01253 0.60291 0.82123 0.0
H351 H 0.939 0.6125 0.80836 0.0
C352 C 0.83142 0.56991 0.83248 0.0
C353 C 0.77594 0.54377 0.84649 0.0
C354 C 0.87494 0.56349 0.839 0.0
C355 C 0.76804 0.51207 0.86727 0.0
C356 C 0.8106 0.50639 0.87402 0.0
C357 C 0.90811 0.52623 0.86773 0.0
C358 C 0.96385 0.55163 0.85427 0.0
C359 C 0.86453 0.53175 0.86024 0.0
C360 C 0.97175 0.58196 0.83223 0.0
C361 C 0.92902 0.5879 0.82498 0.0
H362 H 0.23542 0.74967 0.15537 0.0
H363 H 0.33128 0.69901 0.17001 0.0
H364 H 0.42846 0.78647 0.17856 0.0
H365 H 0.48646 0.87837 0.18465 0.0
H366 H 0.39161 0.92867 0.16571 0.0
H367 H 0.29425 0.84084 0.15565 0.0
C368 C 0.27766 0.75787 0.1603 0.0
C369 C 0.27607 0.7179 0.16241 0.0
C370 C 0.33368 0.8083 0.16427 0.0
C371 C 0.33121 0.72902 0.16828 0.0
C372 C 0.38685 0.77909 0.17323 0.0
C373 C 0.44445 0.86985 0.17774 0.0
C374 C 0.44616 0.9099 0.17582 0.0
C375 C 0.3887 0.81914 0.17159 0.0
C376 C 0.39147 0.89846 0.16698 0.0
C377 C 0.33577 0.84826 0.1615 0.0
H378 H 0.53749 0.29363 0.45991 0.0
H379 H 0.71716 0.36345 0.50395 0.0
H380 H 0.73321 0.43637 0.53125 0.0
H381 H 0.69462 0.47901 0.54456 0.0
H382 H 0.51633 0.41035 0.49923 0.0
H383 H 0.50189 0.33898 0.4701 0.0
C384 C 0.58058 0.32517 0.47499 0.0
C385 C 0.62564 0.32258 0.48015 0.0
C386 C 0.58978 0.36729 0.49051 0.0
C387 C 0.68105 0.36379 0.50007 0.0
C388 C 0.69046 0.4057 0.51561 0.0
C389 C 0.65276 0.44843 0.52822 0.0
C390 C 0.60664 0.44989 0.52407 0.0
C391 C 0.64478 0.40752 0.51144 0.0
C392 C 0.55276 0.4103 0.5026 0.0
C393 C 0.54433 0.36936 0.48605 0.0
H394 H 0.40292 0.49132 0.86007 0.0
H395 H 0.5333 0.62689 0.82226 0.0
H396 H 0.46382 0.64157 0.82001 0.0
H397 H 0.36481 0.61742 0.82712 0.0
H398 H 0.23167 0.48344 0.86522 0.0
H399 H 0.302 0.46857 0.86948 0.0
C400 C 0.41677 0.5243 0.8513 0.0
C401 C 0.4761 0.55765 0.84117 0.0
C402 C 0.37506 0.5335 0.85026 0.0
C403 C 0.49005 0.59985 0.8303 0.0
C404 C 0.44945 0.60854 0.82898 0.0
C405 C 0.35012 0.58466 0.83658 0.0
C406 C 0.29017 0.55188 0.84576 0.0
C407 C 0.39158 0.57585 0.83871 0.0
C408 C 0.2759 0.51049 0.85818 0.0
C409 C 0.31681 0.50155 0.86029 0.0
H410 H 0.96307 0.36869 0.14815 0.0
H411 H 0.8867 0.43797 0.14743 0.0
H412 H 0.78561 0.35647 0.14674 0.0
H413 H 0.7184 0.26596 0.14661 0.0
H414 H 0.7912 0.19401 0.14834 0.0
H415 H 0.89383 0.27579 0.14926 0.0
C416 C 0.92408 0.36562 0.14747 0.0
C417 C 0.93243 0.40943 0.1476 0.0
C418 C 0.86549 0.31827 0.14778 0.0
C419 C 0.88159 0.40499 0.14737 0.0
C420 C 0.82371 0.35838 0.14704 0.0
C421 C 0.75667 0.26802 0.14717 0.0
C422 C 0.74678 0.22361 0.14715 0.0
C423 C 0.81511 0.31488 0.14741 0.0
C424 C 0.79732 0.22747 0.14853 0.0
C425 C 0.856 0.27424 0.14874 0.0
H426 H 0.14317 0.59574 0.06634 0.0
H427 H 0.95011 0.50292 0.06318 0.0
H428 H 0.93587 0.48966 0.00407 0.0
H429 H 0.97839 0.5055 0.95331 0.0
H430 H 0.17268 0.60399 0.95696 0.0
H431 H 0.18586 0.61257 0.01548 0.0
C432 C 0.09795 0.57245 0.05269 0.0
C433 C 1.04772 0.55034 0.06918 0.0
C434 C 0.09021 0.56565 0.01867 0.0
C435 C 0.98951 0.52051 0.05112 0.0
C436 C 0.98136 0.51286 0.01729 0.0
C437 C 1.0238 0.52928 0.96678 0.0
C438 C 1.07435 0.55388 0.95021 0.0
C439 C 1.03143 0.53553 0.00078 0.0
C440 C 0.13256 0.58363 0.96853 0.0
C441 C 0.14033 0.58909 0.00222 0.0
H442 H 0.66574 0.11672 0.38327 0.0
H443 H 0.63132 0.97845 0.37929 0.0
H444 H 0.60699 0.95974 0.32056 0.0
H445 H 0.59375 0.9815 0.27046 0.0
H446 H 0.62078 0.11647 0.27386 0.0
H447 H 0.65119 0.13824 0.33245 0.0
C448 C 0.65245 0.08238 0.36952 0.0
C449 C 0.64991 0.04887 0.38564 0.0
C450 C 0.63788 0.07152 0.3356 0.0
C451 C 0.63349 1.00482 0.36748 0.0
C452 C 0.61964 0.9941 0.33387 0.0
C453 C 0.60588 1.01556 0.28395 0.0
C454 C 0.60463 0.04708 0.26758 0.0
C455 C 0.62141 0.02702 0.31769 0.0
C456 C 0.62202 0.09172 0.28558 0.0
C457 C 0.63881 0.10396 0.31921 0.0
H458 H 0.67952 0.54957 0.74421 0.0
H459 H 0.50686 0.51055 0.73956 0.0
H460 H 0.50756 0.51897 0.68301 0.0
H461 H 0.55239 0.52991 0.6337 0.0
H462 H 0.72077 0.56215 0.6362 0.0
H463 H 0.72686 0.56394 0.69458 0.0
C464 C 0.64262 0.54365 0.73082 0.0
C465 C 0.59312 0.52935 0.74586 0.0
C466 C 0.64235 0.54692 0.69787 0.0
C467 C 0.54522 0.52127 0.72833 0.0
C468 C 0.54557 0.52606 0.69602 0.0
C469 C 0.59104 0.53836 0.64717 0.0
C470 C 0.63627 0.54624 0.63079 0.0
C471 C 0.5932 0.53781 0.68036 0.0
C472 C 0.68542 0.55598 0.64837 0.0
C473 C 0.68884 0.55694 0.6817 0.0
H474 H 0.67948 0.0925 0.56822 0.0
H475 H 0.55965 0.12166 0.5616 0.0
H476 H 0.54794 0.11562 0.61783 0.0
H477 H 0.56989 0.10117 0.66863 0.0
H478 H 0.69046 0.07305 0.67762 0.0
H479 H 0.70242 0.07806 0.62059 0.0
C480 C 0.65072 0.09722 0.57906 0.0
C481 C 0.62032 0.10722 0.56053 0.0
C482 C 0.64399 0.09361 0.61182 0.0
C483 C 0.58362 0.11388 0.57517 0.0
C484 C 0.57673 0.11037 0.6074 0.0
C485 C 0.59963 0.0969 0.65837 0.0
C486 C 0.63 0.08757 0.6776 0.0
C487 C 0.60662 0.10027 0.62592 0.0
C488 C 0.66659 0.08034 0.66341 0.0
C489 C 0.67363 0.08343 0.63083 0.0
H490 H 0.73077 0.56756 0.92829 0.0
H491 H 0.56073 0.53249 0.92736 0.0
H492 H 0.5443 0.49729 0.97632 0.0
H493 H 0.58446 0.48607 0.02261 0.0
H494 H 0.75369 0.52014 0.02375 0.0
H495 H 0.76355 0.54442 0.97078 0.0
C496 C 0.69022 0.55212 0.93892 0.0
C497 C 0.64778 0.55378 0.92509 0.0
C498 C 0.68059 0.53109 0.96666 0.0
C499 C 0.59438 0.53229 0.93816 0.0
C500 C 0.58486 0.51199 0.96597 0.0
C501 C 0.62221 0.49699 0.01056 0.0
C502 C 0.66815 0.5012 0.02663 0.0
C503 C 0.62829 0.51223 0.98079 0.0
C504 C 0.71747 0.516 0.01136 0.0
C505 C 0.72356 0.53067 0.98142 0.0
H506 H 1.08013 0.53939 0.24918 0.0
H507 H 0.26778 0.619 0.24197 0.0
H508 H 0.29295 0.63815 0.30057 0.0
H509 H 0.26308 0.63467 0.35378 0.0
H510 H 1.07732 0.5597 0.36272 0.0
H511 H 1.04958 0.53541 0.30365 0.0
C512 C 0.12642 0.56117 0.26054 0.0
C513 C 0.17205 0.57811 0.24125 0.0
C514 C 0.14083 0.57251 0.29453 0.0
C515 C 0.23182 0.60562 0.25623 0.0
C516 C 0.24631 0.61658 0.28977 0.0
C517 C 0.21648 0.61315 0.34286 0.0
C518 C 0.17252 0.5995 0.36267 0.0
C519 C 0.20136 0.60055 0.30912 0.0
C520 C 0.11204 0.57048 0.34808 0.0
C521 C 0.09629 0.55699 0.3143 0.0
loop_
_geom_bond_atom_site_label_1
_geom_bond_atom_site_label_2
_geom_bond_distance
_geom_bond_site_symmetry_2
_ccdc_geom_bond_type
Gd0 C3 2.818 . S
Gd0 O20 2.377 . S
Gd0 O22 2.448 . S
Gd0 O23 2.506 . S
Gd0 O24 2.435 . S
Gd0 O25 2.717 . S
Gd0 O27 2.395 1_455 S
Gd0 O31 2.327 . S
Gd1 C12 2.818 1_455 S
Gd1 O21 2.395 . S
Gd1 O25 2.327 . S
Gd1 O26 2.377 1_455 S
Gd1 O28 2.448 1_455 S
Gd1 O29 2.506 1_455 S
Gd1 O30 2.435 . S
Gd1 O31 2.717 . S
C2 O20 1.240 . S
C2 O21 1.240 . S
C3 Gd0 2.818 . S
C3 C4 1.510 . S
C3 O22 1.249 . S
C3 O23 1.252 . S
C4 C3 1.510 . S
C4 C5 1.404 . S
C4 C6 1.352 . S
C5 C4 1.404 . S
C5 C9 1.389 . S
C5 H32 0.930 . S
C6 C4 1.352 . S
C6 C8 1.374 . S
C6 H33 0.931 . S
C7 C8 1.359 . S
C7 C9 1.364 . S
C8 C6 1.374 . S
C8 C7 1.359 . S
C8 H34 0.931 . S
C9 C5 1.389 . S
C9 C7 1.364 . S
C9 H35 0.931 . S
C10 O24 1.256 . S
C10 O25 1.257 . S
C11 O26 1.240 . S
C11 O27 1.240 . S
C12 Gd1 2.818 1_655 S
C12 C13 1.510 . S
C12 O28 1.249 . S
C12 O29 1.252 . S
C13 C12 1.510 . S
C13 C14 1.404 . S
C13 C15 1.352 . S
C14 C13 1.404 . S
C14 C18 1.389 . S
C14 H36 0.930 . S
C15 C13 1.352 . S
C15 C17 1.374 . S
C15 H37 0.931 . S
C16 C17 1.359 . S
C16 C18 1.364 . S
C17 C15 1.374 . S
C17 C16 1.359 . S
C17 H38 0.931 . S
C18 C14 1.389 . S
C18 C16 1.364 . S
C18 H39 0.931 . S
C19 O30 1.256 . S
C19 O31 1.257 . S
O20 Gd0 2.377 . S
O20 C2 1.240 . S
O21 Gd1 2.395 . S
O21 C2 1.240 . S
O22 Gd0 2.448 . S
O22 C3 1.249 . S
O23 Gd0 2.506 . S
O23 C3 1.252 . S
O24 Gd0 2.435 . S
O24 C10 1.256 . S
O25 Gd0 2.717 . S
O25 Gd1 2.327 . S
O25 C10 1.257 . S
O26 Gd1 2.377 1_655 S
O26 C11 1.240 . S
O27 Gd0 2.395 1_655 S
O27 C11 1.240 . S
O28 Gd1 2.448 1_655 S
O28 C12 1.249 . S
O29 Gd1 2.506 1_655 S
O29 C12 1.252 . S
O30 Gd1 2.435 . S
O30 C19 1.256 . S
O31 Gd0 2.327 . S
O31 Gd1 2.717 . S
O31 C19 1.257 . S
H32 C5 0.930 . S
H33 C6 0.931 . S
H34 C8 0.931 . S
H35 C9 0.931 . S
H36 C14 0.930 . S
H37 C15 0.931 . S
H38 C17 0.931 . S
H39 C18 0.931 . S
Gd40 C43 2.818 1_545 S
Gd40 O60 2.377 1_545 S
Gd40 O62 2.448 1_545 S
Gd40 O63 2.506 1_545 S
Gd40 O64 2.435 . S
Gd40 O65 2.717 . S
Gd40 O67 2.395 . S
Gd40 O71 2.327 . S
Gd41 C52 2.818 . S
Gd41 O61 2.395 1_545 S
Gd41 O65 2.327 . S
Gd41 O66 2.377 . S
Gd41 O68 2.448 . S
Gd41 O69 2.506 . S
Gd41 O70 2.435 . S
Gd41 O71 2.717 . S
C42 O60 1.240 . S
C42 O61 1.240 . S
C43 Gd40 2.818 1_565 S
C43 C44 1.510 . S
C43 O62 1.249 . S
C43 O63 1.252 . S
C44 C43 1.510 . S
C44 C45 1.404 . S
C44 C46 1.352 . S
C45 C44 1.404 . S
C45 C49 1.389 . S
C45 H72 0.930 . S
C46 C44 1.352 . S
C46 C48 1.374 . S
C46 H73 0.931 . S
C47 C48 1.359 . S
C47 C49 1.364 . S
C48 C46 1.374 . S
C48 C47 1.359 . S
C48 H74 0.931 . S
C49 C45 1.389 . S
C49 C47 1.364 . S
C49 H75 0.931 . S
C50 O64 1.256 . S
C50 O65 1.257 . S
C51 O66 1.240 . S
C51 O67 1.240 . S
C52 Gd41 2.818 . S
C52 C53 1.510 . S
C52 O68 1.249 . S
C52 O69 1.252 . S
C53 C52 1.510 . S
C53 C54 1.404 . S
C53 C55 1.352 . S
C54 C53 1.404 . S
C54 C58 1.389 . S
C54 H76 0.930 . S
C55 C53 1.352 . S
C55 C57 1.374 . S
C55 H77 0.931 . S
C56 C57 1.359 . S
C56 C58 1.364 . S
C57 C55 1.374 . S
C57 C56 1.359 . S
C57 H78 0.931 . S
C58 C54 1.389 . S
C58 C56 1.364 . S
C58 H79 0.931 . S
C59 O70 1.256 . S
C59 O71 1.257 . S
O60 Gd40 2.377 1_565 S
O60 C42 1.240 . S
O61 Gd41 2.395 1_565 S
O61 C42 1.240 . S
O62 Gd40 2.448 1_565 S
O62 C43 1.249 . S
O63 Gd40 2.506 1_565 S
O63 C43 1.252 . S
O64 Gd40 2.435 . S
O64 C50 1.256 . S
O65 Gd40 2.717 . S
O65 Gd41 2.327 . S
O65 C50 1.257 . S
O66 Gd41 2.377 . S
O66 C51 1.240 . S
O67 Gd40 2.395 . S
O67 C51 1.240 . S
O68 Gd41 2.448 . S
O68 C52 1.249 . S
O69 Gd41 2.506 . S
O69 C52 1.252 . S
O70 Gd41 2.435 . S
O70 C59 1.256 . S
O71 Gd40 2.327 . S
O71 Gd41 2.717 . S
O71 C59 1.257 . S
H72 C45 0.930 . S
H73 C46 0.931 . S
H74 C48 0.931 . S
H75 C49 0.931 . S
H76 C54 0.930 . S
H77 C55 0.931 . S
H78 C57 0.931 . S
H79 C58 0.931 . S
Gd80 C83 2.818 . S
Gd80 O100 2.377 . S
Gd80 O102 2.448 . S
Gd80 O103 2.506 . S
Gd80 O104 2.435 . S
Gd80 O105 2.717 . S
Gd80 O107 2.395 . S
Gd80 O111 2.327 . S
Gd81 C92 2.818 . S
Gd81 O101 2.395 . S
Gd81 O105 2.327 . S
Gd81 O106 2.377 . S
Gd81 O108 2.448 . S
Gd81 O109 2.506 . S
Gd81 O110 2.435 . S
Gd81 O111 2.717 . S
C82 O100 1.240 . S
C82 O101 1.240 . S
C83 Gd80 2.818 . S
C83 C84 1.510 . S
C83 O102 1.249 . S
C83 O103 1.252 . S
C84 C83 1.510 . S
C84 C85 1.404 . S
C84 C86 1.352 . S
C85 C84 1.404 . S
C85 C89 1.389 . S
C85 H112 0.930 . S
C86 C84 1.352 . S
C86 C88 1.374 . S
C86 H113 0.931 . S
C87 C88 1.359 . S
C87 C89 1.364 . S
C88 C86 1.374 . S
C88 C87 1.359 . S
C88 H114 0.931 . S
C89 C85 1.389 . S
C89 C87 1.364 . S
C89 H115 0.931 . S
C90 O104 1.256 . S
C90 O105 1.257 . S
C91 O106 1.240 . S
C91 O107 1.240 . S
C92 Gd81 2.818 . S
C92 C93 1.510 . S
C92 O108 1.249 . S
C92 O109 1.252 . S
C93 C92 1.510 . S
C93 C94 1.404 . S
C93 C95 1.352 . S
C94 C93 1.404 . S
C94 C98 1.389 . S
C94 H116 0.930 . S
C95 C93 1.352 . S
C95 C97 1.374 . S
C95 H117 0.931 . S
C96 C97 1.359 . S
C96 C98 1.364 . S
C97 C95 1.374 . S
C97 C96 1.359 . S
C97 H118 0.931 . S
C98 C94 1.389 . S
C98 C96 1.364 . S
C98 H119 0.931 . S
C99 O110 1.256 . S
C99 O111 1.257 . S
O100 Gd80 2.377 . S
O100 C82 1.240 . S
O101 Gd81 2.395 . S
O101 C82 1.240 . S
O102 Gd80 2.448 . S
O102 C83 1.249 . S
O103 Gd80 2.506 . S
O103 C83 1.252 . S
O104 Gd80 2.435 . S
O104 C90 1.256 . S
O105 Gd80 2.717 . S
O105 Gd81 2.327 . S
O105 C90 1.257 . S
O106 Gd81 2.377 . S
O106 C91 1.240 . S
O107 Gd80 2.395 . S
O107 C91 1.240 . S
O108 Gd81 2.448 . S
O108 C92 1.249 . S
O109 Gd81 2.506 . S
O109 C92 1.252 . S
O110 Gd81 2.435 . S
O110 C99 1.256 . S
O111 Gd80 2.327 . S
O111 Gd81 2.717 . S
O111 C99 1.257 . S
H112 C85 0.930 . S
H113 C86 0.931 . S
H114 C88 0.931 . S
H115 C89 0.931 . S
H116 C94 0.930 . S
H117 C95 0.931 . S
H118 C97 0.931 . S
H119 C98 0.931 . S
H120 C121 0.949 . S
C121 H120 0.949 . S
C121 C122 1.395 . S
C121 C123 1.391 . S
C122 C121 1.395 . S
C122 C125 1.390 1_545 S
C123 C121 1.391 . S
C123 C127 1.387 . S
C123 C128 1.491 . S
H124 C125 0.950 . S
C125 C122 1.390 1_565 S
C125 H124 0.950 . S
C125 C126 1.378 . S
C126 C125 1.378 . S
C126 C127 1.409 1_565 S
C127 C123 1.387 . S
C127 C126 1.409 1_545 S
C127 H129 0.951 . S
C128 C123 1.491 . S
C128 C130 1.382 . S
C128 C132 1.404 . S
H129 C127 0.951 . S
C130 C128 1.382 . S
C130 C131 1.390 . S
C130 H135 0.949 . S
C131 C130 1.390 . S
C131 C136 1.399 . S
C132 C128 1.404 . S
C132 H133 0.950 . S
C132 C134 1.375 . S
H133 C132 0.950 . S
C134 C132 1.375 . S
C134 C136 1.382 . S
C134 H138 0.950 . S
H135 C130 0.949 . S
C136 C131 1.399 . S
C136 C134 1.382 . S
C136 H137 0.952 . S
H137 C136 0.952 . S
H138 C134 0.950 . S
H139 C140 0.949 . S
C140 H139 0.949 . S
C140 C141 1.395 . S
C140 C142 1.391 . S
C141 C140 1.395 . S
C141 C144 1.390 . S
C142 C140 1.391 . S
C142 C146 1.387 . S
C142 C147 1.491 . S
H143 C144 0.950 . S
C144 C141 1.390 . S
C144 H143 0.950 . S
C144 C145 1.378 . S
C145 C144 1.378 . S
C145 C146 1.409 . S
C146 C142 1.387 . S
C146 C145 1.409 . S
C146 H148 0.951 . S
C147 C142 1.491 . S
C147 C149 1.382 . S
C147 C151 1.404 . S
H148 C146 0.951 . S
C149 C147 1.382 . S
C149 C150 1.390 . S
C149 H154 0.949 . S
C150 C149 1.390 . S
C150 C155 1.399 . S
C151 C147 1.404 . S
C151 H152 0.950 . S
C151 C153 1.375 . S
H152 C151 0.950 . S
C153 C151 1.375 . S
C153 C155 1.382 . S
C153 H157 0.950 . S
H154 C149 0.949 . S
C155 C150 1.399 . S
C155 C153 1.382 . S
C155 H156 0.952 . S
H156 C155 0.952 . S
H157 C153 0.950 . S
H158 C159 0.949 . S
C159 H158 0.949 . S
C159 C160 1.395 . S
C159 C161 1.391 . S
C160 C159 1.395 . S
C160 C163 1.390 . S
C161 C159 1.391 . S
C161 C165 1.387 . S
C161 C166 1.491 . S
H162 C163 0.950 1_655 S
C163 C160 1.390 . S
C163 H162 0.950 1_455 S
C163 C164 1.378 . S
C164 C163 1.378 . S
C164 C165 1.409 . S
C165 C161 1.387 . S
C165 C164 1.409 . S
C165 H167 0.951 . S
C166 C161 1.491 . S
C166 C168 1.382 . S
C166 C170 1.404 . S
H167 C165 0.951 . S
C168 C166 1.382 . S
C168 C169 1.390 . S
C168 H173 0.949 . S
C169 C168 1.390 . S
C169 C174 1.399 . S
C170 C166 1.404 . S
C170 H171 0.950 . S
C170 C172 1.375 . S
H171 C170 0.950 . S
C172 C170 1.375 . S
C172 C174 1.382 . S
C172 H176 0.950 . S
H173 C168 0.949 . S
C174 C169 1.399 . S
C174 C172 1.382 . S
C174 H175 0.952 . S
H175 C174 0.952 . S
H176 C172 0.950 . S
H177 C178 0.956 . S
C178 H177 0.956 . S
C178 C179 1.385 1_655 S
C178 C180 1.394 1_655 S
C179 C178 1.385 1_455 S
C179 C182 1.390 . S
C180 C178 1.394 1_455 S
C180 C184 1.387 . S
C180 C185 1.491 1_455 S
H181 C182 0.950 . S
C182 C179 1.390 . S
C182 H181 0.950 . S
C182 C183 1.378 . S
C183 C182 1.378 . S
C183 C184 1.409 . S
C184 C180 1.387 . S
C184 C183 1.409 . S
C184 H186 0.951 . S
C185 C180 1.491 1_655 S
C185 C187 1.382 . S
C185 C189 1.404 . S
H186 C184 0.951 . S
C187 C185 1.382 . S
C187 C188 1.390 . S
C187 H192 0.949 . S
C188 C187 1.390 . S
C188 C193 1.399 . S
C189 C185 1.404 . S
C189 H190 0.950 . S
C189 C191 1.375 . S
H190 C189 0.950 . S
C191 C189 1.375 . S
C191 C193 1.382 . S
C191 H195 0.950 . S
H192 C187 0.949 . S
C193 C188 1.399 . S
C193 C191 1.382 . S
C193 H194 0.952 . S
H194 C193 0.952 . S
H195 C191 0.950 . S
H196 C197 0.922 1_565 S
C197 H196 0.922 1_545 S
C197 C198 1.395 . S
C197 C199 1.391 . S
C198 C197 1.395 . S
C198 C201 1.390 . S
C199 C197 1.391 . S
C199 C203 1.387 . S
C199 C204 1.490 1_545 S
H200 C201 0.950 . S
C201 C198 1.390 . S
C201 H200 0.950 . S
C201 C202 1.378 . S
C202 C201 1.378 . S
C202 C203 1.409 . S
C203 C199 1.387 . S
C203 C202 1.409 . S
C203 H205 0.951 . S
C204 C199 1.490 1_565 S
C204 C206 1.382 . S
C204 C208 1.404 . S
H205 C203 0.951 . S
C206 C204 1.382 . S
C206 C207 1.390 . S
C206 H211 0.949 . S
C207 C206 1.390 . S
C207 C212 1.399 . S
C208 C204 1.404 . S
C208 H209 0.952 . S
C208 C210 1.375 . S
H209 C208 0.952 . S
C210 C208 1.375 . S
C210 C212 1.382 . S
C210 H214 0.950 . S
H211 C206 0.949 . S
C212 C207 1.399 . S
C212 C210 1.382 . S
C212 H213 0.952 . S
H213 C212 0.952 . S
H214 C210 0.950 . S
H215 C216 0.949 . S
C216 H215 0.949 . S
C216 C217 1.395 . S
C216 C218 1.391 . S
C217 C216 1.395 . S
C217 C220 1.390 . S
C218 C216 1.391 . S
C218 C222 1.387 . S
C218 C223 1.491 . S
H219 C220 0.950 . S
C220 C217 1.390 . S
C220 H219 0.950 . S
C220 C221 1.378 . S
C221 C220 1.378 . S
C221 C222 1.409 . S
C222 C218 1.387 . S
C222 C221 1.409 . S
C222 H224 0.951 . S
C223 C218 1.491 . S
C223 C225 1.382 . S
C223 C227 1.404 . S
H224 C222 0.951 . S
C225 C223 1.382 . S
C225 C226 1.390 . S
C225 H230 0.949 . S
C226 C225 1.390 . S
C226 C231 1.399 . S
C227 C223 1.404 . S
C227 H228 0.950 . S
C227 C229 1.375 . S
H228 C227 0.950 . S
C229 C227 1.375 . S
C229 C231 1.382 . S
C229 H233 0.950 . S
H230 C225 0.949 . S
C231 C226 1.399 . S
C231 C229 1.382 . S
C231 H232 0.952 . S
H232 C231 0.952 . S
H233 C229 0.950 . S
H234 C240 0.930 . S
H235 C243 0.930 . S
H236 C244 0.930 . S
H237 C245 0.930 . S
H238 C248 0.930 . S
H239 C249 0.930 . S
C240 H234 0.930 . S
C240 C241 1.355 . S
C240 C242 1.415 . S
C241 C240 1.355 . S
C241 C243 1.419 . S
C242 C240 1.415 . S
C242 C247 1.425 . S
C242 C249 1.409 . S
C243 H235 0.930 . S
C243 C241 1.419 . S
C243 C244 1.362 . S
C244 H236 0.930 . S
C244 C243 1.362 . S
C244 C247 1.409 . S
C245 H237 0.930 . S
C245 C246 1.355 . S
C245 C247 1.415 . S
C246 C245 1.355 . S
C246 C248 1.419 . S
C247 C242 1.425 . S
C247 C244 1.409 . S
C247 C245 1.415 . S
C248 H238 0.930 . S
C248 C246 1.419 . S
C248 C249 1.362 . S
C249 H239 0.930 . S
C249 C242 1.409 . S
C249 C248 1.362 . S
H250 C256 0.930 . S
H251 C259 0.930 . S
H252 C260 0.930 . S
H253 C261 0.930 . S
H254 C264 0.930 . S
H255 C265 0.930 . S
C256 H250 0.930 . S
C256 C257 1.355 . S
C256 C258 1.415 . S
C257 C256 1.355 . S
C257 C259 1.419 . S
C258 C256 1.415 . S
C258 C263 1.425 . S
C258 C265 1.409 . S
C259 H251 0.930 . S
C259 C257 1.419 . S
C259 C260 1.362 . S
C260 H252 0.930 . S
C260 C259 1.362 . S
C260 C263 1.409 . S
C261 H253 0.930 . S
C261 C262 1.355 . S
C261 C263 1.415 . S
C262 C261 1.355 . S
C262 C264 1.419 . S
C263 C258 1.425 . S
C263 C260 1.409 . S
C263 C261 1.415 . S
C264 H254 0.930 . S
C264 C262 1.419 . S
C264 C265 1.362 . S
C265 H255 0.930 . S
C265 C258 1.409 . S
C265 C264 1.362 . S
H266 C272 0.930 . S
H267 C275 0.930 . S
H268 C276 0.930 . S
H269 C277 0.930 . S
H270 C280 0.930 . S
H271 C281 0.930 . S
C272 H266 0.930 . S
C272 C273 1.355 . S
C272 C274 1.415 . S
C273 C272 1.355 . S
C273 C275 1.419 . S
C274 C272 1.415 . S
C274 C279 1.425 . S
C274 C281 1.409 . S
C275 H267 0.930 . S
C275 C273 1.419 . S
C275 C276 1.362 . S
C276 H268 0.930 . S
C276 C275 1.362 . S
C276 C279 1.409 . S
C277 H269 0.930 . S
C277 C278 1.355 . S
C277 C279 1.415 . S
C278 C277 1.355 . S
C278 C280 1.419 . S
C279 C274 1.425 . S
C279 C276 1.409 . S
C279 C277 1.415 . S
C280 H270 0.930 . S
C280 C278 1.419 . S
C280 C281 1.362 . S
C281 H271 0.930 . S
C281 C274 1.409 . S
C281 C280 1.362 . S
H282 C288 0.930 . S
H283 C291 0.930 . S
H284 C292 0.930 . S
H285 C293 0.930 . S
H286 C296 0.930 . S
H287 C297 0.930 . S
C288 H282 0.930 . S
C288 C289 1.355 . S
C288 C290 1.415 . S
C289 C288 1.355 . S
C289 C291 1.419 . S
C290 C288 1.415 . S
C290 C295 1.425 . S
C290 C297 1.409 . S
C291 H283 0.930 . S
C291 C289 1.419 . S
C291 C292 1.362 . S
C292 H284 0.930 . S
C292 C291 1.362 . S
C292 C295 1.409 . S
C293 H285 0.930 . S
C293 C294 1.355 . S
C293 C295 1.415 . S
C294 C293 1.355 . S
C294 C296 1.419 . S
C295 C290 1.425 . S
C295 C292 1.409 . S
C295 C293 1.415 . S
C296 H286 0.930 . S
C296 C294 1.419 . S
C296 C297 1.362 . S
C297 H287 0.930 . S
C297 C290 1.409 . S
C297 C296 1.362 . S
H298 C304 0.930 . S
H299 C307 0.930 . S
H300 C308 0.930 . S
H301 C309 0.930 . S
H302 C312 0.930 . S
H303 C313 0.930 . S
C304 H298 0.930 . S
C304 C305 1.355 . S
C304 C306 1.415 . S
C305 C304 1.355 . S
C305 C307 1.419 . S
C306 C304 1.415 . S
C306 C311 1.425 . S
C306 C313 1.409 . S
C307 H299 0.930 . S
C307 C305 1.419 . S
C307 C308 1.362 . S
C308 H300 0.930 . S
C308 C307 1.362 . S
C308 C311 1.409 . S
C309 H301 0.930 . S
C309 C310 1.355 . S
C309 C311 1.415 . S
C310 C309 1.355 . S
C310 C312 1.419 . S
C311 C306 1.425 . S
C311 C308 1.409 . S
C311 C309 1.415 . S
C312 H302 0.930 . S
C312 C310 1.419 . S
C312 C313 1.362 . S
C313 H303 0.930 . S
C313 C306 1.409 . S
C313 C312 1.362 . S
H314 C320 0.930 . S
H315 C323 0.930 . S
H316 C324 0.930 . S
H317 C325 0.930 . S
H318 C328 0.930 . S
H319 C329 0.930 . S
C320 H314 0.930 . S
C320 C321 1.355 . S
C320 C322 1.415 . S
C321 C320 1.355 . S
C321 C323 1.419 . S
C322 C320 1.415 . S
C322 C327 1.425 . S
C322 C329 1.409 . S
C323 H315 0.930 . S
C323 C321 1.419 . S
C323 C324 1.362 . S
C324 H316 0.930 . S
C324 C323 1.362 . S
C324 C327 1.409 . S
C325 H317 0.930 . S
C325 C326 1.355 . S
C325 C327 1.415 . S
C326 C325 1.355 . S
C326 C328 1.419 . S
C327 C322 1.425 . S
C327 C324 1.409 . S
C327 C325 1.415 . S
C328 H318 0.930 . S
C328 C326 1.419 . S
C328 C329 1.362 . S
C329 H319 0.930 . S
C329 C322 1.409 . S
C329 C328 1.362 . S
H330 C336 0.930 . S
H331 C339 0.930 . S
H332 C340 0.930 . S
H333 C341 0.930 . S
H334 C344 0.930 . S
H335 C345 0.930 . S
C336 H330 0.930 . S
C336 C337 1.355 . S
C336 C338 1.415 . S
C337 C336 1.355 . S
C337 C339 1.419 . S
C338 C336 1.415 . S
C338 C343 1.425 . S
C338 C345 1.409 . S
C339 H331 0.930 . S
C339 C337 1.419 . S
C339 C340 1.362 . S
C340 H332 0.930 . S
C340 C339 1.362 . S
C340 C343 1.409 . S
C341 H333 0.930 . S
C341 C342 1.355 . S
C341 C343 1.415 . S
C342 C341 1.355 . S
C342 C344 1.419 . S
C343 C338 1.425 . S
C343 C340 1.409 . S
C343 C341 1.415 . S
C344 H334 0.930 . S
C344 C342 1.419 . S
C344 C345 1.362 . S
C345 H335 0.930 . S
C345 C338 1.409 . S
C345 C344 1.362 . S
H346 C352 0.930 . S
H347 C355 0.930 . S
H348 C356 0.930 . S
H349 C357 0.930 . S
H350 C360 0.930 . S
H351 C361 0.930 . S
C352 H346 0.930 . S
C352 C353 1.355 . S
C352 C354 1.415 . S
C353 C352 1.355 . S
C353 C355 1.419 . S
C354 C352 1.415 . S
C354 C359 1.425 . S
C354 C361 1.409 . S
C355 H347 0.930 . S
C355 C353 1.419 . S
C355 C356 1.362 . S
C356 H348 0.930 . S
C356 C355 1.362 . S
C356 C359 1.409 . S
C357 H349 0.930 . S
C357 C358 1.355 . S
C357 C359 1.415 . S
C358 C357 1.355 . S
C358 C360 1.419 . S
C359 C354 1.425 . S
C359 C356 1.409 . S
C359 C357 1.415 . S
C360 H350 0.930 . S
C360 C358 1.419 . S
C360 C361 1.362 . S
C361 H351 0.930 . S
C361 C354 1.409 . S
C361 C360 1.362 . S
H362 C368 0.930 . S
H363 C371 0.930 . S
H364 C372 0.930 . S
H365 C373 0.930 . S
H366 C376 0.930 . S
H367 C377 0.930 . S
C368 H362 0.930 . S
C368 C369 1.355 . S
C368 C370 1.415 . S
C369 C368 1.355 . S
C369 C371 1.419 . S
C370 C368 1.415 . S
C370 C375 1.425 . S
C370 C377 1.409 . S
C371 H363 0.930 . S
C371 C369 1.419 . S
C371 C372 1.362 . S
C372 H364 0.930 . S
C372 C371 1.362 . S
C372 C375 1.409 . S
C373 H365 0.930 . S
C373 C374 1.355 . S
C373 C375 1.415 . S
C374 C373 1.355 . S
C374 C376 1.419 . S
C375 C370 1.425 . S
C375 C372 1.409 . S
C375 C373 1.415 . S
C376 H366 0.930 . S
C376 C374 1.419 . S
C376 C377 1.362 . S
C377 H367 0.930 . S
C377 C370 1.409 . S
C377 C376 1.362 . S
H378 C384 0.930 . S
H379 C387 0.930 . S
H380 C388 0.930 . S
H381 C389 0.930 . S
H382 C392 0.930 . S
H383 C393 0.930 . S
C384 H378 0.930 . S
C384 C385 1.355 . S
C384 C386 1.415 . S
C385 C384 1.355 . S
C385 C387 1.419 . S
C386 C384 1.415 . S
C386 C391 1.425 . S
C386 C393 1.409 . S
C387 H379 0.930 . S
C387 C385 1.419 . S
C387 C388 1.362 . S
C388 H380 0.930 . S
C388 C387 1.362 . S
C388 C391 1.409 . S
C389 H381 0.930 . S
C389 C390 1.355 . S
C389 C391 1.415 . S
C390 C389 1.355 . S
C390 C392 1.419 . S
C391 C386 1.425 . S
C391 C388 1.409 . S
C391 C389 1.415 . S
C392 H382 0.930 . S
C392 C390 1.419 . S
C392 C393 1.362 . S
C393 H383 0.930 . S
C393 C386 1.409 . S
C393 C392 1.362 . S
H394 C400 0.930 . S
H395 C403 0.930 . S
H396 C404 0.930 . S
H397 C405 0.930 . S
H398 C408 0.930 . S
H399 C409 0.930 . S
C400 H394 0.930 . S
C400 C401 1.355 . S
C400 C402 1.415 . S
C401 C400 1.355 . S
C401 C403 1.419 . S
C402 C400 1.415 . S
C402 C407 1.425 . S
C402 C409 1.409 . S
C403 H395 0.930 . S
C403 C401 1.419 . S
C403 C404 1.362 . S
C404 H396 0.930 . S
C404 C403 1.362 . S
C404 C407 1.409 . S
C405 H397 0.930 . S
C405 C406 1.355 . S
C405 C407 1.415 . S
C406 C405 1.355 . S
C406 C408 1.419 . S
C407 C402 1.425 . S
C407 C404 1.409 . S
C407 C405 1.415 . S
C408 H398 0.930 . S
C408 C406 1.419 . S
C408 C409 1.362 . S
C409 H399 0.930 . S
C409 C402 1.409 . S
C409 C408 1.362 . S
H410 C416 0.930 . S
H411 C419 0.930 . S
H412 C420 0.930 . S
H413 C421 0.930 . S
H414 C424 0.930 . S
H415 C425 0.930 . S
C416 H410 0.930 . S
C416 C417 1.355 . S
C416 C418 1.415 . S
C417 C416 1.355 . S
C417 C419 1.419 . S
C418 C416 1.415 . S
C418 C423 1.425 . S
C418 C425 1.409 . S
C419 H411 0.930 . S
C419 C417 1.419 . S
C419 C420 1.362 . S
C420 H412 0.930 . S
C420 C419 1.362 . S
C420 C423 1.409 . S
C421 H413 0.930 . S
C421 C422 1.355 . S
C421 C423 1.415 . S
C422 C421 1.355 . S
C422 C424 1.419 . S
C423 C418 1.425 . S
C423 C420 1.409 . S
C423 C421 1.415 . S
C424 H414 0.930 . S
C424 C422 1.419 . S
C424 C425 1.362 . S
C425 H415 0.930 . S
C425 C418 1.409 . S
C425 C424 1.362 . S
H426 C432 0.930 . S
H427 C435 0.930 1_655 S
H428 C436 0.930 . S
H429 C437 0.930 . S
H430 C440 0.930 . S
H431 C441 0.930 . S
C432 H426 0.930 . S
C432 C433 1.355 . S
C432 C434 1.415 . S
C433 C432 1.355 . S
C433 C435 1.419 . S
C434 C432 1.415 . S
C434 C439 1.425 . S
C434 C441 1.409 . S
C435 H427 0.930 1_455 S
C435 C433 1.419 . S
C435 C436 1.362 1_455 S
C436 H428 0.930 . S
C436 C435 1.362 1_655 S
C436 C439 1.409 1_655 S
C437 H429 0.930 . S
C437 C438 1.355 . S
C437 C439 1.415 1_556 S
C438 C437 1.355 . S
C438 C440 1.419 . S
C439 C434 1.425 . S
C439 C436 1.409 1_455 S
C439 C437 1.415 1_554 S
C440 H430 0.930 . S
C440 C438 1.419 . S
C440 C441 1.362 1_556 S
C441 H431 0.930 . S
C441 C434 1.409 . S
C441 C440 1.362 1_554 S
H442 C448 0.930 . S
H443 C451 0.930 . S
H444 C452 0.930 . S
H445 C453 0.930 . S
H446 C456 0.930 . S
H447 C457 0.925 . S
C448 H442 0.930 . S
C448 C449 1.355 . S
C448 C450 1.415 . S
C449 C448 1.355 . S
C449 C451 1.419 . S
C450 C448 1.415 . S
C450 C455 1.425 . S
C450 C457 1.409 . S
C451 H443 0.930 . S
C451 C449 1.419 . S
C451 C452 1.362 . S
C452 H444 0.930 . S
C452 C451 1.362 . S
C452 C455 1.409 . S
C453 H445 0.930 . S
C453 C454 1.355 . S
C453 C455 1.415 . S
C454 C453 1.355 . S
C454 C456 1.419 . S
C455 C450 1.425 . S
C455 C452 1.409 . S
C455 C453 1.415 . S
C456 H446 0.930 . S
C456 C454 1.419 . S
C456 C457 1.362 . S
C457 H447 0.925 . S
C457 C450 1.409 . S
C457 C456 1.362 . S
H458 C464 0.930 . S
H459 C467 0.930 . S
H460 C468 0.930 . S
H461 C469 0.930 . S
H462 C472 0.930 . S
H463 C473 0.930 . S
C464 H458 0.930 . S
C464 C465 1.355 . S
C464 C466 1.415 . S
C465 C464 1.355 . S
C465 C467 1.419 . S
C466 C464 1.415 . S
C466 C471 1.425 . S
C466 C473 1.409 . S
C467 H459 0.930 . S
C467 C465 1.419 . S
C467 C468 1.362 . S
C468 H460 0.930 . S
C468 C467 1.362 . S
C468 C471 1.409 . S
C469 H461 0.930 . S
C469 C470 1.355 . S
C469 C471 1.415 . S
C470 C469 1.355 . S
C470 C472 1.419 . S
C471 C466 1.425 . S
C471 C468 1.409 . S
C471 C469 1.415 . S
C472 H462 0.930 . S
C472 C470 1.419 . S
C472 C473 1.362 . S
C473 H463 0.930 . S
C473 C466 1.409 . S
C473 C472 1.362 . S
H474 C480 0.930 . S
H475 C483 0.930 . S
H476 C484 0.930 . S
H477 C485 0.930 . S
H478 C488 0.930 . S
H479 C489 0.930 . S
C480 H474 0.930 . S
C480 C481 1.355 . S
C480 C482 1.415 . S
C481 C480 1.355 . S
C481 C483 1.419 . S
C482 C480 1.415 . S
C482 C487 1.425 . S
C482 C489 1.409 . S
C483 H475 0.930 . S
C483 C481 1.419 . S
C483 C484 1.362 . S
C484 H476 0.930 . S
C484 C483 1.362 . S
C484 C487 1.409 . S
C485 H477 0.930 . S
C485 C486 1.355 . S
C485 C487 1.415 . S
C486 C485 1.355 . S
C486 C488 1.419 . S
C487 C482 1.425 . S
C487 C484 1.409 . S
C487 C485 1.415 . S
C488 H478 0.930 . S
C488 C486 1.419 . S
C488 C489 1.362 . S
C489 H479 0.930 . S
C489 C482 1.409 . S
C489 C488 1.362 . S
H490 C496 0.930 . S
H491 C499 0.930 . S
H492 C500 0.930 . S
H493 C501 0.930 . S
H494 C504 0.930 . S
H495 C505 0.926 1_556 S
C496 H490 0.930 . S
C496 C497 1.355 . S
C496 C498 1.415 . S
C497 C496 1.355 . S
C497 C499 1.419 . S
C498 C496 1.415 . S
C498 C503 1.425 . S
C498 C505 1.402 1_556 S
C499 H491 0.930 . S
C499 C497 1.419 . S
C499 C500 1.362 . S
C500 H492 0.930 . S
C500 C499 1.362 . S
C500 C503 1.409 . S
C501 H493 0.930 . S
C501 C502 1.355 . S
C501 C503 1.415 1_554 S
C502 C501 1.355 . S
C502 C504 1.419 . S
C503 C498 1.425 . S
C503 C500 1.409 . S
C503 C501 1.415 1_556 S
C504 H494 0.930 . S
C504 C502 1.419 . S
C504 C505 1.373 . S
C505 H495 0.926 1_554 S
C505 C498 1.402 1_554 S
C505 C504 1.373 . S
H506 C512 0.930 . S
H507 C515 0.930 . S
H508 C516 0.930 . S
H509 C517 0.930 . S
H510 C520 0.930 . S
H511 C521 0.930 . S
C512 H506 0.930 . S
C512 C513 1.355 . S
C512 C514 1.415 . S
C513 C512 1.355 . S
C513 C515 1.419 . S
C514 C512 1.415 . S
C514 C519 1.425 . S
C514 C521 1.409 . S
C515 H507 0.930 . S
C515 C513 1.419 . S
C515 C516 1.362 . S
C516 H508 0.930 . S
C516 C515 1.362 . S
C516 C519 1.409 . S
C517 H509 0.930 . S
C517 C518 1.355 . S
C517 C519 1.415 . S
C518 C517 1.355 . S
C518 C520 1.419 . S
C519 C514 1.425 . S
C519 C516 1.409 . S
C519 C517 1.415 . S
C520 H510 0.930 . S
C520 C518 1.419 . S
C520 C521 1.362 . S
C521 H511 0.930 . S
C521 C514 1.409 . S
C521 C520 1.362 . S
C241 C7 0.848 . S
C246 C226 0.775 . S
C257 C51 1.984 . S
C262 C188 1.942 . S
C273 C87 1.330 . S
C278 C207 1.279 . S
C289 C16 0.284 . S
C294 C221 0.267 . S
C310 C183 1.898 . S
C305 C42 1.916 . S
C326 C202 1.120 . S
C321 C96 1.151 . S
C337 C47 1.318 . S
C342 C150 1.218 . S
C353 C91 3.075 . S
C358 C164 3.029 1_655 S
C369 C2 1.950 . S
C374 C126 1.894 . S
C390 C145 1.129 . S
C385 C56 1.142 . S
C406 C169 3.041 . S
C401 C82 3.093 . S
C417 C11 2.009 . S
C422 C131 1.945 . S
C438 C160 1.724 . S
C433 C19 1.696 . S
C449 C50 1.412 . S
C454 C122 1.503 . S
C465 C99 1.521 . S
C470 C141 1.558 . S
C486 C198 1.555 . S
C481 C59 1.532 . S
C502 C217 1.364 . S
C497 C90 1.368 . S
C513 C10 1.389 . S
C518 C179 1.459 . S
