# Generated by pormake.
# Topology pyr, (3,6)-cn, num edge types: 1
# Building blocks:
#     Node 0, Type 0, BuildingBlock: BELTOD_clean_linker_0, # of connection points: 3
#     Node 1, Type 0, BuildingBlock: BELTOD_clean_linker_0, # of connection points: 3
#     Node 2, Type 0, BuildingBlock: BELTOD_clean_linker_0, # of connection points: 3
#     Node 3, Type 0, BuildingBlock: BELTOD_clean_linker_0, # of connection points: 3
#     Node 4, Type 0, BuildingBlock: BELTOD_clean_linker_0, # of connection points: 3
#     Node 5, Type 0, BuildingBlock: BELTOD_clean_linker_0, # of connection points: 3
#     Node 6, Type 0, BuildingBlock: BELTOD_clean_linker_0, # of connection points: 3
#     Node 7, Type 0, BuildingBlock: BELTOD_clean_linker_0, # of connection points: 3
#     Node 8, Type 1, BuildingBlock: MIFKUJ_clean_sbu_0, # of connection points: 6
#     Node 9, Type 1, BuildingBlock: MIFKUJ_clean_sbu_0, # of connection points: 6
#     Node 10, Type 1, BuildingBlock: MIFKUJ_clean_sbu_0, # of connection points: 6
#     Node 11, Type 1, BuildingBlock: MIFKUJ_clean_sbu_0, # of connection points: 6
#     Edge 12, Type (0, 1), BuildingBlock: ZUJKAS_clean_linker_0, # of connection points: 2
#     Edge 13, Type (0, 1), BuildingBlock: ZUJKAS_clean_linker_0, # of connection points: 2
#     Edge 14, Type (0, 1), BuildingBlock: ZUJKAS_clean_linker_0, # of connection points: 2
#     Edge 15, Type (0, 1), BuildingBlock: ZUJKAS_clean_linker_0, # of connection points: 2
#     Edge 16, Type (0, 1), BuildingBlock: ZUJKAS_clean_linker_0, # of connection points: 2
#     Edge 17, Type (0, 1), BuildingBlock: ZUJKAS_clean_linker_0, # of connection points: 2
#     Edge 18, Type (0, 1), BuildingBlock: ZUJKAS_clean_linker_0, # of connection points: 2
#     Edge 19, Type (0, 1), BuildingBlock: ZUJKAS_clean_linker_0, # of connection points: 2
#     Edge 20, Type (0, 1), BuildingBlock: ZUJKAS_clean_linker_0, # of connection points: 2
#     Edge 21, Type (0, 1), BuildingBlock: ZUJKAS_clean_linker_0, # of connection points: 2
#     Edge 22, Type (0, 1), BuildingBlock: ZUJKAS_clean_linker_0, # of connection points: 2
#     Edge 23, Type (0, 1), BuildingBlock: ZUJKAS_clean_linker_0, # of connection points: 2
#     Edge 24, Type (0, 1), BuildingBlock: ZUJKAS_clean_linker_0, # of connection points: 2
#     Edge 25, Type (0, 1), BuildingBlock: ZUJKAS_clean_linker_0, # of connection points: 2
#     Edge 26, Type (0, 1), BuildingBlock: ZUJKAS_clean_linker_0, # of connection points: 2
#     Edge 27, Type (0, 1), BuildingBlock: ZUJKAS_clean_linker_0, # of connection points: 2
#     Edge 28, Type (0, 1), BuildingBlock: ZUJKAS_clean_linker_0, # of connection points: 2
#     Edge 29, Type (0, 1), BuildingBlock: ZUJKAS_clean_linker_0, # of connection points: 2
#     Edge 30, Type (0, 1), BuildingBlock: ZUJKAS_clean_linker_0, # of connection points: 2
#     Edge 31, Type (0, 1), BuildingBlock: ZUJKAS_clean_linker_0, # of connection points: 2
#     Edge 32, Type (0, 1), BuildingBlock: ZUJKAS_clean_linker_0, # of connection points: 2
#     Edge 33, Type (0, 1), BuildingBlock: ZUJKAS_clean_linker_0, # of connection points: 2
#     Edge 34, Type (0, 1), BuildingBlock: ZUJKAS_clean_linker_0, # of connection points: 2
#     Edge 35, Type (0, 1), BuildingBlock: ZUJKAS_clean_linker_0, # of connection points: 2
# Relax obj value: 0.029
# Max RMSD: 0.083
# Mean RMSD: 0.052
data_MOF--net-pyr--node1-MIFKUJ_clean_sbu_0--node2-BELTOD_clean_linker_0--edge1-ZUJKAS_clean_linker_0
_symmetry_space_group_name_H-M    P1
_symmetry_Int_Tables_number       1
_symmetry_cell_setting            triclinic
loop_
_symmetry_equiv_pos_as_xyz
'x, y, z'
_cell_length_a     55.868251
_cell_length_b     50.540864
_cell_length_c     54.154093
_cell_angle_alpha  86.549803
_cell_angle_beta   88.715135
_cell_angle_gamma 95.596027
loop_
_atom_site_label
_atom_site_type_symbol
_atom_site_fract_x
_atom_site_fract_y
_atom_site_fract_z
_atom_type_partial_charge
P0 P 0.235 0.22832 0.24077 0.0
H1 H 0.28544 0.23757 0.22413 0.0
H2 H 0.31037 0.21348 0.19736 0.0
H3 H 0.25001 0.15474 0.18881 0.0
H4 H 0.22512 0.17922 0.21523 0.0
H5 H 0.19706 0.26083 0.25359 0.0
H6 H 0.16931 0.28516 0.22888 0.0
H7 H 0.20383 0.26302 0.16199 0.0
H8 H 0.23109 0.2383 0.18677 0.0
H9 H 0.24242 0.20568 0.29065 0.0
H10 H 0.18718 0.20005 0.23632 0.0
O11 O 0.25233 0.24909 0.2572 0.0
H12 H 0.2167 0.17567 0.31955 0.0
H13 H 0.16151 0.16998 0.26493 0.0
C14 C 0.2536 0.20987 0.22205 0.0
C15 C 0.27765 0.21938 0.21667 0.0
C16 C 0.29189 0.20557 0.2014 0.0
C17 C 0.2822 0.18212 0.19106 0.0
C18 C 0.25796 0.17283 0.19633 0.0
C19 C 0.24377 0.18665 0.21164 0.0
C20 C 0.21598 0.24761 0.22206 0.0
C21 C 0.19867 0.26133 0.23359 0.0
C22 C 0.18289 0.2753 0.21944 0.0
C23 C 0.18426 0.27592 0.19344 0.0
C24 C 0.202 0.26254 0.18196 0.0
C25 C 0.21774 0.24851 0.19616 0.0
C26 C 0.21644 0.20558 0.26164 0.0
C27 C 0.22476 0.19799 0.28497 0.0
C28 C 0.21012 0.18071 0.30137 0.0
C29 C 0.18698 0.1707 0.29459 0.0
C30 C 0.17905 0.17779 0.27087 0.0
C31 C 0.19372 0.19496 0.25449 0.0
P32 P 0.36647 0.89033 0.65014 0.0
H33 H 0.40736 0.91735 0.67395 0.0
H34 H 0.41589 0.92536 0.717 0.0
H35 H 0.3475 0.88266 0.74 0.0
H36 H 0.33905 0.87466 0.69668 0.0
H37 H 0.37742 0.87045 0.60252 0.0
H38 H 0.39015 0.82823 0.59001 0.0
H39 H 0.38603 0.79769 0.66641 0.0
H40 H 0.373 0.83996 0.67876 0.0
H41 H 0.34211 0.93525 0.63084 0.0
H42 H 0.32258 0.85304 0.65527 0.0
O43 O 0.38341 0.91363 0.63265 0.0
H44 H 0.30044 0.94003 0.6202 0.0
H45 H 0.28061 0.85774 0.64474 0.0
C46 C 0.37237 0.89586 0.68207 0.0
C47 C 0.39409 0.90987 0.6882 0.0
C48 C 0.39893 0.91451 0.71282 0.0
C49 C 0.38224 0.90491 0.73186 0.0
C50 C 0.36069 0.89031 0.72572 0.0
C51 C 0.35578 0.88586 0.70098 0.0
C52 C 0.37473 0.85852 0.64157 0.0
C53 C 0.37928 0.85467 0.61658 0.0
C54 C 0.38665 0.83057 0.60948 0.0
C55 C 0.38942 0.80972 0.62726 0.0
C56 C 0.38404 0.81334 0.65227 0.0
C57 C 0.37672 0.83757 0.65937 0.0
C58 C 0.33548 0.89367 0.64342 0.0
C59 C 0.32885 0.91819 0.63386 0.0
C60 C 0.30504 0.92088 0.62773 0.0
C61 C 0.28733 0.89917 0.63138 0.0
C62 C 0.29388 0.87481 0.64174 0.0
C63 C 0.31783 0.87207 0.64765 0.0
P64 P 0.69191 0.32682 0.80174 0.0
H65 H 0.73391 0.30757 0.82422 0.0
H66 H 0.76486 0.32747 0.85038 0.0
H67 H 0.72887 0.39941 0.85009 0.0
H68 H 0.69796 0.37928 0.82358 0.0
H69 H 0.68014 0.26944 0.79871 0.0
H70 H 0.65465 0.23606 0.82419 0.0
H71 H 0.63495 0.29707 0.87114 0.0
H72 H 0.66063 0.33062 0.84532 0.0
H73 H 0.70782 0.37393 0.76987 0.0
H74 H 0.64019 0.33051 0.79385 0.0
O75 O 0.7068 0.31103 0.781 0.0
H76 H 0.68672 0.40195 0.74092 0.0
H77 H 0.61907 0.35827 0.76498 0.0
C78 C 0.71396 0.34214 0.82155 0.0
C79 C 0.7327 0.32765 0.82976 0.0
C80 C 0.75028 0.33899 0.84492 0.0
C81 C 0.7494 0.36508 0.85232 0.0
C82 C 0.73025 0.37941 0.84444 0.0
C83 C 0.71256 0.36793 0.82931 0.0
C84 C 0.67235 0.30249 0.8202 0.0
C85 C 0.67037 0.27572 0.81445 0.0
C86 C 0.65585 0.25659 0.82912 0.0
C87 C 0.64291 0.26388 0.84979 0.0
C88 C 0.6446 0.29086 0.85526 0.0
C89 C 0.65931 0.31 0.84062 0.0
C90 C 0.67561 0.35037 0.78429 0.0
C91 C 0.68839 0.3708 0.76929 0.0
C92 C 0.67633 0.38664 0.7526 0.0
C93 C 0.65121 0.38228 0.75056 0.0
C94 C 0.63837 0.36239 0.76629 0.0
C95 C 0.65048 0.34645 0.78287 0.0
P96 P 0.82094 0.68545 0.28588 0.0
H97 H 0.84714 0.73764 0.27395 0.0
H98 H 0.87251 0.76782 0.29822 0.0
H99 H 0.86768 0.70822 0.35925 0.0
H100 H 0.84218 0.6781 0.33477 0.0
H101 H 0.80845 0.66309 0.23908 0.0
H102 H 0.82889 0.63554 0.21155 0.0
H103 H 0.88653 0.63169 0.26315 0.0
H104 H 0.86599 0.65968 0.29054 0.0
H105 H 0.79644 0.70011 0.33041 0.0
H106 H 0.79417 0.63222 0.28566 0.0
O107 O 0.8066 0.70576 0.26726 0.0
H108 H 0.76331 0.67815 0.35642 0.0
H109 H 0.76021 0.61061 0.31081 0.0
C110 C 0.84226 0.70594 0.30281 0.0
C111 C 0.8517 0.73097 0.29248 0.0
C112 C 0.86635 0.74815 0.30633 0.0
C113 C 0.87189 0.74055 0.33079 0.0
C114 C 0.86338 0.71485 0.34063 0.0
C115 C 0.84885 0.6976 0.32665 0.0
C116 C 0.83588 0.66381 0.26664 0.0
C117 C 0.82548 0.65631 0.24449 0.0
C118 C 0.83712 0.64034 0.22884 0.0
C119 C 0.85942 0.63143 0.23507 0.0
C120 C 0.86955 0.63852 0.25763 0.0
C121 C 0.85779 0.65445 0.27335 0.0
C122 C 0.79828 0.66755 0.30648 0.0
C123 C 0.78903 0.68028 0.32637 0.0
C124 C 0.76979 0.66782 0.34105 0.0
C125 C 0.75892 0.64256 0.33576 0.0
C126 C 0.76834 0.62982 0.31579 0.0
C127 C 0.78779 0.64223 0.30127 0.0
P128 P 0.8424 0.87232 0.85352 0.0
H129 H 0.81878 0.87413 0.9015 0.0
H130 H 0.77698 0.87667 0.91447 0.0
H131 H 0.75546 0.87094 0.83865 0.0
H132 H 0.79745 0.8687 0.82578 0.0
H133 H 0.88982 0.85534 0.84587 0.0
H134 H 0.90739 0.81387 0.85644 0.0
H135 H 0.83866 0.77914 0.8875 0.0
H136 H 0.82109 0.82041 0.87618 0.0
H137 H 0.85246 0.92412 0.82679 0.0
H138 H 0.84233 0.84179 0.80913 0.0
O139 O 0.858 0.8949 0.86965 0.0
H140 H 0.86228 0.9374 0.78332 0.0
H141 H 0.85257 0.85485 0.76562 0.0
C142 C 0.81122 0.87175 0.86268 0.0
C143 C 0.80503 0.87327 0.8877 0.0
C144 C 0.7811 0.87449 0.89511 0.0
C145 C 0.7629 0.87414 0.87756 0.0
C146 C 0.76912 0.87163 0.85254 0.0
C147 C 0.79311 0.87031 0.84518 0.0
C148 C 0.85424 0.84098 0.86034 0.0
C149 C 0.87852 0.8387 0.8548 0.0
C150 C 0.88855 0.81504 0.86098 0.0
C151 C 0.87447 0.79325 0.87299 0.0
C152 C 0.84995 0.79545 0.87805 0.0
C153 C 0.8399 0.81915 0.87175 0.0
C154 C 0.84731 0.88196 0.82119 0.0
C155 C 0.85234 0.90891 0.81352 0.0
C156 C 0.85802 0.91645 0.7887 0.0
C157 C 0.85857 0.89713 0.77112 0.0
C158 C 0.85227 0.8702 0.77871 0.0
C159 C 0.84661 0.86269 0.80359 0.0
P160 P 0.70142 0.20387 0.29531 0.0
H161 H 0.71413 0.2519 0.32086 0.0
H162 H 0.69155 0.27769 0.34829 0.0
H163 H 0.62948 0.22003 0.34472 0.0
H164 H 0.65222 0.19442 0.31708 0.0
H165 H 0.7483 0.18823 0.2811 0.0
H166 H 0.77772 0.16381 0.3032 0.0
H167 H 0.7299 0.15301 0.36764 0.0
H168 H 0.70032 0.17708 0.34514 0.0
H169 H 0.66415 0.21697 0.26169 0.0
H170 H 0.69558 0.14616 0.28763 0.0
O171 O 0.71716 0.22649 0.27607 0.0
H172 H 0.63893 0.19087 0.23389 0.0
H173 H 0.67015 0.11979 0.2601 0.0
C174 C 0.68469 0.22162 0.31653 0.0
C175 C 0.69567 0.24481 0.32601 0.0
C176 C 0.68278 0.25942 0.34184 0.0
C177 C 0.65865 0.25099 0.34859 0.0
C178 C 0.6479 0.22727 0.33955 0.0
C179 C 0.66089 0.2126 0.32378 0.0
C180 C 0.72241 0.18496 0.31168 0.0
C181 C 0.74418 0.18064 0.3 0.0
C182 C 0.76102 0.16676 0.3127 0.0
C183 C 0.75631 0.15677 0.33732 0.0
C184 C 0.73406 0.16039 0.34869 0.0
C185 C 0.71721 0.17432 0.33592 0.0
C186 C 0.6817 0.18354 0.27669 0.0
C187 C 0.6654 0.19572 0.26158 0.0
C188 C 0.6509 0.18073 0.24581 0.0
C189 C 0.6525 0.15321 0.24478 0.0
C190 C 0.66867 0.14098 0.26026 0.0
C191 C 0.68314 0.15604 0.27612 0.0
P192 P 0.35237 0.62057 0.16841 0.0
H193 H 0.3335 0.59061 0.12755 0.0
H194 H 0.29288 0.57855 0.11362 0.0
H195 H 0.26369 0.61943 0.1734 0.0
H196 H 0.30464 0.63098 0.18776 0.0
H197 H 0.39812 0.64528 0.14708 0.0
H198 H 0.4121 0.69061 0.13178 0.0
H199 H 0.34263 0.71589 0.15059 0.0
H200 H 0.32898 0.6705 0.1665 0.0
H201 H 0.33021 0.58049 0.20536 0.0
H202 H 0.38369 0.64817 0.20339 0.0
O203 O 0.37027 0.60047 0.15534 0.0
H204 H 0.34017 0.56866 0.24812 0.0
H205 H 0.39412 0.63621 0.24575 0.0
C206 C 0.32209 0.61143 0.15887 0.0
C207 C 0.31842 0.59679 0.13788 0.0
C208 C 0.29517 0.58989 0.1299 0.0
C209 C 0.27514 0.59796 0.14248 0.0
C210 C 0.27884 0.61304 0.16332 0.0
C211 C 0.30217 0.61957 0.17155 0.0
C212 C 0.36231 0.65433 0.1574 0.0
C213 C 0.38583 0.66051 0.14781 0.0
C214 C 0.39379 0.68648 0.13898 0.0
C215 C 0.3784 0.70688 0.13963 0.0
C216 C 0.35499 0.70072 0.14987 0.0
C217 C 0.34706 0.67467 0.15878 0.0
C218 C 0.3558 0.61555 0.20132 0.0
C219 C 0.34367 0.5932 0.21432 0.0
C220 C 0.34961 0.58627 0.23868 0.0
C221 C 0.36804 0.6014 0.2504 0.0
C222 C 0.37959 0.62432 0.23752 0.0
C223 C 0.37361 0.63121 0.21319 0.0
P224 P 0.18782 0.30812 0.72583 0.0
H225 H 0.18563 0.25035 0.72317 0.0
H226 H 0.16187 0.21887 0.69902 0.0
H227 H 0.12455 0.28301 0.66693 0.0
H228 H 0.14883 0.31469 0.69119 0.0
H229 H 0.21911 0.35632 0.73363 0.0
H230 H 0.25114 0.38165 0.70816 0.0
H231 H 0.23346 0.3321 0.64751 0.0
H232 H 0.20206 0.30646 0.6733 0.0
H233 H 0.16881 0.29615 0.77601 0.0
H234 H 0.16641 0.35914 0.71909 0.0
O235 O 0.2054 0.291 0.74399 0.0
H236 H 0.14582 0.32044 0.80418 0.0
H237 H 0.14273 0.38354 0.74712 0.0
C238 C 0.16889 0.28486 0.70909 0.0
C239 C 0.1722 0.2577 0.71116 0.0
C240 C 0.15848 0.23964 0.69738 0.0
C241 C 0.14118 0.24836 0.68112 0.0
C242 C 0.13781 0.27566 0.67917 0.0
C243 C 0.15154 0.29375 0.69312 0.0
C244 C 0.20786 0.32982 0.70528 0.0
C245 C 0.2218 0.35132 0.71466 0.0
C246 C 0.24012 0.3658 0.70004 0.0
C247 C 0.24498 0.3589 0.67575 0.0
C248 C 0.23045 0.33778 0.66622 0.0
C249 C 0.21222 0.32326 0.6809 0.0
C250 C 0.16972 0.32609 0.74566 0.0
C251 C 0.16322 0.31523 0.76954 0.0
C252 C 0.14985 0.32909 0.78559 0.0
C253 C 0.1424 0.35404 0.77799 0.0
C254 C 0.14847 0.36458 0.75372 0.0
C255 C 0.16191 0.35063 0.73764 0.0
Zn256 Zn 0.02523 0.99014 0.5187 0.0
Zn257 Zn 0.97689 0.00597 0.48937 0.0
C258 C 0.0491 0.04016 0.52993 0.0
O259 O 0.06503 0.03203 0.51462 0.0
C260 C 0.9572 0.95401 0.47787 0.0
O261 O 0.94095 0.95944 0.49423 0.0
O262 O 0.05361 0.97148 0.53036 0.0
O263 O 0.99529 0.96879 0.53325 0.0
O264 O 0.96997 0.99908 0.52584 0.0
C265 C 0.05559 0.96424 0.55306 0.0
O266 O 0.03825 0.96793 0.5689 0.0
O267 O 0.02931 0.02574 0.53425 0.0
C268 C 0.94716 0.02794 0.45263 0.0
O269 O 0.96354 0.01969 0.43793 0.0
O270 O 0.94916 0.02451 0.47591 0.0
O271 O 0.00693 0.02892 0.47796 0.0
O272 O 0.03001 0.99616 0.48171 0.0
O273 O 0.97536 0.97088 0.47298 0.0
C274 C 0.97603 0.97897 0.53855 0.0
C275 C 0.02553 0.01829 0.47138 0.0
Zn276 Zn 0.51169 0.98636 0.99872 0.0
Zn277 Zn 0.47537 0.01968 0.02186 0.0
C278 C 0.47892 0.95704 0.96822 0.0
O279 O 0.48559 0.93718 0.98236 0.0
C280 C 0.50679 0.04989 0.05181 0.0
O281 O 0.49715 0.0687 0.03878 0.0
O282 O 0.53941 0.96682 0.98807 0.0
O283 O 0.52431 0.0251 0.99712 0.0
O284 O 0.48883 0.03863 0.98978 0.0
C285 C 0.54767 0.97164 0.96603 0.0
O286 O 0.53808 0.98931 0.95155 0.0
O287 O 0.48715 0.9807 0.97222 0.0
C288 C 0.43932 0.03237 0.0551 0.0
O289 O 0.44826 0.01295 0.06796 0.0
O290 O 0.44784 0.03908 0.03342 0.0
O291 O 0.46271 0.98072 0.02351 0.0
O292 O 0.49843 0.96802 0.03088 0.0
O293 O 0.50057 0.0257 0.04772 0.0
C294 C 0.51163 0.04226 0.98737 0.0
C295 C 0.47568 0.96382 0.03321 0.0
Zn296 Zn 0.51338 0.48094 0.49445 0.0
Zn297 Zn 0.49203 0.52614 0.52477 0.0
C298 C 0.54499 0.50968 0.45903 0.0
O299 O 0.53103 0.49463 0.4452 0.0
C300 C 0.45995 0.49618 0.55978 0.0
O301 O 0.47421 0.50957 0.57461 0.0
O302 O 0.52174 0.44726 0.47941 0.0
O303 O 0.51498 0.47344 0.53134 0.0
O304 O 0.52236 0.51518 0.54058 0.0
C305 C 0.54196 0.43938 0.48506 0.0
O306 O 0.55521 0.45266 0.50081 0.0
O307 O 0.54057 0.50853 0.48225 0.0
C308 C 0.46377 0.56781 0.53632 0.0
O309 O 0.44817 0.55295 0.524 0.0
O310 O 0.48475 0.56052 0.53917 0.0
O311 O 0.49061 0.53311 0.48765 0.0
O312 O 0.48257 0.49114 0.47945 0.0
O313 O 0.46431 0.49915 0.53656 0.0
C314 C 0.52449 0.49059 0.54532 0.0
C315 C 0.48073 0.51569 0.47413 0.0
Zn316 Zn 0.99394 0.5155 0.99013 0.0
Zn317 Zn 0.01153 0.4714 0.0246 0.0
C318 C 0.96152 0.48587 0.96052 0.0
O319 O 0.9768 0.49801 0.94374 0.0
C320 C 0.04476 0.49955 0.0538 0.0
O321 O 0.03039 0.4856 0.07035 0.0
O322 O 0.98693 0.54942 0.97161 0.0
O323 O 0.9932 0.52434 0.02605 0.0
O324 O 0.9817 0.48349 0.04048 0.0
C325 C 0.9667 0.55731 0.97725 0.0
O326 O 0.95288 0.54331 0.99426 0.0
O327 O 0.96531 0.48931 0.98324 0.0
C328 C 0.03902 0.42924 0.03678 0.0
O329 O 0.05032 0.44012 0.01658 0.0
O330 O 0.01987 0.43848 0.04401 0.0
O331 O 0.01171 0.46212 0.9888 0.0
O332 O 0.02375 0.50287 0.97451 0.0
O333 O 0.0399 0.49824 0.03101 0.0
C334 C 0.9818 0.50845 0.04229 0.0
C335 C 0.02325 0.47789 0.97256 0.0
H336 H 0.19851 0.12896 0.32523 0.0
H337 H 0.17171 0.10064 0.35452 0.0
H338 H 0.11264 0.14536 0.33354 0.0
H339 H 0.13921 0.1736 0.30425 0.0
H340 H 0.14561 0.11479 0.3946 0.0
H341 H 0.08448 0.06912 0.32632 0.0
H342 H 0.11319 0.08713 0.31747 0.0
H343 H 0.08744 0.10485 0.32338 0.0
C344 C 0.17981 0.13274 0.3269 0.0
C345 C 0.17091 0.15336 0.3123 0.0
C346 C 0.16452 0.1165 0.34355 0.0
C347 C 0.1401 0.12058 0.34584 0.0
C348 C 0.13127 0.1414 0.33156 0.0
H349 H 0.01899 0.06232 0.44143 0.0
H350 H 0.04764 0.08613 0.41103 0.0
C351 C 0.14649 0.15754 0.31486 0.0
C352 C 0.12395 0.10371 0.36375 0.0
H353 H 0.07109 0.06346 0.36868 0.0
C354 C 0.12945 0.10333 0.38893 0.0
C355 C 0.10291 0.08876 0.35626 0.0
C356 C 0.09674 0.08723 0.32936 0.0
C357 C 0.11403 0.08904 0.40692 0.0
C358 C 0.09274 0.07465 0.39945 0.0
C359 C 0.08741 0.07467 0.37428 0.0
C360 C 0.07547 0.05987 0.41759 0.0
C361 C 0.12022 0.09003 0.43386 0.0
C362 C 0.08162 0.03706 0.43104 0.0
C363 C 0.06528 0.02332 0.44833 0.0
C364 C 0.04254 0.03226 0.45249 0.0
C365 C 0.03639 0.05499 0.43875 0.0
C366 C 0.05269 0.0686 0.42136 0.0
H367 H 0.135 0.10576 0.43687 0.0
H368 H 0.1042 0.09368 0.4452 0.0
H369 H 0.12603 0.07054 0.44056 0.0
H370 H 0.09906 0.02989 0.42813 0.0
H371 H 0.07059 0.0059 0.45862 0.0
H372 H 0.37641 0.8697 0.77251 0.0
H373 H 0.38772 0.87776 0.81513 0.0
H374 H 0.41194 0.95944 0.79262 0.0
H375 H 0.40044 0.95165 0.75015 0.0
H376 H 0.43565 0.89588 0.82887 0.0
H377 H 0.36942 0.96484 0.85557 0.0
H378 H 0.36497 0.94349 0.83013 0.0
H379 H 0.38486 0.97369 0.82633 0.0
C380 C 0.38375 0.88948 0.77676 0.0
C381 C 0.38759 0.91003 0.75799 0.0
C382 C 0.39028 0.89402 0.80106 0.0
C383 C 0.40039 0.91927 0.80705 0.0
C384 C 0.4038 0.93994 0.78846 0.0
H385 H 0.46961 0.99201 0.92987 0.0
H386 H 0.4488 0.98172 0.89181 0.0
C387 C 0.39746 0.93537 0.76416 0.0
C388 C 0.40908 0.92361 0.83227 0.0
H389 H 0.40263 0.9611 0.88195 0.0
C390 C 0.42828 0.90989 0.84064 0.0
C391 C 0.3995 0.94206 0.84742 0.0
C392 C 0.37841 0.95674 0.83956 0.0
C393 C 0.43874 0.91477 0.86346 0.0
C394 C 0.42929 0.93339 0.87859 0.0
C395 C 0.40981 0.94681 0.87036 0.0
C396 C 0.44004 0.93989 0.90256 0.0
C397 C 0.46043 0.90072 0.87064 0.0
C398 C 0.44135 0.91998 0.92156 0.0
C399 C 0.4534 0.92575 0.94323 0.0
C400 C 0.46407 0.95163 0.94645 0.0
C401 C 0.46164 0.97185 0.92794 0.0
C402 C 0.44975 0.96601 0.90618 0.0
H403 H 0.46906 0.89259 0.85443 0.0
H404 H 0.47405 0.91438 0.87939 0.0
H405 H 0.45473 0.8838 0.88418 0.0
H406 H 0.43344 0.89985 0.91943 0.0
H407 H 0.4547 0.9098 0.95727 0.0
H408 H 0.60827 0.40413 0.75443 0.0
H409 H 0.58657 0.4257 0.72125 0.0
H410 H 0.64376 0.41476 0.66916 0.0
H411 H 0.66563 0.39353 0.70221 0.0
H412 H 0.62806 0.46379 0.66218 0.0
H413 H 0.55041 0.38608 0.6686 0.0
H414 H 0.55621 0.40192 0.69694 0.0
H415 H 0.57801 0.38207 0.68441 0.0
C416 C 0.61621 0.40635 0.7359 0.0
C417 C 0.63864 0.39702 0.73095 0.0
C418 C 0.60376 0.4186 0.71694 0.0
C419 C 0.61332 0.42141 0.6926 0.0
C420 C 0.636 0.41279 0.68777 0.0
H421 H 0.53842 0.44106 0.5564 0.0
H422 H 0.56011 0.426 0.59239 0.0
C423 C 0.64853 0.40073 0.70673 0.0
C424 C 0.59962 0.43281 0.67197 0.0
H425 H 0.54732 0.42334 0.64075 0.0
C426 C 0.61037 0.455 0.65751 0.0
C427 C 0.57668 0.4211 0.66568 0.0
C428 C 0.5647 0.39633 0.67954 0.0
C429 C 0.59888 0.46574 0.63692 0.0
C430 C 0.57575 0.45432 0.63092 0.0
C431 C 0.56496 0.43222 0.64546 0.0
C432 C 0.56286 0.46406 0.60895 0.0
C433 C 0.612 0.48862 0.62131 0.0
C434 C 0.55702 0.49048 0.60627 0.0
C435 C 0.54474 0.49926 0.58552 0.0
C436 C 0.53778 0.48166 0.56722 0.0
C437 C 0.54345 0.45516 0.57012 0.0
C438 C 0.55586 0.44649 0.59073 0.0
H439 H 0.63165 0.49039 0.62449 0.0
H440 H 0.60912 0.48625 0.60131 0.0
H441 H 0.60503 0.5075 0.62623 0.0
H442 H 0.56172 0.50426 0.62035 0.0
H443 H 0.54046 0.51973 0.58397 0.0
H444 H 0.84025 0.59086 0.20792 0.0
H445 H 0.86081 0.567 0.17711 0.0
H446 H 0.92797 0.61215 0.1917 0.0
H447 H 0.90754 0.63619 0.22247 0.0
H448 H 0.88466 0.58869 0.13467 0.0
H449 H 0.94664 0.53599 0.1942 0.0
H450 H 0.92127 0.55096 0.20663 0.0
H451 H 0.94867 0.57126 0.19761 0.0
C452 C 0.85942 0.59567 0.20464 0.0
C453 C 0.87223 0.61548 0.21768 0.0
C454 C 0.87116 0.58192 0.18709 0.0
C455 C 0.89598 0.58754 0.18228 0.0
C456 C 0.90891 0.60703 0.19548 0.0
H457 H 0.97645 0.56058 0.04961 0.0
H458 H 0.95523 0.57856 0.08372 0.0
C459 C 0.89719 0.62078 0.21308 0.0
C460 C 0.90801 0.57416 0.1624 0.0
H461 H 0.95402 0.5364 0.15059 0.0
C462 C 0.89973 0.57712 0.13819 0.0
C463 C 0.9275 0.55881 0.16703 0.0
C464 C 0.93643 0.5538 0.19281 0.0
C465 C 0.91075 0.56571 0.11841 0.0
C466 C 0.93084 0.55127 0.12287 0.0
C467 C 0.93875 0.5477 0.14717 0.0
C468 C 0.9441 0.54017 0.10245 0.0
C469 C 0.90067 0.56908 0.09292 0.0
C470 C 0.94543 0.5126 0.10193 0.0
C471 C 0.95767 0.50219 0.08242 0.0
C472 C 0.96897 0.51921 0.06319 0.0
C473 C 0.96789 0.54685 0.06403 0.0
C474 C 0.95564 0.5572 0.08347 0.0
H475 H 0.8818 0.57423 0.09373 0.0
H476 H 0.91165 0.5855 0.08214 0.0
H477 H 0.90126 0.55065 0.08284 0.0
H478 H 0.93676 0.49912 0.11647 0.0
H479 H 0.95824 0.48083 0.08242 0.0
H480 H 0.32872 0.17133 0.1977 0.0
H481 H 0.35354 0.14691 0.17113 0.0
H482 H 0.29479 0.13495 0.1214 0.0
H483 H 0.26982 0.15947 0.14785 0.0
H484 H 0.31621 0.08892 0.13313 0.0
H485 H 0.38496 0.17211 0.10389 0.0
H486 H 0.38078 0.16735 0.13687 0.0
H487 H 0.3565 0.17733 0.11834 0.0
C488 C 0.32118 0.16381 0.18094 0.0
C489 C 0.29733 0.16743 0.17483 0.0
C490 C 0.33539 0.14989 0.16577 0.0
C491 C 0.32613 0.13952 0.14409 0.0
C492 C 0.3023 0.14291 0.138 0.0
H493 H 0.41805 0.07475 0.03447 0.0
H494 H 0.38863 0.10026 0.05417 0.0
C495 C 0.28804 0.1568 0.15319 0.0
C496 C 0.34108 0.1243 0.12829 0.0
H497 H 0.39466 0.12829 0.09609 0.0
C498 C 0.33326 0.09758 0.12482 0.0
C499 C 0.36311 0.13577 0.11715 0.0
C500 C 0.37175 0.16479 0.11901 0.0
C501 C 0.34734 0.08171 0.11127 0.0
C502 C 0.36999 0.09278 0.1013 0.0
C503 C 0.37739 0.11977 0.10397 0.0
C504 C 0.38672 0.07648 0.08888 0.0
C505 C 0.33783 0.05324 0.10775 0.0
C506 C 0.39544 0.05475 0.1019 0.0
C507 C 0.41216 0.04013 0.09072 0.0
C508 C 0.42066 0.0471 0.06633 0.0
C509 C 0.4118 0.06881 0.05325 0.0
C510 C 0.39503 0.08342 0.06448 0.0
H511 H 0.31789 0.05032 0.1098 0.0
H512 H 0.3432 0.04708 0.08925 0.0
H513 H 0.34531 0.03996 0.12204 0.0
H514 H 0.38968 0.04941 0.12094 0.0
H515 H 0.41871 0.02363 0.10138 0.0
H516 H 0.24554 0.88302 0.65788 0.0
H517 H 0.20425 0.88955 0.6459 0.0
H518 H 0.23138 0.92843 0.57643 0.0
H519 H 0.27254 0.92196 0.58819 0.0
H520 H 0.18779 0.94288 0.63095 0.0
H521 H 0.17665 0.86929 0.55882 0.0
H522 H 0.19829 0.86712 0.583 0.0
H523 H 0.20432 0.89083 0.55705 0.0
C524 C 0.24264 0.89269 0.63995 0.0
C525 C 0.26224 0.90204 0.62398 0.0
C526 C 0.21911 0.89648 0.63319 0.0
C527 C 0.21483 0.90925 0.61021 0.0
C528 C 0.23432 0.91828 0.59413 0.0
H529 H 0.09781 0.96252 0.52694 0.0
H530 H 0.13544 0.94775 0.5422 0.0
C531 C 0.25781 0.91475 0.60096 0.0
C532 C 0.19014 0.91435 0.60332 0.0
H533 H 0.14713 0.89985 0.56108 0.0
C534 C 0.17871 0.93329 0.61588 0.0
C535 C 0.17854 0.9019 0.58354 0.0
C536 C 0.18993 0.88098 0.56987 0.0
C537 C 0.15627 0.94089 0.60858 0.0
C538 C 0.1447 0.92862 0.58858 0.0
C539 C 0.15598 0.90922 0.57639 0.0
C540 C 0.12142 0.93647 0.57932 0.0
C541 C 0.1457 0.9628 0.62165 0.0
C542 C 0.10086 0.93452 0.59496 0.0
C543 C 0.07934 0.94318 0.58635 0.0
C544 C 0.0779 0.95358 0.5618 0.0
C545 C 0.0983 0.95463 0.54594 0.0
C546 C 0.11984 0.94618 0.55464 0.0
H547 H 0.15952 0.97473 0.63187 0.0
H548 H 0.1373 0.97642 0.60833 0.0
H549 H 0.13162 0.95385 0.63525 0.0
H550 H 0.10147 0.92644 0.61389 0.0
H551 H 0.0639 0.94187 0.59897 0.0
H552 H 0.77111 0.34191 0.89184 0.0
H553 H 0.8053 0.36084 0.91468 0.0
H554 H 0.80611 0.43463 0.87021 0.0
H555 H 0.77199 0.41582 0.84721 0.0
H556 H 0.85019 0.37844 0.89536 0.0
H557 H 0.81027 0.46026 0.94009 0.0
H558 H 0.7922 0.43353 0.92663 0.0
H559 H 0.80638 0.46104 0.90725 0.0
C560 C 0.77849 0.36222 0.88698 0.0
C561 C 0.76882 0.37733 0.86764 0.0
C562 C 0.79797 0.37304 0.90013 0.0
C563 C 0.80811 0.39925 0.89436 0.0
C564 C 0.79825 0.41457 0.87538 0.0
H565 H 0.95076 0.47187 0.91395 0.0
H566 H 0.91347 0.44897 0.90009 0.0
C567 C 0.77873 0.40377 0.86222 0.0
C568 C 0.82999 0.4099 0.90702 0.0
H569 H 0.85324 0.46173 0.9397 0.0
C570 C 0.85078 0.39651 0.90527 0.0
C571 C 0.83069 0.43328 0.92024 0.0
C572 C 0.80863 0.44774 0.92392 0.0
C573 C 0.87246 0.40638 0.91556 0.0
C574 C 0.87348 0.43048 0.92765 0.0
C575 C 0.85248 0.44336 0.93024 0.0
C576 C 0.89643 0.44335 0.93655 0.0
C577 C 0.89412 0.39095 0.91331 0.0
C578 C 0.89919 0.44808 0.96167 0.0
C579 C 0.9206 0.46124 0.96971 0.0
C580 C 0.93948 0.47018 0.95268 0.0
C581 C 0.93664 0.46521 0.92758 0.0
C582 C 0.91535 0.45198 0.91962 0.0
H583 H 0.88882 0.36969 0.91012 0.0
H584 H 0.90563 0.39966 0.89732 0.0
H585 H 0.905 0.39198 0.93021 0.0
H586 H 0.88474 0.4417 0.97502 0.0
H587 H 0.92215 0.4649 0.98914 0.0
H588 H 0.74713 0.58958 0.34988 0.0
H589 H 0.71067 0.56918 0.37198 0.0
H590 H 0.68593 0.64675 0.37817 0.0
H591 H 0.72155 0.66718 0.35491 0.0
H592 H 0.69251 0.57466 0.41791 0.0
H593 H 0.62878 0.60739 0.34801 0.0
H594 H 0.66085 0.61018 0.34208 0.0
H595 H 0.64756 0.63447 0.35956 0.0
C596 C 0.73381 0.60232 0.35564 0.0
C597 C 0.73731 0.63007 0.35037 0.0
C598 C 0.71306 0.59062 0.36849 0.0
C599 C 0.69534 0.60637 0.37638 0.0
C600 C 0.69907 0.63411 0.37181 0.0
H601 H 0.57726 0.54486 0.48115 0.0
H602 H 0.61363 0.56978 0.46219 0.0
C603 C 0.71969 0.64581 0.35879 0.0
C604 C 0.67293 0.59373 0.38926 0.0
H605 H 0.61168 0.58724 0.38582 0.0
C606 C 0.67482 0.57739 0.41091 0.0
C607 C 0.64986 0.59706 0.37995 0.0
C608 C 0.64657 0.613 0.356 0.0
C609 C 0.65432 0.56428 0.42348 0.0
C610 C 0.63122 0.56813 0.41448 0.0
C611 C 0.62935 0.58453 0.39288 0.0
C612 C 0.60881 0.55397 0.42615 0.0
C613 C 0.65766 0.54575 0.44577 0.0
C614 C 0.59353 0.53758 0.41202 0.0
C615 C 0.57263 0.52372 0.42265 0.0
C616 C 0.5665 0.52584 0.44774 0.0
C617 C 0.58155 0.54266 0.46182 0.0
C618 C 0.60245 0.55675 0.45106 0.0
H619 H 0.67628 0.5398 0.44641 0.0
H620 H 0.65419 0.55602 0.46284 0.0
H621 H 0.6449 0.52747 0.44583 0.0
H622 H 0.59798 0.53518 0.39275 0.0
H623 H 0.56148 0.51096 0.41123 0.0
H624 H 0.16818 0.32433 0.20111 0.0
H625 H 0.14017 0.34805 0.17614 0.0
H626 H 0.13453 0.28456 0.12619 0.0
H627 H 0.16179 0.26023 0.15155 0.0
H628 H 0.14632 0.36615 0.12766 0.0
H629 H 0.06422 0.2951 0.14007 0.0
H630 H 0.08988 0.2933 0.15958 0.0
H631 H 0.09012 0.28016 0.12945 0.0
C632 C 0.16066 0.31519 0.18505 0.0
C633 C 0.16718 0.29035 0.17836 0.0
C634 C 0.14477 0.32884 0.17074 0.0
C635 C 0.135 0.31787 0.14954 0.0
C636 C 0.14147 0.29312 0.14276 0.0
H637 H 0.07844 0.40413 0.02535 0.0
H638 H 0.10051 0.37596 0.05303 0.0
C639 C 0.15733 0.27943 0.15709 0.0
C640 C 0.1191 0.33304 0.13376 0.0
H641 H 0.06362 0.32982 0.1082 0.0
C642 C 0.12819 0.35827 0.12352 0.0
C643 C 0.09535 0.32284 0.12865 0.0
C644 C 0.08419 0.29648 0.1402 0.0
C645 C 0.11439 0.37336 0.10783 0.0
C646 C 0.09103 0.36267 0.10186 0.0
C647 C 0.08166 0.33775 0.11258 0.0
C648 C 0.07619 0.37727 0.08448 0.0
C649 C 0.12485 0.40072 0.09796 0.0
C650 C 0.05459 0.38626 0.09271 0.0
C651 C 0.0418 0.40225 0.07687 0.0
C652 C 0.05043 0.40942 0.05254 0.0
C653 C 0.07142 0.39919 0.04404 0.0
C654 C 0.08413 0.38319 0.05985 0.0
H655 H 0.14005 0.40861 0.10916 0.0
H656 H 0.13175 0.39958 0.07872 0.0
H657 H 0.11095 0.41501 0.09768 0.0
H658 H 0.04812 0.38173 0.11165 0.0
H659 H 0.02567 0.40979 0.08396 0.0
H660 H 0.65503 0.21513 0.86668 0.0
H661 H 0.63017 0.1803 0.89147 0.0
H662 H 0.57249 0.23094 0.8939 0.0
H663 H 0.59722 0.26592 0.86879 0.0
H664 H 0.60696 0.18516 0.94052 0.0
H665 H 0.5427 0.15878 0.86661 0.0
H666 H 0.57207 0.17631 0.85976 0.0
H667 H 0.54852 0.19344 0.8726 0.0
C668 C 0.637 0.21882 0.87236 0.0
C669 C 0.62801 0.24321 0.86562 0.0
C670 C 0.62289 0.19896 0.88663 0.0
C671 C 0.59945 0.20297 0.89427 0.0
C672 C 0.59047 0.22739 0.88794 0.0
H673 H 0.49118 0.08686 0.97027 0.0
H674 H 0.51152 0.12738 0.94903 0.0
C675 C 0.60467 0.2474 0.87377 0.0
C676 C 0.58455 0.18142 0.90888 0.0
H677 H 0.53684 0.13433 0.90498 0.0
C678 C 0.59153 0.17412 0.93285 0.0
C679 C 0.56436 0.16723 0.89883 0.0
C680 C 0.55641 0.17411 0.87299 0.0
C681 C 0.57899 0.15278 0.94701 0.0
C682 C 0.55933 0.13788 0.93662 0.0
C683 C 0.55195 0.14568 0.91288 0.0
C684 C 0.54693 0.11345 0.94964 0.0
C685 C 0.58685 0.14652 0.97301 0.0
C686 C 0.55999 0.09199 0.95662 0.0
C687 C 0.54848 0.06893 0.96883 0.0
C688 C 0.52356 0.06666 0.97403 0.0
C689 C 0.51039 0.08797 0.96657 0.0
C690 C 0.52198 0.11115 0.95445 0.0
H691 H 0.59648 0.1643 0.98078 0.0
H692 H 0.57126 0.13919 0.98549 0.0
H693 H 0.5994 0.13083 0.97276 0.0
H694 H 0.57913 0.09298 0.95248 0.0
H695 H 0.55914 0.05281 0.97405 0.0
H696 H 0.86178 0.75024 0.37882 0.0
H697 H 0.88128 0.78482 0.40334 0.0
H698 H 0.93143 0.80951 0.34272 0.0
H699 H 0.91184 0.77507 0.31796 0.0
H700 H 0.92748 0.79528 0.419 0.0
H701 H 0.90299 0.87837 0.35563 0.0
H702 H 0.89034 0.84442 0.35333 0.0
H703 H 0.92016 0.85506 0.34116 0.0
C704 C 0.87717 0.76278 0.37081 0.0
C705 C 0.88517 0.76 0.34637 0.0
C706 C 0.88824 0.78262 0.38482 0.0
C707 C 0.90752 0.8001 0.37472 0.0
C708 C 0.91619 0.79671 0.35068 0.0
H709 H 0.98166 0.94136 0.43638 0.0
H710 H 0.97236 0.90285 0.41153 0.0
C711 C 0.90502 0.77697 0.33658 0.0
C712 C 0.91806 0.82219 0.38924 0.0
H713 H 0.92656 0.89006 0.38964 0.0
C714 C 0.92736 0.816 0.41253 0.0
C715 C 0.91789 0.84926 0.3808 0.0
C716 C 0.90713 0.85728 0.35648 0.0
C717 C 0.93634 0.83611 0.42766 0.0
C718 C 0.9358 0.8631 0.41938 0.0
C719 C 0.92705 0.86932 0.39587 0.0
C720 C 0.94276 0.88522 0.4354 0.0
C721 C 0.9463 0.82834 0.45243 0.0
C722 C 0.92921 0.88802 0.45704 0.0
C723 C 0.93436 0.91002 0.47116 0.0
C724 C 0.95319 0.92968 0.46393 0.0
C725 C 0.96711 0.92652 0.44252 0.0
C726 C 0.96181 0.90457 0.42828 0.0
H727 H 0.95128 0.80755 0.45327 0.0
H728 H 0.96238 0.84194 0.45644 0.0
H729 H 0.93243 0.82975 0.46714 0.0
H730 H 0.91418 0.87356 0.46264 0.0
H731 H 0.92327 0.91184 0.48752 0.0
H732 H 0.37278 0.75843 0.64287 0.0
H733 H 0.3867 0.71714 0.629 0.0
H734 H 0.43984 0.76284 0.58061 0.0
H735 H 0.426 0.80411 0.59429 0.0
H736 H 0.41426 0.72367 0.55713 0.0
H737 H 0.44765 0.68253 0.64571 0.0
H738 H 0.41705 0.69043 0.64761 0.0
H739 H 0.44089 0.71666 0.64115 0.0
C740 C 0.38764 0.75966 0.62952 0.0
C741 C 0.39825 0.78454 0.61963 0.0
C742 C 0.39561 0.73605 0.62166 0.0
C743 C 0.41451 0.73691 0.60399 0.0
C744 C 0.42524 0.76171 0.59427 0.0
H745 H 0.492 0.60451 0.56094 0.0
H746 H 0.48032 0.6457 0.57731 0.0
C747 C 0.41723 0.78527 0.60202 0.0
C748 C 0.42241 0.71204 0.59468 0.0
H749 H 0.44497 0.65363 0.61253 0.0
C750 C 0.42106 0.7084 0.56923 0.0
C751 C 0.43156 0.69229 0.61044 0.0
C752 C 0.43463 0.6957 0.63772 0.0
C753 C 0.42824 0.68539 0.55916 0.0
C754 C 0.43658 0.66521 0.57504 0.0
C755 C 0.43835 0.66902 0.60043 0.0
C756 C 0.44351 0.64001 0.56558 0.0
C757 C 0.42719 0.68311 0.53154 0.0
C758 C 0.42658 0.62296 0.55393 0.0
C759 C 0.43321 0.59953 0.54447 0.0
C760 C 0.45686 0.59254 0.54668 0.0
C761 C 0.47367 0.60938 0.55883 0.0
C762 C 0.46702 0.63289 0.56824 0.0
H763 H 0.42684 0.7029 0.5215 0.0
H764 H 0.44281 0.67355 0.52444 0.0
H765 H 0.41051 0.67065 0.52725 0.0
H766 H 0.4082 0.62778 0.55215 0.0
H767 H 0.41974 0.58691 0.53543 0.0
H768 H 0.89694 0.93216 0.75597 0.0
H769 H 0.91187 0.94439 0.71378 0.0
H770 H 0.85487 0.89177 0.68558 0.0
H771 H 0.83976 0.87928 0.72801 0.0
H772 H 0.8989 0.88604 0.66418 0.0
H773 H 0.88368 0.99261 0.66189 0.0
H774 H 0.90081 0.98314 0.68803 0.0
H775 H 0.87028 0.96863 0.68551 0.0
C776 C 0.88731 0.92351 0.7408 0.0
C777 C 0.86701 0.90497 0.7453 0.0
C778 C 0.89587 0.93053 0.71668 0.0
C779 C 0.88419 0.91941 0.69653 0.0
C780 C 0.86403 0.90072 0.7009 0.0
H781 H 0.92943 0.98738 0.54881 0.0
H782 H 0.90454 0.97032 0.58506 0.0
C783 C 0.85547 0.89357 0.7251 0.0
C784 C 0.89379 0.92668 0.67106 0.0
H785 H 0.91182 0.98028 0.63147 0.0
C786 C 0.90143 0.90659 0.65684 0.0
C787 C 0.89664 0.95342 0.66132 0.0
C788 C 0.88718 0.97564 0.67488 0.0
C789 C 0.91295 0.91273 0.6336 0.0
C790 C 0.91743 0.93971 0.6247 0.0
C791 C 0.90871 0.95962 0.63843 0.0
C792 C 0.93183 0.948 0.60171 0.0
C793 C 0.92019 0.89023 0.61888 0.0
C794 C 0.95544 0.94107 0.59896 0.0
C795 C 0.96964 0.95057 0.57813 0.0
C796 C 0.96064 0.96764 0.55991 0.0
C797 C 0.93694 0.9744 0.56261 0.0
C798 C 0.92266 0.96462 0.58328 0.0
H799 H 0.90858 0.87145 0.62387 0.0
H800 H 0.91916 0.89501 0.59868 0.0
H801 H 0.93899 0.88661 0.62311 0.0
H802 H 0.96316 0.9289 0.61325 0.0
H803 H 0.98787 0.94515 0.57667 0.0
H804 H 0.66677 0.1148 0.21558 0.0
H805 H 0.64361 0.09178 0.18402 0.0
H806 H 0.5826 0.13408 0.20138 0.0
H807 H 0.60533 0.15656 0.23347 0.0
H808 H 0.57049 0.07959 0.19428 0.0
H809 H 0.62907 0.12993 0.11755 0.0
H810 H 0.64425 0.11196 0.14109 0.0
H811 H 0.62994 0.14086 0.14866 0.0
C812 C 0.64829 0.11888 0.21298 0.0
C813 C 0.63796 0.1377 0.22691 0.0
C814 C 0.63517 0.1059 0.19476 0.0
C815 C 0.61154 0.11157 0.19009 0.0
C816 C 0.60088 0.12956 0.20459 0.0
H817 H 0.52391 0.09968 0.06373 0.0
H818 H 0.55023 0.11191 0.09739 0.0
C819 C 0.61396 0.14253 0.22278 0.0
C820 C 0.59808 0.0996 0.16956 0.0
H821 H 0.59711 0.09942 0.10654 0.0
C822 C 0.57637 0.08371 0.17509 0.0
C823 C 0.60573 0.10527 0.14455 0.0
C824 C 0.62841 0.1231 0.13747 0.0
C825 C 0.5619 0.07363 0.15624 0.0
C826 C 0.56954 0.07936 0.13124 0.0
C827 C 0.59143 0.09489 0.12574 0.0
C828 C 0.55417 0.07132 0.11047 0.0
C829 C 0.53813 0.05784 0.16318 0.0
C830 C 0.54793 0.04437 0.10641 0.0
C831 C 0.53279 0.03726 0.08711 0.0
C832 C 0.52372 0.05701 0.07155 0.0
C833 C 0.53047 0.08395 0.07541 0.0
C834 C 0.54557 0.091 0.09463 0.0
H835 H 0.5328 0.05962 0.18286 0.0
H836 H 0.52367 0.06456 0.15128 0.0
H837 H 0.53956 0.03648 0.16035 0.0
H838 H 0.55472 0.02887 0.11818 0.0
H839 H 0.52801 0.01633 0.08455 0.0
H840 H 0.37395 0.55045 0.26759 0.0
H841 H 0.39052 0.53575 0.30687 0.0
H842 H 0.39936 0.61697 0.32795 0.0
H843 H 0.38199 0.63178 0.28902 0.0
H844 H 0.43609 0.55076 0.32287 0.0
H845 H 0.36725 0.57769 0.38985 0.0
H846 H 0.36181 0.57601 0.35721 0.0
H847 H 0.37887 0.60463 0.36843 0.0
C848 C 0.37884 0.56515 0.2808 0.0
C849 C 0.37649 0.59232 0.27514 0.0
C850 C 0.38852 0.55672 0.30318 0.0
C851 C 0.39595 0.57519 0.32048 0.0
C852 C 0.39335 0.60227 0.31509 0.0
H853 H 0.47157 0.56619 0.45864 0.0
H854 H 0.45096 0.58017 0.42139 0.0
C855 C 0.38366 0.61075 0.29269 0.0
C856 C 0.40772 0.56626 0.34344 0.0
H857 H 0.40365 0.56476 0.40659 0.0
C858 C 0.42891 0.55366 0.34118 0.0
C859 C 0.3984 0.57018 0.36732 0.0
C860 C 0.37521 0.58265 0.37095 0.0
C861 C 0.44124 0.54526 0.3621 0.0
C862 C 0.43193 0.54916 0.38597 0.0
C863 C 0.41075 0.56178 0.38827 0.0
C864 C 0.44403 0.54043 0.40876 0.0
C865 C 0.46447 0.53285 0.35845 0.0
C866 C 0.44667 0.51337 0.41423 0.0
C867 C 0.45847 0.50529 0.4355 0.0
C868 C 0.46779 0.52411 0.4518 0.0
C869 C 0.46475 0.55117 0.44644 0.0
C870 C 0.45291 0.55921 0.42519 0.0
H871 H 0.47217 0.53729 0.33939 0.0
H872 H 0.47804 0.54003 0.37183 0.0
H873 H 0.46099 0.5109 0.3616 0.0
H874 H 0.43956 0.49848 0.40204 0.0
H875 H 0.46038 0.4843 0.43909 0.0
H876 H 0.10689 0.33422 0.8118 0.0
H877 H 0.08721 0.35809 0.84315 0.0
H878 H 0.12712 0.43164 0.81566 0.0
H879 H 0.14737 0.40783 0.78448 0.0
H880 H 0.1127 0.3888 0.87986 0.0
H881 H 0.05557 0.44929 0.8207 0.0
H882 H 0.06754 0.41977 0.81035 0.0
H883 H 0.0868 0.4502 0.81149 0.0
C884 C 0.11156 0.35547 0.81238 0.0
C885 C 0.12887 0.36904 0.79565 0.0
C886 C 0.10017 0.3691 0.83025 0.0
C887 C 0.10559 0.39664 0.83164 0.0
C888 C 0.12241 0.41044 0.81467 0.0
H889 H 0.0513 0.50525 0.9352 0.0
H890 H 0.07234 0.4866 0.90105 0.0
C891 C 0.13392 0.39678 0.79681 0.0
C892 C 0.09454 0.41049 0.85176 0.0
H893 H 0.05501 0.45601 0.86346 0.0
C894 C 0.1001 0.40352 0.87629 0.0
C895 C 0.07833 0.42987 0.84702 0.0
C896 C 0.07149 0.43771 0.821 0.0
C897 C 0.0898 0.41532 0.89625 0.0
C898 C 0.07299 0.43412 0.89161 0.0
C899 C 0.06782 0.44152 0.86702 0.0
C900 C 0.06001 0.44558 0.91207 0.0
C901 C 0.0973 0.40773 0.92213 0.0
C902 C 0.04575 0.42878 0.92935 0.0
C903 C 0.03385 0.43933 0.94889 0.0
C904 C 0.03569 0.46698 0.95148 0.0
C905 C 0.04957 0.48386 0.93383 0.0
C906 C 0.06158 0.47324 0.91428 0.0
H907 H 0.1152 0.39989 0.92203 0.0
H908 H 0.09801 0.42501 0.93391 0.0
H909 H 0.08403 0.39183 0.93063 0.0
H910 H 0.04377 0.40744 0.92769 0.0
H911 H 0.02317 0.42573 0.96198 0.0
H912 H 0.73228 0.90571 0.85416 0.0
H913 H 0.69306 0.91646 0.86937 0.0
H914 H 0.69789 0.86288 0.9337 0.0
H915 H 0.73712 0.85187 0.91856 0.0
H916 H 0.64908 0.88436 0.88377 0.0
H917 H 0.69143 0.9361 0.96202 0.0
H918 H 0.70872 0.92695 0.93588 0.0
H919 H 0.6977 0.90213 0.95962 0.0
C920 C 0.72479 0.89579 0.87129 0.0
C921 C 0.73791 0.87813 0.88529 0.0
C922 C 0.70243 0.90204 0.88 0.0
C923 C 0.69283 0.89081 0.90284 0.0
C924 C 0.70526 0.87215 0.91625 0.0
H925 H 0.57092 0.93317 0.99062 0.0
H926 H 0.60468 0.91078 0.97524 0.0
C927 C 0.72765 0.86591 0.90759 0.0
C928 C 0.6705 0.89984 0.91318 0.0
H929 H 0.64933 0.93465 0.95971 0.0
C930 C 0.64906 0.89525 0.90043 0.0
C931 C 0.6706 0.91403 0.93492 0.0
C932 C 0.69335 0.92034 0.94887 0.0
C933 C 0.62764 0.90455 0.90885 0.0
C934 C 0.62787 0.91923 0.9303 0.0
C935 C 0.64922 0.92334 0.9433 0.0
C936 C 0.60651 0.93159 0.93904 0.0
C937 C 0.60494 0.89844 0.89481 0.0
C938 C 0.59651 0.95085 0.92384 0.0
C939 C 0.57725 0.96367 0.93255 0.0
C940 C 0.56777 0.95763 0.95673 0.0
C941 C 0.57781 0.93829 0.97192 0.0
C942 C 0.59706 0.92544 0.96316 0.0
H943 H 0.60603 0.88079 0.88371 0.0
H944 H 0.58897 0.89475 0.90757 0.0
H945 H 0.6023 0.91572 0.88188 0.0
H946 H 0.60391 0.95637 0.90538 0.0
H947 H 0.57001 0.97855 0.92041 0.0
H948 H 0.74967 0.11175 0.36865 0.0
H949 H 0.78041 0.08943 0.39114 0.0
H950 H 0.83539 0.14801 0.35903 0.0
H951 H 0.80483 0.17083 0.33713 0.0
H952 H 0.81995 0.06728 0.37165 0.0
H953 H 0.84911 0.14762 0.43291 0.0
H954 H 0.8215 0.14708 0.41616 0.0
H955 H 0.84977 0.15862 0.40074 0.0
C956 C 0.76827 0.12007 0.36665 0.0
C957 C 0.77479 0.1431 0.35112 0.0
C958 C 0.78581 0.10722 0.37939 0.0
C959 C 0.81013 0.11728 0.37702 0.0
C960 C 0.81669 0.14018 0.36148 0.0
H961 H 0.93817 0.03886 0.40386 0.0
H962 H 0.904 0.05957 0.38657 0.0
C963 C 0.79921 0.153 0.34873 0.0
C964 C 0.82882 0.1034 0.39006 0.0
H965 H 0.8747 0.11263 0.43024 0.0
C966 C 0.83181 0.07709 0.38462 0.0
C967 C 0.84404 0.11612 0.40723 0.0
C968 C 0.84084 0.14383 0.41483 0.0
C969 C 0.85013 0.06347 0.39529 0.0
C970 C 0.8661 0.07667 0.41151 0.0
C971 C 0.86261 0.10266 0.41758 0.0
C972 C 0.88678 0.06403 0.42207 0.0
C973 C 0.85214 0.03502 0.38918 0.0
C974 C 0.88879 0.06032 0.4478 0.0
C975 C 0.90842 0.04865 0.45778 0.0
C976 C 0.92648 0.04061 0.44218 0.0
C977 C 0.92453 0.04466 0.41641 0.0
C978 C 0.90491 0.05634 0.40647 0.0
H979 H 0.83492 0.02557 0.38242 0.0
H980 H 0.86609 0.03468 0.37432 0.0
H981 H 0.85747 0.02291 0.40557 0.0
H982 H 0.87507 0.06628 0.46017 0.0
H983 H 0.90939 0.04587 0.47771 0.0
H984 H 0.23938 0.63035 0.1335 0.0
H985 H 0.19965 0.61812 0.11678 0.0
H986 H 0.21574 0.53641 0.11549 0.0
H987 H 0.25567 0.54877 0.13131 0.0
H988 H 0.19625 0.55111 0.0738 0.0
H989 H 0.14072 0.58133 0.15146 0.0
H990 H 0.16106 0.60806 0.13766 0.0
H991 H 0.17274 0.57991 0.15344 0.0
C992 C 0.23427 0.60975 0.12986 0.0
C993 C 0.25054 0.59049 0.13374 0.0
C994 C 0.21154 0.60275 0.12039 0.0
C995 C 0.20448 0.57623 0.1152 0.0
C996 C 0.22072 0.55699 0.1193 0.0
H997 H 0.06379 0.49692 0.09956 0.0
H998 H 0.10218 0.51773 0.11252 0.0
C999 C 0.24352 0.56405 0.12837 0.0
C1000 C 0.18049 0.5684 0.10491 0.0
H1001 H 0.11998 0.56753 0.11611 0.0
C1002 C 0.17956 0.55473 0.08305 0.0
C1003 C 0.15869 0.57296 0.11704 0.0
C1004 C 0.15826 0.58613 0.14132 0.0
C1005 C 0.15756 0.545 0.07329 0.0
C1006 C 0.13575 0.54986 0.08523 0.0
C1007 C 0.13667 0.56402 0.10681 0.0
C1008 C 0.11187 0.53843 0.07702 0.0
C1009 C 0.158 0.52859 0.05092 0.0
C1010 C 0.10418 0.54343 0.05277 0.0
C1011 C 0.08221 0.53115 0.04512 0.0
C1012 C 0.06735 0.51408 0.06175 0.0
C1013 C 0.07473 0.50996 0.08623 0.0
C1014 C 0.09673 0.5219 0.09372 0.0
H1015 H 0.17582 0.52106 0.04797 0.0
H1016 H 0.14408 0.51128 0.05279 0.0
H1017 H 0.15429 0.54113 0.0342 0.0
H1018 H 0.11522 0.55667 0.0397 0.0
H1019 H 0.07694 0.5349 0.02621 0.0
H1020 H 0.26135 0.41213 0.67273 0.0
H1021 H 0.29736 0.43376 0.65058 0.0
H1022 H 0.31196 0.35853 0.62297 0.0
H1023 H 0.27659 0.33657 0.6458 0.0
H1024 H 0.35166 0.38453 0.64192 0.0
H1025 H 0.30863 0.45322 0.57704 0.0
H1026 H 0.30031 0.45632 0.60887 0.0
H1027 H 0.29177 0.42574 0.59454 0.0
C1028 C 0.27221 0.40017 0.66195 0.0
C1029 C 0.26596 0.37259 0.661 0.0
C1030 C 0.29265 0.41263 0.64904 0.0
C1031 C 0.30716 0.39785 0.63478 0.0
C1032 C 0.30092 0.37038 0.63368 0.0
H1033 H 0.42447 0.46878 0.53444 0.0
H1034 H 0.38776 0.44315 0.55177 0.0
C1035 C 0.28054 0.3579 0.6466 0.0
C1036 C 0.32954 0.41069 0.62206 0.0
H1037 H 0.35126 0.46114 0.58026 0.0
C1038 C 0.35155 0.40116 0.6283 0.0
C1039 C 0.32938 0.43214 0.60403 0.0
C1040 C 0.30624 0.44232 0.59551 0.0
C1041 C 0.37342 0.41295 0.61755 0.0
C1042 C 0.37335 0.43518 0.60039 0.0
C1043 C 0.35131 0.44424 0.59359 0.0
C1044 C 0.39599 0.44982 0.58989 0.0
C1045 C 0.39641 0.40138 0.62457 0.0
C1046 C 0.41274 0.46215 0.60554 0.0
C1047 C 0.4337 0.47672 0.59573 0.0
C1048 C 0.4383 0.47944 0.57001 0.0
C1049 C 0.42154 0.46698 0.55434 0.0
C1050 C 0.40052 0.45239 0.56419 0.0
H1051 H 0.3929 0.38032 0.63194 0.0
H1052 H 0.40919 0.40231 0.60847 0.0
H1053 H 0.40512 0.41301 0.63925 0.0
H1054 H 0.40941 0.4609 0.62538 0.0
H1055 H 0.44613 0.48616 0.60835 0.0
H1056 H 0.91829 0.78994 0.89372 0.0
H1057 H 0.93619 0.7499 0.90831 0.0
H1058 H 0.87341 0.70122 0.88655 0.0
H1059 H 0.85568 0.74119 0.87103 0.0
H1060 H 0.91773 0.71367 0.94517 0.0
H1061 H 0.92851 0.66424 0.85741 0.0
H1062 H 0.92294 0.69879 0.85819 0.0
H1063 H 0.89857 0.6729 0.86329 0.0
C1064 C 0.90848 0.77071 0.89153 0.0
C1065 C 0.88559 0.76876 0.88108 0.0
C1066 C 0.91868 0.74785 0.90004 0.0
C1067 C 0.90627 0.7226 0.89821 0.0
C1068 C 0.88349 0.7205 0.88769 0.0
H1069 H 0.92452 0.57858 0.98564 0.0
H1070 H 0.91094 0.61889 0.96587 0.0
C1071 C 0.87326 0.74338 0.87913 0.0
C1072 C 0.91657 0.69864 0.90879 0.0
H1073 H 0.9339 0.63822 0.89477 0.0
C1074 C 0.92141 0.69725 0.93412 0.0
C1075 C 0.92161 0.67741 0.89426 0.0
C1076 C 0.91787 0.67842 0.86673 0.0
C1077 C 0.93064 0.67489 0.94547 0.0
C1078 C 0.93475 0.6532 0.93116 0.0
C1079 C 0.93051 0.65483 0.9057 0.0
C1080 C 0.94291 0.62842 0.94252 0.0
C1081 C 0.93602 0.67475 0.97266 0.0
C1082 C 0.96515 0.62007 0.93545 0.0
C1083 C 0.97298 0.5969 0.94667 0.0
C1084 C 0.95859 0.58168 0.96503 0.0
C1085 C 0.93614 0.58993 0.97171 0.0
C1086 C 0.92836 0.61302 0.9605 0.0
H1087 H 0.93805 0.69523 0.97926 0.0
H1088 H 0.92093 0.66324 0.98343 0.0
H1089 H 0.95272 0.66519 0.9766 0.0
H1090 H 0.97656 0.63166 0.92148 0.0
H1091 H 0.99031 0.591 0.94104 0.0
H1092 H 0.40559 0.72139 0.09746 0.0
H1093 H 0.4205 0.76623 0.08126 0.0
H1094 H 0.38431 0.7995 0.14152 0.0
H1095 H 0.37 0.75456 0.15844 0.0
H1096 H 0.39543 0.80825 0.0658 0.0
H1097 H 0.45307 0.83473 0.14466 0.0
H1098 H 0.44067 0.80101 0.14049 0.0
H1099 H 0.42213 0.82438 0.153 0.0
C1100 C 0.40103 0.7382 0.10749 0.0
C1101 C 0.38679 0.73432 0.12942 0.0
C1102 C 0.40942 0.76384 0.09807 0.0
C1103 C 0.40382 0.7862 0.11036 0.0
C1104 C 0.38922 0.78251 0.13198 0.0
H1105 H 0.42773 0.94887 0.04269 0.0
H1106 H 0.40929 0.90659 0.06217 0.0
C1107 C 0.38083 0.75681 0.14146 0.0
C1108 C 0.41321 0.81328 0.1003 0.0
H1109 H 0.44984 0.8686 0.11317 0.0
C1110 C 0.40726 0.8215 0.07617 0.0
C1111 C 0.42887 0.83039 0.11378 0.0
C1112 C 0.43679 0.82218 0.13934 0.0
C1113 C 0.4166 0.84632 0.06511 0.0
C1114 C 0.43198 0.86358 0.07872 0.0
C1115 C 0.43788 0.85541 0.10287 0.0
C1116 C 0.44303 0.88969 0.06779 0.0
C1117 C 0.41051 0.85347 0.03868 0.0
C1118 C 0.46814 0.89454 0.06517 0.0
C1119 C 0.47875 0.91873 0.05422 0.0
C1120 C 0.46443 0.93861 0.04572 0.0
C1121 C 0.43928 0.93391 0.04885 0.0
C1122 C 0.42869 0.9097 0.05987 0.0
H1123 H 0.40335 0.8357 0.02905 0.0
H1124 H 0.39654 0.86765 0.03852 0.0
H1125 H 0.42657 0.86322 0.02809 0.0
H1126 H 0.47955 0.87939 0.07124 0.0
H1127 H 0.49817 0.92168 0.05215 0.0
H1128 H 0.1303 0.25456 0.63208 0.0
H1129 H 0.11084 0.22106 0.60626 0.0
H1130 H 0.1018 0.1647 0.66958 0.0
H1131 H 0.12111 0.19806 0.6955 0.0
H1132 H 0.1232 0.14475 0.62946 0.0
H1133 H 0.04067 0.1902 0.60155 0.0
H1134 H 0.06801 0.2117 0.59575 0.0
H1135 H 0.0585 0.20131 0.62706 0.0
C1136 C 0.1237 0.23523 0.64062 0.0
C1137 C 0.12735 0.22897 0.66585 0.0
C1138 C 0.11255 0.21609 0.62584 0.0
C1139 C 0.10466 0.19043 0.63603 0.0
C1140 C 0.10773 0.18437 0.66132 0.0
H1141 H 0.02313 0.05949 0.56736 0.0
H1142 H 0.03582 0.09675 0.59265 0.0
C1143 C 0.11888 0.20343 0.67608 0.0
C1144 C 0.09489 0.16925 0.62008 0.0
H1145 H 0.05001 0.15235 0.58035 0.0
C1146 C 0.10714 0.14638 0.61881 0.0
C1147 C 0.07381 0.17128 0.60636 0.0
C1148 C 0.05931 0.19482 0.60786 0.0
C1149 C 0.09914 0.1257 0.60392 0.0
C1150 C 0.07852 0.12809 0.58957 0.0
C1151 C 0.06596 0.1507 0.59116 0.0
C1152 C 0.06984 0.10715 0.5729 0.0
C1153 C 0.1127 0.10128 0.60391 0.0
C1154 C 0.08444 0.10118 0.55298 0.0
C1155 C 0.07729 0.07995 0.53856 0.0
C1156 C 0.05531 0.0643 0.54368 0.0
C1157 C 0.0402 0.07108 0.56296 0.0
C1158 C 0.04741 0.09237 0.57743 0.0
H1159 H 0.1242 0.09961 0.62031 0.0
H1160 H 0.10012 0.08288 0.60369 0.0
H1161 H 0.12455 0.10253 0.58708 0.0
H1162 H 0.10162 0.11266 0.54888 0.0
H1163 H 0.08928 0.07547 0.52371 0.0
H1164 H 0.61231 0.26328 0.34299 0.0
H1165 H 0.59051 0.29311 0.36721 0.0
H1166 H 0.65153 0.30571 0.41394 0.0
H1167 H 0.67341 0.27589 0.38991 0.0
H1168 H 0.57815 0.29217 0.4183 0.0
H1169 H 0.64017 0.38129 0.38793 0.0
H1170 H 0.63969 0.35034 0.3729 0.0
H1171 H 0.65496 0.35422 0.40154 0.0
C1172 C 0.62097 0.27212 0.35862 0.0
C1173 C 0.64469 0.26742 0.36438 0.0
C1174 C 0.60852 0.28924 0.37237 0.0
C1175 C 0.61958 0.302 0.39206 0.0
C1176 C 0.64288 0.29654 0.39845 0.0
H1177 H 0.58445 0.41843 0.49329 0.0
H1178 H 0.60165 0.38376 0.47117 0.0
C1179 C 0.65535 0.27951 0.3847 0.0
C1180 C 0.60703 0.3215 0.40558 0.0
H1181 H 0.6117 0.38661 0.41996 0.0
C1182 C 0.58538 0.31286 0.41859 0.0
C1183 C 0.61645 0.3485 0.40578 0.0
C1184 C 0.63897 0.35927 0.39111 0.0
C1185 C 0.57326 0.33038 0.43241 0.0
C1186 C 0.58293 0.35726 0.43292 0.0
C1187 C 0.6044 0.36594 0.41965 0.0
C1188 C 0.57139 0.3768 0.44738 0.0
C1189 C 0.55058 0.31988 0.44688 0.0
C1190 C 0.54858 0.38431 0.4414 0.0
C1191 C 0.53864 0.40419 0.45404 0.0
C1192 C 0.55144 0.41698 0.47279 0.0
C1193 C 0.5741 0.40903 0.47897 0.0
C1194 C 0.58399 0.38921 0.46634 0.0
H1195 H 0.54854 0.29777 0.44906 0.0
H1196 H 0.55042 0.32791 0.46552 0.0
H1197 H 0.53479 0.32635 0.43695 0.0
H1198 H 0.53874 0.37532 0.42653 0.0
H1199 H 0.52121 0.40995 0.44875 0.0
loop_
_geom_bond_atom_site_label_1
_geom_bond_atom_site_label_2
_geom_bond_distance
_geom_bond_site_symmetry_2
_ccdc_geom_bond_type
P0 O11 1.490 . S
P0 C14 1.812 . S
P0 C20 1.803 . S
P0 C26 1.819 . S
H1 C15 0.941 . S
H2 C16 0.939 . S
H3 C18 0.940 . S
H4 C19 0.940 . S
H5 C21 0.939 . S
H6 C22 0.942 . S
H7 C24 0.940 . S
H8 C25 0.939 . S
H9 C27 0.941 . S
H10 C31 0.939 . S
O11 P0 1.490 . S
H12 C28 0.939 . S
H13 C30 0.940 . S
C14 P0 1.812 . S
C14 C15 1.389 . S
C14 C19 1.391 . S
C15 H1 0.941 . S
C15 C14 1.389 . S
C15 C16 1.397 . S
C16 H2 0.939 . S
C16 C15 1.397 . S
C16 C17 1.378 . S
C17 C16 1.378 . S
C17 C18 1.378 . S
C18 H3 0.940 . S
C18 C17 1.378 . S
C18 C19 1.396 . S
C19 H4 0.940 . S
C19 C14 1.391 . S
C19 C18 1.396 . S
C20 P0 1.803 . S
C20 C21 1.378 . S
C20 C25 1.400 . S
C21 H5 0.939 . S
C21 C20 1.378 . S
C21 C22 1.361 . S
C22 H6 0.942 . S
C22 C21 1.361 . S
C22 C23 1.369 . S
C23 C22 1.369 . S
C23 C24 1.404 . S
C24 H7 0.940 . S
C24 C23 1.404 . S
C24 C25 1.389 . S
C25 H8 0.939 . S
C25 C20 1.400 . S
C25 C24 1.389 . S
C26 P0 1.819 . S
C26 C27 1.391 . S
C26 C31 1.391 . S
C27 H9 0.941 . S
C27 C26 1.391 . S
C27 C28 1.396 . S
C28 H12 0.939 . S
C28 C27 1.396 . S
C28 C29 1.397 . S
C29 C28 1.397 . S
C29 C30 1.385 . S
C30 H13 0.940 . S
C30 C29 1.385 . S
C30 C31 1.388 . S
C31 H10 0.939 . S
C31 C26 1.391 . S
C31 C30 1.388 . S
P32 O43 1.490 . S
P32 C46 1.812 . S
P32 C52 1.803 . S
P32 C58 1.819 . S
H33 C47 0.941 . S
H34 C48 0.939 . S
H35 C50 0.940 . S
H36 C51 0.940 . S
H37 C53 0.939 . S
H38 C54 0.942 . S
H39 C56 0.940 . S
H40 C57 0.939 . S
H41 C59 0.941 . S
H42 C63 0.939 . S
O43 P32 1.490 . S
H44 C60 0.939 . S
H45 C62 0.940 . S
C46 P32 1.812 . S
C46 C47 1.389 . S
C46 C51 1.391 . S
C47 H33 0.941 . S
C47 C46 1.389 . S
C47 C48 1.397 . S
C48 H34 0.939 . S
C48 C47 1.397 . S
C48 C49 1.378 . S
C49 C48 1.378 . S
C49 C50 1.378 . S
C50 H35 0.940 . S
C50 C49 1.378 . S
C50 C51 1.396 . S
C51 H36 0.940 . S
C51 C46 1.391 . S
C51 C50 1.396 . S
C52 P32 1.803 . S
C52 C53 1.378 . S
C52 C57 1.400 . S
C53 H37 0.939 . S
C53 C52 1.378 . S
C53 C54 1.361 . S
C54 H38 0.942 . S
C54 C53 1.361 . S
C54 C55 1.369 . S
C55 C54 1.369 . S
C55 C56 1.404 . S
C56 H39 0.940 . S
C56 C55 1.404 . S
C56 C57 1.389 . S
C57 H40 0.939 . S
C57 C52 1.400 . S
C57 C56 1.389 . S
C58 P32 1.819 . S
C58 C59 1.391 . S
C58 C63 1.391 . S
C59 H41 0.941 . S
C59 C58 1.391 . S
C59 C60 1.396 . S
C60 H44 0.939 . S
C60 C59 1.396 . S
C60 C61 1.397 . S
C61 C60 1.397 . S
C61 C62 1.385 . S
C62 H45 0.940 . S
C62 C61 1.385 . S
C62 C63 1.388 . S
C63 H42 0.939 . S
C63 C58 1.391 . S
C63 C62 1.388 . S
P64 O75 1.490 . S
P64 C78 1.812 . S
P64 C84 1.803 . S
P64 C90 1.819 . S
H65 C79 0.941 . S
H66 C80 0.939 . S
H67 C82 0.940 . S
H68 C83 0.940 . S
H69 C85 0.939 . S
H70 C86 0.942 . S
H71 C88 0.940 . S
H72 C89 0.939 . S
H73 C91 0.941 . S
H74 C95 0.939 . S
O75 P64 1.490 . S
H76 C92 0.939 . S
H77 C94 0.940 . S
C78 P64 1.812 . S
C78 C79 1.389 . S
C78 C83 1.391 . S
C79 H65 0.941 . S
C79 C78 1.389 . S
C79 C80 1.397 . S
C80 H66 0.939 . S
C80 C79 1.397 . S
C80 C81 1.378 . S
C81 C80 1.378 . S
C81 C82 1.378 . S
C82 H67 0.940 . S
C82 C81 1.378 . S
C82 C83 1.396 . S
C83 H68 0.940 . S
C83 C78 1.391 . S
C83 C82 1.396 . S
C84 P64 1.803 . S
C84 C85 1.378 . S
C84 C89 1.400 . S
C85 H69 0.939 . S
C85 C84 1.378 . S
C85 C86 1.361 . S
C86 H70 0.942 . S
C86 C85 1.361 . S
C86 C87 1.369 . S
C87 C86 1.369 . S
C87 C88 1.404 . S
C88 H71 0.940 . S
C88 C87 1.404 . S
C88 C89 1.389 . S
C89 H72 0.939 . S
C89 C84 1.400 . S
C89 C88 1.389 . S
C90 P64 1.819 . S
C90 C91 1.391 . S
C90 C95 1.391 . S
C91 H73 0.941 . S
C91 C90 1.391 . S
C91 C92 1.396 . S
C92 H76 0.939 . S
C92 C91 1.396 . S
C92 C93 1.397 . S
C93 C92 1.397 . S
C93 C94 1.385 . S
C94 H77 0.940 . S
C94 C93 1.385 . S
C94 C95 1.388 . S
C95 H74 0.939 . S
C95 C90 1.391 . S
C95 C94 1.388 . S
P96 O107 1.490 . S
P96 C110 1.812 . S
P96 C116 1.803 . S
P96 C122 1.819 . S
H97 C111 0.941 . S
H98 C112 0.939 . S
H99 C114 0.940 . S
H100 C115 0.940 . S
H101 C117 0.939 . S
H102 C118 0.942 . S
H103 C120 0.940 . S
H104 C121 0.939 . S
H105 C123 0.941 . S
H106 C127 0.939 . S
O107 P96 1.490 . S
H108 C124 0.939 . S
H109 C126 0.940 . S
C110 P96 1.812 . S
C110 C111 1.389 . S
C110 C115 1.391 . S
C111 H97 0.941 . S
C111 C110 1.389 . S
C111 C112 1.397 . S
C112 H98 0.939 . S
C112 C111 1.397 . S
C112 C113 1.378 . S
C113 C112 1.378 . S
C113 C114 1.378 . S
C114 H99 0.940 . S
C114 C113 1.378 . S
C114 C115 1.396 . S
C115 H100 0.940 . S
C115 C110 1.391 . S
C115 C114 1.396 . S
C116 P96 1.803 . S
C116 C117 1.378 . S
C116 C121 1.400 . S
C117 H101 0.939 . S
C117 C116 1.378 . S
C117 C118 1.361 . S
C118 H102 0.942 . S
C118 C117 1.361 . S
C118 C119 1.369 . S
C119 C118 1.369 . S
C119 C120 1.404 . S
C120 H103 0.940 . S
C120 C119 1.404 . S
C120 C121 1.389 . S
C121 H104 0.939 . S
C121 C116 1.400 . S
C121 C120 1.389 . S
C122 P96 1.819 . S
C122 C123 1.391 . S
C122 C127 1.391 . S
C123 H105 0.941 . S
C123 C122 1.391 . S
C123 C124 1.396 . S
C124 H108 0.939 . S
C124 C123 1.396 . S
C124 C125 1.397 . S
C125 C124 1.397 . S
C125 C126 1.385 . S
C126 H109 0.940 . S
C126 C125 1.385 . S
C126 C127 1.388 . S
C127 H106 0.939 . S
C127 C122 1.391 . S
C127 C126 1.388 . S
P128 O139 1.490 . S
P128 C142 1.812 . S
P128 C148 1.803 . S
P128 C154 1.819 . S
H129 C143 0.941 . S
H130 C144 0.939 . S
H131 C146 0.940 . S
H132 C147 0.940 . S
H133 C149 0.939 . S
H134 C150 0.942 . S
H135 C152 0.940 . S
H136 C153 0.939 . S
H137 C155 0.941 . S
H138 C159 0.939 . S
O139 P128 1.490 . S
H140 C156 0.939 . S
H141 C158 0.940 . S
C142 P128 1.812 . S
C142 C143 1.389 . S
C142 C147 1.391 . S
C143 H129 0.941 . S
C143 C142 1.389 . S
C143 C144 1.397 . S
C144 H130 0.939 . S
C144 C143 1.397 . S
C144 C145 1.378 . S
C145 C144 1.378 . S
C145 C146 1.378 . S
C146 H131 0.940 . S
C146 C145 1.378 . S
C146 C147 1.396 . S
C147 H132 0.940 . S
C147 C142 1.391 . S
C147 C146 1.396 . S
C148 P128 1.803 . S
C148 C149 1.378 . S
C148 C153 1.400 . S
C149 H133 0.939 . S
C149 C148 1.378 . S
C149 C150 1.361 . S
C150 H134 0.942 . S
C150 C149 1.361 . S
C150 C151 1.369 . S
C151 C150 1.369 . S
C151 C152 1.404 . S
C152 H135 0.940 . S
C152 C151 1.404 . S
C152 C153 1.389 . S
C153 H136 0.939 . S
C153 C148 1.400 . S
C153 C152 1.389 . S
C154 P128 1.819 . S
C154 C155 1.391 . S
C154 C159 1.391 . S
C155 H137 0.941 . S
C155 C154 1.391 . S
C155 C156 1.396 . S
C156 H140 0.939 . S
C156 C155 1.396 . S
C156 C157 1.397 . S
C157 C156 1.397 . S
C157 C158 1.385 . S
C158 H141 0.940 . S
C158 C157 1.385 . S
C158 C159 1.388 . S
C159 H138 0.939 . S
C159 C154 1.391 . S
C159 C158 1.388 . S
P160 O171 1.490 . S
P160 C174 1.812 . S
P160 C180 1.803 . S
P160 C186 1.819 . S
H161 C175 0.941 . S
H162 C176 0.939 . S
H163 C178 0.940 . S
H164 C179 0.940 . S
H165 C181 0.939 . S
H166 C182 0.942 . S
H167 C184 0.940 . S
H168 C185 0.939 . S
H169 C187 0.941 . S
H170 C191 0.939 . S
O171 P160 1.490 . S
H172 C188 0.939 . S
H173 C190 0.940 . S
C174 P160 1.812 . S
C174 C175 1.389 . S
C174 C179 1.391 . S
C175 H161 0.941 . S
C175 C174 1.389 . S
C175 C176 1.397 . S
C176 H162 0.939 . S
C176 C175 1.397 . S
C176 C177 1.378 . S
C177 C176 1.378 . S
C177 C178 1.378 . S
C178 H163 0.940 . S
C178 C177 1.378 . S
C178 C179 1.396 . S
C179 H164 0.940 . S
C179 C174 1.391 . S
C179 C178 1.396 . S
C180 P160 1.803 . S
C180 C181 1.378 . S
C180 C185 1.400 . S
C181 H165 0.939 . S
C181 C180 1.378 . S
C181 C182 1.361 . S
C182 H166 0.942 . S
C182 C181 1.361 . S
C182 C183 1.369 . S
C183 C182 1.369 . S
C183 C184 1.404 . S
C184 H167 0.940 . S
C184 C183 1.404 . S
C184 C185 1.389 . S
C185 H168 0.939 . S
C185 C180 1.400 . S
C185 C184 1.389 . S
C186 P160 1.819 . S
C186 C187 1.391 . S
C186 C191 1.391 . S
C187 H169 0.941 . S
C187 C186 1.391 . S
C187 C188 1.396 . S
C188 H172 0.939 . S
C188 C187 1.396 . S
C188 C189 1.397 . S
C189 C188 1.397 . S
C189 C190 1.385 . S
C190 H173 0.940 . S
C190 C189 1.385 . S
C190 C191 1.388 . S
C191 H170 0.939 . S
C191 C186 1.391 . S
C191 C190 1.388 . S
P192 O203 1.490 . S
P192 C206 1.812 . S
P192 C212 1.803 . S
P192 C218 1.819 . S
H193 C207 0.941 . S
H194 C208 0.939 . S
H195 C210 0.940 . S
H196 C211 0.940 . S
H197 C213 0.939 . S
H198 C214 0.942 . S
H199 C216 0.940 . S
H200 C217 0.939 . S
H201 C219 0.941 . S
H202 C223 0.939 . S
O203 P192 1.490 . S
H204 C220 0.939 . S
H205 C222 0.940 . S
C206 P192 1.812 . S
C206 C207 1.389 . S
C206 C211 1.391 . S
C207 H193 0.941 . S
C207 C206 1.389 . S
C207 C208 1.397 . S
C208 H194 0.939 . S
C208 C207 1.397 . S
C208 C209 1.378 . S
C209 C208 1.378 . S
C209 C210 1.378 . S
C210 H195 0.940 . S
C210 C209 1.378 . S
C210 C211 1.396 . S
C211 H196 0.940 . S
C211 C206 1.391 . S
C211 C210 1.396 . S
C212 P192 1.803 . S
C212 C213 1.378 . S
C212 C217 1.400 . S
C213 H197 0.939 . S
C213 C212 1.378 . S
C213 C214 1.361 . S
C214 H198 0.942 . S
C214 C213 1.361 . S
C214 C215 1.369 . S
C215 C214 1.369 . S
C215 C216 1.404 . S
C216 H199 0.940 . S
C216 C215 1.404 . S
C216 C217 1.389 . S
C217 H200 0.939 . S
C217 C212 1.400 . S
C217 C216 1.389 . S
C218 P192 1.819 . S
C218 C219 1.391 . S
C218 C223 1.391 . S
C219 H201 0.941 . S
C219 C218 1.391 . S
C219 C220 1.396 . S
C220 H204 0.939 . S
C220 C219 1.396 . S
C220 C221 1.397 . S
C221 C220 1.397 . S
C221 C222 1.385 . S
C222 H205 0.940 . S
C222 C221 1.385 . S
C222 C223 1.388 . S
C223 H202 0.939 . S
C223 C218 1.391 . S
C223 C222 1.388 . S
P224 O235 1.490 . S
P224 C238 1.812 . S
P224 C244 1.803 . S
P224 C250 1.819 . S
H225 C239 0.941 . S
H226 C240 0.939 . S
H227 C242 0.940 . S
H228 C243 0.940 . S
H229 C245 0.939 . S
H230 C246 0.942 . S
H231 C248 0.940 . S
H232 C249 0.939 . S
H233 C251 0.941 . S
H234 C255 0.939 . S
O235 P224 1.490 . S
H236 C252 0.939 . S
H237 C254 0.940 . S
C238 P224 1.812 . S
C238 C239 1.389 . S
C238 C243 1.391 . S
C239 H225 0.941 . S
C239 C238 1.389 . S
C239 C240 1.397 . S
C240 H226 0.939 . S
C240 C239 1.397 . S
C240 C241 1.378 . S
C241 C240 1.378 . S
C241 C242 1.378 . S
C242 H227 0.940 . S
C242 C241 1.378 . S
C242 C243 1.396 . S
C243 H228 0.940 . S
C243 C238 1.391 . S
C243 C242 1.396 . S
C244 P224 1.803 . S
C244 C245 1.378 . S
C244 C249 1.400 . S
C245 H229 0.939 . S
C245 C244 1.378 . S
C245 C246 1.361 . S
C246 H230 0.942 . S
C246 C245 1.361 . S
C246 C247 1.369 . S
C247 C246 1.369 . S
C247 C248 1.404 . S
C248 H231 0.940 . S
C248 C247 1.404 . S
C248 C249 1.389 . S
C249 H232 0.939 . S
C249 C244 1.400 . S
C249 C248 1.389 . S
C250 P224 1.819 . S
C250 C251 1.391 . S
C250 C255 1.391 . S
C251 H233 0.941 . S
C251 C250 1.391 . S
C251 C252 1.396 . S
C252 H236 0.939 . S
C252 C251 1.396 . S
C252 C253 1.397 . S
C253 C252 1.397 . S
C253 C254 1.385 . S
C254 H237 0.940 . S
C254 C253 1.385 . S
C254 C255 1.388 . S
C255 H234 0.939 . S
C255 C250 1.391 . S
C255 C254 1.388 . S
Zn256 O262 1.969 1_545 S
Zn256 O263 1.965 1_545 S
Zn256 O267 2.024 . S
Zn256 O272 1.969 . S
Zn257 O264 1.969 . S
Zn257 O270 1.969 1_565 S
Zn257 O271 1.965 1_665 S
Zn257 O273 2.024 . S
C258 O259 1.229 . S
C258 O267 1.058 . S
O259 C258 1.229 . S
C260 O261 1.229 . S
C260 O273 1.058 . S
O261 C260 1.229 . S
O262 Zn256 1.969 1_565 S
O262 C265 1.267 . S
O263 Zn256 1.965 1_565 S
O263 C274 1.260 1_455 S
O264 Zn257 1.969 . S
O264 C274 1.258 . S
C265 O262 1.267 . S
C265 O266 1.228 . S
O266 C265 1.228 . S
O267 Zn256 2.024 . S
O267 C258 1.058 . S
C268 O269 1.228 . S
C268 O270 1.267 . S
O269 C268 1.228 . S
O270 Zn257 1.969 1_545 S
O270 C268 1.267 . S
O271 Zn257 1.965 1_445 S
O271 C275 1.260 . S
O272 Zn256 1.969 . S
O272 C275 1.258 . S
O273 Zn257 2.024 . S
O273 C260 1.058 . S
C274 O263 1.260 1_655 S
C274 O264 1.258 . S
C275 O271 1.260 . S
C275 O272 1.258 . S
Zn276 O282 1.969 . S
Zn276 O283 1.965 1_565 S
Zn276 O287 2.024 . S
Zn276 O292 1.969 1_556 S
Zn277 O284 1.969 . S
Zn277 O290 1.969 . S
Zn277 O291 1.965 1_545 S
Zn277 O293 2.024 . S
C278 O279 1.229 . S
C278 O287 1.058 . S
O279 C278 1.229 . S
C280 O281 1.229 . S
C280 O293 1.058 . S
O281 C280 1.229 . S
O282 Zn276 1.969 . S
O282 C285 1.267 . S
O283 Zn276 1.965 1_545 S
O283 C294 1.260 . S
O284 Zn277 1.969 . S
O284 C294 1.258 1_554 S
C285 O282 1.267 . S
C285 O286 1.228 . S
O286 C285 1.228 . S
O287 Zn276 2.024 . S
O287 C278 1.058 . S
C288 O289 1.228 . S
C288 O290 1.267 . S
O289 C288 1.228 . S
O290 Zn277 1.969 . S
O290 C288 1.267 . S
O291 Zn277 1.965 1_565 S
O291 C295 1.260 . S
O292 Zn276 1.969 1_554 S
O292 C295 1.258 . S
O293 Zn277 2.024 . S
O293 C280 1.058 . S
C294 O283 1.260 . S
C294 O284 1.258 1_556 S
C295 O291 1.260 . S
C295 O292 1.258 . S
Zn296 O302 1.969 . S
Zn296 O303 1.965 . S
Zn296 O307 2.024 . S
Zn296 O312 1.969 . S
Zn297 O304 1.969 . S
Zn297 O310 1.969 . S
Zn297 O311 1.965 . S
Zn297 O313 2.024 . S
C298 O299 1.229 . S
C298 O307 1.058 . S
O299 C298 1.229 . S
C300 O301 1.229 . S
C300 O313 1.058 . S
O301 C300 1.229 . S
O302 Zn296 1.969 . S
O302 C305 1.267 . S
O303 Zn296 1.965 . S
O303 C314 1.260 . S
O304 Zn297 1.969 . S
O304 C314 1.258 . S
C305 O302 1.267 . S
C305 O306 1.228 . S
O306 C305 1.228 . S
O307 Zn296 2.024 . S
O307 C298 1.058 . S
C308 O309 1.228 . S
C308 O310 1.267 . S
O309 C308 1.228 . S
O310 Zn297 1.969 . S
O310 C308 1.267 . S
O311 Zn297 1.965 . S
O311 C315 1.260 . S
O312 Zn296 1.969 . S
O312 C315 1.258 . S
O313 Zn297 2.024 . S
O313 C300 1.058 . S
C314 O303 1.260 . S
C314 O304 1.258 . S
C315 O311 1.260 . S
C315 O312 1.258 . S
Zn316 O322 1.969 . S
Zn316 O323 1.965 1_556 S
Zn316 O327 2.024 . S
Zn316 O332 1.969 1_655 S
Zn317 O324 1.969 . S
Zn317 O330 1.969 . S
Zn317 O331 1.965 1_554 S
Zn317 O333 2.024 . S
C318 O319 1.229 . S
C318 O327 1.058 . S
O319 C318 1.229 . S
C320 O321 1.229 . S
C320 O333 1.058 . S
O321 C320 1.229 . S
O322 Zn316 1.969 . S
O322 C325 1.267 . S
O323 Zn316 1.965 1_554 S
O323 C334 1.260 . S
O324 Zn317 1.969 . S
O324 C334 1.258 1_455 S
C325 O322 1.267 . S
C325 O326 1.228 . S
O326 C325 1.228 . S
O327 Zn316 2.024 . S
O327 C318 1.058 . S
C328 O329 1.228 . S
C328 O330 1.267 . S
O329 C328 1.228 . S
O330 Zn317 1.969 . S
O330 C328 1.267 . S
O331 Zn317 1.965 1_556 S
O331 C335 1.260 . S
O332 Zn316 1.969 1_455 S
O332 C335 1.258 . S
O333 Zn317 2.024 . S
O333 C320 1.058 . S
C334 O323 1.260 . S
C334 O324 1.258 1_655 S
C335 O331 1.260 . S
C335 O332 1.258 . S
H336 C344 0.929 . S
H337 C346 0.930 . S
H338 C348 0.930 . S
H339 C351 0.929 . S
H340 C354 0.930 . S
H341 C356 0.960 . S
H342 C356 0.960 . S
H343 C356 0.960 . S
C344 H336 0.929 . S
C344 C345 1.377 . S
C344 C346 1.384 . S
C345 C344 1.377 . S
C345 C351 1.390 . S
C346 H337 0.930 . S
C346 C344 1.384 . S
C346 C347 1.372 . S
C347 C346 1.372 . S
C347 C348 1.400 . S
C347 C352 1.490 . S
C348 H338 0.930 . S
C348 C347 1.400 . S
C348 C351 1.386 . S
H349 C365 0.930 . S
H350 C366 0.931 . S
C351 H339 0.929 . S
C351 C345 1.390 . S
C351 C348 1.386 . S
C352 C347 1.490 . S
C352 C354 1.395 . S
C352 C355 1.403 . S
H353 C359 0.930 . S
C354 H340 0.930 . S
C354 C352 1.395 . S
C354 C357 1.403 . S
C355 C352 1.403 . S
C355 C356 1.524 . S
C355 C359 1.400 . S
C356 H341 0.960 . S
C356 H342 0.960 . S
C356 H343 0.960 . S
C356 C355 1.524 . S
C357 C354 1.403 . S
C357 C358 1.392 . S
C357 C361 1.495 . S
C358 C357 1.392 . S
C358 C359 1.385 . S
C358 C360 1.478 . S
C359 H353 0.930 . S
C359 C355 1.400 . S
C359 C358 1.385 . S
C360 C358 1.478 . S
C360 C362 1.381 . S
C360 C366 1.383 . S
C361 C357 1.495 . S
C361 H367 0.959 . S
C361 H368 0.961 . S
C361 H369 0.960 . S
C362 C360 1.381 . S
C362 C363 1.394 . S
C362 H370 0.930 . S
C363 C362 1.394 . S
C363 C364 1.383 . S
C363 H371 0.929 . S
C364 C363 1.383 . S
C364 C365 1.377 . S
C365 H349 0.930 . S
C365 C364 1.377 . S
C365 C366 1.379 . S
C366 H350 0.931 . S
C366 C360 1.383 . S
C366 C365 1.379 . S
H367 C361 0.959 . S
H368 C361 0.961 . S
H369 C361 0.960 . S
H370 C362 0.930 . S
H371 C363 0.929 . S
H372 C380 0.929 . S
H373 C382 0.930 . S
H374 C384 0.930 . S
H375 C387 0.929 . S
H376 C390 0.930 . S
H377 C392 0.960 . S
H378 C392 0.960 . S
H379 C392 0.960 . S
C380 H372 0.929 . S
C380 C381 1.377 . S
C380 C382 1.384 . S
C381 C380 1.377 . S
C381 C387 1.390 . S
C382 H373 0.930 . S
C382 C380 1.384 . S
C382 C383 1.372 . S
C383 C382 1.372 . S
C383 C384 1.400 . S
C383 C388 1.490 . S
C384 H374 0.930 . S
C384 C383 1.400 . S
C384 C387 1.386 . S
H385 C401 0.930 . S
H386 C402 0.931 . S
C387 H375 0.929 . S
C387 C381 1.390 . S
C387 C384 1.386 . S
C388 C383 1.490 . S
C388 C390 1.395 . S
C388 C391 1.403 . S
H389 C395 0.930 . S
C390 H376 0.930 . S
C390 C388 1.395 . S
C390 C393 1.403 . S
C391 C388 1.403 . S
C391 C392 1.524 . S
C391 C395 1.400 . S
C392 H377 0.960 . S
C392 H378 0.960 . S
C392 H379 0.960 . S
C392 C391 1.524 . S
C393 C390 1.403 . S
C393 C394 1.392 . S
C393 C397 1.495 . S
C394 C393 1.392 . S
C394 C395 1.385 . S
C394 C396 1.478 . S
C395 H389 0.930 . S
C395 C391 1.400 . S
C395 C394 1.385 . S
C396 C394 1.478 . S
C396 C398 1.381 . S
C396 C402 1.383 . S
C397 C393 1.495 . S
C397 H403 0.959 . S
C397 H404 0.961 . S
C397 H405 0.960 . S
C398 C396 1.381 . S
C398 C399 1.394 . S
C398 H406 0.930 . S
C399 C398 1.394 . S
C399 C400 1.383 . S
C399 H407 0.929 . S
C400 C399 1.383 . S
C400 C401 1.377 . S
C401 H385 0.930 . S
C401 C400 1.377 . S
C401 C402 1.379 . S
C402 H386 0.931 . S
C402 C396 1.383 . S
C402 C401 1.379 . S
H403 C397 0.959 . S
H404 C397 0.961 . S
H405 C397 0.960 . S
H406 C398 0.930 . S
H407 C399 0.929 . S
H408 C416 0.929 . S
H409 C418 0.930 . S
H410 C420 0.930 . S
H411 C423 0.929 . S
H412 C426 0.930 . S
H413 C428 0.960 . S
H414 C428 0.960 . S
H415 C428 0.960 . S
C416 H408 0.929 . S
C416 C417 1.377 . S
C416 C418 1.384 . S
C417 C416 1.377 . S
C417 C423 1.390 . S
C418 H409 0.930 . S
C418 C416 1.384 . S
C418 C419 1.372 . S
C419 C418 1.372 . S
C419 C420 1.400 . S
C419 C424 1.490 . S
C420 H410 0.930 . S
C420 C419 1.400 . S
C420 C423 1.386 . S
H421 C437 0.930 . S
H422 C438 0.931 . S
C423 H411 0.929 . S
C423 C417 1.390 . S
C423 C420 1.386 . S
C424 C419 1.490 . S
C424 C426 1.395 . S
C424 C427 1.403 . S
H425 C431 0.930 . S
C426 H412 0.930 . S
C426 C424 1.395 . S
C426 C429 1.403 . S
C427 C424 1.403 . S
C427 C428 1.524 . S
C427 C431 1.400 . S
C428 H413 0.960 . S
C428 H414 0.960 . S
C428 H415 0.960 . S
C428 C427 1.524 . S
C429 C426 1.403 . S
C429 C430 1.392 . S
C429 C433 1.495 . S
C430 C429 1.392 . S
C430 C431 1.385 . S
C430 C432 1.478 . S
C431 H425 0.930 . S
C431 C427 1.400 . S
C431 C430 1.385 . S
C432 C430 1.478 . S
C432 C434 1.381 . S
C432 C438 1.383 . S
C433 C429 1.495 . S
C433 H439 0.959 . S
C433 H440 0.961 . S
C433 H441 0.960 . S
C434 C432 1.381 . S
C434 C435 1.394 . S
C434 H442 0.930 . S
C435 C434 1.394 . S
C435 C436 1.383 . S
C435 H443 0.929 . S
C436 C435 1.383 . S
C436 C437 1.377 . S
C437 H421 0.930 . S
C437 C436 1.377 . S
C437 C438 1.379 . S
C438 H422 0.931 . S
C438 C432 1.383 . S
C438 C437 1.379 . S
H439 C433 0.959 . S
H440 C433 0.961 . S
H441 C433 0.960 . S
H442 C434 0.930 . S
H443 C435 0.929 . S
H444 C452 0.929 . S
H445 C454 0.930 . S
H446 C456 0.930 . S
H447 C459 0.929 . S
H448 C462 0.930 . S
H449 C464 0.960 . S
H450 C464 0.960 . S
H451 C464 0.960 . S
C452 H444 0.929 . S
C452 C453 1.377 . S
C452 C454 1.384 . S
C453 C452 1.377 . S
C453 C459 1.390 . S
C454 H445 0.930 . S
C454 C452 1.384 . S
C454 C455 1.372 . S
C455 C454 1.372 . S
C455 C456 1.400 . S
C455 C460 1.490 . S
C456 H446 0.930 . S
C456 C455 1.400 . S
C456 C459 1.386 . S
H457 C473 0.930 . S
H458 C474 0.931 . S
C459 H447 0.929 . S
C459 C453 1.390 . S
C459 C456 1.386 . S
C460 C455 1.490 . S
C460 C462 1.395 . S
C460 C463 1.403 . S
H461 C467 0.930 . S
C462 H448 0.930 . S
C462 C460 1.395 . S
C462 C465 1.403 . S
C463 C460 1.403 . S
C463 C464 1.524 . S
C463 C467 1.400 . S
C464 H449 0.960 . S
C464 H450 0.960 . S
C464 H451 0.960 . S
C464 C463 1.524 . S
C465 C462 1.403 . S
C465 C466 1.392 . S
C465 C469 1.495 . S
C466 C465 1.392 . S
C466 C467 1.385 . S
C466 C468 1.478 . S
C467 H461 0.930 . S
C467 C463 1.400 . S
C467 C466 1.385 . S
C468 C466 1.478 . S
C468 C470 1.381 . S
C468 C474 1.383 . S
C469 C465 1.495 . S
C469 H475 0.959 . S
C469 H476 0.961 . S
C469 H477 0.960 . S
C470 C468 1.381 . S
C470 C471 1.394 . S
C470 H478 0.930 . S
C471 C470 1.394 . S
C471 C472 1.383 . S
C471 H479 0.929 . S
C472 C471 1.383 . S
C472 C473 1.377 . S
C473 H457 0.930 . S
C473 C472 1.377 . S
C473 C474 1.379 . S
C474 H458 0.931 . S
C474 C468 1.383 . S
C474 C473 1.379 . S
H475 C469 0.959 . S
H476 C469 0.961 . S
H477 C469 0.960 . S
H478 C470 0.930 . S
H479 C471 0.929 . S
H480 C488 0.929 . S
H481 C490 0.930 . S
H482 C492 0.930 . S
H483 C495 0.929 . S
H484 C498 0.930 . S
H485 C500 0.960 . S
H486 C500 0.960 . S
H487 C500 0.960 . S
C488 H480 0.929 . S
C488 C489 1.377 . S
C488 C490 1.384 . S
C489 C488 1.377 . S
C489 C495 1.390 . S
C490 H481 0.930 . S
C490 C488 1.384 . S
C490 C491 1.372 . S
C491 C490 1.372 . S
C491 C492 1.400 . S
C491 C496 1.490 . S
C492 H482 0.930 . S
C492 C491 1.400 . S
C492 C495 1.386 . S
H493 C509 0.930 . S
H494 C510 0.931 . S
C495 H483 0.929 . S
C495 C489 1.390 . S
C495 C492 1.386 . S
C496 C491 1.490 . S
C496 C498 1.395 . S
C496 C499 1.403 . S
H497 C503 0.930 . S
C498 H484 0.930 . S
C498 C496 1.395 . S
C498 C501 1.403 . S
C499 C496 1.403 . S
C499 C500 1.524 . S
C499 C503 1.400 . S
C500 H485 0.960 . S
C500 H486 0.960 . S
C500 H487 0.960 . S
C500 C499 1.524 . S
C501 C498 1.403 . S
C501 C502 1.392 . S
C501 C505 1.495 . S
C502 C501 1.392 . S
C502 C503 1.385 . S
C502 C504 1.478 . S
C503 H497 0.930 . S
C503 C499 1.400 . S
C503 C502 1.385 . S
C504 C502 1.478 . S
C504 C506 1.381 . S
C504 C510 1.383 . S
C505 C501 1.495 . S
C505 H511 0.959 . S
C505 H512 0.961 . S
C505 H513 0.960 . S
C506 C504 1.381 . S
C506 C507 1.394 . S
C506 H514 0.930 . S
C507 C506 1.394 . S
C507 C508 1.383 . S
C507 H515 0.929 . S
C508 C507 1.383 . S
C508 C509 1.377 . S
C509 H493 0.930 . S
C509 C508 1.377 . S
C509 C510 1.379 . S
C510 H494 0.931 . S
C510 C504 1.383 . S
C510 C509 1.379 . S
H511 C505 0.959 . S
H512 C505 0.961 . S
H513 C505 0.960 . S
H514 C506 0.930 . S
H515 C507 0.929 . S
H516 C524 0.929 . S
H517 C526 0.930 . S
H518 C528 0.930 . S
H519 C531 0.929 . S
H520 C534 0.930 . S
H521 C536 0.960 . S
H522 C536 0.960 . S
H523 C536 0.960 . S
C524 H516 0.929 . S
C524 C525 1.377 . S
C524 C526 1.384 . S
C525 C524 1.377 . S
C525 C531 1.390 . S
C526 H517 0.930 . S
C526 C524 1.384 . S
C526 C527 1.372 . S
C527 C526 1.372 . S
C527 C528 1.400 . S
C527 C532 1.490 . S
C528 H518 0.930 . S
C528 C527 1.400 . S
C528 C531 1.386 . S
H529 C545 0.930 . S
H530 C546 0.931 . S
C531 H519 0.929 . S
C531 C525 1.390 . S
C531 C528 1.386 . S
C532 C527 1.490 . S
C532 C534 1.395 . S
C532 C535 1.403 . S
H533 C539 0.930 . S
C534 H520 0.930 . S
C534 C532 1.395 . S
C534 C537 1.403 . S
C535 C532 1.403 . S
C535 C536 1.524 . S
C535 C539 1.400 . S
C536 H521 0.960 . S
C536 H522 0.960 . S
C536 H523 0.960 . S
C536 C535 1.524 . S
C537 C534 1.403 . S
C537 C538 1.392 . S
C537 C541 1.495 . S
C538 C537 1.392 . S
C538 C539 1.385 . S
C538 C540 1.478 . S
C539 H533 0.930 . S
C539 C535 1.400 . S
C539 C538 1.385 . S
C540 C538 1.478 . S
C540 C542 1.381 . S
C540 C546 1.383 . S
C541 C537 1.495 . S
C541 H547 0.959 . S
C541 H548 0.961 . S
C541 H549 0.960 . S
C542 C540 1.381 . S
C542 C543 1.394 . S
C542 H550 0.930 . S
C543 C542 1.394 . S
C543 C544 1.383 . S
C543 H551 0.929 . S
C544 C543 1.383 . S
C544 C545 1.377 . S
C545 H529 0.930 . S
C545 C544 1.377 . S
C545 C546 1.379 . S
C546 H530 0.931 . S
C546 C540 1.383 . S
C546 C545 1.379 . S
H547 C541 0.959 . S
H548 C541 0.961 . S
H549 C541 0.960 . S
H550 C542 0.930 . S
H551 C543 0.929 . S
H552 C560 0.929 . S
H553 C562 0.930 . S
H554 C564 0.930 . S
H555 C567 0.929 . S
H556 C570 0.930 . S
H557 C572 0.960 . S
H558 C572 0.960 . S
H559 C572 0.960 . S
C560 H552 0.929 . S
C560 C561 1.377 . S
C560 C562 1.384 . S
C561 C560 1.377 . S
C561 C567 1.390 . S
C562 H553 0.930 . S
C562 C560 1.384 . S
C562 C563 1.372 . S
C563 C562 1.372 . S
C563 C564 1.400 . S
C563 C568 1.490 . S
C564 H554 0.930 . S
C564 C563 1.400 . S
C564 C567 1.386 . S
H565 C581 0.930 . S
H566 C582 0.931 . S
C567 H555 0.929 . S
C567 C561 1.390 . S
C567 C564 1.386 . S
C568 C563 1.490 . S
C568 C570 1.395 . S
C568 C571 1.403 . S
H569 C575 0.930 . S
C570 H556 0.930 . S
C570 C568 1.395 . S
C570 C573 1.403 . S
C571 C568 1.403 . S
C571 C572 1.524 . S
C571 C575 1.400 . S
C572 H557 0.960 . S
C572 H558 0.960 . S
C572 H559 0.960 . S
C572 C571 1.524 . S
C573 C570 1.403 . S
C573 C574 1.392 . S
C573 C577 1.495 . S
C574 C573 1.392 . S
C574 C575 1.385 . S
C574 C576 1.478 . S
C575 H569 0.930 . S
C575 C571 1.400 . S
C575 C574 1.385 . S
C576 C574 1.478 . S
C576 C578 1.381 . S
C576 C582 1.383 . S
C577 C573 1.495 . S
C577 H583 0.959 . S
C577 H584 0.961 . S
C577 H585 0.960 . S
C578 C576 1.381 . S
C578 C579 1.394 . S
C578 H586 0.930 . S
C579 C578 1.394 . S
C579 C580 1.383 . S
C579 H587 0.929 . S
C580 C579 1.383 . S
C580 C581 1.377 . S
C581 H565 0.930 . S
C581 C580 1.377 . S
C581 C582 1.379 . S
C582 H566 0.931 . S
C582 C576 1.383 . S
C582 C581 1.379 . S
H583 C577 0.959 . S
H584 C577 0.961 . S
H585 C577 0.960 . S
H586 C578 0.930 . S
H587 C579 0.929 . S
H588 C596 0.929 . S
H589 C598 0.930 . S
H590 C600 0.930 . S
H591 C603 0.929 . S
H592 C606 0.930 . S
H593 C608 0.960 . S
H594 C608 0.960 . S
H595 C608 0.960 . S
C596 H588 0.929 . S
C596 C597 1.377 . S
C596 C598 1.384 . S
C597 C596 1.377 . S
C597 C603 1.390 . S
C598 H589 0.930 . S
C598 C596 1.384 . S
C598 C599 1.372 . S
C599 C598 1.372 . S
C599 C600 1.400 . S
C599 C604 1.490 . S
C600 H590 0.930 . S
C600 C599 1.400 . S
C600 C603 1.386 . S
H601 C617 0.930 . S
H602 C618 0.931 . S
C603 H591 0.929 . S
C603 C597 1.390 . S
C603 C600 1.386 . S
C604 C599 1.490 . S
C604 C606 1.395 . S
C604 C607 1.403 . S
H605 C611 0.930 . S
C606 H592 0.930 . S
C606 C604 1.395 . S
C606 C609 1.403 . S
C607 C604 1.403 . S
C607 C608 1.524 . S
C607 C611 1.400 . S
C608 H593 0.960 . S
C608 H594 0.960 . S
C608 H595 0.960 . S
C608 C607 1.524 . S
C609 C606 1.403 . S
C609 C610 1.392 . S
C609 C613 1.495 . S
C610 C609 1.392 . S
C610 C611 1.385 . S
C610 C612 1.478 . S
C611 H605 0.930 . S
C611 C607 1.400 . S
C611 C610 1.385 . S
C612 C610 1.478 . S
C612 C614 1.381 . S
C612 C618 1.383 . S
C613 C609 1.495 . S
C613 H619 0.959 . S
C613 H620 0.961 . S
C613 H621 0.960 . S
C614 C612 1.381 . S
C614 C615 1.394 . S
C614 H622 0.930 . S
C615 C614 1.394 . S
C615 C616 1.383 . S
C615 H623 0.929 . S
C616 C615 1.383 . S
C616 C617 1.377 . S
C617 H601 0.930 . S
C617 C616 1.377 . S
C617 C618 1.379 . S
C618 H602 0.931 . S
C618 C612 1.383 . S
C618 C617 1.379 . S
H619 C613 0.959 . S
H620 C613 0.961 . S
H621 C613 0.960 . S
H622 C614 0.930 . S
H623 C615 0.929 . S
H624 C632 0.929 . S
H625 C634 0.930 . S
H626 C636 0.930 . S
H627 C639 0.929 . S
H628 C642 0.930 . S
H629 C644 0.960 . S
H630 C644 0.960 . S
H631 C644 0.960 . S
C632 H624 0.929 . S
C632 C633 1.377 . S
C632 C634 1.384 . S
C633 C632 1.377 . S
C633 C639 1.390 . S
C634 H625 0.930 . S
C634 C632 1.384 . S
C634 C635 1.372 . S
C635 C634 1.372 . S
C635 C636 1.400 . S
C635 C640 1.490 . S
C636 H626 0.930 . S
C636 C635 1.400 . S
C636 C639 1.386 . S
H637 C653 0.930 . S
H638 C654 0.931 . S
C639 H627 0.929 . S
C639 C633 1.390 . S
C639 C636 1.386 . S
C640 C635 1.490 . S
C640 C642 1.395 . S
C640 C643 1.403 . S
H641 C647 0.930 . S
C642 H628 0.930 . S
C642 C640 1.395 . S
C642 C645 1.403 . S
C643 C640 1.403 . S
C643 C644 1.524 . S
C643 C647 1.400 . S
C644 H629 0.960 . S
C644 H630 0.960 . S
C644 H631 0.960 . S
C644 C643 1.524 . S
C645 C642 1.403 . S
C645 C646 1.392 . S
C645 C649 1.495 . S
C646 C645 1.392 . S
C646 C647 1.385 . S
C646 C648 1.478 . S
C647 H641 0.930 . S
C647 C643 1.400 . S
C647 C646 1.385 . S
C648 C646 1.478 . S
C648 C650 1.381 . S
C648 C654 1.383 . S
C649 C645 1.495 . S
C649 H655 0.959 . S
C649 H656 0.961 . S
C649 H657 0.960 . S
C650 C648 1.381 . S
C650 C651 1.394 . S
C650 H658 0.930 . S
C651 C650 1.394 . S
C651 C652 1.383 . S
C651 H659 0.929 . S
C652 C651 1.383 . S
C652 C653 1.377 . S
C653 H637 0.930 . S
C653 C652 1.377 . S
C653 C654 1.379 . S
C654 H638 0.931 . S
C654 C648 1.383 . S
C654 C653 1.379 . S
H655 C649 0.959 . S
H656 C649 0.961 . S
H657 C649 0.960 . S
H658 C650 0.930 . S
H659 C651 0.929 . S
H660 C668 0.929 . S
H661 C670 0.930 . S
H662 C672 0.930 . S
H663 C675 0.929 . S
H664 C678 0.930 . S
H665 C680 0.960 . S
H666 C680 0.960 . S
H667 C680 0.960 . S
C668 H660 0.929 . S
C668 C669 1.377 . S
C668 C670 1.384 . S
C669 C668 1.377 . S
C669 C675 1.390 . S
C670 H661 0.930 . S
C670 C668 1.384 . S
C670 C671 1.372 . S
C671 C670 1.372 . S
C671 C672 1.400 . S
C671 C676 1.490 . S
C672 H662 0.930 . S
C672 C671 1.400 . S
C672 C675 1.386 . S
H673 C689 0.930 . S
H674 C690 0.931 . S
C675 H663 0.929 . S
C675 C669 1.390 . S
C675 C672 1.386 . S
C676 C671 1.490 . S
C676 C678 1.395 . S
C676 C679 1.403 . S
H677 C683 0.930 . S
C678 H664 0.930 . S
C678 C676 1.395 . S
C678 C681 1.403 . S
C679 C676 1.403 . S
C679 C680 1.524 . S
C679 C683 1.400 . S
C680 H665 0.960 . S
C680 H666 0.960 . S
C680 H667 0.960 . S
C680 C679 1.524 . S
C681 C678 1.403 . S
C681 C682 1.392 . S
C681 C685 1.495 . S
C682 C681 1.392 . S
C682 C683 1.385 . S
C682 C684 1.478 . S
C683 H677 0.930 . S
C683 C679 1.400 . S
C683 C682 1.385 . S
C684 C682 1.478 . S
C684 C686 1.381 . S
C684 C690 1.383 . S
C685 C681 1.495 . S
C685 H691 0.959 . S
C685 H692 0.961 . S
C685 H693 0.960 . S
C686 C684 1.381 . S
C686 C687 1.394 . S
C686 H694 0.930 . S
C687 C686 1.394 . S
C687 C688 1.383 . S
C687 H695 0.929 . S
C688 C687 1.383 . S
C688 C689 1.377 . S
C689 H673 0.930 . S
C689 C688 1.377 . S
C689 C690 1.379 . S
C690 H674 0.931 . S
C690 C684 1.383 . S
C690 C689 1.379 . S
H691 C685 0.959 . S
H692 C685 0.961 . S
H693 C685 0.960 . S
H694 C686 0.930 . S
H695 C687 0.929 . S
H696 C704 0.929 . S
H697 C706 0.930 . S
H698 C708 0.930 . S
H699 C711 0.929 . S
H700 C714 0.930 . S
H701 C716 0.960 . S
H702 C716 0.960 . S
H703 C716 0.960 . S
C704 H696 0.929 . S
C704 C705 1.377 . S
C704 C706 1.384 . S
C705 C704 1.377 . S
C705 C711 1.390 . S
C706 H697 0.930 . S
C706 C704 1.384 . S
C706 C707 1.372 . S
C707 C706 1.372 . S
C707 C708 1.400 . S
C707 C712 1.490 . S
C708 H698 0.930 . S
C708 C707 1.400 . S
C708 C711 1.386 . S
H709 C725 0.930 . S
H710 C726 0.931 . S
C711 H699 0.929 . S
C711 C705 1.390 . S
C711 C708 1.386 . S
C712 C707 1.490 . S
C712 C714 1.395 . S
C712 C715 1.403 . S
H713 C719 0.930 . S
C714 H700 0.930 . S
C714 C712 1.395 . S
C714 C717 1.403 . S
C715 C712 1.403 . S
C715 C716 1.524 . S
C715 C719 1.400 . S
C716 H701 0.960 . S
C716 H702 0.960 . S
C716 H703 0.960 . S
C716 C715 1.524 . S
C717 C714 1.403 . S
C717 C718 1.392 . S
C717 C721 1.495 . S
C718 C717 1.392 . S
C718 C719 1.385 . S
C718 C720 1.478 . S
C719 H713 0.930 . S
C719 C715 1.400 . S
C719 C718 1.385 . S
C720 C718 1.478 . S
C720 C722 1.381 . S
C720 C726 1.383 . S
C721 C717 1.495 . S
C721 H727 0.959 . S
C721 H728 0.961 . S
C721 H729 0.960 . S
C722 C720 1.381 . S
C722 C723 1.394 . S
C722 H730 0.930 . S
C723 C722 1.394 . S
C723 C724 1.383 . S
C723 H731 0.929 . S
C724 C723 1.383 . S
C724 C725 1.377 . S
C725 H709 0.930 . S
C725 C724 1.377 . S
C725 C726 1.379 . S
C726 H710 0.931 . S
C726 C720 1.383 . S
C726 C725 1.379 . S
H727 C721 0.959 . S
H728 C721 0.961 . S
H729 C721 0.960 . S
H730 C722 0.930 . S
H731 C723 0.929 . S
H732 C740 0.929 . S
H733 C742 0.930 . S
H734 C744 0.930 . S
H735 C747 0.929 . S
H736 C750 0.930 . S
H737 C752 0.960 . S
H738 C752 0.960 . S
H739 C752 0.960 . S
C740 H732 0.929 . S
C740 C741 1.377 . S
C740 C742 1.384 . S
C741 C740 1.377 . S
C741 C747 1.390 . S
C742 H733 0.930 . S
C742 C740 1.384 . S
C742 C743 1.372 . S
C743 C742 1.372 . S
C743 C744 1.400 . S
C743 C748 1.490 . S
C744 H734 0.930 . S
C744 C743 1.400 . S
C744 C747 1.386 . S
H745 C761 0.930 . S
H746 C762 0.931 . S
C747 H735 0.929 . S
C747 C741 1.390 . S
C747 C744 1.386 . S
C748 C743 1.490 . S
C748 C750 1.395 . S
C748 C751 1.403 . S
H749 C755 0.930 . S
C750 H736 0.930 . S
C750 C748 1.395 . S
C750 C753 1.403 . S
C751 C748 1.403 . S
C751 C752 1.524 . S
C751 C755 1.400 . S
C752 H737 0.960 . S
C752 H738 0.960 . S
C752 H739 0.960 . S
C752 C751 1.524 . S
C753 C750 1.403 . S
C753 C754 1.392 . S
C753 C757 1.495 . S
C754 C753 1.392 . S
C754 C755 1.385 . S
C754 C756 1.478 . S
C755 H749 0.930 . S
C755 C751 1.400 . S
C755 C754 1.385 . S
C756 C754 1.478 . S
C756 C758 1.381 . S
C756 C762 1.383 . S
C757 C753 1.495 . S
C757 H763 0.959 . S
C757 H764 0.961 . S
C757 H765 0.960 . S
C758 C756 1.381 . S
C758 C759 1.394 . S
C758 H766 0.930 . S
C759 C758 1.394 . S
C759 C760 1.383 . S
C759 H767 0.929 . S
C760 C759 1.383 . S
C760 C761 1.377 . S
C761 H745 0.930 . S
C761 C760 1.377 . S
C761 C762 1.379 . S
C762 H746 0.931 . S
C762 C756 1.383 . S
C762 C761 1.379 . S
H763 C757 0.959 . S
H764 C757 0.961 . S
H765 C757 0.960 . S
H766 C758 0.930 . S
H767 C759 0.929 . S
H768 C776 0.929 . S
H769 C778 0.930 . S
H770 C780 0.930 . S
H771 C783 0.929 . S
H772 C786 0.930 . S
H773 C788 0.960 . S
H774 C788 0.960 . S
H775 C788 0.960 . S
C776 H768 0.929 . S
C776 C777 1.377 . S
C776 C778 1.384 . S
C777 C776 1.377 . S
C777 C783 1.390 . S
C778 H769 0.930 . S
C778 C776 1.384 . S
C778 C779 1.372 . S
C779 C778 1.372 . S
C779 C780 1.400 . S
C779 C784 1.490 . S
C780 H770 0.930 . S
C780 C779 1.400 . S
C780 C783 1.386 . S
H781 C797 0.930 . S
H782 C798 0.931 . S
C783 H771 0.929 . S
C783 C777 1.390 . S
C783 C780 1.386 . S
C784 C779 1.490 . S
C784 C786 1.395 . S
C784 C787 1.403 . S
H785 C791 0.930 . S
C786 H772 0.930 . S
C786 C784 1.395 . S
C786 C789 1.403 . S
C787 C784 1.403 . S
C787 C788 1.524 . S
C787 C791 1.400 . S
C788 H773 0.960 . S
C788 H774 0.960 . S
C788 H775 0.960 . S
C788 C787 1.524 . S
C789 C786 1.403 . S
C789 C790 1.392 . S
C789 C793 1.495 . S
C790 C789 1.392 . S
C790 C791 1.385 . S
C790 C792 1.478 . S
C791 H785 0.930 . S
C791 C787 1.400 . S
C791 C790 1.385 . S
C792 C790 1.478 . S
C792 C794 1.381 . S
C792 C798 1.383 . S
C793 C789 1.495 . S
C793 H799 0.959 . S
C793 H800 0.961 . S
C793 H801 0.960 . S
C794 C792 1.381 . S
C794 C795 1.394 . S
C794 H802 0.930 . S
C795 C794 1.394 . S
C795 C796 1.383 . S
C795 H803 0.929 . S
C796 C795 1.383 . S
C796 C797 1.377 . S
C797 H781 0.930 . S
C797 C796 1.377 . S
C797 C798 1.379 . S
C798 H782 0.931 . S
C798 C792 1.383 . S
C798 C797 1.379 . S
H799 C793 0.959 . S
H800 C793 0.961 . S
H801 C793 0.960 . S
H802 C794 0.930 . S
H803 C795 0.929 . S
H804 C812 0.929 . S
H805 C814 0.930 . S
H806 C816 0.930 . S
H807 C819 0.929 . S
H808 C822 0.930 . S
H809 C824 0.960 . S
H810 C824 0.960 . S
H811 C824 0.960 . S
C812 H804 0.929 . S
C812 C813 1.377 . S
C812 C814 1.384 . S
C813 C812 1.377 . S
C813 C819 1.390 . S
C814 H805 0.930 . S
C814 C812 1.384 . S
C814 C815 1.372 . S
C815 C814 1.372 . S
C815 C816 1.400 . S
C815 C820 1.490 . S
C816 H806 0.930 . S
C816 C815 1.400 . S
C816 C819 1.386 . S
H817 C833 0.930 . S
H818 C834 0.931 . S
C819 H807 0.929 . S
C819 C813 1.390 . S
C819 C816 1.386 . S
C820 C815 1.490 . S
C820 C822 1.395 . S
C820 C823 1.403 . S
H821 C827 0.930 . S
C822 H808 0.930 . S
C822 C820 1.395 . S
C822 C825 1.403 . S
C823 C820 1.403 . S
C823 C824 1.524 . S
C823 C827 1.400 . S
C824 H809 0.960 . S
C824 H810 0.960 . S
C824 H811 0.960 . S
C824 C823 1.524 . S
C825 C822 1.403 . S
C825 C826 1.392 . S
C825 C829 1.495 . S
C826 C825 1.392 . S
C826 C827 1.385 . S
C826 C828 1.478 . S
C827 H821 0.930 . S
C827 C823 1.400 . S
C827 C826 1.385 . S
C828 C826 1.478 . S
C828 C830 1.381 . S
C828 C834 1.383 . S
C829 C825 1.495 . S
C829 H835 0.959 . S
C829 H836 0.961 . S
C829 H837 0.960 . S
C830 C828 1.381 . S
C830 C831 1.394 . S
C830 H838 0.930 . S
C831 C830 1.394 . S
C831 C832 1.383 . S
C831 H839 0.929 . S
C832 C831 1.383 . S
C832 C833 1.377 . S
C833 H817 0.930 . S
C833 C832 1.377 . S
C833 C834 1.379 . S
C834 H818 0.931 . S
C834 C828 1.383 . S
C834 C833 1.379 . S
H835 C829 0.959 . S
H836 C829 0.961 . S
H837 C829 0.960 . S
H838 C830 0.930 . S
H839 C831 0.929 . S
H840 C848 0.929 . S
H841 C850 0.930 . S
H842 C852 0.930 . S
H843 C855 0.929 . S
H844 C858 0.930 . S
H845 C860 0.960 . S
H846 C860 0.960 . S
H847 C860 0.960 . S
C848 H840 0.929 . S
C848 C849 1.377 . S
C848 C850 1.384 . S
C849 C848 1.377 . S
C849 C855 1.390 . S
C850 H841 0.930 . S
C850 C848 1.384 . S
C850 C851 1.372 . S
C851 C850 1.372 . S
C851 C852 1.400 . S
C851 C856 1.490 . S
C852 H842 0.930 . S
C852 C851 1.400 . S
C852 C855 1.386 . S
H853 C869 0.930 . S
H854 C870 0.931 . S
C855 H843 0.929 . S
C855 C849 1.390 . S
C855 C852 1.386 . S
C856 C851 1.490 . S
C856 C858 1.395 . S
C856 C859 1.403 . S
H857 C863 0.930 . S
C858 H844 0.930 . S
C858 C856 1.395 . S
C858 C861 1.403 . S
C859 C856 1.403 . S
C859 C860 1.524 . S
C859 C863 1.400 . S
C860 H845 0.960 . S
C860 H846 0.960 . S
C860 H847 0.960 . S
C860 C859 1.524 . S
C861 C858 1.403 . S
C861 C862 1.392 . S
C861 C865 1.495 . S
C862 C861 1.392 . S
C862 C863 1.385 . S
C862 C864 1.478 . S
C863 H857 0.930 . S
C863 C859 1.400 . S
C863 C862 1.385 . S
C864 C862 1.478 . S
C864 C866 1.381 . S
C864 C870 1.383 . S
C865 C861 1.495 . S
C865 H871 0.959 . S
C865 H872 0.961 . S
C865 H873 0.960 . S
C866 C864 1.381 . S
C866 C867 1.394 . S
C866 H874 0.930 . S
C867 C866 1.394 . S
C867 C868 1.383 . S
C867 H875 0.929 . S
C868 C867 1.383 . S
C868 C869 1.377 . S
C869 H853 0.930 . S
C869 C868 1.377 . S
C869 C870 1.379 . S
C870 H854 0.931 . S
C870 C864 1.383 . S
C870 C869 1.379 . S
H871 C865 0.959 . S
H872 C865 0.961 . S
H873 C865 0.960 . S
H874 C866 0.930 . S
H875 C867 0.929 . S
H876 C884 0.929 . S
H877 C886 0.930 . S
H878 C888 0.930 . S
H879 C891 0.929 . S
H880 C894 0.930 . S
H881 C896 0.960 . S
H882 C896 0.960 . S
H883 C896 0.960 . S
C884 H876 0.929 . S
C884 C885 1.377 . S
C884 C886 1.384 . S
C885 C884 1.377 . S
C885 C891 1.390 . S
C886 H877 0.930 . S
C886 C884 1.384 . S
C886 C887 1.372 . S
C887 C886 1.372 . S
C887 C888 1.400 . S
C887 C892 1.490 . S
C888 H878 0.930 . S
C888 C887 1.400 . S
C888 C891 1.386 . S
H889 C905 0.930 . S
H890 C906 0.931 . S
C891 H879 0.929 . S
C891 C885 1.390 . S
C891 C888 1.386 . S
C892 C887 1.490 . S
C892 C894 1.395 . S
C892 C895 1.403 . S
H893 C899 0.930 . S
C894 H880 0.930 . S
C894 C892 1.395 . S
C894 C897 1.403 . S
C895 C892 1.403 . S
C895 C896 1.524 . S
C895 C899 1.400 . S
C896 H881 0.960 . S
C896 H882 0.960 . S
C896 H883 0.960 . S
C896 C895 1.524 . S
C897 C894 1.403 . S
C897 C898 1.392 . S
C897 C901 1.495 . S
C898 C897 1.392 . S
C898 C899 1.385 . S
C898 C900 1.478 . S
C899 H893 0.930 . S
C899 C895 1.400 . S
C899 C898 1.385 . S
C900 C898 1.478 . S
C900 C902 1.381 . S
C900 C906 1.383 . S
C901 C897 1.495 . S
C901 H907 0.959 . S
C901 H908 0.961 . S
C901 H909 0.960 . S
C902 C900 1.381 . S
C902 C903 1.394 . S
C902 H910 0.930 . S
C903 C902 1.394 . S
C903 C904 1.383 . S
C903 H911 0.929 . S
C904 C903 1.383 . S
C904 C905 1.377 . S
C905 H889 0.930 . S
C905 C904 1.377 . S
C905 C906 1.379 . S
C906 H890 0.931 . S
C906 C900 1.383 . S
C906 C905 1.379 . S
H907 C901 0.959 . S
H908 C901 0.961 . S
H909 C901 0.960 . S
H910 C902 0.930 . S
H911 C903 0.929 . S
H912 C920 0.929 . S
H913 C922 0.930 . S
H914 C924 0.930 . S
H915 C927 0.929 . S
H916 C930 0.930 . S
H917 C932 0.960 . S
H918 C932 0.960 . S
H919 C932 0.960 . S
C920 H912 0.929 . S
C920 C921 1.377 . S
C920 C922 1.384 . S
C921 C920 1.377 . S
C921 C927 1.390 . S
C922 H913 0.930 . S
C922 C920 1.384 . S
C922 C923 1.372 . S
C923 C922 1.372 . S
C923 C924 1.400 . S
C923 C928 1.490 . S
C924 H914 0.930 . S
C924 C923 1.400 . S
C924 C927 1.386 . S
H925 C941 0.930 . S
H926 C942 0.931 . S
C927 H915 0.929 . S
C927 C921 1.390 . S
C927 C924 1.386 . S
C928 C923 1.490 . S
C928 C930 1.395 . S
C928 C931 1.403 . S
H929 C935 0.930 . S
C930 H916 0.930 . S
C930 C928 1.395 . S
C930 C933 1.403 . S
C931 C928 1.403 . S
C931 C932 1.524 . S
C931 C935 1.400 . S
C932 H917 0.960 . S
C932 H918 0.960 . S
C932 H919 0.960 . S
C932 C931 1.524 . S
C933 C930 1.403 . S
C933 C934 1.392 . S
C933 C937 1.495 . S
C934 C933 1.392 . S
C934 C935 1.385 . S
C934 C936 1.478 . S
C935 H929 0.930 . S
C935 C931 1.400 . S
C935 C934 1.385 . S
C936 C934 1.478 . S
C936 C938 1.381 . S
C936 C942 1.383 . S
C937 C933 1.495 . S
C937 H943 0.959 . S
C937 H944 0.961 . S
C937 H945 0.960 . S
C938 C936 1.381 . S
C938 C939 1.394 . S
C938 H946 0.930 . S
C939 C938 1.394 . S
C939 C940 1.383 . S
C939 H947 0.929 . S
C940 C939 1.383 . S
C940 C941 1.377 . S
C941 H925 0.930 . S
C941 C940 1.377 . S
C941 C942 1.379 . S
C942 H926 0.931 . S
C942 C936 1.383 . S
C942 C941 1.379 . S
H943 C937 0.959 . S
H944 C937 0.961 . S
H945 C937 0.960 . S
H946 C938 0.930 . S
H947 C939 0.929 . S
H948 C956 0.929 . S
H949 C958 0.930 . S
H950 C960 0.930 . S
H951 C963 0.929 . S
H952 C966 0.930 . S
H953 C968 0.960 . S
H954 C968 0.960 . S
H955 C968 0.960 . S
C956 H948 0.929 . S
C956 C957 1.377 . S
C956 C958 1.384 . S
C957 C956 1.377 . S
C957 C963 1.390 . S
C958 H949 0.930 . S
C958 C956 1.384 . S
C958 C959 1.372 . S
C959 C958 1.372 . S
C959 C960 1.400 . S
C959 C964 1.490 . S
C960 H950 0.930 . S
C960 C959 1.400 . S
C960 C963 1.386 . S
H961 C977 0.930 . S
H962 C978 0.931 . S
C963 H951 0.929 . S
C963 C957 1.390 . S
C963 C960 1.386 . S
C964 C959 1.490 . S
C964 C966 1.395 . S
C964 C967 1.403 . S
H965 C971 0.930 . S
C966 H952 0.930 . S
C966 C964 1.395 . S
C966 C969 1.403 . S
C967 C964 1.403 . S
C967 C968 1.524 . S
C967 C971 1.400 . S
C968 H953 0.960 . S
C968 H954 0.960 . S
C968 H955 0.960 . S
C968 C967 1.524 . S
C969 C966 1.403 . S
C969 C970 1.392 . S
C969 C973 1.495 . S
C970 C969 1.392 . S
C970 C971 1.385 . S
C970 C972 1.478 . S
C971 H965 0.930 . S
C971 C967 1.400 . S
C971 C970 1.385 . S
C972 C970 1.478 . S
C972 C974 1.381 . S
C972 C978 1.383 . S
C973 C969 1.495 . S
C973 H979 0.959 . S
C973 H980 0.961 . S
C973 H981 0.960 . S
C974 C972 1.381 . S
C974 C975 1.394 . S
C974 H982 0.930 . S
C975 C974 1.394 . S
C975 C976 1.383 . S
C975 H983 0.929 . S
C976 C975 1.383 . S
C976 C977 1.377 . S
C977 H961 0.930 . S
C977 C976 1.377 . S
C977 C978 1.379 . S
C978 H962 0.931 . S
C978 C972 1.383 . S
C978 C977 1.379 . S
H979 C973 0.959 . S
H980 C973 0.961 . S
H981 C973 0.960 . S
H982 C974 0.930 . S
H983 C975 0.929 . S
H984 C992 0.929 . S
H985 C994 0.930 . S
H986 C996 0.930 . S
H987 C999 0.929 . S
H988 C1002 0.930 . S
H989 C1004 0.960 . S
H990 C1004 0.960 . S
H991 C1004 0.960 . S
C992 H984 0.929 . S
C992 C993 1.377 . S
C992 C994 1.384 . S
C993 C992 1.377 . S
C993 C999 1.390 . S
C994 H985 0.930 . S
C994 C992 1.384 . S
C994 C995 1.372 . S
C995 C994 1.372 . S
C995 C996 1.400 . S
C995 C1000 1.490 . S
C996 H986 0.930 . S
C996 C995 1.400 . S
C996 C999 1.386 . S
H997 C1013 0.930 . S
H998 C1014 0.931 . S
C999 H987 0.929 . S
C999 C993 1.390 . S
C999 C996 1.386 . S
C1000 C995 1.490 . S
C1000 C1002 1.395 . S
C1000 C1003 1.403 . S
H1001 C1007 0.930 . S
C1002 H988 0.930 . S
C1002 C1000 1.395 . S
C1002 C1005 1.403 . S
C1003 C1000 1.403 . S
C1003 C1004 1.524 . S
C1003 C1007 1.400 . S
C1004 H989 0.960 . S
C1004 H990 0.960 . S
C1004 H991 0.960 . S
C1004 C1003 1.524 . S
C1005 C1002 1.403 . S
C1005 C1006 1.392 . S
C1005 C1009 1.495 . S
C1006 C1005 1.392 . S
C1006 C1007 1.385 . S
C1006 C1008 1.478 . S
C1007 H1001 0.930 . S
C1007 C1003 1.400 . S
C1007 C1006 1.385 . S
C1008 C1006 1.478 . S
C1008 C1010 1.381 . S
C1008 C1014 1.383 . S
C1009 C1005 1.495 . S
C1009 H1015 0.959 . S
C1009 H1016 0.961 . S
C1009 H1017 0.960 . S
C1010 C1008 1.381 . S
C1010 C1011 1.394 . S
C1010 H1018 0.930 . S
C1011 C1010 1.394 . S
C1011 C1012 1.383 . S
C1011 H1019 0.929 . S
C1012 C1011 1.383 . S
C1012 C1013 1.377 . S
C1013 H997 0.930 . S
C1013 C1012 1.377 . S
C1013 C1014 1.379 . S
C1014 H998 0.931 . S
C1014 C1008 1.383 . S
C1014 C1013 1.379 . S
H1015 C1009 0.959 . S
H1016 C1009 0.961 . S
H1017 C1009 0.960 . S
H1018 C1010 0.930 . S
H1019 C1011 0.929 . S
H1020 C1028 0.929 . S
H1021 C1030 0.930 . S
H1022 C1032 0.930 . S
H1023 C1035 0.929 . S
H1024 C1038 0.930 . S
H1025 C1040 0.960 . S
H1026 C1040 0.960 . S
H1027 C1040 0.960 . S
C1028 H1020 0.929 . S
C1028 C1029 1.377 . S
C1028 C1030 1.384 . S
C1029 C1028 1.377 . S
C1029 C1035 1.390 . S
C1030 H1021 0.930 . S
C1030 C1028 1.384 . S
C1030 C1031 1.372 . S
C1031 C1030 1.372 . S
C1031 C1032 1.400 . S
C1031 C1036 1.490 . S
C1032 H1022 0.930 . S
C1032 C1031 1.400 . S
C1032 C1035 1.386 . S
H1033 C1049 0.930 . S
H1034 C1050 0.931 . S
C1035 H1023 0.929 . S
C1035 C1029 1.390 . S
C1035 C1032 1.386 . S
C1036 C1031 1.490 . S
C1036 C1038 1.395 . S
C1036 C1039 1.403 . S
H1037 C1043 0.930 . S
C1038 H1024 0.930 . S
C1038 C1036 1.395 . S
C1038 C1041 1.403 . S
C1039 C1036 1.403 . S
C1039 C1040 1.524 . S
C1039 C1043 1.400 . S
C1040 H1025 0.960 . S
C1040 H1026 0.960 . S
C1040 H1027 0.960 . S
C1040 C1039 1.524 . S
C1041 C1038 1.403 . S
C1041 C1042 1.392 . S
C1041 C1045 1.495 . S
C1042 C1041 1.392 . S
C1042 C1043 1.385 . S
C1042 C1044 1.478 . S
C1043 H1037 0.930 . S
C1043 C1039 1.400 . S
C1043 C1042 1.385 . S
C1044 C1042 1.478 . S
C1044 C1046 1.381 . S
C1044 C1050 1.383 . S
C1045 C1041 1.495 . S
C1045 H1051 0.959 . S
C1045 H1052 0.961 . S
C1045 H1053 0.960 . S
C1046 C1044 1.381 . S
C1046 C1047 1.394 . S
C1046 H1054 0.930 . S
C1047 C1046 1.394 . S
C1047 C1048 1.383 . S
C1047 H1055 0.929 . S
C1048 C1047 1.383 . S
C1048 C1049 1.377 . S
C1049 H1033 0.930 . S
C1049 C1048 1.377 . S
C1049 C1050 1.379 . S
C1050 H1034 0.931 . S
C1050 C1044 1.383 . S
C1050 C1049 1.379 . S
H1051 C1045 0.959 . S
H1052 C1045 0.961 . S
H1053 C1045 0.960 . S
H1054 C1046 0.930 . S
H1055 C1047 0.929 . S
H1056 C1064 0.929 . S
H1057 C1066 0.930 . S
H1058 C1068 0.930 . S
H1059 C1071 0.929 . S
H1060 C1074 0.930 . S
H1061 C1076 0.960 . S
H1062 C1076 0.960 . S
H1063 C1076 0.960 . S
C1064 H1056 0.929 . S
C1064 C1065 1.377 . S
C1064 C1066 1.384 . S
C1065 C1064 1.377 . S
C1065 C1071 1.390 . S
C1066 H1057 0.930 . S
C1066 C1064 1.384 . S
C1066 C1067 1.372 . S
C1067 C1066 1.372 . S
C1067 C1068 1.400 . S
C1067 C1072 1.490 . S
C1068 H1058 0.930 . S
C1068 C1067 1.400 . S
C1068 C1071 1.386 . S
H1069 C1085 0.930 . S
H1070 C1086 0.931 . S
C1071 H1059 0.929 . S
C1071 C1065 1.390 . S
C1071 C1068 1.386 . S
C1072 C1067 1.490 . S
C1072 C1074 1.395 . S
C1072 C1075 1.403 . S
H1073 C1079 0.930 . S
C1074 H1060 0.930 . S
C1074 C1072 1.395 . S
C1074 C1077 1.403 . S
C1075 C1072 1.403 . S
C1075 C1076 1.524 . S
C1075 C1079 1.400 . S
C1076 H1061 0.960 . S
C1076 H1062 0.960 . S
C1076 H1063 0.960 . S
C1076 C1075 1.524 . S
C1077 C1074 1.403 . S
C1077 C1078 1.392 . S
C1077 C1081 1.495 . S
C1078 C1077 1.392 . S
C1078 C1079 1.385 . S
C1078 C1080 1.478 . S
C1079 H1073 0.930 . S
C1079 C1075 1.400 . S
C1079 C1078 1.385 . S
C1080 C1078 1.478 . S
C1080 C1082 1.381 . S
C1080 C1086 1.383 . S
C1081 C1077 1.495 . S
C1081 H1087 0.959 . S
C1081 H1088 0.961 . S
C1081 H1089 0.960 . S
C1082 C1080 1.381 . S
C1082 C1083 1.394 . S
C1082 H1090 0.930 . S
C1083 C1082 1.394 . S
C1083 C1084 1.383 . S
C1083 H1091 0.929 . S
C1084 C1083 1.383 . S
C1084 C1085 1.377 . S
C1085 H1069 0.930 . S
C1085 C1084 1.377 . S
C1085 C1086 1.379 . S
C1086 H1070 0.931 . S
C1086 C1080 1.383 . S
C1086 C1085 1.379 . S
H1087 C1081 0.959 . S
H1088 C1081 0.961 . S
H1089 C1081 0.960 . S
H1090 C1082 0.930 . S
H1091 C1083 0.929 . S
H1092 C1100 0.929 . S
H1093 C1102 0.930 . S
H1094 C1104 0.930 . S
H1095 C1107 0.929 . S
H1096 C1110 0.930 . S
H1097 C1112 0.960 . S
H1098 C1112 0.960 . S
H1099 C1112 0.960 . S
C1100 H1092 0.929 . S
C1100 C1101 1.377 . S
C1100 C1102 1.384 . S
C1101 C1100 1.377 . S
C1101 C1107 1.390 . S
C1102 H1093 0.930 . S
C1102 C1100 1.384 . S
C1102 C1103 1.372 . S
C1103 C1102 1.372 . S
C1103 C1104 1.400 . S
C1103 C1108 1.490 . S
C1104 H1094 0.930 . S
C1104 C1103 1.400 . S
C1104 C1107 1.386 . S
H1105 C1121 0.930 . S
H1106 C1122 0.931 . S
C1107 H1095 0.929 . S
C1107 C1101 1.390 . S
C1107 C1104 1.386 . S
C1108 C1103 1.490 . S
C1108 C1110 1.395 . S
C1108 C1111 1.403 . S
H1109 C1115 0.930 . S
C1110 H1096 0.930 . S
C1110 C1108 1.395 . S
C1110 C1113 1.403 . S
C1111 C1108 1.403 . S
C1111 C1112 1.524 . S
C1111 C1115 1.400 . S
C1112 H1097 0.960 . S
C1112 H1098 0.960 . S
C1112 H1099 0.960 . S
C1112 C1111 1.524 . S
C1113 C1110 1.403 . S
C1113 C1114 1.392 . S
C1113 C1117 1.495 . S
C1114 C1113 1.392 . S
C1114 C1115 1.385 . S
C1114 C1116 1.478 . S
C1115 H1109 0.930 . S
C1115 C1111 1.400 . S
C1115 C1114 1.385 . S
C1116 C1114 1.478 . S
C1116 C1118 1.381 . S
C1116 C1122 1.383 . S
C1117 C1113 1.495 . S
C1117 H1123 0.959 . S
C1117 H1124 0.961 . S
C1117 H1125 0.960 . S
C1118 C1116 1.381 . S
C1118 C1119 1.394 . S
C1118 H1126 0.930 . S
C1119 C1118 1.394 . S
C1119 C1120 1.383 . S
C1119 H1127 0.929 . S
C1120 C1119 1.383 . S
C1120 C1121 1.377 . S
C1121 H1105 0.930 . S
C1121 C1120 1.377 . S
C1121 C1122 1.379 . S
C1122 H1106 0.931 . S
C1122 C1116 1.383 . S
C1122 C1121 1.379 . S
H1123 C1117 0.959 . S
H1124 C1117 0.961 . S
H1125 C1117 0.960 . S
H1126 C1118 0.930 . S
H1127 C1119 0.929 . S
H1128 C1136 0.929 . S
H1129 C1138 0.930 . S
H1130 C1140 0.930 . S
H1131 C1143 0.929 . S
H1132 C1146 0.930 . S
H1133 C1148 0.960 . S
H1134 C1148 0.960 . S
H1135 C1148 0.960 . S
C1136 H1128 0.929 . S
C1136 C1137 1.377 . S
C1136 C1138 1.384 . S
C1137 C1136 1.377 . S
C1137 C1143 1.390 . S
C1138 H1129 0.930 . S
C1138 C1136 1.384 . S
C1138 C1139 1.372 . S
C1139 C1138 1.372 . S
C1139 C1140 1.400 . S
C1139 C1144 1.490 . S
C1140 H1130 0.930 . S
C1140 C1139 1.400 . S
C1140 C1143 1.386 . S
H1141 C1157 0.930 . S
H1142 C1158 0.931 . S
C1143 H1131 0.929 . S
C1143 C1137 1.390 . S
C1143 C1140 1.386 . S
C1144 C1139 1.490 . S
C1144 C1146 1.395 . S
C1144 C1147 1.403 . S
H1145 C1151 0.930 . S
C1146 H1132 0.930 . S
C1146 C1144 1.395 . S
C1146 C1149 1.403 . S
C1147 C1144 1.403 . S
C1147 C1148 1.524 . S
C1147 C1151 1.400 . S
C1148 H1133 0.960 . S
C1148 H1134 0.960 . S
C1148 H1135 0.960 . S
C1148 C1147 1.524 . S
C1149 C1146 1.403 . S
C1149 C1150 1.392 . S
C1149 C1153 1.495 . S
C1150 C1149 1.392 . S
C1150 C1151 1.385 . S
C1150 C1152 1.478 . S
C1151 H1145 0.930 . S
C1151 C1147 1.400 . S
C1151 C1150 1.385 . S
C1152 C1150 1.478 . S
C1152 C1154 1.381 . S
C1152 C1158 1.383 . S
C1153 C1149 1.495 . S
C1153 H1159 0.959 . S
C1153 H1160 0.961 . S
C1153 H1161 0.960 . S
C1154 C1152 1.381 . S
C1154 C1155 1.394 . S
C1154 H1162 0.930 . S
C1155 C1154 1.394 . S
C1155 C1156 1.383 . S
C1155 H1163 0.929 . S
C1156 C1155 1.383 . S
C1156 C1157 1.377 . S
C1157 H1141 0.930 . S
C1157 C1156 1.377 . S
C1157 C1158 1.379 . S
C1158 H1142 0.931 . S
C1158 C1152 1.383 . S
C1158 C1157 1.379 . S
H1159 C1153 0.959 . S
H1160 C1153 0.961 . S
H1161 C1153 0.960 . S
H1162 C1154 0.930 . S
H1163 C1155 0.929 . S
H1164 C1172 0.929 . S
H1165 C1174 0.930 . S
H1166 C1176 0.930 . S
H1167 C1179 0.929 . S
H1168 C1182 0.930 . S
H1169 C1184 0.960 . S
H1170 C1184 0.960 . S
H1171 C1184 0.960 . S
C1172 H1164 0.929 . S
C1172 C1173 1.377 . S
C1172 C1174 1.384 . S
C1173 C1172 1.377 . S
C1173 C1179 1.390 . S
C1174 H1165 0.930 . S
C1174 C1172 1.384 . S
C1174 C1175 1.372 . S
C1175 C1174 1.372 . S
C1175 C1176 1.400 . S
C1175 C1180 1.490 . S
C1176 H1166 0.930 . S
C1176 C1175 1.400 . S
C1176 C1179 1.386 . S
H1177 C1193 0.930 . S
H1178 C1194 0.931 . S
C1179 H1167 0.929 . S
C1179 C1173 1.390 . S
C1179 C1176 1.386 . S
C1180 C1175 1.490 . S
C1180 C1182 1.395 . S
C1180 C1183 1.403 . S
H1181 C1187 0.930 . S
C1182 H1168 0.930 . S
C1182 C1180 1.395 . S
C1182 C1185 1.403 . S
C1183 C1180 1.403 . S
C1183 C1184 1.524 . S
C1183 C1187 1.400 . S
C1184 H1169 0.960 . S
C1184 H1170 0.960 . S
C1184 H1171 0.960 . S
C1184 C1183 1.524 . S
C1185 C1182 1.403 . S
C1185 C1186 1.392 . S
C1185 C1189 1.495 . S
C1186 C1185 1.392 . S
C1186 C1187 1.385 . S
C1186 C1188 1.478 . S
C1187 H1181 0.930 . S
C1187 C1183 1.400 . S
C1187 C1186 1.385 . S
C1188 C1186 1.478 . S
C1188 C1190 1.381 . S
C1188 C1194 1.383 . S
C1189 C1185 1.495 . S
C1189 H1195 0.959 . S
C1189 H1196 0.961 . S
C1189 H1197 0.960 . S
C1190 C1188 1.381 . S
C1190 C1191 1.394 . S
C1190 H1198 0.930 . S
C1191 C1190 1.394 . S
C1191 C1192 1.383 . S
C1191 H1199 0.929 . S
C1192 C1191 1.383 . S
C1192 C1193 1.377 . S
C1193 H1177 0.930 . S
C1193 C1192 1.377 . S
C1193 C1194 1.379 . S
C1194 H1178 0.931 . S
C1194 C1188 1.383 . S
C1194 C1193 1.379 . S
H1195 C1189 0.959 . S
H1196 C1189 0.961 . S
H1197 C1189 0.960 . S
H1198 C1190 0.930 . S
H1199 C1191 0.929 . S
C345 C29 1.559 . S
C364 C275 1.512 . S
C381 C49 1.250 . S
C400 C278 1.188 . S
C436 C314 1.756 . S
C417 C93 1.753 . S
C453 C119 1.589 . S
C472 C334 1.577 . S
C508 C288 1.690 . S
C489 C17 1.730 . S
C544 C265 1.578 . S
C525 C61 1.590 . S
C580 C318 1.523 . S
C561 C81 1.608 . S
C616 C298 1.409 . S
C597 C125 1.468 . S
C633 C23 1.315 . S
C652 C328 1.237 . S
C688 C294 1.541 . S
C669 C87 1.556 . S
C705 C113 1.663 . S
C724 C260 1.604 . S
C741 C55 1.317 . S
C760 C308 1.297 . S
C796 C274 1.458 . S
C777 C157 1.415 . S
C813 C189 1.297 . S
C832 C280 1.290 . S
C849 C221 1.700 . S
C868 C315 1.706 . S
C885 C253 1.653 . S
C904 C335 1.644 . S
C921 C145 1.737 . S
C940 C285 1.741 . S
C976 C268 1.496 . S
C957 C183 1.523 . S
C1012 C320 1.587 . S
C993 C209 1.628 . S
C1048 C300 1.365 . S
C1029 C247 1.421 . S
C1065 C151 1.269 . S
C1084 C325 1.269 . S
C1120 C295 1.528 . S
C1101 C215 1.532 . S
C1156 C258 1.558 . S
C1137 C241 1.633 . S
C1173 C177 1.343 . S
C1192 C305 1.355 . S
