# Generated by pormake.
# Topology nom, (4,4)-cn, num edge types: 1
# Building blocks:
#     Node 0, Type 0, BuildingBlock: NAHDIM_clean_linker_0, # of connection points: 4
#     Node 1, Type 0, BuildingBlock: NAHDIM_clean_linker_0, # of connection points: 4
#     Node 2, Type 0, BuildingBlock: NAHDIM_clean_linker_0, # of connection points: 4
#     Node 3, Type 0, BuildingBlock: NAHDIM_clean_linker_0, # of connection points: 4
#     Node 4, Type 0, BuildingBlock: NAHDIM_clean_linker_0, # of connection points: 4
#     Node 5, Type 0, BuildingBlock: NAHDIM_clean_linker_0, # of connection points: 4
#     Node 6, Type 1, BuildingBlock: AZAVOO_clean_sbu_0, # of connection points: 4
#     Node 7, Type 1, BuildingBlock: AZAVOO_clean_sbu_0, # of connection points: 4
#     Node 8, Type 1, BuildingBlock: AZAVOO_clean_sbu_0, # of connection points: 4
#     Node 9, Type 1, BuildingBlock: AZAVOO_clean_sbu_0, # of connection points: 4
#     Node 10, Type 1, BuildingBlock: AZAVOO_clean_sbu_0, # of connection points: 4
#     Node 11, Type 1, BuildingBlock: AZAVOO_clean_sbu_0, # of connection points: 4
#     Edge 12, Type (0, 1), None
#     Edge 13, Type (0, 1), None
#     Edge 14, Type (0, 1), None
#     Edge 15, Type (0, 1), None
#     Edge 16, Type (0, 1), None
#     Edge 17, Type (0, 1), None
#     Edge 18, Type (0, 1), None
#     Edge 19, Type (0, 1), None
#     Edge 20, Type (0, 1), None
#     Edge 21, Type (0, 1), None
#     Edge 22, Type (0, 1), None
#     Edge 23, Type (0, 1), None
#     Edge 24, Type (0, 1), None
#     Edge 25, Type (0, 1), None
#     Edge 26, Type (0, 1), None
#     Edge 27, Type (0, 1), None
#     Edge 28, Type (0, 1), None
#     Edge 29, Type (0, 1), None
#     Edge 30, Type (0, 1), None
#     Edge 31, Type (0, 1), None
#     Edge 32, Type (0, 1), None
#     Edge 33, Type (0, 1), None
#     Edge 34, Type (0, 1), None
#     Edge 35, Type (0, 1), None
# Relax obj value: 0.101
# Max RMSD: 0.175
# Mean RMSD: 0.149
data_MOF--net-nom--node1-AZAVOO_clean_sbu_0--node2-NAHDIM_clean_linker_0--edge1-none
_symmetry_space_group_name_H-M    P1
_symmetry_Int_Tables_number       1
_symmetry_cell_setting            triclinic
loop_
_symmetry_equiv_pos_as_xyz
'x, y, z'
_cell_length_a     35.391151
_cell_length_b     35.653892
_cell_length_c     41.539099
_cell_angle_alpha  90.99359
_cell_angle_beta   90.862447
_cell_angle_gamma 120.31705
loop_
_atom_site_label
_atom_site_type_symbol
_atom_site_fract_x
_atom_site_fract_y
_atom_site_fract_z
_atom_type_partial_charge
C0 C 0.28145 0.70449 0.14586 0.0
C1 C 0.24719 0.69585 0.17109 0.0
C2 C 0.20152 0.63244 0.20381 0.0
C3 C 0.19638 0.59345 0.21525 0.0
C4 C 0.15678 0.56199 0.22847 0.0
C5 C 0.12203 0.57049 0.23133 0.0
C6 C 0.12772 0.6107 0.22138 0.0
C7 C 0.16686 0.64071 0.20717 0.0
C8 C 0.15163 0.51929 0.23863 0.0
C9 C 0.0919 0.62161 0.22498 0.0
C10 C 0.84529 0.30743 0.11792 0.0
C11 C 0.83646 0.3408 0.13479 0.0
C12 C 0.90453 0.40638 0.15229 0.0
C13 C 0.92378 0.45156 0.15255 0.0
C14 C 0.9566 0.47788 0.17546 0.0
C15 C 0.97173 0.45839 0.19768 0.0
C16 C 0.95418 0.41283 0.1962 0.0
C17 C 0.92014 0.38723 0.17397 0.0
C18 C 0.97418 0.52625 0.17639 0.0
C19 C 0.97056 0.39092 0.21862 0.0
C20 C 0.80825 0.4111 0.35518 0.0
C21 C 0.83093 0.45643 0.35235 0.0
C22 C 0.87681 0.4803 0.3543 0.0
C23 C 0.90024 0.45827 0.35904 0.0
C24 C 0.87728 0.41323 0.36497 0.0
C25 C 0.83134 0.39022 0.36323 0.0
C26 C 0.90031 0.5286 0.34913 0.0
C27 C 0.90128 0.38894 0.37081 0.0
C28 C 0.14738 0.65311 0.50621 0.0
C29 C 0.1687 0.62949 0.49019 0.0
C30 C 0.11162 0.57446 0.45308 0.0
C31 C 0.10741 0.60302 0.43243 0.0
C32 C 0.07785 0.58689 0.40591 0.0
C33 C 0.05441 0.54158 0.39873 0.0
C34 C 0.05984 0.51302 0.419 0.0
C35 C 0.08768 0.52988 0.44624 0.0
C36 C 0.0715 0.61838 0.38593 0.0
C37 C 0.03586 0.46454 0.4123 0.0
C38 C 0.07814 0.53637 0.24162 0.0
C39 C 0.04724 0.5114 0.21733 0.0
C40 C 0.00307 0.48485 0.22421 0.0
C41 C 0.989 0.48384 0.25598 0.0
C42 C 0.94433 0.46066 0.26316 0.0
C43 C 0.93071 0.45963 0.29442 0.0
C44 C 0.96122 0.48143 0.31989 0.0
C45 C 0.94747 0.48049 0.35177 0.0
C46 C 0.97852 0.50129 0.3767 0.0
C47 C 0.02341 0.52351 0.37063 0.0
C48 C 0.03777 0.52634 0.33862 0.0
C49 C 0.08248 0.54975 0.33126 0.0
C50 C 0.09584 0.55386 0.29946 0.0
C51 C 0.06522 0.53251 0.27403 0.0
C52 C 0.02028 0.50686 0.2811 0.0
C53 C 0.00644 0.5049 0.31324 0.0
C54 C 0.71148 0.35422 0.30655 0.0
C55 C 0.74091 0.39543 0.32675 0.0
O56 O 0.23986 0.66084 0.18965 0.0
O57 O 0.13711 0.58781 0.48034 0.0
O58 O 0.76446 0.38651 0.34924 0.0
O59 O 0.87137 0.38247 0.13067 0.0
H60 H 0.21683 0.68767 0.15702 0.0
H61 H 0.27071 0.67469 0.13067 0.0
H62 H 0.28515 0.73081 0.12994 0.0
H63 H 0.31374 0.71436 0.15713 0.0
H64 H 0.22298 0.58699 0.21294 0.0
H65 H 0.16954 0.67022 0.19853 0.0
H66 H 0.12494 0.49233 0.22396 0.0
H67 H 0.18216 0.51808 0.23577 0.0
H68 H 0.14209 0.51372 0.26421 0.0
H69 H 0.10311 0.65597 0.21937 0.0
H70 H 0.0639 0.60023 0.2085 0.0
H71 H 0.07981 0.61569 0.24995 0.0
H72 H 0.83181 0.33365 0.16088 0.0
H73 H 0.85478 0.31647 0.09267 0.0
H74 H 0.87262 0.30626 0.13031 0.0
H75 H 0.81592 0.27438 0.1183 0.0
H76 H 0.91179 0.46604 0.13547 0.0
H77 H 0.90603 0.35236 0.17364 0.0
H78 H 0.97357 0.53775 0.20129 0.0
H79 H 0.00875 0.54328 0.16886 0.0
H80 H 0.95521 0.53553 0.16014 0.0
H81 H 0.96062 0.35746 0.20994 0.0
H82 H 0.00681 0.41004 0.2213 0.0
H83 H 0.95679 0.38879 0.24278 0.0
H84 H 0.76306 0.42052 0.30979 0.0
H85 H 0.81294 0.473 0.34766 0.0
H86 H 0.81338 0.35534 0.36617 0.0
H87 H 0.91543 0.53537 0.32513 0.0
H88 H 0.87783 0.5418 0.35023 0.0
H89 H 0.92703 0.54595 0.36754 0.0
H90 H 0.87896 0.35504 0.37815 0.0
H91 H 0.91761 0.38804 0.34843 0.0
H92 H 0.92712 0.40609 0.38983 0.0
H93 H 0.18841 0.64847 0.4696 0.0
H94 H 0.12933 0.63563 0.52781 0.0
H95 H 0.17278 0.6868 0.51368 0.0
H96 H 0.12387 0.65521 0.4895 0.0
H97 H 0.12627 0.63772 0.43712 0.0
H98 H 0.09118 0.50817 0.46237 0.0
H99 H 0.09054 0.62509 0.36367 0.0
H100 H 0.03651 0.60458 0.37875 0.0
H101 H 0.083 0.64981 0.39914 0.0
H102 H 0.05011 0.44825 0.42643 0.0
H103 H 0.00114 0.4505 0.41895 0.0
H104 H 0.0365 0.45715 0.3863 0.0
H105 H 0.05749 0.51372 0.1926 0.0
H106 H 0.91921 0.44333 0.24465 0.0
H107 H 0.89584 0.44127 0.29828 0.0
H108 H 0.96764 0.49983 0.40117 0.0
H109 H 0.10764 0.56587 0.34991 0.0
H110 H 0.13053 0.57323 0.29507 0.0
H111 H 0.69223 0.36053 0.28828 0.0
H112 H 0.73191 0.34352 0.29373 0.0
H113 H 0.68861 0.32754 0.32204 0.0
C114 C 0.29901 0.72455 0.61668 0.0
C115 C 0.31097 0.75879 0.59114 0.0
C116 C 0.38264 0.81335 0.57032 0.0
C117 C 0.42514 0.8223 0.56429 0.0
C118 C 0.45701 0.86266 0.55283 0.0
C119 C 0.44604 0.895 0.54714 0.0
C120 C 0.40308 0.88629 0.5529 0.0
C121 C 0.37187 0.84567 0.56446 0.0
C122 C 0.50259 0.87098 0.54719 0.0
C123 C 0.39034 0.92022 0.54728 0.0
C124 C 0.56391 0.16003 0.67297 0.0
C125 C 0.60588 0.18301 0.65316 0.0
C126 C 0.59658 0.11935 0.62219 0.0
C127 C 0.55975 0.11249 0.60396 0.0
C128 C 0.53676 0.0757 0.5837 0.0
C129 C 0.55283 0.04679 0.57958 0.0
C130 C 0.59019 0.05373 0.59753 0.0
C131 C 0.61131 0.08978 0.61893 0.0
C132 C 0.4961 0.06877 0.56586 0.0
C133 C 0.60845 0.02385 0.59336 0.0
C134 C 0.62088 0.20194 0.41314 0.0
C135 C 0.57556 0.17951 0.4179 0.0
C136 C 0.5522 0.1341 0.41993 0.0
C137 C 0.57445 0.11063 0.41649 0.0
C138 C 0.61947 0.1329 0.40951 0.0
C139 C 0.64209 0.17839 0.4078 0.0
C140 C 0.50399 0.1113 0.42693 0.0
C141 C 0.64406 0.10884 0.40551 0.0
C142 C 0.33997 0.79555 0.31749 0.0
C143 C 0.38857 0.82229 0.30958 0.0
C144 C 0.42628 0.89652 0.33055 0.0
C145 C 0.41289 0.92463 0.34255 0.0
C146 C 0.43696 0.9551 0.36733 0.0
C147 C 0.47604 0.9582 0.37954 0.0
C148 C 0.49094 0.93134 0.36619 0.0
C149 C 0.46572 0.90057 0.34187 0.0
C150 C 0.4203 0.98353 0.38071 0.0
C151 C 0.53322 0.93482 0.37785 0.0
C152 C 0.48 0.93879 0.53689 0.0
C153 C 0.5037 0.97031 0.56107 0.0
C154 C 0.53376 0.01311 0.5534 0.0
C155 C 0.54129 0.02488 0.52086 0.0
C156 C 0.57168 0.0677 0.51253 0.0
C157 C 0.57544 0.0804 0.48085 0.0
C158 C 0.55002 0.05045 0.45608 0.0
C159 C 0.55163 0.0638 0.42408 0.0
C160 C 0.52788 0.03297 0.39963 0.0
C161 C 0.50098 0.98905 0.40656 0.0
C162 C 0.49679 0.9755 0.43882 0.0
C163 C 0.46777 0.93218 0.44705 0.0
C164 C 0.46262 0.91981 0.4791 0.0
C165 C 0.48647 0.95023 0.5041 0.0
C166 C 0.51689 0.99364 0.49617 0.0
C167 C 0.52165 0.00639 0.46361 0.0
C168 C 0.67541 0.30227 0.45363 0.0
C169 C 0.63694 0.27503 0.43015 0.0
O170 O 0.35353 0.77347 0.58166 0.0
O171 O 0.40047 0.86563 0.30817 0.0
O172 O 0.64522 0.24603 0.41338 0.0
O173 O 0.61846 0.15363 0.6433 0.0
H174 H 0.30878 0.78586 0.6029 0.0
H175 H 0.31932 0.73994 0.6389 0.0
H176 H 0.26398 0.70976 0.62283 0.0
H177 H 0.30552 0.69889 0.60819 0.0
H178 H 0.43363 0.7977 0.56894 0.0
H179 H 0.33939 0.83983 0.56891 0.0
H180 H 0.52636 0.8981 0.56337 0.0
H181 H 0.50554 0.8419 0.55162 0.0
H182 H 0.51175 0.88104 0.52202 0.0
H183 H 0.35518 0.90793 0.55171 0.0
H184 H 0.41036 0.94895 0.56347 0.0
H185 H 0.39721 0.93129 0.52211 0.0
H186 H 0.60036 0.19868 0.63211 0.0
H187 H 0.55357 0.18345 0.68058 0.0
H188 H 0.53609 0.13346 0.65904 0.0
H189 H 0.56963 0.14578 0.69482 0.0
H190 H 0.5486 0.13565 0.60529 0.0
H191 H 0.63988 0.0954 0.63295 0.0
H192 H 0.47077 0.03374 0.56424 0.0
H193 H 0.48187 0.08681 0.57774 0.0
H194 H 0.50457 0.08062 0.541 0.0
H195 H 0.63798 0.03391 0.60896 0.0
H196 H 0.58315 0.99019 0.59918 0.0
H197 H 0.61716 0.02337 0.56784 0.0
H198 H 0.60736 0.25851 0.44503 0.0
H199 H 0.55829 0.19721 0.42024 0.0
H200 H 0.67691 0.19594 0.40344 0.0
H201 H 0.49835 0.09579 0.45069 0.0
H202 H 0.49098 0.13387 0.42728 0.0
H203 H 0.48525 0.08516 0.40849 0.0
H204 H 0.6779 0.13025 0.39722 0.0
H205 H 0.64585 0.09514 0.42891 0.0
H206 H 0.62631 0.08122 0.38795 0.0
H207 H 0.407 0.81676 0.32909 0.0
H208 H 0.31954 0.80026 0.29925 0.0
H209 H 0.32932 0.76045 0.31826 0.0
H210 H 0.33459 0.80611 0.34145 0.0
H211 H 0.38269 0.92158 0.33317 0.0
H212 H 0.47679 0.87974 0.33163 0.0
H213 H 0.4203 0.98305 0.40743 0.0
H214 H 0.44245 0.01756 0.37367 0.0
H215 H 0.38667 0.97319 0.37159 0.0
H216 H 0.54261 0.91507 0.36261 0.0
H217 H 0.56012 0.96926 0.37807 0.0
H218 H 0.52964 0.92346 0.40293 0.0
H219 H 0.49737 0.96185 0.58616 0.0
H220 H 0.59222 0.09227 0.53051 0.0
H221 H 0.59844 0.11411 0.47612 0.0
H222 H 0.52948 0.04343 0.37506 0.0
H223 H 0.44812 0.90751 0.42886 0.0
H224 H 0.43938 0.88623 0.48408 0.0
H225 H 0.6694 0.32517 0.46811 0.0
H226 H 0.67951 0.28061 0.47045 0.0
H227 H 0.70625 0.3211 0.44038 0.0
C228 C 0.55345 0.29031 0.7681 0.0
C229 C 0.54114 0.30839 0.73939 0.0
C230 C 0.56396 0.38397 0.72579 0.0
C231 C 0.59875 0.42695 0.72704 0.0
C232 C 0.59331 0.46125 0.71647 0.0
C233 C 0.55187 0.45228 0.70446 0.0
C234 C 0.5166 0.40884 0.70279 0.0
C235 C 0.52307 0.37521 0.71316 0.0
C236 C 0.63174 0.50707 0.71825 0.0
C237 C 0.47171 0.39781 0.6903 0.0
C238 C 0.51219 0.62358 0.86041 0.0
C239 C 0.47021 0.6081 0.84002 0.0
C240 C 0.48973 0.60358 0.7855 0.0
C241 C 0.45963 0.56039 0.77623 0.0
C242 C 0.46981 0.53863 0.75254 0.0
C243 C 0.511 0.56065 0.73785 0.0
C244 C 0.54136 0.60437 0.74704 0.0
C245 C 0.53005 0.6255 0.77055 0.0
C246 C 0.43636 0.49232 0.7429 0.0
C247 C 0.58558 0.62875 0.73189 0.0
C248 C 0.41836 0.62649 0.56378 0.0
C249 C 0.39595 0.58365 0.57416 0.0
C250 C 0.41757 0.56 0.57762 0.0
C251 C 0.46296 0.58028 0.57153 0.0
C252 C 0.48511 0.62299 0.55968 0.0
C253 C 0.46218 0.6453 0.55542 0.0
C254 C 0.39213 0.51388 0.58889 0.0
C255 C 0.53334 0.64576 0.55284 0.0
C256 C 0.67096 0.47224 0.49166 0.0
C257 C 0.64906 0.48466 0.46509 0.0
C258 C 0.58593 0.48125 0.49216 0.0
C259 C 0.5409 0.45543 0.49671 0.0
C260 C 0.51961 0.46745 0.51941 0.0
C261 C 0.54402 0.50665 0.53764 0.0
C262 C 0.58922 0.53385 0.53224 0.0
C263 C 0.60981 0.5207 0.50986 0.0
C264 C 0.4714 0.43775 0.52462 0.0
C265 C 0.6161 0.5765 0.55068 0.0
C266 C 0.54436 0.48803 0.69472 0.0
C267 C 0.53568 0.5103 0.71889 0.0
C268 C 0.52099 0.53895 0.71123 0.0
C269 C 0.51367 0.54489 0.67867 0.0
C270 C 0.49591 0.57098 0.67022 0.0
C271 C 0.48761 0.57561 0.63818 0.0
C272 C 0.49718 0.55475 0.61326 0.0
C273 C 0.48778 0.55837 0.58059 0.0
C274 C 0.50174 0.5408 0.5563 0.0
C275 C 0.52353 0.51833 0.56391 0.0
C276 C 0.52906 0.51064 0.59647 0.0
C277 C 0.54704 0.48468 0.60491 0.0
C278 C 0.55201 0.47709 0.63706 0.0
C279 C 0.54045 0.49626 0.66198 0.0
C280 C 0.52389 0.52385 0.65397 0.0
C281 C 0.51667 0.52971 0.6212 0.0
C282 C 0.4058 0.70643 0.59795 0.0
C283 C 0.37927 0.65821 0.58851 0.0
O284 O 0.57134 0.35239 0.73704 0.0
O285 O 0.60482 0.46659 0.47089 0.0
O286 O 0.39843 0.65041 0.56233 0.0
O287 O 0.48078 0.62418 0.80935 0.0
H288 H 0.50834 0.30359 0.74469 0.0
H289 H 0.55267 0.30715 0.79062 0.0
H290 H 0.52948 0.25508 0.77003 0.0
H291 H 0.58677 0.2955 0.76592 0.0
H292 H 0.6303 0.43361 0.73656 0.0
H293 H 0.49571 0.34235 0.71135 0.0
H294 H 0.62543 0.52653 0.73623 0.0
H295 H 0.66275 0.50823 0.72525 0.0
H296 H 0.63578 0.52252 0.69459 0.0
H297 H 0.44664 0.36326 0.69391 0.0
H298 H 0.46111 0.41877 0.70253 0.0
H299 H 0.47302 0.40401 0.66414 0.0
H300 H 0.45235 0.57191 0.83926 0.0
H301 H 0.50414 0.61147 0.88529 0.0
H302 H 0.53218 0.61082 0.84967 0.0
H303 H 0.53206 0.65966 0.86148 0.0
H304 H 0.42799 0.54386 0.78736 0.0
H305 H 0.553 0.65891 0.77789 0.0
H306 H 0.44978 0.47081 0.74819 0.0
H307 H 0.40522 0.48034 0.75578 0.0
H308 H 0.42924 0.48975 0.71657 0.0
H309 H 0.6071 0.66094 0.74396 0.0
H310 H 0.60214 0.60934 0.73291 0.0
H311 H 0.58125 0.63384 0.70612 0.0
H312 H 0.37928 0.63962 0.60982 0.0
H313 H 0.36164 0.56896 0.57983 0.0
H314 H 0.47891 0.67831 0.54701 0.0
H315 H 0.39889 0.51344 0.61501 0.0
H316 H 0.35627 0.4998 0.58517 0.0
H317 H 0.4022 0.4929 0.57602 0.0
H318 H 0.54641 0.68015 0.5463 0.0
H319 H 0.55205 0.64493 0.57425 0.0
H320 H 0.53898 0.62853 0.53265 0.0
H321 H 0.66519 0.52062 0.46401 0.0
H322 H 0.70596 0.48484 0.48635 0.0
H323 H 0.66946 0.48656 0.51521 0.0
H324 H 0.65416 0.43635 0.49377 0.0
H325 H 0.52262 0.42519 0.48286 0.0
H326 H 0.64459 0.54137 0.50676 0.0
H327 H 0.46626 0.42748 0.55004 0.0
H328 H 0.45364 0.45553 0.52027 0.0
H329 H 0.45701 0.40831 0.50852 0.0
H330 H 0.64935 0.59637 0.54091 0.0
H331 H 0.59929 0.59569 0.55002 0.0
H332 H 0.61957 0.57007 0.57629 0.0
H333 H 0.53892 0.5041 0.74397 0.0
H334 H 0.48765 0.58771 0.68827 0.0
H335 H 0.47377 0.596 0.63324 0.0
H336 H 0.4963 0.5453 0.53125 0.0
H337 H 0.55667 0.46924 0.58672 0.0
H338 H 0.56541 0.45637 0.64219 0.0
H339 H 0.40713 0.72614 0.57719 0.0
H340 H 0.39087 0.71399 0.61857 0.0
H341 H 0.43975 0.71533 0.60511 0.0
C342 C 0.30433 0.68428 0.88632 0.0
C343 C 0.28391 0.63773 0.87248 0.0
C344 C 0.20613 0.5931 0.88486 0.0
C345 C 0.19 0.61733 0.8699 0.0
C346 C 0.14485 0.59975 0.86463 0.0
C347 C 0.11543 0.55614 0.87286 0.0
C348 C 0.13173 0.53177 0.88814 0.0
C349 C 0.17686 0.55108 0.89466 0.0
C350 C 0.12888 0.62779 0.84979 0.0
C351 C 0.10181 0.48504 0.89683 0.0
C352 C 0.89833 0.4 0.01072 0.0
C353 C 0.86196 0.40901 -0.00054 0.0
C354 C 0.90396 0.46172 0.9579 0.0
C355 C 0.90651 0.43212 0.93654 0.0
C356 C 0.93567 0.44673 0.91102 0.0
C357 C 0.96096 0.49188 0.90544 0.0
C358 C 0.95632 0.52161 0.92564 0.0
C359 C 0.92812 0.5061 0.95178 0.0
C360 C 0.94007 0.41374 0.89057 0.0
C361 C 0.98153 0.56977 0.91991 0.0
C362 C 0.79922 0.41058 0.72662 0.0
C363 C 0.81776 0.38743 0.7397 0.0
C364 C 0.86314 0.4073 0.74499 0.0
C365 C 0.89032 0.45186 0.7382 0.0
C366 C 0.87172 0.47499 0.72419 0.0
C367 C 0.8263 0.45369 0.71801 0.0
C368 C 0.88179 0.38079 0.75848 0.0
C369 C 0.89959 0.52244 0.71671 0.0
C370 C 0.19172 0.53733 0.60272 0.0
C371 C 0.17089 0.55499 0.62592 0.0
C372 C 0.10388 0.51666 0.6581 0.0
C373 C 0.07058 0.47505 0.66562 0.0
C374 C 0.04084 0.46863 0.68981 0.0
C375 C 0.04317 0.50511 0.70591 0.0
C376 C 0.07604 0.54758 0.69766 0.0
C377 C 0.10698 0.55285 0.67466 0.0
C378 C 0.0073 0.42273 0.69825 0.0
C379 C 0.07892 0.58763 0.71312 0.0
C380 C 0.06831 0.53529 0.86323 0.0
C381 C 0.03741 0.52585 0.88705 0.0
C382 C -0.00713 0.50762 0.87898 0.0
C383 C 0.97915 0.5013 0.84618 0.0
C384 C 0.93544 0.48689 0.83704 0.0
C385 C 0.92191 0.47898 0.80479 0.0
C386 C 0.95149 0.48474 0.78044 0.0
C387 C 0.93753 0.47448 0.74776 0.0
C388 C 0.96817 0.48255 0.72402 0.0
C389 C 0.0124 0.49869 0.73216 0.0
C390 C 0.02639 0.50684 0.76493 0.0
C391 C 0.06982 0.52018 0.77428 0.0
C392 C 0.08357 0.52936 0.8064 0.0
C393 C 0.05432 0.52496 0.83057 0.0
C394 C 0.00987 0.50922 0.82195 0.0
C395 C -0.00403 0.50058 0.78905 0.0
C396 C 0.69998 0.39841 0.74921 0.0
C397 C 0.72574 0.37451 0.74693 0.0
O398 O 0.24943 0.60958 0.89127 0.0
O399 O 0.13087 0.51992 0.63398 0.0
O400 O 0.75525 0.39186 0.72229 0.0
O401 O 0.87978 0.44909 0.985 0.0
H402 H 0.27268 0.63682 0.84715 0.0
H403 H 0.27908 0.69372 0.889 0.0
H404 H 0.31977 0.68714 0.91043 0.0
H405 H 0.32941 0.70749 0.86993 0.0
H406 H 0.21241 0.65014 0.86272 0.0
H407 H 0.18974 0.53288 0.90653 0.0
H408 H 0.09779 0.62161 0.86057 0.0
H409 H 0.15348 0.66293 0.85291 0.0
H410 H 0.1227 0.62004 0.82357 0.0
H411 H 0.12032 0.46901 0.90448 0.0
H412 H 0.08088 0.48373 0.91691 0.0
H413 H 0.07989 0.46627 0.87601 0.0
H414 H 0.839 0.38279 0.9823 0.0
H415 H 0.88387 0.36749 0.02157 0.0
H416 H 0.91842 0.40005 -0.00946 0.0
H417 H 0.92049 0.42514 0.02887 0.0
H418 H 0.88669 0.39755 0.94013 0.0
H419 H 0.92544 0.52876 0.96798 0.0
H420 H 0.92411 0.4101 0.86661 0.0
H421 H 0.97509 0.42469 0.88677 0.0
H422 H 0.92444 0.3813 0.90161 0.0
H423 H 0.96946 0.58772 0.9346 0.0
H424 H 0.01664 0.58285 0.92625 0.0
H425 H 0.97916 0.57598 0.89406 0.0
H426 H 0.7435 0.37972 0.77047 0.0
H427 H 0.79681 0.35381 0.74576 0.0
H428 H 0.81153 0.47109 0.70762 0.0
H429 H 0.88995 0.38911 0.78448 0.0
H430 H 0.85817 0.34532 0.75593 0.0
H431 H 0.91236 0.38816 0.7462 0.0
H432 H 0.87973 0.53644 0.70774 0.0
H433 H 0.91851 0.54119 0.73863 0.0
H434 H 0.92347 0.52643 0.69814 0.0
H435 H 0.19236 0.56809 0.64794 0.0
H436 H 0.22772 0.55809 0.60398 0.0
H437 H 0.18461 0.50462 0.61009 0.0
H438 H 0.17865 0.53417 0.57772 0.0
H439 H 0.06842 0.44732 0.6527 0.0
H440 H 0.13278 0.58532 0.66951 0.0
H441 H 0.00551 0.41925 0.72479 0.0
H442 H 0.97454 0.41508 0.68894 0.0
H443 H 0.01479 0.39847 0.68765 0.0
H444 H 0.09665 0.61641 0.69782 0.0
H445 H 0.04588 0.58263 0.71771 0.0
H446 H 0.09715 0.59507 0.73651 0.0
H447 H 0.04804 0.53197 0.91218 0.0
H448 H 0.91122 0.48157 0.85476 0.0
H449 H 0.88785 0.46797 0.79921 0.0
H450 H 0.95725 0.47503 0.69898 0.0
H451 H 0.09381 0.52376 0.75691 0.0
H452 H 0.11745 0.53961 0.81202 0.0
H453 H 0.68077 0.39357 0.72654 0.0
H454 H 0.67736 0.38649 0.76969 0.0
H455 H 0.72299 0.43378 0.7533 0.0
C456 C 0.4755 0.77024 0.87738 0.0
C457 C 0.42867 0.75353 0.88884 0.0
C458 C 0.42854 0.82333 0.89737 0.0
C459 C 0.40065 0.84031 0.89481 0.0
C460 C 0.41307 0.88201 0.90713 0.0
C461 C 0.45531 0.90819 0.92142 0.0
C462 C 0.48412 0.89156 0.9236 0.0
C463 C 0.46998 0.84898 0.91239 0.0
C464 C 0.38111 0.89814 0.90451 0.0
C465 C 0.5303 0.91879 0.93722 0.0
C466 C 0.61265 0.14125 0.78891 0.0
C467 C 0.60311 0.1746 0.80548 0.0
C468 C 0.54836 0.12481 0.84322 0.0
C469 C 0.57727 0.11772 0.86217 0.0
C470 C 0.56146 0.085 0.88492 0.0
C471 C 0.51594 0.06074 0.89044 0.0
C472 C 0.48686 0.06898 0.87237 0.0
C473 C 0.50349 0.10071 0.84875 0.0
C474 C 0.59364 0.07668 0.90318 0.0
C475 C 0.43835 0.04461 0.87825 0.0
C476 C 0.62096 0.22525 0.05518 0.0
C477 C 0.64025 0.20171 0.04378 0.0
C478 C 0.61713 0.1561 0.04338 0.0
C479 C 0.5734 0.13351 0.05394 0.0
C480 C 0.55493 0.15719 0.06734 0.0
C481 C 0.57929 0.20288 0.0682 0.0
C482 C 0.63873 0.13212 0.03005 0.0
C483 C 0.50863 0.13429 0.079 0.0
C484 C 0.51642 0.90077 0.21606 0.0
C485 C 0.48042 0.89262 0.19134 0.0
C486 C 0.49949 0.92261 0.13745 0.0
C487 C 0.53397 0.93671 0.11618 0.0
C488 C 0.53984 0.96612 0.09205 0.0
C489 C 0.50967 0.98092 0.08863 0.0
C490 C 0.47404 0.96596 0.1096 0.0
C491 C 0.46924 0.93686 0.13378 0.0
C492 C 0.57824 0.98133 0.07016 0.0
C493 C 0.4408 0.98035 0.10614 0.0
C494 C 0.47035 0.95376 0.93223 0.0
C495 C 0.48154 0.98476 0.90844 0.0
C496 C 0.49952 0.02883 0.91657 0.0
C497 C 0.50647 0.04263 0.94927 0.0
C498 C 0.52393 0.08664 0.95816 0.0
C499 C 0.53537 0.10077 -0.00999 0.0
C500 C 0.52956 0.0714 0.01425 0.0
C501 C 0.54535 0.08617 0.04613 0.0
C502 C 0.53763 0.05598 0.06994 0.0
C503 C 0.51489 0.01119 0.0626 0.0
C504 C 0.50014 -0.00394 0.03053 0.0
C505 C 0.47807 0.95145 0.02198 0.0
C506 C 0.4669 0.93729 -0.01008 0.0
C507 C 0.4776 0.9672 0.96518 0.0
C508 C 0.49686 0.01197 0.97358 0.0
C509 C 0.50833 0.02641 0.00622 0.0
C510 C 0.65466 0.32655 0.01872 0.0
C511 C 0.66827 0.29401 0.02923 0.0
O512 O 0.41407 0.78279 0.88429 0.0
O513 O 0.49601 0.89462 0.16062 0.0
O514 O 0.64138 0.26928 0.05367 0.0
O515 O 0.56214 0.15381 0.81911 0.0
H516 H 0.40741 0.72517 0.87291 0.0
H517 H 0.4844 0.79578 0.8593 0.0
H518 H 0.5 0.78311 0.89761 0.0
H519 H 0.47778 0.74326 0.86572 0.0
H520 H 0.36868 0.82044 0.88325 0.0
H521 H 0.492 0.83674 0.9152 0.0
H522 H 0.39176 0.92277 0.88555 0.0
H523 H 0.3474 0.87147 0.89811 0.0
H524 H 0.38042 0.914 0.92756 0.0
H525 H 0.55137 0.90541 0.93 0.0
H526 H 0.54562 0.95282 0.92918 0.0
H527 H 0.5296 0.91937 0.9639 0.0
H528 H 0.62894 0.19397 0.82412 0.0
H529 H 0.64583 0.15789 0.77862 0.0
H530 H 0.61176 0.11726 0.80589 0.0
H531 H 0.58805 0.1231 0.76923 0.0
H532 H 0.61224 0.13723 0.8591 0.0
H533 H 0.48143 0.10677 0.83435 0.0
H534 H 0.58075 0.04124 0.90507 0.0
H535 H 0.62589 0.09153 0.89148 0.0
H536 H 0.59887 0.09084 0.92796 0.0
H537 H 0.42041 0.05655 0.86341 0.0
H538 H 0.4247 0.0095 0.87253 0.0
H539 H 0.43254 0.04786 0.90408 0.0
H540 H 0.66399 0.2732 0.00756 0.0
H541 H 0.67312 0.21883 0.03476 0.0
H542 H 0.56499 0.22136 0.07753 0.0
H543 H 0.6266 0.12082 0.00493 0.0
H544 H 0.67492 0.15322 0.02977 0.0
H545 H 0.63047 0.10309 0.0444 0.0
H546 H 0.49944 0.15727 0.08968 0.0
H547 H 0.48559 0.11602 0.05857 0.0
H548 H 0.50472 0.11037 0.09733 0.0
H549 H 0.47208 0.91842 0.19583 0.0
H550 H 0.50456 0.89903 0.24092 0.0
H551 H 0.52703 0.87647 0.21284 0.0
H552 H 0.54522 0.9337 0.21301 0.0
H553 H 0.5568 0.92508 0.11892 0.0
H554 H 0.44143 0.92473 0.14933 0.0
H555 H 0.56616 0.96932 0.04514 0.0
H556 H 0.59705 0.01739 0.06995 0.0
H557 H 0.60067 0.96958 0.07762 0.0
H558 H 0.41428 0.96496 0.1238 0.0
H559 H 0.4573 0.0162 0.10959 0.0
H560 H 0.42596 0.97211 0.08143 0.0
H561 H 0.47769 0.97467 0.88324 0.0
H562 H 0.52995 0.11088 0.94049 0.0
H563 H 0.54958 0.13521 -0.00477 0.0
H564 H 0.55032 0.06748 0.09427 0.0
H565 H 0.46997 0.92704 0.03991 0.0
H566 H 0.45064 0.90267 0.98466 0.0
H567 H 0.65617 0.34743 0.03946 0.0
H568 H 0.67639 0.3475 -0.00035 0.0
H569 H 0.6205 0.30878 0.00884 0.0
C570 C 0.74498 0.45169 0.03816 0.0
C571 C 0.72408 0.46273 0.06569 0.0
C572 C 0.64738 0.44323 0.07412 0.0
C573 C 0.60389 0.40919 0.07235 0.0
C574 C 0.56939 0.4155 0.08155 0.0
C575 C 0.57863 0.45725 0.09228 0.0
C576 C 0.62258 0.4919 0.09424 0.0
C577 C 0.65645 0.48438 0.08574 0.0
C578 C 0.52303 0.37774 0.07925 0.0
C579 C 0.6339 0.5374 0.10443 0.0
C580 C 0.38639 0.57466 0.00664 0.0
C581 C 0.41694 0.57497 0.98079 0.0
C582 C 0.4353 0.52158 -0.00133 0.0
C583 C 0.47964 0.54891 0.00725 0.0
C584 C 0.4998 0.53687 0.03086 0.0
C585 C 0.47512 0.49643 0.04573 0.0
C586 C 0.43158 0.46719 0.03502 0.0
C587 C 0.4122 0.48019 0.0114 0.0
C588 C 0.54684 0.56817 0.04095 0.0
C589 C 0.40484 0.42336 0.04984 0.0
C590 C 0.39015 0.60048 0.20723 0.0
C591 C 0.43312 0.62309 0.19622 0.0
C592 C 0.45867 0.60318 0.19478 0.0
C593 C 0.44037 0.55927 0.20371 0.0
C594 C 0.3975 0.53696 0.21588 0.0
C595 C 0.37328 0.55823 0.21802 0.0
C596 C 0.50496 0.629 0.18322 0.0
C597 C 0.37685 0.4904 0.22604 0.0
C598 C 0.51984 0.42999 0.38075 0.0
C599 C 0.54345 0.42227 0.35307 0.0
C600 C 0.54939 0.47028 0.30887 0.0
C601 C 0.57759 0.50946 0.29428 0.0
C602 C 0.56441 0.52236 0.26659 0.0
C603 C 0.52213 0.49486 0.2529 0.0
C604 C 0.49323 0.45532 0.26763 0.0
C605 C 0.50685 0.44374 0.29574 0.0
C606 C 0.59568 0.56513 0.25181 0.0
C607 C 0.44798 0.42507 0.25346 0.0
C608 C 0.54254 0.4661 0.09844 0.0
C609 C 0.5218 0.47174 0.07161 0.0
C610 C 0.49303 0.48741 0.07507 0.0
C611 C 0.48467 0.49819 0.10602 0.0
C612 C 0.45751 0.5161 0.11011 0.0
C613 C 0.45073 0.52809 0.14051 0.0
C614 C 0.47086 0.52274 0.16807 0.0
C615 C 0.46533 0.53627 0.19901 0.0
C616 C 0.48366 0.52794 0.22606 0.0
C617 C 0.50786 0.50692 0.22303 0.0
C618 C 0.51595 0.49559 0.19213 0.0
C619 C 0.54216 0.47658 0.18808 0.0
C620 C 0.55085 0.46672 0.15744 0.0
C621 C 0.53274 0.47445 0.12978 0.0
C622 C 0.50452 0.49159 0.13347 0.0
C623 C 0.49709 0.5033 0.16459 0.0
C624 C 0.3134 0.62037 0.17107 0.0
C625 C 0.36087 0.643 0.18363 0.0
O626 O 0.67905 0.4349 0.06412 0.0
O627 O 0.56474 0.45968 0.33535 0.0
O628 O 0.36437 0.61861 0.20791 0.0
O629 O 0.41372 0.53463 0.97882 0.0
H630 H 0.7322 0.49665 0.06169 0.0
H631 H 0.73095 0.45434 0.01478 0.0
H632 H 0.78072 0.47522 0.03854 0.0
H633 H 0.73866 0.41818 0.03981 0.0
H634 H 0.597 0.37749 0.06354 0.0
H635 H 0.68966 0.51125 0.08791 0.0
H636 H 0.50539 0.38241 0.05881 0.0
H637 H 0.5218 0.34623 0.07533 0.0
H638 H 0.50545 0.37624 0.10155 0.0
H639 H 0.66883 0.56172 0.10059 0.0
H640 H 0.6132 0.54724 0.09083 0.0
H641 H 0.62739 0.53824 0.1304 0.0
H642 H 0.45079 0.60137 0.98716 0.0
H643 H 0.35208 0.54839 0.00139 0.0
H644 H 0.39686 0.56908 0.03056 0.0
H645 H 0.38764 0.60643 0.00787 0.0
H646 H 0.49842 0.57993 -0.00406 0.0
H647 H 0.37824 0.45896 0.00397 0.0
H648 H 0.56665 0.55228 0.03768 0.0
H649 H 0.5615 0.59834 0.02689 0.0
H650 H 0.54884 0.57717 0.0669 0.0
H651 H 0.37406 0.4021 0.03578 0.0
H652 H 0.42423 0.4068 0.0516 0.0
H653 H 0.39625 0.42785 0.07465 0.0
H654 H 0.38105 0.64484 0.16274 0.0
H655 H 0.44681 0.65639 0.18891 0.0
H656 H 0.34034 0.54136 0.22705 0.0
H657 H 0.50597 0.61919 0.15789 0.0
H658 H 0.51728 0.6645 0.18412 0.0
H659 H 0.52738 0.62251 0.19795 0.0
H660 H 0.34139 0.4759 0.23064 0.0
H661 H 0.38097 0.47028 0.20727 0.0
H662 H 0.39347 0.48909 0.2485 0.0
H663 H 0.51972 0.39388 0.33791 0.0
H664 H 0.50134 0.40005 0.39476 0.0
H665 H 0.54374 0.4568 0.39714 0.0
H666 H 0.4962 0.439 0.37099 0.0
H667 H 0.61017 0.52999 0.30471 0.0
H668 H 0.48393 0.41394 0.30705 0.0
H669 H 0.60357 0.55917 0.22716 0.0
H670 H 0.57998 0.58522 0.24959 0.0
H671 H 0.62668 0.58377 0.26623 0.0
H672 H 0.43002 0.39466 0.26704 0.0
H673 H 0.42866 0.44174 0.25343 0.0
H674 H 0.45034 0.41641 0.22805 0.0
H675 H 0.52969 0.46577 0.04761 0.0
H676 H 0.44145 0.52153 0.08984 0.0
H677 H 0.42955 0.54174 0.14207 0.0
H678 H 0.4785 0.53736 0.24983 0.0
H679 H 0.55693 0.46987 0.20852 0.0
H680 H 0.57182 0.45283 0.15563 0.0
H681 H 0.29142 0.61834 0.19054 0.0
H682 H 0.31009 0.63833 0.1507 0.0
H683 H 0.30315 0.58687 0.16231 0.0
Mg684 Mg 0.62796 0.38432 0.3835 0.0
O685 O 0.64829 0.43027 0.42923 0.0
O686 O 0.66105 0.49187 0.40845 0.0
Mg687 Mg 0.68274 0.46649 0.36824 0.0
C688 C 0.65352 0.46829 0.43267 0.0
C689 C 0.63139 0.30407 0.40715 0.0
O690 O 0.6383 0.30222 0.37634 0.0
O691 O 0.69521 0.39365 0.36955 0.0
O692 O 0.70614 0.43827 0.33038 0.0
O693 O 0.56596 0.38265 0.38766 0.0
O694 O 0.61315 0.42517 0.35112 0.0
C695 C 0.71378 0.41085 0.34345 0.0
C696 C 0.57647 0.41111 0.36562 0.0
O697 O 0.62363 0.33312 0.41777 0.0
Mg698 Mg 0.25521 0.63952 0.57258 0.0
O699 O 0.23201 0.65958 0.52657 0.0
O700 O 0.18839 0.59003 0.52674 0.0
Mg701 Mg 0.24114 0.60738 0.56504 0.0
C702 C 0.19856 0.62607 0.51452 0.0
C703 C 0.28018 0.74189 0.5621 0.0
O704 O 0.27418 0.76943 0.54534 0.0
O705 O 0.32307 0.65852 0.55443 0.0
O706 O 0.30222 0.62398 0.59939 0.0
O707 O 0.1905 0.62158 0.59563 0.0
O708 O 0.19149 0.62106 0.59541 0.0
C709 C 0.33297 0.64584 0.5801 0.0
C710 C 0.16373 0.59015 0.61245 0.0
O711 O 0.25971 0.70193 0.55291 0.0
Mg712 Mg 0.60025 0.24107 0.72896 0.0
O713 O 0.63661 0.2495 0.68302 0.0
O714 O 0.66169 0.20545 0.69316 0.0
Mg715 Mg 0.69638 0.23079 0.74227 0.0
C716 C 0.64127 0.21768 0.67456 0.0
C717 C 0.53806 0.28513 0.70791 0.0
O718 O 0.51508 0.28799 0.68396 0.0
O719 O 0.65502 0.30918 0.74312 0.0
O720 O 0.71464 0.30297 0.73805 0.0
O721 O 0.57445 0.21619 0.77861 0.0
O722 O 0.63225 0.21847 0.75841 0.0
C723 C 0.69651 0.32606 0.74155 0.0
C724 C 0.60406 0.20521 0.78059 0.0
O725 O 0.55689 0.26312 0.70312 0.0
Mg726 Mg 0.39801 0.63895 0.89777 0.0
O727 O 0.42909 0.62045 0.93599 0.0
O728 O 0.36801 0.55553 0.93509 0.0
Mg729 Mg 0.33851 0.54315 0.88294 0.0
C730 C 0.40408 0.58422 0.94882 0.0
C731 C 0.42183 0.7376 0.92283 0.0
O732 O 0.4285 0.76458 0.94705 0.0
O733 O 0.35574 0.64837 0.86241 0.0
O734 O 0.30806 0.58768 0.88558 0.0
O735 O 0.45587 0.66145 0.86542 0.0
O736 O 0.40371 0.59338 0.86566 0.0
C737 C 0.3173 0.62331 0.87225 0.0
C738 C 0.44111 0.62204 0.8557 0.0
O739 O 0.41063 0.69849 0.92896 0.0
Mg740 Mg 0.79627 0.40713 0.08018 0.0
O741 O 0.79209 0.37247 0.12741 0.0
O742 O 0.7747 0.31552 0.09777 0.0
Mg743 Mg 0.80501 0.3126 0.0513 0.0
C744 C 0.79507 0.3388 0.12247 0.0
C745 C 0.74138 0.4607 0.09865 0.0
O746 O 0.73201 0.47799 0.1232 0.0
O747 O 0.72992 0.35059 0.0593 0.0
O748 O 0.73915 0.30097 0.03195 0.0
O749 O 0.82009 0.43403 0.03065 0.0
O750 O 0.83035 0.38376 0.05171 0.0
C751 C 0.71548 0.3169 0.04061 0.0
C752 C 0.83609 0.40865 0.02813 0.0
O753 O 0.764 0.44262 0.10423 0.0
Mg754 Mg 0.36987 0.77503 0.20185 0.0
O755 O 0.36805 0.78698 0.25698 0.0
O756 O 0.43695 0.81624 0.27278 0.0
Mg757 Mg 0.43029 0.76748 0.23575 0.0
C758 C 0.39839 0.80783 0.2782 0.0
C759 C 0.25999 0.73548 0.19222 0.0
O760 O 0.22979 0.7447 0.20022 0.0
O761 O 0.34998 0.70161 0.20308 0.0
O762 O 0.41749 0.71444 0.20026 0.0
O763 O 0.40271 0.8457 0.19839 0.0
O764 O 0.44326 0.81411 0.19636 0.0
C765 C 0.37672 0.6887 0.19598 0.0
C766 C 0.44045 0.84891 0.19598 0.0
O767 O 0.29886 0.76055 0.20304 0.0
loop_
_geom_bond_atom_site_label_1
_geom_bond_atom_site_label_2
_geom_bond_distance
_geom_bond_site_symmetry_2
_ccdc_geom_bond_type
C0 C1 1.560 . S
C0 H61 0.959 . S
C0 H62 0.959 . S
C0 H63 0.960 . S
C1 C0 1.560 . S
C1 O56 1.426 . S
C1 H60 0.980 . S
C2 C3 1.407 . S
C2 C7 1.418 . S
C2 O56 1.334 . S
C3 C2 1.407 . S
C3 C4 1.360 . S
C3 H64 0.929 . S
C4 C3 1.360 . S
C4 C5 1.401 . S
C4 C8 1.527 . S
C5 C4 1.401 . S
C5 C6 1.405 . S
C5 C38 1.587 . S
C6 C5 1.405 . S
C6 C7 1.332 . S
C6 C9 1.496 . S
C7 C2 1.418 . S
C7 C6 1.332 . S
C7 H65 0.929 . S
C8 C4 1.527 . S
C8 H66 0.959 . S
C8 H67 0.961 . S
C8 H68 0.961 . S
C9 C6 1.496 . S
C9 H69 0.960 . S
C9 H70 0.960 . S
C9 H71 0.961 . S
C10 C11 1.517 . S
C10 H73 0.961 . S
C10 H74 0.960 . S
C10 H75 0.959 . S
C11 C10 1.517 . S
C11 O59 1.468 . S
C11 H72 0.980 . S
C12 C13 1.349 . S
C12 C17 1.367 . S
C12 O59 1.408 . S
C13 C12 1.349 . S
C13 C14 1.407 . S
C13 H76 0.930 . S
C14 C13 1.407 . S
C14 C15 1.449 . S
C14 C18 1.535 . S
C15 C14 1.449 . S
C15 C16 1.384 . S
C15 C40 1.553 1_655 S
C16 C15 1.384 . S
C16 C17 1.364 . S
C16 C19 1.450 . S
C17 C12 1.367 . S
C17 C16 1.364 . S
C17 H77 0.931 . S
C18 C14 1.535 . S
C18 H78 0.959 1_655 S
C18 H79 0.961 . S
C18 H80 0.959 . S
C19 C16 1.450 . S
C19 H81 0.960 . S
C19 H82 0.960 1_655 S
C19 H83 0.960 . S
C20 C21 1.309 . S
C20 C25 1.304 . S
C20 O58 1.435 . S
C21 C20 1.309 . S
C21 C22 1.476 . S
C21 H85 0.930 . S
C22 C21 1.476 . S
C22 C23 1.400 . S
C22 C26 1.567 . S
C23 C22 1.400 . S
C23 C24 1.373 . S
C23 C45 1.432 . S
C24 C23 1.373 . S
C24 C25 1.339 . S
C24 C27 1.530 . S
C25 C20 1.304 . S
C25 C24 1.339 . S
C25 H86 0.930 . S
C26 C22 1.567 . S
C26 H87 0.961 . S
C26 H88 0.960 . S
C26 H89 0.958 . S
C27 C24 1.530 . S
C27 H90 0.961 . S
C27 H91 0.960 . S
C27 H92 0.960 . S
C28 C29 1.530 . S
C28 H94 0.961 . S
C28 H95 0.961 . S
C28 H96 0.959 . S
C29 C28 1.530 . S
C29 O57 1.412 . S
C29 H93 0.980 . S
C30 C31 1.288 . S
C30 C35 1.377 . S
C30 O57 1.393 . S
C31 C30 1.288 . S
C31 C32 1.369 . S
C31 H97 0.932 . S
C32 C31 1.369 . S
C32 C33 1.398 . S
C32 C36 1.527 . S
C33 C32 1.398 . S
C33 C34 1.380 . S
C33 C47 1.497 . S
C34 C33 1.380 . S
C34 C35 1.383 . S
C34 C37 1.603 . S
C35 C30 1.377 . S
C35 C34 1.383 . S
C35 H98 0.929 . S
C36 C32 1.527 . S
C36 H99 0.961 . S
C36 H100 0.959 1_455 S
C36 H101 0.959 . S
C37 C34 1.603 . S
C37 H102 0.960 . S
C37 H103 0.962 . S
C37 H104 0.961 . S
C38 C5 1.587 . S
C38 C39 1.360 . S
C38 C51 1.412 . S
C39 C38 1.360 . S
C39 C40 1.365 . S
C39 H105 0.929 . S
C40 C15 1.553 1_455 S
C40 C39 1.365 . S
C40 C41 1.404 1_455 S
C41 C40 1.404 1_655 S
C41 C42 1.395 . S
C41 C52 1.451 1_655 S
C42 C41 1.395 . S
C42 C43 1.322 . S
C42 H106 0.930 . S
C43 C42 1.322 . S
C43 C44 1.459 . S
C43 H107 0.929 . S
C44 C43 1.459 . S
C44 C45 1.445 . S
C44 C53 1.395 1_655 S
C45 C23 1.432 . S
C45 C44 1.445 . S
C45 C46 1.370 . S
C46 C45 1.370 . S
C46 C47 1.438 1_655 S
C46 H108 0.930 . S
C47 C33 1.497 . S
C47 C46 1.438 1_455 S
C47 C48 1.360 . S
C48 C47 1.360 . S
C48 C49 1.401 . S
C48 C53 1.446 . S
C49 C48 1.401 . S
C49 C50 1.347 . S
C49 H109 0.929 . S
C50 C49 1.347 . S
C50 C51 1.455 . S
C50 H110 0.930 . S
C51 C38 1.412 . S
C51 C50 1.455 . S
C51 C52 1.331 . S
C52 C41 1.451 1_455 S
C52 C51 1.331 . S
C52 C53 1.497 . S
C53 C44 1.395 1_455 S
C53 C48 1.446 . S
C53 C52 1.497 . S
C54 C55 1.582 . S
C54 H111 0.962 . S
C54 H112 0.959 . S
C54 H113 0.958 . S
C55 C54 1.582 . S
C55 O58 1.458 . S
C55 H84 0.980 . S
O56 C1 1.426 . S
O56 C2 1.334 . S
O57 C29 1.412 . S
O57 C30 1.393 . S
O58 C20 1.435 . S
O58 C55 1.458 . S
O59 C11 1.468 . S
O59 C12 1.408 . S
H60 C1 0.980 . S
H61 C0 0.959 . S
H62 C0 0.959 . S
H63 C0 0.960 . S
H64 C3 0.929 . S
H65 C7 0.929 . S
H66 C8 0.959 . S
H67 C8 0.961 . S
H68 C8 0.961 . S
H69 C9 0.960 . S
H70 C9 0.960 . S
H71 C9 0.961 . S
H72 C11 0.980 . S
H73 C10 0.961 . S
H74 C10 0.960 . S
H75 C10 0.959 . S
H76 C13 0.930 . S
H77 C17 0.931 . S
H78 C18 0.959 1_455 S
H79 C18 0.961 . S
H80 C18 0.959 . S
H81 C19 0.960 . S
H82 C19 0.960 1_455 S
H83 C19 0.960 . S
H84 C55 0.980 . S
H85 C21 0.930 . S
H86 C25 0.930 . S
H87 C26 0.961 . S
H88 C26 0.960 . S
H89 C26 0.958 . S
H90 C27 0.961 . S
H91 C27 0.960 . S
H92 C27 0.960 . S
H93 C29 0.980 . S
H94 C28 0.961 . S
H95 C28 0.961 . S
H96 C28 0.959 . S
H97 C31 0.932 . S
H98 C35 0.929 . S
H99 C36 0.961 . S
H100 C36 0.959 1_655 S
H101 C36 0.959 . S
H102 C37 0.960 . S
H103 C37 0.962 . S
H104 C37 0.961 . S
H105 C39 0.929 . S
H106 C42 0.930 . S
H107 C43 0.929 . S
H108 C46 0.930 . S
H109 C49 0.929 . S
H110 C50 0.930 . S
H111 C54 0.962 . S
H112 C54 0.959 . S
H113 C54 0.958 . S
C114 C115 1.560 . S
C114 H175 0.959 . S
C114 H176 0.959 . S
C114 H177 0.960 . S
C115 C114 1.560 . S
C115 O170 1.426 . S
C115 H174 0.980 . S
C116 C117 1.407 . S
C116 C121 1.418 . S
C116 O170 1.334 . S
C117 C116 1.407 . S
C117 C118 1.360 . S
C117 H178 0.929 . S
C118 C117 1.360 . S
C118 C119 1.401 . S
C118 C122 1.527 . S
C119 C118 1.401 . S
C119 C120 1.405 . S
C119 C152 1.587 . S
C120 C119 1.405 . S
C120 C121 1.332 . S
C120 C123 1.496 . S
C121 C116 1.418 . S
C121 C120 1.332 . S
C121 H179 0.929 . S
C122 C118 1.527 . S
C122 H180 0.959 . S
C122 H181 0.961 . S
C122 H182 0.961 . S
C123 C120 1.496 . S
C123 H183 0.960 . S
C123 H184 0.960 . S
C123 H185 0.961 . S
C124 C125 1.517 . S
C124 H187 0.961 . S
C124 H188 0.960 . S
C124 H189 0.959 . S
C125 C124 1.517 . S
C125 O173 1.468 . S
C125 H186 0.980 . S
C126 C127 1.349 . S
C126 C131 1.367 . S
C126 O173 1.408 . S
C127 C126 1.349 . S
C127 C128 1.407 . S
C127 H190 0.930 . S
C128 C127 1.407 . S
C128 C129 1.449 . S
C128 C132 1.535 . S
C129 C128 1.449 . S
C129 C130 1.384 . S
C129 C154 1.553 . S
C130 C129 1.384 . S
C130 C131 1.364 . S
C130 C133 1.450 . S
C131 C126 1.367 . S
C131 C130 1.364 . S
C131 H191 0.931 . S
C132 C128 1.535 . S
C132 H192 0.959 . S
C132 H193 0.961 . S
C132 H194 0.959 . S
C133 C130 1.450 . S
C133 H195 0.960 . S
C133 H196 0.960 . S
C133 H197 0.960 . S
C134 C135 1.309 . S
C134 C139 1.304 . S
C134 O172 1.435 . S
C135 C134 1.309 . S
C135 C136 1.476 . S
C135 H199 0.930 . S
C136 C135 1.476 . S
C136 C137 1.400 . S
C136 C140 1.567 . S
C137 C136 1.400 . S
C137 C138 1.373 . S
C137 C159 1.432 . S
C138 C137 1.373 . S
C138 C139 1.339 . S
C138 C141 1.530 . S
C139 C134 1.304 . S
C139 C138 1.339 . S
C139 H200 0.930 . S
C140 C136 1.567 . S
C140 H201 0.961 . S
C140 H202 0.960 . S
C140 H203 0.958 . S
C141 C138 1.530 . S
C141 H204 0.961 . S
C141 H205 0.960 . S
C141 H206 0.960 . S
C142 C143 1.530 . S
C142 H208 0.961 . S
C142 H209 0.961 . S
C142 H210 0.959 . S
C143 C142 1.530 . S
C143 O171 1.412 . S
C143 H207 0.980 . S
C144 C145 1.288 . S
C144 C149 1.377 . S
C144 O171 1.393 . S
C145 C144 1.288 . S
C145 C146 1.369 . S
C145 H211 0.932 . S
C146 C145 1.369 . S
C146 C147 1.398 . S
C146 C150 1.527 1_565 S
C147 C146 1.398 . S
C147 C148 1.380 . S
C147 C161 1.497 1_565 S
C148 C147 1.380 . S
C148 C149 1.383 . S
C148 C151 1.603 . S
C149 C144 1.377 . S
C149 C148 1.383 . S
C149 H212 0.929 . S
C150 C146 1.527 1_545 S
C150 H213 0.961 . S
C150 H214 0.959 . S
C150 H215 0.959 1_545 S
C151 C148 1.603 . S
C151 H216 0.960 . S
C151 H217 0.962 . S
C151 H218 0.961 . S
C152 C119 1.587 . S
C152 C153 1.360 . S
C152 C165 1.412 . S
C153 C152 1.360 . S
C153 C154 1.365 1_565 S
C153 H219 0.929 . S
C154 C129 1.553 . S
C154 C153 1.365 1_545 S
C154 C155 1.404 . S
C155 C154 1.404 . S
C155 C156 1.395 . S
C155 C166 1.451 . S
C156 C155 1.395 . S
C156 C157 1.322 . S
C156 H220 0.930 . S
C157 C156 1.322 . S
C157 C158 1.459 . S
C157 H221 0.929 . S
C158 C157 1.459 . S
C158 C159 1.445 . S
C158 C167 1.395 . S
C159 C137 1.432 . S
C159 C158 1.445 . S
C159 C160 1.370 . S
C160 C159 1.370 . S
C160 C161 1.438 . S
C160 H222 0.930 . S
C161 C147 1.497 1_545 S
C161 C160 1.438 . S
C161 C162 1.360 1_545 S
C162 C161 1.360 1_565 S
C162 C163 1.401 . S
C162 C167 1.446 1_565 S
C163 C162 1.401 . S
C163 C164 1.347 . S
C163 H223 0.929 . S
C164 C163 1.347 . S
C164 C165 1.455 . S
C164 H224 0.930 . S
C165 C152 1.412 . S
C165 C164 1.455 . S
C165 C166 1.331 1_565 S
C166 C155 1.451 . S
C166 C165 1.331 1_545 S
C166 C167 1.497 . S
C167 C158 1.395 . S
C167 C162 1.446 1_545 S
C167 C166 1.497 . S
C168 C169 1.582 . S
C168 H225 0.962 . S
C168 H226 0.959 . S
C168 H227 0.958 . S
C169 C168 1.582 . S
C169 O172 1.458 . S
C169 H198 0.980 . S
O170 C115 1.426 . S
O170 C116 1.334 . S
O171 C143 1.412 . S
O171 C144 1.393 . S
O172 C134 1.435 . S
O172 C169 1.458 . S
O173 C125 1.468 . S
O173 C126 1.408 . S
H174 C115 0.980 . S
H175 C114 0.959 . S
H176 C114 0.959 . S
H177 C114 0.960 . S
H178 C117 0.929 . S
H179 C121 0.929 . S
H180 C122 0.959 . S
H181 C122 0.961 . S
H182 C122 0.961 . S
H183 C123 0.960 . S
H184 C123 0.960 . S
H185 C123 0.961 . S
H186 C125 0.980 . S
H187 C124 0.961 . S
H188 C124 0.960 . S
H189 C124 0.959 . S
H190 C127 0.930 . S
H191 C131 0.931 . S
H192 C132 0.959 . S
H193 C132 0.961 . S
H194 C132 0.959 . S
H195 C133 0.960 . S
H196 C133 0.960 . S
H197 C133 0.960 . S
H198 C169 0.980 . S
H199 C135 0.930 . S
H200 C139 0.930 . S
H201 C140 0.961 . S
H202 C140 0.960 . S
H203 C140 0.958 . S
H204 C141 0.961 . S
H205 C141 0.960 . S
H206 C141 0.960 . S
H207 C143 0.980 . S
H208 C142 0.961 . S
H209 C142 0.961 . S
H210 C142 0.959 . S
H211 C145 0.932 . S
H212 C149 0.929 . S
H213 C150 0.961 . S
H214 C150 0.959 . S
H215 C150 0.959 1_565 S
H216 C151 0.960 . S
H217 C151 0.962 . S
H218 C151 0.961 . S
H219 C153 0.929 . S
H220 C156 0.930 . S
H221 C157 0.929 . S
H222 C160 0.930 . S
H223 C163 0.929 . S
H224 C164 0.930 . S
H225 C168 0.962 . S
H226 C168 0.959 . S
H227 C168 0.958 . S
C228 C229 1.560 . S
C228 H289 0.959 . S
C228 H290 0.959 . S
C228 H291 0.960 . S
C229 C228 1.560 . S
C229 O284 1.426 . S
C229 H288 0.980 . S
C230 C231 1.407 . S
C230 C235 1.418 . S
C230 O284 1.334 . S
C231 C230 1.407 . S
C231 C232 1.360 . S
C231 H292 0.929 . S
C232 C231 1.360 . S
C232 C233 1.401 . S
C232 C236 1.527 . S
C233 C232 1.401 . S
C233 C234 1.405 . S
C233 C266 1.587 . S
C234 C233 1.405 . S
C234 C235 1.332 . S
C234 C237 1.496 . S
C235 C230 1.418 . S
C235 C234 1.332 . S
C235 H293 0.929 . S
C236 C232 1.527 . S
C236 H294 0.959 . S
C236 H295 0.961 . S
C236 H296 0.961 . S
C237 C234 1.496 . S
C237 H297 0.960 . S
C237 H298 0.960 . S
C237 H299 0.961 . S
C238 C239 1.517 . S
C238 H301 0.961 . S
C238 H302 0.960 . S
C238 H303 0.959 . S
C239 C238 1.517 . S
C239 O287 1.468 . S
C239 H300 0.980 . S
C240 C241 1.349 . S
C240 C245 1.367 . S
C240 O287 1.408 . S
C241 C240 1.349 . S
C241 C242 1.407 . S
C241 H304 0.930 . S
C242 C241 1.407 . S
C242 C243 1.449 . S
C242 C246 1.535 . S
C243 C242 1.449 . S
C243 C244 1.384 . S
C243 C268 1.553 . S
C244 C243 1.384 . S
C244 C245 1.364 . S
C244 C247 1.450 . S
C245 C240 1.367 . S
C245 C244 1.364 . S
C245 H305 0.931 . S
C246 C242 1.535 . S
C246 H306 0.959 . S
C246 H307 0.961 . S
C246 H308 0.959 . S
C247 C244 1.450 . S
C247 H309 0.960 . S
C247 H310 0.960 . S
C247 H311 0.960 . S
C248 C249 1.309 . S
C248 C253 1.304 . S
C248 O286 1.435 . S
C249 C248 1.309 . S
C249 C250 1.476 . S
C249 H313 0.930 . S
C250 C249 1.476 . S
C250 C251 1.400 . S
C250 C254 1.567 . S
C251 C250 1.400 . S
C251 C252 1.373 . S
C251 C273 1.432 . S
C252 C251 1.373 . S
C252 C253 1.339 . S
C252 C255 1.530 . S
C253 C248 1.304 . S
C253 C252 1.339 . S
C253 H314 0.930 . S
C254 C250 1.567 . S
C254 H315 0.961 . S
C254 H316 0.960 . S
C254 H317 0.958 . S
C255 C252 1.530 . S
C255 H318 0.961 . S
C255 H319 0.960 . S
C255 H320 0.960 . S
C256 C257 1.530 . S
C256 H322 0.961 . S
C256 H323 0.961 . S
C256 H324 0.959 . S
C257 C256 1.530 . S
C257 O285 1.412 . S
C257 H321 0.980 . S
C258 C259 1.288 . S
C258 C263 1.377 . S
C258 O285 1.393 . S
C259 C258 1.288 . S
C259 C260 1.369 . S
C259 H325 0.932 . S
C260 C259 1.369 . S
C260 C261 1.398 . S
C260 C264 1.527 . S
C261 C260 1.398 . S
C261 C262 1.380 . S
C261 C275 1.497 . S
C262 C261 1.380 . S
C262 C263 1.383 . S
C262 C265 1.603 . S
C263 C258 1.377 . S
C263 C262 1.383 . S
C263 H326 0.929 . S
C264 C260 1.527 . S
C264 H327 0.961 . S
C264 H328 0.959 . S
C264 H329 0.959 . S
C265 C262 1.603 . S
C265 H330 0.960 . S
C265 H331 0.962 . S
C265 H332 0.961 . S
C266 C233 1.587 . S
C266 C267 1.360 . S
C266 C279 1.412 . S
C267 C266 1.360 . S
C267 C268 1.365 . S
C267 H333 0.929 . S
C268 C243 1.553 . S
C268 C267 1.365 . S
C268 C269 1.404 . S
C269 C268 1.404 . S
C269 C270 1.395 . S
C269 C280 1.451 . S
C270 C269 1.395 . S
C270 C271 1.322 . S
C270 H334 0.930 . S
C271 C270 1.322 . S
C271 C272 1.459 . S
C271 H335 0.929 . S
C272 C271 1.459 . S
C272 C273 1.445 . S
C272 C281 1.395 . S
C273 C251 1.432 . S
C273 C272 1.445 . S
C273 C274 1.370 . S
C274 C273 1.370 . S
C274 C275 1.438 . S
C274 H336 0.930 . S
C275 C261 1.497 . S
C275 C274 1.438 . S
C275 C276 1.360 . S
C276 C275 1.360 . S
C276 C277 1.401 . S
C276 C281 1.446 . S
C277 C276 1.401 . S
C277 C278 1.347 . S
C277 H337 0.929 . S
C278 C277 1.347 . S
C278 C279 1.455 . S
C278 H338 0.930 . S
C279 C266 1.412 . S
C279 C278 1.455 . S
C279 C280 1.331 . S
C280 C269 1.451 . S
C280 C279 1.331 . S
C280 C281 1.497 . S
C281 C272 1.395 . S
C281 C276 1.446 . S
C281 C280 1.497 . S
C282 C283 1.582 . S
C282 H339 0.962 . S
C282 H340 0.959 . S
C282 H341 0.958 . S
C283 C282 1.582 . S
C283 O286 1.458 . S
C283 H312 0.980 . S
O284 C229 1.426 . S
O284 C230 1.334 . S
O285 C257 1.412 . S
O285 C258 1.393 . S
O286 C248 1.435 . S
O286 C283 1.458 . S
O287 C239 1.468 . S
O287 C240 1.408 . S
H288 C229 0.980 . S
H289 C228 0.959 . S
H290 C228 0.959 . S
H291 C228 0.960 . S
H292 C231 0.929 . S
H293 C235 0.929 . S
H294 C236 0.959 . S
H295 C236 0.961 . S
H296 C236 0.961 . S
H297 C237 0.960 . S
H298 C237 0.960 . S
H299 C237 0.961 . S
H300 C239 0.980 . S
H301 C238 0.961 . S
H302 C238 0.960 . S
H303 C238 0.959 . S
H304 C241 0.930 . S
H305 C245 0.931 . S
H306 C246 0.959 . S
H307 C246 0.961 . S
H308 C246 0.959 . S
H309 C247 0.960 . S
H310 C247 0.960 . S
H311 C247 0.960 . S
H312 C283 0.980 . S
H313 C249 0.930 . S
H314 C253 0.930 . S
H315 C254 0.961 . S
H316 C254 0.960 . S
H317 C254 0.958 . S
H318 C255 0.961 . S
H319 C255 0.960 . S
H320 C255 0.960 . S
H321 C257 0.980 . S
H322 C256 0.961 . S
H323 C256 0.961 . S
H324 C256 0.959 . S
H325 C259 0.932 . S
H326 C263 0.929 . S
H327 C264 0.961 . S
H328 C264 0.959 . S
H329 C264 0.959 . S
H330 C265 0.960 . S
H331 C265 0.962 . S
H332 C265 0.961 . S
H333 C267 0.929 . S
H334 C270 0.930 . S
H335 C271 0.929 . S
H336 C274 0.930 . S
H337 C277 0.929 . S
H338 C278 0.930 . S
H339 C282 0.962 . S
H340 C282 0.959 . S
H341 C282 0.958 . S
C342 C343 1.560 . S
C342 H403 0.959 . S
C342 H404 0.959 . S
C342 H405 0.960 . S
C343 C342 1.560 . S
C343 O398 1.426 . S
C343 H402 0.980 . S
C344 C345 1.407 . S
C344 C349 1.418 . S
C344 O398 1.334 . S
C345 C344 1.407 . S
C345 C346 1.360 . S
C345 H406 0.929 . S
C346 C345 1.360 . S
C346 C347 1.401 . S
C346 C350 1.527 . S
C347 C346 1.401 . S
C347 C348 1.405 . S
C347 C380 1.587 . S
C348 C347 1.405 . S
C348 C349 1.332 . S
C348 C351 1.496 . S
C349 C344 1.418 . S
C349 C348 1.332 . S
C349 H407 0.929 . S
C350 C346 1.527 . S
C350 H408 0.959 . S
C350 H409 0.961 . S
C350 H410 0.961 . S
C351 C348 1.496 . S
C351 H411 0.960 . S
C351 H412 0.960 . S
C351 H413 0.961 . S
C352 C353 1.517 . S
C352 H415 0.961 . S
C352 H416 0.960 . S
C352 H417 0.959 . S
C353 C352 1.517 . S
C353 O401 1.468 . S
C353 H414 0.980 . S
C354 C355 1.349 . S
C354 C359 1.367 . S
C354 O401 1.408 1_556 S
C355 C354 1.349 . S
C355 C356 1.407 . S
C355 H418 0.930 . S
C356 C355 1.407 . S
C356 C357 1.449 . S
C356 C360 1.535 . S
C357 C356 1.449 . S
C357 C358 1.384 . S
C357 C382 1.553 1_655 S
C358 C357 1.384 . S
C358 C359 1.364 . S
C358 C361 1.450 . S
C359 C354 1.367 . S
C359 C358 1.364 . S
C359 H419 0.931 . S
C360 C356 1.535 . S
C360 H420 0.959 1_655 S
C360 H421 0.961 1_655 S
C360 H422 0.959 . S
C361 C358 1.450 . S
C361 H423 0.960 . S
C361 H424 0.960 1_655 S
C361 H425 0.960 . S
C362 C363 1.309 . S
C362 C367 1.304 . S
C362 O400 1.435 . S
C363 C362 1.309 . S
C363 C364 1.476 . S
C363 H427 0.930 . S
C364 C363 1.476 . S
C364 C365 1.400 . S
C364 C368 1.567 . S
C365 C364 1.400 . S
C365 C366 1.373 . S
C365 C387 1.432 . S
C366 C365 1.373 . S
C366 C367 1.339 . S
C366 C369 1.530 . S
C367 C362 1.304 . S
C367 C366 1.339 . S
C367 H428 0.930 . S
C368 C364 1.567 . S
C368 H429 0.961 . S
C368 H430 0.960 . S
C368 H431 0.958 . S
C369 C366 1.530 . S
C369 H432 0.961 . S
C369 H433 0.960 . S
C369 H434 0.960 . S
C370 C371 1.530 . S
C370 H436 0.961 . S
C370 H437 0.961 . S
C370 H438 0.959 . S
C371 C370 1.530 . S
C371 O399 1.412 . S
C371 H435 0.980 . S
C372 C373 1.288 . S
C372 C377 1.377 . S
C372 O399 1.393 . S
C373 C372 1.288 . S
C373 C374 1.369 . S
C373 H439 0.932 . S
C374 C373 1.369 . S
C374 C375 1.398 . S
C374 C378 1.527 . S
C375 C374 1.398 . S
C375 C376 1.380 . S
C375 C389 1.497 . S
C376 C375 1.380 . S
C376 C377 1.383 . S
C376 C379 1.603 . S
C377 C372 1.377 . S
C377 C376 1.383 . S
C377 H440 0.929 . S
C378 C374 1.527 . S
C378 H441 0.961 . S
C378 H442 0.959 1_455 S
C378 H443 0.959 . S
C379 C376 1.603 . S
C379 H444 0.960 . S
C379 H445 0.962 . S
C379 H446 0.961 . S
C380 C347 1.587 . S
C380 C381 1.360 . S
C380 C393 1.412 . S
C381 C380 1.360 . S
C381 C382 1.365 . S
C381 H447 0.929 . S
C382 C357 1.553 1_455 S
C382 C381 1.365 . S
C382 C383 1.404 . S
C383 C382 1.404 . S
C383 C384 1.395 1_455 S
C383 C394 1.451 . S
C384 C383 1.395 1_655 S
C384 C385 1.322 . S
C384 H448 0.930 . S
C385 C384 1.322 . S
C385 C386 1.459 . S
C385 H449 0.929 . S
C386 C385 1.459 . S
C386 C387 1.445 . S
C386 C395 1.395 1_655 S
C387 C365 1.432 . S
C387 C386 1.445 . S
C387 C388 1.370 . S
C388 C387 1.370 . S
C388 C389 1.438 1_655 S
C388 H450 0.930 . S
C389 C375 1.497 . S
C389 C388 1.438 1_455 S
C389 C390 1.360 . S
C390 C389 1.360 . S
C390 C391 1.401 . S
C390 C395 1.446 . S
C391 C390 1.401 . S
C391 C392 1.347 . S
C391 H451 0.929 . S
C392 C391 1.347 . S
C392 C393 1.455 . S
C392 H452 0.930 . S
C393 C380 1.412 . S
C393 C392 1.455 . S
C393 C394 1.331 . S
C394 C383 1.451 . S
C394 C393 1.331 . S
C394 C395 1.497 . S
C395 C386 1.395 1_455 S
C395 C390 1.446 . S
C395 C394 1.497 . S
C396 C397 1.582 . S
C396 H453 0.962 . S
C396 H454 0.959 . S
C396 H455 0.958 . S
C397 C396 1.582 . S
C397 O400 1.458 . S
C397 H426 0.980 . S
O398 C343 1.426 . S
O398 C344 1.334 . S
O399 C371 1.412 . S
O399 C372 1.393 . S
O400 C362 1.435 . S
O400 C397 1.458 . S
O401 C353 1.468 . S
O401 C354 1.408 1_554 S
H402 C343 0.980 . S
H403 C342 0.959 . S
H404 C342 0.959 . S
H405 C342 0.960 . S
H406 C345 0.929 . S
H407 C349 0.929 . S
H408 C350 0.959 . S
H409 C350 0.961 . S
H410 C350 0.961 . S
H411 C351 0.960 . S
H412 C351 0.960 . S
H413 C351 0.961 . S
H414 C353 0.980 . S
H415 C352 0.961 . S
H416 C352 0.960 . S
H417 C352 0.959 . S
H418 C355 0.930 . S
H419 C359 0.931 . S
H420 C360 0.959 1_455 S
H421 C360 0.961 1_455 S
H422 C360 0.959 . S
H423 C361 0.960 . S
H424 C361 0.960 1_455 S
H425 C361 0.960 . S
H426 C397 0.980 . S
H427 C363 0.930 . S
H428 C367 0.930 . S
H429 C368 0.961 . S
H430 C368 0.960 . S
H431 C368 0.958 . S
H432 C369 0.961 . S
H433 C369 0.960 . S
H434 C369 0.960 . S
H435 C371 0.980 . S
H436 C370 0.961 . S
H437 C370 0.961 . S
H438 C370 0.959 . S
H439 C373 0.932 . S
H440 C377 0.929 . S
H441 C378 0.961 . S
H442 C378 0.959 1_655 S
H443 C378 0.959 . S
H444 C379 0.960 . S
H445 C379 0.962 . S
H446 C379 0.961 . S
H447 C381 0.929 . S
H448 C384 0.930 . S
H449 C385 0.929 . S
H450 C388 0.930 . S
H451 C391 0.929 . S
H452 C392 0.930 . S
H453 C396 0.962 . S
H454 C396 0.959 . S
H455 C396 0.958 . S
C456 C457 1.560 . S
C456 H517 0.959 . S
C456 H518 0.959 . S
C456 H519 0.960 . S
C457 C456 1.560 . S
C457 O512 1.426 . S
C457 H516 0.980 . S
C458 C459 1.407 . S
C458 C463 1.418 . S
C458 O512 1.334 . S
C459 C458 1.407 . S
C459 C460 1.360 . S
C459 H520 0.929 . S
C460 C459 1.360 . S
C460 C461 1.401 . S
C460 C464 1.527 . S
C461 C460 1.401 . S
C461 C462 1.405 . S
C461 C494 1.587 . S
C462 C461 1.405 . S
C462 C463 1.332 . S
C462 C465 1.496 . S
C463 C458 1.418 . S
C463 C462 1.332 . S
C463 H521 0.929 . S
C464 C460 1.527 . S
C464 H522 0.959 . S
C464 H523 0.961 . S
C464 H524 0.961 . S
C465 C462 1.496 . S
C465 H525 0.960 . S
C465 H526 0.960 . S
C465 H527 0.961 . S
C466 C467 1.517 . S
C466 H529 0.961 . S
C466 H530 0.960 . S
C466 H531 0.959 . S
C467 C466 1.517 . S
C467 O515 1.468 . S
C467 H528 0.980 . S
C468 C469 1.349 . S
C468 C473 1.367 . S
C468 O515 1.408 . S
C469 C468 1.349 . S
C469 C470 1.407 . S
C469 H532 0.930 . S
C470 C469 1.407 . S
C470 C471 1.449 . S
C470 C474 1.535 . S
C471 C470 1.449 . S
C471 C472 1.384 . S
C471 C496 1.553 . S
C472 C471 1.384 . S
C472 C473 1.364 . S
C472 C475 1.450 . S
C473 C468 1.367 . S
C473 C472 1.364 . S
C473 H533 0.931 . S
C474 C470 1.535 . S
C474 H534 0.959 . S
C474 H535 0.961 . S
C474 H536 0.959 . S
C475 C472 1.450 . S
C475 H537 0.960 . S
C475 H538 0.960 . S
C475 H539 0.960 . S
C476 C477 1.309 . S
C476 C481 1.304 . S
C476 O514 1.435 . S
C477 C476 1.309 . S
C477 C478 1.476 . S
C477 H541 0.930 . S
C478 C477 1.476 . S
C478 C479 1.400 . S
C478 C482 1.567 . S
C479 C478 1.400 . S
C479 C480 1.373 . S
C479 C501 1.432 . S
C480 C479 1.373 . S
C480 C481 1.339 . S
C480 C483 1.530 . S
C481 C476 1.304 . S
C481 C480 1.339 . S
C481 H542 0.930 . S
C482 C478 1.567 . S
C482 H543 0.961 . S
C482 H544 0.960 . S
C482 H545 0.958 . S
C483 C480 1.530 . S
C483 H546 0.961 . S
C483 H547 0.960 . S
C483 H548 0.960 . S
C484 C485 1.530 . S
C484 H550 0.961 . S
C484 H551 0.961 . S
C484 H552 0.959 . S
C485 C484 1.530 . S
C485 O513 1.412 . S
C485 H549 0.980 . S
C486 C487 1.288 . S
C486 C491 1.377 . S
C486 O513 1.393 . S
C487 C486 1.288 . S
C487 C488 1.369 . S
C487 H553 0.932 . S
C488 C487 1.369 . S
C488 C489 1.398 . S
C488 C492 1.527 1_565 S
C489 C488 1.398 . S
C489 C490 1.380 . S
C489 C503 1.497 1_565 S
C490 C489 1.380 . S
C490 C491 1.383 . S
C490 C493 1.603 . S
C491 C486 1.377 . S
C491 C490 1.383 . S
C491 H554 0.929 . S
C492 C488 1.527 1_545 S
C492 H555 0.961 . S
C492 H556 0.959 . S
C492 H557 0.959 . S
C493 C490 1.603 . S
C493 H558 0.960 . S
C493 H559 0.962 . S
C493 H560 0.961 . S
C494 C461 1.587 . S
C494 C495 1.360 . S
C494 C507 1.412 . S
C495 C494 1.360 . S
C495 C496 1.365 1_565 S
C495 H561 0.929 . S
C496 C471 1.553 . S
C496 C495 1.365 1_545 S
C496 C497 1.404 . S
C497 C496 1.404 . S
C497 C498 1.395 . S
C497 C508 1.451 . S
C498 C497 1.395 . S
C498 C499 1.322 . S
C498 H562 0.930 . S
C499 C498 1.322 . S
C499 C500 1.459 1_556 S
C499 H563 0.929 . S
C500 C499 1.459 1_554 S
C500 C501 1.445 . S
C500 C509 1.395 . S
C501 C479 1.432 . S
C501 C500 1.445 . S
C501 C502 1.370 . S
C502 C501 1.370 . S
C502 C503 1.438 . S
C502 H564 0.930 . S
C503 C489 1.497 1_545 S
C503 C502 1.438 . S
C503 C504 1.361 . S
C504 C503 1.361 . S
C504 C505 1.397 1_545 S
C504 C509 1.449 . S
C505 C504 1.397 1_565 S
C505 C506 1.347 1_554 S
C505 H565 0.929 . S
C506 C505 1.347 1_556 S
C506 C507 1.455 . S
C506 H566 0.930 . S
C507 C494 1.412 . S
C507 C506 1.455 . S
C507 C508 1.331 1_565 S
C508 C497 1.451 . S
C508 C507 1.331 1_545 S
C508 C509 1.497 1_556 S
C509 C500 1.395 . S
C509 C504 1.449 . S
C509 C508 1.497 1_554 S
C510 C511 1.582 . S
C510 H567 0.962 . S
C510 H568 0.959 . S
C510 H569 0.958 . S
C511 C510 1.582 . S
C511 O514 1.458 . S
C511 H540 0.980 . S
O512 C457 1.426 . S
O512 C458 1.334 . S
O513 C485 1.412 . S
O513 C486 1.393 . S
O514 C476 1.435 . S
O514 C511 1.458 . S
O515 C467 1.468 . S
O515 C468 1.408 . S
H516 C457 0.980 . S
H517 C456 0.959 . S
H518 C456 0.959 . S
H519 C456 0.960 . S
H520 C459 0.929 . S
H521 C463 0.929 . S
H522 C464 0.959 . S
H523 C464 0.961 . S
H524 C464 0.961 . S
H525 C465 0.960 . S
H526 C465 0.960 . S
H527 C465 0.961 . S
H528 C467 0.980 . S
H529 C466 0.961 . S
H530 C466 0.960 . S
H531 C466 0.959 . S
H532 C469 0.930 . S
H533 C473 0.931 . S
H534 C474 0.959 . S
H535 C474 0.961 . S
H536 C474 0.959 . S
H537 C475 0.960 . S
H538 C475 0.960 . S
H539 C475 0.960 . S
H540 C511 0.980 . S
H541 C477 0.930 . S
H542 C481 0.930 . S
H543 C482 0.961 . S
H544 C482 0.960 . S
H545 C482 0.958 . S
H546 C483 0.961 . S
H547 C483 0.960 . S
H548 C483 0.960 . S
H549 C485 0.980 . S
H550 C484 0.961 . S
H551 C484 0.961 . S
H552 C484 0.959 . S
H553 C487 0.932 . S
H554 C491 0.929 . S
H555 C492 0.961 . S
H556 C492 0.959 . S
H557 C492 0.959 . S
H558 C493 0.960 . S
H559 C493 0.962 . S
H560 C493 0.961 . S
H561 C495 0.929 . S
H562 C498 0.930 . S
H563 C499 0.929 . S
H564 C502 0.930 . S
H565 C505 0.929 . S
H566 C506 0.930 . S
H567 C510 0.962 . S
H568 C510 0.959 . S
H569 C510 0.958 . S
C570 C571 1.560 . S
C570 H631 0.959 . S
C570 H632 0.959 . S
C570 H633 0.960 . S
C571 C570 1.560 . S
C571 O626 1.426 . S
C571 H630 0.980 . S
C572 C573 1.407 . S
C572 C577 1.418 . S
C572 O626 1.334 . S
C573 C572 1.407 . S
C573 C574 1.360 . S
C573 H634 0.929 . S
C574 C573 1.360 . S
C574 C575 1.401 . S
C574 C578 1.527 . S
C575 C574 1.401 . S
C575 C576 1.405 . S
C575 C608 1.587 . S
C576 C575 1.405 . S
C576 C577 1.332 . S
C576 C579 1.496 . S
C577 C572 1.418 . S
C577 C576 1.332 . S
C577 H635 0.929 . S
C578 C574 1.527 . S
C578 H636 0.959 . S
C578 H637 0.961 . S
C578 H638 0.961 . S
C579 C576 1.496 . S
C579 H639 0.960 . S
C579 H640 0.960 . S
C579 H641 0.961 . S
C580 C581 1.517 . S
C580 H643 0.961 . S
C580 H644 0.960 . S
C580 H645 0.959 . S
C581 C580 1.517 . S
C581 O629 1.468 . S
C581 H642 0.980 . S
C582 C583 1.350 . S
C582 C587 1.367 1_556 S
C582 O629 1.408 . S
C583 C582 1.350 . S
C583 C584 1.405 1_556 S
C583 H646 0.932 . S
C584 C583 1.405 1_554 S
C584 C585 1.449 . S
C584 C588 1.535 . S
C585 C584 1.449 . S
C585 C586 1.384 . S
C585 C610 1.553 . S
C586 C585 1.384 . S
C586 C587 1.364 . S
C586 C589 1.450 . S
C587 C582 1.367 1_554 S
C587 C586 1.364 . S
C587 H647 0.935 . S
C588 C584 1.535 . S
C588 H648 0.959 . S
C588 H649 0.961 . S
C588 H650 0.959 . S
C589 C586 1.450 . S
C589 H651 0.960 . S
C589 H652 0.960 . S
C589 H653 0.960 . S
C590 C591 1.309 . S
C590 C595 1.304 . S
C590 O628 1.435 . S
C591 C590 1.309 . S
C591 C592 1.476 . S
C591 H655 0.930 . S
C592 C591 1.476 . S
C592 C593 1.400 . S
C592 C596 1.567 . S
C593 C592 1.400 . S
C593 C594 1.373 . S
C593 C615 1.432 . S
C594 C593 1.373 . S
C594 C595 1.339 . S
C594 C597 1.530 . S
C595 C590 1.304 . S
C595 C594 1.339 . S
C595 H656 0.930 . S
C596 C592 1.567 . S
C596 H657 0.961 . S
C596 H658 0.960 . S
C596 H659 0.958 . S
C597 C594 1.530 . S
C597 H660 0.961 . S
C597 H661 0.960 . S
C597 H662 0.960 . S
C598 C599 1.530 . S
C598 H664 0.961 . S
C598 H665 0.961 . S
C598 H666 0.959 . S
C599 C598 1.530 . S
C599 O627 1.412 . S
C599 H663 0.980 . S
C600 C601 1.288 . S
C600 C605 1.377 . S
C600 O627 1.393 . S
C601 C600 1.288 . S
C601 C602 1.369 . S
C601 H667 0.932 . S
C602 C601 1.369 . S
C602 C603 1.398 . S
C602 C606 1.527 . S
C603 C602 1.398 . S
C603 C604 1.380 . S
C603 C617 1.497 . S
C604 C603 1.380 . S
C604 C605 1.383 . S
C604 C607 1.603 . S
C605 C600 1.377 . S
C605 C604 1.383 . S
C605 H668 0.929 . S
C606 C602 1.527 . S
C606 H669 0.961 . S
C606 H670 0.959 . S
C606 H671 0.959 . S
C607 C604 1.603 . S
C607 H672 0.960 . S
C607 H673 0.962 . S
C607 H674 0.961 . S
C608 C575 1.587 . S
C608 C609 1.360 . S
C608 C621 1.412 . S
C609 C608 1.360 . S
C609 C610 1.365 . S
C609 H675 0.929 . S
C610 C585 1.553 . S
C610 C609 1.365 . S
C610 C611 1.404 . S
C611 C610 1.404 . S
C611 C612 1.395 . S
C611 C622 1.451 . S
C612 C611 1.395 . S
C612 C613 1.322 . S
C612 H676 0.930 . S
C613 C612 1.322 . S
C613 C614 1.459 . S
C613 H677 0.929 . S
C614 C613 1.459 . S
C614 C615 1.445 . S
C614 C623 1.395 . S
C615 C593 1.432 . S
C615 C614 1.445 . S
C615 C616 1.370 . S
C616 C615 1.370 . S
C616 C617 1.438 . S
C616 H678 0.930 . S
C617 C603 1.497 . S
C617 C616 1.438 . S
C617 C618 1.360 . S
C618 C617 1.360 . S
C618 C619 1.401 . S
C618 C623 1.446 . S
C619 C618 1.401 . S
C619 C620 1.347 . S
C619 H679 0.929 . S
C620 C619 1.347 . S
C620 C621 1.455 . S
C620 H680 0.930 . S
C621 C608 1.412 . S
C621 C620 1.455 . S
C621 C622 1.331 . S
C622 C611 1.451 . S
C622 C621 1.331 . S
C622 C623 1.497 . S
C623 C614 1.395 . S
C623 C618 1.446 . S
C623 C622 1.497 . S
C624 C625 1.582 . S
C624 H681 0.962 . S
C624 H682 0.959 . S
C624 H683 0.958 . S
C625 C624 1.582 . S
C625 O628 1.458 . S
C625 H654 0.980 . S
O626 C571 1.426 . S
O626 C572 1.334 . S
O627 C599 1.412 . S
O627 C600 1.393 . S
O628 C590 1.435 . S
O628 C625 1.458 . S
O629 C581 1.468 . S
O629 C582 1.408 . S
H630 C571 0.980 . S
H631 C570 0.959 . S
H632 C570 0.959 . S
H633 C570 0.960 . S
H634 C573 0.929 . S
H635 C577 0.929 . S
H636 C578 0.959 . S
H637 C578 0.961 . S
H638 C578 0.961 . S
H639 C579 0.960 . S
H640 C579 0.960 . S
H641 C579 0.961 . S
H642 C581 0.980 . S
H643 C580 0.961 . S
H644 C580 0.960 . S
H645 C580 0.959 . S
H646 C583 0.932 . S
H647 C587 0.935 . S
H648 C588 0.959 . S
H649 C588 0.961 . S
H650 C588 0.959 . S
H651 C589 0.960 . S
H652 C589 0.960 . S
H653 C589 0.960 . S
H654 C625 0.980 . S
H655 C591 0.930 . S
H656 C595 0.930 . S
H657 C596 0.961 . S
H658 C596 0.960 . S
H659 C596 0.958 . S
H660 C597 0.961 . S
H661 C597 0.960 . S
H662 C597 0.960 . S
H663 C599 0.980 . S
H664 C598 0.961 . S
H665 C598 0.961 . S
H666 C598 0.959 . S
H667 C601 0.932 . S
H668 C605 0.929 . S
H669 C606 0.961 . S
H670 C606 0.959 . S
H671 C606 0.959 . S
H672 C607 0.960 . S
H673 C607 0.962 . S
H674 C607 0.961 . S
H675 C609 0.929 . S
H676 C612 0.930 . S
H677 C613 0.929 . S
H678 C616 0.930 . S
H679 C619 0.929 . S
H680 C620 0.930 . S
H681 C624 0.962 . S
H682 C624 0.959 . S
H683 C624 0.958 . S
Mg684 O685 2.028 . S
Mg684 O691 1.986 . S
Mg684 O693 2.114 . S
Mg684 O694 2.251 . S
Mg684 O697 2.010 . S
O685 Mg684 2.028 . S
O685 C688 1.250 . S
O686 Mg687 2.028 . S
O686 C688 1.248 . S
Mg687 O686 2.028 . S
Mg687 O692 2.032 . S
Mg687 O694 2.079 . S
C688 O685 1.250 . S
C688 O686 1.248 . S
C689 O690 1.264 . S
C689 O697 1.249 . S
O690 C689 1.264 . S
O691 Mg684 1.986 . S
O691 C695 1.246 . S
O692 Mg687 2.032 . S
O692 C695 1.259 . S
O693 Mg684 2.114 . S
O693 C696 1.252 . S
O694 Mg684 2.251 . S
O694 Mg687 2.079 . S
O694 C696 1.273 . S
C695 O691 1.246 . S
C695 O692 1.259 . S
C696 O693 1.252 . S
C696 O694 1.273 . S
O697 Mg684 2.010 . S
O697 C689 1.249 . S
Mg698 O699 2.028 . S
Mg698 O705 1.986 . S
Mg698 O707 2.114 . S
Mg698 O708 2.251 . S
Mg698 O711 2.010 . S
O699 Mg698 2.028 . S
O699 C702 1.250 . S
O700 Mg701 2.028 . S
O700 C702 1.248 . S
Mg701 O700 2.028 . S
Mg701 O706 2.032 . S
Mg701 O708 2.079 . S
C702 O699 1.250 . S
C702 O700 1.248 . S
C703 O704 1.264 . S
C703 O711 1.249 . S
O704 C703 1.264 . S
O705 Mg698 1.986 . S
O705 C709 1.246 . S
O706 Mg701 2.032 . S
O706 C709 1.259 . S
O707 Mg698 2.114 . S
O707 C710 1.252 . S
O708 Mg698 2.251 . S
O708 Mg701 2.079 . S
O708 C710 1.273 . S
C709 O705 1.246 . S
C709 O706 1.259 . S
C710 O707 1.252 . S
C710 O708 1.273 . S
O711 Mg698 2.010 . S
O711 C703 1.249 . S
Mg712 O713 2.028 . S
Mg712 O719 1.986 . S
Mg712 O721 2.114 . S
Mg712 O722 2.251 . S
Mg712 O725 2.010 . S
O713 Mg712 2.028 . S
O713 C716 1.250 . S
O714 Mg715 2.028 . S
O714 C716 1.248 . S
Mg715 O714 2.028 . S
Mg715 O720 2.032 . S
Mg715 O722 2.079 . S
C716 O713 1.250 . S
C716 O714 1.248 . S
C717 O718 1.264 . S
C717 O725 1.249 . S
O718 C717 1.264 . S
O719 Mg712 1.986 . S
O719 C723 1.246 . S
O720 Mg715 2.032 . S
O720 C723 1.259 . S
O721 Mg712 2.114 . S
O721 C724 1.252 . S
O722 Mg712 2.251 . S
O722 Mg715 2.079 . S
O722 C724 1.273 . S
C723 O719 1.246 . S
C723 O720 1.259 . S
C724 O721 1.252 . S
C724 O722 1.273 . S
O725 Mg712 2.010 . S
O725 C717 1.249 . S
Mg726 O727 2.028 . S
Mg726 O733 1.986 . S
Mg726 O735 2.114 . S
Mg726 O736 2.251 . S
Mg726 O739 2.010 . S
O727 Mg726 2.028 . S
O727 C730 1.250 . S
O728 Mg729 2.028 . S
O728 C730 1.248 . S
Mg729 O728 2.028 . S
Mg729 O734 2.032 . S
Mg729 O736 2.079 . S
C730 O727 1.250 . S
C730 O728 1.248 . S
C731 O732 1.264 . S
C731 O739 1.249 . S
O732 C731 1.264 . S
O733 Mg726 1.986 . S
O733 C737 1.246 . S
O734 Mg729 2.032 . S
O734 C737 1.259 . S
O735 Mg726 2.114 . S
O735 C738 1.252 . S
O736 Mg726 2.251 . S
O736 Mg729 2.079 . S
O736 C738 1.273 . S
C737 O733 1.246 . S
C737 O734 1.259 . S
C738 O735 1.252 . S
C738 O736 1.273 . S
O739 Mg726 2.010 . S
O739 C731 1.249 . S
Mg740 O741 2.028 . S
Mg740 O747 1.986 . S
Mg740 O749 2.114 . S
Mg740 O750 2.251 . S
Mg740 O753 2.010 . S
O741 Mg740 2.028 . S
O741 C744 1.250 . S
O742 Mg743 2.028 . S
O742 C744 1.248 . S
Mg743 O742 2.028 . S
Mg743 O748 2.032 . S
Mg743 O750 2.079 . S
C744 O741 1.250 . S
C744 O742 1.248 . S
C745 O746 1.264 . S
C745 O753 1.249 . S
O746 C745 1.264 . S
O747 Mg740 1.986 . S
O747 C751 1.246 . S
O748 Mg743 2.032 . S
O748 C751 1.259 . S
O749 Mg740 2.114 . S
O749 C752 1.252 . S
O750 Mg740 2.251 . S
O750 Mg743 2.079 . S
O750 C752 1.273 . S
C751 O747 1.246 . S
C751 O748 1.259 . S
C752 O749 1.252 . S
C752 O750 1.273 . S
O753 Mg740 2.010 . S
O753 C745 1.249 . S
Mg754 O755 2.028 . S
Mg754 O761 1.986 . S
Mg754 O763 2.114 . S
Mg754 O764 2.251 . S
Mg754 O767 2.010 . S
O755 Mg754 2.028 . S
O755 C758 1.250 . S
O756 Mg757 2.028 . S
O756 C758 1.248 . S
Mg757 O756 2.028 . S
Mg757 O762 2.032 . S
Mg757 O764 2.079 . S
C758 O755 1.250 . S
C758 O756 1.248 . S
C759 O760 1.264 . S
C759 O767 1.249 . S
O760 C759 1.264 . S
O761 Mg754 1.986 . S
O761 C765 1.246 . S
O762 Mg757 2.032 . S
O762 C765 1.259 . S
O763 Mg754 2.114 . S
O763 C766 1.252 . S
O764 Mg754 2.251 . S
O764 Mg757 2.079 . S
O764 C766 1.273 . S
C765 O761 1.246 . S
C765 O762 1.259 . S
C766 O763 1.252 . S
C766 O764 1.273 . S
O767 Mg754 2.010 . S
O767 C759 1.249 . S
C759 C1 1.843 . S
C169 C689 3.006 . S
C283 C709 3.429 . S
C397 C723 3.052 . S
C731 C457 1.773 . S
C571 C745 1.668 . S
C115 C703 1.861 . S
C229 C717 1.726 . S
C343 C737 2.451 . S
C751 C511 3.274 . S
C765 C625 3.345 . S
C695 C55 3.452 . S
C29 C702 1.464 . S
C125 C716 0.820 . S
C738 C239 0.791 . S
C353 C752 1.004 . S
C766 C485 1.225 . S
C696 C599 1.448 . S
C758 C143 1.403 . S
C257 C688 1.418 . S
C710 C371 1.378 . S
C467 C724 0.857 . S
C581 C730 0.653 . S
C11 C744 0.788 . S
