# Generated by pormake.
# Topology anh, (6,3)-cn, num edge types: 1
# Building blocks:
#     Node 0, Type 0, BuildingBlock: INOVEN_clean_sbu_0, # of connection points: 6
#     Node 1, Type 0, BuildingBlock: INOVEN_clean_sbu_0, # of connection points: 6
#     Node 2, Type 0, BuildingBlock: INOVEN_clean_sbu_0, # of connection points: 6
#     Node 3, Type 1, BuildingBlock: BELTOD_clean_linker_0, # of connection points: 3
#     Node 4, Type 1, BuildingBlock: BELTOD_clean_linker_0, # of connection points: 3
#     Node 5, Type 1, BuildingBlock: BELTOD_clean_linker_0, # of connection points: 3
#     Node 6, Type 1, BuildingBlock: BELTOD_clean_linker_0, # of connection points: 3
#     Node 7, Type 1, BuildingBlock: BELTOD_clean_linker_0, # of connection points: 3
#     Node 8, Type 1, BuildingBlock: BELTOD_clean_linker_0, # of connection points: 3
#     Edge 9, Type (0, 1), BuildingBlock: ZUJKAS_clean_linker_0, # of connection points: 2
#     Edge 10, Type (0, 1), BuildingBlock: ZUJKAS_clean_linker_0, # of connection points: 2
#     Edge 11, Type (0, 1), BuildingBlock: ZUJKAS_clean_linker_0, # of connection points: 2
#     Edge 12, Type (0, 1), BuildingBlock: ZUJKAS_clean_linker_0, # of connection points: 2
#     Edge 13, Type (0, 1), BuildingBlock: ZUJKAS_clean_linker_0, # of connection points: 2
#     Edge 14, Type (0, 1), BuildingBlock: ZUJKAS_clean_linker_0, # of connection points: 2
#     Edge 15, Type (0, 1), BuildingBlock: ZUJKAS_clean_linker_0, # of connection points: 2
#     Edge 16, Type (0, 1), BuildingBlock: ZUJKAS_clean_linker_0, # of connection points: 2
#     Edge 17, Type (0, 1), BuildingBlock: ZUJKAS_clean_linker_0, # of connection points: 2
#     Edge 18, Type (0, 1), BuildingBlock: ZUJKAS_clean_linker_0, # of connection points: 2
#     Edge 19, Type (0, 1), BuildingBlock: ZUJKAS_clean_linker_0, # of connection points: 2
#     Edge 20, Type (0, 1), BuildingBlock: ZUJKAS_clean_linker_0, # of connection points: 2
#     Edge 21, Type (0, 1), BuildingBlock: ZUJKAS_clean_linker_0, # of connection points: 2
#     Edge 22, Type (0, 1), BuildingBlock: ZUJKAS_clean_linker_0, # of connection points: 2
#     Edge 23, Type (0, 1), BuildingBlock: ZUJKAS_clean_linker_0, # of connection points: 2
#     Edge 24, Type (0, 1), BuildingBlock: ZUJKAS_clean_linker_0, # of connection points: 2
#     Edge 25, Type (0, 1), BuildingBlock: ZUJKAS_clean_linker_0, # of connection points: 2
#     Edge 26, Type (0, 1), BuildingBlock: ZUJKAS_clean_linker_0, # of connection points: 2
# Relax obj value: 0.155
# Max RMSD: 0.199
# Mean RMSD: 0.143
data_MOF--net-anh--node1-INOVEN_clean_sbu_0--node2-BELTOD_clean_linker_0--edge1-ZUJKAS_clean_linker_0
_symmetry_space_group_name_H-M    P1
_symmetry_Int_Tables_number       1
_symmetry_cell_setting            triclinic
loop_
_symmetry_equiv_pos_as_xyz
'x, y, z'
_cell_length_a     45.772982
_cell_length_b     50.543638
_cell_length_c     76.741297
_cell_angle_alpha  93.253868
_cell_angle_beta   89.762251
_cell_angle_gamma 127.85574
loop_
_atom_site_label
_atom_site_type_symbol
_atom_site_fract_x
_atom_site_fract_y
_atom_site_fract_z
_atom_type_partial_charge
Gd0 Gd 0.06264 0.49368 0.16293 0.0
Gd1 Gd 0.02854 0.52635 0.16529 0.0
C2 C 0.11529 0.57633 0.16717 0.0
C3 C 0.10654 0.4795 0.15813 0.0
C4 C 0.14646 0.5031 0.16196 0.0
C5 C 0.16084 0.50551 0.17863 0.0
C6 C 0.17029 0.52536 0.14953 0.0
C7 C 0.22255 0.54518 0.16862 0.0
C8 C 0.20829 0.54665 0.15294 0.0
C9 C 0.19879 0.52708 0.18206 0.0
C10 C 0.04266 0.4976 0.1955 0.0
C11 C 0.97616 0.44517 0.16075 0.0
C12 C 0.99204 0.5435 0.17966 0.0
C13 C 0.95199 0.52229 0.1796 0.0
C14 C 0.93113 0.50708 0.16382 0.0
C15 C 0.93451 0.51236 0.19555 0.0
C16 C 0.87533 0.4779 0.17999 0.0
C17 C 0.89625 0.48972 0.19575 0.0
C18 C 0.89284 0.48491 0.16403 0.0
C19 C 0.0322 0.51619 0.13011 0.0
O20 O 0.11376 0.54926 0.16515 0.0
O21 O 0.08516 0.5739 0.16771 0.0
O22 O 0.08607 0.47039 0.17178 0.0
O23 O 0.09413 0.48629 0.14517 0.0
O24 O 0.03571 0.4706 0.18801 0.0
O25 O 0.05907 0.52104 0.18515 0.0
O26 O 0.97959 0.47185 0.16691 0.0
O27 O 1.00508 0.44805 0.155 0.0
O28 O 1.00752 0.55468 0.16467 0.0
O29 O 1.00538 0.53143 0.18839 0.0
O30 O 0.01816 0.52989 0.13704 0.0
O31 O 0.04341 0.5079 0.14217 0.0
H32 H 0.14303 0.48958 0.18873 0.0
H33 H 0.15985 0.5251 0.13683 0.0
H34 H 0.22641 0.56062 0.14245 0.0
H35 H 0.20963 0.5258 0.19425 0.0
H36 H 0.9442 0.51296 0.15133 0.0
H37 H 0.95044 0.52258 0.20783 0.0
H38 H 0.88288 0.48445 0.20814 0.0
H39 H 0.87705 0.47618 0.15172 0.0
Gd40 Gd 0.54672 1.00067 0.48719 0.0
Gd41 Gd 0.50542 0.02676 0.48292 0.0
C42 C 0.45679 0.949 0.48259 0.0
C43 C 0.56925 0.96644 0.49462 0.0
C44 C 0.55421 0.93075 0.49299 0.0
C45 C 0.56452 0.91906 0.4791 0.0
C46 C 0.53118 0.90854 0.50565 0.0
C47 C 0.53189 0.86469 0.49137 0.0
C48 C 0.52006 0.8758 0.50482 0.0
C49 C 0.55336 0.88636 0.47826 0.0
C50 C 0.53947 0.01106 0.45389 0.0
C51 C 0.59574 0.07872 0.48657 0.0
C52 C 0.48414 0.0616 0.47486 0.0
C53 C 0.49824 0.09667 0.4791 0.0
C54 C 0.48572 0.10455 0.49374 0.0
C55 C 0.5239 0.1225 0.46848 0.0
C56 C 0.52304 0.16305 0.4867 0.0
C57 C 0.53625 0.15535 0.47227 0.0
C58 C 0.49797 0.1373 0.4975 0.0
C59 C 0.51267 0.01712 0.51647 0.0
O60 O 0.48656 0.95524 0.49011 0.0
O61 O 0.45861 0.97293 0.47531 0.0
O62 O 0.57647 0.9813 0.48008 0.0
O63 O 0.55466 0.97503 0.50606 0.0
O64 O 0.56986 0.01909 0.46082 0.0
O65 O 0.51405 0.99745 0.46464 0.0
O66 O 0.56507 0.07225 0.48018 0.0
O67 O 0.59511 0.05495 0.49333 0.0
O68 O 0.47056 0.04165 0.48768 0.0
O69 O 0.50412 0.05729 0.46471 0.0
O70 O 0.48309 0.01088 0.50961 0.0
O71 O 0.53798 0.02985 0.5056 0.0
H72 H 0.58211 0.93548 0.46909 0.0
H73 H 0.52268 0.9167 0.51652 0.0
H74 H 0.50378 0.85978 0.5152 0.0
H75 H 0.56247 0.87834 0.46761 0.0
H76 H 0.4659 0.08528 0.50218 0.0
H77 H 0.53422 0.11733 0.45712 0.0
H78 H 0.55592 0.17465 0.46381 0.0
H79 H 0.48672 0.14213 0.50856 0.0
Gd80 Gd 0.59685 0.57101 0.83351 0.0
Gd81 Gd 0.54766 0.49751 0.83518 0.0
C82 C 0.5048 0.53075 0.83822 0.0
C83 C 0.62419 0.6311 0.82599 0.0
C84 C 0.61053 0.65118 0.82729 0.0
C85 C 0.62544 0.67741 0.84037 0.0
C86 C 0.58266 0.64451 0.8157 0.0
C87 C 0.58658 0.69119 0.82962 0.0
C88 C 0.57082 0.6643 0.81686 0.0
C89 C 0.61354 0.69712 0.84156 0.0
C90 C 0.58768 0.55047 0.86549 0.0
C91 C 0.64055 0.53872 0.83584 0.0
C92 C 0.51877 0.43616 0.84101 0.0
C93 C 0.52993 0.41419 0.8383 0.0
C94 C 0.52847 0.40044 0.82155 0.0
C95 C 0.54121 0.40598 0.85268 0.0
C96 C 0.54721 0.36924 0.83379 0.0
C97 C 0.5498 0.38381 0.85045 0.0
C98 C 0.53709 0.37829 0.81933 0.0
C99 C 0.55624 0.51867 0.80291 0.0
O100 O 0.53757 0.55797 0.83333 0.0
O101 O 0.50261 0.504 0.84181 0.0
O102 O 0.63146 0.62433 0.84081 0.0
O103 O 0.60789 0.60563 0.81425 0.0
O104 O 0.61904 0.57661 0.86049 0.0
O105 O 0.5625 0.53799 0.8539 0.0
O106 O 0.60643 0.51056 0.83816 0.0
O107 O 0.6441 0.56606 0.83201 0.0
O108 O 0.51063 0.44451 0.82705 0.0
O109 O 0.53766 0.46107 0.85298 0.0
O110 O 0.52479 0.49408 0.80867 0.0
O111 O 0.58209 0.53056 0.81419 0.0
H112 H 0.64668 0.68296 0.8496 0.0
H113 H 0.57033 0.62434 0.80553 0.0
H114 H 0.55028 0.65928 0.80735 0.0
H115 H 0.62583 0.71733 0.85169 0.0
H116 H 0.51995 0.40619 0.81015 0.0
H117 H 0.5428 0.41628 0.86572 0.0
H118 H 0.558 0.37769 0.86182 0.0
H119 H 0.53444 0.36727 0.80634 0.0
P120 P 0.56276 0.00966 0.21061 0.0
H121 H 0.5392 0.9685 0.17774 0.0
H122 H 0.4791 0.91715 0.16732 0.0
H123 H 0.42758 0.93083 0.21055 0.0
H124 H 0.48704 0.98293 0.22005 0.0
H125 H 0.64098 0.05084 0.20339 0.0
H126 H 0.68457 0.10695 0.19327 0.0
H127 H 0.59664 0.11515 0.18815 0.0
H128 H 0.55213 0.05773 0.19794 0.0
H129 H 0.53763 0.9648 0.23845 0.0
H130 H 0.57288 0.06491 0.2329 0.0
O131 O 0.58374 0.99187 0.20963 0.0
H132 H 0.52658 0.96911 0.26924 0.0
H133 H 0.56152 0.06928 0.26371 0.0
C134 C 0.51784 0.97934 0.19983 0.0
C135 C 0.5147 0.96101 0.18458 0.0
C136 C 0.48027 0.93124 0.17883 0.0
C137 C 0.44829 0.91897 0.18835 0.0
C138 C 0.45125 0.93914 0.20278 0.0
C139 C 0.48559 0.96912 0.20834 0.0
C140 C 0.59306 0.04972 0.2011 0.0
C141 C 0.63062 0.06415 0.19973 0.0
C142 C 0.65566 0.09635 0.19399 0.0
C143 C 0.64392 0.11523 0.18984 0.0
C144 C 0.60629 0.10097 0.19124 0.0
C145 C 0.58091 0.06822 0.1967 0.0
C146 C 0.55665 0.01469 0.23345 0.0
C147 C 0.54316 0.98779 0.2439 0.0
C148 C 0.53642 0.99013 0.26144 0.0
C149 C 0.54301 0.01949 0.2689 0.0
C150 C 0.55645 0.04644 0.25837 0.0
C151 C 0.56299 0.04397 0.24073 0.0
P152 P 0.5938 0.55729 0.56027 0.0
H153 H 0.62224 0.54161 0.53079 0.0
H154 H 0.60303 0.4884 0.51664 0.0
H155 H 0.50661 0.43489 0.54827 0.0
H156 H 0.52627 0.48833 0.56248 0.0
H157 H 0.62686 0.62757 0.55819 0.0
H158 H 0.6064 0.65615 0.54429 0.0
H159 H 0.50357 0.5602 0.52738 0.0
H160 H 0.52413 0.53164 0.5416 0.0
H161 H 0.60081 0.51924 0.58422 0.0
H162 H 0.56066 0.57735 0.58555 0.0
O163 O 0.63994 0.5825 0.55989 0.0
H164 H 0.58761 0.50915 0.61495 0.0
H165 H 0.5487 0.56852 0.61658 0.0
C166 C 0.57627 0.51868 0.54802 0.0
C167 C 0.59676 0.51844 0.53452 0.0
C168 C 0.58555 0.48803 0.52634 0.0
C169 C 0.55355 0.45747 0.53152 0.0
C170 C 0.53173 0.45804 0.54425 0.0
C171 C 0.54293 0.4885 0.55237 0.0
C172 C 0.57737 0.57758 0.55055 0.0
C173 C 0.6 0.61267 0.55142 0.0
C174 C 0.58835 0.62894 0.5434 0.0
C175 C 0.55369 0.61036 0.53445 0.0
C176 C 0.53047 0.57511 0.53411 0.0
C177 C 0.54225 0.55881 0.54215 0.0
C178 C 0.58155 0.54887 0.58263 0.0
C179 C 0.58899 0.52972 0.59115 0.0
C180 C 0.58167 0.52419 0.60876 0.0
C181 C 0.56739 0.53827 0.61829 0.0
C182 C 0.55931 0.557 0.60959 0.0
C183 C 0.5664 0.56229 0.59186 0.0
P184 P 0.08509 0.55231 0.88133 0.0
H185 H 0.14649 0.5835 0.85529 0.0
H186 H 0.19633 0.57995 0.84875 0.0
H187 H 0.14653 0.49581 0.88076 0.0
H188 H 0.09714 0.50008 0.88745 0.0
H189 H 0.06625 0.59952 0.88011 0.0
H190 H 1.01272 0.59626 0.8735 0.0
H191 H 0.95075 0.49098 0.8579 0.0
H192 H 1.00565 0.49456 0.86511 0.0
H193 H 0.13649 0.56552 0.90962 0.0
H194 H 0.01989 0.51773 0.90456 0.0
O195 O 0.11645 0.59408 0.88331 0.0
H196 H 0.13081 0.55694 0.94085 0.0
H197 H 1.01408 0.5093 0.93589 0.0
C198 C 0.11594 0.54167 0.87173 0.0
C199 C 0.14524 0.56345 0.86061 0.0
C200 C 0.17475 0.56149 0.8569 0.0
C201 C 0.17751 0.53765 0.86413 0.0
C202 C 0.1474 0.51517 0.87485 0.0
C203 C 0.11788 0.51717 0.87853 0.0
C204 C 0.04239 0.5477 0.87278 0.0
C205 C 0.04177 0.5755 0.8749 0.0
C206 C 1.00988 0.57353 0.87101 0.0
C207 C 0.97528 0.54336 0.86473 0.0
C208 C 0.97567 0.51517 0.86262 0.0
C209 C 1.00798 0.51721 0.86662 0.0
C210 C 0.07861 0.54191 0.90437 0.0
C211 C 0.10943 0.55263 0.91511 0.0
C212 C 0.10614 0.54771 0.93312 0.0
C213 C 0.07194 0.53232 0.94116 0.0
C214 C 0.041 0.5215 0.93036 0.0
C215 C 0.04426 0.52612 0.91226 0.0
P216 P 0.04082 0.50041 0.44253 0.0
H217 H 0.09112 0.53185 0.47338 0.0
H218 H 0.13738 0.59081 0.48351 0.0
H219 H 0.0917 0.61907 0.4465 0.0
H220 H 0.04568 0.56004 0.43635 0.0
H221 H 1.00895 0.43101 0.44733 0.0
H222 H 0.94973 0.38345 0.4576 0.0
H223 H 0.91671 0.4464 0.46718 0.0
H224 H 0.97712 0.4949 0.45712 0.0
H225 H 0.0938 0.53995 0.4163 0.0
H226 H 0.97514 0.46702 0.41817 0.0
O227 O 0.06936 0.49037 0.44347 0.0
H228 H 0.08818 0.54285 0.38495 0.0
H229 H 0.96927 0.46988 0.38672 0.0
C230 C 0.06537 0.54154 0.45386 0.0
C231 C 0.09035 0.55062 0.46779 0.0
C232 C 0.11688 0.58445 0.47358 0.0
C233 C 0.11886 0.60983 0.46554 0.0
C234 C 0.09154 0.60025 0.45268 0.0
C235 C 0.06495 0.56641 0.44696 0.0
C236 C 0.99789 0.46679 0.45179 0.0
C237 C 0.98949 0.43502 0.45196 0.0
C238 C 0.95556 0.40774 0.45777 0.0
C239 C 0.92893 0.4114 0.46326 0.0
C240 C 0.93702 0.44311 0.46307 0.0
C241 C 0.97144 0.47074 0.4574 0.0
C242 C 0.03498 0.50328 0.4196 0.0
C243 C 0.06647 0.52477 0.40997 0.0
C244 C 0.0632 0.52654 0.39205 0.0
C245 C 0.02826 0.50664 0.38329 0.0
C246 C 0.9966 0.48534 0.39304 0.0
C247 C 0.99993 0.48376 0.41105 0.0
P248 P 0.58522 0.03434 0.75919 0.0
H249 H 0.61437 0.07965 0.79047 0.0
H250 H 0.59886 0.11443 0.80418 0.0
H251 H 0.50533 0.06815 0.76796 0.0
H252 H 0.52041 0.03285 0.75441 0.0
H253 H 0.62318 0.00512 0.7598 0.0
H254 H 0.61185 0.95818 0.77441 0.0
H255 H 0.51244 0.93701 0.79561 0.0
H256 H 0.52408 0.9845 0.78084 0.0
H257 H 0.59961 0.07636 0.73114 0.0
H258 H 0.53343 0.97016 0.73804 0.0
O259 O 0.63123 0.0625 0.75888 0.0
H260 H 0.58118 0.06415 0.69999 0.0
H261 H 0.51523 0.958 0.70675 0.0
C262 C 0.56899 0.05428 0.77122 0.0
C263 C 0.59001 0.07639 0.78574 0.0
C264 C 0.58111 0.09609 0.7936 0.0
C265 C 0.55105 0.09381 0.78702 0.0
C266 C 0.52864 0.07017 0.77318 0.0
C267 C 0.53735 0.0502 0.76542 0.0
C268 C 0.57496 0.9987 0.7696 0.0
C269 C 0.59906 0.99056 0.76767 0.0
C270 C 0.59262 0.9638 0.77607 0.0
C271 C 0.56166 0.94438 0.78642 0.0
C272 C 0.53664 0.95175 0.7878 0.0
C273 C 0.54332 0.97886 0.77944 0.0
C274 C 0.56828 0.02422 0.73681 0.0
C275 C 0.58088 0.05044 0.72598 0.0
C276 C 0.57032 0.04351 0.70826 0.0
C277 C 0.54693 0.01023 0.70116 0.0
C278 C 0.53331 0.98385 0.71207 0.0
C279 C 0.54379 0.99081 0.72987 0.0
P280 P 0.47404 0.40506 0.08832 0.0
H281 H 0.48418 0.38635 0.12082 0.0
H282 H 0.53783 0.41538 0.14105 0.0
H283 H 0.60699 0.48303 0.10169 0.0
H284 H 0.55349 0.45548 0.08183 0.0
H285 H 0.40082 0.38192 0.09967 0.0
H286 H 0.38247 0.40909 0.11924 0.0
H287 H 0.49793 0.49391 0.12921 0.0
H288 H 0.51527 0.46919 0.10837 0.0
H289 H 0.50441 0.39627 0.05753 0.0
H290 H 0.47265 0.45783 0.07532 0.0
O291 O 0.44309 0.36337 0.08565 0.0
H292 H 0.53067 0.42878 0.03164 0.0
H293 H 0.49837 0.48966 0.04949 0.0
C294 C 0.51499 0.41747 0.09953 0.0
C295 C 0.51107 0.40674 0.11636 0.0
C296 C 0.54124 0.42397 0.12804 0.0
C297 C 0.57595 0.45139 0.12279 0.0
C298 C 0.58013 0.46222 0.10598 0.0
C299 C 0.54975 0.44539 0.09439 0.0
C300 C 0.45927 0.42315 0.10286 0.0
C301 C 0.4219 0.40634 0.10611 0.0
C302 C 0.41164 0.42164 0.11748 0.0
C303 C 0.43891 0.45354 0.12581 0.0
C304 C 0.4763 0.46954 0.12285 0.0
C305 C 0.48625 0.45505 0.11105 0.0
C306 C 0.48607 0.42425 0.0681 0.0
C307 C 0.50253 0.41629 0.05571 0.0
C308 C 0.51823 0.43524 0.04127 0.0
C309 C 0.5168 0.46173 0.03905 0.0
C310 C 0.50001 0.46949 0.0513 0.0
C311 C 0.48487 0.45093 0.06587 0.0
H312 H 0.29435 0.60113 0.16496 0.0
H313 H 0.34666 0.60022 0.15809 0.0
H314 H 0.2743 0.4925 0.16081 0.0
H315 H 0.22323 0.49328 0.16781 0.0
H316 H 0.36756 0.56286 0.18067 0.0
H317 H 0.32433 0.51603 0.1112 0.0
H318 H 0.31142 0.53922 0.12305 0.0
H319 H 0.28696 0.49529 0.12593 0.0
C320 C 0.29035 0.57764 0.16448 0.0
C321 C 0.25566 0.54748 0.16746 0.0
C322 C 0.3197 0.57706 0.1604 0.0
C323 C 0.31361 0.54626 0.15886 0.0
C324 C 0.27906 0.51637 0.16194 0.0
H325 H 0.38275 0.42932 0.14854 0.0
H326 H 0.35924 0.45898 0.16007 0.0
C327 C 0.25027 0.51697 0.16622 0.0
C328 C 0.34295 0.54406 0.15468 0.0
H329 H 0.35924 0.50169 0.12563 0.0
C330 C 0.36699 0.55063 0.16845 0.0
C331 C 0.34076 0.52727 0.13883 0.0
C332 C 0.31462 0.51925 0.12386 0.0
C333 C 0.38754 0.53872 0.16713 0.0
C334 C 0.38384 0.52052 0.15166 0.0
C335 C 0.36147 0.51566 0.13751 0.0
C336 C 0.40293 0.50608 0.14952 0.0
C337 C 0.41158 0.54401 0.18239 0.0
C338 C 0.43524 0.52337 0.14021 0.0
C339 C 0.44794 0.50648 0.13322 0.0
C340 C 0.42863 0.47217 0.13572 0.0
C341 C 0.39776 0.45561 0.14628 0.0
C342 C 0.38473 0.47254 0.15307 0.0
H343 H 0.41168 0.55914 0.19351 0.0
H344 H 0.40147 0.51928 0.18689 0.0
H345 H 0.4404 0.55689 0.17823 0.0
H346 H 0.44883 0.54911 0.13714 0.0
H347 H 0.47132 0.51982 0.12484 0.0
H348 H 0.6588 0.11283 0.50798 0.0
H349 H 0.71485 0.17126 0.50629 0.0
H350 H 0.66859 0.17927 0.45989 0.0
H351 H 0.61238 0.122 0.462 0.0
H352 H 0.76613 0.20316 0.48269 0.0
H353 H 0.69487 0.26035 0.48759 0.0
H354 H 0.67181 0.21698 0.49164 0.0
H355 H 0.67639 0.22939 0.46962 0.0
C356 C 0.66066 0.12721 0.49748 0.0
C357 C 0.63093 0.11306 0.48532 0.0
C358 C 0.69265 0.16059 0.49652 0.0
C359 C 0.69558 0.18023 0.48328 0.0
C360 C 0.66654 0.16536 0.47067 0.0
H361 H 0.86374 0.37455 0.44427 0.0
H362 H 0.80665 0.31918 0.45042 0.0
C363 C 0.63445 0.13242 0.47182 0.0
C364 C 0.72913 0.21595 0.48232 0.0
H365 H 0.75703 0.29538 0.47784 0.0
C366 C 0.76414 0.22336 0.48186 0.0
C367 C 0.72672 0.2425 0.48121 0.0
C368 C 0.69045 0.23697 0.48272 0.0
C369 C 0.79646 0.25615 0.47972 0.0
C370 C 0.7939 0.2825 0.47822 0.0
C371 C 0.75901 0.27523 0.47893 0.0
C372 C 0.82705 0.31752 0.47541 0.0
C373 C 0.83296 0.26207 0.47849 0.0
C374 C 0.857 0.33559 0.48767 0.0
C375 C 0.88959 0.36707 0.48412 0.0
C376 C 0.89251 0.38136 0.46841 0.0
C377 C 0.86189 0.36419 0.45657 0.0
C378 C 0.8294 0.33254 0.46005 0.0
H379 H 0.82909 0.23826 0.47572 0.0
H380 H 0.84973 0.27925 0.46811 0.0
H381 H 0.84887 0.27389 0.49111 0.0
H382 H 0.85557 0.32493 0.49979 0.0
H383 H 0.91294 0.37983 0.49339 0.0
H384 H 0.51814 0.67611 0.82487 0.0
H385 H 0.50495 0.71581 0.82093 0.0
H386 H 0.62071 0.79871 0.83003 0.0
H387 H 0.63428 0.75955 0.8337 0.0
H388 H 0.52953 0.78092 0.84442 0.0
H389 H 0.58519 0.79867 0.77789 0.0
H390 H 0.56868 0.76205 0.78955 0.0
H391 H 0.61315 0.80123 0.79533 0.0
C392 C 0.54071 0.70282 0.82619 0.0
C393 C 0.57731 0.71468 0.82948 0.0
C394 C 0.53306 0.72539 0.82408 0.0
C395 C 0.56192 0.76005 0.82514 0.0
C396 C 0.59812 0.77199 0.82921 0.0
H397 H 0.61262 0.94661 0.80592 0.0
H398 H 0.60675 0.89931 0.81718 0.0
C399 C 0.60576 0.74955 0.83137 0.0
C400 C 0.55528 0.78387 0.8203 0.0
H401 H 0.57399 0.83647 0.78862 0.0
C402 C 0.53872 0.79279 0.83215 0.0
C403 C 0.56726 0.79912 0.80424 0.0
C404 C 0.58434 0.78971 0.79091 0.0
C405 C 0.53522 0.81774 0.82854 0.0
C406 C 0.54846 0.83374 0.81276 0.0
C407 C 0.56388 0.82402 0.80072 0.0
C408 C 0.54925 0.86239 0.80881 0.0
C409 C 0.51869 0.82783 0.84175 0.0
C410 C 0.51853 0.85718 0.80071 0.0
C411 C 0.52183 0.88421 0.79419 0.0
C412 C 0.55603 0.91659 0.79554 0.0
C413 C 0.5861 0.92183 0.80449 0.0
C414 C 0.58274 0.89494 0.81103 0.0
H415 H 0.50948 0.81285 0.85342 0.0
H416 H 0.53944 0.85485 0.84601 0.0
H417 H 0.49463 0.82457 0.83564 0.0
H418 H 0.49259 0.83207 0.79874 0.0
H419 H 0.4983 0.87949 0.78728 0.0
H420 H 0.80977 0.42457 0.16399 0.0
H421 H 0.75784 0.42543 0.15681 0.0
H422 H 0.81314 0.52043 0.18681 0.0
H423 H 0.86367 0.51945 0.19422 0.0
H424 H 0.73235 0.46825 0.1907 0.0
H425 H 0.7817 0.50084 0.12283 0.0
H426 H 0.77797 0.46705 0.13223 0.0
H427 H 0.81268 0.50945 0.14067 0.0
C428 C 0.80965 0.44467 0.16959 0.0
C429 C 0.83982 0.47146 0.17996 0.0
C430 C 0.78063 0.44541 0.16534 0.0
C431 C 0.78256 0.47321 0.17126 0.0
C432 C 0.81152 0.49879 0.18237 0.0
H433 H 0.63505 0.51637 0.13333 0.0
H434 H 0.6933 0.53362 0.14762 0.0
C435 C 0.83995 0.49788 0.18678 0.0
C436 C 0.75589 0.47749 0.16533 0.0
H437 H 0.73157 0.50027 0.13082 0.0
C438 C 0.73223 0.4755 0.17767 0.0
C439 C 0.7573 0.488 0.14851 0.0
C440 C 0.78381 0.49166 0.13523 0.0
C441 C 0.70798 0.48206 0.17325 0.0
C442 C 0.70761 0.49047 0.15613 0.0
C443 C 0.73293 0.49457 0.14408 0.0
C444 C 0.67376 0.48249 0.14898 0.0
C445 C 0.68053 0.47703 0.18632 0.0
C446 C 0.64477 0.44846 0.14533 0.0
C447 C 0.61237 0.4388 0.13755 0.0
C448 C 0.60864 0.46308 0.13321 0.0
C449 C 0.63763 0.49744 0.13692 0.0
C450 C 0.67051 0.50722 0.14491 0.0
H451 H 0.69008 0.47877 0.19992 0.0
H452 H 0.67568 0.49587 0.18514 0.0
H453 H 0.65371 0.45168 0.18364 0.0
H454 H 0.64764 0.42934 0.14814 0.0
H455 H 0.59078 0.4123 0.13421 0.0
H456 H 0.42449 0.90885 0.50966 0.0
H457 H 0.36589 0.85135 0.5089 0.0
H458 H 0.35184 0.85415 0.45369 0.0
H459 H 0.40971 0.91206 0.45455 0.0
H460 H 0.2893 0.82758 0.49358 0.0
H461 H 0.34824 0.76803 0.46313 0.0
H462 H 0.37644 0.80855 0.47517 0.0
H463 H 0.3596 0.80476 0.45339 0.0
C464 C 0.40874 0.89712 0.4974 0.0
C465 C 0.42142 0.91469 0.48215 0.0
C466 C 0.37534 0.86441 0.49699 0.0
C467 C 0.35468 0.84849 0.48123 0.0
C468 C 0.3674 0.86604 0.46598 0.0
H469 H 0.15843 0.65732 0.44193 0.0
H470 H 0.21452 0.71517 0.44721 0.0
C471 C 0.40031 0.89904 0.46648 0.0
C472 C 0.32 0.81338 0.48059 0.0
H473 H 0.28296 0.73348 0.46507 0.0
C474 C 0.28789 0.8069 0.4875 0.0
C475 C 0.31839 0.78652 0.47273 0.0
C476 C 0.35249 0.79204 0.46577 0.0
C477 C 0.25384 0.77431 0.4862 0.0
C478 C 0.25203 0.74759 0.47792 0.0
C479 C 0.28437 0.75402 0.47136 0.0
C480 C 0.21658 0.71302 0.47518 0.0
C481 C 0.21973 0.76876 0.49315 0.0
C482 C 0.19892 0.69255 0.4892 0.0
C483 C 0.16667 0.65928 0.48623 0.0
C484 C 0.15135 0.64594 0.46918 0.0
C485 C 0.16892 0.66684 0.45525 0.0
C486 C 0.20121 0.6999 0.45822 0.0
H487 H 0.22479 0.79277 0.49718 0.0
H488 H 0.19676 0.75466 0.48309 0.0
H489 H 0.21064 0.75344 0.50465 0.0
H490 H 0.21051 0.70209 0.50239 0.0
H491 H 0.15388 0.64393 0.49725 0.0
H492 H 0.52105 0.31694 0.85424 0.0
H493 H 0.52355 0.27017 0.8491 0.0
H494 H 0.58586 0.31408 0.80306 0.0
H495 H 0.58392 0.36129 0.80822 0.0
H496 H 0.49378 0.22681 0.81736 0.0
H497 H 0.64266 0.28761 0.83015 0.0
H498 H 0.62098 0.30562 0.83854 0.0
H499 H 0.63359 0.30931 0.81611 0.0
C500 C 0.53603 0.31708 0.84324 0.0
C501 C 0.55224 0.34283 0.83162 0.0
C502 C 0.53722 0.29022 0.84027 0.0
C503 C 0.55502 0.28879 0.82577 0.0
C504 C 0.57231 0.31494 0.81444 0.0
H505 H 0.5699 0.14679 0.76975 0.0
H506 H 0.56891 0.19296 0.78034 0.0
C507 C 0.57092 0.34173 0.81733 0.0
C508 C 0.55299 0.25869 0.8217 0.0
H509 H 0.606 0.23268 0.81592 0.0
C510 C 0.51823 0.22795 0.81725 0.0
C511 C 0.58495 0.26035 0.82159 0.0
C512 C 0.62268 0.2924 0.82699 0.0
C513 C 0.51478 0.19902 0.81208 0.0
C514 C 0.54685 0.20095 0.81153 0.0
C515 C 0.5815 0.23145 0.81636 0.0
C516 C 0.54532 0.17205 0.80502 0.0
C517 C 0.47717 0.16685 0.80666 0.0
C518 C 0.53215 0.14505 0.81541 0.0
C519 C 0.53304 0.11885 0.80944 0.0
C520 C 0.5466 0.1193 0.79294 0.0
C521 C 0.55893 0.14591 0.78243 0.0
C522 C 0.55853 0.17223 0.78848 0.0
H523 H 0.45543 0.17029 0.80635 0.0
H524 H 0.47812 0.15706 0.79351 0.0
H525 H 0.46928 0.1476 0.81596 0.0
H526 H 0.52201 0.14465 0.82825 0.0
H527 H 0.52367 0.09855 0.81774 0.0
H528 H 0.46794 0.80343 0.49906 0.0
H529 H 0.46084 0.75205 0.50377 0.0
H530 H 0.57427 0.8017 0.49034 0.0
H531 H 0.58181 0.85293 0.48585 0.0
H532 H 0.48389 0.71427 0.47895 0.0
H533 H 0.55714 0.77176 0.5438 0.0
H534 H 0.53349 0.78485 0.53285 0.0
H535 H 0.57775 0.79805 0.52573 0.0
C536 C 0.49119 0.8032 0.49693 0.0
C537 C 0.52544 0.83222 0.4921 0.0
C538 C 0.48701 0.77386 0.49951 0.0
C539 C 0.51709 0.77333 0.4974 0.0
C540 C 0.55076 0.80174 0.49194 0.0
H541 H 0.59489 0.66307 0.514 0.0
H542 H 0.57933 0.69791 0.5034 0.0
C543 C 0.55492 0.83091 0.4893 0.0
C544 C 0.51492 0.74448 0.50241 0.0
H545 H 0.54878 0.72253 0.53309 0.0
C546 C 0.49747 0.71568 0.49091 0.0
C547 C 0.53272 0.74665 0.51802 0.0
C548 C 0.55116 0.77686 0.53093 0.0
C549 C 0.49884 0.68943 0.49436 0.0
C550 C 0.51795 0.69235 0.50962 0.0
C551 C 0.53417 0.72057 0.52139 0.0
C552 C 0.52406 0.66777 0.51321 0.0
C553 C 0.48129 0.65936 0.48148 0.0
C554 C 0.4977 0.63904 0.52192 0.0
C555 C 0.5066 0.61919 0.52813 0.0
C556 C 0.54207 0.62814 0.52581 0.0
C557 C 0.56758 0.65595 0.51623 0.0
C558 C 0.55867 0.67567 0.51004 0.0
H559 H 0.46708 0.66069 0.47025 0.0
H560 H 0.50285 0.65755 0.47647 0.0
H561 H 0.46089 0.63608 0.48813 0.0
H562 H 0.47099 0.63291 0.5246 0.0
H563 H 0.48649 0.59797 0.53553 0.0
H564 H 0.64461 0.48567 0.83919 0.0
H565 H 0.69843 0.48642 0.84325 0.0
H566 H 0.77115 0.59385 0.84149 0.0
H567 H 0.71739 0.59311 0.83748 0.0
H568 H 0.75712 0.50091 0.82651 0.0
H569 H 0.82074 0.59329 0.88325 0.0
H570 H 0.77499 0.57528 0.8747 0.0
H571 H 0.8153 0.60976 0.86452 0.0
C572 C 0.67195 0.5097 0.83968 0.0
C573 C 0.67522 0.53934 0.83797 0.0
C574 C 0.70344 0.51013 0.84204 0.0
C575 C 0.74061 0.54026 0.84322 0.0
C576 C 0.74386 0.56987 0.84127 0.0
H577 H 0.96891 0.59577 0.86116 0.0
H578 H 0.9152 0.59384 0.85611 0.0
C579 C 0.71239 0.56942 0.83873 0.0
C580 C 0.77506 0.54051 0.84623 0.0
H581 H 0.85712 0.57894 0.87077 0.0
C582 C 0.77866 0.51804 0.83634 0.0
C583 C 0.80472 0.56247 0.8589 0.0
C584 C 0.80373 0.58634 0.87108 0.0
C585 C 0.80971 0.51747 0.8383 0.0
C586 C 0.83931 0.53933 0.85106 0.0
C587 C 0.83566 0.5618 0.86092 0.0
C588 C 0.87392 0.5398 0.85423 0.0
C589 C 0.8109 0.49396 0.82591 0.0
C590 C 0.87142 0.51038 0.85531 0.0
C591 C 0.90315 0.51135 0.85843 0.0
C592 C 0.94005 0.54185 0.86087 0.0
C593 C 0.9423 0.57122 0.8598 0.0
C594 C 0.91062 0.57021 0.85673 0.0
H595 H 0.79434 0.48763 0.81366 0.0
H596 H 0.83972 0.50503 0.82245 0.0
H597 H 0.79885 0.47018 0.83219 0.0
H598 H 0.84447 0.48605 0.85411 0.0
H599 H 0.89822 0.48763 0.85922 0.0
H600 H 0.12634 0.63101 0.1834 0.0
H601 H 0.18309 0.68862 0.1863 0.0
H602 H 0.24222 0.65787 0.15997 0.0
H603 H 0.18491 0.59939 0.15703 0.0
H604 H 0.2534 0.71498 0.20259 0.0
H605 H 0.26074 0.73591 0.13182 0.0
H606 H 0.21884 0.70219 0.14155 0.0
H607 H 0.25511 0.69889 0.13731 0.0
C608 C 0.15136 0.63632 0.17819 0.0
C609 C 0.15102 0.6106 0.16978 0.0
C610 C 0.18383 0.66935 0.17994 0.0
C611 C 0.21673 0.67764 0.17315 0.0
C612 C 0.21691 0.65201 0.1651 0.0
H613 H 0.44024 0.86263 0.17582 0.0
H614 H 0.38342 0.80516 0.17147 0.0
C615 C 0.1843 0.61863 0.16352 0.0
C616 C 0.25054 0.71325 0.17451 0.0
H617 H 0.31037 0.78014 0.15029 0.0
C618 C 0.26592 0.72922 0.19116 0.0
C619 C 0.26632 0.73194 0.1596 0.0
C620 C 0.24937 0.7166 0.14153 0.0
C621 C 0.29726 0.76316 0.19325 0.0
C622 C 0.31347 0.78161 0.17832 0.0
C623 C 0.29792 0.7658 0.16169 0.0
C624 C 0.34737 0.81708 0.17979 0.0
C625 C 0.31324 0.7791 0.21137 0.0
C626 C 0.34579 0.84301 0.18553 0.0
C627 C 0.37826 0.87625 0.18768 0.0
C628 C 0.41308 0.88421 0.18433 0.0
C629 C 0.41417 0.85797 0.17822 0.0
C630 C 0.38167 0.82488 0.17587 0.0
H631 H 0.29983 0.76046 0.22147 0.0
H632 H 0.34345 0.79184 0.21197 0.0
H633 H 0.30941 0.79848 0.21451 0.0
H634 H 0.31946 0.83747 0.1885 0.0
H635 H 0.37599 0.89562 0.1921 0.0
H636 H 0.53707 0.19821 0.51816 0.0
H637 H 0.54364 0.24972 0.52347 0.0
H638 H 0.5409 0.25778 0.46794 0.0
H639 H 0.53188 0.20512 0.46249 0.0
H640 H 0.59256 0.31325 0.51534 0.0
H641 H 0.45673 0.258 0.48238 0.0
H642 H 0.47159 0.23319 0.48686 0.0
H643 H 0.48881 0.25882 0.46846 0.0
C644 C 0.53762 0.2108 0.50706 0.0
C645 C 0.53309 0.19707 0.48991 0.0
C646 C 0.5417 0.24041 0.51012 0.0
C647 C 0.54161 0.25702 0.4961 0.0
C648 C 0.53986 0.24478 0.47896 0.0
H649 H 0.55623 0.43763 0.49795 0.0
H650 H 0.55217 0.38827 0.48839 0.0
C651 C 0.53529 0.21491 0.47587 0.0
C652 C 0.54201 0.28636 0.49958 0.0
H653 H 0.49225 0.31501 0.49288 0.0
C654 C 0.57066 0.31363 0.5104 0.0
C655 C 0.51328 0.28676 0.49315 0.0
C656 C 0.48068 0.25751 0.48221 0.0
C657 C 0.57128 0.34119 0.51505 0.0
C658 C 0.54245 0.34137 0.50874 0.0
C659 C 0.51425 0.31459 0.49763 0.0
C660 C 0.54085 0.36893 0.51401 0.0
C661 C 0.60269 0.36992 0.52672 0.0
C662 C 0.53445 0.37346 0.53139 0.0
C663 C 0.53674 0.40146 0.53687 0.0
C664 C 0.54544 0.42537 0.52502 0.0
C665 C 0.54992 0.41979 0.50739 0.0
C666 C 0.5475 0.39165 0.50191 0.0
H667 H 0.62656 0.36937 0.52734 0.0
H668 H 0.61233 0.39443 0.5221 0.0
H669 H 0.59283 0.36817 0.54015 0.0
H670 H 0.52887 0.35587 0.54084 0.0
H671 H 0.53351 0.40522 0.55057 0.0
H672 H 0.48885 0.57051 0.82306 0.0
H673 H 0.43547 0.57089 0.82642 0.0
H674 H 0.3884 0.49245 0.86188 0.0
H675 H 0.44107 0.49126 0.8581 0.0
H676 H 0.35464 0.52089 0.82033 0.0
H677 H 0.38375 0.56195 0.89057 0.0
H678 H 0.41799 0.56602 0.87661 0.0
H679 H 0.38189 0.52599 0.88458 0.0
C680 C 0.46727 0.55314 0.83161 0.0
C681 C 0.47066 0.53091 0.84027 0.0
C682 C 0.43608 0.55333 0.83354 0.0
C683 C 0.40657 0.53203 0.84469 0.0
C684 C 0.40996 0.50979 0.85333 0.0
H685 H 0.20366 0.5082 0.88288 0.0
H686 H 0.25547 0.50676 0.87777 0.0
C687 C 0.44066 0.509 0.85106 0.0
C688 C 0.37302 0.53311 0.84733 0.0
H689 H 0.32734 0.54641 0.87863 0.0
C690 C 0.34912 0.52668 0.83316 0.0
C691 C 0.36402 0.54042 0.86388 0.0
C692 C 0.38829 0.5493 0.87982 0.0
C693 C 0.31752 0.5265 0.83505 0.0
C694 C 0.30856 0.53403 0.85165 0.0
C695 C 0.33265 0.54052 0.86578 0.0
C696 C 0.27485 0.53492 0.85467 0.0
C697 C 0.29302 0.51669 0.81905 0.0
C698 C 0.26627 0.55151 0.84387 0.0
C699 C 0.23568 0.55229 0.84678 0.0
C700 C 0.21116 0.53664 0.8608 0.0
C701 C 0.22012 0.52037 0.8717 0.0
C702 C 0.2508 0.51972 0.86881 0.0
H703 H 0.29557 0.50132 0.80918 0.0
H704 H 0.2635 0.50217 0.8224 0.0
H705 H 0.30155 0.53972 0.81294 0.0
H706 H 0.28372 0.56467 0.83309 0.0
H707 H 0.23135 0.5653 0.83772 0.0
H708 H 0.92077 0.42938 0.18224 0.0
H709 H 0.86352 0.37407 0.18707 0.0
H710 H 0.89226 0.32914 0.14828 0.0
H711 H 0.95078 0.38455 0.144 0.0
H712 H 0.80555 0.33043 0.16718 0.0
H713 H 0.86646 0.26944 0.1866 0.0
H714 H 0.89436 0.31401 0.18427 0.0
H715 H 0.88032 0.28525 0.16538 0.0
C716 C 0.91496 0.40777 0.17467 0.0
C717 C 0.94036 0.41145 0.16264 0.0
C718 C 0.88214 0.37605 0.1775 0.0
C719 C 0.87359 0.34715 0.16827 0.0
C720 C 0.89856 0.35082 0.15597 0.0
H721 H 0.6894 0.13515 0.16254 0.0
H722 H 0.74268 0.19248 0.15682 0.0
C723 C 0.93186 0.38258 0.15336 0.0
C724 C 0.83808 0.3135 0.17125 0.0
H725 H 0.80144 0.23334 0.18036 0.0
C726 C 0.80473 0.30926 0.17015 0.0
C727 C 0.8368 0.28582 0.17536 0.0
C728 C 0.87143 0.28892 0.17817 0.0
C729 C 0.77028 0.27808 0.17249 0.0
C730 C 0.76902 0.25025 0.17604 0.0
C731 C 0.80234 0.25456 0.1774 0.0
C732 C 0.73367 0.21619 0.17823 0.0
C733 C 0.7355 0.27505 0.17077 0.0
C734 C 0.71018 0.21041 0.19189 0.0
C735 C 0.67932 0.17758 0.195 0.0
C736 C 0.67184 0.15004 0.18466 0.0
C737 C 0.69456 0.15598 0.17065 0.0
C738 C 0.72505 0.18869 0.16743 0.0
H739 H 0.74036 0.29622 0.16399 0.0
H740 H 0.71314 0.25106 0.16351 0.0
H741 H 0.72576 0.27535 0.18399 0.0
H742 H 0.71661 0.23107 0.20063 0.0
H743 H 0.66256 0.17358 0.20606 0.0
H744 H 0.06416 0.49103 0.11172 0.0
H745 H 0.07428 0.4917 0.08002 0.0
H746 H 0.02236 0.53846 0.07319 0.0
H747 H 1.01231 0.53785 0.10445 0.0
H748 H 0.02419 0.4642 0.0496 0.0
H749 H 0.1222 0.60273 0.05042 0.0
H750 H 0.11031 0.58038 0.06999 0.0
H751 H 0.07997 0.58786 0.06093 0.0
C752 C 0.05482 0.50134 0.10343 0.0
C753 C 0.03752 0.51454 0.11079 0.0
C754 C 0.06061 0.50172 0.08525 0.0
C755 C 0.0497 0.51569 0.07402 0.0
C756 C 0.0318 0.52814 0.08141 0.0
H757 H 0.03159 0.54088 0.96447 0.0
H758 H 0.02792 0.53579 0.99615 0.0
C759 C 0.02586 0.52759 0.09941 0.0
C760 C 0.0568 0.51774 0.05467 0.0
H761 H 0.09552 0.57347 0.02246 0.0
C762 C 0.04022 0.48815 0.04373 0.0
C763 C 0.07797 0.54889 0.04675 0.0
C764 C 0.09898 0.58181 0.05762 0.0
C765 C 0.04279 0.48889 0.0253 0.0
C766 C 0.06242 0.51996 0.01738 0.0
C767 C 0.07998 0.54954 0.02835 0.0
C768 C 0.0643 0.52224 -0.0022 0.0
C769 C 0.02342 0.45632 0.01425 0.0
C770 C 0.08616 0.51656 0.9879 0.0
C771 C 0.08856 0.51971 0.96968 0.0
C772 C 0.06887 0.52833 0.9607 0.0
C773 C 0.04681 0.53377 0.97069 0.0
C774 C 0.04482 0.53104 0.98893 0.0
H775 H 1.00638 0.43407 0.02212 0.0
H776 H 1.00533 0.45487 0.00401 0.0
H777 H 0.04432 0.45536 0.00755 0.0
H778 H 0.10174 0.50999 0.99431 0.0
H779 H 0.10568 0.51507 0.96259 0.0
H780 H 0.47811 0.97084 0.43208 0.0
H781 H 0.47449 0.975 0.4005 0.0
H782 H 0.58675 0.0669 0.40341 0.0
H783 H 0.59109 0.06159 0.43461 0.0
H784 H 0.48181 0.01903 0.3792 0.0
H785 H 0.59617 0.01127 0.3685 0.0
H786 H 0.57472 0.00411 0.38924 0.0
H787 H 0.61005 0.04628 0.3832 0.0
C788 C 0.50185 0.99195 0.42591 0.0
C789 C 0.53515 0.01551 0.43556 0.0
C790 C 0.49978 0.99437 0.40792 0.0
C791 C 0.53077 0.02071 0.39948 0.0
C792 C 0.56299 0.04567 0.40949 0.0
H793 H 0.5881 0.07272 0.29264 0.0
H794 H 0.58179 0.07453 0.32429 0.0
C795 C 0.5654 0.04274 0.4273 0.0
C796 C 0.53034 0.02127 0.38014 0.0
H797 H 0.57733 0.02553 0.34435 0.0
C798 C 0.5026 0.02034 0.37157 0.0
C799 C 0.55719 0.02249 0.37013 0.0
C800 C 0.58594 0.02072 0.37822 0.0
C801 C 0.50167 0.02151 0.35331 0.0
C802 C 0.5292 0.02376 0.34348 0.0
C803 C 0.55663 0.02437 0.35201 0.0
C804 C 0.5298 0.02442 0.32422 0.0
C805 C 0.47163 0.02078 0.34467 0.0
C806 C 0.50238 0.99579 0.31371 0.0
C807 C 0.50594 0.99466 0.29563 0.0
C808 C 0.53704 0.02213 0.28776 0.0
C809 C 0.56368 0.05128 0.29827 0.0
C810 C 0.56017 0.05232 0.31635 0.0
H811 H 0.45718 0.02594 0.35426 0.0
H812 H 0.48326 0.03945 0.3346 0.0
H813 H 0.45087 0.99553 0.33805 0.0
H814 H 0.47903 0.97381 0.31955 0.0
H815 H 0.48476 0.97199 0.28786 0.0
H816 H 0.61243 0.53547 0.7817 0.0
H817 H 0.61409 0.54211 0.75009 0.0
H818 H 0.51222 0.5298 0.75211 0.0
H819 H 0.50986 0.5221 0.7835 0.0
H820 H 0.54284 0.48492 0.72692 0.0
H821 H 0.5926 0.61621 0.72219 0.0
H822 H 0.60548 0.60389 0.74052 0.0
H823 H 0.55949 0.59134 0.73844 0.0
C824 C 0.59091 0.53491 0.7754 0.0
C825 C 0.56091 0.52811 0.78482 0.0
C826 C 0.59181 0.53861 0.75743 0.0
C827 C 0.56329 0.53648 0.74891 0.0
C828 C 0.53447 0.5316 0.75854 0.0
H829 H 0.51161 0.52849 0.6381 0.0
H830 H 0.50721 0.52619 0.66996 0.0
C831 C 0.53311 0.52714 0.77637 0.0
C832 C 0.56142 0.53579 0.72972 0.0
H833 H 0.57428 0.58237 0.69583 0.0
C834 C 0.54975 0.50619 0.72009 0.0
C835 C 0.56993 0.56346 0.721 0.0
C836 C 0.58275 0.59569 0.73097 0.0
C837 C 0.54674 0.5037 0.7018 0.0
C838 C 0.55603 0.53161 0.69306 0.0
C839 C 0.56705 0.56101 0.70269 0.0
C840 C 0.55747 0.53168 0.67389 0.0
C841 C 0.53377 0.47136 0.69189 0.0
C842 C 0.58718 0.53555 0.66575 0.0
C843 C 0.59008 0.53733 0.64771 0.0
C844 C 0.56313 0.53505 0.63743 0.0
C845 C 0.53304 0.53072 0.64566 0.0
C846 C 0.53034 0.52921 0.6638 0.0
H847 H 0.52197 0.45043 0.70061 0.0
H848 H 0.51251 0.46411 0.68165 0.0
H849 H 0.55751 0.47505 0.68526 0.0
H850 H 0.60853 0.53783 0.67343 0.0
H851 H 0.614 0.54136 0.64189 0.0
H852 H 0.46346 1.00036 0.54166 0.0
H853 H 0.46987 0.99563 0.57263 0.0
H854 H 0.57677 0.01949 0.56436 0.0
H855 H 0.57104 0.02559 0.53329 0.0
H856 H 0.47636 0.95491 0.58946 0.0
H857 H 0.6021 0.08648 0.60401 0.0
H858 H 0.57608 0.07256 0.5835 0.0
H859 H 0.6081 0.06388 0.58742 0.0
C860 C 0.48846 0.00479 0.54644 0.0
C861 C 0.51694 0.01371 0.53511 0.0
C862 C 0.49202 0.00194 0.56415 0.0
C863 C 0.52404 0.00773 0.57095 0.0
C864 C 0.55221 0.01576 0.55955 0.0
H865 H 0.58449 1.00149 0.67741 0.0
H866 H 0.57739 0.99751 0.64543 0.0
C867 C 0.54884 0.01904 0.54178 0.0
C868 C 0.52752 0.00536 0.58997 0.0
H869 H 0.58061 0.05018 0.62701 0.0
C870 C 0.4992 0.97576 0.59765 0.0
C871 C 0.55721 0.03262 0.60072 0.0
C872 C 0.58742 0.0658 0.59356 0.0
C873 C 0.49975 0.97274 0.61572 0.0
C874 C 0.52941 0.99996 0.62636 0.0
C875 C 0.55799 0.02932 0.61873 0.0
C876 C 0.53109 0.9989 0.64555 0.0
C877 C 0.46874 0.94054 0.62336 0.0
C878 C 0.50719 1.00073 0.65613 0.0
C879 C 0.51139 0.00321 0.67436 0.0
C880 C 0.53933 0.0036 0.68214 0.0
C881 C 0.56253 1.00085 0.67158 0.0
C882 C 0.55856 0.99867 0.65339 0.0
H883 H 0.45113 0.91995 0.61311 0.0
H884 H 0.48005 0.93242 0.63259 0.0
H885 H 0.45102 0.94486 0.63081 0.0
H886 H 0.48614 1.00138 0.6503 0.0
H887 H 0.49355 0.00571 0.68235 0.0
H888 H 0.52253 0.49891 0.8781 0.0
H889 H 0.51164 0.48228 0.90823 0.0
H890 H 0.6282 0.55689 0.92137 0.0
H891 H 0.6394 0.57378 0.89135 0.0
H892 H 0.55261 0.46567 0.93216 0.0
H893 H 0.56415 0.58025 0.95006 0.0
H894 H 0.55326 0.56118 0.92805 0.0
H895 H 0.59995 0.58597 0.93681 0.0
C896 C 0.54584 0.51139 0.88739 0.0
C897 C 0.58167 0.53802 0.88272 0.0
C898 C 0.5396 0.50177 0.90444 0.0
C899 C 0.56919 0.51878 0.91674 0.0
C900 C 0.60526 0.54386 0.91184 0.0
H901 H 0.58601 0.50138 0.02648 0.0
H902 H 0.60102 0.51902 0.99637 0.0
C903 C 0.61151 0.55352 0.89484 0.0
C904 C 0.56208 0.51303 0.93511 0.0
H905 H 0.56011 0.54942 0.97329 0.0
C906 C 0.55426 0.48385 0.94122 0.0
C907 C 0.56379 0.53685 0.94654 0.0
C908 C 0.57045 0.56775 0.94009 0.0
C909 C 0.5489 0.47825 0.95893 0.0
C910 C 0.55167 0.50256 0.97042 0.0
C911 C 0.55884 0.53141 0.96426 0.0
C912 C 0.54446 0.497 0.98877 0.0
C913 C 0.53984 0.44637 0.96534 0.0
C914 C 0.50818 0.48019 0.99411 0.0
C915 C 0.49981 0.47063 0.01108 0.0
C916 C 0.52767 0.47766 0.02264 0.0
C917 C 0.56441 0.49596 0.01755 0.0
C918 C 0.57287 0.50588 0.00056 0.0
H919 H 0.53996 0.43056 0.95472 0.0
H920 H 0.56018 0.45258 0.97583 0.0
H921 H 0.51205 0.43153 0.97104 0.0
H922 H 0.48617 0.47317 0.98494 0.0
H923 H 0.47127 0.45607 0.01489 0.0
H924 H 1.00637 0.44772 0.21775 0.0
H925 H 1.00109 0.45209 0.24926 0.0
H926 H 0.0623 0.55916 0.24817 0.0
H927 H 0.06743 0.55484 0.21633 0.0
H928 H 0.05922 0.48751 0.27355 0.0
H929 H 0.97485 0.53244 0.27852 0.0
H930 H 0.97797 0.51415 0.25838 0.0
H931 H 1.01524 0.55678 0.26569 0.0
C932 C 0.01846 0.47223 0.22414 0.0
C933 C 0.03749 0.50096 0.21449 0.0
C934 C 1.01539 0.47467 0.24221 0.0
C935 C 0.03107 0.50589 0.2512 0.0
C936 C 0.04942 0.53467 0.24156 0.0
H937 H 0.06484 0.5615 0.3636 0.0
H938 H 0.06433 0.56208 0.33165 0.0
C939 C 0.05251 0.53222 0.22336 0.0
C940 C 0.03006 0.50806 0.2707 0.0
H941 H 0.99839 0.52917 0.30508 0.0
C942 C 0.04585 0.4966 0.28039 0.0
C943 C 1.01266 0.51993 0.27975 0.0
C944 C 0.9939 0.53129 0.2701 0.0
C945 C 0.04483 0.49674 0.29872 0.0
C946 C 0.02723 0.50834 0.30772 0.0
C947 C 1.0118 0.52022 0.29815 0.0
C948 C 0.02479 0.50813 0.32708 0.0
C949 C 0.0629 0.48476 0.30842 0.0
C950 C 1.00213 0.47765 0.33514 0.0
C951 C 1.00228 0.47723 0.35339 0.0
C952 C 0.02533 0.5073 0.36397 0.0
C953 C 0.04712 0.53787 0.35584 0.0
C954 C 0.0467 0.53827 0.33759 0.0
H955 H 0.08079 0.48209 0.29993 0.0
H956 H 0.07992 0.50246 0.31982 0.0
H957 H 0.04114 0.45993 0.31342 0.0
H958 H 0.98491 0.45409 0.32729 0.0
H959 H 0.98538 0.45325 0.3592 0.0
loop_
_geom_bond_atom_site_label_1
_geom_bond_atom_site_label_2
_geom_bond_distance
_geom_bond_site_symmetry_2
_ccdc_geom_bond_type
Gd0 C3 2.818 . S
Gd0 O20 2.377 . S
Gd0 O22 2.448 . S
Gd0 O23 2.506 . S
Gd0 O24 2.435 . S
Gd0 O25 2.717 . S
Gd0 O27 2.395 1_455 S
Gd0 O31 2.327 . S
Gd1 C12 2.818 1_455 S
Gd1 O21 2.395 . S
Gd1 O25 2.327 . S
Gd1 O26 2.377 1_455 S
Gd1 O28 2.448 1_455 S
Gd1 O29 2.506 1_455 S
Gd1 O30 2.435 . S
Gd1 O31 2.717 . S
C2 O20 1.240 . S
C2 O21 1.240 . S
C3 Gd0 2.818 . S
C3 C4 1.510 . S
C3 O22 1.249 . S
C3 O23 1.252 . S
C4 C3 1.510 . S
C4 C5 1.404 . S
C4 C6 1.352 . S
C5 C4 1.404 . S
C5 C9 1.389 . S
C5 H32 0.930 . S
C6 C4 1.352 . S
C6 C8 1.374 . S
C6 H33 0.931 . S
C7 C8 1.359 . S
C7 C9 1.364 . S
C8 C6 1.374 . S
C8 C7 1.359 . S
C8 H34 0.931 . S
C9 C5 1.389 . S
C9 C7 1.364 . S
C9 H35 0.931 . S
C10 O24 1.256 . S
C10 O25 1.257 . S
C11 O26 1.240 . S
C11 O27 1.240 . S
C12 Gd1 2.818 1_655 S
C12 C13 1.510 . S
C12 O28 1.249 . S
C12 O29 1.252 . S
C13 C12 1.510 . S
C13 C14 1.404 . S
C13 C15 1.352 . S
C14 C13 1.404 . S
C14 C18 1.389 . S
C14 H36 0.930 . S
C15 C13 1.352 . S
C15 C17 1.374 . S
C15 H37 0.931 . S
C16 C17 1.359 . S
C16 C18 1.364 . S
C17 C15 1.374 . S
C17 C16 1.359 . S
C17 H38 0.931 . S
C18 C14 1.389 . S
C18 C16 1.364 . S
C18 H39 0.931 . S
C19 O30 1.256 . S
C19 O31 1.257 . S
O20 Gd0 2.377 . S
O20 C2 1.240 . S
O21 Gd1 2.395 . S
O21 C2 1.240 . S
O22 Gd0 2.448 . S
O22 C3 1.249 . S
O23 Gd0 2.506 . S
O23 C3 1.252 . S
O24 Gd0 2.435 . S
O24 C10 1.256 . S
O25 Gd0 2.717 . S
O25 Gd1 2.327 . S
O25 C10 1.257 . S
O26 Gd1 2.377 1_655 S
O26 C11 1.240 . S
O27 Gd0 2.395 1_655 S
O27 C11 1.240 . S
O28 Gd1 2.448 1_655 S
O28 C12 1.249 . S
O29 Gd1 2.506 1_655 S
O29 C12 1.252 . S
O30 Gd1 2.435 . S
O30 C19 1.256 . S
O31 Gd0 2.327 . S
O31 Gd1 2.717 . S
O31 C19 1.257 . S
H32 C5 0.930 . S
H33 C6 0.931 . S
H34 C8 0.931 . S
H35 C9 0.931 . S
H36 C14 0.930 . S
H37 C15 0.931 . S
H38 C17 0.931 . S
H39 C18 0.931 . S
Gd40 C43 2.818 . S
Gd40 O60 2.377 . S
Gd40 O62 2.448 . S
Gd40 O63 2.506 . S
Gd40 O64 2.435 . S
Gd40 O65 2.717 1_565 S
Gd40 O67 2.395 1_565 S
Gd40 O71 2.327 1_565 S
Gd41 C52 2.818 . S
Gd41 O61 2.395 1_545 S
Gd41 O65 2.327 . S
Gd41 O66 2.377 . S
Gd41 O68 2.448 . S
Gd41 O69 2.506 . S
Gd41 O70 2.435 . S
Gd41 O71 2.717 . S
C42 O60 1.240 . S
C42 O61 1.240 . S
C43 Gd40 2.818 . S
C43 C44 1.510 . S
C43 O62 1.249 . S
C43 O63 1.252 . S
C44 C43 1.510 . S
C44 C45 1.404 . S
C44 C46 1.352 . S
C45 C44 1.404 . S
C45 C49 1.389 . S
C45 H72 0.930 . S
C46 C44 1.352 . S
C46 C48 1.374 . S
C46 H73 0.931 . S
C47 C48 1.359 . S
C47 C49 1.364 . S
C48 C46 1.374 . S
C48 C47 1.359 . S
C48 H74 0.931 . S
C49 C45 1.389 . S
C49 C47 1.364 . S
C49 H75 0.931 . S
C50 O64 1.256 1_545 S
C50 O65 1.257 . S
C51 O66 1.240 . S
C51 O67 1.240 . S
C52 Gd41 2.818 . S
C52 C53 1.510 . S
C52 O68 1.249 . S
C52 O69 1.252 . S
C53 C52 1.510 . S
C53 C54 1.404 . S
C53 C55 1.352 . S
C54 C53 1.404 . S
C54 C58 1.389 . S
C54 H76 0.930 . S
C55 C53 1.352 . S
C55 C57 1.374 . S
C55 H77 0.931 . S
C56 C57 1.359 . S
C56 C58 1.364 . S
C57 C55 1.374 . S
C57 C56 1.359 . S
C57 H78 0.931 . S
C58 C54 1.389 . S
C58 C56 1.364 . S
C58 H79 0.931 . S
C59 O70 1.256 . S
C59 O71 1.257 . S
O60 Gd40 2.377 . S
O60 C42 1.240 . S
O61 Gd41 2.395 1_565 S
O61 C42 1.240 . S
O62 Gd40 2.448 . S
O62 C43 1.249 . S
O63 Gd40 2.506 . S
O63 C43 1.252 . S
O64 Gd40 2.435 . S
O64 C50 1.256 1_565 S
O65 Gd40 2.717 1_545 S
O65 Gd41 2.327 . S
O65 C50 1.257 . S
O66 Gd41 2.377 . S
O66 C51 1.240 . S
O67 Gd40 2.395 1_545 S
O67 C51 1.240 . S
O68 Gd41 2.448 . S
O68 C52 1.249 . S
O69 Gd41 2.506 . S
O69 C52 1.252 . S
O70 Gd41 2.435 . S
O70 C59 1.256 . S
O71 Gd40 2.327 1_545 S
O71 Gd41 2.717 . S
O71 C59 1.257 . S
H72 C45 0.930 . S
H73 C46 0.931 . S
H74 C48 0.931 . S
H75 C49 0.931 . S
H76 C54 0.930 . S
H77 C55 0.931 . S
H78 C57 0.931 . S
H79 C58 0.931 . S
Gd80 C83 2.818 . S
Gd80 O100 2.377 . S
Gd80 O102 2.448 . S
Gd80 O103 2.506 . S
Gd80 O104 2.435 . S
Gd80 O105 2.717 . S
Gd80 O107 2.395 . S
Gd80 O111 2.327 . S
Gd81 C92 2.818 . S
Gd81 O101 2.395 . S
Gd81 O105 2.327 . S
Gd81 O106 2.377 . S
Gd81 O108 2.448 . S
Gd81 O109 2.506 . S
Gd81 O110 2.435 . S
Gd81 O111 2.717 . S
C82 O100 1.240 . S
C82 O101 1.240 . S
C83 Gd80 2.818 . S
C83 C84 1.510 . S
C83 O102 1.249 . S
C83 O103 1.252 . S
C84 C83 1.510 . S
C84 C85 1.404 . S
C84 C86 1.352 . S
C85 C84 1.404 . S
C85 C89 1.389 . S
C85 H112 0.930 . S
C86 C84 1.352 . S
C86 C88 1.374 . S
C86 H113 0.931 . S
C87 C88 1.359 . S
C87 C89 1.364 . S
C88 C86 1.374 . S
C88 C87 1.359 . S
C88 H114 0.931 . S
C89 C85 1.389 . S
C89 C87 1.364 . S
C89 H115 0.931 . S
C90 O104 1.256 . S
C90 O105 1.257 . S
C91 O106 1.240 . S
C91 O107 1.240 . S
C92 Gd81 2.818 . S
C92 C93 1.510 . S
C92 O108 1.249 . S
C92 O109 1.252 . S
C93 C92 1.510 . S
C93 C94 1.404 . S
C93 C95 1.352 . S
C94 C93 1.404 . S
C94 C98 1.389 . S
C94 H116 0.930 . S
C95 C93 1.352 . S
C95 C97 1.374 . S
C95 H117 0.931 . S
C96 C97 1.359 . S
C96 C98 1.364 . S
C97 C95 1.374 . S
C97 C96 1.359 . S
C97 H118 0.931 . S
C98 C94 1.389 . S
C98 C96 1.364 . S
C98 H119 0.931 . S
C99 O110 1.256 . S
C99 O111 1.257 . S
O100 Gd80 2.377 . S
O100 C82 1.240 . S
O101 Gd81 2.395 . S
O101 C82 1.240 . S
O102 Gd80 2.448 . S
O102 C83 1.249 . S
O103 Gd80 2.506 . S
O103 C83 1.252 . S
O104 Gd80 2.435 . S
O104 C90 1.256 . S
O105 Gd80 2.717 . S
O105 Gd81 2.327 . S
O105 C90 1.257 . S
O106 Gd81 2.377 . S
O106 C91 1.240 . S
O107 Gd80 2.395 . S
O107 C91 1.240 . S
O108 Gd81 2.448 . S
O108 C92 1.249 . S
O109 Gd81 2.506 . S
O109 C92 1.252 . S
O110 Gd81 2.435 . S
O110 C99 1.256 . S
O111 Gd80 2.327 . S
O111 Gd81 2.717 . S
O111 C99 1.257 . S
H112 C85 0.930 . S
H113 C86 0.931 . S
H114 C88 0.931 . S
H115 C89 0.931 . S
H116 C94 0.930 . S
H117 C95 0.931 . S
H118 C97 0.931 . S
H119 C98 0.931 . S
P120 O131 1.490 1_545 S
P120 C134 1.812 1_545 S
P120 C140 1.803 . S
P120 C146 1.819 . S
H121 C135 0.941 . S
H122 C136 0.939 . S
H123 C138 0.940 . S
H124 C139 0.940 . S
H125 C141 0.939 . S
H126 C142 0.942 . S
H127 C144 0.940 . S
H128 C145 0.939 . S
H129 C147 0.941 . S
H130 C151 0.939 . S
O131 P120 1.490 1_565 S
H132 C148 0.939 . S
H133 C150 0.940 . S
C134 P120 1.812 1_565 S
C134 C135 1.389 . S
C134 C139 1.391 . S
C135 H121 0.941 . S
C135 C134 1.389 . S
C135 C136 1.397 . S
C136 H122 0.939 . S
C136 C135 1.397 . S
C136 C137 1.378 . S
C137 C136 1.378 . S
C137 C138 1.378 . S
C138 H123 0.940 . S
C138 C137 1.378 . S
C138 C139 1.396 . S
C139 H124 0.940 . S
C139 C134 1.391 . S
C139 C138 1.396 . S
C140 P120 1.803 . S
C140 C141 1.378 . S
C140 C145 1.400 . S
C141 H125 0.939 . S
C141 C140 1.378 . S
C141 C142 1.361 . S
C142 H126 0.942 . S
C142 C141 1.361 . S
C142 C143 1.369 . S
C143 C142 1.369 . S
C143 C144 1.404 . S
C144 H127 0.940 . S
C144 C143 1.404 . S
C144 C145 1.389 . S
C145 H128 0.939 . S
C145 C140 1.400 . S
C145 C144 1.389 . S
C146 P120 1.819 . S
C146 C147 1.391 1_545 S
C146 C151 1.391 . S
C147 H129 0.941 . S
C147 C146 1.391 1_565 S
C147 C148 1.396 . S
C148 H132 0.939 . S
C148 C147 1.396 . S
C148 C149 1.397 1_565 S
C149 C148 1.397 1_545 S
C149 C150 1.385 . S
C150 H133 0.940 . S
C150 C149 1.385 . S
C150 C151 1.388 . S
C151 H130 0.939 . S
C151 C146 1.391 . S
C151 C150 1.388 . S
P152 O163 1.490 . S
P152 C166 1.812 . S
P152 C172 1.803 . S
P152 C178 1.819 . S
H153 C167 0.941 . S
H154 C168 0.939 . S
H155 C170 0.940 . S
H156 C171 0.940 . S
H157 C173 0.939 . S
H158 C174 0.942 . S
H159 C176 0.940 . S
H160 C177 0.939 . S
H161 C179 0.941 . S
H162 C183 0.939 . S
O163 P152 1.490 . S
H164 C180 0.939 . S
H165 C182 0.940 . S
C166 P152 1.812 . S
C166 C167 1.389 . S
C166 C171 1.391 . S
C167 H153 0.941 . S
C167 C166 1.389 . S
C167 C168 1.397 . S
C168 H154 0.939 . S
C168 C167 1.397 . S
C168 C169 1.378 . S
C169 C168 1.378 . S
C169 C170 1.378 . S
C170 H155 0.940 . S
C170 C169 1.378 . S
C170 C171 1.396 . S
C171 H156 0.940 . S
C171 C166 1.391 . S
C171 C170 1.396 . S
C172 P152 1.803 . S
C172 C173 1.378 . S
C172 C177 1.400 . S
C173 H157 0.939 . S
C173 C172 1.378 . S
C173 C174 1.361 . S
C174 H158 0.942 . S
C174 C173 1.361 . S
C174 C175 1.369 . S
C175 C174 1.369 . S
C175 C176 1.404 . S
C176 H159 0.940 . S
C176 C175 1.404 . S
C176 C177 1.389 . S
C177 H160 0.939 . S
C177 C172 1.400 . S
C177 C176 1.389 . S
C178 P152 1.819 . S
C178 C179 1.391 . S
C178 C183 1.391 . S
C179 H161 0.941 . S
C179 C178 1.391 . S
C179 C180 1.396 . S
C180 H164 0.939 . S
C180 C179 1.396 . S
C180 C181 1.397 . S
C181 C180 1.397 . S
C181 C182 1.385 . S
C182 H165 0.940 . S
C182 C181 1.385 . S
C182 C183 1.388 . S
C183 H162 0.939 . S
C183 C178 1.391 . S
C183 C182 1.388 . S
P184 O195 1.490 . S
P184 C198 1.812 . S
P184 C204 1.803 . S
P184 C210 1.819 . S
H185 C199 0.941 . S
H186 C200 0.939 . S
H187 C202 0.940 . S
H188 C203 0.940 . S
H189 C205 0.939 . S
H190 C206 0.942 1_655 S
H191 C208 0.940 . S
H192 C209 0.939 . S
H193 C211 0.941 . S
H194 C215 0.939 . S
O195 P184 1.490 . S
H196 C212 0.939 . S
H197 C214 0.940 . S
C198 P184 1.812 . S
C198 C199 1.389 . S
C198 C203 1.391 . S
C199 H185 0.941 . S
C199 C198 1.389 . S
C199 C200 1.397 . S
C200 H186 0.939 . S
C200 C199 1.397 . S
C200 C201 1.378 . S
C201 C200 1.378 . S
C201 C202 1.378 . S
C202 H187 0.940 . S
C202 C201 1.378 . S
C202 C203 1.396 . S
C203 H188 0.940 . S
C203 C198 1.391 . S
C203 C202 1.396 . S
C204 P184 1.803 . S
C204 C205 1.378 . S
C204 C209 1.400 . S
C205 H189 0.939 . S
C205 C204 1.378 . S
C205 C206 1.361 . S
C206 H190 0.942 1_455 S
C206 C205 1.361 . S
C206 C207 1.369 1_455 S
C207 C206 1.369 1_655 S
C207 C208 1.404 . S
C208 H191 0.940 . S
C208 C207 1.404 . S
C208 C209 1.389 1_655 S
C209 H192 0.939 . S
C209 C204 1.400 . S
C209 C208 1.389 1_455 S
C210 P184 1.819 . S
C210 C211 1.391 . S
C210 C215 1.391 . S
C211 H193 0.941 . S
C211 C210 1.391 . S
C211 C212 1.396 . S
C212 H196 0.939 . S
C212 C211 1.396 . S
C212 C213 1.397 . S
C213 C212 1.397 . S
C213 C214 1.385 . S
C214 H197 0.940 . S
C214 C213 1.385 . S
C214 C215 1.388 . S
C215 H194 0.939 . S
C215 C210 1.391 . S
C215 C214 1.388 . S
P216 O227 1.490 . S
P216 C230 1.812 . S
P216 C236 1.803 1_455 S
P216 C242 1.819 . S
H217 C231 0.941 . S
H218 C232 0.939 . S
H219 C234 0.940 . S
H220 C235 0.940 . S
H221 C237 0.939 . S
H222 C238 0.942 . S
H223 C240 0.940 . S
H224 C241 0.939 . S
H225 C243 0.941 . S
H226 C247 0.939 . S
O227 P216 1.490 . S
H228 C244 0.939 . S
H229 C246 0.940 . S
C230 P216 1.812 . S
C230 C231 1.389 . S
C230 C235 1.391 . S
C231 H217 0.941 . S
C231 C230 1.389 . S
C231 C232 1.397 . S
C232 H218 0.939 . S
C232 C231 1.397 . S
C232 C233 1.378 . S
C233 C232 1.378 . S
C233 C234 1.378 . S
C234 H219 0.940 . S
C234 C233 1.378 . S
C234 C235 1.396 . S
C235 H220 0.940 . S
C235 C230 1.391 . S
C235 C234 1.396 . S
C236 P216 1.803 1_655 S
C236 C237 1.378 . S
C236 C241 1.400 . S
C237 H221 0.939 . S
C237 C236 1.378 . S
C237 C238 1.361 . S
C238 H222 0.942 . S
C238 C237 1.361 . S
C238 C239 1.369 . S
C239 C238 1.369 . S
C239 C240 1.404 . S
C240 H223 0.940 . S
C240 C239 1.404 . S
C240 C241 1.389 . S
C241 H224 0.939 . S
C241 C236 1.400 . S
C241 C240 1.389 . S
C242 P216 1.819 . S
C242 C243 1.391 . S
C242 C247 1.391 1_455 S
C243 H225 0.941 . S
C243 C242 1.391 . S
C243 C244 1.396 . S
C244 H228 0.939 . S
C244 C243 1.396 . S
C244 C245 1.397 . S
C245 C244 1.397 . S
C245 C246 1.385 1_455 S
C246 H229 0.940 . S
C246 C245 1.385 1_655 S
C246 C247 1.388 . S
C247 H226 0.939 . S
C247 C242 1.391 1_655 S
C247 C246 1.388 . S
P248 O259 1.490 . S
P248 C262 1.812 . S
P248 C268 1.803 1_545 S
P248 C274 1.819 . S
H249 C263 0.941 . S
H250 C264 0.939 . S
H251 C266 0.940 . S
H252 C267 0.940 . S
H253 C269 0.939 . S
H254 C270 0.942 . S
H255 C272 0.940 . S
H256 C273 0.939 . S
H257 C275 0.941 . S
H258 C279 0.939 . S
O259 P248 1.490 . S
H260 C276 0.939 . S
H261 C278 0.940 . S
C262 P248 1.812 . S
C262 C263 1.389 . S
C262 C267 1.391 . S
C263 H249 0.941 . S
C263 C262 1.389 . S
C263 C264 1.397 . S
C264 H250 0.939 . S
C264 C263 1.397 . S
C264 C265 1.378 . S
C265 C264 1.378 . S
C265 C266 1.378 . S
C266 H251 0.940 . S
C266 C265 1.378 . S
C266 C267 1.396 . S
C267 H252 0.940 . S
C267 C262 1.391 . S
C267 C266 1.396 . S
C268 P248 1.803 1_565 S
C268 C269 1.378 . S
C268 C273 1.400 . S
C269 H253 0.939 . S
C269 C268 1.378 . S
C269 C270 1.361 . S
C270 H254 0.942 . S
C270 C269 1.361 . S
C270 C271 1.369 . S
C271 C270 1.369 . S
C271 C272 1.404 . S
C272 H255 0.940 . S
C272 C271 1.404 . S
C272 C273 1.389 . S
C273 H256 0.939 . S
C273 C268 1.400 . S
C273 C272 1.389 . S
C274 P248 1.819 . S
C274 C275 1.391 . S
C274 C279 1.391 1_545 S
C275 H257 0.941 . S
C275 C274 1.391 . S
C275 C276 1.396 . S
C276 H260 0.939 . S
C276 C275 1.396 . S
C276 C277 1.397 . S
C277 C276 1.397 . S
C277 C278 1.385 1_545 S
C278 H261 0.940 . S
C278 C277 1.385 1_565 S
C278 C279 1.388 . S
C279 H258 0.939 . S
C279 C274 1.391 1_565 S
C279 C278 1.388 . S
P280 O291 1.490 . S
P280 C294 1.812 . S
P280 C300 1.803 . S
P280 C306 1.819 . S
H281 C295 0.941 . S
H282 C296 0.939 . S
H283 C298 0.940 . S
H284 C299 0.940 . S
H285 C301 0.939 . S
H286 C302 0.942 . S
H287 C304 0.940 . S
H288 C305 0.939 . S
H289 C307 0.941 . S
H290 C311 0.939 . S
O291 P280 1.490 . S
H292 C308 0.939 . S
H293 C310 0.940 . S
C294 P280 1.812 . S
C294 C295 1.389 . S
C294 C299 1.391 . S
C295 H281 0.941 . S
C295 C294 1.389 . S
C295 C296 1.397 . S
C296 H282 0.939 . S
C296 C295 1.397 . S
C296 C297 1.378 . S
C297 C296 1.378 . S
C297 C298 1.378 . S
C298 H283 0.940 . S
C298 C297 1.378 . S
C298 C299 1.396 . S
C299 H284 0.940 . S
C299 C294 1.391 . S
C299 C298 1.396 . S
C300 P280 1.803 . S
C300 C301 1.378 . S
C300 C305 1.400 . S
C301 H285 0.939 . S
C301 C300 1.378 . S
C301 C302 1.361 . S
C302 H286 0.942 . S
C302 C301 1.361 . S
C302 C303 1.369 . S
C303 C302 1.369 . S
C303 C304 1.404 . S
C304 H287 0.940 . S
C304 C303 1.404 . S
C304 C305 1.389 . S
C305 H288 0.939 . S
C305 C300 1.400 . S
C305 C304 1.389 . S
C306 P280 1.819 . S
C306 C307 1.391 . S
C306 C311 1.391 . S
C307 H289 0.941 . S
C307 C306 1.391 . S
C307 C308 1.396 . S
C308 H292 0.939 . S
C308 C307 1.396 . S
C308 C309 1.397 . S
C309 C308 1.397 . S
C309 C310 1.385 . S
C310 H293 0.940 . S
C310 C309 1.385 . S
C310 C311 1.388 . S
C311 H290 0.939 . S
C311 C306 1.391 . S
C311 C310 1.388 . S
H312 C320 0.929 . S
H313 C322 0.930 . S
H314 C324 0.930 . S
H315 C327 0.929 . S
H316 C330 0.930 . S
H317 C332 0.960 . S
H318 C332 0.960 . S
H319 C332 0.960 . S
C320 H312 0.929 . S
C320 C321 1.377 . S
C320 C322 1.384 . S
C321 C320 1.377 . S
C321 C327 1.390 . S
C322 H313 0.930 . S
C322 C320 1.384 . S
C322 C323 1.372 . S
C323 C322 1.372 . S
C323 C324 1.400 . S
C323 C328 1.490 . S
C324 H314 0.930 . S
C324 C323 1.400 . S
C324 C327 1.386 . S
H325 C341 0.930 . S
H326 C342 0.931 . S
C327 H315 0.929 . S
C327 C321 1.390 . S
C327 C324 1.386 . S
C328 C323 1.490 . S
C328 C330 1.395 . S
C328 C331 1.403 . S
H329 C335 0.930 . S
C330 H316 0.930 . S
C330 C328 1.395 . S
C330 C333 1.403 . S
C331 C328 1.403 . S
C331 C332 1.524 . S
C331 C335 1.400 . S
C332 H317 0.960 . S
C332 H318 0.960 . S
C332 H319 0.960 . S
C332 C331 1.524 . S
C333 C330 1.403 . S
C333 C334 1.392 . S
C333 C337 1.495 . S
C334 C333 1.392 . S
C334 C335 1.385 . S
C334 C336 1.478 . S
C335 H329 0.930 . S
C335 C331 1.400 . S
C335 C334 1.385 . S
C336 C334 1.478 . S
C336 C338 1.381 . S
C336 C342 1.383 . S
C337 C333 1.495 . S
C337 H343 0.959 . S
C337 H344 0.961 . S
C337 H345 0.960 . S
C338 C336 1.381 . S
C338 C339 1.394 . S
C338 H346 0.930 . S
C339 C338 1.394 . S
C339 C340 1.383 . S
C339 H347 0.929 . S
C340 C339 1.383 . S
C340 C341 1.377 . S
C341 H325 0.930 . S
C341 C340 1.377 . S
C341 C342 1.379 . S
C342 H326 0.931 . S
C342 C336 1.383 . S
C342 C341 1.379 . S
H343 C337 0.959 . S
H344 C337 0.961 . S
H345 C337 0.960 . S
H346 C338 0.930 . S
H347 C339 0.929 . S
H348 C356 0.929 . S
H349 C358 0.930 . S
H350 C360 0.930 . S
H351 C363 0.929 . S
H352 C366 0.930 . S
H353 C368 0.960 . S
H354 C368 0.960 . S
H355 C368 0.960 . S
C356 H348 0.929 . S
C356 C357 1.377 . S
C356 C358 1.384 . S
C357 C356 1.377 . S
C357 C363 1.390 . S
C358 H349 0.930 . S
C358 C356 1.384 . S
C358 C359 1.372 . S
C359 C358 1.372 . S
C359 C360 1.400 . S
C359 C364 1.490 . S
C360 H350 0.930 . S
C360 C359 1.400 . S
C360 C363 1.386 . S
H361 C377 0.930 . S
H362 C378 0.931 . S
C363 H351 0.929 . S
C363 C357 1.390 . S
C363 C360 1.386 . S
C364 C359 1.490 . S
C364 C366 1.395 . S
C364 C367 1.403 . S
H365 C371 0.930 . S
C366 H352 0.930 . S
C366 C364 1.395 . S
C366 C369 1.403 . S
C367 C364 1.403 . S
C367 C368 1.524 . S
C367 C371 1.400 . S
C368 H353 0.960 . S
C368 H354 0.960 . S
C368 H355 0.960 . S
C368 C367 1.524 . S
C369 C366 1.403 . S
C369 C370 1.392 . S
C369 C373 1.495 . S
C370 C369 1.392 . S
C370 C371 1.385 . S
C370 C372 1.478 . S
C371 H365 0.930 . S
C371 C367 1.400 . S
C371 C370 1.385 . S
C372 C370 1.478 . S
C372 C374 1.381 . S
C372 C378 1.383 . S
C373 C369 1.495 . S
C373 H379 0.959 . S
C373 H380 0.961 . S
C373 H381 0.960 . S
C374 C372 1.381 . S
C374 C375 1.394 . S
C374 H382 0.930 . S
C375 C374 1.394 . S
C375 C376 1.383 . S
C375 H383 0.929 . S
C376 C375 1.383 . S
C376 C377 1.377 . S
C377 H361 0.930 . S
C377 C376 1.377 . S
C377 C378 1.379 . S
C378 H362 0.931 . S
C378 C372 1.383 . S
C378 C377 1.379 . S
H379 C373 0.959 . S
H380 C373 0.961 . S
H381 C373 0.960 . S
H382 C374 0.930 . S
H383 C375 0.929 . S
H384 C392 0.929 . S
H385 C394 0.930 . S
H386 C396 0.930 . S
H387 C399 0.929 . S
H388 C402 0.930 . S
H389 C404 0.960 . S
H390 C404 0.960 . S
H391 C404 0.960 . S
C392 H384 0.929 . S
C392 C393 1.377 . S
C392 C394 1.384 . S
C393 C392 1.377 . S
C393 C399 1.390 . S
C394 H385 0.930 . S
C394 C392 1.384 . S
C394 C395 1.372 . S
C395 C394 1.372 . S
C395 C396 1.400 . S
C395 C400 1.490 . S
C396 H386 0.930 . S
C396 C395 1.400 . S
C396 C399 1.386 . S
H397 C413 0.930 . S
H398 C414 0.931 . S
C399 H387 0.929 . S
C399 C393 1.390 . S
C399 C396 1.386 . S
C400 C395 1.490 . S
C400 C402 1.395 . S
C400 C403 1.403 . S
H401 C407 0.930 . S
C402 H388 0.930 . S
C402 C400 1.395 . S
C402 C405 1.403 . S
C403 C400 1.403 . S
C403 C404 1.524 . S
C403 C407 1.400 . S
C404 H389 0.960 . S
C404 H390 0.960 . S
C404 H391 0.960 . S
C404 C403 1.524 . S
C405 C402 1.403 . S
C405 C406 1.392 . S
C405 C409 1.495 . S
C406 C405 1.392 . S
C406 C407 1.385 . S
C406 C408 1.478 . S
C407 H401 0.930 . S
C407 C403 1.400 . S
C407 C406 1.385 . S
C408 C406 1.478 . S
C408 C410 1.381 . S
C408 C414 1.383 . S
C409 C405 1.495 . S
C409 H415 0.959 . S
C409 H416 0.961 . S
C409 H417 0.960 . S
C410 C408 1.381 . S
C410 C411 1.394 . S
C410 H418 0.930 . S
C411 C410 1.394 . S
C411 C412 1.383 . S
C411 H419 0.929 . S
C412 C411 1.383 . S
C412 C413 1.377 . S
C413 H397 0.930 . S
C413 C412 1.377 . S
C413 C414 1.379 . S
C414 H398 0.931 . S
C414 C408 1.383 . S
C414 C413 1.379 . S
H415 C409 0.959 . S
H416 C409 0.961 . S
H417 C409 0.960 . S
H418 C410 0.930 . S
H419 C411 0.929 . S
H420 C428 0.929 . S
H421 C430 0.930 . S
H422 C432 0.930 . S
H423 C435 0.929 . S
H424 C438 0.930 . S
H425 C440 0.960 . S
H426 C440 0.960 . S
H427 C440 0.960 . S
C428 H420 0.929 . S
C428 C429 1.377 . S
C428 C430 1.384 . S
C429 C428 1.377 . S
C429 C435 1.390 . S
C430 H421 0.930 . S
C430 C428 1.384 . S
C430 C431 1.372 . S
C431 C430 1.372 . S
C431 C432 1.400 . S
C431 C436 1.490 . S
C432 H422 0.930 . S
C432 C431 1.400 . S
C432 C435 1.386 . S
H433 C449 0.930 . S
H434 C450 0.931 . S
C435 H423 0.929 . S
C435 C429 1.390 . S
C435 C432 1.386 . S
C436 C431 1.490 . S
C436 C438 1.395 . S
C436 C439 1.403 . S
H437 C443 0.930 . S
C438 H424 0.930 . S
C438 C436 1.395 . S
C438 C441 1.403 . S
C439 C436 1.403 . S
C439 C440 1.524 . S
C439 C443 1.400 . S
C440 H425 0.960 . S
C440 H426 0.960 . S
C440 H427 0.960 . S
C440 C439 1.524 . S
C441 C438 1.403 . S
C441 C442 1.392 . S
C441 C445 1.495 . S
C442 C441 1.392 . S
C442 C443 1.385 . S
C442 C444 1.478 . S
C443 H437 0.930 . S
C443 C439 1.400 . S
C443 C442 1.385 . S
C444 C442 1.478 . S
C444 C446 1.381 . S
C444 C450 1.383 . S
C445 C441 1.495 . S
C445 H451 0.959 . S
C445 H452 0.961 . S
C445 H453 0.960 . S
C446 C444 1.381 . S
C446 C447 1.394 . S
C446 H454 0.930 . S
C447 C446 1.394 . S
C447 C448 1.383 . S
C447 H455 0.929 . S
C448 C447 1.383 . S
C448 C449 1.377 . S
C449 H433 0.930 . S
C449 C448 1.377 . S
C449 C450 1.379 . S
C450 H434 0.931 . S
C450 C444 1.383 . S
C450 C449 1.379 . S
H451 C445 0.959 . S
H452 C445 0.961 . S
H453 C445 0.960 . S
H454 C446 0.930 . S
H455 C447 0.929 . S
H456 C464 0.929 . S
H457 C466 0.930 . S
H458 C468 0.930 . S
H459 C471 0.929 . S
H460 C474 0.930 . S
H461 C476 0.960 . S
H462 C476 0.960 . S
H463 C476 0.960 . S
C464 H456 0.929 . S
C464 C465 1.377 . S
C464 C466 1.384 . S
C465 C464 1.377 . S
C465 C471 1.390 . S
C466 H457 0.930 . S
C466 C464 1.384 . S
C466 C467 1.372 . S
C467 C466 1.372 . S
C467 C468 1.400 . S
C467 C472 1.490 . S
C468 H458 0.930 . S
C468 C467 1.400 . S
C468 C471 1.386 . S
H469 C485 0.930 . S
H470 C486 0.931 . S
C471 H459 0.929 . S
C471 C465 1.390 . S
C471 C468 1.386 . S
C472 C467 1.490 . S
C472 C474 1.395 . S
C472 C475 1.403 . S
H473 C479 0.930 . S
C474 H460 0.930 . S
C474 C472 1.395 . S
C474 C477 1.403 . S
C475 C472 1.403 . S
C475 C476 1.524 . S
C475 C479 1.400 . S
C476 H461 0.960 . S
C476 H462 0.960 . S
C476 H463 0.960 . S
C476 C475 1.524 . S
C477 C474 1.403 . S
C477 C478 1.392 . S
C477 C481 1.495 . S
C478 C477 1.392 . S
C478 C479 1.385 . S
C478 C480 1.478 . S
C479 H473 0.930 . S
C479 C475 1.400 . S
C479 C478 1.385 . S
C480 C478 1.478 . S
C480 C482 1.381 . S
C480 C486 1.383 . S
C481 C477 1.495 . S
C481 H487 0.959 . S
C481 H488 0.961 . S
C481 H489 0.960 . S
C482 C480 1.381 . S
C482 C483 1.394 . S
C482 H490 0.930 . S
C483 C482 1.394 . S
C483 C484 1.383 . S
C483 H491 0.929 . S
C484 C483 1.383 . S
C484 C485 1.377 . S
C485 H469 0.930 . S
C485 C484 1.377 . S
C485 C486 1.379 . S
C486 H470 0.931 . S
C486 C480 1.383 . S
C486 C485 1.379 . S
H487 C481 0.959 . S
H488 C481 0.961 . S
H489 C481 0.960 . S
H490 C482 0.930 . S
H491 C483 0.929 . S
H492 C500 0.929 . S
H493 C502 0.930 . S
H494 C504 0.930 . S
H495 C507 0.929 . S
H496 C510 0.930 . S
H497 C512 0.960 . S
H498 C512 0.960 . S
H499 C512 0.960 . S
C500 H492 0.929 . S
C500 C501 1.377 . S
C500 C502 1.384 . S
C501 C500 1.377 . S
C501 C507 1.390 . S
C502 H493 0.930 . S
C502 C500 1.384 . S
C502 C503 1.372 . S
C503 C502 1.372 . S
C503 C504 1.400 . S
C503 C508 1.490 . S
C504 H494 0.930 . S
C504 C503 1.400 . S
C504 C507 1.386 . S
H505 C521 0.930 . S
H506 C522 0.931 . S
C507 H495 0.929 . S
C507 C501 1.390 . S
C507 C504 1.386 . S
C508 C503 1.490 . S
C508 C510 1.395 . S
C508 C511 1.403 . S
H509 C515 0.930 . S
C510 H496 0.930 . S
C510 C508 1.395 . S
C510 C513 1.403 . S
C511 C508 1.403 . S
C511 C512 1.524 . S
C511 C515 1.400 . S
C512 H497 0.960 . S
C512 H498 0.960 . S
C512 H499 0.960 . S
C512 C511 1.524 . S
C513 C510 1.403 . S
C513 C514 1.392 . S
C513 C517 1.495 . S
C514 C513 1.392 . S
C514 C515 1.385 . S
C514 C516 1.478 . S
C515 H509 0.930 . S
C515 C511 1.400 . S
C515 C514 1.385 . S
C516 C514 1.478 . S
C516 C518 1.381 . S
C516 C522 1.383 . S
C517 C513 1.495 . S
C517 H523 0.959 . S
C517 H524 0.961 . S
C517 H525 0.960 . S
C518 C516 1.381 . S
C518 C519 1.394 . S
C518 H526 0.930 . S
C519 C518 1.394 . S
C519 C520 1.383 . S
C519 H527 0.929 . S
C520 C519 1.383 . S
C520 C521 1.377 . S
C521 H505 0.930 . S
C521 C520 1.377 . S
C521 C522 1.379 . S
C522 H506 0.931 . S
C522 C516 1.383 . S
C522 C521 1.379 . S
H523 C517 0.959 . S
H524 C517 0.961 . S
H525 C517 0.960 . S
H526 C518 0.930 . S
H527 C519 0.929 . S
H528 C536 0.929 . S
H529 C538 0.930 . S
H530 C540 0.930 . S
H531 C543 0.929 . S
H532 C546 0.930 . S
H533 C548 0.960 . S
H534 C548 0.960 . S
H535 C548 0.960 . S
C536 H528 0.929 . S
C536 C537 1.377 . S
C536 C538 1.384 . S
C537 C536 1.377 . S
C537 C543 1.390 . S
C538 H529 0.930 . S
C538 C536 1.384 . S
C538 C539 1.372 . S
C539 C538 1.372 . S
C539 C540 1.400 . S
C539 C544 1.490 . S
C540 H530 0.930 . S
C540 C539 1.400 . S
C540 C543 1.386 . S
H541 C557 0.930 . S
H542 C558 0.931 . S
C543 H531 0.929 . S
C543 C537 1.390 . S
C543 C540 1.386 . S
C544 C539 1.490 . S
C544 C546 1.395 . S
C544 C547 1.403 . S
H545 C551 0.930 . S
C546 H532 0.930 . S
C546 C544 1.395 . S
C546 C549 1.403 . S
C547 C544 1.403 . S
C547 C548 1.524 . S
C547 C551 1.400 . S
C548 H533 0.960 . S
C548 H534 0.960 . S
C548 H535 0.960 . S
C548 C547 1.524 . S
C549 C546 1.403 . S
C549 C550 1.392 . S
C549 C553 1.495 . S
C550 C549 1.392 . S
C550 C551 1.385 . S
C550 C552 1.478 . S
C551 H545 0.930 . S
C551 C547 1.400 . S
C551 C550 1.385 . S
C552 C550 1.478 . S
C552 C554 1.381 . S
C552 C558 1.383 . S
C553 C549 1.495 . S
C553 H559 0.959 . S
C553 H560 0.961 . S
C553 H561 0.960 . S
C554 C552 1.381 . S
C554 C555 1.394 . S
C554 H562 0.930 . S
C555 C554 1.394 . S
C555 C556 1.383 . S
C555 H563 0.929 . S
C556 C555 1.383 . S
C556 C557 1.377 . S
C557 H541 0.930 . S
C557 C556 1.377 . S
C557 C558 1.379 . S
C558 H542 0.931 . S
C558 C552 1.383 . S
C558 C557 1.379 . S
H559 C553 0.959 . S
H560 C553 0.961 . S
H561 C553 0.960 . S
H562 C554 0.930 . S
H563 C555 0.929 . S
H564 C572 0.929 . S
H565 C574 0.930 . S
H566 C576 0.930 . S
H567 C579 0.929 . S
H568 C582 0.930 . S
H569 C584 0.960 . S
H570 C584 0.960 . S
H571 C584 0.960 . S
C572 H564 0.929 . S
C572 C573 1.377 . S
C572 C574 1.384 . S
C573 C572 1.377 . S
C573 C579 1.390 . S
C574 H565 0.930 . S
C574 C572 1.384 . S
C574 C575 1.372 . S
C575 C574 1.372 . S
C575 C576 1.400 . S
C575 C580 1.490 . S
C576 H566 0.930 . S
C576 C575 1.400 . S
C576 C579 1.386 . S
H577 C593 0.930 . S
H578 C594 0.931 . S
C579 H567 0.929 . S
C579 C573 1.390 . S
C579 C576 1.386 . S
C580 C575 1.490 . S
C580 C582 1.395 . S
C580 C583 1.403 . S
H581 C587 0.930 . S
C582 H568 0.930 . S
C582 C580 1.395 . S
C582 C585 1.403 . S
C583 C580 1.403 . S
C583 C584 1.524 . S
C583 C587 1.400 . S
C584 H569 0.960 . S
C584 H570 0.960 . S
C584 H571 0.960 . S
C584 C583 1.524 . S
C585 C582 1.403 . S
C585 C586 1.392 . S
C585 C589 1.495 . S
C586 C585 1.392 . S
C586 C587 1.385 . S
C586 C588 1.478 . S
C587 H581 0.930 . S
C587 C583 1.400 . S
C587 C586 1.385 . S
C588 C586 1.478 . S
C588 C590 1.381 . S
C588 C594 1.383 . S
C589 C585 1.495 . S
C589 H595 0.959 . S
C589 H596 0.961 . S
C589 H597 0.960 . S
C590 C588 1.381 . S
C590 C591 1.394 . S
C590 H598 0.930 . S
C591 C590 1.394 . S
C591 C592 1.383 . S
C591 H599 0.929 . S
C592 C591 1.383 . S
C592 C593 1.377 . S
C593 H577 0.930 . S
C593 C592 1.377 . S
C593 C594 1.379 . S
C594 H578 0.931 . S
C594 C588 1.383 . S
C594 C593 1.379 . S
H595 C589 0.959 . S
H596 C589 0.961 . S
H597 C589 0.960 . S
H598 C590 0.930 . S
H599 C591 0.929 . S
H600 C608 0.929 . S
H601 C610 0.930 . S
H602 C612 0.930 . S
H603 C615 0.929 . S
H604 C618 0.930 . S
H605 C620 0.960 . S
H606 C620 0.960 . S
H607 C620 0.960 . S
C608 H600 0.929 . S
C608 C609 1.377 . S
C608 C610 1.384 . S
C609 C608 1.377 . S
C609 C615 1.390 . S
C610 H601 0.930 . S
C610 C608 1.384 . S
C610 C611 1.372 . S
C611 C610 1.372 . S
C611 C612 1.400 . S
C611 C616 1.490 . S
C612 H602 0.930 . S
C612 C611 1.400 . S
C612 C615 1.386 . S
H613 C629 0.930 . S
H614 C630 0.931 . S
C615 H603 0.929 . S
C615 C609 1.390 . S
C615 C612 1.386 . S
C616 C611 1.490 . S
C616 C618 1.395 . S
C616 C619 1.403 . S
H617 C623 0.930 . S
C618 H604 0.930 . S
C618 C616 1.395 . S
C618 C621 1.403 . S
C619 C616 1.403 . S
C619 C620 1.524 . S
C619 C623 1.400 . S
C620 H605 0.960 . S
C620 H606 0.960 . S
C620 H607 0.960 . S
C620 C619 1.524 . S
C621 C618 1.403 . S
C621 C622 1.392 . S
C621 C625 1.495 . S
C622 C621 1.392 . S
C622 C623 1.385 . S
C622 C624 1.478 . S
C623 H617 0.930 . S
C623 C619 1.400 . S
C623 C622 1.385 . S
C624 C622 1.478 . S
C624 C626 1.381 . S
C624 C630 1.383 . S
C625 C621 1.495 . S
C625 H631 0.959 . S
C625 H632 0.961 . S
C625 H633 0.960 . S
C626 C624 1.381 . S
C626 C627 1.394 . S
C626 H634 0.930 . S
C627 C626 1.394 . S
C627 C628 1.383 . S
C627 H635 0.929 . S
C628 C627 1.383 . S
C628 C629 1.377 . S
C629 H613 0.930 . S
C629 C628 1.377 . S
C629 C630 1.379 . S
C630 H614 0.931 . S
C630 C624 1.383 . S
C630 C629 1.379 . S
H631 C625 0.959 . S
H632 C625 0.961 . S
H633 C625 0.960 . S
H634 C626 0.930 . S
H635 C627 0.929 . S
H636 C644 0.929 . S
H637 C646 0.930 . S
H638 C648 0.930 . S
H639 C651 0.929 . S
H640 C654 0.930 . S
H641 C656 0.960 . S
H642 C656 0.960 . S
H643 C656 0.960 . S
C644 H636 0.929 . S
C644 C645 1.377 . S
C644 C646 1.384 . S
C645 C644 1.377 . S
C645 C651 1.390 . S
C646 H637 0.930 . S
C646 C644 1.384 . S
C646 C647 1.372 . S
C647 C646 1.372 . S
C647 C648 1.400 . S
C647 C652 1.490 . S
C648 H638 0.930 . S
C648 C647 1.400 . S
C648 C651 1.386 . S
H649 C665 0.930 . S
H650 C666 0.931 . S
C651 H639 0.929 . S
C651 C645 1.390 . S
C651 C648 1.386 . S
C652 C647 1.490 . S
C652 C654 1.395 . S
C652 C655 1.403 . S
H653 C659 0.930 . S
C654 H640 0.930 . S
C654 C652 1.395 . S
C654 C657 1.403 . S
C655 C652 1.403 . S
C655 C656 1.524 . S
C655 C659 1.400 . S
C656 H641 0.960 . S
C656 H642 0.960 . S
C656 H643 0.960 . S
C656 C655 1.524 . S
C657 C654 1.403 . S
C657 C658 1.392 . S
C657 C661 1.495 . S
C658 C657 1.392 . S
C658 C659 1.385 . S
C658 C660 1.478 . S
C659 H653 0.930 . S
C659 C655 1.400 . S
C659 C658 1.385 . S
C660 C658 1.478 . S
C660 C662 1.381 . S
C660 C666 1.383 . S
C661 C657 1.495 . S
C661 H667 0.959 . S
C661 H668 0.961 . S
C661 H669 0.960 . S
C662 C660 1.381 . S
C662 C663 1.394 . S
C662 H670 0.930 . S
C663 C662 1.394 . S
C663 C664 1.383 . S
C663 H671 0.929 . S
C664 C663 1.383 . S
C664 C665 1.377 . S
C665 H649 0.930 . S
C665 C664 1.377 . S
C665 C666 1.379 . S
C666 H650 0.931 . S
C666 C660 1.383 . S
C666 C665 1.379 . S
H667 C661 0.959 . S
H668 C661 0.961 . S
H669 C661 0.960 . S
H670 C662 0.930 . S
H671 C663 0.929 . S
H672 C680 0.929 . S
H673 C682 0.930 . S
H674 C684 0.930 . S
H675 C687 0.929 . S
H676 C690 0.930 . S
H677 C692 0.960 . S
H678 C692 0.960 . S
H679 C692 0.960 . S
C680 H672 0.929 . S
C680 C681 1.377 . S
C680 C682 1.384 . S
C681 C680 1.377 . S
C681 C687 1.390 . S
C682 H673 0.930 . S
C682 C680 1.384 . S
C682 C683 1.372 . S
C683 C682 1.372 . S
C683 C684 1.400 . S
C683 C688 1.490 . S
C684 H674 0.930 . S
C684 C683 1.400 . S
C684 C687 1.386 . S
H685 C701 0.930 . S
H686 C702 0.931 . S
C687 H675 0.929 . S
C687 C681 1.390 . S
C687 C684 1.386 . S
C688 C683 1.490 . S
C688 C690 1.395 . S
C688 C691 1.403 . S
H689 C695 0.930 . S
C690 H676 0.930 . S
C690 C688 1.395 . S
C690 C693 1.403 . S
C691 C688 1.403 . S
C691 C692 1.524 . S
C691 C695 1.400 . S
C692 H677 0.960 . S
C692 H678 0.960 . S
C692 H679 0.960 . S
C692 C691 1.524 . S
C693 C690 1.403 . S
C693 C694 1.392 . S
C693 C697 1.495 . S
C694 C693 1.392 . S
C694 C695 1.385 . S
C694 C696 1.478 . S
C695 H689 0.930 . S
C695 C691 1.400 . S
C695 C694 1.385 . S
C696 C694 1.478 . S
C696 C698 1.381 . S
C696 C702 1.383 . S
C697 C693 1.495 . S
C697 H703 0.959 . S
C697 H704 0.961 . S
C697 H705 0.960 . S
C698 C696 1.381 . S
C698 C699 1.394 . S
C698 H706 0.930 . S
C699 C698 1.394 . S
C699 C700 1.383 . S
C699 H707 0.929 . S
C700 C699 1.383 . S
C700 C701 1.377 . S
C701 H685 0.930 . S
C701 C700 1.377 . S
C701 C702 1.379 . S
C702 H686 0.931 . S
C702 C696 1.383 . S
C702 C701 1.379 . S
H703 C697 0.959 . S
H704 C697 0.961 . S
H705 C697 0.960 . S
H706 C698 0.930 . S
H707 C699 0.929 . S
H708 C716 0.929 . S
H709 C718 0.930 . S
H710 C720 0.930 . S
H711 C723 0.929 . S
H712 C726 0.930 . S
H713 C728 0.960 . S
H714 C728 0.960 . S
H715 C728 0.960 . S
C716 H708 0.929 . S
C716 C717 1.377 . S
C716 C718 1.384 . S
C717 C716 1.377 . S
C717 C723 1.390 . S
C718 H709 0.930 . S
C718 C716 1.384 . S
C718 C719 1.372 . S
C719 C718 1.372 . S
C719 C720 1.400 . S
C719 C724 1.490 . S
C720 H710 0.930 . S
C720 C719 1.400 . S
C720 C723 1.386 . S
H721 C737 0.930 . S
H722 C738 0.931 . S
C723 H711 0.929 . S
C723 C717 1.390 . S
C723 C720 1.386 . S
C724 C719 1.490 . S
C724 C726 1.395 . S
C724 C727 1.403 . S
H725 C731 0.930 . S
C726 H712 0.930 . S
C726 C724 1.395 . S
C726 C729 1.403 . S
C727 C724 1.403 . S
C727 C728 1.524 . S
C727 C731 1.400 . S
C728 H713 0.960 . S
C728 H714 0.960 . S
C728 H715 0.960 . S
C728 C727 1.524 . S
C729 C726 1.403 . S
C729 C730 1.392 . S
C729 C733 1.495 . S
C730 C729 1.392 . S
C730 C731 1.385 . S
C730 C732 1.478 . S
C731 H725 0.930 . S
C731 C727 1.400 . S
C731 C730 1.385 . S
C732 C730 1.478 . S
C732 C734 1.381 . S
C732 C738 1.383 . S
C733 C729 1.495 . S
C733 H739 0.959 . S
C733 H740 0.961 . S
C733 H741 0.960 . S
C734 C732 1.381 . S
C734 C735 1.394 . S
C734 H742 0.930 . S
C735 C734 1.394 . S
C735 C736 1.383 . S
C735 H743 0.929 . S
C736 C735 1.383 . S
C736 C737 1.377 . S
C737 H721 0.930 . S
C737 C736 1.377 . S
C737 C738 1.379 . S
C738 H722 0.931 . S
C738 C732 1.383 . S
C738 C737 1.379 . S
H739 C733 0.959 . S
H740 C733 0.961 . S
H741 C733 0.960 . S
H742 C734 0.930 . S
H743 C735 0.929 . S
H744 C752 0.929 . S
H745 C754 0.930 . S
H746 C756 0.930 . S
H747 C759 0.929 . S
H748 C762 0.930 . S
H749 C764 0.960 . S
H750 C764 0.960 . S
H751 C764 0.960 . S
C752 H744 0.929 . S
C752 C753 1.377 . S
C752 C754 1.384 . S
C753 C752 1.377 . S
C753 C759 1.390 . S
C754 H745 0.930 . S
C754 C752 1.384 . S
C754 C755 1.372 . S
C755 C754 1.372 . S
C755 C756 1.400 . S
C755 C760 1.490 . S
C756 H746 0.930 . S
C756 C755 1.400 . S
C756 C759 1.386 . S
H757 C773 0.930 . S
H758 C774 0.931 1_554 S
C759 H747 0.929 . S
C759 C753 1.390 . S
C759 C756 1.386 . S
C760 C755 1.490 . S
C760 C762 1.395 . S
C760 C763 1.403 . S
H761 C767 0.930 . S
C762 H748 0.930 . S
C762 C760 1.395 . S
C762 C765 1.403 . S
C763 C760 1.403 . S
C763 C764 1.524 . S
C763 C767 1.400 . S
C764 H749 0.960 . S
C764 H750 0.960 . S
C764 H751 0.960 . S
C764 C763 1.524 . S
C765 C762 1.403 . S
C765 C766 1.392 . S
C765 C769 1.495 . S
C766 C765 1.392 . S
C766 C767 1.385 . S
C766 C768 1.478 . S
C767 H761 0.930 . S
C767 C763 1.400 . S
C767 C766 1.385 . S
C768 C766 1.478 . S
C768 C770 1.381 1_554 S
C768 C774 1.383 1_554 S
C769 C765 1.495 . S
C769 H775 0.959 1_455 S
C769 H776 0.961 1_455 S
C769 H777 0.960 . S
C770 C768 1.381 1_556 S
C770 C771 1.394 . S
C770 H778 0.951 . S
C771 C770 1.394 . S
C771 C772 1.383 . S
C771 H779 0.929 . S
C772 C771 1.383 . S
C772 C773 1.377 . S
C773 H757 0.930 . S
C773 C772 1.377 . S
C773 C774 1.379 . S
C774 H758 0.931 1_556 S
C774 C768 1.383 1_556 S
C774 C773 1.379 . S
H775 C769 0.959 1_655 S
H776 C769 0.961 1_655 S
H777 C769 0.960 . S
H778 C770 0.951 . S
H779 C771 0.929 . S
H780 C788 0.929 . S
H781 C790 0.930 . S
H782 C792 0.930 . S
H783 C795 0.929 . S
H784 C798 0.930 . S
H785 C800 0.960 . S
H786 C800 0.944 1_565 S
H787 C800 0.960 . S
C788 H780 0.929 . S
C788 C789 1.377 1_565 S
C788 C790 1.384 . S
C789 C788 1.377 1_545 S
C789 C795 1.390 . S
C790 H781 0.930 . S
C790 C788 1.384 . S
C790 C791 1.372 1_565 S
C791 C790 1.372 1_545 S
C791 C792 1.400 . S
C791 C796 1.490 . S
C792 H782 0.930 . S
C792 C791 1.400 . S
C792 C795 1.386 . S
H793 C809 0.930 . S
H794 C810 0.931 . S
C795 H783 0.929 . S
C795 C789 1.390 . S
C795 C792 1.386 . S
C796 C791 1.490 . S
C796 C798 1.395 . S
C796 C799 1.403 . S
H797 C803 0.930 . S
C798 H784 0.930 . S
C798 C796 1.395 . S
C798 C801 1.403 . S
C799 C796 1.403 . S
C799 C800 1.524 . S
C799 C803 1.400 . S
C800 H785 0.960 . S
C800 H786 0.944 1_545 S
C800 H787 0.960 . S
C800 C799 1.524 . S
C801 C798 1.403 . S
C801 C802 1.392 . S
C801 C805 1.495 . S
C802 C801 1.392 . S
C802 C803 1.385 . S
C802 C804 1.478 . S
C803 H797 0.930 . S
C803 C799 1.400 . S
C803 C802 1.385 . S
C804 C802 1.478 . S
C804 C806 1.381 1_545 S
C804 C810 1.383 . S
C805 C801 1.495 . S
C805 H811 0.959 . S
C805 H812 0.961 . S
C805 H813 0.960 1_545 S
C806 C804 1.381 1_565 S
C806 C807 1.394 . S
C806 H814 0.930 . S
C807 C806 1.394 . S
C807 C808 1.383 1_565 S
C807 H815 0.929 . S
C808 C807 1.383 1_545 S
C808 C809 1.377 . S
C809 H793 0.930 . S
C809 C808 1.377 . S
C809 C810 1.379 . S
C810 H794 0.931 . S
C810 C804 1.383 . S
C810 C809 1.379 . S
H811 C805 0.959 . S
H812 C805 0.961 . S
H813 C805 0.960 1_565 S
H814 C806 0.930 . S
H815 C807 0.929 . S
H816 C824 0.929 . S
H817 C826 0.930 . S
H818 C828 0.930 . S
H819 C831 0.929 . S
H820 C834 0.930 . S
H821 C836 0.960 . S
H822 C836 0.960 . S
H823 C836 0.960 . S
C824 H816 0.929 . S
C824 C825 1.377 . S
C824 C826 1.384 . S
C825 C824 1.377 . S
C825 C831 1.390 . S
C826 H817 0.930 . S
C826 C824 1.384 . S
C826 C827 1.372 . S
C827 C826 1.372 . S
C827 C828 1.400 . S
C827 C832 1.490 . S
C828 H818 0.930 . S
C828 C827 1.400 . S
C828 C831 1.386 . S
H829 C845 0.930 . S
H830 C846 0.931 . S
C831 H819 0.929 . S
C831 C825 1.390 . S
C831 C828 1.386 . S
C832 C827 1.490 . S
C832 C834 1.395 . S
C832 C835 1.403 . S
H833 C839 0.930 . S
C834 H820 0.930 . S
C834 C832 1.395 . S
C834 C837 1.403 . S
C835 C832 1.403 . S
C835 C836 1.524 . S
C835 C839 1.400 . S
C836 H821 0.960 . S
C836 H822 0.960 . S
C836 H823 0.960 . S
C836 C835 1.524 . S
C837 C834 1.403 . S
C837 C838 1.392 . S
C837 C841 1.495 . S
C838 C837 1.392 . S
C838 C839 1.385 . S
C838 C840 1.478 . S
C839 H833 0.930 . S
C839 C835 1.400 . S
C839 C838 1.385 . S
C840 C838 1.478 . S
C840 C842 1.381 . S
C840 C846 1.383 . S
C841 C837 1.495 . S
C841 H847 0.959 . S
C841 H848 0.961 . S
C841 H849 0.960 . S
C842 C840 1.381 . S
C842 C843 1.394 . S
C842 H850 0.930 . S
C843 C842 1.394 . S
C843 C844 1.383 . S
C843 H851 0.929 . S
C844 C843 1.383 . S
C844 C845 1.377 . S
C845 H829 0.930 . S
C845 C844 1.377 . S
C845 C846 1.379 . S
C846 H830 0.931 . S
C846 C840 1.383 . S
C846 C845 1.379 . S
H847 C841 0.959 . S
H848 C841 0.961 . S
H849 C841 0.960 . S
H850 C842 0.930 . S
H851 C843 0.929 . S
H852 C860 0.929 . S
H853 C862 0.919 . S
H854 C864 0.930 . S
H855 C867 0.929 . S
H856 C870 0.930 . S
H857 C872 0.960 . S
H858 C872 0.960 . S
H859 C872 0.960 . S
C860 H852 0.929 . S
C860 C861 1.377 . S
C860 C862 1.384 . S
C861 C860 1.377 . S
C861 C867 1.390 . S
C862 H853 0.919 . S
C862 C860 1.384 . S
C862 C863 1.372 . S
C863 C862 1.372 . S
C863 C864 1.400 . S
C863 C868 1.490 . S
C864 H854 0.930 . S
C864 C863 1.400 . S
C864 C867 1.386 . S
H865 C881 0.954 1_545 S
H866 C882 0.931 . S
C867 H855 0.929 . S
C867 C861 1.390 . S
C867 C864 1.386 . S
C868 C863 1.490 . S
C868 C870 1.395 1_545 S
C868 C871 1.403 . S
H869 C875 0.930 . S
C870 H856 0.930 . S
C870 C868 1.395 1_565 S
C870 C873 1.403 . S
C871 C868 1.403 . S
C871 C872 1.524 . S
C871 C875 1.400 . S
C872 H857 0.960 . S
C872 H858 0.960 . S
C872 H859 0.960 . S
C872 C871 1.524 . S
C873 C870 1.403 . S
C873 C874 1.392 . S
C873 C877 1.495 . S
C874 C873 1.392 . S
C874 C875 1.385 1_565 S
C874 C876 1.478 . S
C875 H869 0.930 . S
C875 C871 1.400 . S
C875 C874 1.385 1_545 S
C876 C874 1.478 . S
C876 C878 1.381 . S
C876 C882 1.383 . S
C877 C873 1.495 . S
C877 H883 0.959 . S
C877 H884 0.961 . S
C877 H885 0.960 . S
C878 C876 1.381 . S
C878 C879 1.394 . S
C878 H886 0.930 . S
C879 C878 1.394 . S
C879 C880 1.383 . S
C879 H887 0.929 . S
C880 C879 1.383 . S
C880 C881 1.362 . S
C881 H865 0.954 1_565 S
C881 C880 1.362 . S
C881 C882 1.378 . S
C882 H866 0.931 . S
C882 C876 1.383 . S
C882 C881 1.378 . S
H883 C877 0.959 . S
H884 C877 0.961 . S
H885 C877 0.960 . S
H886 C878 0.930 . S
H887 C879 0.929 . S
H888 C896 0.929 . S
H889 C898 0.930 . S
H890 C900 0.930 . S
H891 C903 0.929 . S
H892 C906 0.930 . S
H893 C908 0.960 . S
H894 C908 0.960 . S
H895 C908 0.960 . S
C896 H888 0.929 . S
C896 C897 1.377 . S
C896 C898 1.384 . S
C897 C896 1.377 . S
C897 C903 1.390 . S
C898 H889 0.930 . S
C898 C896 1.384 . S
C898 C899 1.372 . S
C899 C898 1.372 . S
C899 C900 1.400 . S
C899 C904 1.490 . S
C900 H890 0.930 . S
C900 C899 1.400 . S
C900 C903 1.386 . S
H901 C917 0.930 . S
H902 C918 0.931 . S
C903 H891 0.929 . S
C903 C897 1.390 . S
C903 C900 1.386 . S
C904 C899 1.490 . S
C904 C906 1.395 . S
C904 C907 1.403 . S
H905 C911 0.930 . S
C906 H892 0.930 . S
C906 C904 1.395 . S
C906 C909 1.403 . S
C907 C904 1.403 . S
C907 C908 1.524 . S
C907 C911 1.400 . S
C908 H893 0.960 . S
C908 H894 0.960 . S
C908 H895 0.960 . S
C908 C907 1.524 . S
C909 C906 1.403 . S
C909 C910 1.392 . S
C909 C913 1.495 . S
C910 C909 1.392 . S
C910 C911 1.385 . S
C910 C912 1.478 . S
C911 H905 0.930 . S
C911 C907 1.400 . S
C911 C910 1.385 . S
C912 C910 1.478 . S
C912 C914 1.381 1_556 S
C912 C918 1.383 1_556 S
C913 C909 1.495 . S
C913 H919 0.959 . S
C913 H920 0.961 . S
C913 H921 0.960 . S
C914 C912 1.381 1_554 S
C914 C915 1.394 . S
C914 H922 0.930 1_554 S
C915 C914 1.394 . S
C915 C916 1.383 . S
C915 H923 0.929 . S
C916 C915 1.383 . S
C916 C917 1.377 . S
C917 H901 0.930 . S
C917 C916 1.377 . S
C917 C918 1.379 . S
C918 H902 0.931 . S
C918 C912 1.383 1_554 S
C918 C917 1.379 . S
H919 C913 0.959 . S
H920 C913 0.961 . S
H921 C913 0.960 . S
H922 C914 0.930 1_556 S
H923 C915 0.929 . S
H924 C932 0.929 1_655 S
H925 C934 0.933 1_655 S
H926 C936 0.930 . S
H927 C939 0.929 . S
H928 C942 0.930 . S
H929 C944 0.960 . S
H930 C944 0.960 . S
H931 C944 0.960 . S
C932 H924 0.929 1_455 S
C932 C933 1.377 . S
C932 C934 1.385 . S
C933 C932 1.377 . S
C933 C939 1.390 . S
C934 H925 0.933 1_455 S
C934 C932 1.385 . S
C934 C935 1.368 . S
C935 C934 1.368 . S
C935 C936 1.400 . S
C935 C940 1.490 . S
C936 H926 0.930 . S
C936 C935 1.400 . S
C936 C939 1.386 . S
H937 C953 0.930 . S
H938 C954 0.931 . S
C939 H927 0.929 . S
C939 C933 1.390 . S
C939 C936 1.386 . S
C940 C935 1.490 . S
C940 C942 1.395 . S
C940 C943 1.403 1_455 S
H941 C947 0.930 . S
C942 H928 0.930 . S
C942 C940 1.395 . S
C942 C945 1.403 . S
C943 C940 1.403 1_655 S
C943 C944 1.524 . S
C943 C947 1.400 . S
C944 H929 0.960 . S
C944 H930 0.960 . S
C944 H931 0.960 . S
C944 C943 1.524 . S
C945 C942 1.403 . S
C945 C946 1.392 . S
C945 C949 1.495 . S
C946 C945 1.392 . S
C946 C947 1.385 1_455 S
C946 C948 1.478 . S
C947 H941 0.930 . S
C947 C943 1.400 . S
C947 C946 1.385 1_655 S
C948 C946 1.478 . S
C948 C950 1.381 1_455 S
C948 C954 1.383 . S
C949 C945 1.495 . S
C949 H955 0.959 . S
C949 H956 0.961 . S
C949 H957 0.960 . S
C950 C948 1.381 1_655 S
C950 C951 1.394 . S
C950 H958 0.930 . S
C951 C950 1.394 . S
C951 C952 1.383 1_655 S
C951 H959 0.929 . S
C952 C951 1.383 1_455 S
C952 C953 1.377 . S
C953 H937 0.930 . S
C953 C952 1.377 . S
C953 C954 1.379 . S
C954 H938 0.931 . S
C954 C948 1.383 . S
C954 C953 1.379 . S
H955 C949 0.959 . S
H956 C949 0.961 . S
H957 C949 0.960 . S
H958 C950 0.930 . S
H959 C951 0.929 . S
C321 C7 0.485 . S
C340 C303 0.478 . S
C357 C51 1.829 . S
C376 C239 1.752 . S
C393 C87 1.146 . S
C412 C271 1.151 . S
C429 C16 0.341 . S
C448 C297 0.333 . S
C484 C233 1.893 . S
C465 C42 1.926 . S
C520 C265 1.264 . S
C501 C96 1.268 . S
C537 C47 1.144 . S
C556 C175 1.158 . S
C573 C91 3.013 . S
C592 C207 2.952 . S
C609 C2 1.954 . S
C628 C137 1.893 . S
C664 C169 1.207 . S
C645 C56 1.240 . S
C700 C201 2.881 . S
C681 C82 2.904 . S
C717 C11 1.818 . S
C736 C143 1.785 . S
C772 C213 1.738 . S
C753 C19 1.699 . S
C789 C50 1.344 . S
C808 C149 1.379 . S
C825 C99 1.468 . S
C844 C181 1.492 . S
C880 C277 1.470 1_565 S
C861 C59 1.448 . S
C916 C309 1.113 . S
C897 C90 1.121 . S
C933 C10 1.348 . S
C952 C245 1.322 . S
