# Generated by pormake.
# Topology sqc, (4,8)-cn, num edge types: 1
# Building blocks:
#     Node 0, Type 0, BuildingBlock: MUDLON_clean_linker_0, # of connection points: 4
#     Node 1, Type 0, BuildingBlock: MUDLON_clean_linker_0, # of connection points: 4
#     Node 2, Type 0, BuildingBlock: MUDLON_clean_linker_0, # of connection points: 4
#     Node 3, Type 0, BuildingBlock: MUDLON_clean_linker_0, # of connection points: 4
#     Node 4, Type 0, BuildingBlock: MUDLON_clean_linker_0, # of connection points: 4
#     Node 5, Type 0, BuildingBlock: MUDLON_clean_linker_0, # of connection points: 4
#     Node 6, Type 0, BuildingBlock: MUDLON_clean_linker_0, # of connection points: 4
#     Node 7, Type 0, BuildingBlock: MUDLON_clean_linker_0, # of connection points: 4
#     Node 8, Type 1, BuildingBlock: TAGTUT_clean_sbu_3, # of connection points: 8
#     Node 9, Type 1, BuildingBlock: TAGTUT_clean_sbu_3, # of connection points: 8
#     Node 10, Type 1, BuildingBlock: TAGTUT_clean_sbu_3, # of connection points: 8
#     Node 11, Type 1, BuildingBlock: TAGTUT_clean_sbu_3, # of connection points: 8
#     Edge 12, Type (0, 1), BuildingBlock: MIFKUJ_clean_linker_0, # of connection points: 2
#     Edge 13, Type (0, 1), BuildingBlock: MIFKUJ_clean_linker_0, # of connection points: 2
#     Edge 14, Type (0, 1), BuildingBlock: MIFKUJ_clean_linker_0, # of connection points: 2
#     Edge 15, Type (0, 1), BuildingBlock: MIFKUJ_clean_linker_0, # of connection points: 2
#     Edge 16, Type (0, 1), BuildingBlock: MIFKUJ_clean_linker_0, # of connection points: 2
#     Edge 17, Type (0, 1), BuildingBlock: MIFKUJ_clean_linker_0, # of connection points: 2
#     Edge 18, Type (0, 1), BuildingBlock: MIFKUJ_clean_linker_0, # of connection points: 2
#     Edge 19, Type (0, 1), BuildingBlock: MIFKUJ_clean_linker_0, # of connection points: 2
#     Edge 20, Type (0, 1), BuildingBlock: MIFKUJ_clean_linker_0, # of connection points: 2
#     Edge 21, Type (0, 1), BuildingBlock: MIFKUJ_clean_linker_0, # of connection points: 2
#     Edge 22, Type (0, 1), BuildingBlock: MIFKUJ_clean_linker_0, # of connection points: 2
#     Edge 23, Type (0, 1), BuildingBlock: MIFKUJ_clean_linker_0, # of connection points: 2
#     Edge 24, Type (0, 1), BuildingBlock: MIFKUJ_clean_linker_0, # of connection points: 2
#     Edge 25, Type (0, 1), BuildingBlock: MIFKUJ_clean_linker_0, # of connection points: 2
#     Edge 26, Type (0, 1), BuildingBlock: MIFKUJ_clean_linker_0, # of connection points: 2
#     Edge 27, Type (0, 1), BuildingBlock: MIFKUJ_clean_linker_0, # of connection points: 2
#     Edge 28, Type (0, 1), BuildingBlock: MIFKUJ_clean_linker_0, # of connection points: 2
#     Edge 29, Type (0, 1), BuildingBlock: MIFKUJ_clean_linker_0, # of connection points: 2
#     Edge 30, Type (0, 1), BuildingBlock: MIFKUJ_clean_linker_0, # of connection points: 2
#     Edge 31, Type (0, 1), BuildingBlock: MIFKUJ_clean_linker_0, # of connection points: 2
#     Edge 32, Type (0, 1), BuildingBlock: MIFKUJ_clean_linker_0, # of connection points: 2
#     Edge 33, Type (0, 1), BuildingBlock: MIFKUJ_clean_linker_0, # of connection points: 2
#     Edge 34, Type (0, 1), BuildingBlock: MIFKUJ_clean_linker_0, # of connection points: 2
#     Edge 35, Type (0, 1), BuildingBlock: MIFKUJ_clean_linker_0, # of connection points: 2
#     Edge 36, Type (0, 1), BuildingBlock: MIFKUJ_clean_linker_0, # of connection points: 2
#     Edge 37, Type (0, 1), BuildingBlock: MIFKUJ_clean_linker_0, # of connection points: 2
#     Edge 38, Type (0, 1), BuildingBlock: MIFKUJ_clean_linker_0, # of connection points: 2
#     Edge 39, Type (0, 1), BuildingBlock: MIFKUJ_clean_linker_0, # of connection points: 2
#     Edge 40, Type (0, 1), BuildingBlock: MIFKUJ_clean_linker_0, # of connection points: 2
#     Edge 41, Type (0, 1), BuildingBlock: MIFKUJ_clean_linker_0, # of connection points: 2
#     Edge 42, Type (0, 1), BuildingBlock: MIFKUJ_clean_linker_0, # of connection points: 2
#     Edge 43, Type (0, 1), BuildingBlock: MIFKUJ_clean_linker_0, # of connection points: 2
# Relax obj value: 0.180
# Max RMSD: 0.279
# Mean RMSD: 0.217
data_MOF--net-sqc--node1-TAGTUT_clean_sbu_3--node2-MUDLON_clean_linker_0--edge1-MIFKUJ_clean_linker_0
_symmetry_space_group_name_H-M    P1
_symmetry_Int_Tables_number       1
_symmetry_cell_setting            triclinic
loop_
_symmetry_equiv_pos_as_xyz
'x, y, z'
_cell_length_a     38.535796
_cell_length_b     38.525426
_cell_length_c     109.29951
_cell_angle_alpha  90.634971
_cell_angle_beta   90.010504
_cell_angle_gamma 89.954134
loop_
_atom_site_label
_atom_site_type_symbol
_atom_site_fract_x
_atom_site_fract_y
_atom_site_fract_z
_atom_type_partial_charge
H0 H 0.88972 0.98834 0.5239 0.0
N1 N 0.90668 0.04507 0.51019 0.0
H2 H 0.85066 0.98858 0.54165 0.0
H3 H 0.88566 0.10006 0.52299 0.0
H4 H 0.84779 0.10057 0.54099 0.0
H5 H 0.859 0.07945 0.49759 0.0
H6 H 0.81513 0.05534 0.48368 0.0
H7 H 0.90249 0.97744 0.50238 0.0
H8 H 0.85856 0.953 0.48857 0.0
H9 H 0.95383 0.03688 0.52904 0.0
H10 H 0.94473 0.03688 0.48958 0.0
H11 H 0.01636 0.03338 0.52718 0.0
H12 H 0.00714 0.03155 0.48781 0.0
H13 H 0.19219 0.01577 0.52343 0.0
H14 H 0.23117 0.04311 0.53822 0.0
H15 H 0.21889 0.14119 0.51985 0.0
H16 H 0.18072 0.11305 0.50482 0.0
H17 H 0.20669 0.059 0.48423 0.0
H18 H 0.24704 0.01925 0.47406 0.0
H19 H 0.20964 0.93551 0.49652 0.0
H20 H 0.17016 0.9759 0.50689 0.0
H21 H 0.13036 0.00739 0.51995 0.0
H22 H 0.06728 0.00114 0.52156 0.0
H23 H 0.05463 0.06899 0.49061 0.0
N24 N 0.1655 0.04597 0.50299 0.0
H25 H 0.11755 0.07382 0.48885 0.0
C26 C 0.89017 0.04433 0.52204 0.0
C27 C 0.88099 0.01291 0.52766 0.0
C28 C 0.85867 0.01306 0.53777 0.0
C29 C 0.84605 0.04457 0.54259 0.0
C30 C 0.85727 0.07592 0.53748 0.0
C31 C 0.87894 0.07572 0.52725 0.0
C32 C 0.88409 0.03039 0.50093 0.0
C33 C 0.85929 0.05192 0.49549 0.0
C34 C 0.83407 0.03805 0.48768 0.0
C35 C 0.83323 0.00224 0.48511 0.0
C36 C 0.85867 0.98073 0.49032 0.0
C37 C 0.88378 0.99462 0.49821 0.0
C38 C 0.94341 0.03609 0.50943 0.0
C39 C 0.96474 0.03486 0.51994 0.0
C40 C 0.00095 0.03282 0.5189 0.0
C41 C 0.01704 0.03234 0.50735 0.0
C42 C 0.99584 0.03241 0.49688 0.0
C43 C 0.95978 0.03482 0.49791 0.0
C44 C 0.18362 0.06247 0.51299 0.0
C45 C 0.19736 0.04326 0.52271 0.0
C46 C 0.21965 0.05904 0.5312 0.0
C47 C 0.22849 0.09437 0.53018 0.0
C48 C 0.21321 0.11382 0.52079 0.0
C49 C 0.19108 0.09795 0.51228 0.0
C50 C 0.18526 0.02049 0.49621 0.0
C51 C 0.20686 0.03192 0.48679 0.0
C52 C 0.22985 0.00908 0.48098 0.0
C53 C 0.23168 0.97406 0.48446 0.0
C54 C 0.20927 0.96238 0.49372 0.0
C55 C 0.18634 0.98539 0.49958 0.0
C56 C 0.12861 0.04097 0.50419 0.0
C57 C 0.11399 0.02054 0.51343 0.0
C58 C 0.07783 0.01721 0.51439 0.0
C59 C 0.05564 0.03437 0.50617 0.0
C60 C 0.07066 0.0547 0.49694 0.0
C61 C 0.10665 0.05778 0.49596 0.0
H62 H 0.38632 0.56885 0.7984 0.0
N63 N 0.36966 0.59169 0.77639 0.0
H64 H 0.35685 0.52409 0.81022 0.0
H65 H 0.30789 0.56064 0.77043 0.0
H66 H 0.27769 0.51666 0.78228 0.0
H67 H 0.33734 0.59362 0.75406 0.0
H68 H 0.3565 0.564 0.73536 0.0
H69 H 0.42853 0.55758 0.77288 0.0
H70 H 0.44757 0.52711 0.75434 0.0
H71 H 0.41224 0.6429 0.7823 0.0
H72 H 0.3068 0.62224 0.77133 0.0
H73 H 0.39994 0.7051 0.78284 0.0
H74 H 0.29391 0.68439 0.77211 0.0
H75 H 0.34767 0.90477 0.78798 0.0
H76 H 0.30523 0.94712 0.79554 0.0
H77 H 0.22197 0.88265 0.78185 0.0
H78 H 0.26482 0.84052 0.77402 0.0
H79 H 0.29962 0.86473 0.75447 0.0
H80 H 0.32343 0.8911 0.73609 0.0
H81 H 0.42677 0.88233 0.7512 0.0
H82 H 0.4023 0.85735 0.7698 0.0
H83 H 0.36393 0.81139 0.79293 0.0
H84 H 0.36829 0.74821 0.79432 0.0
H85 H 0.30756 0.73755 0.76123 0.0
N86 N 0.33575 0.84771 0.77505 0.0
H87 H 0.3024 0.80077 0.7602 0.0
C88 C 0.34932 0.56824 0.78362 0.0
C89 C 0.36235 0.55784 0.79495 0.0
C90 C 0.34542 0.53231 0.80168 0.0
C91 C 0.31494 0.51666 0.79718 0.0
C92 C 0.30137 0.52781 0.78593 0.0
C93 C 0.31841 0.55331 0.7792 0.0
C94 C 0.38168 0.57781 0.76487 0.0
C95 C 0.3617 0.57968 0.75414 0.0
C96 C 0.37259 0.56252 0.74346 0.0
C97 C 0.40355 0.54308 0.74334 0.0
C98 C 0.42392 0.54226 0.75402 0.0
C99 C 0.41304 0.55948 0.76464 0.0
C100 C 0.3606 0.62795 0.77684 0.0
C101 C 0.38634 0.65186 0.78012 0.0
C102 C 0.37912 0.68735 0.78051 0.0
C103 C 0.34579 0.69978 0.77763 0.0
C104 C 0.31988 0.67571 0.77432 0.0
C105 C 0.32719 0.64008 0.77392 0.0
C106 C 0.3095 0.86946 0.78056 0.0
C107 C 0.32026 0.89959 0.78674 0.0
C108 C 0.29605 0.92381 0.79095 0.0
C109 C 0.26041 0.91823 0.78916 0.0
C110 C 0.24935 0.88746 0.78333 0.0
C111 C 0.27377 0.86336 0.77892 0.0
C112 C 0.34929 0.85962 0.76356 0.0
C113 C 0.32739 0.8683 0.75378 0.0
C114 C 0.34113 0.88311 0.74322 0.0
C115 C 0.37705 0.88916 0.74219 0.0
C116 C 0.39895 0.87873 0.75178 0.0
C117 C 0.38513 0.86424 0.76237 0.0
C118 C 0.33321 0.8107 0.77645 0.0
C119 C 0.35099 0.7953 0.78614 0.0
C120 C 0.35372 0.75925 0.78683 0.0
C121 C 0.33882 0.73779 0.77775 0.0
C122 C 0.31926 0.75327 0.76839 0.0
C123 C 0.3164 0.78944 0.76776 0.0
H124 H 0.75746 0.04663 0.04368 0.0
N125 N 0.72329 0.03087 0.02327 0.0
H126 H 0.79201 0.00784 0.05647 0.0
H127 H 0.73249 0.96044 0.01974 0.0
H128 H 0.76595 0.9217 0.03255 0.0
H129 H 0.77035 0.00061 0.00746 0.0
H130 H 0.8031 0.02946 0.99164 0.0
H131 H 0.71999 0.09719 0.017 0.0
H132 H 0.75133 0.12616 0.00053 0.0
H133 H 0.66531 0.04596 0.03526 0.0
H134 H 0.70377 0.991 0.00349 0.0
H135 H 0.60645 0.02617 0.0306 0.0
H136 H 0.64566 0.96954 -0.00089 0.0
H137 H 0.45023 0.98075 0.02177 0.0
H138 H 0.41714 0.96134 0.03938 0.0
H139 H 0.44031 0.85467 0.02979 0.0
H140 H 0.4739 0.87455 0.01212 0.0
H141 H 0.44756 0.91359 0.98672 0.0
H142 H 0.41082 0.9451 0.97228 0.0
H143 H 0.4384 0.04184 0.99013 0.0
H144 H 0.47524 0.01023 0.00443 0.0
H145 H 0.51639 0.95166 0.02779 0.0
H146 H 0.5734 0.97481 0.03134 0.0
H147 H 0.58946 0.9838 0.99238 0.0
N148 N 0.48467 0.93968 0.00515 0.0
H149 H 0.53234 0.95881 0.98869 0.0
C150 C 0.74222 0.00673 0.03079 0.0
C151 C 0.7591 0.01934 0.04127 0.0
C152 C 0.77859 0.99709 0.04859 0.0
C153 C 0.78161 0.96165 0.04554 0.0
C154 C 0.76437 0.94891 0.0351 0.0
C155 C 0.74491 0.97115 0.02779 0.0
C156 C 0.74298 0.04694 0.01363 0.0
C157 C 0.7662 0.02806 0.00617 0.0
C158 C 0.78467 0.04461 0.99694 0.0
C159 C 0.77986 0.08023 0.99473 0.0
C160 C 0.75619 0.09888 0.00208 0.0
C161 C 0.73809 0.08237 0.01144 0.0
C162 C 0.68888 0.01985 0.01983 0.0
C163 C 0.66097 0.02956 0.0273 0.0
C164 C 0.62747 0.01795 0.02466 0.0
C165 C 0.62127 0.99592 0.01453 0.0
C166 C 0.64929 0.98677 0.00689 0.0
C167 C 0.6827 0.99881 0.00946 0.0
C168 C 0.46427 0.92895 0.01553 0.0
C169 C 0.44783 0.95319 0.02332 0.0
C170 C 0.42892 0.94202 0.03342 0.0
C171 C 0.42593 0.90644 0.03594 0.0
C172 C 0.4424 0.88226 0.02815 0.0
C173 C 0.46136 0.89349 0.01803 0.0
C174 C 0.46417 0.95941 0.99659 0.0
C175 C 0.44574 0.94159 0.98745 0.0
C176 C 0.42468 0.9596 0.97928 0.0
C177 C 0.42173 0.99593 0.98009 0.0
C178 C 0.44047 0.01389 0.9892 0.0
C179 C 0.46136 0.99583 0.99742 0.0
C180 C 0.51872 0.95434 0.00782 0.0
C181 C 0.5314 0.95885 0.01987 0.0
C182 C 0.56446 0.97237 0.02198 0.0
C183 C 0.58596 0.98177 0.01218 0.0
C184 C 0.57373 0.97674 0.00017 0.0
C185 C 0.54082 0.96276 0.99805 0.0
H186 H 0.2888 0.45949 0.28092 0.0
N187 N 0.30903 0.41476 0.26376 0.0
H188 H 0.32448 0.48734 0.29666 0.0
H189 H 0.37814 0.40347 0.26761 0.0
H190 H 0.41381 0.42968 0.28368 0.0
H191 H 0.36007 0.43661 0.24838 0.0
H192 H 0.35232 0.47548 0.23087 0.0
H193 H 0.24955 0.43596 0.25425 0.0
H194 H 0.24146 0.47391 0.23667 0.0
H195 H 0.25343 0.38273 0.27226 0.0
H196 H 0.35134 0.36442 0.2544 0.0
H197 H 0.24336 0.32035 0.27337 0.0
H198 H 0.34333 0.3018 0.25642 0.0
H199 H 0.26582 0.14169 0.29728 0.0
H200 H 0.30599 0.11225 0.31113 0.0
H201 H 0.38567 0.11539 0.2834 0.0
H202 H 0.34563 0.14612 0.26976 0.0
H203 H 0.30799 0.13062 0.25401 0.0
H204 H 0.28308 0.08604 0.24067 0.0
H205 H 0.18888 0.088 0.26203 0.0
H206 H 0.21374 0.13356 0.27524 0.0
H207 H 0.25392 0.21174 0.2879 0.0
H208 H 0.26134 0.27364 0.28459 0.0
H209 H 0.31504 0.25108 0.25064 0.0
N210 N 0.27729 0.15969 0.27433 0.0
H211 H 0.30972 0.1893 0.2546 0.0
C212 C 0.33066 0.42928 0.27321 0.0
C213 C 0.31605 0.45283 0.28156 0.0
C214 C 0.33648 0.46843 0.2906 0.0
C215 C 0.37205 0.46049 0.29155 0.0
C216 C 0.38661 0.43658 0.28318 0.0
C217 C 0.36614 0.42127 0.27404 0.0
C218 C 0.30526 0.43373 0.25261 0.0
C219 C 0.33415 0.44444 0.24578 0.0
C220 C 0.32972 0.46664 0.23584 0.0
C221 C 0.29631 0.47764 0.23245 0.0
C222 C 0.26747 0.46555 0.239 0.0
C223 C 0.27198 0.44395 0.24903 0.0
C224 C 0.30336 0.37797 0.26353 0.0
C225 C 0.27287 0.36502 0.26867 0.0
C226 C 0.26744 0.32933 0.26941 0.0
C227 C 0.29288 0.30572 0.26527 0.0
C228 C 0.32303 0.31897 0.25969 0.0
C229 C 0.328 0.35482 0.25869 0.0
C230 C 0.3026 0.14542 0.28249 0.0
C231 C 0.29215 0.13652 0.29431 0.0
C232 C 0.3151 0.11992 0.30219 0.0
C233 C 0.34881 0.11153 0.29828 0.0
C234 C 0.3597 0.12145 0.28656 0.0
C235 C 0.33685 0.13873 0.27875 0.0
C236 C 0.26236 0.13601 0.26553 0.0
C237 C 0.28168 0.12234 0.25567 0.0
C238 C 0.2675 0.09662 0.24807 0.0
C239 C 0.23414 0.08358 0.25036 0.0
C240 C 0.21475 0.09749 0.26013 0.0
C241 C 0.22874 0.12361 0.26759 0.0
C242 C 0.28066 0.19586 0.27146 0.0
C243 C 0.26714 0.22029 0.27973 0.0
C244 C 0.27119 0.25573 0.27773 0.0
C245 C 0.28843 0.2677 0.26723 0.0
C246 C 0.3019 0.24302 0.25889 0.0
C247 C 0.29845 0.20744 0.26106 0.0
H248 H 0.88429 0.07517 0.30223 0.0
N249 N 0.87189 0.09448 0.27943 0.0
H250 H 0.85346 0.03097 0.31392 0.0
H251 H 0.81071 0.06321 0.27279 0.0
H252 H 0.77957 0.01942 0.28442 0.0
H253 H 0.84257 0.09184 0.25665 0.0
H254 H 0.86404 0.05846 0.23906 0.0
H255 H 0.93144 0.0604 0.27773 0.0
H256 H 0.95381 0.02779 0.26008 0.0
H257 H 0.91601 0.14574 0.28343 0.0
H258 H 0.80971 0.12528 0.27353 0.0
H259 H 0.90572 0.20796 0.28168 0.0
H260 H 0.79863 0.18763 0.27221 0.0
H261 H 0.85062 0.39534 0.28972 0.0
H262 H 0.80894 0.43407 0.30004 0.0
H263 H 0.72594 0.38976 0.27849 0.0
H264 H 0.76748 0.34969 0.26867 0.0
H265 H 0.79878 0.36014 0.25107 0.0
H266 H 0.81655 0.39108 0.23276 0.0
H267 H 0.9195 0.40349 0.24776 0.0
H268 H 0.90128 0.37287 0.26626 0.0
H269 H 0.87211 0.31732 0.28896 0.0
H270 H 0.87734 0.25468 0.29162 0.0
H271 H 0.81117 0.23789 0.26014 0.0
N272 N 0.83797 0.35063 0.27169 0.0
H273 H 0.80488 0.30077 0.25798 0.0
C274 C 0.84988 0.0726 0.28669 0.0
C275 C 0.86102 0.06357 0.29843 0.0
C276 C 0.84339 0.03831 0.30507 0.0
C277 C 0.81423 0.02146 0.30004 0.0
C278 C 0.80226 0.03153 0.28846 0.0
C279 C 0.81987 0.0569 0.28184 0.0
C280 C 0.88547 0.07837 0.26851 0.0
C281 C 0.86696 0.07813 0.25743 0.0
C282 C 0.87937 0.05915 0.24736 0.0
C283 C 0.91049 0.04018 0.2482 0.0
C284 C 0.92943 0.04154 0.2592 0.0
C285 C 0.91693 0.06038 0.26924 0.0
C286 C 0.86372 0.1309 0.27877 0.0
C287 C 0.8903 0.15481 0.28104 0.0
C288 C 0.88423 0.19037 0.2801 0.0
C289 C 0.85118 0.20298 0.27693 0.0
C290 C 0.82444 0.17889 0.2746 0.0
C291 C 0.83067 0.14314 0.27546 0.0
C292 C 0.81223 0.37014 0.27835 0.0
C293 C 0.82335 0.3936 0.28741 0.0
C294 C 0.79965 0.41563 0.29323 0.0
C295 C 0.7645 0.41491 0.28992 0.0
C296 C 0.75306 0.39083 0.28108 0.0
C297 C 0.77673 0.36813 0.27545 0.0
C298 C 0.84871 0.36455 0.26013 0.0
C299 C 0.82521 0.36919 0.25044 0.0
C300 C 0.83538 0.38695 0.23996 0.0
C301 C 0.8693 0.39989 0.23889 0.0
C302 C 0.89324 0.39362 0.24831 0.0
C303 C 0.88292 0.37624 0.25886 0.0
C304 C 0.83862 0.31362 0.27321 0.0
C305 C 0.85854 0.30002 0.28272 0.0
C306 C 0.86168 0.26421 0.28414 0.0
C307 C 0.84517 0.24109 0.27596 0.0
C308 C 0.82414 0.25486 0.26664 0.0
C309 C 0.82073 0.29085 0.26532 0.0
H310 H 0.84519 0.9359 0.76832 0.0
N311 N 0.88409 0.90908 0.74948 0.0
H312 H 0.86744 0.96623 0.7864 0.0
H313 H 0.94982 0.91371 0.75664 0.0
H314 H 0.97235 0.94376 0.77492 0.0
H315 H 0.90958 0.95156 0.73283 0.0
H316 H 0.87866 0.99659 0.72153 0.0
H317 H 0.81364 0.92099 0.74986 0.0
H318 H 0.78293 0.96622 0.73899 0.0
H319 H 0.83162 0.87697 0.76207 0.0
H320 H 0.91614 0.85953 0.73697 0.0
H321 H 0.81789 0.81537 0.76158 0.0
H322 H 0.90483 0.79738 0.73723 0.0
H323 H 0.80808 0.63477 0.77112 0.0
H324 H 0.82391 0.60753 0.79045 0.0
H325 H 0.93202 0.61107 0.78004 0.0
H326 H 0.91586 0.63839 0.76072 0.0
H327 H 0.86793 0.59848 0.73838 0.0
H328 H 0.82809 0.56033 0.72728 0.0
H329 H 0.74149 0.62239 0.74001 0.0
H330 H 0.78188 0.65984 0.75145 0.0
H331 H 0.83054 0.69998 0.76997 0.0
H332 H 0.83555 0.7625 0.76865 0.0
H333 H 0.8706 0.7519 0.73117 0.0
N334 N 0.8524 0.65221 0.75263 0.0
H335 H 0.86847 0.68894 0.73302 0.0
C336 C 0.896 0.92295 0.76102 0.0
C337 C 0.87292 0.93706 0.76971 0.0
C338 C 0.88565 0.95443 0.78005 0.0
C339 C 0.92157 0.95754 0.78196 0.0
C340 C 0.94454 0.94158 0.77367 0.0
C341 C 0.93178 0.92457 0.76324 0.0
C342 C 0.86413 0.93269 0.74213 0.0
C343 C 0.88182 0.95436 0.73404 0.0
C344 C 0.86418 0.98031 0.72772 0.0
C345 C 0.82833 0.98523 0.72942 0.0
C346 C 0.81046 0.96295 0.73735 0.0
C347 C 0.82813 0.93694 0.74363 0.0
C348 C 0.87453 0.87297 0.74929 0.0
C349 C 0.84705 0.85994 0.75634 0.0
C350 C 0.83961 0.82439 0.75621 0.0
C351 C 0.86012 0.80095 0.74934 0.0
C352 C 0.88771 0.81435 0.74238 0.0
C353 C 0.89454 0.84992 0.74229 0.0
C354 C 0.86093 0.63823 0.76443 0.0
C355 C 0.83516 0.62975 0.77301 0.0
C356 C 0.84424 0.61419 0.78405 0.0
C357 C 0.8792 0.60708 0.78675 0.0
C358 C 0.90491 0.61658 0.7783 0.0
C359 C 0.89578 0.63197 0.76724 0.0
C360 C 0.82791 0.63198 0.74561 0.0
C361 C 0.84036 0.60393 0.73866 0.0
C362 C 0.81751 0.58231 0.73228 0.0
C363 C 0.78152 0.5884 0.73266 0.0
C364 C 0.769 0.61679 0.7396 0.0
C365 C 0.79202 0.63839 0.74605 0.0
C366 C 0.85005 0.6895 0.75165 0.0
C367 C 0.83942 0.71093 0.76147 0.0
C368 C 0.84191 0.74704 0.76063 0.0
C369 C 0.85409 0.76266 0.74985 0.0
C370 C 0.86228 0.74106 0.73978 0.0
C371 C 0.86067 0.70499 0.74074 0.0
H372 H 0.37225 0.59594 0.98431 0.0
N373 N 0.41612 0.56909 0.00032 0.0
H374 H 0.33239 0.5648 0.97071 0.0
H375 H 0.41712 0.49855 0.99535 0.0
H376 H 0.3788 0.46762 0.98148 0.0
H377 H 0.38343 0.52217 0.01507 0.0
H378 H 0.34434 0.53568 0.03204 0.0
H379 H 0.40045 0.63141 0.00938 0.0
H380 H 0.36035 0.64516 0.02622 0.0
H381 H 0.47102 0.60293 0.99192 0.0
H382 H 0.44244 0.51551 0.01402 0.0
H383 H 0.53237 0.59093 0.99583 0.0
H384 H 0.50299 0.50199 0.0173 0.0
H385 H 0.70485 0.53872 0.99818 0.0
H386 H 0.74337 0.51 0.98371 0.0
H387 H 0.70474 0.4102 0.99532 0.0
H388 H 0.6677 0.43953 0.01042 0.0
H389 H 0.70759 0.48689 0.03327 0.0
H390 H 0.7515 0.5217 0.04396 0.0
H391 H 0.71617 0.61305 0.02511 0.0
H392 H 0.67248 0.57793 0.0143 0.0
H393 H 0.63914 0.53896 0.99513 0.0
H394 H 0.57871 0.55379 0.99142 0.0
H395 H 0.55232 0.51926 0.02779 0.0
N396 N 0.66534 0.50714 0.01564 0.0
H397 H 0.61258 0.50227 0.03104 0.0
C398 C 0.39783 0.54994 0.99089 0.0
C399 C 0.37419 0.56795 0.98354 0.0
C400 C 0.35145 0.55007 0.97576 0.0
C401 C 0.35203 0.5136 0.97509 0.0
C402 C 0.37703 0.49566 0.98197 0.0
C403 C 0.39946 0.51353 0.98986 0.0
C404 C 0.3954 0.57593 0.01107 0.0
C405 C 0.37946 0.54906 0.01764 0.0
C406 C 0.35691 0.55679 0.0273 0.0
C407 C 0.34935 0.59143 0.0304 0.0
C408 C 0.36565 0.61822 0.02395 0.0
C409 C 0.38863 0.61046 0.01442 0.0
C410 C 0.45198 0.56015 0.00254 0.0
C411 C 0.478 0.5809 0.99748 0.0
C412 C 0.51307 0.57381 -0.00033 0.0
C413 C 0.52292 0.54542 0.00691 0.0
C414 C 0.49665 0.5245 0.0119 0.0
C415 C 0.46167 0.532 0.00988 0.0
C416 C 0.68373 0.49114 0.00554 0.0
C417 C 0.70444 0.51068 0.99757 0.0
C418 C 0.72634 0.4941 0.98918 0.0
C419 C 0.7276 0.45762 0.98839 0.0
C420 C 0.70517 0.43827 0.99586 0.0
C421 C 0.68364 0.45493 0.00439 0.0
C422 C 0.68671 0.52971 0.02308 0.0
C423 C 0.70891 0.51454 0.03164 0.0
C424 C 0.7341 0.53435 0.03762 0.0
C425 C 0.7374 0.56993 0.03523 0.0
C426 C 0.71406 0.58566 0.02711 0.0
C427 C 0.68904 0.56565 0.02099 0.0
C428 C 0.63032 0.51868 0.01333 0.0
C429 C 0.62039 0.53427 0.00228 0.0
C430 C 0.58567 0.54317 0.00022 0.0
C431 C 0.56026 0.5374 0.00924 0.0
C432 C 0.57075 0.52318 0.02046 0.0
C433 C 0.60528 0.51374 0.02241 0.0
H434 H 0.2491 0.53357 0.55364 0.0
N435 N 0.23543 0.53721 0.52998 0.0
H436 H 0.27046 0.4837 0.565 0.0
H437 H 0.25025 0.47276 0.52032 0.0
H438 H 0.27094 0.42234 0.53163 0.0
H439 H 0.28375 0.58598 0.53083 0.0
H440 H 0.31702 0.60961 0.51374 0.0
H441 H 0.23073 0.51633 0.50605 0.0
H442 H 0.26395 0.53972 0.48887 0.0
H443 H 0.19988 0.59431 0.53523 0.0
H444 H 0.18754 0.4887 0.52261 0.0
H445 H 0.1371 0.60253 0.53457 0.0
H446 H 0.12476 0.49566 0.52274 0.0
H447 H 0.93476 0.594 0.54694 0.0
H448 H 0.90013 0.56063 0.5615 0.0
H449 H 0.94342 0.46549 0.54681 0.0
H450 H 0.97821 0.49904 0.5324 0.0
H451 H 0.95045 0.52043 0.51424 0.0
H452 H 0.92091 0.53099 0.49498 0.0
H453 H 0.93593 0.64137 0.50006 0.0
H454 H 0.9662 0.63044 0.51936 0.0
H455 H 0.02406 0.59696 0.54504 0.0
H456 H 0.08676 0.5881 0.54504 0.0
H457 H 0.07698 0.52074 0.51329 0.0
N458 N 0.97759 0.56973 0.52989 0.0
H459 H 0.01442 0.52784 0.51393 0.0
C460 C 0.24831 0.50703 0.53619 0.0
C461 C 0.25385 0.50933 0.54881 0.0
C462 C 0.26567 0.48066 0.55528 0.0
C463 C 0.27207 0.44884 0.54924 0.0
C464 C 0.26642 0.44649 0.53654 0.0
C465 C 0.25459 0.47533 0.53006 0.0
C466 C 0.25511 0.54937 0.51972 0.0
C467 C 0.27946 0.57577 0.52168 0.0
C468 C 0.29816 0.58938 0.51192 0.0
C469 C 0.29293 0.57665 0.49996 0.0
C470 C 0.26867 0.54987 0.498 0.0
C471 C 0.24974 0.53644 0.50779 0.0
C472 C 0.19835 0.54091 0.52917 0.0
C473 C 0.18348 0.57283 0.53242 0.0
C474 C 0.14757 0.57729 0.53215 0.0
C475 C 0.12561 0.54961 0.52878 0.0
C476 C 0.14071 0.5177 0.52528 0.0
C477 C 0.17675 0.5135 0.52534 0.0
C478 C 0.9588 0.5491 0.53858 0.0
C479 C 0.93688 0.56597 0.54695 0.0
C480 C 0.9173 0.54692 0.55526 0.0
C481 C 0.91908 0.51049 0.55525 0.0
C482 C 0.94134 0.49353 0.54693 0.0
C483 C 0.96124 0.51267 0.53871 0.0
C484 C 0.96037 0.57483 0.51833 0.0
C485 C 0.94745 0.54692 0.51128 0.0
C486 C 0.93045 0.55299 0.50023 0.0
C487 C 0.92597 0.58702 0.496 0.0
C488 C 0.93933 0.61482 0.50299 0.0
C489 C 0.95637 0.6087 0.51404 0.0
C490 C 0.0145 0.56366 0.52943 0.0
C491 C 0.03558 0.58023 0.53812 0.0
C492 C 0.07146 0.57534 0.53801 0.0
C493 C 0.0872 0.55403 0.52905 0.0
C494 C 0.0659 0.53707 0.5204 0.0
C495 C 0.02991 0.54148 0.52067 0.0
C496 C 0.10927 0.6927 0.15702 0.0
C497 C 0.98317 0.65067 0.15195 0.0
C498 C 0.98752 0.70347 0.11708 0.0
Mg499 Mg 0.149 0.75962 0.14674 0.0
Mg500 Mg 0.10981 0.82829 0.13524 0.0
O501 O 0.1132 0.78006 0.13552 0.0
Mg502 Mg 0.07311 0.75028 0.13998 0.0
O503 O 0.03583 0.71725 0.14466 0.0
Mg504 Mg 0.05298 0.67554 0.13542 0.0
Mg505 Mg 0.98835 0.72761 0.14394 0.0
C506 C 0.04071 0.80935 0.12101 0.0
O507 O 0.04881 0.78946 0.1534 0.0
O508 O 0.18927 0.79434 0.13663 0.0
O509 O 0.99112 0.77837 0.15304 0.0
O510 O 0.14075 0.8032 0.16182 0.0
O511 O 0.16034 0.83834 0.12792 0.0
O512 O 0.10852 0.84539 0.15369 0.0
O513 O 0.0955 0.71012 0.12667 0.0
O514 O 0.15163 0.71739 0.13183 0.0
C515 C 0.12776 0.70188 0.12563 0.0
C516 C 0.18845 0.82155 0.12992 0.0
O517 O 0.04102 0.778 0.12497 0.0
O518 O 0.01096 0.64462 0.14579 0.0
O519 O 0.06311 0.8322 0.12436 0.0
O520 O 0.01411 0.68463 0.11942 0.0
O521 O 0.97 0.68119 0.15291 0.0
O522 O 0.97451 0.72411 0.12506 0.0
O523 O 0.10641 0.72522 0.15477 0.0
O524 O 0.09082 0.67013 0.15127 0.0
C525 C 0.12444 0.83221 0.16274 0.0
C526 C 0.01739 0.79674 0.15636 0.0
C527 C 0.62939 0.79671 0.40613 0.0
C528 C 0.68284 0.67286 0.40356 0.0
C529 C 0.62445 0.66402 0.36978 0.0
Mg530 Mg 0.55799 0.82808 0.3951 0.0
Mg531 Mg 0.49115 0.77948 0.38652 0.0
O532 O 0.539 0.78641 0.38613 0.0
Mg533 Mg 0.57309 0.75069 0.39134 0.0
O534 O 0.6106 0.7182 0.39642 0.0
Mg535 Mg 0.64907 0.73602 0.38583 0.0
Mg536 Mg 0.60485 0.67013 0.39689 0.0
C537 C 0.5149 0.70744 0.37473 0.0
O538 O 0.53779 0.72566 0.40613 0.0
O539 O 0.51922 0.86116 0.38377 0.0
O540 O 0.55616 0.66997 0.40683 0.0
O541 O 0.51662 0.82408 0.41066 0.0
O542 O 0.47755 0.82542 0.37655 0.0
O543 O 0.47567 0.7859 0.40518 0.0
O544 O 0.60959 0.77247 0.37677 0.0
O545 O 0.59835 0.82902 0.37985 0.0
C546 C 0.61543 0.8046 0.37452 0.0
C547 C 0.49205 0.85532 0.37724 0.0
O548 O 0.54677 0.7121 0.37785 0.0
O549 O 0.68574 0.6996 0.3967 0.0
O550 O 0.49047 0.72847 0.37785 0.0
O551 O 0.6412 0.69262 0.37092 0.0
O552 O 0.65369 0.65771 0.40531 0.0
O553 O 0.60654 0.65163 0.37851 0.0
O554 O 0.59678 0.79088 0.40459 0.0
O555 O 0.65247 0.77847 0.40051 0.0
C556 C 0.4888 0.80709 0.41295 0.0
C557 C 0.53492 0.69424 0.40994 0.0
C558 C 0.61514 0.18999 0.65531 0.0
C559 C 0.49166 0.12957 0.65205 0.0
C560 C 0.48769 0.18596 0.61762 0.0
Mg561 Mg 0.64109 0.26278 0.64385 0.0
Mg562 Mg 0.588 0.32434 0.63422 0.0
O563 O 0.59932 0.27709 0.63419 0.0
Mg564 Mg 0.56623 0.24087 0.63988 0.0
O565 O 0.5361 0.20218 0.6455 0.0
Mg566 Mg 0.55689 0.16357 0.63528 0.0
Mg567 Mg 0.48786 0.20711 0.64457 0.0
C568 C 0.51954 0.29284 0.6224 0.0
O569 O 0.53816 0.27651 0.654 0.0
O570 O 0.67187 0.30374 0.6327 0.0
O571 O 0.48329 0.25614 0.6544 0.0
O572 O 0.63174 0.30488 0.6589 0.0
O573 O 0.634 0.34243 0.62511 0.0
O574 O 0.59108 0.34223 0.65279 0.0
O575 O 0.59204 0.20381 0.62598 0.0
O576 O 0.64677 0.22145 0.62903 0.0
C577 C 0.62482 0.20089 0.62391 0.0
C578 C 0.66494 0.33061 0.62625 0.0
O579 O 0.52656 0.26217 0.62615 0.0
O580 O 0.52065 0.1267 0.64629 0.0
O581 O 0.53799 0.31967 0.62502 0.0
O582 O 0.5148 0.16766 0.61975 0.0
O583 O 0.47464 0.15816 0.65259 0.0
O584 O 0.47454 0.206 0.62572 0.0
O585 O 0.60668 0.22181 0.65343 0.0
O586 O 0.59887 0.16458 0.65017 0.0
C587 C 0.61253 0.33156 0.66082 0.0
C588 C 0.50636 0.27854 0.65757 0.0
C589 C 0.12582 0.29594 0.90612 0.0
C590 C 0.17228 0.16794 0.90443 0.0
C591 C 0.12028 0.16586 0.86911 0.0
Mg592 Mg 0.05916 0.33103 0.89291 0.0
Mg593 Mg 0.99175 0.28543 0.88266 0.0
O594 O 0.03995 0.29052 0.88331 0.0
Mg595 Mg 0.07075 0.25327 0.88974 0.0
O596 O 0.1051 0.21897 0.89602 0.0
Mg597 Mg 0.14683 0.23454 0.88649 0.0
Mg598 Mg 0.09587 0.1714 0.89578 0.0
C599 C 0.01495 0.21287 0.8712 0.0
O600 O 0.03083 0.23094 0.90352 0.0
O601 O 0.02393 0.36605 0.88091 0.0
O602 O 0.04515 0.17411 0.90437 0.0
O603 O 0.01498 0.32822 0.90734 0.0
O604 O 0.98045 0.33318 0.87341 0.0
O605 O 0.97395 0.29104 0.90112 0.0
O606 O 0.11154 0.27296 0.87632 0.0
O607 O 0.10249 0.33018 0.87872 0.0
C608 C 0.11935 0.30461 0.874 0.0
C609 C 0.99653 0.36223 0.87431 0.0
O610 O 0.04547 0.21558 0.87587 0.0
O611 O 0.17866 0.19506 0.89804 0.0
O612 O 0.99083 0.2354 0.87307 0.0
O613 O 0.13913 0.19276 0.87105 0.0
O614 O 0.1418 0.15486 0.90519 0.0
O615 O 0.10005 0.15414 0.87729 0.0
O616 O 0.09366 0.29211 0.90332 0.0
O617 O 0.14968 0.27644 0.90156 0.0
C618 C 0.98646 0.31195 0.90911 0.0
C619 C 0.025 0.1997 0.90706 0.0
H620 H 0.25192 0.97128 0.46042 0.0
H621 H 0.29722 0.93544 0.45123 0.0
H622 H 0.31507 0.88622 0.48593 0.0
H623 H 0.2709 0.92346 0.49539 0.0
H624 H 0.37488 0.89949 0.47573 0.0
H625 H 0.27189 0.84348 0.46247 0.0
H626 H 0.21325 0.83799 0.45363 0.0
H627 H 0.2509 0.87518 0.41921 0.0
H628 H 0.30968 0.88136 0.42789 0.0
H629 H 0.43616 0.76937 0.42299 0.0
H630 H 0.39611 0.78807 0.43902 0.0
H631 H 0.45251 0.88401 0.44321 0.0
H632 H 0.4943 0.86445 0.42784 0.0
H633 H 0.35359 0.83706 0.43652 0.0
H634 H 0.43544 0.92343 0.47017 0.0
H635 H 0.49278 0.92178 0.48019 0.0
H636 H 0.49549 0.81085 0.47613 0.0
H637 H 0.43797 0.81173 0.46627 0.0
C638 C 0.26558 0.95303 0.46615 0.0
C639 C 0.25768 0.95036 0.47867 0.0
C640 C 0.29127 0.93222 0.46084 0.0
C641 C 0.30932 0.90774 0.46784 0.0
C642 C 0.30144 0.90482 0.48033 0.0
C643 C 0.27586 0.92587 0.48569 0.0
C644 C 0.33674 0.8858 0.46208 0.0
C645 C 0.37024 0.88567 0.46718 0.0
C646 C 0.3305 0.86676 0.45115 0.0
C647 C 0.29516 0.86311 0.44587 0.0
C648 C 0.26762 0.85072 0.45304 0.0
C649 C 0.23436 0.84745 0.44805 0.0
C650 C 0.22834 0.85629 0.43587 0.0
C651 C 0.25559 0.86836 0.42864 0.0
C652 C 0.2889 0.87171 0.43359 0.0
C653 C 0.44085 0.79391 0.42763 0.0
C654 C 0.46853 0.8154 0.42413 0.0
C655 C 0.41763 0.8047 0.4367 0.0
C656 C 0.42089 0.83756 0.44223 0.0
C657 C 0.44956 0.85832 0.43922 0.0
C658 C 0.47343 0.84714 0.43037 0.0
C659 C 0.39216 0.85172 0.44991 0.0
C660 C 0.35832 0.85046 0.44514 0.0
C661 C 0.39796 0.86845 0.46132 0.0
C662 C 0.43243 0.86771 0.46739 0.0
C663 C 0.44816 0.89867 0.47148 0.0
C664 C 0.48073 0.89786 0.47712 0.0
C665 C 0.49777 0.86624 0.47878 0.0
C666 C 0.48229 0.83534 0.47481 0.0
C667 C 0.44973 0.83598 0.46918 0.0
H668 H 0.52292 0.86565 0.48318 0.0
H669 H 0.20257 0.85374 0.43203 0.0
H670 H 0.42823 0.93832 0.7424 0.0
H671 H 0.44823 0.97356 0.72545 0.0
H672 H 0.37689 0.92095 0.70116 0.0
H673 H 0.35781 0.88419 0.718 0.0
H674 H 0.43761 0.93427 0.68969 0.0
H675 H 0.35494 0.99811 0.7138 0.0
H676 H 0.33016 0.02285 0.73278 0.0
H677 H 0.42226 0.08363 0.7384 0.0
H678 H 0.44781 0.05886 0.71953 0.0
H679 H 0.42624 0.12064 0.66101 0.0
H680 H 0.40562 0.07461 0.67428 0.0
H681 H 0.50614 0.02538 0.67252 0.0
H682 H 0.52678 0.07101 0.65895 0.0
H683 H 0.42697 0.0615 0.69619 0.0
H684 H 0.49785 0.93847 0.67797 0.0
H685 H 0.51778 0.91354 0.65831 0.0
H686 H 0.4398 0.97149 0.63926 0.0
H687 H 0.41911 0.9964 0.65882 0.0
C688 C 0.41733 0.93352 0.7334 0.0
C689 C 0.39121 0.90848 0.7316 0.0
C690 C 0.42858 0.954 0.72374 0.0
C691 C 0.41361 0.9503 0.7121 0.0
C692 C 0.38865 0.92435 0.71009 0.0
C693 C 0.37752 0.90363 0.71976 0.0
C694 C 0.42251 0.97497 0.70226 0.0
C695 C 0.43533 0.9621 0.69108 0.0
C696 C 0.41881 0.01124 0.70401 0.0
C697 C 0.4034 0.0264 0.71531 0.0
C698 C 0.37 0.01658 0.71913 0.0
C699 C 0.35581 0.03062 0.72986 0.0
C700 C 0.37465 0.05474 0.73681 0.0
C701 C 0.40771 0.06492 0.73302 0.0
C702 C 0.42205 0.05091 0.7223 0.0
C703 C 0.44387 0.09978 0.6633 0.0
C704 C 0.47823 0.09961 0.65897 0.0
C705 C 0.43203 0.07349 0.67091 0.0
C706 C 0.45428 0.04651 0.67441 0.0
C707 C 0.48831 0.04564 0.6698 0.0
C708 C 0.50012 0.07182 0.66207 0.0
C709 C 0.44255 0.02096 0.68359 0.0
C710 C 0.42926 0.03369 0.69473 0.0
C711 C 0.44516 0.98464 0.68167 0.0
C712 C 0.45717 0.96955 0.66986 0.0
C713 C 0.48488 0.94579 0.66959 0.0
C714 C 0.49632 0.93168 0.65846 0.0
C715 C 0.48014 0.94101 0.64754 0.0
C716 C 0.4524 0.96439 0.64773 0.0
C717 C 0.44084 0.97856 0.65883 0.0
H718 H 0.48905 0.93007 0.63893 0.0
H719 H 0.36362 0.06558 0.74512 0.0
H720 H 0.43523 0.05619 0.96792 0.0
H721 H 0.39666 0.08734 0.95401 0.0
H722 H 0.31749 0.00984 0.95938 0.0
H723 H 0.35597 0.97851 0.97317 0.0
H724 H 0.32297 0.02486 0.9359 0.0
H725 H 0.31478 0.09053 0.97368 0.0
H726 H 0.33736 0.12456 0.99119 0.0
H727 H 0.3791 0.20006 0.96662 0.0
H728 H 0.35717 0.1662 0.94895 0.0
H729 H 0.16971 0.10814 0.91759 0.0
H730 H 0.21624 0.08108 0.92916 0.0
H731 H 0.28635 0.16251 0.91849 0.0
H732 H 0.23969 0.19019 0.9069 0.0
H733 H 0.29056 0.14812 0.94303 0.0
H734 H 0.29382 0.08448 0.90531 0.0
H735 H 0.26952 0.05084 0.88801 0.0
H736 H 0.23593 0.97158 0.91264 0.0
H737 H 0.25956 0.005 0.93012 0.0
C738 C 0.40952 0.04594 0.96618 0.0
C739 C 0.3986 0.01491 0.97163 0.0
C740 C 0.38752 0.06375 0.95823 0.0
C741 C 0.35407 0.05108 0.95574 0.0
C742 C 0.34323 0.02002 0.96113 0.0
C743 C 0.36526 0.00211 0.96899 0.0
C744 C 0.33019 0.06991 0.94748 0.0
C745 C 0.31567 0.05173 0.93753 0.0
C746 C 0.32148 0.10529 0.94937 0.0
C747 C 0.3347 0.12562 0.95999 0.0
C748 C 0.32904 0.11423 0.97201 0.0
C749 C 0.34167 0.13351 0.98196 0.0
C750 C 0.35975 0.16439 0.98002 0.0
C751 C 0.36516 0.17609 0.96811 0.0
C752 C 0.35262 0.15688 0.95813 0.0
C753 C 0.19497 0.12036 0.91765 0.0
C754 C 0.20092 0.15133 0.91127 0.0
C755 C 0.22163 0.10474 0.92424 0.0
C756 C 0.25483 0.11958 0.92456 0.0
C757 C 0.26091 0.15061 0.91831 0.0
C758 C 0.23422 0.16627 0.91167 0.0
C759 C 0.28285 0.1028 0.93165 0.0
C760 C 0.29819 0.12137 0.94134 0.0
C761 C 0.29225 0.06773 0.92955 0.0
C762 C 0.27826 0.04739 0.91904 0.0
C763 C 0.28104 0.05999 0.90705 0.0
C764 C 0.26741 0.04094 0.89721 0.0
C765 C 0.25113 0.00912 0.89923 0.0
C766 C 0.24853 0.99625 0.91109 0.0
C767 C 0.26208 0.01521 0.92097 0.0
H768 H 0.24059 0.99442 0.8916 0.0
H769 H 0.36949 0.17929 0.98773 0.0
H770 H 0.23123 0.07912 0.22546 0.0
H771 H 0.20667 0.03182 0.21298 0.0
H772 H 0.18148 0.9757 0.24572 0.0
H773 H 0.20562 0.02313 0.25825 0.0
H774 H 0.2157 0.93619 0.22536 0.0
H775 H 0.12609 0.02083 0.23352 0.0
H776 H 0.0996 0.07873 0.23285 0.0
H777 H 0.09746 0.0737 0.19362 0.0
H778 H 0.12535 0.01627 0.19398 0.0
H779 H 0.13345 0.8115 0.18666 0.0
H780 H 0.14264 0.84943 0.20461 0.0
H781 H 0.13424 0.93932 0.18149 0.0
H782 H 0.12248 0.90212 0.16406 0.0
H783 H 0.1094 0.95732 0.20099 0.0
H784 H 0.21605 0.89601 0.19103 0.0
H785 H 0.25288 0.84418 0.18801 0.0
H786 H 0.23405 0.81389 0.22512 0.0
H787 H 0.19681 0.86541 0.2283 0.0
C788 C 0.22058 0.05661 0.22997 0.0
C789 C 0.22 0.05481 0.24279 0.0
C790 C 0.2066 0.0297 0.22285 0.0
C791 C 0.19217 0.00047 0.22847 0.0
C792 C 0.19249 0.99812 0.24126 0.0
C793 C 0.20597 0.02527 0.24838 0.0
C794 C 0.17567 0.97292 0.22097 0.0
C795 C 0.19222 0.94058 0.22012 0.0
C796 C 0.14554 0.97929 0.21393 0.0
C797 C 0.12819 0.01394 0.21379 0.0
C798 C 0.12064 0.03213 0.22472 0.0
C799 C 0.10528 0.06499 0.2244 0.0
C800 C 0.09685 0.07991 0.2132 0.0
C801 C 0.10393 0.06207 0.2023 0.0
C802 C 0.11957 0.02934 0.20256 0.0
C803 C 0.13307 0.8394 0.18554 0.0
C804 C 0.12749 0.85382 0.17395 0.0
C805 C 0.13853 0.86109 0.19576 0.0
C806 C 0.13997 0.89744 0.19444 0.0
C807 C 0.13314 0.91155 0.1829 0.0
C808 C 0.12658 0.89011 0.17286 0.0
C809 C 0.15085 0.92122 0.20461 0.0
C810 C 0.13286 0.95276 0.20622 0.0
C811 C 0.181 0.91515 0.21172 0.0
C812 C 0.20331 0.88423 0.20984 0.0
C813 C 0.21962 0.87815 0.19851 0.0
C814 C 0.24057 0.84887 0.19678 0.0
C815 C 0.24569 0.82568 0.20636 0.0
C816 C 0.22997 0.83182 0.2177 0.0
C817 C 0.20894 0.86104 0.21947 0.0
H818 H 0.26192 0.80302 0.205 0.0
H819 H 0.0848 0.10528 0.21298 0.0
H820 H 0.27967 0.14087 0.52432 0.0
H821 H 0.32553 0.16376 0.53757 0.0
H822 H 0.28467 0.10534 0.56776 0.0
H823 H 0.23779 0.08363 0.55475 0.0
H824 H 0.30455 0.16837 0.57523 0.0
H825 H 0.35435 0.0756 0.55012 0.0
H826 H 0.36956 0.04759 0.53042 0.0
H827 H 0.42921 0.13701 0.52042 0.0
H828 H 0.414 0.16569 0.54001 0.0
H829 H 0.48415 0.12886 0.60247 0.0
H830 H 0.443 0.11967 0.58562 0.0
H831 H 0.40856 0.22569 0.5893 0.0
H832 H 0.44785 0.23439 0.60651 0.0
H833 H 0.4269 0.14383 0.56384 0.0
H834 H 0.3247 0.23297 0.58503 0.0
H835 H 0.31031 0.26004 0.60496 0.0
H836 H 0.35451 0.17285 0.62355 0.0
H837 H 0.36909 0.14535 0.60369 0.0
C838 C 0.27996 0.13341 0.53384 0.0
C839 C 0.25505 0.11019 0.53844 0.0
C840 C 0.30649 0.14623 0.54137 0.0
C841 C 0.30891 0.13581 0.5536 0.0
C842 C 0.28344 0.11362 0.55832 0.0
C843 C 0.25682 0.10095 0.55084 0.0
C844 C 0.33847 0.14689 0.56145 0.0
C845 C 0.33129 0.16311 0.57271 0.0
C846 C 0.37343 0.14026 0.55816 0.0
C847 C 0.38282 0.12286 0.54646 0.0
C848 C 0.37056 0.08933 0.54368 0.0
C849 C 0.37919 0.07334 0.53255 0.0
C850 C 0.40028 0.09054 0.52417 0.0
C851 C 0.41285 0.12374 0.52692 0.0
C852 C 0.40427 0.13985 0.53803 0.0
C853 C 0.46825 0.15039 0.5995 0.0
C854 C 0.46891 0.18224 0.60588 0.0
C855 C 0.44474 0.14514 0.58987 0.0
C856 C 0.42197 0.17182 0.58639 0.0
C857 C 0.42515 0.20455 0.59201 0.0
C858 C 0.44785 0.20954 0.6018 0.0
C859 C 0.39292 0.16458 0.57775 0.0
C860 C 0.40018 0.14932 0.56632 0.0
C861 C 0.35793 0.17179 0.58092 0.0
C862 C 0.34817 0.18732 0.5929 0.0
C863 C 0.33116 0.21957 0.59337 0.0
C864 C 0.32306 0.235 0.60465 0.0
C865 C 0.33153 0.21819 0.61552 0.0
C866 C 0.34802 0.18586 0.61512 0.0
C867 C 0.35624 0.17037 0.60386 0.0
H868 H 0.32529 0.23019 0.62424 0.0
H869 H 0.40692 0.07813 0.51555 0.0
H870 H 0.20421 0.91047 0.80418 0.0
H871 H 0.16977 0.95699 0.81375 0.0
H872 H 0.22599 0.03294 0.79285 0.0
H873 H 0.26091 0.98666 0.78359 0.0
H874 H 0.22998 0.04759 0.81602 0.0
H875 H 0.13558 0.01842 0.78895 0.0
H876 H 0.09274 0.98023 0.7788 0.0
H877 H 0.05106 0.95222 0.81375 0.0
H878 H 0.09347 0.99037 0.8241 0.0
H879 H 0.15209 0.18557 0.84779 0.0
H880 H 0.16515 0.14863 0.83001 0.0
H881 H 0.11124 0.06341 0.84684 0.0
H882 H 0.09693 0.10035 0.86429 0.0
H883 H 0.10338 0.05818 0.82331 0.0
H884 H 0.20144 0.07684 0.85035 0.0
H885 H 0.24413 0.11261 0.86163 0.0
H886 H 0.2801 0.1556 0.82784 0.0
H887 H 0.23734 0.12031 0.81638 0.0
C888 C 0.20852 0.93705 0.80144 0.0
C889 C 0.23541 0.94512 0.79329 0.0
C890 C 0.18873 0.96362 0.80685 0.0
C891 C 0.19521 0.99856 0.80401 0.0
C892 C 0.22057 0.00626 0.79522 0.0
C893 C 0.24055 0.97984 0.78996 0.0
C894 C 0.17951 0.02715 0.8114 0.0
C895 C 0.2022 0.05033 0.81735 0.0
C896 C 0.14336 0.03013 0.81351 0.0
C897 C 0.11788 0.00709 0.8073 0.0
C898 C 0.11738 0.00399 0.79447 0.0
C899 C 0.09305 0.98247 0.78868 0.0
C900 C 0.0691 0.9639 0.79562 0.0
C901 C 0.06944 0.96681 0.80837 0.0
C902 C 0.09354 0.98846 0.8142 0.0
C903 C 0.14255 0.15913 0.8476 0.0
C904 C 0.1241 0.14572 0.85757 0.0
C905 C 0.15009 0.13801 0.83745 0.0
C906 C 0.14006 0.1029 0.83724 0.0
C907 C 0.11949 0.09028 0.84679 0.0
C908 C 0.11146 0.11149 0.85682 0.0
C909 C 0.15396 0.07828 0.82789 0.0
C910 C 0.13107 0.05577 0.8217 0.0
C911 C 0.19004 0.07535 0.82568 0.0
C912 C 0.21599 0.09626 0.83254 0.0
C913 C 0.21836 0.09405 0.84534 0.0
C914 C 0.24256 0.11423 0.85176 0.0
C915 C 0.26474 0.13645 0.84545 0.0
C916 C 0.26285 0.13843 0.83271 0.0
C917 C 0.23867 0.11834 0.82625 0.0
H918 H 0.28344 0.15206 0.85044 0.0
H919 H 0.05029 0.94725 0.79113 0.0
H920 H 0.36346 0.93115 0.04392 0.0
H921 H 0.33158 0.91463 0.06222 0.0
H922 H 0.41014 0.8387 0.0706 0.0
H923 H 0.44257 0.85541 0.05228 0.0
H924 H 0.34373 0.81355 0.07409 0.0
H925 H 0.40977 0.91212 0.08649 0.0
H926 H 0.43365 0.97128 0.08503 0.0
H927 H 0.33077 0.01392 0.08674 0.0
H928 H 0.3062 0.95498 0.08801 0.0
H929 H 0.25293 0.79085 0.13022 0.0
H930 H 0.3024 0.80427 0.11705 0.0
H931 H 0.24481 0.88874 0.10124 0.0
H932 H 0.1959 0.87629 0.11451 0.0
H933 H 0.31157 0.90586 0.10407 0.0
H934 H 0.24666 0.80568 0.08787 0.0
H935 H 0.2228 0.74703 0.0909 0.0
H936 H 0.32538 0.70747 0.09721 0.0
H937 H 0.34978 0.76609 0.09441 0.0
C938 C 0.37413 0.9111 0.04969 0.0
C939 C 0.40575 0.89487 0.04672 0.0
C940 C 0.35583 0.90162 0.06013 0.0
C941 C 0.36882 0.87586 0.06787 0.0
C942 C 0.39979 0.85875 0.06476 0.0
C943 C 0.41818 0.86825 0.05428 0.0
C944 C 0.34991 0.86739 0.07924 0.0
C945 C 0.33727 0.83356 0.08078 0.0
C946 C 0.34148 0.8935 0.08796 0.0
C947 C 0.35613 0.92907 0.08727 0.0
C948 C 0.39221 0.93409 0.08647 0.0
C949 C 0.40588 0.96759 0.08568 0.0
C950 C 0.38374 0.99634 0.08577 0.0
C951 C 0.34789 0.99163 0.08667 0.0
C952 C 0.33408 0.95818 0.08744 0.0
C953 C 0.25103 0.81267 0.1241 0.0
C954 C 0.22022 0.83219 0.12332 0.0
C955 C 0.27928 0.8202 0.11654 0.0
C956 C 0.27701 0.84708 0.108 0.0
C957 C 0.2471 0.8678 0.10773 0.0
C958 C 0.21904 0.8605 0.11531 0.0
C959 C 0.30434 0.85246 0.09867 0.0
C960 C 0.31861 0.88572 0.09751 0.0
C961 C 0.31433 0.82584 0.09034 0.0
C962 C 0.29997 0.79027 0.09108 0.0
C963 C 0.2641 0.78444 0.0899 0.0
C964 C 0.25048 0.75124 0.09162 0.0
C965 C 0.27253 0.7236 0.09438 0.0
C966 C 0.30831 0.72898 0.0952 0.0
C967 C 0.32206 0.76217 0.09352 0.0
H968 H 0.26195 0.69795 0.0958 0.0
H969 H 0.39437 0.02225 0.08517 0.0
H970 H 0.36583 0.12228 0.32228 0.0
H971 H 0.39552 0.08148 0.33588 0.0
H972 H 0.4097 0.01025 0.30558 0.0
H973 H 0.38072 0.05116 0.29192 0.0
H974 H 0.3715 0.98597 0.32809 0.0
H975 H 0.47724 0.04187 0.31453 0.0
H976 H 0.51517 0.09243 0.31126 0.0
H977 H 0.51383 0.1154 0.34979 0.0
H978 H 0.47544 0.06524 0.35327 0.0
H979 H 0.462 0.84905 0.35489 0.0
H980 H 0.44163 0.89533 0.34168 0.0
H981 H 0.4695 0.97144 0.36927 0.0
H982 H 0.49213 0.92502 0.38222 0.0
H983 H 0.48576 0.99613 0.34873 0.0
H984 H 0.38187 0.94398 0.3633 0.0
H985 H 0.34082 0.89683 0.3679 0.0
H986 H 0.33342 0.8713 0.32965 0.0
H987 H 0.37479 0.91802 0.32483 0.0
C988 C 0.37598 0.09822 0.31851 0.0
C989 C 0.37111 0.08977 0.30608 0.0
C990 C 0.39291 0.07506 0.32625 0.0
C991 C 0.40468 0.04299 0.32169 0.0
C992 C 0.40086 0.035 0.30921 0.0
C993 C 0.38451 0.05839 0.30143 0.0
C994 C 0.41792 0.01643 0.33012 0.0
C995 C 0.39667 0.98782 0.3325 0.0
C996 C 0.45001 0.01994 0.33623 0.0
C997 C 0.47314 0.05003 0.33414 0.0
C998 C 0.48473 0.05791 0.32229 0.0
C999 C 0.50639 0.08645 0.3204 0.0
C1000 C 0.51682 0.10718 0.33031 0.0
C1001 C 0.50569 0.09936 0.34213 0.0
C1002 C 0.48401 0.07086 0.34406 0.0
C1003 C 0.46357 0.87564 0.35817 0.0
C1004 C 0.47827 0.88349 0.36962 0.0
C1005 C 0.45177 0.90212 0.35063 0.0
C1006 C 0.45316 0.93694 0.35458 0.0
C1007 C 0.468 0.94482 0.36602 0.0
C1008 C 0.48076 0.91832 0.37344 0.0
C1009 C 0.43954 0.96497 0.34665 0.0
C1010 C 0.46053 0.99405 0.34438 0.0
C1011 C 0.40669 0.96239 0.34086 0.0
C1012 C 0.38167 0.93433 0.34372 0.0
C1013 C 0.37166 0.92817 0.35588 0.0
C1014 C 0.34831 0.90154 0.35852 0.0
C1015 C 0.33458 0.88103 0.34908 0.0
C1016 C 0.3441 0.88718 0.33696 0.0
C1017 C 0.36747 0.91377 0.33426 0.0
H1018 H 0.31651 0.86042 0.35115 0.0
H1019 H 0.5336 0.12926 0.32883 0.0
H1020 H 0.84671 0.08222 0.56382 0.0
H1021 H 0.79939 0.08924 0.57854 0.0
H1022 H 0.73708 0.01652 0.55783 0.0
H1023 H 0.78471 0.00921 0.54306 0.0
H1024 H 0.70331 0.07975 0.56287 0.0
H1025 H 0.76052 0.992 0.58509 0.0
H1026 H 0.80987 0.96084 0.59422 0.0
H1027 H 0.83162 0.04879 0.61744 0.0
H1028 H 0.78276 0.08071 0.60832 0.0
H1029 H 0.59005 0.14996 0.61049 0.0
H1030 H 0.61663 0.10415 0.5976 0.0
H1031 H 0.71835 0.1425 0.6072 0.0
H1032 H 0.69276 0.18696 0.61993 0.0
H1033 H 0.71759 0.07359 0.60788 0.0
H1034 H 0.67494 0.16528 0.58005 0.0
H1035 H 0.6275 0.19879 0.57062 0.0
H1036 H 0.5797 0.10417 0.55813 0.0
H1037 H 0.62676 0.07013 0.56759 0.0
C1038 C 0.82316 0.06728 0.56253 0.0
C1039 C 0.81935 0.04515 0.55234 0.0
C1040 C 0.7962 0.07116 0.57096 0.0
C1041 C 0.7648 0.05321 0.56931 0.0
C1042 C 0.76117 0.03042 0.5593 0.0
C1043 C 0.78841 0.02614 0.55093 0.0
C1044 C 0.73522 0.06096 0.57758 0.0
C1045 C 0.70589 0.07749 0.57271 0.0
C1046 C 0.73851 0.05789 0.5904 0.0
C1047 C 0.76792 0.03878 0.59599 0.0
C1048 C 0.77594 0.00479 0.59209 0.0
C1049 C 0.80383 0.98697 0.59727 0.0
C1050 C 0.82387 0.00282 0.6064 0.0
C1051 C 0.81604 0.03652 0.61038 0.0
C1052 C 0.78819 0.05446 0.60522 0.0
C1053 C 0.61805 0.14834 0.60987 0.0
C1054 C 0.63916 0.17234 0.61621 0.0
C1055 C 0.63319 0.1222 0.60252 0.0
C1056 C 0.66954 0.11983 0.60146 0.0
C1057 C 0.69031 0.14345 0.60795 0.0
C1058 C 0.67544 0.16921 0.6152 0.0
C1059 C 0.6872 0.09462 0.59317 0.0
C1060 C 0.71427 0.07457 0.59803 0.0
C1061 C 0.68203 0.09475 0.58036 0.0
C1062 C 0.65404 0.11522 0.57463 0.0
C1063 C 0.65419 0.15166 0.57534 0.0
C1064 C 0.62741 0.17073 0.56999 0.0
C1065 C 0.60054 0.15361 0.56382 0.0
C1066 C 0.60047 0.11739 0.56294 0.0
C1067 C 0.62718 0.0982 0.56829 0.0
H1068 H 0.57982 0.16841 0.55968 0.0
H1069 H 0.84545 0.98899 0.6104 0.0
H1070 H 0.79171 0.95927 0.29065 0.0
H1071 H 0.76487 0.91128 0.30167 0.0
H1072 H 0.77212 0.97011 0.33539 0.0
H1073 H 0.79896 0.0181 0.32444 0.0
H1074 H 0.79164 0.90388 0.33871 0.0
H1075 H 0.69574 0.96348 0.31917 0.0
H1076 H 0.6635 0.9866 0.30154 0.0
H1077 H 0.65827 0.88443 0.28553 0.0
H1078 H 0.69089 0.86079 0.30302 0.0
H1079 H 0.65779 0.85945 0.37788 0.0
H1080 H 0.69973 0.88294 0.36356 0.0
H1081 H 0.68008 0.79769 0.33858 0.0
H1082 H 0.63773 0.77361 0.35314 0.0
H1083 H 0.6731 0.86354 0.32803 0.0
H1084 H 0.75833 0.80301 0.3505 0.0
H1085 H 0.78802 0.78135 0.36888 0.0
H1086 H 0.81188 0.88587 0.38 0.0
H1087 H 0.78189 0.90823 0.36179 0.0
C1088 C 0.78727 0.9621 0.3004 0.0
C1089 C 0.79727 0.99259 0.30667 0.0
C1090 C 0.77209 0.93458 0.30668 0.0
C1091 C 0.76633 0.93715 0.31934 0.0
C1092 C 0.77652 0.96745 0.32563 0.0
C1093 C 0.79181 0.99489 0.31937 0.0
C1094 C 0.74902 0.90878 0.3261 0.0
C1095 C 0.76572 0.89505 0.33639 0.0
C1096 C 0.71573 0.89627 0.3228 0.0
C1097 C 0.69613 0.91046 0.31231 0.0
C1098 C 0.68796 0.94601 0.31184 0.0
C1099 C 0.66958 0.95919 0.30189 0.0
C1100 C 0.65895 0.93702 0.2924 0.0
C1101 C 0.6666 0.90159 0.29287 0.0
C1102 C 0.68502 0.88828 0.3028 0.0
C1103 C 0.6628 0.84533 0.36943 0.0
C1104 C 0.64437 0.8149 0.36654 0.0
C1105 C 0.68696 0.85866 0.36129 0.0
C1106 C 0.69315 0.842 0.35003 0.0
C1107 C 0.67573 0.81082 0.34726 0.0
C1108 C 0.65175 0.79705 0.35556 0.0
C1109 C 0.7152 0.85966 0.34091 0.0
C1110 C 0.69944 0.8715 0.33016 0.0
C1111 C 0.74927 0.87058 0.34383 0.0
C1112 C 0.76774 0.85731 0.35477 0.0
C1113 C 0.76974 0.82141 0.3569 0.0
C1114 C 0.78665 0.809 0.36729 0.0
C1115 C 0.80181 0.83222 0.37561 0.0
C1116 C 0.80016 0.86791 0.37354 0.0
C1117 C 0.78326 0.88047 0.36317 0.0
H1118 H 0.81487 0.82256 0.38365 0.0
H1119 H 0.64471 0.94727 0.28471 0.0
H1120 H 0.78684 0.95892 0.07049 0.0
H1121 H 0.82807 0.92495 0.08249 0.0
H1122 H 0.86726 0.87736 0.04937 0.0
H1123 H 0.82685 0.9119 0.03728 0.0
H1124 H 0.84351 0.85412 0.08523 0.0
H1125 H 0.95561 0.87696 0.05197 0.0
H1126 H 0.97257 0.91737 0.03565 0.0
H1127 H 0.9138 0.99886 0.05301 0.0
H1128 H 0.8969 0.95905 0.0695 0.0
H1129 H 0.999 0.76828 0.10658 0.0
H1130 H 0.9523 0.78712 0.09285 0.0
H1131 H 0.97481 0.89388 0.10205 0.0
H1132 H 0.02072 0.87536 0.11583 0.0
H1133 H 0.96703 0.88233 0.0772 0.0
H1134 H 0.91016 0.85483 0.11525 0.0
H1135 H 0.89362 0.81631 0.13213 0.0
H1136 H 0.84146 0.74842 0.10673 0.0
H1137 H 0.85834 0.78616 0.08966 0.0
C1138 C 0.80414 0.94111 0.06577 0.0
C1139 C 0.80388 0.93842 0.05293 0.0
C1140 C 0.82736 0.92143 0.07264 0.0
C1141 C 0.85082 0.8989 0.06679 0.0
C1142 C 0.84944 0.89479 0.05403 0.0
C1143 C 0.82624 0.91445 0.04715 0.0
C1144 C 0.879 0.88263 0.07391 0.0
C1145 C 0.87054 0.86 0.08343 0.0
C1146 C 0.9142 0.89056 0.07159 0.0
C1147 C 0.92472 0.91493 0.06187 0.0
C1148 C 0.94643 0.90354 0.05231 0.0
C1149 C 0.95602 0.92633 0.04304 0.0
C1150 C 0.94417 0.96063 0.04327 0.0
C1151 C 0.92285 0.97225 0.05282 0.0
C1152 C 0.91324 0.94959 0.06212 0.0
C1153 C 0.99356 0.79565 0.1058 0.0
C1154 C 0.01313 0.82021 0.11244 0.0
C1155 C 0.96713 0.80638 0.09791 0.0
C1156 C 0.96003 0.84184 0.09655 0.0
C1157 C 0.97997 0.86638 0.10297 0.0
C1158 C 0.00619 0.85571 0.11086 0.0
C1159 C 0.93163 0.8539 0.08857 0.0
C1160 C 0.94006 0.87589 0.07889 0.0
C1161 C 0.89648 0.84557 0.09084 0.0
C1162 C 0.88603 0.82304 0.10113 0.0
C1163 C 0.89552 0.83148 0.11324 0.0
C1164 C 0.88602 0.80981 0.12285 0.0
C1165 C 0.86662 0.77986 0.1205 0.0
C1166 C 0.85655 0.7716 0.10853 0.0
C1167 C 0.86614 0.79309 0.09888 0.0
H1168 H 0.8593 0.7631 0.12795 0.0
H1169 H 0.95158 0.97821 0.03608 0.0
H1170 H 0.97157 0.94247 0.79898 0.0
H1171 H 0.99403 0.98135 0.81517 0.0
H1172 H 0.92515 0.06228 0.80311 0.0
H1173 H 0.90216 0.02361 0.78719 0.0
H1174 H 0.99683 0.08264 0.80646 0.0
H1175 H 0.90348 0.01989 0.8272 0.0
H1176 H 0.8755 0.96641 0.83451 0.0
H1177 H 0.96696 0.94115 0.85504 0.0
H1178 H 0.99563 0.9943 0.84771 0.0
H1179 H 0.97597 0.21279 0.85048 0.0
H1180 H 0.96726 0.16459 0.83604 0.0
H1181 H 0.02911 0.09801 0.85888 0.0
H1182 H 0.03662 0.14596 0.87359 0.0
H1183 H 0.97321 0.06439 0.85055 0.0
H1184 H 0.06385 0.12929 0.83312 0.0
H1185 H 0.09519 0.18113 0.82605 0.0
H1186 H 0.01589 0.19966 0.79933 0.0
H1187 H 0.9837 0.14832 0.80637 0.0
C1188 C 0.96123 0.96854 0.79985 0.0
C1189 C 0.93494 0.98004 0.79195 0.0
C1190 C 0.97409 0.99062 0.80904 0.0
C1191 C 0.96132 0.0246 0.81024 0.0
C1192 C 0.93535 0.03613 0.80228 0.0
C1193 C 0.92207 0.01397 0.79328 0.0
C1194 C 0.97459 0.04854 0.8198 0.0
C1195 C 0.9916 0.07881 0.8161 0.0
C1196 C 0.96914 0.0426 0.83238 0.0
C1197 C 0.95182 0.01081 0.8368 0.0
C1198 C 0.91772 0.00276 0.83319 0.0
C1199 C 0.90171 0.97256 0.83735 0.0
C1200 C 0.91948 0.95034 0.8452 0.0
C1201 C 0.95325 0.95835 0.84894 0.0
C1202 C 0.96938 0.98851 0.84479 0.0
C1203 C 0.9875 0.1878 0.85245 0.0
C1204 C 0.00781 0.18323 0.86296 0.0
C1205 C 0.98281 0.1604 0.84415 0.0
C1206 C 0.99833 0.12798 0.84624 0.0
C1207 C 0.01744 0.12297 0.85699 0.0
C1208 C 0.02214 0.15043 0.86529 0.0
C1209 C 0.99405 0.09942 0.83718 0.0
C1210 C 0.97901 0.06814 0.84095 0.0
C1211 C 0.00195 0.10413 0.82466 0.0
C1212 C 0.02125 0.13502 0.82034 0.0
C1213 C 0.05297 0.14454 0.82579 0.0
C1214 C 0.07091 0.17381 0.82178 0.0
C1215 C 0.05755 0.19365 0.81226 0.0
C1216 C 0.02622 0.18425 0.80671 0.0
C1217 C 0.00812 0.15504 0.8107 0.0
H1218 H 0.07148 0.21631 0.80917 0.0
H1219 H 0.90704 0.92697 0.84842 0.0
H1220 H 0.84064 0.95396 0.46682 0.0
H1221 H 0.7955 0.92965 0.45359 0.0
H1222 H 0.71847 0.99264 0.47193 0.0
H1223 H 0.7636 0.01678 0.48539 0.0
H1224 H 0.69627 0.92463 0.46803 0.0
H1225 H 0.74202 0.01647 0.44457 0.0
H1226 H 0.78722 0.05313 0.43536 0.0
H1227 H 0.82437 0.96593 0.41434 0.0
H1228 H 0.77975 0.92858 0.42356 0.0
H1229 H 0.59133 0.84463 0.41972 0.0
H1230 H 0.6146 0.89107 0.43307 0.0
H1231 H 0.7188 0.85879 0.42399 0.0
H1232 H 0.69637 0.81367 0.41075 0.0
H1233 H 0.7132 0.92751 0.42307 0.0
H1234 H 0.67535 0.83448 0.45112 0.0
H1235 H 0.62948 0.7985 0.46034 0.0
H1236 H 0.57565 0.8905 0.47226 0.0
H1237 H 0.62106 0.92693 0.46302 0.0
C1238 C 0.81408 0.96249 0.4681 0.0
C1239 C 0.80572 0.98739 0.47711 0.0
C1240 C 0.78834 0.94878 0.46048 0.0
C1241 C 0.7537 0.95969 0.46168 0.0
C1242 C 0.74507 0.98405 0.47081 0.0
C1243 C 0.7709 0.99797 0.47841 0.0
C1244 C 0.72691 0.9453 0.45331 0.0
C1245 C 0.69949 0.92584 0.45819 0.0
C1246 C 0.73079 0.94728 0.44048 0.0
C1247 C 0.75758 0.96968 0.43481 0.0
C1248 C 0.75996 0.00504 0.43804 0.0
C1249 C 0.78547 0.02596 0.43281 0.0
C1250 C 0.80867 0.01186 0.42428 0.0
C1251 C 0.80637 0.97682 0.42095 0.0
C1252 C 0.78093 0.95577 0.42616 0.0
C1253 C 0.61915 0.84765 0.42057 0.0
C1254 C 0.64189 0.82533 0.41416 0.0
C1255 C 0.63241 0.87412 0.4282 0.0
C1256 C 0.66849 0.87839 0.42953 0.0
C1257 C 0.69091 0.85627 0.42305 0.0
C1258 C 0.67788 0.83022 0.41549 0.0
C1259 C 0.68413 0.9049 0.4378 0.0
C1260 C 0.70938 0.92702 0.4329 0.0
C1261 C 0.67814 0.90539 0.45057 0.0
C1262 C 0.65133 0.88338 0.45629 0.0
C1263 C 0.65363 0.84698 0.45567 0.0
C1264 C 0.62773 0.82652 0.4609 0.0
C1265 C 0.59958 0.84219 0.46685 0.0
C1266 C 0.59739 0.87836 0.46764 0.0
C1267 C 0.62321 0.89892 0.46242 0.0
H1268 H 0.57952 0.82632 0.47088 0.0
H1269 H 0.8284 0.0281 0.42024 0.0
H1270 H 0.93852 0.97511 0.24922 0.0
H1271 H 0.95962 0.93911 0.23227 0.0
H1272 H 0.9303 0.0185 0.20675 0.0
H1273 H 0.90959 0.05509 0.22371 0.0
H1274 H 0.90987 0.94997 0.19999 0.0
H1275 H 0.00982 0.00994 0.21635 0.0
H1276 H 0.04719 0.02535 0.23381 0.0
H1277 H 0.08002 0.91928 0.23669 0.0
H1278 H 0.04039 0.90253 0.21999 0.0
H1279 H 0.98295 0.85596 0.15087 0.0
H1280 H 0.96999 0.90464 0.16477 0.0
H1281 H 0.02332 0.85164 0.19395 0.0
H1282 H 0.03881 0.80476 0.1797 0.0
H1283 H 0.03333 0.91396 0.1975 0.0
H1284 H 0.92894 0.84996 0.18846 0.0
H1285 H 0.8839 0.8242 0.17514 0.0
H1286 H 0.85807 0.92525 0.16165 0.0
H1287 H 0.90327 0.95155 0.1748 0.0
C1288 C 0.9369 0.98514 0.24002 0.0
C1289 C 0.92271 0.01816 0.23783 0.0
C1290 C 0.94879 0.96443 0.23035 0.0
C1291 C 0.94688 0.97637 0.2183 0.0
C1292 C 0.93204 0.00892 0.21601 0.0
C1293 C 0.92017 0.02973 0.2257 0.0
C1294 C 0.96052 0.95483 0.20809 0.0
C1295 C 0.93696 0.94247 0.19931 0.0
C1296 C 0.99572 0.94423 0.20752 0.0
C1297 C 0.02148 0.95486 0.217 0.0
C1298 C 0.02454 0.98974 0.2208 0.0
C1299 C 0.04599 0.99868 0.23064 0.0
C1300 C 0.06594 0.9733 0.23638 0.0
C1301 C 0.0644 0.93889 0.23229 0.0
C1302 C 0.04212 0.92959 0.22272 0.0
C1303 C 0.99216 0.85519 0.16023 0.0
C1304 C 0.01133 0.82675 0.16438 0.0
C1305 C 0.98459 0.88278 0.16819 0.0
C1306 C 0.9946 0.88141 0.18056 0.0
C1307 C 0.01506 0.85339 0.1845 0.0
C1308 C 0.02372 0.82649 0.17642 0.0
C1309 C 0.9824 0.90791 0.18959 0.0
C1310 C 0.00626 0.92156 0.19809 0.0
C1311 C 0.94713 0.91833 0.19032 0.0
C1312 C 0.91973 0.90265 0.1825 0.0
C1313 C 0.91377 0.86664 0.18261 0.0
C1314 C 0.88822 0.85195 0.17509 0.0
C1315 C 0.86822 0.87306 0.16752 0.0
C1316 C 0.87364 0.90893 0.1675 0.0
C1317 C 0.8992 0.92374 0.17498 0.0
H1318 H 0.84847 0.86164 0.1617 0.0
H1319 H 0.08271 0.98034 0.24395 0.0
H1320 H 0.79859 0.05379 0.97227 0.0
H1321 H 0.83632 0.08029 0.95708 0.0
H1322 H 0.84289 0.17331 0.9792 0.0
H1323 H 0.80665 0.14644 0.99485 0.0
H1324 H 0.83116 0.17807 0.95056 0.0
H1325 H 0.90593 0.13353 0.98271 0.0
H1326 H 0.92517 0.08801 0.99689 0.0
H1327 H 0.94522 0.01926 0.96651 0.0
H1328 H 0.92554 0.06423 0.95216 0.0
H1329 H 0.98754 0.245 0.9215 0.0
H1330 H 0.93994 0.23067 0.93551 0.0
H1331 H 0.94641 0.12334 0.92405 0.0
H1332 H 0.99337 0.13743 0.91008 0.0
H1333 H 0.95052 0.13015 0.94832 0.0
H1334 H 0.88267 0.17502 0.9158 0.0
H1335 H 0.8591 0.21641 0.90097 0.0
H1336 H 0.81994 0.28003 0.93034 0.0
H1337 H 0.84528 0.24036 0.94539 0.0
C1338 C 0.80816 0.0798 0.974 0.0
C1339 C 0.7999 0.09772 0.98491 0.0
C1340 C 0.82937 0.09502 0.96522 0.0
C1341 C 0.84227 0.12864 0.96707 0.0
C1342 C 0.83287 0.14737 0.97762 0.0
C1343 C 0.81208 0.13195 0.98652 0.0
C1344 C 0.86789 0.14281 0.95843 0.0
C1345 C 0.85755 0.16833 0.95015 0.0
C1346 C 0.90175 0.12902 0.95779 0.0
C1347 C 0.91393 0.1021 0.96639 0.0
C1348 C 0.91413 0.10859 0.97907 0.0
C1349 C 0.92518 0.08291 0.98713 0.0
C1350 C 0.93632 0.05072 0.9826 0.0
C1351 C 0.93653 0.04419 0.97 0.0
C1352 C 0.92547 0.06977 0.9619 0.0
C1353 C 0.97822 0.21856 0.92178 0.0
C1354 C 0.99427 0.19237 0.91472 0.0
C1355 C 0.95112 0.21038 0.92981 0.0
C1356 C 0.93974 0.17591 0.93083 0.0
C1357 C 0.95495 0.15006 0.92346 0.0
C1358 C 0.98186 0.15817 0.91549 0.0
C1359 C 0.9141 0.16575 0.94024 0.0
C1360 C 0.9244 0.14067 0.94873 0.0
C1361 C 0.88013 0.17986 0.94091 0.0
C1362 C 0.86664 0.20491 0.93179 0.0
C1363 C 0.86997 0.19833 0.91915 0.0
C1364 C 0.85622 0.22153 0.91067 0.0
C1365 C 0.83828 0.25103 0.9147 0.0
C1366 C 0.83406 0.25735 0.92721 0.0
C1367 C 0.84844 0.23468 0.93573 0.0
H1368 H 0.82745 0.26884 0.90813 0.0
H1369 H 0.94486 0.03088 0.98886 0.0
H1370 H 0.76366 0.9832 0.71906 0.0
H1371 H 0.73339 0.02963 0.70842 0.0
H1372 H 0.82037 0.09799 0.71459 0.0
H1373 H 0.85071 0.05178 0.72546 0.0
H1374 H 0.71227 0.09489 0.71527 0.0
H1375 H 0.82796 0.14771 0.68831 0.0
H1376 H 0.8856 0.1289 0.68092 0.0
H1377 H 0.85042 0.02323 0.67914 0.0
H1378 H 0.79251 0.04149 0.68636 0.0
H1379 H 0.63855 0.22318 0.67613 0.0
H1380 H 0.68277 0.20122 0.6904 0.0
H1381 H 0.70326 0.11526 0.66579 0.0
H1382 H 0.65955 0.13677 0.65172 0.0
H1383 H 0.76277 0.1387 0.67664 0.0
H1384 H 0.64407 0.10667 0.68799 0.0
H1385 H 0.58399 0.12063 0.69412 0.0
H1386 H 0.62187 0.17712 0.72547 0.0
H1387 H 0.68222 0.16378 0.71942 0.0
C1388 C 0.77621 0.00823 0.71832 0.0
C1389 C 0.80971 0.01367 0.72307 0.0
C1390 C 0.75886 0.03476 0.71223 0.0
C1391 C 0.77467 0.06722 0.71069 0.0
C1392 C 0.80783 0.07303 0.71559 0.0
C1393 C 0.82521 0.0465 0.72172 0.0
C1394 C 0.75688 0.0941 0.70338 0.0
C1395 C 0.72355 0.10492 0.70693 0.0
C1396 C 0.77155 0.1072 0.6925 0.0
C1397 C 0.80612 0.09593 0.68803 0.0
C1398 C 0.83255 0.12048 0.68632 0.0
C1399 C 0.86525 0.10992 0.68216 0.0
C1400 C 0.87171 0.07487 0.67961 0.0
C1401 C 0.84544 0.05034 0.68117 0.0
C1402 C 0.81269 0.06077 0.68531 0.0
C1403 C 0.65316 0.20008 0.6737 0.0
C1404 C 0.64536 0.18131 0.66296 0.0
C1405 C 0.67828 0.18754 0.68184 0.0
C1406 C 0.69604 0.15643 0.67919 0.0
C1407 C 0.68994 0.1393 0.66802 0.0
C1408 C 0.66474 0.15147 0.66003 0.0
C1409 C 0.71794 0.13895 0.68841 0.0
C1410 C 0.75204 0.12977 0.68522 0.0
C1411 C 0.70376 0.12686 0.69951 0.0
C1412 C 0.66757 0.13461 0.70319 0.0
C1413 C 0.63955 0.12226 0.69615 0.0
C1414 C 0.60548 0.13003 0.69961 0.0
C1415 C 0.59912 0.14985 0.71016 0.0
C1416 C 0.62684 0.16184 0.71729 0.0
C1417 C 0.66097 0.15419 0.71385 0.0
H1418 H 0.57272 0.15584 0.71283 0.0
H1419 H 0.89704 0.06675 0.6764 0.0
H1420 H 0.76366 0.39745 0.99276 0.0
H1421 H 0.80854 0.37054 0.98017 0.0
H1422 H 0.79795 0.45232 0.95377 0.0
H1423 H 0.75105 0.47786 0.96579 0.0
H1424 H 0.80686 0.39615 0.94212 0.0
H1425 H 0.86568 0.44941 0.97584 0.0
H1426 H 0.87862 0.46223 0.99752 0.0
H1427 H 0.90408 0.35514 0.00331 0.0
H1428 H 0.89083 0.34158 0.9817 0.0
H1429 H 0.99789 0.36349 0.92616 0.0
H1430 H 0.95611 0.38628 0.94105 0.0
H1431 H 0.88475 0.30455 0.93144 0.0
H1432 H 0.92577 0.28168 0.91641 0.0
H1433 H 0.9194 0.36391 0.96098 0.0
H1434 H 0.8045 0.34195 0.92709 0.0
H1435 H 0.79514 0.33698 0.90481 0.0
H1436 H 0.88714 0.39687 0.89837 0.0
H1437 H 0.89695 0.4023 0.92059 0.0
C1438 C 0.77021 0.40937 0.98414 0.0
C1439 C 0.75367 0.44004 0.98036 0.0
C1440 C 0.79642 0.39422 0.97704 0.0
C1441 C 0.80731 0.40982 0.96615 0.0
C1442 C 0.79025 0.43989 0.96218 0.0
C1443 C 0.76362 0.45471 0.96916 0.0
C1444 C 0.83639 0.39486 0.95886 0.0
C1445 C 0.83139 0.38909 0.94628 0.0
C1446 C 0.86884 0.38636 0.96419 0.0
C1447 C 0.87695 0.39443 0.97718 0.0
C1448 C 0.87381 0.42855 0.98176 0.0
C1449 C 0.88123 0.43596 0.99403 0.0
C1450 C 0.89208 0.4095 0.0018 0.0
C1451 C 0.89562 0.37559 0.99729 0.0
C1452 C 0.88819 0.36804 0.98503 0.0
C1453 C 0.9736 0.34983 0.92739 0.0
C1454 C 0.96495 0.3211 0.91991 0.0
C1455 C 0.94978 0.36291 0.93592 0.0
C1456 C 0.91704 0.34746 0.93711 0.0
C1457 C 0.90961 0.31709 0.93044 0.0
C1458 C 0.9332 0.30408 0.92188 0.0
C1459 C 0.8894 0.36469 0.94438 0.0
C1460 C 0.89473 0.37089 0.9569 0.0
C1461 C 0.85768 0.3748 0.93893 0.0
C1462 C 0.85177 0.37196 0.92552 0.0
C1463 C 0.82277 0.35398 0.92092 0.0
C1464 C 0.81738 0.35111 0.9083 0.0
C1465 C 0.84064 0.36644 0.90018 0.0
C1466 C 0.86928 0.38479 0.90466 0.0
C1467 C 0.87481 0.38768 0.91727 0.0
H1468 H 0.83639 0.36423 0.89041 0.0
H1469 H 0.89782 0.41529 0.0113 0.0
H1470 H 0.83359 0.4548 0.22982 0.0
H1471 H 0.85116 0.49378 0.2135 0.0
H1472 H 0.94445 0.43354 0.20789 0.0
H1473 H 0.92736 0.39509 0.22456 0.0
H1474 H 0.96038 0.49821 0.20804 0.0
H1475 H 0.87368 0.43213 0.18721 0.0
H1476 H 0.81644 0.40502 0.18395 0.0
H1477 H 0.76806 0.50547 0.18455 0.0
H1478 H 0.82498 0.53318 0.18798 0.0
H1479 H 0.00736 0.58418 0.15383 0.0
H1480 H 0.98553 0.53838 0.16696 0.0
H1481 H 0.90226 0.60521 0.17906 0.0
H1482 H 0.92385 0.65146 0.1659 0.0
H1483 H 0.88193 0.53506 0.17458 0.0
H1484 H 0.97087 0.59956 0.19637 0.0
H1485 H 0.02932 0.62487 0.19859 0.0
H1486 H 0.07482 0.5235 0.19499 0.0
H1487 H 0.01661 0.49763 0.19256 0.0
C1488 C 0.8576 0.4496 0.22498 0.0
C1489 C 0.87904 0.42184 0.22839 0.0
C1490 C 0.8676 0.47184 0.21562 0.0
C1491 C 0.89889 0.46634 0.20929 0.0
C1492 C 0.92017 0.43832 0.21261 0.0
C1493 C 0.91041 0.41636 0.22211 0.0
C1494 C 0.91018 0.49087 0.19967 0.0
C1495 C 0.94337 0.50571 0.20061 0.0
C1496 C 0.88788 0.50126 0.19006 0.0
C1497 C 0.85359 0.48471 0.18796 0.0
C1498 C 0.85081 0.44843 0.18674 0.0
C1499 C 0.81842 0.43296 0.18484 0.0
C1500 C 0.78862 0.4535 0.18407 0.0
C1501 C 0.79117 0.48958 0.18516 0.0
C1502 C 0.82349 0.50519 0.18706 0.0
C1503 C 0.98414 0.58916 0.15915 0.0
C1504 C 0.96756 0.62173 0.15889 0.0
C1505 C 0.97177 0.56289 0.16667 0.0
C1506 C 0.94258 0.56861 0.17408 0.0
C1507 C 0.9249 0.60038 0.17342 0.0
C1508 C 0.93736 0.6268 0.16592 0.0
C1509 C 0.93184 0.54218 0.18305 0.0
C1510 C 0.89885 0.52717 0.18199 0.0
C1511 C 0.95445 0.53125 0.19246 0.0
C1512 C 0.98941 0.54671 0.19417 0.0
C1513 C 0.99335 0.58269 0.19598 0.0
C1514 C 0.02643 0.59714 0.19728 0.0
C1515 C 0.05578 0.57582 0.1969 0.0
C1516 C 0.05207 0.53999 0.19526 0.0
C1517 C 0.01904 0.52542 0.19393 0.0
H1518 H 0.08138 0.58706 0.19789 0.0
H1519 H 0.76357 0.44147 0.18261 0.0
H1520 H 0.94147 0.6331 0.47787 0.0
H1521 H 0.90719 0.64582 0.4596 0.0
H1522 H 0.83225 0.56844 0.47001 0.0
H1523 H 0.86617 0.55574 0.48828 0.0
H1524 H 0.84549 0.56581 0.44557 0.0
H1525 H 0.8182 0.65336 0.47621 0.0
H1526 H 0.83208 0.70033 0.49092 0.0
H1527 H 0.87539 0.76096 0.46195 0.0
H1528 H 0.86219 0.71409 0.44709 0.0
H1529 H 0.6875 0.61684 0.41864 0.0
H1530 H 0.73636 0.60036 0.43147 0.0
H1531 H 0.79711 0.68409 0.41673 0.0
H1532 H 0.7481 0.70118 0.40393 0.0
H1533 H 0.79836 0.6849 0.44115 0.0
H1534 H 0.81772 0.60005 0.40996 0.0
H1535 H 0.80255 0.55322 0.39537 0.0
H1536 H 0.77342 0.48753 0.42513 0.0
H1537 H 0.78794 0.53414 0.43991 0.0
C1538 C 0.91767 0.61884 0.47626 0.0
C1539 C 0.90642 0.59355 0.48456 0.0
C1540 C 0.89821 0.62603 0.4658 0.0
C1541 C 0.86705 0.60826 0.46351 0.0
C1542 C 0.85631 0.58233 0.47158 0.0
C1543 C 0.87575 0.57508 0.48201 0.0
C1544 C 0.84458 0.61772 0.45307 0.0
C1545 C 0.83503 0.59179 0.44461 0.0
C1546 C 0.83175 0.65186 0.45165 0.0
C1547 C 0.8396 0.68006 0.46057 0.0
C1548 C 0.83094 0.67659 0.473 0.0
C1549 C 0.83864 0.70321 0.48136 0.0
C1550 C 0.85471 0.73356 0.47738 0.0
C1551 C 0.86302 0.7374 0.46502 0.0
C1552 C 0.85543 0.71082 0.45663 0.0
C1553 C 0.71136 0.63154 0.41798 0.0
C1554 C 0.71375 0.66049 0.4103 0.0
C1555 C 0.73939 0.62191 0.42528 0.0
C1556 C 0.77047 0.64084 0.42499 0.0
C1557 C 0.77336 0.6691 0.41707 0.0
C1558 C 0.74531 0.67877 0.40975 0.0
C1559 C 0.79868 0.63283 0.43373 0.0
C1560 C 0.80928 0.65904 0.44192 0.0
C1561 C 0.81238 0.59893 0.43489 0.0
C1562 C 0.80372 0.57072 0.42604 0.0
C1563 C 0.80784 0.57572 0.4134 0.0
C1564 C 0.7994 0.54919 0.40509 0.0
C1565 C 0.78698 0.51744 0.40932 0.0
C1566 C 0.78304 0.51214 0.42187 0.0
C1567 C 0.79142 0.53859 0.43022 0.0
H1568 H 0.78045 0.49694 0.40288 0.0
H1569 H 0.86064 0.75415 0.48386 0.0
H1570 H 0.71789 0.56421 0.74013 0.0
H1571 H 0.68063 0.52198 0.72963 0.0
H1572 H 0.75435 0.51519 0.69998 0.0
H1573 H 0.79058 0.55864 0.71005 0.0
H1574 H 0.6928 0.51403 0.69094 0.0
H1575 H 0.75057 0.45432 0.72367 0.0
H1576 H 0.7673 0.44391 0.74511 0.0
H1577 H 0.66013 0.43159 0.75489 0.0
H1578 H 0.64274 0.44237 0.73353 0.0
H1579 H 0.66245 0.32328 0.67841 0.0
H1580 H 0.68225 0.3672 0.69307 0.0
H1581 H 0.59752 0.43388 0.68286 0.0
H1582 H 0.57783 0.39057 0.66792 0.0
H1583 H 0.65995 0.4062 0.7125 0.0
H1584 H 0.6323 0.51535 0.67787 0.0
H1585 H 0.6223 0.52179 0.6557 0.0
H1586 H 0.68139 0.42927 0.64849 0.0
H1587 H 0.69248 0.4228 0.67057 0.0
C1588 C 0.72583 0.55423 0.73126 0.0
C1589 C 0.75746 0.56459 0.726 0.0
C1590 C 0.70468 0.52976 0.72533 0.0
C1591 C 0.71495 0.51489 0.71411 0.0
C1592 C 0.74589 0.52612 0.70866 0.0
C1593 C 0.76681 0.55074 0.7145 0.0
C1594 C 0.69426 0.48696 0.70809 0.0
C1595 C 0.68536 0.49064 0.69571 0.0
C1596 C 0.68494 0.4561 0.71422 0.0
C1597 C 0.69535 0.44954 0.72705 0.0
C1598 C 0.73057 0.44964 0.73042 0.0
C1599 C 0.74017 0.44364 0.74255 0.0
C1600 C 0.71479 0.4372 0.75137 0.0
C1601 C 0.67975 0.43666 0.74806 0.0
C1602 C 0.67001 0.4427 0.73595 0.0
C1603 C 0.64743 0.34689 0.67947 0.0
C1604 C 0.61899 0.35368 0.67178 0.0
C1605 C 0.65875 0.37195 0.68791 0.0
C1606 C 0.64178 0.40411 0.68882 0.0
C1607 C 0.61128 0.40946 0.68209 0.0
C1608 C 0.60008 0.3846 0.67358 0.0
C1609 C 0.65861 0.43342 0.69542 0.0
C1610 C 0.66682 0.42995 0.70785 0.0
C1611 C 0.66831 0.46407 0.68924 0.0
C1612 C 0.66272 0.46832 0.6759 0.0
C1613 C 0.64334 0.49652 0.67155 0.0
C1614 C 0.63752 0.50019 0.65899 0.0
C1615 C 0.65105 0.47586 0.6507 0.0
C1616 C 0.67076 0.448 0.65493 0.0
C1617 C 0.67685 0.44435 0.66746 0.0
H1618 H 0.64636 0.47864 0.641 0.0
H1619 H 0.72227 0.43255 0.76075 0.0
H1620 H 0.80568 0.55274 0.03528 0.0
H1621 H 0.85302 0.58231 0.04598 0.0
H1622 H 0.78169 0.66125 0.05867 0.0
H1623 H 0.73421 0.63202 0.04765 0.0
H1624 H 0.84504 0.68896 0.05334 0.0
H1625 H 0.80152 0.59345 0.07672 0.0
H1626 H 0.78445 0.53269 0.08022 0.0
H1627 H 0.88852 0.49902 0.07254 0.0
H1628 H 0.90609 0.55958 0.06882 0.0
H1629 H 0.92876 0.73661 0.10937 0.0
H1630 H 0.89216 0.72067 0.09202 0.0
H1631 H 0.96697 0.64345 0.08075 0.0
H1632 H 0.00371 0.65887 0.0982 0.0
H1633 H 0.90448 0.61596 0.08404 0.0
H1634 H 0.94934 0.71502 0.06384 0.0
H1635 H 0.96474 0.77638 0.06083 0.0
H1636 H 0.85731 0.80513 0.06316 0.0
H1637 H 0.84125 0.7441 0.0666 0.0
C1638 C 0.80018 0.57656 0.04028 0.0
C1639 C 0.76625 0.58984 0.04083 0.0
C1640 C 0.82722 0.59346 0.04636 0.0
C1641 C 0.82075 0.6236 0.05333 0.0
C1642 C 0.78722 0.63797 0.05337 0.0
C1643 C 0.76014 0.62124 0.04713 0.0
C1644 C 0.84832 0.63825 0.06133 0.0
C1645 C 0.85791 0.67322 0.06015 0.0
C1646 C 0.86547 0.61741 0.07004 0.0
C1647 C 0.85502 0.581 0.07237 0.0
C1648 C 0.8207 0.57306 0.07569 0.0
C1649 C 0.81095 0.53866 0.07773 0.0
C1650 C 0.83537 0.512 0.07657 0.0
C1651 C 0.86962 0.51969 0.07341 0.0
C1652 C 0.8795 0.55405 0.07134 0.0
C1653 C 0.93785 0.7167 0.10308 0.0
C1654 C 0.96894 0.6986 0.10531 0.0
C1655 C 0.91694 0.70782 0.0931 0.0
C1656 C 0.92677 0.68085 0.08511 0.0
C1657 C 0.95886 0.66431 0.08684 0.0
C1658 C 0.97984 0.67317 0.09682 0.0
C1659 C 0.90158 0.6668 0.07608 0.0
C1660 C 0.89211 0.63181 0.07714 0.0
C1661 C 0.88442 0.68787 0.06741 0.0
C1662 C 0.89409 0.72483 0.06558 0.0
C1663 C 0.92898 0.73442 0.06389 0.0
C1664 C 0.93785 0.76918 0.0621 0.0
C1665 C 0.91202 0.7946 0.0618 0.0
C1666 C 0.87729 0.78538 0.06338 0.0
C1667 C 0.8683 0.7507 0.06528 0.0
H1668 H 0.91892 0.82139 0.06026 0.0
H1669 H 0.82776 0.48538 0.07815 0.0
H1670 H 0.74486 0.41989 0.31371 0.0
H1671 H 0.70994 0.46607 0.32331 0.0
H1672 H 0.69729 0.51473 0.28825 0.0
H1673 H 0.73134 0.4678 0.27854 0.0
H1674 H 0.72781 0.5563 0.31058 0.0
H1675 H 0.62872 0.49133 0.29628 0.0
H1676 H 0.59376 0.43839 0.2931 0.0
H1677 H 0.58931 0.42309 0.33192 0.0
H1678 H 0.62487 0.47553 0.3353 0.0
H1679 H 0.63928 0.68467 0.34631 0.0
H1680 H 0.65199 0.64684 0.32862 0.0
H1681 H 0.6361 0.55686 0.35111 0.0
H1682 H 0.62053 0.59404 0.36828 0.0
H1683 H 0.61268 0.54207 0.33014 0.0
H1684 H 0.71961 0.59608 0.34475 0.0
H1685 H 0.75782 0.64587 0.34943 0.0
H1686 H 0.75212 0.67811 0.31199 0.0
H1687 H 0.71357 0.62868 0.30714 0.0
C1688 C 0.73397 0.44009 0.30805 0.0
C1689 C 0.74041 0.44039 0.29543 0.0
C1690 C 0.71414 0.46636 0.31351 0.0
C1691 C 0.70107 0.49363 0.30645 0.0
C1692 C 0.70705 0.49374 0.2938 0.0
C1693 C 0.72629 0.467 0.28828 0.0
C1694 C 0.68341 0.52305 0.31261 0.0
C1695 C 0.70225 0.55369 0.31463 0.0
C1696 C 0.6505 0.51911 0.31805 0.0
C1697 C 0.62944 0.48736 0.31604 0.0
C1698 C 0.62051 0.47652 0.30413 0.0
C1699 C 0.60057 0.44661 0.30229 0.0
C1700 C 0.5893 0.42739 0.3123 0.0
C1701 C 0.59799 0.43803 0.32417 0.0
C1702 C 0.61798 0.46787 0.32606 0.0
C1703 C 0.63782 0.65678 0.34734 0.0
C1704 C 0.62904 0.64231 0.35867 0.0
C1705 C 0.64527 0.63517 0.33727 0.0
C1706 C 0.64537 0.59884 0.33853 0.0
C1707 C 0.63561 0.58465 0.34978 0.0
C1708 C 0.627 0.60605 0.35966 0.0
C1709 C 0.65763 0.57507 0.3286 0.0
C1710 C 0.63783 0.54533 0.32586 0.0
C1711 C 0.69011 0.57948 0.32273 0.0
C1712 C 0.7134 0.60901 0.32563 0.0
C1713 C 0.72637 0.61393 0.33754 0.0
C1714 C 0.74809 0.64205 0.34022 0.0
C1715 C 0.75729 0.66521 0.33102 0.0
C1716 C 0.7449 0.66021 0.31912 0.0
C1717 C 0.72313 0.63215 0.3164 0.0
H1718 H 0.7741 0.68698 0.33312 0.0
H1719 H 0.57384 0.40426 0.31086 0.0
H1720 H 0.90915 0.52152 0.57973 0.0
H1721 H 0.87077 0.48953 0.59344 0.0
H1722 H 0.83976 0.42306 0.56332 0.0
H1723 H 0.87873 0.4544 0.5497 0.0
H1724 H 0.80452 0.48294 0.59389 0.0
H1725 H 0.8177 0.34384 0.57285 0.0
H1726 H 0.86245 0.30738 0.56293 0.0
H1727 H 0.9425 0.36676 0.58072 0.0
H1728 H 0.89825 0.40325 0.59088 0.0
H1729 H 0.66001 0.38187 0.60923 0.0
H1730 H 0.70715 0.41149 0.59879 0.0
H1731 H 0.78203 0.35068 0.61863 0.0
H1732 H 0.73491 0.32017 0.62892 0.0
H1733 H 0.80088 0.35438 0.59581 0.0
H1734 H 0.76771 0.43695 0.62621 0.0
H1735 H 0.72802 0.47371 0.6384 0.0
H1736 H 0.69678 0.52727 0.60596 0.0
H1737 H 0.73626 0.49074 0.59355 0.0
C1738 C 0.89425 0.49994 0.57608 0.0
C1739 C 0.89699 0.49031 0.56368 0.0
C1740 C 0.87235 0.4817 0.5839 0.0
C1741 C 0.85262 0.45363 0.57946 0.0
C1742 C 0.8553 0.44407 0.56705 0.0
C1743 C 0.87752 0.46203 0.55926 0.0
C1744 C 0.82821 0.4352 0.58766 0.0
C1745 C 0.80386 0.45483 0.59434 0.0
C1746 C 0.82781 0.39855 0.58852 0.0
C1747 C 0.85462 0.37647 0.58254 0.0
C1748 C 0.84484 0.34902 0.57469 0.0
C1749 C 0.87013 0.32836 0.56902 0.0
C1750 C 0.90529 0.33481 0.57117 0.0
C1751 C 0.91525 0.36187 0.57903 0.0
C1752 C 0.89008 0.38257 0.58473 0.0
C1753 C 0.68648 0.37477 0.61141 0.0
C1754 C 0.69364 0.34866 0.61994 0.0
C1755 C 0.71344 0.3919 0.60547 0.0
C1756 C 0.74816 0.3837 0.60806 0.0
C1757 C 0.75543 0.35748 0.6165 0.0
C1758 C 0.72845 0.3401 0.62239 0.0
C1759 C 0.77673 0.40211 0.60176 0.0
C1760 C 0.80178 0.38249 0.59542 0.0
C1761 C 0.7785 0.43879 0.60153 0.0
C1762 C 0.75476 0.46093 0.60894 0.0
C1763 C 0.75222 0.45642 0.62166 0.0
C1764 C 0.72978 0.47724 0.62862 0.0
C1765 C 0.70976 0.5027 0.62296 0.0
C1766 C 0.71227 0.5075 0.61033 0.0
C1767 C 0.73476 0.48682 0.60334 0.0
H1768 H 0.69239 0.51877 0.62836 0.0
H1769 H 0.92482 0.31881 0.56676 0.0
H1770 H 0.93278 0.6208 0.80253 0.0
H1771 H 0.95176 0.58578 0.81985 0.0
H1772 H 0.86667 0.51512 0.81349 0.0
H1773 H 0.84745 0.55012 0.79626 0.0
H1774 H 0.87679 0.52482 0.83754 0.0
H1775 H 0.94778 0.4985 0.80225 0.0
H1776 H 0.98747 0.51189 0.78525 0.0
H1777 H 0.06287 0.55114 0.8108 0.0
H1778 H 0.02336 0.53847 0.82795 0.0
H1779 H 0.93723 0.3656 0.86064 0.0
H1780 H 0.91699 0.41368 0.84822 0.0
H1781 H 0.0054 0.47474 0.85948 0.0
H1782 H 0.02621 0.42651 0.87189 0.0
H1783 H 0.99569 0.47574 0.83488 0.0
H1784 H 0.9261 0.49387 0.8705 0.0
H1785 H 0.88678 0.47601 0.88706 0.0
H1786 H 0.80858 0.44902 0.86065 0.0
H1787 H 0.84766 0.46611 0.8439 0.0
C1788 C 0.91802 0.59791 0.80488 0.0
C1789 C 0.88879 0.58805 0.79798 0.0
C1790 C 0.92885 0.57797 0.81478 0.0
C1791 C 0.91092 0.54756 0.81785 0.0
C1792 C 0.88086 0.53852 0.8113 0.0
C1793 C 0.86989 0.55856 0.80146 0.0
C1794 C 0.92458 0.52387 0.82731 0.0
C1795 C 0.90273 0.51398 0.83694 0.0
C1796 C 0.9587 0.51026 0.82667 0.0
C1797 C 0.98244 0.51795 0.81637 0.0
C1798 C 0.97269 0.51027 0.80424 0.0
C1799 C 0.99518 0.51769 0.79458 0.0
C1800 C 0.02763 0.53247 0.79694 0.0
C1801 C 0.03769 0.53978 0.80898 0.0
C1802 C 0.01527 0.53249 0.81867 0.0
C1803 C 0.95235 0.38928 0.86056 0.0
C1804 C 0.98342 0.39212 0.86726 0.0
C1805 C 0.94059 0.41684 0.8535 0.0
C1806 C 0.9595 0.4479 0.85304 0.0
C1807 C 0.99037 0.45101 0.85976 0.0
C1808 C 0.00216 0.42343 0.86686 0.0
C1809 C 0.94778 0.47635 0.84502 0.0
C1810 C 0.96998 0.48707 0.83563 0.0
C1811 C 0.91393 0.49047 0.84585 0.0
C1812 C 0.88994 0.48108 0.85592 0.0
C1813 C 0.90059 0.48397 0.86821 0.0
C1814 C 0.87834 0.47397 0.87764 0.0
C1815 C 0.84523 0.46133 0.87491 0.0
C1816 C 0.83424 0.4588 0.86275 0.0
C1817 C 0.85643 0.46868 0.85328 0.0
H1818 H 0.82808 0.45352 0.88222 0.0
H1819 H 0.04501 0.53815 0.78945 0.0
H1820 H 0.29403 0.63501 0.02868 0.0
H1821 H 0.24995 0.64744 0.0442 0.0
H1822 H 0.30219 0.57899 0.06925 0.0
H1823 H 0.34561 0.56556 0.05352 0.0
H1824 H 0.23746 0.5691 0.07161 0.0
H1825 H 0.30768 0.66887 0.0709 0.0
H1826 H 0.33915 0.72054 0.06386 0.0
H1827 H 0.24307 0.76751 0.05302 0.0
H1828 H 0.21099 0.71579 0.05977 0.0
H1829 H 0.18045 0.6555 0.1268 0.0
H1830 H 0.20988 0.62782 0.10943 0.0
H1831 H 0.13229 0.66849 0.08501 0.0
H1832 H 0.10221 0.69566 0.10246 0.0
H1833 H 0.20451 0.69061 0.08148 0.0
H1834 H 0.13679 0.58644 0.08567 0.0
H1835 H 0.1119 0.53801 0.09732 0.0
H1836 H 0.21429 0.50317 0.10668 0.0
H1837 H 0.23981 0.55164 0.09519 0.0
C1838 C 0.29615 0.62281 0.03753 0.0
C1839 C 0.32331 0.59956 0.03996 0.0
C1840 C 0.27099 0.62992 0.0464 0.0
C1841 C 0.27294 0.61455 0.05798 0.0
C1842 C 0.30001 0.59112 0.06039 0.0
C1843 C 0.32487 0.58355 0.05143 0.0
C1844 C 0.24683 0.62303 0.06758 0.0
C1845 C 0.23059 0.59575 0.07383 0.0
C1846 C 0.23756 0.65777 0.07048 0.0
C1847 C 0.25693 0.68807 0.06565 0.0
C1848 C 0.29328 0.68984 0.06676 0.0
C1849 C 0.31123 0.71926 0.06289 0.0
C1850 C 0.29315 0.74723 0.05794 0.0
C1851 C 0.25707 0.74577 0.05681 0.0
C1852 C 0.23898 0.71638 0.06065 0.0
C1853 C 0.16899 0.65741 0.11778 0.0
C1854 C 0.1392 0.67774 0.11592 0.0
C1855 C 0.18577 0.64158 0.10788 0.0
C1856 C 0.17326 0.64625 0.09597 0.0
C1857 C 0.14216 0.66452 0.09417 0.0
C1858 C 0.12493 0.67982 0.10413 0.0
C1859 C 0.19562 0.6369 0.08546 0.0
C1860 C 0.21123 0.66407 0.07907 0.0
C1861 C 0.20548 0.60231 0.08288 0.0
C1862 C 0.1902 0.57279 0.08961 0.0
C1863 C 0.154 0.56857 0.09026 0.0
C1864 C 0.13978 0.54108 0.09683 0.0
C1865 C 0.1615 0.51755 0.10274 0.0
C1866 C 0.1975 0.5214 0.10208 0.0
C1867 C 0.21186 0.54883 0.09552 0.0
H1868 H 0.15044 0.49631 0.10783 0.0
H1869 H 0.30707 0.7701 0.05505 0.0
H1870 H 0.28621 0.45665 0.78802 0.0
H1871 H 0.25888 0.40972 0.79943 0.0
H1872 H 0.27867 0.46491 0.83327 0.0
H1873 H 0.30552 0.51211 0.82194 0.0
H1874 H 0.29498 0.39624 0.835 0.0
H1875 H 0.19915 0.46583 0.82052 0.0
H1876 H 0.16315 0.49448 0.80493 0.0
H1877 H 0.14395 0.396 0.78743 0.0
H1878 H 0.18021 0.36682 0.80285 0.0
H1879 H 0.16695 0.3548 0.87768 0.0
H1880 H 0.20816 0.37736 0.86284 0.0
H1881 H 0.17788 0.29753 0.83698 0.0
H1882 H 0.1367 0.27427 0.85207 0.0
H1883 H 0.1712 0.36622 0.82831 0.0
H1884 H 0.25812 0.2961 0.84609 0.0
H1885 H 0.29167 0.26923 0.86269 0.0
H1886 H 0.32612 0.3698 0.87485 0.0
H1887 H 0.29236 0.39736 0.85844 0.0
C1888 C 0.28441 0.45899 0.79788 0.0
C1889 C 0.29795 0.48824 0.80406 0.0
C1890 C 0.26898 0.43203 0.80439 0.0
C1891 C 0.2667 0.43386 0.81719 0.0
C1892 C 0.28041 0.46285 0.82339 0.0
C1893 C 0.29576 0.48981 0.8169 0.0
C1894 C 0.24933 0.4061 0.82421 0.0
C1895 C 0.26791 0.38966 0.83356 0.0
C1896 C 0.21435 0.39669 0.82205 0.0
C1897 C 0.19277 0.41422 0.81273 0.0
C1898 C 0.18753 0.45034 0.81327 0.0
C1899 C 0.16702 0.46666 0.80449 0.0
C1900 C 0.15138 0.44709 0.79517 0.0
C1901 C 0.15615 0.41114 0.79464 0.0
C1902 C 0.17667 0.3947 0.8034 0.0
C1903 C 0.16978 0.34148 0.86895 0.0
C1904 C 0.14871 0.31294 0.86596 0.0
C1905 C 0.19339 0.3543 0.8605 0.0
C1906 C 0.1961 0.33909 0.84882 0.0
C1907 C 0.17623 0.30949 0.84598 0.0
C1908 C 0.15294 0.29616 0.85459 0.0
C1909 C 0.21655 0.35712 0.83934 0.0
C1910 C 0.19856 0.37193 0.82954 0.0
C1911 C 0.25197 0.36522 0.84116 0.0
C1912 C 0.27255 0.34882 0.85104 0.0
C1913 C 0.27265 0.31253 0.85235 0.0
C1914 C 0.29175 0.29716 0.86172 0.0
C1915 C 0.31099 0.3178 0.86983 0.0
C1916 C 0.31122 0.35385 0.86856 0.0
C1917 C 0.29215 0.36935 0.8592 0.0
H1918 H 0.32575 0.30586 0.87708 0.0
H1919 H 0.13548 0.45977 0.78838 0.0
H1920 H 0.32306 0.40306 0.5422 0.0
H1921 H 0.35357 0.36166 0.55514 0.0
H1922 H 0.28477 0.38666 0.58507 0.0
H1923 H 0.25348 0.42737 0.57211 0.0
H1924 H 0.35253 0.40149 0.58995 0.0
H1925 H 0.28678 0.30791 0.57502 0.0
H1926 H 0.25872 0.26442 0.56166 0.0
H1927 H 0.35835 0.22924 0.54909 0.0
H1928 H 0.38713 0.27331 0.56204 0.0
H1929 H 0.45489 0.30435 0.631 0.0
H1930 H 0.40298 0.31863 0.61897 0.0
H1931 H 0.46213 0.30687 0.58565 0.0
H1932 H 0.51405 0.29275 0.59771 0.0
H1933 H 0.39246 0.28015 0.58431 0.0
H1934 H 0.45517 0.38373 0.59688 0.0
H1935 H 0.48227 0.42262 0.6122 0.0
H1936 H 0.38441 0.43428 0.63057 0.0
H1937 H 0.35685 0.39498 0.61546 0.0
C1938 C 0.3136 0.39886 0.55139 0.0
C1939 C 0.28628 0.41907 0.5562 0.0
C1940 C 0.33105 0.3751 0.55878 0.0
C1941 C 0.32151 0.37123 0.57108 0.0
C1942 C 0.29257 0.38935 0.57561 0.0
C1943 C 0.27498 0.41287 0.56822 0.0
C1944 C 0.34541 0.35387 0.57967 0.0
C1945 C 0.36058 0.37463 0.58887 0.0
C1946 C 0.35644 0.31903 0.5781 0.0
C1947 C 0.33918 0.29453 0.56941 0.0
C1948 C 0.30278 0.29161 0.56918 0.0
C1949 C 0.28672 0.26665 0.56172 0.0
C1950 C 0.30673 0.2442 0.55449 0.0
C1951 C 0.34287 0.24679 0.55464 0.0
C1952 C 0.35906 0.27184 0.56203 0.0
C1953 C 0.45647 0.30441 0.6211 0.0
C1954 C 0.48808 0.29784 0.61518 0.0
C1955 C 0.42697 0.31243 0.61427 0.0
C1956 C 0.42889 0.31398 0.60145 0.0
C1957 C 0.46019 0.3057 0.59553 0.0
C1958 C 0.48975 0.29789 0.60237 0.0
C1959 C 0.3995 0.3278 0.59432 0.0
C1960 C 0.38369 0.30664 0.58542 0.0
C1961 C 0.3876 0.36214 0.59614 0.0
C1962 C 0.40405 0.38611 0.60513 0.0
C1963 C 0.4395 0.39436 0.60425 0.0
C1964 C 0.45494 0.41651 0.61288 0.0
C1965 C 0.4351 0.43083 0.62237 0.0
C1966 C 0.39976 0.42311 0.62323 0.0
C1967 C 0.38421 0.40092 0.61463 0.0
H1968 H 0.44707 0.44799 0.62904 0.0
H1969 H 0.29424 0.22469 0.54881 0.0
H1970 H 0.35442 0.47754 0.31513 0.0
H1971 H 0.38677 0.51431 0.32943 0.0
H1972 H 0.47189 0.51931 0.30396 0.0
H1973 H 0.43912 0.48387 0.28927 0.0
H1974 H 0.48516 0.51094 0.33305 0.0
H1975 H 0.43395 0.58181 0.30091 0.0
H1976 H 0.38534 0.59817 0.28747 0.0
H1977 H 0.32192 0.62013 0.31892 0.0
H1978 H 0.37004 0.6033 0.33254 0.0
H1979 H 0.55699 0.66916 0.35949 0.0
H1980 H 0.5399 0.62118 0.34585 0.0
H1981 H 0.43445 0.63 0.35882 0.0
H1982 H 0.45138 0.67748 0.37244 0.0
H1983 H 0.4368 0.63036 0.3346 0.0
H1984 H 0.4876 0.5656 0.36696 0.0
H1985 H 0.53297 0.54613 0.38119 0.0
H1986 H 0.59385 0.50829 0.35101 0.0
H1987 H 0.54964 0.52901 0.3365 0.0
C1988 C 0.38004 0.48633 0.31254 0.0
C1989 C 0.39385 0.47825 0.30094 0.0
C1990 C 0.39863 0.50694 0.3208 0.0
C1991 C 0.43157 0.51942 0.31769 0.0
C1992 C 0.44656 0.50959 0.30651 0.0
C1993 C 0.42775 0.48932 0.29814 0.0
C1994 C 0.44792 0.5463 0.32547 0.0
C1995 C 0.47525 0.53731 0.33329 0.0
C1996 C 0.43417 0.58024 0.32589 0.0
C1997 C 0.40544 0.59097 0.31773 0.0
C1998 C 0.40954 0.58984 0.30495 0.0
C1999 C 0.3821 0.59924 0.2973 0.0
C2000 C 0.35052 0.6101 0.30233 0.0
C2001 C 0.34637 0.61168 0.31503 0.0
C2002 C 0.37372 0.60223 0.32272 0.0
C2003 C 0.53038 0.6603 0.35961 0.0
C2004 C 0.50559 0.67702 0.36706 0.0
C2005 C 0.52061 0.63302 0.35178 0.0
C2006 C 0.48587 0.62206 0.35132 0.0
C2007 C 0.46134 0.6382 0.35898 0.0
C2008 C 0.47106 0.66537 0.36675 0.0
C2009 C 0.47419 0.59526 0.34241 0.0
C2010 C 0.44744 0.60427 0.33433 0.0
C2011 C 0.48845 0.56133 0.34189 0.0
C2012 C 0.51553 0.54958 0.3506 0.0
C2013 C 0.51099 0.55384 0.36331 0.0
C2014 C 0.53652 0.54253 0.37143 0.0
C2015 C 0.56644 0.52627 0.36699 0.0
C2016 C 0.57082 0.5212 0.35441 0.0
C2017 C 0.54563 0.5329 0.34623 0.0
H2018 H 0.58613 0.51741 0.37329 0.0
H2019 H 0.3293 0.61737 0.2964 0.0
H2020 H 0.31914 0.45334 0.98119 0.0
H2021 H 0.27617 0.421 0.96935 0.0
H2022 H 0.27995 0.49805 0.94108 0.0
H2023 H 0.32406 0.53026 0.9527 0.0
H2024 H 0.21059 0.47561 0.94778 0.0
H2025 H 0.32056 0.42831 0.93541 0.0
H2026 H 0.37882 0.40353 0.93862 0.0
H2027 H 0.33408 0.3174 0.95758 0.0
H2028 H 0.27555 0.34196 0.95464 0.0
H2029 H 0.12972 0.36524 0.90196 0.0
H2030 H 0.16281 0.40755 0.91424 0.0
H2031 H 0.18128 0.32929 0.94147 0.0
H2032 H 0.14931 0.28699 0.929 0.0
H2033 H 0.23983 0.35578 0.93425 0.0
H2034 H 0.12989 0.40247 0.94699 0.0
H2035 H 0.07135 0.4269 0.94407 0.0
H2036 H 0.11474 0.51325 0.92486 0.0
H2037 H 0.17354 0.48906 0.9275 0.0
C2038 C 0.31132 0.46328 0.97238 0.0
C2039 C 0.32552 0.49423 0.96784 0.0
C2040 C 0.28645 0.4449 0.96568 0.0
C2041 C 0.27504 0.4571 0.95434 0.0
C2042 C 0.28837 0.48834 0.94986 0.0
C2043 C 0.31356 0.50668 0.95652 0.0
C2044 C 0.25021 0.4362 0.94701 0.0
C2045 C 0.217 0.44957 0.94465 0.0
C2046 C 0.25853 0.40208 0.94316 0.0
C2047 C 0.29369 0.38716 0.9449 0.0
C2048 C 0.32316 0.40424 0.94035 0.0
C2049 C 0.35623 0.39021 0.94211 0.0
C2050 C 0.36015 0.35895 0.94833 0.0
C2051 C 0.331 0.34163 0.95278 0.0
C2052 C 0.29787 0.35559 0.95106 0.0
C2053 C 0.13985 0.35765 0.91079 0.0
C2054 C 0.13679 0.32324 0.91469 0.0
C2055 C 0.1588 0.38171 0.91778 0.0
C2056 C 0.17458 0.37159 0.92879 0.0
C2057 C 0.16947 0.33766 0.933 0.0
C2058 C 0.15099 0.31362 0.92595 0.0
C2059 C 0.19961 0.39469 0.93523 0.0
C2060 C 0.23315 0.38179 0.93736 0.0
C2061 C 0.19141 0.4291 0.93889 0.0
C2062 C 0.1561 0.44375 0.93733 0.0
C2063 C 0.12693 0.42651 0.94205 0.0
C2064 C 0.09371 0.44035 0.94046 0.0
C2065 C 0.08932 0.47155 0.93426 0.0
C2066 C 0.11818 0.48905 0.92965 0.0
C2067 C 0.15146 0.4753 0.9312 0.0
H2068 H 0.06358 0.48222 0.93304 0.0
H2069 H 0.38578 0.34812 0.94968 0.0
H2070 H 0.3609 0.50448 0.72852 0.0
H2071 H 0.37771 0.46387 0.71229 0.0
H2072 H 0.48529 0.49067 0.71778 0.0
H2073 H 0.46855 0.53254 0.73371 0.0
H2074 H 0.47128 0.48012 0.69371 0.0
H2075 H 0.45176 0.42019 0.73135 0.0
H2076 H 0.41867 0.40332 0.74965 0.0
H2077 H 0.33871 0.35978 0.72683 0.0
H2078 H 0.37112 0.37687 0.70838 0.0
H2079 H 0.5475 0.3218 0.67129 0.0
H2080 H 0.52926 0.37075 0.68426 0.0
H2081 H 0.42233 0.3494 0.6754 0.0
H2082 H 0.44038 0.30112 0.66218 0.0
H2083 H 0.4354 0.35815 0.70052 0.0
H2084 H 0.46001 0.41379 0.66259 0.0
H2085 H 0.49571 0.42946 0.6448 0.0
H2086 H 0.56847 0.48111 0.66849 0.0
H2087 H 0.53402 0.46459 0.68648 0.0
C2088 C 0.38806 0.50247 0.72608 0.0
C2089 C 0.41341 0.52156 0.73251 0.0
C2090 C 0.39766 0.47896 0.71687 0.0
C2091 C 0.4328 0.47376 0.714 0.0
C2092 C 0.45803 0.49412 0.71991 0.0
C2093 C 0.44844 0.51779 0.72909 0.0
C2094 C 0.44335 0.44545 0.70547 0.0
C2095 C 0.46377 0.45339 0.69524 0.0
C2096 C 0.43312 0.41065 0.70741 0.0
C2097 C 0.41368 0.40013 0.71849 0.0
C2098 C 0.42699 0.40725 0.73023 0.0
C2099 C 0.40838 0.39762 0.74063 0.0
C2100 C 0.37656 0.38057 0.7394 0.0
C2101 C 0.36333 0.37304 0.72777 0.0
C2102 C 0.38182 0.38267 0.71734 0.0
C2103 C 0.52023 0.32802 0.67189 0.0
C2104 C 0.49553 0.30794 0.66554 0.0
C2105 C 0.50983 0.35582 0.67935 0.0
C2106 C 0.47451 0.36387 0.68064 0.0
C2107 C 0.44973 0.34362 0.67447 0.0
C2108 C 0.46013 0.31602 0.66694 0.0
C2109 C 0.46328 0.39279 0.68874 0.0
C2110 C 0.44281 0.3849 0.69893 0.0
C2111 C 0.4738 0.42749 0.68679 0.0
C2112 C 0.49461 0.43748 0.67593 0.0
C2113 C 0.4839 0.42803 0.66404 0.0
C2114 C 0.50394 0.43709 0.6539 0.0
C2115 C 0.53447 0.45611 0.65551 0.0
C2116 C 0.54495 0.46621 0.66725 0.0
C2117 C 0.52521 0.45692 0.67743 0.0
H2118 H 0.54995 0.46316 0.64766 0.0
H2119 H 0.36219 0.37313 0.74747 0.0
H2120 H 0.32568 0.54084 0.48159 0.0
H2121 H 0.36295 0.56432 0.46556 0.0
H2122 H 0.34391 0.66814 0.47913 0.0
H2123 H 0.30622 0.64485 0.49512 0.0
H2124 H 0.34382 0.66317 0.45333 0.0
H2125 H 0.41553 0.63131 0.48729 0.0
H2126 H 0.43776 0.5923 0.50322 0.0
H2127 H 0.47225 0.52013 0.47557 0.0
H2128 H 0.44973 0.5585 0.45947 0.0
H2129 H 0.49557 0.73768 0.42442 0.0
H2130 H 0.45016 0.72108 0.43902 0.0
H2131 H 0.46499 0.61345 0.42908 0.0
H2132 H 0.50987 0.6297 0.41456 0.0
H2133 H 0.4665 0.62402 0.45362 0.0
H2134 H 0.3971 0.65778 0.41944 0.0
H2135 H 0.3743 0.69668 0.40362 0.0
H2136 H 0.33394 0.76516 0.43141 0.0
H2137 H 0.35765 0.72736 0.44744 0.0
C2138 C 0.32898 0.56869 0.48104 0.0
C2139 C 0.31328 0.59099 0.48966 0.0
C2140 C 0.35039 0.58206 0.47192 0.0
C2141 C 0.35642 0.61793 0.47125 0.0
C2142 C 0.33962 0.64039 0.47951 0.0
C2143 C 0.31838 0.62702 0.48869 0.0
C2144 C 0.3819 0.63167 0.46239 0.0
C2145 C 0.37078 0.65508 0.45345 0.0
C2146 C 0.4169 0.62067 0.46253 0.0
C2147 C 0.43064 0.59762 0.47218 0.0
C2148 C 0.4276 0.60699 0.48461 0.0
C2149 C 0.44029 0.58502 0.49367 0.0
C2150 C 0.45633 0.55372 0.49041 0.0
C2151 C 0.45978 0.54437 0.47808 0.0
C2152 C 0.44708 0.56622 0.46899 0.0
C2153 C 0.48864 0.7106 0.42521 0.0
C2154 C 0.50623 0.68507 0.41831 0.0
C2155 C 0.4628 0.70115 0.43355 0.0
C2156 C 0.45413 0.66606 0.43507 0.0
C2157 C 0.47134 0.64067 0.42807 0.0
C2158 C 0.49704 0.65004 0.41978 0.0
C2159 C 0.42844 0.6552 0.44436 0.0
C2160 C 0.43959 0.63236 0.45347 0.0
C2161 C 0.39356 0.66686 0.44434 0.0
C2162 C 0.37975 0.68996 0.43467 0.0
C2163 C 0.38393 0.68143 0.42221 0.0
C2164 C 0.37078 0.70328 0.41319 0.0
C2165 C 0.35285 0.73347 0.4165 0.0
C2166 C 0.34792 0.74181 0.42885 0.0
C2167 C 0.36135 0.72025 0.43791 0.0
H2168 H 0.34263 0.75032 0.40951 0.0
H2169 H 0.46615 0.53675 0.49744 0.0
H2170 H 0.32936 0.53971 0.22943 0.0
H2171 H 0.31363 0.58583 0.2151 0.0
H2172 H 0.23514 0.51935 0.19926 0.0
H2173 H 0.25085 0.47339 0.21346 0.0
H2174 H 0.26876 0.55865 0.18182 0.0
H2175 H 0.21499 0.57429 0.22222 0.0
H2176 H 0.21734 0.58362 0.24457 0.0
H2177 H 0.27582 0.67721 0.2395 0.0
H2178 H 0.27418 0.66812 0.2171 0.0
H2179 H 0.11386 0.62779 0.16606 0.0
H2180 H 0.16096 0.60253 0.17764 0.0
H2181 H 0.21355 0.70125 0.17876 0.0
H2182 H 0.16587 0.72731 0.16693 0.0
H2183 H 0.21148 0.65963 0.20197 0.0
H2184 H 0.24835 0.65059 0.16071 0.0
H2185 H 0.24043 0.64076 0.13856 0.0
H2186 H 0.21169 0.53492 0.14506 0.0
H2187 H 0.21887 0.54423 0.16727 0.0
C2188 C 0.30939 0.53473 0.22266 0.0
C2189 C 0.2911 0.50315 0.22258 0.0
C2190 C 0.30034 0.56109 0.21454 0.0
C2191 C 0.27303 0.55608 0.2062 0.0
C2192 C 0.25633 0.52374 0.20561 0.0
C2193 C 0.26515 0.49759 0.21376 0.0
C2194 C 0.25898 0.58512 0.19893 0.0
C2195 C 0.25665 0.581 0.18618 0.0
C2196 C 0.24404 0.61481 0.2046 0.0
C2197 C 0.24489 0.62028 0.21803 0.0
C2198 C 0.22858 0.59669 0.22589 0.0
C2199 C 0.22975 0.60196 0.23855 0.0
C2200 C 0.24683 0.63092 0.24345 0.0
C2201 C 0.26269 0.65473 0.23569 0.0
C2202 C 0.26166 0.64954 0.22301 0.0
C2203 C 0.13527 0.64441 0.16876 0.0
C2204 C 0.13637 0.6795 0.16536 0.0
C2205 C 0.16221 0.62983 0.17539 0.0
C2206 C 0.19098 0.64985 0.1788 0.0
C2207 C 0.19161 0.68538 0.17606 0.0
C2208 C 0.1644 0.70017 0.16933 0.0
C2209 C 0.22016 0.63232 0.18496 0.0
C2210 C 0.22511 0.63834 0.1975 0.0
C2211 C 0.23752 0.60436 0.1791 0.0
C2212 C 0.23415 0.59816 0.16569 0.0
C2213 C 0.24023 0.62524 0.15743 0.0
C2214 C 0.23585 0.61977 0.14485 0.0
C2215 C 0.22553 0.58725 0.1404 0.0
C2216 C 0.21972 0.56009 0.14852 0.0
C2217 C 0.22403 0.56543 0.16111 0.0
H2218 H 0.22205 0.5831 0.13066 0.0
H2219 H 0.24769 0.63497 0.25326 0.0
loop_
_geom_bond_atom_site_label_1
_geom_bond_atom_site_label_2
_geom_bond_distance
_geom_bond_site_symmetry_2
_ccdc_geom_bond_type
H0 C27 0.929 1_565 S
N1 C26 1.433 1_565 S
N1 C32 1.435 . S
N1 C38 1.423 . S
H2 C28 0.930 . S
H3 C31 0.931 . S
H4 C30 0.929 . S
H5 C33 0.930 1_545 S
H6 C34 0.940 . S
H7 C37 0.929 . S
H8 C36 0.931 . S
H9 C39 0.929 . S
H10 C43 0.932 . S
H11 C40 0.931 . S
H12 C42 0.941 . S
H13 C45 0.929 1_565 S
H14 C46 0.930 . S
H15 C48 0.929 . S
H16 C49 0.931 . S
H17 C51 0.930 1_545 S
H18 C52 0.943 . S
H19 C54 0.931 . S
H20 C55 0.929 . S
H21 C57 0.929 . S
H22 C58 0.931 . S
H23 C60 0.929 . S
N24 C44 1.433 1_565 S
N24 C50 1.435 . S
N24 C56 1.423 . S
H25 C61 0.932 . S
C26 N1 1.433 1_545 S
C26 C27 1.363 . S
C26 C31 1.370 . S
C27 H0 0.929 1_545 S
C27 C26 1.363 . S
C27 C28 1.385 . S
C28 H2 0.930 . S
C28 C27 1.385 . S
C28 C29 1.357 . S
C29 C28 1.357 . S
C29 C30 1.406 . S
C30 H4 0.929 . S
C30 C29 1.406 . S
C30 C31 1.391 . S
C31 H3 0.931 . S
C31 C26 1.370 . S
C31 C30 1.391 . S
C32 N1 1.435 . S
C32 C33 1.358 . S
C32 C37 1.371 . S
C33 H5 0.930 1_565 S
C33 C32 1.358 . S
C33 C34 1.405 . S
C34 H6 0.940 . S
C34 C33 1.405 . S
C34 C35 1.383 . S
C35 C34 1.383 . S
C35 C36 1.393 . S
C36 H8 0.931 . S
C36 C35 1.393 . S
C36 C37 1.382 . S
C37 H7 0.929 . S
C37 C32 1.371 . S
C37 C36 1.382 . S
C38 N1 1.423 . S
C38 C39 1.362 . S
C38 C43 1.388 . S
C39 H9 0.929 . S
C39 C38 1.362 . S
C39 C40 1.376 . S
C40 H11 0.931 . S
C40 C39 1.376 . S
C40 C41 1.396 1_655 S
C41 C40 1.396 1_455 S
C41 C42 1.348 1_455 S
C41 C59 1.472 . S
C42 H12 0.941 . S
C42 C41 1.348 1_655 S
C42 C43 1.443 . S
C43 H10 0.932 . S
C43 C38 1.388 . S
C43 C42 1.443 . S
C44 N24 1.433 1_545 S
C44 C45 1.363 . S
C44 C49 1.370 . S
C45 H13 0.929 1_545 S
C45 C44 1.363 . S
C45 C46 1.385 . S
C46 H14 0.930 . S
C46 C45 1.385 . S
C46 C47 1.357 . S
C47 C46 1.357 . S
C47 C48 1.406 . S
C48 H15 0.929 . S
C48 C47 1.406 . S
C48 C49 1.391 . S
C49 H16 0.931 . S
C49 C44 1.370 . S
C49 C48 1.391 . S
C50 N24 1.435 . S
C50 C51 1.358 . S
C50 C55 1.371 . S
C51 H17 0.930 1_565 S
C51 C50 1.358 . S
C51 C52 1.405 . S
C52 H18 0.943 . S
C52 C51 1.405 . S
C52 C53 1.383 . S
C53 C52 1.383 . S
C53 C54 1.393 . S
C54 H19 0.931 . S
C54 C53 1.393 . S
C54 C55 1.382 . S
C55 H20 0.929 . S
C55 C50 1.371 . S
C55 C54 1.382 . S
C56 N24 1.423 . S
C56 C57 1.362 . S
C56 C61 1.388 . S
C57 H21 0.929 . S
C57 C56 1.362 . S
C57 C58 1.376 . S
C58 H22 0.931 . S
C58 C57 1.376 . S
C58 C59 1.396 . S
C59 C41 1.472 . S
C59 C58 1.396 . S
C59 C60 1.348 . S
C60 H23 0.929 . S
C60 C59 1.348 . S
C60 C61 1.443 . S
C61 H25 0.932 . S
C61 C56 1.388 . S
C61 C60 1.443 . S
H62 C89 0.929 . S
N63 C88 1.433 . S
N63 C94 1.435 . S
N63 C100 1.423 . S
H64 C90 0.930 . S
H65 C93 0.931 . S
H66 C92 0.929 . S
H67 C95 0.930 . S
H68 C96 0.932 . S
H69 C99 0.929 . S
H70 C98 0.931 . S
H71 C101 0.929 . S
H72 C105 0.932 . S
H73 C102 0.931 . S
H74 C104 0.929 . S
H75 C107 0.929 . S
H76 C108 0.930 . S
H77 C110 0.929 . S
H78 C111 0.931 . S
H79 C113 0.930 . S
H80 C114 0.932 . S
H81 C116 0.931 . S
H82 C117 0.929 . S
H83 C119 0.929 . S
H84 C120 0.931 . S
H85 C122 0.929 . S
N86 C106 1.433 . S
N86 C112 1.435 . S
N86 C118 1.423 . S
H87 C123 0.932 . S
C88 N63 1.433 . S
C88 C89 1.363 . S
C88 C93 1.370 . S
C89 H62 0.929 . S
C89 C88 1.363 . S
C89 C90 1.385 . S
C90 H64 0.930 . S
C90 C89 1.385 . S
C90 C91 1.357 . S
C91 C90 1.357 . S
C91 C92 1.406 . S
C92 H66 0.929 . S
C92 C91 1.406 . S
C92 C93 1.391 . S
C93 H65 0.931 . S
C93 C88 1.370 . S
C93 C92 1.391 . S
C94 N63 1.435 . S
C94 C95 1.358 . S
C94 C99 1.371 . S
C95 H67 0.930 . S
C95 C94 1.358 . S
C95 C96 1.405 . S
C96 H68 0.932 . S
C96 C95 1.405 . S
C96 C97 1.383 . S
C97 C96 1.383 . S
C97 C98 1.393 . S
C98 H70 0.931 . S
C98 C97 1.393 . S
C98 C99 1.382 . S
C99 H69 0.929 . S
C99 C94 1.371 . S
C99 C98 1.382 . S
C100 N63 1.423 . S
C100 C101 1.362 . S
C100 C105 1.388 . S
C101 H71 0.929 . S
C101 C100 1.362 . S
C101 C102 1.376 . S
C102 H73 0.931 . S
C102 C101 1.376 . S
C102 C103 1.396 . S
C103 C102 1.396 . S
C103 C104 1.348 . S
C103 C121 1.472 . S
C104 H74 0.929 . S
C104 C103 1.348 . S
C104 C105 1.443 . S
C105 H72 0.932 . S
C105 C100 1.388 . S
C105 C104 1.443 . S
C106 N86 1.433 . S
C106 C107 1.363 . S
C106 C111 1.370 . S
C107 H75 0.929 . S
C107 C106 1.363 . S
C107 C108 1.385 . S
C108 H76 0.930 . S
C108 C107 1.385 . S
C108 C109 1.357 . S
C109 C108 1.357 . S
C109 C110 1.406 . S
C110 H77 0.929 . S
C110 C109 1.406 . S
C110 C111 1.391 . S
C111 H78 0.931 . S
C111 C106 1.370 . S
C111 C110 1.391 . S
C112 N86 1.435 . S
C112 C113 1.358 . S
C112 C117 1.371 . S
C113 H79 0.930 . S
C113 C112 1.358 . S
C113 C114 1.405 . S
C114 H80 0.932 . S
C114 C113 1.405 . S
C114 C115 1.383 . S
C115 C114 1.383 . S
C115 C116 1.393 . S
C116 H81 0.931 . S
C116 C115 1.393 . S
C116 C117 1.382 . S
C117 H82 0.929 . S
C117 C112 1.371 . S
C117 C116 1.382 . S
C118 N86 1.423 . S
C118 C119 1.362 . S
C118 C123 1.388 . S
C119 H83 0.929 . S
C119 C118 1.362 . S
C119 C120 1.376 . S
C120 H84 0.931 . S
C120 C119 1.376 . S
C120 C121 1.396 . S
C121 C103 1.472 . S
C121 C120 1.396 . S
C121 C122 1.348 . S
C122 H85 0.929 . S
C122 C121 1.348 . S
C122 C123 1.443 . S
C123 H87 0.932 . S
C123 C118 1.388 . S
C123 C122 1.443 . S
H124 C151 0.929 . S
N125 C150 1.424 1_545 S
N125 C156 1.435 . S
N125 C162 1.423 . S
H126 C152 0.930 . S
H127 C155 0.931 . S
H128 C154 0.929 . S
H129 C157 0.930 1_565 S
H130 C158 0.932 . S
H131 C161 0.929 . S
H132 C160 0.931 . S
H133 C163 0.929 . S
H134 C167 0.926 . S
H135 C164 0.931 . S
H136 C166 0.928 . S
H137 C169 0.929 . S
H138 C170 0.930 . S
H139 C172 0.929 . S
H140 C173 0.931 . S
H141 C175 0.930 1_565 S
H142 C176 0.932 . S
H143 C178 0.931 . S
H144 C179 0.929 . S
H145 C181 0.929 . S
H146 C182 0.931 . S
H147 C184 0.928 . S
N148 C168 1.425 1_545 S
N148 C174 1.435 . S
N148 C180 1.423 . S
H149 C185 0.926 . S
C150 N125 1.424 1_565 S
C150 C151 1.361 1_565 S
C150 C155 1.381 . S
C151 H124 0.929 . S
C151 C150 1.361 1_545 S
C151 C152 1.385 1_545 S
C152 H126 0.930 . S
C152 C151 1.385 1_565 S
C152 C153 1.357 . S
C153 C152 1.357 . S
C153 C154 1.406 . S
C154 H128 0.929 . S
C154 C153 1.406 . S
C154 C155 1.391 . S
C155 H127 0.931 . S
C155 C150 1.381 . S
C155 C154 1.391 . S
C156 N125 1.435 . S
C156 C157 1.358 . S
C156 C161 1.371 . S
C157 H129 0.930 1_545 S
C157 C156 1.358 . S
C157 C158 1.405 1_554 S
C158 H130 0.932 . S
C158 C157 1.405 1_556 S
C158 C159 1.383 . S
C159 C158 1.383 . S
C159 C160 1.393 . S
C160 H132 0.931 . S
C160 C159 1.393 . S
C160 C161 1.382 1_556 S
C161 H131 0.929 . S
C161 C156 1.371 . S
C161 C160 1.382 1_554 S
C162 N125 1.423 . S
C162 C163 1.362 . S
C162 C167 1.388 . S
C163 H133 0.929 . S
C163 C162 1.362 . S
C163 C164 1.376 . S
C164 H135 0.931 . S
C164 C163 1.376 . S
C164 C165 1.396 . S
C165 C164 1.396 . S
C165 C166 1.348 . S
C165 C183 1.472 . S
C166 H136 0.928 . S
C166 C165 1.348 . S
C166 C167 1.443 . S
C167 H134 0.926 . S
C167 C162 1.388 . S
C167 C166 1.443 . S
C168 N148 1.425 1_565 S
C168 C169 1.361 1_565 S
C168 C173 1.381 . S
C169 H137 0.929 . S
C169 C168 1.361 1_545 S
C169 C170 1.385 1_545 S
C170 H138 0.930 . S
C170 C169 1.385 1_565 S
C170 C171 1.357 . S
C171 C170 1.357 . S
C171 C172 1.406 . S
C172 H139 0.929 . S
C172 C171 1.406 . S
C172 C173 1.391 . S
C173 H140 0.931 . S
C173 C168 1.381 . S
C173 C172 1.391 . S
C174 N148 1.435 . S
C174 C175 1.358 . S
C174 C179 1.371 . S
C175 H141 0.930 1_545 S
C175 C174 1.358 . S
C175 C176 1.405 1_554 S
C176 H142 0.932 . S
C176 C175 1.405 1_556 S
C176 C177 1.383 . S
C177 C176 1.383 . S
C177 C178 1.393 . S
C178 H143 0.931 . S
C178 C177 1.393 . S
C178 C179 1.382 1_556 S
C179 H144 0.929 . S
C179 C174 1.371 . S
C179 C178 1.382 1_554 S
C180 N148 1.423 . S
C180 C181 1.362 . S
C180 C185 1.388 . S
C181 H145 0.929 . S
C181 C180 1.362 . S
C181 C182 1.376 . S
C182 H146 0.931 . S
C182 C181 1.376 . S
C182 C183 1.396 . S
C183 C165 1.472 . S
C183 C182 1.396 . S
C183 C184 1.348 . S
C184 H147 0.928 . S
C184 C183 1.348 . S
C184 C185 1.443 . S
C185 H149 0.926 . S
C185 C180 1.388 . S
C185 C184 1.443 . S
H186 C213 0.929 . S
N187 C212 1.433 . S
N187 C218 1.435 . S
N187 C224 1.423 . S
H188 C214 0.930 . S
H189 C217 0.931 . S
H190 C216 0.929 . S
H191 C219 0.930 . S
H192 C220 0.932 . S
H193 C223 0.929 . S
H194 C222 0.931 . S
H195 C225 0.929 . S
H196 C229 0.932 . S
H197 C226 0.931 . S
H198 C228 0.929 . S
H199 C231 0.929 . S
H200 C232 0.930 . S
H201 C234 0.929 . S
H202 C235 0.931 . S
H203 C237 0.930 . S
H204 C238 0.932 . S
H205 C240 0.931 . S
H206 C241 0.929 . S
H207 C243 0.929 . S
H208 C244 0.931 . S
H209 C246 0.929 . S
N210 C230 1.433 . S
N210 C236 1.435 . S
N210 C242 1.423 . S
H211 C247 0.932 . S
C212 N187 1.433 . S
C212 C213 1.363 . S
C212 C217 1.370 . S
C213 H186 0.929 . S
C213 C212 1.363 . S
C213 C214 1.385 . S
C214 H188 0.930 . S
C214 C213 1.385 . S
C214 C215 1.357 . S
C215 C214 1.357 . S
C215 C216 1.406 . S
C216 H190 0.929 . S
C216 C215 1.406 . S
C216 C217 1.391 . S
C217 H189 0.931 . S
C217 C212 1.370 . S
C217 C216 1.391 . S
C218 N187 1.435 . S
C218 C219 1.358 . S
C218 C223 1.371 . S
C219 H191 0.930 . S
C219 C218 1.358 . S
C219 C220 1.405 . S
C220 H192 0.932 . S
C220 C219 1.405 . S
C220 C221 1.383 . S
C221 C220 1.383 . S
C221 C222 1.393 . S
C222 H194 0.931 . S
C222 C221 1.393 . S
C222 C223 1.382 . S
C223 H193 0.929 . S
C223 C218 1.371 . S
C223 C222 1.382 . S
C224 N187 1.423 . S
C224 C225 1.362 . S
C224 C229 1.388 . S
C225 H195 0.929 . S
C225 C224 1.362 . S
C225 C226 1.376 . S
C226 H197 0.931 . S
C226 C225 1.376 . S
C226 C227 1.396 . S
C227 C226 1.396 . S
C227 C228 1.348 . S
C227 C245 1.472 . S
C228 H198 0.929 . S
C228 C227 1.348 . S
C228 C229 1.443 . S
C229 H196 0.932 . S
C229 C224 1.388 . S
C229 C228 1.443 . S
C230 N210 1.433 . S
C230 C231 1.363 . S
C230 C235 1.370 . S
C231 H199 0.929 . S
C231 C230 1.363 . S
C231 C232 1.385 . S
C232 H200 0.930 . S
C232 C231 1.385 . S
C232 C233 1.357 . S
C233 C232 1.357 . S
C233 C234 1.406 . S
C234 H201 0.929 . S
C234 C233 1.406 . S
C234 C235 1.391 . S
C235 H202 0.931 . S
C235 C230 1.370 . S
C235 C234 1.391 . S
C236 N210 1.435 . S
C236 C237 1.358 . S
C236 C241 1.371 . S
C237 H203 0.930 . S
C237 C236 1.358 . S
C237 C238 1.405 . S
C238 H204 0.932 . S
C238 C237 1.405 . S
C238 C239 1.383 . S
C239 C238 1.383 . S
C239 C240 1.393 . S
C240 H205 0.931 . S
C240 C239 1.393 . S
C240 C241 1.382 . S
C241 H206 0.929 . S
C241 C236 1.371 . S
C241 C240 1.382 . S
C242 N210 1.423 . S
C242 C243 1.362 . S
C242 C247 1.388 . S
C243 H207 0.929 . S
C243 C242 1.362 . S
C243 C244 1.376 . S
C244 H208 0.931 . S
C244 C243 1.376 . S
C244 C245 1.396 . S
C245 C227 1.472 . S
C245 C244 1.396 . S
C245 C246 1.348 . S
C246 H209 0.929 . S
C246 C245 1.348 . S
C246 C247 1.443 . S
C247 H211 0.932 . S
C247 C242 1.388 . S
C247 C246 1.443 . S
H248 C275 0.929 . S
N249 C274 1.433 . S
N249 C280 1.435 . S
N249 C286 1.423 . S
H250 C276 0.930 1_565 S
H251 C279 0.931 . S
H252 C278 0.929 . S
H253 C281 0.930 . S
H254 C282 0.932 1_565 S
H255 C285 0.929 . S
H256 C284 0.931 . S
H257 C287 0.929 . S
H258 C291 0.932 . S
H259 C288 0.931 . S
H260 C290 0.929 . S
H261 C293 0.929 . S
H262 C294 0.930 . S
H263 C296 0.929 . S
H264 C297 0.931 . S
H265 C299 0.930 . S
H266 C300 0.932 . S
H267 C302 0.931 . S
H268 C303 0.929 . S
H269 C305 0.929 . S
H270 C306 0.931 . S
H271 C308 0.929 . S
N272 C292 1.433 . S
N272 C298 1.435 . S
N272 C304 1.423 . S
H273 C309 0.932 . S
C274 N249 1.433 . S
C274 C275 1.363 . S
C274 C279 1.370 . S
C275 H248 0.929 . S
C275 C274 1.363 . S
C275 C276 1.385 . S
C276 H250 0.930 1_545 S
C276 C275 1.385 . S
C276 C277 1.357 . S
C277 C276 1.357 . S
C277 C278 1.406 . S
C278 H252 0.929 . S
C278 C277 1.406 . S
C278 C279 1.391 . S
C279 H251 0.931 . S
C279 C274 1.370 . S
C279 C278 1.391 . S
C280 N249 1.435 . S
C280 C281 1.358 . S
C280 C285 1.371 . S
C281 H253 0.930 . S
C281 C280 1.358 . S
C281 C282 1.405 . S
C282 H254 0.932 1_545 S
C282 C281 1.405 . S
C282 C283 1.383 . S
C283 C282 1.383 . S
C283 C284 1.393 . S
C284 H256 0.931 . S
C284 C283 1.393 . S
C284 C285 1.382 . S
C285 H255 0.929 . S
C285 C280 1.371 . S
C285 C284 1.382 . S
C286 N249 1.423 . S
C286 C287 1.362 . S
C286 C291 1.388 . S
C287 H257 0.929 . S
C287 C286 1.362 . S
C287 C288 1.376 . S
C288 H259 0.931 . S
C288 C287 1.376 . S
C288 C289 1.396 . S
C289 C288 1.396 . S
C289 C290 1.348 . S
C289 C307 1.472 . S
C290 H260 0.929 . S
C290 C289 1.348 . S
C290 C291 1.443 . S
C291 H258 0.932 . S
C291 C286 1.388 . S
C291 C290 1.443 . S
C292 N272 1.433 . S
C292 C293 1.363 . S
C292 C297 1.370 . S
C293 H261 0.929 . S
C293 C292 1.363 . S
C293 C294 1.385 . S
C294 H262 0.930 . S
C294 C293 1.385 . S
C294 C295 1.357 . S
C295 C294 1.357 . S
C295 C296 1.406 . S
C296 H263 0.929 . S
C296 C295 1.406 . S
C296 C297 1.391 . S
C297 H264 0.931 . S
C297 C292 1.370 . S
C297 C296 1.391 . S
C298 N272 1.435 . S
C298 C299 1.358 . S
C298 C303 1.371 . S
C299 H265 0.930 . S
C299 C298 1.358 . S
C299 C300 1.405 . S
C300 H266 0.932 . S
C300 C299 1.405 . S
C300 C301 1.383 . S
C301 C300 1.383 . S
C301 C302 1.393 . S
C302 H267 0.931 . S
C302 C301 1.393 . S
C302 C303 1.382 . S
C303 H268 0.929 . S
C303 C298 1.371 . S
C303 C302 1.382 . S
C304 N272 1.423 . S
C304 C305 1.362 . S
C304 C309 1.388 . S
C305 H269 0.929 . S
C305 C304 1.362 . S
C305 C306 1.376 . S
C306 H270 0.931 . S
C306 C305 1.376 . S
C306 C307 1.396 . S
C307 C289 1.472 . S
C307 C306 1.396 . S
C307 C308 1.348 . S
C308 H271 0.929 . S
C308 C307 1.348 . S
C308 C309 1.443 . S
C309 H273 0.932 . S
C309 C304 1.388 . S
C309 C308 1.443 . S
H310 C337 0.929 . S
N311 C336 1.433 . S
N311 C342 1.435 . S
N311 C348 1.423 . S
H312 C338 0.930 1_545 S
H313 C341 0.931 . S
H314 C340 0.929 . S
H315 C343 0.930 . S
H316 C344 0.932 . S
H317 C347 0.929 . S
H318 C346 0.931 . S
H319 C349 0.929 . S
H320 C353 0.932 . S
H321 C350 0.931 . S
H322 C352 0.929 . S
H323 C355 0.929 . S
H324 C356 0.930 . S
H325 C358 0.929 . S
H326 C359 0.931 . S
H327 C361 0.930 . S
H328 C362 0.932 . S
H329 C364 0.931 . S
H330 C365 0.929 . S
H331 C367 0.929 . S
H332 C368 0.931 . S
H333 C370 0.929 . S
N334 C354 1.433 . S
N334 C360 1.435 . S
N334 C366 1.423 . S
H335 C371 0.932 . S
C336 N311 1.433 . S
C336 C337 1.363 . S
C336 C341 1.370 . S
C337 H310 0.929 . S
C337 C336 1.363 . S
C337 C338 1.385 . S
C338 H312 0.930 1_565 S
C338 C337 1.385 . S
C338 C339 1.357 . S
C339 C338 1.357 . S
C339 C340 1.406 . S
C340 H314 0.929 . S
C340 C339 1.406 . S
C340 C341 1.391 . S
C341 H313 0.931 . S
C341 C336 1.370 . S
C341 C340 1.391 . S
C342 N311 1.435 . S
C342 C343 1.358 . S
C342 C347 1.371 . S
C343 H315 0.930 . S
C343 C342 1.358 . S
C343 C344 1.405 1_565 S
C344 H316 0.932 . S
C344 C343 1.405 1_545 S
C344 C345 1.383 . S
C345 C344 1.383 . S
C345 C346 1.393 1_545 S
C346 H318 0.931 . S
C346 C345 1.393 1_565 S
C346 C347 1.382 . S
C347 H317 0.929 . S
C347 C342 1.371 . S
C347 C346 1.382 . S
C348 N311 1.423 . S
C348 C349 1.362 . S
C348 C353 1.388 . S
C349 H319 0.929 . S
C349 C348 1.362 . S
C349 C350 1.376 . S
C350 H321 0.931 . S
C350 C349 1.376 . S
C350 C351 1.396 . S
C351 C350 1.396 . S
C351 C352 1.348 . S
C351 C369 1.472 . S
C352 H322 0.929 . S
C352 C351 1.348 . S
C352 C353 1.443 . S
C353 H320 0.932 . S
C353 C348 1.388 . S
C353 C352 1.443 . S
C354 N334 1.433 . S
C354 C355 1.363 . S
C354 C359 1.370 . S
C355 H323 0.929 . S
C355 C354 1.363 . S
C355 C356 1.385 . S
C356 H324 0.930 . S
C356 C355 1.385 . S
C356 C357 1.357 . S
C357 C356 1.357 . S
C357 C358 1.406 . S
C358 H325 0.929 . S
C358 C357 1.406 . S
C358 C359 1.391 . S
C359 H326 0.931 . S
C359 C354 1.370 . S
C359 C358 1.391 . S
C360 N334 1.435 . S
C360 C361 1.358 . S
C360 C365 1.371 . S
C361 H327 0.930 . S
C361 C360 1.358 . S
C361 C362 1.405 . S
C362 H328 0.932 . S
C362 C361 1.405 . S
C362 C363 1.383 . S
C363 C362 1.383 . S
C363 C364 1.393 . S
C364 H329 0.931 . S
C364 C363 1.393 . S
C364 C365 1.382 . S
C365 H330 0.929 . S
C365 C360 1.371 . S
C365 C364 1.382 . S
C366 N334 1.423 . S
C366 C367 1.362 . S
C366 C371 1.388 . S
C367 H331 0.929 . S
C367 C366 1.362 . S
C367 C368 1.376 . S
C368 H332 0.931 . S
C368 C367 1.376 . S
C368 C369 1.396 . S
C369 C351 1.472 . S
C369 C368 1.396 . S
C369 C370 1.348 . S
C370 H333 0.929 . S
C370 C369 1.348 . S
C370 C371 1.443 . S
C371 H335 0.932 . S
C371 C366 1.388 . S
C371 C370 1.443 . S
H372 C399 0.929 . S
N373 C398 1.433 . S
N373 C404 1.435 . S
N373 C410 1.423 . S
H374 C400 0.930 . S
H375 C403 0.931 1_554 S
H376 C402 0.929 . S
H377 C405 0.930 . S
H378 C406 0.932 . S
H379 C409 0.929 . S
H380 C408 0.931 . S
H381 C411 0.894 1_556 S
H382 C415 0.932 . S
H383 C412 0.872 1_556 S
H384 C414 0.929 . S
H385 C417 0.929 . S
H386 C418 0.930 . S
H387 C420 0.929 . S
H388 C421 0.931 1_554 S
H389 C423 0.930 . S
H390 C424 0.932 . S
H391 C426 0.931 . S
H392 C427 0.929 . S
H393 C429 0.895 1_556 S
H394 C430 0.873 1_556 S
H395 C432 0.929 . S
N396 C416 1.433 . S
N396 C422 1.435 . S
N396 C428 1.423 . S
H397 C433 0.932 . S
C398 N373 1.433 . S
C398 C399 1.363 1_554 S
C398 C403 1.370 1_554 S
C399 H372 0.929 . S
C399 C398 1.363 1_556 S
C399 C400 1.385 . S
C400 H374 0.930 . S
C400 C399 1.385 . S
C400 C401 1.357 . S
C401 C400 1.357 . S
C401 C402 1.406 . S
C402 H376 0.929 . S
C402 C401 1.406 . S
C402 C403 1.391 . S
C403 H375 0.931 1_556 S
C403 C398 1.370 1_556 S
C403 C402 1.391 . S
C404 N373 1.435 . S
C404 C405 1.358 . S
C404 C409 1.371 . S
C405 H377 0.930 . S
C405 C404 1.358 . S
C405 C406 1.405 . S
C406 H378 0.932 . S
C406 C405 1.405 . S
C406 C407 1.383 . S
C407 C406 1.383 . S
C407 C408 1.393 . S
C408 H380 0.931 . S
C408 C407 1.393 . S
C408 C409 1.382 . S
C409 H379 0.929 . S
C409 C404 1.371 . S
C409 C408 1.382 . S
C410 N373 1.423 . S
C410 C411 1.396 . S
C410 C415 1.388 . S
C411 H381 0.894 1_554 S
C411 C410 1.396 . S
C411 C412 1.376 . S
C412 H383 0.872 1_554 S
C412 C411 1.376 . S
C412 C413 1.455 . S
C413 C412 1.455 . S
C413 C414 1.348 . S
C413 C431 1.472 . S
C414 H384 0.929 . S
C414 C413 1.348 . S
C414 C415 1.443 . S
C415 H382 0.932 . S
C415 C410 1.388 . S
C415 C414 1.443 . S
C416 N396 1.433 . S
C416 C417 1.363 1_554 S
C416 C421 1.370 1_554 S
C417 H385 0.929 . S
C417 C416 1.363 1_556 S
C417 C418 1.385 . S
C418 H386 0.930 . S
C418 C417 1.385 . S
C418 C419 1.357 . S
C419 C418 1.357 . S
C419 C420 1.406 . S
C420 H387 0.929 . S
C420 C419 1.406 . S
C420 C421 1.391 . S
C421 H388 0.931 1_556 S
C421 C416 1.370 1_556 S
C421 C420 1.391 . S
C422 N396 1.435 . S
C422 C423 1.358 . S
C422 C427 1.371 . S
C423 H389 0.930 . S
C423 C422 1.358 . S
C423 C424 1.405 . S
C424 H390 0.932 . S
C424 C423 1.405 . S
C424 C425 1.383 . S
C425 C424 1.383 . S
C425 C426 1.393 . S
C426 H391 0.931 . S
C426 C425 1.393 . S
C426 C427 1.382 . S
C427 H392 0.929 . S
C427 C422 1.371 . S
C427 C426 1.382 . S
C428 N396 1.423 . S
C428 C429 1.395 . S
C428 C433 1.388 . S
C429 H393 0.895 1_554 S
C429 C428 1.395 . S
C429 C430 1.376 . S
C430 H394 0.873 1_554 S
C430 C429 1.376 . S
C430 C431 1.454 . S
C431 C413 1.472 . S
C431 C430 1.454 . S
C431 C432 1.348 . S
C432 H395 0.929 . S
C432 C431 1.348 . S
C432 C433 1.443 . S
C433 H397 0.932 . S
C433 C428 1.388 . S
C433 C432 1.443 . S
H434 C461 0.929 . S
N435 C460 1.433 . S
N435 C466 1.435 . S
N435 C472 1.423 . S
H436 C462 0.930 . S
H437 C465 0.931 . S
H438 C464 0.929 . S
H439 C467 0.930 . S
H440 C468 0.932 . S
H441 C471 0.929 . S
H442 C470 0.931 . S
H443 C473 0.929 . S
H444 C477 0.932 . S
H445 C474 0.931 . S
H446 C476 0.929 . S
H447 C479 0.929 . S
H448 C480 0.930 . S
H449 C482 0.929 1_455 S
H450 C483 0.931 . S
H451 C485 0.930 . S
H452 C486 0.932 . S
H453 C488 0.931 . S
H454 C489 0.929 1_455 S
H455 C491 0.929 . S
H456 C492 0.931 . S
H457 C494 0.929 . S
N458 C478 1.433 1_455 S
N458 C484 1.435 1_455 S
N458 C490 1.423 . S
H459 C495 0.932 . S
C460 N435 1.433 . S
C460 C461 1.363 . S
C460 C465 1.370 . S
C461 H434 0.929 . S
C461 C460 1.363 . S
C461 C462 1.385 . S
C462 H436 0.930 . S
C462 C461 1.385 . S
C462 C463 1.357 . S
C463 C462 1.357 . S
C463 C464 1.406 . S
C464 H438 0.929 . S
C464 C463 1.406 . S
C464 C465 1.391 . S
C465 H437 0.931 . S
C465 C460 1.370 . S
C465 C464 1.391 . S
C466 N435 1.435 . S
C466 C467 1.358 . S
C466 C471 1.371 . S
C467 H439 0.930 . S
C467 C466 1.358 . S
C467 C468 1.405 . S
C468 H440 0.932 . S
C468 C467 1.405 . S
C468 C469 1.383 . S
C469 C468 1.383 . S
C469 C470 1.393 . S
C470 H442 0.931 . S
C470 C469 1.393 . S
C470 C471 1.382 . S
C471 H441 0.929 . S
C471 C466 1.371 . S
C471 C470 1.382 . S
C472 N435 1.423 . S
C472 C473 1.362 . S
C472 C477 1.388 . S
C473 H443 0.929 . S
C473 C472 1.362 . S
C473 C474 1.376 . S
C474 H445 0.931 . S
C474 C473 1.376 . S
C474 C475 1.396 . S
C475 C474 1.396 . S
C475 C476 1.348 . S
C475 C493 1.472 . S
C476 H446 0.929 . S
C476 C475 1.348 . S
C476 C477 1.443 . S
C477 H444 0.932 . S
C477 C472 1.388 . S
C477 C476 1.443 . S
C478 N458 1.433 1_655 S
C478 C479 1.363 . S
C478 C483 1.370 1_655 S
C479 H447 0.929 . S
C479 C478 1.363 . S
C479 C480 1.385 . S
C480 H448 0.930 . S
C480 C479 1.385 . S
C480 C481 1.357 . S
C481 C480 1.357 . S
C481 C482 1.406 . S
C482 H449 0.929 1_655 S
C482 C481 1.406 . S
C482 C483 1.391 1_655 S
C483 H450 0.931 . S
C483 C478 1.370 1_455 S
C483 C482 1.391 1_455 S
C484 N458 1.435 1_655 S
C484 C485 1.358 . S
C484 C489 1.371 . S
C485 H451 0.930 . S
C485 C484 1.358 . S
C485 C486 1.405 . S
C486 H452 0.932 . S
C486 C485 1.405 . S
C486 C487 1.383 . S
C487 C486 1.383 . S
C487 C488 1.393 . S
C488 H453 0.931 . S
C488 C487 1.393 . S
C488 C489 1.382 . S
C489 H454 0.929 1_655 S
C489 C484 1.371 . S
C489 C488 1.382 . S
C490 N458 1.423 . S
C490 C491 1.362 . S
C490 C495 1.388 . S
C491 H455 0.929 . S
C491 C490 1.362 . S
C491 C492 1.376 . S
C492 H456 0.931 . S
C492 C491 1.376 . S
C492 C493 1.396 . S
C493 C475 1.472 . S
C493 C492 1.396 . S
C493 C494 1.348 . S
C494 H457 0.929 . S
C494 C493 1.348 . S
C494 C495 1.443 . S
C495 H459 0.932 . S
C495 C490 1.388 . S
C495 C494 1.443 . S
C496 O523 1.312 . S
C496 O524 1.208 . S
C497 O518 1.307 1_655 S
C497 O521 1.260 . S
C498 O520 1.252 1_655 S
C498 O522 1.280 . S
Mg499 O501 1.936 . S
Mg499 O508 2.081 . S
Mg499 O510 2.023 . S
Mg499 O514 2.031 . S
Mg499 O523 2.291 . S
Mg500 O501 1.963 . S
Mg500 O511 1.942 . S
Mg500 O512 1.955 . S
Mg500 O519 1.986 . S
O501 Mg499 1.936 . S
O501 Mg500 1.963 . S
O501 Mg502 1.915 . S
Mg502 O501 1.915 . S
Mg502 O503 1.915 . S
Mg502 O507 2.013 . S
Mg502 O513 2.114 . S
Mg502 O517 2.013 . S
Mg502 O523 2.114 . S
O503 Mg502 1.915 . S
O503 Mg504 1.936 . S
O503 Mg505 1.963 1_455 S
Mg504 O503 1.936 . S
Mg504 O513 2.291 . S
Mg504 O518 2.081 . S
Mg504 O520 2.023 . S
Mg504 O524 2.031 . S
Mg505 O503 1.963 1_655 S
Mg505 O509 1.986 . S
Mg505 O521 1.942 . S
Mg505 O522 1.955 . S
C506 O517 1.191 . S
C506 O519 1.307 . S
O507 Mg502 2.013 . S
O507 C526 1.191 . S
O508 Mg499 2.081 . S
O508 C516 1.331 . S
O509 Mg505 1.986 . S
O509 C526 1.306 1_655 S
O510 Mg499 2.023 . S
O510 C525 1.264 . S
O511 Mg500 1.942 . S
O511 C516 1.244 . S
O512 Mg500 1.955 . S
O512 C525 1.273 . S
O513 Mg502 2.114 . S
O513 Mg504 2.291 . S
O513 C515 1.312 . S
O514 Mg499 2.031 . S
O514 C515 1.208 . S
C515 O513 1.312 . S
C515 O514 1.208 . S
C516 O508 1.331 . S
C516 O511 1.244 . S
O517 Mg502 2.013 . S
O517 C506 1.191 . S
O518 C497 1.307 1_455 S
O518 Mg504 2.081 . S
O519 Mg500 1.986 . S
O519 C506 1.307 . S
O520 C498 1.252 1_455 S
O520 Mg504 2.023 . S
O521 C497 1.260 . S
O521 Mg505 1.942 . S
O522 C498 1.280 . S
O522 Mg505 1.955 . S
O523 C496 1.312 . S
O523 Mg499 2.291 . S
O523 Mg502 2.114 . S
O524 C496 1.208 . S
O524 Mg504 2.031 . S
C525 O510 1.264 . S
C525 O512 1.273 . S
C526 O507 1.191 . S
C526 O509 1.306 1_455 S
C527 O554 1.312 . S
C527 O555 1.208 . S
C528 O549 1.331 . S
C528 O552 1.244 . S
C529 O551 1.264 . S
C529 O553 1.273 . S
Mg530 O532 1.936 . S
Mg530 O539 2.081 . S
Mg530 O541 2.023 . S
Mg530 O545 2.031 . S
Mg530 O554 2.291 . S
Mg531 O532 1.963 . S
Mg531 O542 1.942 . S
Mg531 O543 1.955 . S
Mg531 O550 1.986 . S
O532 Mg530 1.936 . S
O532 Mg531 1.963 . S
O532 Mg533 1.915 . S
Mg533 O532 1.915 . S
Mg533 O534 1.915 . S
Mg533 O538 2.013 . S
Mg533 O544 2.114 . S
Mg533 O548 2.013 . S
Mg533 O554 2.114 . S
O534 Mg533 1.915 . S
O534 Mg535 1.936 . S
O534 Mg536 1.963 . S
Mg535 O534 1.936 . S
Mg535 O544 2.291 . S
Mg535 O549 2.081 . S
Mg535 O551 2.023 . S
Mg535 O555 2.031 . S
Mg536 O534 1.963 . S
Mg536 O540 1.986 . S
Mg536 O552 1.942 . S
Mg536 O553 1.955 . S
C537 O548 1.191 . S
C537 O550 1.307 . S
O538 Mg533 2.013 . S
O538 C557 1.191 . S
O539 Mg530 2.081 . S
O539 C547 1.331 . S
O540 Mg536 1.986 . S
O540 C557 1.307 . S
O541 Mg530 2.023 . S
O541 C556 1.264 . S
O542 Mg531 1.942 . S
O542 C547 1.244 . S
O543 Mg531 1.955 . S
O543 C556 1.273 . S
O544 Mg533 2.114 . S
O544 Mg535 2.291 . S
O544 C546 1.312 . S
O545 Mg530 2.031 . S
O545 C546 1.208 . S
C546 O544 1.312 . S
C546 O545 1.208 . S
C547 O539 1.331 . S
C547 O542 1.244 . S
O548 Mg533 2.013 . S
O548 C537 1.191 . S
O549 C528 1.331 . S
O549 Mg535 2.081 . S
O550 Mg531 1.986 . S
O550 C537 1.307 . S
O551 C529 1.264 . S
O551 Mg535 2.023 . S
O552 C528 1.244 . S
O552 Mg536 1.942 . S
O553 C529 1.273 . S
O553 Mg536 1.955 . S
O554 C527 1.312 . S
O554 Mg530 2.291 . S
O554 Mg533 2.114 . S
O555 C527 1.208 . S
O555 Mg535 2.031 . S
C556 O541 1.264 . S
C556 O543 1.273 . S
C557 O538 1.191 . S
C557 O540 1.307 . S
C558 O585 1.312 . S
C558 O586 1.208 . S
C559 O580 1.331 . S
C559 O583 1.244 . S
C560 O582 1.264 . S
C560 O584 1.273 . S
Mg561 O563 1.936 . S
Mg561 O570 2.081 . S
Mg561 O572 2.023 . S
Mg561 O576 2.031 . S
Mg561 O585 2.291 . S
Mg562 O563 1.963 . S
Mg562 O573 1.942 . S
Mg562 O574 1.955 . S
Mg562 O581 1.986 . S
O563 Mg561 1.936 . S
O563 Mg562 1.963 . S
O563 Mg564 1.915 . S
Mg564 O563 1.915 . S
Mg564 O565 1.915 . S
Mg564 O569 2.013 . S
Mg564 O575 2.114 . S
Mg564 O579 2.013 . S
Mg564 O585 2.114 . S
O565 Mg564 1.915 . S
O565 Mg566 1.936 . S
O565 Mg567 1.963 . S
Mg566 O565 1.936 . S
Mg566 O575 2.291 . S
Mg566 O580 2.081 . S
Mg566 O582 2.023 . S
Mg566 O586 2.031 . S
Mg567 O565 1.963 . S
Mg567 O571 1.986 . S
Mg567 O583 1.942 . S
Mg567 O584 1.955 . S
C568 O579 1.191 . S
C568 O581 1.307 . S
O569 Mg564 2.013 . S
O569 C588 1.191 . S
O570 Mg561 2.081 . S
O570 C578 1.331 . S
O571 Mg567 1.986 . S
O571 C588 1.307 . S
O572 Mg561 2.023 . S
O572 C587 1.264 . S
O573 Mg562 1.942 . S
O573 C578 1.244 . S
O574 Mg562 1.955 . S
O574 C587 1.273 . S
O575 Mg564 2.114 . S
O575 Mg566 2.291 . S
O575 C577 1.312 . S
O576 Mg561 2.031 . S
O576 C577 1.208 . S
C577 O575 1.312 . S
C577 O576 1.208 . S
C578 O570 1.331 . S
C578 O573 1.244 . S
O579 Mg564 2.013 . S
O579 C568 1.191 . S
O580 C559 1.331 . S
O580 Mg566 2.081 . S
O581 Mg562 1.986 . S
O581 C568 1.307 . S
O582 C560 1.264 . S
O582 Mg566 2.023 . S
O583 C559 1.244 . S
O583 Mg567 1.942 . S
O584 C560 1.273 . S
O584 Mg567 1.955 . S
O585 C558 1.312 . S
O585 Mg561 2.291 . S
O585 Mg564 2.114 . S
O586 C558 1.208 . S
O586 Mg566 2.031 . S
C587 O572 1.264 . S
C587 O574 1.273 . S
C588 O569 1.191 . S
C588 O571 1.307 . S
C589 O616 1.312 . S
C589 O617 1.208 . S
C590 O611 1.331 . S
C590 O614 1.244 . S
C591 O613 1.264 . S
C591 O615 1.273 . S
Mg592 O594 1.936 . S
Mg592 O601 2.081 . S
Mg592 O603 2.023 . S
Mg592 O607 2.031 . S
Mg592 O616 2.291 . S
Mg593 O594 1.963 1_655 S
Mg593 O604 1.942 . S
Mg593 O605 1.955 . S
Mg593 O612 1.987 . S
O594 Mg592 1.936 . S
O594 Mg593 1.963 1_455 S
O594 Mg595 1.915 . S
Mg595 O594 1.915 . S
Mg595 O596 1.915 . S
Mg595 O600 2.013 . S
Mg595 O606 2.114 . S
Mg595 O610 2.013 . S
Mg595 O616 2.114 . S
O596 Mg595 1.915 . S
O596 Mg597 1.936 . S
O596 Mg598 1.963 . S
Mg597 O596 1.936 . S
Mg597 O606 2.291 . S
Mg597 O611 2.081 . S
Mg597 O613 2.023 . S
Mg597 O617 2.031 . S
Mg598 O596 1.963 . S
Mg598 O602 1.986 . S
Mg598 O614 1.942 . S
Mg598 O615 1.955 . S
C599 O610 1.191 . S
C599 O612 1.302 1_455 S
O600 Mg595 2.013 . S
O600 C619 1.191 . S
O601 Mg592 2.081 . S
O601 C609 1.331 1_455 S
O602 Mg598 1.986 . S
O602 C619 1.307 . S
O603 Mg592 2.023 . S
O603 C618 1.238 1_455 S
O604 Mg593 1.942 . S
O604 C609 1.244 . S
O605 Mg593 1.955 . S
O605 C618 1.288 . S
O606 Mg595 2.114 . S
O606 Mg597 2.291 . S
O606 C608 1.312 . S
O607 Mg592 2.031 . S
O607 C608 1.208 . S
C608 O606 1.312 . S
C608 O607 1.208 . S
C609 O601 1.331 1_655 S
C609 O604 1.244 . S
O610 Mg595 2.013 . S
O610 C599 1.191 . S
O611 C590 1.331 . S
O611 Mg597 2.081 . S
O612 Mg593 1.987 . S
O612 C599 1.302 1_655 S
O613 C591 1.264 . S
O613 Mg597 2.023 . S
O614 C590 1.244 . S
O614 Mg598 1.942 . S
O615 C591 1.273 . S
O615 Mg598 1.955 . S
O616 C589 1.312 . S
O616 Mg592 2.291 . S
O616 Mg595 2.114 . S
O617 C589 1.208 . S
O617 Mg597 2.031 . S
C618 O603 1.238 1_655 S
C618 O605 1.288 . S
C619 O600 1.191 . S
C619 O602 1.307 . S
H620 C638 0.951 . S
H621 C640 0.951 . S
H622 C642 0.950 . S
H623 C643 0.950 . S
H624 C645 0.950 . S
H625 C648 0.950 . S
H626 C649 0.950 . S
H627 C651 0.950 . S
H628 C652 0.950 . S
H629 C653 0.951 . S
H630 C655 0.951 . S
H631 C657 0.950 . S
H632 C658 0.950 . S
H633 C660 0.950 . S
H634 C663 0.950 . S
H635 C664 0.950 . S
H636 C666 0.950 . S
H637 C667 0.950 . S
C638 H620 0.951 . S
C638 C639 1.366 . S
C638 C640 1.388 . S
C639 C638 1.366 . S
C639 C643 1.385 . S
C640 H621 0.951 . S
C640 C638 1.388 . S
C640 C641 1.366 . S
C641 C640 1.366 . S
C641 C642 1.414 . S
C641 C644 1.499 . S
C642 H622 0.950 . S
C642 C641 1.414 . S
C642 C643 1.374 . S
C643 H623 0.950 . S
C643 C639 1.385 . S
C643 C642 1.374 . S
C644 C641 1.499 . S
C644 C645 1.373 . S
C644 C646 1.389 . S
C645 H624 0.950 . S
C645 C644 1.373 . S
C645 C661 1.377 . S
C646 C644 1.389 . S
C646 C647 1.524 . S
C646 C660 1.377 . S
C647 C646 1.524 . S
C647 C648 1.397 . S
C647 C652 1.363 . S
C648 H625 0.950 . S
C648 C647 1.397 . S
C648 C649 1.334 . S
C649 H626 0.950 . S
C649 C648 1.334 . S
C649 C650 1.287 . S
C650 C649 1.287 . S
C650 C651 1.524 . S
C650 H669 0.913 . S
C651 H627 0.950 . S
C651 C650 1.524 . S
C651 C652 1.415 . S
C652 H628 0.950 . S
C652 C647 1.363 . S
C652 C651 1.415 . S
C653 H629 0.951 . S
C653 C654 1.366 . S
C653 C655 1.388 . S
C654 C653 1.366 . S
C654 C658 1.385 . S
C655 H630 0.951 . S
C655 C653 1.388 . S
C655 C656 1.366 . S
C656 C655 1.366 . S
C656 C657 1.414 . S
C656 C659 1.499 . S
C657 H631 0.950 . S
C657 C656 1.414 . S
C657 C658 1.374 . S
C658 H632 0.950 . S
C658 C654 1.385 . S
C658 C657 1.374 . S
C659 C656 1.499 . S
C659 C660 1.373 . S
C659 C661 1.389 . S
C660 H633 0.950 . S
C660 C646 1.377 . S
C660 C659 1.373 . S
C661 C645 1.377 . S
C661 C659 1.389 . S
C661 C662 1.524 . S
C662 C661 1.524 . S
C662 C663 1.397 . S
C662 C667 1.363 . S
C663 H634 0.950 . S
C663 C662 1.397 . S
C663 C664 1.334 . S
C664 H635 0.950 . S
C664 C663 1.334 . S
C664 C665 1.287 . S
C665 C664 1.287 . S
C665 C666 1.524 . S
C665 H668 0.999 . S
C666 H636 0.950 . S
C666 C665 1.524 . S
C666 C667 1.415 . S
C667 H637 0.950 . S
C667 C662 1.363 . S
C667 C666 1.415 . S
H668 C665 0.999 . S
H669 C650 0.913 . S
H670 C688 0.951 . S
H671 C690 0.951 . S
H672 C692 0.950 . S
H673 C693 0.950 . S
H674 C695 0.950 1_565 S
H675 C698 0.950 . S
H676 C699 0.950 . S
H677 C701 0.950 . S
H678 C702 0.950 . S
H679 C703 0.951 . S
H680 C705 0.951 . S
H681 C707 0.950 . S
H682 C708 0.950 . S
H683 C710 0.950 . S
H684 C713 0.950 . S
H685 C714 0.950 . S
H686 C716 0.950 . S
H687 C717 0.950 . S
C688 H670 0.951 . S
C688 C689 1.366 . S
C688 C690 1.388 . S
C689 C688 1.366 . S
C689 C693 1.385 . S
C690 H671 0.951 . S
C690 C688 1.388 . S
C690 C691 1.366 . S
C691 C690 1.366 . S
C691 C692 1.414 . S
C691 C694 1.499 1_565 S
C692 H672 0.950 . S
C692 C691 1.414 . S
C692 C693 1.374 . S
C693 H673 0.950 . S
C693 C689 1.385 . S
C693 C692 1.374 . S
C694 C691 1.499 1_545 S
C694 C695 1.373 . S
C694 C696 1.389 . S
C695 H674 0.950 1_545 S
C695 C694 1.373 . S
C695 C711 1.377 . S
C696 C694 1.389 . S
C696 C697 1.524 . S
C696 C710 1.377 . S
C697 C696 1.524 . S
C697 C698 1.397 . S
C697 C702 1.363 . S
C698 H675 0.950 . S
C698 C697 1.397 . S
C698 C699 1.334 . S
C699 H676 0.950 . S
C699 C698 1.334 . S
C699 C700 1.287 . S
C700 C699 1.287 . S
C700 C701 1.524 . S
C700 H719 0.913 . S
C701 H677 0.950 . S
C701 C700 1.524 . S
C701 C702 1.415 . S
C702 H678 0.950 . S
C702 C697 1.363 . S
C702 C701 1.415 . S
C703 H679 0.951 . S
C703 C704 1.366 . S
C703 C705 1.388 . S
C704 C703 1.366 . S
C704 C708 1.385 . S
C705 H680 0.951 . S
C705 C703 1.388 . S
C705 C706 1.366 . S
C706 C705 1.366 . S
C706 C707 1.414 . S
C706 C709 1.499 . S
C707 H681 0.950 . S
C707 C706 1.414 . S
C707 C708 1.374 . S
C708 H682 0.950 . S
C708 C704 1.385 . S
C708 C707 1.374 . S
C709 C706 1.499 . S
C709 C710 1.373 . S
C709 C711 1.389 . S
C710 H683 0.950 . S
C710 C696 1.377 . S
C710 C709 1.373 . S
C711 C695 1.377 . S
C711 C709 1.389 . S
C711 C712 1.524 . S
C712 C711 1.524 . S
C712 C713 1.397 . S
C712 C717 1.363 . S
C713 H684 0.950 . S
C713 C712 1.397 . S
C713 C714 1.334 . S
C714 H685 0.950 . S
C714 C713 1.334 . S
C714 C715 1.287 . S
C715 C714 1.287 . S
C715 C716 1.524 1_545 S
C715 H718 0.999 1_545 S
C716 H686 0.950 . S
C716 C715 1.524 1_565 S
C716 C717 1.415 1_565 S
C717 H687 0.950 . S
C717 C712 1.363 . S
C717 C716 1.415 1_545 S
H718 C715 0.999 1_565 S
H719 C700 0.913 . S
H720 C738 0.951 . S
H721 C740 0.951 . S
H722 C742 0.950 . S
H723 C743 0.950 . S
H724 C745 0.950 . S
H725 C748 0.950 . S
H726 C749 0.950 . S
H727 C751 0.950 . S
H728 C752 0.950 . S
H729 C753 0.951 . S
H730 C755 0.951 . S
H731 C757 0.950 . S
H732 C758 0.950 . S
H733 C760 0.950 . S
H734 C763 0.950 . S
H735 C764 0.950 . S
H736 C766 0.950 . S
H737 C767 0.950 . S
C738 H720 0.951 . S
C738 C739 1.366 . S
C738 C740 1.388 . S
C739 C738 1.366 . S
C739 C743 1.385 . S
C740 H721 0.951 . S
C740 C738 1.388 . S
C740 C741 1.366 . S
C741 C740 1.366 . S
C741 C742 1.414 . S
C741 C744 1.499 . S
C742 H722 0.950 . S
C742 C741 1.414 . S
C742 C743 1.374 . S
C743 H723 0.950 . S
C743 C739 1.385 . S
C743 C742 1.374 . S
C744 C741 1.499 . S
C744 C745 1.373 . S
C744 C746 1.389 . S
C745 H724 0.950 . S
C745 C744 1.373 . S
C745 C761 1.377 . S
C746 C744 1.389 . S
C746 C747 1.524 . S
C746 C760 1.377 . S
C747 C746 1.524 . S
C747 C748 1.397 . S
C747 C752 1.363 . S
C748 H725 0.950 . S
C748 C747 1.397 . S
C748 C749 1.334 . S
C749 H726 0.950 . S
C749 C748 1.334 . S
C749 C750 1.287 . S
C750 C749 1.287 . S
C750 C751 1.524 . S
C750 H769 0.913 . S
C751 H727 0.950 . S
C751 C750 1.524 . S
C751 C752 1.415 . S
C752 H728 0.950 . S
C752 C747 1.363 . S
C752 C751 1.415 . S
C753 H729 0.951 . S
C753 C754 1.366 . S
C753 C755 1.388 . S
C754 C753 1.366 . S
C754 C758 1.385 . S
C755 H730 0.951 . S
C755 C753 1.388 . S
C755 C756 1.366 . S
C756 C755 1.366 . S
C756 C757 1.414 . S
C756 C759 1.499 . S
C757 H731 0.950 . S
C757 C756 1.414 . S
C757 C758 1.374 . S
C758 H732 0.950 . S
C758 C754 1.385 . S
C758 C757 1.374 . S
C759 C756 1.499 . S
C759 C760 1.373 . S
C759 C761 1.389 . S
C760 H733 0.950 . S
C760 C746 1.377 . S
C760 C759 1.373 . S
C761 C745 1.377 . S
C761 C759 1.389 . S
C761 C762 1.524 . S
C762 C761 1.524 . S
C762 C763 1.397 . S
C762 C767 1.363 . S
C763 H734 0.950 . S
C763 C762 1.397 . S
C763 C764 1.334 . S
C764 H735 0.950 . S
C764 C763 1.334 . S
C764 C765 1.287 . S
C765 C764 1.287 . S
C765 C766 1.524 . S
C765 H768 0.999 1_545 S
C766 H736 0.950 . S
C766 C765 1.524 . S
C766 C767 1.415 . S
C767 H737 0.950 . S
C767 C762 1.363 . S
C767 C766 1.415 . S
H768 C765 0.999 1_565 S
H769 C750 0.913 . S
H770 C788 0.951 . S
H771 C790 0.951 . S
H772 C792 0.950 1_565 S
H773 C793 0.950 . S
H774 C795 0.950 . S
H775 C798 0.950 . S
H776 C799 0.950 . S
H777 C801 0.950 . S
H778 C802 0.950 . S
H779 C803 0.951 . S
H780 C805 0.951 . S
H781 C807 0.950 . S
H782 C808 0.950 . S
H783 C810 0.950 . S
H784 C813 0.950 . S
H785 C814 0.950 . S
H786 C816 0.950 . S
H787 C817 0.950 . S
C788 H770 0.951 . S
C788 C789 1.366 . S
C788 C790 1.388 . S
C789 C788 1.366 . S
C789 C793 1.385 . S
C790 H771 0.951 . S
C790 C788 1.388 . S
C790 C791 1.366 . S
C791 C790 1.366 . S
C791 C792 1.414 . S
C791 C794 1.499 1_545 S
C792 H772 0.950 1_545 S
C792 C791 1.414 . S
C792 C793 1.374 . S
C793 H773 0.950 . S
C793 C789 1.385 . S
C793 C792 1.374 . S
C794 C791 1.499 1_565 S
C794 C795 1.373 . S
C794 C796 1.389 1_565 S
C795 H774 0.950 . S
C795 C794 1.373 . S
C795 C811 1.377 . S
C796 C794 1.389 1_545 S
C796 C797 1.525 . S
C796 C810 1.376 1_545 S
C797 C796 1.525 . S
C797 C798 1.397 . S
C797 C802 1.363 . S
C798 H775 0.950 . S
C798 C797 1.397 . S
C798 C799 1.334 . S
C799 H776 0.950 . S
C799 C798 1.334 . S
C799 C800 1.287 . S
C800 C799 1.287 . S
C800 C801 1.524 . S
C800 H819 0.913 . S
C801 H777 0.950 . S
C801 C800 1.524 . S
C801 C802 1.415 . S
C802 H778 0.950 . S
C802 C797 1.363 . S
C802 C801 1.415 . S
C803 H779 0.951 . S
C803 C804 1.366 . S
C803 C805 1.388 . S
C804 C803 1.366 . S
C804 C808 1.385 . S
C805 H780 0.951 . S
C805 C803 1.388 . S
C805 C806 1.366 . S
C806 C805 1.366 . S
C806 C807 1.414 . S
C806 C809 1.499 . S
C807 H781 0.950 . S
C807 C806 1.414 . S
C807 C808 1.374 . S
C808 H782 0.950 . S
C808 C804 1.385 . S
C808 C807 1.374 . S
C809 C806 1.499 . S
C809 C810 1.373 . S
C809 C811 1.389 . S
C810 H783 0.950 . S
C810 C796 1.376 1_565 S
C810 C809 1.373 . S
C811 C795 1.377 . S
C811 C809 1.389 . S
C811 C812 1.524 . S
C812 C811 1.524 . S
C812 C813 1.397 . S
C812 C817 1.363 . S
C813 H784 0.950 . S
C813 C812 1.397 . S
C813 C814 1.334 . S
C814 H785 0.950 . S
C814 C813 1.334 . S
C814 C815 1.287 . S
C815 C814 1.287 . S
C815 C816 1.524 . S
C815 H818 0.999 . S
C816 H786 0.950 . S
C816 C815 1.524 . S
C816 C817 1.415 . S
C817 H787 0.950 . S
C817 C812 1.363 . S
C817 C816 1.415 . S
H818 C815 0.999 . S
H819 C800 0.913 . S
H820 C838 0.951 . S
H821 C840 0.951 . S
H822 C842 0.950 . S
H823 C843 0.950 . S
H824 C845 0.950 . S
H825 C848 0.950 . S
H826 C849 0.950 . S
H827 C851 0.950 . S
H828 C852 0.950 . S
H829 C853 0.951 . S
H830 C855 0.951 . S
H831 C857 0.950 . S
H832 C858 0.950 . S
H833 C860 0.950 . S
H834 C863 0.950 . S
H835 C864 0.950 . S
H836 C866 0.950 . S
H837 C867 0.950 . S
C838 H820 0.951 . S
C838 C839 1.366 . S
C838 C840 1.388 . S
C839 C838 1.366 . S
C839 C843 1.385 . S
C840 H821 0.951 . S
C840 C838 1.388 . S
C840 C841 1.366 . S
C841 C840 1.366 . S
C841 C842 1.414 . S
C841 C844 1.499 . S
C842 H822 0.950 . S
C842 C841 1.414 . S
C842 C843 1.374 . S
C843 H823 0.950 . S
C843 C839 1.385 . S
C843 C842 1.374 . S
C844 C841 1.499 . S
C844 C845 1.373 . S
C844 C846 1.389 . S
C845 H824 0.950 . S
C845 C844 1.373 . S
C845 C861 1.377 . S
C846 C844 1.389 . S
C846 C847 1.524 . S
C846 C860 1.377 . S
C847 C846 1.524 . S
C847 C848 1.397 . S
C847 C852 1.363 . S
C848 H825 0.950 . S
C848 C847 1.397 . S
C848 C849 1.334 . S
C849 H826 0.950 . S
C849 C848 1.334 . S
C849 C850 1.287 . S
C850 C849 1.287 . S
C850 C851 1.524 . S
C850 H869 0.913 . S
C851 H827 0.950 . S
C851 C850 1.524 . S
C851 C852 1.415 . S
C852 H828 0.950 . S
C852 C847 1.363 . S
C852 C851 1.415 . S
C853 H829 0.951 . S
C853 C854 1.366 . S
C853 C855 1.388 . S
C854 C853 1.366 . S
C854 C858 1.385 . S
C855 H830 0.951 . S
C855 C853 1.388 . S
C855 C856 1.366 . S
C856 C855 1.366 . S
C856 C857 1.414 . S
C856 C859 1.499 . S
C857 H831 0.950 . S
C857 C856 1.414 . S
C857 C858 1.374 . S
C858 H832 0.950 . S
C858 C854 1.385 . S
C858 C857 1.374 . S
C859 C856 1.499 . S
C859 C860 1.373 . S
C859 C861 1.389 . S
C860 H833 0.950 . S
C860 C846 1.377 . S
C860 C859 1.373 . S
C861 C845 1.377 . S
C861 C859 1.389 . S
C861 C862 1.524 . S
C862 C861 1.524 . S
C862 C863 1.397 . S
C862 C867 1.363 . S
C863 H834 0.950 . S
C863 C862 1.397 . S
C863 C864 1.334 . S
C864 H835 0.950 . S
C864 C863 1.334 . S
C864 C865 1.287 . S
C865 C864 1.287 . S
C865 C866 1.524 . S
C865 H868 0.999 . S
C866 H836 0.950 . S
C866 C865 1.524 . S
C866 C867 1.415 . S
C867 H837 0.950 . S
C867 C862 1.363 . S
C867 C866 1.415 . S
H868 C865 0.999 . S
H869 C850 0.913 . S
H870 C888 0.951 . S
H871 C890 0.951 . S
H872 C892 0.950 . S
H873 C893 0.950 . S
H874 C895 0.950 . S
H875 C898 0.950 . S
H876 C899 0.950 . S
H877 C901 0.950 . S
H878 C902 0.950 . S
H879 C903 0.951 . S
H880 C905 0.951 . S
H881 C907 0.950 . S
H882 C908 0.950 . S
H883 C910 0.950 . S
H884 C913 0.950 . S
H885 C914 0.950 . S
H886 C916 0.950 . S
H887 C917 0.950 . S
C888 H870 0.951 . S
C888 C889 1.366 . S
C888 C890 1.388 . S
C889 C888 1.366 . S
C889 C893 1.385 . S
C890 H871 0.951 . S
C890 C888 1.388 . S
C890 C891 1.366 . S
C891 C890 1.366 . S
C891 C892 1.414 . S
C891 C894 1.499 . S
C892 H872 0.950 . S
C892 C891 1.414 . S
C892 C893 1.374 . S
C893 H873 0.950 . S
C893 C889 1.385 . S
C893 C892 1.374 . S
C894 C891 1.499 . S
C894 C895 1.373 1_565 S
C894 C896 1.389 . S
C895 H874 0.950 . S
C895 C894 1.373 1_545 S
C895 C911 1.377 . S
C896 C894 1.389 . S
C896 C897 1.524 . S
C896 C910 1.377 1_565 S
C897 C896 1.524 . S
C897 C898 1.397 . S
C897 C902 1.363 . S
C898 H875 0.950 . S
C898 C897 1.397 . S
C898 C899 1.334 . S
C899 H876 0.950 . S
C899 C898 1.334 . S
C899 C900 1.287 . S
C900 C899 1.287 . S
C900 C901 1.524 . S
C900 H919 0.913 . S
C901 H877 0.950 . S
C901 C900 1.524 . S
C901 C902 1.415 . S
C902 H878 0.950 . S
C902 C897 1.363 . S
C902 C901 1.415 . S
C903 H879 0.951 . S
C903 C904 1.366 . S
C903 C905 1.388 . S
C904 C903 1.366 . S
C904 C908 1.385 . S
C905 H880 0.951 . S
C905 C903 1.388 . S
C905 C906 1.366 . S
C906 C905 1.366 . S
C906 C907 1.414 . S
C906 C909 1.499 . S
C907 H881 0.950 . S
C907 C906 1.414 . S
C907 C908 1.374 . S
C908 H882 0.950 . S
C908 C904 1.385 . S
C908 C907 1.374 . S
C909 C906 1.499 . S
C909 C910 1.373 . S
C909 C911 1.389 . S
C910 H883 0.950 . S
C910 C896 1.377 1_545 S
C910 C909 1.373 . S
C911 C895 1.377 . S
C911 C909 1.389 . S
C911 C912 1.524 . S
C912 C911 1.524 . S
C912 C913 1.397 . S
C912 C917 1.363 . S
C913 H884 0.950 . S
C913 C912 1.397 . S
C913 C914 1.334 . S
C914 H885 0.950 . S
C914 C913 1.334 . S
C914 C915 1.287 . S
C915 C914 1.287 . S
C915 C916 1.524 . S
C915 H918 0.999 . S
C916 H886 0.950 . S
C916 C915 1.524 . S
C916 C917 1.415 . S
C917 H887 0.950 . S
C917 C912 1.363 . S
C917 C916 1.415 . S
H918 C915 0.999 . S
H919 C900 0.913 . S
H920 C938 0.951 . S
H921 C940 0.951 . S
H922 C942 0.950 . S
H923 C943 0.950 . S
H924 C945 0.950 . S
H925 C948 0.950 . S
H926 C949 0.950 . S
H927 C951 0.950 . S
H928 C952 0.950 . S
H929 C953 0.951 . S
H930 C955 0.951 . S
H931 C957 0.950 . S
H932 C958 0.950 . S
H933 C960 0.950 . S
H934 C963 0.950 . S
H935 C964 0.950 . S
H936 C966 0.950 . S
H937 C967 0.950 . S
C938 H920 0.951 . S
C938 C939 1.366 . S
C938 C940 1.388 . S
C939 C938 1.366 . S
C939 C943 1.385 . S
C940 H921 0.951 . S
C940 C938 1.388 . S
C940 C941 1.366 . S
C941 C940 1.366 . S
C941 C942 1.414 . S
C941 C944 1.499 . S
C942 H922 0.950 . S
C942 C941 1.414 . S
C942 C943 1.374 . S
C943 H923 0.950 . S
C943 C939 1.385 . S
C943 C942 1.374 . S
C944 C941 1.499 . S
C944 C945 1.373 . S
C944 C946 1.389 . S
C945 H924 0.950 . S
C945 C944 1.373 . S
C945 C961 1.377 . S
C946 C944 1.389 . S
C946 C947 1.524 . S
C946 C960 1.377 . S
C947 C946 1.524 . S
C947 C948 1.397 . S
C947 C952 1.363 . S
C948 H925 0.950 . S
C948 C947 1.397 . S
C948 C949 1.334 1_565 S
C949 H926 0.950 . S
C949 C948 1.334 1_545 S
C949 C950 1.287 . S
C950 C949 1.287 . S
C950 C951 1.524 . S
C950 H969 0.913 . S
C951 H927 0.950 . S
C951 C950 1.524 . S
C951 C952 1.415 1_545 S
C952 H928 0.950 . S
C952 C947 1.363 . S
C952 C951 1.415 1_565 S
C953 H929 0.951 . S
C953 C954 1.366 . S
C953 C955 1.388 . S
C954 C953 1.366 . S
C954 C958 1.385 . S
C955 H930 0.951 . S
C955 C953 1.388 . S
C955 C956 1.366 . S
C956 C955 1.366 . S
C956 C957 1.414 . S
C956 C959 1.499 . S
C957 H931 0.950 . S
C957 C956 1.414 . S
C957 C958 1.374 . S
C958 H932 0.950 . S
C958 C954 1.385 . S
C958 C957 1.374 . S
C959 C956 1.499 . S
C959 C960 1.373 . S
C959 C961 1.389 . S
C960 H933 0.950 . S
C960 C946 1.377 . S
C960 C959 1.373 . S
C961 C945 1.377 . S
C961 C959 1.389 . S
C961 C962 1.524 . S
C962 C961 1.524 . S
C962 C963 1.397 . S
C962 C967 1.363 . S
C963 H934 0.950 . S
C963 C962 1.397 . S
C963 C964 1.334 . S
C964 H935 0.950 . S
C964 C963 1.334 . S
C964 C965 1.287 . S
C965 C964 1.287 . S
C965 C966 1.524 . S
C965 H968 0.999 . S
C966 H936 0.950 . S
C966 C965 1.524 . S
C966 C967 1.415 . S
C967 H937 0.950 . S
C967 C962 1.363 . S
C967 C966 1.415 . S
H968 C965 0.999 . S
H969 C950 0.913 . S
H970 C988 0.951 . S
H971 C990 0.951 . S
H972 C992 0.950 . S
H973 C993 0.950 . S
H974 C995 0.950 . S
H975 C998 0.950 . S
H976 C999 0.950 . S
H977 C1001 0.950 . S
H978 C1002 0.950 . S
H979 C1003 0.951 . S
H980 C1005 0.951 . S
H981 C1007 0.950 . S
H982 C1008 0.950 . S
H983 C1010 0.950 . S
H984 C1013 0.950 . S
H985 C1014 0.950 . S
H986 C1016 0.950 . S
H987 C1017 0.950 . S
C988 H970 0.951 . S
C988 C989 1.366 . S
C988 C990 1.388 . S
C989 C988 1.366 . S
C989 C993 1.385 . S
C990 H971 0.951 . S
C990 C988 1.388 . S
C990 C991 1.366 . S
C991 C990 1.366 . S
C991 C992 1.414 . S
C991 C994 1.499 . S
C992 H972 0.950 . S
C992 C991 1.414 . S
C992 C993 1.374 . S
C993 H973 0.950 . S
C993 C989 1.385 . S
C993 C992 1.374 . S
C994 C991 1.499 . S
C994 C995 1.373 1_545 S
C994 C996 1.389 . S
C995 H974 0.950 . S
C995 C994 1.373 1_565 S
C995 C1011 1.377 . S
C996 C994 1.389 . S
C996 C997 1.524 . S
C996 C1010 1.377 1_545 S
C997 C996 1.524 . S
C997 C998 1.397 . S
C997 C1002 1.363 . S
C998 H975 0.950 . S
C998 C997 1.397 . S
C998 C999 1.334 . S
C999 H976 0.950 . S
C999 C998 1.334 . S
C999 C1000 1.287 . S
C1000 C999 1.287 . S
C1000 C1001 1.524 . S
C1000 H1019 0.913 . S
C1001 H977 0.950 . S
C1001 C1000 1.524 . S
C1001 C1002 1.415 . S
C1002 H978 0.950 . S
C1002 C997 1.363 . S
C1002 C1001 1.415 . S
C1003 H979 0.951 . S
C1003 C1004 1.366 . S
C1003 C1005 1.388 . S
C1004 C1003 1.366 . S
C1004 C1008 1.385 . S
C1005 H980 0.951 . S
C1005 C1003 1.388 . S
C1005 C1006 1.366 . S
C1006 C1005 1.366 . S
C1006 C1007 1.414 . S
C1006 C1009 1.499 . S
C1007 H981 0.950 . S
C1007 C1006 1.414 . S
C1007 C1008 1.374 . S
C1008 H982 0.950 . S
C1008 C1004 1.385 . S
C1008 C1007 1.374 . S
C1009 C1006 1.499 . S
C1009 C1010 1.373 . S
C1009 C1011 1.389 . S
C1010 H983 0.950 . S
C1010 C996 1.377 1_565 S
C1010 C1009 1.373 . S
C1011 C995 1.377 . S
C1011 C1009 1.389 . S
C1011 C1012 1.524 . S
C1012 C1011 1.524 . S
C1012 C1013 1.397 . S
C1012 C1017 1.363 . S
C1013 H984 0.950 . S
C1013 C1012 1.397 . S
C1013 C1014 1.334 . S
C1014 H985 0.950 . S
C1014 C1013 1.334 . S
C1014 C1015 1.287 . S
C1015 C1014 1.287 . S
C1015 C1016 1.524 . S
C1015 H1018 0.999 . S
C1016 H986 0.950 . S
C1016 C1015 1.524 . S
C1016 C1017 1.415 . S
C1017 H987 0.950 . S
C1017 C1012 1.363 . S
C1017 C1016 1.415 . S
H1018 C1015 0.999 . S
H1019 C1000 0.913 . S
H1020 C1038 0.951 . S
H1021 C1040 0.951 . S
H1022 C1042 0.950 . S
H1023 C1043 0.950 . S
H1024 C1045 0.950 . S
H1025 C1048 0.950 . S
H1026 C1049 0.950 . S
H1027 C1051 0.950 . S
H1028 C1052 0.950 . S
H1029 C1053 0.951 . S
H1030 C1055 0.951 . S
H1031 C1057 0.950 . S
H1032 C1058 0.950 . S
H1033 C1060 0.950 . S
H1034 C1063 0.950 . S
H1035 C1064 0.950 . S
H1036 C1066 0.950 . S
H1037 C1067 0.950 . S
C1038 H1020 0.951 . S
C1038 C1039 1.366 . S
C1038 C1040 1.388 . S
C1039 C1038 1.366 . S
C1039 C1043 1.385 . S
C1040 H1021 0.951 . S
C1040 C1038 1.388 . S
C1040 C1041 1.366 . S
C1041 C1040 1.366 . S
C1041 C1042 1.414 . S
C1041 C1044 1.499 . S
C1042 H1022 0.950 . S
C1042 C1041 1.414 . S
C1042 C1043 1.374 . S
C1043 H1023 0.950 . S
C1043 C1039 1.385 . S
C1043 C1042 1.374 . S
C1044 C1041 1.499 . S
C1044 C1045 1.373 . S
C1044 C1046 1.389 . S
C1045 H1024 0.950 . S
C1045 C1044 1.373 . S
C1045 C1061 1.377 . S
C1046 C1044 1.389 . S
C1046 C1047 1.524 . S
C1046 C1060 1.377 . S
C1047 C1046 1.524 . S
C1047 C1048 1.397 . S
C1047 C1052 1.363 . S
C1048 H1025 0.950 . S
C1048 C1047 1.397 . S
C1048 C1049 1.334 . S
C1049 H1026 0.950 . S
C1049 C1048 1.334 . S
C1049 C1050 1.287 . S
C1050 C1049 1.287 . S
C1050 C1051 1.524 . S
C1050 H1069 0.913 . S
C1051 H1027 0.950 . S
C1051 C1050 1.524 . S
C1051 C1052 1.415 . S
C1052 H1028 0.950 . S
C1052 C1047 1.363 . S
C1052 C1051 1.415 . S
C1053 H1029 0.951 . S
C1053 C1054 1.366 . S
C1053 C1055 1.388 . S
C1054 C1053 1.366 . S
C1054 C1058 1.385 . S
C1055 H1030 0.951 . S
C1055 C1053 1.388 . S
C1055 C1056 1.366 . S
C1056 C1055 1.366 . S
C1056 C1057 1.414 . S
C1056 C1059 1.499 . S
C1057 H1031 0.950 . S
C1057 C1056 1.414 . S
C1057 C1058 1.374 . S
C1058 H1032 0.950 . S
C1058 C1054 1.385 . S
C1058 C1057 1.374 . S
C1059 C1056 1.499 . S
C1059 C1060 1.373 . S
C1059 C1061 1.389 . S
C1060 H1033 0.950 . S
C1060 C1046 1.377 . S
C1060 C1059 1.373 . S
C1061 C1045 1.377 . S
C1061 C1059 1.389 . S
C1061 C1062 1.524 . S
C1062 C1061 1.524 . S
C1062 C1063 1.397 . S
C1062 C1067 1.363 . S
C1063 H1034 0.950 . S
C1063 C1062 1.397 . S
C1063 C1064 1.334 . S
C1064 H1035 0.950 . S
C1064 C1063 1.334 . S
C1064 C1065 1.287 . S
C1065 C1064 1.287 . S
C1065 C1066 1.524 . S
C1065 H1068 0.999 . S
C1066 H1036 0.950 . S
C1066 C1065 1.524 . S
C1066 C1067 1.415 . S
C1067 H1037 0.950 . S
C1067 C1062 1.363 . S
C1067 C1066 1.415 . S
H1068 C1065 0.999 . S
H1069 C1050 0.913 . S
H1070 C1088 0.951 . S
H1071 C1090 0.951 . S
H1072 C1092 0.950 . S
H1073 C1093 0.950 . S
H1074 C1095 0.950 . S
H1075 C1098 0.950 . S
H1076 C1099 0.950 . S
H1077 C1101 0.950 . S
H1078 C1102 0.950 . S
H1079 C1103 0.951 . S
H1080 C1105 0.951 . S
H1081 C1107 0.950 . S
H1082 C1108 0.950 . S
H1083 C1110 0.950 . S
H1084 C1113 0.950 . S
H1085 C1114 0.950 . S
H1086 C1116 0.950 . S
H1087 C1117 0.950 . S
C1088 H1070 0.951 . S
C1088 C1089 1.366 1_565 S
C1088 C1090 1.388 . S
C1089 C1088 1.366 1_545 S
C1089 C1093 1.385 . S
C1090 H1071 0.951 . S
C1090 C1088 1.388 . S
C1090 C1091 1.366 . S
C1091 C1090 1.366 . S
C1091 C1092 1.414 1_565 S
C1091 C1094 1.499 . S
C1092 H1072 0.950 . S
C1092 C1091 1.414 1_545 S
C1092 C1093 1.374 . S
C1093 H1073 0.950 . S
C1093 C1089 1.385 . S
C1093 C1092 1.374 . S
C1094 C1091 1.499 . S
C1094 C1095 1.373 . S
C1094 C1096 1.389 . S
C1095 H1074 0.950 . S
C1095 C1094 1.373 . S
C1095 C1111 1.377 . S
C1096 C1094 1.389 . S
C1096 C1097 1.524 . S
C1096 C1110 1.377 . S
C1097 C1096 1.524 . S
C1097 C1098 1.397 . S
C1097 C1102 1.363 . S
C1098 H1075 0.950 . S
C1098 C1097 1.397 . S
C1098 C1099 1.334 . S
C1099 H1076 0.950 . S
C1099 C1098 1.334 . S
C1099 C1100 1.287 . S
C1100 C1099 1.287 . S
C1100 C1101 1.524 . S
C1100 H1119 0.913 . S
C1101 H1077 0.950 . S
C1101 C1100 1.524 . S
C1101 C1102 1.415 . S
C1102 H1078 0.950 . S
C1102 C1097 1.363 . S
C1102 C1101 1.415 . S
C1103 H1079 0.951 . S
C1103 C1104 1.366 . S
C1103 C1105 1.388 . S
C1104 C1103 1.366 . S
C1104 C1108 1.385 . S
C1105 H1080 0.951 . S
C1105 C1103 1.388 . S
C1105 C1106 1.366 . S
C1106 C1105 1.366 . S
C1106 C1107 1.414 . S
C1106 C1109 1.499 . S
C1107 H1081 0.950 . S
C1107 C1106 1.414 . S
C1107 C1108 1.374 . S
C1108 H1082 0.950 . S
C1108 C1104 1.385 . S
C1108 C1107 1.374 . S
C1109 C1106 1.499 . S
C1109 C1110 1.373 . S
C1109 C1111 1.389 . S
C1110 H1083 0.950 . S
C1110 C1096 1.377 . S
C1110 C1109 1.373 . S
C1111 C1095 1.377 . S
C1111 C1109 1.389 . S
C1111 C1112 1.524 . S
C1112 C1111 1.524 . S
C1112 C1113 1.397 . S
C1112 C1117 1.363 . S
C1113 H1084 0.950 . S
C1113 C1112 1.397 . S
C1113 C1114 1.334 . S
C1114 H1085 0.950 . S
C1114 C1113 1.334 . S
C1114 C1115 1.287 . S
C1115 C1114 1.287 . S
C1115 C1116 1.524 . S
C1115 H1118 0.999 . S
C1116 H1086 0.950 . S
C1116 C1115 1.524 . S
C1116 C1117 1.415 . S
C1117 H1087 0.950 . S
C1117 C1112 1.363 . S
C1117 C1116 1.415 . S
H1118 C1115 0.999 . S
H1119 C1100 0.913 . S
H1120 C1138 0.951 . S
H1121 C1140 0.951 . S
H1122 C1142 0.950 . S
H1123 C1143 0.950 . S
H1124 C1145 0.950 . S
H1125 C1148 0.950 . S
H1126 C1149 0.950 . S
H1127 C1151 0.950 1_545 S
H1128 C1152 0.950 . S
H1129 C1153 0.955 . S
H1130 C1155 0.951 . S
H1131 C1157 0.950 . S
H1132 C1158 0.950 . S
H1133 C1160 0.950 . S
H1134 C1163 0.950 . S
H1135 C1164 0.950 . S
H1136 C1166 0.950 . S
H1137 C1167 0.950 . S
C1138 H1120 0.951 . S
C1138 C1139 1.366 . S
C1138 C1140 1.388 . S
C1139 C1138 1.366 . S
C1139 C1143 1.385 . S
C1140 H1121 0.951 . S
C1140 C1138 1.388 . S
C1140 C1141 1.366 . S
C1141 C1140 1.366 . S
C1141 C1142 1.414 . S
C1141 C1144 1.499 . S
C1142 H1122 0.950 . S
C1142 C1141 1.414 . S
C1142 C1143 1.374 . S
C1143 H1123 0.950 . S
C1143 C1139 1.385 . S
C1143 C1142 1.374 . S
C1144 C1141 1.499 . S
C1144 C1145 1.373 . S
C1144 C1146 1.389 . S
C1145 H1124 0.950 . S
C1145 C1144 1.373 . S
C1145 C1161 1.377 . S
C1146 C1144 1.389 . S
C1146 C1147 1.524 . S
C1146 C1160 1.377 . S
C1147 C1146 1.524 . S
C1147 C1148 1.397 . S
C1147 C1152 1.363 . S
C1148 H1125 0.950 . S
C1148 C1147 1.397 . S
C1148 C1149 1.334 . S
C1149 H1126 0.950 . S
C1149 C1148 1.334 . S
C1149 C1150 1.287 . S
C1150 C1149 1.287 . S
C1150 C1151 1.524 . S
C1150 H1169 0.913 . S
C1151 H1127 0.950 1_565 S
C1151 C1150 1.524 . S
C1151 C1152 1.415 . S
C1152 H1128 0.950 . S
C1152 C1147 1.363 . S
C1152 C1151 1.415 . S
C1153 H1129 0.955 . S
C1153 C1154 1.377 . S
C1153 C1155 1.373 1_455 S
C1154 C1153 1.377 . S
C1154 C1158 1.385 . S
C1155 H1130 0.951 . S
C1155 C1153 1.373 1_655 S
C1155 C1156 1.366 . S
C1156 C1155 1.366 . S
C1156 C1157 1.414 . S
C1156 C1159 1.499 . S
C1157 H1131 0.950 . S
C1157 C1156 1.414 . S
C1157 C1158 1.374 1_655 S
C1158 H1132 0.950 . S
C1158 C1154 1.385 . S
C1158 C1157 1.374 1_455 S
C1159 C1156 1.499 . S
C1159 C1160 1.373 . S
C1159 C1161 1.389 . S
C1160 H1133 0.950 . S
C1160 C1146 1.377 . S
C1160 C1159 1.373 . S
C1161 C1145 1.377 . S
C1161 C1159 1.389 . S
C1161 C1162 1.524 . S
C1162 C1161 1.524 . S
C1162 C1163 1.397 . S
C1162 C1167 1.363 . S
C1163 H1134 0.950 . S
C1163 C1162 1.397 . S
C1163 C1164 1.334 . S
C1164 H1135 0.950 . S
C1164 C1163 1.334 . S
C1164 C1165 1.287 . S
C1165 C1164 1.287 . S
C1165 C1166 1.524 . S
C1165 H1168 0.999 . S
C1166 H1136 0.950 . S
C1166 C1165 1.524 . S
C1166 C1167 1.415 . S
C1167 H1137 0.950 . S
C1167 C1162 1.363 . S
C1167 C1166 1.415 . S
H1168 C1165 0.999 . S
H1169 C1150 0.913 . S
H1170 C1188 0.951 . S
H1171 C1190 0.951 . S
H1172 C1192 0.950 . S
H1173 C1193 0.950 . S
H1174 C1195 0.950 . S
H1175 C1198 0.950 . S
H1176 C1199 0.950 . S
H1177 C1201 0.950 . S
H1178 C1202 0.950 . S
H1179 C1203 0.951 . S
H1180 C1205 0.951 . S
H1181 C1207 0.950 . S
H1182 C1208 0.950 . S
H1183 C1210 0.950 . S
H1184 C1213 0.950 . S
H1185 C1214 0.950 . S
H1186 C1216 0.950 . S
H1187 C1217 0.950 . S
C1188 H1170 0.951 . S
C1188 C1189 1.366 . S
C1188 C1190 1.388 1_565 S
C1189 C1188 1.366 . S
C1189 C1193 1.385 1_565 S
C1190 H1171 0.951 . S
C1190 C1188 1.388 1_545 S
C1190 C1191 1.366 . S
C1191 C1190 1.366 . S
C1191 C1192 1.414 . S
C1191 C1194 1.499 . S
C1192 H1172 0.950 . S
C1192 C1191 1.414 . S
C1192 C1193 1.374 . S
C1193 H1173 0.950 . S
C1193 C1189 1.385 1_545 S
C1193 C1192 1.374 . S
C1194 C1191 1.499 . S
C1194 C1195 1.373 . S
C1194 C1196 1.389 . S
C1195 H1174 0.950 . S
C1195 C1194 1.373 . S
C1195 C1211 1.377 . S
C1196 C1194 1.389 . S
C1196 C1197 1.524 . S
C1196 C1210 1.377 . S
C1197 C1196 1.524 . S
C1197 C1198 1.397 . S
C1197 C1202 1.363 . S
C1198 H1175 0.950 . S
C1198 C1197 1.397 . S
C1198 C1199 1.334 1_545 S
C1199 H1176 0.950 . S
C1199 C1198 1.334 1_565 S
C1199 C1200 1.287 . S
C1200 C1199 1.287 . S
C1200 C1201 1.524 . S
C1200 H1219 0.913 . S
C1201 H1177 0.950 . S
C1201 C1200 1.524 . S
C1201 C1202 1.415 1_565 S
C1202 H1178 0.950 . S
C1202 C1197 1.363 . S
C1202 C1201 1.415 1_545 S
C1203 H1179 0.951 . S
C1203 C1204 1.366 1_655 S
C1203 C1205 1.388 . S
C1204 C1203 1.366 1_455 S
C1204 C1208 1.385 . S
C1205 H1180 0.951 . S
C1205 C1203 1.388 . S
C1205 C1206 1.366 . S
C1206 C1205 1.366 . S
C1206 C1207 1.414 1_655 S
C1206 C1209 1.499 . S
C1207 H1181 0.950 . S
C1207 C1206 1.414 1_455 S
C1207 C1208 1.374 . S
C1208 H1182 0.950 . S
C1208 C1204 1.385 . S
C1208 C1207 1.374 . S
C1209 C1206 1.499 . S
C1209 C1210 1.373 . S
C1209 C1211 1.389 . S
C1210 H1183 0.950 . S
C1210 C1196 1.377 . S
C1210 C1209 1.373 . S
C1211 C1195 1.377 . S
C1211 C1209 1.389 . S
C1211 C1212 1.524 . S
C1212 C1211 1.524 . S
C1212 C1213 1.397 1_655 S
C1212 C1217 1.363 . S
C1213 H1184 0.950 . S
C1213 C1212 1.397 1_455 S
C1213 C1214 1.334 . S
C1214 H1185 0.950 . S
C1214 C1213 1.334 . S
C1214 C1215 1.294 . S
C1215 C1214 1.294 . S
C1215 C1216 1.513 1_455 S
C1215 H1218 1.002 . S
C1216 H1186 0.950 . S
C1216 C1215 1.513 1_655 S
C1216 C1217 1.415 . S
C1217 H1187 0.950 . S
C1217 C1212 1.363 . S
C1217 C1216 1.415 . S
H1218 C1215 1.002 . S
H1219 C1200 0.913 . S
H1220 C1238 0.951 . S
H1221 C1240 0.951 . S
H1222 C1242 0.950 . S
H1223 C1243 0.950 . S
H1224 C1245 0.950 . S
H1225 C1248 0.950 . S
H1226 C1249 0.950 . S
H1227 C1251 0.950 . S
H1228 C1252 0.950 . S
H1229 C1253 0.951 . S
H1230 C1255 0.951 . S
H1231 C1257 0.950 . S
H1232 C1258 0.950 . S
H1233 C1260 0.950 . S
H1234 C1263 0.950 . S
H1235 C1264 0.950 . S
H1236 C1266 0.950 . S
H1237 C1267 0.950 . S
C1238 H1220 0.951 . S
C1238 C1239 1.366 . S
C1238 C1240 1.388 . S
C1239 C1238 1.366 . S
C1239 C1243 1.385 . S
C1240 H1221 0.951 . S
C1240 C1238 1.388 . S
C1240 C1241 1.366 . S
C1241 C1240 1.366 . S
C1241 C1242 1.414 . S
C1241 C1244 1.499 . S
C1242 H1222 0.950 . S
C1242 C1241 1.414 . S
C1242 C1243 1.374 . S
C1243 H1223 0.950 . S
C1243 C1239 1.385 . S
C1243 C1242 1.374 . S
C1244 C1241 1.499 . S
C1244 C1245 1.373 . S
C1244 C1246 1.389 . S
C1245 H1224 0.950 . S
C1245 C1244 1.373 . S
C1245 C1261 1.377 . S
C1246 C1244 1.389 . S
C1246 C1247 1.524 . S
C1246 C1260 1.377 . S
C1247 C1246 1.524 . S
C1247 C1248 1.397 . S
C1247 C1252 1.363 . S
C1248 H1225 0.950 . S
C1248 C1247 1.397 . S
C1248 C1249 1.334 . S
C1249 H1226 0.950 . S
C1249 C1248 1.334 . S
C1249 C1250 1.287 . S
C1250 C1249 1.287 . S
C1250 C1251 1.524 . S
C1250 H1269 0.913 . S
C1251 H1227 0.950 . S
C1251 C1250 1.524 . S
C1251 C1252 1.415 . S
C1252 H1228 0.950 . S
C1252 C1247 1.363 . S
C1252 C1251 1.415 . S
C1253 H1229 0.951 . S
C1253 C1254 1.366 . S
C1253 C1255 1.388 . S
C1254 C1253 1.366 . S
C1254 C1258 1.385 . S
C1255 H1230 0.951 . S
C1255 C1253 1.388 . S
C1255 C1256 1.366 . S
C1256 C1255 1.366 . S
C1256 C1257 1.414 . S
C1256 C1259 1.499 . S
C1257 H1231 0.950 . S
C1257 C1256 1.414 . S
C1257 C1258 1.374 . S
C1258 H1232 0.950 . S
C1258 C1254 1.385 . S
C1258 C1257 1.374 . S
C1259 C1256 1.499 . S
C1259 C1260 1.373 . S
C1259 C1261 1.389 . S
C1260 H1233 0.950 . S
C1260 C1246 1.377 . S
C1260 C1259 1.373 . S
C1261 C1245 1.377 . S
C1261 C1259 1.389 . S
C1261 C1262 1.524 . S
C1262 C1261 1.524 . S
C1262 C1263 1.397 . S
C1262 C1267 1.363 . S
C1263 H1234 0.950 . S
C1263 C1262 1.397 . S
C1263 C1264 1.334 . S
C1264 H1235 0.950 . S
C1264 C1263 1.334 . S
C1264 C1265 1.287 . S
C1265 C1264 1.287 . S
C1265 C1266 1.524 . S
C1265 H1268 0.999 . S
C1266 H1236 0.950 . S
C1266 C1265 1.524 . S
C1266 C1267 1.415 . S
C1267 H1237 0.950 . S
C1267 C1262 1.363 . S
C1267 C1266 1.415 . S
H1268 C1265 0.999 . S
H1269 C1250 0.913 . S
H1270 C1288 0.951 . S
H1271 C1290 0.951 . S
H1272 C1292 0.950 . S
H1273 C1293 0.950 1_545 S
H1274 C1295 0.950 . S
H1275 C1298 0.950 . S
H1276 C1299 0.950 1_545 S
H1277 C1301 0.950 . S
H1278 C1302 0.950 . S
H1279 C1303 0.950 1_655 S
H1280 C1305 0.951 . S
H1281 C1307 0.950 . S
H1282 C1308 0.950 . S
H1283 C1310 0.950 1_455 S
H1284 C1313 0.950 . S
H1285 C1314 0.950 . S
H1286 C1316 0.950 . S
H1287 C1317 0.950 . S
C1288 H1270 0.951 . S
C1288 C1289 1.366 . S
C1288 C1290 1.388 . S
C1289 C1288 1.366 . S
C1289 C1293 1.385 . S
C1290 H1271 0.951 . S
C1290 C1288 1.388 . S
C1290 C1291 1.366 . S
C1291 C1290 1.366 . S
C1291 C1292 1.414 . S
C1291 C1294 1.499 . S
C1292 H1272 0.950 . S
C1292 C1291 1.414 . S
C1292 C1293 1.374 . S
C1293 H1273 0.950 1_565 S
C1293 C1289 1.385 . S
C1293 C1292 1.374 . S
C1294 C1291 1.499 . S
C1294 C1295 1.373 . S
C1294 C1296 1.389 . S
C1295 H1274 0.950 . S
C1295 C1294 1.373 . S
C1295 C1311 1.377 . S
C1296 C1294 1.389 . S
C1296 C1297 1.524 . S
C1296 C1310 1.377 . S
C1297 C1296 1.524 . S
C1297 C1298 1.397 . S
C1297 C1302 1.363 1_655 S
C1298 H1275 0.950 . S
C1298 C1297 1.397 . S
C1298 C1299 1.334 1_655 S
C1299 H1276 0.950 1_565 S
C1299 C1298 1.334 1_455 S
C1299 C1300 1.287 . S
C1300 C1299 1.287 . S
C1300 C1301 1.524 . S
C1300 H1319 0.913 . S
C1301 H1277 0.950 . S
C1301 C1300 1.524 . S
C1301 C1302 1.415 . S
C1302 H1278 0.950 . S
C1302 C1297 1.363 1_455 S
C1302 C1301 1.415 . S
C1303 H1279 0.950 1_455 S
C1303 C1304 1.373 . S
C1303 C1305 1.382 1_455 S
C1304 C1303 1.373 . S
C1304 C1308 1.385 . S
C1305 H1280 0.951 . S
C1305 C1303 1.382 1_655 S
C1305 C1306 1.366 . S
C1306 C1305 1.366 . S
C1306 C1307 1.414 1_655 S
C1306 C1309 1.499 . S
C1307 H1281 0.950 . S
C1307 C1306 1.414 1_455 S
C1307 C1308 1.374 . S
C1308 H1282 0.950 . S
C1308 C1304 1.385 . S
C1308 C1307 1.374 . S
C1309 C1306 1.499 . S
C1309 C1310 1.373 . S
C1309 C1311 1.389 . S
C1310 H1283 0.950 1_655 S
C1310 C1296 1.377 . S
C1310 C1309 1.373 . S
C1311 C1295 1.377 . S
C1311 C1309 1.389 . S
C1311 C1312 1.524 . S
C1312 C1311 1.524 . S
C1312 C1313 1.397 . S
C1312 C1317 1.363 . S
C1313 H1284 0.950 . S
C1313 C1312 1.397 . S
C1313 C1314 1.334 . S
C1314 H1285 0.950 . S
C1314 C1313 1.334 . S
C1314 C1315 1.287 . S
C1315 C1314 1.287 . S
C1315 C1316 1.524 . S
C1315 H1318 0.999 . S
C1316 H1286 0.950 . S
C1316 C1315 1.524 . S
C1316 C1317 1.415 . S
C1317 H1287 0.950 . S
C1317 C1312 1.363 . S
C1317 C1316 1.415 . S
H1318 C1315 0.999 . S
H1319 C1300 0.913 . S
H1320 C1338 0.951 . S
H1321 C1340 0.951 . S
H1322 C1342 0.950 . S
H1323 C1343 0.950 . S
H1324 C1345 0.950 . S
H1325 C1348 0.950 . S
H1326 C1349 0.950 . S
H1327 C1351 0.950 1_565 S
H1328 C1352 0.950 . S
H1329 C1353 0.951 . S
H1330 C1355 0.951 . S
H1331 C1357 0.950 . S
H1332 C1358 0.950 . S
H1333 C1360 0.950 . S
H1334 C1363 0.950 . S
H1335 C1364 0.950 . S
H1336 C1366 0.950 . S
H1337 C1367 0.950 . S
C1338 H1320 0.951 . S
C1338 C1339 1.366 . S
C1338 C1340 1.388 . S
C1339 C1338 1.366 . S
C1339 C1343 1.385 . S
C1340 H1321 0.951 . S
C1340 C1338 1.388 . S
C1340 C1341 1.366 . S
C1341 C1340 1.366 . S
C1341 C1342 1.414 . S
C1341 C1344 1.499 . S
C1342 H1322 0.950 . S
C1342 C1341 1.414 . S
C1342 C1343 1.374 . S
C1343 H1323 0.950 . S
C1343 C1339 1.385 . S
C1343 C1342 1.374 . S
C1344 C1341 1.499 . S
C1344 C1345 1.373 . S
C1344 C1346 1.389 . S
C1345 H1324 0.950 . S
C1345 C1344 1.373 . S
C1345 C1361 1.377 . S
C1346 C1344 1.389 . S
C1346 C1347 1.524 . S
C1346 C1360 1.377 . S
C1347 C1346 1.524 . S
C1347 C1348 1.397 . S
C1347 C1352 1.363 . S
C1348 H1325 0.950 . S
C1348 C1347 1.397 . S
C1348 C1349 1.334 . S
C1349 H1326 0.950 . S
C1349 C1348 1.334 . S
C1349 C1350 1.287 1_545 S
C1350 C1349 1.287 1_565 S
C1350 C1351 1.524 1_565 S
C1350 H1369 0.913 . S
C1351 H1327 0.950 1_545 S
C1351 C1350 1.524 1_545 S
C1351 C1352 1.415 . S
C1352 H1328 0.950 . S
C1352 C1347 1.363 . S
C1352 C1351 1.415 . S
C1353 H1329 0.951 . S
C1353 C1354 1.366 . S
C1353 C1355 1.388 1_455 S
C1354 C1353 1.366 . S
C1354 C1358 1.385 . S
C1355 H1330 0.951 . S
C1355 C1353 1.388 1_655 S
C1355 C1356 1.366 . S
C1356 C1355 1.366 . S
C1356 C1357 1.414 . S
C1356 C1359 1.499 . S
C1357 H1331 0.950 . S
C1357 C1356 1.414 . S
C1357 C1358 1.374 1_655 S
C1358 H1332 0.950 . S
C1358 C1354 1.385 . S
C1358 C1357 1.374 1_455 S
C1359 C1356 1.499 . S
C1359 C1360 1.373 . S
C1359 C1361 1.389 . S
C1360 H1333 0.950 . S
C1360 C1346 1.377 . S
C1360 C1359 1.373 . S
C1361 C1345 1.377 . S
C1361 C1359 1.389 . S
C1361 C1362 1.524 . S
C1362 C1361 1.524 . S
C1362 C1363 1.397 . S
C1362 C1367 1.363 . S
C1363 H1334 0.950 . S
C1363 C1362 1.397 . S
C1363 C1364 1.334 . S
C1364 H1335 0.950 . S
C1364 C1363 1.334 . S
C1364 C1365 1.287 . S
C1365 C1364 1.287 . S
C1365 C1366 1.524 . S
C1365 H1368 0.999 . S
C1366 H1336 0.950 . S
C1366 C1365 1.524 . S
C1366 C1367 1.415 . S
C1367 H1337 0.950 . S
C1367 C1362 1.363 . S
C1367 C1366 1.415 . S
H1368 C1365 0.999 . S
H1369 C1350 0.913 . S
H1370 C1388 0.951 1_565 S
H1371 C1390 0.951 . S
H1372 C1392 0.950 . S
H1373 C1393 0.950 . S
H1374 C1395 0.950 . S
H1375 C1398 0.950 . S
H1376 C1399 0.950 . S
H1377 C1401 0.950 . S
H1378 C1402 0.950 . S
H1379 C1403 0.951 . S
H1380 C1405 0.951 . S
H1381 C1407 0.950 . S
H1382 C1408 0.950 . S
H1383 C1410 0.950 . S
H1384 C1413 0.950 . S
H1385 C1414 0.950 . S
H1386 C1416 0.950 . S
H1387 C1417 0.950 . S
C1388 H1370 0.951 1_545 S
C1388 C1389 1.366 . S
C1388 C1390 1.388 . S
C1389 C1388 1.366 . S
C1389 C1393 1.385 . S
C1390 H1371 0.951 . S
C1390 C1388 1.388 . S
C1390 C1391 1.366 . S
C1391 C1390 1.366 . S
C1391 C1392 1.414 . S
C1391 C1394 1.499 . S
C1392 H1372 0.950 . S
C1392 C1391 1.414 . S
C1392 C1393 1.374 . S
C1393 H1373 0.950 . S
C1393 C1389 1.385 . S
C1393 C1392 1.374 . S
C1394 C1391 1.499 . S
C1394 C1395 1.373 . S
C1394 C1396 1.389 . S
C1395 H1374 0.950 . S
C1395 C1394 1.373 . S
C1395 C1411 1.377 . S
C1396 C1394 1.389 . S
C1396 C1397 1.524 . S
C1396 C1410 1.377 . S
C1397 C1396 1.524 . S
C1397 C1398 1.397 . S
C1397 C1402 1.363 . S
C1398 H1375 0.950 . S
C1398 C1397 1.397 . S
C1398 C1399 1.334 . S
C1399 H1376 0.950 . S
C1399 C1398 1.334 . S
C1399 C1400 1.287 . S
C1400 C1399 1.287 . S
C1400 C1401 1.524 . S
C1400 H1419 0.913 . S
C1401 H1377 0.950 . S
C1401 C1400 1.524 . S
C1401 C1402 1.415 . S
C1402 H1378 0.950 . S
C1402 C1397 1.363 . S
C1402 C1401 1.415 . S
C1403 H1379 0.951 . S
C1403 C1404 1.366 . S
C1403 C1405 1.388 . S
C1404 C1403 1.366 . S
C1404 C1408 1.385 . S
C1405 H1380 0.951 . S
C1405 C1403 1.388 . S
C1405 C1406 1.366 . S
C1406 C1405 1.366 . S
C1406 C1407 1.414 . S
C1406 C1409 1.499 . S
C1407 H1381 0.950 . S
C1407 C1406 1.414 . S
C1407 C1408 1.374 . S
C1408 H1382 0.950 . S
C1408 C1404 1.385 . S
C1408 C1407 1.374 . S
C1409 C1406 1.499 . S
C1409 C1410 1.373 . S
C1409 C1411 1.389 . S
C1410 H1383 0.950 . S
C1410 C1396 1.377 . S
C1410 C1409 1.373 . S
C1411 C1395 1.377 . S
C1411 C1409 1.389 . S
C1411 C1412 1.524 . S
C1412 C1411 1.524 . S
C1412 C1413 1.397 . S
C1412 C1417 1.363 . S
C1413 H1384 0.950 . S
C1413 C1412 1.397 . S
C1413 C1414 1.334 . S
C1414 H1385 0.950 . S
C1414 C1413 1.334 . S
C1414 C1415 1.287 . S
C1415 C1414 1.287 . S
C1415 C1416 1.524 . S
C1415 H1418 0.999 . S
C1416 H1386 0.950 . S
C1416 C1415 1.524 . S
C1416 C1417 1.415 . S
C1417 H1387 0.950 . S
C1417 C1412 1.363 . S
C1417 C1416 1.415 . S
H1418 C1415 0.999 . S
H1419 C1400 0.913 . S
H1420 C1438 0.951 . S
H1421 C1440 0.951 . S
H1422 C1442 0.950 . S
H1423 C1443 0.950 . S
H1424 C1445 0.950 . S
H1425 C1448 0.950 . S
H1426 C1449 0.950 . S
H1427 C1451 0.950 . S
H1428 C1452 0.950 . S
H1429 C1453 0.951 . S
H1430 C1455 0.951 . S
H1431 C1457 0.950 . S
H1432 C1458 0.950 . S
H1433 C1460 0.950 . S
H1434 C1463 0.950 . S
H1435 C1464 0.950 . S
H1436 C1466 0.950 . S
H1437 C1467 0.950 . S
C1438 H1420 0.951 . S
C1438 C1439 1.366 . S
C1438 C1440 1.388 . S
C1439 C1438 1.366 . S
C1439 C1443 1.385 . S
C1440 H1421 0.951 . S
C1440 C1438 1.388 . S
C1440 C1441 1.366 . S
C1441 C1440 1.366 . S
C1441 C1442 1.414 . S
C1441 C1444 1.499 . S
C1442 H1422 0.950 . S
C1442 C1441 1.414 . S
C1442 C1443 1.374 . S
C1443 H1423 0.950 . S
C1443 C1439 1.385 . S
C1443 C1442 1.374 . S
C1444 C1441 1.499 . S
C1444 C1445 1.373 . S
C1444 C1446 1.389 . S
C1445 H1424 0.950 . S
C1445 C1444 1.373 . S
C1445 C1461 1.377 . S
C1446 C1444 1.389 . S
C1446 C1447 1.524 . S
C1446 C1460 1.377 . S
C1447 C1446 1.524 . S
C1447 C1448 1.397 . S
C1447 C1452 1.363 . S
C1448 H1425 0.950 . S
C1448 C1447 1.397 . S
C1448 C1449 1.334 . S
C1449 H1426 0.950 . S
C1449 C1448 1.334 . S
C1449 C1450 1.287 . S
C1450 C1449 1.287 . S
C1450 C1451 1.524 . S
C1450 H1469 0.913 1_556 S
C1451 H1427 0.950 . S
C1451 C1450 1.524 . S
C1451 C1452 1.415 . S
C1452 H1428 0.950 . S
C1452 C1447 1.363 . S
C1452 C1451 1.415 . S
C1453 H1429 0.951 . S
C1453 C1454 1.366 . S
C1453 C1455 1.388 . S
C1454 C1453 1.366 . S
C1454 C1458 1.385 . S
C1455 H1430 0.951 . S
C1455 C1453 1.388 . S
C1455 C1456 1.366 . S
C1456 C1455 1.366 . S
C1456 C1457 1.414 . S
C1456 C1459 1.499 . S
C1457 H1431 0.950 . S
C1457 C1456 1.414 . S
C1457 C1458 1.374 . S
C1458 H1432 0.950 . S
C1458 C1454 1.385 . S
C1458 C1457 1.374 . S
C1459 C1456 1.499 . S
C1459 C1460 1.373 . S
C1459 C1461 1.389 . S
C1460 H1433 0.950 . S
C1460 C1446 1.377 . S
C1460 C1459 1.373 . S
C1461 C1445 1.377 . S
C1461 C1459 1.389 . S
C1461 C1462 1.524 . S
C1462 C1461 1.524 . S
C1462 C1463 1.397 . S
C1462 C1467 1.363 . S
C1463 H1434 0.950 . S
C1463 C1462 1.397 . S
C1463 C1464 1.334 . S
C1464 H1435 0.950 . S
C1464 C1463 1.334 . S
C1464 C1465 1.287 . S
C1465 C1464 1.287 . S
C1465 C1466 1.524 . S
C1465 H1468 0.999 . S
C1466 H1436 0.950 . S
C1466 C1465 1.524 . S
C1466 C1467 1.415 . S
C1467 H1437 0.950 . S
C1467 C1462 1.363 . S
C1467 C1466 1.415 . S
H1468 C1465 0.999 . S
H1469 C1450 0.913 1_554 S
H1470 C1488 0.951 . S
H1471 C1490 0.951 . S
H1472 C1492 0.950 . S
H1473 C1493 0.950 . S
H1474 C1495 0.950 . S
H1475 C1498 0.950 . S
H1476 C1499 0.950 . S
H1477 C1501 0.950 . S
H1478 C1502 0.950 . S
H1479 C1503 0.951 . S
H1480 C1505 0.951 1_455 S
H1481 C1507 0.950 . S
H1482 C1508 0.950 . S
H1483 C1510 0.950 . S
H1484 C1513 0.950 1_655 S
H1485 C1514 0.950 . S
H1486 C1516 0.950 . S
H1487 C1517 0.950 . S
C1488 H1470 0.951 . S
C1488 C1489 1.366 . S
C1488 C1490 1.388 . S
C1489 C1488 1.366 . S
C1489 C1493 1.385 . S
C1490 H1471 0.951 . S
C1490 C1488 1.388 . S
C1490 C1491 1.366 . S
C1491 C1490 1.366 . S
C1491 C1492 1.414 . S
C1491 C1494 1.499 . S
C1492 H1472 0.950 . S
C1492 C1491 1.414 . S
C1492 C1493 1.374 . S
C1493 H1473 0.950 . S
C1493 C1489 1.385 . S
C1493 C1492 1.374 . S
C1494 C1491 1.499 . S
C1494 C1495 1.373 . S
C1494 C1496 1.389 . S
C1495 H1474 0.950 . S
C1495 C1494 1.373 . S
C1495 C1511 1.377 . S
C1496 C1494 1.389 . S
C1496 C1497 1.524 . S
C1496 C1510 1.377 . S
C1497 C1496 1.524 . S
C1497 C1498 1.397 . S
C1497 C1502 1.363 . S
C1498 H1475 0.950 . S
C1498 C1497 1.397 . S
C1498 C1499 1.334 . S
C1499 H1476 0.950 . S
C1499 C1498 1.334 . S
C1499 C1500 1.287 . S
C1500 C1499 1.287 . S
C1500 C1501 1.524 . S
C1500 H1519 0.913 . S
C1501 H1477 0.950 . S
C1501 C1500 1.524 . S
C1501 C1502 1.415 . S
C1502 H1478 0.950 . S
C1502 C1497 1.363 . S
C1502 C1501 1.415 . S
C1503 H1479 0.951 . S
C1503 C1504 1.366 1_455 S
C1503 C1505 1.388 1_455 S
C1504 C1503 1.366 1_655 S
C1504 C1508 1.385 . S
C1505 H1480 0.951 1_655 S
C1505 C1503 1.388 1_655 S
C1505 C1506 1.366 . S
C1506 C1505 1.366 . S
C1506 C1507 1.414 . S
C1506 C1509 1.499 . S
C1507 H1481 0.950 . S
C1507 C1506 1.414 . S
C1507 C1508 1.374 . S
C1508 H1482 0.950 . S
C1508 C1504 1.385 . S
C1508 C1507 1.374 . S
C1509 C1506 1.499 . S
C1509 C1510 1.373 . S
C1509 C1511 1.389 . S
C1510 H1483 0.950 . S
C1510 C1496 1.377 . S
C1510 C1509 1.373 . S
C1511 C1495 1.377 . S
C1511 C1509 1.389 . S
C1511 C1512 1.524 1_655 S
C1512 C1511 1.524 1_455 S
C1512 C1513 1.397 . S
C1512 C1517 1.363 . S
C1513 H1484 0.950 1_455 S
C1513 C1512 1.397 . S
C1513 C1514 1.334 . S
C1514 H1485 0.950 . S
C1514 C1513 1.334 . S
C1514 C1515 1.287 . S
C1515 C1514 1.287 . S
C1515 C1516 1.524 . S
C1515 H1518 0.999 . S
C1516 H1486 0.950 . S
C1516 C1515 1.524 . S
C1516 C1517 1.415 . S
C1517 H1487 0.950 . S
C1517 C1512 1.363 . S
C1517 C1516 1.415 . S
H1518 C1515 0.999 . S
H1519 C1500 0.913 . S
H1520 C1538 0.951 . S
H1521 C1540 0.951 . S
H1522 C1542 0.950 . S
H1523 C1543 0.950 . S
H1524 C1545 0.950 . S
H1525 C1548 0.950 . S
H1526 C1549 0.950 . S
H1527 C1551 0.950 . S
H1528 C1552 0.950 . S
H1529 C1553 0.951 . S
H1530 C1555 0.951 . S
H1531 C1557 0.950 . S
H1532 C1558 0.950 . S
H1533 C1560 0.950 . S
H1534 C1563 0.950 . S
H1535 C1564 0.950 . S
H1536 C1566 0.950 . S
H1537 C1567 0.950 . S
C1538 H1520 0.951 . S
C1538 C1539 1.366 . S
C1538 C1540 1.388 . S
C1539 C1538 1.366 . S
C1539 C1543 1.385 . S
C1540 H1521 0.951 . S
C1540 C1538 1.388 . S
C1540 C1541 1.366 . S
C1541 C1540 1.366 . S
C1541 C1542 1.414 . S
C1541 C1544 1.499 . S
C1542 H1522 0.950 . S
C1542 C1541 1.414 . S
C1542 C1543 1.374 . S
C1543 H1523 0.950 . S
C1543 C1539 1.385 . S
C1543 C1542 1.374 . S
C1544 C1541 1.499 . S
C1544 C1545 1.373 . S
C1544 C1546 1.389 . S
C1545 H1524 0.950 . S
C1545 C1544 1.373 . S
C1545 C1561 1.377 . S
C1546 C1544 1.389 . S
C1546 C1547 1.524 . S
C1546 C1560 1.377 . S
C1547 C1546 1.524 . S
C1547 C1548 1.397 . S
C1547 C1552 1.363 . S
C1548 H1525 0.950 . S
C1548 C1547 1.397 . S
C1548 C1549 1.334 . S
C1549 H1526 0.950 . S
C1549 C1548 1.334 . S
C1549 C1550 1.287 . S
C1550 C1549 1.287 . S
C1550 C1551 1.524 . S
C1550 H1569 0.913 . S
C1551 H1527 0.950 . S
C1551 C1550 1.524 . S
C1551 C1552 1.415 . S
C1552 H1528 0.950 . S
C1552 C1547 1.363 . S
C1552 C1551 1.415 . S
C1553 H1529 0.951 . S
C1553 C1554 1.366 . S
C1553 C1555 1.388 . S
C1554 C1553 1.366 . S
C1554 C1558 1.385 . S
C1555 H1530 0.951 . S
C1555 C1553 1.388 . S
C1555 C1556 1.366 . S
C1556 C1555 1.366 . S
C1556 C1557 1.414 . S
C1556 C1559 1.499 . S
C1557 H1531 0.950 . S
C1557 C1556 1.414 . S
C1557 C1558 1.374 . S
C1558 H1532 0.950 . S
C1558 C1554 1.385 . S
C1558 C1557 1.374 . S
C1559 C1556 1.499 . S
C1559 C1560 1.373 . S
C1559 C1561 1.389 . S
C1560 H1533 0.950 . S
C1560 C1546 1.377 . S
C1560 C1559 1.373 . S
C1561 C1545 1.377 . S
C1561 C1559 1.389 . S
C1561 C1562 1.524 . S
C1562 C1561 1.524 . S
C1562 C1563 1.397 . S
C1562 C1567 1.363 . S
C1563 H1534 0.950 . S
C1563 C1562 1.397 . S
C1563 C1564 1.334 . S
C1564 H1535 0.950 . S
C1564 C1563 1.334 . S
C1564 C1565 1.287 . S
C1565 C1564 1.287 . S
C1565 C1566 1.524 . S
C1565 H1568 0.999 . S
C1566 H1536 0.950 . S
C1566 C1565 1.524 . S
C1566 C1567 1.415 . S
C1567 H1537 0.950 . S
C1567 C1562 1.363 . S
C1567 C1566 1.415 . S
H1568 C1565 0.999 . S
H1569 C1550 0.913 . S
H1570 C1588 0.951 . S
H1571 C1590 0.951 . S
H1572 C1592 0.950 . S
H1573 C1593 0.950 . S
H1574 C1595 0.950 . S
H1575 C1598 0.950 . S
H1576 C1599 0.950 . S
H1577 C1601 0.950 . S
H1578 C1602 0.950 . S
H1579 C1603 0.951 . S
H1580 C1605 0.951 . S
H1581 C1607 0.950 . S
H1582 C1608 0.950 . S
H1583 C1610 0.950 . S
H1584 C1613 0.950 . S
H1585 C1614 0.950 . S
H1586 C1616 0.950 . S
H1587 C1617 0.950 . S
C1588 H1570 0.951 . S
C1588 C1589 1.366 . S
C1588 C1590 1.388 . S
C1589 C1588 1.366 . S
C1589 C1593 1.385 . S
C1590 H1571 0.951 . S
C1590 C1588 1.388 . S
C1590 C1591 1.366 . S
C1591 C1590 1.366 . S
C1591 C1592 1.414 . S
C1591 C1594 1.499 . S
C1592 H1572 0.950 . S
C1592 C1591 1.414 . S
C1592 C1593 1.374 . S
C1593 H1573 0.950 . S
C1593 C1589 1.385 . S
C1593 C1592 1.374 . S
C1594 C1591 1.499 . S
C1594 C1595 1.373 . S
C1594 C1596 1.389 . S
C1595 H1574 0.950 . S
C1595 C1594 1.373 . S
C1595 C1611 1.377 . S
C1596 C1594 1.389 . S
C1596 C1597 1.524 . S
C1596 C1610 1.377 . S
C1597 C1596 1.524 . S
C1597 C1598 1.397 . S
C1597 C1602 1.363 . S
C1598 H1575 0.950 . S
C1598 C1597 1.397 . S
C1598 C1599 1.334 . S
C1599 H1576 0.950 . S
C1599 C1598 1.334 . S
C1599 C1600 1.287 . S
C1600 C1599 1.287 . S
C1600 C1601 1.524 . S
C1600 H1619 0.913 . S
C1601 H1577 0.950 . S
C1601 C1600 1.524 . S
C1601 C1602 1.415 . S
C1602 H1578 0.950 . S
C1602 C1597 1.363 . S
C1602 C1601 1.415 . S
C1603 H1579 0.951 . S
C1603 C1604 1.366 . S
C1603 C1605 1.388 . S
C1604 C1603 1.366 . S
C1604 C1608 1.385 . S
C1605 H1580 0.951 . S
C1605 C1603 1.388 . S
C1605 C1606 1.366 . S
C1606 C1605 1.366 . S
C1606 C1607 1.414 . S
C1606 C1609 1.499 . S
C1607 H1581 0.950 . S
C1607 C1606 1.414 . S
C1607 C1608 1.374 . S
C1608 H1582 0.950 . S
C1608 C1604 1.385 . S
C1608 C1607 1.374 . S
C1609 C1606 1.499 . S
C1609 C1610 1.373 . S
C1609 C1611 1.389 . S
C1610 H1583 0.950 . S
C1610 C1596 1.377 . S
C1610 C1609 1.373 . S
C1611 C1595 1.377 . S
C1611 C1609 1.389 . S
C1611 C1612 1.524 . S
C1612 C1611 1.524 . S
C1612 C1613 1.397 . S
C1612 C1617 1.363 . S
C1613 H1584 0.950 . S
C1613 C1612 1.397 . S
C1613 C1614 1.334 . S
C1614 H1585 0.950 . S
C1614 C1613 1.334 . S
C1614 C1615 1.287 . S
C1615 C1614 1.287 . S
C1615 C1616 1.524 . S
C1615 H1618 0.999 . S
C1616 H1586 0.950 . S
C1616 C1615 1.524 . S
C1616 C1617 1.415 . S
C1617 H1587 0.950 . S
C1617 C1612 1.363 . S
C1617 C1616 1.415 . S
H1618 C1615 0.999 . S
H1619 C1600 0.913 . S
H1620 C1638 0.951 . S
H1621 C1640 0.951 . S
H1622 C1642 0.950 . S
H1623 C1643 0.950 . S
H1624 C1645 0.950 . S
H1625 C1648 0.950 . S
H1626 C1649 0.950 . S
H1627 C1651 0.950 . S
H1628 C1652 0.950 . S
H1629 C1653 0.951 . S
H1630 C1655 0.951 . S
H1631 C1657 0.950 . S
H1632 C1658 0.950 . S
H1633 C1660 0.950 . S
H1634 C1663 0.950 . S
H1635 C1664 0.950 . S
H1636 C1666 0.950 . S
H1637 C1667 0.950 . S
C1638 H1620 0.951 . S
C1638 C1639 1.366 . S
C1638 C1640 1.388 . S
C1639 C1638 1.366 . S
C1639 C1643 1.385 . S
C1640 H1621 0.951 . S
C1640 C1638 1.388 . S
C1640 C1641 1.366 . S
C1641 C1640 1.366 . S
C1641 C1642 1.414 . S
C1641 C1644 1.499 . S
C1642 H1622 0.950 . S
C1642 C1641 1.414 . S
C1642 C1643 1.374 . S
C1643 H1623 0.950 . S
C1643 C1639 1.385 . S
C1643 C1642 1.374 . S
C1644 C1641 1.499 . S
C1644 C1645 1.373 . S
C1644 C1646 1.389 . S
C1645 H1624 0.950 . S
C1645 C1644 1.373 . S
C1645 C1661 1.377 . S
C1646 C1644 1.389 . S
C1646 C1647 1.524 . S
C1646 C1660 1.377 . S
C1647 C1646 1.524 . S
C1647 C1648 1.397 . S
C1647 C1652 1.363 . S
C1648 H1625 0.950 . S
C1648 C1647 1.397 . S
C1648 C1649 1.334 . S
C1649 H1626 0.950 . S
C1649 C1648 1.334 . S
C1649 C1650 1.287 . S
C1650 C1649 1.287 . S
C1650 C1651 1.524 . S
C1650 H1669 0.913 . S
C1651 H1627 0.950 . S
C1651 C1650 1.524 . S
C1651 C1652 1.415 . S
C1652 H1628 0.950 . S
C1652 C1647 1.363 . S
C1652 C1651 1.415 . S
C1653 H1629 0.951 . S
C1653 C1654 1.366 . S
C1653 C1655 1.388 . S
C1654 C1653 1.366 . S
C1654 C1658 1.385 . S
C1655 H1630 0.951 . S
C1655 C1653 1.388 . S
C1655 C1656 1.366 . S
C1656 C1655 1.366 . S
C1656 C1657 1.414 . S
C1656 C1659 1.499 . S
C1657 H1631 0.950 . S
C1657 C1656 1.414 . S
C1657 C1658 1.374 . S
C1658 H1632 0.950 . S
C1658 C1654 1.385 . S
C1658 C1657 1.374 . S
C1659 C1656 1.499 . S
C1659 C1660 1.373 . S
C1659 C1661 1.389 . S
C1660 H1633 0.950 . S
C1660 C1646 1.377 . S
C1660 C1659 1.373 . S
C1661 C1645 1.377 . S
C1661 C1659 1.389 . S
C1661 C1662 1.524 . S
C1662 C1661 1.524 . S
C1662 C1663 1.397 . S
C1662 C1667 1.363 . S
C1663 H1634 0.950 . S
C1663 C1662 1.397 . S
C1663 C1664 1.334 . S
C1664 H1635 0.950 . S
C1664 C1663 1.334 . S
C1664 C1665 1.287 . S
C1665 C1664 1.287 . S
C1665 C1666 1.524 . S
C1665 H1668 0.999 . S
C1666 H1636 0.950 . S
C1666 C1665 1.524 . S
C1666 C1667 1.415 . S
C1667 H1637 0.950 . S
C1667 C1662 1.363 . S
C1667 C1666 1.415 . S
H1668 C1665 0.999 . S
H1669 C1650 0.913 . S
H1670 C1688 0.951 . S
H1671 C1690 0.951 . S
H1672 C1692 0.950 . S
H1673 C1693 0.950 . S
H1674 C1695 0.950 . S
H1675 C1698 0.950 . S
H1676 C1699 0.950 . S
H1677 C1701 0.950 . S
H1678 C1702 0.950 . S
H1679 C1703 0.951 . S
H1680 C1705 0.951 . S
H1681 C1707 0.950 . S
H1682 C1708 0.950 . S
H1683 C1710 0.950 . S
H1684 C1713 0.950 . S
H1685 C1714 0.950 . S
H1686 C1716 0.950 . S
H1687 C1717 0.950 . S
C1688 H1670 0.951 . S
C1688 C1689 1.366 . S
C1688 C1690 1.388 . S
C1689 C1688 1.366 . S
C1689 C1693 1.385 . S
C1690 H1671 0.951 . S
C1690 C1688 1.388 . S
C1690 C1691 1.366 . S
C1691 C1690 1.366 . S
C1691 C1692 1.414 . S
C1691 C1694 1.499 . S
C1692 H1672 0.950 . S
C1692 C1691 1.414 . S
C1692 C1693 1.374 . S
C1693 H1673 0.950 . S
C1693 C1689 1.385 . S
C1693 C1692 1.374 . S
C1694 C1691 1.499 . S
C1694 C1695 1.373 . S
C1694 C1696 1.389 . S
C1695 H1674 0.950 . S
C1695 C1694 1.373 . S
C1695 C1711 1.377 . S
C1696 C1694 1.389 . S
C1696 C1697 1.524 . S
C1696 C1710 1.377 . S
C1697 C1696 1.524 . S
C1697 C1698 1.397 . S
C1697 C1702 1.363 . S
C1698 H1675 0.950 . S
C1698 C1697 1.397 . S
C1698 C1699 1.334 . S
C1699 H1676 0.950 . S
C1699 C1698 1.334 . S
C1699 C1700 1.287 . S
C1700 C1699 1.287 . S
C1700 C1701 1.524 . S
C1700 H1719 0.913 . S
C1701 H1677 0.950 . S
C1701 C1700 1.524 . S
C1701 C1702 1.415 . S
C1702 H1678 0.950 . S
C1702 C1697 1.363 . S
C1702 C1701 1.415 . S
C1703 H1679 0.951 . S
C1703 C1704 1.366 . S
C1703 C1705 1.388 . S
C1704 C1703 1.366 . S
C1704 C1708 1.385 . S
C1705 H1680 0.951 . S
C1705 C1703 1.388 . S
C1705 C1706 1.366 . S
C1706 C1705 1.366 . S
C1706 C1707 1.414 . S
C1706 C1709 1.499 . S
C1707 H1681 0.950 . S
C1707 C1706 1.414 . S
C1707 C1708 1.374 . S
C1708 H1682 0.950 . S
C1708 C1704 1.385 . S
C1708 C1707 1.374 . S
C1709 C1706 1.499 . S
C1709 C1710 1.373 . S
C1709 C1711 1.389 . S
C1710 H1683 0.950 . S
C1710 C1696 1.377 . S
C1710 C1709 1.373 . S
C1711 C1695 1.377 . S
C1711 C1709 1.389 . S
C1711 C1712 1.524 . S
C1712 C1711 1.524 . S
C1712 C1713 1.397 . S
C1712 C1717 1.363 . S
C1713 H1684 0.950 . S
C1713 C1712 1.397 . S
C1713 C1714 1.334 . S
C1714 H1685 0.950 . S
C1714 C1713 1.334 . S
C1714 C1715 1.287 . S
C1715 C1714 1.287 . S
C1715 C1716 1.524 . S
C1715 H1718 0.999 . S
C1716 H1686 0.950 . S
C1716 C1715 1.524 . S
C1716 C1717 1.415 . S
C1717 H1687 0.950 . S
C1717 C1712 1.363 . S
C1717 C1716 1.415 . S
H1718 C1715 0.999 . S
H1719 C1700 0.913 . S
H1720 C1738 0.951 . S
H1721 C1740 0.951 . S
H1722 C1742 0.950 . S
H1723 C1743 0.950 . S
H1724 C1745 0.950 . S
H1725 C1748 0.950 . S
H1726 C1749 0.950 . S
H1727 C1751 0.950 . S
H1728 C1752 0.950 . S
H1729 C1753 0.951 . S
H1730 C1755 0.951 . S
H1731 C1757 0.950 . S
H1732 C1758 0.950 . S
H1733 C1760 0.950 . S
H1734 C1763 0.950 . S
H1735 C1764 0.950 . S
H1736 C1766 0.950 . S
H1737 C1767 0.950 . S
C1738 H1720 0.951 . S
C1738 C1739 1.366 . S
C1738 C1740 1.388 . S
C1739 C1738 1.366 . S
C1739 C1743 1.385 . S
C1740 H1721 0.951 . S
C1740 C1738 1.388 . S
C1740 C1741 1.366 . S
C1741 C1740 1.366 . S
C1741 C1742 1.414 . S
C1741 C1744 1.499 . S
C1742 H1722 0.950 . S
C1742 C1741 1.414 . S
C1742 C1743 1.374 . S
C1743 H1723 0.950 . S
C1743 C1739 1.385 . S
C1743 C1742 1.374 . S
C1744 C1741 1.499 . S
C1744 C1745 1.373 . S
C1744 C1746 1.389 . S
C1745 H1724 0.950 . S
C1745 C1744 1.373 . S
C1745 C1761 1.377 . S
C1746 C1744 1.389 . S
C1746 C1747 1.524 . S
C1746 C1760 1.377 . S
C1747 C1746 1.524 . S
C1747 C1748 1.397 . S
C1747 C1752 1.363 . S
C1748 H1725 0.950 . S
C1748 C1747 1.397 . S
C1748 C1749 1.334 . S
C1749 H1726 0.950 . S
C1749 C1748 1.334 . S
C1749 C1750 1.287 . S
C1750 C1749 1.287 . S
C1750 C1751 1.524 . S
C1750 H1769 0.913 . S
C1751 H1727 0.950 . S
C1751 C1750 1.524 . S
C1751 C1752 1.415 . S
C1752 H1728 0.950 . S
C1752 C1747 1.363 . S
C1752 C1751 1.415 . S
C1753 H1729 0.951 . S
C1753 C1754 1.366 . S
C1753 C1755 1.388 . S
C1754 C1753 1.366 . S
C1754 C1758 1.385 . S
C1755 H1730 0.951 . S
C1755 C1753 1.388 . S
C1755 C1756 1.366 . S
C1756 C1755 1.366 . S
C1756 C1757 1.414 . S
C1756 C1759 1.499 . S
C1757 H1731 0.950 . S
C1757 C1756 1.414 . S
C1757 C1758 1.374 . S
C1758 H1732 0.950 . S
C1758 C1754 1.385 . S
C1758 C1757 1.374 . S
C1759 C1756 1.499 . S
C1759 C1760 1.373 . S
C1759 C1761 1.389 . S
C1760 H1733 0.950 . S
C1760 C1746 1.377 . S
C1760 C1759 1.373 . S
C1761 C1745 1.377 . S
C1761 C1759 1.389 . S
C1761 C1762 1.524 . S
C1762 C1761 1.524 . S
C1762 C1763 1.397 . S
C1762 C1767 1.363 . S
C1763 H1734 0.950 . S
C1763 C1762 1.397 . S
C1763 C1764 1.334 . S
C1764 H1735 0.950 . S
C1764 C1763 1.334 . S
C1764 C1765 1.287 . S
C1765 C1764 1.287 . S
C1765 C1766 1.524 . S
C1765 H1768 0.999 . S
C1766 H1736 0.950 . S
C1766 C1765 1.524 . S
C1766 C1767 1.415 . S
C1767 H1737 0.950 . S
C1767 C1762 1.363 . S
C1767 C1766 1.415 . S
H1768 C1765 0.999 . S
H1769 C1750 0.913 . S
H1770 C1788 0.951 . S
H1771 C1790 0.951 . S
H1772 C1792 0.950 . S
H1773 C1793 0.950 . S
H1774 C1795 0.950 . S
H1775 C1798 0.950 . S
H1776 C1799 0.950 1_655 S
H1777 C1801 0.950 . S
H1778 C1802 0.950 . S
H1779 C1803 0.951 . S
H1780 C1805 0.951 . S
H1781 C1807 0.950 1_455 S
H1782 C1808 0.950 . S
H1783 C1810 0.950 . S
H1784 C1813 0.950 . S
H1785 C1814 0.950 . S
H1786 C1816 0.950 . S
H1787 C1817 0.950 . S
C1788 H1770 0.951 . S
C1788 C1789 1.366 . S
C1788 C1790 1.388 . S
C1789 C1788 1.366 . S
C1789 C1793 1.385 . S
C1790 H1771 0.951 . S
C1790 C1788 1.388 . S
C1790 C1791 1.366 . S
C1791 C1790 1.366 . S
C1791 C1792 1.414 . S
C1791 C1794 1.499 . S
C1792 H1772 0.950 . S
C1792 C1791 1.414 . S
C1792 C1793 1.374 . S
C1793 H1773 0.950 . S
C1793 C1789 1.385 . S
C1793 C1792 1.374 . S
C1794 C1791 1.499 . S
C1794 C1795 1.373 . S
C1794 C1796 1.389 . S
C1795 H1774 0.950 . S
C1795 C1794 1.373 . S
C1795 C1811 1.377 . S
C1796 C1794 1.389 . S
C1796 C1797 1.524 . S
C1796 C1810 1.377 . S
C1797 C1796 1.524 . S
C1797 C1798 1.397 . S
C1797 C1802 1.363 1_655 S
C1798 H1775 0.950 . S
C1798 C1797 1.397 . S
C1798 C1799 1.334 1_655 S
C1799 H1776 0.950 1_455 S
C1799 C1798 1.334 1_455 S
C1799 C1800 1.287 . S
C1800 C1799 1.287 . S
C1800 C1801 1.524 . S
C1800 H1819 0.913 . S
C1801 H1777 0.950 . S
C1801 C1800 1.524 . S
C1801 C1802 1.415 . S
C1802 H1778 0.950 . S
C1802 C1797 1.363 1_455 S
C1802 C1801 1.415 . S
C1803 H1779 0.951 . S
C1803 C1804 1.366 . S
C1803 C1805 1.388 . S
C1804 C1803 1.366 . S
C1804 C1808 1.385 1_655 S
C1805 H1780 0.951 . S
C1805 C1803 1.388 . S
C1805 C1806 1.366 . S
C1806 C1805 1.366 . S
C1806 C1807 1.414 . S
C1806 C1809 1.499 . S
C1807 H1781 0.950 1_655 S
C1807 C1806 1.414 . S
C1807 C1808 1.374 1_655 S
C1808 H1782 0.950 . S
C1808 C1804 1.385 1_455 S
C1808 C1807 1.374 1_455 S
C1809 C1806 1.499 . S
C1809 C1810 1.373 . S
C1809 C1811 1.389 . S
C1810 H1783 0.950 . S
C1810 C1796 1.377 . S
C1810 C1809 1.373 . S
C1811 C1795 1.377 . S
C1811 C1809 1.389 . S
C1811 C1812 1.524 . S
C1812 C1811 1.524 . S
C1812 C1813 1.397 . S
C1812 C1817 1.363 . S
C1813 H1784 0.950 . S
C1813 C1812 1.397 . S
C1813 C1814 1.334 . S
C1814 H1785 0.950 . S
C1814 C1813 1.334 . S
C1814 C1815 1.287 . S
C1815 C1814 1.287 . S
C1815 C1816 1.524 . S
C1815 H1818 0.999 . S
C1816 H1786 0.950 . S
C1816 C1815 1.524 . S
C1816 C1817 1.415 . S
C1817 H1787 0.950 . S
C1817 C1812 1.363 . S
C1817 C1816 1.415 . S
H1818 C1815 0.999 . S
H1819 C1800 0.913 . S
H1820 C1838 0.951 . S
H1821 C1840 0.951 . S
H1822 C1842 0.950 . S
H1823 C1843 0.950 . S
H1824 C1845 0.950 . S
H1825 C1848 0.950 . S
H1826 C1849 0.950 . S
H1827 C1851 0.950 . S
H1828 C1852 0.950 . S
H1829 C1853 0.951 . S
H1830 C1855 0.951 . S
H1831 C1857 0.950 . S
H1832 C1858 0.950 . S
H1833 C1860 0.950 . S
H1834 C1863 0.950 . S
H1835 C1864 0.950 . S
H1836 C1866 0.950 . S
H1837 C1867 0.950 . S
C1838 H1820 0.951 . S
C1838 C1839 1.366 . S
C1838 C1840 1.388 . S
C1839 C1838 1.366 . S
C1839 C1843 1.385 . S
C1840 H1821 0.951 . S
C1840 C1838 1.388 . S
C1840 C1841 1.366 . S
C1841 C1840 1.366 . S
C1841 C1842 1.414 . S
C1841 C1844 1.499 . S
C1842 H1822 0.950 . S
C1842 C1841 1.414 . S
C1842 C1843 1.374 . S
C1843 H1823 0.950 . S
C1843 C1839 1.385 . S
C1843 C1842 1.374 . S
C1844 C1841 1.499 . S
C1844 C1845 1.373 . S
C1844 C1846 1.389 . S
C1845 H1824 0.950 . S
C1845 C1844 1.373 . S
C1845 C1861 1.377 . S
C1846 C1844 1.389 . S
C1846 C1847 1.524 . S
C1846 C1860 1.377 . S
C1847 C1846 1.524 . S
C1847 C1848 1.397 . S
C1847 C1852 1.363 . S
C1848 H1825 0.950 . S
C1848 C1847 1.397 . S
C1848 C1849 1.334 . S
C1849 H1826 0.950 . S
C1849 C1848 1.334 . S
C1849 C1850 1.287 . S
C1850 C1849 1.287 . S
C1850 C1851 1.524 . S
C1850 H1869 0.913 . S
C1851 H1827 0.950 . S
C1851 C1850 1.524 . S
C1851 C1852 1.415 . S
C1852 H1828 0.950 . S
C1852 C1847 1.363 . S
C1852 C1851 1.415 . S
C1853 H1829 0.951 . S
C1853 C1854 1.366 . S
C1853 C1855 1.388 . S
C1854 C1853 1.366 . S
C1854 C1858 1.385 . S
C1855 H1830 0.951 . S
C1855 C1853 1.388 . S
C1855 C1856 1.366 . S
C1856 C1855 1.366 . S
C1856 C1857 1.414 . S
C1856 C1859 1.499 . S
C1857 H1831 0.950 . S
C1857 C1856 1.414 . S
C1857 C1858 1.374 . S
C1858 H1832 0.950 . S
C1858 C1854 1.385 . S
C1858 C1857 1.374 . S
C1859 C1856 1.499 . S
C1859 C1860 1.373 . S
C1859 C1861 1.389 . S
C1860 H1833 0.950 . S
C1860 C1846 1.377 . S
C1860 C1859 1.373 . S
C1861 C1845 1.377 . S
C1861 C1859 1.389 . S
C1861 C1862 1.524 . S
C1862 C1861 1.524 . S
C1862 C1863 1.397 . S
C1862 C1867 1.363 . S
C1863 H1834 0.950 . S
C1863 C1862 1.397 . S
C1863 C1864 1.334 . S
C1864 H1835 0.950 . S
C1864 C1863 1.334 . S
C1864 C1865 1.287 . S
C1865 C1864 1.287 . S
C1865 C1866 1.524 . S
C1865 H1868 0.999 . S
C1866 H1836 0.950 . S
C1866 C1865 1.524 . S
C1866 C1867 1.415 . S
C1867 H1837 0.950 . S
C1867 C1862 1.363 . S
C1867 C1866 1.415 . S
H1868 C1865 0.999 . S
H1869 C1850 0.913 . S
H1870 C1888 0.951 . S
H1871 C1890 0.951 . S
H1872 C1892 0.950 . S
H1873 C1893 0.950 . S
H1874 C1895 0.950 . S
H1875 C1898 0.950 . S
H1876 C1899 0.950 . S
H1877 C1901 0.950 . S
H1878 C1902 0.950 . S
H1879 C1903 0.951 . S
H1880 C1905 0.951 . S
H1881 C1907 0.950 . S
H1882 C1908 0.950 . S
H1883 C1910 0.950 . S
H1884 C1913 0.950 . S
H1885 C1914 0.950 . S
H1886 C1916 0.950 . S
H1887 C1917 0.950 . S
C1888 H1870 0.951 . S
C1888 C1889 1.366 . S
C1888 C1890 1.388 . S
C1889 C1888 1.366 . S
C1889 C1893 1.385 . S
C1890 H1871 0.951 . S
C1890 C1888 1.388 . S
C1890 C1891 1.366 . S
C1891 C1890 1.366 . S
C1891 C1892 1.414 . S
C1891 C1894 1.499 . S
C1892 H1872 0.950 . S
C1892 C1891 1.414 . S
C1892 C1893 1.374 . S
C1893 H1873 0.950 . S
C1893 C1889 1.385 . S
C1893 C1892 1.374 . S
C1894 C1891 1.499 . S
C1894 C1895 1.373 . S
C1894 C1896 1.389 . S
C1895 H1874 0.950 . S
C1895 C1894 1.373 . S
C1895 C1911 1.377 . S
C1896 C1894 1.389 . S
C1896 C1897 1.524 . S
C1896 C1910 1.377 . S
C1897 C1896 1.524 . S
C1897 C1898 1.397 . S
C1897 C1902 1.363 . S
C1898 H1875 0.950 . S
C1898 C1897 1.397 . S
C1898 C1899 1.334 . S
C1899 H1876 0.950 . S
C1899 C1898 1.334 . S
C1899 C1900 1.287 . S
C1900 C1899 1.287 . S
C1900 C1901 1.524 . S
C1900 H1919 0.913 . S
C1901 H1877 0.950 . S
C1901 C1900 1.524 . S
C1901 C1902 1.415 . S
C1902 H1878 0.950 . S
C1902 C1897 1.363 . S
C1902 C1901 1.415 . S
C1903 H1879 0.951 . S
C1903 C1904 1.366 . S
C1903 C1905 1.388 . S
C1904 C1903 1.366 . S
C1904 C1908 1.385 . S
C1905 H1880 0.951 . S
C1905 C1903 1.388 . S
C1905 C1906 1.366 . S
C1906 C1905 1.366 . S
C1906 C1907 1.414 . S
C1906 C1909 1.499 . S
C1907 H1881 0.950 . S
C1907 C1906 1.414 . S
C1907 C1908 1.374 . S
C1908 H1882 0.950 . S
C1908 C1904 1.385 . S
C1908 C1907 1.374 . S
C1909 C1906 1.499 . S
C1909 C1910 1.373 . S
C1909 C1911 1.389 . S
C1910 H1883 0.950 . S
C1910 C1896 1.377 . S
C1910 C1909 1.373 . S
C1911 C1895 1.377 . S
C1911 C1909 1.389 . S
C1911 C1912 1.524 . S
C1912 C1911 1.524 . S
C1912 C1913 1.397 . S
C1912 C1917 1.363 . S
C1913 H1884 0.950 . S
C1913 C1912 1.397 . S
C1913 C1914 1.334 . S
C1914 H1885 0.950 . S
C1914 C1913 1.334 . S
C1914 C1915 1.287 . S
C1915 C1914 1.287 . S
C1915 C1916 1.524 . S
C1915 H1918 0.999 . S
C1916 H1886 0.950 . S
C1916 C1915 1.524 . S
C1916 C1917 1.415 . S
C1917 H1887 0.950 . S
C1917 C1912 1.363 . S
C1917 C1916 1.415 . S
H1918 C1915 0.999 . S
H1919 C1900 0.913 . S
H1920 C1938 0.951 . S
H1921 C1940 0.951 . S
H1922 C1942 0.950 . S
H1923 C1943 0.950 . S
H1924 C1945 0.950 . S
H1925 C1948 0.950 . S
H1926 C1949 0.950 . S
H1927 C1951 0.950 . S
H1928 C1952 0.950 . S
H1929 C1953 0.951 . S
H1930 C1955 0.951 . S
H1931 C1957 0.950 . S
H1932 C1958 0.950 . S
H1933 C1960 0.950 . S
H1934 C1963 0.950 . S
H1935 C1964 0.950 . S
H1936 C1966 0.950 . S
H1937 C1967 0.950 . S
C1938 H1920 0.951 . S
C1938 C1939 1.366 . S
C1938 C1940 1.388 . S
C1939 C1938 1.366 . S
C1939 C1943 1.385 . S
C1940 H1921 0.951 . S
C1940 C1938 1.388 . S
C1940 C1941 1.366 . S
C1941 C1940 1.366 . S
C1941 C1942 1.414 . S
C1941 C1944 1.499 . S
C1942 H1922 0.950 . S
C1942 C1941 1.414 . S
C1942 C1943 1.374 . S
C1943 H1923 0.950 . S
C1943 C1939 1.385 . S
C1943 C1942 1.374 . S
C1944 C1941 1.499 . S
C1944 C1945 1.373 . S
C1944 C1946 1.389 . S
C1945 H1924 0.950 . S
C1945 C1944 1.373 . S
C1945 C1961 1.377 . S
C1946 C1944 1.389 . S
C1946 C1947 1.524 . S
C1946 C1960 1.377 . S
C1947 C1946 1.524 . S
C1947 C1948 1.397 . S
C1947 C1952 1.363 . S
C1948 H1925 0.950 . S
C1948 C1947 1.397 . S
C1948 C1949 1.334 . S
C1949 H1926 0.950 . S
C1949 C1948 1.334 . S
C1949 C1950 1.287 . S
C1950 C1949 1.287 . S
C1950 C1951 1.524 . S
C1950 H1969 0.913 . S
C1951 H1927 0.950 . S
C1951 C1950 1.524 . S
C1951 C1952 1.415 . S
C1952 H1928 0.950 . S
C1952 C1947 1.363 . S
C1952 C1951 1.415 . S
C1953 H1929 0.951 . S
C1953 C1954 1.366 . S
C1953 C1955 1.388 . S
C1954 C1953 1.366 . S
C1954 C1958 1.385 . S
C1955 H1930 0.951 . S
C1955 C1953 1.388 . S
C1955 C1956 1.366 . S
C1956 C1955 1.366 . S
C1956 C1957 1.414 . S
C1956 C1959 1.499 . S
C1957 H1931 0.950 . S
C1957 C1956 1.414 . S
C1957 C1958 1.374 . S
C1958 H1932 0.950 . S
C1958 C1954 1.385 . S
C1958 C1957 1.374 . S
C1959 C1956 1.499 . S
C1959 C1960 1.373 . S
C1959 C1961 1.389 . S
C1960 H1933 0.950 . S
C1960 C1946 1.377 . S
C1960 C1959 1.373 . S
C1961 C1945 1.377 . S
C1961 C1959 1.389 . S
C1961 C1962 1.524 . S
C1962 C1961 1.524 . S
C1962 C1963 1.397 . S
C1962 C1967 1.363 . S
C1963 H1934 0.950 . S
C1963 C1962 1.397 . S
C1963 C1964 1.334 . S
C1964 H1935 0.950 . S
C1964 C1963 1.334 . S
C1964 C1965 1.287 . S
C1965 C1964 1.287 . S
C1965 C1966 1.524 . S
C1965 H1968 0.999 . S
C1966 H1936 0.950 . S
C1966 C1965 1.524 . S
C1966 C1967 1.415 . S
C1967 H1937 0.950 . S
C1967 C1962 1.363 . S
C1967 C1966 1.415 . S
H1968 C1965 0.999 . S
H1969 C1950 0.913 . S
H1970 C1988 0.951 . S
H1971 C1990 0.951 . S
H1972 C1992 0.950 . S
H1973 C1993 0.950 . S
H1974 C1995 0.950 . S
H1975 C1998 0.950 . S
H1976 C1999 0.950 . S
H1977 C2001 0.950 . S
H1978 C2002 0.950 . S
H1979 C2003 0.951 . S
H1980 C2005 0.951 . S
H1981 C2007 0.950 . S
H1982 C2008 0.950 . S
H1983 C2010 0.950 . S
H1984 C2013 0.950 . S
H1985 C2014 0.950 . S
H1986 C2016 0.950 . S
H1987 C2017 0.950 . S
C1988 H1970 0.951 . S
C1988 C1989 1.366 . S
C1988 C1990 1.388 . S
C1989 C1988 1.366 . S
C1989 C1993 1.385 . S
C1990 H1971 0.951 . S
C1990 C1988 1.388 . S
C1990 C1991 1.366 . S
C1991 C1990 1.366 . S
C1991 C1992 1.414 . S
C1991 C1994 1.499 . S
C1992 H1972 0.950 . S
C1992 C1991 1.414 . S
C1992 C1993 1.374 . S
C1993 H1973 0.950 . S
C1993 C1989 1.385 . S
C1993 C1992 1.374 . S
C1994 C1991 1.499 . S
C1994 C1995 1.373 . S
C1994 C1996 1.389 . S
C1995 H1974 0.950 . S
C1995 C1994 1.373 . S
C1995 C2011 1.377 . S
C1996 C1994 1.389 . S
C1996 C1997 1.524 . S
C1996 C2010 1.377 . S
C1997 C1996 1.524 . S
C1997 C1998 1.397 . S
C1997 C2002 1.363 . S
C1998 H1975 0.950 . S
C1998 C1997 1.397 . S
C1998 C1999 1.334 . S
C1999 H1976 0.950 . S
C1999 C1998 1.334 . S
C1999 C2000 1.287 . S
C2000 C1999 1.287 . S
C2000 C2001 1.524 . S
C2000 H2019 0.913 . S
C2001 H1977 0.950 . S
C2001 C2000 1.524 . S
C2001 C2002 1.415 . S
C2002 H1978 0.950 . S
C2002 C1997 1.363 . S
C2002 C2001 1.415 . S
C2003 H1979 0.951 . S
C2003 C2004 1.366 . S
C2003 C2005 1.388 . S
C2004 C2003 1.366 . S
C2004 C2008 1.385 . S
C2005 H1980 0.951 . S
C2005 C2003 1.388 . S
C2005 C2006 1.366 . S
C2006 C2005 1.366 . S
C2006 C2007 1.414 . S
C2006 C2009 1.499 . S
C2007 H1981 0.950 . S
C2007 C2006 1.414 . S
C2007 C2008 1.374 . S
C2008 H1982 0.950 . S
C2008 C2004 1.385 . S
C2008 C2007 1.374 . S
C2009 C2006 1.499 . S
C2009 C2010 1.373 . S
C2009 C2011 1.389 . S
C2010 H1983 0.950 . S
C2010 C1996 1.377 . S
C2010 C2009 1.373 . S
C2011 C1995 1.377 . S
C2011 C2009 1.389 . S
C2011 C2012 1.524 . S
C2012 C2011 1.524 . S
C2012 C2013 1.397 . S
C2012 C2017 1.363 . S
C2013 H1984 0.950 . S
C2013 C2012 1.397 . S
C2013 C2014 1.334 . S
C2014 H1985 0.950 . S
C2014 C2013 1.334 . S
C2014 C2015 1.287 . S
C2015 C2014 1.287 . S
C2015 C2016 1.524 . S
C2015 H2018 0.999 . S
C2016 H1986 0.950 . S
C2016 C2015 1.524 . S
C2016 C2017 1.415 . S
C2017 H1987 0.950 . S
C2017 C2012 1.363 . S
C2017 C2016 1.415 . S
H2018 C2015 0.999 . S
H2019 C2000 0.913 . S
H2020 C2038 0.951 . S
H2021 C2040 0.951 . S
H2022 C2042 0.950 . S
H2023 C2043 0.950 . S
H2024 C2045 0.950 . S
H2025 C2048 0.950 . S
H2026 C2049 0.950 . S
H2027 C2051 0.950 . S
H2028 C2052 0.950 . S
H2029 C2053 0.951 . S
H2030 C2055 0.951 . S
H2031 C2057 0.950 . S
H2032 C2058 0.950 . S
H2033 C2060 0.950 . S
H2034 C2063 0.950 . S
H2035 C2064 0.950 . S
H2036 C2066 0.950 . S
H2037 C2067 0.950 . S
C2038 H2020 0.951 . S
C2038 C2039 1.366 . S
C2038 C2040 1.388 . S
C2039 C2038 1.366 . S
C2039 C2043 1.385 . S
C2040 H2021 0.951 . S
C2040 C2038 1.388 . S
C2040 C2041 1.366 . S
C2041 C2040 1.366 . S
C2041 C2042 1.414 . S
C2041 C2044 1.499 . S
C2042 H2022 0.950 . S
C2042 C2041 1.414 . S
C2042 C2043 1.374 . S
C2043 H2023 0.950 . S
C2043 C2039 1.385 . S
C2043 C2042 1.374 . S
C2044 C2041 1.499 . S
C2044 C2045 1.373 . S
C2044 C2046 1.389 . S
C2045 H2024 0.950 . S
C2045 C2044 1.373 . S
C2045 C2061 1.377 . S
C2046 C2044 1.389 . S
C2046 C2047 1.524 . S
C2046 C2060 1.377 . S
C2047 C2046 1.524 . S
C2047 C2048 1.397 . S
C2047 C2052 1.363 . S
C2048 H2025 0.950 . S
C2048 C2047 1.397 . S
C2048 C2049 1.334 . S
C2049 H2026 0.950 . S
C2049 C2048 1.334 . S
C2049 C2050 1.287 . S
C2050 C2049 1.287 . S
C2050 C2051 1.524 . S
C2050 H2069 0.913 . S
C2051 H2027 0.950 . S
C2051 C2050 1.524 . S
C2051 C2052 1.415 . S
C2052 H2028 0.950 . S
C2052 C2047 1.363 . S
C2052 C2051 1.415 . S
C2053 H2029 0.951 . S
C2053 C2054 1.366 . S
C2053 C2055 1.388 . S
C2054 C2053 1.366 . S
C2054 C2058 1.385 . S
C2055 H2030 0.951 . S
C2055 C2053 1.388 . S
C2055 C2056 1.366 . S
C2056 C2055 1.366 . S
C2056 C2057 1.414 . S
C2056 C2059 1.499 . S
C2057 H2031 0.950 . S
C2057 C2056 1.414 . S
C2057 C2058 1.374 . S
C2058 H2032 0.950 . S
C2058 C2054 1.385 . S
C2058 C2057 1.374 . S
C2059 C2056 1.499 . S
C2059 C2060 1.373 . S
C2059 C2061 1.389 . S
C2060 H2033 0.950 . S
C2060 C2046 1.377 . S
C2060 C2059 1.373 . S
C2061 C2045 1.377 . S
C2061 C2059 1.389 . S
C2061 C2062 1.524 . S
C2062 C2061 1.524 . S
C2062 C2063 1.397 . S
C2062 C2067 1.363 . S
C2063 H2034 0.950 . S
C2063 C2062 1.397 . S
C2063 C2064 1.334 . S
C2064 H2035 0.950 . S
C2064 C2063 1.334 . S
C2064 C2065 1.287 . S
C2065 C2064 1.287 . S
C2065 C2066 1.524 . S
C2065 H2068 0.999 . S
C2066 H2036 0.950 . S
C2066 C2065 1.524 . S
C2066 C2067 1.415 . S
C2067 H2037 0.950 . S
C2067 C2062 1.363 . S
C2067 C2066 1.415 . S
H2068 C2065 0.999 . S
H2069 C2050 0.913 . S
H2070 C2088 0.951 . S
H2071 C2090 0.951 . S
H2072 C2092 0.950 . S
H2073 C2093 0.950 . S
H2074 C2095 0.950 . S
H2075 C2098 0.950 . S
H2076 C2099 0.950 . S
H2077 C2101 0.950 . S
H2078 C2102 0.950 . S
H2079 C2103 0.951 . S
H2080 C2105 0.951 . S
H2081 C2107 0.950 . S
H2082 C2108 0.950 . S
H2083 C2110 0.950 . S
H2084 C2113 0.950 . S
H2085 C2114 0.950 . S
H2086 C2116 0.950 . S
H2087 C2117 0.950 . S
C2088 H2070 0.951 . S
C2088 C2089 1.366 . S
C2088 C2090 1.388 . S
C2089 C2088 1.366 . S
C2089 C2093 1.385 . S
C2090 H2071 0.951 . S
C2090 C2088 1.388 . S
C2090 C2091 1.366 . S
C2091 C2090 1.366 . S
C2091 C2092 1.414 . S
C2091 C2094 1.499 . S
C2092 H2072 0.950 . S
C2092 C2091 1.414 . S
C2092 C2093 1.374 . S
C2093 H2073 0.950 . S
C2093 C2089 1.385 . S
C2093 C2092 1.374 . S
C2094 C2091 1.499 . S
C2094 C2095 1.373 . S
C2094 C2096 1.389 . S
C2095 H2074 0.950 . S
C2095 C2094 1.373 . S
C2095 C2111 1.377 . S
C2096 C2094 1.389 . S
C2096 C2097 1.524 . S
C2096 C2110 1.377 . S
C2097 C2096 1.524 . S
C2097 C2098 1.397 . S
C2097 C2102 1.363 . S
C2098 H2075 0.950 . S
C2098 C2097 1.397 . S
C2098 C2099 1.334 . S
C2099 H2076 0.950 . S
C2099 C2098 1.334 . S
C2099 C2100 1.287 . S
C2100 C2099 1.287 . S
C2100 C2101 1.524 . S
C2100 H2119 0.913 . S
C2101 H2077 0.950 . S
C2101 C2100 1.524 . S
C2101 C2102 1.415 . S
C2102 H2078 0.950 . S
C2102 C2097 1.363 . S
C2102 C2101 1.415 . S
C2103 H2079 0.951 . S
C2103 C2104 1.366 . S
C2103 C2105 1.388 . S
C2104 C2103 1.366 . S
C2104 C2108 1.385 . S
C2105 H2080 0.951 . S
C2105 C2103 1.388 . S
C2105 C2106 1.366 . S
C2106 C2105 1.366 . S
C2106 C2107 1.414 . S
C2106 C2109 1.499 . S
C2107 H2081 0.950 . S
C2107 C2106 1.414 . S
C2107 C2108 1.374 . S
C2108 H2082 0.950 . S
C2108 C2104 1.385 . S
C2108 C2107 1.374 . S
C2109 C2106 1.499 . S
C2109 C2110 1.373 . S
C2109 C2111 1.389 . S
C2110 H2083 0.950 . S
C2110 C2096 1.377 . S
C2110 C2109 1.373 . S
C2111 C2095 1.377 . S
C2111 C2109 1.389 . S
C2111 C2112 1.524 . S
C2112 C2111 1.524 . S
C2112 C2113 1.397 . S
C2112 C2117 1.363 . S
C2113 H2084 0.950 . S
C2113 C2112 1.397 . S
C2113 C2114 1.334 . S
C2114 H2085 0.950 . S
C2114 C2113 1.334 . S
C2114 C2115 1.287 . S
C2115 C2114 1.287 . S
C2115 C2116 1.524 . S
C2115 H2118 0.999 . S
C2116 H2086 0.950 . S
C2116 C2115 1.524 . S
C2116 C2117 1.415 . S
C2117 H2087 0.950 . S
C2117 C2112 1.363 . S
C2117 C2116 1.415 . S
H2118 C2115 0.999 . S
H2119 C2100 0.913 . S
H2120 C2138 0.951 . S
H2121 C2140 0.951 . S
H2122 C2142 0.950 . S
H2123 C2143 0.950 . S
H2124 C2145 0.950 . S
H2125 C2148 0.950 . S
H2126 C2149 0.950 . S
H2127 C2151 0.950 . S
H2128 C2152 0.950 . S
H2129 C2153 0.951 . S
H2130 C2155 0.951 . S
H2131 C2157 0.950 . S
H2132 C2158 0.950 . S
H2133 C2160 0.950 . S
H2134 C2163 0.950 . S
H2135 C2164 0.950 . S
H2136 C2166 0.950 . S
H2137 C2167 0.950 . S
C2138 H2120 0.951 . S
C2138 C2139 1.366 . S
C2138 C2140 1.388 . S
C2139 C2138 1.366 . S
C2139 C2143 1.385 . S
C2140 H2121 0.951 . S
C2140 C2138 1.388 . S
C2140 C2141 1.366 . S
C2141 C2140 1.366 . S
C2141 C2142 1.414 . S
C2141 C2144 1.499 . S
C2142 H2122 0.950 . S
C2142 C2141 1.414 . S
C2142 C2143 1.374 . S
C2143 H2123 0.950 . S
C2143 C2139 1.385 . S
C2143 C2142 1.374 . S
C2144 C2141 1.499 . S
C2144 C2145 1.373 . S
C2144 C2146 1.389 . S
C2145 H2124 0.950 . S
C2145 C2144 1.373 . S
C2145 C2161 1.377 . S
C2146 C2144 1.389 . S
C2146 C2147 1.524 . S
C2146 C2160 1.377 . S
C2147 C2146 1.524 . S
C2147 C2148 1.397 . S
C2147 C2152 1.363 . S
C2148 H2125 0.950 . S
C2148 C2147 1.397 . S
C2148 C2149 1.334 . S
C2149 H2126 0.950 . S
C2149 C2148 1.334 . S
C2149 C2150 1.287 . S
C2150 C2149 1.287 . S
C2150 C2151 1.524 . S
C2150 H2169 0.913 . S
C2151 H2127 0.950 . S
C2151 C2150 1.524 . S
C2151 C2152 1.415 . S
C2152 H2128 0.950 . S
C2152 C2147 1.363 . S
C2152 C2151 1.415 . S
C2153 H2129 0.951 . S
C2153 C2154 1.366 . S
C2153 C2155 1.388 . S
C2154 C2153 1.366 . S
C2154 C2158 1.385 . S
C2155 H2130 0.951 . S
C2155 C2153 1.388 . S
C2155 C2156 1.366 . S
C2156 C2155 1.366 . S
C2156 C2157 1.414 . S
C2156 C2159 1.499 . S
C2157 H2131 0.950 . S
C2157 C2156 1.414 . S
C2157 C2158 1.374 . S
C2158 H2132 0.950 . S
C2158 C2154 1.385 . S
C2158 C2157 1.374 . S
C2159 C2156 1.499 . S
C2159 C2160 1.373 . S
C2159 C2161 1.389 . S
C2160 H2133 0.950 . S
C2160 C2146 1.377 . S
C2160 C2159 1.373 . S
C2161 C2145 1.377 . S
C2161 C2159 1.389 . S
C2161 C2162 1.524 . S
C2162 C2161 1.524 . S
C2162 C2163 1.397 . S
C2162 C2167 1.363 . S
C2163 H2134 0.950 . S
C2163 C2162 1.397 . S
C2163 C2164 1.334 . S
C2164 H2135 0.950 . S
C2164 C2163 1.334 . S
C2164 C2165 1.287 . S
C2165 C2164 1.287 . S
C2165 C2166 1.524 . S
C2165 H2168 0.999 . S
C2166 H2136 0.950 . S
C2166 C2165 1.524 . S
C2166 C2167 1.415 . S
C2167 H2137 0.950 . S
C2167 C2162 1.363 . S
C2167 C2166 1.415 . S
H2168 C2165 0.999 . S
H2169 C2150 0.913 . S
H2170 C2188 0.951 . S
H2171 C2190 0.951 . S
H2172 C2192 0.950 . S
H2173 C2193 0.950 . S
H2174 C2195 0.950 . S
H2175 C2198 0.950 . S
H2176 C2199 0.950 . S
H2177 C2201 0.950 . S
H2178 C2202 0.950 . S
H2179 C2203 0.951 . S
H2180 C2205 0.951 . S
H2181 C2207 0.950 . S
H2182 C2208 0.950 . S
H2183 C2210 0.950 . S
H2184 C2213 0.950 . S
H2185 C2214 0.950 . S
H2186 C2216 0.950 . S
H2187 C2217 0.950 . S
C2188 H2170 0.951 . S
C2188 C2189 1.366 . S
C2188 C2190 1.388 . S
C2189 C2188 1.366 . S
C2189 C2193 1.385 . S
C2190 H2171 0.951 . S
C2190 C2188 1.388 . S
C2190 C2191 1.366 . S
C2191 C2190 1.366 . S
C2191 C2192 1.414 . S
C2191 C2194 1.499 . S
C2192 H2172 0.950 . S
C2192 C2191 1.414 . S
C2192 C2193 1.374 . S
C2193 H2173 0.950 . S
C2193 C2189 1.385 . S
C2193 C2192 1.374 . S
C2194 C2191 1.499 . S
C2194 C2195 1.373 . S
C2194 C2196 1.389 . S
C2195 H2174 0.950 . S
C2195 C2194 1.373 . S
C2195 C2211 1.377 . S
C2196 C2194 1.389 . S
C2196 C2197 1.524 . S
C2196 C2210 1.377 . S
C2197 C2196 1.524 . S
C2197 C2198 1.397 . S
C2197 C2202 1.363 . S
C2198 H2175 0.950 . S
C2198 C2197 1.397 . S
C2198 C2199 1.334 . S
C2199 H2176 0.950 . S
C2199 C2198 1.334 . S
C2199 C2200 1.287 . S
C2200 C2199 1.287 . S
C2200 C2201 1.524 . S
C2200 H2219 0.913 . S
C2201 H2177 0.950 . S
C2201 C2200 1.524 . S
C2201 C2202 1.415 . S
C2202 H2178 0.950 . S
C2202 C2197 1.363 . S
C2202 C2201 1.415 . S
C2203 H2179 0.951 . S
C2203 C2204 1.366 . S
C2203 C2205 1.388 . S
C2204 C2203 1.366 . S
C2204 C2208 1.385 . S
C2205 H2180 0.951 . S
C2205 C2203 1.388 . S
C2205 C2206 1.366 . S
C2206 C2205 1.366 . S
C2206 C2207 1.414 . S
C2206 C2209 1.499 . S
C2207 H2181 0.950 . S
C2207 C2206 1.414 . S
C2207 C2208 1.374 . S
C2208 H2182 0.950 . S
C2208 C2204 1.385 . S
C2208 C2207 1.374 . S
C2209 C2206 1.499 . S
C2209 C2210 1.373 . S
C2209 C2211 1.389 . S
C2210 H2183 0.950 . S
C2210 C2196 1.377 . S
C2210 C2209 1.373 . S
C2211 C2195 1.377 . S
C2211 C2209 1.389 . S
C2211 C2212 1.524 . S
C2212 C2211 1.524 . S
C2212 C2213 1.397 . S
C2212 C2217 1.363 . S
C2213 H2184 0.950 . S
C2213 C2212 1.397 . S
C2213 C2214 1.334 . S
C2214 H2185 0.950 . S
C2214 C2213 1.334 . S
C2214 C2215 1.287 . S
C2215 C2214 1.287 . S
C2215 C2216 1.524 . S
C2215 H2218 0.999 . S
C2216 H2186 0.950 . S
C2216 C2215 1.524 . S
C2216 C2217 1.415 . S
C2217 H2187 0.950 . S
C2217 C2212 1.363 . S
C2217 C2216 1.415 . S
H2218 C2215 0.999 . S
H2219 C2200 0.913 . S
C654 C556 1.750 . S
C639 C53 1.782 . S
C689 C115 1.728 . S
C704 C559 1.707 . S
C739 C177 1.694 . S
C754 C590 1.674 . S
C804 C525 1.756 . S
C789 C239 1.789 . S
C854 C560 2.048 . S
C839 C47 2.009 . S
C904 C591 1.992 . S
C889 C109 1.951 . S
C954 C516 1.950 . S
C939 C171 1.897 . S
C1004 C547 1.967 . S
C989 C233 1.913 . S
C1039 C29 1.346 . S
C1054 C577 1.292 . S
C1089 C277 1.334 . S
C1104 C546 1.283 . S
C1139 C153 1.251 . S
C1154 C506 1.263 . S
C1204 C599 1.280 . S
C1189 C339 1.264 . S
C1254 C527 1.138 . S
C1239 C35 1.194 . S
C1289 C283 1.132 1_565 S
C1304 C526 1.116 . S
C1339 C159 1.111 . S
C1354 C619 1.096 . S
C1404 C558 1.115 . S
C1389 C345 1.169 . S
C1439 C419 1.948 . S
C1454 C618 2.012 . S
C1489 C301 1.726 . S
C1504 C497 1.714 . S
C1539 C487 1.683 . S
C1554 C528 1.663 . S
C1589 C363 1.760 . S
C1604 C587 1.727 . S
C1654 C498 1.823 . S
C1639 C425 1.847 . S
C1689 C295 1.978 . S
C1704 C529 2.020 . S
C1739 C481 1.905 . S
C1754 C578 1.960 . S
C1804 C609 1.970 . S
C1789 C357 1.915 . S
C1839 C407 1.249 . S
C1854 C515 1.190 . S
C1889 C91 1.324 . S
C1904 C608 1.271 . S
C1939 C463 1.260 . S
C1954 C568 1.276 . S
C2004 C537 1.277 . S
C1989 C215 1.262 . S
C2054 C589 1.246 . S
C2039 C401 1.297 . S
C2104 C588 1.119 . S
C2089 C97 1.134 . S
C2154 C557 1.083 . S
C2139 C469 1.098 . S
C2204 C496 1.129 . S
C2189 C221 1.183 . S
