# Generated by pormake.
# Topology zzz, (3,6)-cn, num edge types: 1
# Building blocks:
#     Node 0, Type 0, BuildingBlock: MIDCAF_clean_linker_0, # of connection points: 3
#     Node 1, Type 0, BuildingBlock: MIDCAF_clean_linker_0, # of connection points: 3
#     Node 2, Type 0, BuildingBlock: MIDCAF_clean_linker_0, # of connection points: 3
#     Node 3, Type 0, BuildingBlock: MIDCAF_clean_linker_0, # of connection points: 3
#     Node 4, Type 0, BuildingBlock: MIDCAF_clean_linker_0, # of connection points: 3
#     Node 5, Type 0, BuildingBlock: MIDCAF_clean_linker_0, # of connection points: 3
#     Node 6, Type 0, BuildingBlock: MIDCAF_clean_linker_0, # of connection points: 3
#     Node 7, Type 0, BuildingBlock: MIDCAF_clean_linker_0, # of connection points: 3
#     Node 8, Type 1, BuildingBlock: KUMBUR_clean_sbu_0, # of connection points: 6
#     Node 9, Type 1, BuildingBlock: KUMBUR_clean_sbu_0, # of connection points: 6
#     Node 10, Type 1, BuildingBlock: KUMBUR_clean_sbu_0, # of connection points: 6
#     Node 11, Type 1, BuildingBlock: KUMBUR_clean_sbu_0, # of connection points: 6
#     Edge 12, Type (0, 1), BuildingBlock: ZUJKAS_clean_linker_0, # of connection points: 2
#     Edge 13, Type (0, 1), BuildingBlock: ZUJKAS_clean_linker_0, # of connection points: 2
#     Edge 14, Type (0, 1), BuildingBlock: ZUJKAS_clean_linker_0, # of connection points: 2
#     Edge 15, Type (0, 1), BuildingBlock: ZUJKAS_clean_linker_0, # of connection points: 2
#     Edge 16, Type (0, 1), BuildingBlock: ZUJKAS_clean_linker_0, # of connection points: 2
#     Edge 17, Type (0, 1), BuildingBlock: ZUJKAS_clean_linker_0, # of connection points: 2
#     Edge 18, Type (0, 1), BuildingBlock: ZUJKAS_clean_linker_0, # of connection points: 2
#     Edge 19, Type (0, 1), BuildingBlock: ZUJKAS_clean_linker_0, # of connection points: 2
#     Edge 20, Type (0, 1), BuildingBlock: ZUJKAS_clean_linker_0, # of connection points: 2
#     Edge 21, Type (0, 1), BuildingBlock: ZUJKAS_clean_linker_0, # of connection points: 2
#     Edge 22, Type (0, 1), BuildingBlock: ZUJKAS_clean_linker_0, # of connection points: 2
#     Edge 23, Type (0, 1), BuildingBlock: ZUJKAS_clean_linker_0, # of connection points: 2
#     Edge 24, Type (0, 1), BuildingBlock: ZUJKAS_clean_linker_0, # of connection points: 2
#     Edge 25, Type (0, 1), BuildingBlock: ZUJKAS_clean_linker_0, # of connection points: 2
#     Edge 26, Type (0, 1), BuildingBlock: ZUJKAS_clean_linker_0, # of connection points: 2
#     Edge 27, Type (0, 1), BuildingBlock: ZUJKAS_clean_linker_0, # of connection points: 2
#     Edge 28, Type (0, 1), BuildingBlock: ZUJKAS_clean_linker_0, # of connection points: 2
#     Edge 29, Type (0, 1), BuildingBlock: ZUJKAS_clean_linker_0, # of connection points: 2
#     Edge 30, Type (0, 1), BuildingBlock: ZUJKAS_clean_linker_0, # of connection points: 2
#     Edge 31, Type (0, 1), BuildingBlock: ZUJKAS_clean_linker_0, # of connection points: 2
#     Edge 32, Type (0, 1), BuildingBlock: ZUJKAS_clean_linker_0, # of connection points: 2
#     Edge 33, Type (0, 1), BuildingBlock: ZUJKAS_clean_linker_0, # of connection points: 2
#     Edge 34, Type (0, 1), BuildingBlock: ZUJKAS_clean_linker_0, # of connection points: 2
#     Edge 35, Type (0, 1), BuildingBlock: ZUJKAS_clean_linker_0, # of connection points: 2
# Relax obj value: 0.276
# Max RMSD: 0.228
# Mean RMSD: 0.211
data_MOF--net-zzz--node1-KUMBUR_clean_sbu_0--node2-MIDCAF_clean_linker_0--edge1-ZUJKAS_clean_linker_0
_symmetry_space_group_name_H-M    P1
_symmetry_Int_Tables_number       1
_symmetry_cell_setting            triclinic
loop_
_symmetry_equiv_pos_as_xyz
'x, y, z'
_cell_length_a     71.009689
_cell_length_b     70.941662
_cell_length_c     24.764334
_cell_angle_alpha  90.172503
_cell_angle_beta   90.086455
_cell_angle_gamma 89.970628
loop_
_atom_site_label
_atom_site_type_symbol
_atom_site_fract_x
_atom_site_fract_y
_atom_site_fract_z
_atom_type_partial_charge
C0 C 0.79749 0.55609 0.2586 0.0
C1 C 0.80154 0.53687 0.26603 0.0
C2 C 0.7923 0.52361 0.23265 0.0
C3 C 0.78012 0.52955 0.19113 0.0
H4 H 0.73757 0.55542 0.95337 0.0
H5 H 0.70736 0.54967 0.91119 0.0
H6 H 0.68302 0.53781 0.06714 0.0
H7 H 0.71383 0.54328 0.10988 0.0
H8 H 0.76827 0.5877 0.94958 0.0
H9 H 0.7913 0.60255 0.89052 0.0
H10 H 0.83227 0.60145 0.01965 0.0
H11 H 0.80927 0.58719 0.07891 0.0
H12 H 0.7838 0.57696 0.21014 0.0
H13 H 0.80444 0.56674 0.28288 0.0
H14 H 0.79498 0.50868 0.23748 0.0
H15 H 0.7741 0.51914 0.16408 0.0
N16 N 0.75241 0.54952 0.10939 0.0
N17 N 0.75756 0.56798 0.03187 0.0
N18 N 0.77988 0.56787 0.10101 0.0
C19 C 0.74645 0.55589 0.06003 0.0
C20 C 0.77424 0.57406 0.05196 0.0
C21 C 0.76924 0.55567 0.12997 0.0
C22 C 0.72816 0.55006 0.03531 0.0
C23 C 0.72586 0.55152 0.979 0.0
C24 C 0.70841 0.54833 0.95464 0.0
C25 C 0.69253 0.5437 0.98567 0.0
C26 C 0.69492 0.54138 0.04187 0.0
C27 C 0.71258 0.5445 0.06644 0.0
C28 C 0.787 0.58586 0.01877 0.0
C29 C 0.78207 0.59099 0.96576 0.0
C30 C 0.79528 0.59948 0.9318 0.0
C31 C 0.81373 0.60299 0.95003 0.0
C32 C 0.81818 0.59915 1.00424 0.0
C33 C 0.80498 0.59073 0.0382 0.0
C34 C 0.77717 0.54885 0.18179 0.0
C35 C 0.78561 0.56198 0.21686 0.0
C36 C 0.97437 0.7962 0.26804 0.0
C37 C 0.98981 0.80793 0.25622 0.0
C38 C 1.00049 0.80385 0.20962 0.0
C39 C 0.99503 0.78939 0.17394 0.0
H40 H 0.9961 0.72222 0.08447 0.0
H41 H 1.00231 0.692 0.03866 0.0
H42 H 0.94655 0.69352 0.96904 0.0
H43 H 0.94031 0.72297 0.01475 0.0
H44 H 0.92618 0.76415 0.97794 0.0
H45 H 0.90938 0.78649 0.92079 0.0
H46 H 0.91807 0.83008 0.04059 0.0
H47 H 0.93413 0.80782 0.09804 0.0
H48 H 0.95597 0.77422 0.24011 0.0
H49 H 0.96564 0.79895 0.30301 0.0
H50 H 0.0126 0.81239 0.19942 0.0
H51 H 1.00263 0.78763 0.13634 0.0
N52 N 0.97361 0.75173 0.11935 0.0
N53 N 0.94994 0.75476 0.05308 0.0
N54 N 0.95508 0.77922 0.11437 0.0
C55 C 0.96377 0.74429 0.07653 0.0
C56 C 0.94552 0.77219 0.07157 0.0
C57 C 0.96899 0.76927 0.13857 0.0
C58 C 0.96773 0.72518 0.05339 0.0
C59 C 0.98513 0.71592 0.05995 0.0
C60 C 0.98873 0.69868 0.03327 0.0
C61 C 0.97492 0.69019 1.00003 0.0
C62 C 0.95746 0.69933 0.99474 0.0
C63 C 0.95395 0.71645 0.02084 0.0
C64 C 0.93199 0.7843 0.04199 0.0
C65 C 0.92406 0.77838 0.99269 0.0
C66 C 0.91444 0.7912 0.95982 0.0
C67 C 0.91263 0.8102 0.9755 0.0
C68 C 0.91901 0.81558 0.02709 0.0
C69 C 0.9285 0.80279 0.05996 0.0
C70 C 0.97883 0.77862 0.18406 0.0
C71 C 0.96888 0.78186 0.23219 0.0
C72 C 0.69676 0.95874 0.19867 0.0
C73 C 0.70089 0.97357 0.23433 0.0
C74 C 0.71858 0.9825 0.23 0.0
C75 C 0.73141 0.97721 0.18907 0.0
H76 H 0.78448 0.99251 0.05623 0.0
H77 H 0.81569 1.00005 0.01892 0.0
H78 H 0.8262 0.94065 0.99436 0.0
H79 H 0.79546 0.93336 0.03167 0.0
H80 H 0.75391 0.93602 0.91751 0.0
H81 H 0.73593 0.9249 0.8397 0.0
H82 H 0.68793 0.91492 0.94254 0.0
H83 H 0.70582 0.92585 0.0203 0.0
H84 H 0.70533 0.94204 0.13181 0.0
H85 H 0.68353 0.95121 0.20157 0.0
H86 H 0.72223 0.99395 0.25705 0.0
H87 H 0.74463 0.9847 0.18557 0.0
N88 N 0.75737 0.96313 0.09986 0.0
N89 N 0.75907 0.94714 0.01628 0.0
N90 N 0.73096 0.94729 0.06455 0.0
C91 C 0.76752 0.95756 0.05549 0.0
C92 C 0.7408 0.94202 0.0203 0.0
C93 C 0.73891 0.95769 0.10472 0.0
C94 C 0.78765 0.96234 0.04741 0.0
C95 C 0.79382 0.98113 0.04464 0.0
C96 C 0.81157 0.98541 0.02247 0.0
C97 C 0.82352 0.97097 1.00316 0.0
C98 C 0.81764 0.95217 0.00924 0.0
C99 C 0.79996 0.94796 0.03073 0.0
C100 C 0.73119 0.9322 0.97505 0.0
C101 C 0.73967 0.93105 0.92383 0.0
C102 C 0.72939 0.92468 0.87917 0.0
C103 C 0.71049 0.91917 0.88491 0.0
C104 C 0.70252 0.9189 0.93681 0.0
C105 C 0.71274 0.92539 0.98136 0.0
C106 C 0.72679 0.96281 0.15201 0.0
C107 C 0.70943 0.95345 0.15846 0.0
C108 C 0.59997 0.70924 0.97443 0.0
C109 C 0.59938 0.71637 0.92157 0.0
C110 C 0.59497 0.73549 0.91387 0.0
C111 C 0.59012 0.74693 0.95779 0.0
H112 H 0.59345 0.80443 0.051 0.0
H113 H 0.58715 0.83599 0.01707 0.0
H114 H 0.52906 0.83093 0.06618 0.0
H115 H 0.53556 0.79911 0.10104 0.0
H116 H 0.53763 0.7576 0.21311 0.0
H117 H 0.52813 0.73731 0.28881 0.0
H118 H 0.57563 0.70091 0.25702 0.0
H119 H 0.58505 0.72095 0.18293 0.0
H120 H 0.59478 0.71441 0.05818 0.0
H121 H 0.60313 0.69452 0.98168 0.0
H122 H 0.59453 0.7414 0.8736 0.0
H123 H 0.58603 0.76139 0.95009 0.0
N124 N 0.57749 0.76913 0.04936 0.0
N125 N 0.56296 0.77012 0.13486 0.0
N126 N 0.57616 0.74191 0.10184 0.0
C127 C 0.56849 0.77905 0.08859 0.0
C128 C 0.56712 0.75143 0.14185 0.0
C129 C 0.58126 0.75055 0.05542 0.0
C130 C 0.56501 0.79936 0.07888 0.0
C131 C 0.57943 0.81024 0.05586 0.0
C132 C 0.57582 0.82836 0.03648 0.0
C133 C 0.55758 0.83599 0.03865 0.0
C134 C 0.54325 0.8254 0.06367 0.0
C135 C 0.54698 0.80729 0.08413 0.0
C136 C 0.56205 0.74089 0.19172 0.0
C137 C 0.54616 0.74544 0.22305 0.0
C138 C 0.54066 0.73372 0.26609 0.0
C139 C 0.55112 0.71744 0.27918 0.0
C140 C 0.56734 0.71341 0.24885 0.0
C141 C 0.57267 0.72489 0.20586 0.0
C142 C 0.5894 0.73943 0.01029 0.0
C143 C 0.59499 0.72062 0.01828 0.0
C144 C 0.22712 0.45386 0.91096 0.0
C145 C 0.22313 0.47308 0.90287 0.0
C146 C 0.23397 0.48647 0.93165 0.0
C147 C 0.24753 0.48071 0.96984 0.0
H148 H 0.30791 0.48359 0.06852 0.0
H149 H 0.3389 0.49086 0.10807 0.0
H150 H 0.33663 0.43918 0.19955 0.0
H151 H 0.30637 0.43189 0.16008 0.0
H152 H 0.26069 0.43178 0.21904 0.0
H153 H 0.23667 0.42078 0.28202 0.0
H154 H 0.1998 0.408 0.14799 0.0
H155 H 0.2237 0.41873 0.08526 0.0
H156 H 0.24224 0.43324 0.95657 0.0
H157 H 0.21903 0.44304 0.89055 0.0
H158 H 0.23151 0.5014 0.92611 0.0
H159 H 0.2547 0.49127 0.99394 0.0
N160 N 0.27753 0.45999 0.04566 0.0
N161 N 0.27408 0.44187 0.12474 0.0
N162 N 0.24941 0.44349 0.06277 0.0
C163 C 0.28491 0.45307 0.09287 0.0
C164 C 0.25636 0.43704 0.11005 0.0
C165 C 0.25968 0.4549 0.0304 0.0
C166 C 0.30451 0.45723 0.11128 0.0
C167 C 0.31422 0.47369 0.09642 0.0
C168 C 0.33191 0.47791 0.11943 0.0
C169 C 0.34036 0.4656 0.15712 0.0
C170 C 0.33084 0.44889 0.17024 0.0
C171 C 0.31326 0.4448 0.14782 0.0
C172 C 0.24392 0.42654 0.14721 0.0
C173 C 0.24768 0.42609 0.20295 0.0
C174 C 0.23392 0.41983 0.23906 0.0
C175 C 0.21627 0.41374 0.22 0.0
C176 C 0.21327 0.41248 0.16403 0.0
C177 C 0.22693 0.41885 0.12803 0.0
C178 C 0.25044 0.46147 0.98008 0.0
C179 C 0.2405 0.44818 0.94898 0.0
C180 C 0.0235 0.2072 0.9839 0.0
C181 C 0.02663 0.20913 0.92813 0.0
C182 C 0.03329 0.22659 0.90888 0.0
C183 C 0.03823 0.24113 0.94517 0.0
H184 H 0.01823 0.29268 0.1122 0.0
H185 H 0.01141 0.32243 0.15967 0.0
H186 H 0.07092 0.33445 0.16796 0.0
H187 H 0.07766 0.30481 0.12171 0.0
H188 H 0.08883 0.25869 0.20058 0.0
H189 H 0.10567 0.23683 0.25937 0.0
H190 H 0.10434 0.19471 0.1329 0.0
H191 H 0.08829 0.21656 0.07416 0.0
H192 H 0.02707 0.21912 0.06281 0.0
H193 H 0.01811 0.19411 1.00011 0.0
H194 H 0.03591 0.22854 0.8662 0.0
H195 H 0.04486 0.25376 0.92975 0.0
N196 N 0.0427 0.26798 0.05478 0.0
N197 N 0.06793 0.26802 0.11703 0.0
N198 N 0.0621 0.24132 0.06439 0.0
C199 C 0.05322 0.27713 0.09328 0.0
C200 C 0.07247 0.25013 0.10272 0.0
C201 C 0.04742 0.24998 0.03994 0.0
C202 C 0.04848 0.29641 0.11304 0.0
C203 C 0.02978 0.3019 0.12316 0.0
C204 C 0.02591 0.31883 0.15084 0.0
C205 C 0.04064 0.33081 0.16784 0.0
C206 C 0.05923 0.32567 0.15521 0.0
C207 C 0.0631 0.30865 0.12873 0.0
C208 C 0.08671 0.23918 0.13322 0.0
C209 C 0.09271 0.24498 0.18479 0.0
C210 C 0.10229 0.2324 0.2186 0.0
C211 C 0.10601 0.21382 0.20147 0.0
C212 C 0.10184 0.20886 0.14775 0.0
C213 C 0.09235 0.22138 0.11406 0.0
C214 C 0.03635 0.23852 1.00115 0.0
C215 C 0.02835 0.22165 0.01983 0.0
C216 C 0.30385 0.05904 0.89897 0.0
C217 C 0.30729 0.03964 0.89251 0.0
C218 C 0.29681 0.02691 0.92426 0.0
C219 C 0.28396 0.03352 0.9633 0.0
H220 H 0.22671 0.03061 0.07794 0.0
H221 H 0.19629 0.02428 0.12207 0.0
H222 H 0.19375 0.08225 0.17516 0.0
H223 H 0.22366 0.08846 0.1316 0.0
H224 H 0.2662 0.0979 0.19267 0.0
H225 H 0.28776 0.11105 0.2595 0.0
H226 H 0.33441 0.10094 0.15127 0.0
H227 H 0.31297 0.0885 0.08421 0.0
H228 H 0.28986 0.08065 0.94404 0.0
H229 H 0.31175 0.06933 0.87608 0.0
H230 H 0.29896 0.01186 0.92012 0.0
H231 H 0.2769 0.02349 0.98922 0.0
N232 N 0.25462 0.05577 0.03688 0.0
N233 N 0.25781 0.07595 0.11215 0.0
N234 N 0.28272 0.07267 0.05165 0.0
C235 C 0.24714 0.06386 0.08239 0.0
C236 C 0.27562 0.08033 0.09739 0.0
C237 C 0.27248 0.06051 0.0211 0.0
C238 C 0.22762 0.06002 0.1013 0.0
C239 C 0.2194 0.04202 0.09815 0.0
C240 C 0.20209 0.03838 0.12388 0.0
C241 C 0.19254 0.05276 0.15231 0.0
C242 C 0.20051 0.07087 0.15327 0.0
C243 C 0.21778 0.07441 0.12843 0.0
C244 C 0.28788 0.09168 0.13351 0.0
C245 C 0.28101 0.0989 0.18264 0.0
C246 C 0.29338 0.10642 0.22105 0.0
C247 C 0.31289 0.10677 0.2113 0.0
C248 C 0.3195 0.10107 0.16028 0.0
C249 C 0.30714 0.09369 0.12181 0.0
C250 C 0.28154 0.05296 0.97162 0.0
C251 C 0.29127 0.06557 0.93808 0.0
C252 C 0.41073 0.32479 0.17581 0.0
C253 C 0.40765 0.3204 0.2304 0.0
C254 C 0.41005 0.30163 0.24729 0.0
C255 C 0.41684 0.28794 0.21146 0.0
H256 H 0.42738 0.23102 0.18503 0.0
H257 H 0.43476 0.20132 0.22761 0.0
H258 H 0.48445 0.19593 0.1284 0.0
H259 H 0.47676 0.22599 0.08425 0.0
H260 H 0.48498 0.27307 0.99893 0.0
H261 H 0.49636 0.29272 0.92402 0.0
H262 H 0.43972 0.31319 0.89851 0.0
H263 H 0.4286 0.29357 0.97163 0.0
H264 H 0.42053 0.31535 0.09898 0.0
H265 H 0.40924 0.33911 0.16135 0.0
H266 H 0.4075 0.2977 0.28887 0.0
H267 H 0.4194 0.27386 0.22653 0.0
N268 N 0.43633 0.26193 0.14002 0.0
N269 N 0.45419 0.25646 0.06136 0.0
N270 N 0.43817 0.28519 0.07403 0.0
C271 C 0.44736 0.25026 0.10988 0.0
C272 C 0.4493 0.27398 0.04313 0.0
C273 C 0.43173 0.27941 0.12258 0.0
C274 C 0.45162 0.23113 0.13156 0.0
C275 C 0.43992 0.22361 0.17195 0.0
C276 C 0.44421 0.20652 0.19677 0.0
C277 C 0.46044 0.19635 0.18248 0.0
C278 C 0.47184 0.2034 0.14052 0.0
C279 C 0.46745 0.22063 0.11522 0.0
C280 C 0.45591 0.28177 0.99101 0.0
C281 C 0.47496 0.2813 0.9759 0.0
C282 C 0.48148 0.29276 0.9335 0.0
C283 C 0.469 0.3047 0.90519 0.0
C284 C 0.44977 0.30409 0.91852 0.0
C285 C 0.44336 0.29285 0.96077 0.0
C286 C 0.42135 0.29275 0.15795 0.0
C287 C 0.41745 0.31114 0.14003 0.0
Tb288 Tb 0.02682 0.00664 0.62701 0.0
C289 C 0.9564 0.98956 0.49182 0.0
C290 C 0.96757 0.96977 0.41902 0.0
C291 C 0.93529 0.96675 0.45025 0.0
C292 C 0.97074 0.98389 0.45826 0.0
C293 C 0.93833 0.98147 0.48732 0.0
C294 C 0.94992 0.96088 0.41618 0.0
C295 C 0.92723 1.00433 0.55235 0.0
N296 N 0.95991 1.00381 0.52687 0.0
C297 C 0.94543 0.01181 0.55547 0.0
C298 C 0.92373 0.98886 0.51883 0.0
Tb299 Tb 0.99012 0.01532 0.52936 0.0
N300 N 0.98753 0.99292 0.46222 0.0
C301 C 1.0013 0.98941 0.42483 0.0
C302 C 0.98203 0.96543 0.38284 0.0
C303 C 0.99887 0.97548 0.38531 0.0
H304 H 0.94805 0.02361 0.58211 0.0
H305 H 0.01004 0.97248 0.35689 0.0
H306 H 0.9473 0.94984 0.38678 0.0
H307 H 0.91597 0.0104 0.57613 0.0
H308 H 0.01451 0.99679 0.42584 0.0
H309 H 0.00887 0.04618 0.80729 0.0
H310 H 0.98017 0.9547 0.35206 0.0
H311 H 0.06839 0.99865 0.57056 0.0
H312 H 1.00307 0.02453 0.73293 0.0
H313 H 0.10082 0.01074 0.57767 0.0
H314 H 0.92158 0.96018 0.44659 0.0
H315 H 0.03941 0.06276 0.81491 0.0
H316 H 0.07231 0.0673 0.78021 0.0
H317 H 0.90963 0.98307 0.5165 0.0
H318 H 0.09742 0.05765 0.71746 0.0
N319 N 0.03026 0.02778 0.69719 0.0
C320 C 0.01665 0.0311 0.73518 0.0
C321 C 0.03705 0.05295 0.78198 0.0
C322 C 0.05121 0.049 0.74454 0.0
C323 C 0.01981 0.04368 0.77776 0.0
C324 C 0.04741 0.036 0.70265 0.0
H325 H 0.10829 0.03629 0.64247 0.0
N326 N 0.05733 0.01737 0.63018 0.0
C327 C 0.08987 0.01655 0.60312 0.0
C328 C 0.06144 0.03065 0.66768 0.0
C329 C 0.07144 0.0097 0.59935 0.0
C330 C 0.09401 0.03101 0.63956 0.0
C331 C 0.07979 0.03803 0.67309 0.0
O332 O 0.04436 0.98358 0.64352 0.0
O333 O 0.00852 0.99488 0.56561 0.0
O334 O 0.97806 0.99689 0.59144 0.0
O335 O 0.99838 1.00342 0.66308 0.0
O336 O 0.03573 0.98605 0.56568 0.0
O337 O 0.02143 0.99063 0.69674 0.0
O338 O 0.97232 0.03796 0.51056 0.0
O339 O 0.00831 0.02706 0.59098 0.0
O340 O 0.03866 0.02573 0.5663 0.0
O341 O 0.01854 0.01941 0.49402 0.0
O342 O 0.98138 0.03676 0.58862 0.0
O343 O 0.99452 0.02964 0.45614 0.0
C344 C 0.01972 0.98362 0.54278 0.0
C345 C 0.02716 0.95816 0.67819 0.0
C346 C 1.00246 0.93434 0.68701 0.0
C347 C 0.00873 0.95306 0.69286 0.0
C348 C 0.01485 0.92085 0.66491 0.0
C349 C 0.03924 0.94439 0.65663 0.0
C350 C 0.03304 0.92592 0.64961 0.0
C351 C 0.98205 0.9971 0.64379 0.0
C352 C 0.03375 0.97785 0.68286 0.0
C353 C 0.08347 0.05167 0.71296 0.0
C354 C 0.06919 0.05715 0.74868 0.0
C355 C 0.99724 0.0387 0.61284 0.0
C356 C 0.98734 0.06234 0.46392 0.0
C357 C 0.00609 0.0678 0.45437 0.0
C358 C 0.01098 0.08699 0.45219 0.0
C359 C 0.99686 0.10066 0.46009 0.0
C360 C 0.97351 0.07624 0.47137 0.0
C361 C 0.97829 0.09528 0.46969 0.0
C362 C 0.03478 0.02577 0.51387 0.0
C363 C 0.98185 0.04236 0.46766 0.0
H364 H 0.99925 0.96366 0.70869 0.0
H365 H 0.01077 0.90622 0.66082 0.0
H366 H 0.05348 0.94795 0.64477 0.0
H367 H 0.04245 0.91541 0.6329 0.0
H368 H 0.01688 0.05719 0.4489 0.0
H369 H 1.00005 0.11556 0.45755 0.0
H370 H 0.95899 0.07235 0.47876 0.0
H371 H 0.96753 0.10591 0.47541 0.0
Tb372 Tb 0.51502 0.0305 0.63276 0.0
C373 C 0.5337 0.95777 0.50834 0.0
C374 C 0.55277 0.96871 0.43435 0.0
C375 C 0.55774 0.93727 0.47011 0.0
C376 C 0.53851 0.97179 0.47314 0.0
C377 C 0.54282 0.94009 0.50638 0.0
C378 C 0.56267 0.95155 0.43394 0.0
C379 C 0.52005 0.92858 0.57032 0.0
N380 N 0.51898 0.96097 0.5416 0.0
C381 C 0.51138 0.94628 0.57001 0.0
C382 C 0.53611 0.92556 0.53913 0.0
Tb383 Tb 0.50636 0.99094 0.54377 0.0
N384 N 0.52847 0.98806 0.475 0.0
C385 C 0.53131 1.00131 0.4356 0.0
C386 C 0.55629 0.98271 0.39625 0.0
C387 C 0.54529 0.99895 0.39639 0.0
H388 H 0.49872 0.94837 0.59345 0.0
H389 H 0.54767 0.00979 0.36652 0.0
H390 H 0.57375 0.94899 0.40479 0.0
H391 H 0.51425 0.91725 0.59431 0.0
H392 H 0.52349 0.01418 0.43432 0.0
H393 H 0.47412 0.01677 0.81306 0.0
H394 H 0.56714 0.98095 0.36593 0.0
H395 H 0.52147 0.0699 0.56355 0.0
H396 H 0.49692 0.00935 0.74249 0.0
H397 H 0.50798 0.10195 0.56045 0.0
H398 H 0.56506 0.92388 0.46835 0.0
H399 H 0.45735 0.04727 0.81267 0.0
H400 H 0.45224 0.07883 0.76944 0.0
H401 H 0.54272 0.91179 0.5389 0.0
H402 H 0.46114 0.10191 0.70003 0.0
N403 N 0.49305 0.0352 0.69957 0.0
C404 C 0.48984 0.02274 0.74071 0.0
C405 C 0.46733 0.04407 0.78088 0.0
C406 C 0.47111 0.05708 0.74002 0.0
C407 C 0.47681 0.02687 0.78132 0.0
C408 C 0.4843 0.05222 0.69975 0.0
H409 H 0.48207 0.11074 0.62232 0.0
N410 N 0.50297 0.06038 0.62545 0.0
C411 C 0.50257 0.09176 0.58889 0.0
C412 C 0.48941 0.06526 0.66127 0.0
C413 C 0.51019 0.07359 0.59086 0.0
C414 C 0.4879 0.09663 0.62373 0.0
C415 C 0.48137 0.08344 0.66119 0.0
O416 O 0.53725 0.04956 0.64368 0.0
O417 O 0.52702 0.00975 0.57808 0.0
O418 O 0.52102 0.97945 0.6149 0.0
O419 O 0.52007 1.00419 0.67788 0.0
O420 O 0.53599 0.03688 0.57037 0.0
O421 O 0.52961 0.03004 0.70671 0.0
O422 O 0.48565 0.97099 0.5236 0.0
O423 O 0.49504 0.01047 0.60211 0.0
O424 O 0.49495 0.03964 0.57114 0.0
O425 O 0.50268 0.01858 0.50266 0.0
O426 O 0.4858 0.98349 0.60674 0.0
O427 O 0.48721 0.99704 0.48085 0.0
C428 C 0.53847 0.02003 0.55294 0.0
C429 C 0.56171 0.03762 0.69587 0.0
C430 C 0.58793 0.01616 0.67878 0.0
C431 C 0.56862 0.02048 0.67537 0.0
C432 C 0.60016 0.02947 0.7026 0.0
C433 C 0.5741 0.05066 0.71906 0.0
C434 C 0.59327 0.04659 0.7223 0.0
C435 C 0.5231 0.98631 0.66455 0.0
C436 C 0.5418 0.04255 0.69035 0.0
C437 C 0.46759 0.08806 0.6996 0.0
C438 C 0.46253 0.07492 0.73912 0.0
C439 C 0.48377 1.0 0.6273 0.0
C440 C 0.45687 0.98626 0.50691 0.0
C441 C 0.44827 1.00351 0.49387 0.0
C442 C 0.42991 0.00758 0.51159 0.0
C443 C 0.42023 0.99432 0.5431 0.0
C444 C 0.44675 0.97304 0.5377 0.0
C445 C 0.42864 0.97716 0.556 0.0
C446 C 0.49544 0.03487 0.51949 0.0
C447 C 0.47675 0.98255 0.49231 0.0
H448 H 0.55895 0.01062 0.65679 0.0
H449 H 0.61502 0.02651 0.70754 0.0
H450 H 0.56896 0.06402 0.73438 0.0
H451 H 0.60281 0.05665 0.74059 0.0
H452 H 0.45576 0.01372 0.4695 0.0
H453 H 0.40614 0.99724 0.55763 0.0
H454 H 0.45298 0.95964 0.54861 0.0
H455 H 0.4211 0.96701 0.5803 0.0
Tb456 Tb 0.52968 0.50804 0.56292 0.0
C457 C 0.44985 0.49405 0.65409 0.0
C458 C 0.42624 0.50516 0.59136 0.0
C459 C 0.41832 0.4807 0.65593 0.0
C460 C 0.44488 0.50525 0.61088 0.0
C461 C 0.43665 0.4816 0.67714 0.0
C462 C 0.41305 0.49263 0.61352 0.0
C463 C 0.46012 0.47316 0.74345 0.0
N464 N 0.46747 0.49583 0.67462 0.0
C465 C 0.47255 0.48603 0.72002 0.0
C466 C 0.44212 0.47083 0.72173 0.0
Tb467 Tb 0.48628 0.51802 0.6344 0.0
N468 N 0.45806 0.51698 0.5899 0.0
C469 C 0.45329 0.52938 0.54989 0.0
C470 C 0.42123 0.51816 0.55159 0.0
C471 C 0.43485 0.5302 0.53037 0.0
H472 H 0.4864 0.48761 0.73734 0.0
H473 H 0.43111 0.54029 0.49946 0.0
H474 H 0.3987 0.49223 0.59861 0.0
H475 H 0.46438 0.46516 0.77854 0.0
H476 H 0.46361 0.53908 0.53407 0.0
H477 H 0.58269 0.48688 0.70792 0.0
H478 H 0.40683 0.51911 0.53739 0.0
H479 H 0.53233 0.53683 0.4568 0.0
H480 H 0.55185 0.48563 0.66269 0.0
H481 H 0.55467 0.5599 0.42001 0.0
H482 H 0.40797 0.47122 0.67302 0.0
H483 H 0.60618 0.51079 0.68098 0.0
H484 H 0.61516 0.53736 0.61921 0.0
H485 H 0.43245 0.46101 0.74037 0.0
H486 H 0.6075 0.5573 0.54096 0.0
N487 N 0.55755 0.50869 0.61016 0.0
C488 C 0.56195 0.49609 0.65006 0.0
C489 C 0.59269 0.51022 0.66058 0.0
C490 C 0.58844 0.5226 0.61842 0.0
C491 C 0.57947 0.49672 0.67589 0.0
C492 C 0.57066 0.52123 0.59317 0.0
H493 H 0.58505 0.56567 0.46611 0.0
N494 N 0.54958 0.52968 0.52438 0.0
C495 C 0.55817 0.55221 0.45635 0.0
C496 C 0.5665 0.53219 0.54888 0.0
C497 C 0.54555 0.539 0.47734 0.0
C498 C 0.57528 0.55547 0.48256 0.0
C499 C 0.57977 0.54521 0.52898 0.0
O500 O 0.5335 0.49499 0.48712 0.0
O501 O 0.49922 0.50767 0.5617 0.0
O502 O 0.48804 0.48761 0.62011 0.0
O503 O 0.52068 0.48484 0.61707 0.0
O504 O 0.51224 0.51228 0.49018 0.0
O505 O 0.54457 0.48257 0.55986 0.0
O506 O 0.48137 0.53056 0.7104 0.0
O507 O 0.51655 0.51846 0.63514 0.0
O508 O 0.52784 0.53852 0.57465 0.0
O509 O 0.49521 0.54158 0.58105 0.0
O510 O 0.50375 0.51481 0.70752 0.0
O511 O 0.47142 0.54345 0.63686 0.0
C512 C 0.496 0.51052 0.51226 0.0
C513 C 0.53467 0.46171 0.4931 0.0
C514 C 0.50892 0.43956 0.47904 0.0
C515 C 0.51527 0.45795 0.48996 0.0
C516 C 0.52221 0.42506 0.47152 0.0
C517 C 0.54768 0.4471 0.48538 0.0
C518 C 0.54145 0.42885 0.47465 0.0
C519 C 0.50366 0.47746 0.62431 0.0
C520 C 0.54173 0.48036 0.50847 0.0
C521 C 0.59717 0.54727 0.55539 0.0
C522 C 0.60152 0.53594 0.59995 0.0
C523 C 0.51986 0.51635 0.68475 0.0
C524 C 0.47868 0.56376 0.7078 0.0
C525 C 0.49655 0.57105 0.69563 0.0
C526 C 0.5009 0.58988 0.70818 0.0
C527 C 0.48735 0.60104 0.73478 0.0
C528 C 0.46537 0.57507 0.73415 0.0
C529 C 0.46976 0.59362 0.74788 0.0
C530 C 0.51224 0.54873 0.57164 0.0
C531 C 0.47296 0.54508 0.68894 0.0
H532 H 0.50519 0.46917 0.49674 0.0
H533 H 0.51774 0.41082 0.46212 0.0
H534 H 0.56267 0.44979 0.48832 0.0
H535 H 0.55155 0.41761 0.46867 0.0
H536 H 0.50682 0.56223 0.67552 0.0
H537 H 0.49044 0.61545 0.7463 0.0
H538 H 0.45149 0.56963 0.74337 0.0
H539 H 0.45946 0.60232 0.76834 0.0
Tb540 Tb 0.01811 0.52866 0.55612 0.0
C541 C 0.02548 0.44957 0.64403 0.0
C542 C 0.01289 0.42839 0.57625 0.0
C543 C 0.03775 0.41768 0.6364 0.0
C544 C 0.01347 0.4463 0.60115 0.0
C545 C 0.03754 0.43522 0.66284 0.0
C546 C 0.02539 0.41425 0.59327 0.0
C547 C 0.04682 0.45595 0.73577 0.0
N548 N 0.0247 0.46661 0.66889 0.0
C549 C 0.0344 0.46962 0.71606 0.0
C550 C 0.04859 0.43876 0.70862 0.0
Tb551 Tb 1.00413 0.48812 0.63278 0.0
N552 N 1.00174 0.46039 0.58549 0.0
C553 C 0.98803 0.45695 0.54778 0.0
C554 C 0.99936 0.42508 0.5362 0.0
C555 C 0.98665 0.43932 0.52276 0.0
H556 H 0.03312 0.4829 0.73724 0.0
H557 H 0.97569 0.43676 0.49329 0.0
H558 H 0.02531 0.40048 0.57421 0.0
H559 H 0.05497 0.45867 0.77192 0.0
H560 H 0.97813 0.46777 0.53645 0.0
H561 H 0.05083 0.57749 0.69891 0.0
H562 H 0.99833 0.41148 0.51638 0.0
H563 H 0.99469 0.54064 0.44499 0.0
H564 H 0.04929 0.54905 0.64449 0.0
H565 H 0.97356 0.56632 0.41561 0.0
H566 H 0.04702 0.40651 0.64993 0.0
H567 H 0.0271 0.60257 0.68744 0.0
H568 H 0.99947 0.61516 0.63559 0.0
H569 H 0.05811 0.42814 0.7242 0.0
H570 H 0.97798 0.61201 0.55815 0.0
N571 N 0.02301 0.55583 0.60646 0.0
C572 C 0.03794 0.5589 0.64059 0.0
C573 C 0.02587 0.58964 0.66434 0.0
C574 C 0.01181 0.58741 0.62537 0.0
C575 C 0.03926 0.5755 0.67098 0.0
C576 C 0.01093 0.57028 0.5962 0.0
H577 H 0.96849 0.594 0.47488 0.0
N578 N 1.00013 0.55281 0.52218 0.0
C579 C 0.98038 0.56705 0.45468 0.0
C580 C 0.99889 0.5686 0.55279 0.0
C581 C 0.99227 0.55249 0.47158 0.0
C582 C 0.97751 0.5826 0.48831 0.0
C583 C 0.98736 0.58385 0.53716 0.0
O584 O 0.03144 0.5454 0.49729 0.0
O585 O 0.01556 0.49833 0.5574 0.0
O586 O 0.03476 0.4881 0.62275 0.0
O587 O 0.03934 0.52035 0.61739 0.0
O588 O 0.00914 0.51162 0.48653 0.0
O589 O 0.04466 0.5204 0.52654 0.0
O590 O 0.99445 0.48425 0.71218 0.0
O591 O 1.00415 0.51872 0.62786 0.0
O592 O 0.9873 0.52649 0.54665 0.0
O593 O 0.9796 0.49729 0.58469 0.0
O594 O 0.00965 0.50708 0.7015 0.0
O595 O 0.97809 0.47479 0.64367 0.0
C596 C 0.01073 0.49533 0.50886 0.0
C597 C 0.04708 0.52607 0.4332 0.0
C598 C 0.05979 0.50233 0.37149 0.0
C599 C 0.05833 0.51011 0.42357 0.0
C600 C 0.04996 0.51084 0.3287 0.0
C601 C 0.03751 0.53447 0.3897 0.0
C602 C 0.03896 0.52684 0.33785 0.0
C603 C 0.04541 0.50318 0.62973 0.0
C604 C 0.04465 0.5331 0.48906 0.0
C605 C 0.98697 0.60027 0.56893 0.0
C606 C 0.99923 0.60206 0.61297 0.0
C607 C 0.00742 0.52276 0.67661 0.0
C608 C 0.96143 0.48362 0.72106 0.0
C609 C 0.95632 0.50274 0.7188 0.0
C610 C 0.93912 0.50871 0.74105 0.0
C611 C 0.9273 0.49539 0.76594 0.0
C612 C 0.94949 0.47057 0.74597 0.0
C613 C 0.9325 0.47647 0.76842 0.0
C614 C 0.97522 0.51269 0.55712 0.0
C615 C 0.97871 0.47668 0.69591 0.0
H616 H 0.06602 0.50378 0.45674 0.0
H617 H 0.05069 0.50507 0.28822 0.0
H618 H 0.02872 0.54678 0.39573 0.0
H619 H 0.03142 0.5333 0.30467 0.0
H620 H 0.96548 0.5128 0.69899 0.0
H621 H 0.9141 0.49968 0.78413 0.0
H622 H 0.95328 0.45578 0.74773 0.0
H623 H 0.92333 0.46635 0.78772 0.0
H624 H 0.18435 0.02268 0.21802 0.0
H625 H 0.15692 0.01867 0.27683 0.0
H626 H 0.13343 0.0706 0.21676 0.0
H627 H 0.16081 0.07473 0.15825 0.0
H628 H 0.13257 0.06949 0.32587 0.0
H629 H 0.10343 1.00278 0.24441 0.0
H630 H 0.12768 1.00103 0.26426 0.0
H631 H 0.12114 0.01618 0.2092 0.0
C632 C 0.17316 0.03304 0.21646 0.0
C633 C 0.17484 0.04903 0.18331 0.0
C634 C 0.15745 0.03074 0.25021 0.0
C635 C 0.14293 0.04425 0.2511 0.0
C636 C 0.1444 0.05998 0.21705 0.0
H637 H 0.03413 0.02431 0.40287 0.0
H638 H 0.05981 0.03077 0.34043 0.0
C639 C 0.1601 0.06233 0.18356 0.0
C640 C 0.1267 0.04258 0.28922 0.0
H641 H 0.09056 0.01375 0.32713 0.0
C642 C 0.12329 0.05735 0.32589 0.0
C643 C 0.11447 0.02684 0.28927 0.0
C644 C 0.11671 0.01088 0.24936 0.0
C645 C 0.10819 0.0568 0.3627 0.0
C646 C 0.09614 0.04081 0.36372 0.0
C647 C 0.09958 0.02608 0.32672 0.0
C648 C 0.07991 0.03886 0.40218 0.0
C649 C 0.10544 0.0736 0.39932 0.0
C650 C 0.08217 0.04176 0.45807 0.0
C651 C 0.06716 0.03875 0.4938 0.0
C652 C 0.04979 0.03172 0.47519 0.0
C653 C 0.04736 0.02933 0.41916 0.0
C654 C 0.06216 0.03295 0.38322 0.0
H655 H 0.10985 0.08682 0.37899 0.0
H656 H 0.09066 0.0752 0.41253 0.0
H657 H 0.11444 0.07191 0.43567 0.0
H658 H 0.09565 0.046 0.47447 0.0
H659 H 0.06936 0.0416 0.53623 0.0
H660 H 0.45748 0.1901 0.29104 0.0
H661 H 0.46292 0.16091 0.34039 0.0
H662 H 0.48025 0.13344 0.19316 0.0
H663 H 0.47451 0.16271 0.14286 0.0
H664 H 0.44483 0.12569 0.32003 0.0
H665 H 0.52276 0.1205 0.30252 0.0
H666 H 0.51017 0.14223 0.29063 0.0
H667 H 0.50986 0.12385 0.24071 0.0
C668 C 0.46238 0.17787 0.26887 0.0
C669 C 0.46534 0.17877 0.21268 0.0
C670 C 0.46558 0.16119 0.29733 0.0
C671 C 0.47204 0.14498 0.27064 0.0
C672 C 0.47548 0.14584 0.21478 0.0
H673 H 0.50116 0.03513 0.40932 0.0
H674 H 0.4941 0.0605 0.34608 0.0
C675 C 0.47222 0.1626 0.18608 0.0
C676 C 0.47439 0.12713 0.30152 0.0
H677 H 0.50727 0.09602 0.34863 0.0
C678 C 0.45848 0.11915 0.32611 0.0
C679 C 0.49216 0.11852 0.30919 0.0
C680 C 0.50979 0.12671 0.28478 0.0
C681 C 0.45984 0.10293 0.35837 0.0
C682 C 0.4777 0.0946 0.36752 0.0
C683 C 0.49357 0.10234 0.34183 0.0
C684 C 0.48042 0.07837 0.40511 0.0
C685 C 0.44204 0.09479 0.3817 0.0
C686 C 0.47476 0.07964 0.45936 0.0
C687 C 0.47874 0.06506 0.49565 0.0
C688 C 0.48888 0.049 0.47905 0.0
C689 C 0.49374 0.04737 0.42415 0.0
C690 C 0.4897 0.06194 0.38775 0.0
H691 H 0.42959 0.0984 0.35653 0.0
H692 H 0.44298 0.07924 0.38518 0.0
H693 H 0.4397 0.10084 0.42251 0.0
H694 H 0.46776 0.09218 0.47422 0.0
H695 H 0.47421 0.0666 0.53715 0.0
H696 H 0.35186 0.49996 0.19688 0.0
H697 H 0.37938 0.50672 0.25332 0.0
H698 H 0.39678 0.44864 0.2412 0.0
H699 H 0.36969 0.44191 0.18326 0.0
H700 H 0.38592 0.49097 0.35173 0.0
H701 H 0.44646 0.4757 0.21735 0.0
H702 H 0.42278 0.47861 0.19205 0.0
H703 H 0.42978 0.45678 0.22283 0.0
C704 C 0.3618 0.48872 0.20489 0.0
C705 C 0.35842 0.47036 0.18549 0.0
C706 C 0.37749 0.49258 0.2376 0.0
C707 C 0.39031 0.47824 0.2514 0.0
C708 C 0.38735 0.46005 0.23058 0.0
H709 H 0.4685 0.48346 0.53001 0.0
H710 H 0.44211 0.47525 0.47011 0.0
C711 C 0.37167 0.45618 0.19786 0.0
C712 C 0.4057 0.48201 0.29126 0.0
H713 H 0.45351 0.48138 0.30985 0.0
C714 C 0.4007 0.48882 0.34252 0.0
C715 C 0.42502 0.47921 0.27944 0.0
C716 C 0.43141 0.47232 0.22479 0.0
C717 C 0.41435 0.49307 0.38188 0.0
C718 C 0.43368 0.49041 0.37028 0.0
C719 C 0.43872 0.4834 0.3191 0.0
C720 C 0.44889 0.49599 0.40918 0.0
C721 C 0.40802 0.5014 0.43456 0.0
C722 C 0.4615 0.51044 0.39547 0.0
C723 C 0.47626 0.51544 0.43028 0.0
C724 C 0.47888 0.50613 0.47978 0.0
C725 C 0.46644 0.49146 0.49335 0.0
C726 C 0.45141 0.48666 0.4588 0.0
H727 H 0.39253 0.50357 0.4363 0.0
H728 H 0.41213 0.49195 0.46817 0.0
H729 H 0.41503 0.51522 0.44017 0.0
H730 H 0.45998 0.51782 0.35749 0.0
H731 H 0.48585 0.52652 0.41813 0.0
H732 H 0.05521 0.36635 0.15489 0.0
H733 H 0.05048 0.39408 0.21234 0.0
H734 H 0.01373 0.36184 0.31529 0.0
H735 H 0.01784 0.3343 0.25656 0.0
H736 H 0.9994 0.39495 0.30147 0.0
H737 H 0.07451 0.40652 0.3527 0.0
H738 H 0.07015 0.40555 0.28147 0.0
H739 H 0.06614 0.38497 0.32199 0.0
C740 C 0.04612 0.36518 0.1898 0.0
C741 C 0.03693 0.34806 0.20113 0.0
C742 C 0.04359 0.38103 0.22311 0.0
C743 C 0.03219 0.38006 0.26946 0.0
C744 C 0.02272 0.36304 0.28017 0.0
H745 H 0.03616 0.46637 0.52548 0.0
H746 H 0.04065 0.4381 0.46946 0.0
C747 C 0.025 0.34728 0.24636 0.0
C748 C 0.02959 0.39684 0.3058 0.0
H749 H 0.0532 0.43062 0.37794 0.0
C750 C 0.01121 0.40267 0.31842 0.0
C751 C 0.04491 0.40686 0.329 0.0
C752 C 0.06504 0.40058 0.3212 0.0
C753 C 0.00767 0.41816 0.35265 0.0
C754 C 0.02297 0.42882 0.37374 0.0
C755 C 0.04139 0.4228 0.36165 0.0
C756 C 0.02023 0.44608 0.40841 0.0
C757 C 0.98744 0.42241 0.36667 0.0
C758 C 0.00769 0.46044 0.39284 0.0
C759 C 1.00451 0.47611 0.4262 0.0
C760 C 0.01411 0.47816 0.47553 0.0
C761 C 0.02776 0.46464 0.4893 0.0
C762 C 0.03053 0.44861 0.45666 0.0
H763 H 0.97863 0.40948 0.36498 0.0
H764 H 0.98617 0.42859 0.40753 0.0
H765 H 0.98161 0.43249 0.33683 0.0
H766 H 1.00029 0.45961 0.35469 0.0
H767 H 0.99448 0.4867 0.41332 0.0
H768 H 0.85743 0.95224 0.00761 0.0
H769 H 0.88493 0.95651 0.94963 0.0
H770 H 0.85756 1.00324 0.87111 0.0
H771 H 0.82987 0.99894 0.92854 0.0
H772 H 0.88559 0.95373 0.83757 0.0
H773 H 0.91005 0.02441 0.90339 0.0
H774 H 0.89364 0.01059 0.94236 0.0
H775 H 0.88567 0.02341 0.88415 0.0
C776 C 0.85725 0.96352 0.97827 0.0
C777 C 0.8413 0.97521 0.97289 0.0
C778 C 0.87305 0.96597 0.94515 0.0
C779 C 0.87345 0.98027 0.90607 0.0
C780 C 0.8578 0.99232 0.90154 0.0
H781 H 0.94772 0.98055 0.6227 0.0
H782 H 0.92136 0.97647 0.68464 0.0
C783 C 0.84194 0.98986 0.93463 0.0
C784 C 0.88977 0.98182 0.86827 0.0
H785 H 0.9245 0.01154 0.82526 0.0
C786 C 0.89417 0.96635 0.83507 0.0
C787 C 0.90105 0.99822 0.86502 0.0
C788 C 0.89753 0.01507 0.90091 0.0
C789 C 0.90935 0.96683 0.79853 0.0
C790 C 0.9205 0.98337 0.79442 0.0
C791 C 0.91611 0.99881 0.82807 0.0
C792 C 0.93677 0.98513 0.7561 0.0
C793 C 0.91319 0.94938 0.76545 0.0
C794 C 0.95436 0.99157 0.77471 0.0
C795 C 0.96925 0.99473 0.7387 0.0
C796 C 0.967 0.99155 0.6829 0.0
C797 C 0.94976 0.98403 0.66481 0.0
C798 C 0.93472 0.98128 0.70062 0.0
H799 H 0.90938 0.93646 0.78817 0.0
H800 H 0.90436 0.94974 0.72845 0.0
H801 H 0.92812 0.94833 0.75321 0.0
H802 H 0.95653 0.99446 0.81724 0.0
H803 H 0.9824 1.00002 0.75473 0.0
H804 H 0.52827 0.84409 0.97066 0.0
H805 H 0.52383 0.87237 0.91572 0.0
H806 H 0.5731 0.89739 0.98836 0.0
H807 H 0.57787 0.86892 0.04242 0.0
H808 H 0.51777 0.90868 0.93693 0.0
H809 H 0.58662 0.90229 0.83223 0.0
H810 H 0.57747 0.88389 0.87487 0.0
H811 H 0.58853 0.90433 0.90421 0.0
C812 C 0.53802 0.85571 0.97548 0.0
C813 C 0.55349 0.85417 0.0107 0.0
C814 C 0.53553 0.87187 0.94378 0.0
C815 C 0.5484 0.88691 0.94666 0.0
C816 C 0.56332 0.88579 0.98388 0.0
H817 H 0.54479 0.99264 0.75503 0.0
H818 H 0.55201 0.97018 0.82802 0.0
C819 C 0.56594 0.86955 0.01514 0.0
C820 C 0.54618 0.90355 0.91025 0.0
H821 H 0.56799 0.92877 0.81044 0.0
C822 C 0.52882 0.91309 0.90956 0.0
C823 C 0.56059 0.90944 0.87433 0.0
C824 C 0.57929 0.89937 0.87093 0.0
C825 C 0.52538 0.92801 0.87357 0.0
C826 C 0.53961 0.93359 0.83715 0.0
C827 C 0.55716 0.92454 0.83879 0.0
C828 C 0.53576 0.94736 0.79336 0.0
C829 C 0.50638 0.93753 0.8739 0.0
C830 C 0.52435 0.94197 0.74981 0.0
C831 C 0.52043 0.95462 0.7082 0.0
C832 C 0.52788 0.97295 0.70869 0.0
C833 C 0.53906 0.97851 0.75298 0.0
C834 C 0.54321 0.96571 0.79462 0.0
H835 H 0.49833 0.93434 0.91121 0.0
H836 H 0.50797 0.95304 0.87027 0.0
H837 H 0.49806 0.93252 0.8387 0.0
H838 H 0.51833 0.92795 0.74821 0.0
H839 H 0.51097 0.95017 0.67678 0.0
H840 H 0.66419 0.51801 1.00627 0.0
H841 H 0.63407 0.51447 0.95868 0.0
H842 H 0.64819 0.5613 0.85591 0.0
H843 H 0.67783 0.5654 0.90441 0.0
H844 H 0.6117 0.56301 0.88744 0.0
H845 H 0.62756 0.49131 0.81013 0.0
H846 H 0.62873 0.49318 0.88234 0.0
H847 H 0.64522 0.50601 0.84141 0.0
C848 C 0.66082 0.52768 0.97392 0.0
C849 C 0.67367 0.54182 0.95884 0.0
C850 C 0.64366 0.52549 0.94624 0.0
C851 C 0.63898 0.53734 0.90272 0.0
C852 C 0.65149 0.55183 0.88885 0.0
H853 H 0.54595 0.5445 0.66843 0.0
H854 H 0.57437 0.55082 0.72231 0.0
C855 C 0.66857 0.55405 0.91646 0.0
C856 C 0.62116 0.5347 0.87131 0.0
H857 H 0.59678 0.50286 0.79442 0.0
C858 C 0.60845 0.54986 0.86703 0.0
C859 C 0.61693 0.51762 0.84412 0.0
C860 C 0.63039 0.50115 0.84416 0.0
C861 C 0.59153 0.54826 0.83754 0.0
C862 C 0.58724 0.5311 0.81086 0.0
C863 C 0.59998 0.516 0.81494 0.0
C864 C 0.5695 0.52823 0.77933 0.0
C865 C 0.57828 0.56488 0.83611 0.0
C866 C 0.55728 0.51343 0.79301 0.0
C867 C 0.5412 0.50976 0.76203 0.0
C868 C 0.5372 0.52045 0.71579 0.0
C869 C 0.54903 0.53567 0.70289 0.0
C870 C 0.56512 0.53945 0.7342 0.0
H871 H 0.58079 0.57466 0.87049 0.0
H872 H 0.58064 0.57284 0.79826 0.0
H873 H 0.56334 0.56027 0.83701 0.0
H874 H 0.56025 0.50463 0.82766 0.0
H875 H 0.53204 0.49823 0.77354 0.0
H876 H 0.00724 0.67896 0.94705 0.0
H877 H 0.01191 0.65073 0.8913 0.0
H878 H 0.95524 0.63279 0.92608 0.0
H879 H 0.9507 0.66053 0.98325 0.0
H880 H 0.97916 0.60351 0.93087 0.0
H881 H 0.99138 0.6423 0.74031 0.0
H882 H 0.00736 0.64894 0.79326 0.0
H883 H 0.98259 0.65368 0.80051 0.0
C884 C 0.99584 0.6689 0.94346 0.0
C885 C 0.97852 0.67223 0.96944 0.0
C886 C 0.99844 0.65286 0.91082 0.0
C887 C 0.98377 0.63977 0.90316 0.0
C888 C 0.96672 0.64272 0.93061 0.0
H889 H 0.98044 0.54968 0.6555 0.0
H890 H 0.97364 0.57825 0.709 0.0
C891 C 0.96412 0.65871 0.96318 0.0
C892 C 0.98615 0.6229 0.86722 0.0
H893 H 0.99732 0.60929 0.73838 0.0
C894 C 0.98312 0.60483 0.88878 0.0
C895 C 0.99085 0.62447 0.81175 0.0
C896 C 0.99304 0.64339 0.78484 0.0
C897 C 0.98532 0.58843 0.85719 0.0
C898 C 0.991 0.58999 0.80258 0.0
C899 C 0.99332 0.60803 0.78039 0.0
C900 C 0.9953 0.57304 0.76876 0.0
C901 C 0.98137 0.56952 0.8825 0.0
C902 C 0.00994 0.5608 0.78372 0.0
C903 C 0.014 0.54476 0.75281 0.0
C904 C 1.00374 0.5407 0.70566 0.0
C905 C 0.98897 0.55281 0.69071 0.0
C906 C 0.98498 0.56902 0.72153 0.0
H907 H 0.97214 0.57089 0.91847 0.0
H908 H 0.97457 0.5598 0.85316 0.0
H909 H 0.99486 0.56309 0.8957 0.0
H910 H 0.01828 0.56367 0.81946 0.0
H911 H 0.02527 0.53549 0.76572 0.0
H912 H 0.12884 0.18263 0.18811 0.0
H913 H 0.12656 0.15339 0.24003 0.0
H914 H 0.09089 0.18135 0.3559 0.0
H915 H 0.09262 0.21027 0.3042 0.0
H916 H 0.11548 0.1499 0.39836 0.0
H917 H 0.07161 0.13248 0.21757 0.0
H918 H 0.09594 0.13872 0.20833 0.0
H919 H 0.07939 0.15627 0.23026 0.0
C920 C 0.12097 0.18271 0.22552 0.0
C921 C 0.11048 0.1987 0.24106 0.0
C922 C 0.11979 0.16601 0.25528 0.0
C923 C 0.10826 0.16517 0.30112 0.0
C924 C 0.09987 0.18173 0.32056 0.0
H925 H 0.03109 0.11609 0.4961 0.0
H926 H 0.06003 0.12974 0.46162 0.0
C927 C 0.10093 0.19835 0.29081 0.0
C928 C 0.1013 0.14694 0.3219 0.0
H929 H 0.06615 0.11556 0.29587 0.0
C930 C 0.10507 0.14198 0.37562 0.0
C931 C 0.08792 0.13647 0.29188 0.0
C932 C 0.08334 0.14117 0.23386 0.0
C933 C 0.09475 0.1277 0.40133 0.0
C934 C 0.07985 0.11875 0.37308 0.0
C935 C 0.07742 0.12249 0.31787 0.0
C936 C 0.06469 0.10813 0.40098 0.0
C937 C 0.09954 0.12284 0.45897 0.0
C938 C 0.05748 0.09138 0.37863 0.0
C939 C 0.04058 0.08379 0.39751 0.0
C940 C 0.03047 0.09292 0.4388 0.0
C941 C 0.03836 0.10893 0.46355 0.0
C942 C 0.05518 0.11655 0.44452 0.0
H943 H 0.11501 0.12343 0.46539 0.0
H944 H 0.09307 0.13341 0.48637 0.0
H945 H 0.09444 0.10859 0.4702 0.0
H946 H 0.06447 0.08466 0.3448 0.0
H947 H 0.03488 0.07147 0.3774 0.0
H948 H 0.30969 0.09501 0.31566 0.0
H949 H 0.33494 0.09156 0.38062 0.0
H950 H 0.37288 0.12075 0.27387 0.0
H951 H 0.34735 0.12465 0.20833 0.0
H952 H 0.38328 0.08484 0.29192 0.0
H953 H 0.36853 0.11782 0.48893 0.0
H954 H 0.3479 0.10605 0.46427 0.0
H955 H 0.35742 0.12571 0.42723 0.0
C956 C 0.32308 0.1016 0.30682 0.0
C957 C 0.32652 0.10984 0.25619 0.0
C958 C 0.33759 0.09965 0.34439 0.0
C959 C 0.35583 0.10594 0.33229 0.0
C960 C 0.35889 0.11584 0.2841 0.0
H961 H 0.44373 0.04364 0.51464 0.0
H962 H 0.42893 0.07202 0.47656 0.0
C963 C 0.34432 0.1179 0.24649 0.0
C964 C 0.37189 0.09811 0.36322 0.0
H965 H 0.38482 0.08697 0.4921 0.0
C966 C 0.38412 0.0859 0.33557 0.0
C967 C 0.37303 0.09942 0.42015 0.0
C968 C 0.36111 0.11314 0.4517 0.0
C969 C 0.39593 0.07352 0.36356 0.0
C970 C 0.3956 0.07349 0.42054 0.0
C971 C 0.38487 0.08697 0.4483 0.0
C972 C 0.40369 0.05752 0.45061 0.0
C973 C 0.40736 0.05937 0.33187 0.0
C974 C 0.39405 0.0403 0.4501 0.0
C975 C 0.40233 0.02425 0.47197 0.0
C976 C 0.42047 0.02514 0.49437 0.0
C977 C 0.42982 0.0426 0.49687 0.0
C978 C 0.4214 0.05877 0.47539 0.0
H979 H 0.4108 0.06477 0.29098 0.0
H980 H 0.42064 0.0557 0.35301 0.0
H981 H 0.399 0.04626 0.32696 0.0
H982 H 0.38035 0.03915 0.43099 0.0
H983 H 0.39487 0.01096 0.46916 0.0
H984 H 0.38599 0.35251 0.22099 0.0
H985 H 0.38886 0.38115 0.27608 0.0
H986 H 0.42647 0.35204 0.3843 0.0
H987 H 0.42387 0.32365 0.32982 0.0
H988 H 0.40266 0.38039 0.43586 0.0
H989 H 0.44047 0.4066 0.25324 0.0
H990 H 0.4162 0.39974 0.24713 0.0
H991 H 0.4339 0.38215 0.25917 0.0
C992 C 0.39452 0.3521 0.25726 0.0
C993 C 0.40499 0.33587 0.27036 0.0
C994 C 0.39607 0.36845 0.28876 0.0
C995 C 0.40816 0.36879 0.33362 0.0
C996 C 0.41704 0.35207 0.34985 0.0
H997 H 0.48935 0.41008 0.52111 0.0
H998 H 0.45858 0.39892 0.49238 0.0
C999 C 0.4155 0.33578 0.31855 0.0
C1000 C 0.41455 0.38675 0.35806 0.0
H1001 H 0.44753 0.42059 0.33525 0.0
C1002 C 0.41205 0.3896 0.4137 0.0
C1003 C 0.42649 0.39901 0.3289 0.0
C1004 C 0.42956 0.39682 0.26885 0.0
C1005 C 0.42257 0.40325 0.44178 0.0
C1006 C 0.43636 0.41376 0.4137 0.0
C1007 C 0.43718 0.4124 0.35715 0.0
C1008 C 0.45241 0.42306 0.4417 0.0
C1009 C 0.41934 0.40564 0.50156 0.0
C1010 C 0.45935 0.44048 0.42352 0.0
C1011 C 0.47732 0.4466 0.43878 0.0
C1012 C 0.4886 0.43541 0.47255 0.0
C1013 C 0.48102 0.41885 0.49444 0.0
C1014 C 0.4632 0.41264 0.47878 0.0
H1015 H 0.4041 0.40441 0.51099 0.0
H1016 H 0.42668 0.39418 0.52363 0.0
H1017 H 0.42453 0.41946 0.51655 0.0
H1018 H 0.4514 0.44872 0.39464 0.0
H1019 H 0.48286 0.45939 0.4211 0.0
H1020 H 0.20683 0.43781 0.30072 0.0
H1021 H 0.17642 0.44074 0.34388 0.0
H1022 H 0.15774 0.38959 0.26569 0.0
H1023 H 0.18836 0.38687 0.22079 0.0
H1024 H 0.13486 0.4159 0.24253 0.0
H1025 H 0.14471 0.42121 0.46111 0.0
H1026 H 0.1615 0.43676 0.43119 0.0
H1027 H 0.16289 0.41172 0.41793 0.0
C1028 C 0.1966 0.42669 0.29447 0.0
C1029 C 0.19998 0.41215 0.25712 0.0
C1030 C 0.17913 0.42834 0.31954 0.0
C1031 C 0.16473 0.41529 0.30867 0.0
C1032 C 0.16861 0.39982 0.27487 0.0
H1033 H 0.06341 0.47066 0.43378 0.0
H1034 H 0.08489 0.4441 0.41994 0.0
C1035 C 0.18609 0.39828 0.2492 0.0
C1036 C 0.14507 0.42009 0.32389 0.0
H1037 H 0.12089 0.44339 0.42231 0.0
C1038 C 0.1316 0.42133 0.28243 0.0
C1039 C 0.14036 0.42668 0.37613 0.0
C1040 C 0.15314 0.42377 0.42409 0.0
C1041 C 0.1146 0.43099 0.29015 0.0
C1042 C 0.11128 0.44016 0.34004 0.0
C1043 C 0.12364 0.43692 0.38338 0.0
C1044 C 0.09673 0.45504 0.34588 0.0
C1045 C 0.10085 0.43198 0.24373 0.0
C1046 C 0.09628 0.4701 0.30915 0.0
C1047 C 0.0839 0.48514 0.31667 0.0
C1048 C 0.07196 0.48567 0.36175 0.0
C1049 C 0.0724 0.4706 0.39857 0.0
C1050 C 0.08466 0.45542 0.39069 0.0
H1051 H 0.10054 0.41838 0.22141 0.0
H1052 H 0.08636 0.43537 0.25741 0.0
H1053 H 0.10554 0.44298 0.21492 0.0
H1054 H 0.10597 0.47057 0.27547 0.0
H1055 H 0.08423 0.49671 0.28828 0.0
H1056 H 0.92225 0.81148 0.86887 0.0
H1057 H 0.92366 0.83953 0.81324 0.0
H1058 H 0.89433 0.87119 0.93576 0.0
H1059 H 0.89228 0.84286 0.9917 0.0
H1060 H 0.89895 0.87343 0.77693 0.0
H1061 H 0.95259 0.88622 0.93812 0.0
H1062 H 0.94239 0.86321 0.92811 0.0
H1063 H 0.92857 0.8818 0.95723 0.0
C1064 C 0.91517 0.82406 0.88313 0.0
C1065 C 0.90759 0.825 0.93555 0.0
C1066 C 0.91602 0.84016 0.85106 0.0
C1067 C 0.9094 0.85744 0.87089 0.0
C1068 C 0.89963 0.85795 0.92003 0.0
H1069 H 0.98341 0.94788 0.7756 0.0
H1070 H 0.95535 0.93484 0.8169 0.0
C1071 C 0.89865 0.84179 0.95211 0.0
C1072 C 0.91694 0.87489 0.84685 0.0
H1073 H 0.95509 0.90355 0.85943 0.0
C1074 C 0.91093 0.88044 0.79533 0.0
C1075 C 0.93244 0.88407 0.87126 0.0
C1076 C 0.93952 0.87859 0.92664 0.0
C1077 C 0.92075 0.89431 0.76627 0.0
C1078 C 0.93737 0.90219 0.78869 0.0
C1079 C 0.94243 0.89757 0.84188 0.0
C1080 C 0.95121 0.91311 0.75639 0.0
C1081 C 0.91335 0.89998 0.71158 0.0
C1082 C 0.95788 0.90586 0.70716 0.0
C1083 C 0.9737 0.91367 0.68246 0.0
C1084 C 0.98361 0.92851 0.70733 0.0
C1085 C 0.97622 0.93651 0.75488 0.0
C1086 C 0.96019 0.92893 0.77898 0.0
H1087 H 0.8977 0.90034 0.7118 0.0
H1088 H 0.91863 0.91401 0.69894 0.0
H1089 H 0.91768 0.8893 0.68119 0.0
H1090 H 0.95163 0.8934 0.68932 0.0
H1091 H 0.97864 0.90746 0.64508 0.0
H1092 H 0.70918 0.94146 0.79607 0.0
H1093 H 0.68392 0.94317 0.73004 0.0
H1094 H 0.65837 0.89351 0.79825 0.0
H1095 H 0.68357 0.89202 0.86604 0.0
H1096 H 0.66482 0.9221 0.65251 0.0
H1097 H 0.62024 0.93347 0.83561 0.0
H1098 H 0.64549 0.93191 0.84092 0.0
H1099 H 0.63174 0.91112 0.82766 0.0
C1100 C 0.69858 0.93048 0.79601 0.0
C1101 C 0.69818 0.9168 0.83689 0.0
C1102 C 0.6841 0.93147 0.75808 0.0
C1103 C 0.66898 0.91877 0.76007 0.0
C1104 C 0.66964 0.90376 0.79689 0.0
H1105 H 0.57037 0.98173 0.68645 0.0
H1106 H 0.58535 0.95095 0.6831 0.0
C1107 C 0.68405 0.9029 0.83549 0.0
C1108 C 0.65147 0.92366 0.73051 0.0
H1109 H 0.60963 0.94549 0.75497 0.0
C1110 C 0.65245 0.92673 0.67454 0.0
C1111 C 0.6351 0.92933 0.75895 0.0
C1112 C 0.63297 0.9264 0.81907 0.0
C1113 C 0.6385 0.93713 0.64751 0.0
C1114 C 0.62347 0.94496 0.67755 0.0
C1115 C 0.62127 0.93975 0.73186 0.0
C1116 C 0.61259 0.9616 0.65863 0.0
C1117 C 0.64056 0.94043 0.5877 0.0
C1118 C 0.62241 0.97775 0.64184 0.0
C1119 C 0.61373 0.99539 0.64288 0.0
C1120 C 0.59522 0.99732 0.6622 0.0
C1121 C 0.58472 0.9809 0.67242 0.0
C1122 C 0.59331 0.96318 0.6704 0.0
H1123 H 0.6458 0.92747 0.56741 0.0
H1124 H 0.62704 0.94469 0.56869 0.0
H1125 H 0.65117 0.95165 0.58084 0.0
H1126 H 0.63732 0.97713 0.63309 0.0
H1127 H 0.62201 0.00766 0.63245 0.0
H1128 H 0.57602 0.71482 0.83468 0.0
H1129 H 0.57295 0.68909 0.77012 0.0
H1130 H 0.62211 0.66225 0.83773 0.0
H1131 H 0.62498 0.68792 0.90389 0.0
H1132 H 0.59348 0.66927 0.69237 0.0
H1133 H 0.58082 0.62555 0.87599 0.0
H1134 H 0.58302 0.65079 0.88033 0.0
H1135 H 0.6035 0.6364 0.86901 0.0
C1136 C 0.58657 0.70378 0.83482 0.0
C1137 C 0.60057 0.70324 0.87494 0.0
C1138 C 0.5848 0.68904 0.79777 0.0
C1139 C 0.59704 0.67352 0.79988 0.0
C1140 C 0.61224 0.67387 0.83623 0.0
H1141 H 0.53543 0.57347 0.72225 0.0
H1142 H 0.56594 0.58939 0.72193 0.0
C1143 C 0.61388 0.68854 0.87393 0.0
C1144 C 0.59167 0.65608 0.77048 0.0
H1145 H 0.57001 0.61413 0.7945 0.0
C1146 C 0.58879 0.65694 0.71437 0.0
C1147 C 0.58584 0.63982 0.79899 0.0
C1148 C 0.58832 0.63798 0.85938 0.0
C1149 C 0.57866 0.64283 0.68701 0.0
C1150 C 0.57094 0.62771 0.71681 0.0
C1151 C 0.57576 0.62577 0.77155 0.0
C1152 C 0.55476 0.61637 0.6968 0.0
C1153 C 0.57555 0.64478 0.62703 0.0
C1154 C 0.53851 0.6258 0.67884 0.0
C1155 C 0.52119 0.61659 0.67776 0.0
C1156 C 0.51967 0.59791 0.69579 0.0
C1157 C 0.53617 0.58787 0.70816 0.0
C1158 C 0.55362 0.597 0.70825 0.0
H1159 H 0.58845 0.65029 0.60727 0.0
H1160 H 0.57165 0.63116 0.60783 0.0
H1161 H 0.56414 0.65516 0.61966 0.0
H1162 H 0.53877 0.64077 0.67058 0.0
H1163 H 0.50875 0.62453 0.66659 0.0
H1164 H 0.84389 0.62691 0.96496 0.0
H1165 H 0.87273 0.62764 0.9109 0.0
H1166 H 0.84713 0.59 0.79505 0.0
H1167 H 0.81863 0.58916 0.8483 0.0
H1168 H 0.89217 0.59676 0.9023 0.0
H1169 H 0.87912 0.62 0.69521 0.0
H1170 H 0.86346 0.62622 0.74995 0.0
H1171 H 0.86042 0.60437 0.7133 0.0
C1172 C 0.84425 0.61926 0.92708 0.0
C1173 C 0.82901 0.60778 0.91137 0.0
C1174 C 0.86069 0.61982 0.89601 0.0
C1175 C 0.86213 0.60902 0.84855 0.0
C1176 C 0.8463 0.59892 0.83053 0.0
H1177 H 0.90531 0.52268 0.7097 0.0
H1178 H 0.89304 0.55412 0.72729 0.0
C1179 C 0.82992 0.59837 0.86142 0.0
C1180 C 0.8808 0.6045 0.82483 0.0
H1181 H 0.89948 0.59117 0.70395 0.0
C1182 C 0.89424 0.5962 0.85894 0.0
C1183 C 0.88378 0.60414 0.76842 0.0
C1184 C 0.87096 0.6144 0.72986 0.0
C1185 C 0.90879 0.58497 0.8381 0.0
C1186 C 0.91 0.58224 0.78148 0.0
C1187 C 0.89831 0.5929 0.74736 0.0
C1188 C 0.91929 0.56524 0.75881 0.0
C1189 C 0.92126 0.57443 0.87723 0.0
C1190 C 0.93841 0.56123 0.7679 0.0
C1191 C 0.94536 0.543 0.75883 0.0
C1192 C 0.93331 0.52873 0.73979 0.0
C1193 C 0.91477 0.53335 0.72543 0.0
C1194 C 0.90782 0.5514 0.73496 0.0
H1195 H 0.91733 0.57706 0.91999 0.0
H1196 H 0.92046 0.55902 0.86953 0.0
H1197 H 0.93609 0.57895 0.87186 0.0
H1198 H 0.94763 0.57182 0.78511 0.0
H1199 H 0.95974 0.53975 0.77014 0.0
H1200 H 0.03917 0.17336 0.94603 0.0
H1201 H 0.03565 0.14552 0.88898 0.0
H1202 H 0.00579 0.17863 0.77075 0.0
H1203 H 0.00976 0.20682 0.82757 0.0
H1204 H 0.0054 0.12773 0.85997 0.0
H1205 H 0.0412 0.15085 0.67313 0.0
H1206 H 0.04272 0.16398 0.73551 0.0
H1207 H 0.02229 0.16617 0.69284 0.0
C1208 C 0.03185 0.17477 0.90786 0.0
C1209 C 0.02461 0.19236 0.89167 0.0
C1210 C 0.02991 0.1588 0.87503 0.0
C1211 C 0.02062 0.15983 0.82497 0.0
C1212 C 0.01343 0.17741 0.80841 0.0
H1213 H 0.97344 0.05818 0.67666 0.0
H1214 H 0.97897 0.08756 0.72549 0.0
C1215 C 0.01559 0.19354 0.84114 0.0
C1216 C 0.01766 0.1422 0.79236 0.0
H1217 H 0.02404 0.12207 0.6678 0.0
C1218 C 0.00959 0.12652 0.81799 0.0
C1219 C 0.02328 0.14036 0.73767 0.0
C1220 C 0.03303 0.15616 0.70826 0.0
C1221 C 0.00692 0.10925 0.79097 0.0
C1222 C 0.01187 0.10754 0.7356 0.0
C1223 C 0.0201 0.1232 0.70998 0.0
C1224 C 0.00841 0.08981 0.70365 0.0
C1225 C 0.99923 0.09297 0.82313 0.0
C1226 C 0.0227 0.08158 0.67181 0.0
C1227 C 0.01933 0.06492 0.64228 0.0
C1228 C 1.00174 0.05587 0.64502 0.0
C1229 C 0.98734 0.06444 0.67524 0.0
C1230 C 0.99056 0.08122 0.70368 0.0
H1231 H 1.00288 0.0943 0.86662 0.0
H1232 H 0.98364 0.09286 0.81996 0.0
H1233 H 1.00472 0.07934 0.80822 0.0
H1234 H 0.03653 0.08797 0.67004 0.0
H1235 H 0.03046 0.05914 0.61742 0.0
H1236 H 0.31707 0.05323 0.79239 0.0
H1237 H 0.34528 0.04591 0.73978 0.0
H1238 H 0.36153 1.00442 0.85779 0.0
H1239 H 0.33345 0.01178 0.91096 0.0
H1240 H 0.38166 0.05063 0.77479 0.0
H1241 H 0.37035 0.97613 0.71637 0.0
H1242 H 0.35156 0.99104 0.74077 0.0
H1243 H 0.36771 0.9803 0.78749 0.0
C1244 C 0.32653 0.0424 0.807 0.0
C1245 C 0.32292 0.03316 0.85622 0.0
C1246 C 0.34266 0.03819 0.77669 0.0
C1247 C 0.35554 0.0245 0.79441 0.0
C1248 C 0.35166 0.01476 0.84251 0.0
H1249 H 0.46532 0.98195 0.70707 0.0
H1250 H 0.43432 0.98909 0.74486 0.0
C1251 C 0.33553 0.01898 0.87294 0.0
C1252 C 0.37372 0.02157 0.76515 0.0
H1253 H 0.40146 0.98807 0.70562 0.0
C1254 C 0.38596 0.03697 0.7593 0.0
C1255 C 0.37933 1.00381 0.74463 0.0
C1256 C 0.36649 0.9869 0.74708 0.0
C1257 C 0.40393 0.03497 0.73593 0.0
C1258 C 0.40985 0.01705 0.71662 0.0
C1259 C 0.39725 1.00178 0.7209 0.0
C1260 C 0.42922 0.01347 0.69432 0.0
C1261 C 0.41653 0.05204 0.73449 0.0
C1262 C 0.43703 0.02472 0.6532 0.0
C1263 C 0.45516 0.02102 0.63304 0.0
C1264 C 0.46566 0.00565 0.65244 0.0
C1265 C 0.45768 0.9941 0.69219 0.0
C1266 C 0.43985 0.99812 0.71345 0.0
H1267 H 0.41253 0.0626 0.76565 0.0
H1268 H 0.43138 0.04804 0.74107 0.0
H1269 H 0.4153 0.05891 0.69445 0.0
H1270 H 0.429 0.03615 0.63573 0.0
H1271 H 0.46061 0.02972 0.60087 0.0
H1272 H 0.45222 0.31592 0.81041 0.0
H1273 H 0.46024 0.34323 0.75501 0.0
H1274 H 0.50923 0.35345 0.85359 0.0
H1275 H 0.50102 0.32649 0.91052 0.0
H1276 H 0.46481 0.38161 0.80823 0.0
H1277 H 0.52669 0.35792 0.68812 0.0
H1278 H 0.50939 0.34157 0.71391 0.0
H1279 H 0.52612 0.35217 0.75895 0.0
C1280 C 0.4648 0.32385 0.82023 0.0
C1281 C 0.47584 0.31904 0.86551 0.0
C1282 C 0.46941 0.33941 0.78825 0.0
C1283 C 0.48533 0.35036 0.80011 0.0
C1284 C 0.49698 0.34507 0.84337 0.0
H1285 H 0.53004 0.45602 0.67668 0.0
H1286 H 0.52567 0.42476 0.7165 0.0
C1287 C 0.4923 0.32956 0.87575 0.0
C1288 C 0.48864 0.36829 0.77062 0.0
H1289 H 0.51768 0.38985 0.67979 0.0
C1290 C 0.47631 0.38341 0.77992 0.0
C1291 C 0.50378 0.37065 0.73428 0.0
C1292 C 0.51727 0.35475 0.72271 0.0
C1293 C 0.47883 0.40092 0.7545 0.0
C1294 C 0.49377 0.40324 0.71717 0.0
C1295 C 0.50615 0.38808 0.70798 0.0
C1296 C 0.49696 0.42147 0.68855 0.0
C1297 C 0.46584 0.41695 0.76955 0.0
C1298 C 0.48255 0.42981 0.65779 0.0
C1299 C 0.48493 0.44778 0.63566 0.0
C1300 C 0.50192 0.45766 0.64283 0.0
C1301 C 0.51676 0.44882 0.67061 0.0
C1302 C 0.51427 0.43093 0.69343 0.0
H1303 H 0.45889 0.4145 0.80908 0.0
H1304 H 0.47361 0.4305 0.77172 0.0
H1305 H 0.45462 0.41826 0.73854 0.0
H1306 H 0.46929 0.42258 0.65175 0.0
H1307 H 0.47334 0.45407 0.61359 0.0
H1308 H 0.21072 0.45676 0.80803 0.0
H1309 H 0.18138 0.46296 0.75946 0.0
H1310 H 0.16866 0.50836 0.86938 0.0
H1311 H 0.19768 0.50189 0.91958 0.0
H1312 H 0.14344 0.4626 0.81329 0.0
H1313 H 0.16064 0.53021 0.71143 0.0
H1314 H 0.17863 0.5139 0.73344 0.0
H1315 H 0.1665 0.52824 0.78196 0.0
C1316 C 0.20176 0.46811 0.82207 0.0
C1317 C 0.20667 0.47871 0.86828 0.0
C1318 C 0.18498 0.47167 0.79396 0.0
C1319 C 0.1728 0.48613 0.81066 0.0
C1320 C 0.17792 0.49724 0.85538 0.0
H1321 H 0.06404 0.52735 0.69771 0.0
H1322 H 0.09475 0.52296 0.74054 0.0
C1323 C 0.19464 0.49358 0.88389 0.0
C1324 C 0.15428 0.48883 0.78317 0.0
H1325 H 0.12949 0.51906 0.70258 0.0
C1326 C 0.14039 0.47491 0.78889 0.0
C1327 C 0.15025 0.50496 0.75182 0.0
C1328 C 0.16477 0.5202 0.74377 0.0
C1329 C 0.12248 0.47679 0.76487 0.0
C1330 C 0.1185 0.4928 0.73257 0.0
C1331 C 0.13246 0.50674 0.72699 0.0
C1332 C 0.09989 0.49552 0.7051 0.0
C1333 C 0.10784 0.46189 0.77596 0.0
C1334 C 0.09248 0.48172 0.67006 0.0
C1335 C 0.07483 0.48423 0.64549 0.0
C1336 C 0.06438 0.50079 0.65437 0.0
C1337 C 0.07192 0.5147 0.68867 0.0
C1338 C 0.08946 0.51211 0.71365 0.0
H1339 H 0.11101 0.45403 0.81364 0.0
H1340 H 0.09356 0.46814 0.77958 0.0
H1341 H 0.1077 0.45157 0.7422 0.0
H1342 H 0.10035 0.46899 0.66151 0.0
H1343 H 0.06941 0.47325 0.61926 0.0
H1344 H 0.9879 0.81231 0.36696 0.0
H1345 H 0.99142 0.84142 0.41969 0.0
H1346 H 1.00375 0.87207 0.27404 0.0
H1347 H 0.99986 0.84322 0.22098 0.0
H1348 H 0.02186 0.86616 0.43159 0.0
H1349 H 0.96082 0.90304 0.34046 0.0
H1350 H 0.96457 0.87799 0.33281 0.0
H1351 H 0.97742 0.89439 0.29169 0.0
C1352 C 0.99131 0.82524 0.34604 0.0
C1353 C 0.99354 0.8253 0.28947 0.0
C1354 C 0.99338 0.8419 0.37635 0.0
C1355 C 0.99751 0.85909 0.35089 0.0
C1356 C 1.00021 0.85911 0.29468 0.0
H1357 H 0.04208 0.96349 0.47617 0.0
H1358 H 0.03587 0.93289 0.4338 0.0
C1359 C 0.99823 0.84248 0.26439 0.0
C1360 C 0.99916 0.87696 0.38295 0.0
H1361 H 0.98146 0.92173 0.39443 0.0
C1362 C 0.01295 0.87826 0.42358 0.0
C1363 C 0.98734 0.89273 0.37343 0.0
C1364 C 0.97157 0.89198 0.33262 0.0
C1365 C 0.01571 0.89503 0.45325 0.0
C1366 C 1.00451 0.91107 0.44181 0.0
C1367 C 0.99023 0.90956 0.40277 0.0
C1368 C 0.00806 0.92972 0.46813 0.0
C1369 C 0.03058 0.89546 0.4968 0.0
C1370 C 0.99441 0.93836 0.50113 0.0
C1371 C 0.99797 0.95595 0.52544 0.0
C1372 C 0.01506 0.96542 0.51607 0.0
C1373 C 0.0287 0.95665 0.4835 0.0
C1374 C 0.02519 0.93911 0.45949 0.0
H1375 H 0.03442 0.88104 0.51033 0.0
H1376 H 0.04346 0.90229 0.48077 0.0
H1377 H 0.02572 0.90374 0.5323 0.0
H1378 H 0.9811 0.9314 0.50853 0.0
H1379 H 0.98741 0.96209 0.55163 0.0
H1380 H 0.70497 0.98145 0.34323 0.0
H1381 H 0.67978 0.98808 0.40897 0.0
H1382 H 0.63869 0.98624 0.28074 0.0
H1383 H 0.66353 0.97951 0.21562 0.0
H1384 H 0.6534 0.01604 0.42008 0.0
H1385 H 0.61686 0.94842 0.38504 0.0
H1386 H 0.64033 0.95288 0.36027 0.0
H1387 H 0.62007 0.96101 0.3231 0.0
C1388 C 0.69057 0.98263 0.32912 0.0
C1389 C 0.68625 0.97963 0.27425 0.0
C1390 C 0.67616 0.98632 0.36675 0.0
C1391 C 0.65719 0.9871 0.3502 0.0
C1392 C 0.65307 0.98507 0.29503 0.0
H1393 H 0.55922 0.03968 0.4814 0.0
H1394 H 0.58933 0.03105 0.44048 0.0
C1395 C 0.66735 0.9813 0.2577 0.0
C1396 C 0.64156 0.99014 0.38979 0.0
H1397 H 0.59856 0.97287 0.42715 0.0
C1398 C 0.64152 0.00647 0.42204 0.0
C1399 C 0.62619 0.97745 0.39389 0.0
C1400 C 0.62594 0.95886 0.36417 0.0
C1401 C 0.62608 0.011 0.45542 0.0
C1402 C 0.61001 0.99913 0.45571 0.0
C1403 C 0.61061 0.98222 0.42621 0.0
C1404 C 0.59204 1.00458 0.48308 0.0
C1405 C 0.62714 0.0285 0.49004 0.0
C1406 C 0.58311 0.9924 0.51984 0.0
C1407 C 0.56562 0.99722 0.54261 0.0
C1408 C 0.55663 0.01417 0.52843 0.0
C1409 C 0.56575 0.02645 0.49262 0.0
C1410 C 0.58309 0.02161 0.46966 0.0
H1411 H 0.64197 0.03206 0.50015 0.0
H1412 H 0.62111 0.04056 0.46744 0.0
H1413 H 0.61912 0.02678 0.52819 0.0
H1414 H 0.58964 0.97916 0.53085 0.0
H1415 H 0.55912 0.98769 0.57112 0.0
H1416 H 0.51533 0.70468 0.3004 0.0
H1417 H 0.50605 0.67939 0.36212 0.0
H1418 H 0.56371 0.6736 0.41425 0.0
H1419 H 0.57295 0.69917 0.35412 0.0
H1420 H 0.51817 0.64331 0.35506 0.0
H1421 H 0.53676 0.6709 0.55728 0.0
H1422 H 0.53551 0.68586 0.49851 0.0
H1423 H 0.55622 0.67189 0.51131 0.0
C1424 C 0.52595 0.6984 0.32614 0.0
C1425 C 0.54491 0.70397 0.32203 0.0
C1426 C 0.52064 0.68383 0.3612 0.0
C1427 C 0.53412 0.67462 0.39342 0.0
C1428 C 0.55294 0.68064 0.3908 0.0
H1429 H 0.544 0.57059 0.57025 0.0
H1430 H 0.54778 0.60194 0.53113 0.0
C1431 C 0.55825 0.69516 0.35579 0.0
C1432 C 0.52895 0.65756 0.42542 0.0
H1433 H 0.53219 0.6374 0.55059 0.0
C1434 C 0.52096 0.64215 0.39799 0.0
C1435 C 0.53276 0.6559 0.48143 0.0
C1436 C 0.54062 0.6721 0.51395 0.0
C1437 C 0.51728 0.625 0.42433 0.0
C1438 C 0.5213 0.62325 0.48015 0.0
C1439 C 0.52903 0.63874 0.50789 0.0
C1440 C 0.51842 0.60513 0.50941 0.0
C1441 C 0.5099 0.60863 0.39147 0.0
C1442 C 0.50052 0.59672 0.51233 0.0
C1443 C 0.49833 0.57867 0.53436 0.0
C1444 C 0.51401 0.56868 0.55399 0.0
C1445 C 0.53169 0.57765 0.55419 0.0
C1446 C 0.53387 0.59567 0.53217 0.0
H1447 H 0.51184 0.61086 0.34743 0.0
H1448 H 0.51707 0.59531 0.40295 0.0
H1449 H 0.49461 0.60695 0.39917 0.0
H1450 H 0.4883 0.60394 0.49632 0.0
H1451 H 0.48447 0.57232 0.5343 0.0
H1452 H 0.82974 0.51087 0.25129 0.0
H1453 H 0.85685 0.50483 0.30972 0.0
H1454 H 0.83504 0.54414 0.42711 0.0
H1455 H 0.80795 0.55035 0.36863 0.0
H1456 H 0.87092 0.55162 0.40563 0.0
H1457 H 0.86483 0.47527 0.44636 0.0
H1458 H 0.86453 0.48033 0.37544 0.0
H1459 H 0.84575 0.48882 0.41781 0.0
C1460 C 0.83042 0.51786 0.29017 0.0
C1461 C 0.81659 0.53111 0.30512 0.0
C1462 C 0.84599 0.51438 0.3237 0.0
C1463 C 0.84801 0.52385 0.37335 0.0
C1464 C 0.83388 0.53661 0.38913 0.0
H1465 H 0.94163 0.50111 0.60117 0.0
H1466 H 0.90995 0.50386 0.56121 0.0
C1467 C 0.81838 0.54018 0.35554 0.0
C1468 C 0.86554 0.52174 0.40648 0.0
H1469 H 0.89496 0.48934 0.46469 0.0
C1470 C 0.87602 0.53799 0.41897 0.0
C1471 C 0.87221 0.50403 0.42479 0.0
C1472 C 0.86114 0.48615 0.41592 0.0
C1473 C 0.89318 0.53698 0.44728 0.0
C1474 C 0.90039 0.51918 0.46285 0.0
C1475 C 0.88959 0.50297 0.4523 0.0
C1476 C 0.91949 0.51714 0.48756 0.0
C1477 C 0.90345 0.55505 0.46029 0.0
C1478 C 0.93544 0.52326 0.4592 0.0
C1479 C 0.95341 0.52175 0.48194 0.0
C1480 C 0.95598 0.51407 0.53365 0.0
C1481 C 0.9401 0.50734 0.56151 0.0
C1482 C 0.922 0.50889 0.5387 0.0
H1483 H 0.89371 0.56732 0.4608 0.0
H1484 H 0.91066 0.5542 0.50004 0.0
H1485 H 0.91425 0.55768 0.42884 0.0
H1486 H 0.93403 0.52907 0.41899 0.0
H1487 H 0.96534 0.5261 0.45817 0.0
loop_
_geom_bond_atom_site_label_1
_geom_bond_atom_site_label_2
_geom_bond_distance
_geom_bond_site_symmetry_2
_ccdc_geom_bond_type
C0 C1 1.384 . S
C0 H13 0.947 . S
C0 C35 1.382 . S
C1 C0 1.384 . S
C1 C2 1.378 . S
C2 C1 1.378 . S
C2 C3 1.378 . S
C2 H14 0.952 . S
C3 C2 1.378 . S
C3 H15 0.950 . S
C3 C34 1.383 . S
H4 C23 0.947 . S
H5 C24 0.946 . S
H6 C26 0.953 . S
H7 C27 0.945 . S
H8 C29 0.952 1_556 S
H9 C30 0.949 . S
H10 C32 0.950 . S
H11 C33 0.948 . S
H12 C35 0.951 . S
H13 C0 0.947 . S
H14 C2 0.952 . S
H15 C3 0.950 . S
N16 C19 1.382 . S
N16 C21 1.363 . S
N17 C19 1.371 . S
N17 C20 1.372 . S
N18 C20 1.361 . S
N18 C21 1.377 . S
C19 N16 1.382 . S
C19 N17 1.371 . S
C19 C22 1.480 . S
C20 N17 1.372 . S
C20 N18 1.361 . S
C20 C28 1.457 . S
C21 N16 1.363 . S
C21 N18 1.377 . S
C21 C34 1.479 . S
C22 C19 1.480 . S
C22 C23 1.383 . S
C22 C27 1.385 . S
C23 H4 0.947 . S
C23 C22 1.383 . S
C23 C24 1.388 . S
C24 H5 0.946 . S
C24 C23 1.388 . S
C24 C25 1.384 . S
C25 C24 1.384 . S
C25 C26 1.377 . S
C26 H6 0.953 . S
C26 C25 1.377 . S
C26 C27 1.369 . S
C27 H7 0.945 . S
C27 C22 1.385 . S
C27 C26 1.369 . S
C28 C20 1.457 . S
C28 C29 1.372 . S
C28 C33 1.364 . S
C29 H8 0.952 1_554 S
C29 C28 1.372 . S
C29 C30 1.389 1_554 S
C30 H9 0.949 . S
C30 C29 1.389 1_556 S
C30 C31 1.387 . S
C31 C30 1.387 . S
C31 C32 1.372 1_556 S
C32 H10 0.950 . S
C32 C31 1.372 1_554 S
C32 C33 1.379 . S
C33 H11 0.948 . S
C33 C28 1.364 . S
C33 C32 1.379 . S
C34 C3 1.383 . S
C34 C21 1.479 . S
C34 C35 1.398 . S
C35 C0 1.382 . S
C35 H12 0.951 . S
C35 C34 1.398 . S
C36 C37 1.384 . S
C36 H49 0.947 . S
C36 C71 1.382 . S
C37 C36 1.384 . S
C37 C38 1.378 . S
C38 C37 1.378 . S
C38 C39 1.378 . S
C38 H50 0.952 . S
C39 C38 1.378 . S
C39 H51 0.950 . S
C39 C70 1.383 . S
H40 C59 0.947 . S
H41 C60 0.946 . S
H42 C62 0.953 . S
H43 C63 0.945 . S
H44 C65 0.952 . S
H45 C66 0.949 . S
H46 C68 0.950 . S
H47 C69 0.948 . S
H48 C71 0.951 . S
H49 C36 0.947 . S
H50 C38 0.952 . S
H51 C39 0.950 . S
N52 C55 1.382 . S
N52 C57 1.363 . S
N53 C55 1.371 . S
N53 C56 1.372 . S
N54 C56 1.361 . S
N54 C57 1.377 . S
C55 N52 1.382 . S
C55 N53 1.371 . S
C55 C58 1.480 . S
C56 N53 1.372 . S
C56 N54 1.361 . S
C56 C64 1.457 . S
C57 N52 1.363 . S
C57 N54 1.377 . S
C57 C70 1.479 . S
C58 C55 1.480 . S
C58 C59 1.383 . S
C58 C63 1.385 . S
C59 H40 0.947 . S
C59 C58 1.383 . S
C59 C60 1.388 . S
C60 H41 0.946 . S
C60 C59 1.388 . S
C60 C61 1.384 . S
C61 C60 1.384 . S
C61 C62 1.377 . S
C62 H42 0.953 . S
C62 C61 1.377 . S
C62 C63 1.369 . S
C63 H43 0.945 . S
C63 C58 1.385 . S
C63 C62 1.369 . S
C64 C56 1.457 . S
C64 C65 1.372 . S
C64 C69 1.364 . S
C65 H44 0.952 . S
C65 C64 1.372 . S
C65 C66 1.389 1_554 S
C66 H45 0.949 . S
C66 C65 1.389 1_556 S
C66 C67 1.387 . S
C67 C66 1.387 . S
C67 C68 1.372 1_556 S
C68 H46 0.950 . S
C68 C67 1.372 1_554 S
C68 C69 1.379 . S
C69 H47 0.948 . S
C69 C64 1.364 . S
C69 C68 1.379 . S
C70 C39 1.383 . S
C70 C57 1.479 . S
C70 C71 1.398 . S
C71 C36 1.382 . S
C71 H48 0.951 . S
C71 C70 1.398 . S
C72 C73 1.384 . S
C72 H85 0.947 . S
C72 C107 1.382 . S
C73 C72 1.384 . S
C73 C74 1.378 . S
C74 C73 1.378 . S
C74 C75 1.378 . S
C74 H86 0.952 . S
C75 C74 1.378 . S
C75 H87 0.950 . S
C75 C106 1.383 . S
H76 C95 0.947 . S
H77 C96 0.946 . S
H78 C98 0.953 . S
H79 C99 0.945 . S
H80 C101 0.952 . S
H81 C102 0.949 . S
H82 C104 0.950 . S
H83 C105 0.948 . S
H84 C107 0.951 . S
H85 C72 0.947 . S
H86 C74 0.952 . S
H87 C75 0.950 . S
N88 C91 1.382 . S
N88 C93 1.363 . S
N89 C91 1.371 . S
N89 C92 1.372 . S
N90 C92 1.361 . S
N90 C93 1.377 . S
C91 N88 1.382 . S
C91 N89 1.371 . S
C91 C94 1.480 . S
C92 N89 1.372 . S
C92 N90 1.361 . S
C92 C100 1.457 . S
C93 N88 1.363 . S
C93 N90 1.377 . S
C93 C106 1.479 . S
C94 C91 1.480 . S
C94 C95 1.383 . S
C94 C99 1.385 . S
C95 H76 0.947 . S
C95 C94 1.383 . S
C95 C96 1.388 . S
C96 H77 0.946 . S
C96 C95 1.388 . S
C96 C97 1.384 . S
C97 C96 1.384 . S
C97 C98 1.377 . S
C98 H78 0.953 . S
C98 C97 1.377 . S
C98 C99 1.369 . S
C99 H79 0.945 . S
C99 C94 1.385 . S
C99 C98 1.369 . S
C100 C92 1.457 . S
C100 C101 1.372 . S
C100 C105 1.364 . S
C101 H80 0.952 . S
C101 C100 1.372 . S
C101 C102 1.389 1_554 S
C102 H81 0.949 . S
C102 C101 1.389 1_556 S
C102 C103 1.387 . S
C103 C102 1.387 . S
C103 C104 1.372 1_556 S
C104 H82 0.950 . S
C104 C103 1.372 1_554 S
C104 C105 1.379 . S
C105 H83 0.948 . S
C105 C100 1.364 . S
C105 C104 1.379 . S
C106 C75 1.383 . S
C106 C93 1.479 . S
C106 C107 1.398 . S
C107 C72 1.382 . S
C107 H84 0.951 . S
C107 C106 1.398 . S
C108 C109 1.384 1_554 S
C108 H121 0.947 . S
C108 C143 1.382 . S
C109 C108 1.384 1_556 S
C109 C110 1.378 . S
C110 C109 1.378 . S
C110 C111 1.378 1_556 S
C110 H122 0.952 . S
C111 C110 1.378 1_554 S
C111 H123 0.950 1_554 S
C111 C142 1.383 . S
H112 C131 0.947 . S
H113 C132 0.946 . S
H114 C134 0.953 . S
H115 C135 0.945 . S
H116 C137 0.952 . S
H117 C138 0.949 . S
H118 C140 0.950 . S
H119 C141 0.948 . S
H120 C143 0.951 . S
H121 C108 0.947 . S
H122 C110 0.952 . S
H123 C111 0.950 1_556 S
N124 C127 1.382 . S
N124 C129 1.363 . S
N125 C127 1.371 . S
N125 C128 1.372 . S
N126 C128 1.361 . S
N126 C129 1.377 . S
C127 N124 1.382 . S
C127 N125 1.371 . S
C127 C130 1.480 . S
C128 N125 1.372 . S
C128 N126 1.361 . S
C128 C136 1.457 . S
C129 N124 1.363 . S
C129 N126 1.377 . S
C129 C142 1.479 . S
C130 C127 1.480 . S
C130 C131 1.383 . S
C130 C135 1.385 . S
C131 H112 0.947 . S
C131 C130 1.383 . S
C131 C132 1.388 . S
C132 H113 0.946 . S
C132 C131 1.388 . S
C132 C133 1.384 . S
C133 C132 1.384 . S
C133 C134 1.377 . S
C134 H114 0.953 . S
C134 C133 1.377 . S
C134 C135 1.369 . S
C135 H115 0.945 . S
C135 C130 1.385 . S
C135 C134 1.369 . S
C136 C128 1.457 . S
C136 C137 1.372 . S
C136 C141 1.364 . S
C137 H116 0.952 . S
C137 C136 1.372 . S
C137 C138 1.389 . S
C138 H117 0.949 . S
C138 C137 1.389 . S
C138 C139 1.387 . S
C139 C138 1.387 . S
C139 C140 1.372 . S
C140 H118 0.950 . S
C140 C139 1.372 . S
C140 C141 1.379 . S
C141 H119 0.948 . S
C141 C136 1.364 . S
C141 C140 1.379 . S
C142 C111 1.383 . S
C142 C129 1.479 . S
C142 C143 1.398 . S
C143 C108 1.382 . S
C143 H120 0.951 . S
C143 C142 1.398 . S
C144 C145 1.384 . S
C144 H157 0.947 . S
C144 C179 1.382 . S
C145 C144 1.384 . S
C145 C146 1.378 . S
C146 C145 1.378 . S
C146 C147 1.378 . S
C146 H158 0.952 . S
C147 C146 1.378 . S
C147 H159 0.950 . S
C147 C178 1.383 . S
H148 C167 0.947 1_556 S
H149 C168 0.946 1_556 S
H150 C170 0.953 . S
H151 C171 0.945 . S
H152 C173 0.952 . S
H153 C174 0.949 . S
H154 C176 0.950 . S
H155 C177 0.948 . S
H156 C179 0.951 . S
H157 C144 0.947 . S
H158 C146 0.952 . S
H159 C147 0.950 . S
N160 C163 1.382 1_556 S
N160 C165 1.363 . S
N161 C163 1.371 . S
N161 C164 1.372 . S
N162 C164 1.361 . S
N162 C165 1.377 1_554 S
C163 N160 1.382 1_554 S
C163 N161 1.371 . S
C163 C166 1.480 . S
C164 N161 1.372 . S
C164 N162 1.361 . S
C164 C172 1.457 . S
C165 N160 1.363 . S
C165 N162 1.377 1_556 S
C165 C178 1.479 . S
C166 C163 1.480 . S
C166 C167 1.383 . S
C166 C171 1.385 . S
C167 H148 0.947 1_554 S
C167 C166 1.383 . S
C167 C168 1.388 . S
C168 H149 0.946 1_554 S
C168 C167 1.388 . S
C168 C169 1.384 . S
C169 C168 1.384 . S
C169 C170 1.377 . S
C170 H150 0.953 . S
C170 C169 1.377 . S
C170 C171 1.369 . S
C171 H151 0.945 . S
C171 C166 1.385 . S
C171 C170 1.369 . S
C172 C164 1.457 . S
C172 C173 1.372 . S
C172 C177 1.364 . S
C173 H152 0.952 . S
C173 C172 1.372 . S
C173 C174 1.389 . S
C174 H153 0.949 . S
C174 C173 1.389 . S
C174 C175 1.387 . S
C175 C174 1.387 . S
C175 C176 1.372 . S
C176 H154 0.950 . S
C176 C175 1.372 . S
C176 C177 1.379 . S
C177 H155 0.948 . S
C177 C172 1.364 . S
C177 C176 1.379 . S
C178 C147 1.383 . S
C178 C165 1.479 . S
C178 C179 1.398 . S
C179 C144 1.382 . S
C179 H156 0.951 . S
C179 C178 1.398 . S
C180 C181 1.384 . S
C180 H193 0.947 . S
C180 C215 1.382 . S
C181 C180 1.384 . S
C181 C182 1.378 . S
C182 C181 1.378 . S
C182 C183 1.378 . S
C182 H194 0.952 . S
C183 C182 1.378 . S
C183 H195 0.950 . S
C183 C214 1.383 . S
H184 C203 0.947 . S
H185 C204 0.946 1_556 S
H186 C206 0.953 . S
H187 C207 0.945 . S
H188 C209 0.952 . S
H189 C210 0.949 . S
H190 C212 0.950 . S
H191 C213 0.948 . S
H192 C215 0.951 . S
H193 C180 0.947 . S
H194 C182 0.952 . S
H195 C183 0.950 . S
N196 C199 1.382 1_556 S
N196 C201 1.363 . S
N197 C199 1.371 . S
N197 C200 1.372 . S
N198 C200 1.367 . S
N198 C201 1.371 1_554 S
C199 N196 1.382 1_554 S
C199 N197 1.371 . S
C199 C202 1.480 . S
C200 N197 1.372 . S
C200 N198 1.367 . S
C200 C208 1.457 . S
C201 N196 1.363 . S
C201 N198 1.371 1_556 S
C201 C214 1.479 . S
C202 C199 1.480 . S
C202 C203 1.383 1_554 S
C202 C207 1.385 . S
C203 H184 0.947 . S
C203 C202 1.383 1_556 S
C203 C204 1.388 1_556 S
C204 H185 0.946 1_554 S
C204 C203 1.388 1_554 S
C204 C205 1.384 . S
C205 C204 1.384 . S
C205 C206 1.377 . S
C206 H186 0.953 . S
C206 C205 1.377 . S
C206 C207 1.369 . S
C207 H187 0.945 . S
C207 C202 1.385 . S
C207 C206 1.369 . S
C208 C200 1.457 . S
C208 C209 1.372 . S
C208 C213 1.364 . S
C209 H188 0.952 . S
C209 C208 1.372 . S
C209 C210 1.389 . S
C210 H189 0.949 . S
C210 C209 1.389 . S
C210 C211 1.387 . S
C211 C210 1.387 . S
C211 C212 1.372 . S
C212 H190 0.950 . S
C212 C211 1.372 . S
C212 C213 1.379 . S
C213 H191 0.948 . S
C213 C208 1.364 . S
C213 C212 1.379 . S
C214 C183 1.383 . S
C214 C201 1.479 . S
C214 C215 1.398 . S
C215 C180 1.382 . S
C215 H192 0.951 . S
C215 C214 1.398 . S
C216 C217 1.384 . S
C216 H229 0.947 . S
C216 C251 1.382 . S
C217 C216 1.384 . S
C217 C218 1.378 . S
C218 C217 1.378 . S
C218 C219 1.378 . S
C218 H230 0.952 . S
C219 C218 1.378 . S
C219 H231 0.950 . S
C219 C250 1.383 . S
H220 C239 0.947 . S
H221 C240 0.946 1_556 S
H222 C242 0.953 . S
H223 C243 0.945 . S
H224 C245 0.952 . S
H225 C246 0.949 . S
H226 C248 0.950 . S
H227 C249 0.948 . S
H228 C251 0.951 . S
H229 C216 0.947 . S
H230 C218 0.952 . S
H231 C219 0.950 . S
N232 C235 1.382 1_556 S
N232 C237 1.363 . S
N233 C235 1.371 . S
N233 C236 1.372 . S
N234 C236 1.347 1_556 S
N234 C237 1.387 . S
C235 N232 1.382 1_554 S
C235 N233 1.371 . S
C235 C238 1.480 . S
C236 N233 1.372 . S
C236 N234 1.347 1_554 S
C236 C244 1.457 . S
C237 N232 1.363 . S
C237 N234 1.387 . S
C237 C250 1.479 . S
C238 C235 1.480 . S
C238 C239 1.383 1_554 S
C238 C243 1.385 . S
C239 H220 0.947 . S
C239 C238 1.383 1_556 S
C239 C240 1.388 1_556 S
C240 H221 0.946 1_554 S
C240 C239 1.388 1_554 S
C240 C241 1.384 . S
C241 C240 1.384 . S
C241 C242 1.377 . S
C242 H222 0.953 . S
C242 C241 1.377 . S
C242 C243 1.369 . S
C243 H223 0.945 . S
C243 C238 1.385 . S
C243 C242 1.369 . S
C244 C236 1.457 . S
C244 C245 1.372 . S
C244 C249 1.364 . S
C245 H224 0.952 . S
C245 C244 1.372 . S
C245 C246 1.389 . S
C246 H225 0.949 . S
C246 C245 1.389 . S
C246 C247 1.387 . S
C247 C246 1.387 . S
C247 C248 1.372 . S
C248 H226 0.950 . S
C248 C247 1.372 . S
C248 C249 1.379 . S
C249 H227 0.948 . S
C249 C244 1.364 . S
C249 C248 1.379 . S
C250 C219 1.383 . S
C250 C237 1.479 . S
C250 C251 1.398 . S
C251 C216 1.382 . S
C251 H228 0.951 . S
C251 C250 1.398 . S
C252 C253 1.384 . S
C252 H265 0.947 . S
C252 C287 1.382 . S
C253 C252 1.384 . S
C253 C254 1.378 . S
C254 C253 1.378 . S
C254 C255 1.378 . S
C254 H266 0.952 . S
C255 C254 1.378 . S
C255 H267 0.950 . S
C255 C286 1.383 . S
H256 C275 0.947 . S
H257 C276 0.946 . S
H258 C278 0.953 1_556 S
H259 C279 0.966 . S
H260 C281 0.952 . S
H261 C282 0.949 . S
H262 C284 0.950 . S
H263 C285 0.948 . S
H264 C287 0.951 . S
H265 C252 0.947 . S
H266 C254 0.952 . S
H267 C255 0.950 . S
N268 C271 1.382 . S
N268 C273 1.363 . S
N269 C271 1.371 1_556 S
N269 C272 1.372 . S
N270 C272 1.359 . S
N270 C273 1.379 1_556 S
C271 N268 1.382 . S
C271 N269 1.371 1_554 S
C271 C274 1.480 . S
C272 N269 1.372 . S
C272 N270 1.359 . S
C272 C280 1.457 . S
C273 N268 1.363 . S
C273 N270 1.379 1_554 S
C273 C286 1.479 . S
C274 C271 1.480 . S
C274 C275 1.383 . S
C274 C279 1.369 1_554 S
C275 H256 0.947 . S
C275 C274 1.383 . S
C275 C276 1.388 . S
C276 H257 0.946 . S
C276 C275 1.388 . S
C276 C277 1.384 . S
C277 C276 1.384 . S
C277 C278 1.377 . S
C278 H258 0.953 1_554 S
C278 C277 1.377 . S
C278 C279 1.364 1_554 S
C279 H259 0.966 . S
C279 C274 1.369 1_556 S
C279 C278 1.364 1_556 S
C280 C272 1.457 . S
C280 C281 1.372 . S
C280 C285 1.364 . S
C281 H260 0.952 . S
C281 C280 1.372 . S
C281 C282 1.389 . S
C282 H261 0.949 . S
C282 C281 1.389 . S
C282 C283 1.387 . S
C283 C282 1.387 . S
C283 C284 1.372 . S
C284 H262 0.950 . S
C284 C283 1.372 . S
C284 C285 1.379 . S
C285 H263 0.948 . S
C285 C280 1.364 . S
C285 C284 1.379 . S
C286 C255 1.383 . S
C286 C273 1.479 . S
C286 C287 1.398 . S
C287 C252 1.382 . S
C287 H264 0.951 . S
C287 C286 1.398 . S
Tb288 N319 2.660 1_565 S
Tb288 N326 2.600 . S
Tb288 O332 2.546 . S
Tb288 O333 2.610 1_455 S
Tb288 O335 2.320 1_455 S
Tb288 O336 2.552 . S
Tb288 O337 2.413 . S
Tb288 O339 2.362 1_565 S
Tb288 O340 2.421 . S
Tb288 C352 2.833 . S
C289 C292 1.417 1_545 S
C289 C293 1.414 . S
C289 N296 1.359 . S
C290 C292 1.437 . S
C290 C294 1.432 . S
C290 C302 1.410 . S
C291 C293 1.444 1_565 S
C291 C294 1.317 . S
C291 H314 0.929 . S
C292 C289 1.417 1_565 S
C292 C290 1.437 . S
C292 N300 1.354 1_565 S
C293 C289 1.414 . S
C293 C291 1.444 1_545 S
C293 C298 1.385 . S
C294 C290 1.432 . S
C294 C291 1.317 . S
C294 H306 0.930 . S
C295 C297 1.392 . S
C295 C298 1.370 . S
C295 H307 0.931 . S
N296 C289 1.359 . S
N296 C297 1.327 . S
N296 Tb299 2.600 . S
C297 C295 1.392 . S
C297 N296 1.327 . S
C297 H304 0.930 . S
C298 C293 1.385 . S
C298 C295 1.370 . S
C298 H317 0.930 . S
Tb299 N296 2.600 . S
Tb299 N300 2.660 . S
Tb299 O333 2.362 1_545 S
Tb299 O334 2.421 . S
Tb299 O338 2.546 . S
Tb299 O339 2.610 1_655 S
Tb299 O341 2.320 1_655 S
Tb299 O342 2.552 1_655 S
Tb299 O343 2.413 . S
Tb299 C363 2.833 . S
N300 C292 1.354 1_545 S
N300 Tb299 2.660 . S
N300 C301 1.305 1_645 S
C301 N300 1.305 1_465 S
C301 C303 1.407 . S
C301 H308 0.930 . S
C302 C290 1.410 . S
C302 C303 1.345 1_655 S
C302 H310 0.930 . S
C303 C301 1.407 . S
C303 C302 1.345 1_455 S
C303 H305 0.930 . S
H304 C297 0.930 . S
H305 C303 0.930 . S
H306 C294 0.930 . S
H307 C295 0.931 . S
H308 C301 0.930 . S
H309 C323 0.930 1_655 S
H310 C302 0.930 . S
H311 C329 0.930 . S
H312 C320 0.930 1_655 S
H313 C327 0.931 . S
H314 C291 0.929 . S
H315 C321 0.930 . S
H316 C354 0.930 . S
H317 C298 0.930 . S
H318 C353 0.929 . S
N319 Tb288 2.660 1_545 S
N319 C320 1.305 . S
N319 C324 1.360 . S
C320 H312 0.930 1_455 S
C320 N319 1.305 . S
C320 C323 1.407 . S
C321 H315 0.930 . S
C321 C322 1.410 . S
C321 C323 1.345 . S
C322 C321 1.410 . S
C322 C324 1.417 . S
C322 C354 1.432 . S
C323 H309 0.930 1_455 S
C323 C320 1.407 . S
C323 C321 1.345 . S
C324 N319 1.360 . S
C324 C322 1.417 . S
C324 C328 1.432 . S
H325 C330 0.930 . S
N326 Tb288 2.600 . S
N326 C328 1.359 1_565 S
N326 C329 1.327 . S
C327 H313 0.931 . S
C327 C329 1.392 . S
C327 C330 1.370 . S
C328 C324 1.432 . S
C328 N326 1.359 1_545 S
C328 C331 1.414 . S
C329 H311 0.930 . S
C329 N326 1.327 . S
C329 C327 1.392 . S
C330 H325 0.930 . S
C330 C327 1.370 . S
C330 C331 1.385 1_565 S
C331 C328 1.414 . S
C331 C330 1.385 1_545 S
C331 C353 1.444 . S
O332 Tb288 2.546 . S
O332 C352 1.251 . S
O333 Tb288 2.610 1_655 S
O333 Tb299 2.362 1_565 S
O333 C344 1.283 . S
O334 Tb299 2.421 . S
O334 C351 1.262 . S
O335 Tb288 2.320 1_655 S
O335 C351 1.260 1_565 S
O336 Tb288 2.552 . S
O336 C344 1.243 1_455 S
O337 Tb288 2.413 . S
O337 C352 1.256 . S
O338 Tb299 2.546 . S
O338 C363 1.251 . S
O339 Tb288 2.362 1_545 S
O339 Tb299 2.610 1_455 S
O339 C355 1.283 . S
O340 Tb288 2.421 . S
O340 C362 1.262 1_565 S
O341 Tb299 2.320 1_455 S
O341 C362 1.260 . S
O342 Tb299 2.552 1_455 S
O342 C355 1.243 . S
O343 Tb299 2.413 . S
O343 C363 1.256 . S
C344 O333 1.283 . S
C344 O336 1.243 1_655 S
C345 C347 1.382 . S
C345 C349 1.393 . S
C345 C352 1.500 . S
C346 C347 1.400 . S
C346 C348 1.384 . S
C347 C345 1.382 . S
C347 C346 1.400 . S
C347 H364 0.930 1_455 S
C348 C346 1.384 . S
C348 C350 1.392 . S
C348 H365 0.931 . S
C349 C345 1.393 . S
C349 C350 1.401 . S
C349 H366 0.930 . S
C350 C348 1.392 . S
C350 C349 1.401 . S
C350 H367 0.930 . S
C351 O334 1.262 . S
C351 O335 1.260 1_545 S
C352 Tb288 2.833 . S
C352 O332 1.251 . S
C352 O337 1.256 . S
C352 C345 1.500 . S
C353 H318 0.929 . S
C353 C331 1.444 . S
C353 C354 1.317 . S
C354 H316 0.930 . S
C354 C322 1.432 . S
C354 C353 1.317 . S
C355 O339 1.283 . S
C355 O342 1.243 . S
C356 C357 1.382 . S
C356 C360 1.393 . S
C356 C363 1.500 . S
C357 C356 1.382 . S
C357 C358 1.400 . S
C357 H368 0.930 1_655 S
C358 C357 1.400 . S
C358 C359 1.384 . S
C359 C358 1.384 . S
C359 C361 1.392 . S
C359 H369 0.931 . S
C360 C356 1.393 . S
C360 C361 1.401 . S
C360 H370 0.930 . S
C361 C359 1.392 . S
C361 C360 1.401 . S
C361 H371 0.930 . S
C362 O340 1.262 1_545 S
C362 O341 1.260 . S
C363 Tb299 2.833 . S
C363 O338 1.251 . S
C363 O343 1.256 . S
C363 C356 1.500 . S
H364 C347 0.930 1_655 S
H365 C348 0.931 . S
H366 C349 0.930 . S
H367 C350 0.930 . S
H368 C357 0.930 1_455 S
H369 C359 0.931 . S
H370 C360 0.930 . S
H371 C361 0.930 . S
Tb372 N403 2.660 . S
Tb372 N410 2.600 . S
Tb372 O416 2.546 . S
Tb372 O417 2.610 1_545 S
Tb372 O419 2.320 1_545 S
Tb372 O420 2.552 . S
Tb372 O421 2.413 . S
Tb372 O423 2.362 . S
Tb372 O424 2.421 . S
Tb372 C436 2.833 . S
C373 C376 1.432 . S
C373 C377 1.414 . S
C373 N380 1.359 . S
C374 C376 1.417 . S
C374 C378 1.432 . S
C374 C386 1.410 . S
C375 C377 1.444 . S
C375 C378 1.317 . S
C375 H398 0.929 . S
C376 C373 1.432 . S
C376 C374 1.417 . S
C376 N384 1.360 . S
C377 C373 1.414 . S
C377 C375 1.444 . S
C377 C382 1.385 . S
C378 C374 1.432 . S
C378 C375 1.317 . S
C378 H390 0.930 . S
C379 C381 1.392 . S
C379 C382 1.370 . S
C379 H391 0.931 . S
N380 C373 1.359 . S
N380 C381 1.327 . S
N380 Tb383 2.600 . S
C381 C379 1.392 . S
C381 N380 1.327 . S
C381 H388 0.930 . S
C382 C377 1.385 . S
C382 C379 1.370 . S
C382 H401 0.930 . S
Tb383 N380 2.600 . S
Tb383 N384 2.660 . S
Tb383 O417 2.362 . S
Tb383 O418 2.421 . S
Tb383 O422 2.546 . S
Tb383 O423 2.610 1_565 S
Tb383 O425 2.320 1_565 S
Tb383 O426 2.552 1_565 S
Tb383 O427 2.413 . S
Tb383 C447 2.833 . S
N384 C376 1.360 . S
N384 Tb383 2.660 . S
N384 C385 1.305 1_565 S
C385 N384 1.305 1_545 S
C385 C387 1.407 . S
C385 H392 0.930 . S
C386 C374 1.410 . S
C386 C387 1.345 1_565 S
C386 H394 0.930 . S
C387 C385 1.407 . S
C387 C386 1.345 1_545 S
C387 H389 0.930 . S
H388 C381 0.930 . S
H389 C387 0.930 . S
H390 C378 0.930 . S
H391 C379 0.931 . S
H392 C385 0.930 . S
H393 C407 0.930 1_565 S
H394 C386 0.930 . S
H395 C413 0.930 . S
H396 C404 0.930 1_565 S
H397 C411 0.931 . S
H398 C375 0.929 . S
H399 C405 0.930 . S
H400 C438 0.930 . S
H401 C382 0.930 . S
H402 C437 0.929 . S
N403 Tb372 2.660 . S
N403 C404 1.305 . S
N403 C408 1.360 . S
C404 H396 0.930 1_545 S
C404 N403 1.305 . S
C404 C407 1.407 . S
C405 H399 0.930 . S
C405 C406 1.410 . S
C405 C407 1.345 . S
C406 C405 1.410 . S
C406 C408 1.417 . S
C406 C438 1.432 . S
C407 H393 0.930 1_545 S
C407 C404 1.407 . S
C407 C405 1.345 . S
C408 N403 1.360 . S
C408 C406 1.417 . S
C408 C412 1.432 . S
H409 C414 0.930 . S
N410 Tb372 2.600 . S
N410 C412 1.359 . S
N410 C413 1.327 . S
C411 H397 0.931 . S
C411 C413 1.392 . S
C411 C414 1.370 . S
C412 C408 1.432 . S
C412 N410 1.359 . S
C412 C415 1.414 . S
C413 H395 0.930 . S
C413 N410 1.327 . S
C413 C411 1.392 . S
C414 H409 0.930 . S
C414 C411 1.370 . S
C414 C415 1.385 . S
C415 C412 1.414 . S
C415 C414 1.385 . S
C415 C437 1.444 . S
O416 Tb372 2.546 . S
O416 C436 1.251 . S
O417 Tb372 2.610 1_565 S
O417 Tb383 2.362 . S
O417 C428 1.283 . S
O418 Tb383 2.421 . S
O418 C435 1.262 . S
O419 Tb372 2.320 1_565 S
O419 C435 1.260 . S
O420 Tb372 2.552 . S
O420 C428 1.243 1_545 S
O421 Tb372 2.413 . S
O421 C436 1.256 . S
O422 Tb383 2.546 . S
O422 C447 1.251 . S
O423 Tb372 2.362 . S
O423 Tb383 2.610 1_545 S
O423 C439 1.283 . S
O424 Tb372 2.421 . S
O424 C446 1.262 . S
O425 Tb383 2.320 1_545 S
O425 C446 1.260 . S
O426 Tb383 2.552 1_545 S
O426 C439 1.243 . S
O427 Tb383 2.413 . S
O427 C447 1.256 . S
C428 O417 1.283 . S
C428 O420 1.243 1_565 S
C429 C431 1.382 . S
C429 C433 1.393 . S
C429 C436 1.500 . S
C430 C431 1.400 . S
C430 C432 1.384 . S
C431 C429 1.382 . S
C431 C430 1.400 . S
C431 H448 0.929 . S
C432 C430 1.384 . S
C432 C434 1.392 . S
C432 H449 0.931 . S
C433 C429 1.393 . S
C433 C434 1.401 . S
C433 H450 0.930 . S
C434 C432 1.392 . S
C434 C433 1.401 . S
C434 H451 0.930 . S
C435 O418 1.262 . S
C435 O419 1.260 . S
C436 Tb372 2.833 . S
C436 O416 1.251 . S
C436 O421 1.256 . S
C436 C429 1.500 . S
C437 H402 0.929 . S
C437 C415 1.444 . S
C437 C438 1.317 . S
C438 H400 0.930 . S
C438 C406 1.432 . S
C438 C437 1.317 . S
C439 O423 1.283 . S
C439 O426 1.243 . S
C440 C441 1.433 . S
C440 C444 1.393 . S
C440 C447 1.500 . S
C441 C440 1.433 . S
C441 C442 1.405 . S
C441 H452 0.876 1_565 S
C442 C441 1.405 . S
C442 C443 1.384 . S
C443 C442 1.384 . S
C443 C445 1.392 . S
C443 H453 0.931 . S
C444 C440 1.393 . S
C444 C445 1.401 . S
C444 H454 0.930 . S
C445 C443 1.392 . S
C445 C444 1.401 . S
C445 H455 0.930 . S
C446 O424 1.262 . S
C446 O425 1.260 . S
C447 Tb383 2.833 . S
C447 O422 1.251 . S
C447 O427 1.256 . S
C447 C440 1.500 . S
H448 C431 0.929 . S
H449 C432 0.931 . S
H450 C433 0.930 . S
H451 C434 0.930 . S
H452 C441 0.876 1_545 S
H453 C443 0.931 . S
H454 C444 0.930 . S
H455 C445 0.930 . S
Tb456 N487 2.660 . S
Tb456 N494 2.600 . S
Tb456 O500 2.546 . S
Tb456 O501 2.610 . S
Tb456 O503 2.320 . S
Tb456 O504 2.552 . S
Tb456 O505 2.413 . S
Tb456 O507 2.362 . S
Tb456 O508 2.421 . S
Tb456 C520 2.833 . S
C457 C460 1.432 . S
C457 C461 1.414 . S
C457 N464 1.359 . S
C458 C460 1.417 . S
C458 C462 1.432 . S
C458 C470 1.410 . S
C459 C461 1.444 . S
C459 C462 1.317 . S
C459 H482 0.929 . S
C460 C457 1.432 . S
C460 C458 1.417 . S
C460 N468 1.360 . S
C461 C457 1.414 . S
C461 C459 1.444 . S
C461 C466 1.385 . S
C462 C458 1.432 . S
C462 C459 1.317 . S
C462 H474 0.930 . S
C463 C465 1.392 . S
C463 C466 1.370 . S
C463 H475 0.931 . S
N464 C457 1.359 . S
N464 C465 1.327 . S
N464 Tb467 2.600 . S
C465 C463 1.392 . S
C465 N464 1.327 . S
C465 H472 0.930 . S
C466 C461 1.385 . S
C466 C463 1.370 . S
C466 H485 0.930 . S
Tb467 N464 2.600 . S
Tb467 N468 2.660 . S
Tb467 O501 2.362 . S
Tb467 O502 2.421 . S
Tb467 O506 2.546 . S
Tb467 O507 2.610 . S
Tb467 O509 2.320 . S
Tb467 O510 2.552 . S
Tb467 O511 2.413 . S
Tb467 C531 2.833 . S
N468 C460 1.360 . S
N468 Tb467 2.660 . S
N468 C469 1.305 . S
C469 N468 1.305 . S
C469 C471 1.407 . S
C469 H476 0.930 . S
C470 C458 1.410 . S
C470 C471 1.345 . S
C470 H478 0.930 . S
C471 C469 1.407 . S
C471 C470 1.345 . S
C471 H473 0.930 . S
H472 C465 0.930 . S
H473 C471 0.930 . S
H474 C462 0.930 . S
H475 C463 0.931 . S
H476 C469 0.930 . S
H477 C491 0.930 . S
H478 C470 0.930 . S
H479 C497 0.930 . S
H480 C488 0.930 . S
H481 C495 0.931 . S
H482 C459 0.929 . S
H483 C489 0.930 . S
H484 C522 0.930 . S
H485 C466 0.930 . S
H486 C521 0.929 . S
N487 Tb456 2.660 . S
N487 C488 1.305 . S
N487 C492 1.360 . S
C488 H480 0.930 . S
C488 N487 1.305 . S
C488 C491 1.407 . S
C489 H483 0.930 . S
C489 C490 1.410 . S
C489 C491 1.345 . S
C490 C489 1.410 . S
C490 C492 1.417 . S
C490 C522 1.432 . S
C491 H477 0.930 . S
C491 C488 1.407 . S
C491 C489 1.345 . S
C492 N487 1.360 . S
C492 C490 1.417 . S
C492 C496 1.432 . S
H493 C498 0.930 . S
N494 Tb456 2.600 . S
N494 C496 1.359 . S
N494 C497 1.327 . S
C495 H481 0.931 . S
C495 C497 1.392 . S
C495 C498 1.370 . S
C496 C492 1.432 . S
C496 N494 1.359 . S
C496 C499 1.414 . S
C497 H479 0.930 . S
C497 N494 1.327 . S
C497 C495 1.392 . S
C498 H493 0.930 . S
C498 C495 1.370 . S
C498 C499 1.385 . S
C499 C496 1.414 . S
C499 C498 1.385 . S
C499 C521 1.444 . S
O500 Tb456 2.546 . S
O500 C520 1.251 . S
O501 Tb456 2.610 . S
O501 Tb467 2.362 . S
O501 C512 1.283 . S
O502 Tb467 2.421 . S
O502 C519 1.262 . S
O503 Tb456 2.320 . S
O503 C519 1.260 . S
O504 Tb456 2.552 . S
O504 C512 1.243 . S
O505 Tb456 2.413 . S
O505 C520 1.256 . S
O506 Tb467 2.546 . S
O506 C531 1.251 . S
O507 Tb456 2.362 . S
O507 Tb467 2.610 . S
O507 C523 1.283 . S
O508 Tb456 2.421 . S
O508 C530 1.262 . S
O509 Tb467 2.320 . S
O509 C530 1.260 . S
O510 Tb467 2.552 . S
O510 C523 1.243 . S
O511 Tb467 2.413 . S
O511 C531 1.256 . S
C512 O501 1.283 . S
C512 O504 1.243 . S
C513 C515 1.382 . S
C513 C517 1.393 . S
C513 C520 1.500 . S
C514 C515 1.400 . S
C514 C516 1.384 . S
C515 C513 1.382 . S
C515 C514 1.400 . S
C515 H532 0.930 . S
C516 C514 1.384 . S
C516 C518 1.392 . S
C516 H533 0.931 . S
C517 C513 1.393 . S
C517 C518 1.401 . S
C517 H534 0.930 . S
C518 C516 1.392 . S
C518 C517 1.401 . S
C518 H535 0.930 . S
C519 O502 1.262 . S
C519 O503 1.260 . S
C520 Tb456 2.833 . S
C520 O500 1.251 . S
C520 O505 1.256 . S
C520 C513 1.500 . S
C521 H486 0.929 . S
C521 C499 1.444 . S
C521 C522 1.317 . S
C522 H484 0.930 . S
C522 C490 1.432 . S
C522 C521 1.317 . S
C523 O507 1.283 . S
C523 O510 1.243 . S
C524 C525 1.382 . S
C524 C528 1.393 . S
C524 C531 1.500 . S
C525 C524 1.382 . S
C525 C526 1.400 . S
C525 H536 0.930 . S
C526 C525 1.400 . S
C526 C527 1.384 . S
C527 C526 1.384 . S
C527 C529 1.392 . S
C527 H537 0.931 . S
C528 C524 1.393 . S
C528 C529 1.401 . S
C528 H538 0.930 . S
C529 C527 1.392 . S
C529 C528 1.401 . S
C529 H539 0.930 . S
C530 O508 1.262 . S
C530 O509 1.260 . S
C531 Tb467 2.833 . S
C531 O506 1.251 . S
C531 O511 1.256 . S
C531 C524 1.500 . S
H532 C515 0.930 . S
H533 C516 0.931 . S
H534 C517 0.930 . S
H535 C518 0.930 . S
H536 C525 0.930 . S
H537 C527 0.931 . S
H538 C528 0.930 . S
H539 C529 0.930 . S
Tb540 N571 2.660 . S
Tb540 N578 2.600 . S
Tb540 O584 2.546 . S
Tb540 O585 2.610 . S
Tb540 O587 2.320 . S
Tb540 O588 2.552 . S
Tb540 O589 2.413 . S
Tb540 O591 2.398 . S
Tb540 O592 2.421 1_455 S
Tb540 C604 2.833 . S
C541 C544 1.432 . S
C541 C545 1.414 . S
C541 N548 1.359 . S
C542 C544 1.417 . S
C542 C546 1.432 . S
C542 C554 1.410 . S
C543 C545 1.444 . S
C543 C546 1.317 . S
C543 H566 0.929 . S
C544 C541 1.432 . S
C544 C542 1.417 . S
C544 N552 1.360 . S
C545 C541 1.414 . S
C545 C543 1.444 . S
C545 C550 1.385 . S
C546 C542 1.432 . S
C546 C543 1.317 . S
C546 H558 0.930 . S
C547 C549 1.392 . S
C547 C550 1.370 1_455 S
C547 H559 0.931 . S
N548 C541 1.359 . S
N548 C549 1.327 1_655 S
N548 Tb551 2.600 . S
C549 C547 1.392 . S
C549 N548 1.327 1_455 S
C549 H556 0.930 . S
C550 C545 1.385 . S
C550 C547 1.370 1_655 S
C550 H569 0.930 . S
Tb551 N548 2.600 . S
Tb551 N552 2.660 . S
Tb551 O585 2.362 1_655 S
Tb551 O586 2.421 1_655 S
Tb551 O590 2.546 . S
Tb551 O591 2.587 1_655 S
Tb551 O593 2.320 . S
Tb551 O594 2.552 . S
Tb551 O595 2.413 . S
Tb551 C615 2.833 . S
N552 C544 1.360 . S
N552 Tb551 2.660 . S
N552 C553 1.305 . S
C553 N552 1.305 . S
C553 C555 1.407 . S
C553 H560 0.930 . S
C554 C542 1.410 . S
C554 C555 1.345 . S
C554 H562 0.930 . S
C555 C553 1.407 . S
C555 C554 1.345 . S
C555 H557 0.930 . S
H556 C549 0.930 . S
H557 C555 0.930 . S
H558 C546 0.930 . S
H559 C547 0.931 . S
H560 C553 0.930 . S
H561 C575 0.930 . S
H562 C554 0.930 . S
H563 C581 0.930 1_655 S
H564 C572 0.930 . S
H565 C579 0.931 1_655 S
H566 C543 0.929 . S
H567 C573 0.930 . S
H568 C606 0.930 . S
H569 C550 0.930 . S
H570 C605 0.929 . S
N571 Tb540 2.660 . S
N571 C572 1.305 . S
N571 C576 1.360 . S
C572 H564 0.930 . S
C572 N571 1.305 . S
C572 C575 1.407 . S
C573 H567 0.930 . S
C573 C574 1.410 . S
C573 C575 1.345 . S
C574 C573 1.410 . S
C574 C576 1.417 . S
C574 C606 1.432 . S
C575 H561 0.930 . S
C575 C572 1.407 . S
C575 C573 1.345 . S
C576 N571 1.360 . S
C576 C574 1.417 . S
C576 C580 1.432 . S
H577 C582 0.930 . S
N578 Tb540 2.600 . S
N578 C580 1.359 . S
N578 C581 1.327 . S
C579 H565 0.931 1_455 S
C579 C581 1.392 . S
C579 C582 1.370 . S
C580 C576 1.432 . S
C580 N578 1.359 . S
C580 C583 1.414 . S
C581 H563 0.930 1_455 S
C581 N578 1.327 . S
C581 C579 1.392 . S
C582 H577 0.930 . S
C582 C579 1.370 . S
C582 C583 1.385 . S
C583 C580 1.414 . S
C583 C582 1.385 . S
C583 C605 1.444 . S
O584 Tb540 2.546 . S
O584 C604 1.251 . S
O585 Tb540 2.610 . S
O585 Tb551 2.362 1_455 S
O585 C596 1.283 . S
O586 Tb551 2.421 1_455 S
O586 C603 1.262 . S
O587 Tb540 2.320 . S
O587 C603 1.260 . S
O588 Tb540 2.552 . S
O588 C596 1.243 . S
O589 Tb540 2.413 . S
O589 C604 1.256 . S
O590 Tb551 2.546 . S
O590 C615 1.251 . S
O591 Tb540 2.398 . S
O591 Tb551 2.587 1_455 S
O591 C607 1.258 1_455 S
O592 Tb540 2.421 1_655 S
O592 C614 1.262 . S
O593 Tb551 2.320 . S
O593 C614 1.260 . S
O594 Tb551 2.552 . S
O594 C607 1.243 . S
O595 Tb551 2.413 . S
O595 C615 1.256 . S
C596 O585 1.283 . S
C596 O588 1.243 . S
C597 C599 1.382 . S
C597 C601 1.393 . S
C597 C604 1.500 . S
C598 C599 1.400 . S
C598 C600 1.384 . S
C599 C597 1.382 . S
C599 C598 1.400 . S
C599 H616 0.930 . S
C600 C598 1.384 . S
C600 C602 1.392 . S
C600 H617 0.931 . S
C601 C597 1.393 . S
C601 C602 1.401 . S
C601 H618 0.930 . S
C602 C600 1.392 . S
C602 C601 1.401 . S
C602 H619 0.930 . S
C603 O586 1.262 . S
C603 O587 1.260 . S
C604 Tb540 2.833 . S
C604 O584 1.251 . S
C604 O589 1.256 . S
C604 C597 1.500 . S
C605 H570 0.929 . S
C605 C583 1.444 . S
C605 C606 1.317 . S
C606 H568 0.930 . S
C606 C574 1.432 . S
C606 C605 1.317 . S
C607 O591 1.258 1_655 S
C607 O594 1.243 . S
C608 C609 1.382 . S
C608 C612 1.393 . S
C608 C615 1.500 . S
C609 C608 1.382 . S
C609 C610 1.400 . S
C609 H620 0.930 . S
C610 C609 1.400 . S
C610 C611 1.384 . S
C611 C610 1.384 . S
C611 C613 1.392 . S
C611 H621 0.931 . S
C612 C608 1.393 . S
C612 C613 1.401 . S
C612 H622 0.930 . S
C613 C611 1.392 . S
C613 C612 1.401 . S
C613 H623 0.930 . S
C614 O592 1.262 . S
C614 O593 1.260 . S
C615 Tb551 2.833 . S
C615 O590 1.251 . S
C615 O595 1.256 . S
C615 C608 1.500 . S
H616 C599 0.930 . S
H617 C600 0.931 . S
H618 C601 0.930 . S
H619 C602 0.930 . S
H620 C609 0.930 . S
H621 C611 0.931 . S
H622 C612 0.930 . S
H623 C613 0.930 . S
H624 C632 0.929 . S
H625 C634 0.930 . S
H626 C636 0.930 . S
H627 C639 0.929 . S
H628 C642 0.930 . S
H629 C644 0.960 . S
H630 C644 0.960 . S
H631 C644 0.960 . S
C632 H624 0.929 . S
C632 C633 1.377 . S
C632 C634 1.384 . S
C633 C632 1.377 . S
C633 C639 1.390 . S
C634 H625 0.930 . S
C634 C632 1.384 . S
C634 C635 1.372 . S
C635 C634 1.372 . S
C635 C636 1.400 . S
C635 C640 1.490 . S
C636 H626 0.930 . S
C636 C635 1.400 . S
C636 C639 1.386 . S
H637 C653 0.930 . S
H638 C654 0.931 . S
C639 H627 0.929 . S
C639 C633 1.390 . S
C639 C636 1.386 . S
C640 C635 1.490 . S
C640 C642 1.395 . S
C640 C643 1.403 . S
H641 C647 0.930 . S
C642 H628 0.930 . S
C642 C640 1.395 . S
C642 C645 1.403 . S
C643 C640 1.403 . S
C643 C644 1.524 . S
C643 C647 1.400 . S
C644 H629 0.960 . S
C644 H630 0.960 . S
C644 H631 0.960 . S
C644 C643 1.524 . S
C645 C642 1.403 . S
C645 C646 1.392 . S
C645 C649 1.495 . S
C646 C645 1.392 . S
C646 C647 1.385 . S
C646 C648 1.478 . S
C647 H641 0.930 . S
C647 C643 1.400 . S
C647 C646 1.385 . S
C648 C646 1.478 . S
C648 C650 1.381 . S
C648 C654 1.383 . S
C649 C645 1.495 . S
C649 H655 0.959 . S
C649 H656 0.961 . S
C649 H657 0.960 . S
C650 C648 1.381 . S
C650 C651 1.394 . S
C650 H658 0.930 . S
C651 C650 1.394 . S
C651 C652 1.383 . S
C651 H659 0.929 1_545 S
C652 C651 1.383 . S
C652 C653 1.377 . S
C653 H637 0.930 . S
C653 C652 1.377 . S
C653 C654 1.379 . S
C654 H638 0.931 . S
C654 C648 1.383 . S
C654 C653 1.379 . S
H655 C649 0.959 . S
H656 C649 0.961 . S
H657 C649 0.960 . S
H658 C650 0.930 . S
H659 C651 0.929 1_565 S
H660 C668 0.929 . S
H661 C670 0.930 . S
H662 C672 0.930 . S
H663 C675 0.929 . S
H664 C678 0.930 . S
H665 C680 0.960 . S
H666 C680 0.960 . S
H667 C680 0.960 . S
C668 H660 0.929 . S
C668 C669 1.377 . S
C668 C670 1.384 . S
C669 C668 1.377 . S
C669 C675 1.390 . S
C670 H661 0.930 . S
C670 C668 1.384 . S
C670 C671 1.372 . S
C671 C670 1.372 . S
C671 C672 1.400 . S
C671 C676 1.490 . S
C672 H662 0.930 . S
C672 C671 1.400 . S
C672 C675 1.386 . S
H673 C689 0.930 . S
H674 C690 0.931 . S
C675 H663 0.929 . S
C675 C669 1.390 . S
C675 C672 1.386 . S
C676 C671 1.490 . S
C676 C678 1.395 . S
C676 C679 1.403 . S
H677 C683 0.930 . S
C678 H664 0.930 . S
C678 C676 1.395 . S
C678 C681 1.403 . S
C679 C676 1.403 . S
C679 C680 1.524 . S
C679 C683 1.400 . S
C680 H665 0.960 . S
C680 H666 0.960 . S
C680 H667 0.960 . S
C680 C679 1.524 . S
C681 C678 1.403 . S
C681 C682 1.392 . S
C681 C685 1.495 . S
C682 C681 1.392 . S
C682 C683 1.385 . S
C682 C684 1.478 . S
C683 H677 0.930 . S
C683 C679 1.400 . S
C683 C682 1.385 . S
C684 C682 1.478 . S
C684 C686 1.381 . S
C684 C690 1.383 . S
C685 C681 1.495 . S
C685 H691 0.959 . S
C685 H692 0.961 . S
C685 H693 0.960 . S
C686 C684 1.381 . S
C686 C687 1.394 . S
C686 H694 0.930 . S
C687 C686 1.394 . S
C687 C688 1.383 . S
C687 H695 0.929 . S
C688 C687 1.383 . S
C688 C689 1.377 . S
C689 H673 0.930 . S
C689 C688 1.377 . S
C689 C690 1.379 . S
C690 H674 0.931 . S
C690 C684 1.383 . S
C690 C689 1.379 . S
H691 C685 0.959 . S
H692 C685 0.961 . S
H693 C685 0.960 . S
H694 C686 0.930 . S
H695 C687 0.929 . S
H696 C704 0.929 . S
H697 C706 0.930 . S
H698 C708 0.930 . S
H699 C711 0.929 . S
H700 C714 0.930 . S
H701 C716 0.960 . S
H702 C716 0.960 . S
H703 C716 0.960 . S
C704 H696 0.929 . S
C704 C705 1.377 . S
C704 C706 1.384 . S
C705 C704 1.377 . S
C705 C711 1.390 . S
C706 H697 0.930 . S
C706 C704 1.384 . S
C706 C707 1.372 . S
C707 C706 1.372 . S
C707 C708 1.400 . S
C707 C712 1.490 . S
C708 H698 0.930 . S
C708 C707 1.400 . S
C708 C711 1.386 . S
H709 C725 0.930 . S
H710 C726 0.931 . S
C711 H699 0.929 . S
C711 C705 1.390 . S
C711 C708 1.386 . S
C712 C707 1.490 . S
C712 C714 1.395 . S
C712 C715 1.403 . S
H713 C719 0.930 . S
C714 H700 0.930 . S
C714 C712 1.395 . S
C714 C717 1.403 . S
C715 C712 1.403 . S
C715 C716 1.524 . S
C715 C719 1.400 . S
C716 H701 0.960 . S
C716 H702 0.960 . S
C716 H703 0.960 . S
C716 C715 1.524 . S
C717 C714 1.403 . S
C717 C718 1.392 . S
C717 C721 1.495 . S
C718 C717 1.392 . S
C718 C719 1.385 . S
C718 C720 1.478 . S
C719 H713 0.930 . S
C719 C715 1.400 . S
C719 C718 1.385 . S
C720 C718 1.478 . S
C720 C722 1.381 . S
C720 C726 1.383 . S
C721 C717 1.495 . S
C721 H727 0.959 . S
C721 H728 0.961 . S
C721 H729 0.960 . S
C722 C720 1.381 . S
C722 C723 1.394 . S
C722 H730 0.930 . S
C723 C722 1.394 . S
C723 C724 1.383 . S
C723 H731 0.929 . S
C724 C723 1.383 . S
C724 C725 1.377 . S
C725 H709 0.930 . S
C725 C724 1.377 . S
C725 C726 1.379 . S
C726 H710 0.931 . S
C726 C720 1.383 . S
C726 C725 1.379 . S
H727 C721 0.959 . S
H728 C721 0.961 . S
H729 C721 0.960 . S
H730 C722 0.930 . S
H731 C723 0.929 . S
H732 C740 0.929 . S
H733 C742 0.930 . S
H734 C744 0.930 . S
H735 C747 0.929 . S
H736 C750 0.930 . S
H737 C752 0.960 . S
H738 C752 0.960 . S
H739 C752 0.960 . S
C740 H732 0.929 . S
C740 C741 1.377 . S
C740 C742 1.384 . S
C741 C740 1.377 . S
C741 C747 1.390 . S
C742 H733 0.930 . S
C742 C740 1.384 . S
C742 C743 1.372 . S
C743 C742 1.372 . S
C743 C744 1.400 . S
C743 C748 1.490 . S
C744 H734 0.930 . S
C744 C743 1.400 . S
C744 C747 1.386 . S
H745 C761 0.930 . S
H746 C762 0.931 . S
C747 H735 0.929 . S
C747 C741 1.390 . S
C747 C744 1.386 . S
C748 C743 1.490 . S
C748 C750 1.395 . S
C748 C751 1.403 . S
H749 C755 0.930 . S
C750 H736 0.930 . S
C750 C748 1.395 . S
C750 C753 1.403 . S
C751 C748 1.403 . S
C751 C752 1.524 . S
C751 C755 1.400 . S
C752 H737 0.960 . S
C752 H738 0.960 . S
C752 H739 0.960 . S
C752 C751 1.524 . S
C753 C750 1.403 . S
C753 C754 1.392 . S
C753 C757 1.495 . S
C754 C753 1.392 . S
C754 C755 1.385 . S
C754 C756 1.478 . S
C755 H749 0.930 . S
C755 C751 1.400 . S
C755 C754 1.385 . S
C756 C754 1.478 . S
C756 C758 1.381 . S
C756 C762 1.383 . S
C757 C753 1.495 . S
C757 H763 0.959 . S
C757 H764 0.961 . S
C757 H765 0.960 . S
C758 C756 1.381 . S
C758 C759 1.394 . S
C758 H766 0.930 . S
C759 C758 1.394 . S
C759 C760 1.383 . S
C759 H767 0.929 . S
C760 C759 1.383 . S
C760 C761 1.377 . S
C761 H745 0.930 . S
C761 C760 1.377 . S
C761 C762 1.379 . S
C762 H746 0.931 . S
C762 C756 1.383 . S
C762 C761 1.379 . S
H763 C757 0.959 . S
H764 C757 0.961 . S
H765 C757 0.960 . S
H766 C758 0.930 . S
H767 C759 0.929 . S
H768 C776 0.929 . S
H769 C778 0.930 . S
H770 C780 0.930 . S
H771 C783 0.929 . S
H772 C786 0.930 . S
H773 C788 0.960 1_545 S
H774 C788 0.960 . S
H775 C788 0.960 . S
C776 H768 0.929 . S
C776 C777 1.377 . S
C776 C778 1.384 1_554 S
C777 C776 1.377 . S
C777 C783 1.390 . S
C778 H769 0.930 . S
C778 C776 1.384 1_556 S
C778 C779 1.372 . S
C779 C778 1.372 . S
C779 C780 1.400 . S
C779 C784 1.490 . S
C780 H770 0.930 . S
C780 C779 1.400 . S
C780 C783 1.386 1_556 S
H781 C797 0.930 1_545 S
H782 C798 0.931 . S
C783 H771 0.929 . S
C783 C777 1.390 . S
C783 C780 1.386 1_554 S
C784 C779 1.490 . S
C784 C786 1.395 . S
C784 C787 1.403 . S
H785 C791 0.930 . S
C786 H772 0.930 . S
C786 C784 1.395 . S
C786 C789 1.403 . S
C787 C784 1.403 . S
C787 C788 1.524 . S
C787 C791 1.400 . S
C788 H773 0.960 1_565 S
C788 H774 0.960 . S
C788 H775 0.960 . S
C788 C787 1.524 . S
C789 C786 1.403 . S
C789 C790 1.392 . S
C789 C793 1.495 . S
C790 C789 1.392 . S
C790 C791 1.385 . S
C790 C792 1.478 . S
C791 H785 0.930 . S
C791 C787 1.400 . S
C791 C790 1.385 . S
C792 C790 1.478 . S
C792 C794 1.381 . S
C792 C798 1.383 . S
C793 C789 1.495 . S
C793 H799 0.959 . S
C793 H800 0.961 . S
C793 H801 0.960 . S
C794 C792 1.381 . S
C794 C795 1.394 . S
C794 H802 0.930 . S
C795 C794 1.394 . S
C795 C796 1.383 . S
C795 H803 0.929 . S
C796 C795 1.383 . S
C796 C797 1.377 . S
C797 H781 0.930 1_565 S
C797 C796 1.377 . S
C797 C798 1.379 . S
C798 H782 0.931 . S
C798 C792 1.383 . S
C798 C797 1.379 . S
H799 C793 0.959 . S
H800 C793 0.961 . S
H801 C793 0.960 . S
H802 C794 0.930 . S
H803 C795 0.929 . S
H804 C812 0.929 . S
H805 C814 0.930 . S
H806 C816 0.930 . S
H807 C819 0.929 . S
H808 C822 0.930 . S
H809 C824 0.960 . S
H810 C824 0.960 . S
H811 C824 0.960 . S
C812 H804 0.929 . S
C812 C813 1.377 . S
C812 C814 1.384 1_554 S
C813 C812 1.377 . S
C813 C819 1.390 . S
C814 H805 0.930 . S
C814 C812 1.384 1_556 S
C814 C815 1.372 . S
C815 C814 1.372 . S
C815 C816 1.400 . S
C815 C820 1.490 . S
C816 H806 0.930 . S
C816 C815 1.400 . S
C816 C819 1.386 1_556 S
H817 C833 0.930 . S
H818 C834 0.931 . S
C819 H807 0.929 . S
C819 C813 1.390 . S
C819 C816 1.386 1_554 S
C820 C815 1.490 . S
C820 C822 1.395 . S
C820 C823 1.403 . S
H821 C827 0.930 . S
C822 H808 0.930 . S
C822 C820 1.395 . S
C822 C825 1.403 . S
C823 C820 1.403 . S
C823 C824 1.524 . S
C823 C827 1.400 . S
C824 H809 0.960 . S
C824 H810 0.960 . S
C824 H811 0.960 . S
C824 C823 1.524 . S
C825 C822 1.403 . S
C825 C826 1.392 . S
C825 C829 1.495 . S
C826 C825 1.392 . S
C826 C827 1.385 . S
C826 C828 1.478 . S
C827 H821 0.930 . S
C827 C823 1.400 . S
C827 C826 1.385 . S
C828 C826 1.478 . S
C828 C830 1.381 . S
C828 C834 1.383 . S
C829 C825 1.495 . S
C829 H835 0.959 . S
C829 H836 0.961 . S
C829 H837 0.960 . S
C830 C828 1.381 . S
C830 C831 1.394 . S
C830 H838 0.930 . S
C831 C830 1.394 . S
C831 C832 1.383 . S
C831 H839 0.929 . S
C832 C831 1.383 . S
C832 C833 1.377 . S
C833 H817 0.930 . S
C833 C832 1.377 . S
C833 C834 1.379 . S
C834 H818 0.931 . S
C834 C828 1.383 . S
C834 C833 1.379 . S
H835 C829 0.959 . S
H836 C829 0.961 . S
H837 C829 0.960 . S
H838 C830 0.930 . S
H839 C831 0.929 . S
H840 C848 0.929 . S
H841 C850 0.930 . S
H842 C852 0.930 . S
H843 C855 0.929 . S
H844 C858 0.930 . S
H845 C860 0.960 . S
H846 C860 0.960 . S
H847 C860 0.960 . S
C848 H840 0.929 . S
C848 C849 1.377 . S
C848 C850 1.384 1_554 S
C849 C848 1.377 . S
C849 C855 1.390 1_554 S
C850 H841 0.930 . S
C850 C848 1.384 1_556 S
C850 C851 1.372 . S
C851 C850 1.372 . S
C851 C852 1.400 . S
C851 C856 1.490 . S
C852 H842 0.930 . S
C852 C851 1.400 . S
C852 C855 1.386 . S
H853 C869 0.930 . S
H854 C870 0.931 . S
C855 H843 0.929 . S
C855 C849 1.390 1_556 S
C855 C852 1.386 . S
C856 C851 1.490 . S
C856 C858 1.395 . S
C856 C859 1.403 . S
H857 C863 0.930 . S
C858 H844 0.930 . S
C858 C856 1.395 . S
C858 C861 1.403 . S
C859 C856 1.403 . S
C859 C860 1.524 . S
C859 C863 1.400 . S
C860 H845 0.960 . S
C860 H846 0.960 . S
C860 H847 0.960 . S
C860 C859 1.524 . S
C861 C858 1.403 . S
C861 C862 1.392 . S
C861 C865 1.495 . S
C862 C861 1.392 . S
C862 C863 1.385 . S
C862 C864 1.478 . S
C863 H857 0.930 . S
C863 C859 1.400 . S
C863 C862 1.385 . S
C864 C862 1.478 . S
C864 C866 1.381 . S
C864 C870 1.383 . S
C865 C861 1.495 . S
C865 H871 0.959 . S
C865 H872 0.961 . S
C865 H873 0.960 . S
C866 C864 1.381 . S
C866 C867 1.394 . S
C866 H874 0.930 . S
C867 C866 1.394 . S
C867 C868 1.383 . S
C867 H875 0.929 . S
C868 C867 1.383 . S
C868 C869 1.377 . S
C869 H853 0.930 . S
C869 C868 1.377 . S
C869 C870 1.379 . S
C870 H854 0.931 . S
C870 C864 1.383 . S
C870 C869 1.379 . S
H871 C865 0.959 . S
H872 C865 0.961 . S
H873 C865 0.960 . S
H874 C866 0.930 . S
H875 C867 0.929 . S
H876 C884 0.929 . S
H877 C886 0.930 . S
H878 C888 0.930 . S
H879 C891 0.929 . S
H880 C894 0.930 . S
H881 C896 0.960 . S
H882 C896 0.960 . S
H883 C896 0.960 . S
C884 H876 0.929 . S
C884 C885 1.377 . S
C884 C886 1.384 1_554 S
C885 C884 1.377 . S
C885 C891 1.390 . S
C886 H877 0.930 . S
C886 C884 1.384 1_556 S
C886 C887 1.372 . S
C887 C886 1.372 . S
C887 C888 1.400 . S
C887 C892 1.490 . S
C888 H878 0.930 . S
C888 C887 1.400 . S
C888 C891 1.386 1_556 S
H889 C905 0.930 . S
H890 C906 0.931 . S
C891 H879 0.929 . S
C891 C885 1.390 . S
C891 C888 1.386 1_554 S
C892 C887 1.490 . S
C892 C894 1.395 . S
C892 C895 1.403 . S
H893 C899 0.930 . S
C894 H880 0.930 . S
C894 C892 1.395 . S
C894 C897 1.403 . S
C895 C892 1.403 . S
C895 C896 1.524 . S
C895 C899 1.400 . S
C896 H881 0.960 . S
C896 H882 0.960 . S
C896 H883 0.960 . S
C896 C895 1.524 . S
C897 C894 1.403 . S
C897 C898 1.392 . S
C897 C901 1.495 . S
C898 C897 1.392 . S
C898 C899 1.385 . S
C898 C900 1.478 . S
C899 H893 0.930 . S
C899 C895 1.400 . S
C899 C898 1.385 . S
C900 C898 1.478 . S
C900 C902 1.381 . S
C900 C906 1.383 . S
C901 C897 1.495 . S
C901 H907 0.959 . S
C901 H908 0.961 . S
C901 H909 0.960 1_655 S
C902 C900 1.381 . S
C902 C903 1.389 1_655 S
C902 H910 0.930 1_655 S
C903 C902 1.389 1_455 S
C903 C904 1.371 1_455 S
C903 H911 0.947 . S
C904 C903 1.371 1_655 S
C904 C905 1.377 . S
C905 H889 0.930 . S
C905 C904 1.377 . S
C905 C906 1.379 . S
C906 H890 0.931 . S
C906 C900 1.383 . S
C906 C905 1.379 . S
H907 C901 0.959 . S
H908 C901 0.961 . S
H909 C901 0.960 1_455 S
H910 C902 0.930 1_455 S
H911 C903 0.947 . S
H912 C920 0.929 . S
H913 C922 0.930 . S
H914 C924 0.930 . S
H915 C927 0.929 . S
H916 C930 0.930 . S
H917 C932 0.960 . S
H918 C932 0.960 . S
H919 C932 0.960 . S
C920 H912 0.929 . S
C920 C921 1.377 . S
C920 C922 1.384 . S
C921 C920 1.377 . S
C921 C927 1.390 . S
C922 H913 0.930 . S
C922 C920 1.384 . S
C922 C923 1.372 . S
C923 C922 1.372 . S
C923 C924 1.400 . S
C923 C928 1.490 . S
C924 H914 0.930 . S
C924 C923 1.400 . S
C924 C927 1.386 . S
H925 C941 0.930 . S
H926 C942 0.931 1_655 S
C927 H915 0.929 . S
C927 C921 1.390 . S
C927 C924 1.386 . S
C928 C923 1.490 . S
C928 C930 1.395 . S
C928 C931 1.403 . S
H929 C935 0.930 . S
C930 H916 0.930 . S
C930 C928 1.395 . S
C930 C933 1.403 . S
C931 C928 1.403 . S
C931 C932 1.524 . S
C931 C935 1.400 . S
C932 H917 0.960 . S
C932 H918 0.960 . S
C932 H919 0.960 . S
C932 C931 1.524 . S
C933 C930 1.403 . S
C933 C934 1.392 . S
C933 C937 1.495 . S
C934 C933 1.392 . S
C934 C935 1.385 . S
C934 C936 1.478 . S
C935 H929 0.930 . S
C935 C931 1.400 . S
C935 C934 1.385 . S
C936 C934 1.478 . S
C936 C938 1.381 . S
C936 C942 1.383 . S
C937 C933 1.495 . S
C937 H943 0.959 . S
C937 H944 0.961 . S
C937 H945 0.960 . S
C938 C936 1.381 . S
C938 C939 1.394 . S
C938 H946 0.930 . S
C939 C938 1.394 . S
C939 C940 1.383 . S
C939 H947 0.929 . S
C940 C939 1.383 . S
C940 C941 1.377 1_455 S
C941 H925 0.930 . S
C941 C940 1.377 1_655 S
C941 C942 1.379 1_655 S
C942 H926 0.931 1_455 S
C942 C936 1.383 . S
C942 C941 1.379 1_455 S
H943 C937 0.959 . S
H944 C937 0.961 . S
H945 C937 0.960 . S
H946 C938 0.930 . S
H947 C939 0.929 . S
H948 C956 0.929 . S
H949 C958 0.930 . S
H950 C960 0.930 . S
H951 C963 0.929 . S
H952 C966 0.930 . S
H953 C968 0.960 . S
H954 C968 0.960 . S
H955 C968 0.960 . S
C956 H948 0.929 . S
C956 C957 1.377 . S
C956 C958 1.384 . S
C957 C956 1.377 . S
C957 C963 1.390 . S
C958 H949 0.930 . S
C958 C956 1.384 . S
C958 C959 1.372 . S
C959 C958 1.372 . S
C959 C960 1.400 . S
C959 C964 1.490 . S
C960 H950 0.930 . S
C960 C959 1.400 . S
C960 C963 1.386 . S
H961 C977 0.930 . S
H962 C978 0.931 . S
C963 H951 0.929 . S
C963 C957 1.390 . S
C963 C960 1.386 . S
C964 C959 1.490 . S
C964 C966 1.395 . S
C964 C967 1.403 . S
H965 C971 0.930 . S
C966 H952 0.930 . S
C966 C964 1.395 . S
C966 C969 1.403 . S
C967 C964 1.403 . S
C967 C968 1.524 . S
C967 C971 1.400 . S
C968 H953 0.960 . S
C968 H954 0.960 . S
C968 H955 0.960 . S
C968 C967 1.524 . S
C969 C966 1.403 . S
C969 C970 1.392 . S
C969 C973 1.495 . S
C970 C969 1.392 . S
C970 C971 1.385 . S
C970 C972 1.478 . S
C971 H965 0.930 . S
C971 C967 1.400 . S
C971 C970 1.385 . S
C972 C970 1.478 . S
C972 C974 1.381 . S
C972 C978 1.383 . S
C973 C969 1.495 . S
C973 H979 0.959 . S
C973 H980 0.961 . S
C973 H981 0.960 . S
C974 C972 1.381 . S
C974 C975 1.394 1_545 S
C974 H982 0.930 1_545 S
C975 C974 1.394 1_565 S
C975 C976 1.383 1_565 S
C975 H983 0.929 . S
C976 C975 1.383 1_545 S
C976 C977 1.377 . S
C977 H961 0.930 . S
C977 C976 1.377 . S
C977 C978 1.379 . S
C978 H962 0.931 . S
C978 C972 1.383 . S
C978 C977 1.379 . S
H979 C973 0.959 . S
H980 C973 0.961 . S
H981 C973 0.960 . S
H982 C974 0.930 1_565 S
H983 C975 0.929 . S
H984 C992 0.929 . S
H985 C994 0.930 . S
H986 C996 0.930 . S
H987 C999 0.929 . S
H988 C1002 0.930 . S
H989 C1004 0.960 . S
H990 C1004 0.960 . S
H991 C1004 0.960 . S
C992 H984 0.929 . S
C992 C993 1.377 . S
C992 C994 1.384 . S
C993 C992 1.377 . S
C993 C999 1.390 . S
C994 H985 0.930 . S
C994 C992 1.384 . S
C994 C995 1.372 . S
C995 C994 1.372 . S
C995 C996 1.400 . S
C995 C1000 1.490 . S
C996 H986 0.930 . S
C996 C995 1.400 . S
C996 C999 1.386 . S
H997 C1013 0.930 . S
H998 C1014 0.931 . S
C999 H987 0.929 . S
C999 C993 1.390 . S
C999 C996 1.386 . S
C1000 C995 1.490 . S
C1000 C1002 1.395 . S
C1000 C1003 1.403 . S
H1001 C1007 0.930 . S
C1002 H988 0.930 . S
C1002 C1000 1.395 . S
C1002 C1005 1.403 . S
C1003 C1000 1.403 . S
C1003 C1004 1.524 . S
C1003 C1007 1.400 . S
C1004 H989 0.960 . S
C1004 H990 0.960 . S
C1004 H991 0.960 . S
C1004 C1003 1.524 . S
C1005 C1002 1.403 . S
C1005 C1006 1.392 . S
C1005 C1009 1.495 . S
C1006 C1005 1.392 . S
C1006 C1007 1.385 . S
C1006 C1008 1.478 . S
C1007 H1001 0.930 . S
C1007 C1003 1.400 . S
C1007 C1006 1.385 . S
C1008 C1006 1.478 . S
C1008 C1010 1.381 . S
C1008 C1014 1.383 . S
C1009 C1005 1.495 . S
C1009 H1015 0.959 . S
C1009 H1016 0.961 . S
C1009 H1017 0.960 . S
C1010 C1008 1.381 . S
C1010 C1011 1.394 . S
C1010 H1018 0.930 . S
C1011 C1010 1.394 . S
C1011 C1012 1.383 . S
C1011 H1019 0.929 . S
C1012 C1011 1.383 . S
C1012 C1013 1.377 . S
C1013 H997 0.930 . S
C1013 C1012 1.377 . S
C1013 C1014 1.379 . S
C1014 H998 0.931 . S
C1014 C1008 1.383 . S
C1014 C1013 1.379 . S
H1015 C1009 0.959 . S
H1016 C1009 0.961 . S
H1017 C1009 0.960 . S
H1018 C1010 0.930 . S
H1019 C1011 0.929 . S
H1020 C1028 0.929 . S
H1021 C1030 0.930 . S
H1022 C1032 0.930 . S
H1023 C1035 0.929 . S
H1024 C1038 0.930 . S
H1025 C1040 0.960 . S
H1026 C1040 0.960 . S
H1027 C1040 0.960 . S
C1028 H1020 0.929 . S
C1028 C1029 1.377 . S
C1028 C1030 1.384 . S
C1029 C1028 1.377 . S
C1029 C1035 1.390 . S
C1030 H1021 0.930 . S
C1030 C1028 1.384 . S
C1030 C1031 1.372 . S
C1031 C1030 1.372 . S
C1031 C1032 1.400 . S
C1031 C1036 1.490 . S
C1032 H1022 0.930 . S
C1032 C1031 1.400 . S
C1032 C1035 1.386 . S
H1033 C1049 0.930 . S
H1034 C1050 0.931 . S
C1035 H1023 0.929 . S
C1035 C1029 1.390 . S
C1035 C1032 1.386 . S
C1036 C1031 1.490 . S
C1036 C1038 1.395 . S
C1036 C1039 1.403 . S
H1037 C1043 0.930 . S
C1038 H1024 0.930 . S
C1038 C1036 1.395 . S
C1038 C1041 1.403 . S
C1039 C1036 1.403 . S
C1039 C1040 1.524 . S
C1039 C1043 1.400 . S
C1040 H1025 0.960 . S
C1040 H1026 0.960 . S
C1040 H1027 0.960 . S
C1040 C1039 1.524 . S
C1041 C1038 1.403 . S
C1041 C1042 1.392 . S
C1041 C1045 1.495 . S
C1042 C1041 1.392 . S
C1042 C1043 1.385 . S
C1042 C1044 1.478 . S
C1043 H1037 0.930 . S
C1043 C1039 1.400 . S
C1043 C1042 1.385 . S
C1044 C1042 1.478 . S
C1044 C1046 1.381 . S
C1044 C1050 1.383 . S
C1045 C1041 1.495 . S
C1045 H1051 0.959 . S
C1045 H1052 0.961 . S
C1045 H1053 0.960 . S
C1046 C1044 1.381 . S
C1046 C1047 1.394 . S
C1046 H1054 0.930 . S
C1047 C1046 1.394 . S
C1047 C1048 1.383 . S
C1047 H1055 0.929 . S
C1048 C1047 1.383 . S
C1048 C1049 1.377 . S
C1049 H1033 0.930 . S
C1049 C1048 1.377 . S
C1049 C1050 1.379 . S
C1050 H1034 0.931 . S
C1050 C1044 1.383 . S
C1050 C1049 1.379 . S
H1051 C1045 0.959 . S
H1052 C1045 0.961 . S
H1053 C1045 0.960 . S
H1054 C1046 0.930 . S
H1055 C1047 0.929 . S
H1056 C1064 0.929 . S
H1057 C1066 0.930 . S
H1058 C1068 0.930 . S
H1059 C1071 0.929 1_554 S
H1060 C1074 0.930 . S
H1061 C1076 0.960 . S
H1062 C1076 0.960 . S
H1063 C1076 0.960 . S
C1064 H1056 0.929 . S
C1064 C1065 1.377 . S
C1064 C1066 1.384 . S
C1065 C1064 1.377 . S
C1065 C1071 1.390 . S
C1066 H1057 0.930 . S
C1066 C1064 1.384 . S
C1066 C1067 1.372 . S
C1067 C1066 1.372 . S
C1067 C1068 1.400 . S
C1067 C1072 1.490 . S
C1068 H1058 0.930 . S
C1068 C1067 1.400 . S
C1068 C1071 1.386 . S
H1069 C1085 0.930 . S
H1070 C1086 0.931 . S
C1071 H1059 0.929 1_556 S
C1071 C1065 1.390 . S
C1071 C1068 1.386 . S
C1072 C1067 1.490 . S
C1072 C1074 1.395 . S
C1072 C1075 1.403 . S
H1073 C1079 0.930 . S
C1074 H1060 0.930 . S
C1074 C1072 1.395 . S
C1074 C1077 1.403 . S
C1075 C1072 1.403 . S
C1075 C1076 1.524 . S
C1075 C1079 1.400 . S
C1076 H1061 0.960 . S
C1076 H1062 0.960 . S
C1076 H1063 0.960 . S
C1076 C1075 1.524 . S
C1077 C1074 1.403 . S
C1077 C1078 1.392 . S
C1077 C1081 1.495 . S
C1078 C1077 1.392 . S
C1078 C1079 1.385 . S
C1078 C1080 1.478 . S
C1079 H1073 0.930 . S
C1079 C1075 1.400 . S
C1079 C1078 1.385 . S
C1080 C1078 1.478 . S
C1080 C1082 1.381 . S
C1080 C1086 1.383 . S
C1081 C1077 1.495 . S
C1081 H1087 0.959 . S
C1081 H1088 0.961 . S
C1081 H1089 0.960 . S
C1082 C1080 1.381 . S
C1082 C1083 1.391 . S
C1082 H1090 0.930 . S
C1083 C1082 1.391 . S
C1083 C1084 1.384 1_655 S
C1083 H1091 0.932 1_655 S
C1084 C1083 1.384 1_455 S
C1084 C1085 1.377 1_455 S
C1085 H1069 0.930 . S
C1085 C1084 1.377 1_655 S
C1085 C1086 1.379 . S
C1086 H1070 0.931 . S
C1086 C1080 1.383 . S
C1086 C1085 1.379 . S
H1087 C1081 0.959 . S
H1088 C1081 0.961 . S
H1089 C1081 0.960 . S
H1090 C1082 0.930 . S
H1091 C1083 0.932 1_455 S
H1092 C1100 0.929 . S
H1093 C1102 0.930 . S
H1094 C1104 0.930 . S
H1095 C1107 0.929 1_554 S
H1096 C1110 0.930 . S
H1097 C1112 0.960 . S
H1098 C1112 0.960 . S
H1099 C1112 0.960 . S
C1100 H1092 0.929 . S
C1100 C1101 1.377 . S
C1100 C1102 1.384 . S
C1101 C1100 1.377 . S
C1101 C1107 1.390 . S
C1102 H1093 0.930 . S
C1102 C1100 1.384 . S
C1102 C1103 1.372 . S
C1103 C1102 1.372 . S
C1103 C1104 1.400 . S
C1103 C1108 1.490 . S
C1104 H1094 0.930 . S
C1104 C1103 1.400 . S
C1104 C1107 1.386 . S
H1105 C1121 0.930 . S
H1106 C1122 0.931 . S
C1107 H1095 0.929 1_556 S
C1107 C1101 1.390 . S
C1107 C1104 1.386 . S
C1108 C1103 1.490 . S
C1108 C1110 1.395 . S
C1108 C1111 1.403 . S
H1109 C1115 0.930 . S
C1110 H1096 0.930 . S
C1110 C1108 1.395 . S
C1110 C1113 1.403 . S
C1111 C1108 1.403 . S
C1111 C1112 1.524 . S
C1111 C1115 1.400 . S
C1112 H1097 0.960 . S
C1112 H1098 0.960 . S
C1112 H1099 0.960 . S
C1112 C1111 1.524 . S
C1113 C1110 1.403 . S
C1113 C1114 1.392 . S
C1113 C1117 1.495 . S
C1114 C1113 1.392 . S
C1114 C1115 1.385 . S
C1114 C1116 1.478 . S
C1115 H1109 0.930 . S
C1115 C1111 1.400 . S
C1115 C1114 1.385 . S
C1116 C1114 1.478 . S
C1116 C1118 1.395 . S
C1116 C1122 1.383 . S
C1117 C1113 1.495 . S
C1117 H1123 0.959 . S
C1117 H1124 0.961 . S
C1117 H1125 0.960 . S
C1118 C1116 1.395 . S
C1118 C1119 1.383 1_565 S
C1118 H1126 0.927 1_565 S
C1119 C1118 1.383 1_545 S
C1119 C1120 1.383 . S
C1119 H1127 0.929 . S
C1120 C1119 1.383 . S
C1120 C1121 1.377 1_545 S
C1121 H1105 0.930 . S
C1121 C1120 1.377 1_565 S
C1121 C1122 1.379 . S
C1122 H1106 0.931 . S
C1122 C1116 1.383 . S
C1122 C1121 1.379 . S
H1123 C1117 0.959 . S
H1124 C1117 0.961 . S
H1125 C1117 0.960 . S
H1126 C1118 0.927 1_545 S
H1127 C1119 0.929 . S
H1128 C1136 0.929 . S
H1129 C1138 0.930 . S
H1130 C1140 0.930 . S
H1131 C1143 0.929 1_554 S
H1132 C1146 0.930 . S
H1133 C1148 0.960 . S
H1134 C1148 0.960 . S
H1135 C1148 0.960 . S
C1136 H1128 0.929 . S
C1136 C1137 1.377 . S
C1136 C1138 1.384 . S
C1137 C1136 1.377 . S
C1137 C1143 1.390 . S
C1138 H1129 0.930 . S
C1138 C1136 1.384 . S
C1138 C1139 1.372 . S
C1139 C1138 1.372 . S
C1139 C1140 1.400 . S
C1139 C1144 1.490 . S
C1140 H1130 0.930 . S
C1140 C1139 1.400 . S
C1140 C1143 1.386 . S
H1141 C1157 0.930 . S
H1142 C1158 0.931 . S
C1143 H1131 0.929 1_556 S
C1143 C1137 1.390 . S
C1143 C1140 1.386 . S
C1144 C1139 1.490 . S
C1144 C1146 1.395 . S
C1144 C1147 1.403 . S
H1145 C1151 0.930 . S
C1146 H1132 0.930 . S
C1146 C1144 1.395 . S
C1146 C1149 1.403 . S
C1147 C1144 1.403 . S
C1147 C1148 1.524 . S
C1147 C1151 1.400 . S
C1148 H1133 0.960 . S
C1148 H1134 0.960 . S
C1148 H1135 0.960 . S
C1148 C1147 1.524 . S
C1149 C1146 1.403 . S
C1149 C1150 1.392 . S
C1149 C1153 1.495 . S
C1150 C1149 1.392 . S
C1150 C1151 1.385 . S
C1150 C1152 1.478 . S
C1151 H1145 0.930 . S
C1151 C1147 1.400 . S
C1151 C1150 1.385 . S
C1152 C1150 1.478 . S
C1152 C1154 1.381 . S
C1152 C1158 1.383 . S
C1153 C1149 1.495 . S
C1153 H1159 0.959 . S
C1153 H1160 0.961 . S
C1153 H1161 0.960 . S
C1154 C1152 1.381 . S
C1154 C1155 1.394 . S
C1154 H1162 0.930 . S
C1155 C1154 1.394 . S
C1155 C1156 1.383 . S
C1155 H1163 0.929 . S
C1156 C1155 1.383 . S
C1156 C1157 1.377 . S
C1157 H1141 0.930 . S
C1157 C1156 1.377 . S
C1157 C1158 1.379 . S
C1158 H1142 0.931 . S
C1158 C1152 1.383 . S
C1158 C1157 1.379 . S
H1159 C1153 0.959 . S
H1160 C1153 0.961 . S
H1161 C1153 0.960 . S
H1162 C1154 0.930 . S
H1163 C1155 0.929 . S
H1164 C1172 0.929 . S
H1165 C1174 0.930 . S
H1166 C1176 0.930 . S
H1167 C1179 0.929 . S
H1168 C1182 0.930 . S
H1169 C1184 0.960 . S
H1170 C1184 0.960 . S
H1171 C1184 0.960 . S
C1172 H1164 0.929 . S
C1172 C1173 1.377 . S
C1172 C1174 1.384 . S
C1173 C1172 1.377 . S
C1173 C1179 1.390 . S
C1174 H1165 0.930 . S
C1174 C1172 1.384 . S
C1174 C1175 1.372 . S
C1175 C1174 1.372 . S
C1175 C1176 1.400 . S
C1175 C1180 1.490 . S
C1176 H1166 0.930 . S
C1176 C1175 1.400 . S
C1176 C1179 1.386 . S
H1177 C1193 0.930 . S
H1178 C1194 0.931 . S
C1179 H1167 0.929 . S
C1179 C1173 1.390 . S
C1179 C1176 1.386 . S
C1180 C1175 1.490 . S
C1180 C1182 1.395 . S
C1180 C1183 1.403 . S
H1181 C1187 0.930 . S
C1182 H1168 0.930 . S
C1182 C1180 1.395 . S
C1182 C1185 1.403 . S
C1183 C1180 1.403 . S
C1183 C1184 1.524 . S
C1183 C1187 1.400 . S
C1184 H1169 0.960 . S
C1184 H1170 0.960 . S
C1184 H1171 0.960 . S
C1184 C1183 1.524 . S
C1185 C1182 1.403 . S
C1185 C1186 1.392 . S
C1185 C1189 1.495 . S
C1186 C1185 1.392 . S
C1186 C1187 1.385 . S
C1186 C1188 1.478 . S
C1187 H1181 0.930 . S
C1187 C1183 1.400 . S
C1187 C1186 1.385 . S
C1188 C1186 1.478 . S
C1188 C1190 1.381 . S
C1188 C1194 1.383 . S
C1189 C1185 1.495 . S
C1189 H1195 0.959 . S
C1189 H1196 0.961 . S
C1189 H1197 0.960 . S
C1190 C1188 1.381 . S
C1190 C1191 1.394 . S
C1190 H1198 0.930 . S
C1191 C1190 1.394 . S
C1191 C1192 1.383 . S
C1191 H1199 0.929 . S
C1192 C1191 1.383 . S
C1192 C1193 1.377 . S
C1193 H1177 0.930 . S
C1193 C1192 1.377 . S
C1193 C1194 1.379 . S
C1194 H1178 0.931 . S
C1194 C1188 1.383 . S
C1194 C1193 1.379 . S
H1195 C1189 0.959 . S
H1196 C1189 0.961 . S
H1197 C1189 0.960 . S
H1198 C1190 0.930 . S
H1199 C1191 0.929 . S
H1200 C1208 0.929 . S
H1201 C1210 0.930 . S
H1202 C1212 0.930 . S
H1203 C1215 0.929 . S
H1204 C1218 0.930 . S
H1205 C1220 0.960 . S
H1206 C1220 0.960 . S
H1207 C1220 0.960 . S
C1208 H1200 0.929 . S
C1208 C1209 1.377 . S
C1208 C1210 1.384 . S
C1209 C1208 1.377 . S
C1209 C1215 1.390 . S
C1210 H1201 0.930 . S
C1210 C1208 1.384 . S
C1210 C1211 1.372 . S
C1211 C1210 1.372 . S
C1211 C1212 1.400 . S
C1211 C1216 1.490 . S
C1212 H1202 0.930 . S
C1212 C1211 1.400 . S
C1212 C1215 1.386 . S
H1213 C1229 0.930 . S
H1214 C1230 0.931 . S
C1215 H1203 0.929 . S
C1215 C1209 1.390 . S
C1215 C1212 1.386 . S
C1216 C1211 1.490 . S
C1216 C1218 1.395 . S
C1216 C1219 1.403 . S
H1217 C1223 0.930 . S
C1218 H1204 0.930 . S
C1218 C1216 1.395 . S
C1218 C1221 1.403 . S
C1219 C1216 1.403 . S
C1219 C1220 1.524 . S
C1219 C1223 1.400 . S
C1220 H1205 0.960 . S
C1220 H1206 0.960 . S
C1220 H1207 0.960 . S
C1220 C1219 1.524 . S
C1221 C1218 1.403 . S
C1221 C1222 1.392 . S
C1221 C1225 1.495 . S
C1222 C1221 1.392 . S
C1222 C1223 1.385 . S
C1222 C1224 1.478 . S
C1223 H1217 0.930 . S
C1223 C1219 1.400 . S
C1223 C1222 1.385 . S
C1224 C1222 1.478 . S
C1224 C1226 1.381 . S
C1224 C1230 1.383 . S
C1225 C1221 1.495 . S
C1225 H1231 0.959 . S
C1225 H1232 0.961 . S
C1225 H1233 0.960 . S
C1226 C1224 1.381 . S
C1226 C1227 1.394 . S
C1226 H1234 0.930 . S
C1227 C1226 1.394 . S
C1227 C1228 1.383 . S
C1227 H1235 0.929 . S
C1228 C1227 1.383 . S
C1228 C1229 1.377 . S
C1229 H1213 0.930 . S
C1229 C1228 1.377 . S
C1229 C1230 1.379 . S
C1230 H1214 0.931 . S
C1230 C1224 1.383 . S
C1230 C1229 1.379 . S
H1231 C1225 0.959 . S
H1232 C1225 0.961 . S
H1233 C1225 0.960 . S
H1234 C1226 0.930 . S
H1235 C1227 0.929 . S
H1236 C1244 0.929 . S
H1237 C1246 0.930 . S
H1238 C1248 0.930 . S
H1239 C1251 0.929 . S
H1240 C1254 0.930 . S
H1241 C1256 0.960 . S
H1242 C1256 0.960 . S
H1243 C1256 0.960 . S
C1244 H1236 0.929 . S
C1244 C1245 1.377 . S
C1244 C1246 1.384 . S
C1245 C1244 1.377 . S
C1245 C1251 1.390 . S
C1246 H1237 0.930 . S
C1246 C1244 1.384 . S
C1246 C1247 1.372 . S
C1247 C1246 1.372 . S
C1247 C1248 1.400 . S
C1247 C1252 1.490 . S
C1248 H1238 0.930 . S
C1248 C1247 1.400 . S
C1248 C1251 1.386 . S
H1249 C1265 0.930 . S
H1250 C1266 0.931 . S
C1251 H1239 0.929 . S
C1251 C1245 1.390 . S
C1251 C1248 1.386 . S
C1252 C1247 1.490 . S
C1252 C1254 1.395 . S
C1252 C1255 1.403 . S
H1253 C1259 0.930 . S
C1254 H1240 0.930 . S
C1254 C1252 1.395 . S
C1254 C1257 1.403 . S
C1255 C1252 1.403 . S
C1255 C1256 1.524 . S
C1255 C1259 1.400 . S
C1256 H1241 0.960 . S
C1256 H1242 0.960 . S
C1256 H1243 0.960 . S
C1256 C1255 1.524 . S
C1257 C1254 1.403 . S
C1257 C1258 1.392 . S
C1257 C1261 1.495 . S
C1258 C1257 1.392 . S
C1258 C1259 1.385 . S
C1258 C1260 1.478 . S
C1259 H1253 0.930 . S
C1259 C1255 1.400 . S
C1259 C1258 1.385 . S
C1260 C1258 1.478 . S
C1260 C1262 1.381 . S
C1260 C1266 1.383 . S
C1261 C1257 1.495 . S
C1261 H1267 0.959 . S
C1261 H1268 0.961 . S
C1261 H1269 0.960 . S
C1262 C1260 1.381 . S
C1262 C1263 1.394 . S
C1262 H1270 0.930 . S
C1263 C1262 1.394 . S
C1263 C1264 1.383 . S
C1263 H1271 0.929 . S
C1264 C1263 1.383 . S
C1264 C1265 1.377 . S
C1265 H1249 0.930 . S
C1265 C1264 1.377 . S
C1265 C1266 1.379 . S
C1266 H1250 0.931 . S
C1266 C1260 1.383 . S
C1266 C1265 1.379 . S
H1267 C1261 0.959 . S
H1268 C1261 0.961 . S
H1269 C1261 0.960 . S
H1270 C1262 0.930 . S
H1271 C1263 0.929 . S
H1272 C1280 0.929 . S
H1273 C1282 0.930 . S
H1274 C1284 0.930 . S
H1275 C1287 0.929 . S
H1276 C1290 0.930 . S
H1277 C1292 0.960 . S
H1278 C1292 0.960 . S
H1279 C1292 0.960 . S
C1280 H1272 0.929 . S
C1280 C1281 1.377 . S
C1280 C1282 1.384 . S
C1281 C1280 1.377 . S
C1281 C1287 1.390 . S
C1282 H1273 0.930 . S
C1282 C1280 1.384 . S
C1282 C1283 1.372 . S
C1283 C1282 1.372 . S
C1283 C1284 1.400 . S
C1283 C1288 1.490 . S
C1284 H1274 0.930 . S
C1284 C1283 1.400 . S
C1284 C1287 1.386 . S
H1285 C1301 0.930 . S
H1286 C1302 0.931 . S
C1287 H1275 0.929 . S
C1287 C1281 1.390 . S
C1287 C1284 1.386 . S
C1288 C1283 1.490 . S
C1288 C1290 1.395 . S
C1288 C1291 1.403 . S
H1289 C1295 0.930 . S
C1290 H1276 0.930 . S
C1290 C1288 1.395 . S
C1290 C1293 1.403 . S
C1291 C1288 1.403 . S
C1291 C1292 1.524 . S
C1291 C1295 1.400 . S
C1292 H1277 0.960 . S
C1292 H1278 0.960 . S
C1292 H1279 0.960 . S
C1292 C1291 1.524 . S
C1293 C1290 1.403 . S
C1293 C1294 1.392 . S
C1293 C1297 1.495 . S
C1294 C1293 1.392 . S
C1294 C1295 1.385 . S
C1294 C1296 1.478 . S
C1295 H1289 0.930 . S
C1295 C1291 1.400 . S
C1295 C1294 1.385 . S
C1296 C1294 1.478 . S
C1296 C1298 1.381 . S
C1296 C1302 1.383 . S
C1297 C1293 1.495 . S
C1297 H1303 0.959 . S
C1297 H1304 0.961 . S
C1297 H1305 0.960 . S
C1298 C1296 1.381 . S
C1298 C1299 1.394 . S
C1298 H1306 0.930 . S
C1299 C1298 1.394 . S
C1299 C1300 1.383 . S
C1299 H1307 0.929 . S
C1300 C1299 1.383 . S
C1300 C1301 1.377 . S
C1301 H1285 0.930 . S
C1301 C1300 1.377 . S
C1301 C1302 1.379 . S
C1302 H1286 0.931 . S
C1302 C1296 1.383 . S
C1302 C1301 1.379 . S
H1303 C1297 0.959 . S
H1304 C1297 0.961 . S
H1305 C1297 0.960 . S
H1306 C1298 0.930 . S
H1307 C1299 0.929 . S
H1308 C1316 0.929 . S
H1309 C1318 0.930 . S
H1310 C1320 0.930 . S
H1311 C1323 0.929 . S
H1312 C1326 0.930 . S
H1313 C1328 0.960 . S
H1314 C1328 0.960 . S
H1315 C1328 0.960 . S
C1316 H1308 0.929 . S
C1316 C1317 1.377 . S
C1316 C1318 1.384 . S
C1317 C1316 1.377 . S
C1317 C1323 1.390 . S
C1318 H1309 0.930 . S
C1318 C1316 1.384 . S
C1318 C1319 1.372 . S
C1319 C1318 1.372 . S
C1319 C1320 1.400 . S
C1319 C1324 1.490 . S
C1320 H1310 0.930 . S
C1320 C1319 1.400 . S
C1320 C1323 1.386 . S
H1321 C1337 0.930 . S
H1322 C1338 0.931 . S
C1323 H1311 0.929 . S
C1323 C1317 1.390 . S
C1323 C1320 1.386 . S
C1324 C1319 1.490 . S
C1324 C1326 1.395 . S
C1324 C1327 1.403 . S
H1325 C1331 0.930 . S
C1326 H1312 0.930 . S
C1326 C1324 1.395 . S
C1326 C1329 1.403 . S
C1327 C1324 1.403 . S
C1327 C1328 1.524 . S
C1327 C1331 1.400 . S
C1328 H1313 0.960 . S
C1328 H1314 0.960 . S
C1328 H1315 0.960 . S
C1328 C1327 1.524 . S
C1329 C1326 1.403 . S
C1329 C1330 1.392 . S
C1329 C1333 1.495 . S
C1330 C1329 1.392 . S
C1330 C1331 1.385 . S
C1330 C1332 1.478 . S
C1331 H1325 0.930 . S
C1331 C1327 1.400 . S
C1331 C1330 1.385 . S
C1332 C1330 1.478 . S
C1332 C1334 1.381 . S
C1332 C1338 1.383 . S
C1333 C1329 1.495 . S
C1333 H1339 0.959 . S
C1333 H1340 0.961 . S
C1333 H1341 0.960 . S
C1334 C1332 1.381 . S
C1334 C1335 1.394 . S
C1334 H1342 0.930 . S
C1335 C1334 1.394 . S
C1335 C1336 1.383 . S
C1335 H1343 0.929 . S
C1336 C1335 1.383 . S
C1336 C1337 1.377 . S
C1337 H1321 0.930 . S
C1337 C1336 1.377 . S
C1337 C1338 1.379 . S
C1338 H1322 0.931 . S
C1338 C1332 1.383 . S
C1338 C1337 1.379 . S
H1339 C1333 0.959 . S
H1340 C1333 0.961 . S
H1341 C1333 0.960 . S
H1342 C1334 0.930 . S
H1343 C1335 0.929 . S
H1344 C1352 0.929 . S
H1345 C1354 0.930 . S
H1346 C1356 0.930 . S
H1347 C1359 0.929 . S
H1348 C1362 0.930 . S
H1349 C1364 0.960 . S
H1350 C1364 0.960 . S
H1351 C1364 0.960 . S
C1352 H1344 0.929 . S
C1352 C1353 1.377 . S
C1352 C1354 1.384 . S
C1353 C1352 1.377 . S
C1353 C1359 1.390 . S
C1354 H1345 0.930 . S
C1354 C1352 1.384 . S
C1354 C1355 1.372 . S
C1355 C1354 1.372 . S
C1355 C1356 1.400 . S
C1355 C1360 1.490 . S
C1356 H1346 0.930 . S
C1356 C1355 1.400 . S
C1356 C1359 1.386 . S
H1357 C1373 0.930 . S
H1358 C1374 0.931 . S
C1359 H1347 0.929 . S
C1359 C1353 1.390 . S
C1359 C1356 1.386 . S
C1360 C1355 1.490 . S
C1360 C1362 1.395 . S
C1360 C1363 1.403 . S
H1361 C1367 0.930 . S
C1362 H1348 0.930 . S
C1362 C1360 1.395 . S
C1362 C1365 1.403 . S
C1363 C1360 1.403 . S
C1363 C1364 1.524 . S
C1363 C1367 1.400 . S
C1364 H1349 0.960 . S
C1364 H1350 0.960 . S
C1364 H1351 0.960 . S
C1364 C1363 1.524 . S
C1365 C1362 1.403 . S
C1365 C1366 1.392 . S
C1365 C1369 1.495 . S
C1366 C1365 1.392 . S
C1366 C1367 1.385 . S
C1366 C1368 1.478 . S
C1367 H1361 0.930 . S
C1367 C1363 1.400 . S
C1367 C1366 1.385 . S
C1368 C1366 1.478 . S
C1368 C1370 1.381 . S
C1368 C1374 1.383 . S
C1369 C1365 1.495 . S
C1369 H1375 0.959 . S
C1369 H1376 0.961 1_655 S
C1369 H1377 0.960 . S
C1370 C1368 1.381 . S
C1370 C1371 1.394 . S
C1370 H1378 0.930 . S
C1371 C1370 1.394 . S
C1371 C1372 1.383 . S
C1371 H1379 0.929 . S
C1372 C1371 1.383 . S
C1372 C1373 1.377 . S
C1373 H1357 0.930 . S
C1373 C1372 1.377 . S
C1373 C1374 1.379 . S
C1374 H1358 0.931 . S
C1374 C1368 1.383 . S
C1374 C1373 1.379 . S
H1375 C1369 0.959 . S
H1376 C1369 0.961 1_455 S
H1377 C1369 0.960 . S
H1378 C1370 0.930 . S
H1379 C1371 0.929 . S
H1380 C1388 0.929 . S
H1381 C1390 0.930 . S
H1382 C1392 0.930 . S
H1383 C1395 0.929 . S
H1384 C1398 0.930 . S
H1385 C1400 0.960 . S
H1386 C1400 0.960 . S
H1387 C1400 0.960 . S
C1388 H1380 0.929 . S
C1388 C1389 1.377 . S
C1388 C1390 1.384 . S
C1389 C1388 1.377 . S
C1389 C1395 1.390 . S
C1390 H1381 0.930 . S
C1390 C1388 1.384 . S
C1390 C1391 1.372 . S
C1391 C1390 1.372 . S
C1391 C1392 1.400 . S
C1391 C1396 1.490 . S
C1392 H1382 0.930 . S
C1392 C1391 1.400 . S
C1392 C1395 1.386 . S
H1393 C1409 0.930 . S
H1394 C1410 0.931 . S
C1395 H1383 0.929 . S
C1395 C1389 1.390 . S
C1395 C1392 1.386 . S
C1396 C1391 1.490 . S
C1396 C1398 1.395 . S
C1396 C1399 1.403 . S
H1397 C1403 0.930 . S
C1398 H1384 0.930 . S
C1398 C1396 1.395 . S
C1398 C1401 1.403 . S
C1399 C1396 1.403 . S
C1399 C1400 1.524 . S
C1399 C1403 1.400 . S
C1400 H1385 0.960 . S
C1400 H1386 0.960 . S
C1400 H1387 0.960 . S
C1400 C1399 1.524 . S
C1401 C1398 1.403 . S
C1401 C1402 1.392 . S
C1401 C1405 1.530 . S
C1402 C1401 1.392 . S
C1402 C1403 1.385 . S
C1402 C1404 1.478 . S
C1403 H1397 0.930 . S
C1403 C1399 1.400 . S
C1403 C1402 1.385 . S
C1404 C1402 1.478 . S
C1404 C1406 1.381 . S
C1404 C1410 1.383 . S
C1405 C1401 1.530 . S
C1405 H1411 0.945 1_565 S
C1405 H1412 0.935 1_565 S
C1405 H1413 0.968 . S
C1406 C1404 1.381 . S
C1406 C1407 1.394 . S
C1406 H1414 0.930 . S
C1407 C1406 1.394 . S
C1407 C1408 1.383 . S
C1407 H1415 0.929 . S
C1408 C1407 1.383 . S
C1408 C1409 1.377 . S
C1409 H1393 0.930 . S
C1409 C1408 1.377 . S
C1409 C1410 1.379 . S
C1410 H1394 0.931 . S
C1410 C1404 1.383 . S
C1410 C1409 1.379 . S
H1411 C1405 0.945 1_545 S
H1412 C1405 0.935 1_545 S
H1413 C1405 0.968 . S
H1414 C1406 0.930 . S
H1415 C1407 0.929 . S
H1416 C1424 0.929 . S
H1417 C1426 0.930 . S
H1418 C1428 0.930 . S
H1419 C1431 0.929 . S
H1420 C1434 0.930 . S
H1421 C1436 0.960 . S
H1422 C1436 0.960 . S
H1423 C1436 0.960 . S
C1424 H1416 0.929 . S
C1424 C1425 1.377 . S
C1424 C1426 1.384 . S
C1425 C1424 1.377 . S
C1425 C1431 1.390 . S
C1426 H1417 0.930 . S
C1426 C1424 1.384 . S
C1426 C1427 1.372 . S
C1427 C1426 1.372 . S
C1427 C1428 1.400 . S
C1427 C1432 1.490 . S
C1428 H1418 0.930 . S
C1428 C1427 1.400 . S
C1428 C1431 1.386 . S
H1429 C1445 0.930 . S
H1430 C1446 0.931 . S
C1431 H1419 0.929 . S
C1431 C1425 1.390 . S
C1431 C1428 1.386 . S
C1432 C1427 1.490 . S
C1432 C1434 1.395 . S
C1432 C1435 1.403 . S
H1433 C1439 0.930 . S
C1434 H1420 0.930 . S
C1434 C1432 1.395 . S
C1434 C1437 1.403 . S
C1435 C1432 1.403 . S
C1435 C1436 1.524 . S
C1435 C1439 1.400 . S
C1436 H1421 0.960 . S
C1436 H1422 0.960 . S
C1436 H1423 0.960 . S
C1436 C1435 1.524 . S
C1437 C1434 1.403 . S
C1437 C1438 1.392 . S
C1437 C1441 1.495 . S
C1438 C1437 1.392 . S
C1438 C1439 1.385 . S
C1438 C1440 1.478 . S
C1439 H1433 0.930 . S
C1439 C1435 1.400 . S
C1439 C1438 1.385 . S
C1440 C1438 1.478 . S
C1440 C1442 1.381 . S
C1440 C1446 1.383 . S
C1441 C1437 1.495 . S
C1441 H1447 0.959 . S
C1441 H1448 0.961 . S
C1441 H1449 0.960 . S
C1442 C1440 1.381 . S
C1442 C1443 1.394 . S
C1442 H1450 0.930 . S
C1443 C1442 1.394 . S
C1443 C1444 1.383 . S
C1443 H1451 0.929 . S
C1444 C1443 1.383 . S
C1444 C1445 1.377 . S
C1445 H1429 0.930 . S
C1445 C1444 1.377 . S
C1445 C1446 1.379 . S
C1446 H1430 0.931 . S
C1446 C1440 1.383 . S
C1446 C1445 1.379 . S
H1447 C1441 0.959 . S
H1448 C1441 0.961 . S
H1449 C1441 0.960 . S
H1450 C1442 0.930 . S
H1451 C1443 0.929 . S
H1452 C1460 0.929 . S
H1453 C1462 0.930 . S
H1454 C1464 0.930 . S
H1455 C1467 0.929 . S
H1456 C1470 0.930 . S
H1457 C1472 0.960 . S
H1458 C1472 0.960 . S
H1459 C1472 0.960 . S
C1460 H1452 0.929 . S
C1460 C1461 1.377 . S
C1460 C1462 1.384 . S
C1461 C1460 1.377 . S
C1461 C1467 1.390 . S
C1462 H1453 0.930 . S
C1462 C1460 1.384 . S
C1462 C1463 1.372 . S
C1463 C1462 1.372 . S
C1463 C1464 1.400 . S
C1463 C1468 1.490 . S
C1464 H1454 0.930 . S
C1464 C1463 1.400 . S
C1464 C1467 1.386 . S
H1465 C1481 0.930 . S
H1466 C1482 0.931 . S
C1467 H1455 0.929 . S
C1467 C1461 1.390 . S
C1467 C1464 1.386 . S
C1468 C1463 1.490 . S
C1468 C1470 1.395 . S
C1468 C1471 1.403 . S
H1469 C1475 0.930 . S
C1470 H1456 0.930 . S
C1470 C1468 1.395 . S
C1470 C1473 1.403 . S
C1471 C1468 1.403 . S
C1471 C1472 1.524 . S
C1471 C1475 1.400 . S
C1472 H1457 0.960 . S
C1472 H1458 0.960 . S
C1472 H1459 0.960 . S
C1472 C1471 1.524 . S
C1473 C1470 1.403 . S
C1473 C1474 1.392 . S
C1473 C1477 1.495 . S
C1474 C1473 1.392 . S
C1474 C1475 1.385 . S
C1474 C1476 1.478 . S
C1475 H1469 0.930 . S
C1475 C1471 1.400 . S
C1475 C1474 1.385 . S
C1476 C1474 1.478 . S
C1476 C1478 1.381 . S
C1476 C1482 1.383 . S
C1477 C1473 1.495 . S
C1477 H1483 0.959 . S
C1477 H1484 0.961 . S
C1477 H1485 0.960 . S
C1478 C1476 1.381 . S
C1478 C1479 1.394 . S
C1478 H1486 0.930 . S
C1479 C1478 1.394 . S
C1479 C1480 1.383 . S
C1479 H1487 0.929 . S
C1480 C1479 1.383 . S
C1480 C1481 1.377 . S
C1481 H1465 0.930 . S
C1481 C1480 1.377 . S
C1481 C1482 1.379 . S
C1482 H1466 0.931 . S
C1482 C1476 1.383 . S
C1482 C1481 1.379 . S
H1483 C1477 0.959 . S
H1484 C1477 0.961 . S
H1485 C1477 0.960 . S
H1486 C1478 0.930 . S
H1487 C1479 0.929 . S
C633 C241 2.038 . S
C652 C362 2.113 . S
C688 C446 2.144 . S
C669 C277 2.071 . S
C724 C512 2.134 . S
C705 C169 2.216 . S
C760 C596 2.067 . S
C741 C205 2.194 . S
C796 C351 2.112 1_565 S
C777 C97 1.996 . S
C813 C133 2.120 . S
C832 C435 2.123 . S
C849 C25 2.163 . S
C868 C523 2.098 . S
C885 C61 2.137 . S
C904 C607 2.066 . S
C940 C358 0.478 1_455 S
C921 C211 0.418 . S
C976 C442 0.409 1_545 S
C957 C247 0.368 . S
C1012 C514 0.539 . S
C993 C253 0.465 . S
C1029 C175 0.408 . S
C1048 C598 0.360 . S
C1065 C67 0.499 . S
C1084 C346 0.511 . S
C1120 C430 0.483 . S
C1101 C103 0.466 . S
C1156 C526 0.538 . S
C1137 C109 0.333 . S
C1173 C31 0.528 . S
C1192 C610 0.393 . S
C1209 C181 2.631 . S
C1228 C355 2.705 . S
C1245 C217 2.574 . S
C1264 C439 2.654 . S
C1300 C519 2.651 . S
C1281 C283 2.352 . S
C1336 C603 2.684 . S
C1317 C145 2.483 . S
C1353 C37 2.599 . S
C1372 C344 2.675 . S
C1408 C428 2.615 . S
C1389 C73 2.542 . S
C1444 C530 2.644 . S
C1425 C139 2.392 . S
C1461 C1 2.439 . S
C1480 C614 2.682 . S
