# Generated by pormake.
# Topology zzz, (3,6)-cn, num edge types: 1
# Building blocks:
#     Node 0, Type 0, BuildingBlock: CUQRIR_clean_linker_1, # of connection points: 3
#     Node 1, Type 0, BuildingBlock: CUQRIR_clean_linker_1, # of connection points: 3
#     Node 2, Type 0, BuildingBlock: CUQRIR_clean_linker_1, # of connection points: 3
#     Node 3, Type 0, BuildingBlock: CUQRIR_clean_linker_1, # of connection points: 3
#     Node 4, Type 0, BuildingBlock: CUQRIR_clean_linker_1, # of connection points: 3
#     Node 5, Type 0, BuildingBlock: CUQRIR_clean_linker_1, # of connection points: 3
#     Node 6, Type 0, BuildingBlock: CUQRIR_clean_linker_1, # of connection points: 3
#     Node 7, Type 0, BuildingBlock: CUQRIR_clean_linker_1, # of connection points: 3
#     Node 8, Type 1, BuildingBlock: JUFBIX_clean_sbu_0, # of connection points: 6
#     Node 9, Type 1, BuildingBlock: JUFBIX_clean_sbu_0, # of connection points: 6
#     Node 10, Type 1, BuildingBlock: JUFBIX_clean_sbu_0, # of connection points: 6
#     Node 11, Type 1, BuildingBlock: JUFBIX_clean_sbu_0, # of connection points: 6
#     Edge 12, Type (0, 1), BuildingBlock: TEMPAE_clean_linker_10, # of connection points: 2
#     Edge 13, Type (0, 1), BuildingBlock: TEMPAE_clean_linker_10, # of connection points: 2
#     Edge 14, Type (0, 1), BuildingBlock: TEMPAE_clean_linker_10, # of connection points: 2
#     Edge 15, Type (0, 1), BuildingBlock: TEMPAE_clean_linker_10, # of connection points: 2
#     Edge 16, Type (0, 1), BuildingBlock: TEMPAE_clean_linker_10, # of connection points: 2
#     Edge 17, Type (0, 1), BuildingBlock: TEMPAE_clean_linker_10, # of connection points: 2
#     Edge 18, Type (0, 1), BuildingBlock: TEMPAE_clean_linker_10, # of connection points: 2
#     Edge 19, Type (0, 1), BuildingBlock: TEMPAE_clean_linker_10, # of connection points: 2
#     Edge 20, Type (0, 1), BuildingBlock: TEMPAE_clean_linker_10, # of connection points: 2
#     Edge 21, Type (0, 1), BuildingBlock: TEMPAE_clean_linker_10, # of connection points: 2
#     Edge 22, Type (0, 1), BuildingBlock: TEMPAE_clean_linker_10, # of connection points: 2
#     Edge 23, Type (0, 1), BuildingBlock: TEMPAE_clean_linker_10, # of connection points: 2
#     Edge 24, Type (0, 1), BuildingBlock: TEMPAE_clean_linker_10, # of connection points: 2
#     Edge 25, Type (0, 1), BuildingBlock: TEMPAE_clean_linker_10, # of connection points: 2
#     Edge 26, Type (0, 1), BuildingBlock: TEMPAE_clean_linker_10, # of connection points: 2
#     Edge 27, Type (0, 1), BuildingBlock: TEMPAE_clean_linker_10, # of connection points: 2
#     Edge 28, Type (0, 1), BuildingBlock: TEMPAE_clean_linker_10, # of connection points: 2
#     Edge 29, Type (0, 1), BuildingBlock: TEMPAE_clean_linker_10, # of connection points: 2
#     Edge 30, Type (0, 1), BuildingBlock: TEMPAE_clean_linker_10, # of connection points: 2
#     Edge 31, Type (0, 1), BuildingBlock: TEMPAE_clean_linker_10, # of connection points: 2
#     Edge 32, Type (0, 1), BuildingBlock: TEMPAE_clean_linker_10, # of connection points: 2
#     Edge 33, Type (0, 1), BuildingBlock: TEMPAE_clean_linker_10, # of connection points: 2
#     Edge 34, Type (0, 1), BuildingBlock: TEMPAE_clean_linker_10, # of connection points: 2
#     Edge 35, Type (0, 1), BuildingBlock: TEMPAE_clean_linker_10, # of connection points: 2
# Relax obj value: 0.131
# Max RMSD: 0.179
# Mean RMSD: 0.099
data_MOF--net-zzz--node1-JUFBIX_clean_sbu_0--node2-CUQRIR_clean_linker_1--edge1-TEMPAE_clean_linker_10
_symmetry_space_group_name_H-M    P1
_symmetry_Int_Tables_number       1
_symmetry_cell_setting            triclinic
loop_
_symmetry_equiv_pos_as_xyz
'x, y, z'
_cell_length_a     49.456217
_cell_length_b     49.253443
_cell_length_c     16.032576
_cell_angle_alpha  80.69474
_cell_angle_beta   89.889139
_cell_angle_gamma 91.29654
loop_
_atom_site_label
_atom_site_type_symbol
_atom_site_fract_x
_atom_site_fract_y
_atom_site_fract_z
_atom_type_partial_charge
C0 C 0.77972 0.5017 0.32482 0.0
N1 N 0.80662 0.49707 0.32079 0.0
N2 N 0.7666 0.49297 0.25942 0.0
C3 C 0.76656 0.51601 0.38956 0.0
C4 C 0.78643 0.48318 0.21523 0.0
N5 N 0.81072 0.48572 0.25211 0.0
C6 C 0.78204 0.47231 0.13362 0.0
H7 H 0.76269 0.50086 0.44772 0.0
H8 H 0.74698 0.52483 0.36655 0.0
H9 H 0.7802 0.53251 0.40617 0.0
H10 H 0.78084 0.48992 0.08108 0.0
H11 H 0.76266 0.46043 0.13568 0.0
H12 H 0.79878 0.45895 0.12055 0.0
C13 C 0.00458 0.74153 0.34734 0.0
N14 N 0.00873 0.76917 0.3389 0.0
N15 N 0.01176 0.73236 0.27528 0.0
C16 C 0.99354 0.72355 0.4249 0.0
C17 C 0.0199 0.75535 0.22247 0.0
N18 N 0.01822 0.77761 0.26123 0.0
C19 C 0.02704 0.75643 0.13052 0.0
H20 H 0.99933 0.73199 0.48263 0.0
H21 H 1.00091 0.70226 0.42897 0.0
H22 H 0.97114 0.72282 0.42111 0.0
H23 H 0.01907 0.73813 0.1055 0.0
H24 H 0.04938 0.75722 0.1237 0.0
H25 H 0.01902 0.77524 0.09183 0.0
C26 C 0.7651 0.01322 0.21031 0.0
N27 N 0.73776 0.01508 0.20726 0.0
N28 N 0.77586 0.01764 0.13094 0.0
C29 C 0.78128 0.00828 0.29017 0.0
C30 C 0.75403 0.02189 0.07994 0.0
N31 N 0.73108 0.0205 0.12622 0.0
C32 C 0.75492 0.02513 0.98494 0.0
H33 H 0.77082 0.01645 0.34183 0.0
H34 H 0.80176 0.01793 0.28001 0.0
H35 H 0.7835 0.98578 0.30967 0.0
H36 H 0.77248 0.01446 0.9632 0.0
H37 H 0.75686 0.04734 0.95854 0.0
H38 H 0.7361 0.01686 0.95989 0.0
C39 C 0.50137 0.74142 0.22888 0.0
N40 N 0.50119 0.71388 0.22771 0.0
N41 N 0.50032 0.7557 0.14906 0.0
C42 C 0.50074 0.75435 0.30751 0.0
C43 C 0.49974 0.73592 0.09944 0.0
N44 N 0.50007 0.71059 0.14698 0.0
C45 C 0.50107 0.74148 0.00433 0.0
H46 H 0.49059 0.7404 0.36013 0.0
H47 H 0.49018 0.77423 0.29585 0.0
H48 H 0.52182 0.7584 0.32654 0.0
H49 H 0.51179 0.76134 0.98155 0.0
H50 H 0.4802 0.74268 0.97894 0.0
H51 H 0.51156 0.72477 0.97939 0.0
C52 C 0.23708 0.50371 0.26508 0.0
N53 N 0.21016 0.50817 0.26974 0.0
N54 N 0.25025 0.51229 0.33059 0.0
C55 C 0.25024 0.48974 0.19951 0.0
C56 C 0.23046 0.52183 0.3755 0.0
N57 N 0.20612 0.51929 0.3389 0.0
C58 C 0.23496 0.53258 0.45725 0.0
H59 H 0.2365 0.47356 0.18141 0.0
H60 H 0.26966 0.48058 0.22258 0.0
H61 H 0.25441 0.50521 0.14229 0.0
H62 H 0.2544 0.54434 0.45533 0.0
H63 H 0.23605 0.51491 0.50963 0.0
H64 H 0.2183 0.54601 0.47047 0.0
C65 C 0.034 0.26623 0.2408 0.0
N66 N 0.03191 0.23846 0.24807 0.0
N67 N 0.03344 0.27388 0.31839 0.0
C68 C 0.03739 0.28556 0.15891 0.0
C69 C 0.03076 0.24989 0.37255 0.0
N70 N 0.03 0.22846 0.32987 0.0
C71 C 0.02779 0.24754 0.46696 0.0
H72 H 0.04451 0.30625 0.16951 0.0
H73 H 0.01761 0.28748 0.12617 0.0
H74 H 0.05186 0.27712 0.11731 0.0
H75 H 0.01833 0.2661 0.48424 0.0
H76 H 0.04816 0.24564 0.49589 0.0
H77 H 0.01546 0.22904 0.49346 0.0
C78 C 0.24398 0.99489 0.37126 0.0
N79 N 0.27131 0.99313 0.37488 0.0
N80 N 0.23306 0.99059 0.4504 0.0
C81 C 0.22795 0.9996 0.29105 0.0
C82 C 0.2548 0.98648 0.50187 0.0
N83 N 0.27786 0.98786 0.45606 0.0
C84 C 0.25372 0.98337 0.59682 0.0
H85 H 0.22565 0.02206 0.27107 0.0
H86 H 0.20751 0.98984 0.30096 0.0
H87 H 0.23859 0.99136 0.23981 0.0
H88 H 0.25183 0.96117 0.62348 0.0
H89 H 0.23605 0.99401 0.61805 0.0
H90 H 0.27245 0.99175 0.62208 0.0
C91 C 0.5072 0.26664 0.35706 0.0
N92 N 0.50837 0.2941 0.3594 0.0
N93 N 0.51165 0.252 0.43497 0.0
C94 C 0.50157 0.25412 0.27922 0.0
C95 C 0.51541 0.2715 0.48478 0.0
N96 N 0.51331 0.297 0.4391 0.0
C97 C 0.52047 0.26559 0.57853 0.0
H98 H 0.49235 0.23321 0.29547 0.0
H99 H 0.52095 0.25236 0.24575 0.0
H100 H 0.48803 0.26733 0.23582 0.0
H101 H 0.53165 0.24633 0.59664 0.0
H102 H 0.50073 0.26311 0.61222 0.0
H103 H 0.53208 0.28274 0.59977 0.0
Co104 Co 0.01362 0.01612 0.83281 0.0
C105 C 0.95805 0.0079 0.85761 0.0
Co106 Co 0.99459 0.99149 0.74399 0.0
C107 C 0.02098 0.06423 0.91197 0.0
C108 C 0.04937 0.03324 0.95845 0.0
N109 N 0.02873 0.03863 0.90369 0.0
N110 N 0.03591 0.07486 0.96944 0.0
C111 C 0.05372 0.05551 0.99942 0.0
H112 H 0.00448 0.07479 0.87733 0.0
H113 H 0.06047 0.01433 0.96814 0.0
C114 C 0.05017 0.99978 0.71932 0.0
N115 N 0.97935 0.96905 0.67326 0.0
C116 C 0.98783 0.94401 0.66196 0.0
C117 C 0.95789 0.97396 0.62171 0.0
N118 N 0.9726 0.93311 0.60536 0.0
C119 C 0.95379 0.95196 0.57949 0.0
C120 C 0.99614 0.0463 0.68069 0.0
O121 O 0.04813 0.01317 0.78065 0.0
O122 O 0.02912 0.98819 0.6944 0.0
O123 O 0.98881 0.02313 0.6624 0.0
O124 O 0.00669 0.04761 0.75201 0.0
O125 O 0.9599 0.99514 0.7948 0.0
H126 H 0.94605 0.99239 0.61507 0.0
H127 H 0.00524 0.93418 0.69341 0.0
O128 O 0.97927 0.0188 0.88391 0.0
O129 O 0.02042 0.98416 0.91302 0.0
O130 O 1.00089 0.96013 0.82531 0.0
C131 C 0.01267 0.96102 0.89508 0.0
H132 H 0.06878 0.05743 0.04717 0.0
H133 H 0.93808 0.94989 0.53386 0.0
Co134 Co 0.49347 0.01054 0.84445 0.0
C135 C 0.50314 0.9543 0.87016 0.0
Co136 Co 0.51563 0.99722 0.73816 0.0
C137 C 0.44841 0.01091 0.9598 0.0
C138 C 0.47788 0.04246 0.97233 0.0
N139 N 0.47273 0.02142 0.92997 0.0
N140 N 0.43811 0.02458 0.01886 0.0
C141 C 0.45673 0.0444 0.02703 0.0
H142 H 0.43845 0.99352 0.93836 0.0
H143 H 0.49562 0.05587 0.96282 0.0
C144 C 0.50603 0.05344 0.71265 0.0
N145 N 0.53642 0.98636 0.65259 0.0
C146 C 0.56072 0.99691 0.62276 0.0
C147 C 0.53131 0.96531 0.61023 0.0
N148 N 0.57107 0.98325 0.56373 0.0
C149 C 0.55247 0.9634 0.55554 0.0
C150 C 0.46087 0.99506 0.7164 0.0
O151 O 0.49502 0.04762 0.78544 0.0
O152 O 0.5164 0.03424 0.6796 0.0
O153 O 0.48302 0.99027 0.68162 0.0
O154 O 0.46144 0.00395 0.78642 0.0
O155 O 0.51458 0.96022 0.798 0.0
H156 H 0.5136 0.95187 0.61974 0.0
H157 H 0.57066 0.01432 0.6442 0.0
O158 O 0.49225 0.97342 0.90228 0.0
O159 O 0.52602 0.01704 0.90165 0.0
O160 O 0.54768 0.00426 0.79556 0.0
C161 C 0.54819 0.01273 0.86624 0.0
H162 H 0.45492 0.05974 0.06791 0.0
H163 H 0.55432 0.94806 0.51467 0.0
Co164 Co 0.53127 0.50514 0.79859 0.0
C165 C 0.50588 0.46327 0.91278 0.0
Co166 Co 0.48688 0.50274 0.78477 0.0
C167 C 0.58175 0.50578 0.88864 0.0
C168 C 0.58796 0.51038 0.75489 0.0
N169 N 0.56842 0.50725 0.81453 0.0
N170 N 0.6089 0.50776 0.87782 0.0
C171 C 0.6128 0.5107 0.79346 0.0
H172 H 0.57166 0.50284 0.94949 0.0
H173 H 0.58436 0.51228 0.68769 0.0
C174 C 0.51176 0.5448 0.67142 0.0
N175 N 0.44975 0.50065 0.76899 0.0
C176 C 0.43631 0.5024 0.69499 0.0
C177 C 0.43031 0.49686 0.82898 0.0
N178 N 0.40921 0.49993 0.70627 0.0
C179 C 0.40543 0.49643 0.79075 0.0
C180 C 0.50335 0.53827 0.89187 0.0
O181 O 0.5336 0.53456 0.70316 0.0
O182 O 0.48921 0.53398 0.69853 0.0
O183 O 0.48228 0.52699 0.86579 0.0
O184 O 0.52654 0.53155 0.86945 0.0
O185 O 0.48478 0.47145 0.87194 0.0
H186 H 0.43402 0.49445 0.89621 0.0
H187 H 0.4463 0.50578 0.63394 0.0
O188 O 0.52832 0.47591 0.89347 0.0
O189 O 0.5358 0.47863 0.72694 0.0
O190 O 0.49204 0.47875 0.70401 0.0
C191 C 0.51534 0.46988 0.69053 0.0
H192 H 0.6322 0.51321 0.76149 0.0
H193 H 0.38609 0.49336 0.82298 0.0
Co194 Co 0.00631 0.52472 0.80281 0.0
C195 C 0.04984 0.49918 0.89109 0.0
Co196 Co 0.01044 0.48124 0.78752 0.0
C197 C 0.004 0.56946 0.89687 0.0
C198 C 0.99526 0.58274 0.76616 0.0
N199 N 1.00201 0.56046 0.82184 0.0
N200 N 0.99874 0.59651 0.89064 0.0
C201 C 0.99324 0.60491 0.80816 0.0
H202 H 0.00939 0.55631 0.95493 0.0
H203 H 0.99171 0.58277 0.69959 0.0
C204 C 0.9669 0.50668 0.69921 0.0
N205 N 0.01469 0.4455 0.76854 0.0
C206 C 0.01505 0.43691 0.69269 0.0
C207 C 0.01886 0.42272 0.82548 0.0
N208 N 0.01935 0.40968 0.69975 0.0
C209 C 0.02168 0.40065 0.78342 0.0
C210 C 0.97826 0.48682 0.92251 0.0
O211 O 0.97499 0.52746 0.73119 0.0
O212 O 0.97968 0.48438 0.71601 0.0
O213 O 0.98756 0.4688 0.88238 0.0
O214 O 0.98406 0.51206 0.89754 0.0
O215 O 0.0416 0.47837 0.85959 0.0
H216 H 0.02012 0.42227 0.89305 0.0
H217 H 0.01208 0.45045 0.63333 0.0
O218 O 0.03722 0.52157 0.87379 0.0
O219 O 0.02903 0.53724 0.70753 0.0
O220 O 0.03285 0.49393 0.6933 0.0
C221 C 0.03851 0.51917 0.66788 0.0
H222 H 0.98764 0.62547 0.78009 0.0
H223 H 0.02575 0.37972 0.81216 0.0
C224 C 0.19434 0.96859 0.5337 0.0
C225 C 0.20511 0.99069 0.47635 0.0
C226 C 0.16857 0.96978 0.56968 0.0
C227 C 0.15298 0.99359 0.54702 0.0
C228 C 0.1633 0.01551 0.48601 0.0
C229 C 0.18932 0.01382 0.4516 0.0
C230 C 0.15847 0.94594 0.63433 0.0
C231 C 0.14724 0.04112 0.45935 0.0
C232 C 0.07772 0.98705 0.60034 0.0
C233 C 0.07651 0.99831 0.67537 0.0
C234 C 0.10232 0.98585 0.55711 0.0
C235 C 0.12645 0.9959 0.58989 0.0
C236 C 0.12537 0.00733 0.6655 0.0
C237 C 0.10043 0.0085 0.70706 0.0
C238 C 0.10251 0.9737 0.47646 0.0
C239 C 0.15064 0.01805 0.70305 0.0
H240 H 0.20656 0.95065 0.55219 0.0
H241 H 0.19779 0.03099 0.40785 0.0
H242 H 0.1558 0.95285 0.69631 0.0
H243 H 0.13843 0.93845 0.61551 0.0
H244 H 0.17259 0.9285 0.64248 0.0
H245 H 0.15715 0.05533 0.40672 0.0
H246 H 0.12667 0.03557 0.43923 0.0
H247 H 0.14481 0.05219 0.51382 0.0
H248 H 0.05935 0.97928 0.57489 0.0
H249 H 0.09974 0.01726 0.76485 0.0
H250 H 0.11537 0.95531 0.48434 0.0
H251 H 0.11142 0.9888 0.42421 0.0
H252 H 0.08191 0.96761 0.45779 0.0
H253 H 0.16527 1.00123 0.71811 0.0
H254 H 0.14638 0.0266 0.76161 0.0
H255 H 0.16055 0.03438 0.65649 0.0
C256 C 0.53495 0.20933 0.49133 0.0
C257 C 0.51131 0.22258 0.46138 0.0
C258 C 0.53434 0.18142 0.52835 0.0
C259 C 0.50952 0.16625 0.53412 0.0
C260 C 0.48577 0.17933 0.50022 0.0
C261 C 0.48693 0.20744 0.46494 0.0
C262 C 0.56007 0.16849 0.56441 0.0
C263 C 0.459 0.16388 0.5036 0.0
C264 C 0.5127 0.08787 0.57989 0.0
C265 C 0.50671 0.08224 0.66672 0.0
C266 C 0.51326 0.11501 0.53562 0.0
C267 C 0.50819 0.13718 0.57939 0.0
C268 C 0.50225 0.13162 0.66713 0.0
C269 C 0.50136 0.10427 0.70948 0.0
C270 C 0.51922 0.11995 0.44194 0.0
C271 C 0.49714 0.15463 0.71659 0.0
H272 H 0.55373 0.22122 0.48843 0.0
H273 H 0.46867 0.21787 0.44221 0.0
H274 H 0.55779 0.16223 0.63377 0.0
H275 H 0.56409 0.14964 0.53727 0.0
H276 H 0.57787 0.18276 0.5519 0.0
H277 H 0.443 0.17629 0.46815 0.0
H278 H 0.46114 0.14457 0.47711 0.0
H279 H 0.45231 0.15804 0.57031 0.0
H280 H 0.5167 0.071 0.54613 0.0
H281 H 0.49682 0.10016 0.77658 0.0
H282 H 0.53786 0.13289 0.42869 0.0
H283 H 0.50247 0.13136 0.40734 0.0
H284 H 0.52193 0.10047 0.41665 0.0
H285 H 0.51492 0.16897 0.71134 0.0
H286 H 0.49308 0.14693 0.78457 0.0
H287 H 0.47958 0.16664 0.68987 0.0
C288 C 0.29616 0.52967 0.3516 0.0
C289 C 0.27757 0.50759 0.35874 0.0
C290 C 0.32024 0.52763 0.39844 0.0
C291 C 0.3256 0.50295 0.45414 0.0
C292 C 0.3077 0.47994 0.45656 0.0
C293 C 0.28381 0.4826 0.40888 0.0
C294 C 0.33876 0.55262 0.39346 0.0
C295 C 0.31258 0.45323 0.51475 0.0
C296 C 0.39412 0.49342 0.56309 0.0
C297 C 0.38855 0.501 0.64208 0.0
C298 C 0.37396 0.49403 0.50092 0.0
C299 C 0.3476 0.50244 0.51803 0.0
C300 C 0.34194 0.5103 0.59733 0.0
C301 C 0.36243 0.5095 0.6581 0.0
C302 C 0.38078 0.48547 0.41728 0.0
C303 C 0.31415 0.51952 0.61823 0.0
H304 H 0.29091 0.54908 0.31368 0.0
H305 H 0.26905 0.46579 0.4151 0.0
H306 H 0.33669 0.56164 0.45218 0.0
H307 H 0.36018 0.54685 0.38839 0.0
H308 H 0.33394 0.56864 0.33876 0.0
H309 H 0.299 0.43631 0.50052 0.0
H310 H 0.33387 0.44701 0.50996 0.0
H311 H 0.30896 0.45606 0.58111 0.0
H312 H 0.41411 0.48654 0.5503 0.0
H313 H 0.358 0.51585 0.71814 0.0
H314 H 0.3764 0.50238 0.3648 0.0
H315 H 0.36792 0.46748 0.40779 0.0
H316 H 0.40235 0.47996 0.41313 0.0
H317 H 0.3084 0.53765 0.57173 0.0
H318 H 0.31307 0.52506 0.68261 0.0
H319 H 0.29894 0.5029 0.61395 0.0
C320 C 0.05712 0.30773 0.38891 0.0
C321 C 0.03498 0.30076 0.34194 0.0
C322 C 0.05581 0.32941 0.43562 0.0
C323 C 0.0316 0.34423 0.43568 0.0
C324 C 0.01006 0.3388 0.38201 0.0
C325 C 0.01203 0.31699 0.33568 0.0
C326 C 0.07934 0.33457 0.49125 0.0
C327 C 0.98398 0.3542 0.37969 0.0
C328 C 0.01434 0.36567 0.64605 0.0
C329 C 0.02157 0.39371 0.63216 0.0
C330 C 0.01702 0.3496 0.58197 0.0
C331 C 0.02729 0.36182 0.5017 0.0
C332 C 0.03429 0.39022 0.48666 0.0
C333 C 0.03132 0.40585 0.55207 0.0
C334 C 0.00921 0.31938 0.60069 0.0
C335 C 0.04545 0.40395 0.40223 0.0
H336 H 0.07467 0.29478 0.39409 0.0
H337 H 0.99483 0.31116 0.30012 0.0
H338 H 0.08362 0.35695 0.48712 0.0
H339 H 0.07419 0.32627 0.55806 0.0
H340 H 0.09797 0.32451 0.47402 0.0
H341 H 0.97127 0.35095 0.32494 0.0
H342 H 0.9723 0.34692 0.43854 0.0
H343 H 0.98806 0.37658 0.37661 0.0
H344 H 0.00641 0.35627 0.70719 0.0
H345 H 0.03726 0.42744 0.54106 0.0
H346 H 0.02718 0.30678 0.59408 0.0
H347 H 0.99395 0.31436 0.55454 0.0
H348 H 1.00077 0.31325 0.66544 0.0
H349 H 0.06518 0.39497 0.39019 0.0
H350 H 0.04843 0.42652 0.39909 0.0
H351 H 0.03163 0.40014 0.35073 0.0
C352 C 0.81449 0.03961 0.04712 0.0
C353 C 0.80374 0.01745 0.10428 0.0
C354 C 0.84009 0.03833 0.01014 0.0
C355 C 0.85553 0.01435 0.03155 0.0
C356 C 0.84525 0.99236 0.09232 0.0
C357 C 0.81939 0.99414 0.12779 0.0
C358 C 0.85018 0.06227 0.94584 0.0
C359 C 0.86115 0.96657 0.11765 0.0
C360 C 0.90768 0.99965 0.86986 0.0
C361 C 0.93175 0.00948 0.90174 0.0
C362 C 0.88282 1.00091 0.91183 0.0
C363 C 0.88196 0.01204 0.98799 0.0
C364 C 0.90621 0.02177 0.02085 0.0
C365 C 0.93073 0.02048 0.97727 0.0
C366 C 0.85739 0.99053 0.8742 0.0
C367 C 0.90626 0.03364 0.10199 0.0
H368 H 0.80236 0.05767 0.02954 0.0
H369 H 0.81092 0.97692 0.17135 0.0
H370 H 0.87033 0.06956 0.96438 0.0
H371 H 0.8526 0.05555 0.88349 0.0
H372 H 0.83617 0.07981 0.9386 0.0
H373 H 0.85124 0.95222 0.16996 0.0
H374 H 0.86338 0.95575 0.06255 0.0
H375 H 0.8818 0.97188 0.13769 0.0
H376 H 0.90822 0.99111 0.81169 0.0
H377 H 0.9492 0.02801 1.00285 0.0
H378 H 0.84287 0.00749 0.85998 0.0
H379 H 0.84745 0.97412 0.92039 0.0
H380 H 0.86148 0.98221 0.81513 0.0
H381 H 0.92693 0.03958 0.12049 0.0
H382 H 0.8974 0.01843 0.15403 0.0
H383 H 0.89348 0.05209 0.09493 0.0
C384 C 0.47839 0.79591 0.06793 0.0
C385 C 0.49924 0.78504 0.12126 0.0
C386 C 0.47856 0.82384 0.0315 0.0
C387 C 0.50016 0.84144 0.04888 0.0
C388 C 0.5208 0.83073 0.10537 0.0
C389 C 0.52008 0.80262 0.14095 0.0
C390 C 0.45605 0.83429 0.97219 0.0
C391 C 0.54415 0.84874 0.12579 0.0
C392 C 0.51516 0.9045 0.88208 0.0
C393 C 0.5027 0.92552 0.91659 0.0
C394 C 0.51483 0.87722 0.92505 0.0
C395 C 0.50169 0.87064 0.00465 0.0
C396 C 0.48926 0.89179 0.04019 0.0
C397 C 0.48991 0.91892 0.99585 0.0
C398 C 0.52832 0.85533 0.88474 0.0
C399 C 0.47501 0.88569 0.12472 0.0
H400 H 0.46222 0.78224 0.05334 0.0
H401 H 0.53629 0.79409 0.18168 0.0
H402 H 0.44671 0.8524 0.99276 0.0
H403 H 0.4644 0.84113 0.90773 0.0
H404 H 0.44003 0.81834 0.9688 0.0
H405 H 0.55755 0.8378 0.17508 0.0
H406 H 0.55636 0.85576 0.06786 0.0
H407 H 0.53654 0.86739 0.14787 0.0
H408 H 0.52516 0.90932 0.82108 0.0
H409 H 0.48025 0.93496 0.02329 0.0
H410 H 0.51313 0.83942 0.87344 0.0
H411 H 0.54374 0.84491 0.92799 0.0
H412 H 0.53826 0.86388 0.82363 0.0
H413 H 0.45792 0.87092 0.12149 0.0
H414 H 0.46703 0.90453 0.14493 0.0
H415 H 0.48907 0.87587 0.17376 0.0
C416 C 0.73366 0.52318 0.18006 0.0
C417 C 0.73946 0.49803 0.23007 0.0
C418 C 0.71002 0.52623 0.13125 0.0
C419 C 0.6919 0.50344 0.1324 0.0
C420 C 0.69681 0.47859 0.18789 0.0
C421 C 0.72065 0.47618 0.23586 0.0
C422 C 0.70564 0.55309 0.07329 0.0
C423 C 0.67804 0.45384 0.19157 0.0
C424 C 0.62381 0.51405 0.02142 0.0
C425 C 0.62945 0.5065 0.94242 0.0
C426 C 0.6438 0.51308 0.0842 0.0
C427 C 0.6701 0.50439 0.06771 0.0
C428 C 0.67587 0.49662 0.98836 0.0
C429 C 0.65554 0.49774 0.92699 0.0
C430 C 0.63687 0.52154 0.16791 0.0
C431 C 0.70361 0.48712 0.9681 0.0
H432 H 0.74859 0.53983 0.17486 0.0
H433 H 0.72556 0.45664 0.27368 0.0
H434 H 0.70944 0.55035 0.00696 0.0
H435 H 0.68441 0.55958 0.0774 0.0
H436 H 0.71935 0.56979 0.08834 0.0
H437 H 0.68252 0.43763 0.2461 0.0
H438 H 0.65667 0.45985 0.19604 0.0
H439 H 0.6802 0.44497 0.13261 0.0
H440 H 0.60387 0.52114 0.03383 0.0
H441 H 0.66005 0.4914 0.86701 0.0
H442 H 0.64989 0.53933 0.17815 0.0
H443 H 0.64093 0.50447 0.22023 0.0
H444 H 0.61535 0.52729 0.17155 0.0
H445 H 0.71899 0.5035 0.97337 0.0
H446 H 0.70482 0.48176 0.90351 0.0
H447 H 0.70902 0.46879 0.01435 0.0
C448 C 0.03066 0.69099 0.23446 0.0
C449 C 0.008 0.70556 0.25229 0.0
C450 C 0.02825 0.66937 0.1875 0.0
C451 C 1.00255 0.66259 0.15665 0.0
C452 C 0.97929 0.67579 0.18086 0.0
C453 C 0.98233 0.69717 0.2287 0.0
C454 C 0.05353 0.65562 0.16432 0.0
C455 C 0.95154 0.66924 0.14946 0.0
C456 C 1.00316 0.64156 0.93906 0.0
C457 C 0.9991 0.61294 0.95772 0.0
C458 C 0.0039 0.65784 1.00321 0.0
C459 C 1.00072 0.64525 0.08869 0.0
C460 C 0.99646 0.61642 0.10831 0.0
C461 C 0.99562 0.60062 0.04263 0.0
C462 C 0.00843 0.68858 0.97939 0.0
C463 C 0.99305 0.60224 0.19861 0.0
H464 H 0.05049 0.69794 0.25206 0.0
H465 H 0.96497 0.70891 0.24159 0.0
H466 H 0.05022 0.63302 0.17113 0.0
H467 H 0.05878 0.66328 0.09718 0.0
H468 H 0.071 0.65995 0.204 0.0
H469 H 0.93529 0.6778 0.18476 0.0
H470 H 0.94992 0.67821 0.08159 0.0
H471 H 0.94813 0.64669 0.1549 0.0
H472 H 0.00625 0.65131 0.87416 0.0
H473 H 0.99204 0.57862 0.05798 0.0
H474 H 0.02752 0.69493 0.00781 0.0
H475 H 0.99177 0.69962 0.00476 0.0
H476 H 0.00962 0.69526 0.90988 0.0
H477 H 0.01166 0.60536 0.23477 0.0
H478 H 0.98891 0.57979 0.20314 0.0
H479 H 0.9762 0.61142 0.22943 0.0
C480 C 0.04432 0.18653 0.42124 0.0
C481 C 0.02557 0.20005 0.36521 0.0
C482 C 0.03899 0.15966 0.46269 0.0
C483 C 0.01404 0.14646 0.44875 0.0
C484 C 0.99572 0.15958 0.38841 0.0
C485 C 1.00181 0.18632 0.34689 0.0
C486 C 0.05962 0.14573 0.52338 0.0
C487 C 0.9692 0.14592 0.37092 0.0
C488 C 0.00618 0.07022 0.53558 0.0
C489 C 0.99616 0.07117 0.61668 0.0
C490 C 0.01197 0.09454 0.47927 0.0
C491 C 0.00619 0.12022 0.50353 0.0
C492 C 0.99439 0.12104 0.58369 0.0
C493 C 0.99007 0.09647 0.64009 0.0
C494 C 0.02491 0.09235 0.39538 0.0
C495 C 0.98739 0.14794 0.61135 0.0
H496 H 0.06287 0.1973 0.43359 0.0
H497 H 0.98753 0.19704 0.30282 0.0
H498 H 0.05162 0.14324 0.58893 0.0
H499 H 0.06361 0.12486 0.50913 0.0
H500 H 0.07905 0.15764 0.52045 0.0
H501 H 0.95821 0.15797 0.31746 0.0
H502 H 0.97271 0.12504 0.35611 0.0
H503 H 0.95618 0.14349 0.42822 0.0
H504 H 0.01121 0.05054 0.51818 0.0
H505 H 0.98244 0.09705 0.70325 0.0
H506 H 0.0377 0.0739 0.40046 0.0
H507 H 0.03756 0.11074 0.37023 0.0
H508 H 0.00871 0.08993 0.34934 0.0
H509 H 0.00621 0.15992 0.61936 0.0
H510 H 0.97598 0.14481 0.67203 0.0
H511 H 0.97512 0.1605 0.56227 0.0
C512 C 0.322 0.01026 0.47045 0.0
C513 C 0.30493 0.98704 0.48837 0.0
C514 C 0.3482 0.01012 0.50354 0.0
C515 C 0.35743 0.98606 0.55506 0.0
C516 C 0.34046 0.96222 0.57082 0.0
C517 C 0.31422 0.96308 0.53767 0.0
C518 C 0.36556 0.03604 0.48618 0.0
C519 C 0.34989 0.93602 0.62376 0.0
C520 C 0.43299 0.98244 0.59711 0.0
C521 C 0.43452 0.99117 0.67604 0.0
C522 C 0.40794 0.9799 0.55761 0.0
C523 C 0.38399 0.98659 0.59773 0.0
C524 C 0.3854 0.99485 0.67813 0.0
C525 C 0.4106 0.99696 0.71632 0.0
C526 C 0.40739 0.97108 0.47172 0.0
C527 C 0.36032 1.00206 0.7232 0.0
H528 H 0.3145 0.02868 0.43208 0.0
H529 H 0.30084 0.94514 0.55008 0.0
H530 H 0.36808 0.04475 0.5454 0.0
H531 H 0.38602 0.03138 0.46464 0.0
H532 H 0.35657 0.0519 0.43766 0.0
H533 H 0.33481 0.91885 0.62584 0.0
H534 H 0.36923 0.92975 0.5981 0.0
H535 H 0.35378 0.93956 0.68933 0.0
H536 H 0.45138 0.97793 0.56559 0.0
H537 H 0.41153 0.00359 0.77755 0.0
H538 H 0.38912 0.95829 0.4636 0.0
H539 H 0.42562 0.95932 0.46084 0.0
H540 H 0.40708 0.98966 0.42243 0.0
H541 H 0.35044 0.01983 0.68472 0.0
H542 H 0.36486 0.00738 0.78654 0.0
H543 H 0.34555 0.98453 0.73104 0.0
C544 C 0.49864 0.32742 0.53705 0.0
C545 C 0.51538 0.32276 0.47065 0.0
C546 C 0.5 0.35243 0.56797 0.0
C547 C 0.51796 0.37363 0.52956 0.0
C548 C 0.53461 0.3692 0.46127 0.0
C549 C 0.53341 0.34359 0.43346 0.0
C550 C 0.48232 0.35609 0.6421 0.0
C551 C 0.55358 0.39149 0.41762 0.0
C552 C 0.50005 0.44419 0.57614 0.0
C553 C 0.51815 0.44728 0.64125 0.0
C554 C 0.50089 0.42104 0.53531 0.0
C555 C 0.51957 0.40011 0.56267 0.0
C556 C 0.53832 0.40352 0.62699 0.0
C557 C 0.53765 0.4273 0.66456 0.0
C558 C 0.48127 0.41856 0.46473 0.0
C559 C 0.558 0.38134 0.65972 0.0
H560 H 0.48437 0.31142 0.56445 0.0
H561 H 0.54634 0.33984 0.38207 0.0
H562 H 0.49499 0.36169 0.69408 0.0
H563 H 0.46823 0.37317 0.62317 0.0
H564 H 0.47025 0.33719 0.66671 0.0
H565 H 0.56418 0.38516 0.36294 0.0
H566 H 0.54217 0.4104 0.39513 0.0
H567 H 0.56895 0.39688 0.46283 0.0
H568 H 0.48505 0.45973 0.55782 0.0
H569 H 0.55148 0.42953 0.71557 0.0
H570 H 0.46653 0.40146 0.48517 0.0
H571 H 0.49224 0.41359 0.40886 0.0
H572 H 0.46992 0.43775 0.44543 0.0
H573 H 0.54666 0.36265 0.6903 0.0
H574 H 0.57227 0.38787 0.70653 0.0
H575 H 0.56986 0.37548 0.60689 0.0
C576 C 0.17367 0.50925 0.4557 0.0
C577 C 0.18025 0.52343 0.37533 0.0
C578 C 0.14866 0.51252 0.49298 0.0
C579 C 0.12949 0.53006 0.44784 0.0
C580 C 0.1359 0.54429 0.36593 0.0
C581 C 0.16141 0.54088 0.33061 0.0
C582 C 0.14268 0.4969 0.58046 0.0
C583 C 0.11585 0.5629 0.31581 0.0
C584 C 0.06044 0.50906 0.5373 0.0
C585 C 0.05791 0.52653 0.59763 0.0
C586 C 0.0824 0.51193 0.48108 0.0
C587 C 0.10257 0.53237 0.48687 0.0
C588 C 0.09885 0.55158 0.54262 0.0
C589 C 0.07633 0.54856 0.59709 0.0
C590 C 0.08525 0.49148 0.421 0.0
C591 C 0.11999 0.57354 0.55103 0.0
H592 H 0.18818 0.49533 0.48895 0.0
H593 H 0.16667 0.55166 0.26812 0.0
H594 H 0.13676 0.51135 0.62332 0.0
H595 H 0.12544 0.48225 0.57789 0.0
H596 H 0.1603 0.48514 0.60824 0.0
H597 H 0.12378 0.572 0.25231 0.0
H598 H 0.09681 0.55124 0.30797 0.0
H599 H 0.11065 0.57982 0.35052 0.0
H600 H 0.04593 0.49223 0.53687 0.0
H601 H 0.07437 0.56208 0.64373 0.0
H602 H 0.10083 0.47635 0.44508 0.0
H603 H 0.09202 0.50201 0.35775 0.0
H604 H 0.06598 0.48004 0.41406 0.0
H605 H 0.13746 0.56394 0.58679 0.0
H606 H 0.11203 0.58961 0.58517 0.0
H607 H 0.12757 0.5835 0.48809 0.0
C608 C 0.04426 0.81665 0.18271 0.0
C609 C 0.02001 0.80577 0.22025 0.0
C610 C 0.0455 0.84333 0.13619 0.0
C611 C 0.02182 0.85916 0.12692 0.0
C612 C 0.99754 0.84852 0.16785 0.0
C613 C 0.99696 0.82186 0.21412 0.0
C614 C 0.07177 0.8541 0.09389 0.0
C615 C 0.97181 0.86464 0.15879 0.0
C616 C 0.02456 0.9355 0.03807 0.0
C617 C 0.01678 0.9352 0.95415 0.0
C618 C 0.02695 0.91082 0.09507 0.0
C619 C 0.02151 0.88544 0.06702 0.0
C620 C 0.0144 0.88505 0.98179 0.0
C621 C 0.01208 0.90991 0.92653 0.0
C622 C 0.03434 0.91198 0.18577 0.0
C623 C 0.0086 0.85837 0.94926 0.0
H624 H 0.06199 0.80397 0.18845 0.0
H625 H 0.97823 0.81309 0.24299 0.0
H626 H 0.06964 0.85604 0.02431 0.0
H627 H 0.07675 0.87491 0.1084 0.0
H628 H 0.08887 0.84035 0.11401 0.0
H629 H 0.95553 0.85465 0.20171 0.0
H630 H 0.97562 0.88579 0.17216 0.0
H631 H 0.96451 0.8665 0.09276 0.0
H632 H 0.02818 0.955 0.05974 0.0
H633 H 0.00629 0.9095 0.86155 0.0
H634 H 0.04192 0.93274 0.19435 0.0
H635 H 0.04998 0.89672 0.2081 0.0
H636 H 0.01622 0.90668 0.22651 0.0
H637 H 0.02603 0.84453 0.96182 0.0
H638 H 0.00442 0.86165 0.88033 0.0
H639 H 0.99082 0.8476 0.983 0.0
C640 C 0.69455 0.04527 0.04551 0.0
C641 C 0.70395 0.0213 0.09439 0.0
C642 C 0.6683 0.04606 0.01247 0.0
C643 C 0.65146 0.02212 0.0279 0.0
C644 C 0.66079 0.99805 0.07911 0.0
C645 C 0.687 0.99799 0.1121 0.0
C646 C 0.65874 0.07227 0.95993 0.0
C647 C 0.64355 0.97205 0.09617 0.0
C648 C 0.57592 0.02532 0.98577 0.0
C649 C 0.5745 0.01671 0.90666 0.0
C650 C 0.60093 0.02797 0.02535 0.0
C651 C 0.62494 0.02151 0.98513 0.0
C652 C 0.62363 0.01335 0.90457 0.0
C653 C 0.59847 0.01114 0.86627 0.0
C654 C 0.60137 0.03668 0.11142 0.0
C655 C 0.64878 0.00637 0.85943 0.0
H656 H 0.70785 0.06327 0.03326 0.0
H657 H 0.69459 0.97956 0.15015 0.0
H658 H 0.65491 0.06883 0.89423 0.0
H659 H 0.63934 0.07836 0.98567 0.0
H660 H 0.67371 0.08951 0.95818 0.0
H661 H 0.65262 0.95617 0.14448 0.0
H662 H 0.62307 0.97657 0.11785 0.0
H663 H 0.64106 0.96341 0.03679 0.0
H664 H 0.55748 0.02966 0.01735 0.0
H665 H 0.59761 0.00459 0.80492 0.0
H666 H 0.58314 0.04847 0.12211 0.0
H667 H 0.61964 0.04939 0.12007 0.0
H668 H 0.60153 0.01803 0.1605 0.0
H669 H 0.66344 0.02399 0.85182 0.0
H670 H 0.64431 1.0011 0.79598 0.0
H671 H 0.65876 0.98863 0.89774 0.0
C672 C 0.47911 0.679 0.06046 0.0
C673 C 0.49945 0.68466 0.11617 0.0
C674 C 0.47838 0.65413 0.02853 0.0
C675 C 0.498 0.63412 0.05522 0.0
C676 C 0.51801 0.63935 0.11411 0.0
C677 C 0.5188 0.66482 0.14262 0.0
C678 C 0.45721 0.6497 0.96402 0.0
C679 C 0.53885 0.61826 0.14569 0.0
C680 C 0.48455 0.56193 0.00583 0.0
C681 C 0.50141 0.56219 0.93551 0.0
C682 C 0.48369 0.58502 0.04729 0.0
C683 C 0.49922 0.60901 0.01512 0.0
C684 C 0.51577 0.60937 0.94287 0.0
C685 C 0.51699 0.58579 0.90491 0.0
C686 C 0.46647 0.58371 0.12572 0.0
C687 C 0.53197 0.63478 0.90488 0.0
H688 H 0.46393 0.69425 0.04136 0.0
H689 H 0.53456 0.66934 0.18553 0.0
H690 H 0.4672 0.64753 0.90346 0.0
H691 H 0.44549 0.63037 0.98553 0.0
H692 H 0.44293 0.66697 0.95195 0.0
H693 H 0.55173 0.62474 0.19599 0.0
H694 H 0.52871 0.59828 0.17095 0.0
H695 H 0.55209 0.61479 0.09268 0.0
H696 H 0.47262 0.54355 0.02935 0.0
H697 H 0.52976 0.58599 0.8497 0.0
H698 H 0.45059 0.59941 0.11491 0.0
H699 H 0.47907 0.58851 0.17892 0.0
H700 H 0.45656 0.56316 0.14469 0.0
H701 H 0.51836 0.65246 0.88895 0.0
H702 H 0.54305 0.63189 0.84673 0.0
H703 H 0.54684 0.64029 0.95142 0.0
C704 C 0.85554 0.46434 0.26048 0.0
C705 C 0.83663 0.48169 0.21574 0.0
C706 C 0.88107 0.46105 0.22516 0.0
C707 C 0.88745 0.47533 0.14327 0.0
C708 C 0.86822 0.49279 0.09814 0.0
C709 C 0.84317 0.49593 0.13542 0.0
C710 C 0.90119 0.44251 0.27523 0.0
C711 C 0.87415 0.50846 0.0107 0.0
C712 C 0.95634 0.49676 0.05339 0.0
C713 C 0.95889 0.47938 0.99284 0.0
C714 C 0.93444 0.49369 0.10992 0.0
C715 C 0.91438 0.47315 0.10419 0.0
C716 C 0.91815 0.45402 0.04823 0.0
C717 C 0.94059 0.45723 0.99346 0.0
C718 C 0.93154 0.51403 0.17031 0.0
C719 C 0.89713 0.43194 0.03989 0.0
H720 H 0.8503 0.45353 0.32296 0.0
H721 H 0.82862 0.50979 0.10217 0.0
H722 H 0.90645 0.42561 0.24047 0.0
H723 H 0.92018 0.45423 0.28307 0.0
H724 H 0.89328 0.43337 0.33872 0.0
H725 H 0.85649 0.52016 0.98297 0.0
H726 H 0.89134 0.52316 0.01329 0.0
H727 H 0.88011 0.49404 0.96777 0.0
H728 H 0.97077 0.51366 0.05381 0.0
H729 H 0.94259 0.44375 0.94671 0.0
H730 H 0.92503 0.50336 0.23366 0.0
H731 H 0.91574 0.52898 0.14684 0.0
H732 H 0.95072 0.52567 0.17684 0.0
H733 H 0.8896 0.42194 0.10285 0.0
H734 H 0.90517 0.41591 0.00572 0.0
H735 H 0.8796 0.44144 0.00417 0.0
C736 C 0.01338 0.21921 0.12718 0.0
C737 C 0.03454 0.22158 0.18343 0.0
C738 C 0.01278 0.19781 0.07862 0.0
C739 C 0.03383 0.17846 0.08734 0.0
C740 C 0.05612 0.1821 0.14008 0.0
C741 C 0.05614 0.20362 0.1875 0.0
C742 C 0.98866 0.19471 0.02325 0.0
C743 C 0.07897 0.16204 0.15167 0.0
C744 C 0.02096 0.10326 0.07208 0.0
C745 C 0.03316 0.10126 0.99475 0.0
C746 C 0.01949 0.12873 0.10022 0.0
C747 C 0.03122 0.15257 0.05074 0.0
C748 C 0.04277 0.1507 0.97096 0.0
C749 C 0.04343 0.12498 0.94362 0.0
C750 C 0.00627 0.12997 0.18438 0.0
C751 C 0.05538 0.17558 0.91627 0.0
H752 H 0.99651 0.23295 0.12555 0.0
H753 H 0.07227 0.20551 0.23203 0.0
H754 H 0.99505 0.18921 0.96186 0.0
H755 H 0.9752 0.1778 0.05489 0.0
H756 H 0.97681 0.21383 0.01112 0.0
H757 H 0.09619 0.16959 0.18672 0.0
H758 H 0.07151 0.1421 0.18755 0.0
H759 H 0.08644 0.15811 0.08952 0.0
H760 H 0.01287 0.08475 0.11073 0.0
H761 H 0.05275 0.12315 0.8836 0.0
H762 H 0.9917 0.14695 0.17847 0.0
H763 H 0.02189 0.13429 0.23031 0.0
H764 H 0.99534 0.11045 0.20997 0.0
H765 H 0.04138 0.19308 0.90951 0.0
H766 H 0.06077 0.17137 0.85236 0.0
H767 H 0.07401 0.18208 0.94688 0.0
C768 C 0.30945 0.97475 0.30491 0.0
C769 C 0.29069 0.99554 0.3064 0.0
C770 C 0.33211 0.9788 0.25114 0.0
C771 C 0.33594 0.00421 0.19635 0.0
C772 C 0.31606 0.02466 0.19378 0.0
C773 C 0.29368 0.02011 0.24924 0.0
C774 C 0.35289 0.95658 0.25739 0.0
C775 C 0.31922 0.05196 0.13613 0.0
C776 C 0.40899 0.02664 0.14328 0.0
C777 C 0.41237 0.01964 0.06252 0.0
C778 C 0.38419 0.02202 0.18673 0.0
C779 C 0.36197 0.01024 0.14854 0.0
C780 C 0.36511 0.00333 0.0667 0.0
C781 C 0.39025 0.00803 0.02481 0.0
C782 C 0.38179 0.02966 0.27388 0.0
C783 C 0.34193 0.99086 0.02357 0.0
H784 H 0.30703 0.95578 0.34938 0.0
H785 H 0.27933 0.03629 0.25134 0.0
H786 H 0.35829 0.95236 0.19361 0.0
H787 H 0.37163 0.96366 0.28616 0.0
H788 H 0.34565 0.93709 0.29665 0.0
H789 H 0.30048 0.06409 0.13332 0.0
H790 H 0.33591 0.06416 0.15928 0.0
H791 H 0.32467 0.04885 0.07122 0.0
H792 H 0.42595 0.03536 0.17335 0.0
H793 H 0.39247 1.00293 0.96197 0.0
H794 H 0.37376 0.01189 0.31927 0.0
H795 H 0.36722 0.04653 0.27257 0.0
H796 H 0.40146 0.03652 0.29766 0.0
H797 H 0.33564 0.97078 0.06119 0.0
H798 H 0.34731 0.98758 0.95867 0.0
H799 H 0.32421 0.00442 0.01991 0.0
C800 C 0.48708 0.33773 0.29845 0.0
C801 C 0.50485 0.31652 0.29014 0.0
C802 C 0.48642 0.36172 0.23772 0.0
C803 C 0.50305 0.36407 0.16471 0.0
C804 C 0.51995 0.34201 0.15383 0.0
C805 C 0.52094 0.3187 0.21729 0.0
C806 C 0.4686 0.38492 0.25318 0.0
C807 C 0.53756 0.34335 0.07621 0.0
C808 C 0.4851 0.41758 0.97448 0.0
C809 C 0.50461 0.43843 0.97893 0.0
C810 C 0.48449 0.3932 0.03392 0.0
C811 C 0.50336 0.38987 0.10098 0.0
C812 C 0.5227 0.41117 0.10684 0.0
C813 C 0.52337 0.43498 0.04504 0.0
C814 C 0.46401 0.37077 0.02398 0.0
C815 C 0.54252 0.4089 0.17896 0.0
H816 H 0.47438 0.33589 0.35429 0.0
H817 H 0.53493 0.30251 0.21126 0.0
H818 H 0.48099 0.40403 0.2523 0.0
H819 H 0.4535 0.38911 0.20196 0.0
H820 H 0.45773 0.38027 0.31473 0.0
H821 H 0.54778 0.32363 0.07394 0.0
H822 H 0.52526 0.34857 0.01826 0.0
H823 H 0.55325 0.35986 0.0753 0.0
H824 H 0.47073 0.42001 0.92298 0.0
H825 H 0.53839 0.45109 0.04903 0.0
H826 H 0.45087 0.36633 0.08091 0.0
H827 H 0.47456 0.35152 0.01809 0.0
H828 H 0.45101 0.37636 0.96766 0.0
H829 H 0.5313 0.40608 0.23984 0.0
H830 H 0.55602 0.4274 0.17528 0.0
H831 H 0.55517 0.39057 0.17943 0.0
C832 C 0.16661 0.48567 0.24293 0.0
C833 C 0.18925 0.50192 0.21249 0.0
C834 C 0.14421 0.48291 0.19083 0.0
C835 C 0.14478 0.49622 0.10554 0.0
C836 C 0.16831 0.51137 0.07337 0.0
C837 C 0.1902 0.51415 0.12744 0.0
C838 C 0.11955 0.46671 0.228 0.0
C839 C 0.16988 0.52573 0.98284 0.0
C840 C 0.09223 0.47629 0.95046 0.0
C841 C 0.07381 0.49769 0.94734 0.0
C842 C 0.11541 0.47543 1.00172 0.0
C843 C 0.12006 0.49623 0.052 0.0
C844 C 0.10121 0.51753 0.05034 0.0
C845 C 0.0785 0.51813 0.99767 0.0
C846 C 0.13512 0.45252 1.00113 0.0
C847 C 0.10502 0.53974 0.10439 0.0
H848 H 0.16611 0.47589 0.30851 0.0
H849 H 0.20767 0.52685 0.10429 0.0
H850 H 0.10177 0.48021 0.22299 0.0
H851 H 0.11482 0.44983 0.19182 0.0
H852 H 0.12232 0.45772 0.29551 0.0
H853 H 0.19044 0.53438 0.96546 0.0
H854 H 0.16413 0.51124 0.93925 0.0
H855 H 0.15534 0.54276 0.97316 0.0
H856 H 0.0888 0.46047 0.91164 0.0
H857 H 0.06426 0.53461 0.99636 0.0
H858 H 0.13767 0.44114 0.06611 0.0
H859 H 0.15526 0.46128 0.97925 0.0
H860 H 0.12845 0.43773 0.95942 0.0
H861 H 0.10659 0.53027 0.17179 0.0
H862 H 0.08814 0.55442 0.09782 0.0
H863 H 0.1242 0.55142 0.0869 0.0
C864 C 0.02448 0.80628 0.4129 0.0
C865 C 0.00413 0.78728 0.39948 0.0
C866 C 0.01902 0.82841 0.45485 0.0
C867 C 0.9926 0.83127 0.48591 0.0
C868 C 0.97241 0.81094 0.47797 0.0
C869 C 0.97837 0.78924 0.43406 0.0
C870 C 0.04104 0.8498 0.46017 0.0
C871 C 0.94411 0.81301 0.51128 0.0
C872 C 0.98528 0.88426 0.63265 0.0
C873 C 0.97633 0.90716 0.57673 0.0
C874 C 0.98973 0.85907 0.60488 0.0
C875 C 0.98564 0.8569 0.51878 0.0
C876 C 0.9764 0.87993 0.46227 0.0
C877 C 0.97159 0.90467 0.49215 0.0
C878 C 0.9992 0.83491 0.66729 0.0
C879 C 0.97226 0.87866 0.36968 0.0
H880 H 0.04436 0.80464 0.38581 0.0
H881 H 0.96254 0.77478 0.4224 0.0
H882 H 0.04273 0.85427 0.5256 0.0
H883 H 0.06105 0.84324 0.44009 0.0
H884 H 0.03588 0.86928 0.41875 0.0
H885 H 0.93206 0.79369 0.51136 0.0
H886 H 0.94466 0.81782 0.57652 0.0
H887 H 0.93364 0.83002 0.47117 0.0
H888 H 0.98864 0.88605 0.69833 0.0
H889 H 0.96493 0.92239 0.44868 0.0
H890 H 0.01985 0.82939 0.64994 0.0
H891 H 0.98578 0.81668 0.66517 0.0
H892 H 0.99959 0.83936 0.73305 0.0
H893 H 0.96573 0.89858 0.33354 0.0
H894 H 0.95678 0.86259 0.36237 0.0
H895 H 0.99132 0.87281 0.34133 0.0
C896 C 0.7155 0.98795 0.33292 0.0
C897 C 0.71849 0.01259 0.27608 0.0
C898 C 0.69315 0.98333 0.38847 0.0
C899 C 0.67327 0.00378 0.38631 0.0
C900 C 0.6771 0.02926 0.33187 0.0
C901 C 0.69975 0.03338 0.27804 0.0
C902 C 0.68998 0.95597 0.44577 0.0
C903 C 0.65634 0.05148 0.32602 0.0
C904 C 0.60019 0.98131 0.43922 0.0
C905 C 0.59681 0.98822 0.5201 0.0
C906 C 0.62501 0.98598 0.39579 0.0
C907 C 0.64723 0.99769 0.43413 0.0
C908 C 0.6441 0.00449 0.51611 0.0
C909 C 0.61894 0.99977 0.55795 0.0
C910 C 0.62739 0.97846 0.30847 0.0
C911 C 0.66728 0.01687 0.55944 0.0
H912 H 0.72982 0.97177 0.33046 0.0
H913 H 0.70216 0.0524 0.23382 0.0
H914 H 0.68453 0.95897 0.51077 0.0
H915 H 0.67331 0.9438 0.42241 0.0
H916 H 0.70873 0.94385 0.44841 0.0
H917 H 0.66359 0.07102 0.28705 0.0
H918 H 0.63759 0.04446 0.29712 0.0
H919 H 0.65095 0.05559 0.38993 0.0
H920 H 0.58323 0.97265 0.40905 0.0
H921 H 0.61671 0.00479 0.62089 0.0
H922 H 0.60773 0.97157 0.28471 0.0
H923 H 0.64202 0.96168 0.30943 0.0
H924 H 0.63532 0.99632 0.26324 0.0
H925 H 0.68499 0.0033 0.5629 0.0
H926 H 0.66191 0.02005 0.62443 0.0
H927 H 0.67358 0.03698 0.52206 0.0
C928 C 0.52203 0.69065 0.35967 0.0
C929 C 0.50158 0.69169 0.29897 0.0
C930 C 0.52447 0.66756 0.42343 0.0
C931 C 0.50656 0.64459 0.42479 0.0
C932 C 0.48567 0.64575 0.36403 0.0
C933 C 0.48303 0.66954 0.30346 0.0
C934 C 0.54649 0.66755 0.48845 0.0
C935 C 0.46658 0.62155 0.36131 0.0
C936 C 0.52813 0.57399 0.53694 0.0
C937 C 0.51197 0.57061 0.60982 0.0
C938 C 0.52665 0.59801 0.47602 0.0
C939 C 0.50934 0.61945 0.49013 0.0
C940 C 0.49383 0.61642 0.56554 0.0
C941 C 0.49497 0.59186 0.62359 0.0
C942 C 0.54275 0.59998 0.39514 0.0
C943 C 0.4758 0.63901 0.58462 0.0
H944 H 0.53654 0.70762 0.3558 0.0
H945 H 0.46698 0.6705 0.25725 0.0
H946 H 0.53771 0.66274 0.55306 0.0
H947 H 0.56114 0.65129 0.48195 0.0
H948 H 0.55761 0.68763 0.48202 0.0
H949 H 0.45211 0.62539 0.30801 0.0
H950 H 0.47827 0.60303 0.35475 0.0
H951 H 0.45494 0.61682 0.42129 0.0
H952 H 0.54114 0.55746 0.52616 0.0
H953 H 0.48267 0.58932 0.68055 0.0
H954 H 0.55528 0.6192 0.38457 0.0
H955 H 0.5287 0.60083 0.34096 0.0
H956 H 0.55617 0.58219 0.39535 0.0
H957 H 0.48745 0.65875 0.57879 0.0
H958 H 0.46684 0.63435 0.64909 0.0
H959 H 0.45914 0.64198 0.53808 0.0
C960 C 0.82649 0.4913 0.46318 0.0
C961 C 0.82747 0.50345 0.37805 0.0
C962 C 0.84835 0.49418 0.5173 0.0
C963 C 0.87187 0.50935 0.48511 0.0
C964 C 0.87245 0.52258 0.39975 0.0
C965 C 0.85009 0.51972 0.34758 0.0
C966 C 0.84678 0.47988 0.60788 0.0
C967 C 0.89709 0.53882 0.36257 0.0
C968 C 0.92442 0.52946 0.63997 0.0
C969 C 0.9429 0.5081 0.64306 0.0
C970 C 0.90122 0.53024 0.58882 0.0
C971 C 0.89659 0.50941 0.53866 0.0
C972 C 0.91549 0.48814 0.54034 0.0
C973 C 0.93823 0.48763 0.59285 0.0
C974 C 0.88147 0.55312 0.58936 0.0
C975 C 0.91168 0.46588 0.48646 0.0
H976 H 0.80904 0.47859 0.48635 0.0
H977 H 0.85061 0.52944 0.28194 0.0
H978 H 0.86133 0.46285 0.61769 0.0
H979 H 0.85251 0.4944 0.65139 0.0
H980 H 0.82622 0.47122 0.62527 0.0
H981 H 0.89432 0.54779 0.29505 0.0
H982 H 0.90179 0.55571 0.39871 0.0
H983 H 0.91489 0.52534 0.36763 0.0
H984 H 0.92784 0.54532 0.67869 0.0
H985 H 0.95249 0.47118 0.59416 0.0
H986 H 0.86135 0.54433 0.61131 0.0
H987 H 0.8789 0.56446 0.52435 0.0
H988 H 0.88812 0.56794 0.631 0.0
H989 H 0.89252 0.45419 0.50404 0.0
H990 H 0.92858 0.45122 0.49311 0.0
H991 H 0.91011 0.47531 0.41902 0.0
loop_
_geom_bond_atom_site_label_1
_geom_bond_atom_site_label_2
_geom_bond_distance
_geom_bond_site_symmetry_2
_ccdc_geom_bond_type
C0 N1 1.317 . S
C0 N2 1.348 . S
C0 C3 1.485 . S
N1 C0 1.317 . S
N1 N5 1.370 . S
N2 C0 1.348 . S
N2 C4 1.346 . S
C3 C0 1.485 . S
C3 H7 0.960 . S
C3 H8 0.961 . S
C3 H9 0.960 . S
C4 N2 1.346 . S
C4 N5 1.307 . S
C4 C6 1.486 . S
N5 N1 1.370 . S
N5 C4 1.307 . S
C6 C4 1.486 . S
C6 H10 0.960 1_554 S
C6 H11 0.960 . S
C6 H12 0.959 1_554 S
H7 C3 0.960 . S
H8 C3 0.961 . S
H9 C3 0.960 . S
H10 C6 0.960 1_556 S
H11 C6 0.960 . S
H12 C6 0.959 1_556 S
C13 N14 1.317 . S
C13 N15 1.348 . S
C13 C16 1.485 . S
N14 C13 1.317 . S
N14 N18 1.370 . S
N15 C13 1.348 . S
N15 C17 1.346 . S
C16 C13 1.485 . S
C16 H20 0.960 . S
C16 H21 0.961 . S
C16 H22 0.960 . S
C17 N15 1.346 . S
C17 N18 1.307 . S
C17 C19 1.486 1_554 S
N18 N14 1.370 . S
N18 C17 1.307 . S
C19 C17 1.486 1_556 S
C19 H23 0.960 . S
C19 H24 0.960 . S
C19 H25 0.959 . S
H20 C16 0.960 . S
H21 C16 0.961 . S
H22 C16 0.960 . S
H23 C19 0.960 . S
H24 C19 0.960 . S
H25 C19 0.959 . S
C26 N27 1.317 . S
C26 N28 1.344 . S
C26 C29 1.485 . S
N27 C26 1.317 . S
N27 N31 1.369 . S
N28 C26 1.344 . S
N28 C30 1.349 1_564 S
C29 C26 1.485 . S
C29 H33 0.960 1_565 S
C29 H34 0.961 . S
C29 H35 0.960 . S
C30 N28 1.349 1_546 S
C30 N31 1.308 1_546 S
C30 C32 1.492 . S
N31 N27 1.369 . S
N31 C30 1.308 1_564 S
C32 C30 1.492 . S
C32 H36 0.919 1_545 S
C32 H37 0.989 . S
C32 H38 0.966 . S
H33 C29 0.960 1_545 S
H34 C29 0.961 . S
H35 C29 0.960 . S
H36 C32 0.919 1_565 S
H37 C32 0.989 . S
H38 C32 0.966 . S
C39 N40 1.317 . S
C39 N41 1.348 . S
C39 C42 1.485 . S
N40 C39 1.317 . S
N40 N44 1.370 . S
N41 C39 1.348 . S
N41 C43 1.346 . S
C42 C39 1.485 . S
C42 H46 0.960 . S
C42 H47 0.961 . S
C42 H48 0.960 . S
C43 N41 1.346 . S
C43 N44 1.307 . S
C43 C45 1.486 1_554 S
N44 N40 1.370 . S
N44 C43 1.307 . S
C45 C43 1.486 1_556 S
C45 H49 0.960 . S
C45 H50 0.960 . S
C45 H51 0.959 . S
H46 C42 0.960 . S
H47 C42 0.961 . S
H48 C42 0.960 . S
H49 C45 0.960 . S
H50 C45 0.960 . S
H51 C45 0.959 . S
C52 N53 1.317 . S
C52 N54 1.348 . S
C52 C55 1.485 . S
N53 C52 1.317 . S
N53 N57 1.370 . S
N54 C52 1.348 . S
N54 C56 1.346 . S
C55 C52 1.485 . S
C55 H59 0.960 . S
C55 H60 0.961 . S
C55 H61 0.960 . S
C56 N54 1.346 . S
C56 N57 1.307 . S
C56 C58 1.486 . S
N57 N53 1.370 . S
N57 C56 1.307 . S
C58 C56 1.486 . S
C58 H62 0.960 . S
C58 H63 0.960 . S
C58 H64 0.959 . S
H59 C55 0.960 . S
H60 C55 0.961 . S
H61 C55 0.960 . S
H62 C58 0.960 . S
H63 C58 0.960 . S
H64 C58 0.959 . S
C65 N66 1.317 . S
C65 N67 1.348 . S
C65 C68 1.485 . S
N66 C65 1.317 . S
N66 N70 1.370 . S
N67 C65 1.348 . S
N67 C69 1.346 . S
C68 C65 1.485 . S
C68 H72 0.960 . S
C68 H73 0.961 . S
C68 H74 0.960 . S
C69 N67 1.346 . S
C69 N70 1.307 . S
C69 C71 1.486 . S
N70 N66 1.370 . S
N70 C69 1.307 . S
C71 C69 1.486 . S
C71 H75 0.960 . S
C71 H76 0.960 . S
C71 H77 0.959 . S
H72 C68 0.960 . S
H73 C68 0.961 . S
H74 C68 0.960 . S
H75 C71 0.960 . S
H76 C71 0.960 . S
H77 C71 0.959 . S
C78 N79 1.317 . S
C78 N80 1.354 . S
C78 C81 1.485 . S
N79 C78 1.317 . S
N79 N83 1.371 . S
N80 C78 1.354 . S
N80 C82 1.342 1_565 S
C81 C78 1.485 . S
C81 H85 0.960 1_565 S
C81 H86 0.961 . S
C81 H87 0.960 . S
C82 N80 1.342 1_545 S
C82 N83 1.305 1_545 S
C82 C84 1.488 . S
N83 N79 1.371 . S
N83 C82 1.305 1_565 S
C84 C82 1.488 . S
C84 H88 0.960 1_545 S
C84 H89 0.960 . S
C84 H90 0.959 . S
H85 C81 0.960 1_545 S
H86 C81 0.961 . S
H87 C81 0.960 . S
H88 C84 0.960 1_565 S
H89 C84 0.960 . S
H90 C84 0.959 . S
C91 N92 1.317 . S
C91 N93 1.348 . S
C91 C94 1.485 . S
N92 C91 1.317 . S
N92 N96 1.370 . S
N93 C91 1.348 . S
N93 C95 1.346 . S
C94 C91 1.485 . S
C94 H98 0.960 . S
C94 H99 0.961 . S
C94 H100 0.960 . S
C95 N93 1.346 . S
C95 N96 1.307 . S
C95 C97 1.486 . S
N96 N92 1.370 . S
N96 C95 1.307 . S
C97 C95 1.486 . S
C97 H101 0.960 . S
C97 H102 0.960 . S
C97 H103 0.959 . S
H98 C94 0.960 . S
H99 C94 0.961 . S
H100 C94 0.960 . S
H101 C97 0.960 . S
H102 C97 0.960 . S
H103 C97 0.959 . S
Co104 N109 2.057 . S
Co104 O121 2.021 . S
Co104 O124 2.062 . S
Co104 O128 2.117 1_455 S
Co104 O129 2.020 1_545 S
C105 O125 1.259 1_545 S
C105 O128 1.258 . S
Co106 N115 2.057 . S
Co106 O122 2.117 1_655 S
Co106 O123 2.016 1_665 S
Co106 O125 2.021 . S
Co106 O130 2.062 . S
C107 N109 1.316 . S
C107 N110 1.347 1_556 S
C107 H112 0.931 . S
C108 N109 1.375 1_654 S
C108 C111 1.356 . S
C108 H113 0.930 1_554 S
N109 Co104 2.057 . S
N109 C107 1.316 . S
N109 C108 1.375 1_456 S
N110 C107 1.347 1_554 S
N110 C111 1.354 1_455 S
C111 C108 1.356 . S
C111 N110 1.354 1_655 S
C111 H132 0.942 . S
H112 C107 0.931 . S
H113 C108 0.930 1_556 S
C114 O121 1.259 1_565 S
C114 O122 1.258 . S
N115 Co106 2.057 . S
N115 C116 1.316 . S
N115 C117 1.375 1_655 S
C116 N115 1.316 . S
C116 N118 1.347 . S
C116 H127 0.931 . S
C117 N115 1.375 1_455 S
C117 C119 1.350 . S
C117 H126 0.930 . S
N118 C116 1.347 . S
N118 C119 1.373 1_655 S
C119 C117 1.350 . S
C119 N118 1.373 1_455 S
C119 H133 0.931 . S
C120 O123 1.267 . S
C120 O124 1.255 . S
O121 Co104 2.021 . S
O121 C114 1.259 1_545 S
O122 Co106 2.117 1_455 S
O122 C114 1.258 . S
O123 Co106 2.016 1_445 S
O123 C120 1.267 . S
O124 Co104 2.062 . S
O124 C120 1.255 . S
O125 C105 1.259 1_565 S
O125 Co106 2.021 . S
H126 C117 0.930 . S
H127 C116 0.931 . S
O128 Co104 2.117 1_655 S
O128 C105 1.258 . S
O129 Co104 2.020 1_565 S
O129 C131 1.250 1_455 S
O130 Co106 2.062 . S
O130 C131 1.260 . S
C131 O129 1.250 1_655 S
C131 O130 1.260 . S
H132 C111 0.942 . S
H133 C119 0.931 . S
Co134 N139 2.057 1_545 S
Co134 O151 2.021 . S
Co134 O154 2.069 . S
Co134 O158 2.117 1_545 S
Co134 O159 2.020 . S
C135 O155 1.259 . S
C135 O158 1.258 . S
Co136 N145 2.057 1_565 S
Co136 O152 2.117 1_565 S
Co136 O153 2.020 . S
Co136 O155 2.021 . S
Co136 O160 2.067 . S
C137 N139 1.316 1_544 S
C137 N140 1.347 . S
C137 H142 0.931 1_554 S
C138 N139 1.375 1_554 S
C138 C141 1.350 . S
C138 H143 0.930 . S
N139 Co134 2.057 1_565 S
N139 C137 1.316 1_566 S
N139 C138 1.375 1_556 S
N140 C137 1.347 . S
N140 C141 1.373 1_545 S
C141 C138 1.350 . S
C141 N140 1.373 1_565 S
C141 H162 0.931 . S
H142 C137 0.931 1_556 S
H143 C138 0.930 . S
C144 O151 1.259 . S
C144 O152 1.258 . S
N145 Co136 2.057 1_545 S
N145 C146 1.316 1_545 S
N145 C147 1.375 . S
C146 N145 1.316 1_565 S
C146 N148 1.347 . S
C146 H157 0.931 . S
C147 N145 1.375 . S
C147 C149 1.350 . S
C147 H156 0.930 . S
N148 C146 1.347 . S
N148 C149 1.373 1_565 S
C149 C147 1.350 . S
C149 N148 1.373 1_545 S
C149 H163 0.931 . S
C150 O153 1.256 . S
C150 O154 1.241 1_565 S
O151 Co134 2.021 . S
O151 C144 1.259 . S
O152 Co136 2.117 1_545 S
O152 C144 1.258 . S
O153 Co136 2.020 . S
O153 C150 1.256 . S
O154 Co134 2.069 . S
O154 C150 1.241 1_545 S
O155 C135 1.259 . S
O155 Co136 2.021 . S
H156 C147 0.930 . S
H157 C146 0.931 . S
O158 Co134 2.117 1_565 S
O158 C135 1.258 . S
O159 Co134 2.020 . S
O159 C161 1.256 . S
O160 Co136 2.067 . S
O160 C161 1.245 1_565 S
C161 O159 1.256 . S
C161 O160 1.245 1_545 S
H162 C141 0.931 . S
H163 C149 0.931 . S
Co164 N169 2.057 . S
Co164 O181 2.021 . S
Co164 O184 2.062 . S
Co164 O188 2.117 . S
Co164 O189 2.020 . S
C165 O185 1.259 . S
C165 O188 1.258 . S
Co166 N175 2.057 . S
Co166 O182 2.117 . S
Co166 O183 2.020 . S
Co166 O185 2.021 . S
Co166 O190 2.062 . S
C167 N169 1.316 . S
C167 N170 1.347 . S
C167 H172 0.931 . S
C168 N169 1.375 . S
C168 C171 1.350 . S
C168 H173 0.930 . S
N169 Co164 2.057 . S
N169 C167 1.316 . S
N169 C168 1.375 . S
N170 C167 1.347 . S
N170 C171 1.373 . S
C171 C168 1.350 . S
C171 N170 1.373 . S
C171 H192 0.931 . S
H172 C167 0.931 . S
H173 C168 0.930 . S
C174 O181 1.259 . S
C174 O182 1.258 . S
N175 Co166 2.057 . S
N175 C176 1.316 . S
N175 C177 1.375 . S
C176 N175 1.316 . S
C176 N178 1.347 . S
C176 H187 0.931 . S
C177 N175 1.375 . S
C177 C179 1.350 . S
C177 H186 0.930 . S
N178 C176 1.347 . S
N178 C179 1.373 . S
C179 C177 1.350 . S
C179 N178 1.373 . S
C179 H193 0.931 . S
C180 O183 1.256 . S
C180 O184 1.255 . S
O181 Co164 2.021 . S
O181 C174 1.259 . S
O182 Co166 2.117 . S
O182 C174 1.258 . S
O183 Co166 2.020 . S
O183 C180 1.256 . S
O184 Co164 2.062 . S
O184 C180 1.255 . S
O185 C165 1.259 . S
O185 Co166 2.021 . S
H186 C177 0.930 . S
H187 C176 0.931 . S
O188 Co164 2.117 . S
O188 C165 1.258 . S
O189 Co164 2.020 . S
O189 C191 1.256 . S
O190 Co166 2.062 . S
O190 C191 1.255 . S
C191 O189 1.256 . S
C191 O190 1.255 . S
H192 C171 0.931 . S
H193 C179 0.931 . S
Co194 N199 2.057 . S
Co194 O211 2.021 1_455 S
Co194 O214 2.062 1_455 S
Co194 O218 2.117 . S
Co194 O219 2.020 . S
C195 O215 1.259 . S
C195 O218 1.258 . S
Co196 N205 2.057 . S
Co196 O212 2.117 1_455 S
Co196 O213 2.020 1_455 S
Co196 O215 2.021 . S
Co196 O220 2.062 . S
C197 N199 1.316 1_655 S
C197 N200 1.347 . S
C197 H202 0.931 . S
C198 N199 1.375 . S
C198 C201 1.350 . S
C198 H203 0.930 . S
N199 Co194 2.057 . S
N199 C197 1.316 1_455 S
N199 C198 1.375 . S
N200 C197 1.347 . S
N200 C201 1.373 1_655 S
C201 C198 1.350 . S
C201 N200 1.373 1_455 S
C201 H222 0.931 . S
H202 C197 0.931 . S
H203 C198 0.930 . S
C204 O211 1.259 . S
C204 O212 1.258 . S
N205 Co196 2.057 . S
N205 C206 1.316 . S
N205 C207 1.375 1_455 S
C206 N205 1.316 . S
C206 N208 1.347 . S
C206 H217 0.931 . S
C207 N205 1.375 1_655 S
C207 C209 1.350 . S
C207 H216 0.930 . S
N208 C206 1.347 . S
N208 C209 1.373 1_455 S
C209 C207 1.350 . S
C209 N208 1.373 1_655 S
C209 H223 0.931 . S
C210 O213 1.256 . S
C210 O214 1.255 . S
O211 Co194 2.021 1_655 S
O211 C204 1.259 . S
O212 Co196 2.117 1_655 S
O212 C204 1.258 . S
O213 Co196 2.020 1_655 S
O213 C210 1.256 . S
O214 Co194 2.062 1_655 S
O214 C210 1.255 . S
O215 C195 1.259 . S
O215 Co196 2.021 . S
H216 C207 0.930 . S
H217 C206 0.931 . S
O218 Co194 2.117 . S
O218 C195 1.258 . S
O219 Co194 2.020 . S
O219 C221 1.256 . S
O220 Co196 2.062 . S
O220 C221 1.255 . S
C221 O219 1.256 . S
C221 O220 1.255 . S
H222 C201 0.931 . S
H223 C209 0.931 . S
C224 C225 1.383 1_565 S
C224 C226 1.394 . S
C224 H240 0.931 . S
C225 C224 1.383 1_545 S
C225 C229 1.385 . S
C226 C224 1.394 . S
C226 C227 1.387 . S
C226 C230 1.531 . S
C227 C226 1.387 . S
C227 C228 1.393 1_565 S
C227 C235 1.503 . S
C228 C227 1.393 1_545 S
C228 C229 1.392 . S
C228 C231 1.511 . S
C229 C225 1.385 . S
C229 C228 1.392 . S
C229 H241 0.929 . S
C230 C226 1.531 . S
C230 H242 0.960 . S
C230 H243 0.962 . S
C230 H244 0.960 . S
C231 C228 1.511 . S
C231 H245 0.961 . S
C231 H246 0.961 . S
C231 H247 0.961 . S
C232 C233 1.370 . S
C232 C234 1.363 . S
C232 H248 0.931 . S
C233 C232 1.370 . S
C233 C237 1.408 1_565 S
C234 C232 1.363 . S
C234 C235 1.370 . S
C234 C238 1.524 . S
C235 C227 1.503 . S
C235 C234 1.370 . S
C235 C236 1.403 1_565 S
C236 C235 1.403 1_545 S
C236 C237 1.404 . S
C236 C239 1.539 . S
C237 C233 1.408 1_545 S
C237 C236 1.404 . S
C237 H249 0.930 . S
C238 C234 1.524 . S
C238 H250 0.956 . S
C238 H251 0.961 . S
C238 H252 0.961 . S
C239 C236 1.539 . S
C239 H253 0.958 . S
C239 H254 0.961 . S
C239 H255 0.960 . S
H240 C224 0.931 . S
H241 C229 0.929 . S
H242 C230 0.960 . S
H243 C230 0.962 . S
H244 C230 0.960 . S
H245 C231 0.961 . S
H246 C231 0.961 . S
H247 C231 0.961 . S
H248 C232 0.931 . S
H249 C237 0.930 . S
H250 C238 0.956 . S
H251 C238 0.961 . S
H252 C238 0.961 . S
H253 C239 0.958 . S
H254 C239 0.961 . S
H255 C239 0.960 . S
C256 C257 1.391 . S
C256 C258 1.394 . S
C256 H272 0.931 . S
C257 C256 1.391 . S
C257 C261 1.376 . S
C258 C256 1.394 . S
C258 C259 1.369 . S
C258 C262 1.531 . S
C259 C258 1.369 . S
C259 C260 1.410 . S
C259 C267 1.503 . S
C260 C259 1.410 . S
C260 C261 1.392 . S
C260 C263 1.511 . S
C261 C257 1.376 . S
C261 C260 1.392 . S
C261 H273 0.929 . S
C262 C258 1.531 . S
C262 H274 0.960 . S
C262 H275 0.962 . S
C262 H276 0.960 . S
C263 C260 1.511 . S
C263 H277 0.961 . S
C263 H278 0.961 . S
C263 H279 0.961 . S
C264 C265 1.370 . S
C264 C266 1.363 . S
C264 H280 0.931 . S
C265 C264 1.370 . S
C265 C269 1.408 . S
C266 C264 1.363 . S
C266 C267 1.370 . S
C266 C270 1.524 . S
C267 C259 1.503 . S
C267 C266 1.370 . S
C267 C268 1.403 . S
C268 C267 1.403 . S
C268 C269 1.404 . S
C268 C271 1.539 . S
C269 C265 1.408 . S
C269 C268 1.404 . S
C269 H281 0.930 . S
C270 C266 1.524 . S
C270 H282 0.956 . S
C270 H283 0.961 . S
C270 H284 0.961 . S
C271 C268 1.539 . S
C271 H285 0.958 . S
C271 H286 0.961 . S
C271 H287 0.960 . S
H272 C256 0.931 . S
H273 C261 0.929 . S
H274 C262 0.960 . S
H275 C262 0.962 . S
H276 C262 0.960 . S
H277 C263 0.961 . S
H278 C263 0.961 . S
H279 C263 0.961 . S
H280 C264 0.931 . S
H281 C269 0.930 . S
H282 C270 0.956 . S
H283 C270 0.961 . S
H284 C270 0.961 . S
H285 C271 0.958 . S
H286 C271 0.961 . S
H287 C271 0.960 . S
C288 C289 1.391 . S
C288 C290 1.394 . S
C288 H304 0.931 . S
C289 C288 1.391 . S
C289 C293 1.376 . S
C290 C288 1.394 . S
C290 C291 1.369 . S
C290 C294 1.531 . S
C291 C290 1.369 . S
C291 C292 1.410 . S
C291 C299 1.503 . S
C292 C291 1.410 . S
C292 C293 1.392 . S
C292 C295 1.511 . S
C293 C289 1.376 . S
C293 C292 1.392 . S
C293 H305 0.929 . S
C294 C290 1.531 . S
C294 H306 0.960 . S
C294 H307 0.962 . S
C294 H308 0.960 . S
C295 C292 1.511 . S
C295 H309 0.961 . S
C295 H310 0.961 . S
C295 H311 0.961 . S
C296 C297 1.370 . S
C296 C298 1.363 . S
C296 H312 0.931 . S
C297 C296 1.370 . S
C297 C301 1.408 . S
C298 C296 1.363 . S
C298 C299 1.370 . S
C298 C302 1.524 . S
C299 C291 1.503 . S
C299 C298 1.370 . S
C299 C300 1.403 . S
C300 C299 1.403 . S
C300 C301 1.404 . S
C300 C303 1.539 . S
C301 C297 1.408 . S
C301 C300 1.404 . S
C301 H313 0.930 . S
C302 C298 1.524 . S
C302 H314 0.956 . S
C302 H315 0.961 . S
C302 H316 0.961 . S
C303 C300 1.539 . S
C303 H317 0.958 . S
C303 H318 0.961 . S
C303 H319 0.960 . S
H304 C288 0.931 . S
H305 C293 0.929 . S
H306 C294 0.960 . S
H307 C294 0.962 . S
H308 C294 0.960 . S
H309 C295 0.961 . S
H310 C295 0.961 . S
H311 C295 0.961 . S
H312 C296 0.931 . S
H313 C301 0.930 . S
H314 C302 0.956 . S
H315 C302 0.961 . S
H316 C302 0.961 . S
H317 C303 0.958 . S
H318 C303 0.961 . S
H319 C303 0.960 . S
C320 C321 1.391 . S
C320 C322 1.394 . S
C320 H336 0.931 . S
C321 C320 1.391 . S
C321 C325 1.376 . S
C322 C320 1.394 . S
C322 C323 1.369 . S
C322 C326 1.531 . S
C323 C322 1.369 . S
C323 C324 1.410 . S
C323 C331 1.503 . S
C324 C323 1.410 . S
C324 C325 1.392 . S
C324 C327 1.511 1_455 S
C325 C321 1.376 . S
C325 C324 1.392 . S
C325 H337 0.929 . S
C326 C322 1.531 . S
C326 H338 0.960 . S
C326 H339 0.962 . S
C326 H340 0.960 . S
C327 C324 1.511 1_655 S
C327 H341 0.961 . S
C327 H342 0.961 . S
C327 H343 0.961 . S
C328 C329 1.370 . S
C328 C330 1.363 . S
C328 H344 0.931 . S
C329 C328 1.370 . S
C329 C333 1.408 . S
C330 C328 1.363 . S
C330 C331 1.370 . S
C330 C334 1.524 . S
C331 C323 1.503 . S
C331 C330 1.370 . S
C331 C332 1.403 . S
C332 C331 1.403 . S
C332 C333 1.404 . S
C332 C335 1.539 . S
C333 C329 1.408 . S
C333 C332 1.404 . S
C333 H345 0.930 . S
C334 C330 1.524 . S
C334 H346 0.956 . S
C334 H347 0.961 . S
C334 H348 0.961 . S
C335 C332 1.539 . S
C335 H349 0.958 . S
C335 H350 0.961 . S
C335 H351 0.960 . S
H336 C320 0.931 . S
H337 C325 0.929 . S
H338 C326 0.960 . S
H339 C326 0.962 . S
H340 C326 0.960 . S
H341 C327 0.961 . S
H342 C327 0.961 . S
H343 C327 0.961 . S
H344 C328 0.931 . S
H345 C333 0.930 . S
H346 C334 0.956 . S
H347 C334 0.961 . S
H348 C334 0.961 . S
H349 C335 0.958 . S
H350 C335 0.961 . S
H351 C335 0.960 . S
C352 C353 1.391 1_545 S
C352 C354 1.394 . S
C352 H368 0.931 . S
C353 C352 1.391 1_565 S
C353 C357 1.376 1_554 S
C354 C352 1.394 . S
C354 C355 1.369 1_544 S
C354 C358 1.531 . S
C355 C354 1.369 1_566 S
C355 C356 1.410 . S
C355 C363 1.504 . S
C356 C355 1.410 . S
C356 C357 1.392 . S
C356 C359 1.511 . S
C357 C353 1.376 1_556 S
C357 C356 1.392 . S
C357 H369 0.929 . S
C358 C354 1.531 . S
C358 H370 0.960 . S
C358 H371 0.962 . S
C358 H372 0.960 . S
C359 C356 1.511 . S
C359 H373 0.961 . S
C359 H374 0.961 . S
C359 H375 0.961 . S
C360 C361 1.370 . S
C360 C362 1.363 . S
C360 H376 0.931 . S
C361 C360 1.370 . S
C361 C365 1.408 1_545 S
C362 C360 1.363 . S
C362 C363 1.351 1_545 S
C362 C366 1.524 . S
C363 C355 1.504 . S
C363 C362 1.351 1_565 S
C363 C364 1.422 . S
C364 C363 1.422 . S
C364 C365 1.404 . S
C364 C367 1.539 . S
C365 C361 1.408 1_565 S
C365 C364 1.404 . S
C365 H377 0.930 . S
C366 C362 1.524 . S
C366 H378 0.956 . S
C366 H379 0.961 . S
C366 H380 0.961 . S
C367 C364 1.539 . S
C367 H381 0.958 1_556 S
C367 H382 0.961 . S
C367 H383 0.960 . S
H368 C352 0.931 . S
H369 C357 0.929 . S
H370 C358 0.960 . S
H371 C358 0.962 . S
H372 C358 0.960 . S
H373 C359 0.961 . S
H374 C359 0.961 . S
H375 C359 0.961 . S
H376 C360 0.931 . S
H377 C365 0.930 . S
H378 C366 0.956 . S
H379 C366 0.961 . S
H380 C366 0.961 . S
H381 C367 0.958 1_554 S
H382 C367 0.961 . S
H383 C367 0.960 . S
C384 C385 1.391 . S
C384 C386 1.394 . S
C384 H400 0.931 . S
C385 C384 1.391 . S
C385 C389 1.376 . S
C386 C384 1.394 . S
C386 C387 1.369 . S
C386 C390 1.531 1_554 S
C387 C386 1.369 . S
C387 C388 1.410 . S
C387 C395 1.503 1_554 S
C388 C387 1.410 . S
C388 C389 1.392 . S
C388 C391 1.511 . S
C389 C385 1.376 . S
C389 C388 1.392 . S
C389 H401 0.929 . S
C390 C386 1.531 1_556 S
C390 H402 0.960 . S
C390 H403 0.962 . S
C390 H404 0.960 . S
C391 C388 1.511 . S
C391 H405 0.961 . S
C391 H406 0.961 1_554 S
C391 H407 0.961 . S
C392 C393 1.370 . S
C392 C394 1.363 . S
C392 H408 0.931 . S
C393 C392 1.370 . S
C393 C397 1.408 . S
C394 C392 1.363 . S
C394 C395 1.370 . S
C394 C398 1.524 . S
C395 C387 1.503 1_556 S
C395 C394 1.370 . S
C395 C396 1.403 1_556 S
C396 C395 1.403 1_554 S
C396 C397 1.404 1_554 S
C396 C399 1.539 . S
C397 C393 1.408 . S
C397 C396 1.404 1_556 S
C397 H409 0.930 . S
C398 C394 1.524 . S
C398 H410 0.956 . S
C398 H411 0.961 . S
C398 H412 0.961 . S
C399 C396 1.539 . S
C399 H413 0.958 . S
C399 H414 0.961 . S
C399 H415 0.960 . S
H400 C384 0.931 . S
H401 C389 0.929 . S
H402 C390 0.960 . S
H403 C390 0.962 . S
H404 C390 0.960 . S
H405 C391 0.961 . S
H406 C391 0.961 1_556 S
H407 C391 0.961 . S
H408 C392 0.931 . S
H409 C397 0.930 . S
H410 C398 0.956 . S
H411 C398 0.961 . S
H412 C398 0.961 . S
H413 C399 0.958 . S
H414 C399 0.961 . S
H415 C399 0.960 . S
C416 C417 1.391 . S
C416 C418 1.394 . S
C416 H432 0.931 . S
C417 C416 1.391 . S
C417 C421 1.376 . S
C418 C416 1.394 . S
C418 C419 1.369 . S
C418 C422 1.531 . S
C419 C418 1.369 . S
C419 C420 1.410 . S
C419 C427 1.503 1_554 S
C420 C419 1.410 . S
C420 C421 1.392 . S
C420 C423 1.511 . S
C421 C417 1.376 . S
C421 C420 1.392 . S
C421 H433 0.929 . S
C422 C418 1.531 . S
C422 H434 0.960 1_554 S
C422 H435 0.962 . S
C422 H436 0.960 . S
C423 C420 1.511 . S
C423 H437 0.961 . S
C423 H438 0.960 1_554 S
C423 H439 0.961 1_554 S
C424 C425 1.370 . S
C424 C426 1.363 1_556 S
C424 H440 0.931 1_556 S
C425 C424 1.370 . S
C425 C429 1.408 . S
C426 C424 1.363 1_554 S
C426 C427 1.370 1_554 S
C426 C430 1.524 . S
C427 C419 1.503 1_556 S
C427 C426 1.370 1_556 S
C427 C428 1.403 . S
C428 C427 1.403 . S
C428 C429 1.404 . S
C428 C431 1.539 . S
C429 C425 1.408 . S
C429 C428 1.404 . S
C429 H441 0.930 . S
C430 C426 1.524 . S
C430 H442 0.956 . S
C430 H443 0.961 . S
C430 H444 0.961 . S
C431 C428 1.539 . S
C431 H445 0.958 . S
C431 H446 0.961 . S
C431 H447 0.960 . S
H432 C416 0.931 . S
H433 C421 0.929 . S
H434 C422 0.960 1_556 S
H435 C422 0.962 . S
H436 C422 0.960 . S
H437 C423 0.961 . S
H438 C423 0.960 1_556 S
H439 C423 0.961 1_556 S
H440 C424 0.931 1_554 S
H441 C429 0.930 . S
H442 C430 0.956 . S
H443 C430 0.961 . S
H444 C430 0.961 . S
H445 C431 0.958 . S
H446 C431 0.961 . S
H447 C431 0.960 . S
C448 C449 1.391 1_556 S
C448 C450 1.394 . S
C448 H464 0.931 . S
C449 C448 1.391 1_554 S
C449 C453 1.376 . S
C450 C448 1.394 . S
C450 C451 1.369 . S
C450 C454 1.531 . S
C451 C450 1.369 . S
C451 C452 1.410 1_556 S
C451 C459 1.503 . S
C452 C451 1.410 1_554 S
C452 C453 1.392 . S
C452 C455 1.511 . S
C453 C449 1.376 . S
C453 C452 1.392 . S
C453 H465 0.929 . S
C454 C450 1.531 . S
C454 H466 0.960 . S
C454 H467 0.962 . S
C454 H468 0.960 . S
C455 C452 1.511 . S
C455 H469 0.961 . S
C455 H470 0.961 . S
C455 H471 0.942 1_655 S
C456 C457 1.370 . S
C456 C458 1.363 . S
C456 H472 0.931 . S
C457 C456 1.370 . S
C457 C461 1.408 1_655 S
C458 C456 1.363 . S
C458 C459 1.370 . S
C458 C462 1.524 . S
C459 C451 1.503 . S
C459 C458 1.370 . S
C459 C460 1.403 1_655 S
C460 C459 1.403 1_455 S
C460 C461 1.404 . S
C460 C463 1.539 . S
C461 C457 1.408 1_455 S
C461 C460 1.404 . S
C461 H473 0.930 . S
C462 C458 1.524 . S
C462 H474 0.956 . S
C462 H475 0.961 1_556 S
C462 H476 0.961 . S
C463 C460 1.539 . S
C463 H477 0.958 . S
C463 H478 0.961 . S
C463 H479 0.960 . S
H464 C448 0.931 . S
H465 C453 0.929 . S
H466 C454 0.960 . S
H467 C454 0.962 . S
H468 C454 0.960 . S
H469 C455 0.961 . S
H470 C455 0.961 . S
H471 C455 0.942 1_455 S
H472 C456 0.931 . S
H473 C461 0.930 . S
H474 C462 0.956 . S
H475 C462 0.961 1_554 S
H476 C462 0.961 . S
H477 C463 0.958 . S
H478 C463 0.961 . S
H479 C463 0.960 . S
C480 C481 1.391 . S
C480 C482 1.394 . S
C480 H496 0.931 . S
C481 C480 1.391 . S
C481 C485 1.376 . S
C482 C480 1.394 . S
C482 C483 1.369 . S
C482 C486 1.531 . S
C483 C482 1.369 . S
C483 C484 1.410 . S
C483 C491 1.503 . S
C484 C483 1.410 . S
C484 C485 1.392 . S
C484 C487 1.511 . S
C485 C481 1.376 . S
C485 C484 1.392 . S
C485 H497 0.929 . S
C486 C482 1.531 . S
C486 H498 0.960 . S
C486 H499 0.962 . S
C486 H500 0.960 . S
C487 C484 1.511 . S
C487 H501 0.961 . S
C487 H502 0.961 . S
C487 H503 0.961 1_455 S
C488 C489 1.370 . S
C488 C490 1.363 . S
C488 H504 0.931 . S
C489 C488 1.370 . S
C489 C493 1.408 1_455 S
C490 C488 1.363 . S
C490 C491 1.370 . S
C490 C494 1.524 . S
C491 C483 1.503 . S
C491 C490 1.370 . S
C491 C492 1.375 1_455 S
C492 C491 1.375 1_655 S
C492 C493 1.414 . S
C492 C495 1.559 . S
C493 C489 1.408 1_655 S
C493 C492 1.414 . S
C493 H505 0.930 . S
C494 C490 1.524 . S
C494 H506 0.956 . S
C494 H507 0.961 . S
C494 H508 0.961 . S
C495 C492 1.559 . S
C495 H509 0.958 . S
C495 H510 0.961 . S
C495 H511 0.960 . S
H496 C480 0.931 . S
H497 C485 0.929 . S
H498 C486 0.960 . S
H499 C486 0.962 . S
H500 C486 0.960 . S
H501 C487 0.961 . S
H502 C487 0.961 . S
H503 C487 0.961 1_655 S
H504 C488 0.931 . S
H505 C493 0.930 . S
H506 C494 0.956 . S
H507 C494 0.961 . S
H508 C494 0.961 . S
H509 C495 0.958 . S
H510 C495 0.961 . S
H511 C495 0.960 . S
C512 C513 1.391 . S
C512 C514 1.394 . S
C512 H528 0.931 . S
C513 C512 1.391 . S
C513 C517 1.376 1_545 S
C514 C512 1.394 . S
C514 C515 1.369 . S
C514 C518 1.531 . S
C515 C514 1.369 . S
C515 C516 1.410 1_545 S
C515 C523 1.504 . S
C516 C515 1.410 1_565 S
C516 C517 1.392 . S
C516 C519 1.511 . S
C517 C513 1.376 1_565 S
C517 C516 1.392 . S
C517 H529 0.929 . S
C518 C514 1.531 . S
C518 H530 0.960 . S
C518 H531 0.962 . S
C518 H532 0.960 . S
C519 C516 1.511 . S
C519 H533 0.961 . S
C519 H534 0.961 . S
C519 H535 0.961 . S
C520 C521 1.370 . S
C520 C522 1.363 . S
C520 H536 0.931 . S
C521 C520 1.370 . S
C521 C525 1.408 1_565 S
C522 C520 1.363 . S
C522 C523 1.362 1_565 S
C522 C526 1.524 . S
C523 C515 1.504 . S
C523 C522 1.362 1_545 S
C523 C524 1.411 . S
C524 C523 1.411 . S
C524 C525 1.404 . S
C524 C527 1.539 . S
C525 C521 1.408 1_545 S
C525 C524 1.404 . S
C525 H537 0.930 . S
C526 C522 1.524 . S
C526 H538 0.956 . S
C526 H539 0.961 . S
C526 H540 0.961 . S
C527 C524 1.539 . S
C527 H541 0.958 . S
C527 H542 0.961 . S
C527 H543 0.960 . S
H528 C512 0.931 . S
H529 C517 0.929 . S
H530 C518 0.960 . S
H531 C518 0.962 . S
H532 C518 0.960 . S
H533 C519 0.961 . S
H534 C519 0.961 . S
H535 C519 0.961 . S
H536 C520 0.931 . S
H537 C525 0.930 . S
H538 C526 0.956 . S
H539 C526 0.961 . S
H540 C526 0.961 . S
H541 C527 0.958 . S
H542 C527 0.961 . S
H543 C527 0.960 . S
C544 C545 1.391 . S
C544 C546 1.394 . S
C544 H560 0.931 . S
C545 C544 1.391 . S
C545 C549 1.376 . S
C546 C544 1.394 . S
C546 C547 1.369 . S
C546 C550 1.531 . S
C547 C546 1.369 . S
C547 C548 1.410 . S
C547 C555 1.503 . S
C548 C547 1.410 . S
C548 C549 1.392 . S
C548 C551 1.511 . S
C549 C545 1.376 . S
C549 C548 1.392 . S
C549 H561 0.929 . S
C550 C546 1.531 . S
C550 H562 0.960 . S
C550 H563 0.962 . S
C550 H564 0.960 . S
C551 C548 1.511 . S
C551 H565 0.961 . S
C551 H566 0.961 . S
C551 H567 0.961 . S
C552 C553 1.370 . S
C552 C554 1.363 . S
C552 H568 0.931 . S
C553 C552 1.370 . S
C553 C557 1.408 . S
C554 C552 1.363 . S
C554 C555 1.370 . S
C554 C558 1.524 . S
C555 C547 1.503 . S
C555 C554 1.370 . S
C555 C556 1.403 . S
C556 C555 1.403 . S
C556 C557 1.404 . S
C556 C559 1.539 . S
C557 C553 1.408 . S
C557 C556 1.404 . S
C557 H569 0.930 . S
C558 C554 1.524 . S
C558 H570 0.956 . S
C558 H571 0.961 . S
C558 H572 0.961 . S
C559 C556 1.539 . S
C559 H573 0.958 . S
C559 H574 0.961 . S
C559 H575 0.960 . S
H560 C544 0.931 . S
H561 C549 0.929 . S
H562 C550 0.960 . S
H563 C550 0.962 . S
H564 C550 0.960 . S
H565 C551 0.961 . S
H566 C551 0.961 . S
H567 C551 0.961 . S
H568 C552 0.931 . S
H569 C557 0.930 . S
H570 C558 0.956 . S
H571 C558 0.961 . S
H572 C558 0.961 . S
H573 C559 0.958 . S
H574 C559 0.961 . S
H575 C559 0.960 . S
C576 C577 1.391 . S
C576 C578 1.394 . S
C576 H592 0.931 . S
C577 C576 1.391 . S
C577 C581 1.376 . S
C578 C576 1.394 . S
C578 C579 1.369 . S
C578 C582 1.531 . S
C579 C578 1.369 . S
C579 C580 1.410 . S
C579 C587 1.503 . S
C580 C579 1.410 . S
C580 C581 1.392 . S
C580 C583 1.511 . S
C581 C577 1.376 . S
C581 C580 1.392 . S
C581 H593 0.929 . S
C582 C578 1.531 . S
C582 H594 0.960 . S
C582 H595 0.962 . S
C582 H596 0.960 . S
C583 C580 1.511 . S
C583 H597 0.961 . S
C583 H598 0.961 . S
C583 H599 0.961 . S
C584 C585 1.370 . S
C584 C586 1.363 . S
C584 H600 0.931 . S
C585 C584 1.370 . S
C585 C589 1.408 . S
C586 C584 1.363 . S
C586 C587 1.370 . S
C586 C590 1.524 . S
C587 C579 1.503 . S
C587 C586 1.370 . S
C587 C588 1.403 . S
C588 C587 1.403 . S
C588 C589 1.404 . S
C588 C591 1.539 . S
C589 C585 1.408 . S
C589 C588 1.404 . S
C589 H601 0.930 . S
C590 C586 1.524 . S
C590 H602 0.956 . S
C590 H603 0.961 . S
C590 H604 0.961 . S
C591 C588 1.539 . S
C591 H605 0.958 . S
C591 H606 0.961 . S
C591 H607 0.960 . S
H592 C576 0.931 . S
H593 C581 0.929 . S
H594 C582 0.960 . S
H595 C582 0.962 . S
H596 C582 0.960 . S
H597 C583 0.961 . S
H598 C583 0.961 . S
H599 C583 0.961 . S
H600 C584 0.931 . S
H601 C589 0.930 . S
H602 C590 0.956 . S
H603 C590 0.961 . S
H604 C590 0.961 . S
H605 C591 0.958 . S
H606 C591 0.961 . S
H607 C591 0.960 . S
C608 C609 1.391 1_556 S
C608 C610 1.394 . S
C608 H624 0.931 . S
C609 C608 1.391 1_554 S
C609 C613 1.376 . S
C610 C608 1.394 . S
C610 C611 1.369 . S
C610 C614 1.531 . S
C611 C610 1.369 . S
C611 C612 1.410 1_556 S
C611 C619 1.503 . S
C612 C611 1.410 1_554 S
C612 C613 1.392 . S
C612 C615 1.511 . S
C613 C609 1.376 . S
C613 C612 1.392 . S
C613 H625 0.929 . S
C614 C610 1.531 . S
C614 H626 0.960 . S
C614 H627 0.962 1_655 S
C614 H628 0.960 . S
C615 C612 1.511 . S
C615 H629 0.961 . S
C615 H630 0.961 . S
C615 H631 0.961 . S
C616 C617 1.370 . S
C616 C618 1.363 1_455 S
C616 H632 0.931 . S
C617 C616 1.370 . S
C617 C621 1.408 1_455 S
C618 C616 1.363 1_655 S
C618 C619 1.370 . S
C618 C622 1.524 1_656 S
C619 C611 1.503 . S
C619 C618 1.370 . S
C619 C620 1.403 . S
C620 C619 1.403 . S
C620 C621 1.404 . S
C620 C623 1.539 . S
C621 C617 1.408 1_655 S
C621 C620 1.404 . S
C621 H633 0.930 . S
C622 C618 1.524 1_454 S
C622 H634 0.956 . S
C622 H635 0.961 1_455 S
C622 H636 0.961 . S
C623 C620 1.539 . S
C623 H637 0.958 . S
C623 H638 0.961 . S
C623 H639 0.960 . S
H624 C608 0.931 . S
H625 C613 0.929 . S
H626 C614 0.960 . S
H627 C614 0.962 1_455 S
H628 C614 0.960 . S
H629 C615 0.961 . S
H630 C615 0.961 . S
H631 C615 0.961 . S
H632 C616 0.931 . S
H633 C621 0.930 . S
H634 C622 0.956 . S
H635 C622 0.961 1_655 S
H636 C622 0.961 . S
H637 C623 0.958 . S
H638 C623 0.961 . S
H639 C623 0.960 . S
C640 C641 1.385 1_546 S
C640 C642 1.394 . S
C640 H656 0.931 . S
C641 C640 1.385 1_564 S
C641 C645 1.380 . S
C642 C640 1.394 . S
C642 C643 1.369 1_545 S
C642 C646 1.531 . S
C643 C642 1.369 1_565 S
C643 C644 1.410 1_556 S
C643 C651 1.505 . S
C644 C643 1.410 1_554 S
C644 C645 1.392 . S
C644 C647 1.511 . S
C645 C641 1.380 . S
C645 C644 1.392 . S
C645 H657 0.929 . S
C646 C642 1.531 . S
C646 H658 0.960 . S
C646 H659 0.962 . S
C646 H660 0.960 . S
C647 C644 1.511 . S
C647 H661 0.961 . S
C647 H662 0.961 . S
C647 H663 0.961 . S
C648 C649 1.370 . S
C648 C650 1.363 . S
C648 H664 0.931 . S
C649 C648 1.370 . S
C649 C653 1.408 1_545 S
C650 C648 1.363 . S
C650 C651 1.353 1_545 S
C650 C654 1.524 . S
C651 C643 1.505 . S
C651 C650 1.353 1_565 S
C651 C652 1.418 . S
C652 C651 1.418 . S
C652 C653 1.404 . S
C652 C655 1.539 . S
C653 C649 1.408 1_565 S
C653 C652 1.404 . S
C653 H665 0.930 . S
C654 C650 1.524 . S
C654 H666 0.956 . S
C654 H667 0.961 1_556 S
C654 H668 0.961 . S
C655 C652 1.539 . S
C655 H669 0.958 . S
C655 H670 0.961 . S
C655 H671 0.960 . S
H656 C640 0.931 . S
H657 C645 0.929 . S
H658 C646 0.960 . S
H659 C646 0.962 . S
H660 C646 0.960 . S
H661 C647 0.961 . S
H662 C647 0.961 . S
H663 C647 0.961 . S
H664 C648 0.931 . S
H665 C653 0.930 . S
H666 C654 0.956 . S
H667 C654 0.961 1_554 S
H668 C654 0.961 . S
H669 C655 0.958 . S
H670 C655 0.961 . S
H671 C655 0.960 . S
C672 C673 1.391 1_556 S
C672 C674 1.394 . S
C672 H688 0.931 . S
C673 C672 1.391 1_554 S
C673 C677 1.376 . S
C674 C672 1.394 . S
C674 C675 1.369 . S
C674 C678 1.531 . S
C675 C674 1.369 . S
C675 C676 1.410 1_556 S
C675 C683 1.503 . S
C676 C675 1.410 1_554 S
C676 C677 1.392 . S
C676 C679 1.511 . S
C677 C673 1.376 . S
C677 C676 1.392 . S
C677 H689 0.929 . S
C678 C674 1.531 . S
C678 H690 0.960 . S
C678 H691 0.962 . S
C678 H692 0.960 . S
C679 C676 1.511 . S
C679 H693 0.961 . S
C679 H694 0.961 . S
C679 H695 0.961 . S
C680 C681 1.370 . S
C680 C682 1.363 . S
C680 H696 0.931 . S
C681 C680 1.370 . S
C681 C685 1.408 . S
C682 C680 1.363 . S
C682 C683 1.370 . S
C682 C686 1.524 1_556 S
C683 C675 1.503 . S
C683 C682 1.370 . S
C683 C684 1.403 . S
C684 C683 1.403 . S
C684 C685 1.404 . S
C684 C687 1.539 . S
C685 C681 1.408 . S
C685 C684 1.404 . S
C685 H697 0.930 . S
C686 C682 1.524 1_554 S
C686 H698 0.956 . S
C686 H699 0.961 . S
C686 H700 0.961 . S
C687 C684 1.539 . S
C687 H701 0.958 . S
C687 H702 0.961 . S
C687 H703 0.960 . S
H688 C672 0.931 . S
H689 C677 0.929 . S
H690 C678 0.960 . S
H691 C678 0.962 . S
H692 C678 0.960 . S
H693 C679 0.961 . S
H694 C679 0.961 . S
H695 C679 0.961 . S
H696 C680 0.931 . S
H697 C685 0.930 . S
H698 C686 0.956 . S
H699 C686 0.961 . S
H700 C686 0.961 . S
H701 C687 0.958 . S
H702 C687 0.961 . S
H703 C687 0.960 . S
C704 C705 1.391 . S
C704 C706 1.394 . S
C704 H720 0.931 . S
C705 C704 1.391 . S
C705 C709 1.376 . S
C706 C704 1.394 . S
C706 C707 1.369 . S
C706 C710 1.531 1_554 S
C707 C706 1.369 . S
C707 C708 1.410 . S
C707 C715 1.503 1_554 S
C708 C707 1.410 . S
C708 C709 1.392 . S
C708 C711 1.511 . S
C709 C705 1.376 . S
C709 C708 1.392 . S
C709 H721 0.929 . S
C710 C706 1.531 1_556 S
C710 H722 0.960 . S
C710 H723 0.962 1_556 S
C710 H724 0.960 . S
C711 C708 1.511 . S
C711 H725 0.961 . S
C711 H726 0.961 . S
C711 H727 0.961 . S
C712 C713 1.370 . S
C712 C714 1.363 1_556 S
C712 H728 0.931 1_556 S
C713 C712 1.370 . S
C713 C717 1.408 . S
C714 C712 1.363 1_554 S
C714 C715 1.370 1_554 S
C714 C718 1.524 . S
C715 C707 1.503 1_556 S
C715 C714 1.370 1_556 S
C715 C716 1.403 . S
C716 C715 1.403 . S
C716 C717 1.404 . S
C716 C719 1.539 . S
C717 C713 1.408 . S
C717 C716 1.404 . S
C717 H729 0.930 . S
C718 C714 1.524 . S
C718 H730 0.956 . S
C718 H731 0.961 . S
C718 H732 0.961 . S
C719 C716 1.539 . S
C719 H733 0.958 . S
C719 H734 0.961 . S
C719 H735 0.960 . S
H720 C704 0.931 . S
H721 C709 0.929 . S
H722 C710 0.960 . S
H723 C710 0.962 1_554 S
H724 C710 0.960 . S
H725 C711 0.961 . S
H726 C711 0.961 . S
H727 C711 0.961 . S
H728 C712 0.931 1_554 S
H729 C717 0.930 . S
H730 C718 0.956 . S
H731 C718 0.961 . S
H732 C718 0.961 . S
H733 C719 0.958 . S
H734 C719 0.961 . S
H735 C719 0.960 . S
C736 C737 1.391 . S
C736 C738 1.394 . S
C736 H752 0.931 . S
C737 C736 1.391 . S
C737 C741 1.376 . S
C738 C736 1.394 . S
C738 C739 1.369 . S
C738 C742 1.531 . S
C739 C738 1.369 . S
C739 C740 1.410 . S
C739 C747 1.503 . S
C740 C739 1.410 . S
C740 C741 1.392 . S
C740 C743 1.511 . S
C741 C737 1.376 . S
C741 C740 1.392 . S
C741 H753 0.929 . S
C742 C738 1.531 . S
C742 H754 0.960 . S
C742 H755 0.962 . S
C742 H756 0.960 . S
C743 C740 1.511 . S
C743 H757 0.961 . S
C743 H758 0.961 . S
C743 H759 0.961 . S
C744 C745 1.370 . S
C744 C746 1.363 . S
C744 H760 0.931 . S
C745 C744 1.370 . S
C745 C749 1.408 . S
C746 C744 1.363 . S
C746 C747 1.370 . S
C746 C750 1.524 . S
C747 C739 1.503 . S
C747 C746 1.370 . S
C747 C748 1.403 . S
C748 C747 1.403 . S
C748 C749 1.404 . S
C748 C751 1.539 . S
C749 C745 1.408 . S
C749 C748 1.404 . S
C749 H761 0.930 . S
C750 C746 1.524 . S
C750 H762 0.956 . S
C750 H763 0.961 . S
C750 H764 0.961 . S
C751 C748 1.539 . S
C751 H765 0.958 . S
C751 H766 0.961 . S
C751 H767 0.960 . S
H752 C736 0.931 . S
H753 C741 0.929 . S
H754 C742 0.960 . S
H755 C742 0.962 . S
H756 C742 0.960 . S
H757 C743 0.961 . S
H758 C743 0.961 . S
H759 C743 0.961 . S
H760 C744 0.931 . S
H761 C749 0.930 . S
H762 C750 0.956 . S
H763 C750 0.961 . S
H764 C750 0.961 . S
H765 C751 0.958 . S
H766 C751 0.961 . S
H767 C751 0.960 . S
C768 C769 1.391 1_565 S
C768 C770 1.394 . S
C768 H784 0.931 . S
C769 C768 1.391 1_545 S
C769 C773 1.376 . S
C770 C768 1.394 . S
C770 C771 1.369 1_565 S
C770 C774 1.531 . S
C771 C770 1.369 1_545 S
C771 C772 1.410 . S
C771 C779 1.503 . S
C772 C771 1.410 . S
C772 C773 1.392 . S
C772 C775 1.511 . S
C773 C769 1.376 . S
C773 C772 1.392 . S
C773 H785 0.929 . S
C774 C770 1.531 . S
C774 H786 0.960 . S
C774 H787 0.962 . S
C774 H788 0.960 . S
C775 C772 1.511 . S
C775 H789 0.961 . S
C775 H790 0.961 . S
C775 H791 0.961 . S
C776 C777 1.370 . S
C776 C778 1.363 . S
C776 H792 0.931 1_545 S
C777 C776 1.370 . S
C777 C781 1.408 . S
C778 C776 1.363 . S
C778 C779 1.370 . S
C778 C782 1.524 1_545 S
C779 C771 1.503 . S
C779 C778 1.370 . S
C779 C780 1.403 . S
C780 C779 1.403 . S
C780 C781 1.404 . S
C780 C783 1.539 . S
C781 C777 1.408 . S
C781 C780 1.404 . S
C781 H793 0.930 . S
C782 C778 1.524 1_565 S
C782 H794 0.956 . S
C782 H795 0.961 1_565 S
C782 H796 0.961 . S
C783 C780 1.539 . S
C783 H797 0.958 . S
C783 H798 0.961 . S
C783 H799 0.960 . S
H784 C768 0.931 . S
H785 C773 0.929 . S
H786 C774 0.960 . S
H787 C774 0.962 . S
H788 C774 0.960 . S
H789 C775 0.961 . S
H790 C775 0.961 . S
H791 C775 0.961 . S
H792 C776 0.931 1_565 S
H793 C781 0.930 . S
H794 C782 0.956 . S
H795 C782 0.961 1_545 S
H796 C782 0.961 . S
H797 C783 0.958 . S
H798 C783 0.961 . S
H799 C783 0.960 . S
C800 C801 1.391 . S
C800 C802 1.394 . S
C800 H816 0.931 . S
C801 C800 1.391 . S
C801 C805 1.376 . S
C802 C800 1.394 . S
C802 C803 1.369 . S
C802 C806 1.531 . S
C803 C802 1.369 . S
C803 C804 1.410 . S
C803 C811 1.503 . S
C804 C803 1.410 . S
C804 C805 1.392 . S
C804 C807 1.511 . S
C805 C801 1.376 . S
C805 C804 1.392 . S
C805 H817 0.929 . S
C806 C802 1.531 . S
C806 H818 0.960 . S
C806 H819 0.962 . S
C806 H820 0.960 . S
C807 C804 1.511 . S
C807 H821 0.961 . S
C807 H822 0.961 . S
C807 H823 0.961 . S
C808 C809 1.370 1_556 S
C808 C810 1.363 1_556 S
C808 H824 0.931 . S
C809 C808 1.370 1_554 S
C809 C813 1.408 . S
C810 C808 1.363 1_554 S
C810 C811 1.370 . S
C810 C814 1.524 . S
C811 C803 1.503 . S
C811 C810 1.370 . S
C811 C812 1.403 . S
C812 C811 1.403 . S
C812 C813 1.404 . S
C812 C815 1.539 . S
C813 C809 1.408 . S
C813 C812 1.404 . S
C813 H825 0.930 . S
C814 C810 1.524 . S
C814 H826 0.956 . S
C814 H827 0.961 . S
C814 H828 0.961 1_554 S
C815 C812 1.539 . S
C815 H829 0.958 . S
C815 H830 0.961 . S
C815 H831 0.960 . S
H816 C800 0.931 . S
H817 C805 0.929 . S
H818 C806 0.960 . S
H819 C806 0.962 . S
H820 C806 0.960 . S
H821 C807 0.961 . S
H822 C807 0.961 . S
H823 C807 0.961 . S
H824 C808 0.931 . S
H825 C813 0.930 . S
H826 C814 0.956 . S
H827 C814 0.961 . S
H828 C814 0.961 1_556 S
H829 C815 0.958 . S
H830 C815 0.961 . S
H831 C815 0.960 . S
C832 C833 1.391 . S
C832 C834 1.394 . S
C832 H848 0.931 . S
C833 C832 1.391 . S
C833 C837 1.376 . S
C834 C832 1.394 . S
C834 C835 1.369 . S
C834 C838 1.531 . S
C835 C834 1.369 . S
C835 C836 1.410 . S
C835 C843 1.503 . S
C836 C835 1.410 . S
C836 C837 1.392 . S
C836 C839 1.511 . S
C837 C833 1.376 . S
C837 C836 1.392 . S
C837 H849 0.929 . S
C838 C834 1.531 . S
C838 H850 0.960 . S
C838 H851 0.962 . S
C838 H852 0.960 . S
C839 C836 1.511 . S
C839 H853 0.961 . S
C839 H854 0.961 . S
C839 H855 0.961 . S
C840 C841 1.370 . S
C840 C842 1.363 1_556 S
C840 H856 0.931 . S
C841 C840 1.370 . S
C841 C845 1.408 1_556 S
C842 C840 1.363 1_554 S
C842 C843 1.370 . S
C842 C846 1.524 . S
C843 C835 1.503 . S
C843 C842 1.370 . S
C843 C844 1.403 . S
C844 C843 1.403 . S
C844 C845 1.404 . S
C844 C847 1.539 . S
C845 C841 1.408 1_554 S
C845 C844 1.404 . S
C845 H857 0.930 . S
C846 C842 1.524 . S
C846 H858 0.956 . S
C846 H859 0.961 . S
C846 H860 0.961 1_554 S
C847 C844 1.539 . S
C847 H861 0.958 . S
C847 H862 0.961 . S
C847 H863 0.960 . S
H848 C832 0.931 . S
H849 C837 0.929 . S
H850 C838 0.960 . S
H851 C838 0.962 . S
H852 C838 0.960 . S
H853 C839 0.961 . S
H854 C839 0.961 . S
H855 C839 0.961 . S
H856 C840 0.931 . S
H857 C845 0.930 . S
H858 C846 0.956 . S
H859 C846 0.961 . S
H860 C846 0.961 1_556 S
H861 C847 0.958 . S
H862 C847 0.961 . S
H863 C847 0.960 . S
C864 C865 1.391 . S
C864 C866 1.394 . S
C864 H880 0.931 . S
C865 C864 1.391 . S
C865 C869 1.376 . S
C866 C864 1.394 . S
C866 C867 1.369 . S
C866 C870 1.531 . S
C867 C866 1.369 . S
C867 C868 1.410 . S
C867 C875 1.503 . S
C868 C867 1.410 . S
C868 C869 1.392 . S
C868 C871 1.511 . S
C869 C865 1.376 . S
C869 C868 1.392 . S
C869 H881 0.929 . S
C870 C866 1.531 . S
C870 H882 0.960 . S
C870 H883 0.962 . S
C870 H884 0.960 . S
C871 C868 1.511 . S
C871 H885 0.961 . S
C871 H886 0.961 . S
C871 H887 0.961 . S
C872 C873 1.370 . S
C872 C874 1.363 . S
C872 H888 0.931 1_655 S
C873 C872 1.370 . S
C873 C877 1.408 . S
C874 C872 1.363 . S
C874 C875 1.370 . S
C874 C878 1.524 1_655 S
C875 C867 1.503 . S
C875 C874 1.370 . S
C875 C876 1.403 . S
C876 C875 1.403 . S
C876 C877 1.404 . S
C876 C879 1.539 . S
C877 C873 1.408 . S
C877 C876 1.404 . S
C877 H889 0.930 . S
C878 C874 1.524 1_455 S
C878 H890 0.956 . S
C878 H891 0.961 1_455 S
C878 H892 0.961 . S
C879 C876 1.539 . S
C879 H893 0.958 . S
C879 H894 0.961 . S
C879 H895 0.960 . S
H880 C864 0.931 . S
H881 C869 0.929 . S
H882 C870 0.960 . S
H883 C870 0.962 . S
H884 C870 0.960 . S
H885 C871 0.961 . S
H886 C871 0.961 . S
H887 C871 0.961 . S
H888 C872 0.931 1_455 S
H889 C877 0.930 . S
H890 C878 0.956 . S
H891 C878 0.961 1_655 S
H892 C878 0.961 . S
H893 C879 0.958 . S
H894 C879 0.961 . S
H895 C879 0.960 . S
C896 C897 1.391 . S
C896 C898 1.394 . S
C896 H912 0.931 . S
C897 C896 1.391 . S
C897 C901 1.376 1_565 S
C898 C896 1.394 . S
C898 C899 1.369 . S
C898 C902 1.531 . S
C899 C898 1.369 . S
C899 C900 1.410 1_565 S
C899 C907 1.503 . S
C900 C899 1.410 1_545 S
C900 C901 1.392 . S
C900 C903 1.511 . S
C901 C897 1.376 1_545 S
C901 C900 1.392 . S
C901 H913 0.929 . S
C902 C898 1.531 . S
C902 H914 0.960 . S
C902 H915 0.962 . S
C902 H916 0.960 . S
C903 C900 1.511 . S
C903 H917 0.961 . S
C903 H918 0.961 . S
C903 H919 0.961 . S
C904 C905 1.370 1_545 S
C904 C906 1.363 . S
C904 H920 0.931 . S
C905 C904 1.370 1_565 S
C905 C909 1.408 . S
C906 C904 1.363 . S
C906 C907 1.370 1_545 S
C906 C910 1.524 . S
C907 C899 1.503 . S
C907 C906 1.370 1_565 S
C907 C908 1.403 . S
C908 C907 1.403 . S
C908 C909 1.404 . S
C908 C911 1.539 . S
C909 C905 1.408 . S
C909 C908 1.404 . S
C909 H921 0.930 . S
C910 C906 1.524 . S
C910 H922 0.956 . S
C910 H923 0.961 . S
C910 H924 0.961 . S
C911 C908 1.539 . S
C911 H925 0.958 . S
C911 H926 0.961 . S
C911 H927 0.960 . S
H912 C896 0.931 . S
H913 C901 0.929 . S
H914 C902 0.960 . S
H915 C902 0.962 . S
H916 C902 0.960 . S
H917 C903 0.961 . S
H918 C903 0.961 . S
H919 C903 0.961 . S
H920 C904 0.931 . S
H921 C909 0.930 . S
H922 C910 0.956 . S
H923 C910 0.961 . S
H924 C910 0.961 . S
H925 C911 0.958 . S
H926 C911 0.961 . S
H927 C911 0.960 . S
C928 C929 1.391 . S
C928 C930 1.394 . S
C928 H944 0.931 . S
C929 C928 1.391 . S
C929 C933 1.376 . S
C930 C928 1.394 . S
C930 C931 1.369 . S
C930 C934 1.531 . S
C931 C930 1.369 . S
C931 C932 1.410 . S
C931 C939 1.503 . S
C932 C931 1.410 . S
C932 C933 1.392 . S
C932 C935 1.511 . S
C933 C929 1.376 . S
C933 C932 1.392 . S
C933 H945 0.929 . S
C934 C930 1.531 . S
C934 H946 0.960 . S
C934 H947 0.962 . S
C934 H948 0.960 . S
C935 C932 1.511 . S
C935 H949 0.961 . S
C935 H950 0.961 . S
C935 H951 0.961 . S
C936 C937 1.370 . S
C936 C938 1.363 . S
C936 H952 0.931 . S
C937 C936 1.370 . S
C937 C941 1.408 . S
C938 C936 1.363 . S
C938 C939 1.370 . S
C938 C942 1.524 . S
C939 C931 1.503 . S
C939 C938 1.370 . S
C939 C940 1.403 . S
C940 C939 1.403 . S
C940 C941 1.404 . S
C940 C943 1.539 . S
C941 C937 1.408 . S
C941 C940 1.404 . S
C941 H953 0.930 . S
C942 C938 1.524 . S
C942 H954 0.956 . S
C942 H955 0.961 . S
C942 H956 0.961 . S
C943 C940 1.539 . S
C943 H957 0.958 . S
C943 H958 0.961 . S
C943 H959 0.960 . S
H944 C928 0.931 . S
H945 C933 0.929 . S
H946 C934 0.960 . S
H947 C934 0.962 . S
H948 C934 0.960 . S
H949 C935 0.961 . S
H950 C935 0.961 . S
H951 C935 0.961 . S
H952 C936 0.931 . S
H953 C941 0.930 . S
H954 C942 0.956 . S
H955 C942 0.961 . S
H956 C942 0.961 . S
H957 C943 0.958 . S
H958 C943 0.961 . S
H959 C943 0.960 . S
C960 C961 1.391 . S
C960 C962 1.394 . S
C960 H976 0.931 . S
C961 C960 1.391 . S
C961 C965 1.376 . S
C962 C960 1.394 . S
C962 C963 1.369 . S
C962 C966 1.531 . S
C963 C962 1.369 . S
C963 C964 1.410 . S
C963 C971 1.503 . S
C964 C963 1.410 . S
C964 C965 1.392 . S
C964 C967 1.511 . S
C965 C961 1.376 . S
C965 C964 1.392 . S
C965 H977 0.929 . S
C966 C962 1.531 . S
C966 H978 0.960 . S
C966 H979 0.962 . S
C966 H980 0.960 . S
C967 C964 1.511 . S
C967 H981 0.961 . S
C967 H982 0.961 . S
C967 H983 0.961 . S
C968 C969 1.370 . S
C968 C970 1.363 . S
C968 H984 0.931 . S
C969 C968 1.370 . S
C969 C973 1.408 . S
C970 C968 1.363 . S
C970 C971 1.370 . S
C970 C974 1.524 . S
C971 C963 1.503 . S
C971 C970 1.370 . S
C971 C972 1.403 . S
C972 C971 1.403 . S
C972 C973 1.404 . S
C972 C975 1.539 . S
C973 C969 1.408 . S
C973 C972 1.404 . S
C973 H985 0.930 . S
C974 C970 1.524 . S
C974 H986 0.956 . S
C974 H987 0.961 . S
C974 H988 0.961 . S
C975 C972 1.539 . S
C975 H989 0.958 . S
C975 H990 0.961 . S
C975 H991 0.960 . S
H976 C960 0.931 . S
H977 C965 0.929 . S
H978 C966 0.960 . S
H979 C966 0.962 . S
H980 C966 0.960 . S
H981 C967 0.961 . S
H982 C967 0.961 . S
H983 C967 0.961 . S
H984 C968 0.931 . S
H985 C973 0.930 . S
H986 C974 0.956 . S
H987 C974 0.961 . S
H988 C974 0.961 . S
H989 C975 0.958 . S
H990 C975 0.961 . S
H991 C975 0.960 . S
C225 N80 1.687 1_545 S
C233 C114 1.700 . S
C265 C144 1.819 . S
C257 N93 1.787 . S
C297 N178 1.376 . S
C289 N54 1.382 . S
C329 N208 1.367 . S
C321 N67 1.426 . S
C361 C105 1.698 . S
C353 N28 1.702 . S
C385 N41 1.814 . S
C393 C135 1.822 . S
C417 N2 1.386 . S
C425 N170 1.377 . S
C449 N15 1.396 . S
C457 N200 1.370 . S
C489 C120 0.424 . S
C481 N70 0.337 . S
C521 C150 0.755 . S
C513 N83 0.781 1_545 S
C553 C191 1.046 . S
C545 N96 1.033 . S
C577 N57 0.560 . S
C585 C221 0.595 . S
C609 N18 0.473 . S
C617 C131 0.363 1_455 S
C649 C161 0.758 . S
C641 N31 0.778 . S
C681 C180 1.036 . S
C673 N44 1.059 . S
C705 N5 0.586 . S
C713 C210 0.576 . S
C737 N66 1.500 . S
C745 N110 1.466 . S
C769 N79 1.472 1_545 S
C777 N140 1.435 . S
C809 C165 1.657 1_554 S
C801 N92 1.637 . S
C841 C195 1.600 . S
C833 N53 1.588 . S
C865 N14 1.490 . S
C873 N118 1.473 . S
C905 N148 1.436 . S
C897 N27 1.461 . S
C937 C174 1.654 . S
C929 N40 1.656 . S
C961 N1 1.593 . S
C969 C204 1.598 . S
