# Generated by pormake.
# Topology ctn, (3,4)-cn, num edge types: 1
# Building blocks:
#     Node 0, Type 0, BuildingBlock: VETTIZ_charged_linker_0, # of connection points: 3
#     Node 1, Type 0, BuildingBlock: VETTIZ_charged_linker_0, # of connection points: 3
#     Node 2, Type 0, BuildingBlock: VETTIZ_charged_linker_0, # of connection points: 3
#     Node 3, Type 0, BuildingBlock: VETTIZ_charged_linker_0, # of connection points: 3
#     Node 4, Type 0, BuildingBlock: VETTIZ_charged_linker_0, # of connection points: 3
#     Node 5, Type 0, BuildingBlock: VETTIZ_charged_linker_0, # of connection points: 3
#     Node 6, Type 0, BuildingBlock: VETTIZ_charged_linker_0, # of connection points: 3
#     Node 7, Type 0, BuildingBlock: VETTIZ_charged_linker_0, # of connection points: 3
#     Node 8, Type 0, BuildingBlock: VETTIZ_charged_linker_0, # of connection points: 3
#     Node 9, Type 0, BuildingBlock: VETTIZ_charged_linker_0, # of connection points: 3
#     Node 10, Type 0, BuildingBlock: VETTIZ_charged_linker_0, # of connection points: 3
#     Node 11, Type 0, BuildingBlock: VETTIZ_charged_linker_0, # of connection points: 3
#     Node 12, Type 0, BuildingBlock: VETTIZ_charged_linker_0, # of connection points: 3
#     Node 13, Type 0, BuildingBlock: VETTIZ_charged_linker_0, # of connection points: 3
#     Node 14, Type 0, BuildingBlock: VETTIZ_charged_linker_0, # of connection points: 3
#     Node 15, Type 0, BuildingBlock: VETTIZ_charged_linker_0, # of connection points: 3
#     Node 16, Type 1, BuildingBlock: KUFVIS_clean_sbu_0, # of connection points: 4
#     Node 17, Type 1, BuildingBlock: KUFVIS_clean_sbu_0, # of connection points: 4
#     Node 18, Type 1, BuildingBlock: KUFVIS_clean_sbu_0, # of connection points: 4
#     Node 19, Type 1, BuildingBlock: KUFVIS_clean_sbu_0, # of connection points: 4
#     Node 20, Type 1, BuildingBlock: KUFVIS_clean_sbu_0, # of connection points: 4
#     Node 21, Type 1, BuildingBlock: KUFVIS_clean_sbu_0, # of connection points: 4
#     Node 22, Type 1, BuildingBlock: KUFVIS_clean_sbu_0, # of connection points: 4
#     Node 23, Type 1, BuildingBlock: KUFVIS_clean_sbu_0, # of connection points: 4
#     Node 24, Type 1, BuildingBlock: KUFVIS_clean_sbu_0, # of connection points: 4
#     Node 25, Type 1, BuildingBlock: KUFVIS_clean_sbu_0, # of connection points: 4
#     Node 26, Type 1, BuildingBlock: KUFVIS_clean_sbu_0, # of connection points: 4
#     Node 27, Type 1, BuildingBlock: KUFVIS_clean_sbu_0, # of connection points: 4
#     Edge 28, Type (0, 1), BuildingBlock: KIFKEQ_clean_linker_1, # of connection points: 2
#     Edge 29, Type (0, 1), BuildingBlock: KIFKEQ_clean_linker_1, # of connection points: 2
#     Edge 30, Type (0, 1), BuildingBlock: KIFKEQ_clean_linker_1, # of connection points: 2
#     Edge 31, Type (0, 1), BuildingBlock: KIFKEQ_clean_linker_1, # of connection points: 2
#     Edge 32, Type (0, 1), BuildingBlock: KIFKEQ_clean_linker_1, # of connection points: 2
#     Edge 33, Type (0, 1), BuildingBlock: KIFKEQ_clean_linker_1, # of connection points: 2
#     Edge 34, Type (0, 1), BuildingBlock: KIFKEQ_clean_linker_1, # of connection points: 2
#     Edge 35, Type (0, 1), BuildingBlock: KIFKEQ_clean_linker_1, # of connection points: 2
#     Edge 36, Type (0, 1), BuildingBlock: KIFKEQ_clean_linker_1, # of connection points: 2
#     Edge 37, Type (0, 1), BuildingBlock: KIFKEQ_clean_linker_1, # of connection points: 2
#     Edge 38, Type (0, 1), BuildingBlock: KIFKEQ_clean_linker_1, # of connection points: 2
#     Edge 39, Type (0, 1), BuildingBlock: KIFKEQ_clean_linker_1, # of connection points: 2
#     Edge 40, Type (0, 1), BuildingBlock: KIFKEQ_clean_linker_1, # of connection points: 2
#     Edge 41, Type (0, 1), BuildingBlock: KIFKEQ_clean_linker_1, # of connection points: 2
#     Edge 42, Type (0, 1), BuildingBlock: KIFKEQ_clean_linker_1, # of connection points: 2
#     Edge 43, Type (0, 1), BuildingBlock: KIFKEQ_clean_linker_1, # of connection points: 2
#     Edge 44, Type (0, 1), BuildingBlock: KIFKEQ_clean_linker_1, # of connection points: 2
#     Edge 45, Type (0, 1), BuildingBlock: KIFKEQ_clean_linker_1, # of connection points: 2
#     Edge 46, Type (0, 1), BuildingBlock: KIFKEQ_clean_linker_1, # of connection points: 2
#     Edge 47, Type (0, 1), BuildingBlock: KIFKEQ_clean_linker_1, # of connection points: 2
#     Edge 48, Type (0, 1), BuildingBlock: KIFKEQ_clean_linker_1, # of connection points: 2
#     Edge 49, Type (0, 1), BuildingBlock: KIFKEQ_clean_linker_1, # of connection points: 2
#     Edge 50, Type (0, 1), BuildingBlock: KIFKEQ_clean_linker_1, # of connection points: 2
#     Edge 51, Type (0, 1), BuildingBlock: KIFKEQ_clean_linker_1, # of connection points: 2
#     Edge 52, Type (0, 1), BuildingBlock: KIFKEQ_clean_linker_1, # of connection points: 2
#     Edge 53, Type (0, 1), BuildingBlock: KIFKEQ_clean_linker_1, # of connection points: 2
#     Edge 54, Type (0, 1), BuildingBlock: KIFKEQ_clean_linker_1, # of connection points: 2
#     Edge 55, Type (0, 1), BuildingBlock: KIFKEQ_clean_linker_1, # of connection points: 2
#     Edge 56, Type (0, 1), BuildingBlock: KIFKEQ_clean_linker_1, # of connection points: 2
#     Edge 57, Type (0, 1), BuildingBlock: KIFKEQ_clean_linker_1, # of connection points: 2
#     Edge 58, Type (0, 1), BuildingBlock: KIFKEQ_clean_linker_1, # of connection points: 2
#     Edge 59, Type (0, 1), BuildingBlock: KIFKEQ_clean_linker_1, # of connection points: 2
#     Edge 60, Type (0, 1), BuildingBlock: KIFKEQ_clean_linker_1, # of connection points: 2
#     Edge 61, Type (0, 1), BuildingBlock: KIFKEQ_clean_linker_1, # of connection points: 2
#     Edge 62, Type (0, 1), BuildingBlock: KIFKEQ_clean_linker_1, # of connection points: 2
#     Edge 63, Type (0, 1), BuildingBlock: KIFKEQ_clean_linker_1, # of connection points: 2
#     Edge 64, Type (0, 1), BuildingBlock: KIFKEQ_clean_linker_1, # of connection points: 2
#     Edge 65, Type (0, 1), BuildingBlock: KIFKEQ_clean_linker_1, # of connection points: 2
#     Edge 66, Type (0, 1), BuildingBlock: KIFKEQ_clean_linker_1, # of connection points: 2
#     Edge 67, Type (0, 1), BuildingBlock: KIFKEQ_clean_linker_1, # of connection points: 2
#     Edge 68, Type (0, 1), BuildingBlock: KIFKEQ_clean_linker_1, # of connection points: 2
#     Edge 69, Type (0, 1), BuildingBlock: KIFKEQ_clean_linker_1, # of connection points: 2
#     Edge 70, Type (0, 1), BuildingBlock: KIFKEQ_clean_linker_1, # of connection points: 2
#     Edge 71, Type (0, 1), BuildingBlock: KIFKEQ_clean_linker_1, # of connection points: 2
#     Edge 72, Type (0, 1), BuildingBlock: KIFKEQ_clean_linker_1, # of connection points: 2
#     Edge 73, Type (0, 1), BuildingBlock: KIFKEQ_clean_linker_1, # of connection points: 2
#     Edge 74, Type (0, 1), BuildingBlock: KIFKEQ_clean_linker_1, # of connection points: 2
#     Edge 75, Type (0, 1), BuildingBlock: KIFKEQ_clean_linker_1, # of connection points: 2
# Relax obj value: 0.012
# Max RMSD: 0.063
# Mean RMSD: 0.029
data_MOF--net-ctn--node1-KUFVIS_clean_sbu_0--node2-VETTIZ_charged_linker_0--edge1-KIFKEQ_clean_linker_1
_symmetry_space_group_name_H-M    P1
_symmetry_Int_Tables_number       1
_symmetry_cell_setting            triclinic
loop_
_symmetry_equiv_pos_as_xyz
'x, y, z'
_cell_length_a     67.239017
_cell_length_b     67.066381
_cell_length_c     67.390817
_cell_angle_alpha  90.914151
_cell_angle_beta   90.196698
_cell_angle_gamma 91.461418
loop_
_atom_site_label
_atom_site_type_symbol
_atom_site_fract_x
_atom_site_fract_y
_atom_site_fract_z
_atom_type_partial_charge
C0 C 0.03938 0.10093 1.00065 0.0
C1 C 0.02329 0.11372 1.00361 0.0
C2 C 0.01041 0.11011 0.01975 0.0
C3 C 0.02965 0.08172 0.02952 0.0
C4 C 0.0422 0.08509 0.01366 0.0
C5 C 0.05831 0.06992 0.01237 0.0
H6 H 0.10237 0.9889 0.05022 0.0
C7 C 0.03662 0.06402 0.04014 0.0
C8 C 0.0534 0.05698 0.0301 0.0
H9 H 0.11861 0.02139 0.99746 0.0
H10 H 0.09171 0.0438 1.00311 0.0
H11 H 0.0924 0.02746 0.07769 0.0
H12 H 0.0562 0.9876 0.04126 0.0
H13 H 0.04204 0.99334 0.06231 0.0
H14 H 0.06517 0.98056 0.06519 0.0
H15 H 0.08724 1.00193 0.08394 0.0
H16 H 0.07069 0.0215 0.09105 0.0
C17 C 0.07865 0.08104 0.0149 0.0
C18 C 0.05579 0.05822 0.99247 0.0
C19 C 1.00042 0.04028 0.10214 0.0
C20 C 1.00322 0.02416 0.11496 0.0
C21 C 0.01901 0.01119 0.11103 0.0
C22 C 0.03177 0.01425 0.09489 0.0
C23 C 0.02878 0.03041 0.0823 0.0
C24 C 0.01326 0.04305 0.08596 0.0
C25 C 0.01211 0.05917 0.07072 0.0
C26 C 0.02956 0.05417 0.0574 0.0
C27 C 0.03932 0.03735 0.06432 0.0
C28 C 0.01529 0.07958 0.08149 0.0
C29 C 0.99192 0.05665 0.05966 0.0
C30 C 0.10009 1.00071 0.03974 0.0
C31 C 0.11287 1.0033 0.0234 0.0
C32 C 0.10934 0.01915 0.01038 0.0
C33 C 0.09355 0.0321 0.01359 0.0
C34 C 0.08096 0.02926 0.02995 0.0
C35 C 0.08431 0.01371 0.04266 0.0
C36 C 0.06921 0.01269 0.05906 0.0
C37 C 0.05629 0.03022 0.05417 0.0
C38 C 0.06328 0.03994 0.03714 0.0
C39 C 0.08033 0.01592 0.07908 0.0
C40 C 0.05756 0.99249 0.05708 0.0
H41 H 1.00316 0.09242 0.04462 0.0
H42 H 0.04971 0.10325 0.98858 0.0
H43 H 0.03981 0.05647 0.9883 0.0
H44 H 0.06116 0.04282 0.99319 0.0
H45 H 0.06351 0.06609 0.9802 0.0
H46 H 0.07775 0.09308 0.02639 0.0
H47 H 0.0834 0.08806 1.00081 0.0
H48 H 0.09054 0.07133 0.02008 0.0
H49 H 0.98861 0.05068 0.10469 0.0
H50 H 0.02137 0.9984 0.12028 0.0
H51 H 0.04343 1.00381 0.0928 0.0
H52 H 0.02698 0.07867 0.09314 0.0
H53 H 1.0014 0.08438 0.08882 0.0
H54 H 0.0206 0.09148 0.07155 0.0
H55 H 0.98722 0.04065 0.05843 0.0
H56 H 0.99261 0.06175 0.04416 0.0
H57 H 0.97999 0.06465 0.0676 0.0
H58 H 0.99766 0.11934 0.02227 0.0
C59 C 0.01353 0.0943 0.03269 0.0
C60 C 0.26972 0.64627 0.21718 0.0
C61 C 0.2534 0.64197 0.20448 0.0
C62 C 0.25055 0.65444 0.18803 0.0
C63 C 0.27925 0.67512 0.19769 0.0
C64 C 0.28247 0.6626 0.21338 0.0
C65 C 0.30092 0.66849 0.22497 0.0
H66 H 0.37615 0.73489 0.24353 0.0
C67 C 0.29498 0.69101 0.19822 0.0
C68 C 0.30783 0.68705 0.21407 0.0
H69 H 0.3647 0.67779 0.27109 0.0
H70 H 0.33647 0.67195 0.24981 0.0
H71 H 0.33017 0.74795 0.23802 0.0
H72 H 0.37088 0.71729 0.19973 0.0
H73 H 0.35675 0.73262 0.18459 0.0
H74 H 0.37255 0.7438 0.20366 0.0
H75 H 0.35183 0.75983 0.2275 0.0
H76 H 0.32859 0.75811 0.21414 0.0
C77 C 0.29473 0.67337 0.24658 0.0
C78 C 0.31597 0.65139 0.22299 0.0
C79 C 0.29272 0.74839 0.14971 0.0
C80 C 0.30489 0.76553 0.14699 0.0
C81 C 0.32152 0.76877 0.15956 0.0
C82 C 0.32588 0.75531 0.1746 0.0
C83 C 0.31356 0.7383 0.17715 0.0
C84 C 0.29734 0.73502 0.16476 0.0
C85 C 0.28607 0.71599 0.16946 0.0
C86 C 0.29816 0.70842 0.18675 0.0
C87 C 0.31421 0.7216 0.19125 0.0
C88 C 0.26476 0.72148 0.17579 0.0
C89 C 0.28694 0.70181 0.15112 0.0
C90 C 0.3678 0.72099 0.24494 0.0
C91 C 0.37275 0.70702 0.25951 0.0
C92 C 0.3611 0.68923 0.26061 0.0
C93 C 0.34474 0.68567 0.248 0.0
C94 C 0.33995 0.69985 0.23378 0.0
C95 C 0.35161 0.71698 0.23215 0.0
C96 C 0.34498 0.72973 0.21527 0.0
C97 C 0.32727 0.71751 0.20725 0.0
C98 C 0.32424 0.70019 0.21838 0.0
C99 C 0.33864 0.75008 0.22402 0.0
C100 C 0.36213 0.73115 0.2 0.0
H101 H 0.26018 0.67986 0.17197 0.0
H102 H 0.27252 0.6373 0.23005 0.0
H103 H 0.3131 0.64207 0.20942 0.0
H104 H 0.33148 0.65705 0.22129 0.0
H105 H 0.31515 0.64134 0.23592 0.0
H106 H 0.28129 0.68272 0.24676 0.0
H107 H 0.29112 0.65951 0.25478 0.0
H108 H 0.30622 0.68198 0.25499 0.0
H109 H 0.27999 0.74529 0.14015 0.0
H110 H 0.33102 0.78192 0.15795 0.0
H111 H 0.33866 0.75873 0.18373 0.0
H112 H 0.26515 0.73488 0.18575 0.0
H113 H 0.2555 0.72493 0.16266 0.0
H114 H 0.2571 0.7097 0.1843 0.0
H115 H 0.30108 0.70408 0.14284 0.0
H116 H 0.28676 0.6859 0.15516 0.0
H117 H 0.27449 0.70442 0.14068 0.0
H118 H 0.23858 0.65138 0.17756 0.0
C119 C 0.26326 0.67097 0.18466 0.0
C120 C 0.99078 0.41505 0.00587 0.0
C121 C 0.97945 0.40912 0.98905 0.0
C122 C 0.96279 0.42048 0.98401 0.0
C123 C 0.96926 0.44315 0.01181 0.0
C124 C 0.98536 0.43192 0.01702 0.0
C125 C 0.99543 0.43981 0.03563 0.0
H126 H 1.00197 0.50936 0.10955 0.0
C127 C 0.9677 0.45979 0.02641 0.0
C128 C 0.98296 0.45783 0.04048 0.0
H129 H 0.03741 0.45693 0.10111 0.0
H130 H 0.01891 0.44815 0.07152 0.0
H131 H 0.95978 0.48678 0.09915 0.0
H132 H 1.00062 0.52189 0.06415 0.0
H133 H 0.97648 0.52839 0.05719 0.0
H134 H 0.98475 0.53295 0.0824 0.0
H135 H 0.9631 0.51325 0.10257 0.0
H136 H 0.94571 0.50278 0.08459 0.0
C137 C 0.99355 0.4236 0.05173 0.0
C138 C 0.01712 0.44596 0.03038 0.0
C139 C 0.91417 0.51161 0.01826 0.0
C140 C 0.90964 0.52913 0.02896 0.0
C141 C 0.92131 0.53451 0.04575 0.0
C142 C 0.93711 0.52275 0.05179 0.0
C143 C 0.94146 0.50533 0.04095 0.0
C144 C 0.93013 0.50006 0.02444 0.0
C145 C 0.9372 0.48123 0.01455 0.0
C146 C 0.95456 0.47606 0.02789 0.0
C147 C 0.95692 0.49019 0.0434 0.0
C148 C 0.92014 0.4653 0.01535 0.0
C149 C 0.94412 0.48644 0.99331 0.0
C150 C 0.00565 0.49588 0.10147 0.0
C151 C 0.02138 0.48396 0.10776 0.0
C152 C 0.0257 0.46667 0.09651 0.0
C153 C 0.0148 0.46146 0.07935 0.0
C154 C 0.99922 0.47354 0.07326 0.0
C155 C 0.9948 0.49037 0.08432 0.0
C156 C 0.97751 0.50124 0.07571 0.0
C157 C 0.97226 0.48809 0.05776 0.0
C158 C 0.98512 0.47195 0.05635 0.0
C159 C 0.96059 0.50122 0.09125 0.0
C160 C 0.98504 0.52229 0.06962 0.0
H161 H 0.94488 0.44528 0.99051 0.0
H162 H 1.00369 0.40686 0.01028 0.0
H163 H 0.01768 0.45354 0.01582 0.0
H164 H 0.02389 0.45676 0.04109 0.0
H165 H 0.02666 0.4327 0.02933 0.0
H166 H 0.97979 0.41423 0.04958 0.0
H167 H 0.00638 0.4135 0.05129 0.0
H168 H 0.99215 0.42998 0.06687 0.0
H169 H 0.90566 0.50712 0.00519 0.0
H170 H 0.91803 0.54774 0.05443 0.0
H171 H 0.94531 0.52768 0.06471 0.0
H172 H 0.91147 0.46684 0.0293 0.0
H173 H 0.90966 0.4668 1.00272 0.0
H174 H 0.92558 0.4499 0.0155 0.0
H175 H 0.95196 0.50126 0.99322 0.0
H176 H 0.95495 0.47591 0.98722 0.0
H177 H 0.93125 0.48708 0.98298 0.0
H178 H 0.95335 0.41611 0.97155 0.0
C179 C 0.95771 0.4374 0.99519 0.0
C180 C 0.65376 0.80907 0.25635 0.0
C181 C 0.64009 0.79283 0.25587 0.0
C182 C 0.6411 0.77876 0.24013 0.0
C183 C 0.66899 0.79712 0.22585 0.0
C184 C 0.66805 0.81087 0.24131 0.0
C185 C 0.684 0.82693 0.23993 0.0
H186 H 0.76065 0.86915 0.18946 0.0
C187 C 0.68552 0.80335 0.21265 0.0
C188 C 0.69436 0.82084 0.22085 0.0
H189 H 0.73769 0.8863 0.2471 0.0
H190 H 0.7132 0.85973 0.24497 0.0
H191 H 0.71865 0.85786 0.16816 0.0
H192 H 0.76117 0.82318 0.19956 0.0
H193 H 0.75256 0.8084 0.17947 0.0
H194 H 0.76554 0.83172 0.17482 0.0
H195 H 0.74247 0.85188 0.15803 0.0
H196 H 0.72113 0.83525 0.15495 0.0
C197 C 0.67374 0.84721 0.23799 0.0
C198 C 0.69787 0.82552 0.25828 0.0
C199 C 0.70159 0.76193 0.15093 0.0
C200 C 0.71592 0.76419 0.13585 0.0
C201 C 0.72855 0.78133 0.13628 0.0
C202 C 0.7273 0.79565 0.15156 0.0
C203 C 0.71324 0.79294 0.16672 0.0
C204 C 0.70052 0.77643 0.16613 0.0
C205 C 0.6863 0.77627 0.18337 0.0
C206 C 0.6929 0.79516 0.19459 0.0
C207 C 0.70873 0.80482 0.18477 0.0
C208 C 0.6649 0.7777 0.17503 0.0
C209 C 0.68993 0.75732 0.19558 0.0
C210 C 0.7505 0.86721 0.20175 0.0
C211 C 0.75119 0.88028 0.21836 0.0
C212 C 0.73737 0.87701 0.23382 0.0
C213 C 0.7232 0.86133 0.2327 0.0
C214 C 0.72285 0.84842 0.2161 0.0
C215 C 0.73647 0.85136 0.20107 0.0
C216 C 0.73467 0.83542 0.18514 0.0
C217 C 0.71761 0.82256 0.19302 0.0
C218 C 0.7106 0.83038 0.21106 0.0
C219 C 0.72907 0.84549 0.16543 0.0
C220 C 0.75448 0.82408 0.18448 0.0
H221 H 0.65536 0.76963 0.2136 0.0
H222 H 0.65361 0.81996 0.26839 0.0
H223 H 0.69804 0.81006 0.26401 0.0
H224 H 0.71361 0.82911 0.25478 0.0
H225 H 0.69297 0.83543 0.27059 0.0
H226 H 0.66098 0.84588 0.22746 0.0
H227 H 0.66791 0.85238 0.25255 0.0
H228 H 0.68362 0.85902 0.232 0.0
H229 H 0.69169 0.74895 0.15117 0.0
H230 H 0.73941 0.78376 0.12468 0.0
H231 H 0.7374 0.80826 0.151 0.0
H232 H 0.66465 0.78735 0.16175 0.0
H233 H 0.65879 0.76277 0.1705 0.0
H234 H 0.65458 0.78471 0.1856 0.0
H235 H 0.70608 0.75418 0.19631 0.0
H236 H 0.68521 0.75883 0.21119 0.0
H237 H 0.68221 0.74405 0.18875 0.0
H238 H 0.63066 0.76621 0.23931 0.0
C239 C 0.65541 0.78084 0.22514 0.0
C240 C 0.03347 0.92083 0.52599 0.0
C241 C 0.01715 0.90741 0.52362 0.0
C242 C 1.00401 0.90998 0.50752 0.0
C243 C 0.02366 0.93858 0.49646 0.0
C244 C 0.03645 0.93615 0.51229 0.0
C245 C 0.05331 0.95136 0.51249 0.0
H246 H 0.10347 0.02696 0.46757 0.0
C247 C 0.03126 0.95565 0.48472 0.0
C248 C 0.04868 0.96316 0.49405 0.0
H249 H 0.11669 0.99995 0.52365 0.0
H250 H 0.08743 0.97837 0.5204 0.0
H251 H 0.05734 0.03125 0.47682 0.0
H252 H 0.08829 0.98636 0.44355 0.0
H253 H 0.06711 0.99294 0.42993 0.0
H254 H 0.08618 0.01159 0.4354 0.0
H255 H 0.06641 0.03564 0.45222 0.0
H256 H 0.04218 0.02434 0.45649 0.0
C257 C 0.05176 0.96427 0.5317 0.0
C258 C 0.07304 0.9401 0.51042 0.0
C259 C 0.99455 0.97608 0.4223 0.0
C260 C 0.99835 0.99071 0.40791 0.0
C261 C 0.01541 1.00326 0.4102 0.0
C262 C 0.02845 1.00119 0.42631 0.0
C263 C 0.02451 0.98638 0.44042 0.0
C264 C 0.00776 0.97416 0.43828 0.0
C265 C 0.00608 0.95906 0.45453 0.0
C266 C 0.02441 0.96442 0.46695 0.0
C267 C 0.0352 0.98041 0.45857 0.0
C268 C 0.98663 0.96275 0.46609 0.0
C269 C 0.00728 0.93796 0.44494 0.0
C270 C 0.10003 0.01626 0.47902 0.0
C271 C 0.11239 0.01486 0.49578 0.0
C272 C 0.10734 1.00114 0.51062 0.0
C273 C 0.09038 0.98864 0.50866 0.0
C274 C 0.07818 0.99003 0.49177 0.0
C275 C 0.08289 1.00391 0.47746 0.0
C276 C 0.06747 1.00414 0.46119 0.0
C277 C 0.05301 0.98779 0.46786 0.0
C278 C 0.05953 0.9794 0.48564 0.0
C279 C 0.05785 0.02491 0.46147 0.0
C280 C 0.07768 0.9986 0.44138 0.0
H281 H 0.9966 0.92658 0.48213 0.0
H282 H 0.04399 0.91921 0.53802 0.0
H283 H 0.07145 0.92778 0.49922 0.0
H284 H 0.08551 0.94959 0.50515 0.0
H285 H 0.07738 0.93344 0.52474 0.0
H286 H 0.03606 0.96531 0.53669 0.0
H287 H 0.0604 0.95787 0.54403 0.0
H288 H 0.05675 0.97993 0.52955 0.0
H289 H 0.98152 0.96629 0.42122 0.0
H290 H 0.01897 0.01444 0.39926 0.0
H291 H 0.04123 0.01108 0.42705 0.0
H292 H 0.98414 0.97902 0.4679 0.0
H293 H 0.97355 0.95605 0.45811 0.0
H294 H 0.98694 0.95698 0.48133 0.0
H295 H 0.01735 0.93809 0.43186 0.0
H296 H 0.01367 0.92694 0.45498 0.0
H297 H 0.99242 0.93242 0.43976 0.0
H298 H 0.99118 0.90007 0.50545 0.0
C299 C 0.00715 0.92546 0.49401 0.0
C300 C 0.25905 0.65549 0.81086 0.0
C301 C 0.25831 0.6409 0.79562 0.0
C302 C 0.24255 0.64116 0.78173 0.0
C303 C 0.22894 0.67023 0.7982 0.0
C304 C 0.24429 0.66987 0.81189 0.0
C305 C 0.24288 0.68624 0.8273 0.0
H306 H 0.1921 0.7628 0.86711 0.0
C307 C 0.21615 0.6872 0.80344 0.0
C308 C 0.22426 0.69658 0.82055 0.0
H309 H 0.2483 0.73947 0.88657 0.0
H310 H 0.2474 0.71571 0.85962 0.0
H311 H 0.17007 0.72052 0.85289 0.0
H312 H 0.20494 0.76574 0.82363 0.0
H313 H 0.18905 0.75547 0.80524 0.0
H314 H 0.17862 0.76796 0.82662 0.0
H315 H 0.16251 0.74574 0.84948 0.0
H316 H 0.15797 0.72688 0.83066 0.0
C317 C 0.24005 0.67641 0.84778 0.0
C318 C 0.26168 0.7 0.82576 0.0
C319 C 0.15567 0.7027 0.76088 0.0
C320 C 0.1418 0.71817 0.76157 0.0
C321 C 0.14363 0.73262 0.77701 0.0
C322 C 0.15851 0.73154 0.79151 0.0
C323 C 0.17212 0.71604 0.79059 0.0
C324 C 0.17075 0.70207 0.77534 0.0
C325 C 0.18723 0.68726 0.77628 0.0
C326 C 0.19865 0.69471 0.79459 0.0
C327 C 0.18953 0.71143 0.80302 0.0
C328 C 0.17772 0.66627 0.77932 0.0
C329 C 0.1998 0.68919 0.75716 0.0
C330 C 0.20433 0.75272 0.86563 0.0
C331 C 0.22008 0.75299 0.87954 0.0
C332 C 0.23557 0.73937 0.8767 0.0
C333 C 0.23517 0.72562 0.86081 0.0
C334 C 0.21928 0.7255 0.84725 0.0
C335 C 0.20439 0.73913 0.84959 0.0
C336 C 0.18945 0.73779 0.8329 0.0
C337 C 0.19744 0.72058 0.82061 0.0
C338 C 0.21481 0.71332 0.82919 0.0
C339 C 0.16882 0.73256 0.84182 0.0
C340 C 0.19036 0.75774 0.82151 0.0
H341 H 0.21639 0.65511 0.77187 0.0
H342 H 0.27075 0.65561 0.82195 0.0
H343 H 0.26722 0.70053 0.81023 0.0
H344 H 0.25877 0.71571 0.82974 0.0
H345 H 0.27395 0.69463 0.8352 0.0
H346 H 0.22978 0.66316 0.84655 0.0
H347 H 0.25445 0.67131 0.85374 0.0
H348 H 0.23319 0.6863 0.85889 0.0
H349 H 0.15484 0.6912 0.74943 0.0
H350 H 0.13374 0.74508 0.77781 0.0
H351 H 0.15891 0.74294 0.80284 0.0
H352 H 0.16476 0.66706 0.78951 0.0
H353 H 0.17234 0.65963 0.76502 0.0
H354 H 0.18795 0.65587 0.78639 0.0
H355 H 0.20124 0.70505 0.75266 0.0
H356 H 0.21523 0.68432 0.75908 0.0
H357 H 0.19278 0.68062 0.74463 0.0
H358 H 0.24168 0.63026 0.76971 0.0
C359 C 0.22792 0.65571 0.78293 0.0
C360 C 0.91696 0.50839 0.4961 0.0
C361 C 0.91138 0.4903 0.48651 0.0
C362 C 0.92368 0.4828 0.47135 0.0
C363 C 0.94636 0.51133 0.47531 0.0
C364 C 0.93448 0.51852 0.49038 0.0
C365 C 0.94263 0.53779 0.49923 0.0
H366 H 0.01522 0.60979 0.50331 0.0
C367 C 0.96345 0.52548 0.47297 0.0
C368 C 0.96144 0.54091 0.48711 0.0
H369 H 0.96085 0.6063 0.53709 0.0
H370 H 0.95133 0.57543 0.52022 0.0
H371 H 0.99383 0.59793 0.46195 0.0
H372 H 0.02562 0.56257 0.50375 0.0
H373 H 0.033 0.55534 0.47973 0.0
H374 H 0.03785 0.58063 0.48829 0.0
H375 H 0.02039 0.59969 0.46458 0.0
H376 H 0.00848 0.58145 0.44823 0.0
C377 C 0.92734 0.55427 0.49552 0.0
C378 C 0.94734 0.53429 0.5214 0.0
C379 C 0.01366 0.51472 0.4176 0.0
C380 C 0.03111 0.52519 0.41196 0.0
C381 C 0.03776 0.54168 0.42366 0.0
C382 C 0.02699 0.54799 0.4403 0.0
C383 C 0.00931 0.53772 0.44544 0.0
C384 C 1.00312 0.52115 0.43438 0.0
C385 C 0.98436 0.51167 0.44251 0.0
C386 C 0.9799 0.52576 0.45973 0.0
C387 C 0.99451 0.54107 0.46131 0.0
C388 C 0.9681 0.51206 0.42622 0.0
C389 C 0.98923 0.49047 0.44967 0.0
C390 C 1.00138 0.60219 0.5071 0.0
C391 C 0.98879 0.61023 0.5216 0.0
C392 C 0.97071 0.60025 0.52596 0.0
C393 C 0.96526 0.58234 0.51616 0.0
C394 C 0.9779 0.57442 0.50162 0.0
C395 C 0.99552 0.58442 0.49713 0.0
C396 C 0.00641 0.57439 0.48037 0.0
C397 C 0.99265 0.55652 0.47586 0.0
C398 C 0.97608 0.55655 0.4885 0.0
C399 C 0.00755 0.58904 0.46283 0.0
C400 C 0.02688 0.56795 0.48826 0.0
H401 H 0.94964 0.48681 0.45392 0.0
H402 H 0.90797 0.51448 0.50792 0.0
H403 H 0.95401 0.51943 0.52338 0.0
H404 H 0.95837 0.54512 0.52766 0.0
H405 H 0.93361 0.53471 0.5305 0.0
H406 H 0.91877 0.55125 0.48159 0.0
H407 H 0.91648 0.55523 0.50785 0.0
H408 H 0.93446 0.56912 0.49336 0.0
H409 H 0.00832 0.5018 0.40912 0.0
H410 H 0.05106 0.55009 0.4196 0.0
H411 H 0.03274 0.56079 0.44841 0.0
H412 H 0.96834 0.52675 0.41875 0.0
H413 H 0.97052 0.50035 0.4147 0.0
H414 H 0.9529 0.51011 0.4321 0.0
H415 H 0.00502 0.48965 0.4545 0.0
H416 H 0.98052 0.48608 0.46286 0.0
H417 H 0.98675 0.47914 0.43766 0.0
H418 H 0.91962 0.46903 0.46356 0.0
C419 C 0.94107 0.49321 0.46569 0.0
C420 C 0.81133 0.76629 0.86571 0.0
C421 C 0.79597 0.76805 0.87977 0.0
C422 C 0.78389 0.78495 0.87914 0.0
C423 C 0.8012 0.79683 0.84995 0.0
C424 C 0.81369 0.78084 0.85107 0.0
C425 C 0.82907 0.78113 0.83487 0.0
H426 H 0.86763 0.8241 0.75262 0.0
C427 C 0.80689 0.80862 0.83238 0.0
C428 C 0.82337 0.79961 0.82359 0.0
H429 H 0.88804 0.77228 0.78348 0.0
H430 H 0.86201 0.77574 0.80747 0.0
H431 H 0.85791 0.85094 0.79204 0.0
H432 H 0.82126 0.81164 0.75527 0.0
H433 H 0.80695 0.83225 0.76175 0.0
H434 H 0.82922 0.83595 0.74725 0.0
H435 H 0.85125 0.85669 0.76698 0.0
H436 H 0.83523 0.86264 0.7875 0.0
C437 C 0.84988 0.78363 0.84473 0.0
C438 C 0.82616 0.76187 0.82207 0.0
C439 C 0.76459 0.86673 0.81183 0.0
C440 C 0.76516 0.87954 0.79549 0.0
C441 C 0.78073 0.8777 0.78163 0.0
C442 C 0.7953 0.86326 0.78388 0.0
C443 C 0.79431 0.85034 0.80009 0.0
C444 C 0.77916 0.85227 0.81376 0.0
C445 C 0.78019 0.83699 0.82982 0.0
C446 C 0.79836 0.8255 0.82349 0.0
C447 C 0.80662 0.8334 0.80607 0.0
C448 C 0.78355 0.84809 0.84995 0.0
C449 C 0.7609 0.82386 0.82872 0.0
C450 C 0.86646 0.81345 0.7645 0.0
C451 C 0.88022 0.79803 0.76617 0.0
C452 C 0.87807 0.78459 0.78199 0.0
C453 C 0.86278 0.78652 0.7959 0.0
C454 C 0.84925 0.80198 0.79407 0.0
C455 C 0.85118 0.81513 0.77857 0.0
C456 C 0.83516 0.83047 0.77893 0.0
C457 C 0.82361 0.82455 0.79739 0.0
C458 C 0.83192 0.80779 0.80614 0.0
C459 C 0.84527 0.85137 0.78135 0.0
C460 C 0.82248 0.82766 0.7598 0.0
H461 H 0.77649 0.81155 0.8646 0.0
H462 H 0.82092 0.75357 0.86566 0.0
H463 H 0.81006 0.75808 0.82008 0.0
H464 H 0.83203 0.76335 0.80688 0.0
H465 H 0.83319 0.74899 0.82921 0.0
H466 H 0.84913 0.79261 0.85872 0.0
H467 H 0.85603 0.76894 0.84848 0.0
H468 H 0.86067 0.79189 0.83542 0.0
H469 H 0.75274 0.86756 0.82263 0.0
H470 H 0.78169 0.88751 0.76905 0.0
H471 H 0.80671 0.86265 0.77281 0.0
H472 H 0.79234 0.86221 0.848 0.0
H473 H 0.76919 0.85199 0.85693 0.0
H474 H 0.79237 0.83946 0.86052 0.0
H475 H 0.75666 0.82059 0.813 0.0
H476 H 0.76245 0.80913 0.83551 0.0
H477 H 0.74829 0.83154 0.83588 0.0
H478 H 0.77231 0.7871 0.89004 0.0
C479 C 0.78638 0.79926 0.86436 0.0
C480 C 0.31304 0.26574 0.36614 0.0
C481 C 0.29726 0.26667 0.37981 0.0
C482 C 0.28312 0.2817 0.3776 0.0
C483 C 0.30039 0.29428 0.34867 0.0
C484 C 0.31429 0.27962 0.35077 0.0
C485 C 0.32994 0.28058 0.33486 0.0
H486 H 0.36714 0.32416 0.25228 0.0
C487 C 0.30576 0.30612 0.33102 0.0
C488 C 0.32307 0.29816 0.32284 0.0
H489 H 0.38957 0.27363 0.2838 0.0
H490 H 0.36323 0.27619 0.30759 0.0
H491 H 0.35626 0.35062 0.29154 0.0
H492 H 0.32122 0.31007 0.25457 0.0
H493 H 0.30633 0.33042 0.26056 0.0
H494 H 0.3288 0.33446 0.24646 0.0
H495 H 0.34921 0.35639 0.2666 0.0
H496 H 0.33309 0.36141 0.2873 0.0
C497 C 0.35033 0.285 0.345 0.0
C498 C 0.32873 0.26078 0.32268 0.0
C499 C 0.26237 0.36347 0.31057 0.0
C500 C 0.26303 0.37666 0.29455 0.0
C501 C 0.27872 0.37522 0.28078 0.0
C502 C 0.2934 0.36089 0.28287 0.0
C503 C 0.29243 0.34769 0.29886 0.0
C504 C 0.27708 0.34913 0.31237 0.0
C505 C 0.27815 0.33358 0.32816 0.0
C506 C 0.29671 0.32265 0.32198 0.0
C507 C 0.30506 0.331 0.30483 0.0
C508 C 0.28092 0.34444 0.34848 0.0
C509 C 0.25918 0.31999 0.32653 0.0
C510 C 0.36634 0.31359 0.26426 0.0
C511 C 0.38072 0.29879 0.26615 0.0
C512 C 0.37907 0.28547 0.28212 0.0
C513 C 0.36359 0.28685 0.29589 0.0
C514 C 0.34939 0.30165 0.29379 0.0
C515 C 0.35089 0.31473 0.27819 0.0
C516 C 0.33426 0.32939 0.27829 0.0
C517 C 0.32263 0.32296 0.29653 0.0
C518 C 0.33158 0.30667 0.30553 0.0
C519 C 0.34354 0.35064 0.28093 0.0
C520 C 0.32199 0.32614 0.25895 0.0
H521 H 0.27331 0.30642 0.36138 0.0
H522 H 0.32427 0.25454 0.36741 0.0
H523 H 0.31306 0.25516 0.3213 0.0
H524 H 0.33385 0.26243 0.30724 0.0
H525 H 0.33739 0.24901 0.32991 0.0
H526 H 0.34871 0.29529 0.35798 0.0
H527 H 0.35696 0.27109 0.35044 0.0
H528 H 0.36109 0.29268 0.33522 0.0
H529 H 0.25039 0.36397 0.32126 0.0
H530 H 0.27971 0.38532 0.26841 0.0
H531 H 0.30492 0.3606 0.2719 0.0
H532 H 0.29086 0.35786 0.34707 0.0
H533 H 0.26645 0.34946 0.3544 0.0
H534 H 0.28818 0.33522 0.35969 0.0
H535 H 0.25417 0.31827 0.31083 0.0
H536 H 0.26163 0.3046 0.33142 0.0
H537 H 0.24672 0.32634 0.33515 0.0
H538 H 0.27057 0.28263 0.38757 0.0
C539 C 0.28462 0.29547 0.36221 0.0
C540 C 0.49211 0.91459 0.50599 0.0
C541 C 0.48218 0.90937 0.48818 0.0
C542 C 0.46707 0.9218 0.48134 0.0
C543 C 0.47175 0.94384 0.51004 0.0
C544 C 0.48674 0.9318 0.51656 0.0
C545 C 0.496 0.93943 0.53564 0.0
H546 H 0.50191 0.00949 0.60897 0.0
C547 C 0.46979 0.9605 0.52459 0.0
C548 C 0.48409 0.95801 0.53956 0.0
H549 H 0.5365 0.95631 0.60183 0.0
H550 H 0.51842 0.94748 0.57204 0.0
H551 H 0.45969 0.9873 0.59783 0.0
H552 H 0.50158 0.02176 0.5634 0.0
H553 H 0.47759 0.02888 0.55648 0.0
H554 H 0.48588 0.03292 0.58175 0.0
H555 H 0.46263 0.01386 0.60074 0.0
H556 H 0.44594 1.00275 0.58243 0.0
C557 C 0.49238 0.92349 0.55173 0.0
C558 C 0.51822 0.94456 0.53161 0.0
C559 C 0.41649 0.01244 0.51534 0.0
C560 C 0.41148 0.0297 0.52625 0.0
C561 C 0.42266 0.03488 0.54342 0.0
C562 C 0.4384 0.02316 0.54967 0.0
C563 C 0.4432 0.00598 0.53868 0.0
C564 C 0.4324 1.00091 0.52175 0.0
C565 C 0.43999 0.98235 0.51173 0.0
C566 C 0.45682 0.97694 0.52563 0.0
C567 C 0.45859 0.99083 0.54143 0.0
C568 C 0.423 0.96633 0.51151 0.0
C569 C 0.44773 0.98802 0.49089 0.0
C570 C 0.5055 0.99585 0.60111 0.0
C571 C 0.52093 0.98375 0.6078 0.0
C572 C 0.52508 0.9662 0.59689 0.0
C573 C 0.51443 0.96099 0.57959 0.0
C574 C 0.49929 0.97335 0.57297 0.0
C575 C 0.49491 0.99035 0.58377 0.0
C576 C 0.47804 1.00144 0.57462 0.0
C577 C 0.47323 0.98841 0.55646 0.0
C578 C 0.48579 0.97202 0.55557 0.0
C579 C 0.46063 1.00156 0.58962 0.0
C580 C 0.48599 0.02243 0.56883 0.0
H581 H 0.45004 0.94764 0.48626 0.0
H582 H 0.50395 0.90553 0.51157 0.0
H583 H 0.5202 0.95083 0.51653 0.0
H584 H 0.52448 0.95615 0.5418 0.0
H585 H 0.5274 0.93106 0.53246 0.0
H586 H 0.47784 0.9155 0.54937 0.0
H587 H 0.50415 0.91217 0.55141 0.0
H588 H 0.49144 0.92998 0.56686 0.0
H589 H 0.40838 0.00815 0.50197 0.0
H590 H 0.41902 0.0479 0.55225 0.0
H591 H 0.44621 0.02793 0.56288 0.0
H592 H 0.41495 0.96639 0.5259 0.0
H593 H 0.41203 0.96922 0.4996 0.0
H594 H 0.42838 0.95102 0.5096 0.0
H595 H 0.45431 1.00342 0.49101 0.0
H596 H 0.45987 0.97847 0.48571 0.0
H597 H 0.43551 0.98744 0.47975 0.0
H598 H 0.45902 0.91804 0.46778 0.0
C599 C 0.46178 0.93893 0.49216 0.0
C600 C 0.15316 0.31101 0.75798 0.0
C601 C 0.13831 0.29584 0.75715 0.0
C602 C 0.13853 0.28188 0.74125 0.0
C603 C 0.1681 0.29807 0.72774 0.0
C604 C 0.16778 0.31186 0.74321 0.0
C605 C 0.18454 0.32706 0.74198 0.0
H606 H 0.26372 0.36521 0.69238 0.0
C607 C 0.18544 0.30304 0.71505 0.0
C608 C 0.19509 0.32006 0.72333 0.0
H609 H 0.23912 0.38549 0.7483 0.0
H610 H 0.21457 0.359 0.74683 0.0
H611 H 0.22164 0.35199 0.66978 0.0
H612 H 0.26439 0.32116 0.70465 0.0
H613 H 0.25424 0.30323 0.68802 0.0
H614 H 0.26783 0.32462 0.67856 0.0
H615 H 0.24687 0.34788 0.66238 0.0
H616 H 0.22751 0.32945 0.65751 0.0
C617 C 0.17535 0.34781 0.73937 0.0
C618 C 0.19779 0.32529 0.76073 0.0
C619 C 0.20112 0.25955 0.65461 0.0
C620 C 0.21705 0.25977 0.64115 0.0
C621 C 0.23182 0.27495 0.64278 0.0
C622 C 0.23075 0.28983 0.65756 0.0
C623 C 0.21489 0.28937 0.67109 0.0
C624 C 0.20049 0.27431 0.66961 0.0
C625 C 0.18538 0.27563 0.68601 0.0
C626 C 0.19308 0.29395 0.69753 0.0
C627 C 0.21023 0.30206 0.68854 0.0
C628 C 0.16478 0.27906 0.67651 0.0
C629 C 0.18645 0.25644 0.69843 0.0
C630 C 0.25316 0.364 0.70441 0.0
C631 C 0.25334 0.378 0.72027 0.0
C632 C 0.23913 0.37554 0.7355 0.0
C633 C 0.2249 0.35991 0.73478 0.0
C634 C 0.22487 0.34624 0.71879 0.0
C635 C 0.23903 0.34822 0.70411 0.0
C636 C 0.23755 0.33146 0.68899 0.0
C637 C 0.21971 0.31954 0.69667 0.0
C638 C 0.21227 0.32838 0.71405 0.0
C639 C 0.23327 0.34054 0.66849 0.0
C640 C 0.25699 0.3195 0.6899 0.0
H641 H 0.15266 0.27179 0.71497 0.0
H642 H 0.15333 0.32215 0.7698 0.0
H643 H 0.19773 0.30969 0.7661 0.0
H644 H 0.21363 0.32896 0.75787 0.0
H645 H 0.19244 0.33493 0.77305 0.0
H646 H 0.16228 0.34677 0.7292 0.0
H647 H 0.17021 0.35397 0.75381 0.0
H648 H 0.18563 0.35876 0.73253 0.0
H649 H 0.18971 0.24786 0.65379 0.0
H650 H 0.24417 0.27535 0.6325 0.0
H651 H 0.24239 0.30106 0.65794 0.0
H652 H 0.16618 0.28929 0.66372 0.0
H653 H 0.15792 0.2648 0.67093 0.0
H654 H 0.15435 0.28634 0.68677 0.0
H655 H 0.20204 0.2514 0.69959 0.0
H656 H 0.18163 0.25865 0.71393 0.0
H657 H 0.17742 0.24407 0.69153 0.0
H658 H 0.12745 0.26989 0.7403 0.0
C659 C 0.15329 0.28292 0.72659 0.0
C660 C 0.76743 0.14989 0.71862 0.0
C661 C 0.75193 0.14454 0.70527 0.0
C662 C 0.74989 0.15587 0.68789 0.0
C663 C 0.77812 0.17717 0.69756 0.0
C664 C 0.78043 0.16589 0.71433 0.0
C665 C 0.7983 0.17257 0.72642 0.0
H666 H 0.88164 0.23049 0.73506 0.0
C667 C 0.79425 0.19263 0.69743 0.0
C668 C 0.80632 0.18976 0.71416 0.0
H669 H 0.85854 0.18688 0.77648 0.0
H670 H 0.83029 0.18057 0.75536 0.0
H671 H 0.84146 0.2514 0.73226 0.0
H672 H 0.86815 0.20871 0.69304 0.0
H673 H 0.85903 0.22852 0.67893 0.0
H674 H 0.87775 0.23362 0.69758 0.0
H675 H 0.8588 0.25905 0.71356 0.0
H676 H 0.83242 0.25666 0.70852 0.0
C677 C 0.79109 0.17969 0.74712 0.0
C678 C 0.81287 0.15504 0.72694 0.0
C679 C 0.79518 0.24642 0.64489 0.0
C680 C 0.80784 0.2631 0.64162 0.0
C681 C 0.82488 0.26594 0.65372 0.0
C682 C 0.82905 0.25268 0.66897 0.0
C683 C 0.81601 0.2364 0.67237 0.0
C684 C 0.79947 0.23339 0.66035 0.0
C685 C 0.78725 0.2153 0.66626 0.0
C686 C 0.79875 0.20849 0.68429 0.0
C687 C 0.81567 0.22082 0.68767 0.0
C688 C 0.76615 0.22213 0.67183 0.0
C689 C 0.78767 0.19976 0.64899 0.0
C690 C 0.87057 0.21964 0.73984 0.0
C691 C 0.87297 0.20892 0.75754 0.0
C692 C 0.85783 0.19493 0.76273 0.0
C693 C 0.84116 0.1914 0.7505 0.0
C694 C 0.83919 0.20213 0.73292 0.0
C695 C 0.85352 0.21632 0.72809 0.0
C696 C 0.8479 0.22777 0.70994 0.0
C697 C 0.82835 0.21737 0.70413 0.0
C698 C 0.82348 0.20218 0.71749 0.0
C699 C 0.84509 0.24989 0.71622 0.0
C700 C 0.86405 0.22467 0.69396 0.0
H701 H 0.76036 0.18013 0.67062 0.0
H702 H 0.76949 0.1419 0.73227 0.0
H703 H 0.81354 0.14744 0.71216 0.0
H704 H 0.82834 0.1598 0.73032 0.0
H705 H 0.80801 0.14375 0.73791 0.0
H706 H 0.77604 0.18616 0.74617 0.0
H707 H 0.7902 0.16715 0.75767 0.0
H708 H 0.80063 0.19182 0.75356 0.0
H709 H 0.78193 0.24383 0.63595 0.0
H710 H 0.83507 0.27843 0.65132 0.0
H711 H 0.84226 0.25566 0.67759 0.0
H712 H 0.76705 0.23584 0.68134 0.0
H713 H 0.75742 0.22559 0.65835 0.0
H714 H 0.75765 0.21102 0.68047 0.0
H715 H 0.80156 0.20135 0.64015 0.0
H716 H 0.78768 0.18423 0.65427 0.0
H717 H 0.77493 0.20153 0.63869 0.0
H718 H 0.7385 0.15202 0.677 0.0
C719 C 0.76277 0.17215 0.68405 0.0
C720 C 0.53835 0.59992 0.50002 0.0
C721 C 0.52201 0.61237 0.50289 0.0
C722 C 0.50933 0.60887 0.51916 0.0
C723 C 0.52909 0.58095 0.52919 0.0
C724 C 0.54152 0.58431 0.51323 0.0
C725 C 0.55782 0.56933 0.51201 0.0
H726 H 0.60266 0.48867 0.54991 0.0
C727 C 0.53637 0.56347 0.53997 0.0
C728 C 0.55318 0.55653 0.52991 0.0
H729 H 0.61886 0.52153 0.49746 0.0
H730 H 0.59156 0.5436 0.50291 0.0
H731 H 0.59268 0.52776 0.5776 0.0
H732 H 0.55661 0.48738 0.54157 0.0
H733 H 0.54261 0.49306 0.56275 0.0
H734 H 0.56588 0.4805 0.56544 0.0
H735 H 0.58787 0.5022 0.58397 0.0
H736 H 0.57112 0.52157 0.5911 0.0
C737 C 0.57803 0.58073 0.51429 0.0
C738 C 0.55531 0.55738 0.49224 0.0
C739 C 0.50061 0.53992 0.60225 0.0
C740 C 0.50357 0.52394 0.61519 0.0
C741 C 0.51949 0.5111 0.61136 0.0
C742 C 0.5322 0.51415 0.59517 0.0
C743 C 0.52904 0.53016 0.58245 0.0
C744 C 0.51339 0.54267 0.58603 0.0
C745 C 0.51202 0.55863 0.57065 0.0
C746 C 0.52949 0.5537 0.55733 0.0
C747 C 0.53946 0.53705 0.56437 0.0
C748 C 0.51503 0.57916 0.58123 0.0
C749 C 0.49183 0.55579 0.55967 0.0
C750 C 0.60044 0.50074 0.53972 0.0
C751 C 0.613 0.50333 0.52323 0.0
C752 C 0.60933 0.51905 0.51015 0.0
C753 C 0.59349 0.53193 0.5134 0.0
C754 C 0.58103 0.52909 0.52987 0.0
C755 C 0.58459 0.51367 0.54268 0.0
C756 C 0.56957 0.51263 0.55916 0.0
C757 C 0.55647 0.53002 0.55421 0.0
C758 C 0.56328 0.53967 0.53707 0.0
C759 C 0.58076 0.51607 0.5791 0.0
C760 C 0.55808 0.49233 0.55736 0.0
H761 H 0.5026 0.59154 0.5444 0.0
H762 H 0.54825 0.60203 0.48754 0.0
H763 H 0.53931 0.5553 0.48825 0.0
H764 H 0.56096 0.5421 0.49307 0.0
H765 H 0.56278 0.56525 0.47983 0.0
H766 H 0.57703 0.59292 0.52561 0.0
H767 H 0.58263 0.58759 0.50007 0.0
H768 H 0.59007 0.57125 0.51957 0.0
H769 H 0.4887 0.55022 0.60471 0.0
H770 H 0.52198 0.49842 0.62071 0.0
H771 H 0.54396 0.5038 0.59314 0.0
H772 H 0.52669 0.57846 0.59294 0.0
H773 H 0.50108 0.58394 0.58847 0.0
H774 H 0.5203 0.591 0.57119 0.0
H775 H 0.48727 0.53973 0.55863 0.0
H776 H 0.49241 0.56072 0.54411 0.0
H777 H 0.47983 0.56375 0.56755 0.0
H778 H 0.49677 0.61834 0.52186 0.0
C779 C 0.51279 0.59332 0.53231 0.0
C780 C 0.53125 0.42298 0.02833 0.0
C781 C 0.51734 0.40726 0.02441 0.0
C782 C 0.50618 0.40786 0.00658 0.0
C783 C 0.52305 0.43876 0.99725 0.0
C784 C 0.53418 0.4381 0.01445 0.0
C785 C 0.55004 0.45434 0.01547 0.0
H786 H 0.60102 0.52916 0.97041 0.0
C787 C 0.53029 0.45612 0.9857 0.0
C788 C 0.54638 0.46505 0.99616 0.0
H789 H 0.61207 0.50422 0.02793 0.0
H790 H 0.58279 0.48269 0.02443 0.0
H791 H 0.55494 0.53386 0.97801 0.0
H792 H 0.58657 0.48818 0.94674 0.0
H793 H 0.56622 0.4954 0.93211 0.0
H794 H 0.58533 0.51356 0.93877 0.0
H795 H 0.56276 0.53698 0.95282 0.0
H796 H 0.5391 0.52523 0.95882 0.0
C797 C 0.54595 0.46786 0.03378 0.0
C798 C 0.57056 0.44429 0.01575 0.0
C799 C 0.49475 0.4753 0.92215 0.0
C800 C 0.49802 0.49063 0.90836 0.0
C801 C 0.51442 0.50392 0.91137 0.0
C802 C 0.52723 0.50201 0.92767 0.0
C803 C 0.52374 0.48663 0.94125 0.0
C804 C 0.50771 0.47359 0.93838 0.0
C805 C 0.50648 0.45798 0.95421 0.0
C806 C 0.52393 0.46433 0.96748 0.0
C807 C 0.53411 0.48099 0.95968 0.0
C808 C 0.48636 0.45991 0.96505 0.0
C809 C 0.50954 0.43726 0.9443 0.0
C810 C 0.59709 0.51893 0.98213 0.0
C811 C 0.60889 0.51802 0.99932 0.0
C812 C 0.60318 0.50498 0.01454 0.0
C813 C 0.58625 0.49247 0.01242 0.0
C814 C 0.57482 0.4931 0.99493 0.0
C815 C 0.58 0.50655 0.98036 0.0
C816 C 0.56522 0.50612 0.96349 0.0
C817 C 0.55099 0.48943 0.96981 0.0
C818 C 0.55684 0.48173 0.98813 0.0
C819 C 0.55499 0.52659 0.96305 0.0
C820 C 0.57631 0.50064 0.94415 0.0
H821 H 0.49987 0.42305 0.97995 0.0
H822 H 0.54001 0.42359 0.04181 0.0
H823 H 0.57029 0.43046 0.0064 0.0
H824 H 0.58263 0.45364 0.00946 0.0
H825 H 0.57476 0.44007 0.03105 0.0
H826 H 0.52968 0.46941 0.03608 0.0
H827 H 0.55225 0.46153 0.0475 0.0
H828 H 0.55181 0.48327 0.03206 0.0
H829 H 0.48228 0.46487 0.92046 0.0
H830 H 0.5176 0.51563 0.90087 0.0
H831 H 0.5395 0.51249 0.92898 0.0
H832 H 0.48355 0.47582 0.96873 0.0
H833 H 0.47388 0.45414 0.95556 0.0
H834 H 0.48584 0.45199 0.97926 0.0
H835 H 0.51855 0.43851 0.93053 0.0
H836 H 0.51801 0.4272 0.95383 0.0
H837 H 0.49509 0.42991 0.94017 0.0
H838 H 0.4957 0.39598 1.00255 0.0
C839 C 0.5088 0.42355 0.99318 0.0
C840 C 0.75932 0.15539 0.31061 0.0
C841 C 0.75882 0.14083 0.29533 0.0
C842 C 0.74323 0.14106 0.28125 0.0
C843 C 0.72921 0.1699 0.29771 0.0
C844 C 0.74444 0.16963 0.31154 0.0
C845 C 0.74279 0.18598 0.32694 0.0
H846 H 0.69292 0.26423 0.36506 0.0
C847 C 0.71611 0.1866 0.30302 0.0
C848 C 0.72397 0.19598 0.32022 0.0
H849 H 0.74864 0.24077 0.38497 0.0
H850 H 0.74708 0.21551 0.35903 0.0
H851 H 0.67033 0.22124 0.35468 0.0
H852 H 0.70429 0.26313 0.31993 0.0
H853 H 0.68481 0.25401 0.30471 0.0
H854 H 0.67914 0.2676 0.32722 0.0
H855 H 0.66123 0.24517 0.34802 0.0
H856 H 0.65795 0.22364 0.33185 0.0
C857 C 0.74015 0.17617 0.34745 0.0
C858 C 0.76139 0.20003 0.32532 0.0
C859 C 0.65631 0.2019 0.25959 0.0
C860 C 0.64155 0.21643 0.2609 0.0
C861 C 0.64175 0.22961 0.27745 0.0
C862 C 0.65648 0.22865 0.29213 0.0
C863 C 0.6713 0.21434 0.29041 0.0
C864 C 0.67096 0.20114 0.27445 0.0
C865 C 0.68777 0.18673 0.27533 0.0
C866 C 0.69848 0.19379 0.29417 0.0
C867 C 0.68875 0.21 0.30291 0.0
C868 C 0.67869 0.16539 0.27735 0.0
C869 C 0.70085 0.18967 0.25669 0.0
C870 C 0.70459 0.25343 0.36391 0.0
C871 C 0.72084 0.25428 0.37709 0.0
C872 C 0.73601 0.24032 0.37493 0.0
C873 C 0.73506 0.2257 0.35986 0.0
C874 C 0.71888 0.22514 0.34658 0.0
C875 C 0.70405 0.23893 0.34865 0.0
C876 C 0.68867 0.23681 0.33242 0.0
C877 C 0.69658 0.21934 0.32044 0.0
C878 C 0.71418 0.21247 0.32893 0.0
C879 C 0.66838 0.23158 0.3421 0.0
C880 C 0.68902 0.25637 0.32044 0.0
H881 H 0.71712 0.15489 0.27112 0.0
H882 H 0.77092 0.15555 0.3218 0.0
H883 H 0.76714 0.20032 0.30986 0.0
H884 H 0.75815 0.21576 0.32888 0.0
H885 H 0.77363 0.19511 0.33505 0.0
H886 H 0.73005 0.16279 0.34628 0.0
H887 H 0.75464 0.17129 0.35339 0.0
H888 H 0.73319 0.18602 0.35855 0.0
H889 H 0.6567 0.19157 0.2471 0.0
H890 H 0.63037 0.24063 0.27916 0.0
H891 H 0.65576 0.23915 0.30426 0.0
H892 H 0.66475 0.16557 0.28621 0.0
H893 H 0.67498 0.15868 0.26259 0.0
H894 H 0.68851 0.15533 0.28543 0.0
H895 H 0.7027 0.2058 0.25332 0.0
H896 H 0.7161 0.18429 0.25858 0.0
H897 H 0.69397 0.1821 0.24349 0.0
H898 H 0.74258 0.1302 0.26917 0.0
C899 C 0.72849 0.15548 0.28234 0.0
C900 C 0.41663 0.00431 0.99441 0.0
C901 C 0.41093 0.98691 0.98365 0.0
C902 C 0.42347 0.9801 0.96834 0.0
C903 C 0.44631 0.00817 0.97413 0.0
C904 C 0.43428 0.01464 0.98941 0.0
C905 C 0.44223 0.03368 0.99896 0.0
H906 H 0.51353 0.10691 0.00488 0.0
C907 C 0.46331 0.0225 0.97242 0.0
C908 C 0.46107 0.03741 0.98704 0.0
H909 H 0.45931 0.10144 0.03868 0.0
H910 H 0.45047 0.0707 0.02119 0.0
H911 H 0.49242 0.09525 0.96315 0.0
H912 H 0.52495 0.05994 0.00446 0.0
H913 H 0.53243 0.05318 0.98034 0.0
H914 H 0.53689 0.07841 0.98926 0.0
H915 H 0.51888 0.0979 0.96627 0.0
H916 H 0.50792 0.07964 0.94935 0.0
C917 C 0.42679 0.05015 0.9958 0.0
C918 C 0.44687 0.02941 0.02099 0.0
C919 C 0.51398 0.01369 0.9172 0.0
C920 C 0.53135 0.02446 0.91189 0.0
C921 C 0.53777 0.04076 0.92399 0.0
C922 C 0.52682 0.04657 0.94072 0.0
C923 C 0.50921 0.036 0.94551 0.0
C924 C 0.50326 0.01963 0.93403 0.0
C925 C 0.48449 0.00981 0.94171 0.0
C926 C 0.4798 0.02337 0.95927 0.0
C927 C 0.49425 0.03878 0.96136 0.0
C928 C 0.46839 0.01063 0.92527 0.0
C929 C 0.48943 0.98844 0.94829 0.0
C930 C 0.49986 0.09891 0.00852 0.0
C931 C 0.48711 0.10634 0.0232 0.0
C932 C 0.46929 0.09584 0.02741 0.0
C933 C 0.46423 0.07803 0.01725 0.0
C934 C 0.47701 0.07074 1.00249 0.0
C935 C 0.49441 0.08123 0.99821 0.0
C936 C 0.50554 0.07179 0.98127 0.0
C937 C 0.49212 0.05378 0.97633 0.0
C938 C 0.47552 0.05319 0.98894 0.0
C939 C 0.50645 0.08685 0.96407 0.0
C940 C 0.52612 0.06557 0.98905 0.0
H941 H 0.44979 0.98468 0.95166 0.0
H942 H 0.40728 0.0101 0.0061 0.0
H943 H 0.45387 0.01464 0.02243 0.0
H944 H 0.45762 0.04025 0.02773 0.0
H945 H 0.43307 0.02917 0.03 0.0
H946 H 0.41817 0.04746 0.98185 0.0
H947 H 0.41598 0.05068 0.00822 0.0
H948 H 0.43379 0.0651 0.99401 0.0
H949 H 0.50881 1.00091 0.90842 0.0
H950 H 0.551 0.0494 0.9202 0.0
H951 H 0.53238 0.05924 0.94914 0.0
H952 H 0.46896 0.02537 0.9179 0.0
H953 H 0.4707 0.99896 0.91368 0.0
H954 H 0.4531 0.00898 0.93099 0.0
H955 H 0.50512 0.98765 0.95345 0.0
H956 H 0.48048 0.9835 0.96113 0.0
H957 H 0.48735 0.97748 0.93588 0.0
H958 H 0.41964 0.9666 0.96 0.0
C959 C 0.44106 0.99059 0.96356 0.0
Mn960 Mn 0.25382 0.87744 0.0121 0.0
Mn961 Mn 0.25318 0.89304 0.96466 0.0
C962 C 0.23914 0.85768 0.98719 0.0
C963 C 0.26832 0.86057 0.03841 0.0
C964 C 0.2258 0.90918 0.9964 0.0
O965 O 0.27566 0.89939 0.01219 0.0
O966 O 0.27425 0.90778 0.97992 0.0
C967 C 0.2923 0.87791 0.95229 0.0
N968 N 0.27222 0.87848 0.94969 0.0
C969 C 0.27357 0.8562 0.92141 0.0
C970 C 0.29427 0.85546 0.92372 0.0
C971 C 0.30366 0.86632 0.93926 0.0
C972 C 0.26303 0.86797 0.93487 0.0
H973 H 0.29957 0.88621 0.96423 0.0
C974 C 0.28172 0.9096 0.9974 0.0
O975 O 0.25549 0.87441 0.04143 0.0
O976 O 0.27335 0.85708 0.02012 0.0
N977 N 0.23359 0.8798 0.94813 0.0
C978 C 0.21346 0.88169 0.94829 0.0
C979 C 0.20182 0.87168 0.93375 0.0
C980 C 0.21099 0.85998 0.91911 0.0
C981 C 0.23174 0.85839 0.91915 0.0
C982 C 0.24258 0.86883 0.93393 0.0
H983 H 0.20634 0.89076 0.95944 0.0
O984 O 0.234 0.85534 0.00557 0.0
O985 O 0.25249 0.87155 0.984 0.0
O986 O 0.23209 0.89832 0.01036 0.0
O987 O 0.23279 0.90852 0.9788 0.0
C988 C 0.24209 0.84676 0.9052 0.0
C989 C 0.26297 0.84556 0.9064 0.0
H990 H 0.30309 0.84652 0.91371 0.0
H991 H 0.31962 0.86575 0.94119 0.0
H992 H 0.18581 0.87298 0.93381 0.0
H993 H 0.20194 0.85225 0.90795 0.0
H994 H 0.23412 0.83853 0.89358 0.0
H995 H 0.27073 0.83636 0.89575 0.0
Mn996 Mn 0.13985 0.50492 0.25619 0.0
Mn997 Mn 0.12113 0.55125 0.25653 0.0
C998 C 0.15679 0.53089 0.24072 0.0
C999 C 0.15914 0.47978 0.26949 0.0
C1000 C 0.10558 0.51797 0.22933 0.0
O1001 O 0.11957 0.5036 0.27879 0.0
O1002 O 0.10868 0.53511 0.27787 0.0
C1003 C 0.13798 0.56514 0.29514 0.0
N1004 N 0.13591 0.56751 0.27521 0.0
C1005 C 0.15662 0.59731 0.27613 0.0
C1006 C 0.15888 0.59526 0.29669 0.0
C1007 C 0.14955 0.57908 0.30622 0.0
C1008 C 0.14494 0.58294 0.26588 0.0
H1009 H 0.13088 0.5527 0.30252 0.0
C1010 C 0.10865 0.51762 0.28526 0.0
O1011 O 0.14453 0.47578 0.25733 0.0
O1012 O 0.16205 0.49838 0.27464 0.0
N1013 N 0.1319 0.56863 0.23681 0.0
C1014 C 0.12842 0.56831 0.21687 0.0
C1015 C 0.13657 0.58357 0.20515 0.0
C1016 C 0.14807 0.59905 0.21405 0.0
C1017 C 0.15133 0.59914 0.23462 0.0
C1018 C 0.14261 0.58367 0.24557 0.0
H1019 H 0.11949 0.55653 0.20994 0.0
O1020 O 0.15991 0.51252 0.23554 0.0
O1021 O 0.14389 0.53351 0.25477 0.0
O1022 O 0.11752 0.50488 0.23539 0.0
O1023 O 0.10542 0.53574 0.23643 0.0
C1024 C 0.16294 0.61391 0.24467 0.0
C1025 C 0.16567 0.61294 0.26539 0.0
H1026 H 0.16781 0.60596 0.30528 0.0
H1027 H 0.15128 0.57735 0.32207 0.0
H1028 H 0.13398 0.58341 0.18929 0.0
H1029 H 0.15429 0.6108 0.20495 0.0
H1030 H 0.16997 0.62598 0.23657 0.0
H1031 H 0.1748 0.62427 0.27292 0.0
Mn1032 Mn 0.7587 0.62909 0.00732 0.0
Mn1033 Mn 0.71474 0.64281 0.98779 0.0
C1034 C 0.73047 0.60862 0.01049 0.0
C1035 C 0.78946 0.61348 0.00552 0.0
C1036 C 0.73249 0.66125 0.02552 0.0
O1037 O 0.76702 0.65089 0.98768 0.0
O1038 O 0.73705 0.65645 0.97389 0.0
C1039 C 0.71842 0.6245 0.94773 0.0
N1040 N 0.70808 0.62676 0.96492 0.0
C1041 C 0.68143 0.60521 0.95276 0.0
C1042 C 0.69169 0.60284 0.93483 0.0
C1043 C 0.71031 0.61245 0.93235 0.0
C1044 C 0.69025 0.61742 0.96754 0.0
H1045 H 0.73278 0.63177 0.94583 0.0
C1046 C 0.75595 0.6593 0.97493 0.0
O1047 O 0.78614 0.62773 0.01821 0.0
O1048 O 0.77511 0.60876 0.99322 0.0
N1049 N 0.69177 0.63059 0.99968 0.0
C1050 C 0.68449 0.63329 0.01835 0.0
C1051 C 0.66628 0.62409 0.02353 0.0
C1052 C 0.65566 0.61239 0.00942 0.0
C1053 C 0.66337 0.60994 0.99026 0.0
C1054 C 0.68153 0.61957 0.98592 0.0
H1055 H 0.69251 0.64237 0.02922 0.0
O1056 O 0.74533 0.60711 0.02267 0.0
O1057 O 0.73254 0.62198 0.99687 0.0
O1058 O 0.74755 0.65014 0.02623 0.0
O1059 O 0.7197 0.66015 0.01147 0.0
C1060 C 0.65396 0.59799 0.97543 0.0
C1061 C 0.66302 0.59558 0.95671 0.0
H1062 H 0.68552 0.59349 0.92296 0.0
H1063 H 0.71839 0.61056 0.91862 0.0
H1064 H 0.66044 0.62601 0.03836 0.0
H1065 H 0.64169 0.60521 0.01351 0.0
H1066 H 0.63996 0.59028 0.97839 0.0
H1067 H 0.65583 0.58605 0.94556 0.0
Mn1068 Mn 0.87864 0.00947 0.25865 0.0
Mn1069 Mn 0.89389 0.9619 0.25605 0.0
C1070 C 0.85912 0.98485 0.24297 0.0
C1071 C 0.86133 0.03541 0.27375 0.0
C1072 C 0.91066 0.9946 0.22993 0.0
O1073 O 0.90004 0.00903 0.28045 0.0
O1074 O 0.9084 0.97674 0.27759 0.0
C1075 C 0.87809 0.94838 0.29467 0.0
N1076 N 0.87892 0.94633 0.27456 0.0
C1077 C 0.85604 0.91815 0.27493 0.0
C1078 C 0.85504 0.91989 0.29566 0.0
C1079 C 0.86609 0.9351 0.30557 0.0
C1080 C 0.86827 0.93181 0.26487 0.0
H1081 H 0.8865 0.96009 0.30235 0.0
C1082 C 0.91014 0.99408 0.2858 0.0
O1083 O 0.8757 0.03888 0.26137 0.0
O1084 O 0.85777 0.0169 0.27822 0.0
N1085 N 0.88083 0.9458 0.23597 0.0
C1086 C 0.88299 0.94652 0.2159 0.0
C1087 C 0.87281 0.93239 0.20378 0.0
C1088 C 0.86062 0.91761 0.21242 0.0
C1089 C 0.85877 0.91706 0.23312 0.0
C1090 C 0.86943 0.93141 0.24445 0.0
H1091 H 0.89237 0.95781 0.20917 0.0
O1092 O 0.85711 1.00345 0.23855 0.0
O1093 O 0.87257 0.98126 0.2562 0.0
O1094 O 0.89994 0.00842 0.23698 0.0
O1095 O 0.90975 0.97668 0.23611 0.0
C1096 C 0.84662 0.90296 0.24295 0.0
C1097 C 0.84518 0.90356 0.26383 0.0
H1098 H 0.84575 0.90972 0.30411 0.0
H1099 H 0.86532 0.9366 0.32156 0.0
H1100 H 0.87431 0.93291 0.18781 0.0
H1101 H 0.85272 0.90681 0.20301 0.0
H1102 H 0.83816 0.8917 0.23459 0.0
H1103 H 0.8356 0.89279 0.2712 0.0
Mn1104 Mn 0.25981 0.12923 0.50764 0.0
Mn1105 Mn 0.21556 0.14418 0.48972 0.0
C1106 C 0.2316 0.10865 0.5098 0.0
C1107 C 0.29053 0.11353 0.50529 0.0
C1108 C 0.23282 0.15946 0.52863 0.0
O1109 O 0.26831 0.15164 0.48899 0.0
O1110 O 0.23788 0.1606 0.47876 0.0
C1111 C 0.22151 0.13193 0.44779 0.0
N1112 N 0.21048 0.13122 0.46468 0.0
C1113 C 0.18539 0.11029 0.44871 0.0
C1114 C 0.19643 0.11089 0.4311 0.0
C1115 C 0.2146 0.1217 0.43066 0.0
C1116 C 0.19303 0.12078 0.46529 0.0
H1117 H 0.23548 0.14023 0.44738 0.0
C1118 C 0.25689 0.16263 0.47891 0.0
O1119 O 0.28722 0.1273 0.5185 0.0
O1120 O 0.27618 0.10932 0.49282 0.0
N1121 N 0.19251 0.12973 0.49878 0.0
C1122 C 0.18422 0.12977 0.5172 0.0
C1123 C 0.16616 0.11931 0.52029 0.0
C1124 C 0.15672 0.10908 0.50438 0.0
C1125 C 0.16544 0.1094 0.48551 0.0
C1126 C 0.18339 0.12019 0.48331 0.0
H1127 H 0.1914 0.13761 0.52948 0.0
O1128 O 0.24634 0.10675 0.52205 0.0
O1129 O 0.23359 0.12267 0.4968 0.0
O1130 O 0.24889 0.14984 0.52739 0.0
O1131 O 0.21901 0.1581 0.51561 0.0
C1132 C 0.15727 0.09906 0.46891 0.0
C1133 C 0.16727 0.09945 0.45054 0.0
H1134 H 0.19118 0.10298 0.41788 0.0
H1135 H 0.22324 0.12216 0.41715 0.0
H1136 H 0.15956 0.11908 0.53491 0.0
H1137 H 0.14289 0.10087 0.50685 0.0
H1138 H 0.14348 0.09048 0.4702 0.0
H1139 H 0.161 0.0912 0.43797 0.0
Mn1140 Mn 0.37869 0.50957 0.75874 0.0
Mn1141 Mn 0.39449 0.46216 0.75661 0.0
C1142 C 0.35953 0.48457 0.74317 0.0
C1143 C 0.36098 0.53547 0.7735 0.0
C1144 C 0.41098 0.49477 0.73024 0.0
O1145 O 0.39999 0.50958 0.78067 0.0
O1146 O 0.40882 0.47741 0.77797 0.0
C1147 C 0.37881 0.44895 0.79538 0.0
N1148 N 0.3797 0.44665 0.77529 0.0
C1149 C 0.3573 0.4181 0.77599 0.0
C1150 C 0.35624 0.4201 0.7967 0.0
C1151 C 0.367 0.43562 0.80643 0.0
C1152 C 0.3693 0.43184 0.76577 0.0
H1153 H 0.38701 0.46089 0.80292 0.0
C1154 C 0.41032 0.4948 0.78608 0.0
O1155 O 0.37539 0.53897 0.76117 0.0
O1156 O 0.3576 0.51698 0.77812 0.0
N1157 N 0.38167 0.44565 0.73671 0.0
C1158 C 0.38389 0.44612 0.71663 0.0
C1159 C 0.37401 0.43163 0.70468 0.0
C1160 C 0.36207 0.41676 0.7135 0.0
C1161 C 0.36016 0.41648 0.7342 0.0
C1162 C 0.3705 0.43119 0.74536 0.0
H1163 H 0.39311 0.45746 0.70978 0.0
O1164 O 0.35732 0.50309 0.73857 0.0
O1165 O 0.37295 0.48127 0.75651 0.0
O1166 O 0.40013 0.50856 0.73718 0.0
O1167 O 0.41019 0.47689 0.73653 0.0
C1168 C 0.34827 0.40228 0.7442 0.0
C1169 C 0.34675 0.40316 0.76507 0.0
H1170 H 0.34712 0.40988 0.80527 0.0
H1171 H 0.36619 0.43732 0.8224 0.0
H1172 H 0.37557 0.43194 0.68871 0.0
H1173 H 0.35442 0.40567 0.70421 0.0
H1174 H 0.34008 0.39072 0.73598 0.0
H1175 H 0.33737 0.39231 0.77257 0.0
Mn1176 Mn 0.75521 0.37849 0.51014 0.0
Mn1177 Mn 0.75488 0.39598 0.46342 0.0
C1178 C 0.74054 0.35981 0.48449 0.0
C1179 C 0.76977 0.36038 0.53555 0.0
C1180 C 0.72746 0.41104 0.49569 0.0
O1181 O 0.77717 0.40025 0.51109 0.0
O1182 O 0.77609 0.41004 0.4792 0.0
C1183 C 0.7939 0.38111 0.45041 0.0
N1184 N 0.77383 0.38185 0.4479 0.0
C1185 C 0.77501 0.36045 0.41895 0.0
C1186 C 0.79571 0.35955 0.42116 0.0
C1187 C 0.80519 0.36989 0.43699 0.0
C1188 C 0.76455 0.37185 0.4328 0.0
H1189 H 0.80124 0.389 0.46258 0.0
C1190 C 0.78346 0.411 0.49677 0.0
O1191 O 0.75704 0.37415 0.53932 0.0
O1192 O 0.77462 0.35768 0.5171 0.0
N1193 N 0.7352 0.38344 0.44648 0.0
C1194 C 0.71507 0.38528 0.44684 0.0
C1195 C 0.70333 0.37558 0.43216 0.0
C1196 C 0.71242 0.36421 0.4172 0.0
C1197 C 0.73318 0.36271 0.41701 0.0
C1198 C 0.74411 0.37282 0.43195 0.0
H1199 H 0.70801 0.39403 0.45827 0.0
O1200 O 0.73529 0.35677 0.50273 0.0
O1201 O 0.75394 0.37377 0.4819 0.0
O1202 O 0.73358 0.3996 0.50926 0.0
O1203 O 0.73459 0.41104 0.47814 0.0
C1204 C 0.74343 0.35142 0.40272 0.0
C1205 C 0.76433 0.35026 0.40371 0.0
H1206 H 0.80447 0.35088 0.41086 0.0
H1207 H 0.82115 0.3692 0.43885 0.0
H1208 H 0.68732 0.37681 0.4324 0.0
H1209 H 0.7033 0.35662 0.406 0.0
H1210 H 0.73536 0.34338 0.39104 0.0
H1211 H 0.77202 0.34133 0.39277 0.0
Mn1212 Mn 0.64002 0.00572 0.75579 0.0
Mn1213 Mn 0.62078 0.05183 0.75614 0.0
C1214 C 0.65666 0.0319 0.74034 0.0
C1215 C 0.65975 0.98092 0.76913 0.0
C1216 C 0.60551 0.01836 0.72901 0.0
O1217 O 0.6198 1.00418 0.77843 0.0
O1218 O 0.60857 0.03558 0.77752 0.0
C1219 C 0.63753 0.06597 0.79471 0.0
N1220 N 0.63541 0.06828 0.77478 0.0
C1221 C 0.6558 0.0983 0.77563 0.0
C1222 C 0.65811 0.09631 0.79619 0.0
C1223 C 0.64897 0.08004 0.80575 0.0
C1224 C 0.64425 0.0838 0.76541 0.0
H1225 H 0.63059 0.05345 0.80212 0.0
C1226 C 0.60876 0.01809 0.78492 0.0
O1227 O 0.64518 0.97666 0.75699 0.0
O1228 O 0.66234 0.99956 0.77423 0.0
N1229 N 0.63133 0.06929 0.73638 0.0
C1230 C 0.6279 0.06887 0.71643 0.0
C1231 C 0.63593 0.08415 0.70467 0.0
C1232 C 0.64728 0.09976 0.71354 0.0
C1233 C 0.65048 0.09997 0.73411 0.0
C1234 C 0.64189 0.08447 0.74511 0.0
H1235 H 0.6191 0.05696 0.70953 0.0
O1236 O 0.65999 0.01359 0.73511 0.0
O1237 O 0.64371 0.03434 0.75437 0.0
O1238 O 0.61762 0.00539 0.73501 0.0
O1239 O 0.6052 0.03613 0.7361 0.0
C1240 C 0.66196 0.11487 0.74412 0.0
C1241 C 0.6647 0.11399 0.76486 0.0
H1242 H 0.66695 0.10711 0.80475 0.0
H1243 H 0.65075 0.07835 0.8216 0.0
H1244 H 0.63338 0.0839 0.6888 0.0
H1245 H 0.65344 0.11151 0.7044 0.0
H1246 H 0.6689 0.12698 0.73599 0.0
H1247 H 0.67373 0.12541 0.77236 0.0
Mn1248 Mn 0.00681 0.25455 0.87741 0.0
Mn1249 Mn 0.95922 0.25005 0.89298 0.0
C1250 C 0.98291 0.23822 0.85767 0.0
C1251 C 0.03243 0.27091 0.8602 0.0
C1252 C 0.99282 0.2258 0.90964 0.0
O1253 O 0.00524 0.2763 0.89916 0.0
O1254 O 0.97251 0.27336 0.90644 0.0
C1255 C 0.94298 0.287 0.87655 0.0
N1256 N 0.94232 0.26676 0.87802 0.0
C1257 C 0.9136 0.26408 0.85663 0.0
C1258 C 0.91383 0.28491 0.8551 0.0
C1259 C 0.92862 0.2964 0.86505 0.0
C1260 C 0.92818 0.25554 0.86845 0.0
H1261 H 0.95442 0.29588 0.88401 0.0
C1262 C 0.98965 0.28208 0.9083 0.0
O1263 O 0.03609 0.25852 0.87427 0.0
O1264 O 0.01388 0.27469 0.85691 0.0
N1265 N 0.9448 0.22822 0.88055 0.0
C1266 C 0.94778 0.20828 0.88208 0.0
C1267 C 0.93492 0.19467 0.87206 0.0
C1268 C 0.91912 0.20168 0.86065 0.0
C1269 C 0.91631 0.22226 0.85935 0.0
C1270 C 0.92952 0.23512 0.86976 0.0
H1271 H 0.95994 0.2028 0.89076 0.0
O1272 O 1.0016 0.23437 0.85547 0.0
O1273 O 0.97884 0.25106 0.87156 0.0
O1274 O 0.00633 0.2326 0.8982 0.0
O1275 O 0.97495 0.23179 0.90928 0.0
C1276 C 0.90122 0.23053 0.84774 0.0
C1277 C 0.89986 0.25142 0.84639 0.0
H1278 H 0.9029 0.29221 0.84609 0.0
H1279 H 0.92901 0.31247 0.86379 0.0
H1280 H 0.93724 0.17881 0.87306 0.0
H1281 H 0.90937 0.19114 0.85277 0.0
H1282 H 0.89084 0.22095 0.83947 0.0
H1283 H 0.88844 0.25759 0.83711 0.0
Mn1284 Mn 0.50781 0.75365 0.37709 0.0
Mn1285 Mn 0.46064 0.75234 0.39429 0.0
C1286 C 0.48248 0.73796 0.35874 0.0
C1287 C 0.53401 0.7679 0.35896 0.0
C1288 C 0.49282 0.72594 0.41009 0.0
O1289 O 0.5083 0.77615 0.39811 0.0
O1290 O 0.47619 0.77418 0.40779 0.0
C1291 C 0.44776 0.79085 0.37838 0.0
N1292 N 0.44523 0.77071 0.3797 0.0
C1293 C 0.41646 0.77083 0.35836 0.0
C1294 C 0.41869 0.79159 0.35686 0.0
C1295 C 0.43443 0.80164 0.36687 0.0
C1296 C 0.43022 0.76088 0.37001 0.0
H1297 H 0.45986 0.79863 0.38601 0.0
C1298 C 0.49372 0.78213 0.40864 0.0
O1299 O 0.53711 0.75562 0.37325 0.0
O1300 O 0.51569 0.7727 0.35579 0.0
N1301 N 0.44385 0.73201 0.38233 0.0
C1302 C 0.4441 0.7119 0.38489 0.0
C1303 C 0.42934 0.69965 0.37583 0.0
C1304 C 0.41441 0.7082 0.36435 0.0
C1305 C 0.41439 0.72894 0.36202 0.0
C1306 C 0.42936 0.74041 0.37158 0.0
H1307 H 0.45547 0.70525 0.39379 0.0
O1308 O 0.50083 0.73308 0.35606 0.0
O1309 O 0.47952 0.75163 0.37218 0.0
O1310 O 0.50651 0.7324 0.39864 0.0
O1311 O 0.47517 0.73255 0.40989 0.0
C1312 C 0.40018 0.73866 0.35049 0.0
C1313 C 0.40128 0.75958 0.34857 0.0
H1314 H 0.40846 0.79996 0.34798 0.0
H1315 H 0.4363 0.81765 0.36572 0.0
H1316 H 0.42946 0.68366 0.37769 0.0
H1317 H 0.40307 0.69868 0.35739 0.0
H1318 H 0.38845 0.73019 0.34287 0.0
H1319 H 0.39042 0.76686 0.33946 0.0
Mn1320 Mn 0.00976 0.75848 0.63094 0.0
Mn1321 Mn 0.99175 0.71404 0.64709 0.0
C1322 C 0.01187 0.72998 0.6111 0.0
C1323 C 0.00676 0.78877 0.61446 0.0
C1324 C 0.03083 0.73243 0.66143 0.0
O1325 O 0.99114 0.76687 0.65331 0.0
O1326 O 0.9805 0.73636 0.66295 0.0
C1327 C 0.94975 0.71866 0.63501 0.0
N1328 N 0.96678 0.7081 0.63441 0.0
C1329 C 0.95117 0.68247 0.61387 0.0
C1330 C 0.93343 0.69301 0.61437 0.0
C1331 C 0.93274 0.71121 0.62494 0.0
C1332 C 0.96763 0.69062 0.62422 0.0
H1333 H 0.94916 0.73266 0.6431 0.0
C1334 C 0.98076 0.75546 0.6645 0.0
O1335 O 0.02032 0.78629 0.62787 0.0
O1336 O 0.99445 0.77386 0.61109 0.0
N1337 N 1.0011 0.69106 0.63311 0.0
C1338 C 0.01965 0.68333 0.63315 0.0
C1339 C 0.02299 0.66535 0.62288 0.0
C1340 C 0.00722 0.65543 0.61281 0.0
C1341 C 0.98824 0.66359 0.61309 0.0
C1342 C 0.98576 0.68148 0.6237 0.0
H1343 H 0.03183 0.69092 0.64082 0.0
O1344 O 0.02411 0.745 0.60861 0.0
O1345 O 0.99895 0.73193 0.62526 0.0
O1346 O 0.02976 0.74833 0.65137 0.0
O1347 O 0.01761 0.71844 0.6607 0.0
C1348 C 0.97177 0.65492 0.60289 0.0
C1349 C 0.95327 0.66438 0.60324 0.0
H1350 H 0.9203 0.68736 0.60657 0.0
H1351 H 0.91913 0.71948 0.62532 0.0
H1352 H 0.03771 0.65918 0.62267 0.0
H1353 H 0.0099 0.64166 0.60475 0.0
H1354 H 0.97327 0.64117 0.59444 0.0
H1355 H 0.9408 0.65773 0.59509 0.0
Mn1356 Mn 0.50912 0.2564 0.1307 0.0
Mn1357 Mn 0.48935 0.21313 0.14799 0.0
C1358 C 0.50958 0.22754 0.11127 0.0
C1359 C 0.50723 0.2866 0.11404 0.0
C1360 C 0.52938 0.23019 0.16148 0.0
O1361 O 0.49158 0.26593 0.1536 0.0
O1362 O 0.47871 0.23618 0.16311 0.0
C1363 C 0.44761 0.2185 0.13547 0.0
N1364 N 0.46434 0.20748 0.1353 0.0
C1365 C 0.44821 0.18167 0.1154 0.0
C1366 C 0.43076 0.19269 0.11546 0.0
C1367 C 0.43048 0.21121 0.12549 0.0
C1368 C 0.46479 0.18968 0.12563 0.0
H1369 H 0.44735 0.23275 0.14315 0.0
C1370 C 0.48031 0.25523 0.16465 0.0
O1371 O 0.5211 0.28347 0.12695 0.0
O1372 O 0.49387 0.27249 0.11128 0.0
N1373 N 0.49819 0.18952 0.13477 0.0
C1374 C 0.51649 0.18126 0.13529 0.0
C1375 C 0.51943 0.1629 0.12555 0.0
C1376 C 0.5035 0.15314 0.11557 0.0
C1377 C 0.48475 0.16181 0.11545 0.0
C1378 C 0.48268 0.18007 0.12551 0.0
H1379 H 0.52877 0.18866 0.143 0.0
O1380 O 0.52219 0.2421 0.10814 0.0
O1381 O 0.49704 0.23023 0.12567 0.0
O1382 O 0.52928 0.24546 0.15043 0.0
O1383 O 0.51515 0.21724 0.16178 0.0
C1384 C 0.46814 0.15328 0.10537 0.0
C1385 C 0.4499 0.16322 0.10531 0.0
H1386 H 0.41754 0.18716 0.10772 0.0
H1387 H 0.4171 0.21984 0.12553 0.0
H1388 H 0.53395 0.15631 0.1257 0.0
H1389 H 0.50587 0.13907 0.10793 0.0
H1390 H 0.46933 0.13923 0.09735 0.0
H1391 H 0.43732 0.15666 0.09725 0.0
H1392 H 0.20517 0.79106 0.88148 0.0
H1393 H 0.23626 0.74828 0.9168 0.0
H1394 H 0.20732 0.81496 0.90902 0.0
H1395 H 0.23979 0.77303 0.94348 0.0
H1396 H 0.20274 0.84335 0.97437 0.0
H1397 H 0.19626 0.81713 0.94892 0.0
H1398 H 0.25945 0.80932 0.94267 0.0
H1399 H 0.26584 0.83575 0.96749 0.0
C1400 C 0.21229 0.78656 0.89505 0.0
C1401 C 0.22069 0.76758 0.89662 0.0
C1402 C 0.21363 0.80041 0.91079 0.0
C1403 C 0.22388 0.79587 0.92823 0.0
C1404 C 0.23198 0.77693 0.93006 0.0
C1405 C 0.23014 0.76285 0.9146 0.0
C1406 C 0.21514 0.83598 0.96747 0.0
C1407 C 0.23476 0.84179 0.9724 0.0
C1408 C 0.21147 0.82106 0.95299 0.0
C1409 C 0.22739 0.81128 0.9439 0.0
C1410 C 0.24695 0.81659 0.94952 0.0
C1411 C 0.25059 0.83175 0.96358 0.0
H1412 H 0.01528 0.5162 0.37539 0.0
H1413 H 0.07132 0.52195 0.40667 0.0
H1414 H 0.03304 0.51053 0.34429 0.0
H1415 H 0.08908 0.5164 0.37552 0.0
H1416 H 0.11448 0.49267 0.31665 0.0
H1417 H 0.09507 0.49105 0.34744 0.0
H1418 H 0.05451 0.53376 0.32408 0.0
H1419 H 0.07382 0.5355 0.29365 0.0
C1420 C 0.03138 0.5159 0.37569 0.0
C1421 C 0.04189 0.51965 0.39348 0.0
C1422 C 0.04154 0.51278 0.35785 0.0
C1423 C 0.06246 0.51309 0.35743 0.0
C1424 C 0.07297 0.51592 0.37537 0.0
C1425 C 0.0628 0.51929 0.39318 0.0
C1426 C 0.10121 0.5014 0.318 0.0
C1427 C 0.09572 0.51425 0.30275 0.0
C1428 C 0.0902 0.50059 0.33566 0.0
C1429 C 0.07327 0.5123 0.33819 0.0
C1430 C 0.06734 0.52442 0.32254 0.0
C1431 C 0.07849 0.52549 0.30513 0.0
H1432 H 0.75966 0.75425 0.89232 0.0
H1433 H 0.82257 0.74505 0.90013 0.0
H1434 H 0.75219 0.72792 0.91545 0.0
H1435 H 0.81494 0.71765 0.92271 0.0
H1436 H 0.79003 0.68308 0.97846 0.0
H1437 H 0.80123 0.70926 0.95562 0.0
H1438 H 0.75314 0.69255 0.91554 0.0
H1439 H 0.74173 0.66727 0.93834 0.0
C1440 C 0.77197 0.74671 0.89905 0.0
C1441 C 0.79175 0.75193 0.89433 0.0
C1442 C 0.76765 0.7313 0.91214 0.0
C1443 C 0.78294 0.7204 0.92077 0.0
C1444 C 0.80279 0.72575 0.91636 0.0
C1445 C 0.80715 0.74132 0.90325 0.0
C1446 C 0.78205 0.68493 0.96464 0.0
C1447 C 0.76482 0.6733 0.96037 0.0
C1448 C 0.78846 0.69989 0.95155 0.0
C1449 C 0.77781 0.70333 0.93393 0.0
C1450 C 0.76135 0.69081 0.92923 0.0
C1451 C 0.75487 0.67616 0.9423 0.0
H1452 H 0.98656 0.02474 0.38918 0.0
H1453 H 0.97989 0.96051 0.38644 0.0
H1454 H 0.96605 0.02711 0.35933 0.0
H1455 H 0.95872 0.96293 0.35739 0.0
H1456 H 0.94108 0.97023 0.29403 0.0
H1457 H 0.96226 0.97068 0.32319 0.0
H1458 H 0.93232 0.02243 0.34596 0.0
H1459 H 0.91119 0.02226 0.3162 0.0
C1460 C 0.98071 0.01113 0.38227 0.0
C1461 C 0.98502 0.99242 0.39025 0.0
C1462 C 0.96875 0.01251 0.36527 0.0
C1463 C 0.96083 0.99522 0.3558 0.0
C1464 C 0.96483 0.97658 0.36403 0.0
C1465 C 0.97679 0.97519 0.38093 0.0
C1466 C 0.93901 0.98183 0.30515 0.0
C1467 C 0.92425 0.99611 0.30281 0.0
C1468 C 0.95112 0.98199 0.322 0.0
C1469 C 0.94878 0.99633 0.33719 0.0
C1470 C 0.93456 0.01117 0.33455 0.0
C1471 C 0.92244 0.01108 0.3175 0.0
H1472 H 0.24659 0.23328 0.63632 0.0
H1473 H 0.19108 0.25118 0.61091 0.0
H1474 H 0.24983 0.20794 0.6103 0.0
H1475 H 0.19477 0.22688 0.58392 0.0
H1476 H 0.19797 0.17145 0.54535 0.0
H1477 H 0.19367 0.19423 0.57336 0.0
H1478 H 0.25757 0.20269 0.5777 0.0
H1479 H 0.26172 0.17883 0.55063 0.0
C1480 C 0.23515 0.2318 0.62499 0.0
C1481 C 0.21859 0.24408 0.62556 0.0
C1482 C 0.23706 0.21741 0.60991 0.0
C1483 C 0.22267 0.21528 0.59469 0.0
C1484 C 0.20602 0.22766 0.59544 0.0
C1485 C 0.20391 0.24173 0.61083 0.0
C1486 C 0.21108 0.17808 0.55243 0.0
C1487 C 0.23019 0.17323 0.54582 0.0
C1488 C 0.20864 0.19135 0.56843 0.0
C1489 C 0.22524 0.20054 0.57798 0.0
C1490 C 0.24436 0.19569 0.5712 0.0
C1491 C 0.24679 0.18206 0.55551 0.0
H1492 H 0.51331 0.51072 0.65231 0.0
H1493 H 0.46317 0.52925 0.61741 0.0
H1494 H 0.49117 0.50391 0.68008 0.0
H1495 H 0.44119 0.52295 0.64547 0.0
H1496 H 0.41243 0.52838 0.70752 0.0
H1497 H 0.43485 0.53591 0.68006 0.0
H1498 H 0.46341 0.47967 0.68804 0.0
H1499 H 0.44105 0.47206 0.71549 0.0
C1500 C 0.49758 0.51326 0.65046 0.0
C1501 C 0.49009 0.52046 0.63247 0.0
C1502 C 0.4849 0.5094 0.66645 0.0
C1503 C 0.46443 0.51285 0.66497 0.0
C1504 C 0.45694 0.52035 0.64715 0.0
C1505 C 0.46959 0.52402 0.63107 0.0
C1506 C 0.42353 0.51763 0.7035 0.0
C1507 C 0.42491 0.4996 0.71379 0.0
C1508 C 0.43629 0.52191 0.68767 0.0
C1509 C 0.4509 0.50839 0.68188 0.0
C1510 C 0.45243 0.49048 0.69226 0.0
C1511 C 0.43953 0.48608 0.70795 0.0
H1512 H 0.79464 0.25546 0.60364 0.0
H1513 H 0.81037 0.30385 0.64422 0.0
H1514 H 0.78648 0.27954 0.57823 0.0
H1515 H 0.80262 0.32791 0.61869 0.0
H1516 H 0.76326 0.36326 0.57556 0.0
H1517 H 0.77315 0.34003 0.6011 0.0
H1518 H 0.80288 0.30452 0.55678 0.0
H1519 H 0.79288 0.32765 0.53121 0.0
C1520 C 0.79636 0.27124 0.60714 0.0
C1521 C 0.80317 0.27772 0.62596 0.0
C1522 C 0.79187 0.28504 0.59251 0.0
C1523 C 0.79394 0.30567 0.5964 0.0
C1524 C 0.80073 0.31214 0.61524 0.0
C1525 C 0.80535 0.29834 0.62981 0.0
C1526 C 0.77207 0.3506 0.57129 0.0
C1527 C 0.77725 0.34731 0.55134 0.0
C1528 C 0.77779 0.33731 0.58595 0.0
C1529 C 0.78872 0.32034 0.58097 0.0
C1530 C 0.79424 0.31729 0.56107 0.0
C1531 C 0.78863 0.33064 0.54644 0.0
H1532 H 0.56091 0.97945 0.61393 0.0
H1533 H 0.50804 1.00074 0.64281 0.0
H1534 H 0.58025 0.98733 0.64373 0.0
H1535 H 0.52762 0.00901 0.67258 0.0
H1536 H 0.5758 0.04057 0.71304 0.0
H1537 H 0.5549 0.03233 0.68422 0.0
H1538 H 0.58322 0.97552 0.67815 0.0
H1539 H 0.6042 0.9837 0.70682 0.0
C1540 C 0.55333 0.98566 0.62668 0.0
C1541 C 0.53282 0.98928 0.62593 0.0
C1542 C 0.56447 0.99021 0.64378 0.0
C1543 C 0.55547 0.99867 0.6606 0.0
C1544 C 0.53504 1.00264 0.65982 0.0
C1545 C 0.52383 0.99795 0.64271 0.0
C1546 C 0.57751 0.02625 0.70567 0.0
C1547 C 0.59179 0.01285 0.71229 0.0
C1548 C 0.56544 0.02151 0.68918 0.0
C1549 C 0.56747 1.00333 0.6788 0.0
C1550 C 0.58147 0.98978 0.68564 0.0
C1551 C 0.59342 0.99444 0.70219 0.0
H1552 H 0.89605 0.24344 0.76214 0.0
H1553 H 0.89077 0.18295 0.78336 0.0
H1554 H 0.92465 0.24933 0.7831 0.0
H1555 H 0.91763 0.1899 0.80652 0.0
H1556 H 0.9752 0.20199 0.83944 0.0
H1557 H 0.95067 0.1945 0.81327 0.0
H1558 H 0.93412 0.25653 0.81417 0.0
H1559 H 0.95954 0.26383 0.83885 0.0
C1560 C 0.90084 0.23129 0.77121 0.0
C1561 C 0.89073 0.21264 0.77078 0.0
C1562 C 0.91717 0.23489 0.78376 0.0
C1563 C 0.92356 0.22025 0.79694 0.0
C1564 C 0.91353 0.20157 0.7965 0.0
C1565 C 0.89763 0.19772 0.78342 0.0
C1566 C 0.96632 0.21391 0.83379 0.0
C1567 C 0.96857 0.2333 0.84164 0.0
C1568 C 0.9521 0.20966 0.81892 0.0
C1569 C 0.93993 0.22479 0.81161 0.0
C1570 C 0.94313 0.24438 0.81899 0.0
C1571 C 0.95748 0.24859 0.83353 0.0
H1572 H 0.48893 0.87253 0.50328 0.0
H1573 H 0.48667 0.90405 0.44797 0.0
H1574 H 0.49543 0.8416 0.48515 0.0
H1575 H 0.49289 0.87296 0.42979 0.0
H1576 H 0.51844 0.81507 0.40409 0.0
H1577 H 0.51843 0.84613 0.42395 0.0
H1578 H 0.47436 0.82001 0.46281 0.0
H1579 H 0.47432 0.78931 0.44312 0.0
C1580 C 0.49006 0.87292 0.48726 0.0
C1581 C 0.48717 0.89076 0.47708 0.0
C1582 C 0.49366 0.85516 0.47687 0.0
C1583 C 0.49464 0.85481 0.45602 0.0
C1584 C 0.4924 0.87277 0.44585 0.0
C1585 C 0.4886 0.89052 0.45625 0.0
C1586 C 0.50909 0.81589 0.41712 0.0
C1587 C 0.49636 0.79977 0.42202 0.0
C1588 C 0.50894 0.8337 0.42837 0.0
C1589 C 0.49634 0.83555 0.44492 0.0
C1590 C 0.48436 0.81905 0.45029 0.0
C1591 C 0.48428 0.80147 0.43893 0.0
H1592 H 0.14295 0.3014 0.79733 0.0
H1593 H 0.09848 0.28707 0.75259 0.0
H1594 H 0.11768 0.29844 0.82309 0.0
H1595 H 0.07338 0.28341 0.77837 0.0
H1596 H 0.0288 0.29378 0.82716 0.0
H1597 H 0.05449 0.30195 0.80288 0.0
H1598 H 0.09788 0.27222 0.83853 0.0
H1599 H 0.0723 0.26436 0.86292 0.0
C1600 C 0.12776 0.29774 0.79296 0.0
C1601 C 0.12278 0.29443 0.77286 0.0
C1602 C 0.1133 0.29585 0.80776 0.0
C1603 C 0.09347 0.29067 0.80284 0.0
C1604 C 0.08844 0.28766 0.78271 0.0
C1605 C 0.1029 0.28949 0.76792 0.0
C1606 C 0.04389 0.28928 0.82998 0.0
C1607 C 0.04847 0.27835 0.84695 0.0
C1608 C 0.05859 0.29381 0.81597 0.0
C1609 C 0.07823 0.28757 0.81862 0.0
C1610 C 0.08297 0.27741 0.83605 0.0
C1611 C 0.06827 0.27285 0.85003 0.0
H1612 H 0.54866 0.63958 0.48757 0.0
H1613 H 0.48635 0.62247 0.48677 0.0
H1614 H 0.54191 0.66723 0.46563 0.0
H1615 H 0.47959 0.6497 0.46444 0.0
H1616 H 0.47006 0.71163 0.44069 0.0
H1617 H 0.47745 0.68467 0.46308 0.0
H1618 H 0.53317 0.67566 0.43286 0.0
H1619 H 0.5261 0.70311 0.41094 0.0
C1620 C 0.53355 0.6416 0.48252 0.0
C1621 C 0.51804 0.62888 0.489 0.0
C1622 C 0.52965 0.65744 0.46988 0.0
C1623 C 0.51015 0.66085 0.46323 0.0
C1624 C 0.49471 0.64789 0.46954 0.0
C1625 C 0.49859 0.63219 0.48231 0.0
C1626 C 0.48393 0.70396 0.43884 0.0
C1627 C 0.49748 0.70963 0.42398 0.0
C1628 C 0.48812 0.68834 0.45163 0.0
C1629 C 0.5059 0.67781 0.44981 0.0
C1630 C 0.51947 0.68355 0.43497 0.0
C1631 C 0.51536 0.69928 0.42229 0.0
H1632 H 0.87904 0.80327 0.7257 0.0
H1633 H 0.91856 0.78702 0.77316 0.0
H1634 H 0.90493 0.79576 0.70149 0.0
H1635 H 0.94407 0.77905 0.74894 0.0
H1636 H 0.96819 0.73828 0.69863 0.0
H1637 H 0.94526 0.75128 0.72317 0.0
H1638 H 0.9407 0.80556 0.69009 0.0
H1639 H 0.96401 0.79253 0.66534 0.0
C1640 C 0.8933 0.79842 0.73103 0.0
C1641 C 0.89654 0.79546 0.75143 0.0
C1642 C 0.90813 0.79411 0.71713 0.0
C1643 C 0.92644 0.78661 0.72331 0.0
C1644 C 0.92998 0.78449 0.74371 0.0
C1645 C 0.91529 0.78896 0.75758 0.0
C1646 C 0.96246 0.75306 0.6966 0.0
C1647 C 0.96793 0.76436 0.68 0.0
C1648 C 0.94939 0.76056 0.71075 0.0
C1649 C 0.9412 0.77945 0.70859 0.0
C1650 C 0.94675 0.79091 0.69209 0.0
C1651 C 0.96017 0.78352 0.67802 0.0
H1652 H 0.02148 0.90799 0.56413 0.0
H1653 H 0.00589 0.8687 0.51481 0.0
H1654 H 0.01741 0.88026 0.58686 0.0
H1655 H 1.00198 0.84094 0.53747 0.0
H1656 H 0.98079 0.79796 0.58473 0.0
H1657 H 0.98185 0.8272 0.56358 0.0
H1658 H 0.03346 0.85015 0.5957 0.0
H1659 H 0.03207 0.82123 0.61708 0.0
C1660 C 0.01727 0.89341 0.55812 0.0
C1661 C 0.01405 0.8906 0.53761 0.0
C1662 C 0.01494 0.87748 0.57116 0.0
C1663 C 0.00938 0.85828 0.56405 0.0
C1664 C 0.00594 0.85554 0.54356 0.0
C1665 C 0.00822 0.87149 0.53053 0.0
C1666 C 0.99222 0.80936 0.5874 0.0
C1667 C 0.00635 0.80723 0.60259 0.0
C1668 C 0.99294 0.82607 0.57517 0.0
C1669 C 0.00782 0.84105 0.57781 0.0
C1670 C 0.02164 0.83909 0.59334 0.0
C1671 C 0.0209 0.82242 0.60557 0.0
H1672 H 0.14254 0.70682 0.72192 0.0
H1673 H 0.10404 0.73257 0.76631 0.0
H1674 H 0.11612 0.70965 0.69718 0.0
H1675 H 0.07847 0.73659 0.74112 0.0
H1676 H 0.05344 0.76191 0.67964 0.0
H1677 H 0.08061 0.75805 0.70354 0.0
H1678 H 0.07458 0.69409 0.69751 0.0
H1679 H 0.04697 0.69779 0.67415 0.0
C1680 C 0.12854 0.71298 0.72654 0.0
C1681 C 0.12566 0.71955 0.74629 0.0
C1682 C 0.1135 0.71475 0.71226 0.0
C1683 C 0.09544 0.7235 0.71729 0.0
C1684 C 0.09242 0.73003 0.73688 0.0
C1685 C 0.10722 0.72784 0.75125 0.0
C1686 C 0.05798 0.74703 0.6833 0.0
C1687 C 0.04803 0.73016 0.67499 0.0
C1688 C 0.07345 0.74485 0.697 0.0
C1689 C 0.07962 0.72579 0.70224 0.0
C1690 C 0.0701 0.70893 0.69358 0.0
C1691 C 0.05429 0.71108 0.68028 0.0
H1692 H 0.01902 0.61724 0.54797 0.0
H1693 H 0.97029 0.64555 0.51895 0.0
H1694 H 0.02569 0.64752 0.56778 0.0
H1695 H 0.97755 0.67634 0.53763 0.0
H1696 H 0.97825 0.71764 0.59211 0.0
H1697 H 0.97386 0.68999 0.56868 0.0
H1698 H 0.03728 0.68049 0.57016 0.0
H1699 H 0.04124 0.70778 0.59456 0.0
C1700 C 0.01004 0.63018 0.54559 0.0
C1701 C 0.99413 0.62916 0.53208 0.0
C1702 C 0.0139 0.64762 0.55681 0.0
C1703 C 1.00214 0.66455 0.55449 0.0
C1704 C 0.98668 0.66358 0.54029 0.0
C1705 C 0.98258 0.64602 0.52941 0.0
C1706 C 0.99119 0.70949 0.58748 0.0
C1707 C 0.00991 0.71413 0.59576 0.0
C1708 C 0.98878 0.69381 0.57373 0.0
C1709 C 0.00517 0.68261 0.56759 0.0
C1710 C 0.0242 0.6883 0.57493 0.0
C1711 C 0.02655 0.704 0.58879 0.0
H1712 H 0.74783 0.91713 0.2366 0.0
H1713 H 0.78955 0.88136 0.20373 0.0
H1714 H 0.77366 0.94285 0.24166 0.0
H1715 H 0.81474 0.90794 0.20766 0.0
H1716 H 0.84535 0.97339 0.20616 0.0
H1717 H 0.81861 0.94856 0.19854 0.0
H1718 H 0.80946 0.93997 0.2612 0.0
H1719 H 0.83641 0.96417 0.26871 0.0
C1720 C 0.7624 0.91465 0.2304 0.0
C1721 C 0.7665 0.89685 0.21995 0.0
C1722 C 0.77712 0.92954 0.23315 0.0
C1723 C 0.79613 0.9273 0.22507 0.0
C1724 C 0.80012 0.91003 0.21393 0.0
C1725 C 0.78557 0.89486 0.2116 0.0
C1726 C 0.83761 0.96607 0.2182 0.0
C1727 C 0.84316 0.97018 0.23796 0.0
C1728 C 0.8224 0.95195 0.21388 0.0
C1729 C 0.81207 0.94241 0.22931 0.0
C1730 C 0.81718 0.94717 0.24906 0.0
C1731 C 0.83263 0.96086 0.25334 0.0
H1732 H 0.75401 0.10095 0.28665 0.0
H1733 H 0.79903 0.14597 0.30115 0.0
H1734 H 0.77964 0.07602 0.28365 0.0
H1735 H 0.82464 0.12088 0.29874 0.0
H1736 H 0.86476 0.07526 0.26608 0.0
H1737 H 0.84047 0.10085 0.27294 0.0
H1738 H 0.80343 0.05758 0.30326 0.0
H1739 H 0.8276 0.03191 0.29616 0.0
C1740 C 0.76938 0.10553 0.28922 0.0
C1741 C 0.77445 0.1255 0.29405 0.0
C1742 C 0.78406 0.09118 0.28775 0.0
C1743 C 0.80422 0.09642 0.29101 0.0
C1744 C 0.80928 0.11636 0.296 0.0
C1745 C 0.79458 0.13071 0.29755 0.0
C1746 C 0.85158 0.07127 0.27448 0.0
C1747 C 0.84809 0.05151 0.28049 0.0
C1748 C 0.83766 0.08597 0.27846 0.0
C1749 C 0.81988 0.08124 0.28849 0.0
C1750 C 0.8168 0.06166 0.29521 0.0
C1751 C 0.83075 0.04697 0.29129 0.0
H1752 H 0.38429 0.97156 0.95655 0.0
H1753 H 0.39379 0.97845 0.01974 0.0
H1754 H 0.35279 0.95425 0.96254 0.0
H1755 H 0.36168 0.96147 0.02577 0.0
H1756 H 0.31342 0.90798 0.02335 0.0
H1757 H 0.34461 0.92777 0.02185 0.0
H1758 H 0.32 0.96257 0.97477 0.0
H1759 H 0.28931 0.94279 0.97602 0.0
C1760 C 0.37969 0.96931 0.97176 0.0
C1761 C 0.39164 0.97634 0.98765 0.0
C1762 C 0.36147 0.9596 0.9752 0.0
C1763 C 0.35459 0.95665 0.99465 0.0
C1764 C 0.36657 0.96348 0.01063 0.0
C1765 C 0.38487 0.97333 0.00716 0.0
C1766 C 0.31458 0.92014 0.01301 0.0
C1767 C 0.29902 0.92363 0.99962 0.0
C1768 C 0.33244 0.93146 0.01212 0.0
C1769 C 0.33494 0.94645 0.99786 0.0
C1770 C 0.31879 0.95078 0.98553 0.0
C1771 C 0.30113 0.9395 0.98634 0.0
H1772 H 0.24379 0.38611 0.2603 0.0
H1773 H 0.24651 0.40095 0.32285 0.0
H1774 H 0.21805 0.41062 0.25579 0.0
H1775 H 0.22045 0.42534 0.31837 0.0
H1776 H 0.19122 0.48334 0.29471 0.0
H1777 H 0.21581 0.4581 0.30178 0.0
H1778 H 0.18286 0.41546 0.265 0.0
H1779 H 0.1584 0.4406 0.25788 0.0
C1780 C 0.23893 0.39465 0.27309 0.0
C1781 C 0.24725 0.3916 0.29192 0.0
C1782 C 0.22402 0.40855 0.27054 0.0
C1783 C 0.21713 0.41988 0.28674 0.0
C1784 C 0.2255 0.41693 0.30558 0.0
C1785 C 0.24031 0.40285 0.30817 0.0
C1786 C 0.1891 0.46851 0.28834 0.0
C1787 C 0.17289 0.46403 0.27566 0.0
C1788 C 0.20317 0.45403 0.29243 0.0
C1789 C 0.2014 0.43483 0.28379 0.0
C1790 C 0.18484 0.4302 0.27163 0.0
C1791 C 0.17073 0.4446 0.26767 0.0
H1792 H 0.14562 0.01454 0.47292 0.0
H1793 H 0.11983 0.04387 0.52361 0.0
H1794 H 0.17609 0.03472 0.47723 0.0
H1795 H 0.14958 0.0652 0.5273 0.0
H1796 H 0.20979 0.09246 0.53987 0.0
H1797 H 0.18236 0.06795 0.53702 0.0
H1798 H 0.1908 0.06532 0.47338 0.0
H1799 H 0.21879 0.0888 0.4767 0.0
C1800 C 0.14648 0.02556 0.48484 0.0
C1801 C 0.1305 0.02772 0.49794 0.0
C1802 C 0.16388 0.03726 0.48731 0.0
C1803 C 0.16554 0.05174 0.50268 0.0
C1804 C 0.14926 0.05395 0.51561 0.0
C1805 C 0.13206 0.04191 0.5134 0.0
C1806 C 0.20575 0.08643 0.52536 0.0
C1807 C 0.21569 0.09312 0.50838 0.0
C1808 C 0.18992 0.07252 0.52363 0.0
C1809 C 0.18379 0.06489 0.50488 0.0
C1810 C 0.19487 0.07066 0.48811 0.0
C1811 C 0.21075 0.08444 0.48991 0.0
H1812 H 0.71226 0.13961 0.69508 0.0
H1813 H 0.76005 0.10982 0.72482 0.0
H1814 H 0.68993 0.11143 0.70208 0.0
H1815 H 0.73711 0.08251 0.73298 0.0
H1816 H 0.67947 0.05544 0.76454 0.0
H1817 H 0.70314 0.08201 0.75518 0.0
H1818 H 0.68918 0.07083 0.69339 0.0
H1819 H 0.66584 0.04373 0.70282 0.0
C1820 C 0.71814 0.12712 0.70296 0.0
C1821 C 0.73812 0.12724 0.7094 0.0
C1822 C 0.70522 0.11103 0.70709 0.0
C1823 C 0.7118 0.09492 0.71815 0.0
C1824 C 0.73166 0.09489 0.72457 0.0
C1825 C 0.74473 0.1107 0.72003 0.0
C1826 C 0.68148 0.05871 0.74898 0.0
C1827 C 0.67056 0.048 0.73438 0.0
C1828 C 0.69507 0.07377 0.74363 0.0
C1829 C 0.69785 0.07849 0.7236 0.0
C1830 C 0.68715 0.06754 0.70895 0.0
C1831 C 0.67387 0.05211 0.7143 0.0
H1832 H 0.41044 0.07041 0.52527 0.0
H1833 H 0.3743 0.01744 0.51331 0.0
H1834 H 0.38223 0.09111 0.51778 0.0
H1835 H 0.34587 0.03815 0.5061 0.0
H1836 H 0.30112 0.08177 0.48158 0.0
H1837 H 0.33103 0.0619 0.48423 0.0
H1838 H 0.3517 0.09959 0.53305 0.0
H1839 H 0.32228 0.11957 0.53007 0.0
C1840 C 0.39643 0.06318 0.52107 0.0
C1841 C 0.3946 0.04225 0.5201 0.0
C1842 C 0.38021 0.07506 0.5168 0.0
C1843 C 0.36162 0.06636 0.51154 0.0
C1844 C 0.35996 0.04542 0.5099 0.0
C1845 C 0.37627 0.03352 0.51408 0.0
C1846 C 0.3122 0.08593 0.4927 0.0
C1847 C 0.30929 0.10229 0.50559 0.0
C1848 C 0.32928 0.07444 0.49433 0.0
C1849 C 0.34386 0.07907 0.50888 0.0
C1850 C 0.34104 0.0957 0.52146 0.0
C1851 C 0.32404 0.10714 0.51982 0.0
H1852 H 0.63976 0.48935 0.55013 0.0
H1853 H 0.62406 0.48623 0.48798 0.0
H1854 H 0.66753 0.46739 0.54389 0.0
H1855 H 0.65147 0.46396 0.48175 0.0
H1856 H 0.71367 0.44118 0.47284 0.0
H1857 H 0.68654 0.46341 0.47989 0.0
H1858 H 0.67616 0.43406 0.53567 0.0
H1859 H 0.70383 0.4122 0.5289 0.0
C1860 C 0.64213 0.4838 0.53516 0.0
C1861 C 0.62975 0.48963 0.51954 0.0
C1862 C 0.65804 0.47115 0.53157 0.0
C1863 C 0.66189 0.46388 0.51228 0.0
C1864 C 0.6493 0.46956 0.49672 0.0
C1865 C 0.63352 0.48231 0.50029 0.0
C1866 C 0.70567 0.43946 0.48666 0.0
C1867 C 0.71102 0.42483 0.50029 0.0
C1868 C 0.68995 0.45216 0.49065 0.0
C1869 C 0.67897 0.45054 0.50831 0.0
C1870 C 0.68439 0.43598 0.52202 0.0
C1871 C 0.70024 0.42334 0.51809 0.0
H1872 H 0.75097 0.28148 0.38205 0.0
H1873 H 0.69464 0.26275 0.40677 0.0
H1874 H 0.75475 0.30712 0.40769 0.0
H1875 H 0.69876 0.28768 0.43343 0.0
H1876 H 0.70457 0.34557 0.47037 0.0
H1877 H 0.69891 0.32054 0.44396 0.0
H1878 H 0.76249 0.31252 0.44009 0.0
H1879 H 0.76783 0.33845 0.46518 0.0
C1880 C 0.73947 0.28282 0.39318 0.0
C1881 C 0.72259 0.27015 0.39255 0.0
C1882 C 0.74165 0.29744 0.40805 0.0
C1883 C 0.7272 0.29951 0.423 0.0
C1884 C 0.71013 0.28686 0.42214 0.0
C1885 C 0.70777 0.27246 0.40695 0.0
C1886 C 0.71721 0.33844 0.46364 0.0
C1887 C 0.73661 0.34427 0.46922 0.0
C1888 C 0.71404 0.32395 0.44864 0.0
C1889 C 0.73024 0.31455 0.43947 0.0
C1890 C 0.7496 0.3198 0.44608 0.0
C1891 C 0.75273 0.33457 0.46062 0.0
H1892 H 0.57165 0.02203 0.90653 0.0
H1893 H 0.51566 0.01573 0.87521 0.0
H1894 H 0.58948 0.01687 0.87534 0.0
H1895 H 0.53347 0.01041 0.84411 0.0
H1896 H 0.57375 0.03559 0.79336 0.0
H1897 H 0.55461 0.03378 0.82388 0.0
H1898 H 0.59574 0.99162 0.84725 0.0
H1899 H 0.615 0.99333 0.81637 0.0
C1900 C 0.56316 0.01936 0.89302 0.0
C1901 C 0.54224 0.01942 0.89334 0.0
C1902 C 0.57337 0.0162 0.8752 0.0
C1903 C 0.56288 0.01328 0.85725 0.0
C1904 C 0.54197 0.01273 0.85768 0.0
C1905 C 0.53177 0.01565 0.87551 0.0
C1906 C 0.57858 0.02569 0.80487 0.0
C1907 C 0.59593 0.01463 0.80246 0.0
C1908 C 0.56754 0.02458 0.82233 0.0
C1909 C 0.57367 0.0126 0.838 0.0
C1910 C 0.59072 1.00107 0.83545 0.0
C1911 C 0.60164 1.00192 0.81774 0.0
H1912 H 0.30431 0.22642 0.37835 0.0
H1913 H 0.28524 0.2733 0.41812 0.0
H1914 H 0.29748 0.20185 0.40402 0.0
H1915 H 0.27806 0.2487 0.44349 0.0
H1916 H 0.23912 0.19645 0.46737 0.0
H1917 H 0.25167 0.22174 0.44492 0.0
H1918 H 0.30678 0.19057 0.43914 0.0
H1919 H 0.29415 0.16498 0.46194 0.0
C1920 C 0.299 0.23156 0.39264 0.0
C1921 C 0.29506 0.25186 0.39601 0.0
C1922 C 0.2951 0.21745 0.40735 0.0
C1923 C 0.28705 0.22331 0.4257 0.0
C1924 C 0.28395 0.24368 0.42938 0.0
C1925 C 0.28798 0.25777 0.41478 0.0
C1926 C 0.25399 0.19499 0.46148 0.0
C1927 C 0.26561 0.17864 0.46642 0.0
C1928 C 0.26123 0.2096 0.44869 0.0
C1929 C 0.28023 0.20819 0.44028 0.0
C1930 C 0.29204 0.19199 0.44535 0.0
C1931 C 0.28487 0.17744 0.45848 0.0
H1932 H 0.48479 0.52482 0.89101 0.0
H1933 H 0.48121 0.46056 0.88542 0.0
H1934 H 0.46446 0.52755 0.8611 0.0
H1935 H 0.4602 0.46328 0.85628 0.0
H1936 H 0.44255 0.47244 0.79328 0.0
H1937 H 0.46364 0.47273 0.82251 0.0
H1938 H 0.43108 0.52191 0.84721 0.0
H1939 H 0.41004 0.52193 0.81738 0.0
C1940 C 0.47967 0.51127 0.88346 0.0
C1941 C 0.48479 0.49245 0.89065 0.0
C1942 C 0.4678 0.51285 0.86642 0.0
C1943 C 0.46079 0.49566 0.85612 0.0
C1944 C 0.46561 0.47688 0.86357 0.0
C1945 C 0.47747 0.4753 0.88052 0.0
C1946 C 0.43991 0.48346 0.80485 0.0
C1947 C 0.42444 0.49705 0.80304 0.0
C1948 C 0.45196 0.48351 0.82173 0.0
C1949 C 0.44883 0.49704 0.83748 0.0
C1950 C 0.43393 0.51128 0.83537 0.0
C1951 C 0.42187 0.51131 0.81828 0.0
H1952 H 0.68632 0.74275 0.11613 0.0
H1953 H 0.75024 0.7505 0.11935 0.0
H1954 H 0.68996 0.71744 0.09005 0.0
H1955 H 0.75382 0.72601 0.09271 0.0
H1956 H 0.75499 0.66687 0.05925 0.0
H1957 H 0.75044 0.69102 0.08603 0.0
H1958 H 0.69926 0.71374 0.05569 0.0
H1959 H 0.70347 0.68919 0.02908 0.0
C1960 C 0.70115 0.73906 0.11131 0.0
C1961 C 0.71798 0.74874 0.11986 0.0
C1962 C 0.70323 0.72471 0.09617 0.0
C1963 C 0.72219 0.71965 0.08921 0.0
C1964 C 0.73899 0.72931 0.09782 0.0
C1965 C 0.73692 0.74359 0.11295 0.0
C1966 C 0.74274 0.67698 0.05823 0.0
C1967 C 0.72965 0.67606 0.04189 0.0
C1968 C 0.74019 0.69094 0.07359 0.0
C1969 C 0.72453 0.70444 0.07303 0.0
C1970 C 0.71135 0.70344 0.05676 0.0
C1971 C 0.71386 0.68942 0.0414 0.0
H1972 H 0.96287 0.02979 0.11729 0.0
H1973 H 0.0129 0.0106 0.15195 0.0
H1974 H 0.94087 0.02335 0.1453 0.0
H1975 H 0.99074 1.00364 0.17966 0.0
H1976 H 0.94051 0.97177 0.21486 0.0
H1977 H 0.96284 0.97947 0.18741 0.0
H1978 H 0.93465 0.03599 0.18003 0.0
H1979 H 0.91227 0.02838 0.20749 0.0
C1980 C 0.96926 0.02438 0.13089 0.0
C1981 C 0.98974 0.02067 0.13223 0.0
C1982 C 0.9566 0.02063 0.14694 0.0
C1983 C 0.96405 0.01289 0.16467 0.0
C1984 C 0.98449 0.00931 0.1661 0.0
C1985 C 0.99718 0.01325 0.15014 0.0
C1986 C 0.93907 0.98587 0.20745 0.0
C1987 C 0.92457 0.99945 0.21347 0.0
C1988 C 0.95195 0.99032 0.19177 0.0
C1989 C 0.95052 0.00834 0.18155 0.0
C1990 C 0.93602 0.02191 0.1875 0.0
C1991 C 0.92328 0.01757 0.20333 0.0
H1992 H 0.26853 0.77991 0.137 0.0
H1993 H 0.3307 0.78399 0.12132 0.0
H1994 H 0.26082 0.80362 0.11114 0.0
H1995 H 0.32302 0.80802 0.09567 0.0
H1996 H 0.29594 0.83127 0.0368 0.0
H1997 H 0.3054 0.80885 0.06326 0.0
H1998 H 0.26632 0.83932 0.10369 0.0
H1999 H 0.25679 0.86165 0.07725 0.0
C2000 C 0.28055 0.78584 0.128 0.0
C2001 C 0.30023 0.78004 0.13122 0.0
C2002 C 0.27616 0.79959 0.11332 0.0
C2003 C 0.29132 0.80779 0.10138 0.0
C2004 C 0.31099 0.80191 0.10453 0.0
C2005 C 0.31541 0.78827 0.11934 0.0
C2006 C 0.28953 0.83332 0.05139 0.0
C2007 C 0.27557 0.84822 0.05488 0.0
C2008 C 0.29499 0.8205 0.06657 0.0
C2009 C 0.2865 0.82219 0.08556 0.0
C2010 C 0.27292 0.83743 0.08916 0.0
C2011 C 0.26757 0.85032 0.07403 0.0
H2012 H 0.00838 0.50024 0.14303 0.0
H2013 H 0.06147 0.48009 0.11373 0.0
H2014 H 0.02792 0.50845 0.17281 0.0
H2015 H 0.08079 0.48786 0.14359 0.0
H2016 H 0.10453 0.48355 0.20682 0.0
H2017 H 0.08372 0.47554 0.17799 0.0
H2018 H 0.05508 0.53214 0.18449 0.0
H2019 H 0.07584 0.54023 0.21346 0.0
C2020 C 0.02421 0.49769 0.14284 0.0
C2021 C 0.03327 0.48938 0.12592 0.0
C2022 C 0.0354 0.50235 0.15995 0.0
C2023 C 0.05588 0.49867 0.16063 0.0
C2024 C 0.06496 0.49053 0.14369 0.0
C2025 C 0.05385 0.48603 0.12656 0.0
C2026 C 0.09372 0.49428 0.20225 0.0
C2027 C 0.09195 0.51258 0.21253 0.0
C2028 C 0.08187 0.48972 0.18561 0.0
C2029 C 0.06783 0.50325 0.17886 0.0
C2030 C 0.06567 0.52133 0.18939 0.0
C2031 C 0.07764 0.52599 0.20596 0.0
H2032 H 0.37673 0.69464 0.29816 0.0
H2033 H 0.40786 0.72826 0.25299 0.0
H2034 H 0.40464 0.70049 0.32067 0.0
H2035 H 0.43498 0.73534 0.27637 0.0
H2036 H 0.46997 0.70069 0.34635 0.0
H2037 H 0.44398 0.69239 0.32151 0.0
H2038 H 0.43619 0.75512 0.31148 0.0
H2039 H 0.46166 0.76332 0.33658 0.0
C2040 C 0.38948 0.70312 0.29285 0.0
C2041 C 0.38983 0.71087 0.27351 0.0
C2042 C 0.40543 0.70659 0.30592 0.0
C2043 C 0.42189 0.71839 0.30027 0.0
C2044 C 0.42235 0.72628 0.28111 0.0
C2045 C 0.40665 0.72236 0.2678 0.0
C2046 C 0.46263 0.71261 0.33879 0.0
C2047 C 0.4673 0.7326 0.34365 0.0
C2048 C 0.44784 0.70791 0.32465 0.0
C2049 C 0.43811 0.72314 0.31465 0.0
C2050 C 0.44352 0.74311 0.31891 0.0
C2051 C 0.45793 0.74779 0.33334 0.0
H2052 H 0.99504 0.37379 1.00182 0.0
H2053 H 0.97555 0.40319 0.94874 0.0
H2054 H 1.00078 0.34347 0.98221 0.0
H2055 H 0.9803 0.37251 0.92965 0.0
H2056 H 0.95858 0.30444 0.92031 0.0
H2057 H 0.9593 0.33546 0.93935 0.0
H2058 H 0.02311 0.3331 0.94445 0.0
H2059 H 0.02267 0.30188 0.92459 0.0
C2060 C 0.99227 0.374 0.98599 0.0
C2061 C 0.98455 0.39103 0.97699 0.0
C2062 C 0.99555 0.35658 0.97481 0.0
C2063 C 0.99097 0.35575 0.95449 0.0
C2064 C 0.98391 0.37284 0.94534 0.0
C2065 C 0.98096 0.39032 0.95638 0.0
C2066 C 0.97287 0.31036 0.92541 0.0
C2067 C 0.99061 0.30058 0.9208 0.0
C2068 C 0.97321 0.3282 0.9363 0.0
C2069 C 0.99123 0.33662 0.94325 0.0
C2070 C 0.00903 0.32681 0.93918 0.0
C2071 C 0.00875 0.30902 0.92782 0.0
H2072 H 0.62935 0.7587 0.27518 0.0
H2073 H 0.61667 0.8214 0.27264 0.0
H2074 H 0.6043 0.75442 0.30096 0.0
H2075 H 0.59174 0.81716 0.29873 0.0
H2076 H 0.53226 0.79309 0.32734 0.0
H2077 H 0.55841 0.80026 0.30314 0.0
H2078 H 0.59887 0.76421 0.33609 0.0
H2079 H 0.57281 0.75698 0.36017 0.0
C2080 C 0.62119 0.77157 0.28011 0.0
C2081 C 0.62498 0.79037 0.27181 0.0
C2082 C 0.60697 0.76916 0.29504 0.0
C2083 C 0.59607 0.78547 0.30197 0.0
C2084 C 0.59981 0.80429 0.29365 0.0
C2085 C 0.61419 0.80674 0.27883 0.0
C2086 C 0.54682 0.78693 0.32957 0.0
C2087 C 0.5504 0.77438 0.34565 0.0
C2088 C 0.56181 0.79107 0.31572 0.0
C2089 C 0.58066 0.78263 0.31758 0.0
C2090 C 0.58442 0.77068 0.33405 0.0
C2091 C 0.56951 0.76666 0.34795 0.0
H2092 H 0.02883 0.11489 0.96317 0.0
H2093 H 0.00967 0.15104 0.01288 0.0
H2094 H 0.02229 0.14227 0.94085 0.0
H2095 H 1.00264 0.17811 0.99043 0.0
H2096 H 0.9705 0.21148 0.94053 0.0
H2097 H 0.97849 0.18481 0.96317 0.0
H2098 H 0.03458 0.17703 0.93343 0.0
H2099 H 0.02665 0.20373 0.91071 0.0
C2100 C 0.02341 0.12869 0.96942 0.0
C2101 C 0.01973 0.13062 0.98991 0.0
C2102 C 0.01961 0.14438 0.95657 0.0
C2103 C 0.01185 0.16234 0.96384 0.0
C2104 C 0.00832 0.16436 0.98431 0.0
C2105 C 0.0123 0.14876 0.99718 0.0
C2106 C 0.98457 0.20416 0.93881 0.0
C2107 C 0.99793 0.20984 0.92376 0.0
C2108 C 0.98919 0.18892 0.95188 0.0
C2109 C 0.00717 0.1788 0.95012 0.0
C2110 C 0.02053 0.18442 0.93508 0.0
C2111 C 0.01602 0.19983 0.92213 0.0
H2112 H 0.37921 0.30325 0.22561 0.0
H2113 H 0.41955 0.28959 0.27329 0.0
H2114 H 0.40524 0.29606 0.20145 0.0
H2115 H 0.44524 0.28196 0.24912 0.0
H2116 H 0.469 0.23954 0.19976 0.0
H2117 H 0.44654 0.2533 0.22432 0.0
H2118 H 0.44084 0.30623 0.18934 0.0
H2119 H 0.46374 0.2924 0.16456 0.0
C2120 C 0.39369 0.29908 0.23099 0.0
C2121 C 0.39713 0.29669 0.25144 0.0
C2122 C 0.4086 0.29496 0.21712 0.0
C2123 C 0.4272 0.28824 0.22339 0.0
C2124 C 0.43094 0.28681 0.24383 0.0
C2125 C 0.41615 0.29108 0.25767 0.0
C2126 C 0.46315 0.25421 0.19735 0.0
C2127 C 0.46813 0.26487 0.1802 0.0
C2128 C 0.45036 0.26215 0.2115 0.0
C2129 C 0.44194 0.28086 0.20878 0.0
C2130 C 0.44708 0.29174 0.19178 0.0
C2131 C 0.46027 0.28391 0.1777 0.0
H2132 H 0.48451 0.38206 0.0304 0.0
H2133 H 0.54509 0.39272 0.05059 0.0
H2134 H 0.48198 0.35312 0.05114 0.0
H2135 H 0.54148 0.36588 0.0734 0.0
H2136 H 0.53997 0.30496 0.09919 0.0
H2137 H 0.54194 0.33328 0.07748 0.0
H2138 H 0.4779 0.33843 0.08062 0.0
H2139 H 0.47612 0.30857 0.10084 0.0
C2140 C 0.49732 0.37847 0.03927 0.0
C2141 C 0.51509 0.39005 0.03839 0.0
C2142 C 0.49568 0.36192 0.05168 0.0
C2143 C 0.51153 0.3567 0.06417 0.0
C2144 C 0.52901 0.36872 0.06376 0.0
C2145 C 0.53091 0.38476 0.05085 0.0
C2146 C 0.52634 0.31221 0.09522 0.0
C2147 C 0.50792 0.30466 0.10175 0.0
C2148 C 0.52742 0.32871 0.08284 0.0
C2149 C 0.51011 0.33872 0.07722 0.0
C2150 C 0.49162 0.33116 0.08411 0.0
C2151 C 0.49053 0.31412 0.09593 0.0
H2152 H 0.62616 0.25037 0.24557 0.0
H2153 H 0.6217 0.18611 0.2405 0.0
H2154 H 0.59967 0.25314 0.22121 0.0
H2155 H 0.59583 0.18891 0.21531 0.0
H2156 H 0.53414 0.20136 0.18938 0.0
H2157 H 0.56168 0.19778 0.21243 0.0
H2158 H 0.59178 0.24886 0.18683 0.0
H2159 H 0.56395 0.25282 0.16413 0.0
C2160 C 0.61956 0.2368 0.23924 0.0
C2161 C 0.62601 0.21801 0.24518 0.0
C2162 C 0.60452 0.2384 0.22502 0.0
C2163 C 0.59554 0.22125 0.21623 0.0
C2164 C 0.60221 0.20244 0.22192 0.0
C2165 C 0.61724 0.20084 0.23621 0.0
C2166 C 0.54664 0.21182 0.18859 0.0
C2167 C 0.54669 0.22747 0.17491 0.0
C2168 C 0.56254 0.20967 0.20176 0.0
C2169 C 0.579 0.22305 0.20158 0.0
C2170 C 0.57923 0.23847 0.18765 0.0
C2171 C 0.56328 0.24068 0.17452 0.0
H2172 H 0.51628 0.11319 0.05071 0.0
H2173 H 0.46867 0.14163 0.02004 0.0
H2174 H 0.52248 0.14351 0.0706 0.0
H2175 H 0.47547 0.17246 0.03885 0.0
H2176 H 0.47582 0.21499 0.09246 0.0
H2177 H 0.4713 0.1867 0.06972 0.0
H2178 H 0.53453 0.17634 0.07236 0.0
H2179 H 0.53859 0.20422 0.09602 0.0
C2180 C 0.50743 0.12616 0.04801 0.0
C2181 C 0.49201 0.1252 0.03396 0.0
C2182 C 0.51103 0.14361 0.05928 0.0
C2183 C 0.49948 0.16061 0.05646 0.0
C2184 C 0.48442 0.15966 0.04184 0.0
C2185 C 0.4806 0.14208 0.03089 0.0
C2186 C 0.48867 0.20647 0.08827 0.0
C2187 C 0.50736 0.21107 0.09664 0.0
C2188 C 0.4862 0.19043 0.07493 0.0
C2189 C 0.5025 0.17885 0.06931 0.0
C2190 C 0.5215 0.18443 0.07676 0.0
C2191 C 0.5239 0.20047 0.0902 0.0
H2192 H 0.24911 0.41568 0.7364 0.0
H2193 H 0.29204 0.3789 0.70638 0.0
H2194 H 0.27454 0.44187 0.74088 0.0
H2195 H 0.31679 0.40598 0.70955 0.0
H2196 H 0.34612 0.47249 0.70638 0.0
H2197 H 0.31985 0.4471 0.69891 0.0
H2198 H 0.31048 0.43914 0.76162 0.0
H2199 H 0.33698 0.46387 0.769 0.0
C2200 C 0.26386 0.41306 0.73071 0.0
C2201 C 0.26843 0.39482 0.72131 0.0
C2202 C 0.27834 0.42824 0.73309 0.0
C2203 C 0.29756 0.42585 0.72561 0.0
C2204 C 0.30201 0.40815 0.71539 0.0
C2205 C 0.2877 0.3927 0.71347 0.0
C2206 C 0.33843 0.46519 0.71847 0.0
C2207 C 0.34379 0.46964 0.73822 0.0
C2208 C 0.32349 0.45075 0.71423 0.0
C2209 C 0.31325 0.44123 0.72972 0.0
C2210 C 0.31815 0.44632 0.74944 0.0
C2211 C 0.33334 0.46033 0.75365 0.0
H2212 H 0.29859 0.64594 0.80106 0.0
H2213 H 0.25339 0.60101 0.78689 0.0
H2214 H 0.32414 0.62083 0.79835 0.0
H2215 H 0.27897 0.57605 0.78359 0.0
H2216 H 0.32715 0.53188 0.79577 0.0
H2217 H 0.3029 0.5575 0.80286 0.0
H2218 H 0.33982 0.60083 0.7725 0.0
H2219 H 0.36418 0.57531 0.76566 0.0
C2220 C 0.29408 0.63069 0.79746 0.0
C2221 C 0.27391 0.62552 0.79416 0.0
C2222 C 0.30876 0.61632 0.79573 0.0
C2223 C 0.30364 0.5964 0.79075 0.0
C2224 C 0.28344 0.59119 0.78768 0.0
C2225 C 0.26878 0.60557 0.78932 0.0
C2226 C 0.33025 0.54695 0.79088 0.0
C2227 C 0.34759 0.55152 0.7801 0.0
C2228 C 0.31625 0.5616 0.79479 0.0
C2229 C 0.31929 0.5812 0.78809 0.0
C2230 C 0.33704 0.58595 0.77802 0.0
C2231 C 0.351 0.57128 0.77405 0.0
H2232 H 0.90529 0.45018 0.49189 0.0
H2233 H 0.87483 0.50609 0.49308 0.0
H2234 H 0.8738 0.43234 0.49803 0.0
H2235 H 0.84342 0.48828 0.49949 0.0
H2236 H 0.79164 0.44545 0.47746 0.0
H2237 H 0.82235 0.46541 0.47823 0.0
H2238 H 0.84605 0.42727 0.52308 0.0
H2239 H 0.81502 0.40714 0.52235 0.0
C2240 C 0.8919 0.45867 0.49361 0.0
C2241 C 0.89254 0.47954 0.49183 0.0
C2242 C 0.8739 0.44847 0.49736 0.0
C2243 C 0.85611 0.45889 0.49922 0.0
C2244 C 0.85686 0.47982 0.49801 0.0
C2245 C 0.87487 0.49003 0.49446 0.0
C2246 C 0.80325 0.44148 0.48775 0.0
C2247 C 0.80092 0.42467 0.49981 0.0
C2248 C 0.82083 0.453 0.48825 0.0
C2249 C 0.83668 0.44788 0.50065 0.0
C2250 C 0.83414 0.43148 0.51327 0.0
C2251 C 0.81633 0.42008 0.51298 0.0
H2252 H 0.74848 0.90425 0.82335 0.0
H2253 H 0.74587 0.88829 0.76105 0.0
H2254 H 0.7221 0.92819 0.81847 0.0
H2255 H 0.71984 0.9124 0.75612 0.0
H2256 H 0.65977 0.94168 0.75767 0.0
H2257 H 0.68467 0.91704 0.76502 0.0
H2258 H 0.71678 0.96047 0.80162 0.0
H2259 H 0.69174 0.98518 0.79436 0.0
C2260 C 0.74226 0.90583 0.80863 0.0
C2261 C 0.74932 0.89437 0.79258 0.0
C2262 C 0.72725 0.91965 0.80581 0.0
C2263 C 0.7188 0.92217 0.78692 0.0
C2264 C 0.72585 0.91067 0.77091 0.0
C2265 C 0.74094 0.89701 0.77369 0.0
C2266 C 0.67201 0.94595 0.76747 0.0
C2267 C 0.67379 0.96545 0.77537 0.0
C2268 C 0.68637 0.93184 0.77156 0.0
C2269 C 0.70283 0.93683 0.78375 0.0
C2270 C 0.70423 0.95611 0.79226 0.0
C2271 C 0.68991 0.97029 0.78805 0.0
H2272 H 0.64286 0.51465 0.97807 0.0
H2273 H 0.6164 0.54872 0.02534 0.0
H2274 H 0.67393 0.53386 0.98219 0.0
H2275 H 0.64687 0.56904 0.02877 0.0
H2276 H 0.70749 0.59547 0.04117 0.0
H2277 H 0.67942 0.57157 0.03941 0.0
H2278 H 0.68968 0.56353 0.97642 0.0
H2279 H 0.71818 0.58644 0.97876 0.0
C2280 C 0.64371 0.52651 0.98918 0.0
C2281 C 0.62735 0.53033 1.00136 0.0
C2282 C 0.66147 0.53764 0.99153 0.0
C2283 C 0.66313 0.55318 0.00584 0.0
C2284 C 0.64651 0.55699 0.0179 0.0
C2285 C 0.62891 0.54553 0.01583 0.0
C2286 C 0.70371 0.58836 0.02707 0.0
C2287 C 0.71431 0.59335 0.00992 0.0
C2288 C 0.68753 0.57479 0.02595 0.0
C2289 C 0.68175 0.56585 0.00765 0.0
C2290 C 0.69348 0.56991 0.99083 0.0
C2291 C 0.70967 0.58334 0.99203 0.0
H2292 H 0.21318 0.63849 0.19623 0.0
H2293 H 0.26156 0.60602 0.22189 0.0
H2294 H 0.19045 0.61071 0.20338 0.0
H2295 H 0.23822 0.57914 0.23039 0.0
H2296 H 0.18004 0.55443 0.26457 0.0
H2297 H 0.20406 0.58055 0.25475 0.0
H2298 H 0.18936 0.56906 0.19319 0.0
H2299 H 0.16573 0.54237 0.20305 0.0
C2300 C 0.21911 0.62549 0.20322 0.0
C2301 C 0.2394 0.62477 0.20848 0.0
C2302 C 0.20595 0.60964 0.20746 0.0
C2303 C 0.2126 0.59293 0.21753 0.0
C2304 C 0.23274 0.592 0.22275 0.0
C2305 C 0.24605 0.60758 0.21803 0.0
C2306 C 0.18196 0.55754 0.24895 0.0
C2307 C 0.17078 0.54684 0.23454 0.0
C2308 C 0.19574 0.57234 0.24336 0.0
C2309 C 0.19842 0.57681 0.22325 0.0
C2310 C 0.18742 0.56592 0.20879 0.0
C2311 C 0.17397 0.55074 0.21439 0.0
H2312 H 0.87219 0.51705 0.01671 0.0
H2313 H 0.90895 0.56986 0.02741 0.0
H2314 H 0.84402 0.53789 0.00901 0.0
H2315 H 0.88096 0.5907 0.01947 0.0
H2316 H 0.8211 0.62013 0.03034 0.0
H2317 H 0.85036 0.60003 0.03417 0.0
H2318 H 0.82977 0.56108 0.98627 0.0
H2319 H 0.80005 0.58106 0.98279 0.0
C2320 C 0.87435 0.53311 0.01712 0.0
C2321 C 0.89279 0.54177 0.02288 0.0
C2322 C 0.85819 0.54509 0.01266 0.0
C2323 C 0.8601 0.56604 0.01375 0.0
C2324 C 0.87876 0.57465 0.01888 0.0
C2325 C 0.89485 0.56269 0.02342 0.0
C2326 C 0.82286 0.6074 0.02047 0.0
C2327 C 0.80818 0.60221 0.00627 0.0
C2328 C 0.83976 0.59588 0.0226 0.0
C2329 C 0.84252 0.57885 0.01055 0.0
C2330 C 0.82805 0.57392 0.996 0.0
C2331 C 0.81108 0.58548 0.99388 0.0
H2332 H 0.11375 0.96287 0.02954 0.0
H2333 H 0.15024 0.01239 0.00916 0.0
H2334 H 0.14115 0.94045 0.0236 0.0
H2335 H 0.1774 0.9898 1.00276 0.0
H2336 H 0.21202 0.93885 0.97287 0.0
H2337 H 0.185 0.9615 0.97971 0.0
H2338 H 0.17533 0.93392 0.03642 0.0
H2339 H 0.20235 0.91117 0.02964 0.0
C2340 C 0.12763 0.96906 0.02396 0.0
C2341 C 0.12967 0.98953 0.01983 0.0
C2342 C 0.14334 0.95615 0.02051 0.0
C2343 C 0.16144 0.96332 0.01267 0.0
C2344 C 0.16354 0.98375 0.00855 0.0
C2345 C 0.14791 0.99669 0.01216 0.0
C2346 C 0.20418 0.93758 0.98683 0.0
C2347 C 0.20944 0.92314 1.0007 0.0
C2348 C 0.18875 0.95067 0.99078 0.0
C2349 C 0.17802 0.94953 0.00862 0.0
C2350 C 0.1832 0.93507 0.02247 0.0
C2351 C 0.19878 0.9221 0.01861 0.0
loop_
_geom_bond_atom_site_label_1
_geom_bond_atom_site_label_2
_geom_bond_distance
_geom_bond_site_symmetry_2
_ccdc_geom_bond_type
C0 C1 1.391 . S
C0 C4 1.391 . S
C0 H42 0.948 . S
C1 C0 1.391 . S
C1 C2 1.391 . S
C2 C1 1.391 . S
C2 H58 0.951 1_455 S
C2 C59 1.392 1_556 S
C3 C4 1.391 1_554 S
C3 C7 1.397 . S
C3 C59 1.419 . S
C4 C0 1.391 . S
C4 C3 1.391 1_556 S
C4 C5 1.399 . S
C5 C4 1.399 . S
C5 C8 1.396 1_556 S
C5 C17 1.453 . S
C5 C18 1.684 . S
H6 C30 0.948 . S
C7 C3 1.397 . S
C7 C8 1.394 . S
C7 C26 1.723 . S
C8 C5 1.396 1_554 S
C8 C7 1.394 . S
C8 C38 1.723 . S
H9 C32 0.951 1_556 S
H10 C33 0.948 1_556 S
H11 C39 0.952 1_545 S
H12 C40 0.979 . S
H13 C40 0.980 . S
H14 C40 0.983 . S
H15 C39 1.011 . S
H16 C39 0.970 1_545 S
C17 C5 1.453 . S
C17 H46 0.982 1_556 S
C17 H47 0.979 . S
C17 H48 0.975 1_556 S
C18 C5 1.684 . S
C18 H43 0.979 . S
C18 H44 0.980 . S
C18 H45 0.983 . S
C19 C20 1.391 . S
C19 C24 1.391 . S
C19 H49 0.948 . S
C20 C19 1.391 . S
C20 C21 1.391 . S
C21 C20 1.391 . S
C21 C22 1.392 1_655 S
C21 H50 0.951 1_545 S
C22 C21 1.392 1_455 S
C22 C23 1.419 . S
C22 H51 0.948 1_545 S
C23 C22 1.419 . S
C23 C24 1.391 1_455 S
C23 C27 1.397 . S
C24 C19 1.391 . S
C24 C23 1.391 1_655 S
C24 C25 1.399 . S
C25 C24 1.399 . S
C25 C26 1.396 1_655 S
C25 C28 1.453 . S
C25 C29 1.684 . S
C26 C7 1.723 . S
C26 C25 1.396 1_455 S
C26 C27 1.394 . S
C27 C23 1.397 . S
C27 C26 1.394 . S
C27 C37 1.723 . S
C28 C25 1.453 . S
C28 H52 0.982 1_655 S
C28 H53 0.979 . S
C28 H54 0.975 1_655 S
C29 C25 1.684 . S
C29 H55 0.979 . S
C29 H56 0.980 . S
C29 H57 0.983 . S
C30 H6 0.948 . S
C30 C31 1.391 . S
C30 C35 1.391 . S
C31 C30 1.391 . S
C31 C32 1.391 . S
C32 H9 0.951 1_554 S
C32 C31 1.391 . S
C32 C33 1.392 1_565 S
C33 H10 0.948 1_554 S
C33 C32 1.392 1_545 S
C33 C34 1.419 . S
C34 C33 1.419 . S
C34 C35 1.391 1_545 S
C34 C38 1.397 . S
C35 C30 1.391 . S
C35 C34 1.391 1_565 S
C35 C36 1.399 . S
C36 C35 1.399 . S
C36 C37 1.396 1_565 S
C36 C39 1.456 . S
C36 C40 1.684 . S
C37 C27 1.723 . S
C37 C36 1.396 1_545 S
C37 C38 1.394 . S
C38 C8 1.723 . S
C38 C34 1.397 . S
C38 C37 1.394 . S
C39 H11 0.952 1_565 S
C39 H15 1.011 . S
C39 H16 0.970 1_565 S
C39 C36 1.456 . S
C40 H12 0.979 . S
C40 H13 0.980 . S
C40 H14 0.983 . S
C40 C36 1.684 . S
H41 C59 0.948 1_655 S
H42 C0 0.948 . S
H43 C18 0.979 . S
H44 C18 0.980 . S
H45 C18 0.983 . S
H46 C17 0.982 1_554 S
H47 C17 0.979 . S
H48 C17 0.975 1_554 S
H49 C19 0.948 . S
H50 C21 0.951 1_565 S
H51 C22 0.948 1_565 S
H52 C28 0.982 1_455 S
H53 C28 0.979 . S
H54 C28 0.975 1_455 S
H55 C29 0.979 . S
H56 C29 0.980 . S
H57 C29 0.983 . S
H58 C2 0.951 1_655 S
C59 C2 1.392 1_554 S
C59 C3 1.419 . S
C59 H41 0.948 1_455 S
C60 C61 1.391 . S
C60 C64 1.391 . S
C60 H102 0.948 . S
C61 C60 1.391 . S
C61 C62 1.391 . S
C62 C61 1.391 . S
C62 H118 0.947 . S
C62 C119 1.392 . S
C63 C64 1.391 . S
C63 C67 1.397 . S
C63 C119 1.419 . S
C64 C60 1.391 . S
C64 C63 1.391 . S
C64 C65 1.399 . S
C65 C64 1.399 . S
C65 C68 1.396 . S
C65 C77 1.453 . S
C65 C78 1.684 . S
H66 C90 0.948 . S
C67 C63 1.397 . S
C67 C68 1.394 . S
C67 C86 1.723 . S
C68 C65 1.396 . S
C68 C67 1.394 . S
C68 C98 1.723 . S
H69 C92 0.947 . S
H70 C93 0.948 . S
H71 C99 0.982 . S
H72 C100 0.979 . S
H73 C100 0.980 . S
H74 C100 0.983 . S
H75 C99 0.979 . S
H76 C99 0.977 . S
C77 C65 1.453 . S
C77 H106 0.982 . S
C77 H107 0.979 . S
C77 H108 0.977 . S
C78 C65 1.684 . S
C78 H103 0.979 . S
C78 H104 0.980 . S
C78 H105 0.983 . S
C79 C80 1.391 . S
C79 C84 1.391 . S
C79 H109 0.948 . S
C80 C79 1.391 . S
C80 C81 1.391 . S
C81 C80 1.391 . S
C81 C82 1.392 . S
C81 H110 0.947 . S
C82 C81 1.392 . S
C82 C83 1.419 . S
C82 H111 0.948 . S
C83 C82 1.419 . S
C83 C84 1.391 . S
C83 C87 1.397 . S
C84 C79 1.391 . S
C84 C83 1.391 . S
C84 C85 1.399 . S
C85 C84 1.399 . S
C85 C86 1.396 . S
C85 C88 1.453 . S
C85 C89 1.684 . S
C86 C67 1.723 . S
C86 C85 1.396 . S
C86 C87 1.394 . S
C87 C83 1.397 . S
C87 C86 1.394 . S
C87 C97 1.723 . S
C88 C85 1.453 . S
C88 H112 0.982 . S
C88 H113 0.979 . S
C88 H114 0.977 . S
C89 C85 1.684 . S
C89 H115 0.979 . S
C89 H116 0.980 . S
C89 H117 0.983 . S
C90 H66 0.948 . S
C90 C91 1.391 . S
C90 C95 1.391 . S
C91 C90 1.391 . S
C91 C92 1.391 . S
C92 H69 0.947 . S
C92 C91 1.391 . S
C92 C93 1.392 . S
C93 H70 0.948 . S
C93 C92 1.392 . S
C93 C94 1.419 . S
C94 C93 1.419 . S
C94 C95 1.391 . S
C94 C98 1.397 . S
C95 C90 1.391 . S
C95 C94 1.391 . S
C95 C96 1.399 . S
C96 C95 1.399 . S
C96 C97 1.396 . S
C96 C99 1.453 . S
C96 C100 1.684 . S
C97 C87 1.723 . S
C97 C96 1.396 . S
C97 C98 1.394 . S
C98 C68 1.723 . S
C98 C94 1.397 . S
C98 C97 1.394 . S
C99 H71 0.982 . S
C99 H75 0.979 . S
C99 H76 0.977 . S
C99 C96 1.453 . S
C100 H72 0.979 . S
C100 H73 0.980 . S
C100 H74 0.983 . S
C100 C96 1.684 . S
H101 C119 0.948 . S
H102 C60 0.948 . S
H103 C78 0.979 . S
H104 C78 0.980 . S
H105 C78 0.983 . S
H106 C77 0.982 . S
H107 C77 0.979 . S
H108 C77 0.977 . S
H109 C79 0.948 . S
H110 C81 0.947 . S
H111 C82 0.948 . S
H112 C88 0.982 . S
H113 C88 0.979 . S
H114 C88 0.977 . S
H115 C89 0.979 . S
H116 C89 0.980 . S
H117 C89 0.983 . S
H118 C62 0.947 . S
C119 C62 1.392 . S
C119 C63 1.419 . S
C119 H101 0.948 . S
C120 C121 1.391 . S
C120 C124 1.391 1_556 S
C120 H162 0.948 1_655 S
C121 C120 1.391 . S
C121 C122 1.391 . S
C122 C121 1.391 . S
C122 H178 0.947 . S
C122 C179 1.392 . S
C123 C124 1.391 . S
C123 C127 1.397 . S
C123 C179 1.419 1_554 S
C124 C120 1.391 1_554 S
C124 C123 1.391 . S
C124 C125 1.399 . S
C125 C124 1.399 . S
C125 C128 1.396 . S
C125 C137 1.453 . S
C125 C138 1.684 1_655 S
H126 C150 0.948 . S
C127 C123 1.397 . S
C127 C128 1.394 . S
C127 C146 1.723 . S
C128 C125 1.396 . S
C128 C127 1.394 . S
C128 C158 1.723 . S
H129 C152 0.947 . S
H130 C153 0.948 . S
H131 C159 0.982 . S
H132 C160 0.979 . S
H133 C160 0.980 . S
H134 C160 0.983 . S
H135 C159 0.979 . S
H136 C159 0.977 . S
C137 C125 1.453 . S
C137 H166 0.982 . S
C137 H167 0.979 1_655 S
C137 H168 0.977 1_655 S
C138 C125 1.684 1_455 S
C138 H163 0.979 . S
C138 H164 0.980 . S
C138 H165 0.983 . S
C139 C140 1.391 . S
C139 C144 1.391 . S
C139 H169 0.979 . S
C140 C139 1.391 . S
C140 C141 1.391 . S
C141 C140 1.391 . S
C141 C142 1.392 . S
C141 H170 0.947 . S
C142 C141 1.392 . S
C142 C143 1.419 . S
C142 H171 0.948 . S
C143 C142 1.419 . S
C143 C144 1.391 . S
C143 C147 1.397 . S
C144 C139 1.391 . S
C144 C143 1.391 . S
C144 C145 1.399 . S
C145 C144 1.399 . S
C145 C146 1.396 . S
C145 C148 1.453 . S
C145 C149 1.684 1_554 S
C146 C127 1.723 . S
C146 C145 1.396 . S
C146 C147 1.394 . S
C147 C143 1.397 . S
C147 C146 1.394 . S
C147 C157 1.723 . S
C148 C145 1.453 . S
C148 H172 0.982 . S
C148 H173 0.979 1_554 S
C148 H174 0.977 1_554 S
C149 C145 1.684 1_556 S
C149 H175 0.979 . S
C149 H176 0.980 . S
C149 H177 0.983 . S
C150 H126 0.948 . S
C150 C151 1.391 . S
C150 C155 1.391 1_455 S
C151 C150 1.391 . S
C151 C152 1.391 . S
C152 H129 0.947 . S
C152 C151 1.391 . S
C152 C153 1.392 . S
C153 H130 0.948 . S
C153 C152 1.392 . S
C153 C154 1.419 1_455 S
C154 C153 1.419 1_655 S
C154 C155 1.391 . S
C154 C158 1.397 . S
C155 C150 1.391 1_655 S
C155 C154 1.391 . S
C155 C156 1.399 . S
C156 C155 1.399 . S
C156 C157 1.396 . S
C156 C159 1.453 . S
C156 C160 1.684 . S
C157 C147 1.723 . S
C157 C156 1.396 . S
C157 C158 1.394 . S
C158 C128 1.723 . S
C158 C154 1.397 . S
C158 C157 1.394 . S
C159 H131 0.982 . S
C159 H135 0.979 . S
C159 H136 0.977 . S
C159 C156 1.453 . S
C160 H132 0.979 . S
C160 H133 0.980 . S
C160 H134 0.983 . S
C160 C156 1.684 . S
H161 C179 0.948 . S
H162 C120 0.948 1_455 S
H163 C138 0.979 . S
H164 C138 0.980 . S
H165 C138 0.983 . S
H166 C137 0.982 . S
H167 C137 0.979 1_455 S
H168 C137 0.977 1_455 S
H169 C139 0.979 . S
H170 C141 0.947 . S
H171 C142 0.948 . S
H172 C148 0.982 . S
H173 C148 0.979 1_556 S
H174 C148 0.977 1_556 S
H175 C149 0.979 . S
H176 C149 0.980 . S
H177 C149 0.983 . S
H178 C122 0.947 . S
C179 C122 1.392 . S
C179 C123 1.419 1_556 S
C179 H161 0.948 . S
C180 C181 1.391 . S
C180 C184 1.391 . S
C180 H222 0.948 . S
C181 C180 1.391 . S
C181 C182 1.391 . S
C182 C181 1.391 . S
C182 H238 0.947 . S
C182 C239 1.392 . S
C183 C184 1.391 . S
C183 C187 1.397 . S
C183 C239 1.419 . S
C184 C180 1.391 . S
C184 C183 1.391 . S
C184 C185 1.399 . S
C185 C184 1.399 . S
C185 C188 1.396 . S
C185 C197 1.453 . S
C185 C198 1.684 . S
H186 C210 0.948 . S
C187 C183 1.397 . S
C187 C188 1.394 . S
C187 C206 1.723 . S
C188 C185 1.396 . S
C188 C187 1.394 . S
C188 C218 1.723 . S
H189 C212 0.947 . S
H190 C213 0.948 . S
H191 C219 0.982 . S
H192 C220 0.979 . S
H193 C220 0.980 . S
H194 C220 0.983 . S
H195 C219 0.979 . S
H196 C219 0.977 . S
C197 C185 1.453 . S
C197 H226 0.982 . S
C197 H227 0.979 . S
C197 H228 0.977 . S
C198 C185 1.684 . S
C198 H223 0.979 . S
C198 H224 0.980 . S
C198 H225 0.983 . S
C199 C200 1.391 . S
C199 C204 1.391 . S
C199 H229 0.948 . S
C200 C199 1.391 . S
C200 C201 1.391 . S
C201 C200 1.391 . S
C201 C202 1.392 . S
C201 H230 0.947 . S
C202 C201 1.392 . S
C202 C203 1.419 . S
C202 H231 0.948 . S
C203 C202 1.419 . S
C203 C204 1.391 . S
C203 C207 1.397 . S
C204 C199 1.391 . S
C204 C203 1.391 . S
C204 C205 1.399 . S
C205 C204 1.399 . S
C205 C206 1.396 . S
C205 C208 1.453 . S
C205 C209 1.684 . S
C206 C187 1.723 . S
C206 C205 1.396 . S
C206 C207 1.394 . S
C207 C203 1.397 . S
C207 C206 1.394 . S
C207 C217 1.723 . S
C208 C205 1.453 . S
C208 H232 0.982 . S
C208 H233 0.979 . S
C208 H234 0.977 . S
C209 C205 1.684 . S
C209 H235 0.979 . S
C209 H236 0.980 . S
C209 H237 0.983 . S
C210 H186 0.948 . S
C210 C211 1.391 . S
C210 C215 1.391 . S
C211 C210 1.391 . S
C211 C212 1.391 . S
C212 H189 0.947 . S
C212 C211 1.391 . S
C212 C213 1.392 . S
C213 H190 0.948 . S
C213 C212 1.392 . S
C213 C214 1.419 . S
C214 C213 1.419 . S
C214 C215 1.391 . S
C214 C218 1.397 . S
C215 C210 1.391 . S
C215 C214 1.391 . S
C215 C216 1.399 . S
C216 C215 1.399 . S
C216 C217 1.396 . S
C216 C219 1.453 . S
C216 C220 1.684 . S
C217 C207 1.723 . S
C217 C216 1.396 . S
C217 C218 1.394 . S
C218 C188 1.723 . S
C218 C214 1.397 . S
C218 C217 1.394 . S
C219 H191 0.982 . S
C219 H195 0.979 . S
C219 H196 0.977 . S
C219 C216 1.453 . S
C220 H192 0.979 . S
C220 H193 0.980 . S
C220 H194 0.983 . S
C220 C216 1.684 . S
H221 C239 0.948 . S
H222 C180 0.948 . S
H223 C198 0.979 . S
H224 C198 0.980 . S
H225 C198 0.983 . S
H226 C197 0.982 . S
H227 C197 0.979 . S
H228 C197 0.977 . S
H229 C199 0.948 . S
H230 C201 0.947 . S
H231 C202 0.948 . S
H232 C208 0.982 . S
H233 C208 0.979 . S
H234 C208 0.977 . S
H235 C209 0.979 . S
H236 C209 0.980 . S
H237 C209 0.983 . S
H238 C182 0.947 . S
C239 C182 1.392 . S
C239 C183 1.419 . S
C239 H221 0.948 . S
C240 C241 1.391 . S
C240 C244 1.391 . S
C240 H282 0.948 . S
C241 C240 1.391 . S
C241 C242 1.391 . S
C242 C241 1.391 . S
C242 H298 0.927 1_455 S
C242 C299 1.392 . S
C243 C244 1.391 . S
C243 C247 1.397 . S
C243 C299 1.419 . S
C244 C240 1.391 . S
C244 C243 1.391 . S
C244 C245 1.399 . S
C245 C244 1.399 . S
C245 C248 1.396 . S
C245 C257 1.453 . S
C245 C258 1.684 . S
H246 C270 0.948 . S
C247 C243 1.397 . S
C247 C248 1.394 . S
C247 C266 1.723 . S
C248 C245 1.396 . S
C248 C247 1.394 . S
C248 C278 1.723 . S
H249 C272 0.947 . S
H250 C273 0.948 . S
H251 C279 0.982 . S
H252 C280 0.964 1_565 S
H253 C280 0.980 . S
H254 C280 0.983 . S
H255 C279 0.979 . S
H256 C279 0.977 . S
C257 C245 1.453 . S
C257 H286 0.982 . S
C257 H287 0.979 . S
C257 H288 0.977 . S
C258 C245 1.684 . S
C258 H283 0.979 . S
C258 H284 0.980 . S
C258 H285 0.983 . S
C259 C260 1.391 . S
C259 C264 1.391 1_655 S
C259 H289 0.948 . S
C260 C259 1.391 . S
C260 C261 1.391 1_655 S
C261 C260 1.391 1_455 S
C261 C262 1.392 . S
C261 H290 0.947 1_565 S
C262 C261 1.392 . S
C262 C263 1.419 . S
C262 H291 0.948 1_565 S
C263 C262 1.419 . S
C263 C264 1.391 . S
C263 C267 1.397 . S
C264 C259 1.391 1_455 S
C264 C263 1.391 . S
C264 C265 1.399 . S
C265 C264 1.399 . S
C265 C266 1.396 . S
C265 C268 1.453 1_455 S
C265 C269 1.684 1_455 S
C266 C247 1.723 . S
C266 C265 1.396 . S
C266 C267 1.394 . S
C267 C263 1.397 . S
C267 C266 1.394 . S
C267 C277 1.723 . S
C268 C265 1.453 1_655 S
C268 H292 0.982 . S
C268 H293 0.979 . S
C268 H294 0.977 . S
C269 C265 1.684 1_655 S
C269 H295 0.979 1_655 S
C269 H296 0.983 . S
C269 H297 0.983 . S
C270 H246 0.948 . S
C270 C271 1.391 . S
C270 C275 1.391 . S
C271 C270 1.391 . S
C271 C272 1.391 . S
C272 H249 0.947 . S
C272 C271 1.391 . S
C272 C273 1.392 1_545 S
C273 H250 0.948 . S
C273 C272 1.392 1_565 S
C273 C274 1.419 . S
C274 C273 1.419 . S
C274 C275 1.391 1_565 S
C274 C278 1.397 . S
C275 C270 1.391 . S
C275 C274 1.391 1_545 S
C275 C276 1.399 . S
C276 C275 1.399 . S
C276 C277 1.396 1_545 S
C276 C279 1.453 . S
C276 C280 1.684 . S
C277 C267 1.723 . S
C277 C276 1.396 1_565 S
C277 C278 1.394 . S
C278 C248 1.723 . S
C278 C274 1.397 . S
C278 C277 1.394 . S
C279 H251 0.982 . S
C279 H255 0.979 . S
C279 H256 0.977 . S
C279 C276 1.453 . S
C280 H252 0.964 1_545 S
C280 H253 0.980 . S
C280 H254 0.983 . S
C280 C276 1.684 . S
H281 C299 0.948 . S
H282 C240 0.948 . S
H283 C258 0.979 . S
H284 C258 0.980 . S
H285 C258 0.983 . S
H286 C257 0.982 . S
H287 C257 0.979 . S
H288 C257 0.977 . S
H289 C259 0.948 . S
H290 C261 0.947 1_545 S
H291 C262 0.948 1_545 S
H292 C268 0.982 . S
H293 C268 0.979 . S
H294 C268 0.977 . S
H295 C269 0.979 1_455 S
H296 C269 0.983 . S
H297 C269 0.983 . S
H298 C242 0.927 1_655 S
C299 C242 1.392 . S
C299 C243 1.419 . S
C299 H281 0.948 . S
C300 C301 1.391 . S
C300 C304 1.391 . S
C300 H342 0.948 . S
C301 C300 1.391 . S
C301 C302 1.391 . S
C302 C301 1.391 . S
C302 H358 0.947 . S
C302 C359 1.392 . S
C303 C304 1.391 . S
C303 C307 1.397 . S
C303 C359 1.419 . S
C304 C300 1.391 . S
C304 C303 1.391 . S
C304 C305 1.399 . S
C305 C304 1.399 . S
C305 C308 1.396 . S
C305 C317 1.453 . S
C305 C318 1.684 . S
H306 C330 0.948 . S
C307 C303 1.397 . S
C307 C308 1.394 . S
C307 C326 1.723 . S
C308 C305 1.396 . S
C308 C307 1.394 . S
C308 C338 1.723 . S
H309 C332 0.947 . S
H310 C333 0.948 . S
H311 C339 0.982 . S
H312 C340 0.979 . S
H313 C340 0.980 . S
H314 C340 0.983 . S
H315 C339 0.979 . S
H316 C339 0.977 . S
C317 C305 1.453 . S
C317 H346 0.982 . S
C317 H347 0.979 . S
C317 H348 0.977 . S
C318 C305 1.684 . S
C318 H343 0.979 . S
C318 H344 0.980 . S
C318 H345 0.983 . S
C319 C320 1.391 . S
C319 C324 1.391 . S
C319 H349 0.948 . S
C320 C319 1.391 . S
C320 C321 1.391 . S
C321 C320 1.391 . S
C321 C322 1.392 . S
C321 H350 0.947 . S
C322 C321 1.392 . S
C322 C323 1.419 . S
C322 H351 0.948 . S
C323 C322 1.419 . S
C323 C324 1.391 . S
C323 C327 1.397 . S
C324 C319 1.391 . S
C324 C323 1.391 . S
C324 C325 1.399 . S
C325 C324 1.399 . S
C325 C326 1.396 . S
C325 C328 1.453 . S
C325 C329 1.684 . S
C326 C307 1.723 . S
C326 C325 1.396 . S
C326 C327 1.394 . S
C327 C323 1.397 . S
C327 C326 1.394 . S
C327 C337 1.723 . S
C328 C325 1.453 . S
C328 H352 0.982 . S
C328 H353 0.979 . S
C328 H354 0.977 . S
C329 C325 1.684 . S
C329 H355 0.979 . S
C329 H356 0.980 . S
C329 H357 0.983 . S
C330 H306 0.948 . S
C330 C331 1.391 . S
C330 C335 1.391 . S
C331 C330 1.391 . S
C331 C332 1.391 . S
C332 H309 0.947 . S
C332 C331 1.391 . S
C332 C333 1.392 . S
C333 H310 0.948 . S
C333 C332 1.392 . S
C333 C334 1.419 . S
C334 C333 1.419 . S
C334 C335 1.391 . S
C334 C338 1.397 . S
C335 C330 1.391 . S
C335 C334 1.391 . S
C335 C336 1.399 . S
C336 C335 1.399 . S
C336 C337 1.396 . S
C336 C339 1.453 . S
C336 C340 1.684 . S
C337 C327 1.723 . S
C337 C336 1.396 . S
C337 C338 1.394 . S
C338 C308 1.723 . S
C338 C334 1.397 . S
C338 C337 1.394 . S
C339 H311 0.982 . S
C339 H315 0.979 . S
C339 H316 0.977 . S
C339 C336 1.453 . S
C340 H312 0.979 . S
C340 H313 0.980 . S
C340 H314 0.983 . S
C340 C336 1.684 . S
H341 C359 0.948 . S
H342 C300 0.948 . S
H343 C318 0.979 . S
H344 C318 0.980 . S
H345 C318 0.983 . S
H346 C317 0.982 . S
H347 C317 0.979 . S
H348 C317 0.977 . S
H349 C319 0.948 . S
H350 C321 0.947 . S
H351 C322 0.948 . S
H352 C328 0.982 . S
H353 C328 0.979 . S
H354 C328 0.977 . S
H355 C329 0.979 . S
H356 C329 0.980 . S
H357 C329 0.983 . S
H358 C302 0.947 . S
C359 C302 1.392 . S
C359 C303 1.419 . S
C359 H341 0.948 . S
C360 C361 1.391 . S
C360 C364 1.391 . S
C360 H402 0.948 . S
C361 C360 1.391 . S
C361 C362 1.391 . S
C362 C361 1.391 . S
C362 H418 0.947 . S
C362 C419 1.392 . S
C363 C364 1.391 . S
C363 C367 1.397 . S
C363 C419 1.419 . S
C364 C360 1.391 . S
C364 C363 1.391 . S
C364 C365 1.399 . S
C365 C364 1.399 . S
C365 C368 1.396 . S
C365 C377 1.453 . S
C365 C378 1.684 . S
H366 C390 0.948 1_455 S
C367 C363 1.397 . S
C367 C368 1.394 . S
C367 C386 1.723 . S
C368 C365 1.396 . S
C368 C367 1.394 . S
C368 C398 1.723 . S
H369 C392 0.947 . S
H370 C393 0.948 . S
H371 C399 0.982 1_655 S
H372 C400 0.979 . S
H373 C400 0.980 . S
H374 C400 0.983 . S
H375 C399 0.979 . S
H376 C399 0.977 . S
C377 C365 1.453 . S
C377 H406 0.982 . S
C377 H407 0.979 . S
C377 H408 0.977 . S
C378 C365 1.684 . S
C378 H403 0.979 . S
C378 H404 0.980 . S
C378 H405 0.983 . S
C379 C380 1.391 . S
C379 C384 1.391 1_455 S
C379 H409 0.948 . S
C380 C379 1.391 . S
C380 C381 1.391 . S
C381 C380 1.391 . S
C381 C382 1.392 . S
C381 H410 0.947 . S
C382 C381 1.392 . S
C382 C383 1.419 . S
C382 H411 0.948 . S
C383 C382 1.419 . S
C383 C384 1.391 1_455 S
C383 C387 1.397 1_455 S
C384 C379 1.391 1_655 S
C384 C383 1.391 1_655 S
C384 C385 1.399 . S
C385 C384 1.399 . S
C385 C386 1.396 . S
C385 C388 1.453 . S
C385 C389 1.684 . S
C386 C367 1.723 . S
C386 C385 1.396 . S
C386 C387 1.394 . S
C387 C383 1.397 1_655 S
C387 C386 1.394 . S
C387 C397 1.723 . S
C388 C385 1.453 . S
C388 H412 0.982 . S
C388 H413 0.979 . S
C388 H414 0.977 . S
C389 C385 1.684 . S
C389 H415 0.979 . S
C389 H416 0.980 . S
C389 H417 0.983 . S
C390 H366 0.948 1_655 S
C390 C391 1.391 . S
C390 C395 1.391 . S
C391 C390 1.391 . S
C391 C392 1.391 . S
C392 H369 0.947 . S
C392 C391 1.391 . S
C392 C393 1.392 . S
C393 H370 0.948 . S
C393 C392 1.392 . S
C393 C394 1.419 . S
C394 C393 1.419 . S
C394 C395 1.391 . S
C394 C398 1.397 . S
C395 C390 1.391 . S
C395 C394 1.391 . S
C395 C396 1.397 . S
C396 C395 1.397 . S
C396 C397 1.393 . S
C396 C399 1.454 1_655 S
C396 C400 1.690 1_655 S
C397 C387 1.723 . S
C397 C396 1.393 . S
C397 C398 1.394 . S
C398 C368 1.723 . S
C398 C394 1.397 . S
C398 C397 1.394 . S
C399 H371 0.982 1_455 S
C399 H375 0.979 . S
C399 H376 0.977 . S
C399 C396 1.454 1_455 S
C400 H372 0.979 . S
C400 H373 0.980 . S
C400 H374 0.983 . S
C400 C396 1.690 1_455 S
H401 C419 0.948 . S
H402 C360 0.948 . S
H403 C378 0.979 . S
H404 C378 0.980 . S
H405 C378 0.983 . S
H406 C377 0.982 . S
H407 C377 0.979 . S
H408 C377 0.977 . S
H409 C379 0.948 . S
H410 C381 0.947 . S
H411 C382 0.948 . S
H412 C388 0.982 . S
H413 C388 0.979 . S
H414 C388 0.977 . S
H415 C389 0.979 . S
H416 C389 0.980 . S
H417 C389 0.983 . S
H418 C362 0.947 . S
C419 C362 1.392 . S
C419 C363 1.419 . S
C419 H401 0.948 . S
C420 C421 1.391 . S
C420 C424 1.391 . S
C420 H462 0.948 . S
C421 C420 1.391 . S
C421 C422 1.391 . S
C422 C421 1.391 . S
C422 H478 0.947 . S
C422 C479 1.392 . S
C423 C424 1.391 . S
C423 C427 1.397 . S
C423 C479 1.419 . S
C424 C420 1.391 . S
C424 C423 1.391 . S
C424 C425 1.399 . S
C425 C424 1.399 . S
C425 C428 1.396 . S
C425 C437 1.453 . S
C425 C438 1.684 . S
H426 C450 0.948 . S
C427 C423 1.397 . S
C427 C428 1.394 . S
C427 C446 1.723 . S
C428 C425 1.396 . S
C428 C427 1.394 . S
C428 C458 1.723 . S
H429 C452 0.947 . S
H430 C453 0.948 . S
H431 C459 0.982 . S
H432 C460 0.979 . S
H433 C460 0.980 . S
H434 C460 0.983 . S
H435 C459 0.979 . S
H436 C459 0.977 . S
C437 C425 1.453 . S
C437 H466 0.982 . S
C437 H467 0.979 . S
C437 H468 0.977 . S
C438 C425 1.684 . S
C438 H463 0.979 . S
C438 H464 0.980 . S
C438 H465 0.983 . S
C439 C440 1.391 . S
C439 C444 1.391 . S
C439 H469 0.948 . S
C440 C439 1.391 . S
C440 C441 1.391 . S
C441 C440 1.391 . S
C441 C442 1.392 . S
C441 H470 0.947 . S
C442 C441 1.392 . S
C442 C443 1.419 . S
C442 H471 0.948 . S
C443 C442 1.419 . S
C443 C444 1.391 . S
C443 C447 1.397 . S
C444 C439 1.391 . S
C444 C443 1.391 . S
C444 C445 1.399 . S
C445 C444 1.399 . S
C445 C446 1.396 . S
C445 C448 1.453 . S
C445 C449 1.684 . S
C446 C427 1.723 . S
C446 C445 1.396 . S
C446 C447 1.394 . S
C447 C443 1.397 . S
C447 C446 1.394 . S
C447 C457 1.723 . S
C448 C445 1.453 . S
C448 H472 0.982 . S
C448 H473 0.979 . S
C448 H474 0.977 . S
C449 C445 1.684 . S
C449 H475 0.979 . S
C449 H476 0.980 . S
C449 H477 0.983 . S
C450 H426 0.948 . S
C450 C451 1.391 . S
C450 C455 1.391 . S
C451 C450 1.391 . S
C451 C452 1.391 . S
C452 H429 0.947 . S
C452 C451 1.391 . S
C452 C453 1.392 . S
C453 H430 0.948 . S
C453 C452 1.392 . S
C453 C454 1.419 . S
C454 C453 1.419 . S
C454 C455 1.391 . S
C454 C458 1.397 . S
C455 C450 1.391 . S
C455 C454 1.391 . S
C455 C456 1.399 . S
C456 C455 1.399 . S
C456 C457 1.396 . S
C456 C459 1.453 . S
C456 C460 1.684 . S
C457 C447 1.723 . S
C457 C456 1.396 . S
C457 C458 1.394 . S
C458 C428 1.723 . S
C458 C454 1.397 . S
C458 C457 1.394 . S
C459 H431 0.982 . S
C459 H435 0.979 . S
C459 H436 0.977 . S
C459 C456 1.453 . S
C460 H432 0.979 . S
C460 H433 0.980 . S
C460 H434 0.983 . S
C460 C456 1.684 . S
H461 C479 0.948 . S
H462 C420 0.948 . S
H463 C438 0.979 . S
H464 C438 0.980 . S
H465 C438 0.983 . S
H466 C437 0.982 . S
H467 C437 0.979 . S
H468 C437 0.977 . S
H469 C439 0.948 . S
H470 C441 0.947 . S
H471 C442 0.948 . S
H472 C448 0.982 . S
H473 C448 0.979 . S
H474 C448 0.977 . S
H475 C449 0.979 . S
H476 C449 0.980 . S
H477 C449 0.983 . S
H478 C422 0.947 . S
C479 C422 1.392 . S
C479 C423 1.419 . S
C479 H461 0.948 . S
C480 C481 1.391 . S
C480 C484 1.391 . S
C480 H522 0.948 . S
C481 C480 1.391 . S
C481 C482 1.391 . S
C482 C481 1.391 . S
C482 H538 0.947 . S
C482 C539 1.392 . S
C483 C484 1.391 . S
C483 C487 1.397 . S
C483 C539 1.419 . S
C484 C480 1.391 . S
C484 C483 1.391 . S
C484 C485 1.399 . S
C485 C484 1.399 . S
C485 C488 1.396 . S
C485 C497 1.453 . S
C485 C498 1.684 . S
H486 C510 0.948 . S
C487 C483 1.397 . S
C487 C488 1.394 . S
C487 C506 1.723 . S
C488 C485 1.396 . S
C488 C487 1.394 . S
C488 C518 1.723 . S
H489 C512 0.947 . S
H490 C513 0.948 . S
H491 C519 0.982 . S
H492 C520 0.979 . S
H493 C520 0.980 . S
H494 C520 0.983 . S
H495 C519 0.979 . S
H496 C519 0.977 . S
C497 C485 1.453 . S
C497 H526 0.982 . S
C497 H527 0.979 . S
C497 H528 0.977 . S
C498 C485 1.684 . S
C498 H523 0.979 . S
C498 H524 0.980 . S
C498 H525 0.983 . S
C499 C500 1.391 . S
C499 C504 1.391 . S
C499 H529 0.948 . S
C500 C499 1.391 . S
C500 C501 1.391 . S
C501 C500 1.391 . S
C501 C502 1.392 . S
C501 H530 0.947 . S
C502 C501 1.392 . S
C502 C503 1.419 . S
C502 H531 0.948 . S
C503 C502 1.419 . S
C503 C504 1.391 . S
C503 C507 1.397 . S
C504 C499 1.391 . S
C504 C503 1.391 . S
C504 C505 1.399 . S
C505 C504 1.399 . S
C505 C506 1.396 . S
C505 C508 1.453 . S
C505 C509 1.684 . S
C506 C487 1.723 . S
C506 C505 1.396 . S
C506 C507 1.394 . S
C507 C503 1.397 . S
C507 C506 1.394 . S
C507 C517 1.723 . S
C508 C505 1.453 . S
C508 H532 0.982 . S
C508 H533 0.979 . S
C508 H534 0.977 . S
C509 C505 1.684 . S
C509 H535 0.979 . S
C509 H536 0.980 . S
C509 H537 0.983 . S
C510 H486 0.948 . S
C510 C511 1.391 . S
C510 C515 1.391 . S
C511 C510 1.391 . S
C511 C512 1.391 . S
C512 H489 0.947 . S
C512 C511 1.391 . S
C512 C513 1.392 . S
C513 H490 0.948 . S
C513 C512 1.392 . S
C513 C514 1.419 . S
C514 C513 1.419 . S
C514 C515 1.391 . S
C514 C518 1.397 . S
C515 C510 1.391 . S
C515 C514 1.391 . S
C515 C516 1.399 . S
C516 C515 1.399 . S
C516 C517 1.396 . S
C516 C519 1.453 . S
C516 C520 1.684 . S
C517 C507 1.723 . S
C517 C516 1.396 . S
C517 C518 1.394 . S
C518 C488 1.723 . S
C518 C514 1.397 . S
C518 C517 1.394 . S
C519 H491 0.982 . S
C519 H495 0.979 . S
C519 H496 0.977 . S
C519 C516 1.453 . S
C520 H492 0.979 . S
C520 H493 0.980 . S
C520 H494 0.983 . S
C520 C516 1.684 . S
H521 C539 0.948 . S
H522 C480 0.948 . S
H523 C498 0.979 . S
H524 C498 0.980 . S
H525 C498 0.983 . S
H526 C497 0.982 . S
H527 C497 0.979 . S
H528 C497 0.977 . S
H529 C499 0.948 . S
H530 C501 0.947 . S
H531 C502 0.948 . S
H532 C508 0.982 . S
H533 C508 0.979 . S
H534 C508 0.977 . S
H535 C509 0.979 . S
H536 C509 0.980 . S
H537 C509 0.983 . S
H538 C482 0.947 . S
C539 C482 1.392 . S
C539 C483 1.419 . S
C539 H521 0.948 . S
C540 C541 1.391 . S
C540 C544 1.391 . S
C540 H582 0.948 . S
C541 C540 1.391 . S
C541 C542 1.391 . S
C542 C541 1.391 . S
C542 H598 0.947 . S
C542 C599 1.392 . S
C543 C544 1.391 . S
C543 C547 1.397 . S
C543 C599 1.419 . S
C544 C540 1.391 . S
C544 C543 1.391 . S
C544 C545 1.399 . S
C545 C544 1.399 . S
C545 C548 1.396 . S
C545 C557 1.453 . S
C545 C558 1.684 . S
H546 C570 0.948 1_545 S
C547 C543 1.397 . S
C547 C548 1.394 . S
C547 C566 1.723 . S
C548 C545 1.396 . S
C548 C547 1.394 . S
C548 C578 1.723 . S
H549 C572 0.947 . S
H550 C573 0.948 . S
H551 C579 0.982 . S
H552 C580 0.979 . S
H553 C580 0.980 . S
H554 C580 0.983 . S
H555 C579 0.979 1_545 S
H556 C579 0.977 1_545 S
C557 C545 1.453 . S
C557 H586 0.982 . S
C557 H587 0.979 . S
C557 H588 0.977 . S
C558 C545 1.684 . S
C558 H583 0.979 . S
C558 H584 0.980 . S
C558 H585 0.983 . S
C559 C560 1.391 . S
C559 C564 1.391 1_545 S
C559 H589 0.948 . S
C560 C559 1.391 . S
C560 C561 1.391 . S
C561 C560 1.391 . S
C561 C562 1.392 . S
C561 H590 0.947 . S
C562 C561 1.392 . S
C562 C563 1.419 1_545 S
C562 H591 0.948 . S
C563 C562 1.419 1_565 S
C563 C564 1.391 . S
C563 C567 1.397 . S
C564 C559 1.391 1_565 S
C564 C563 1.391 . S
C564 C565 1.399 . S
C565 C564 1.399 . S
C565 C566 1.396 . S
C565 C568 1.453 . S
C565 C569 1.684 . S
C566 C547 1.723 . S
C566 C565 1.396 . S
C566 C567 1.394 . S
C567 C563 1.397 . S
C567 C566 1.394 . S
C567 C577 1.723 . S
C568 C565 1.453 . S
C568 H592 0.982 . S
C568 H593 0.979 . S
C568 H594 0.977 . S
C569 C565 1.684 . S
C569 H595 0.979 . S
C569 H596 0.980 . S
C569 H597 0.983 . S
C570 H546 0.948 1_565 S
C570 C571 1.391 . S
C570 C575 1.391 . S
C571 C570 1.391 . S
C571 C572 1.391 . S
C572 H549 0.947 . S
C572 C571 1.391 . S
C572 C573 1.392 . S
C573 H550 0.948 . S
C573 C572 1.392 . S
C573 C574 1.419 . S
C574 C573 1.419 . S
C574 C575 1.391 . S
C574 C578 1.397 . S
C575 C570 1.391 . S
C575 C574 1.391 . S
C575 C576 1.399 . S
C576 C575 1.399 . S
C576 C577 1.396 . S
C576 C579 1.453 . S
C576 C580 1.684 1_565 S
C577 C567 1.723 . S
C577 C576 1.396 . S
C577 C578 1.394 . S
C578 C548 1.723 . S
C578 C574 1.397 . S
C578 C577 1.394 . S
C579 H551 0.982 . S
C579 H555 0.979 1_565 S
C579 H556 0.977 1_565 S
C579 C576 1.453 . S
C580 H552 0.979 . S
C580 H553 0.980 . S
C580 H554 0.983 . S
C580 C576 1.684 1_545 S
H581 C599 0.948 . S
H582 C540 0.948 . S
H583 C558 0.979 . S
H584 C558 0.980 . S
H585 C558 0.983 . S
H586 C557 0.982 . S
H587 C557 0.979 . S
H588 C557 0.977 . S
H589 C559 0.948 . S
H590 C561 0.947 . S
H591 C562 0.948 . S
H592 C568 0.982 . S
H593 C568 0.979 . S
H594 C568 0.977 . S
H595 C569 0.979 . S
H596 C569 0.980 . S
H597 C569 0.983 . S
H598 C542 0.947 . S
C599 C542 1.392 . S
C599 C543 1.419 . S
C599 H581 0.948 . S
C600 C601 1.391 . S
C600 C604 1.391 . S
C600 H642 0.948 . S
C601 C600 1.391 . S
C601 C602 1.391 . S
C602 C601 1.391 . S
C602 H658 0.947 . S
C602 C659 1.392 . S
C603 C604 1.391 . S
C603 C607 1.397 . S
C603 C659 1.419 . S
C604 C600 1.391 . S
C604 C603 1.391 . S
C604 C605 1.399 . S
C605 C604 1.399 . S
C605 C608 1.396 . S
C605 C617 1.453 . S
C605 C618 1.684 . S
H606 C630 0.948 . S
C607 C603 1.397 . S
C607 C608 1.394 . S
C607 C626 1.723 . S
C608 C605 1.396 . S
C608 C607 1.394 . S
C608 C638 1.723 . S
H609 C632 0.947 . S
H610 C633 0.948 . S
H611 C639 0.982 . S
H612 C640 0.979 . S
H613 C640 0.980 . S
H614 C640 0.983 . S
H615 C639 0.979 . S
H616 C639 0.977 . S
C617 C605 1.453 . S
C617 H646 0.982 . S
C617 H647 0.979 . S
C617 H648 0.977 . S
C618 C605 1.684 . S
C618 H643 0.979 . S
C618 H644 0.980 . S
C618 H645 0.983 . S
C619 C620 1.391 . S
C619 C624 1.391 . S
C619 H649 0.948 . S
C620 C619 1.391 . S
C620 C621 1.391 . S
C621 C620 1.391 . S
C621 C622 1.392 . S
C621 H650 0.947 . S
C622 C621 1.392 . S
C622 C623 1.419 . S
C622 H651 0.948 . S
C623 C622 1.419 . S
C623 C624 1.391 . S
C623 C627 1.397 . S
C624 C619 1.391 . S
C624 C623 1.391 . S
C624 C625 1.399 . S
C625 C624 1.399 . S
C625 C626 1.396 . S
C625 C628 1.453 . S
C625 C629 1.684 . S
C626 C607 1.723 . S
C626 C625 1.396 . S
C626 C627 1.394 . S
C627 C623 1.397 . S
C627 C626 1.394 . S
C627 C637 1.723 . S
C628 C625 1.453 . S
C628 H652 0.982 . S
C628 H653 0.979 . S
C628 H654 0.977 . S
C629 C625 1.684 . S
C629 H655 0.979 . S
C629 H656 0.980 . S
C629 H657 0.983 . S
C630 H606 0.948 . S
C630 C631 1.391 . S
C630 C635 1.391 . S
C631 C630 1.391 . S
C631 C632 1.391 . S
C632 H609 0.947 . S
C632 C631 1.391 . S
C632 C633 1.392 . S
C633 H610 0.948 . S
C633 C632 1.392 . S
C633 C634 1.419 . S
C634 C633 1.419 . S
C634 C635 1.391 . S
C634 C638 1.397 . S
C635 C630 1.391 . S
C635 C634 1.391 . S
C635 C636 1.399 . S
C636 C635 1.399 . S
C636 C637 1.396 . S
C636 C639 1.453 . S
C636 C640 1.684 . S
C637 C627 1.723 . S
C637 C636 1.396 . S
C637 C638 1.394 . S
C638 C608 1.723 . S
C638 C634 1.397 . S
C638 C637 1.394 . S
C639 H611 0.982 . S
C639 H615 0.979 . S
C639 H616 0.977 . S
C639 C636 1.453 . S
C640 H612 0.979 . S
C640 H613 0.980 . S
C640 H614 0.983 . S
C640 C636 1.684 . S
H641 C659 0.948 . S
H642 C600 0.948 . S
H643 C618 0.979 . S
H644 C618 0.980 . S
H645 C618 0.983 . S
H646 C617 0.982 . S
H647 C617 0.979 . S
H648 C617 0.977 . S
H649 C619 0.948 . S
H650 C621 0.947 . S
H651 C622 0.948 . S
H652 C628 0.982 . S
H653 C628 0.979 . S
H654 C628 0.977 . S
H655 C629 0.979 . S
H656 C629 0.980 . S
H657 C629 0.983 . S
H658 C602 0.947 . S
C659 C602 1.392 . S
C659 C603 1.419 . S
C659 H641 0.948 . S
C660 C661 1.391 . S
C660 C664 1.391 . S
C660 H702 0.948 . S
C661 C660 1.391 . S
C661 C662 1.391 . S
C662 C661 1.391 . S
C662 H718 0.947 . S
C662 C719 1.392 . S
C663 C664 1.391 . S
C663 C667 1.397 . S
C663 C719 1.419 . S
C664 C660 1.391 . S
C664 C663 1.391 . S
C664 C665 1.399 . S
C665 C664 1.399 . S
C665 C668 1.396 . S
C665 C677 1.453 . S
C665 C678 1.684 . S
H666 C690 0.948 . S
C667 C663 1.397 . S
C667 C668 1.394 . S
C667 C686 1.723 . S
C668 C665 1.396 . S
C668 C667 1.394 . S
C668 C698 1.723 . S
H669 C692 0.947 . S
H670 C693 0.948 . S
H671 C699 0.982 . S
H672 C700 0.979 . S
H673 C700 0.980 . S
H674 C700 0.983 . S
H675 C699 0.979 . S
H676 C699 0.977 . S
C677 C665 1.453 . S
C677 H706 0.982 . S
C677 H707 0.979 . S
C677 H708 0.977 . S
C678 C665 1.684 . S
C678 H703 0.979 . S
C678 H704 0.980 . S
C678 H705 0.983 . S
C679 C680 1.391 . S
C679 C684 1.391 . S
C679 H709 0.948 . S
C680 C679 1.391 . S
C680 C681 1.391 . S
C681 C680 1.391 . S
C681 C682 1.392 . S
C681 H710 0.947 . S
C682 C681 1.392 . S
C682 C683 1.419 . S
C682 H711 0.948 . S
C683 C682 1.419 . S
C683 C684 1.391 . S
C683 C687 1.397 . S
C684 C679 1.391 . S
C684 C683 1.391 . S
C684 C685 1.399 . S
C685 C684 1.399 . S
C685 C686 1.396 . S
C685 C688 1.453 . S
C685 C689 1.684 . S
C686 C667 1.723 . S
C686 C685 1.396 . S
C686 C687 1.394 . S
C687 C683 1.397 . S
C687 C686 1.394 . S
C687 C697 1.723 . S
C688 C685 1.453 . S
C688 H712 0.982 . S
C688 H713 0.979 . S
C688 H714 0.977 . S
C689 C685 1.684 . S
C689 H715 0.979 . S
C689 H716 0.980 . S
C689 H717 0.983 . S
C690 H666 0.948 . S
C690 C691 1.391 . S
C690 C695 1.391 . S
C691 C690 1.391 . S
C691 C692 1.391 . S
C692 H669 0.947 . S
C692 C691 1.391 . S
C692 C693 1.392 . S
C693 H670 0.948 . S
C693 C692 1.392 . S
C693 C694 1.419 . S
C694 C693 1.419 . S
C694 C695 1.391 . S
C694 C698 1.397 . S
C695 C690 1.391 . S
C695 C694 1.391 . S
C695 C696 1.399 . S
C696 C695 1.399 . S
C696 C697 1.396 . S
C696 C699 1.453 . S
C696 C700 1.684 . S
C697 C687 1.723 . S
C697 C696 1.396 . S
C697 C698 1.394 . S
C698 C668 1.723 . S
C698 C694 1.397 . S
C698 C697 1.394 . S
C699 H671 0.982 . S
C699 H675 0.979 . S
C699 H676 0.977 . S
C699 C696 1.453 . S
C700 H672 0.979 . S
C700 H673 0.980 . S
C700 H674 0.983 . S
C700 C696 1.684 . S
H701 C719 0.948 . S
H702 C660 0.948 . S
H703 C678 0.979 . S
H704 C678 0.980 . S
H705 C678 0.983 . S
H706 C677 0.982 . S
H707 C677 0.979 . S
H708 C677 0.977 . S
H709 C679 0.948 . S
H710 C681 0.947 . S
H711 C682 0.948 . S
H712 C688 0.982 . S
H713 C688 0.979 . S
H714 C688 0.977 . S
H715 C689 0.979 . S
H716 C689 0.980 . S
H717 C689 0.983 . S
H718 C662 0.947 . S
C719 C662 1.392 . S
C719 C663 1.419 . S
C719 H701 0.948 . S
C720 C721 1.391 . S
C720 C724 1.391 . S
C720 H762 0.948 . S
C721 C720 1.391 . S
C721 C722 1.391 . S
C722 C721 1.391 . S
C722 H778 0.947 . S
C722 C779 1.392 . S
C723 C724 1.391 . S
C723 C727 1.397 . S
C723 C779 1.419 . S
C724 C720 1.391 . S
C724 C723 1.391 . S
C724 C725 1.399 . S
C725 C724 1.399 . S
C725 C728 1.396 . S
C725 C737 1.453 . S
C725 C738 1.684 . S
H726 C750 0.948 . S
C727 C723 1.397 . S
C727 C728 1.394 . S
C727 C746 1.723 . S
C728 C725 1.396 . S
C728 C727 1.394 . S
C728 C758 1.723 . S
H729 C752 0.947 . S
H730 C753 0.948 . S
H731 C759 0.982 . S
H732 C760 0.979 . S
H733 C760 0.980 . S
H734 C760 0.983 . S
H735 C759 0.979 . S
H736 C759 0.977 . S
C737 C725 1.453 . S
C737 H766 0.982 . S
C737 H767 0.979 . S
C737 H768 0.977 . S
C738 C725 1.684 . S
C738 H763 0.979 . S
C738 H764 0.980 . S
C738 H765 0.983 . S
C739 C740 1.391 . S
C739 C744 1.391 . S
C739 H769 0.948 . S
C740 C739 1.391 . S
C740 C741 1.391 . S
C741 C740 1.391 . S
C741 C742 1.392 . S
C741 H770 0.947 . S
C742 C741 1.392 . S
C742 C743 1.419 . S
C742 H771 0.948 . S
C743 C742 1.419 . S
C743 C744 1.391 . S
C743 C747 1.397 . S
C744 C739 1.391 . S
C744 C743 1.391 . S
C744 C745 1.399 . S
C745 C744 1.399 . S
C745 C746 1.396 . S
C745 C748 1.453 . S
C745 C749 1.684 . S
C746 C727 1.723 . S
C746 C745 1.396 . S
C746 C747 1.394 . S
C747 C743 1.397 . S
C747 C746 1.394 . S
C747 C757 1.723 . S
C748 C745 1.453 . S
C748 H772 0.982 . S
C748 H773 0.979 . S
C748 H774 0.977 . S
C749 C745 1.684 . S
C749 H775 0.979 . S
C749 H776 0.980 . S
C749 H777 0.983 . S
C750 H726 0.948 . S
C750 C751 1.391 . S
C750 C755 1.391 . S
C751 C750 1.391 . S
C751 C752 1.391 . S
C752 H729 0.947 . S
C752 C751 1.391 . S
C752 C753 1.392 . S
C753 H730 0.948 . S
C753 C752 1.392 . S
C753 C754 1.419 . S
C754 C753 1.419 . S
C754 C755 1.391 . S
C754 C758 1.397 . S
C755 C750 1.391 . S
C755 C754 1.391 . S
C755 C756 1.399 . S
C756 C755 1.399 . S
C756 C757 1.396 . S
C756 C759 1.453 . S
C756 C760 1.684 . S
C757 C747 1.723 . S
C757 C756 1.396 . S
C757 C758 1.394 . S
C758 C728 1.723 . S
C758 C754 1.397 . S
C758 C757 1.394 . S
C759 H731 0.982 . S
C759 H735 0.979 . S
C759 H736 0.977 . S
C759 C756 1.453 . S
C760 H732 0.979 . S
C760 H733 0.980 . S
C760 H734 0.983 . S
C760 C756 1.684 . S
H761 C779 0.948 . S
H762 C720 0.948 . S
H763 C738 0.979 . S
H764 C738 0.980 . S
H765 C738 0.983 . S
H766 C737 0.982 . S
H767 C737 0.979 . S
H768 C737 0.977 . S
H769 C739 0.948 . S
H770 C741 0.947 . S
H771 C742 0.948 . S
H772 C748 0.982 . S
H773 C748 0.979 . S
H774 C748 0.977 . S
H775 C749 0.979 . S
H776 C749 0.980 . S
H777 C749 0.983 . S
H778 C722 0.947 . S
C779 C722 1.392 . S
C779 C723 1.419 . S
C779 H761 0.948 . S
C780 C781 1.391 . S
C780 C784 1.391 . S
C780 H822 0.948 . S
C781 C780 1.391 . S
C781 C782 1.413 . S
C782 C781 1.413 . S
C782 H838 0.946 1_554 S
C782 C839 1.371 1_554 S
C783 C784 1.391 1_556 S
C783 C787 1.397 . S
C783 C839 1.419 . S
C784 C780 1.391 . S
C784 C783 1.391 1_554 S
C784 C785 1.399 . S
C785 C784 1.399 . S
C785 C788 1.396 1_554 S
C785 C797 1.453 . S
C785 C798 1.684 . S
H786 C810 0.948 . S
C787 C783 1.397 . S
C787 C788 1.394 . S
C787 C806 1.723 . S
C788 C785 1.396 1_556 S
C788 C787 1.394 . S
C788 C818 1.723 . S
H789 C812 0.947 1_554 S
H790 C813 0.942 1_554 S
H791 C819 0.982 . S
H792 C820 0.979 . S
H793 C820 0.980 . S
H794 C820 0.983 . S
H795 C819 0.979 . S
H796 C819 0.977 . S
C797 C785 1.453 . S
C797 H826 0.982 . S
C797 H827 0.979 . S
C797 H828 0.977 . S
C798 C785 1.684 . S
C798 H823 0.979 1_554 S
C798 H824 0.980 . S
C798 H825 0.983 . S
C799 C800 1.391 . S
C799 C804 1.391 . S
C799 H829 0.948 . S
C800 C799 1.391 . S
C800 C801 1.391 . S
C801 C800 1.391 . S
C801 C802 1.392 . S
C801 H830 0.947 . S
C802 C801 1.392 . S
C802 C803 1.419 . S
C802 H831 0.948 . S
C803 C802 1.419 . S
C803 C804 1.391 . S
C803 C807 1.397 . S
C804 C799 1.391 . S
C804 C803 1.391 . S
C804 C805 1.399 . S
C805 C804 1.399 . S
C805 C806 1.396 . S
C805 C808 1.453 . S
C805 C809 1.684 . S
C806 C787 1.723 . S
C806 C805 1.396 . S
C806 C807 1.394 . S
C807 C803 1.397 . S
C807 C806 1.394 . S
C807 C817 1.723 . S
C808 C805 1.453 . S
C808 H832 0.982 . S
C808 H833 0.979 . S
C808 H834 0.977 . S
C809 C805 1.684 . S
C809 H835 0.979 . S
C809 H836 0.980 . S
C809 H837 0.983 . S
C810 H786 0.948 . S
C810 C811 1.391 . S
C810 C815 1.391 . S
C811 C810 1.391 . S
C811 C812 1.391 . S
C812 H789 0.947 1_556 S
C812 C811 1.391 . S
C812 C813 1.392 . S
C813 H790 0.942 1_556 S
C813 C812 1.392 . S
C813 C814 1.419 . S
C814 C813 1.419 . S
C814 C815 1.391 . S
C814 C818 1.397 . S
C815 C810 1.391 . S
C815 C814 1.391 . S
C815 C816 1.399 . S
C816 C815 1.399 . S
C816 C817 1.396 . S
C816 C819 1.453 . S
C816 C820 1.684 . S
C817 C807 1.723 . S
C817 C816 1.396 . S
C817 C818 1.394 . S
C818 C788 1.723 . S
C818 C814 1.397 . S
C818 C817 1.394 . S
C819 H791 0.982 . S
C819 H795 0.979 . S
C819 H796 0.977 . S
C819 C816 1.453 . S
C820 H792 0.979 . S
C820 H793 0.980 . S
C820 H794 0.983 . S
C820 C816 1.684 . S
H821 C839 0.948 . S
H822 C780 0.948 . S
H823 C798 0.979 1_556 S
H824 C798 0.980 . S
H825 C798 0.983 . S
H826 C797 0.982 . S
H827 C797 0.979 . S
H828 C797 0.977 . S
H829 C799 0.948 . S
H830 C801 0.947 . S
H831 C802 0.948 . S
H832 C808 0.982 . S
H833 C808 0.979 . S
H834 C808 0.977 . S
H835 C809 0.979 . S
H836 C809 0.980 . S
H837 C809 0.983 . S
H838 C782 0.946 1_556 S
C839 C782 1.371 1_556 S
C839 C783 1.419 . S
C839 H821 0.948 . S
C840 C841 1.391 . S
C840 C844 1.391 . S
C840 H882 0.948 . S
C841 C840 1.391 . S
C841 C842 1.391 . S
C842 C841 1.391 . S
C842 H898 0.947 . S
C842 C899 1.392 . S
C843 C844 1.391 . S
C843 C847 1.397 . S
C843 C899 1.419 . S
C844 C840 1.391 . S
C844 C843 1.391 . S
C844 C845 1.399 . S
C845 C844 1.399 . S
C845 C848 1.396 . S
C845 C857 1.453 . S
C845 C858 1.684 . S
H846 C870 0.948 . S
C847 C843 1.397 . S
C847 C848 1.394 . S
C847 C866 1.723 . S
C848 C845 1.396 . S
C848 C847 1.394 . S
C848 C878 1.723 . S
H849 C872 0.947 . S
H850 C873 0.948 . S
H851 C879 0.982 . S
H852 C880 0.979 . S
H853 C880 0.980 . S
H854 C880 0.983 . S
H855 C879 0.979 . S
H856 C879 0.977 . S
C857 C845 1.453 . S
C857 H886 0.982 . S
C857 H887 0.979 . S
C857 H888 0.977 . S
C858 C845 1.684 . S
C858 H883 0.979 . S
C858 H884 0.980 . S
C858 H885 0.983 . S
C859 C860 1.391 . S
C859 C864 1.391 . S
C859 H889 0.948 . S
C860 C859 1.391 . S
C860 C861 1.391 . S
C861 C860 1.391 . S
C861 C862 1.392 . S
C861 H890 0.947 . S
C862 C861 1.392 . S
C862 C863 1.419 . S
C862 H891 0.948 . S
C863 C862 1.419 . S
C863 C864 1.391 . S
C863 C867 1.397 . S
C864 C859 1.391 . S
C864 C863 1.391 . S
C864 C865 1.399 . S
C865 C864 1.399 . S
C865 C866 1.396 . S
C865 C868 1.453 . S
C865 C869 1.684 . S
C866 C847 1.723 . S
C866 C865 1.396 . S
C866 C867 1.394 . S
C867 C863 1.397 . S
C867 C866 1.394 . S
C867 C877 1.723 . S
C868 C865 1.453 . S
C868 H892 0.982 . S
C868 H893 0.979 . S
C868 H894 0.977 . S
C869 C865 1.684 . S
C869 H895 0.979 . S
C869 H896 0.980 . S
C869 H897 0.983 . S
C870 H846 0.948 . S
C870 C871 1.391 . S
C870 C875 1.391 . S
C871 C870 1.391 . S
C871 C872 1.391 . S
C872 H849 0.947 . S
C872 C871 1.391 . S
C872 C873 1.392 . S
C873 H850 0.948 . S
C873 C872 1.392 . S
C873 C874 1.419 . S
C874 C873 1.419 . S
C874 C875 1.391 . S
C874 C878 1.397 . S
C875 C870 1.391 . S
C875 C874 1.391 . S
C875 C876 1.399 . S
C876 C875 1.399 . S
C876 C877 1.396 . S
C876 C879 1.453 . S
C876 C880 1.684 . S
C877 C867 1.723 . S
C877 C876 1.396 . S
C877 C878 1.394 . S
C878 C848 1.723 . S
C878 C874 1.397 . S
C878 C877 1.394 . S
C879 H851 0.982 . S
C879 H855 0.979 . S
C879 H856 0.977 . S
C879 C876 1.453 . S
C880 H852 0.979 . S
C880 H853 0.980 . S
C880 H854 0.983 . S
C880 C876 1.684 . S
H881 C899 0.948 . S
H882 C840 0.948 . S
H883 C858 0.979 . S
H884 C858 0.980 . S
H885 C858 0.983 . S
H886 C857 0.982 . S
H887 C857 0.979 . S
H888 C857 0.977 . S
H889 C859 0.948 . S
H890 C861 0.947 . S
H891 C862 0.948 . S
H892 C868 0.982 . S
H893 C868 0.979 . S
H894 C868 0.977 . S
H895 C869 0.979 . S
H896 C869 0.980 . S
H897 C869 0.983 . S
H898 C842 0.947 . S
C899 C842 1.392 . S
C899 C843 1.419 . S
C899 H881 0.948 . S
C900 C901 1.391 . S
C900 C904 1.391 1_565 S
C900 H942 0.948 1_566 S
C901 C900 1.391 . S
C901 C902 1.391 . S
C902 C901 1.391 . S
C902 H958 0.947 . S
C902 C959 1.392 . S
C903 C904 1.391 . S
C903 C907 1.397 . S
C903 C959 1.419 1_545 S
C904 C900 1.391 1_545 S
C904 C903 1.391 . S
C904 C905 1.392 1_556 S
C905 C904 1.392 1_554 S
C905 C908 1.385 1_554 S
C905 C917 1.455 . S
C905 C918 1.703 . S
H906 C930 0.948 . S
C907 C903 1.397 . S
C907 C908 1.394 . S
C907 C926 1.723 . S
C908 C905 1.385 1_556 S
C908 C907 1.394 . S
C908 C938 1.723 . S
H909 C932 0.947 . S
H910 C933 0.948 . S
H911 C939 0.982 . S
H912 C940 0.979 . S
H913 C940 0.980 . S
H914 C940 0.983 . S
H915 C939 0.979 . S
H916 C939 0.977 . S
C917 C905 1.455 . S
C917 H946 0.982 1_554 S
C917 H947 0.979 . S
C917 H948 0.977 . S
C918 C905 1.703 . S
C918 H943 0.979 . S
C918 H944 0.980 . S
C918 H945 0.983 . S
C919 C920 1.391 . S
C919 C924 1.391 . S
C919 H949 0.948 . S
C920 C919 1.391 . S
C920 C921 1.391 . S
C921 C920 1.391 . S
C921 C922 1.392 . S
C921 H950 0.947 . S
C922 C921 1.392 . S
C922 C923 1.419 . S
C922 H951 0.948 . S
C923 C922 1.419 . S
C923 C924 1.391 . S
C923 C927 1.397 . S
C924 C919 1.391 . S
C924 C923 1.391 . S
C924 C925 1.399 . S
C925 C924 1.399 . S
C925 C926 1.396 . S
C925 C928 1.453 . S
C925 C929 1.684 1_545 S
C926 C907 1.723 . S
C926 C925 1.396 . S
C926 C927 1.394 . S
C927 C923 1.397 . S
C927 C926 1.394 . S
C927 C937 1.723 . S
C928 C925 1.453 . S
C928 H952 0.982 . S
C928 H953 0.979 1_545 S
C928 H954 0.974 . S
C929 C925 1.684 1_565 S
C929 H955 0.979 . S
C929 H956 0.980 . S
C929 H957 0.983 . S
C930 H906 0.948 . S
C930 C931 1.391 . S
C930 C935 1.372 1_554 S
C931 C930 1.391 . S
C931 C932 1.391 . S
C932 H909 0.947 . S
C932 C931 1.391 . S
C932 C933 1.392 . S
C933 H910 0.948 . S
C933 C932 1.392 . S
C933 C934 1.419 . S
C934 C933 1.419 . S
C934 C935 1.386 1_554 S
C934 C938 1.397 1_554 S
C935 C930 1.372 1_556 S
C935 C934 1.386 1_556 S
C935 C936 1.430 . S
C936 C935 1.430 . S
C936 C937 1.396 . S
C936 C939 1.453 . S
C936 C940 1.684 . S
C937 C927 1.723 . S
C937 C936 1.396 . S
C937 C938 1.394 . S
C938 C908 1.723 . S
C938 C934 1.397 1_556 S
C938 C937 1.394 . S
C939 H911 0.982 . S
C939 H915 0.979 . S
C939 H916 0.977 . S
C939 C936 1.453 . S
C940 H912 0.979 . S
C940 H913 0.980 . S
C940 H914 0.983 . S
C940 C936 1.684 . S
H941 C959 0.948 . S
H942 C900 0.948 1_544 S
H943 C918 0.979 . S
H944 C918 0.980 . S
H945 C918 0.983 . S
H946 C917 0.982 1_556 S
H947 C917 0.979 . S
H948 C917 0.977 . S
H949 C919 0.948 . S
H950 C921 0.947 . S
H951 C922 0.948 . S
H952 C928 0.982 . S
H953 C928 0.979 1_565 S
H954 C928 0.974 . S
H955 C929 0.979 . S
H956 C929 0.980 . S
H957 C929 0.983 . S
H958 C902 0.947 . S
C959 C902 1.392 . S
C959 C903 1.419 1_565 S
C959 H941 0.948 . S
Mn960 O965 2.095 . S
Mn960 O975 2.162 . S
Mn960 O976 2.297 . S
Mn960 O984 2.409 . S
Mn960 O985 2.209 1_554 S
Mn960 O986 2.094 . S
Mn961 O966 2.121 . S
Mn961 N968 2.257 . S
Mn961 N977 2.282 . S
Mn961 O985 2.215 . S
Mn961 O987 2.117 . S
C962 O984 1.189 1_556 S
C962 O985 1.283 . S
C963 O975 1.281 . S
C963 O976 1.236 . S
C964 O986 1.240 . S
C964 O987 1.264 1_554 S
O965 Mn960 2.095 . S
O965 C974 1.250 . S
O966 Mn961 2.121 . S
O966 C974 1.258 1_556 S
C967 N968 1.326 . S
C967 C971 1.460 . S
C967 H973 0.929 . S
N968 Mn961 2.257 . S
N968 C967 1.326 . S
N968 C972 1.362 . S
C969 C970 1.258 . S
C969 C972 1.431 . S
C969 C989 1.449 . S
C970 C969 1.258 . S
C970 C971 1.477 . S
C970 H990 0.931 . S
C971 C967 1.460 . S
C971 C970 1.477 . S
C971 H991 0.930 . S
C972 N968 1.362 . S
C972 C969 1.431 . S
C972 C982 1.476 . S
H973 C967 0.929 . S
C974 O965 1.250 . S
C974 O966 1.258 1_554 S
O975 Mn960 2.162 . S
O975 C963 1.281 . S
O976 Mn960 2.297 . S
O976 C963 1.236 . S
N977 Mn961 2.282 . S
N977 C978 1.328 . S
N977 C982 1.318 . S
C978 N977 1.328 . S
C978 C979 1.457 . S
C978 H983 0.929 . S
C979 C978 1.457 . S
C979 C980 1.291 . S
C979 H992 0.931 . S
C980 C979 1.291 . S
C980 C981 1.373 . S
C980 H993 0.929 . S
C981 C980 1.373 . S
C981 C982 1.396 . S
C981 C988 1.403 . S
C982 C972 1.476 . S
C982 N977 1.318 . S
C982 C981 1.396 . S
H983 C978 0.929 . S
O984 Mn960 2.409 . S
O984 C962 1.189 1_554 S
O985 Mn960 2.209 1_556 S
O985 Mn961 2.215 . S
O985 C962 1.283 . S
O986 Mn960 2.094 . S
O986 C964 1.240 . S
O987 Mn961 2.117 . S
O987 C964 1.264 1_556 S
C988 C981 1.403 . S
C988 C989 1.399 . S
C988 H994 0.929 . S
C989 C969 1.449 . S
C989 C988 1.399 . S
C989 H995 0.930 . S
H990 C970 0.931 . S
H991 C971 0.930 . S
H992 C979 0.931 . S
H993 C980 0.929 . S
H994 C988 0.929 . S
H995 C989 0.930 . S
Mn996 O1001 2.095 . S
Mn996 O1011 2.162 . S
Mn996 O1012 2.297 . S
Mn996 O1020 2.385 . S
Mn996 O1021 2.209 . S
Mn996 O1022 2.094 . S
Mn997 O1002 2.121 . S
Mn997 N1004 2.257 . S
Mn997 N1013 2.282 . S
Mn997 O1021 2.215 . S
Mn997 O1023 2.117 . S
C998 O1020 1.234 . S
C998 O1021 1.283 . S
C999 O1011 1.281 . S
C999 O1012 1.236 . S
C1000 O1022 1.240 . S
C1000 O1023 1.264 . S
O1001 Mn996 2.095 . S
O1001 C1010 1.250 . S
O1002 Mn997 2.121 . S
O1002 C1010 1.258 . S
C1003 N1004 1.326 . S
C1003 C1007 1.460 . S
C1003 H1009 0.929 . S
N1004 Mn997 2.257 . S
N1004 C1003 1.326 . S
N1004 C1008 1.362 . S
C1005 C1006 1.258 . S
C1005 C1008 1.431 . S
C1005 C1025 1.449 . S
C1006 C1005 1.258 . S
C1006 C1007 1.477 . S
C1006 H1026 0.931 . S
C1007 C1003 1.460 . S
C1007 C1006 1.477 . S
C1007 H1027 0.930 . S
C1008 N1004 1.362 . S
C1008 C1005 1.431 . S
C1008 C1018 1.476 . S
H1009 C1003 0.929 . S
C1010 O1001 1.250 . S
C1010 O1002 1.258 . S
O1011 Mn996 2.162 . S
O1011 C999 1.281 . S
O1012 Mn996 2.297 . S
O1012 C999 1.236 . S
N1013 Mn997 2.282 . S
N1013 C1014 1.328 . S
N1013 C1018 1.318 . S
C1014 N1013 1.328 . S
C1014 C1015 1.457 . S
C1014 H1019 0.929 . S
C1015 C1014 1.457 . S
C1015 C1016 1.291 . S
C1015 H1028 0.931 . S
C1016 C1015 1.291 . S
C1016 C1017 1.373 . S
C1016 H1029 0.929 . S
C1017 C1016 1.373 . S
C1017 C1018 1.396 . S
C1017 C1024 1.403 . S
C1018 C1008 1.476 . S
C1018 N1013 1.318 . S
C1018 C1017 1.396 . S
H1019 C1014 0.929 . S
O1020 Mn996 2.385 . S
O1020 C998 1.234 . S
O1021 Mn996 2.209 . S
O1021 Mn997 2.215 . S
O1021 C998 1.283 . S
O1022 Mn996 2.094 . S
O1022 C1000 1.240 . S
O1023 Mn997 2.117 . S
O1023 C1000 1.264 . S
C1024 C1017 1.403 . S
C1024 C1025 1.399 . S
C1024 H1030 0.929 . S
C1025 C1005 1.449 . S
C1025 C1024 1.399 . S
C1025 H1031 0.930 . S
H1026 C1006 0.931 . S
H1027 C1007 0.930 . S
H1028 C1015 0.931 . S
H1029 C1016 0.929 . S
H1030 C1024 0.929 . S
H1031 C1025 0.930 . S
Mn1032 O1037 2.095 1_554 S
Mn1032 O1047 2.162 . S
Mn1032 O1048 2.297 1_554 S
Mn1032 O1056 2.385 . S
Mn1032 O1057 2.209 1_554 S
Mn1032 O1058 2.094 . S
Mn1033 O1038 2.121 . S
Mn1033 N1040 2.257 . S
Mn1033 N1049 2.282 . S
Mn1033 O1057 2.215 . S
Mn1033 O1059 2.117 1_556 S
C1034 O1056 1.277 . S
C1034 O1057 1.254 1_554 S
C1035 O1047 1.281 . S
C1035 O1048 1.236 1_554 S
C1036 O1058 1.240 . S
C1036 O1059 1.264 . S
O1037 Mn1032 2.095 1_556 S
O1037 C1046 1.250 . S
O1038 Mn1033 2.121 . S
O1038 C1046 1.258 . S
C1039 N1040 1.326 . S
C1039 C1043 1.460 . S
C1039 H1045 0.929 . S
N1040 Mn1033 2.257 . S
N1040 C1039 1.326 . S
N1040 C1044 1.362 . S
C1041 C1042 1.258 . S
C1041 C1044 1.431 . S
C1041 C1061 1.449 . S
C1042 C1041 1.258 . S
C1042 C1043 1.477 . S
C1042 H1062 0.931 . S
C1043 C1039 1.460 . S
C1043 C1042 1.477 . S
C1043 H1063 0.930 . S
C1044 N1040 1.362 . S
C1044 C1041 1.431 . S
C1044 C1054 1.476 . S
H1045 C1039 0.929 . S
C1046 O1037 1.250 . S
C1046 O1038 1.258 . S
O1047 Mn1032 2.162 . S
O1047 C1035 1.281 . S
O1048 Mn1032 2.297 1_556 S
O1048 C1035 1.236 1_556 S
N1049 Mn1033 2.282 . S
N1049 C1050 1.328 1_556 S
N1049 C1054 1.318 . S
C1050 N1049 1.328 1_554 S
C1050 C1051 1.457 . S
C1050 H1055 0.929 . S
C1051 C1050 1.457 . S
C1051 C1052 1.291 . S
C1051 H1064 0.931 . S
C1052 C1051 1.291 . S
C1052 C1053 1.373 1_554 S
C1052 H1065 0.929 . S
C1053 C1052 1.373 1_556 S
C1053 C1054 1.396 . S
C1053 C1060 1.403 . S
C1054 C1044 1.476 . S
C1054 N1049 1.318 . S
C1054 C1053 1.396 . S
H1055 C1050 0.929 . S
O1056 Mn1032 2.385 . S
O1056 C1034 1.277 . S
O1057 Mn1032 2.209 1_556 S
O1057 Mn1033 2.215 . S
O1057 C1034 1.254 1_556 S
O1058 Mn1032 2.094 . S
O1058 C1036 1.240 . S
O1059 Mn1033 2.117 1_554 S
O1059 C1036 1.264 . S
C1060 C1053 1.403 . S
C1060 C1061 1.399 . S
C1060 H1066 0.929 . S
C1061 C1041 1.449 . S
C1061 C1060 1.399 . S
C1061 H1067 0.930 . S
H1062 C1042 0.931 . S
H1063 C1043 0.930 . S
H1064 C1051 0.931 . S
H1065 C1052 0.929 . S
H1066 C1060 0.929 . S
H1067 C1061 0.930 . S
Mn1068 O1073 2.095 . S
Mn1068 O1083 2.162 . S
Mn1068 O1084 2.297 . S
Mn1068 O1092 2.385 1_545 S
Mn1068 O1093 2.209 1_545 S
Mn1068 O1094 2.094 . S
Mn1069 O1074 2.121 . S
Mn1069 N1076 2.257 . S
Mn1069 N1085 2.282 . S
Mn1069 O1093 2.215 . S
Mn1069 O1095 2.117 . S
C1070 O1092 1.234 . S
C1070 O1093 1.283 . S
C1071 O1083 1.281 . S
C1071 O1084 1.236 . S
C1072 O1094 1.240 . S
C1072 O1095 1.264 1_545 S
O1073 Mn1068 2.095 . S
O1073 C1082 1.253 . S
O1074 Mn1069 2.121 . S
O1074 C1082 1.255 1_565 S
C1075 N1076 1.326 . S
C1075 C1079 1.460 . S
C1075 H1081 0.929 . S
N1076 Mn1069 2.257 . S
N1076 C1075 1.326 . S
N1076 C1080 1.362 . S
C1077 C1078 1.258 . S
C1077 C1080 1.431 . S
C1077 C1097 1.449 . S
C1078 C1077 1.258 . S
C1078 C1079 1.477 . S
C1078 H1098 0.931 . S
C1079 C1075 1.460 . S
C1079 C1078 1.477 . S
C1079 H1099 0.930 . S
C1080 N1076 1.362 . S
C1080 C1077 1.431 . S
C1080 C1090 1.476 . S
H1081 C1075 0.929 . S
C1082 O1073 1.253 . S
C1082 O1074 1.255 1_545 S
O1083 Mn1068 2.162 . S
O1083 C1071 1.281 . S
O1084 Mn1068 2.297 . S
O1084 C1071 1.236 . S
N1085 Mn1069 2.282 . S
N1085 C1086 1.328 . S
N1085 C1090 1.318 . S
C1086 N1085 1.328 . S
C1086 C1087 1.457 . S
C1086 H1091 0.929 . S
C1087 C1086 1.457 . S
C1087 C1088 1.291 . S
C1087 H1100 0.931 . S
C1088 C1087 1.291 . S
C1088 C1089 1.373 . S
C1088 H1101 0.929 . S
C1089 C1088 1.373 . S
C1089 C1090 1.396 . S
C1089 C1096 1.403 . S
C1090 C1080 1.476 . S
C1090 N1085 1.318 . S
C1090 C1089 1.396 . S
H1091 C1086 0.929 . S
O1092 Mn1068 2.385 1_565 S
O1092 C1070 1.234 . S
O1093 Mn1068 2.209 1_565 S
O1093 Mn1069 2.215 . S
O1093 C1070 1.283 . S
O1094 Mn1068 2.094 . S
O1094 C1072 1.240 . S
O1095 Mn1069 2.117 . S
O1095 C1072 1.264 1_565 S
C1096 C1089 1.403 . S
C1096 C1097 1.399 . S
C1096 H1102 0.929 . S
C1097 C1077 1.449 . S
C1097 C1096 1.399 . S
C1097 H1103 0.930 . S
H1098 C1078 0.931 . S
H1099 C1079 0.930 . S
H1100 C1087 0.931 . S
H1101 C1088 0.929 . S
H1102 C1096 0.929 . S
H1103 C1097 0.930 . S
Mn1104 O1109 2.095 . S
Mn1104 O1119 2.162 . S
Mn1104 O1120 2.297 . S
Mn1104 O1128 2.385 . S
Mn1104 O1129 2.209 . S
Mn1104 O1130 2.094 . S
Mn1105 O1110 2.121 . S
Mn1105 N1112 2.257 . S
Mn1105 N1121 2.282 . S
Mn1105 O1129 2.215 . S
Mn1105 O1131 2.117 . S
C1106 O1128 1.234 . S
C1106 O1129 1.283 . S
C1107 O1119 1.281 . S
C1107 O1120 1.236 . S
C1108 O1130 1.240 . S
C1108 O1131 1.264 . S
O1109 Mn1104 2.095 . S
O1109 C1118 1.250 . S
O1110 Mn1105 2.121 . S
O1110 C1118 1.258 . S
C1111 N1112 1.326 . S
C1111 C1115 1.460 . S
C1111 H1117 0.929 . S
N1112 Mn1105 2.257 . S
N1112 C1111 1.326 . S
N1112 C1116 1.362 . S
C1113 C1114 1.258 . S
C1113 C1116 1.431 . S
C1113 C1133 1.449 . S
C1114 C1113 1.258 . S
C1114 C1115 1.477 . S
C1114 H1134 0.931 . S
C1115 C1111 1.460 . S
C1115 C1114 1.477 . S
C1115 H1135 0.930 . S
C1116 N1112 1.362 . S
C1116 C1113 1.431 . S
C1116 C1126 1.476 . S
H1117 C1111 0.929 . S
C1118 O1109 1.250 . S
C1118 O1110 1.258 . S
O1119 Mn1104 2.162 . S
O1119 C1107 1.281 . S
O1120 Mn1104 2.297 . S
O1120 C1107 1.236 . S
N1121 Mn1105 2.282 . S
N1121 C1122 1.328 . S
N1121 C1126 1.318 . S
C1122 N1121 1.328 . S
C1122 C1123 1.457 . S
C1122 H1127 0.929 . S
C1123 C1122 1.457 . S
C1123 C1124 1.291 . S
C1123 H1136 0.931 . S
C1124 C1123 1.291 . S
C1124 C1125 1.373 . S
C1124 H1137 0.929 . S
C1125 C1124 1.373 . S
C1125 C1126 1.396 . S
C1125 C1132 1.403 . S
C1126 C1116 1.476 . S
C1126 N1121 1.318 . S
C1126 C1125 1.396 . S
H1127 C1122 0.929 . S
O1128 Mn1104 2.385 . S
O1128 C1106 1.234 . S
O1129 Mn1104 2.209 . S
O1129 Mn1105 2.215 . S
O1129 C1106 1.283 . S
O1130 Mn1104 2.094 . S
O1130 C1108 1.240 . S
O1131 Mn1105 2.117 . S
O1131 C1108 1.264 . S
C1132 C1125 1.403 . S
C1132 C1133 1.399 . S
C1132 H1138 0.929 . S
C1133 C1113 1.449 . S
C1133 C1132 1.399 . S
C1133 H1139 0.930 . S
H1134 C1114 0.931 . S
H1135 C1115 0.930 . S
H1136 C1123 0.931 . S
H1137 C1124 0.929 . S
H1138 C1132 0.929 . S
H1139 C1133 0.930 . S
Mn1140 O1145 2.095 . S
Mn1140 O1155 2.162 . S
Mn1140 O1156 2.297 . S
Mn1140 O1164 2.385 . S
Mn1140 O1165 2.209 . S
Mn1140 O1166 2.094 . S
Mn1141 O1146 2.121 . S
Mn1141 N1148 2.257 . S
Mn1141 N1157 2.282 . S
Mn1141 O1165 2.215 . S
Mn1141 O1167 2.117 . S
C1142 O1164 1.234 . S
C1142 O1165 1.283 . S
C1143 O1155 1.281 . S
C1143 O1156 1.236 . S
C1144 O1166 1.240 . S
C1144 O1167 1.264 . S
O1145 Mn1140 2.095 . S
O1145 C1154 1.250 . S
O1146 Mn1141 2.121 . S
O1146 C1154 1.258 . S
C1147 N1148 1.326 . S
C1147 C1151 1.460 . S
C1147 H1153 0.929 . S
N1148 Mn1141 2.257 . S
N1148 C1147 1.326 . S
N1148 C1152 1.362 . S
C1149 C1150 1.258 . S
C1149 C1152 1.431 . S
C1149 C1169 1.449 . S
C1150 C1149 1.258 . S
C1150 C1151 1.477 . S
C1150 H1170 0.931 . S
C1151 C1147 1.460 . S
C1151 C1150 1.477 . S
C1151 H1171 0.930 . S
C1152 N1148 1.362 . S
C1152 C1149 1.431 . S
C1152 C1162 1.476 . S
H1153 C1147 0.929 . S
C1154 O1145 1.250 . S
C1154 O1146 1.258 . S
O1155 Mn1140 2.162 . S
O1155 C1143 1.281 . S
O1156 Mn1140 2.297 . S
O1156 C1143 1.236 . S
N1157 Mn1141 2.282 . S
N1157 C1158 1.328 . S
N1157 C1162 1.318 . S
C1158 N1157 1.328 . S
C1158 C1159 1.457 . S
C1158 H1163 0.929 . S
C1159 C1158 1.457 . S
C1159 C1160 1.291 . S
C1159 H1172 0.931 . S
C1160 C1159 1.291 . S
C1160 C1161 1.373 . S
C1160 H1173 0.929 . S
C1161 C1160 1.373 . S
C1161 C1162 1.396 . S
C1161 C1168 1.403 . S
C1162 C1152 1.476 . S
C1162 N1157 1.318 . S
C1162 C1161 1.396 . S
H1163 C1158 0.929 . S
O1164 Mn1140 2.385 . S
O1164 C1142 1.234 . S
O1165 Mn1140 2.209 . S
O1165 Mn1141 2.215 . S
O1165 C1142 1.283 . S
O1166 Mn1140 2.094 . S
O1166 C1144 1.240 . S
O1167 Mn1141 2.117 . S
O1167 C1144 1.264 . S
C1168 C1161 1.403 . S
C1168 C1169 1.399 . S
C1168 H1174 0.929 . S
C1169 C1149 1.449 . S
C1169 C1168 1.399 . S
C1169 H1175 0.930 . S
H1170 C1150 0.931 . S
H1171 C1151 0.930 . S
H1172 C1159 0.931 . S
H1173 C1160 0.929 . S
H1174 C1168 0.929 . S
H1175 C1169 0.930 . S
Mn1176 O1181 2.095 . S
Mn1176 O1191 2.162 . S
Mn1176 O1192 2.297 . S
Mn1176 O1200 2.385 . S
Mn1176 O1201 2.209 . S
Mn1176 O1202 2.094 . S
Mn1177 O1182 2.121 . S
Mn1177 N1184 2.257 . S
Mn1177 N1193 2.282 . S
Mn1177 O1201 2.215 . S
Mn1177 O1203 2.117 . S
C1178 O1200 1.234 . S
C1178 O1201 1.283 . S
C1179 O1191 1.281 . S
C1179 O1192 1.236 . S
C1180 O1202 1.240 . S
C1180 O1203 1.264 . S
O1181 Mn1176 2.095 . S
O1181 C1190 1.250 . S
O1182 Mn1177 2.121 . S
O1182 C1190 1.258 . S
C1183 N1184 1.326 . S
C1183 C1187 1.460 . S
C1183 H1189 0.929 . S
N1184 Mn1177 2.257 . S
N1184 C1183 1.326 . S
N1184 C1188 1.362 . S
C1185 C1186 1.258 . S
C1185 C1188 1.431 . S
C1185 C1205 1.449 . S
C1186 C1185 1.258 . S
C1186 C1187 1.477 . S
C1186 H1206 0.931 . S
C1187 C1183 1.460 . S
C1187 C1186 1.477 . S
C1187 H1207 0.930 . S
C1188 N1184 1.362 . S
C1188 C1185 1.431 . S
C1188 C1198 1.476 . S
H1189 C1183 0.929 . S
C1190 O1181 1.250 . S
C1190 O1182 1.258 . S
O1191 Mn1176 2.162 . S
O1191 C1179 1.281 . S
O1192 Mn1176 2.297 . S
O1192 C1179 1.236 . S
N1193 Mn1177 2.282 . S
N1193 C1194 1.328 . S
N1193 C1198 1.318 . S
C1194 N1193 1.328 . S
C1194 C1195 1.457 . S
C1194 H1199 0.929 . S
C1195 C1194 1.457 . S
C1195 C1196 1.291 . S
C1195 H1208 0.931 . S
C1196 C1195 1.291 . S
C1196 C1197 1.373 . S
C1196 H1209 0.929 . S
C1197 C1196 1.373 . S
C1197 C1198 1.396 . S
C1197 C1204 1.403 . S
C1198 C1188 1.476 . S
C1198 N1193 1.318 . S
C1198 C1197 1.396 . S
H1199 C1194 0.929 . S
O1200 Mn1176 2.385 . S
O1200 C1178 1.234 . S
O1201 Mn1176 2.209 . S
O1201 Mn1177 2.215 . S
O1201 C1178 1.283 . S
O1202 Mn1176 2.094 . S
O1202 C1180 1.240 . S
O1203 Mn1177 2.117 . S
O1203 C1180 1.264 . S
C1204 C1197 1.403 . S
C1204 C1205 1.399 . S
C1204 H1210 0.929 . S
C1205 C1185 1.449 . S
C1205 C1204 1.399 . S
C1205 H1211 0.930 . S
H1206 C1186 0.931 . S
H1207 C1187 0.930 . S
H1208 C1195 0.931 . S
H1209 C1196 0.929 . S
H1210 C1204 0.929 . S
H1211 C1205 0.930 . S
Mn1212 O1217 2.095 . S
Mn1212 O1227 2.162 . S
Mn1212 O1228 2.297 . S
Mn1212 O1236 2.385 1_565 S
Mn1212 O1237 2.209 1_565 S
Mn1212 O1238 2.094 . S
Mn1213 O1218 2.121 . S
Mn1213 N1220 2.257 . S
Mn1213 N1229 2.282 . S
Mn1213 O1237 2.215 . S
Mn1213 O1239 2.117 . S
C1214 O1236 1.234 . S
C1214 O1237 1.283 . S
C1215 O1227 1.281 . S
C1215 O1228 1.236 . S
C1216 O1238 1.218 1_545 S
C1216 O1239 1.292 . S
O1217 Mn1212 2.095 . S
O1217 C1226 1.250 1_565 S
O1218 Mn1213 2.121 . S
O1218 C1226 1.258 . S
C1219 N1220 1.326 . S
C1219 C1223 1.460 . S
C1219 H1225 0.929 . S
N1220 Mn1213 2.257 . S
N1220 C1219 1.326 . S
N1220 C1224 1.362 . S
C1221 C1222 1.258 . S
C1221 C1224 1.431 . S
C1221 C1241 1.449 . S
C1222 C1221 1.258 . S
C1222 C1223 1.477 . S
C1222 H1242 0.931 . S
C1223 C1219 1.460 . S
C1223 C1222 1.477 . S
C1223 H1243 0.930 . S
C1224 N1220 1.362 . S
C1224 C1221 1.431 . S
C1224 C1234 1.476 . S
H1225 C1219 0.929 . S
C1226 O1217 1.250 1_545 S
C1226 O1218 1.258 . S
O1227 Mn1212 2.162 . S
O1227 C1215 1.281 . S
O1228 Mn1212 2.297 . S
O1228 C1215 1.236 . S
N1229 Mn1213 2.282 . S
N1229 C1230 1.328 . S
N1229 C1234 1.318 . S
C1230 N1229 1.328 . S
C1230 C1231 1.457 . S
C1230 H1235 0.929 . S
C1231 C1230 1.457 . S
C1231 C1232 1.291 . S
C1231 H1244 0.931 . S
C1232 C1231 1.291 . S
C1232 C1233 1.373 . S
C1232 H1245 0.929 . S
C1233 C1232 1.373 . S
C1233 C1234 1.396 . S
C1233 C1240 1.403 . S
C1234 C1224 1.476 . S
C1234 N1229 1.318 . S
C1234 C1233 1.396 . S
H1235 C1230 0.929 . S
O1236 Mn1212 2.385 1_545 S
O1236 C1214 1.234 . S
O1237 Mn1212 2.209 1_545 S
O1237 Mn1213 2.215 . S
O1237 C1214 1.283 . S
O1238 Mn1212 2.094 . S
O1238 C1216 1.218 1_565 S
O1239 Mn1213 2.117 . S
O1239 C1216 1.292 . S
C1240 C1233 1.403 . S
C1240 C1241 1.399 . S
C1240 H1246 0.929 . S
C1241 C1221 1.449 . S
C1241 C1240 1.399 . S
C1241 H1247 0.930 . S
H1242 C1222 0.931 . S
H1243 C1223 0.930 . S
H1244 C1231 0.931 . S
H1245 C1232 0.929 . S
H1246 C1240 0.929 . S
H1247 C1241 0.930 . S
Mn1248 O1253 2.095 . S
Mn1248 O1263 2.162 . S
Mn1248 O1264 2.297 . S
Mn1248 O1272 2.385 1_455 S
Mn1248 O1273 2.209 1_455 S
Mn1248 O1274 2.094 . S
Mn1249 O1254 2.121 . S
Mn1249 N1256 2.257 . S
Mn1249 N1265 2.282 . S
Mn1249 O1273 2.215 . S
Mn1249 O1275 2.117 . S
C1250 O1272 1.234 . S
C1250 O1273 1.283 . S
C1251 O1263 1.281 . S
C1251 O1264 1.236 . S
C1252 O1274 1.240 . S
C1252 O1275 1.264 1_455 S
O1253 Mn1248 2.095 . S
O1253 C1262 1.250 1_455 S
O1254 Mn1249 2.121 . S
O1254 C1262 1.258 . S
C1255 N1256 1.326 . S
C1255 C1259 1.460 . S
C1255 H1261 0.929 . S
N1256 Mn1249 2.257 . S
N1256 C1255 1.326 . S
N1256 C1260 1.362 . S
C1257 C1258 1.258 . S
C1257 C1260 1.431 . S
C1257 C1277 1.449 . S
C1258 C1257 1.258 . S
C1258 C1259 1.477 . S
C1258 H1278 0.931 . S
C1259 C1255 1.460 . S
C1259 C1258 1.477 . S
C1259 H1279 0.930 . S
C1260 N1256 1.362 . S
C1260 C1257 1.431 . S
C1260 C1270 1.476 . S
H1261 C1255 0.929 . S
C1262 O1253 1.250 1_655 S
C1262 O1254 1.258 . S
O1263 Mn1248 2.162 . S
O1263 C1251 1.281 . S
O1264 Mn1248 2.297 . S
O1264 C1251 1.236 . S
N1265 Mn1249 2.282 . S
N1265 C1266 1.328 . S
N1265 C1270 1.318 . S
C1266 N1265 1.328 . S
C1266 C1267 1.457 . S
C1266 H1271 0.929 . S
C1267 C1266 1.457 . S
C1267 C1268 1.291 . S
C1267 H1280 0.931 . S
C1268 C1267 1.291 . S
C1268 C1269 1.373 . S
C1268 H1281 0.929 . S
C1269 C1268 1.373 . S
C1269 C1270 1.396 . S
C1269 C1276 1.403 . S
C1270 C1260 1.476 . S
C1270 N1265 1.318 . S
C1270 C1269 1.396 . S
H1271 C1266 0.929 . S
O1272 Mn1248 2.385 1_655 S
O1272 C1250 1.234 . S
O1273 Mn1248 2.209 1_655 S
O1273 Mn1249 2.215 . S
O1273 C1250 1.283 . S
O1274 Mn1248 2.094 . S
O1274 C1252 1.240 . S
O1275 Mn1249 2.117 . S
O1275 C1252 1.264 1_655 S
C1276 C1269 1.403 . S
C1276 C1277 1.399 . S
C1276 H1282 0.929 . S
C1277 C1257 1.449 . S
C1277 C1276 1.399 . S
C1277 H1283 0.930 . S
H1278 C1258 0.931 . S
H1279 C1259 0.930 . S
H1280 C1267 0.931 . S
H1281 C1268 0.929 . S
H1282 C1276 0.929 . S
H1283 C1277 0.930 . S
Mn1284 O1289 2.095 . S
Mn1284 O1299 2.162 . S
Mn1284 O1300 2.297 . S
Mn1284 O1308 2.385 . S
Mn1284 O1309 2.209 . S
Mn1284 O1310 2.094 . S
Mn1285 O1290 2.121 . S
Mn1285 N1292 2.257 . S
Mn1285 N1301 2.282 . S
Mn1285 O1309 2.215 . S
Mn1285 O1311 2.117 . S
C1286 O1308 1.234 . S
C1286 O1309 1.283 . S
C1287 O1299 1.281 . S
C1287 O1300 1.236 . S
C1288 O1310 1.240 . S
C1288 O1311 1.264 . S
O1289 Mn1284 2.095 . S
O1289 C1298 1.250 . S
O1290 Mn1285 2.121 . S
O1290 C1298 1.258 . S
C1291 N1292 1.326 . S
C1291 C1295 1.460 . S
C1291 H1297 0.929 . S
N1292 Mn1285 2.257 . S
N1292 C1291 1.326 . S
N1292 C1296 1.362 . S
C1293 C1294 1.258 . S
C1293 C1296 1.431 . S
C1293 C1313 1.449 . S
C1294 C1293 1.258 . S
C1294 C1295 1.477 . S
C1294 H1314 0.931 . S
C1295 C1291 1.460 . S
C1295 C1294 1.477 . S
C1295 H1315 0.930 . S
C1296 N1292 1.362 . S
C1296 C1293 1.431 . S
C1296 C1306 1.476 . S
H1297 C1291 0.929 . S
C1298 O1289 1.250 . S
C1298 O1290 1.258 . S
O1299 Mn1284 2.162 . S
O1299 C1287 1.281 . S
O1300 Mn1284 2.297 . S
O1300 C1287 1.236 . S
N1301 Mn1285 2.282 . S
N1301 C1302 1.328 . S
N1301 C1306 1.318 . S
C1302 N1301 1.328 . S
C1302 C1303 1.457 . S
C1302 H1307 0.929 . S
C1303 C1302 1.457 . S
C1303 C1304 1.291 . S
C1303 H1316 0.931 . S
C1304 C1303 1.291 . S
C1304 C1305 1.373 . S
C1304 H1317 0.929 . S
C1305 C1304 1.373 . S
C1305 C1306 1.396 . S
C1305 C1312 1.403 . S
C1306 C1296 1.476 . S
C1306 N1301 1.318 . S
C1306 C1305 1.396 . S
H1307 C1302 0.929 . S
O1308 Mn1284 2.385 . S
O1308 C1286 1.234 . S
O1309 Mn1284 2.209 . S
O1309 Mn1285 2.215 . S
O1309 C1286 1.283 . S
O1310 Mn1284 2.094 . S
O1310 C1288 1.240 . S
O1311 Mn1285 2.117 . S
O1311 C1288 1.264 . S
C1312 C1305 1.403 . S
C1312 C1313 1.399 . S
C1312 H1318 0.929 . S
C1313 C1293 1.449 . S
C1313 C1312 1.399 . S
C1313 H1319 0.930 . S
H1314 C1294 0.931 . S
H1315 C1295 0.930 . S
H1316 C1303 0.931 . S
H1317 C1304 0.929 . S
H1318 C1312 0.929 . S
H1319 C1313 0.930 . S
Mn1320 O1325 2.095 1_455 S
Mn1320 O1335 2.162 . S
Mn1320 O1336 2.297 1_455 S
Mn1320 O1344 2.385 . S
Mn1320 O1345 2.209 1_455 S
Mn1320 O1346 2.094 . S
Mn1321 O1326 2.121 . S
Mn1321 N1328 2.257 . S
Mn1321 N1337 2.282 1_655 S
Mn1321 O1345 2.215 . S
Mn1321 O1347 2.117 1_655 S
C1322 O1344 1.234 . S
C1322 O1345 1.283 1_455 S
C1323 O1335 1.281 . S
C1323 O1336 1.236 1_455 S
C1324 O1346 1.240 . S
C1324 O1347 1.264 . S
O1325 Mn1320 2.095 1_655 S
O1325 C1334 1.250 . S
O1326 Mn1321 2.121 . S
O1326 C1334 1.258 . S
C1327 N1328 1.326 . S
C1327 C1331 1.460 . S
C1327 H1333 0.929 . S
N1328 Mn1321 2.257 . S
N1328 C1327 1.326 . S
N1328 C1332 1.362 . S
C1329 C1330 1.258 . S
C1329 C1332 1.431 . S
C1329 C1349 1.449 . S
C1330 C1329 1.258 . S
C1330 C1331 1.477 . S
C1330 H1350 0.931 . S
C1331 C1327 1.460 . S
C1331 C1330 1.477 . S
C1331 H1351 0.930 . S
C1332 N1328 1.362 . S
C1332 C1329 1.431 . S
C1332 C1342 1.476 . S
H1333 C1327 0.929 . S
C1334 O1325 1.250 . S
C1334 O1326 1.258 . S
O1335 Mn1320 2.162 . S
O1335 C1323 1.281 . S
O1336 Mn1320 2.297 1_655 S
O1336 C1323 1.236 1_655 S
N1337 Mn1321 2.282 1_455 S
N1337 C1338 1.328 . S
N1337 C1342 1.318 1_455 S
C1338 N1337 1.328 . S
C1338 C1339 1.457 . S
C1338 H1343 0.929 . S
C1339 C1338 1.457 . S
C1339 C1340 1.291 . S
C1339 H1352 0.931 . S
C1340 C1339 1.291 . S
C1340 C1341 1.373 1_455 S
C1340 H1353 0.929 . S
C1341 C1340 1.373 1_655 S
C1341 C1342 1.396 . S
C1341 C1348 1.403 . S
C1342 C1332 1.476 . S
C1342 N1337 1.318 1_655 S
C1342 C1341 1.396 . S
H1343 C1338 0.929 . S
O1344 Mn1320 2.385 . S
O1344 C1322 1.234 . S
O1345 Mn1320 2.209 1_655 S
O1345 Mn1321 2.215 . S
O1345 C1322 1.283 1_655 S
O1346 Mn1320 2.094 . S
O1346 C1324 1.240 . S
O1347 Mn1321 2.117 1_455 S
O1347 C1324 1.264 . S
C1348 C1341 1.403 . S
C1348 C1349 1.399 . S
C1348 H1354 0.929 . S
C1349 C1329 1.449 . S
C1349 C1348 1.399 . S
C1349 H1355 0.930 . S
H1350 C1330 0.931 . S
H1351 C1331 0.930 . S
H1352 C1339 0.931 . S
H1353 C1340 0.929 . S
H1354 C1348 0.929 . S
H1355 C1349 0.930 . S
Mn1356 O1361 2.095 . S
Mn1356 O1371 2.162 . S
Mn1356 O1372 2.297 . S
Mn1356 O1380 2.385 . S
Mn1356 O1381 2.209 . S
Mn1356 O1382 2.094 . S
Mn1357 O1362 2.121 . S
Mn1357 N1364 2.257 . S
Mn1357 N1373 2.282 . S
Mn1357 O1381 2.215 . S
Mn1357 O1383 2.117 . S
C1358 O1380 1.234 . S
C1358 O1381 1.283 . S
C1359 O1371 1.281 . S
C1359 O1372 1.236 . S
C1360 O1382 1.240 . S
C1360 O1383 1.264 . S
O1361 Mn1356 2.095 . S
O1361 C1370 1.250 . S
O1362 Mn1357 2.121 . S
O1362 C1370 1.258 . S
C1363 N1364 1.326 . S
C1363 C1367 1.460 . S
C1363 H1369 0.929 . S
N1364 Mn1357 2.257 . S
N1364 C1363 1.326 . S
N1364 C1368 1.362 . S
C1365 C1366 1.258 . S
C1365 C1368 1.431 . S
C1365 C1385 1.449 . S
C1366 C1365 1.258 . S
C1366 C1367 1.477 . S
C1366 H1386 0.931 . S
C1367 C1363 1.460 . S
C1367 C1366 1.477 . S
C1367 H1387 0.930 . S
C1368 N1364 1.362 . S
C1368 C1365 1.431 . S
C1368 C1378 1.476 . S
H1369 C1363 0.929 . S
C1370 O1361 1.250 . S
C1370 O1362 1.258 . S
O1371 Mn1356 2.162 . S
O1371 C1359 1.281 . S
O1372 Mn1356 2.297 . S
O1372 C1359 1.236 . S
N1373 Mn1357 2.282 . S
N1373 C1374 1.328 . S
N1373 C1378 1.318 . S
C1374 N1373 1.328 . S
C1374 C1375 1.457 . S
C1374 H1379 0.929 . S
C1375 C1374 1.457 . S
C1375 C1376 1.291 . S
C1375 H1388 0.931 . S
C1376 C1375 1.291 . S
C1376 C1377 1.373 . S
C1376 H1389 0.929 . S
C1377 C1376 1.373 . S
C1377 C1378 1.396 . S
C1377 C1384 1.403 . S
C1378 C1368 1.476 . S
C1378 N1373 1.318 . S
C1378 C1377 1.396 . S
H1379 C1374 0.929 . S
O1380 Mn1356 2.385 . S
O1380 C1358 1.234 . S
O1381 Mn1356 2.209 . S
O1381 Mn1357 2.215 . S
O1381 C1358 1.283 . S
O1382 Mn1356 2.094 . S
O1382 C1360 1.240 . S
O1383 Mn1357 2.117 . S
O1383 C1360 1.264 . S
C1384 C1377 1.403 . S
C1384 C1385 1.399 . S
C1384 H1390 0.929 . S
C1385 C1365 1.449 . S
C1385 C1384 1.399 . S
C1385 H1391 0.930 . S
H1386 C1366 0.931 . S
H1387 C1367 0.930 . S
H1388 C1375 0.931 . S
H1389 C1376 0.929 . S
H1390 C1384 0.929 . S
H1391 C1385 0.930 . S
H1392 C1400 0.950 . S
H1393 C1405 0.950 . S
H1394 C1402 0.950 . S
H1395 C1404 0.950 . S
H1396 C1406 0.950 . S
H1397 C1408 0.950 . S
H1398 C1410 0.950 . S
H1399 C1411 0.950 . S
C1400 H1392 0.950 . S
C1400 C1401 1.386 . S
C1400 C1402 1.391 . S
C1401 C1400 1.386 . S
C1401 C1405 1.393 . S
C1402 H1394 0.950 . S
C1402 C1400 1.391 . S
C1402 C1403 1.400 . S
C1403 C1402 1.400 . S
C1403 C1404 1.398 . S
C1403 C1409 1.491 . S
C1404 H1395 0.950 . S
C1404 C1403 1.398 . S
C1404 C1405 1.391 . S
C1405 H1393 0.950 . S
C1405 C1401 1.393 . S
C1405 C1404 1.391 . S
C1406 H1396 0.950 . S
C1406 C1407 1.386 . S
C1406 C1408 1.391 . S
C1407 C1406 1.386 . S
C1407 C1411 1.393 . S
C1408 H1397 0.950 . S
C1408 C1406 1.391 . S
C1408 C1409 1.400 . S
C1409 C1403 1.491 . S
C1409 C1408 1.400 . S
C1409 C1410 1.398 . S
C1410 H1398 0.950 . S
C1410 C1409 1.398 . S
C1410 C1411 1.391 . S
C1411 H1399 0.950 . S
C1411 C1407 1.393 . S
C1411 C1410 1.391 . S
H1412 C1420 0.950 . S
H1413 C1425 0.950 . S
H1414 C1422 0.950 . S
H1415 C1424 0.950 . S
H1416 C1426 0.950 . S
H1417 C1428 0.950 . S
H1418 C1430 0.950 . S
H1419 C1431 0.950 . S
C1420 H1412 0.950 . S
C1420 C1421 1.386 . S
C1420 C1422 1.391 . S
C1421 C1420 1.386 . S
C1421 C1425 1.393 . S
C1422 H1414 0.950 . S
C1422 C1420 1.391 . S
C1422 C1423 1.400 . S
C1423 C1422 1.400 . S
C1423 C1424 1.398 . S
C1423 C1429 1.491 . S
C1424 H1415 0.950 . S
C1424 C1423 1.398 . S
C1424 C1425 1.391 . S
C1425 H1413 0.950 . S
C1425 C1421 1.393 . S
C1425 C1424 1.391 . S
C1426 H1416 0.950 . S
C1426 C1427 1.386 . S
C1426 C1428 1.391 . S
C1427 C1426 1.386 . S
C1427 C1431 1.393 . S
C1428 H1417 0.950 . S
C1428 C1426 1.391 . S
C1428 C1429 1.400 . S
C1429 C1423 1.491 . S
C1429 C1428 1.400 . S
C1429 C1430 1.398 . S
C1430 H1418 0.950 . S
C1430 C1429 1.398 . S
C1430 C1431 1.391 . S
C1431 H1419 0.950 . S
C1431 C1427 1.393 . S
C1431 C1430 1.391 . S
H1432 C1440 0.950 . S
H1433 C1445 0.950 . S
H1434 C1442 0.950 . S
H1435 C1444 0.950 . S
H1436 C1446 0.950 . S
H1437 C1448 0.950 . S
H1438 C1450 0.950 . S
H1439 C1451 0.950 . S
C1440 H1432 0.950 . S
C1440 C1441 1.386 . S
C1440 C1442 1.391 . S
C1441 C1440 1.386 . S
C1441 C1445 1.393 . S
C1442 H1434 0.950 . S
C1442 C1440 1.391 . S
C1442 C1443 1.400 . S
C1443 C1442 1.400 . S
C1443 C1444 1.398 . S
C1443 C1449 1.491 . S
C1444 H1435 0.950 . S
C1444 C1443 1.398 . S
C1444 C1445 1.391 . S
C1445 H1433 0.950 . S
C1445 C1441 1.393 . S
C1445 C1444 1.391 . S
C1446 H1436 0.950 . S
C1446 C1447 1.386 . S
C1446 C1448 1.391 . S
C1447 C1446 1.386 . S
C1447 C1451 1.393 . S
C1448 H1437 0.950 . S
C1448 C1446 1.391 . S
C1448 C1449 1.400 . S
C1449 C1443 1.491 . S
C1449 C1448 1.400 . S
C1449 C1450 1.398 . S
C1450 H1438 0.950 . S
C1450 C1449 1.398 . S
C1450 C1451 1.391 . S
C1451 H1439 0.950 . S
C1451 C1447 1.393 . S
C1451 C1450 1.391 . S
H1452 C1460 0.950 . S
H1453 C1465 0.950 . S
H1454 C1462 0.950 . S
H1455 C1464 0.950 . S
H1456 C1466 0.950 . S
H1457 C1468 0.950 . S
H1458 C1470 0.950 . S
H1459 C1471 0.950 . S
C1460 H1452 0.950 . S
C1460 C1461 1.386 1_545 S
C1460 C1462 1.391 . S
C1461 C1460 1.386 1_565 S
C1461 C1465 1.393 . S
C1462 H1454 0.950 . S
C1462 C1460 1.391 . S
C1462 C1463 1.400 1_545 S
C1463 C1462 1.400 1_565 S
C1463 C1464 1.398 . S
C1463 C1469 1.491 . S
C1464 H1455 0.950 . S
C1464 C1463 1.398 . S
C1464 C1465 1.391 . S
C1465 H1453 0.950 . S
C1465 C1461 1.393 . S
C1465 C1464 1.391 . S
C1466 H1456 0.950 . S
C1466 C1467 1.386 1_565 S
C1466 C1468 1.391 . S
C1467 C1466 1.386 1_545 S
C1467 C1471 1.393 . S
C1468 H1457 0.950 . S
C1468 C1466 1.391 . S
C1468 C1469 1.400 . S
C1469 C1463 1.491 . S
C1469 C1468 1.400 . S
C1469 C1470 1.398 1_565 S
C1470 H1458 0.950 . S
C1470 C1469 1.398 1_545 S
C1470 C1471 1.391 . S
C1471 H1459 0.950 . S
C1471 C1467 1.393 . S
C1471 C1470 1.391 . S
H1472 C1480 0.950 . S
H1473 C1485 0.950 . S
H1474 C1482 0.950 . S
H1475 C1484 0.950 . S
H1476 C1486 0.950 . S
H1477 C1488 0.950 . S
H1478 C1490 0.950 . S
H1479 C1491 0.950 . S
C1480 H1472 0.950 . S
C1480 C1481 1.386 . S
C1480 C1482 1.391 . S
C1481 C1480 1.386 . S
C1481 C1485 1.393 . S
C1482 H1474 0.950 . S
C1482 C1480 1.391 . S
C1482 C1483 1.400 . S
C1483 C1482 1.400 . S
C1483 C1484 1.398 . S
C1483 C1489 1.491 . S
C1484 H1475 0.950 . S
C1484 C1483 1.398 . S
C1484 C1485 1.391 . S
C1485 H1473 0.950 . S
C1485 C1481 1.393 . S
C1485 C1484 1.391 . S
C1486 H1476 0.950 . S
C1486 C1487 1.386 . S
C1486 C1488 1.391 . S
C1487 C1486 1.386 . S
C1487 C1491 1.393 . S
C1488 H1477 0.950 . S
C1488 C1486 1.391 . S
C1488 C1489 1.400 . S
C1489 C1483 1.491 . S
C1489 C1488 1.400 . S
C1489 C1490 1.398 . S
C1490 H1478 0.950 . S
C1490 C1489 1.398 . S
C1490 C1491 1.391 . S
C1491 H1479 0.950 . S
C1491 C1487 1.393 . S
C1491 C1490 1.391 . S
H1492 C1500 0.950 . S
H1493 C1505 0.950 . S
H1494 C1502 0.950 . S
H1495 C1504 0.950 . S
H1496 C1506 0.950 . S
H1497 C1508 0.950 . S
H1498 C1510 0.950 . S
H1499 C1511 0.950 . S
C1500 H1492 0.950 . S
C1500 C1501 1.386 . S
C1500 C1502 1.391 . S
C1501 C1500 1.386 . S
C1501 C1505 1.393 . S
C1502 H1494 0.950 . S
C1502 C1500 1.391 . S
C1502 C1503 1.400 . S
C1503 C1502 1.400 . S
C1503 C1504 1.398 . S
C1503 C1509 1.491 . S
C1504 H1495 0.950 . S
C1504 C1503 1.398 . S
C1504 C1505 1.391 . S
C1505 H1493 0.950 . S
C1505 C1501 1.393 . S
C1505 C1504 1.391 . S
C1506 H1496 0.950 . S
C1506 C1507 1.386 . S
C1506 C1508 1.391 . S
C1507 C1506 1.386 . S
C1507 C1511 1.393 . S
C1508 H1497 0.950 . S
C1508 C1506 1.391 . S
C1508 C1509 1.400 . S
C1509 C1503 1.491 . S
C1509 C1508 1.400 . S
C1509 C1510 1.398 . S
C1510 H1498 0.950 . S
C1510 C1509 1.398 . S
C1510 C1511 1.391 . S
C1511 H1499 0.950 . S
C1511 C1507 1.393 . S
C1511 C1510 1.391 . S
H1512 C1520 0.950 . S
H1513 C1525 0.950 . S
H1514 C1522 0.950 . S
H1515 C1524 0.950 . S
H1516 C1526 0.950 . S
H1517 C1528 0.950 . S
H1518 C1530 0.950 . S
H1519 C1531 0.950 . S
C1520 H1512 0.950 . S
C1520 C1521 1.386 . S
C1520 C1522 1.391 . S
C1521 C1520 1.386 . S
C1521 C1525 1.393 . S
C1522 H1514 0.950 . S
C1522 C1520 1.391 . S
C1522 C1523 1.400 . S
C1523 C1522 1.400 . S
C1523 C1524 1.398 . S
C1523 C1529 1.491 . S
C1524 H1515 0.950 . S
C1524 C1523 1.398 . S
C1524 C1525 1.391 . S
C1525 H1513 0.950 . S
C1525 C1521 1.393 . S
C1525 C1524 1.391 . S
C1526 H1516 0.950 . S
C1526 C1527 1.386 . S
C1526 C1528 1.391 . S
C1527 C1526 1.386 . S
C1527 C1531 1.393 . S
C1528 H1517 0.950 . S
C1528 C1526 1.391 . S
C1528 C1529 1.400 . S
C1529 C1523 1.491 . S
C1529 C1528 1.400 . S
C1529 C1530 1.398 . S
C1530 H1518 0.950 . S
C1530 C1529 1.398 . S
C1530 C1531 1.391 . S
C1531 H1519 0.950 . S
C1531 C1527 1.393 . S
C1531 C1530 1.391 . S
H1532 C1540 0.950 . S
H1533 C1545 0.950 . S
H1534 C1542 0.950 . S
H1535 C1544 0.950 . S
H1536 C1546 0.950 . S
H1537 C1548 0.950 . S
H1538 C1550 0.950 . S
H1539 C1551 0.950 . S
C1540 H1532 0.950 . S
C1540 C1541 1.386 . S
C1540 C1542 1.391 . S
C1541 C1540 1.386 . S
C1541 C1545 1.393 . S
C1542 H1534 0.950 . S
C1542 C1540 1.391 . S
C1542 C1543 1.400 . S
C1543 C1542 1.400 . S
C1543 C1544 1.398 . S
C1543 C1549 1.491 . S
C1544 H1535 0.950 . S
C1544 C1543 1.398 . S
C1544 C1545 1.391 . S
C1545 H1533 0.950 . S
C1545 C1541 1.393 . S
C1545 C1544 1.391 . S
C1546 H1536 0.950 . S
C1546 C1547 1.386 . S
C1546 C1548 1.391 . S
C1547 C1546 1.386 . S
C1547 C1551 1.393 . S
C1548 H1537 0.950 . S
C1548 C1546 1.391 . S
C1548 C1549 1.400 . S
C1549 C1543 1.491 . S
C1549 C1548 1.400 . S
C1549 C1550 1.398 . S
C1550 H1538 0.950 . S
C1550 C1549 1.398 . S
C1550 C1551 1.391 . S
C1551 H1539 0.950 . S
C1551 C1547 1.393 . S
C1551 C1550 1.391 . S
H1552 C1560 0.950 . S
H1553 C1565 0.950 . S
H1554 C1562 0.950 . S
H1555 C1564 0.950 . S
H1556 C1566 0.950 . S
H1557 C1568 0.950 . S
H1558 C1570 0.950 . S
H1559 C1571 0.950 . S
C1560 H1552 0.950 . S
C1560 C1561 1.386 . S
C1560 C1562 1.391 . S
C1561 C1560 1.386 . S
C1561 C1565 1.393 . S
C1562 H1554 0.950 . S
C1562 C1560 1.391 . S
C1562 C1563 1.400 . S
C1563 C1562 1.400 . S
C1563 C1564 1.398 . S
C1563 C1569 1.491 . S
C1564 H1555 0.950 . S
C1564 C1563 1.398 . S
C1564 C1565 1.391 . S
C1565 H1553 0.950 . S
C1565 C1561 1.393 . S
C1565 C1564 1.391 . S
C1566 H1556 0.950 . S
C1566 C1567 1.386 . S
C1566 C1568 1.391 . S
C1567 C1566 1.386 . S
C1567 C1571 1.393 . S
C1568 H1557 0.950 . S
C1568 C1566 1.391 . S
C1568 C1569 1.400 . S
C1569 C1563 1.491 . S
C1569 C1568 1.400 . S
C1569 C1570 1.398 . S
C1570 H1558 0.950 . S
C1570 C1569 1.398 . S
C1570 C1571 1.391 . S
C1571 H1559 0.950 . S
C1571 C1567 1.393 . S
C1571 C1570 1.391 . S
H1572 C1580 0.950 . S
H1573 C1585 0.950 . S
H1574 C1582 0.950 . S
H1575 C1584 0.950 . S
H1576 C1586 0.950 . S
H1577 C1588 0.950 . S
H1578 C1590 0.950 . S
H1579 C1591 0.950 . S
C1580 H1572 0.950 . S
C1580 C1581 1.386 . S
C1580 C1582 1.391 . S
C1581 C1580 1.386 . S
C1581 C1585 1.393 . S
C1582 H1574 0.950 . S
C1582 C1580 1.391 . S
C1582 C1583 1.400 . S
C1583 C1582 1.400 . S
C1583 C1584 1.398 . S
C1583 C1589 1.491 . S
C1584 H1575 0.950 . S
C1584 C1583 1.398 . S
C1584 C1585 1.391 . S
C1585 H1573 0.950 . S
C1585 C1581 1.393 . S
C1585 C1584 1.391 . S
C1586 H1576 0.950 . S
C1586 C1587 1.386 . S
C1586 C1588 1.391 . S
C1587 C1586 1.386 . S
C1587 C1591 1.393 . S
C1588 H1577 0.950 . S
C1588 C1586 1.391 . S
C1588 C1589 1.400 . S
C1589 C1583 1.491 . S
C1589 C1588 1.400 . S
C1589 C1590 1.398 . S
C1590 H1578 0.950 . S
C1590 C1589 1.398 . S
C1590 C1591 1.391 . S
C1591 H1579 0.950 . S
C1591 C1587 1.393 . S
C1591 C1590 1.391 . S
H1592 C1600 0.950 . S
H1593 C1605 0.950 . S
H1594 C1602 0.950 . S
H1595 C1604 0.950 . S
H1596 C1606 0.950 . S
H1597 C1608 0.950 . S
H1598 C1610 0.950 . S
H1599 C1611 0.950 . S
C1600 H1592 0.950 . S
C1600 C1601 1.386 . S
C1600 C1602 1.391 . S
C1601 C1600 1.386 . S
C1601 C1605 1.393 . S
C1602 H1594 0.950 . S
C1602 C1600 1.391 . S
C1602 C1603 1.400 . S
C1603 C1602 1.400 . S
C1603 C1604 1.398 . S
C1603 C1609 1.491 . S
C1604 H1595 0.950 . S
C1604 C1603 1.398 . S
C1604 C1605 1.391 . S
C1605 H1593 0.950 . S
C1605 C1601 1.393 . S
C1605 C1604 1.391 . S
C1606 H1596 0.950 . S
C1606 C1607 1.386 . S
C1606 C1608 1.391 . S
C1607 C1606 1.386 . S
C1607 C1611 1.393 . S
C1608 H1597 0.950 . S
C1608 C1606 1.391 . S
C1608 C1609 1.400 . S
C1609 C1603 1.491 . S
C1609 C1608 1.400 . S
C1609 C1610 1.398 . S
C1610 H1598 0.950 . S
C1610 C1609 1.398 . S
C1610 C1611 1.391 . S
C1611 H1599 0.950 . S
C1611 C1607 1.393 . S
C1611 C1610 1.391 . S
H1612 C1620 0.950 . S
H1613 C1625 0.950 . S
H1614 C1622 0.950 . S
H1615 C1624 0.950 . S
H1616 C1626 0.950 . S
H1617 C1628 0.950 . S
H1618 C1630 0.950 . S
H1619 C1631 0.950 . S
C1620 H1612 0.950 . S
C1620 C1621 1.386 . S
C1620 C1622 1.391 . S
C1621 C1620 1.386 . S
C1621 C1625 1.393 . S
C1622 H1614 0.950 . S
C1622 C1620 1.391 . S
C1622 C1623 1.400 . S
C1623 C1622 1.400 . S
C1623 C1624 1.398 . S
C1623 C1629 1.491 . S
C1624 H1615 0.950 . S
C1624 C1623 1.398 . S
C1624 C1625 1.391 . S
C1625 H1613 0.950 . S
C1625 C1621 1.393 . S
C1625 C1624 1.391 . S
C1626 H1616 0.950 . S
C1626 C1627 1.386 . S
C1626 C1628 1.391 . S
C1627 C1626 1.386 . S
C1627 C1631 1.393 . S
C1628 H1617 0.950 . S
C1628 C1626 1.391 . S
C1628 C1629 1.400 . S
C1629 C1623 1.491 . S
C1629 C1628 1.400 . S
C1629 C1630 1.398 . S
C1630 H1618 0.950 . S
C1630 C1629 1.398 . S
C1630 C1631 1.391 . S
C1631 H1619 0.950 . S
C1631 C1627 1.393 . S
C1631 C1630 1.391 . S
H1632 C1640 0.950 . S
H1633 C1645 0.950 . S
H1634 C1642 0.950 . S
H1635 C1644 0.950 . S
H1636 C1646 0.950 . S
H1637 C1648 0.950 . S
H1638 C1650 0.950 . S
H1639 C1651 0.950 . S
C1640 H1632 0.950 . S
C1640 C1641 1.386 . S
C1640 C1642 1.391 . S
C1641 C1640 1.386 . S
C1641 C1645 1.393 . S
C1642 H1634 0.950 . S
C1642 C1640 1.391 . S
C1642 C1643 1.400 . S
C1643 C1642 1.400 . S
C1643 C1644 1.398 . S
C1643 C1649 1.491 . S
C1644 H1635 0.950 . S
C1644 C1643 1.398 . S
C1644 C1645 1.391 . S
C1645 H1633 0.950 . S
C1645 C1641 1.393 . S
C1645 C1644 1.391 . S
C1646 H1636 0.950 . S
C1646 C1647 1.386 . S
C1646 C1648 1.391 . S
C1647 C1646 1.386 . S
C1647 C1651 1.393 . S
C1648 H1637 0.950 . S
C1648 C1646 1.391 . S
C1648 C1649 1.400 . S
C1649 C1643 1.491 . S
C1649 C1648 1.400 . S
C1649 C1650 1.398 . S
C1650 H1638 0.950 . S
C1650 C1649 1.398 . S
C1650 C1651 1.391 . S
C1651 H1639 0.950 . S
C1651 C1647 1.393 . S
C1651 C1650 1.391 . S
H1652 C1660 0.950 . S
H1653 C1665 0.949 1_655 S
H1654 C1662 0.950 . S
H1655 C1664 0.950 1_655 S
H1656 C1666 0.970 . S
H1657 C1668 0.950 1_655 S
H1658 C1670 0.950 . S
H1659 C1671 0.950 . S
C1660 H1652 0.950 . S
C1660 C1661 1.386 . S
C1660 C1662 1.391 . S
C1661 C1660 1.386 . S
C1661 C1665 1.393 . S
C1662 H1654 0.950 . S
C1662 C1660 1.391 . S
C1662 C1663 1.400 . S
C1663 C1662 1.400 . S
C1663 C1664 1.398 . S
C1663 C1669 1.491 . S
C1664 H1655 0.950 1_455 S
C1664 C1663 1.398 . S
C1664 C1665 1.391 . S
C1665 H1653 0.949 1_455 S
C1665 C1661 1.393 . S
C1665 C1664 1.391 . S
C1666 H1656 0.970 . S
C1666 C1667 1.368 1_655 S
C1666 C1668 1.389 1_655 S
C1667 C1666 1.368 1_455 S
C1667 C1671 1.393 . S
C1668 H1657 0.950 1_455 S
C1668 C1666 1.389 1_455 S
C1668 C1669 1.400 . S
C1669 C1663 1.491 . S
C1669 C1668 1.400 . S
C1669 C1670 1.398 . S
C1670 H1658 0.950 . S
C1670 C1669 1.398 . S
C1670 C1671 1.391 . S
C1671 H1659 0.950 . S
C1671 C1667 1.393 . S
C1671 C1670 1.391 . S
H1672 C1680 0.950 . S
H1673 C1685 0.950 . S
H1674 C1682 0.950 . S
H1675 C1684 0.950 . S
H1676 C1686 0.950 . S
H1677 C1688 0.950 . S
H1678 C1690 0.950 . S
H1679 C1691 0.950 . S
C1680 H1672 0.950 . S
C1680 C1681 1.386 . S
C1680 C1682 1.391 . S
C1681 C1680 1.386 . S
C1681 C1685 1.393 . S
C1682 H1674 0.950 . S
C1682 C1680 1.391 . S
C1682 C1683 1.400 . S
C1683 C1682 1.400 . S
C1683 C1684 1.398 . S
C1683 C1689 1.491 . S
C1684 H1675 0.950 . S
C1684 C1683 1.398 . S
C1684 C1685 1.391 . S
C1685 H1673 0.950 . S
C1685 C1681 1.393 . S
C1685 C1684 1.391 . S
C1686 H1676 0.950 . S
C1686 C1687 1.386 . S
C1686 C1688 1.391 . S
C1687 C1686 1.386 . S
C1687 C1691 1.393 . S
C1688 H1677 0.950 . S
C1688 C1686 1.391 . S
C1688 C1689 1.400 . S
C1689 C1683 1.491 . S
C1689 C1688 1.400 . S
C1689 C1690 1.398 . S
C1690 H1678 0.950 . S
C1690 C1689 1.398 . S
C1690 C1691 1.391 . S
C1691 H1679 0.950 . S
C1691 C1687 1.393 . S
C1691 C1690 1.391 . S
H1692 C1700 0.952 1_455 S
H1693 C1705 0.950 . S
H1694 C1702 0.950 . S
H1695 C1704 0.950 . S
H1696 C1706 0.950 . S
H1697 C1708 0.950 . S
H1698 C1710 0.950 . S
H1699 C1711 0.950 . S
C1700 H1692 0.952 1_655 S
C1700 C1701 1.383 . S
C1700 C1702 1.392 1_655 S
C1701 C1700 1.383 . S
C1701 C1705 1.393 . S
C1702 H1694 0.950 . S
C1702 C1700 1.392 1_455 S
C1702 C1703 1.400 1_455 S
C1703 C1702 1.400 1_655 S
C1703 C1704 1.398 . S
C1703 C1709 1.491 . S
C1704 H1695 0.950 . S
C1704 C1703 1.398 . S
C1704 C1705 1.391 . S
C1705 H1693 0.950 . S
C1705 C1701 1.393 . S
C1705 C1704 1.391 . S
C1706 H1696 0.950 . S
C1706 C1707 1.392 . S
C1706 C1708 1.391 . S
C1707 C1706 1.392 . S
C1707 C1711 1.387 1_655 S
C1708 H1697 0.950 . S
C1708 C1706 1.391 . S
C1708 C1709 1.400 . S
C1709 C1703 1.491 . S
C1709 C1708 1.400 . S
C1709 C1710 1.398 1_655 S
C1710 H1698 0.950 . S
C1710 C1709 1.398 1_455 S
C1710 C1711 1.391 . S
C1711 H1699 0.950 . S
C1711 C1707 1.387 1_455 S
C1711 C1710 1.391 . S
H1712 C1720 0.950 . S
H1713 C1725 0.950 . S
H1714 C1722 0.950 . S
H1715 C1724 0.950 . S
H1716 C1726 0.950 . S
H1717 C1728 0.950 . S
H1718 C1730 0.950 . S
H1719 C1731 0.950 . S
C1720 H1712 0.950 . S
C1720 C1721 1.386 . S
C1720 C1722 1.391 . S
C1721 C1720 1.386 . S
C1721 C1725 1.393 . S
C1722 H1714 0.950 . S
C1722 C1720 1.391 . S
C1722 C1723 1.400 . S
C1723 C1722 1.400 . S
C1723 C1724 1.398 . S
C1723 C1729 1.491 . S
C1724 H1715 0.950 . S
C1724 C1723 1.398 . S
C1724 C1725 1.391 . S
C1725 H1713 0.950 . S
C1725 C1721 1.393 . S
C1725 C1724 1.391 . S
C1726 H1716 0.950 . S
C1726 C1727 1.386 . S
C1726 C1728 1.391 . S
C1727 C1726 1.386 . S
C1727 C1731 1.393 . S
C1728 H1717 0.950 . S
C1728 C1726 1.391 . S
C1728 C1729 1.400 . S
C1729 C1723 1.491 . S
C1729 C1728 1.400 . S
C1729 C1730 1.398 . S
C1730 H1718 0.950 . S
C1730 C1729 1.398 . S
C1730 C1731 1.391 . S
C1731 H1719 0.950 . S
C1731 C1727 1.393 . S
C1731 C1730 1.391 . S
H1732 C1740 0.950 . S
H1733 C1745 0.950 . S
H1734 C1742 0.950 . S
H1735 C1744 0.950 . S
H1736 C1746 0.950 . S
H1737 C1748 0.950 . S
H1738 C1750 0.950 . S
H1739 C1751 0.950 . S
C1740 H1732 0.950 . S
C1740 C1741 1.386 . S
C1740 C1742 1.391 . S
C1741 C1740 1.386 . S
C1741 C1745 1.393 . S
C1742 H1734 0.950 . S
C1742 C1740 1.391 . S
C1742 C1743 1.400 . S
C1743 C1742 1.400 . S
C1743 C1744 1.398 . S
C1743 C1749 1.491 . S
C1744 H1735 0.950 . S
C1744 C1743 1.398 . S
C1744 C1745 1.391 . S
C1745 H1733 0.950 . S
C1745 C1741 1.393 . S
C1745 C1744 1.391 . S
C1746 H1736 0.950 . S
C1746 C1747 1.386 . S
C1746 C1748 1.391 . S
C1747 C1746 1.386 . S
C1747 C1751 1.393 . S
C1748 H1737 0.950 . S
C1748 C1746 1.391 . S
C1748 C1749 1.400 . S
C1749 C1743 1.491 . S
C1749 C1748 1.400 . S
C1749 C1750 1.398 . S
C1750 H1738 0.950 . S
C1750 C1749 1.398 . S
C1750 C1751 1.391 . S
C1751 H1739 0.950 . S
C1751 C1747 1.393 . S
C1751 C1750 1.391 . S
H1752 C1760 0.950 . S
H1753 C1765 0.956 . S
H1754 C1762 0.950 . S
H1755 C1764 0.950 . S
H1756 C1766 0.950 . S
H1757 C1768 0.950 . S
H1758 C1770 0.950 . S
H1759 C1771 0.950 . S
C1760 H1752 0.950 . S
C1760 C1761 1.386 . S
C1760 C1762 1.391 . S
C1761 C1760 1.386 . S
C1761 C1765 1.385 1_556 S
C1762 H1754 0.950 . S
C1762 C1760 1.391 . S
C1762 C1763 1.400 . S
C1763 C1762 1.400 . S
C1763 C1764 1.398 1_556 S
C1763 C1769 1.491 . S
C1764 H1755 0.950 . S
C1764 C1763 1.398 1_554 S
C1764 C1765 1.393 . S
C1765 H1753 0.956 . S
C1765 C1761 1.385 1_554 S
C1765 C1764 1.393 . S
C1766 H1756 0.950 . S
C1766 C1767 1.386 . S
C1766 C1768 1.391 . S
C1767 C1766 1.386 . S
C1767 C1771 1.393 1_554 S
C1768 H1757 0.950 . S
C1768 C1766 1.391 . S
C1768 C1769 1.400 1_554 S
C1769 C1763 1.491 . S
C1769 C1768 1.400 1_556 S
C1769 C1770 1.398 . S
C1770 H1758 0.950 . S
C1770 C1769 1.398 . S
C1770 C1771 1.391 . S
C1771 H1759 0.950 . S
C1771 C1767 1.393 1_556 S
C1771 C1770 1.391 . S
H1772 C1780 0.950 . S
H1773 C1785 0.950 . S
H1774 C1782 0.950 . S
H1775 C1784 0.950 . S
H1776 C1786 0.950 . S
H1777 C1788 0.950 . S
H1778 C1790 0.950 . S
H1779 C1791 0.950 . S
C1780 H1772 0.950 . S
C1780 C1781 1.386 . S
C1780 C1782 1.391 . S
C1781 C1780 1.386 . S
C1781 C1785 1.393 . S
C1782 H1774 0.950 . S
C1782 C1780 1.391 . S
C1782 C1783 1.400 . S
C1783 C1782 1.400 . S
C1783 C1784 1.398 . S
C1783 C1789 1.491 . S
C1784 H1775 0.950 . S
C1784 C1783 1.398 . S
C1784 C1785 1.391 . S
C1785 H1773 0.950 . S
C1785 C1781 1.393 . S
C1785 C1784 1.391 . S
C1786 H1776 0.950 . S
C1786 C1787 1.386 . S
C1786 C1788 1.391 . S
C1787 C1786 1.386 . S
C1787 C1791 1.393 . S
C1788 H1777 0.950 . S
C1788 C1786 1.391 . S
C1788 C1789 1.400 . S
C1789 C1783 1.491 . S
C1789 C1788 1.400 . S
C1789 C1790 1.398 . S
C1790 H1778 0.950 . S
C1790 C1789 1.398 . S
C1790 C1791 1.391 . S
C1791 H1779 0.950 . S
C1791 C1787 1.393 . S
C1791 C1790 1.391 . S
H1792 C1800 0.950 . S
H1793 C1805 0.950 . S
H1794 C1802 0.950 . S
H1795 C1804 0.950 . S
H1796 C1806 0.950 . S
H1797 C1808 0.950 . S
H1798 C1810 0.950 . S
H1799 C1811 0.950 . S
C1800 H1792 0.950 . S
C1800 C1801 1.386 . S
C1800 C1802 1.391 . S
C1801 C1800 1.386 . S
C1801 C1805 1.393 . S
C1802 H1794 0.950 . S
C1802 C1800 1.391 . S
C1802 C1803 1.400 . S
C1803 C1802 1.400 . S
C1803 C1804 1.398 . S
C1803 C1809 1.491 . S
C1804 H1795 0.950 . S
C1804 C1803 1.398 . S
C1804 C1805 1.391 . S
C1805 H1793 0.950 . S
C1805 C1801 1.393 . S
C1805 C1804 1.391 . S
C1806 H1796 0.950 . S
C1806 C1807 1.386 . S
C1806 C1808 1.391 . S
C1807 C1806 1.386 . S
C1807 C1811 1.393 . S
C1808 H1797 0.950 . S
C1808 C1806 1.391 . S
C1808 C1809 1.400 . S
C1809 C1803 1.491 . S
C1809 C1808 1.400 . S
C1809 C1810 1.398 . S
C1810 H1798 0.950 . S
C1810 C1809 1.398 . S
C1810 C1811 1.391 . S
C1811 H1799 0.950 . S
C1811 C1807 1.393 . S
C1811 C1810 1.391 . S
H1812 C1820 0.950 . S
H1813 C1825 0.950 . S
H1814 C1822 0.950 . S
H1815 C1824 0.950 . S
H1816 C1826 0.950 . S
H1817 C1828 0.950 . S
H1818 C1830 0.950 . S
H1819 C1831 0.950 . S
C1820 H1812 0.950 . S
C1820 C1821 1.386 . S
C1820 C1822 1.391 . S
C1821 C1820 1.386 . S
C1821 C1825 1.393 . S
C1822 H1814 0.950 . S
C1822 C1820 1.391 . S
C1822 C1823 1.400 . S
C1823 C1822 1.400 . S
C1823 C1824 1.398 . S
C1823 C1829 1.491 . S
C1824 H1815 0.950 . S
C1824 C1823 1.398 . S
C1824 C1825 1.391 . S
C1825 H1813 0.950 . S
C1825 C1821 1.393 . S
C1825 C1824 1.391 . S
C1826 H1816 0.950 . S
C1826 C1827 1.386 . S
C1826 C1828 1.391 . S
C1827 C1826 1.386 . S
C1827 C1831 1.393 . S
C1828 H1817 0.950 . S
C1828 C1826 1.391 . S
C1828 C1829 1.400 . S
C1829 C1823 1.491 . S
C1829 C1828 1.400 . S
C1829 C1830 1.398 . S
C1830 H1818 0.950 . S
C1830 C1829 1.398 . S
C1830 C1831 1.391 . S
C1831 H1819 0.950 . S
C1831 C1827 1.393 . S
C1831 C1830 1.391 . S
H1832 C1840 0.950 . S
H1833 C1845 0.950 . S
H1834 C1842 0.950 . S
H1835 C1844 0.950 . S
H1836 C1846 0.950 . S
H1837 C1848 0.950 . S
H1838 C1850 0.950 . S
H1839 C1851 0.950 . S
C1840 H1832 0.950 . S
C1840 C1841 1.386 . S
C1840 C1842 1.391 . S
C1841 C1840 1.386 . S
C1841 C1845 1.393 . S
C1842 H1834 0.950 . S
C1842 C1840 1.391 . S
C1842 C1843 1.400 . S
C1843 C1842 1.400 . S
C1843 C1844 1.398 . S
C1843 C1849 1.491 . S
C1844 H1835 0.950 . S
C1844 C1843 1.398 . S
C1844 C1845 1.391 . S
C1845 H1833 0.950 . S
C1845 C1841 1.393 . S
C1845 C1844 1.391 . S
C1846 H1836 0.950 . S
C1846 C1847 1.386 . S
C1846 C1848 1.391 . S
C1847 C1846 1.386 . S
C1847 C1851 1.393 . S
C1848 H1837 0.950 . S
C1848 C1846 1.391 . S
C1848 C1849 1.400 . S
C1849 C1843 1.491 . S
C1849 C1848 1.400 . S
C1849 C1850 1.398 . S
C1850 H1838 0.950 . S
C1850 C1849 1.398 . S
C1850 C1851 1.391 . S
C1851 H1839 0.950 . S
C1851 C1847 1.393 . S
C1851 C1850 1.391 . S
H1852 C1860 0.950 . S
H1853 C1865 0.950 . S
H1854 C1862 0.950 . S
H1855 C1864 0.950 . S
H1856 C1866 0.950 . S
H1857 C1868 0.950 . S
H1858 C1870 0.950 . S
H1859 C1871 0.950 . S
C1860 H1852 0.950 . S
C1860 C1861 1.386 . S
C1860 C1862 1.391 . S
C1861 C1860 1.386 . S
C1861 C1865 1.393 . S
C1862 H1854 0.950 . S
C1862 C1860 1.391 . S
C1862 C1863 1.400 . S
C1863 C1862 1.400 . S
C1863 C1864 1.398 . S
C1863 C1869 1.491 . S
C1864 H1855 0.950 . S
C1864 C1863 1.398 . S
C1864 C1865 1.391 . S
C1865 H1853 0.950 . S
C1865 C1861 1.393 . S
C1865 C1864 1.391 . S
C1866 H1856 0.950 . S
C1866 C1867 1.386 . S
C1866 C1868 1.391 . S
C1867 C1866 1.386 . S
C1867 C1871 1.393 . S
C1868 H1857 0.950 . S
C1868 C1866 1.391 . S
C1868 C1869 1.400 . S
C1869 C1863 1.491 . S
C1869 C1868 1.400 . S
C1869 C1870 1.398 . S
C1870 H1858 0.950 . S
C1870 C1869 1.398 . S
C1870 C1871 1.391 . S
C1871 H1859 0.950 . S
C1871 C1867 1.393 . S
C1871 C1870 1.391 . S
H1872 C1880 0.950 . S
H1873 C1885 0.950 . S
H1874 C1882 0.950 . S
H1875 C1884 0.950 . S
H1876 C1886 0.950 . S
H1877 C1888 0.950 . S
H1878 C1890 0.950 . S
H1879 C1891 0.950 . S
C1880 H1872 0.950 . S
C1880 C1881 1.386 . S
C1880 C1882 1.391 . S
C1881 C1880 1.386 . S
C1881 C1885 1.393 . S
C1882 H1874 0.950 . S
C1882 C1880 1.391 . S
C1882 C1883 1.400 . S
C1883 C1882 1.400 . S
C1883 C1884 1.398 . S
C1883 C1889 1.491 . S
C1884 H1875 0.950 . S
C1884 C1883 1.398 . S
C1884 C1885 1.391 . S
C1885 H1873 0.950 . S
C1885 C1881 1.393 . S
C1885 C1884 1.391 . S
C1886 H1876 0.950 . S
C1886 C1887 1.386 . S
C1886 C1888 1.391 . S
C1887 C1886 1.386 . S
C1887 C1891 1.393 . S
C1888 H1877 0.950 . S
C1888 C1886 1.391 . S
C1888 C1889 1.400 . S
C1889 C1883 1.491 . S
C1889 C1888 1.400 . S
C1889 C1890 1.398 . S
C1890 H1878 0.950 . S
C1890 C1889 1.398 . S
C1890 C1891 1.391 . S
C1891 H1879 0.950 . S
C1891 C1887 1.393 . S
C1891 C1890 1.391 . S
H1892 C1900 0.950 . S
H1893 C1905 0.950 . S
H1894 C1902 0.950 . S
H1895 C1904 0.950 . S
H1896 C1906 0.950 . S
H1897 C1908 0.950 . S
H1898 C1910 0.950 . S
H1899 C1911 0.950 . S
C1900 H1892 0.950 . S
C1900 C1901 1.386 . S
C1900 C1902 1.391 . S
C1901 C1900 1.386 . S
C1901 C1905 1.393 . S
C1902 H1894 0.950 . S
C1902 C1900 1.391 . S
C1902 C1903 1.400 . S
C1903 C1902 1.400 . S
C1903 C1904 1.398 . S
C1903 C1909 1.491 . S
C1904 H1895 0.950 . S
C1904 C1903 1.398 . S
C1904 C1905 1.391 . S
C1905 H1893 0.950 . S
C1905 C1901 1.393 . S
C1905 C1904 1.391 . S
C1906 H1896 0.950 . S
C1906 C1907 1.386 . S
C1906 C1908 1.391 . S
C1907 C1906 1.386 . S
C1907 C1911 1.393 . S
C1908 H1897 0.950 . S
C1908 C1906 1.391 . S
C1908 C1909 1.400 . S
C1909 C1903 1.491 . S
C1909 C1908 1.400 . S
C1909 C1910 1.398 . S
C1910 H1898 0.950 . S
C1910 C1909 1.398 . S
C1910 C1911 1.391 . S
C1911 H1899 0.950 . S
C1911 C1907 1.393 . S
C1911 C1910 1.391 . S
H1912 C1920 0.950 . S
H1913 C1925 0.950 . S
H1914 C1922 0.950 . S
H1915 C1924 0.950 . S
H1916 C1926 0.950 . S
H1917 C1928 0.950 . S
H1918 C1930 0.950 . S
H1919 C1931 0.950 . S
C1920 H1912 0.950 . S
C1920 C1921 1.386 . S
C1920 C1922 1.391 . S
C1921 C1920 1.386 . S
C1921 C1925 1.393 . S
C1922 H1914 0.950 . S
C1922 C1920 1.391 . S
C1922 C1923 1.400 . S
C1923 C1922 1.400 . S
C1923 C1924 1.398 . S
C1923 C1929 1.491 . S
C1924 H1915 0.950 . S
C1924 C1923 1.398 . S
C1924 C1925 1.391 . S
C1925 H1913 0.950 . S
C1925 C1921 1.393 . S
C1925 C1924 1.391 . S
C1926 H1916 0.950 . S
C1926 C1927 1.386 . S
C1926 C1928 1.391 . S
C1927 C1926 1.386 . S
C1927 C1931 1.393 . S
C1928 H1917 0.950 . S
C1928 C1926 1.391 . S
C1928 C1929 1.400 . S
C1929 C1923 1.491 . S
C1929 C1928 1.400 . S
C1929 C1930 1.398 . S
C1930 H1918 0.950 . S
C1930 C1929 1.398 . S
C1930 C1931 1.391 . S
C1931 H1919 0.950 . S
C1931 C1927 1.393 . S
C1931 C1930 1.391 . S
H1932 C1940 0.950 . S
H1933 C1945 0.950 . S
H1934 C1942 0.950 . S
H1935 C1944 0.950 . S
H1936 C1946 0.950 . S
H1937 C1948 0.950 . S
H1938 C1950 0.950 . S
H1939 C1951 0.950 . S
C1940 H1932 0.950 . S
C1940 C1941 1.386 . S
C1940 C1942 1.391 . S
C1941 C1940 1.386 . S
C1941 C1945 1.393 . S
C1942 H1934 0.950 . S
C1942 C1940 1.391 . S
C1942 C1943 1.400 . S
C1943 C1942 1.400 . S
C1943 C1944 1.398 . S
C1943 C1949 1.491 . S
C1944 H1935 0.950 . S
C1944 C1943 1.398 . S
C1944 C1945 1.391 . S
C1945 H1933 0.950 . S
C1945 C1941 1.393 . S
C1945 C1944 1.391 . S
C1946 H1936 0.950 . S
C1946 C1947 1.386 . S
C1946 C1948 1.391 . S
C1947 C1946 1.386 . S
C1947 C1951 1.393 . S
C1948 H1937 0.950 . S
C1948 C1946 1.391 . S
C1948 C1949 1.400 . S
C1949 C1943 1.491 . S
C1949 C1948 1.400 . S
C1949 C1950 1.398 . S
C1950 H1938 0.950 . S
C1950 C1949 1.398 . S
C1950 C1951 1.391 . S
C1951 H1939 0.950 . S
C1951 C1947 1.393 . S
C1951 C1950 1.391 . S
H1952 C1960 0.950 . S
H1953 C1965 0.950 . S
H1954 C1962 0.950 . S
H1955 C1964 0.950 . S
H1956 C1966 0.950 . S
H1957 C1968 0.950 . S
H1958 C1970 0.950 . S
H1959 C1971 0.950 . S
C1960 H1952 0.950 . S
C1960 C1961 1.386 . S
C1960 C1962 1.391 . S
C1961 C1960 1.386 . S
C1961 C1965 1.393 . S
C1962 H1954 0.950 . S
C1962 C1960 1.391 . S
C1962 C1963 1.400 . S
C1963 C1962 1.400 . S
C1963 C1964 1.398 . S
C1963 C1969 1.491 . S
C1964 H1955 0.950 . S
C1964 C1963 1.398 . S
C1964 C1965 1.391 . S
C1965 H1953 0.950 . S
C1965 C1961 1.393 . S
C1965 C1964 1.391 . S
C1966 H1956 0.950 . S
C1966 C1967 1.386 . S
C1966 C1968 1.391 . S
C1967 C1966 1.386 . S
C1967 C1971 1.393 . S
C1968 H1957 0.950 . S
C1968 C1966 1.391 . S
C1968 C1969 1.400 . S
C1969 C1963 1.491 . S
C1969 C1968 1.400 . S
C1969 C1970 1.398 . S
C1970 H1958 0.950 . S
C1970 C1969 1.398 . S
C1970 C1971 1.391 . S
C1971 H1959 0.950 . S
C1971 C1967 1.393 . S
C1971 C1970 1.391 . S
H1972 C1980 0.950 . S
H1973 C1985 0.950 . S
H1974 C1982 0.979 . S
H1975 C1984 0.950 . S
H1976 C1986 0.950 . S
H1977 C1988 0.950 . S
H1978 C1990 0.950 . S
H1979 C1991 0.950 1_565 S
C1980 H1972 0.950 . S
C1980 C1981 1.386 . S
C1980 C1982 1.391 . S
C1981 C1980 1.386 . S
C1981 C1985 1.393 . S
C1982 H1974 0.979 . S
C1982 C1980 1.391 . S
C1982 C1983 1.400 . S
C1983 C1982 1.400 . S
C1983 C1984 1.398 . S
C1983 C1989 1.491 . S
C1984 H1975 0.950 . S
C1984 C1983 1.398 . S
C1984 C1985 1.391 . S
C1985 H1973 0.950 . S
C1985 C1981 1.393 . S
C1985 C1984 1.391 . S
C1986 H1976 0.950 . S
C1986 C1987 1.386 . S
C1986 C1988 1.391 . S
C1987 C1986 1.386 . S
C1987 C1991 1.393 . S
C1988 H1977 0.950 . S
C1988 C1986 1.391 . S
C1988 C1989 1.400 . S
C1989 C1983 1.491 . S
C1989 C1988 1.400 . S
C1989 C1990 1.398 . S
C1990 H1978 0.950 . S
C1990 C1989 1.398 . S
C1990 C1991 1.391 . S
C1991 H1979 0.950 1_545 S
C1991 C1987 1.393 . S
C1991 C1990 1.391 . S
H1992 C2000 0.950 . S
H1993 C2005 0.950 . S
H1994 C2002 0.950 . S
H1995 C2004 0.950 . S
H1996 C2006 0.950 . S
H1997 C2008 0.950 . S
H1998 C2010 0.950 . S
H1999 C2011 0.950 . S
C2000 H1992 0.950 . S
C2000 C2001 1.386 . S
C2000 C2002 1.391 . S
C2001 C2000 1.386 . S
C2001 C2005 1.393 . S
C2002 H1994 0.950 . S
C2002 C2000 1.391 . S
C2002 C2003 1.400 . S
C2003 C2002 1.400 . S
C2003 C2004 1.398 . S
C2003 C2009 1.491 . S
C2004 H1995 0.950 . S
C2004 C2003 1.398 . S
C2004 C2005 1.391 . S
C2005 H1993 0.950 . S
C2005 C2001 1.393 . S
C2005 C2004 1.391 . S
C2006 H1996 0.950 . S
C2006 C2007 1.386 . S
C2006 C2008 1.391 . S
C2007 C2006 1.386 . S
C2007 C2011 1.393 . S
C2008 H1997 0.950 . S
C2008 C2006 1.391 . S
C2008 C2009 1.400 . S
C2009 C2003 1.491 . S
C2009 C2008 1.400 . S
C2009 C2010 1.398 . S
C2010 H1998 0.950 . S
C2010 C2009 1.398 . S
C2010 C2011 1.391 . S
C2011 H1999 0.950 . S
C2011 C2007 1.393 . S
C2011 C2010 1.391 . S
H2012 C2020 0.950 . S
H2013 C2025 0.950 . S
H2014 C2022 0.950 . S
H2015 C2024 0.950 . S
H2016 C2026 0.950 . S
H2017 C2028 0.950 . S
H2018 C2030 0.950 . S
H2019 C2031 0.950 . S
C2020 H2012 0.950 . S
C2020 C2021 1.386 . S
C2020 C2022 1.391 . S
C2021 C2020 1.386 . S
C2021 C2025 1.393 . S
C2022 H2014 0.950 . S
C2022 C2020 1.391 . S
C2022 C2023 1.400 . S
C2023 C2022 1.400 . S
C2023 C2024 1.398 . S
C2023 C2029 1.491 . S
C2024 H2015 0.950 . S
C2024 C2023 1.398 . S
C2024 C2025 1.391 . S
C2025 H2013 0.950 . S
C2025 C2021 1.393 . S
C2025 C2024 1.391 . S
C2026 H2016 0.950 . S
C2026 C2027 1.386 . S
C2026 C2028 1.391 . S
C2027 C2026 1.386 . S
C2027 C2031 1.393 . S
C2028 H2017 0.950 . S
C2028 C2026 1.391 . S
C2028 C2029 1.400 . S
C2029 C2023 1.491 . S
C2029 C2028 1.400 . S
C2029 C2030 1.398 . S
C2030 H2018 0.950 . S
C2030 C2029 1.398 . S
C2030 C2031 1.391 . S
C2031 H2019 0.950 . S
C2031 C2027 1.393 . S
C2031 C2030 1.391 . S
H2032 C2040 0.950 . S
H2033 C2045 0.950 . S
H2034 C2042 0.950 . S
H2035 C2044 0.950 . S
H2036 C2046 0.950 . S
H2037 C2048 0.950 . S
H2038 C2050 0.950 . S
H2039 C2051 0.950 . S
C2040 H2032 0.950 . S
C2040 C2041 1.386 . S
C2040 C2042 1.391 . S
C2041 C2040 1.386 . S
C2041 C2045 1.393 . S
C2042 H2034 0.950 . S
C2042 C2040 1.391 . S
C2042 C2043 1.400 . S
C2043 C2042 1.400 . S
C2043 C2044 1.398 . S
C2043 C2049 1.491 . S
C2044 H2035 0.950 . S
C2044 C2043 1.398 . S
C2044 C2045 1.391 . S
C2045 H2033 0.950 . S
C2045 C2041 1.393 . S
C2045 C2044 1.391 . S
C2046 H2036 0.950 . S
C2046 C2047 1.386 . S
C2046 C2048 1.391 . S
C2047 C2046 1.386 . S
C2047 C2051 1.393 . S
C2048 H2037 0.950 . S
C2048 C2046 1.391 . S
C2048 C2049 1.400 . S
C2049 C2043 1.491 . S
C2049 C2048 1.400 . S
C2049 C2050 1.398 . S
C2050 H2038 0.950 . S
C2050 C2049 1.398 . S
C2050 C2051 1.391 . S
C2051 H2039 0.950 . S
C2051 C2047 1.393 . S
C2051 C2050 1.391 . S
H2052 C2060 0.950 . S
H2053 C2065 0.950 . S
H2054 C2062 0.950 1_455 S
H2055 C2064 0.950 . S
H2056 C2066 0.950 . S
H2057 C2068 0.950 . S
H2058 C2070 0.950 . S
H2059 C2071 0.950 . S
C2060 H2052 0.950 . S
C2060 C2061 1.386 . S
C2060 C2062 1.391 . S
C2061 C2060 1.386 . S
C2061 C2065 1.393 . S
C2062 H2054 0.950 1_655 S
C2062 C2060 1.391 . S
C2062 C2063 1.400 . S
C2063 C2062 1.400 . S
C2063 C2064 1.398 . S
C2063 C2069 1.491 . S
C2064 H2055 0.950 . S
C2064 C2063 1.398 . S
C2064 C2065 1.391 . S
C2065 H2053 0.950 . S
C2065 C2061 1.393 . S
C2065 C2064 1.391 . S
C2066 H2056 0.950 . S
C2066 C2067 1.413 . S
C2066 C2068 1.391 . S
C2067 C2066 1.413 . S
C2067 C2071 1.375 1_655 S
C2068 H2057 0.950 . S
C2068 C2066 1.391 . S
C2068 C2069 1.400 . S
C2069 C2063 1.491 . S
C2069 C2068 1.400 . S
C2069 C2070 1.398 1_655 S
C2070 H2058 0.950 . S
C2070 C2069 1.398 1_455 S
C2070 C2071 1.391 . S
C2071 H2059 0.950 . S
C2071 C2067 1.375 1_455 S
C2071 C2070 1.391 . S
H2072 C2080 0.950 . S
H2073 C2085 0.950 . S
H2074 C2082 0.950 . S
H2075 C2084 0.950 . S
H2076 C2086 0.950 . S
H2077 C2088 0.950 . S
H2078 C2090 0.950 . S
H2079 C2091 0.950 . S
C2080 H2072 0.950 . S
C2080 C2081 1.386 . S
C2080 C2082 1.391 . S
C2081 C2080 1.386 . S
C2081 C2085 1.393 . S
C2082 H2074 0.950 . S
C2082 C2080 1.391 . S
C2082 C2083 1.400 . S
C2083 C2082 1.400 . S
C2083 C2084 1.398 . S
C2083 C2089 1.491 . S
C2084 H2075 0.950 . S
C2084 C2083 1.398 . S
C2084 C2085 1.391 . S
C2085 H2073 0.950 . S
C2085 C2081 1.393 . S
C2085 C2084 1.391 . S
C2086 H2076 0.950 . S
C2086 C2087 1.386 . S
C2086 C2088 1.391 . S
C2087 C2086 1.386 . S
C2087 C2091 1.393 . S
C2088 H2077 0.950 . S
C2088 C2086 1.391 . S
C2088 C2089 1.400 . S
C2089 C2083 1.491 . S
C2089 C2088 1.400 . S
C2089 C2090 1.398 . S
C2090 H2078 0.950 . S
C2090 C2089 1.398 . S
C2090 C2091 1.391 . S
C2091 H2079 0.950 . S
C2091 C2087 1.393 . S
C2091 C2090 1.391 . S
H2092 C2100 0.950 . S
H2093 C2105 0.950 . S
H2094 C2102 0.950 . S
H2095 C2104 0.950 1_655 S
H2096 C2106 0.946 . S
H2097 C2108 0.950 1_655 S
H2098 C2110 0.950 . S
H2099 C2111 0.950 . S
C2100 H2092 0.950 . S
C2100 C2101 1.386 . S
C2100 C2102 1.391 . S
C2101 C2100 1.386 . S
C2101 C2105 1.393 . S
C2102 H2094 0.950 . S
C2102 C2100 1.391 . S
C2102 C2103 1.400 . S
C2103 C2102 1.400 . S
C2103 C2104 1.398 . S
C2103 C2109 1.491 . S
C2104 H2095 0.950 1_455 S
C2104 C2103 1.398 . S
C2104 C2105 1.391 . S
C2105 H2093 0.950 . S
C2105 C2101 1.393 . S
C2105 C2104 1.391 . S
C2106 H2096 0.946 . S
C2106 C2107 1.388 1_655 S
C2106 C2108 1.392 1_655 S
C2107 C2106 1.388 1_455 S
C2107 C2111 1.393 . S
C2108 H2097 0.950 1_455 S
C2108 C2106 1.392 1_455 S
C2108 C2109 1.400 . S
C2109 C2103 1.491 . S
C2109 C2108 1.400 . S
C2109 C2110 1.398 . S
C2110 H2098 0.950 . S
C2110 C2109 1.398 . S
C2110 C2111 1.391 . S
C2111 H2099 0.950 . S
C2111 C2107 1.393 . S
C2111 C2110 1.391 . S
H2112 C2120 0.950 . S
H2113 C2125 0.950 . S
H2114 C2122 0.950 . S
H2115 C2124 0.950 . S
H2116 C2126 0.950 . S
H2117 C2128 0.950 . S
H2118 C2130 0.950 . S
H2119 C2131 0.950 . S
C2120 H2112 0.950 . S
C2120 C2121 1.386 . S
C2120 C2122 1.391 . S
C2121 C2120 1.386 . S
C2121 C2125 1.393 . S
C2122 H2114 0.950 . S
C2122 C2120 1.391 . S
C2122 C2123 1.400 . S
C2123 C2122 1.400 . S
C2123 C2124 1.398 . S
C2123 C2129 1.491 . S
C2124 H2115 0.950 . S
C2124 C2123 1.398 . S
C2124 C2125 1.391 . S
C2125 H2113 0.950 . S
C2125 C2121 1.393 . S
C2125 C2124 1.391 . S
C2126 H2116 0.950 . S
C2126 C2127 1.386 . S
C2126 C2128 1.391 . S
C2127 C2126 1.386 . S
C2127 C2131 1.393 . S
C2128 H2117 0.950 . S
C2128 C2126 1.391 . S
C2128 C2129 1.400 . S
C2129 C2123 1.491 . S
C2129 C2128 1.400 . S
C2129 C2130 1.398 . S
C2130 H2118 0.950 . S
C2130 C2129 1.398 . S
C2130 C2131 1.391 . S
C2131 H2119 0.950 . S
C2131 C2127 1.393 . S
C2131 C2130 1.391 . S
H2132 C2140 0.950 . S
H2133 C2145 0.950 . S
H2134 C2142 0.950 . S
H2135 C2144 0.950 . S
H2136 C2146 0.950 . S
H2137 C2148 0.950 . S
H2138 C2150 0.950 . S
H2139 C2151 0.950 . S
C2140 H2132 0.950 . S
C2140 C2141 1.386 . S
C2140 C2142 1.391 . S
C2141 C2140 1.386 . S
C2141 C2145 1.393 . S
C2142 H2134 0.950 . S
C2142 C2140 1.391 . S
C2142 C2143 1.400 . S
C2143 C2142 1.400 . S
C2143 C2144 1.398 . S
C2143 C2149 1.491 . S
C2144 H2135 0.950 . S
C2144 C2143 1.398 . S
C2144 C2145 1.391 . S
C2145 H2133 0.950 . S
C2145 C2141 1.393 . S
C2145 C2144 1.391 . S
C2146 H2136 0.950 . S
C2146 C2147 1.386 . S
C2146 C2148 1.391 . S
C2147 C2146 1.386 . S
C2147 C2151 1.393 . S
C2148 H2137 0.950 . S
C2148 C2146 1.391 . S
C2148 C2149 1.400 . S
C2149 C2143 1.491 . S
C2149 C2148 1.400 . S
C2149 C2150 1.398 . S
C2150 H2138 0.950 . S
C2150 C2149 1.398 . S
C2150 C2151 1.391 . S
C2151 H2139 0.950 . S
C2151 C2147 1.393 . S
C2151 C2150 1.391 . S
H2152 C2160 0.950 . S
H2153 C2165 0.950 . S
H2154 C2162 0.950 . S
H2155 C2164 0.950 . S
H2156 C2166 0.950 . S
H2157 C2168 0.950 . S
H2158 C2170 0.950 . S
H2159 C2171 0.950 . S
C2160 H2152 0.950 . S
C2160 C2161 1.386 . S
C2160 C2162 1.391 . S
C2161 C2160 1.386 . S
C2161 C2165 1.393 . S
C2162 H2154 0.950 . S
C2162 C2160 1.391 . S
C2162 C2163 1.400 . S
C2163 C2162 1.400 . S
C2163 C2164 1.398 . S
C2163 C2169 1.491 . S
C2164 H2155 0.950 . S
C2164 C2163 1.398 . S
C2164 C2165 1.391 . S
C2165 H2153 0.950 . S
C2165 C2161 1.393 . S
C2165 C2164 1.391 . S
C2166 H2156 0.950 . S
C2166 C2167 1.386 . S
C2166 C2168 1.391 . S
C2167 C2166 1.386 . S
C2167 C2171 1.393 . S
C2168 H2157 0.950 . S
C2168 C2166 1.391 . S
C2168 C2169 1.400 . S
C2169 C2163 1.491 . S
C2169 C2168 1.400 . S
C2169 C2170 1.398 . S
C2170 H2158 0.950 . S
C2170 C2169 1.398 . S
C2170 C2171 1.391 . S
C2171 H2159 0.950 . S
C2171 C2167 1.393 . S
C2171 C2170 1.391 . S
H2172 C2180 0.950 . S
H2173 C2185 0.950 . S
H2174 C2182 0.950 . S
H2175 C2184 0.950 . S
H2176 C2186 0.950 . S
H2177 C2188 0.950 . S
H2178 C2190 0.950 . S
H2179 C2191 0.950 . S
C2180 H2172 0.950 . S
C2180 C2181 1.386 . S
C2180 C2182 1.391 . S
C2181 C2180 1.386 . S
C2181 C2185 1.393 . S
C2182 H2174 0.950 . S
C2182 C2180 1.391 . S
C2182 C2183 1.400 . S
C2183 C2182 1.400 . S
C2183 C2184 1.398 . S
C2183 C2189 1.491 . S
C2184 H2175 0.950 . S
C2184 C2183 1.398 . S
C2184 C2185 1.391 . S
C2185 H2173 0.950 . S
C2185 C2181 1.393 . S
C2185 C2184 1.391 . S
C2186 H2176 0.950 . S
C2186 C2187 1.386 . S
C2186 C2188 1.391 . S
C2187 C2186 1.386 . S
C2187 C2191 1.393 . S
C2188 H2177 0.950 . S
C2188 C2186 1.391 . S
C2188 C2189 1.400 . S
C2189 C2183 1.491 . S
C2189 C2188 1.400 . S
C2189 C2190 1.398 . S
C2190 H2178 0.950 . S
C2190 C2189 1.398 . S
C2190 C2191 1.391 . S
C2191 H2179 0.950 . S
C2191 C2187 1.393 . S
C2191 C2190 1.391 . S
H2192 C2200 0.950 . S
H2193 C2205 0.950 . S
H2194 C2202 0.950 . S
H2195 C2204 0.950 . S
H2196 C2206 0.950 . S
H2197 C2208 0.950 . S
H2198 C2210 0.950 . S
H2199 C2211 0.950 . S
C2200 H2192 0.950 . S
C2200 C2201 1.386 . S
C2200 C2202 1.391 . S
C2201 C2200 1.386 . S
C2201 C2205 1.393 . S
C2202 H2194 0.950 . S
C2202 C2200 1.391 . S
C2202 C2203 1.400 . S
C2203 C2202 1.400 . S
C2203 C2204 1.398 . S
C2203 C2209 1.491 . S
C2204 H2195 0.950 . S
C2204 C2203 1.398 . S
C2204 C2205 1.391 . S
C2205 H2193 0.950 . S
C2205 C2201 1.393 . S
C2205 C2204 1.391 . S
C2206 H2196 0.950 . S
C2206 C2207 1.386 . S
C2206 C2208 1.391 . S
C2207 C2206 1.386 . S
C2207 C2211 1.393 . S
C2208 H2197 0.950 . S
C2208 C2206 1.391 . S
C2208 C2209 1.400 . S
C2209 C2203 1.491 . S
C2209 C2208 1.400 . S
C2209 C2210 1.398 . S
C2210 H2198 0.950 . S
C2210 C2209 1.398 . S
C2210 C2211 1.391 . S
C2211 H2199 0.950 . S
C2211 C2207 1.393 . S
C2211 C2210 1.391 . S
H2212 C2220 0.950 . S
H2213 C2225 0.950 . S
H2214 C2222 0.950 . S
H2215 C2224 0.950 . S
H2216 C2226 0.950 . S
H2217 C2228 0.950 . S
H2218 C2230 0.950 . S
H2219 C2231 0.950 . S
C2220 H2212 0.950 . S
C2220 C2221 1.386 . S
C2220 C2222 1.391 . S
C2221 C2220 1.386 . S
C2221 C2225 1.393 . S
C2222 H2214 0.950 . S
C2222 C2220 1.391 . S
C2222 C2223 1.400 . S
C2223 C2222 1.400 . S
C2223 C2224 1.398 . S
C2223 C2229 1.491 . S
C2224 H2215 0.950 . S
C2224 C2223 1.398 . S
C2224 C2225 1.391 . S
C2225 H2213 0.950 . S
C2225 C2221 1.393 . S
C2225 C2224 1.391 . S
C2226 H2216 0.950 . S
C2226 C2227 1.386 . S
C2226 C2228 1.391 . S
C2227 C2226 1.386 . S
C2227 C2231 1.393 . S
C2228 H2217 0.950 . S
C2228 C2226 1.391 . S
C2228 C2229 1.400 . S
C2229 C2223 1.491 . S
C2229 C2228 1.400 . S
C2229 C2230 1.398 . S
C2230 H2218 0.950 . S
C2230 C2229 1.398 . S
C2230 C2231 1.391 . S
C2231 H2219 0.950 . S
C2231 C2227 1.393 . S
C2231 C2230 1.391 . S
H2232 C2240 0.950 . S
H2233 C2245 0.950 . S
H2234 C2242 0.950 . S
H2235 C2244 0.950 . S
H2236 C2246 0.950 . S
H2237 C2248 0.950 . S
H2238 C2250 0.950 . S
H2239 C2251 0.950 . S
C2240 H2232 0.950 . S
C2240 C2241 1.386 . S
C2240 C2242 1.391 . S
C2241 C2240 1.386 . S
C2241 C2245 1.393 . S
C2242 H2234 0.950 . S
C2242 C2240 1.391 . S
C2242 C2243 1.400 . S
C2243 C2242 1.400 . S
C2243 C2244 1.398 . S
C2243 C2249 1.491 . S
C2244 H2235 0.950 . S
C2244 C2243 1.398 . S
C2244 C2245 1.391 . S
C2245 H2233 0.950 . S
C2245 C2241 1.393 . S
C2245 C2244 1.391 . S
C2246 H2236 0.950 . S
C2246 C2247 1.386 . S
C2246 C2248 1.391 . S
C2247 C2246 1.386 . S
C2247 C2251 1.393 . S
C2248 H2237 0.950 . S
C2248 C2246 1.391 . S
C2248 C2249 1.400 . S
C2249 C2243 1.491 . S
C2249 C2248 1.400 . S
C2249 C2250 1.398 . S
C2250 H2238 0.950 . S
C2250 C2249 1.398 . S
C2250 C2251 1.391 . S
C2251 H2239 0.950 . S
C2251 C2247 1.393 . S
C2251 C2250 1.391 . S
H2252 C2260 0.950 . S
H2253 C2265 0.950 . S
H2254 C2262 0.950 . S
H2255 C2264 0.950 . S
H2256 C2266 0.950 . S
H2257 C2268 0.950 . S
H2258 C2270 0.950 . S
H2259 C2271 0.950 . S
C2260 H2252 0.950 . S
C2260 C2261 1.386 . S
C2260 C2262 1.391 . S
C2261 C2260 1.386 . S
C2261 C2265 1.393 . S
C2262 H2254 0.950 . S
C2262 C2260 1.391 . S
C2262 C2263 1.400 . S
C2263 C2262 1.400 . S
C2263 C2264 1.398 . S
C2263 C2269 1.491 . S
C2264 H2255 0.950 . S
C2264 C2263 1.398 . S
C2264 C2265 1.391 . S
C2265 H2253 0.950 . S
C2265 C2261 1.393 . S
C2265 C2264 1.391 . S
C2266 H2256 0.950 . S
C2266 C2267 1.386 . S
C2266 C2268 1.391 . S
C2267 C2266 1.386 . S
C2267 C2271 1.393 . S
C2268 H2257 0.950 . S
C2268 C2266 1.391 . S
C2268 C2269 1.400 . S
C2269 C2263 1.491 . S
C2269 C2268 1.400 . S
C2269 C2270 1.398 . S
C2270 H2258 0.950 . S
C2270 C2269 1.398 . S
C2270 C2271 1.391 . S
C2271 H2259 0.950 . S
C2271 C2267 1.393 . S
C2271 C2270 1.391 . S
H2272 C2280 0.950 . S
H2273 C2285 0.950 . S
H2274 C2282 0.950 . S
H2275 C2284 0.950 . S
H2276 C2286 0.950 . S
H2277 C2288 0.950 . S
H2278 C2290 0.950 . S
H2279 C2291 0.950 . S
C2280 H2272 0.950 . S
C2280 C2281 1.386 . S
C2280 C2282 1.391 . S
C2281 C2280 1.386 . S
C2281 C2285 1.393 1_556 S
C2282 H2274 0.950 . S
C2282 C2280 1.391 . S
C2282 C2283 1.400 . S
C2283 C2282 1.400 . S
C2283 C2284 1.398 1_556 S
C2283 C2289 1.491 . S
C2284 H2275 0.950 . S
C2284 C2283 1.398 1_554 S
C2284 C2285 1.391 . S
C2285 H2273 0.950 . S
C2285 C2281 1.393 1_554 S
C2285 C2284 1.391 . S
C2286 H2276 0.950 . S
C2286 C2287 1.386 1_554 S
C2286 C2288 1.391 . S
C2287 C2286 1.386 1_556 S
C2287 C2291 1.393 . S
C2288 H2277 0.950 . S
C2288 C2286 1.391 . S
C2288 C2289 1.400 1_554 S
C2289 C2283 1.491 . S
C2289 C2288 1.400 1_556 S
C2289 C2290 1.398 . S
C2290 H2278 0.950 . S
C2290 C2289 1.398 . S
C2290 C2291 1.391 . S
C2291 H2279 0.950 . S
C2291 C2287 1.393 . S
C2291 C2290 1.391 . S
H2292 C2300 0.950 . S
H2293 C2305 0.950 . S
H2294 C2302 0.950 . S
H2295 C2304 0.950 . S
H2296 C2306 0.950 . S
H2297 C2308 0.950 . S
H2298 C2310 0.950 . S
H2299 C2311 0.950 . S
C2300 H2292 0.950 . S
C2300 C2301 1.386 . S
C2300 C2302 1.391 . S
C2301 C2300 1.386 . S
C2301 C2305 1.393 . S
C2302 H2294 0.950 . S
C2302 C2300 1.391 . S
C2302 C2303 1.400 . S
C2303 C2302 1.400 . S
C2303 C2304 1.398 . S
C2303 C2309 1.491 . S
C2304 H2295 0.950 . S
C2304 C2303 1.398 . S
C2304 C2305 1.391 . S
C2305 H2293 0.950 . S
C2305 C2301 1.393 . S
C2305 C2304 1.391 . S
C2306 H2296 0.950 . S
C2306 C2307 1.386 . S
C2306 C2308 1.391 . S
C2307 C2306 1.386 . S
C2307 C2311 1.393 . S
C2308 H2297 0.950 . S
C2308 C2306 1.391 . S
C2308 C2309 1.400 . S
C2309 C2303 1.491 . S
C2309 C2308 1.400 . S
C2309 C2310 1.398 . S
C2310 H2298 0.950 . S
C2310 C2309 1.398 . S
C2310 C2311 1.391 . S
C2311 H2299 0.950 . S
C2311 C2307 1.393 . S
C2311 C2310 1.391 . S
H2312 C2320 0.950 . S
H2313 C2325 0.950 . S
H2314 C2322 0.950 . S
H2315 C2324 0.950 . S
H2316 C2326 0.950 . S
H2317 C2328 0.950 . S
H2318 C2330 0.934 1_556 S
H2319 C2331 0.950 . S
C2320 H2312 0.950 . S
C2320 C2321 1.386 . S
C2320 C2322 1.391 . S
C2321 C2320 1.386 . S
C2321 C2325 1.393 . S
C2322 H2314 0.950 . S
C2322 C2320 1.391 . S
C2322 C2323 1.400 . S
C2323 C2322 1.400 . S
C2323 C2324 1.398 . S
C2323 C2329 1.491 . S
C2324 H2315 0.950 . S
C2324 C2323 1.398 . S
C2324 C2325 1.391 . S
C2325 H2313 0.950 . S
C2325 C2321 1.393 . S
C2325 C2324 1.391 . S
C2326 H2316 0.950 . S
C2326 C2327 1.386 . S
C2326 C2328 1.391 . S
C2327 C2326 1.386 . S
C2327 C2331 1.393 1_554 S
C2328 H2317 0.950 . S
C2328 C2326 1.391 . S
C2328 C2329 1.400 . S
C2329 C2323 1.491 . S
C2329 C2328 1.400 . S
C2329 C2330 1.422 . S
C2330 H2318 0.934 1_554 S
C2330 C2329 1.422 . S
C2330 C2331 1.385 1_554 S
C2331 H2319 0.950 . S
C2331 C2327 1.393 1_556 S
C2331 C2330 1.385 1_556 S
H2332 C2340 0.950 . S
H2333 C2345 0.984 . S
H2334 C2342 0.950 . S
H2335 C2344 0.950 1_556 S
H2336 C2346 0.950 1_556 S
H2337 C2348 0.950 1_556 S
H2338 C2350 0.950 . S
H2339 C2351 0.950 . S
C2340 H2332 0.950 . S
C2340 C2341 1.386 . S
C2340 C2342 1.391 . S
C2341 C2340 1.386 . S
C2341 C2345 1.393 . S
C2342 H2334 0.950 . S
C2342 C2340 1.391 . S
C2342 C2343 1.400 . S
C2343 C2342 1.400 . S
C2343 C2344 1.398 . S
C2343 C2349 1.491 . S
C2344 H2335 0.950 1_554 S
C2344 C2343 1.398 . S
C2344 C2345 1.391 . S
C2345 H2333 0.984 . S
C2345 C2341 1.393 . S
C2345 C2344 1.391 . S
C2346 H2336 0.950 1_554 S
C2346 C2347 1.386 . S
C2346 C2348 1.391 . S
C2347 C2346 1.386 . S
C2347 C2351 1.393 . S
C2348 H2337 0.950 1_554 S
C2348 C2346 1.391 . S
C2348 C2349 1.400 . S
C2349 C2343 1.491 . S
C2349 C2348 1.400 . S
C2349 C2350 1.398 . S
C2350 H2338 0.950 . S
C2350 C2349 1.398 . S
C2350 C2351 1.391 . S
C2351 H2339 0.950 . S
C2351 C2347 1.393 . S
C2351 C2350 1.391 . S
C1407 C962 1.452 . S
C1401 C331 1.429 . S
C1427 C1010 1.639 . S
C1421 C380 1.659 . S
C1441 C421 1.399 . S
C1447 C1046 1.357 . S
C1467 C1082 1.580 . S
C1461 C260 1.584 . S
C1487 C1108 1.466 . S
C1481 C620 1.427 . S
C1507 C1144 1.582 . S
C1501 C740 1.572 . S
C1521 C680 1.490 . S
C1527 C1179 1.505 . S
C1547 C1216 1.606 1_565 S
C1541 C571 1.599 . S
C1561 C691 1.433 . S
C1567 C1250 1.429 . S
C1587 C1298 1.565 . S
C1581 C541 1.588 . S
C1601 C601 1.420 . S
C1607 C1251 1.458 . S
C1627 C1288 1.617 . S
C1621 C721 1.594 . S
C1641 C451 1.440 . S
C1647 C1334 1.405 . S
C1661 C241 1.605 . S
C1667 C1323 1.627 . S
C1681 C320 1.470 . S
C1687 C1324 1.502 . S
C1701 C391 1.642 . S
C1707 C1322 1.651 1_655 S
C1721 C211 1.408 . S
C1727 C1070 1.443 . S
C1741 C841 1.391 . S
C1747 C1071 1.451 . S
C1767 C974 1.605 . S
C1761 C901 1.631 . S
C1787 C999 1.471 . S
C1781 C500 1.444 . S
C1801 C271 1.608 . S
C1807 C1106 1.631 . S
C1827 C1214 1.480 . S
C1821 C661 1.466 . S
C1847 C1107 1.593 . S
C1841 C560 1.586 . S
C1867 C1180 1.618 . S
C1861 C751 1.606 . S
C1887 C1178 1.447 . S
C1881 C871 1.424 . S
C1901 C920 1.667 . S
C1907 C1226 1.622 . S
C1921 C481 1.406 . S
C1927 C1118 1.364 . S
C1947 C1154 1.579 . S
C1941 C800 1.584 . S
C1961 C200 1.433 . S
C1967 C1036 1.475 . S
C1987 C1072 1.587 . S
C1981 C20 1.561 . S
C2007 C963 1.502 . S
C2001 C80 1.475 . S
C2027 C1000 1.606 . S
C2021 C151 1.589 . S
C2041 C91 1.432 . S
C2047 C1286 1.442 . S
C2061 C121 1.592 . S
C2067 C1262 1.572 . S
C2081 C181 1.411 . S
C2087 C1287 1.456 . S
C2101 C1 1.587 . S
C2107 C1252 1.618 . S
C2127 C1370 1.401 . S
C2121 C511 1.441 . S
C2147 C1359 1.623 . S
C2141 C781 1.594 . S
C2167 C1360 1.491 . S
C2161 C860 1.460 . S
C2181 C931 1.641 . S
C2187 C1358 1.653 . S
C2201 C631 1.408 . S
C2207 C1142 1.444 . S
C2227 C1143 1.450 . S
C2221 C301 1.415 . S
C2247 C1190 1.597 . S
C2241 C361 1.642 . S
C2267 C1215 1.473 . S
C2261 C440 1.435 . S
C2281 C811 1.609 . S
C2287 C1034 1.621 1_556 S
C2307 C998 1.481 . S
C2301 C61 1.473 . S
C2321 C140 1.581 . S
C2327 C1035 1.596 . S
C2347 C964 1.621 . S
C2341 C31 1.598 . S
