# Generated by pormake.
# Topology pyr, (3,6)-cn, num edge types: 1
# Building blocks:
#     Node 0, Type 0, BuildingBlock: PAMTOO_clean_linker_0, # of connection points: 3
#     Node 1, Type 0, BuildingBlock: PAMTOO_clean_linker_0, # of connection points: 3
#     Node 2, Type 0, BuildingBlock: PAMTOO_clean_linker_0, # of connection points: 3
#     Node 3, Type 0, BuildingBlock: PAMTOO_clean_linker_0, # of connection points: 3
#     Node 4, Type 0, BuildingBlock: PAMTOO_clean_linker_0, # of connection points: 3
#     Node 5, Type 0, BuildingBlock: PAMTOO_clean_linker_0, # of connection points: 3
#     Node 6, Type 0, BuildingBlock: PAMTOO_clean_linker_0, # of connection points: 3
#     Node 7, Type 0, BuildingBlock: PAMTOO_clean_linker_0, # of connection points: 3
#     Node 8, Type 1, BuildingBlock: JUFBIX_clean_sbu_0, # of connection points: 6
#     Node 9, Type 1, BuildingBlock: JUFBIX_clean_sbu_0, # of connection points: 6
#     Node 10, Type 1, BuildingBlock: JUFBIX_clean_sbu_0, # of connection points: 6
#     Node 11, Type 1, BuildingBlock: JUFBIX_clean_sbu_0, # of connection points: 6
#     Edge 12, Type (0, 1), BuildingBlock: UVAHIK_clean_linker_0, # of connection points: 2
#     Edge 13, Type (0, 1), BuildingBlock: UVAHIK_clean_linker_0, # of connection points: 2
#     Edge 14, Type (0, 1), BuildingBlock: UVAHIK_clean_linker_0, # of connection points: 2
#     Edge 15, Type (0, 1), BuildingBlock: UVAHIK_clean_linker_0, # of connection points: 2
#     Edge 16, Type (0, 1), BuildingBlock: UVAHIK_clean_linker_0, # of connection points: 2
#     Edge 17, Type (0, 1), BuildingBlock: UVAHIK_clean_linker_0, # of connection points: 2
#     Edge 18, Type (0, 1), BuildingBlock: UVAHIK_clean_linker_0, # of connection points: 2
#     Edge 19, Type (0, 1), BuildingBlock: UVAHIK_clean_linker_0, # of connection points: 2
#     Edge 20, Type (0, 1), BuildingBlock: UVAHIK_clean_linker_0, # of connection points: 2
#     Edge 21, Type (0, 1), BuildingBlock: UVAHIK_clean_linker_0, # of connection points: 2
#     Edge 22, Type (0, 1), BuildingBlock: UVAHIK_clean_linker_0, # of connection points: 2
#     Edge 23, Type (0, 1), BuildingBlock: UVAHIK_clean_linker_0, # of connection points: 2
#     Edge 24, Type (0, 1), BuildingBlock: UVAHIK_clean_linker_0, # of connection points: 2
#     Edge 25, Type (0, 1), BuildingBlock: UVAHIK_clean_linker_0, # of connection points: 2
#     Edge 26, Type (0, 1), BuildingBlock: UVAHIK_clean_linker_0, # of connection points: 2
#     Edge 27, Type (0, 1), BuildingBlock: UVAHIK_clean_linker_0, # of connection points: 2
#     Edge 28, Type (0, 1), BuildingBlock: UVAHIK_clean_linker_0, # of connection points: 2
#     Edge 29, Type (0, 1), BuildingBlock: UVAHIK_clean_linker_0, # of connection points: 2
#     Edge 30, Type (0, 1), BuildingBlock: UVAHIK_clean_linker_0, # of connection points: 2
#     Edge 31, Type (0, 1), BuildingBlock: UVAHIK_clean_linker_0, # of connection points: 2
#     Edge 32, Type (0, 1), BuildingBlock: UVAHIK_clean_linker_0, # of connection points: 2
#     Edge 33, Type (0, 1), BuildingBlock: UVAHIK_clean_linker_0, # of connection points: 2
#     Edge 34, Type (0, 1), BuildingBlock: UVAHIK_clean_linker_0, # of connection points: 2
#     Edge 35, Type (0, 1), BuildingBlock: UVAHIK_clean_linker_0, # of connection points: 2
# Relax obj value: 0.106
# Max RMSD: 0.200
# Mean RMSD: 0.137
data_MOF--net-pry--node1-JUFBIX_clean_sbu_0--node2-PAMTOO_clean_linker_0--edge1-UVAHIK_clean_linker_0
_symmetry_space_group_name_H-M    P1
_symmetry_Int_Tables_number       1
_symmetry_cell_setting            triclinic
loop_
_symmetry_equiv_pos_as_xyz
'x, y, z'
_cell_length_a     47.225638
_cell_length_b     46.455955
_cell_length_c     47.921092
_cell_angle_alpha  85.464428
_cell_angle_beta   90.658723
_cell_angle_gamma 95.333778
loop_
_atom_site_label
_atom_site_type_symbol
_atom_site_fract_x
_atom_site_fract_y
_atom_site_fract_z
_atom_type_partial_charge
H0 H 0.16064 0.18741 0.21786 0.0
H1 H 0.22504 0.12718 0.22549 0.0
H2 H 0.22608 0.19046 0.15532 0.0
H3 H 0.23871 0.13247 0.14098 0.0
C4 C 0.25046 0.12535 0.16018 0.0
O5 O 0.25149 0.14685 0.17883 0.0
H6 H 0.23828 0.10544 0.16978 0.0
C7 C 0.17967 0.17946 0.21014 0.0
C8 C 0.19179 0.19239 0.18475 0.0
C9 C 0.1913 0.15595 0.2254 0.0
C10 C 0.21531 0.14487 0.21421 0.0
C11 C 0.2276 0.15703 0.18877 0.0
C12 C 0.21588 0.18078 0.17437 0.0
H13 H 0.42288 0.95393 0.64025 0.0
H14 H 0.41907 0.89639 0.57411 0.0
H15 H 0.4902 0.89882 0.63011 0.0
H16 H 0.50157 0.88915 0.56866 0.0
C17 C 0.48144 0.87535 0.56536 0.0
O18 O 0.46523 0.87276 0.58927 0.0
H19 H 0.46959 0.88562 0.54762 0.0
C20 C 0.43284 0.93852 0.62868 0.0
C21 C 0.45873 0.92836 0.63819 0.0
C22 C 0.41853 0.92752 0.60535 0.0
C23 C 0.43007 0.90573 0.5917 0.0
C24 C 0.45578 0.89557 0.6008 0.0
C25 C 0.47032 0.90715 0.62353 0.0
H26 H 0.71678 0.33555 0.93934 0.0
H27 H 0.65099 0.35435 0.87923 0.0
H28 H 0.7254 0.41383 0.8846 0.0
H29 H 0.67441 0.44247 0.87406 0.0
C30 C 0.66128 0.42569 0.86304 0.0
O31 O 0.67721 0.40311 0.85854 0.0
H32 H 0.64265 0.41772 0.87648 0.0
C33 C 0.70808 0.34986 0.92314 0.0
C34 C 0.724 0.37584 0.91395 0.0
C35 C 0.68176 0.34159 0.91067 0.0
C36 C 0.67133 0.36 0.88901 0.0
C37 C 0.68708 0.38594 0.87978 0.0
C38 C 0.71342 0.39371 0.89203 0.0
H39 H 0.95499 0.66639 0.48901 0.0
H40 H 0.92699 0.60722 0.4273 0.0
H41 H 0.9887 0.67835 0.40529 0.0
H42 H 0.94158 0.67014 0.36612 0.0
C43 C 0.93726 0.64611 0.36874 0.0
O44 O 0.95708 0.63485 0.38691 0.0
H45 H 0.91547 0.64077 0.3774 0.0
C46 C 0.95671 0.65885 0.46832 0.0
C47 C 0.97453 0.67509 0.44835 0.0
C48 C 0.93942 0.6342 0.46107 0.0
C49 C 0.94096 0.62533 0.43381 0.0
C50 C 0.95853 0.64141 0.41385 0.0
C51 C 0.97561 0.66586 0.4212 0.0
H52 H 0.83896 0.89646 0.84057 0.0
H53 H 0.8407 0.83441 0.91259 0.0
H54 H 0.90314 0.8361 0.84829 0.0
H55 H 0.87715 0.77758 0.87049 0.0
C56 C 0.87739 0.78139 0.89314 0.0
O57 O 0.88533 0.81047 0.89634 0.0
H58 H 0.85534 0.7758 0.901 0.0
C59 C 0.84857 0.87902 0.85236 0.0
C60 C 0.87266 0.86808 0.84115 0.0
C61 C 0.83629 0.86703 0.87808 0.0
C62 C 0.84895 0.84367 0.89255 0.0
C63 C 0.87281 0.83235 0.88169 0.0
C64 C 0.88444 0.84461 0.85613 0.0
H65 H 0.70364 0.15239 0.35395 0.0
H66 H 0.63007 0.20062 0.35723 0.0
H67 H 0.69103 0.20188 0.42409 0.0
H68 H 0.63365 0.19332 0.44088 0.0
C69 C 0.62453 0.2103 0.42671 0.0
O70 O 0.64328 0.22035 0.40552 0.0
H71 H 0.60448 0.20066 0.41745 0.0
C72 C 0.69134 0.16708 0.36414 0.0
C73 C 0.70056 0.17642 0.39013 0.0
C74 C 0.66587 0.17552 0.35189 0.0
C75 C 0.64958 0.1934 0.36625 0.0
C76 C 0.65868 0.20268 0.39221 0.0
C77 C 0.68415 0.19438 0.40404 0.0
H78 H 0.37297 0.66815 0.11683 0.0
H79 H 0.37002 0.59689 0.1802 0.0
H80 H 0.44102 0.66133 0.17714 0.0
H81 H 0.45351 0.60013 0.18781 0.0
C82 C 0.43586 0.59282 0.20268 0.0
O83 O 0.41783 0.61435 0.20407 0.0
H84 H 0.42398 0.57318 0.19495 0.0
C85 C 0.38281 0.65656 0.13431 0.0
C86 C 0.40894 0.66801 0.14513 0.0
C87 C 0.36855 0.63091 0.14673 0.0
C88 C 0.38066 0.61667 0.17025 0.0
C89 C 0.40672 0.62772 0.18101 0.0
C90 C 0.42081 0.65321 0.1685 0.0
H91 H 0.08394 0.34353 0.68361 0.0
H92 H 0.15058 0.40864 0.65452 0.0
H93 H 0.10933 0.35233 0.59717 0.0
H94 H 0.16667 0.36371 0.58236 0.0
C95 C 0.17298 0.38063 0.59699 0.0
O96 O 0.14915 0.394 0.60317 0.0
H97 H 0.18194 0.36983 0.61628 0.0
C98 C 0.09721 0.35446 0.66698 0.0
C99 C 0.09416 0.34512 0.63981 0.0
C100 C 0.11713 0.37783 0.67263 0.0
C101 C 0.13423 0.39145 0.65065 0.0
C102 C 0.13113 0.38236 0.62358 0.0
C103 C 0.11079 0.35971 0.61808 0.0
Co104 Co 0.01388 0.01672 0.52605 0.0
C105 C 0.03965 0.96544 0.52117 0.0
Co106 Co 0.05548 0.0148 0.54691 0.0
C107 C 0.96422 0.03751 0.49778 0.0
C108 C 0.95954 0.99188 0.5096 0.0
N109 N 0.97847 0.01554 0.50915 0.0
N110 N 0.93706 0.02846 0.49165 0.0
C111 C 0.93405 0.99978 0.49894 0.0
H112 H 0.97297 0.05995 0.49574 0.0
H113 H 0.96353 0.97051 0.51852 0.0
C114 C 0.02962 0.06609 0.55194 0.0
N115 N 0.09022 0.01552 0.56498 0.0
C116 C 0.11486 0.00602 0.55716 0.0
C117 C 0.09568 0.02564 0.59028 0.0
N118 N 0.13544 0.0097 0.57674 0.0
C119 C 0.12339 0.02214 0.59753 0.0
C120 C 0.05886 0.03806 0.49047 0.0
O121 O 1.00957 0.05417 0.5378 0.0
O122 O 0.05149 0.05273 0.55757 0.0
O123 O 0.07355 0.03114 0.51212 0.0
O124 O 0.03181 0.03397 0.49203 0.0
O125 O 0.05922 0.97665 0.53639 0.0
H126 H 0.08038 0.03482 0.60277 0.0
H127 H 0.11741 0.99607 0.53779 0.0
O128 O 0.01856 0.97955 0.51432 0.0
O129 O 0.99598 0.99932 0.5603 0.0
O130 O 0.03723 0.99854 0.58123 0.0
C131 C 0.01033 0.99329 0.58228 0.0
H132 H 0.91452 0.98578 0.49761 0.0
H133 H 0.13386 0.02849 0.61659 0.0
Co134 Co 0.53325 0.99953 0.99796 0.0
C135 C 0.5264 0.95055 0.03497 0.0
Co136 Co 0.55728 0.00385 0.03728 0.0
C137 C 0.52257 0.99634 0.93879 0.0
C138 C 0.48396 0.99261 0.96229 0.0
N139 N 0.51254 0.99604 0.9651 0.0
N140 N 0.50144 0.99339 0.9198 0.0
C141 C 0.47709 0.99116 0.93443 0.0
H142 H 0.54494 0.9988 0.93354 0.0
H143 H 0.46901 0.99088 0.97939 0.0
C144 C 0.56404 0.0529 1.00032 0.0
N145 N 0.5779 0.00734 0.06993 0.0
C146 C 0.57767 0.02855 0.08754 0.0
C147 C 0.59698 0.98973 0.081 0.0
N148 N 0.59594 0.02497 0.10905 0.0
C149 C 0.60826 1.00064 0.10502 0.0
C150 C 0.58834 0.98148 0.99523 0.0
O151 O 0.54757 0.03766 0.98495 0.0
O152 O 0.5711 0.04216 0.02433 0.0
O153 O 0.58934 0.98905 0.0202 0.0
O154 O 0.56545 0.98411 0.98131 0.0
O155 O 0.54328 0.96565 0.05007 0.0
H156 H 0.60241 0.97027 0.07213 0.0
H157 H 0.56475 0.04661 0.08436 0.0
O158 O 0.51903 0.96134 0.01107 0.0
O159 O 0.50137 0.01508 0.01518 0.0
O160 O 0.52519 0.01863 0.05428 0.0
C161 C 0.50244 0.022 0.0404 0.0
H162 H 0.45591 0.98783 0.92567 0.0
H163 H 0.624 0.99128 0.11865 0.0
Co164 Co 0.57509 0.53971 0.53021 0.0
C165 C 0.53656 0.53867 0.48562 0.0
Co166 Co 0.53182 0.52088 0.5417 0.0
C167 C 0.63635 0.55021 0.52802 0.0
C168 C 0.61527 0.58344 0.50492 0.0
N169 N 0.61035 0.5579 0.5203 0.0
N170 N 0.65724 0.57018 0.51835 0.0
C171 C 0.64406 0.59109 0.50377 0.0
H172 H 0.63983 0.53084 0.54123 0.0
H173 H 0.5989 0.59596 0.49559 0.0
C174 C 0.57019 0.52161 0.58627 0.0
N175 N 0.49665 0.50249 0.55176 0.0
C176 C 0.47037 0.50988 0.54465 0.0
C177 C 0.49234 0.47646 0.56644 0.0
N178 N 0.45002 0.48917 0.55397 0.0
C179 C 0.46371 0.46813 0.56765 0.0
C180 C 0.56882 0.48149 0.52526 0.0
O181 O 0.58763 0.53327 0.56779 0.0
O182 O 0.54458 0.51475 0.57924 0.0
O183 O 0.54393 0.48465 0.5335 0.0
O184 O 0.5869 0.50347 0.52212 0.0
O185 O 0.51932 0.52699 0.50426 0.0
H186 H 0.50904 0.46396 0.57507 0.0
H187 H 0.4663 0.52942 0.53197 0.0
O188 O 0.56216 0.546 0.4925 0.0
O189 O 0.56315 0.57579 0.53846 0.0
O190 O 0.51992 0.55739 0.54951 0.0
C191 C 0.53821 0.57924 0.54636 0.0
H192 H 0.65451 0.61052 0.49305 0.0
H193 H 0.45366 0.44807 0.57755 0.0
Co194 Co 0.05496 0.49162 0.01373 0.0
C195 C 0.99893 0.4676 0.02333 0.0
Co196 Co 0.03847 0.49579 0.05601 0.0
C197 C 0.08636 0.4772 0.96474 0.0
C198 C 0.05118 0.50218 0.95473 0.0
N199 N 0.06532 0.48992 0.97658 0.0
N200 N 0.08606 0.48188 0.93655 0.0
C201 C 0.06401 0.49754 0.93027 0.0
H202 H 0.10149 0.46479 0.97641 0.0
H203 H 0.03224 0.51334 0.95628 0.0
C204 C 0.09453 0.51985 0.04639 0.0
N205 N 0.02775 0.49773 0.09285 0.0
C206 C 1.00636 0.51099 0.10328 0.0
C207 C 0.04131 0.48653 0.11556 0.0
N208 N 1.006 0.50819 0.13154 0.0
C209 C 0.02791 0.49274 0.13929 0.0
C210 C 0.06682 0.44487 0.05005 0.0
O211 O 0.09076 0.51115 0.022 0.0
O212 O 0.07429 0.51557 0.06395 0.0
O213 O 0.05358 0.4593 0.06629 0.0
O214 O 0.06991 0.45467 0.02453 0.0
O215 O 1.00279 0.47599 0.04781 0.0
H216 H 0.06031 0.47528 0.11502 0.0
H217 H 0.99157 0.52277 0.09048 0.0
O218 O 0.01908 0.47215 1.00572 0.0
O219 O 0.04006 0.52865 1.00366 0.0
O220 O 0.0233 0.53231 0.04533 0.0
C221 C 0.02653 0.54264 0.02007 0.0
H222 H 0.05711 0.50424 0.90932 0.0
H223 H 0.03457 0.48749 0.16064 0.0
C224 C 0.167 0.16148 0.2716 0.0
C225 C 0.17849 0.14347 0.2531 0.0
C226 C 0.1546 0.15003 0.29713 0.0
C227 C 0.15065 0.08505 0.34916 0.0
H228 H 0.0838 0.11746 0.37487 0.0
C229 C 0.1028 0.05309 0.46076 0.0
C230 C 0.07297 0.05033 0.46356 0.0
C231 C 0.11586 0.06419 0.43535 0.0
C232 C 0.10234 0.10791 0.36805 0.0
H233 H 0.1856 0.09877 0.24781 0.0
H234 H 0.16425 0.07894 0.29224 0.0
H235 H 0.10562 0.13645 0.33056 0.0
H236 H 0.03368 0.05732 0.44129 0.0
H237 H 0.05625 0.07646 0.39731 0.0
H238 H 0.14708 0.05621 0.38652 0.0
C239 C 0.16506 0.10211 0.28704 0.0
C240 C 0.11515 0.11912 0.34261 0.0
C241 C 0.17741 0.11356 0.26139 0.0
C242 C 0.05668 0.05914 0.44014 0.0
C243 C 0.06971 0.07034 0.41481 0.0
C244 C 0.13791 0.07392 0.3747 0.0
C245 C 0.15328 0.12012 0.30533 0.0
C246 C 0.13955 0.10792 0.33265 0.0
C247 C 0.09956 0.07306 0.41189 0.0
C248 C 0.11346 0.08511 0.38461 0.0
H249 H 0.16789 0.18468 0.26657 0.0
H250 H 0.14639 0.16485 0.31069 0.0
H251 H 0.16951 0.0759 0.34254 0.0
H252 H 0.11616 0.04659 0.47822 0.0
H253 H 0.13885 0.06617 0.43426 0.0
C254 C 0.46942 0.96613 0.6728 0.0
C255 C 0.47208 0.93806 0.66466 0.0
C256 C 0.47847 0.97389 0.69926 0.0
C257 C 0.49471 0.93924 0.76963 0.0
H258 H 0.51416 0.01906 0.78623 0.0
C259 C 0.52454 0.97401 0.88039 0.0
C260 C 0.50416 0.99083 0.89033 0.0
C261 C 0.52541 0.96928 0.85198 0.0
C262 C 0.50894 0.99668 0.78174 0.0
H263 H 0.48817 0.89675 0.67786 0.0
H264 H 0.50592 0.91101 0.7227 0.0
H265 H 0.50883 0.00726 0.73754 0.0
H266 H 0.46974 0.01702 0.87855 0.0
H267 H 0.47184 0.00949 0.82851 0.0
H268 H 0.49551 0.92883 0.81398 0.0
C269 C 0.49555 0.92668 0.70921 0.0
C270 C 0.50561 0.98988 0.75391 0.0
C271 C 0.48583 0.91866 0.68305 0.0
C272 C 0.4855 0.00386 0.87128 0.0
C273 C 0.48682 0.99973 0.84279 0.0
C274 C 0.49874 0.94599 0.79734 0.0
C275 C 0.49114 0.95406 0.71811 0.0
C276 C 0.49781 0.96111 0.74746 0.0
C277 C 0.50641 0.98195 0.83305 0.0
C278 C 0.50533 0.97479 0.80361 0.0
H279 H 0.45965 0.98201 0.65903 0.0
H280 H 0.47443 0.99512 0.70521 0.0
H281 H 0.48809 0.91696 0.76581 0.0
H282 H 0.53897 0.96358 0.89478 0.0
H283 H 0.54059 0.9554 0.84483 0.0
C284 C 0.62384 0.43194 0.82561 0.0
C285 C 0.65162 0.43879 0.8353 0.0
C286 C 0.61535 0.44315 0.79923 0.0
C287 C 0.64373 0.4718 0.73049 0.0
H288 H 0.56965 0.50078 0.71997 0.0
C289 C 0.60781 0.523 0.62363 0.0
C290 C 0.57968 0.51509 0.61542 0.0
C291 C 0.61695 0.51573 0.65093 0.0
C292 C 0.5903 0.49253 0.72251 0.0
H293 H 0.69252 0.46193 0.82508 0.0
H294 H 0.67771 0.48173 0.77885 0.0
H295 H 0.58489 0.48402 0.76678 0.0
H296 H 0.53902 0.49352 0.62949 0.0
H297 H 0.55504 0.4805 0.67682 0.0
H298 H 0.64898 0.47978 0.68619 0.0
C299 C 0.66246 0.46781 0.79164 0.0
C300 C 0.59903 0.48295 0.74933 0.0
C301 C 0.67088 0.45671 0.81809 0.0
C302 C 0.56081 0.50007 0.63516 0.0
C303 C 0.56996 0.49274 0.66238 0.0
C304 C 0.63496 0.48126 0.70364 0.0
C305 C 0.6346 0.46112 0.78192 0.0
C306 C 0.62576 0.4723 0.75359 0.0
C307 C 0.59817 0.50033 0.67057 0.0
C308 C 0.60804 0.49154 0.6993 0.0
H309 H 0.60878 0.41774 0.83835 0.0
H310 H 0.5939 0.43722 0.79214 0.0
H311 H 0.6643 0.46336 0.73306 0.0
H312 H 0.62286 0.53466 0.60894 0.0
H313 H 0.63873 0.52223 0.65665 0.0
C314 C 0.94055 0.65113 0.31599 0.0
C315 C 0.93843 0.63324 0.34104 0.0
C316 C 0.94143 0.63901 0.29028 0.0
C317 C 0.92754 0.56947 0.25672 0.0
H318 H 0.98437 0.60482 0.20369 0.0
C319 C 0.98117 0.50763 0.17638 0.0
C320 C 0.98857 0.52166 0.15012 0.0
C321 C 0.9682 0.5222 0.19635 0.0
C322 C 0.96797 0.595 0.21797 0.0
H323 H 0.93435 0.58885 0.359 0.0
H324 H 0.93679 0.56755 0.31422 0.0
H325 H 0.97544 0.62884 0.24559 0.0
H326 H 0.98693 0.56138 0.12351 0.0
H327 H 0.9643 0.58714 0.15864 0.0
H328 H 0.92116 0.53491 0.22958 0.0
C329 C 0.93743 0.59091 0.31426 0.0
C330 C 0.96285 0.60876 0.24204 0.0
C331 C 0.93639 0.60304 0.33993 0.0
C332 C 0.98131 0.55006 0.14357 0.0
C333 C 0.96859 0.56482 0.16371 0.0
C334 C 0.9328 0.55562 0.23272 0.0
C335 C 0.94016 0.60875 0.28912 0.0
C336 C 0.94308 0.59581 0.26204 0.0
C337 C 0.96259 0.55124 0.19054 0.0
C338 C 0.95355 0.56793 0.21345 0.0
H339 H 0.94163 0.67449 0.31631 0.0
H340 H 0.94308 0.65335 0.27131 0.0
H341 H 0.91172 0.55922 0.2714 0.0
H342 H 0.98635 0.48565 0.18177 0.0
H343 H 0.96406 0.51123 0.21689 0.0
C344 C 0.29097 0.0924 0.16229 0.0
C345 C 0.28002 0.11826 0.15168 0.0
C346 C 0.31612 0.08361 0.15151 0.0
C347 C 0.36286 0.09538 0.08795 0.0
H348 H 0.41318 0.0501 0.13395 0.0
C349 C 0.45179 0.03624 0.03879 0.0
C350 C 0.4776 0.03386 0.05346 0.0
C351 C 0.42854 0.0473 0.05109 0.0
C352 C 0.39962 0.06293 0.12069 0.0
H353 H 0.28784 0.15576 0.12219 0.0
H354 H 0.332 0.14095 0.10377 0.0
H355 H 0.37291 0.069 0.15526 0.0
H356 H 0.49885 0.04169 0.09285 0.0
H357 H 0.45874 0.06123 0.11404 0.0
H358 H 0.38989 0.08981 0.05349 0.0
C359 C 0.32085 0.12696 0.12002 0.0
C360 C 0.3761 0.07355 0.13296 0.0
C361 C 0.29565 0.13572 0.13082 0.0
C362 C 0.47937 0.04299 0.08084 0.0
C363 C 0.45615 0.0541 0.09312 0.0
C364 C 0.38638 0.08478 0.07569 0.0
C365 C 0.33129 0.10043 0.12977 0.0
C366 C 0.35717 0.08989 0.11682 0.0
C367 C 0.43023 0.05645 0.07851 0.0
C368 C 0.40518 0.06823 0.09178 0.0
H369 H 0.27945 0.07834 0.17827 0.0
H370 H 0.32301 0.06297 0.15958 0.0
H371 H 0.34882 0.10748 0.07454 0.0
H372 H 0.44944 0.02939 0.01773 0.0
H373 H 0.40902 0.04821 0.03912 0.0
C374 C 0.36777 0.9177 0.59025 0.0
C375 C 0.39074 0.93766 0.59645 0.0
C376 C 0.34103 0.92709 0.5839 0.0
C377 C 0.2984 0.98658 0.59694 0.0
H378 H 0.24636 0.95159 0.54335 0.0
C379 C 0.17872 0.99556 0.60139 0.0
C380 C 0.16413 1.00161 0.5762 0.0
C381 C 0.20683 0.9888 0.60119 0.0
C382 C 0.26076 0.96177 0.55817 0.0
H383 H 0.40413 0.98322 0.59947 0.0
H384 H 0.35745 0.99969 0.58826 0.0
H385 H 0.29541 0.93867 0.54636 0.0
H386 H 0.16759 0.00484 0.53096 0.0
H387 H 0.21695 0.99281 0.5306 0.0
H388 H 0.2639 0.00961 0.60882 0.0
C389 C 0.35997 0.97671 0.58881 0.0
C390 C 0.28874 0.95419 0.56008 0.0
C391 C 0.38668 0.96731 0.59522 0.0
C392 C 0.17817 1.00009 0.55071 0.0
C393 C 0.20642 0.99325 0.5505 0.0
C394 C 0.27051 0.99409 0.59507 0.0
C395 C 0.33673 0.95666 0.58358 0.0
C396 C 0.30774 0.96625 0.57975 0.0
C397 C 0.2211 0.98788 0.57578 0.0
C398 C 0.25126 0.98142 0.57601 0.0
H399 H 0.37017 0.89467 0.59135 0.0
H400 H 0.32347 0.91106 0.58036 0.0
H401 H 0.31238 0.99605 0.61252 0.0
H402 H 0.16837 0.99582 0.62138 0.0
H403 H 0.21736 0.98408 0.621 0.0
C404 C 0.75514 0.38208 0.95614 0.0
C405 C 0.75197 0.38387 0.92687 0.0
C406 C 0.78163 0.38922 0.96832 0.0
C407 C 0.85798 0.39422 0.95413 0.0
H408 H 0.86515 0.44704 0.01309 0.0
C409 C 0.96611 0.44867 0.98646 0.0
C410 C 0.97096 0.45411 0.01463 0.0
C411 C 0.93934 0.43772 0.97753 0.0
C412 C 0.86349 0.43183 0.99702 0.0
H413 H 0.77394 0.39426 0.8874 0.0
H414 H 0.82032 0.40662 0.90869 0.0
H415 H 0.81824 0.43266 0.99407 0.0
H416 H 0.95166 0.45163 0.05569 0.0
H417 H 0.9049 0.4318 0.04019 0.0
H418 H 0.90305 0.39311 0.95706 0.0
C419 C 0.80231 0.3997 0.92218 0.0
C420 C 0.83663 0.42372 0.98606 0.0
C421 C 0.77577 0.3929 0.91001 0.0
C422 C 0.94856 0.44774 0.03383 0.0
C423 C 0.92173 0.43657 0.0249 0.0
C424 C 0.88477 0.40207 0.96525 0.0
C425 C 0.8055 0.39791 0.95144 0.0
C426 C 0.83369 0.40521 0.96421 0.0
C427 C 0.91674 0.43169 0.99657 0.0
C428 C 0.88794 0.42138 0.9865 0.0
H429 H 0.73706 0.37532 0.96959 0.0
H430 H 0.78355 0.38755 0.99092 0.0
H431 H 0.85624 0.37951 0.93761 0.0
H432 H 0.98284 0.4535 0.97106 0.0
H433 H 0.9362 0.43477 0.95549 0.0
C434 C 0.89927 0.63802 0.49371 0.0
C435 C 0.91653 0.62051 0.48007 0.0
C436 C 0.87443 0.62596 0.50717 0.0
C437 C 0.82066 0.56506 0.50068 0.0
H438 H 0.78559 0.59987 0.56092 0.0
C439 C 0.70042 0.54398 0.52369 0.0
C440 C 0.68732 0.56996 0.52309 0.0
C441 C 0.73004 0.54435 0.52587 0.0
C442 C 0.7952 0.58974 0.54424 0.0
H443 H 0.9225 0.57627 0.47184 0.0
H444 H 0.87906 0.55505 0.49562 0.0
H445 H 0.83654 0.61035 0.55247 0.0
H446 H 0.69454 0.61634 0.52599 0.0
H447 H 0.74608 0.61706 0.52988 0.0
H448 H 0.7791 0.54533 0.49183 0.0
C449 C 0.88452 0.57823 0.49543 0.0
C450 C 0.82433 0.59578 0.53934 0.0
C451 C 0.9094 0.59035 0.48187 0.0
C452 C 0.70417 0.59608 0.52603 0.0
C453 C 0.73362 0.59641 0.52861 0.0
C454 C 0.79158 0.55884 0.50574 0.0
C455 C 0.86623 0.59605 0.50738 0.0
C456 C 0.83716 0.58452 0.51673 0.0
C457 C 0.74693 0.57065 0.52801 0.0
C458 C 0.77837 0.57209 0.52681 0.0
H459 H 0.90384 0.66137 0.49236 0.0
H460 H 0.86071 0.64046 0.51573 0.0
H461 H 0.8297 0.55621 0.48292 0.0
H462 H 0.68786 0.52359 0.52138 0.0
H463 H 0.73979 0.52419 0.52536 0.0
C464 C 0.17956 0.22239 0.13999 0.0
C465 C 0.17952 0.21822 0.16948 0.0
C466 C 0.16812 0.24652 0.12595 0.0
C467 C 0.1455 0.32024 0.13814 0.0
H468 H 0.10722 0.31374 0.06662 0.0
C469 C 0.07752 0.40955 0.09061 0.0
C470 C 0.0794 0.41786 0.0617 0.0
C471 C 0.09019 0.38527 0.1024 0.0
C472 C 0.11809 0.31607 0.08645 0.0
H473 H 0.16739 0.23727 0.207 0.0
H474 H 0.14671 0.27819 0.18282 0.0
H475 H 0.12799 0.27176 0.08967 0.0
H476 H 0.096 0.40629 0.02256 0.0
H477 H 0.11795 0.36353 0.04317 0.0
H478 H 0.13517 0.36435 0.13515 0.0
C479 C 0.15603 0.26312 0.17034 0.0
C480 C 0.13012 0.29189 0.09975 0.0
C481 C 0.16759 0.23914 0.18434 0.0
C482 C 0.09402 0.40063 0.04486 0.0
C483 C 0.10656 0.37603 0.05671 0.0
C484 C 0.1333 0.34426 0.12498 0.0
C485 C 0.15614 0.26739 0.14086 0.0
C486 C 0.14388 0.29345 0.126 0.0
C487 C 0.10511 0.36816 0.08577 0.0
C488 C 0.11917 0.34257 0.09902 0.0
H489 H 0.18818 0.20681 0.12758 0.0
H490 H 0.16903 0.24893 0.10332 0.0
H491 H 0.15646 0.32289 0.15787 0.0
H492 H 0.06641 0.42202 0.1044 0.0
H493 H 0.08809 0.37978 0.12472 0.0
C494 C 0.66502 0.30295 0.94803 0.0
C495 C 0.6659 0.31328 0.91964 0.0
C496 C 0.65185 0.27548 0.95627 0.0
C497 C 0.63002 0.20482 0.92837 0.0
H498 H 0.58938 0.18976 0.99864 0.0
C499 C 0.56999 0.09367 0.96278 0.0
C500 C 0.57455 0.08294 0.99057 0.0
C501 C 0.57982 0.12212 0.95366 0.0
C502 C 0.60082 0.19364 0.97904 0.0
H503 H 0.65303 0.30293 0.87771 0.0
H504 H 0.62921 0.25544 0.89218 0.0
H505 H 0.60787 0.23921 0.98339 0.0
H506 H 0.59285 0.09368 0.03061 0.0
H507 H 0.6099 0.14336 0.01465 0.0
H508 H 0.6228 0.15919 0.92403 0.0
C509 C 0.63922 0.26837 0.90804 0.0
C510 C 0.61146 0.22194 0.97031 0.0
C511 C 0.65255 0.29579 0.89978 0.0
C512 C 0.58903 0.10128 0.00906 0.0
C513 C 0.59863 0.12979 0.99999 0.0
C514 C 0.61919 0.17655 0.93701 0.0
C515 C 0.63904 0.25771 0.93634 0.0
C516 C 0.62643 0.22785 0.94499 0.0
C517 C 0.59416 0.14049 0.9722 0.0
C518 C 0.60472 0.17064 0.96255 0.0
H519 H 0.67475 0.31602 0.96393 0.0
H520 H 0.65238 0.26791 0.97821 0.0
H521 H 0.64185 0.20847 0.90899 0.0
H522 H 0.5589 0.08008 0.94803 0.0
H523 H 0.5759 0.12987 0.93217 0.0
C524 C 0.98607 0.72797 0.43556 0.0
C525 C 0.98859 0.70376 0.45463 0.0
C526 C 0.99601 0.75567 0.44251 0.0
C527 C 0.04257 0.79857 0.48798 0.0
H528 H 0.98461 0.85246 0.47838 0.0
C529 C 0.05369 0.91456 0.52809 0.0
C530 C 0.04038 0.93602 0.51192 0.0
C531 C 0.05069 0.88578 0.52085 0.0
C532 C 1.00127 0.83793 0.48076 0.0
H533 H 1.00475 0.68945 0.49542 0.0
H534 H 0.02235 0.73832 0.50759 0.0
H535 H 0.97407 0.80299 0.46598 0.0
H536 H 0.01554 0.94493 0.47445 0.0
H537 H 0.01137 0.89537 0.46118 0.0
H538 H 0.06998 0.83388 0.50237 0.0
C539 C 0.01263 0.7356 0.48727 0.0
C540 C 0.99513 0.80951 0.47378 0.0
C541 C 1.00242 0.70776 0.48039 0.0
C542 C 0.02561 0.92868 0.48755 0.0
C543 C 0.02305 0.90021 0.48008 0.0
C544 C 0.0489 0.8273 0.49471 0.0
C545 C 1.0088 0.75984 0.46864 0.0
C546 C 0.01575 0.78964 0.47703 0.0
C547 C 0.03465 0.87818 0.49714 0.0
C548 C 0.02837 0.84739 0.49084 0.0
H549 H 0.9752 0.72571 0.41571 0.0
H550 H 0.99299 0.77402 0.42771 0.0
H551 H 0.05879 0.78355 0.49069 0.0
H552 H 0.06517 0.91972 0.54702 0.0
H553 H 0.05986 0.86935 0.53448 0.0
C554 C 0.51459 0.83613 0.56224 0.0
C555 C 0.48726 0.84543 0.55873 0.0
C556 C 0.5191 0.80729 0.55904 0.0
C557 C 0.48247 0.73447 0.56552 0.0
H558 H 0.54693 0.71387 0.52451 0.0
C559 C 0.50228 0.61532 0.54978 0.0
C560 C 0.53073 0.60878 0.55028 0.0
C561 C 0.49579 0.64404 0.55051 0.0
C562 C 0.52902 0.71924 0.53636 0.0
H563 H 0.44329 0.83233 0.54905 0.0
H564 H 0.45112 0.78166 0.54358 0.0
H565 H 0.53813 0.76466 0.5251 0.0
H566 H 0.5746 0.62684 0.5534 0.0
H567 H 0.56332 0.6765 0.5556 0.0
H568 H 0.47374 0.68915 0.57741 0.0
C569 C 0.46902 0.79667 0.5487 0.0
C570 C 0.52395 0.74832 0.53655 0.0
C571 C 0.46459 0.82558 0.55159 0.0
C572 C 0.55246 0.63124 0.55266 0.0
C573 C 0.54599 0.65978 0.55367 0.0
C574 C 0.4877 0.70534 0.56555 0.0
C575 C 0.49626 0.78719 0.55269 0.0
C576 C 0.50076 0.75624 0.5513 0.0
C577 C 0.51764 0.66666 0.55198 0.0
C578 C 0.51122 0.69742 0.5512 0.0
H579 H 0.5323 0.85099 0.56811 0.0
H580 H 0.54026 0.80046 0.5625 0.0
H581 H 0.46459 0.74004 0.5773 0.0
H582 H 0.48511 0.59842 0.54781 0.0
H583 H 0.47373 0.64861 0.54902 0.0
C584 C 0.88933 0.91152 0.80788 0.0
C585 C 0.88575 0.88123 0.81399 0.0
C586 C 0.90242 0.92376 0.78291 0.0
C587 C 0.92045 0.90691 0.71071 0.0
H588 H 0.97461 0.97479 0.71243 0.0
C589 C 0.96673 0.97078 0.60893 0.0
C590 C 0.99589 0.9805 0.60873 0.0
C591 C 0.95318 0.95875 0.63373 0.0
C592 C 0.95964 0.95576 0.71152 0.0
H593 H 0.89282 0.8402 0.79785 0.0
H594 H 0.91545 0.86144 0.75447 0.0
H595 H 0.95133 0.95383 0.75563 0.0
H596 H 0.0335 0.98515 0.63495 0.0
H597 H 0.00991 0.96446 0.67809 0.0
H598 H 0.92883 0.90879 0.66662 0.0
C599 C 0.90815 0.87581 0.76902 0.0
C600 C 0.94602 0.94387 0.73634 0.0
C601 C 0.89536 0.86359 0.79411 0.0
C602 C 0.01105 0.97793 0.63417 0.0
C603 C 0.99743 0.96619 0.65904 0.0
C604 C 0.93383 0.919 0.68584 0.0
C605 C 0.91207 0.90611 0.76305 0.0
C606 C 0.92629 0.91916 0.73638 0.0
C607 C 0.96828 0.95632 0.65923 0.0
C608 C 0.95374 0.94356 0.68583 0.0
H609 H 0.88246 0.92587 0.82268 0.0
H610 H 0.90476 0.94714 0.77905 0.0
H611 H 0.90525 0.88807 0.70973 0.0
H612 H 0.95428 0.97237 0.58983 0.0
H613 H 0.93069 0.95171 0.63298 0.0
C614 C 0.67619 0.16192 0.30365 0.0
C615 C 0.65627 0.16512 0.32448 0.0
C616 C 0.66758 0.15011 0.27873 0.0
C617 C 0.60818 0.1043 0.24894 0.0
H618 H 0.64972 0.12574 0.1799 0.0
C619 C 0.57869 0.05606 0.1433 0.0
C620 C 0.60118 0.04336 0.13159 0.0
C621 C 0.58369 0.07339 0.16569 0.0
C622 C 0.63794 0.11964 0.19907 0.0
H623 H 0.61138 0.15927 0.33489 0.0
H624 H 0.59617 0.1401 0.29081 0.0
H625 H 0.66073 0.15303 0.22074 0.0
H626 H 0.64646 0.03929 0.13338 0.0
H627 H 0.65537 0.07019 0.17226 0.0
H628 H 0.58515 0.07117 0.22683 0.0
C629 C 0.61863 0.14589 0.29411 0.0
C630 C 0.64432 0.13509 0.22252 0.0
C631 C 0.62732 0.15731 0.31926 0.0
C632 C 0.6288 0.04869 0.14226 0.0
C633 C 0.63389 0.06648 0.16426 0.0
C634 C 0.60148 0.0892 0.22532 0.0
C635 C 0.63872 0.14166 0.27372 0.0
C636 C 0.62995 0.12722 0.24795 0.0
C637 C 0.61135 0.07877 0.17628 0.0
C638 C 0.6167 0.0964 0.2004 0.0
H639 H 0.69861 0.16823 0.30667 0.0
H640 H 0.68377 0.14689 0.26376 0.0
H641 H 0.59696 0.09725 0.26821 0.0
H642 H 0.5572 0.05206 0.1355 0.0
H643 H 0.56601 0.08269 0.17468 0.0
C644 C 0.4304 0.56864 0.25142 0.0
C645 C 0.44747 0.58561 0.23145 0.0
C646 C 0.44041 0.56318 0.2787 0.0
C647 C 0.50607 0.5625 0.32101 0.0
H648 H 0.4554 0.56865 0.38293 0.0
C649 C 0.54498 0.55892 0.43602 0.0
C650 C 0.52684 0.54377 0.45633 0.0
C651 C 0.53557 0.56394 0.40844 0.0
C652 C 0.46973 0.56647 0.3659 0.0
H653 H 0.48797 0.61085 0.22426 0.0
H654 H 0.50568 0.6012 0.27198 0.0
H655 H 0.43848 0.57714 0.33503 0.0
H656 H 0.48468 0.52176 0.46354 0.0
H657 H 0.4685 0.53007 0.41544 0.0
H658 H 0.53727 0.55163 0.35185 0.0
C659 C 0.48475 0.59168 0.26646 0.0
C660 C 0.46002 0.57137 0.33844 0.0
C661 C 0.47465 0.59725 0.23921 0.0
C662 C 0.49916 0.53363 0.44844 0.0
C663 C 0.48981 0.53855 0.42087 0.0
C664 C 0.51575 0.55747 0.34849 0.0
C665 C 0.46768 0.5747 0.28654 0.0
C666 C 0.47807 0.56942 0.31569 0.0
C667 C 0.50785 0.55386 0.40054 0.0
C668 C 0.49768 0.55936 0.37127 0.0
H669 H 0.40922 0.55979 0.24593 0.0
H670 H 0.42685 0.54984 0.29364 0.0
H671 H 0.52037 0.56051 0.3039 0.0
H672 H 0.56639 0.56712 0.44145 0.0
H673 H 0.5499 0.57614 0.39341 0.0
C674 C 0.1255 0.4176 0.70516 0.0
C675 C 0.1203 0.38788 0.70135 0.0
C676 C 0.12782 0.42727 0.732 0.0
C677 C 0.13723 0.40336 0.80732 0.0
H678 H 0.09998 0.47259 0.81783 0.0
C679 C 0.10261 0.4407 0.91416 0.0
C680 C 0.10306 0.47071 0.9161 0.0
C681 C 0.1114 0.42993 0.88947 0.0
C682 C 0.11096 0.45352 0.81522 0.0
H683 H 0.11443 0.34493 0.72305 0.0
H684 H 0.11724 0.36195 0.76992 0.0
H685 H 0.10109 0.45505 0.77166 0.0
H686 H 0.11544 0.51294 0.8955 0.0
H687 H 0.13175 0.49437 0.85281 0.0
H688 H 0.1461 0.40155 0.85149 0.0
C689 C 0.12 0.37775 0.75208 0.0
C690 C 0.1116 0.44343 0.78866 0.0
C691 C 0.11792 0.36803 0.72516 0.0
C692 C 0.11499 0.48972 0.8943 0.0
C693 C 0.12399 0.47907 0.86986 0.0
C694 C 0.13641 0.41343 0.8341 0.0
C695 C 0.12464 0.40754 0.75582 0.0
C696 C 0.12475 0.41826 0.78428 0.0
C697 C 0.1208 0.44915 0.86656 0.0
C698 C 0.12333 0.4387 0.83827 0.0
H699 H 0.12723 0.43357 0.68739 0.0
H700 H 0.13189 0.45034 0.73405 0.0
H701 H 0.14774 0.38403 0.80465 0.0
H702 H 0.0931 0.42575 0.93067 0.0
H703 H 0.10865 0.40677 0.88754 0.0
C704 C 0.80609 0.90857 0.88569 0.0
C705 C 0.81042 0.87886 0.8898 0.0
C706 C 0.78202 0.9195 0.89658 0.0
C707 C 0.72548 0.90291 0.95102 0.0
H708 H 0.68706 0.96184 0.90774 0.0
C709 C 0.63748 0.9638 0.99928 0.0
C710 C 0.61353 0.96972 0.98273 0.0
C711 C 0.66109 0.95267 0.9878 0.0
C712 C 0.69737 0.94527 0.92012 0.0
H713 H 0.79164 0.83753 0.90861 0.0
H714 H 0.75033 0.85659 0.92785 0.0
H715 H 0.72832 0.9426 0.88814 0.0
H716 H 0.5961 0.96847 0.94076 0.0
H717 H 0.63724 0.94925 0.92074 0.0
H718 H 0.6945 0.90546 0.98295 0.0
C719 C 0.76577 0.87156 0.91637 0.0
C720 C 0.72133 0.9344 0.90895 0.0
C721 C 0.7897 0.86058 0.9053 0.0
C722 C 0.61406 0.96425 0.95424 0.0
C723 C 0.63782 0.95334 0.94268 0.0
C724 C 0.7017 0.91397 0.96229 0.0
C725 C 0.76146 0.90122 0.9122 0.0
C726 C 0.7358 0.91297 0.92417 0.0
C727 C 0.66174 0.94726 0.95928 0.0
C728 C 0.68718 0.93533 0.94706 0.0
H729 H 0.82156 0.92366 0.87442 0.0
H730 H 0.77985 0.94251 0.89319 0.0
H731 H 0.73603 0.88667 0.9636 0.0
H732 H 0.63801 0.96771 0.02127 0.0
H733 H 0.67909 0.94869 1.00129 0.0
C734 C 0.75206 0.16845 0.38771 0.0
C735 C 0.72672 0.16629 0.40311 0.0
C736 C 0.77615 0.15665 0.39916 0.0
C737 C 0.79509 0.09721 0.44596 0.0
H738 H 0.87076 0.13743 0.44735 0.0
C739 C 0.88791 0.04068 0.49581 0.0
C740 C 0.9147 0.04619 0.48319 0.0
C741 C 0.86585 0.05739 0.48746 0.0
C742 C 0.84986 0.12576 0.44676 0.0
H743 H 0.70666 0.15075 0.44257 0.0
H744 H 0.74873 0.1295 0.46242 0.0
H745 H 0.83066 0.16362 0.43011 0.0
H746 H 0.93982 0.07353 0.45234 0.0
H747 H 0.90084 0.10217 0.43658 0.0
H748 H 0.81394 0.05908 0.46122 0.0
C749 C 0.74996 0.14057 0.44164 0.0
C750 C 0.82693 0.14084 0.43708 0.0
C751 C 0.72603 0.15281 0.43038 0.0
C752 C 0.91926 0.06901 0.46232 0.0
C753 C 0.89698 0.08545 0.4535 0.0
C754 C 0.81798 0.08203 0.45514 0.0
C755 C 0.77507 0.14208 0.42597 0.0
C756 C 0.79938 0.12668 0.43676 0.0
C757 C 0.86989 0.07966 0.46583 0.0
C758 C 0.84567 0.0961 0.45584 0.0
H759 H 0.75306 0.17888 0.36666 0.0
H760 H 0.79526 0.15789 0.38665 0.0
H761 H 0.77407 0.08572 0.44542 0.0
H762 H 0.88413 0.02358 0.51241 0.0
H763 H 0.84563 0.05281 0.49806 0.0
C764 C 0.318 0.61017 0.15367 0.0
C765 C 0.34071 0.61946 0.1355 0.0
C766 C 0.29165 0.59978 0.1431 0.0
C767 C 0.24825 0.59966 0.07809 0.0
H768 H 0.20488 0.53524 0.1191 0.0
C769 C 0.14495 0.53953 0.03582 0.0
C770 C 0.1225 0.53342 0.05503 0.0
C771 C 0.17179 0.55078 0.04468 0.0
C772 C 0.21666 0.55339 0.10753 0.0
H773 H 0.35382 0.6248 0.09206 0.0
H774 H 0.30794 0.60615 0.07358 0.0
H775 H 0.25151 0.55277 0.13632 0.0
H776 H 0.1105 0.53487 0.09847 0.0
H777 H 0.15719 0.55436 0.11379 0.0
H778 H 0.21331 0.59987 0.04911 0.0
C779 C 0.31027 0.60746 0.09596 0.0
C780 C 0.24336 0.56351 0.11743 0.0
C781 C 0.33658 0.61806 0.10653 0.0
C782 C 0.12732 0.53927 0.08312 0.0
C783 C 0.15412 0.55026 0.09197 0.0
C784 C 0.22158 0.58936 0.06807 0.0
C785 C 0.28746 0.5982 0.11412 0.0
C786 C 0.2594 0.58694 0.10299 0.0
C787 C 0.17671 0.55585 0.07293 0.0
C788 C 0.20541 0.56631 0.08285 0.0
H789 H 0.32044 0.61144 0.17605 0.0
H790 H 0.27443 0.59338 0.15768 0.0
H791 H 0.25985 0.61798 0.06663 0.0
H792 H 0.14192 0.53526 0.01404 0.0
H793 H 0.18888 0.55478 0.02958 0.0
C794 C 0.21409 0.39339 0.56427 0.0
C795 C 0.19591 0.40214 0.58426 0.0
C796 C 0.23801 0.41138 0.55513 0.0
C797 C 0.288 0.46946 0.57986 0.0
H798 H 0.32194 0.46411 0.50736 0.0
C799 C 0.40482 0.51159 0.55543 0.0
C800 C 0.41997 0.48832 0.54918 0.0
C801 C 0.37504 0.50887 0.55443 0.0
C802 C 0.31252 0.46616 0.52753 0.0
H803 H 0.18842 0.43656 0.61049 0.0
H804 H 0.22979 0.46859 0.59382 0.0
H805 H 0.27238 0.44558 0.51543 0.0
H806 H 0.41658 0.44498 0.53532 0.0
H807 H 0.36468 0.44042 0.53276 0.0
H808 H 0.32849 0.48944 0.59204 0.0
C809 C 0.22566 0.44772 0.58526 0.0
C810 C 0.28425 0.45536 0.53228 0.0
C811 C 0.20181 0.42953 0.59461 0.0
C812 C 0.40518 0.46307 0.54032 0.0
C813 C 0.37559 0.4606 0.53867 0.0
C814 C 0.31614 0.48066 0.57495 0.0
C815 C 0.24442 0.43859 0.56584 0.0
C816 C 0.27205 0.45565 0.5589 0.0
C817 C 0.36021 0.48315 0.54641 0.0
C818 C 0.32897 0.47798 0.54914 0.0
H819 H 0.21038 0.37209 0.55648 0.0
H820 H 0.25224 0.40319 0.54073 0.0
H821 H 0.27951 0.46989 0.60069 0.0
H822 H 0.41598 0.53116 0.56244 0.0
H823 H 0.36358 0.52648 0.56058 0.0
C824 C 0.89317 0.75294 0.93747 0.0
C825 C 0.89717 0.76144 0.90885 0.0
C826 C 0.90882 0.73154 0.95107 0.0
C827 C 0.97272 0.68985 0.94339 0.0
H828 H 0.93293 0.63403 0.99706 0.0
C829 C 0.01811 0.58107 0.98129 0.0
C830 C 0.01372 0.56976 0.00922 0.0
C831 C 1.00515 0.60563 0.97045 0.0
C832 C 0.9446 0.64958 0.98243 0.0
H833 H 0.92178 0.75494 0.87246 0.0
H834 H 0.94889 0.71768 0.89585 0.0
H835 H 0.90884 0.67465 0.97606 0.0
H836 H 0.99214 0.57603 0.04764 0.0
H837 H 0.9697 0.61893 0.02885 0.0
H838 H 1.00835 0.66454 0.94951 0.0
C839 C 0.93381 0.72753 0.90806 0.0
C840 C 0.93071 0.67307 0.97031 0.0
C841 C 0.91817 0.74893 0.89452 0.0
C842 C 0.99611 0.58403 0.02606 0.0
C843 C 0.98302 0.60859 0.01516 0.0
C844 C 0.98657 0.66633 0.95545 0.0
C845 C 0.92907 0.71802 0.93647 0.0
C846 C 0.94444 0.69355 0.95041 0.0
C847 C 0.98722 0.61977 0.98711 0.0
C848 C 0.97271 0.64564 0.97504 0.0
H849 H 0.87723 0.76224 0.94913 0.0
H850 H 0.90483 0.72543 0.97304 0.0
H851 H 0.98437 0.70527 0.92863 0.0
H852 H 0.03139 0.57073 0.96755 0.0
H853 H 1.00871 0.61312 0.94869 0.0
C854 C 0.43663 0.71628 0.14981 0.0
C855 C 0.4232 0.69587 0.13261 0.0
C856 C 0.44917 0.74287 0.13819 0.0
C857 C 0.44525 0.79476 0.07724 0.0
H858 H 0.51962 0.82582 0.1018 0.0
C859 C 0.50037 0.90234 0.0272 0.0
C860 C 0.51547 0.92078 0.04518 0.0
C861 C 0.49009 0.8742 0.03693 0.0
C862 C 0.49868 0.81764 0.09495 0.0
H863 H 0.41317 0.68727 0.08956 0.0
H864 H 0.43457 0.73402 0.06939 0.0
H865 H 0.5 0.7779 0.12065 0.0
H866 H 0.53147 0.92426 0.08751 0.0
H867 H 0.5129 0.87557 0.10467 0.0
H868 H 0.44346 0.83468 0.05211 0.0
C869 C 0.43519 0.72938 0.09189 0.0
C870 C 0.48752 0.79014 0.10568 0.0
C871 C 0.42287 0.70265 0.10347 0.0
C872 C 0.52004 0.91053 0.07308 0.0
C873 C 0.50955 0.8825 0.08287 0.0
C874 C 0.45628 0.82237 0.06669 0.0
C875 C 0.44836 0.74978 0.10914 0.0
C876 C 0.46065 0.77849 0.09702 0.0
C877 C 0.49447 0.86396 0.06492 0.0
C878 C 0.48308 0.83422 0.07551 0.0
H879 H 0.43685 0.71206 0.17235 0.0
H880 H 0.45887 0.75836 0.15201 0.0
H881 H 0.42431 0.78644 0.07047 0.0
H882 H 0.49665 0.90955 1.00552 0.0
H883 H 0.47894 0.86039 0.02241 0.0
C884 C 0.07863 0.29276 0.65144 0.0
C885 C 0.07599 0.31837 0.63442 0.0
C886 C 0.06535 0.26637 0.6439 0.0
C887 C 0.03911 0.23193 0.58052 0.0
H888 H 0.01957 0.16664 0.63449 0.0
C889 C 1.00965 0.11445 0.54935 0.0
C890 C 0.02766 0.0949 0.56231 0.0
C891 C 1.00903 0.14218 0.55874 0.0
C892 C 0.02473 0.18477 0.6192 0.0
H893 H 0.0558 0.33694 0.5973 0.0
H894 H 0.03173 0.29097 0.58452 0.0
H895 H 0.02856 0.21527 0.65049 0.0
H896 H 0.05827 0.08854 0.59582 0.0
H897 H 0.05671 0.13659 0.61248 0.0
H898 H 0.03548 0.20116 0.54933 0.0
C899 C 0.04477 0.29104 0.60325 0.0
C900 C 0.03007 0.21259 0.62833 0.0
C901 C 0.05839 0.31741 0.61062 0.0
C902 C 0.04432 0.10322 0.5853 0.0
C903 C 0.04326 0.1306 0.595 0.0
C904 C 0.03334 0.20416 0.57137 0.0
C905 C 0.04882 0.26503 0.6193 0.0
C906 C 0.03832 0.2364 0.60923 0.0
C907 C 0.02588 0.15045 0.58164 0.0
C908 C 0.02702 0.18023 0.59074 0.0
H909 H 0.09237 0.29282 0.6697 0.0
H910 H 0.06941 0.24685 0.65659 0.0
H911 H 0.04575 0.24956 0.56518 0.0
H912 H 0.9966 0.10858 0.53157 0.0
H913 H 0.9955 0.15719 0.5481 0.0
C914 C 0.64244 0.25122 0.45534 0.0
C915 C 0.61931 0.23524 0.44344 0.0
C916 C 0.63835 0.27629 0.46842 0.0
C917 C 0.58546 0.31565 0.50091 0.0
H918 H 0.63125 0.38472 0.47133 0.0
C919 C 0.55469 0.42993 0.51652 0.0
C920 C 0.57626 0.45249 0.5192 0.0
C921 C 0.56139 0.40256 0.51031 0.0
C922 C 0.61866 0.36564 0.48031 0.0
H923 H 0.57367 0.23173 0.43714 0.0
H924 H 0.56638 0.27546 0.46053 0.0
H925 H 0.64035 0.33761 0.4563 0.0
H926 H 0.62181 0.46395 0.51819 0.0
H927 H 0.63365 0.41581 0.50815 0.0
H928 H 0.56384 0.34349 0.52509 0.0
C929 C 0.58767 0.26869 0.45953 0.0
C930 C 0.62384 0.33866 0.47159 0.0
C931 C 0.59182 0.24381 0.44609 0.0
C932 C 0.60473 0.44701 0.51599 0.0
C933 C 0.61148 0.41946 0.51013 0.0
C934 C 0.58052 0.34258 0.50995 0.0
C935 C 0.61099 0.28548 0.47023 0.0
C936 C 0.60698 0.31352 0.48147 0.0
C937 C 0.58985 0.39694 0.50701 0.0
C938 C 0.59671 0.368 0.49935 0.0
H939 H 0.66379 0.24479 0.45366 0.0
H940 H 0.65661 0.28875 0.47675 0.0
H941 H 0.57238 0.29649 0.50903 0.0
H942 H 0.53251 0.43353 0.51872 0.0
H943 H 0.54412 0.38599 0.50749 0.0
loop_
_geom_bond_atom_site_label_1
_geom_bond_atom_site_label_2
_geom_bond_distance
_geom_bond_site_symmetry_2
_ccdc_geom_bond_type
H0 C7 0.929 . S
H1 C10 0.930 . S
H2 C12 0.929 . S
H3 C4 0.969 . S
C4 H3 0.969 . S
C4 O5 1.550 . S
C4 H6 0.973 . S
O5 C4 1.550 . S
O5 C11 1.412 . S
H6 C4 0.973 . S
C7 H0 0.929 . S
C7 C8 1.400 . S
C7 C9 1.364 . S
C8 C7 1.400 . S
C8 C12 1.377 . S
C9 C7 1.364 . S
C9 C10 1.374 . S
C10 H1 0.930 . S
C10 C9 1.374 . S
C10 C11 1.383 . S
C11 O5 1.412 . S
C11 C10 1.383 . S
C11 C12 1.394 . S
C12 H2 0.929 . S
C12 C8 1.377 . S
C12 C11 1.394 . S
H13 C20 0.929 . S
H14 C23 0.930 . S
H15 C25 0.929 . S
H16 C17 0.969 . S
C17 H16 0.969 . S
C17 O18 1.550 . S
C17 H19 0.973 . S
O18 C17 1.550 . S
O18 C24 1.412 . S
H19 C17 0.973 . S
C20 H13 0.929 . S
C20 C21 1.400 . S
C20 C22 1.364 . S
C21 C20 1.400 . S
C21 C25 1.377 . S
C22 C20 1.364 . S
C22 C23 1.374 . S
C23 H14 0.930 . S
C23 C22 1.374 . S
C23 C24 1.383 . S
C24 O18 1.412 . S
C24 C23 1.383 . S
C24 C25 1.394 . S
C25 H15 0.929 . S
C25 C21 1.377 . S
C25 C24 1.394 . S
H26 C33 0.929 . S
H27 C36 0.930 . S
H28 C38 0.929 . S
H29 C30 0.969 . S
C30 H29 0.969 . S
C30 O31 1.550 . S
C30 H32 0.973 . S
O31 C30 1.550 . S
O31 C37 1.412 . S
H32 C30 0.973 . S
C33 H26 0.929 . S
C33 C34 1.400 . S
C33 C35 1.364 . S
C34 C33 1.400 . S
C34 C38 1.377 . S
C35 C33 1.364 . S
C35 C36 1.374 . S
C36 H27 0.930 . S
C36 C35 1.374 . S
C36 C37 1.383 . S
C37 O31 1.412 . S
C37 C36 1.383 . S
C37 C38 1.394 . S
C38 H28 0.929 . S
C38 C34 1.377 . S
C38 C37 1.394 . S
H39 C46 0.929 . S
H40 C49 0.930 . S
H41 C51 0.929 . S
H42 C43 0.969 . S
C43 H42 0.969 . S
C43 O44 1.550 . S
C43 H45 0.973 . S
O44 C43 1.550 . S
O44 C50 1.412 . S
H45 C43 0.973 . S
C46 H39 0.929 . S
C46 C47 1.400 . S
C46 C48 1.364 . S
C47 C46 1.400 . S
C47 C51 1.377 . S
C48 C46 1.364 . S
C48 C49 1.374 . S
C49 H40 0.930 . S
C49 C48 1.374 . S
C49 C50 1.383 . S
C50 O44 1.412 . S
C50 C49 1.383 . S
C50 C51 1.394 . S
C51 H41 0.929 . S
C51 C47 1.377 . S
C51 C50 1.394 . S
H52 C59 0.929 . S
H53 C62 0.930 . S
H54 C64 0.929 . S
H55 C56 0.969 . S
C56 H55 0.969 . S
C56 O57 1.550 . S
C56 H58 0.973 . S
O57 C56 1.550 . S
O57 C63 1.412 . S
H58 C56 0.973 . S
C59 H52 0.929 . S
C59 C60 1.400 . S
C59 C61 1.364 . S
C60 C59 1.400 . S
C60 C64 1.377 . S
C61 C59 1.364 . S
C61 C62 1.374 . S
C62 H53 0.930 . S
C62 C61 1.374 . S
C62 C63 1.383 . S
C63 O57 1.412 . S
C63 C62 1.383 . S
C63 C64 1.394 . S
C64 H54 0.929 . S
C64 C60 1.377 . S
C64 C63 1.394 . S
H65 C72 0.929 . S
H66 C75 0.930 . S
H67 C77 0.929 . S
H68 C69 0.969 . S
C69 H68 0.969 . S
C69 O70 1.550 . S
C69 H71 0.973 . S
O70 C69 1.550 . S
O70 C76 1.412 . S
H71 C69 0.973 . S
C72 H65 0.929 . S
C72 C73 1.400 . S
C72 C74 1.364 . S
C73 C72 1.400 . S
C73 C77 1.377 . S
C74 C72 1.364 . S
C74 C75 1.374 . S
C75 H66 0.930 . S
C75 C74 1.374 . S
C75 C76 1.383 . S
C76 O70 1.412 . S
C76 C75 1.383 . S
C76 C77 1.394 . S
C77 H67 0.929 . S
C77 C73 1.377 . S
C77 C76 1.394 . S
H78 C85 0.929 . S
H79 C88 0.930 . S
H80 C90 0.929 . S
H81 C82 0.969 . S
C82 H81 0.969 . S
C82 O83 1.550 . S
C82 H84 0.973 . S
O83 C82 1.550 . S
O83 C89 1.412 . S
H84 C82 0.973 . S
C85 H78 0.929 . S
C85 C86 1.400 . S
C85 C87 1.364 . S
C86 C85 1.400 . S
C86 C90 1.377 . S
C87 C85 1.364 . S
C87 C88 1.374 . S
C88 H79 0.930 . S
C88 C87 1.374 . S
C88 C89 1.383 . S
C89 O83 1.412 . S
C89 C88 1.383 . S
C89 C90 1.394 . S
C90 H80 0.929 . S
C90 C86 1.377 . S
C90 C89 1.394 . S
H91 C98 0.929 . S
H92 C101 0.930 . S
H93 C103 0.929 . S
H94 C95 0.969 . S
C95 H94 0.969 . S
C95 O96 1.550 . S
C95 H97 0.973 . S
O96 C95 1.550 . S
O96 C102 1.412 . S
H97 C95 0.973 . S
C98 H91 0.929 . S
C98 C99 1.400 . S
C98 C100 1.364 . S
C99 C98 1.400 . S
C99 C103 1.377 . S
C100 C98 1.364 . S
C100 C101 1.374 . S
C101 H92 0.930 . S
C101 C100 1.374 . S
C101 C102 1.383 . S
C102 O96 1.412 . S
C102 C101 1.383 . S
C102 C103 1.394 . S
C103 H93 0.929 . S
C103 C99 1.377 . S
C103 C102 1.394 . S
Co104 N109 2.057 . S
Co104 O121 2.021 1_655 S
Co104 O124 2.062 1_655 S
Co104 O128 2.117 1_545 S
Co104 O129 2.020 . S
C105 O125 1.259 . S
C105 O128 1.258 1_455 S
Co106 N115 2.057 . S
Co106 O122 2.117 . S
Co106 O123 2.020 . S
Co106 O125 2.021 1_545 S
Co106 O130 2.062 1_545 S
C107 N109 1.316 . S
C107 N110 1.347 . S
C107 H112 0.931 . S
C108 N109 1.375 . S
C108 C111 1.350 . S
C108 H113 0.930 1_545 S
N109 Co104 2.057 . S
N109 C107 1.316 . S
N109 C108 1.375 . S
N110 C107 1.347 . S
N110 C111 1.373 . S
C111 C108 1.350 . S
C111 N110 1.373 . S
C111 H132 0.931 . S
H112 C107 0.931 . S
H113 C108 0.930 1_565 S
C114 O121 1.259 . S
C114 O122 1.258 . S
N115 Co106 2.057 . S
N115 C116 1.316 1_545 S
N115 C117 1.375 . S
C116 N115 1.316 1_565 S
C116 N118 1.347 . S
C116 H127 0.931 . S
C117 N115 1.375 . S
C117 C119 1.350 . S
C117 H126 0.930 . S
N118 C116 1.347 . S
N118 C119 1.373 1_565 S
C119 C117 1.350 . S
C119 N118 1.373 1_545 S
C119 H133 0.931 . S
C120 O123 1.256 . S
C120 O124 1.255 . S
O121 Co104 2.021 1_455 S
O121 C114 1.259 . S
O122 Co106 2.117 . S
O122 C114 1.258 . S
O123 Co106 2.020 . S
O123 C120 1.256 . S
O124 Co104 2.062 1_455 S
O124 C120 1.255 . S
O125 C105 1.259 . S
O125 Co106 2.021 1_565 S
H126 C117 0.930 . S
H127 C116 0.931 . S
O128 Co104 2.117 1_565 S
O128 C105 1.258 1_655 S
O129 Co104 2.020 . S
O129 C131 1.256 1_645 S
O130 Co106 2.062 1_565 S
O130 C131 1.255 . S
C131 O129 1.256 1_465 S
C131 O130 1.255 . S
H132 C111 0.931 . S
H133 C119 0.931 . S
Co134 N139 2.057 1_545 S
Co134 O151 2.021 . S
Co134 O154 2.062 1_545 S
Co134 O158 2.117 1_546 S
Co134 O159 2.026 . S
C135 O155 1.259 . S
C135 O158 1.258 . S
Co136 N145 2.057 . S
Co136 O152 2.117 . S
Co136 O153 2.020 . S
Co136 O155 2.021 1_545 S
Co136 O160 2.062 . S
C137 N139 1.316 . S
C137 N140 1.347 . S
C137 H142 0.931 1_565 S
C138 N139 1.375 . S
C138 C141 1.350 . S
C138 H143 0.930 . S
N139 Co134 2.057 1_565 S
N139 C137 1.316 . S
N139 C138 1.375 . S
N140 C137 1.347 . S
N140 C141 1.373 . S
C141 C138 1.350 . S
C141 N140 1.373 . S
C141 H162 0.931 . S
H142 C137 0.931 1_545 S
H143 C138 0.930 . S
C144 O151 1.259 . S
C144 O152 1.258 1_556 S
N145 Co136 2.057 . S
N145 C146 1.316 . S
N145 C147 1.375 . S
C146 N145 1.316 . S
C146 N148 1.347 . S
C146 H157 0.931 . S
C147 N145 1.375 . S
C147 C149 1.350 . S
C147 H156 0.930 . S
N148 C146 1.347 . S
N148 C149 1.373 . S
C149 C147 1.350 . S
C149 N148 1.373 . S
C149 H163 0.931 . S
C150 O153 1.256 1_566 S
C150 O154 1.255 . S
O151 Co134 2.021 . S
O151 C144 1.259 . S
O152 Co136 2.117 . S
O152 C144 1.258 1_554 S
O153 Co136 2.020 . S
O153 C150 1.256 1_544 S
O154 Co134 2.062 1_565 S
O154 C150 1.255 . S
O155 C135 1.259 . S
O155 Co136 2.021 1_565 S
H156 C147 0.930 . S
H157 C146 0.931 . S
O158 Co134 2.117 1_564 S
O158 C135 1.258 . S
O159 Co134 2.026 . S
O159 C161 1.243 1_556 S
O160 Co136 2.062 . S
O160 C161 1.255 . S
C161 O159 1.243 1_554 S
C161 O160 1.255 . S
H162 C141 0.931 . S
H163 C149 0.931 . S
Co164 N169 2.057 . S
Co164 O181 2.021 . S
Co164 O184 2.062 . S
Co164 O188 2.117 . S
Co164 O189 2.020 . S
C165 O185 1.259 . S
C165 O188 1.258 . S
Co166 N175 2.057 . S
Co166 O182 2.117 . S
Co166 O183 2.020 . S
Co166 O185 2.021 . S
Co166 O190 2.062 . S
C167 N169 1.316 . S
C167 N170 1.347 . S
C167 H172 0.931 . S
C168 N169 1.375 . S
C168 C171 1.350 . S
C168 H173 0.930 . S
N169 Co164 2.057 . S
N169 C167 1.316 . S
N169 C168 1.375 . S
N170 C167 1.347 . S
N170 C171 1.373 . S
C171 C168 1.350 . S
C171 N170 1.373 . S
C171 H192 0.931 . S
H172 C167 0.931 . S
H173 C168 0.930 . S
C174 O181 1.259 . S
C174 O182 1.258 . S
N175 Co166 2.057 . S
N175 C176 1.316 . S
N175 C177 1.375 . S
C176 N175 1.316 . S
C176 N178 1.347 . S
C176 H187 0.931 . S
C177 N175 1.375 . S
C177 C179 1.350 . S
C177 H186 0.930 . S
N178 C176 1.347 . S
N178 C179 1.373 . S
C179 C177 1.350 . S
C179 N178 1.373 . S
C179 H193 0.931 . S
C180 O183 1.256 . S
C180 O184 1.255 . S
O181 Co164 2.021 . S
O181 C174 1.259 . S
O182 Co166 2.117 . S
O182 C174 1.258 . S
O183 Co166 2.020 . S
O183 C180 1.256 . S
O184 Co164 2.062 . S
O184 C180 1.255 . S
O185 C165 1.259 . S
O185 Co166 2.021 . S
H186 C177 0.930 . S
H187 C176 0.931 . S
O188 Co164 2.117 . S
O188 C165 1.258 . S
O189 Co164 2.020 . S
O189 C191 1.256 . S
O190 Co166 2.062 . S
O190 C191 1.255 . S
C191 O189 1.256 . S
C191 O190 1.255 . S
H192 C171 0.931 . S
H193 C179 0.931 . S
Co194 N199 2.057 . S
Co194 O211 2.021 1_556 S
Co194 O214 2.062 1_556 S
Co194 O218 2.117 . S
Co194 O219 2.020 . S
C195 O215 1.259 . S
C195 O218 1.258 1_654 S
Co196 N205 2.057 . S
Co196 O212 2.117 . S
Co196 O213 2.020 . S
Co196 O215 2.021 1_455 S
Co196 O220 2.062 . S
C197 N199 1.316 . S
C197 N200 1.347 . S
C197 H202 0.931 . S
C198 N199 1.375 . S
C198 C201 1.350 . S
C198 H203 0.930 . S
N199 Co194 2.057 . S
N199 C197 1.316 . S
N199 C198 1.375 . S
N200 C197 1.347 . S
N200 C201 1.373 . S
C201 C198 1.350 . S
C201 N200 1.373 . S
C201 H222 0.931 . S
H202 C197 0.931 . S
H203 C198 0.930 . S
C204 O211 1.259 . S
C204 O212 1.258 . S
N205 Co196 2.057 . S
N205 C206 1.316 1_455 S
N205 C207 1.375 . S
C206 N205 1.316 1_655 S
C206 N208 1.347 1_655 S
C206 H217 0.931 . S
C207 N205 1.375 . S
C207 C209 1.350 . S
C207 H216 0.930 . S
N208 C206 1.347 1_455 S
N208 C209 1.373 . S
C209 C207 1.350 . S
C209 N208 1.373 . S
C209 H223 0.931 . S
C210 O213 1.256 . S
C210 O214 1.255 . S
O211 Co194 2.021 1_554 S
O211 C204 1.259 . S
O212 Co196 2.117 . S
O212 C204 1.258 . S
O213 Co196 2.020 . S
O213 C210 1.256 . S
O214 Co194 2.062 1_554 S
O214 C210 1.255 . S
O215 C195 1.259 . S
O215 Co196 2.021 1_655 S
H216 C207 0.930 . S
H217 C206 0.931 . S
O218 Co194 2.117 . S
O218 C195 1.258 1_456 S
O219 Co194 2.020 . S
O219 C221 1.256 1_556 S
O220 Co196 2.062 . S
O220 C221 1.255 . S
C221 O219 1.256 1_554 S
C221 O220 1.255 . S
H222 C201 0.931 . S
H223 C209 0.931 . S
C224 C225 1.349 . S
C224 C226 1.327 . S
C224 H249 0.950 . S
C225 C224 1.349 . S
C225 C241 1.349 . S
C226 C224 1.327 . S
C226 C245 1.429 . S
C226 H250 0.950 . S
C227 C244 1.574 . S
C227 C246 1.368 . S
C227 H251 0.949 . S
H228 C232 0.949 . S
C229 C230 1.349 . S
C229 C231 1.327 . S
C229 H252 0.950 . S
C230 C229 1.349 . S
C230 C242 1.349 . S
C231 C229 1.327 . S
C231 C247 1.429 . S
C231 H253 0.950 . S
C232 H228 0.949 . S
C232 C240 1.574 . S
C232 C248 1.368 . S
H233 C241 0.950 . S
H234 C239 0.950 . S
H235 C240 0.949 . S
H236 C242 0.950 . S
H237 C243 0.950 . S
H238 C244 0.949 . S
C239 H234 0.950 . S
C239 C241 1.327 . S
C239 C245 1.429 . S
C240 C232 1.574 . S
C240 H235 0.949 . S
C240 C246 1.368 . S
C241 C225 1.349 . S
C241 H233 0.950 . S
C241 C239 1.327 . S
C242 C230 1.349 . S
C242 H236 0.950 . S
C242 C243 1.327 . S
C243 H237 0.950 . S
C243 C242 1.327 . S
C243 C247 1.429 . S
C244 C227 1.574 . S
C244 H238 0.949 . S
C244 C248 1.368 . S
C245 C226 1.429 . S
C245 C239 1.429 . S
C245 C246 1.523 . S
C246 C227 1.368 . S
C246 C240 1.368 . S
C246 C245 1.523 . S
C247 C231 1.429 . S
C247 C243 1.429 . S
C247 C248 1.523 . S
C248 C232 1.368 . S
C248 C244 1.368 . S
C248 C247 1.523 . S
H249 C224 0.950 . S
H250 C226 0.950 . S
H251 C227 0.949 . S
H252 C229 0.950 . S
H253 C231 0.950 . S
C254 C255 1.349 . S
C254 C256 1.327 . S
C254 H279 0.950 . S
C255 C254 1.349 . S
C255 C271 1.349 . S
C256 C254 1.327 . S
C256 C275 1.429 . S
C256 H280 0.950 . S
C257 C274 1.574 . S
C257 C276 1.368 . S
C257 H281 0.949 . S
H258 C262 0.949 . S
C259 C260 1.349 . S
C259 C261 1.327 . S
C259 H282 0.950 . S
C260 C259 1.349 . S
C260 C272 1.349 . S
C261 C259 1.327 . S
C261 C277 1.429 . S
C261 H283 0.950 . S
C262 H258 0.949 . S
C262 C270 1.574 . S
C262 C278 1.368 . S
H263 C271 0.950 . S
H264 C269 0.950 . S
H265 C270 0.949 . S
H266 C272 0.950 1_545 S
H267 C273 0.950 1_545 S
H268 C274 0.949 . S
C269 H264 0.950 . S
C269 C271 1.327 . S
C269 C275 1.429 . S
C270 C262 1.574 . S
C270 H265 0.949 . S
C270 C276 1.368 . S
C271 C255 1.349 . S
C271 H263 0.950 . S
C271 C269 1.327 . S
C272 C260 1.349 . S
C272 H266 0.950 1_565 S
C272 C273 1.327 . S
C273 H267 0.950 1_565 S
C273 C272 1.327 . S
C273 C277 1.429 . S
C274 C257 1.574 . S
C274 H268 0.949 . S
C274 C278 1.368 . S
C275 C256 1.429 . S
C275 C269 1.429 . S
C275 C276 1.523 . S
C276 C257 1.368 . S
C276 C270 1.368 . S
C276 C275 1.523 . S
C277 C261 1.429 . S
C277 C273 1.429 . S
C277 C278 1.523 . S
C278 C262 1.368 . S
C278 C274 1.368 . S
C278 C277 1.523 . S
H279 C254 0.950 . S
H280 C256 0.950 . S
H281 C257 0.949 . S
H282 C259 0.950 . S
H283 C261 0.950 . S
C284 C285 1.349 . S
C284 C286 1.327 . S
C284 H309 0.950 . S
C285 C284 1.349 . S
C285 C301 1.349 . S
C286 C284 1.327 . S
C286 C305 1.429 . S
C286 H310 0.950 . S
C287 C304 1.574 . S
C287 C306 1.368 . S
C287 H311 0.949 . S
H288 C292 0.949 . S
C289 C290 1.349 . S
C289 C291 1.327 . S
C289 H312 0.950 . S
C290 C289 1.349 . S
C290 C302 1.349 . S
C291 C289 1.327 . S
C291 C307 1.429 . S
C291 H313 0.950 . S
C292 H288 0.949 . S
C292 C300 1.574 . S
C292 C308 1.368 . S
H293 C301 0.950 . S
H294 C299 0.950 . S
H295 C300 0.949 . S
H296 C302 0.950 . S
H297 C303 0.950 . S
H298 C304 0.949 . S
C299 H294 0.950 . S
C299 C301 1.327 . S
C299 C305 1.429 . S
C300 C292 1.574 . S
C300 H295 0.949 . S
C300 C306 1.368 . S
C301 C285 1.349 . S
C301 H293 0.950 . S
C301 C299 1.327 . S
C302 C290 1.349 . S
C302 H296 0.950 . S
C302 C303 1.327 . S
C303 H297 0.950 . S
C303 C302 1.327 . S
C303 C307 1.429 . S
C304 C287 1.574 . S
C304 H298 0.949 . S
C304 C308 1.368 . S
C305 C286 1.429 . S
C305 C299 1.429 . S
C305 C306 1.523 . S
C306 C287 1.368 . S
C306 C300 1.368 . S
C306 C305 1.523 . S
C307 C291 1.429 . S
C307 C303 1.429 . S
C307 C308 1.523 . S
C308 C292 1.368 . S
C308 C304 1.368 . S
C308 C307 1.523 . S
H309 C284 0.950 . S
H310 C286 0.950 . S
H311 C287 0.949 . S
H312 C289 0.950 . S
H313 C291 0.950 . S
C314 C315 1.349 . S
C314 C316 1.327 . S
C314 H339 0.967 . S
C315 C314 1.349 . S
C315 C331 1.349 . S
C316 C314 1.327 . S
C316 C335 1.429 . S
C316 H340 0.950 1_655 S
C317 C334 1.574 . S
C317 C336 1.368 . S
C317 H341 0.949 . S
H318 C322 0.949 . S
C319 C320 1.349 . S
C319 C321 1.327 . S
C319 H342 0.950 . S
C320 C319 1.349 . S
C320 C332 1.349 1_655 S
C321 C319 1.327 . S
C321 C337 1.429 . S
C321 H343 0.950 . S
C322 H318 0.949 . S
C322 C330 1.574 1_455 S
C322 C338 1.368 1_455 S
H323 C331 0.950 . S
H324 C329 0.950 . S
H325 C330 0.949 1_455 S
H326 C332 0.950 . S
H327 C333 0.950 . S
H328 C334 0.949 . S
C329 H324 0.950 . S
C329 C331 1.327 . S
C329 C335 1.429 . S
C330 C322 1.574 1_655 S
C330 H325 0.949 1_655 S
C330 C336 1.368 . S
C331 C315 1.349 . S
C331 H323 0.950 . S
C331 C329 1.327 . S
C332 C320 1.349 1_455 S
C332 H326 0.950 . S
C332 C333 1.327 . S
C333 H327 0.950 . S
C333 C332 1.327 . S
C333 C337 1.429 1_455 S
C334 C317 1.574 . S
C334 H328 0.949 . S
C334 C338 1.368 . S
C335 C316 1.429 . S
C335 C329 1.429 . S
C335 C336 1.523 . S
C336 C317 1.368 . S
C336 C330 1.368 . S
C336 C335 1.523 . S
C337 C321 1.429 . S
C337 C333 1.429 1_655 S
C337 C338 1.523 . S
C338 C322 1.368 1_655 S
C338 C334 1.368 . S
C338 C337 1.523 . S
H339 C314 0.967 . S
H340 C316 0.950 1_455 S
H341 C317 0.949 . S
H342 C319 0.950 . S
H343 C321 0.950 . S
C344 C345 1.349 . S
C344 C346 1.327 . S
C344 H369 0.950 . S
C345 C344 1.349 . S
C345 C361 1.349 . S
C346 C344 1.327 . S
C346 C365 1.429 . S
C346 H370 0.950 . S
C347 C364 1.574 . S
C347 C366 1.368 . S
C347 H371 0.949 . S
H348 C352 0.949 . S
C349 C350 1.349 . S
C349 C351 1.327 . S
C349 H372 0.948 1_554 S
C350 C349 1.349 . S
C350 C362 1.349 . S
C351 C349 1.327 . S
C351 C367 1.429 . S
C351 H373 0.950 . S
C352 H348 0.949 . S
C352 C360 1.574 . S
C352 C368 1.368 . S
H353 C361 0.950 . S
H354 C359 0.950 . S
H355 C360 0.949 . S
H356 C362 0.950 . S
H357 C363 0.950 . S
H358 C364 0.949 . S
C359 H354 0.950 . S
C359 C361 1.327 . S
C359 C365 1.429 . S
C360 C352 1.574 . S
C360 H355 0.949 . S
C360 C366 1.368 . S
C361 C345 1.349 . S
C361 H353 0.950 . S
C361 C359 1.327 . S
C362 C350 1.349 . S
C362 H356 0.950 . S
C362 C363 1.327 . S
C363 H357 0.950 . S
C363 C362 1.327 . S
C363 C367 1.429 . S
C364 C347 1.574 . S
C364 H358 0.949 . S
C364 C368 1.368 . S
C365 C346 1.429 . S
C365 C359 1.429 . S
C365 C366 1.523 . S
C366 C347 1.368 . S
C366 C360 1.368 . S
C366 C365 1.523 . S
C367 C351 1.429 . S
C367 C363 1.429 . S
C367 C368 1.523 . S
C368 C352 1.368 . S
C368 C364 1.368 . S
C368 C367 1.523 . S
H369 C344 0.950 . S
H370 C346 0.950 . S
H371 C347 0.949 . S
H372 C349 0.948 1_556 S
H373 C351 0.950 . S
C374 C375 1.349 . S
C374 C376 1.327 . S
C374 H399 0.950 . S
C375 C374 1.349 . S
C375 C391 1.349 . S
C376 C374 1.327 . S
C376 C395 1.429 . S
C376 H400 0.950 . S
C377 C394 1.574 . S
C377 C396 1.368 . S
C377 H401 0.949 . S
H378 C382 0.949 . S
C379 C380 1.349 . S
C379 C381 1.327 . S
C379 H402 0.950 . S
C380 C379 1.349 . S
C380 C392 1.349 . S
C381 C379 1.327 . S
C381 C397 1.429 . S
C381 H403 0.950 . S
C382 H378 0.949 . S
C382 C390 1.574 . S
C382 C398 1.368 . S
H383 C391 0.950 . S
H384 C389 0.950 . S
H385 C390 0.949 . S
H386 C392 0.950 . S
H387 C393 0.950 . S
H388 C394 0.949 . S
C389 H384 0.950 . S
C389 C391 1.327 . S
C389 C395 1.429 . S
C390 C382 1.574 . S
C390 H385 0.949 . S
C390 C396 1.368 . S
C391 C375 1.349 . S
C391 H383 0.950 . S
C391 C389 1.327 . S
C392 C380 1.349 . S
C392 H386 0.950 . S
C392 C393 1.327 . S
C393 H387 0.950 . S
C393 C392 1.327 . S
C393 C397 1.429 . S
C394 C377 1.574 . S
C394 H388 0.949 . S
C394 C398 1.368 . S
C395 C376 1.429 . S
C395 C389 1.429 . S
C395 C396 1.523 . S
C396 C377 1.368 . S
C396 C390 1.368 . S
C396 C395 1.523 . S
C397 C381 1.429 . S
C397 C393 1.429 . S
C397 C398 1.523 . S
C398 C382 1.368 . S
C398 C394 1.368 . S
C398 C397 1.523 . S
H399 C374 0.950 . S
H400 C376 0.950 . S
H401 C377 0.949 . S
H402 C379 0.950 . S
H403 C381 0.950 . S
C404 C405 1.349 . S
C404 C406 1.327 . S
C404 H429 0.950 . S
C405 C404 1.349 . S
C405 C421 1.349 . S
C406 C404 1.327 . S
C406 C425 1.429 . S
C406 H430 0.950 . S
C407 C424 1.574 . S
C407 C426 1.368 . S
C407 H431 0.949 . S
H408 C412 0.949 . S
C409 C410 1.349 1_556 S
C409 C411 1.327 . S
C409 H432 0.950 . S
C410 C409 1.349 1_554 S
C410 C422 1.349 . S
C411 C409 1.327 . S
C411 C427 1.429 . S
C411 H433 0.950 . S
C412 H408 0.949 . S
C412 C420 1.574 . S
C412 C428 1.368 . S
H413 C421 0.950 . S
H414 C419 0.950 . S
H415 C420 0.949 . S
H416 C422 0.950 . S
H417 C423 0.951 . S
H418 C424 0.949 . S
C419 H414 0.950 . S
C419 C421 1.327 . S
C419 C425 1.429 . S
C420 C412 1.574 . S
C420 H415 0.949 . S
C420 C426 1.368 . S
C421 C405 1.349 . S
C421 H413 0.950 . S
C421 C419 1.327 . S
C422 C410 1.349 . S
C422 H416 0.950 . S
C422 C423 1.329 . S
C423 H417 0.951 . S
C423 C422 1.329 . S
C423 C427 1.425 1_554 S
C424 C407 1.574 . S
C424 H418 0.949 . S
C424 C428 1.368 . S
C425 C406 1.429 . S
C425 C419 1.429 . S
C425 C426 1.523 . S
C426 C407 1.368 . S
C426 C420 1.368 . S
C426 C425 1.523 . S
C427 C411 1.429 . S
C427 C423 1.425 1_556 S
C427 C428 1.523 . S
C428 C412 1.368 . S
C428 C424 1.368 . S
C428 C427 1.523 . S
H429 C404 0.950 . S
H430 C406 0.950 . S
H431 C407 0.949 . S
H432 C409 0.950 . S
H433 C411 0.950 . S
C434 C435 1.349 . S
C434 C436 1.327 . S
C434 H459 0.950 . S
C435 C434 1.349 . S
C435 C451 1.349 . S
C436 C434 1.327 . S
C436 C455 1.429 . S
C436 H460 0.950 . S
C437 C454 1.574 . S
C437 C456 1.368 . S
C437 H461 0.949 . S
H438 C442 0.949 . S
C439 C440 1.349 . S
C439 C441 1.327 . S
C439 H462 0.950 . S
C440 C439 1.349 . S
C440 C452 1.349 . S
C441 C439 1.327 . S
C441 C457 1.429 . S
C441 H463 0.950 . S
C442 H438 0.949 . S
C442 C450 1.574 . S
C442 C458 1.368 . S
H443 C451 0.950 . S
H444 C449 0.950 . S
H445 C450 0.949 . S
H446 C452 0.950 . S
H447 C453 0.950 . S
H448 C454 0.949 . S
C449 H444 0.950 . S
C449 C451 1.327 . S
C449 C455 1.429 . S
C450 C442 1.574 . S
C450 H445 0.949 . S
C450 C456 1.368 . S
C451 C435 1.349 . S
C451 H443 0.950 . S
C451 C449 1.327 . S
C452 C440 1.349 . S
C452 H446 0.950 . S
C452 C453 1.327 . S
C453 H447 0.950 . S
C453 C452 1.327 . S
C453 C457 1.429 . S
C454 C437 1.574 . S
C454 H448 0.949 . S
C454 C458 1.368 . S
C455 C436 1.429 . S
C455 C449 1.429 . S
C455 C456 1.523 . S
C456 C437 1.368 . S
C456 C450 1.368 . S
C456 C455 1.523 . S
C457 C441 1.429 . S
C457 C453 1.429 . S
C457 C458 1.523 . S
C458 C442 1.368 . S
C458 C454 1.368 . S
C458 C457 1.523 . S
H459 C434 0.950 . S
H460 C436 0.950 . S
H461 C437 0.949 . S
H462 C439 0.950 . S
H463 C441 0.950 . S
C464 C465 1.349 . S
C464 C466 1.327 . S
C464 H489 0.950 . S
C465 C464 1.349 . S
C465 C481 1.349 . S
C466 C464 1.327 . S
C466 C485 1.429 . S
C466 H490 0.950 . S
C467 C484 1.574 . S
C467 C486 1.368 . S
C467 H491 0.949 . S
H468 C472 0.949 . S
C469 C470 1.349 . S
C469 C471 1.327 . S
C469 H492 0.950 . S
C470 C469 1.349 . S
C470 C482 1.349 . S
C471 C469 1.327 . S
C471 C487 1.429 . S
C471 H493 0.950 . S
C472 H468 0.949 . S
C472 C480 1.574 . S
C472 C488 1.368 . S
H473 C481 0.950 . S
H474 C479 0.950 . S
H475 C480 0.949 . S
H476 C482 0.950 . S
H477 C483 0.950 . S
H478 C484 0.949 . S
C479 H474 0.950 . S
C479 C481 1.327 . S
C479 C485 1.429 . S
C480 C472 1.574 . S
C480 H475 0.949 . S
C480 C486 1.368 . S
C481 C465 1.349 . S
C481 H473 0.950 . S
C481 C479 1.327 . S
C482 C470 1.349 . S
C482 H476 0.950 . S
C482 C483 1.327 . S
C483 H477 0.950 . S
C483 C482 1.327 . S
C483 C487 1.429 . S
C484 C467 1.574 . S
C484 H478 0.949 . S
C484 C488 1.368 . S
C485 C466 1.429 . S
C485 C479 1.429 . S
C485 C486 1.523 . S
C486 C467 1.368 . S
C486 C480 1.368 . S
C486 C485 1.523 . S
C487 C471 1.429 . S
C487 C483 1.429 . S
C487 C488 1.523 . S
C488 C472 1.368 . S
C488 C484 1.368 . S
C488 C487 1.523 . S
H489 C464 0.950 . S
H490 C466 0.950 . S
H491 C467 0.949 . S
H492 C469 0.950 . S
H493 C471 0.950 . S
C494 C495 1.349 . S
C494 C496 1.327 . S
C494 H519 0.950 . S
C495 C494 1.349 . S
C495 C511 1.349 . S
C496 C494 1.327 . S
C496 C515 1.429 . S
C496 H520 0.950 . S
C497 C514 1.574 . S
C497 C516 1.368 . S
C497 H521 0.949 . S
H498 C502 0.949 . S
C499 C500 1.349 . S
C499 C501 1.327 . S
C499 H522 0.950 . S
C500 C499 1.349 . S
C500 C512 1.349 . S
C501 C499 1.327 . S
C501 C517 1.429 . S
C501 H523 0.950 . S
C502 H498 0.949 . S
C502 C510 1.574 . S
C502 C518 1.368 . S
H503 C511 0.950 . S
H504 C509 0.950 . S
H505 C510 0.949 . S
H506 C512 0.950 . S
H507 C513 0.950 . S
H508 C514 0.949 . S
C509 H504 0.950 . S
C509 C511 1.327 . S
C509 C515 1.429 . S
C510 C502 1.574 . S
C510 H505 0.949 . S
C510 C516 1.368 . S
C511 C495 1.349 . S
C511 H503 0.950 . S
C511 C509 1.327 . S
C512 C500 1.349 . S
C512 H506 0.950 . S
C512 C513 1.327 . S
C513 H507 0.950 . S
C513 C512 1.327 . S
C513 C517 1.429 . S
C514 C497 1.574 . S
C514 H508 0.949 . S
C514 C518 1.368 . S
C515 C496 1.429 . S
C515 C509 1.429 . S
C515 C516 1.523 . S
C516 C497 1.368 . S
C516 C510 1.368 . S
C516 C515 1.523 . S
C517 C501 1.429 . S
C517 C513 1.429 . S
C517 C518 1.523 . S
C518 C502 1.368 . S
C518 C514 1.368 . S
C518 C517 1.523 . S
H519 C494 0.950 . S
H520 C496 0.950 . S
H521 C497 0.949 . S
H522 C499 0.950 . S
H523 C501 0.950 . S
C524 C525 1.349 . S
C524 C526 1.327 . S
C524 H549 0.950 . S
C525 C524 1.349 . S
C525 C541 1.349 . S
C526 C524 1.327 . S
C526 C545 1.429 . S
C526 H550 0.950 . S
C527 C544 1.574 . S
C527 C546 1.368 . S
C527 H551 0.949 1_655 S
H528 C532 0.949 . S
C529 C530 1.349 1_455 S
C529 C531 1.327 . S
C529 H552 0.950 . S
C530 C529 1.349 1_655 S
C530 C542 1.349 . S
C531 C529 1.327 . S
C531 C547 1.429 1_455 S
C531 H553 0.950 . S
C532 H528 0.949 . S
C532 C540 1.574 . S
C532 C548 1.368 . S
H533 C541 0.950 . S
H534 C539 0.953 . S
H535 C540 0.949 . S
H536 C542 0.950 . S
H537 C543 0.950 . S
H538 C544 0.942 1_455 S
C539 H534 0.953 . S
C539 C541 1.327 . S
C539 C545 1.429 . S
C540 C532 1.574 . S
C540 H535 0.949 . S
C540 C546 1.368 . S
C541 C525 1.349 . S
C541 H533 0.950 . S
C541 C539 1.327 . S
C542 C530 1.349 . S
C542 H536 0.950 . S
C542 C543 1.327 . S
C543 H537 0.950 . S
C543 C542 1.327 . S
C543 C547 1.429 . S
C544 C527 1.574 . S
C544 H538 0.942 1_655 S
C544 C548 1.376 . S
C545 C526 1.429 . S
C545 C539 1.429 . S
C545 C546 1.523 . S
C546 C527 1.368 . S
C546 C540 1.368 . S
C546 C545 1.523 . S
C547 C531 1.429 1_655 S
C547 C543 1.429 . S
C547 C548 1.523 . S
C548 C532 1.368 . S
C548 C544 1.376 . S
C548 C547 1.523 . S
H549 C524 0.950 . S
H550 C526 0.950 . S
H551 C527 0.949 1_455 S
H552 C529 0.950 . S
H553 C531 0.950 . S
C554 C555 1.349 . S
C554 C556 1.327 . S
C554 H579 0.950 . S
C555 C554 1.349 . S
C555 C571 1.349 . S
C556 C554 1.327 . S
C556 C575 1.429 . S
C556 H580 0.950 . S
C557 C574 1.574 . S
C557 C576 1.368 . S
C557 H581 0.949 . S
H558 C562 0.949 . S
C559 C560 1.349 . S
C559 C561 1.327 . S
C559 H582 0.950 . S
C560 C559 1.349 . S
C560 C572 1.349 . S
C561 C559 1.327 . S
C561 C577 1.429 . S
C561 H583 0.950 . S
C562 H558 0.949 . S
C562 C570 1.574 . S
C562 C578 1.368 . S
H563 C571 0.950 . S
H564 C569 0.950 . S
H565 C570 0.949 . S
H566 C572 0.950 . S
H567 C573 0.950 . S
H568 C574 0.949 . S
C569 H564 0.950 . S
C569 C571 1.327 . S
C569 C575 1.429 . S
C570 C562 1.574 . S
C570 H565 0.949 . S
C570 C576 1.368 . S
C571 C555 1.349 . S
C571 H563 0.950 . S
C571 C569 1.327 . S
C572 C560 1.349 . S
C572 H566 0.950 . S
C572 C573 1.327 . S
C573 H567 0.950 . S
C573 C572 1.327 . S
C573 C577 1.429 . S
C574 C557 1.574 . S
C574 H568 0.949 . S
C574 C578 1.368 . S
C575 C556 1.429 . S
C575 C569 1.429 . S
C575 C576 1.523 . S
C576 C557 1.368 . S
C576 C570 1.368 . S
C576 C575 1.523 . S
C577 C561 1.429 . S
C577 C573 1.429 . S
C577 C578 1.523 . S
C578 C562 1.368 . S
C578 C574 1.368 . S
C578 C577 1.523 . S
H579 C554 0.950 . S
H580 C556 0.950 . S
H581 C557 0.949 . S
H582 C559 0.950 . S
H583 C561 0.950 . S
C584 C585 1.349 . S
C584 C586 1.327 . S
C584 H609 0.950 . S
C585 C584 1.349 . S
C585 C601 1.349 . S
C586 C584 1.327 . S
C586 C605 1.429 . S
C586 H610 0.950 . S
C587 C604 1.574 . S
C587 C606 1.368 . S
C587 H611 0.949 . S
H588 C592 0.949 . S
C589 C590 1.349 . S
C589 C591 1.327 . S
C589 H612 0.950 . S
C590 C589 1.349 . S
C590 C602 1.349 1_665 S
C591 C589 1.327 . S
C591 C607 1.429 . S
C591 H613 0.950 . S
C592 H588 0.949 . S
C592 C600 1.574 . S
C592 C608 1.368 . S
H593 C601 0.950 . S
H594 C599 0.950 . S
H595 C600 0.949 . S
H596 C602 0.950 . S
H597 C603 0.950 1_445 S
H598 C604 0.949 . S
C599 H594 0.950 . S
C599 C601 1.327 . S
C599 C605 1.429 . S
C600 C592 1.574 . S
C600 H595 0.949 . S
C600 C606 1.368 . S
C601 C585 1.349 . S
C601 H593 0.950 . S
C601 C599 1.327 . S
C602 C590 1.349 1_445 S
C602 H596 0.950 . S
C602 C603 1.327 1_445 S
C603 H597 0.950 1_665 S
C603 C602 1.327 1_665 S
C603 C607 1.429 . S
C604 C587 1.574 . S
C604 H598 0.949 . S
C604 C608 1.368 . S
C605 C586 1.429 . S
C605 C599 1.429 . S
C605 C606 1.523 . S
C606 C587 1.368 . S
C606 C600 1.368 . S
C606 C605 1.523 . S
C607 C591 1.429 . S
C607 C603 1.429 . S
C607 C608 1.523 . S
C608 C592 1.368 . S
C608 C604 1.368 . S
C608 C607 1.523 . S
H609 C584 0.950 . S
H610 C586 0.950 . S
H611 C587 0.949 . S
H612 C589 0.950 . S
H613 C591 0.950 . S
C614 C615 1.349 . S
C614 C616 1.327 . S
C614 H639 0.950 . S
C615 C614 1.349 . S
C615 C631 1.349 . S
C616 C614 1.327 . S
C616 C635 1.429 . S
C616 H640 0.950 . S
C617 C634 1.574 . S
C617 C636 1.368 . S
C617 H641 0.949 . S
H618 C622 0.949 . S
C619 C620 1.349 . S
C619 C621 1.327 . S
C619 H642 0.950 . S
C620 C619 1.349 . S
C620 C632 1.349 . S
C621 C619 1.327 . S
C621 C637 1.429 . S
C621 H643 0.950 . S
C622 H618 0.949 . S
C622 C630 1.574 . S
C622 C638 1.368 . S
H623 C631 0.950 . S
H624 C629 0.950 . S
H625 C630 0.949 . S
H626 C632 0.950 . S
H627 C633 0.950 . S
H628 C634 0.949 . S
C629 H624 0.950 . S
C629 C631 1.327 . S
C629 C635 1.429 . S
C630 C622 1.574 . S
C630 H625 0.949 . S
C630 C636 1.368 . S
C631 C615 1.349 . S
C631 H623 0.950 . S
C631 C629 1.327 . S
C632 C620 1.349 . S
C632 H626 0.950 . S
C632 C633 1.327 . S
C633 H627 0.950 . S
C633 C632 1.327 . S
C633 C637 1.429 . S
C634 C617 1.574 . S
C634 H628 0.949 . S
C634 C638 1.368 . S
C635 C616 1.429 . S
C635 C629 1.429 . S
C635 C636 1.523 . S
C636 C617 1.368 . S
C636 C630 1.368 . S
C636 C635 1.523 . S
C637 C621 1.429 . S
C637 C633 1.429 . S
C637 C638 1.523 . S
C638 C622 1.368 . S
C638 C634 1.368 . S
C638 C637 1.523 . S
H639 C614 0.950 . S
H640 C616 0.950 . S
H641 C617 0.949 . S
H642 C619 0.950 . S
H643 C621 0.950 . S
C644 C645 1.349 . S
C644 C646 1.327 . S
C644 H669 0.950 . S
C645 C644 1.349 . S
C645 C661 1.349 . S
C646 C644 1.327 . S
C646 C665 1.429 . S
C646 H670 0.950 . S
C647 C664 1.574 . S
C647 C666 1.368 . S
C647 H671 0.949 . S
H648 C652 0.949 . S
C649 C650 1.349 . S
C649 C651 1.327 . S
C649 H672 0.950 . S
C650 C649 1.349 . S
C650 C662 1.349 . S
C651 C649 1.327 . S
C651 C667 1.429 . S
C651 H673 0.950 . S
C652 H648 0.949 . S
C652 C660 1.574 . S
C652 C668 1.368 . S
H653 C661 0.950 . S
H654 C659 0.950 . S
H655 C660 0.949 . S
H656 C662 0.950 . S
H657 C663 0.950 . S
H658 C664 0.949 . S
C659 H654 0.950 . S
C659 C661 1.327 . S
C659 C665 1.429 . S
C660 C652 1.574 . S
C660 H655 0.949 . S
C660 C666 1.368 . S
C661 C645 1.349 . S
C661 H653 0.950 . S
C661 C659 1.327 . S
C662 C650 1.349 . S
C662 H656 0.950 . S
C662 C663 1.327 . S
C663 H657 0.950 . S
C663 C662 1.327 . S
C663 C667 1.429 . S
C664 C647 1.574 . S
C664 H658 0.949 . S
C664 C668 1.368 . S
C665 C646 1.429 . S
C665 C659 1.429 . S
C665 C666 1.523 . S
C666 C647 1.368 . S
C666 C660 1.368 . S
C666 C665 1.523 . S
C667 C651 1.429 . S
C667 C663 1.429 . S
C667 C668 1.523 . S
C668 C652 1.368 . S
C668 C664 1.368 . S
C668 C667 1.523 . S
H669 C644 0.950 . S
H670 C646 0.950 . S
H671 C647 0.949 . S
H672 C649 0.950 . S
H673 C651 0.950 . S
C674 C675 1.349 . S
C674 C676 1.327 . S
C674 H699 0.950 . S
C675 C674 1.349 . S
C675 C691 1.349 . S
C676 C674 1.327 . S
C676 C695 1.429 . S
C676 H700 0.950 . S
C677 C694 1.574 . S
C677 C696 1.368 . S
C677 H701 0.949 . S
H678 C682 0.949 . S
C679 C680 1.349 . S
C679 C681 1.327 . S
C679 H702 0.950 . S
C680 C679 1.349 . S
C680 C692 1.349 . S
C681 C679 1.327 . S
C681 C697 1.429 . S
C681 H703 0.950 . S
C682 H678 0.949 . S
C682 C690 1.574 . S
C682 C698 1.368 . S
H683 C691 0.950 . S
H684 C689 0.950 . S
H685 C690 0.949 . S
H686 C692 0.950 . S
H687 C693 0.950 . S
H688 C694 0.949 . S
C689 H684 0.950 . S
C689 C691 1.327 . S
C689 C695 1.429 . S
C690 C682 1.574 . S
C690 H685 0.949 . S
C690 C696 1.368 . S
C691 C675 1.349 . S
C691 H683 0.950 . S
C691 C689 1.327 . S
C692 C680 1.349 . S
C692 H686 0.950 . S
C692 C693 1.327 . S
C693 H687 0.950 . S
C693 C692 1.327 . S
C693 C697 1.429 . S
C694 C677 1.574 . S
C694 H688 0.949 . S
C694 C698 1.368 . S
C695 C676 1.429 . S
C695 C689 1.429 . S
C695 C696 1.523 . S
C696 C677 1.368 . S
C696 C690 1.368 . S
C696 C695 1.523 . S
C697 C681 1.429 . S
C697 C693 1.429 . S
C697 C698 1.523 . S
C698 C682 1.368 . S
C698 C694 1.368 . S
C698 C697 1.523 . S
H699 C674 0.950 . S
H700 C676 0.950 . S
H701 C677 0.949 . S
H702 C679 0.950 . S
H703 C681 0.950 . S
C704 C705 1.349 . S
C704 C706 1.327 . S
C704 H729 0.950 . S
C705 C704 1.349 . S
C705 C721 1.349 . S
C706 C704 1.327 . S
C706 C725 1.429 . S
C706 H730 0.950 . S
C707 C724 1.574 . S
C707 C726 1.368 . S
C707 H731 0.949 . S
H708 C712 0.949 . S
C709 C710 1.349 . S
C709 C711 1.327 . S
C709 H732 0.950 1_556 S
C710 C709 1.349 . S
C710 C722 1.357 . S
C711 C709 1.327 . S
C711 C727 1.429 . S
C711 H733 0.950 . S
C712 H708 0.949 . S
C712 C720 1.574 . S
C712 C728 1.368 . S
H713 C721 0.950 . S
H714 C719 0.950 . S
H715 C720 0.949 . S
H716 C722 0.935 1_545 S
H717 C723 0.950 1_545 S
H718 C724 0.949 . S
C719 H714 0.950 . S
C719 C721 1.327 . S
C719 C725 1.429 . S
C720 C712 1.574 . S
C720 H715 0.949 . S
C720 C726 1.368 . S
C721 C705 1.349 . S
C721 H713 0.950 . S
C721 C719 1.327 . S
C722 C710 1.357 . S
C722 H716 0.935 1_565 S
C722 C723 1.333 . S
C723 H717 0.950 1_565 S
C723 C722 1.333 . S
C723 C727 1.429 . S
C724 C707 1.574 . S
C724 H718 0.949 . S
C724 C728 1.368 . S
C725 C706 1.429 . S
C725 C719 1.429 . S
C725 C726 1.523 . S
C726 C707 1.368 . S
C726 C720 1.368 . S
C726 C725 1.523 . S
C727 C711 1.429 . S
C727 C723 1.429 . S
C727 C728 1.523 . S
C728 C712 1.368 . S
C728 C724 1.368 . S
C728 C727 1.523 . S
H729 C704 0.950 . S
H730 C706 0.950 . S
H731 C707 0.949 . S
H732 C709 0.950 1_554 S
H733 C711 0.950 . S
C734 C735 1.349 . S
C734 C736 1.327 . S
C734 H759 0.950 . S
C735 C734 1.349 . S
C735 C751 1.349 . S
C736 C734 1.327 . S
C736 C755 1.429 . S
C736 H760 0.950 . S
C737 C754 1.574 . S
C737 C756 1.368 . S
C737 H761 0.949 . S
H738 C742 0.949 . S
C739 C740 1.349 . S
C739 C741 1.327 . S
C739 H762 0.950 . S
C740 C739 1.349 . S
C740 C752 1.349 . S
C741 C739 1.327 . S
C741 C757 1.429 . S
C741 H763 0.950 . S
C742 H738 0.949 . S
C742 C750 1.574 . S
C742 C758 1.368 . S
H743 C751 0.950 . S
H744 C749 0.950 . S
H745 C750 0.949 . S
H746 C752 0.950 . S
H747 C753 0.950 . S
H748 C754 0.949 . S
C749 H744 0.950 . S
C749 C751 1.327 . S
C749 C755 1.429 . S
C750 C742 1.574 . S
C750 H745 0.949 . S
C750 C756 1.368 . S
C751 C735 1.349 . S
C751 H743 0.950 . S
C751 C749 1.327 . S
C752 C740 1.349 . S
C752 H746 0.950 . S
C752 C753 1.327 . S
C753 H747 0.950 . S
C753 C752 1.327 . S
C753 C757 1.429 . S
C754 C737 1.574 . S
C754 H748 0.949 . S
C754 C758 1.368 . S
C755 C736 1.429 . S
C755 C749 1.429 . S
C755 C756 1.523 . S
C756 C737 1.368 . S
C756 C750 1.368 . S
C756 C755 1.523 . S
C757 C741 1.429 . S
C757 C753 1.429 . S
C757 C758 1.523 . S
C758 C742 1.368 . S
C758 C754 1.368 . S
C758 C757 1.523 . S
H759 C734 0.950 . S
H760 C736 0.950 . S
H761 C737 0.949 . S
H762 C739 0.950 . S
H763 C741 0.950 . S
C764 C765 1.349 . S
C764 C766 1.327 . S
C764 H789 0.950 . S
C765 C764 1.349 . S
C765 C781 1.349 . S
C766 C764 1.327 . S
C766 C785 1.429 . S
C766 H790 0.950 . S
C767 C784 1.574 . S
C767 C786 1.368 . S
C767 H791 0.949 . S
H768 C772 0.949 . S
C769 C770 1.349 . S
C769 C771 1.327 . S
C769 H792 0.950 . S
C770 C769 1.349 . S
C770 C782 1.349 . S
C771 C769 1.327 . S
C771 C787 1.429 . S
C771 H793 0.950 . S
C772 H768 0.949 . S
C772 C780 1.574 . S
C772 C788 1.368 . S
H773 C781 0.950 . S
H774 C779 0.950 . S
H775 C780 0.949 . S
H776 C782 0.950 . S
H777 C783 0.950 . S
H778 C784 0.949 . S
C779 H774 0.950 . S
C779 C781 1.327 . S
C779 C785 1.429 . S
C780 C772 1.574 . S
C780 H775 0.949 . S
C780 C786 1.368 . S
C781 C765 1.349 . S
C781 H773 0.950 . S
C781 C779 1.327 . S
C782 C770 1.349 . S
C782 H776 0.950 . S
C782 C783 1.327 . S
C783 H777 0.950 . S
C783 C782 1.327 . S
C783 C787 1.429 . S
C784 C767 1.574 . S
C784 H778 0.949 . S
C784 C788 1.368 . S
C785 C766 1.429 . S
C785 C779 1.429 . S
C785 C786 1.523 . S
C786 C767 1.368 . S
C786 C780 1.368 . S
C786 C785 1.523 . S
C787 C771 1.429 . S
C787 C783 1.429 . S
C787 C788 1.523 . S
C788 C772 1.368 . S
C788 C784 1.368 . S
C788 C787 1.523 . S
H789 C764 0.950 . S
H790 C766 0.950 . S
H791 C767 0.949 . S
H792 C769 0.950 . S
H793 C771 0.950 . S
C794 C795 1.349 . S
C794 C796 1.327 . S
C794 H819 0.950 . S
C795 C794 1.349 . S
C795 C811 1.349 . S
C796 C794 1.327 . S
C796 C815 1.429 . S
C796 H820 0.950 . S
C797 C814 1.574 . S
C797 C816 1.368 . S
C797 H821 0.949 . S
H798 C802 0.949 . S
C799 C800 1.349 . S
C799 C801 1.327 . S
C799 H822 0.950 . S
C800 C799 1.349 . S
C800 C812 1.349 . S
C801 C799 1.327 . S
C801 C817 1.429 . S
C801 H823 0.950 . S
C802 H798 0.949 . S
C802 C810 1.574 . S
C802 C818 1.368 . S
H803 C811 0.950 . S
H804 C809 0.950 . S
H805 C810 0.949 . S
H806 C812 0.950 . S
H807 C813 0.950 . S
H808 C814 0.949 . S
C809 H804 0.950 . S
C809 C811 1.327 . S
C809 C815 1.429 . S
C810 C802 1.574 . S
C810 H805 0.949 . S
C810 C816 1.368 . S
C811 C795 1.349 . S
C811 H803 0.950 . S
C811 C809 1.327 . S
C812 C800 1.349 . S
C812 H806 0.950 . S
C812 C813 1.327 . S
C813 H807 0.950 . S
C813 C812 1.327 . S
C813 C817 1.429 . S
C814 C797 1.574 . S
C814 H808 0.949 . S
C814 C818 1.368 . S
C815 C796 1.429 . S
C815 C809 1.429 . S
C815 C816 1.523 . S
C816 C797 1.368 . S
C816 C810 1.368 . S
C816 C815 1.523 . S
C817 C801 1.429 . S
C817 C813 1.429 . S
C817 C818 1.523 . S
C818 C802 1.368 . S
C818 C814 1.368 . S
C818 C817 1.523 . S
H819 C794 0.950 . S
H820 C796 0.950 . S
H821 C797 0.949 . S
H822 C799 0.950 . S
H823 C801 0.950 . S
C824 C825 1.349 . S
C824 C826 1.327 . S
C824 H849 0.950 . S
C825 C824 1.349 . S
C825 C841 1.349 . S
C826 C824 1.327 . S
C826 C845 1.429 . S
C826 H850 0.950 . S
C827 C844 1.574 . S
C827 C846 1.368 . S
C827 H851 0.949 . S
H828 C832 0.949 . S
C829 C830 1.334 1_556 S
C829 C831 1.327 . S
C829 H852 0.950 . S
C830 C829 1.334 1_554 S
C830 C842 1.361 1_455 S
C831 C829 1.327 . S
C831 C847 1.429 1_455 S
C831 H853 0.950 . S
C832 H828 0.949 . S
C832 C840 1.574 1_554 S
C832 C848 1.368 1_554 S
H833 C841 0.950 . S
H834 C839 0.950 . S
H835 C840 0.949 1_554 S
H836 C842 0.950 . S
H837 C843 0.950 . S
H838 C844 0.949 1_455 S
C839 H834 0.950 . S
C839 C841 1.327 . S
C839 C845 1.429 . S
C840 C832 1.574 1_556 S
C840 H835 0.949 1_556 S
C840 C846 1.368 . S
C841 C825 1.349 . S
C841 H833 0.950 . S
C841 C839 1.327 . S
C842 C830 1.361 1_655 S
C842 H836 0.950 . S
C842 C843 1.327 . S
C843 H837 0.950 . S
C843 C842 1.327 . S
C843 C847 1.429 1_554 S
C844 C827 1.574 . S
C844 H838 0.949 1_655 S
C844 C848 1.368 . S
C845 C826 1.429 . S
C845 C839 1.429 . S
C845 C846 1.523 . S
C846 C827 1.368 . S
C846 C840 1.368 . S
C846 C845 1.523 . S
C847 C831 1.429 1_655 S
C847 C843 1.429 1_556 S
C847 C848 1.523 . S
C848 C832 1.368 1_556 S
C848 C844 1.368 . S
C848 C847 1.523 . S
H849 C824 0.950 . S
H850 C826 0.950 . S
H851 C827 0.949 . S
H852 C829 0.950 . S
H853 C831 0.950 . S
C854 C855 1.349 . S
C854 C856 1.327 . S
C854 H879 0.950 . S
C855 C854 1.349 . S
C855 C871 1.349 . S
C856 C854 1.327 . S
C856 C875 1.429 . S
C856 H880 0.950 . S
C857 C874 1.574 . S
C857 C876 1.368 . S
C857 H881 0.949 . S
H858 C862 0.949 . S
C859 C860 1.349 . S
C859 C861 1.327 . S
C859 H882 0.950 . S
C860 C859 1.349 . S
C860 C872 1.349 . S
C861 C859 1.327 . S
C861 C877 1.429 . S
C861 H883 0.950 . S
C862 H858 0.949 . S
C862 C870 1.574 . S
C862 C878 1.368 . S
H863 C871 0.950 . S
H864 C869 0.950 . S
H865 C870 0.949 . S
H866 C872 0.950 . S
H867 C873 0.950 . S
H868 C874 0.949 . S
C869 H864 0.950 . S
C869 C871 1.327 . S
C869 C875 1.429 . S
C870 C862 1.574 . S
C870 H865 0.949 . S
C870 C876 1.368 . S
C871 C855 1.349 . S
C871 H863 0.950 . S
C871 C869 1.327 . S
C872 C860 1.349 . S
C872 H866 0.950 . S
C872 C873 1.327 . S
C873 H867 0.950 . S
C873 C872 1.327 . S
C873 C877 1.429 . S
C874 C857 1.574 . S
C874 H868 0.949 . S
C874 C878 1.368 . S
C875 C856 1.429 . S
C875 C869 1.429 . S
C875 C876 1.523 . S
C876 C857 1.368 . S
C876 C870 1.368 . S
C876 C875 1.523 . S
C877 C861 1.429 . S
C877 C873 1.429 . S
C877 C878 1.523 . S
C878 C862 1.368 . S
C878 C874 1.368 . S
C878 C877 1.523 . S
H879 C854 0.950 . S
H880 C856 0.950 . S
H881 C857 0.949 . S
H882 C859 0.950 . S
H883 C861 0.950 . S
C884 C885 1.349 . S
C884 C886 1.327 . S
C884 H909 0.950 . S
C885 C884 1.349 . S
C885 C901 1.349 . S
C886 C884 1.327 . S
C886 C905 1.429 . S
C886 H910 0.950 . S
C887 C904 1.574 . S
C887 C906 1.368 . S
C887 H911 0.949 . S
H888 C892 0.949 . S
C889 C890 1.349 . S
C889 C891 1.327 . S
C889 H912 0.950 . S
C890 C889 1.349 . S
C890 C902 1.349 . S
C891 C889 1.327 . S
C891 C907 1.429 . S
C891 H913 0.950 . S
C892 H888 0.949 . S
C892 C900 1.574 . S
C892 C908 1.368 . S
H893 C901 0.950 . S
H894 C899 0.950 . S
H895 C900 0.949 . S
H896 C902 0.950 . S
H897 C903 0.950 . S
H898 C904 0.949 . S
C899 H894 0.950 . S
C899 C901 1.327 . S
C899 C905 1.429 . S
C900 C892 1.574 . S
C900 H895 0.949 . S
C900 C906 1.368 . S
C901 C885 1.349 . S
C901 H893 0.950 . S
C901 C899 1.327 . S
C902 C890 1.349 . S
C902 H896 0.950 . S
C902 C903 1.327 . S
C903 H897 0.950 . S
C903 C902 1.327 . S
C903 C907 1.429 . S
C904 C887 1.574 . S
C904 H898 0.949 . S
C904 C908 1.368 . S
C905 C886 1.429 . S
C905 C899 1.429 . S
C905 C906 1.523 . S
C906 C887 1.368 . S
C906 C900 1.368 . S
C906 C905 1.523 . S
C907 C891 1.429 . S
C907 C903 1.429 . S
C907 C908 1.523 . S
C908 C892 1.368 . S
C908 C904 1.368 . S
C908 C907 1.523 . S
H909 C884 0.950 . S
H910 C886 0.950 . S
H911 C887 0.949 . S
H912 C889 0.950 . S
H913 C891 0.950 . S
C914 C915 1.349 . S
C914 C916 1.327 . S
C914 H939 0.950 . S
C915 C914 1.349 . S
C915 C931 1.349 . S
C916 C914 1.327 . S
C916 C935 1.429 . S
C916 H940 0.950 . S
C917 C934 1.574 . S
C917 C936 1.368 . S
C917 H941 0.949 . S
H918 C922 0.949 . S
C919 C920 1.349 . S
C919 C921 1.327 . S
C919 H942 0.950 . S
C920 C919 1.349 . S
C920 C932 1.349 . S
C921 C919 1.327 . S
C921 C937 1.429 . S
C921 H943 0.950 . S
C922 H918 0.949 . S
C922 C930 1.574 . S
C922 C938 1.368 . S
H923 C931 0.950 . S
H924 C929 0.950 . S
H925 C930 0.949 . S
H926 C932 0.950 . S
H927 C933 0.950 . S
H928 C934 0.949 . S
C929 H924 0.950 . S
C929 C931 1.327 . S
C929 C935 1.429 . S
C930 C922 1.574 . S
C930 H925 0.949 . S
C930 C936 1.368 . S
C931 C915 1.349 . S
C931 H923 0.950 . S
C931 C929 1.327 . S
C932 C920 1.349 . S
C932 H926 0.950 . S
C932 C933 1.327 . S
C933 H927 0.950 . S
C933 C932 1.327 . S
C933 C937 1.429 . S
C934 C917 1.574 . S
C934 H928 0.949 . S
C934 C938 1.368 . S
C935 C916 1.429 . S
C935 C929 1.429 . S
C935 C936 1.523 . S
C936 C917 1.368 . S
C936 C930 1.368 . S
C936 C935 1.523 . S
C937 C921 1.429 . S
C937 C933 1.429 . S
C937 C938 1.523 . S
C938 C922 1.368 . S
C938 C934 1.368 . S
C938 C937 1.523 . S
H939 C914 0.950 . S
H940 C916 0.950 . S
H941 C917 0.949 . S
H942 C919 0.950 . S
H943 C921 0.950 . S
C225 C9 2.624 . S
C230 C120 2.640 . S
C255 C21 1.045 . S
C260 N140 1.026 . S
C290 C174 1.593 . S
C285 C30 1.563 . S
C315 C43 0.977 . S
C320 N208 1.005 1_655 S
C350 C161 2.270 . S
C345 C4 2.239 . S
C380 N118 1.670 . S
C375 C22 1.708 . S
C410 C195 1.550 . S
C405 C34 1.545 . S
C440 N170 0.803 . S
C435 C48 0.804 . S
C465 C8 1.879 . S
C470 C210 1.886 . S
C500 C144 1.740 . S
C495 C35 1.728 . S
C525 C47 1.488 . S
C530 C105 1.495 1_655 S
C555 C17 1.151 . S
C560 C191 1.162 . S
C590 C131 2.189 1_655 S
C585 C60 2.171 . S
C615 C74 1.379 . S
C620 N148 1.361 . S
C645 C82 1.325 . S
C650 C165 1.342 . S
C675 C100 1.559 . S
C680 N200 1.502 . S
C705 C61 2.700 . S
C710 C150 2.721 . S
C740 N110 1.203 . S
C735 C73 1.227 . S
C770 C204 1.995 . S
C765 C87 1.989 . S
C800 N178 0.572 . S
C795 C95 0.604 . S
C825 C56 1.852 . S
C830 C221 1.936 . S
C860 C135 1.747 . S
C855 C86 1.734 . S
C890 C114 1.401 . S
C885 C99 1.384 . S
C915 C69 1.288 . S
C920 C180 1.311 . S
