# Generated by pormake.
# Topology pyr, (3,6)-cn, num edge types: 1
# Building blocks:
#     Node 0, Type 0, BuildingBlock: BELTOD_clean_linker_0, # of connection points: 3
#     Node 1, Type 0, BuildingBlock: BELTOD_clean_linker_0, # of connection points: 3
#     Node 2, Type 0, BuildingBlock: BELTOD_clean_linker_0, # of connection points: 3
#     Node 3, Type 0, BuildingBlock: BELTOD_clean_linker_0, # of connection points: 3
#     Node 4, Type 0, BuildingBlock: BELTOD_clean_linker_0, # of connection points: 3
#     Node 5, Type 0, BuildingBlock: BELTOD_clean_linker_0, # of connection points: 3
#     Node 6, Type 0, BuildingBlock: BELTOD_clean_linker_0, # of connection points: 3
#     Node 7, Type 0, BuildingBlock: BELTOD_clean_linker_0, # of connection points: 3
#     Node 8, Type 1, BuildingBlock: BETGAK_clean_sbu_0, # of connection points: 6
#     Node 9, Type 1, BuildingBlock: BETGAK_clean_sbu_0, # of connection points: 6
#     Node 10, Type 1, BuildingBlock: BETGAK_clean_sbu_0, # of connection points: 6
#     Node 11, Type 1, BuildingBlock: BETGAK_clean_sbu_0, # of connection points: 6
#     Edge 12, Type (0, 1), BuildingBlock: EZIPEK_clean_linker_0, # of connection points: 2
#     Edge 13, Type (0, 1), BuildingBlock: EZIPEK_clean_linker_0, # of connection points: 2
#     Edge 14, Type (0, 1), BuildingBlock: EZIPEK_clean_linker_0, # of connection points: 2
#     Edge 15, Type (0, 1), BuildingBlock: EZIPEK_clean_linker_0, # of connection points: 2
#     Edge 16, Type (0, 1), BuildingBlock: EZIPEK_clean_linker_0, # of connection points: 2
#     Edge 17, Type (0, 1), BuildingBlock: EZIPEK_clean_linker_0, # of connection points: 2
#     Edge 18, Type (0, 1), BuildingBlock: EZIPEK_clean_linker_0, # of connection points: 2
#     Edge 19, Type (0, 1), BuildingBlock: EZIPEK_clean_linker_0, # of connection points: 2
#     Edge 20, Type (0, 1), BuildingBlock: EZIPEK_clean_linker_0, # of connection points: 2
#     Edge 21, Type (0, 1), BuildingBlock: EZIPEK_clean_linker_0, # of connection points: 2
#     Edge 22, Type (0, 1), BuildingBlock: EZIPEK_clean_linker_0, # of connection points: 2
#     Edge 23, Type (0, 1), BuildingBlock: EZIPEK_clean_linker_0, # of connection points: 2
#     Edge 24, Type (0, 1), BuildingBlock: EZIPEK_clean_linker_0, # of connection points: 2
#     Edge 25, Type (0, 1), BuildingBlock: EZIPEK_clean_linker_0, # of connection points: 2
#     Edge 26, Type (0, 1), BuildingBlock: EZIPEK_clean_linker_0, # of connection points: 2
#     Edge 27, Type (0, 1), BuildingBlock: EZIPEK_clean_linker_0, # of connection points: 2
#     Edge 28, Type (0, 1), BuildingBlock: EZIPEK_clean_linker_0, # of connection points: 2
#     Edge 29, Type (0, 1), BuildingBlock: EZIPEK_clean_linker_0, # of connection points: 2
#     Edge 30, Type (0, 1), BuildingBlock: EZIPEK_clean_linker_0, # of connection points: 2
#     Edge 31, Type (0, 1), BuildingBlock: EZIPEK_clean_linker_0, # of connection points: 2
#     Edge 32, Type (0, 1), BuildingBlock: EZIPEK_clean_linker_0, # of connection points: 2
#     Edge 33, Type (0, 1), BuildingBlock: EZIPEK_clean_linker_0, # of connection points: 2
#     Edge 34, Type (0, 1), BuildingBlock: EZIPEK_clean_linker_0, # of connection points: 2
#     Edge 35, Type (0, 1), BuildingBlock: EZIPEK_clean_linker_0, # of connection points: 2
# Relax obj value: 0.157
# Max RMSD: 0.135
# Mean RMSD: 0.066
data_MOF--net-pyr--node1-BETGAK_clean_sbu_0--node2-BELTOD_clean_linker_0--edge1-EZIPEK_clean_linker_0
_symmetry_space_group_name_H-M    P1
_symmetry_Int_Tables_number       1
_symmetry_cell_setting            triclinic
loop_
_symmetry_equiv_pos_as_xyz
'x, y, z'
_cell_length_a     32.827767
_cell_length_b     36.235858
_cell_length_c     32.963643
_cell_angle_alpha  91.323657
_cell_angle_beta   88.610325
_cell_angle_gamma 101.84962
loop_
_atom_site_label
_atom_site_type_symbol
_atom_site_fract_x
_atom_site_fract_y
_atom_site_fract_z
_atom_type_partial_charge
P0 P 0.38823 0.31309 0.24994 0.0
H1 H 0.46807 0.3003 0.21672 0.0
H2 H 0.48977 0.24359 0.18872 0.0
H3 H 0.36762 0.17751 0.21565 0.0
H4 H 0.34581 0.23378 0.24316 0.0
H5 H 0.38868 0.3896 0.22223 0.0
H6 H 0.33767 0.41382 0.18272 0.0
H7 H 0.27587 0.29992 0.153 0.0
H8 H 0.32681 0.27577 0.19169 0.0
H9 H 0.38305 0.26274 0.3193 0.0
H10 H 0.3108 0.33855 0.27205 0.0
O11 O 0.42855 0.34567 0.26582 0.0
H12 H 0.32329 0.23409 0.36232 0.0
H13 H 0.2514 0.30953 0.31419 0.0
C14 C 0.40554 0.2712 0.23255 0.0
C15 C 0.4462 0.27351 0.21721 0.0
C16 C 0.45864 0.24123 0.20146 0.0
C17 C 0.43039 0.20642 0.20074 0.0
C18 C 0.38996 0.20405 0.21658 0.0
C19 C 0.37757 0.23622 0.23217 0.0
C20 C 0.36195 0.33084 0.20958 0.0
C21 C 0.36534 0.36986 0.20572 0.0
C22 C 0.33612 0.38369 0.18343 0.0
C23 C 0.30287 0.35858 0.16535 0.0
C24 C 0.30135 0.31969 0.1667 0.0
C25 C 0.33068 0.30593 0.18864 0.0
C26 C 0.3507 0.30143 0.29093 0.0
C27 C 0.35486 0.27385 0.31884 0.0
C28 C 0.32091 0.2576 0.34344 0.0
C29 C 0.28284 0.26924 0.34055 0.0
C30 C 0.28042 0.29993 0.31635 0.0
C31 C 0.31435 0.31622 0.29198 0.0
P32 P 0.37644 0.96968 0.56272 0.0
H33 H 0.44198 0.98221 0.62228 0.0
H34 H 0.44084 0.9898 0.69659 0.0
H35 H 0.30887 0.98664 0.69516 0.0
H36 H 0.30964 0.97863 0.62146 0.0
H37 H 0.43139 0.93499 0.50938 0.0
H38 H 0.45256 0.87388 0.51181 0.0
H39 H 0.36286 0.83965 0.60846 0.0
H40 H 0.3415 0.90056 0.606 0.0
H41 H 0.34956 0.03687 0.5385 0.0
H42 H 0.29672 0.91783 0.54532 0.0
O43 O 0.41584 0.99942 0.54058 0.0
H44 H 0.28062 0.04933 0.52511 0.0
H45 H 0.22763 0.9304 0.53172 0.0
C46 C 0.37616 0.98054 0.61621 0.0
C47 C 0.41297 0.98383 0.63789 0.0
C48 C 0.41232 0.988 0.68012 0.0
C49 C 0.37477 0.98882 0.70103 0.0
C50 C 0.33809 0.98621 0.67934 0.0
C51 C 0.3387 0.98182 0.6372 0.0
C52 C 0.38509 0.92234 0.5577 0.0
C53 C 0.41558 0.91406 0.53044 0.0
C54 C 0.4277 0.8793 0.53183 0.0
C55 C 0.40932 0.85251 0.56042 0.0
C56 C 0.37726 0.86003 0.58616 0.0
C57 C 0.36509 0.8947 0.58469 0.0
C58 C 0.32838 0.97639 0.54212 0.0
C59 C 0.32341 1.01331 0.53577 0.0
C60 C 0.28412 1.02048 0.52846 0.0
C61 C 0.24924 0.99077 0.52753 0.0
C62 C 0.25435 0.95359 0.53221 0.0
C63 C 0.29376 0.94644 0.53969 0.0
P64 P 0.66376 0.34454 0.85409 0.0
H65 H 0.71712 0.32229 0.91645 0.0
H66 H 0.77841 0.35532 0.95356 0.0
H67 H 0.7665 0.46 0.9008 0.0
H68 H 0.70475 0.42698 0.8639 0.0
H69 H 0.624 0.26605 0.82887 0.0
H70 H 0.59212 0.20864 0.86535 0.0
H71 H 0.59866 0.27273 0.97737 0.0
H72 H 0.6318 0.33025 0.94079 0.0
H73 H 0.70047 0.3961 0.7887 0.0
H74 H 0.57602 0.35291 0.83131 0.0
O75 O 0.69206 0.32266 0.82263 0.0
H76 H 0.67469 0.42792 0.73484 0.0
H77 H 0.54936 0.38563 0.77761 0.0
C78 C 0.70481 0.37177 0.88754 0.0
C79 C 0.72676 0.35253 0.91344 0.0
C80 C 0.76233 0.37149 0.93461 0.0
C81 C 0.77788 0.41055 0.93049 0.0
C82 C 0.75565 0.43001 0.90502 0.0
C83 C 0.71992 0.41098 0.88387 0.0
C84 C 0.63053 0.30362 0.88132 0.0
C85 C 0.61815 0.26831 0.8612 0.0
C86 C 0.59997 0.23497 0.88236 0.0
C87 C 0.59263 0.23512 0.92486 0.0
C88 C 0.60373 0.27077 0.94488 0.0
C89 C 0.62243 0.30416 0.92367 0.0
C90 C 0.64105 0.37372 0.81727 0.0
C91 C 0.66735 0.39547 0.78835 0.0
C92 C 0.65201 0.41533 0.75732 0.0
C93 C 0.60919 0.4172 0.75416 0.0
C94 C 0.58264 0.39178 0.78105 0.0
C95 C 0.59805 0.37143 0.81212 0.0
P96 P 0.84731 0.69546 0.34141 0.0
H97 H 0.90252 0.76634 0.31276 0.0
H98 H 0.93327 0.82694 0.34586 0.0
H99 H 0.88986 0.78127 0.4621 0.0
H100 H 0.85907 0.72065 0.42899 0.0
H101 H 0.81876 0.62345 0.29509 0.0
H102 H 0.8497 0.58919 0.24126 0.0
H103 H 0.96561 0.66926 0.2517 0.0
H104 H 0.9346 0.70345 0.30593 0.0
H105 H 0.77661 0.7186 0.38385 0.0
H106 H 0.82272 0.61575 0.3739 0.0
O107 O 0.82095 0.71502 0.30821 0.0
H108 H 0.71623 0.68624 0.4237 0.0
H109 H 0.76174 0.58308 0.41401 0.0
C110 C 0.87859 0.73777 0.36789 0.0
C111 C 0.9003 0.76877 0.3455 0.0
C112 C 0.91771 0.80387 0.36455 0.0
C113 C 0.91414 0.80969 0.40695 0.0
C114 C 0.89338 0.77834 0.42951 0.0
C115 C 0.8759 0.74322 0.4104 0.0
C116 C 0.87428 0.66576 0.30673 0.0
C117 C 0.85123 0.63333 0.28689 0.0
C118 C 0.86892 0.61382 0.2553 0.0
C119 C 0.9105 0.62603 0.24138 0.0
C120 C 0.93364 0.65856 0.26117 0.0
C121 C 0.91587 0.67809 0.29286 0.0
C122 C 0.8049 0.67004 0.37524 0.0
C123 C 0.77415 0.68908 0.39045 0.0
C124 C 0.73931 0.67046 0.4134 0.0
C125 C 0.73364 0.63187 0.42238 0.0
C126 C 0.76485 0.61278 0.40795 0.0
C127 C 0.79994 0.63157 0.38483 0.0
P128 P 0.73312 0.82873 0.91428 0.0
H129 H 0.72369 0.89711 0.95718 0.0
H130 H 0.66541 0.92823 0.96758 0.0
H131 H 0.58492 0.83634 0.90536 0.0
H132 H 0.64333 0.80339 0.89718 0.0
H133 H 0.77171 0.79432 0.97765 0.0
H134 H 0.79049 0.73293 0.97882 0.0
H135 H 0.70708 0.69372 0.88073 0.0
H136 H 0.68919 0.75624 0.87833 0.0
H137 H 0.68478 0.81167 0.83889 0.0
H138 H 0.81219 0.85553 0.87261 0.0
O139 O 0.77258 0.85445 0.94013 0.0
H140 H 0.70556 0.81762 0.76699 0.0
H141 H 0.83236 0.86233 0.80112 0.0
C142 C 0.68796 0.84786 0.92632 0.0
C143 C 0.6935 0.88297 0.94642 0.0
C144 C 0.6603 0.90099 0.95211 0.0
C145 C 0.62108 0.88464 0.93706 0.0
C146 C 0.61512 0.84931 0.91714 0.0
C147 C 0.64838 0.83066 0.9124 0.0
C148 C 0.73022 0.78033 0.92691 0.0
C149 C 0.7564 0.77245 0.95702 0.0
C150 C 0.76714 0.73732 0.95776 0.0
C151 C 0.75133 0.70945 0.92883 0.0
C152 C 0.72025 0.71533 0.90266 0.0
C153 C 0.71003 0.75097 0.90141 0.0
C154 C 0.74677 0.83398 0.86132 0.0
C155 C 0.71699 0.82289 0.8311 0.0
C156 C 0.72875 0.82608 0.79007 0.0
C157 C 0.7703 0.84078 0.7791 0.0
C158 C 0.80005 0.85121 0.80925 0.0
C159 C 0.78844 0.84756 0.85003 0.0
P160 P 0.88499 0.26879 0.39267 0.0
H161 H 0.88816 0.33438 0.44746 0.0
H162 H 0.83419 0.36847 0.47159 0.0
H163 H 0.74173 0.2895 0.40566 0.0
H164 H 0.79488 0.25523 0.38228 0.0
H165 H 0.95655 0.23664 0.41275 0.0
H166 H 0.96255 0.18082 0.45133 0.0
H167 H 0.83148 0.16172 0.48167 0.0
H168 H 0.82555 0.21775 0.44384 0.0
H169 H 0.87723 0.30418 0.31556 0.0
H170 H 0.85273 0.19134 0.36257 0.0
O171 O 0.93016 0.29947 0.38742 0.0
H172 H 0.83831 0.28033 0.25425 0.0
H173 H 0.81359 0.16804 0.30216 0.0
C174 C 0.84571 0.29285 0.41234 0.0
C175 C 0.85626 0.32439 0.43834 0.0
C176 C 0.82563 0.34373 0.45212 0.0
C177 C 0.78427 0.33155 0.43995 0.0
C178 C 0.7736 0.29937 0.41501 0.0
C179 C 0.80403 0.27999 0.40155 0.0
C180 C 0.89081 0.23175 0.42612 0.0
C181 C 0.92934 0.22102 0.42854 0.0
C182 C 0.93275 0.1892 0.45035 0.0
C183 C 0.89746 0.16743 0.46938 0.0
C184 C 0.85904 0.17844 0.46742 0.0
C185 C 0.85577 0.21048 0.44602 0.0
C186 C 0.86804 0.24961 0.34363 0.0
C187 C 0.86468 0.27423 0.31219 0.0
C188 C 0.84232 0.26075 0.27743 0.0
C189 C 0.8227 0.22259 0.27417 0.0
C190 C 0.82836 0.19763 0.30438 0.0
C191 C 0.85086 0.21102 0.33889 0.0
P192 P 0.37243 0.6921 0.22036 0.0
H193 H 0.32804 0.70516 0.14673 0.0
H194 H 0.26284 0.67334 0.11511 0.0
H195 H 0.23431 0.60076 0.21785 0.0
H196 H 0.29993 0.63267 0.24963 0.0
H197 H 0.45487 0.73981 0.20229 0.0
H198 H 0.47891 0.80086 0.17448 0.0
H199 H 0.35416 0.82122 0.18199 0.0
H200 H 0.33021 0.75845 0.20858 0.0
H201 H 0.39811 0.62042 0.23865 0.0
H202 H 0.37779 0.71573 0.31066 0.0
O203 O 0.40105 0.67361 0.18599 0.0
H204 H 0.42034 0.59208 0.29875 0.0
H205 H 0.39883 0.68637 0.37186 0.0
C206 C 0.31913 0.67261 0.20161 0.0
C207 C 0.30747 0.6831 0.16325 0.0
C208 C 0.27013 0.66449 0.14476 0.0
C209 C 0.2429 0.63429 0.16367 0.0
C210 C 0.25422 0.6239 0.20228 0.0
C211 C 0.29181 0.64252 0.22075 0.0
C212 C 0.39066 0.74389 0.21049 0.0
C213 C 0.43278 0.75816 0.20056 0.0
C214 C 0.44707 0.79497 0.18526 0.0
C215 C 0.42095 0.82171 0.18141 0.0
C216 C 0.37787 0.80594 0.18924 0.0
C217 C 0.36335 0.76857 0.20403 0.0
C218 C 0.38636 0.67105 0.26878 0.0
C219 C 0.39818 0.63556 0.26734 0.0
C220 C 0.41097 0.61896 0.30225 0.0
C221 C 0.41192 0.63643 0.34111 0.0
C222 C 0.39903 0.67165 0.34292 0.0
C223 C 0.3867 0.68864 0.30758 0.0
P224 P 0.1754 0.35393 0.73523 0.0
H225 H 0.20105 0.31346 0.66291 0.0
H226 H 0.17066 0.25562 0.62541 0.0
H227 H 0.05925 0.24405 0.69953 0.0
H228 H 0.08974 0.3027 0.73709 0.0
H229 H 0.26163 0.392 0.75499 0.0
H230 H 0.32134 0.42552 0.71497 0.0
H231 H 0.24381 0.41936 0.61062 0.0
H232 H 0.18374 0.38533 0.65075 0.0
H233 H 0.12383 0.3292 0.80912 0.0
H234 H 0.16516 0.43465 0.74881 0.0
O235 O 0.20161 0.33103 0.7653 0.0
H236 H 0.09599 0.36213 0.86609 0.0
H237 H 0.13624 0.46766 0.80546 0.0
C238 C 0.14753 0.31435 0.70236 0.0
C239 C 0.1695 0.29952 0.6706 0.0
C240 C 0.15219 0.26575 0.64921 0.0
C241 C 0.1122 0.24458 0.65894 0.0
C242 C 0.08995 0.25935 0.69067 0.0
C243 C 0.10738 0.29337 0.71212 0.0
C244 C 0.21752 0.38544 0.70628 0.0
C245 C 0.25694 0.3981 0.72365 0.0
C246 C 0.29142 0.41735 0.70063 0.0
C247 C 0.28781 0.42511 0.65932 0.0
C248 C 0.24796 0.41392 0.64225 0.0
C249 C 0.21338 0.39448 0.66536 0.0
C250 C 0.14634 0.37874 0.77329 0.0
C251 C 0.12609 0.35935 0.80732 0.0
C252 C 0.11024 0.37844 0.84045 0.0
C253 C 0.11343 0.41801 0.84122 0.0
C254 C 0.13283 0.43734 0.8066 0.0
C255 C 0.14918 0.41822 0.77362 0.0
La256 La 1.01839 0.04703 0.48926 0.0
La257 La 1.0057 1.0122 0.56614 0.0
C258 C 0.02432 0.09203 0.43132 0.0
C259 C 0.05768 0.12451 0.42225 0.0
C260 C 0.09156 0.13378 0.44841 0.0
C261 C 0.12659 0.16068 0.43737 0.0
C262 C 0.12811 0.17871 0.40009 0.0
C263 C 0.09338 0.17092 0.37482 0.0
C264 C 0.05828 0.14379 0.38585 0.0
C265 C 0.08352 1.01965 0.51126 0.0
C266 C 0.04598 0.09799 0.571 0.0
C267 C 0.99667 0.96772 0.62469 0.0
C268 C 0.96087 0.93837 0.6361 0.0
C269 C 0.92922 0.92546 0.60805 0.0
C270 C 0.89184 0.90236 0.62063 0.0
C271 C 0.88571 0.89254 0.66148 0.0
C272 C 0.91809 0.90384 0.68899 0.0
C273 C 0.95554 0.9267 0.67635 0.0
C274 C 0.94144 0.04077 0.54234 0.0
C275 C 0.98022 0.9604 0.48568 0.0
O276 O 0.03584 0.05964 0.42877 0.0
O277 O 1.00252 0.09505 0.46447 0.0
O278 O 0.06877 1.01785 0.47521 0.0
O279 O 0.06196 0.03688 0.53395 0.0
O280 O 0.03407 0.09691 0.5325 0.0
O281 O 0.04381 0.06553 0.58958 0.0
O282 O 0.98983 1.00191 0.62741 0.0
O283 O 1.01563 0.96176 0.59061 0.0
O284 O 0.95466 0.04192 0.5789 0.0
O285 O 0.96352 1.02292 0.52139 0.0
O286 O 0.99283 0.96199 0.52378 0.0
O287 O 0.98144 0.99249 0.46659 0.0
H288 H 0.09178 0.1189 0.47648 0.0
H289 H 0.15325 0.16617 0.457 0.0
H290 H 0.09432 0.18453 0.3458 0.0
H291 H 0.03245 0.13678 0.3653 0.0
H292 H 0.93261 0.9347 0.57695 0.0
H293 H 0.867 0.89395 0.59919 0.0
H294 H 0.91357 0.89644 0.72068 0.0
H295 H 0.97948 0.93671 0.69836 0.0
La296 La 0.53863 0.03682 0.07541 0.0
La297 La 0.4637 1.02925 0.03975 0.0
C298 C 0.60693 0.057 0.11157 0.0
C299 C 0.63484 0.0896 0.13071 0.0
C300 C 0.63747 0.09167 0.17319 0.0
C301 C 0.66821 0.11853 0.19188 0.0
C302 C 0.69694 0.14375 0.16844 0.0
C303 C 0.69337 0.14304 0.1261 0.0
C304 C 0.66276 0.1159 0.1073 0.0
C305 C 0.48976 0.96861 0.09449 0.0
C306 C 0.47294 0.07846 0.1136 0.0
C307 C 0.39574 1.00682 1.00381 0.0
C308 C 0.38644 0.99991 0.96047 0.0
C309 C 0.35804 1.01828 0.9423 0.0
C310 C 0.35276 1.01572 0.9003 0.0
C311 C 0.37596 0.99485 0.8761 0.0
C312 C 0.40324 0.97544 0.89429 0.0
C313 C 0.40843 0.97787 0.93616 0.0
C314 C 0.51489 0.09471 1.01576 0.0
C315 C 0.52948 0.98809 0.99788 0.0
O316 O 0.57141 0.04382 0.12994 0.0
O317 O 0.60337 0.05658 0.07221 0.0
O318 O 0.52902 0.9765 0.0861 0.0
O319 O 0.47838 1.0005 0.09339 0.0
O320 O 0.51232 0.08286 0.10247 0.0
O321 O 0.44648 0.04975 0.09848 0.0
O322 O 0.4102 0.04188 1.01411 0.0
O323 O 0.41653 0.98433 1.02056 0.0
O324 O 0.47557 0.0895 1.02412 0.0
O325 O 0.52483 0.06272 1.01998 0.0
O326 O 0.49072 0.99201 0.99934 0.0
O327 O 0.55692 1.00705 1.02286 0.0
H328 H 0.6168 0.07151 0.19197 0.0
H329 H 0.67051 0.11883 0.22463 0.0
H330 H 0.7153 0.16245 0.10765 0.0
H331 H 0.66198 0.11469 0.07447 0.0
H332 H 0.34091 1.03549 0.96045 0.0
H333 H 0.33149 1.03077 0.88655 0.0
H334 H 0.42123 0.95913 0.87591 0.0
H335 H 0.43048 0.96326 0.94918 0.0
La336 La 0.51163 0.49577 0.52272 0.0
La337 La 0.51364 0.56119 0.57029 0.0
C338 C 0.53148 0.44309 0.48049 0.0
C339 C 0.56914 0.42721 0.47914 0.0
C340 C 0.56922 0.39305 0.45841 0.0
C341 C 0.60571 0.37886 0.45544 0.0
C342 C 0.64241 0.39879 0.4731 0.0
C343 C 0.64219 0.43266 0.49445 0.0
C344 C 0.60568 0.44675 0.49759 0.0
C345 C 0.43764 0.49451 0.56114 0.0
C346 C 0.54787 0.49454 0.61243 0.0
C347 C 0.50329 0.6131 0.619 0.0
C348 C 0.49629 0.65133 0.61271 0.0
C349 C 0.51377 0.67214 0.57881 0.0
C350 C 0.50183 0.70585 0.56975 0.0
C351 C 0.4721 0.71894 0.59431 0.0
C352 C 0.45544 0.69871 0.62872 0.0
C353 C 0.46749 0.66509 0.63786 0.0
C354 C 0.57599 0.57048 0.51367 0.0
C355 C 0.47434 0.56142 0.48324 0.0
O356 O 0.509 0.43764 0.51386 0.0
O357 O 0.53686 0.47794 0.46856 0.0
O358 O 0.4429 0.48207 0.52462 0.0
O359 O 0.47385 0.50621 0.57484 0.0
O360 O 0.54144 0.47676 0.57671 0.0
O361 O 0.53901 0.52863 0.617 0.0
O362 O 0.54 0.60658 0.60867 0.0
O363 O 0.47307 0.58625 0.60634 0.0
O364 O 0.55434 0.59504 0.52468 0.0
O365 O 0.56308 0.54174 0.53552 0.0
O366 O 0.47286 0.57366 0.52138 0.0
O367 O 0.49269 0.53242 0.47578 0.0
H368 H 0.54128 0.37769 0.44406 0.0
H369 H 0.60557 0.35271 0.43877 0.0
H370 H 0.67035 0.44835 0.50813 0.0
H371 H 0.60611 0.4732 0.51378 0.0
H372 H 0.53564 0.6618 0.55869 0.0
H373 H 0.51489 0.7212 0.54306 0.0
H374 H 0.43246 0.70855 0.64792 0.0
H375 H 0.45325 0.64915 0.66377 0.0
La376 La 1.01333 0.48323 0.06863 0.0
La377 La 1.0133 0.55686 1.01965 0.0
C378 C 0.03293 0.42178 0.08536 0.0
C379 C 0.0735 0.41147 0.0904 0.0
C380 C 0.07618 0.37998 0.11325 0.0
C381 C 0.11508 0.37236 0.12193 0.0
C382 C 0.15173 0.3963 0.10803 0.0
C383 C 0.14904 0.42731 0.08428 0.0
C384 C 0.11011 0.43475 0.07537 0.0
C385 C 0.97708 0.53193 0.11366 0.0
C386 C 0.0894 0.55638 0.07837 0.0
C387 C 0.99228 0.61669 1.00006 0.0
C388 C 0.95374 0.62305 0.98245 0.0
C389 C 0.93048 0.59616 0.95597 0.0
C390 C 0.89242 0.60139 0.94156 0.0
C391 C 0.87725 0.63343 0.95369 0.0
C392 C 0.90038 0.66016 0.98019 0.0
C393 C 0.93839 0.65497 0.99454 0.0
C394 C 0.04978 0.50786 0.97479 0.0
C395 C 0.93541 0.48522 1.01182 0.0
O396 O 0.02353 0.44551 0.11278 0.0
O397 O 0.02457 0.4307 0.04864 0.0
O398 O 0.98059 0.49848 0.12461 0.0
O399 O 0.99211 0.53458 0.07748 0.0
O400 O 0.07501 0.51943 0.0835 0.0
O401 O 0.06971 0.57685 0.05559 0.0
O402 O 1.01536 0.59915 0.9768 0.0
O403 O 0.98812 0.60373 0.03694 0.0
O404 O 0.04627 0.54122 0.96376 0.0
O405 O 0.03417 0.50517 1.01073 0.0
O406 O 0.95217 0.52109 1.00349 0.0
O407 O 0.95368 0.46501 0.03648 0.0
H408 H 0.04828 0.3619 0.1253 0.0
H409 H 0.11669 0.34844 0.14051 0.0
H410 H 0.17701 0.44619 0.07356 0.0
H411 H 0.10857 0.45917 0.05764 0.0
H412 H 0.9416 0.57108 0.94657 0.0
H413 H 0.87493 0.58067 0.92094 0.0
H414 H 0.88902 0.68514 0.98959 0.0
H415 H 0.95564 0.67569 1.01533 0.0
C416 C 0.22723 0.21075 0.33792 0.0
C417 C 0.24401 0.24579 0.35728 0.0
C418 C 0.18271 0.23861 0.40261 0.0
C419 C 0.16791 0.20216 0.38549 0.0
N420 N 0.18052 0.15007 0.34334 0.0
N421 N 0.24137 0.29101 0.4115 0.0
C422 C 0.19148 0.1872 0.35503 0.0
C423 C 0.22278 0.25917 0.3907 0.0
N424 N 0.24434 0.20061 0.30216 0.0
N425 N 0.15796 0.2539 0.42929 0.0
H426 H 0.27067 0.30666 0.40338 0.0
H427 H 0.22943 0.3002 0.43857 0.0
H428 H 0.12851 0.2395 0.43868 0.0
H429 H 0.16512 0.28178 0.43968 0.0
H430 H 0.23046 0.17743 0.2845 0.0
H431 H 0.2703 0.21716 0.28801 0.0
H432 H 0.19928 0.13671 0.32461 0.0
H433 H 0.15467 0.13158 0.35534 0.0
C434 C 0.35604 0.95821 0.7682 0.0
C435 C 0.37354 0.99093 0.74592 0.0
C436 C 0.39341 1.02616 0.80907 0.0
C437 C 0.37318 0.99429 0.83134 0.0
N438 N 0.32872 0.93247 0.83288 0.0
N439 N 0.40193 0.05777 0.74449 0.0
C440 C 0.35248 0.96102 0.8111 0.0
C441 C 0.39017 1.02547 0.76618 0.0
N442 N 0.34433 0.92418 0.74849 0.0
N443 N 0.4171 0.05647 0.82872 0.0
H444 H 0.40012 0.05828 0.71296 0.0
H445 H 0.41009 0.08449 0.75791 0.0
H446 H 0.42023 0.05816 0.86016 0.0
H447 H 0.43635 0.07863 0.8137 0.0
H448 H 0.33567 0.89868 0.76346 0.0
H449 H 0.34659 0.92089 0.71705 0.0
H450 H 0.30939 0.90918 0.81955 0.0
H451 H 0.32544 0.93363 0.86442 0.0
C452 C 0.62069 0.46673 0.69412 0.0
C453 C 0.59301 0.44186 0.72079 0.0
C454 C 0.53506 0.45644 0.67911 0.0
C455 C 0.56339 0.47529 0.64903 0.0
N456 N 0.63487 0.4937 0.62706 0.0
N457 N 0.52458 0.44018 0.74994 0.0
C458 C 0.60658 0.47868 0.65627 0.0
C459 C 0.54993 0.44349 0.71628 0.0
N460 N 0.6581 0.48546 0.70831 0.0
N461 N 0.49336 0.45071 0.67242 0.0
H462 H 0.53666 0.44163 0.77903 0.0
H463 H 0.49385 0.4436 0.74976 0.0
H464 H 0.48129 0.46084 0.64693 0.0
H465 H 0.47121 0.43336 0.69047 0.0
H466 H 0.67826 0.50602 0.69183 0.0
H467 H 0.66509 0.48564 0.73903 0.0
H468 H 0.66654 0.49374 0.62904 0.0
H469 H 0.62603 0.5027 0.5994 0.0
C470 C 0.91521 0.60301 0.16606 0.0
C471 C 0.92965 0.60457 0.2069 0.0
C472 C 0.98152 0.56695 0.18252 0.0
C473 C 0.96369 0.5613 0.14312 0.0
N474 N 0.91012 0.57189 0.09913 0.0
N475 N 0.97353 0.58235 0.25418 0.0
C476 C 0.9298 0.5791 0.13534 0.0
C477 C 0.96218 0.58515 0.21495 0.0
N478 N 0.88824 0.62531 0.15617 0.0
N479 N 1.01822 0.55593 0.18883 0.0
H480 H 0.9602 0.59461 0.27868 0.0
H481 H 0.99329 0.56498 0.2629 0.0
H482 H 0.03394 0.54367 0.16604 0.0
H483 H 0.03545 0.56277 0.21505 0.0
H484 H 0.87965 0.62883 0.12653 0.0
H485 H 0.87724 0.64299 0.17731 0.0
H486 H 0.8824 0.58012 0.09281 0.0
H487 H 0.92018 0.55533 0.07622 0.0
C488 C 0.46501 0.1504 0.19851 0.0
C489 C 0.44126 0.17322 0.17922 0.0
C490 C 0.43126 0.12961 0.12077 0.0
C491 C 0.45863 0.10864 0.13801 0.0
N492 N 0.50356 0.10002 0.19236 0.0
N493 N 0.40816 0.18886 0.11935 0.0
C494 C 0.47618 0.11942 0.17663 0.0
C495 C 0.42609 0.16396 0.13967 0.0
N496 N 0.47581 0.15775 0.23813 0.0
N497 N 0.40972 0.1169 0.08653 0.0
H498 H 0.40356 0.21435 0.13207 0.0
H499 H 0.40138 0.18606 0.08859 0.0
H500 H 0.41277 0.0927 0.07043 0.0
H501 H 0.38562 0.12858 0.07594 0.0
H502 H 0.48923 0.13996 0.2555 0.0
H503 H 0.46871 0.18058 0.25468 0.0
H504 H 0.52159 0.10923 0.21759 0.0
H505 H 0.50964 0.07523 0.17914 0.0
C506 C 0.19499 1.01255 0.48754 0.0
C507 C 0.20712 0.99926 0.52445 0.0
C508 C 0.13957 1.00358 0.55572 0.0
C509 C 0.12768 1.01741 0.51868 0.0
N510 N 0.15197 0.05021 0.45682 0.0
N511 N 0.19552 0.99078 0.59647 0.0
C512 C 0.15765 1.02628 0.48664 0.0
C513 C 0.1807 0.99723 0.55941 0.0
N514 N 0.21878 1.01156 0.45309 0.0
N515 N 0.11167 0.996 0.58727 0.0
H516 H 0.22545 0.98607 0.60047 0.0
H517 H 0.17956 0.99324 0.62376 0.0
H518 H 0.08342 1.00456 0.58807 0.0
H519 H 0.11621 0.98043 0.61233 0.0
H520 H 0.209 1.01737 0.42451 0.0
H521 H 0.24644 1.00159 0.45249 0.0
H522 H 0.17452 0.05997 0.43463 0.0
H523 H 0.12755 0.06461 0.45768 0.0
C524 C 0.85573 0.44231 0.92859 0.0
C525 C 0.81808 0.43046 0.9515 0.0
C526 C 0.8576 0.4526 1.01433 0.0
C527 C 0.89467 0.46653 0.99112 0.0
N528 N 0.92671 0.47881 0.92476 0.0
N529 N 0.78225 0.42936 1.01607 0.0
C530 C 0.89284 0.46275 0.94787 0.0
C531 C 0.81895 0.43686 0.99441 0.0
N532 N 0.85672 0.43232 0.88839 0.0
N533 N 0.85917 0.45458 0.05573 0.0
H534 H 0.75378 0.4181 1.00274 0.0
H535 H 0.77924 0.43691 0.04647 0.0
H536 H 0.88539 0.4684 0.07129 0.0
H537 H 0.83535 0.44096 0.07482 0.0
H538 H 0.88395 0.43569 0.8708 0.0
H539 H 0.83069 0.41755 0.87321 0.0
H540 H 0.92587 0.4817 0.89346 0.0
H541 H 0.95524 0.49157 0.93693 0.0
C542 C 0.65492 0.60549 0.42554 0.0
C543 C 0.69402 0.6118 0.44503 0.0
C544 C 0.65671 0.58377 0.5076 0.0
C545 C 0.61715 0.5812 0.48927 0.0
N546 N 0.57955 0.59434 0.43114 0.0
N547 N 0.73162 0.6097 0.50631 0.0
C548 C 0.61673 0.59339 0.44834 0.0
C549 C 0.69473 0.6012 0.48642 0.0
N550 N 0.65424 0.60989 0.3845 0.0
N551 N 0.65813 0.57025 0.54575 0.0
H552 H 0.75965 0.62195 0.49198 0.0
H553 H 0.73427 0.60712 0.53745 0.0
H554 H 0.63159 0.5605 0.56344 0.0
H555 H 0.68541 0.56669 0.55914 0.0
H556 H 0.62756 0.60171 0.36736 0.0
H557 H 0.68119 0.61838 0.36683 0.0
H558 H 0.57692 0.60774 0.40401 0.0
H559 H 0.55105 0.58384 0.4453 0.0
C560 C 0.2386 0.38509 0.1774 0.0
C561 C 0.26667 0.37225 0.14963 0.0
C562 C 0.21959 0.37557 0.09374 0.0
C563 C 0.1928 0.39034 0.12127 0.0
N564 N 0.18187 0.41803 0.18683 0.0
N565 N 0.28823 0.36207 0.08064 0.0
C566 C 0.20397 0.39792 0.16234 0.0
C567 C 0.2585 0.36964 0.10748 0.0
N568 N 0.24364 0.38314 0.21831 0.0
N569 N 0.20713 0.36583 0.055 0.0
H570 H 0.31702 0.35767 0.08986 0.0
H571 H 0.28591 0.3634 0.04929 0.0
H572 H 0.179 0.37002 0.04383 0.0
H573 H 0.22315 0.35112 0.03484 0.0
H574 H 0.22142 0.38795 0.23978 0.0
H575 H 0.26818 0.37343 0.23095 0.0
H576 H 0.19123 0.42781 0.21578 0.0
H577 H 0.15639 0.42816 0.17678 0.0
C578 C 0.53391 0.17601 0.93739 0.0
C579 C 0.57366 0.19823 0.94777 0.0
C580 C 0.57583 0.15199 1.00279 0.0
C581 C 0.53779 0.12831 0.99012 0.0
N582 N 0.48662 0.11467 0.93781 0.0
N583 N 0.63599 0.20136 0.98603 0.0
C584 C 0.51869 0.13955 0.95523 0.0
C585 C 0.59551 0.18444 0.97932 0.0
N586 N 0.50934 0.19043 0.91174 0.0
N587 N 0.59264 0.1445 0.03837 0.0
H588 H 0.65175 0.22414 0.96925 0.0
H589 H 0.65508 0.19054 1.00538 0.0
H590 H 0.57971 0.12122 0.05582 0.0
H591 H 0.6172 0.16296 0.05211 0.0
H592 H 0.47847 0.17769 0.90631 0.0
H593 H 0.51828 0.21711 0.89922 0.0
H594 H 0.47399 0.11936 0.91017 0.0
H595 H 0.47588 0.08746 0.94851 0.0
C596 C 0.90376 0.87025 0.44574 0.0
C597 C 0.9312 0.8485 0.42731 0.0
C598 C 0.99038 0.90165 0.444 0.0
C599 C 0.96321 0.92198 0.46506 0.0
N600 N 0.89429 0.92177 0.49161 0.0
N601 N 1.00198 0.84189 0.41532 0.0
C602 C 0.91999 0.90506 0.46749 0.0
C603 C 0.97489 0.86395 0.42812 0.0
N604 N 0.86184 0.85853 0.441 0.0
N605 N 0.03125 0.91863 0.43856 0.0
H606 H 0.99213 0.81442 0.40414 0.0
H607 H 0.03403 0.84938 0.41905 0.0
H608 H 0.04383 0.94527 0.45064 0.0
H609 H 0.05193 0.9077 0.41968 0.0
H610 H 0.84027 0.87483 0.44953 0.0
H611 H 0.84877 0.83389 0.42511 0.0
H612 H 0.86363 0.90904 0.49874 0.0
H613 H 0.90471 0.9471 0.50738 0.0
C614 C 0.46288 0.82172 0.58909 0.0
C615 C 0.42635 0.81814 0.56635 0.0
C616 C 0.42248 0.75018 0.55789 0.0
C617 C 0.45735 0.75338 0.58346 0.0
N618 N 0.50952 0.7908 0.62593 0.0
N619 N 0.36914 0.7799 0.53079 0.0
C620 C 0.47746 0.7889 0.59969 0.0
C621 C 0.4055 0.78259 0.55109 0.0
N622 N 0.48291 0.85731 0.59963 0.0
N623 N 0.40621 0.71624 0.53961 0.0
H624 H 0.35709 0.80342 0.52377 0.0
H625 H 0.34973 0.75447 0.52267 0.0
H626 H 0.41722 0.69174 0.54466 0.0
H627 H 0.38365 0.71261 0.51743 0.0
H628 H 0.5113 0.8641 0.61431 0.0
H629 H 0.5113 0.8641 0.61431 0.0
H630 H 0.52271 0.8148 0.64259 0.0
H631 H 0.52174 0.7674 0.63306 0.0
C632 C 0.80805 0.82178 0.71844 0.0
C633 C 0.78417 0.84645 0.73636 0.0
C634 C 0.81618 0.89683 0.691 0.0
C635 C 0.84432 0.87403 0.67741 0.0
N636 N 0.85989 0.81258 0.6672 0.0
N637 N 0.7543 0.90132 0.73124 0.0
C638 C 0.8374 0.83542 0.68716 0.0
C639 C 0.78411 0.88182 0.71922 0.0
N640 N 0.8042 0.78635 0.73337 0.0
N641 N 0.82225 0.93356 0.67936 0.0
H642 H 0.73088 0.89072 0.75233 0.0
H643 H 0.75045 0.92611 0.71795 0.0
H644 H 0.84475 0.94506 0.65779 0.0
H645 H 0.80612 0.9531 0.6919 0.0
H646 H 0.8234 0.76786 0.72484 0.0
H647 H 0.78153 0.7757 0.75523 0.0
H648 H 0.8552 0.7836 0.67111 0.0
H649 H 0.88144 0.82258 0.64416 0.0
C650 C 0.80406 0.18343 0.21133 0.0
C651 C 0.79322 0.20865 0.24118 0.0
C652 C 0.7231 0.1994 0.21369 0.0
C653 C 0.7318 0.16943 0.18889 0.0
N654 N 0.7797 0.13055 0.1658 0.0
N655 N 0.74132 0.2387 0.27353 0.0
C656 C 0.77226 0.1611 0.18764 0.0
C657 C 0.75259 0.21662 0.24279 0.0
N658 N 0.8448 0.18092 0.20576 0.0
N659 N 0.68659 0.21133 0.20932 0.0
H660 H 0.76179 0.25183 0.29566 0.0
H661 H 0.7108 0.24177 0.27896 0.0
H662 H 0.66444 0.19918 0.18812 0.0
H663 H 0.6801 0.23539 0.22377 0.0
H664 H 0.85532 0.1657 0.18195 0.0
H665 H 0.8687 0.19705 0.22278 0.0
H666 H 0.80712 0.12051 0.16761 0.0
H667 H 0.75735 0.11342 0.14796 0.0
C668 C 0.40706 0.58054 0.39107 0.0
C669 C 0.42666 0.61781 0.37893 0.0
C670 C 0.47276 0.6202 0.43892 0.0
C671 C 0.45674 0.58131 0.44805 0.0
N672 N 0.40976 0.5238 0.42858 0.0
N673 N 0.48493 0.66951 0.3884 0.0
C674 C 0.42446 0.56137 0.42258 0.0
C675 C 0.46117 0.63662 0.40232 0.0
N676 N 0.37015 0.56391 0.374 0.0
N677 N 0.49917 0.64215 0.46527 0.0
H678 H 0.4788 0.68185 0.36157 0.0
H679 H 0.5132 0.68243 0.40105 0.0
H680 H 0.50946 0.63182 0.49139 0.0
H681 H 0.50784 0.67136 0.46315 0.0
H682 H 0.35172 0.53877 0.38409 0.0
H683 H 0.35567 0.57719 0.35248 0.0
H684 H 0.39046 0.50639 0.40827 0.0
H685 H 0.41887 0.50944 0.45268 0.0
C686 C 0.05506 0.43053 0.89181 0.0
C687 C 0.09771 0.43897 0.87834 0.0
C688 C 0.11001 0.48973 0.9322 0.0
C689 C 0.06791 0.48002 0.94686 0.0
N690 N 1.00329 0.43484 0.94519 0.0
N691 N 0.16741 0.47142 0.89384 0.0
C692 C 0.04156 0.44829 0.92815 0.0
C693 C 0.12555 0.46717 0.90092 0.0
N694 N 0.02655 0.40706 0.86854 0.0
N695 N 0.13551 0.52107 0.94802 0.0
H696 H 0.18005 0.45503 0.87251 0.0
H697 H 0.18971 0.48838 0.9118 0.0
H698 H 0.12661 0.53651 0.97258 0.0
H699 H 0.16457 0.53285 0.93548 0.0
H700 H 0.99455 0.40285 0.87387 0.0
H701 H 0.03452 0.39465 0.84145 0.0
H702 H 0.98378 0.40983 0.93587 0.0
H703 H 0.99298 0.44687 0.97144 0.0
C704 C 0.5925 0.94147 0.92321 0.0
C705 C 0.58733 0.906 0.94213 0.0
C706 C 0.52928 0.92052 0.98278 0.0
C707 C 0.54174 0.95875 0.97143 0.0
N708 N 0.58221 1.0059 0.92848 0.0
N709 N 0.55118 0.86142 0.99085 0.0
C710 C 0.57207 0.96922 0.94037 0.0
C711 C 0.55508 0.89492 0.97143 0.0
N712 N 0.61744 0.94846 0.88932 0.0
N713 N 0.49353 0.90885 1.00511 0.0
H714 H 0.56937 0.84171 0.98352 0.0
H715 H 0.53183 0.85426 1.01619 0.0
H716 H 0.47399 0.92682 1.01444 0.0
H717 H 0.48122 0.88061 1.01111 0.0
H718 H 0.62031 0.97273 0.87229 0.0
H719 H 0.6323 0.92814 0.87617 0.0
H720 H 0.60742 1.01641 0.90935 0.0
H721 H 0.56595 1.02621 0.93915 0.0
C722 C 0.90287 0.09943 0.46466 0.0
C723 C 0.90022 0.13167 0.48913 0.0
C724 C 0.90564 0.09609 0.5504 0.0
C725 C 0.91669 0.06705 0.52563 0.0
N726 N 0.90455 1.03274 0.46242 0.0
N727 N 0.89825 0.16127 0.55528 0.0
C728 C 0.90886 0.06613 0.48354 0.0
C729 C 0.90058 0.12997 0.5321 0.0
N730 N 0.90095 0.10109 0.42336 0.0
N731 N 0.89769 0.09036 0.59087 0.0
H732 H 0.89434 0.18655 0.54299 0.0
H733 H 0.90311 0.16313 0.58641 0.0
H734 H 0.89624 0.06416 0.60388 0.0
H735 H 0.88679 0.10945 0.61021 0.0
H736 H 0.90817 0.08051 0.40352 0.0
H737 H 0.89393 0.1241 0.4086 0.0
H738 H 0.89617 1.02915 0.43213 0.0
H739 H 0.9042 1.00739 0.47689 0.0
C740 C 0.20296 0.5802 0.11878 0.0
C741 C 0.20316 0.61359 0.14267 0.0
C742 C 0.12816 0.60765 0.12714 0.0
C743 C 0.12889 0.57615 0.10039 0.0
N744 N 0.16996 0.53663 0.06607 0.0
N745 N 0.16653 0.6616 0.16533 0.0
C746 C 0.1671 0.56345 0.09523 0.0
C747 C 0.16587 0.62797 0.14547 0.0
N748 N 0.23714 0.56413 0.1188 0.0
N749 N 0.09088 0.6172 0.13684 0.0
H750 H 0.19256 0.67633 0.18056 0.0
H751 H 0.1424 0.67623 0.16435 0.0
H752 H 0.06273 0.60321 0.12475 0.0
H753 H 0.08713 0.63665 0.15964 0.0
H754 H 0.23763 0.5376 0.10623 0.0
H755 H 0.26421 0.57612 0.13417 0.0
H756 H 0.19769 0.52864 0.05756 0.0
H757 H 0.14524 0.52479 0.0475 0.0
C758 C 0.33444 0.48245 0.62508 0.0
C759 C 0.32614 0.44323 0.63391 0.0
C760 C 0.39308 0.43872 0.59903 0.0
C761 C 0.39979 0.47723 0.58742 0.0
N762 N 0.37386 0.53457 0.58563 0.0
N763 N 0.34519 0.38295 0.62393 0.0
C764 C 0.36958 0.49872 0.59953 0.0
C765 C 0.35494 0.42117 0.6194 0.0
N766 N 0.30926 0.50451 0.64215 0.0
N767 N 0.42384 0.41897 0.59162 0.0
H768 H 0.31814 0.36917 0.63885 0.0
H769 H 0.36199 0.36451 0.6101 0.0
H770 H 0.4518 0.43046 0.57679 0.0
H771 H 0.4234 0.39244 0.60329 0.0
H772 H 0.31575 0.53382 0.64103 0.0
H773 H 0.28317 0.4936 0.66014 0.0
H774 H 0.35106 0.5506 0.58926 0.0
H775 H 0.39926 0.54747 0.5678 0.0
C776 C 0.806 0.68067 0.89477 0.0
C777 C 0.77261 0.67728 0.92353 0.0
C778 C 0.80079 0.63076 0.96068 0.0
C779 C 0.83814 0.64081 0.93746 0.0
N780 N 0.87609 0.67144 0.87999 0.0
N781 N 0.73362 0.64545 0.97948 0.0
C782 C 0.84023 0.66381 0.90302 0.0
C783 C 0.76813 0.65034 0.95461 0.0
N784 N 0.80546 0.701 0.86044 0.0
N785 N 0.79739 0.60328 0.989 0.0
H786 H 0.70878 0.65851 0.97402 0.0
H787 H 0.72963 0.62921 1.00544 0.0
H788 H 0.82125 0.58885 0.99376 0.0
H789 H 0.77035 0.59289 1.0057 0.0
H790 H 0.82711 0.70219 0.83669 0.0
H791 H 0.7812 0.71425 0.85386 0.0
H792 H 0.88207 0.6917 0.85758 0.0
H793 H 0.90097 0.65818 0.88434 0.0
C794 C 0.41359 0.89125 0.15981 0.0
C795 C 0.43815 0.86304 0.1649 0.0
C796 C 0.4937 0.90358 0.12416 0.0
C797 C 0.46935 0.93132 0.11665 0.0
N798 N 0.40064 0.94523 0.12272 0.0
N799 N 0.5108 0.86692 0.17827 0.0
C800 C 0.42774 0.92337 0.13335 0.0
C801 C 0.48099 0.87581 0.15448 0.0
N802 N 0.38068 0.89157 0.18574 0.0
N803 N 0.52868 0.90179 0.10163 0.0
H804 H 0.50333 0.8542 0.20633 0.0
H805 H 0.54248 0.87784 0.17332 0.0
H806 H 0.53676 0.91636 0.07487 0.0
H807 H 0.54572 0.88091 0.10617 0.0
H808 H 0.36328 0.91259 0.18633 0.0
H809 H 0.37601 0.87505 0.21158 0.0
H810 H 0.36894 0.93855 0.12993 0.0
H811 H 0.40871 0.96751 0.1028 0.0
C812 C 0.05975 0.20278 0.61074 0.0
C813 C 0.09466 0.20683 0.63664 0.0
C814 C 0.10082 0.14152 0.61537 0.0
C815 C 0.0632 0.13594 0.59302 0.0
N816 N 1.00319 0.1609 0.5761 0.0
N817 N 0.14358 0.17617 0.66871 0.0
C818 C 0.04184 0.16661 0.59245 0.0
C819 C 0.11374 0.17502 0.64029 0.0
N820 N 0.04428 0.23393 0.60231 0.0
N821 N 0.12576 0.11572 0.61122 0.0
H822 H 0.15351 0.19955 0.68769 0.0
H823 H 0.15549 0.15273 0.67616 0.0
H824 H 0.11881 0.09202 0.59213 0.0
H825 H 0.1555 0.11991 0.62313 0.0
H826 H 0.02224 0.23414 0.58015 0.0
H827 H 0.05626 0.26054 0.61481 0.0
H828 H 0.98408 0.18052 0.57854 0.0
H829 H 0.98846 0.13512 0.56358 0.0
C830 C 0.74433 0.38166 0.42676 0.0
C831 C 0.75169 0.35271 0.45211 0.0
C832 C 0.69175 0.35924 0.49551 0.0
C833 C 0.68161 0.38488 0.46745 0.0
N834 N 0.69619 0.41978 0.40556 0.0
N835 N 0.73269 0.31245 0.50959 0.0
C836 C 0.70757 0.39619 0.43301 0.0
C837 C 0.72567 0.3413 0.48647 0.0
N838 N 0.7727 0.39531 0.39688 0.0
N839 N 0.66915 0.35246 0.53093 0.0
H840 H 0.75833 0.29986 0.50487 0.0
H841 H 0.7122 0.29961 0.53209 0.0
H842 H 0.64359 0.36458 0.53803 0.0
H843 H 0.6773 0.3371 0.55462 0.0
H844 H 0.77159 0.419 0.38002 0.0
H845 H 0.79947 0.38466 0.39083 0.0
H846 H 0.71083 0.4256 0.37741 0.0
H847 H 0.67029 0.43208 0.40984 0.0
loop_
_geom_bond_atom_site_label_1
_geom_bond_atom_site_label_2
_geom_bond_distance
_geom_bond_site_symmetry_2
_ccdc_geom_bond_type
P0 O11 1.490 . S
P0 C14 1.812 . S
P0 C20 1.803 . S
P0 C26 1.819 . S
H1 C15 0.941 . S
H2 C16 0.939 . S
H3 C18 0.940 . S
H4 C19 0.940 . S
H5 C21 0.939 . S
H6 C22 0.942 . S
H7 C24 0.940 . S
H8 C25 0.939 . S
H9 C27 0.941 . S
H10 C31 0.939 . S
O11 P0 1.490 . S
H12 C28 0.939 . S
H13 C30 0.940 . S
C14 P0 1.812 . S
C14 C15 1.389 . S
C14 C19 1.391 . S
C15 H1 0.941 . S
C15 C14 1.389 . S
C15 C16 1.397 . S
C16 H2 0.939 . S
C16 C15 1.397 . S
C16 C17 1.378 . S
C17 C16 1.378 . S
C17 C18 1.378 . S
C18 H3 0.940 . S
C18 C17 1.378 . S
C18 C19 1.396 . S
C19 H4 0.940 . S
C19 C14 1.391 . S
C19 C18 1.396 . S
C20 P0 1.803 . S
C20 C21 1.378 . S
C20 C25 1.400 . S
C21 H5 0.939 . S
C21 C20 1.378 . S
C21 C22 1.361 . S
C22 H6 0.942 . S
C22 C21 1.361 . S
C22 C23 1.369 . S
C23 C22 1.369 . S
C23 C24 1.404 . S
C24 H7 0.940 . S
C24 C23 1.404 . S
C24 C25 1.389 . S
C25 H8 0.939 . S
C25 C20 1.400 . S
C25 C24 1.389 . S
C26 P0 1.819 . S
C26 C27 1.391 . S
C26 C31 1.391 . S
C27 H9 0.941 . S
C27 C26 1.391 . S
C27 C28 1.396 . S
C28 H12 0.939 . S
C28 C27 1.396 . S
C28 C29 1.397 . S
C29 C28 1.397 . S
C29 C30 1.385 . S
C30 H13 0.940 . S
C30 C29 1.385 . S
C30 C31 1.388 . S
C31 H10 0.939 . S
C31 C26 1.391 . S
C31 C30 1.388 . S
P32 O43 1.490 . S
P32 C46 1.812 . S
P32 C52 1.803 . S
P32 C58 1.819 . S
H33 C47 0.941 . S
H34 C48 0.939 . S
H35 C50 0.940 . S
H36 C51 0.940 . S
H37 C53 0.939 . S
H38 C54 0.942 . S
H39 C56 0.940 . S
H40 C57 0.939 . S
H41 C59 0.941 . S
H42 C63 0.939 . S
O43 P32 1.490 . S
H44 C60 0.939 . S
H45 C62 0.940 . S
C46 P32 1.812 . S
C46 C47 1.389 . S
C46 C51 1.391 . S
C47 H33 0.941 . S
C47 C46 1.389 . S
C47 C48 1.397 . S
C48 H34 0.939 . S
C48 C47 1.397 . S
C48 C49 1.378 . S
C49 C48 1.378 . S
C49 C50 1.378 . S
C50 H35 0.940 . S
C50 C49 1.378 . S
C50 C51 1.396 . S
C51 H36 0.940 . S
C51 C46 1.391 . S
C51 C50 1.396 . S
C52 P32 1.803 . S
C52 C53 1.378 . S
C52 C57 1.400 . S
C53 H37 0.939 . S
C53 C52 1.378 . S
C53 C54 1.361 . S
C54 H38 0.942 . S
C54 C53 1.361 . S
C54 C55 1.369 . S
C55 C54 1.369 . S
C55 C56 1.404 . S
C56 H39 0.940 . S
C56 C55 1.404 . S
C56 C57 1.389 . S
C57 H40 0.939 . S
C57 C52 1.400 . S
C57 C56 1.389 . S
C58 P32 1.819 . S
C58 C59 1.391 . S
C58 C63 1.391 . S
C59 H41 0.941 . S
C59 C58 1.391 . S
C59 C60 1.396 . S
C60 H44 0.939 . S
C60 C59 1.396 . S
C60 C61 1.397 . S
C61 C60 1.397 . S
C61 C62 1.385 . S
C62 H45 0.940 . S
C62 C61 1.385 . S
C62 C63 1.388 . S
C63 H42 0.939 . S
C63 C58 1.391 . S
C63 C62 1.388 . S
P64 O75 1.490 . S
P64 C78 1.812 . S
P64 C84 1.803 . S
P64 C90 1.819 . S
H65 C79 0.941 . S
H66 C80 0.939 . S
H67 C82 0.940 . S
H68 C83 0.940 . S
H69 C85 0.939 . S
H70 C86 0.942 . S
H71 C88 0.940 . S
H72 C89 0.939 . S
H73 C91 0.941 . S
H74 C95 0.939 . S
O75 P64 1.490 . S
H76 C92 0.939 . S
H77 C94 0.940 . S
C78 P64 1.812 . S
C78 C79 1.389 . S
C78 C83 1.391 . S
C79 H65 0.941 . S
C79 C78 1.389 . S
C79 C80 1.397 . S
C80 H66 0.939 . S
C80 C79 1.397 . S
C80 C81 1.378 . S
C81 C80 1.378 . S
C81 C82 1.378 . S
C82 H67 0.940 . S
C82 C81 1.378 . S
C82 C83 1.396 . S
C83 H68 0.940 . S
C83 C78 1.391 . S
C83 C82 1.396 . S
C84 P64 1.803 . S
C84 C85 1.378 . S
C84 C89 1.400 . S
C85 H69 0.939 . S
C85 C84 1.378 . S
C85 C86 1.361 . S
C86 H70 0.942 . S
C86 C85 1.361 . S
C86 C87 1.369 . S
C87 C86 1.369 . S
C87 C88 1.404 . S
C88 H71 0.940 . S
C88 C87 1.404 . S
C88 C89 1.389 . S
C89 H72 0.939 . S
C89 C84 1.400 . S
C89 C88 1.389 . S
C90 P64 1.819 . S
C90 C91 1.391 . S
C90 C95 1.391 . S
C91 H73 0.941 . S
C91 C90 1.391 . S
C91 C92 1.396 . S
C92 H76 0.939 . S
C92 C91 1.396 . S
C92 C93 1.397 . S
C93 C92 1.397 . S
C93 C94 1.385 . S
C94 H77 0.940 . S
C94 C93 1.385 . S
C94 C95 1.388 . S
C95 H74 0.939 . S
C95 C90 1.391 . S
C95 C94 1.388 . S
P96 O107 1.490 . S
P96 C110 1.812 . S
P96 C116 1.803 . S
P96 C122 1.819 . S
H97 C111 0.941 . S
H98 C112 0.939 . S
H99 C114 0.940 . S
H100 C115 0.940 . S
H101 C117 0.939 . S
H102 C118 0.942 . S
H103 C120 0.940 . S
H104 C121 0.939 . S
H105 C123 0.941 . S
H106 C127 0.939 . S
O107 P96 1.490 . S
H108 C124 0.939 . S
H109 C126 0.940 . S
C110 P96 1.812 . S
C110 C111 1.389 . S
C110 C115 1.391 . S
C111 H97 0.941 . S
C111 C110 1.389 . S
C111 C112 1.397 . S
C112 H98 0.939 . S
C112 C111 1.397 . S
C112 C113 1.378 . S
C113 C112 1.378 . S
C113 C114 1.378 . S
C114 H99 0.940 . S
C114 C113 1.378 . S
C114 C115 1.396 . S
C115 H100 0.940 . S
C115 C110 1.391 . S
C115 C114 1.396 . S
C116 P96 1.803 . S
C116 C117 1.378 . S
C116 C121 1.400 . S
C117 H101 0.939 . S
C117 C116 1.378 . S
C117 C118 1.361 . S
C118 H102 0.942 . S
C118 C117 1.361 . S
C118 C119 1.369 . S
C119 C118 1.369 . S
C119 C120 1.404 . S
C120 H103 0.940 . S
C120 C119 1.404 . S
C120 C121 1.389 . S
C121 H104 0.939 . S
C121 C116 1.400 . S
C121 C120 1.389 . S
C122 P96 1.819 . S
C122 C123 1.391 . S
C122 C127 1.391 . S
C123 H105 0.941 . S
C123 C122 1.391 . S
C123 C124 1.396 . S
C124 H108 0.939 . S
C124 C123 1.396 . S
C124 C125 1.397 . S
C125 C124 1.397 . S
C125 C126 1.385 . S
C126 H109 0.940 . S
C126 C125 1.385 . S
C126 C127 1.388 . S
C127 H106 0.939 . S
C127 C122 1.391 . S
C127 C126 1.388 . S
P128 O139 1.490 . S
P128 C142 1.812 . S
P128 C148 1.803 . S
P128 C154 1.819 . S
H129 C143 0.941 . S
H130 C144 0.939 . S
H131 C146 0.940 . S
H132 C147 0.940 . S
H133 C149 0.939 . S
H134 C150 0.942 . S
H135 C152 0.940 . S
H136 C153 0.939 . S
H137 C155 0.941 . S
H138 C159 0.939 . S
O139 P128 1.490 . S
H140 C156 0.939 . S
H141 C158 0.940 . S
C142 P128 1.812 . S
C142 C143 1.389 . S
C142 C147 1.391 . S
C143 H129 0.941 . S
C143 C142 1.389 . S
C143 C144 1.397 . S
C144 H130 0.939 . S
C144 C143 1.397 . S
C144 C145 1.378 . S
C145 C144 1.378 . S
C145 C146 1.378 . S
C146 H131 0.940 . S
C146 C145 1.378 . S
C146 C147 1.396 . S
C147 H132 0.940 . S
C147 C142 1.391 . S
C147 C146 1.396 . S
C148 P128 1.803 . S
C148 C149 1.378 . S
C148 C153 1.400 . S
C149 H133 0.939 . S
C149 C148 1.378 . S
C149 C150 1.361 . S
C150 H134 0.942 . S
C150 C149 1.361 . S
C150 C151 1.369 . S
C151 C150 1.369 . S
C151 C152 1.404 . S
C152 H135 0.940 . S
C152 C151 1.404 . S
C152 C153 1.389 . S
C153 H136 0.939 . S
C153 C148 1.400 . S
C153 C152 1.389 . S
C154 P128 1.819 . S
C154 C155 1.391 . S
C154 C159 1.391 . S
C155 H137 0.941 . S
C155 C154 1.391 . S
C155 C156 1.396 . S
C156 H140 0.939 . S
C156 C155 1.396 . S
C156 C157 1.397 . S
C157 C156 1.397 . S
C157 C158 1.385 . S
C158 H141 0.940 . S
C158 C157 1.385 . S
C158 C159 1.388 . S
C159 H138 0.939 . S
C159 C154 1.391 . S
C159 C158 1.388 . S
P160 O171 1.490 . S
P160 C174 1.812 . S
P160 C180 1.803 . S
P160 C186 1.819 . S
H161 C175 0.941 . S
H162 C176 0.939 . S
H163 C178 0.940 . S
H164 C179 0.940 . S
H165 C181 0.939 . S
H166 C182 0.942 . S
H167 C184 0.940 . S
H168 C185 0.939 . S
H169 C187 0.941 . S
H170 C191 0.939 . S
O171 P160 1.490 . S
H172 C188 0.939 . S
H173 C190 0.940 . S
C174 P160 1.812 . S
C174 C175 1.389 . S
C174 C179 1.391 . S
C175 H161 0.941 . S
C175 C174 1.389 . S
C175 C176 1.397 . S
C176 H162 0.939 . S
C176 C175 1.397 . S
C176 C177 1.378 . S
C177 C176 1.378 . S
C177 C178 1.378 . S
C178 H163 0.940 . S
C178 C177 1.378 . S
C178 C179 1.396 . S
C179 H164 0.940 . S
C179 C174 1.391 . S
C179 C178 1.396 . S
C180 P160 1.803 . S
C180 C181 1.378 . S
C180 C185 1.400 . S
C181 H165 0.939 . S
C181 C180 1.378 . S
C181 C182 1.361 . S
C182 H166 0.942 . S
C182 C181 1.361 . S
C182 C183 1.369 . S
C183 C182 1.369 . S
C183 C184 1.404 . S
C184 H167 0.940 . S
C184 C183 1.404 . S
C184 C185 1.389 . S
C185 H168 0.939 . S
C185 C180 1.400 . S
C185 C184 1.389 . S
C186 P160 1.819 . S
C186 C187 1.391 . S
C186 C191 1.391 . S
C187 H169 0.941 . S
C187 C186 1.391 . S
C187 C188 1.396 . S
C188 H172 0.939 . S
C188 C187 1.396 . S
C188 C189 1.397 . S
C189 C188 1.397 . S
C189 C190 1.385 . S
C190 H173 0.940 . S
C190 C189 1.385 . S
C190 C191 1.388 . S
C191 H170 0.939 . S
C191 C186 1.391 . S
C191 C190 1.388 . S
P192 O203 1.490 . S
P192 C206 1.812 . S
P192 C212 1.803 . S
P192 C218 1.819 . S
H193 C207 0.941 . S
H194 C208 0.939 . S
H195 C210 0.940 . S
H196 C211 0.940 . S
H197 C213 0.939 . S
H198 C214 0.942 . S
H199 C216 0.940 . S
H200 C217 0.939 . S
H201 C219 0.941 . S
H202 C223 0.939 . S
O203 P192 1.490 . S
H204 C220 0.939 . S
H205 C222 0.940 . S
C206 P192 1.812 . S
C206 C207 1.389 . S
C206 C211 1.391 . S
C207 H193 0.941 . S
C207 C206 1.389 . S
C207 C208 1.397 . S
C208 H194 0.939 . S
C208 C207 1.397 . S
C208 C209 1.378 . S
C209 C208 1.378 . S
C209 C210 1.378 . S
C210 H195 0.940 . S
C210 C209 1.378 . S
C210 C211 1.396 . S
C211 H196 0.940 . S
C211 C206 1.391 . S
C211 C210 1.396 . S
C212 P192 1.803 . S
C212 C213 1.378 . S
C212 C217 1.400 . S
C213 H197 0.939 . S
C213 C212 1.378 . S
C213 C214 1.361 . S
C214 H198 0.942 . S
C214 C213 1.361 . S
C214 C215 1.369 . S
C215 C214 1.369 . S
C215 C216 1.404 . S
C216 H199 0.940 . S
C216 C215 1.404 . S
C216 C217 1.389 . S
C217 H200 0.939 . S
C217 C212 1.400 . S
C217 C216 1.389 . S
C218 P192 1.819 . S
C218 C219 1.391 . S
C218 C223 1.391 . S
C219 H201 0.941 . S
C219 C218 1.391 . S
C219 C220 1.396 . S
C220 H204 0.939 . S
C220 C219 1.396 . S
C220 C221 1.397 . S
C221 C220 1.397 . S
C221 C222 1.385 . S
C222 H205 0.940 . S
C222 C221 1.385 . S
C222 C223 1.388 . S
C223 H202 0.939 . S
C223 C218 1.391 . S
C223 C222 1.388 . S
P224 O235 1.490 . S
P224 C238 1.812 . S
P224 C244 1.803 . S
P224 C250 1.819 . S
H225 C239 0.941 . S
H226 C240 0.939 . S
H227 C242 0.940 . S
H228 C243 0.940 . S
H229 C245 0.939 . S
H230 C246 0.942 . S
H231 C248 0.940 . S
H232 C249 0.939 . S
H233 C251 0.941 . S
H234 C255 0.939 . S
O235 P224 1.490 . S
H236 C252 0.939 . S
H237 C254 0.940 . S
C238 P224 1.812 . S
C238 C239 1.389 . S
C238 C243 1.391 . S
C239 H225 0.941 . S
C239 C238 1.389 . S
C239 C240 1.397 . S
C240 H226 0.939 . S
C240 C239 1.397 . S
C240 C241 1.378 . S
C241 C240 1.378 . S
C241 C242 1.378 . S
C242 H227 0.940 . S
C242 C241 1.378 . S
C242 C243 1.396 . S
C243 H228 0.940 . S
C243 C238 1.391 . S
C243 C242 1.396 . S
C244 P224 1.803 . S
C244 C245 1.378 . S
C244 C249 1.400 . S
C245 H229 0.939 . S
C245 C244 1.378 . S
C245 C246 1.361 . S
C246 H230 0.942 . S
C246 C245 1.361 . S
C246 C247 1.369 . S
C247 C246 1.369 . S
C247 C248 1.404 . S
C248 H231 0.940 . S
C248 C247 1.404 . S
C248 C249 1.389 . S
C249 H232 0.939 . S
C249 C244 1.400 . S
C249 C248 1.389 . S
C250 P224 1.819 . S
C250 C251 1.391 . S
C250 C255 1.391 . S
C251 H233 0.941 . S
C251 C250 1.391 . S
C251 C252 1.396 . S
C252 H236 0.939 . S
C252 C251 1.396 . S
C252 C253 1.397 . S
C253 C252 1.397 . S
C253 C254 1.385 . S
C254 H237 0.940 . S
C254 C253 1.385 . S
C254 C255 1.388 . S
C255 H234 0.939 . S
C255 C250 1.391 . S
C255 C254 1.388 . S
La256 C258 2.928 . S
La256 O276 2.521 . S
La256 O277 2.628 . S
La256 O278 2.554 1_545 S
La256 O279 2.757 1_545 S
La256 O280 2.470 . S
La256 O285 2.482 1_455 S
La256 O287 2.503 1_445 S
La257 C267 2.928 . S
La257 O279 2.482 1_655 S
La257 O281 2.503 1_665 S
La257 O282 2.521 . S
La257 O283 2.628 . S
La257 O284 2.554 1_565 S
La257 O285 2.757 1_565 S
La257 O286 2.470 . S
C258 La256 2.928 . S
C258 C259 1.503 . S
C258 O276 1.261 . S
C258 O277 1.243 . S
C259 C258 1.503 . S
C259 C260 1.394 . S
C259 C264 1.373 . S
C260 C259 1.394 . S
C260 C261 1.380 . S
C260 H288 0.930 . S
C261 C260 1.380 . S
C261 C262 1.376 . S
C261 H289 0.930 . S
C262 C261 1.376 . S
C262 C263 1.370 . S
C263 C262 1.370 . S
C263 C264 1.396 . S
C263 H290 0.929 . S
C264 C259 1.373 . S
C264 C263 1.396 . S
C264 H291 0.929 . S
C265 O278 1.240 . S
C265 O279 1.289 . S
C266 O280 1.258 . S
C266 O281 1.256 . S
C267 La257 2.928 . S
C267 C268 1.503 . S
C267 O282 1.261 . S
C267 O283 1.243 . S
C268 C267 1.503 . S
C268 C269 1.394 . S
C268 C273 1.373 . S
C269 C268 1.394 . S
C269 C270 1.380 . S
C269 H292 0.930 . S
C270 C269 1.380 . S
C270 C271 1.376 . S
C270 H293 0.930 . S
C271 C270 1.376 . S
C271 C272 1.370 . S
C272 C271 1.370 . S
C272 C273 1.396 . S
C272 H294 0.929 . S
C273 C268 1.373 . S
C273 C272 1.396 . S
C273 H295 0.929 . S
C274 O284 1.240 . S
C274 O285 1.289 . S
C275 O286 1.258 . S
C275 O287 1.256 . S
O276 La256 2.521 . S
O276 C258 1.261 . S
O277 La256 2.628 . S
O277 C258 1.243 . S
O278 La256 2.554 1_565 S
O278 C265 1.240 . S
O279 La256 2.757 1_565 S
O279 La257 2.482 1_455 S
O279 C265 1.289 . S
O280 La256 2.470 . S
O280 C266 1.258 . S
O281 La257 2.503 1_445 S
O281 C266 1.256 . S
O282 La257 2.521 . S
O282 C267 1.261 . S
O283 La257 2.628 . S
O283 C267 1.243 . S
O284 La257 2.554 1_545 S
O284 C274 1.240 . S
O285 La256 2.482 1_655 S
O285 La257 2.757 1_545 S
O285 C274 1.289 . S
O286 La257 2.470 . S
O286 C275 1.258 . S
O287 La256 2.503 1_665 S
O287 C275 1.256 . S
H288 C260 0.930 . S
H289 C261 0.930 . S
H290 C263 0.929 . S
H291 C264 0.929 . S
H292 C269 0.930 . S
H293 C270 0.930 . S
H294 C272 0.929 . S
H295 C273 0.929 . S
La296 C298 2.928 . S
La296 O316 2.521 . S
La296 O317 2.628 . S
La296 O318 2.554 1_545 S
La296 O319 2.757 1_545 S
La296 O320 2.470 . S
La296 O325 2.482 1_554 S
La296 O327 2.503 1_544 S
La297 C307 2.928 1_545 S
La297 O319 2.482 1_546 S
La297 O321 2.503 1_556 S
La297 O322 2.523 . S
La297 O323 2.628 1_545 S
La297 O324 2.554 . S
La297 O325 2.757 . S
La297 O326 2.470 1_545 S
C298 La296 2.928 . S
C298 C299 1.503 . S
C298 O316 1.261 . S
C298 O317 1.243 . S
C299 C298 1.503 . S
C299 C300 1.394 . S
C299 C304 1.373 . S
C300 C299 1.394 . S
C300 C301 1.380 . S
C300 H328 0.930 . S
C301 C300 1.380 . S
C301 C302 1.376 . S
C301 H329 0.930 . S
C302 C301 1.376 . S
C302 C303 1.370 . S
C303 C302 1.370 . S
C303 C304 1.396 . S
C303 H330 0.929 . S
C304 C299 1.373 . S
C304 C303 1.396 . S
C304 H331 0.929 . S
C305 O318 1.240 . S
C305 O319 1.289 . S
C306 O320 1.258 . S
C306 O321 1.256 . S
C307 La297 2.928 1_565 S
C307 C308 1.503 . S
C307 O322 1.229 1_565 S
C307 O323 1.243 . S
C308 C307 1.503 . S
C308 C309 1.394 . S
C308 C313 1.373 . S
C309 C308 1.394 . S
C309 C310 1.380 . S
C309 H332 0.930 . S
C310 C309 1.380 . S
C310 C311 1.376 . S
C310 H333 0.930 . S
C311 C310 1.376 . S
C311 C312 1.370 . S
C312 C311 1.370 . S
C312 C313 1.396 . S
C312 H334 0.929 . S
C313 C308 1.373 . S
C313 C312 1.396 . S
C313 H335 0.929 . S
C314 O324 1.240 . S
C314 O325 1.289 . S
C315 O326 1.258 . S
C315 O327 1.256 . S
O316 La296 2.521 . S
O316 C298 1.261 . S
O317 La296 2.628 . S
O317 C298 1.243 . S
O318 La296 2.554 1_565 S
O318 C305 1.240 . S
O319 La296 2.757 1_565 S
O319 La297 2.482 1_564 S
O319 C305 1.289 . S
O320 La296 2.470 . S
O320 C306 1.258 . S
O321 La297 2.503 1_554 S
O321 C306 1.256 . S
O322 La297 2.523 . S
O322 C307 1.229 1_545 S
O323 La297 2.628 1_565 S
O323 C307 1.243 . S
O324 La297 2.554 . S
O324 C314 1.240 . S
O325 La296 2.482 1_556 S
O325 La297 2.757 . S
O325 C314 1.289 . S
O326 La297 2.470 1_565 S
O326 C315 1.258 . S
O327 La296 2.503 1_566 S
O327 C315 1.256 . S
H328 C300 0.930 . S
H329 C301 0.930 . S
H330 C303 0.929 . S
H331 C304 0.929 . S
H332 C309 0.930 . S
H333 C310 0.930 . S
H334 C312 0.929 . S
H335 C313 0.929 . S
La336 C338 2.928 . S
La336 O356 2.521 . S
La336 O357 2.628 . S
La336 O358 2.554 . S
La336 O359 2.757 . S
La336 O360 2.470 . S
La336 O365 2.482 . S
La336 O367 2.503 . S
La337 C347 2.928 . S
La337 O359 2.482 . S
La337 O361 2.503 . S
La337 O362 2.521 . S
La337 O363 2.628 . S
La337 O364 2.554 . S
La337 O365 2.757 . S
La337 O366 2.470 . S
C338 La336 2.928 . S
C338 C339 1.503 . S
C338 O356 1.261 . S
C338 O357 1.243 . S
C339 C338 1.503 . S
C339 C340 1.394 . S
C339 C344 1.373 . S
C340 C339 1.394 . S
C340 C341 1.380 . S
C340 H368 0.930 . S
C341 C340 1.380 . S
C341 C342 1.376 . S
C341 H369 0.930 . S
C342 C341 1.376 . S
C342 C343 1.370 . S
C343 C342 1.370 . S
C343 C344 1.396 . S
C343 H370 0.929 . S
C344 C339 1.373 . S
C344 C343 1.396 . S
C344 H371 0.929 . S
C345 O358 1.240 . S
C345 O359 1.289 . S
C346 O360 1.258 . S
C346 O361 1.256 . S
C347 La337 2.928 . S
C347 C348 1.503 . S
C347 O362 1.261 . S
C347 O363 1.243 . S
C348 C347 1.503 . S
C348 C349 1.394 . S
C348 C353 1.373 . S
C349 C348 1.394 . S
C349 C350 1.380 . S
C349 H372 0.930 . S
C350 C349 1.380 . S
C350 C351 1.376 . S
C350 H373 0.930 . S
C351 C350 1.376 . S
C351 C352 1.370 . S
C352 C351 1.370 . S
C352 C353 1.396 . S
C352 H374 0.929 . S
C353 C348 1.373 . S
C353 C352 1.396 . S
C353 H375 0.929 . S
C354 O364 1.240 . S
C354 O365 1.289 . S
C355 O366 1.258 . S
C355 O367 1.256 . S
O356 La336 2.521 . S
O356 C338 1.261 . S
O357 La336 2.628 . S
O357 C338 1.243 . S
O358 La336 2.554 . S
O358 C345 1.240 . S
O359 La336 2.757 . S
O359 La337 2.482 . S
O359 C345 1.289 . S
O360 La336 2.470 . S
O360 C346 1.258 . S
O361 La337 2.503 . S
O361 C346 1.256 . S
O362 La337 2.521 . S
O362 C347 1.261 . S
O363 La337 2.628 . S
O363 C347 1.243 . S
O364 La337 2.554 . S
O364 C354 1.240 . S
O365 La336 2.482 . S
O365 La337 2.757 . S
O365 C354 1.289 . S
O366 La337 2.470 . S
O366 C355 1.258 . S
O367 La336 2.503 . S
O367 C355 1.256 . S
H368 C340 0.930 . S
H369 C341 0.930 . S
H370 C343 0.929 . S
H371 C344 0.929 . S
H372 C349 0.930 . S
H373 C350 0.930 . S
H374 C352 0.929 . S
H375 C353 0.929 . S
La376 C378 2.928 . S
La376 O396 2.521 . S
La376 O397 2.628 . S
La376 O398 2.554 1_455 S
La376 O399 2.757 1_455 S
La376 O400 2.470 . S
La376 O405 2.482 1_554 S
La376 O407 2.503 1_454 S
La377 C387 2.928 . S
La377 O399 2.482 1_556 S
La377 O401 2.503 1_656 S
La377 O402 2.521 . S
La377 O403 2.628 . S
La377 O404 2.554 1_655 S
La377 O405 2.757 1_655 S
La377 O406 2.470 . S
C378 La376 2.928 . S
C378 C379 1.503 . S
C378 O396 1.261 . S
C378 O397 1.243 . S
C379 C378 1.503 . S
C379 C380 1.394 . S
C379 C384 1.373 . S
C380 C379 1.394 . S
C380 C381 1.380 . S
C380 H408 0.930 . S
C381 C380 1.380 . S
C381 C382 1.376 . S
C381 H409 0.930 . S
C382 C381 1.376 . S
C382 C383 1.370 . S
C383 C382 1.370 . S
C383 C384 1.396 . S
C383 H410 0.929 . S
C384 C379 1.373 . S
C384 C383 1.396 . S
C384 H411 0.929 . S
C385 O398 1.240 . S
C385 O399 1.289 . S
C386 O400 1.258 . S
C386 O401 1.256 . S
C387 La377 2.928 . S
C387 C388 1.503 . S
C387 O402 1.261 . S
C387 O403 1.243 . S
C388 C387 1.503 . S
C388 C389 1.394 . S
C388 C393 1.373 . S
C389 C388 1.394 . S
C389 C390 1.380 . S
C389 H412 0.930 . S
C390 C389 1.380 . S
C390 C391 1.376 . S
C390 H413 0.930 . S
C391 C390 1.376 . S
C391 C392 1.370 . S
C392 C391 1.370 . S
C392 C393 1.396 . S
C392 H414 0.929 . S
C393 C388 1.373 . S
C393 C392 1.396 . S
C393 H415 0.929 . S
C394 O404 1.240 . S
C394 O405 1.289 . S
C395 O406 1.258 . S
C395 O407 1.256 . S
O396 La376 2.521 . S
O396 C378 1.261 . S
O397 La376 2.628 . S
O397 C378 1.243 . S
O398 La376 2.554 1_655 S
O398 C385 1.240 . S
O399 La376 2.757 1_655 S
O399 La377 2.482 1_554 S
O399 C385 1.289 . S
O400 La376 2.470 . S
O400 C386 1.258 . S
O401 La377 2.503 1_454 S
O401 C386 1.256 . S
O402 La377 2.521 . S
O402 C387 1.261 . S
O403 La377 2.628 . S
O403 C387 1.243 . S
O404 La377 2.554 1_455 S
O404 C394 1.240 . S
O405 La376 2.482 1_556 S
O405 La377 2.757 1_455 S
O405 C394 1.289 . S
O406 La377 2.470 . S
O406 C395 1.258 . S
O407 La376 2.503 1_656 S
O407 C395 1.256 . S
H408 C380 0.930 . S
H409 C381 0.930 . S
H410 C383 0.929 . S
H411 C384 0.929 . S
H412 C389 0.930 . S
H413 C390 0.930 . S
H414 C392 0.929 . S
H415 C393 0.929 . S
C416 C417 1.363 . S
C416 C422 1.379 . S
C416 N424 1.356 . S
C417 C416 1.363 . S
C417 C423 1.363 . S
C418 C419 1.363 . S
C418 C423 1.379 . S
C418 N425 1.356 . S
C419 C418 1.363 . S
C419 C422 1.363 . S
N420 C422 1.356 . S
N420 H432 0.984 . S
N420 H433 0.985 . S
N421 C423 1.356 . S
N421 H426 0.984 . S
N421 H427 0.985 . S
C422 C416 1.379 . S
C422 C419 1.363 . S
C422 N420 1.356 . S
C423 C417 1.363 . S
C423 C418 1.379 . S
C423 N421 1.356 . S
N424 C416 1.356 . S
N424 H430 0.984 . S
N424 H431 0.984 . S
N425 C418 1.356 . S
N425 H428 0.984 . S
N425 H429 0.985 . S
H426 N421 0.984 . S
H427 N421 0.985 . S
H428 N425 0.984 . S
H429 N425 0.985 . S
H430 N424 0.984 . S
H431 N424 0.984 . S
H432 N420 0.984 . S
H433 N420 0.985 . S
C434 C435 1.363 . S
C434 C440 1.379 . S
C434 N442 1.356 . S
C435 C434 1.363 . S
C435 C441 1.363 . S
C436 C437 1.363 . S
C436 C441 1.379 . S
C436 N443 1.356 . S
C437 C436 1.363 . S
C437 C440 1.363 . S
N438 C440 1.356 . S
N438 H450 0.984 . S
N438 H451 0.985 . S
N439 C441 1.356 . S
N439 H444 0.984 . S
N439 H445 0.985 . S
C440 C434 1.379 . S
C440 C437 1.363 . S
C440 N438 1.356 . S
C441 C435 1.363 . S
C441 C436 1.379 . S
C441 N439 1.356 . S
N442 C434 1.356 . S
N442 H448 0.984 . S
N442 H449 0.984 . S
N443 C436 1.356 . S
N443 H446 0.984 . S
N443 H447 0.985 . S
H444 N439 0.984 . S
H445 N439 0.985 . S
H446 N443 0.984 . S
H447 N443 0.985 . S
H448 N442 0.984 . S
H449 N442 0.984 . S
H450 N438 0.984 . S
H451 N438 0.985 . S
C452 C453 1.363 . S
C452 C458 1.379 . S
C452 N460 1.356 . S
C453 C452 1.363 . S
C453 C459 1.363 . S
C454 C455 1.363 . S
C454 C459 1.379 . S
C454 N461 1.356 . S
C455 C454 1.363 . S
C455 C458 1.363 . S
N456 C458 1.356 . S
N456 H468 0.984 . S
N456 H469 0.985 . S
N457 C459 1.356 . S
N457 H462 0.984 . S
N457 H463 0.985 . S
C458 C452 1.379 . S
C458 C455 1.363 . S
C458 N456 1.356 . S
C459 C453 1.363 . S
C459 C454 1.379 . S
C459 N457 1.356 . S
N460 C452 1.356 . S
N460 H466 0.984 . S
N460 H467 0.984 . S
N461 C454 1.356 . S
N461 H464 0.984 . S
N461 H465 0.985 . S
H462 N457 0.984 . S
H463 N457 0.985 . S
H464 N461 0.984 . S
H465 N461 0.985 . S
H466 N460 0.984 . S
H467 N460 0.984 . S
H468 N456 0.984 . S
H469 N456 0.985 . S
C470 C471 1.363 . S
C470 C476 1.379 . S
C470 N478 1.356 . S
C471 C470 1.363 . S
C471 C477 1.363 . S
C472 C473 1.363 . S
C472 C477 1.379 . S
C472 N479 1.356 . S
C473 C472 1.363 . S
C473 C476 1.363 . S
N474 C476 1.356 . S
N474 H486 0.984 . S
N474 H487 0.985 . S
N475 C477 1.356 . S
N475 H480 0.984 . S
N475 H481 0.985 . S
C476 C470 1.379 . S
C476 C473 1.363 . S
C476 N474 1.356 . S
C477 C471 1.363 . S
C477 C472 1.379 . S
C477 N475 1.356 . S
N478 C470 1.356 . S
N478 H484 0.984 . S
N478 H485 0.984 . S
N479 C472 1.356 . S
N479 H482 0.984 . S
N479 H483 0.985 . S
H480 N475 0.984 . S
H481 N475 0.985 . S
H482 N479 0.984 . S
H483 N479 0.985 . S
H484 N478 0.984 . S
H485 N478 0.984 . S
H486 N474 0.984 . S
H487 N474 0.985 . S
C488 C489 1.363 . S
C488 C494 1.379 . S
C488 N496 1.356 . S
C489 C488 1.363 . S
C489 C495 1.363 . S
C490 C491 1.363 . S
C490 C495 1.379 . S
C490 N497 1.356 . S
C491 C490 1.363 . S
C491 C494 1.363 . S
N492 C494 1.356 . S
N492 H504 0.984 . S
N492 H505 0.985 . S
N493 C495 1.356 . S
N493 H498 0.984 . S
N493 H499 0.985 . S
C494 C488 1.379 . S
C494 C491 1.363 . S
C494 N492 1.356 . S
C495 C489 1.363 . S
C495 C490 1.379 . S
C495 N493 1.356 . S
N496 C488 1.356 . S
N496 H502 0.984 . S
N496 H503 0.984 . S
N497 C490 1.356 . S
N497 H500 0.984 . S
N497 H501 0.985 . S
H498 N493 0.984 . S
H499 N493 0.985 . S
H500 N497 0.984 . S
H501 N497 0.985 . S
H502 N496 0.984 . S
H503 N496 0.984 . S
H504 N492 0.984 . S
H505 N492 0.985 . S
C506 C507 1.363 . S
C506 C512 1.379 . S
C506 N514 1.356 . S
C507 C506 1.363 . S
C507 C513 1.363 . S
C508 C509 1.363 . S
C508 C513 1.379 . S
C508 N515 1.356 . S
C509 C508 1.363 . S
C509 C512 1.363 . S
N510 C512 1.356 . S
N510 H522 0.984 . S
N510 H523 0.996 . S
N511 C513 1.356 . S
N511 H516 0.984 . S
N511 H517 0.985 . S
C512 C506 1.379 . S
C512 C509 1.363 . S
C512 N510 1.356 . S
C513 C507 1.363 . S
C513 C508 1.379 . S
C513 N511 1.356 . S
N514 C506 1.356 . S
N514 H520 0.984 . S
N514 H521 0.984 . S
N515 C508 1.356 . S
N515 H518 0.984 . S
N515 H519 0.985 . S
H516 N511 0.984 . S
H517 N511 0.985 . S
H518 N515 0.984 . S
H519 N515 0.985 . S
H520 N514 0.984 . S
H521 N514 0.984 . S
H522 N510 0.984 . S
H523 N510 0.996 . S
C524 C525 1.363 . S
C524 C530 1.379 . S
C524 N532 1.356 . S
C525 C524 1.363 . S
C525 C531 1.363 . S
C526 C527 1.363 . S
C526 C531 1.379 . S
C526 N533 1.356 . S
C527 C526 1.363 . S
C527 C530 1.363 . S
N528 C530 1.356 . S
N528 H540 0.984 . S
N528 H541 0.985 . S
N529 C531 1.356 . S
N529 H534 0.984 . S
N529 H535 0.985 . S
C530 C524 1.379 . S
C530 C527 1.363 . S
C530 N528 1.356 . S
C531 C525 1.363 . S
C531 C526 1.379 . S
C531 N529 1.356 . S
N532 C524 1.356 . S
N532 H538 0.984 . S
N532 H539 0.984 . S
N533 C526 1.356 . S
N533 H536 0.984 1_556 S
N533 H537 0.985 1_556 S
H534 N529 0.984 . S
H535 N529 0.985 . S
H536 N533 0.984 1_554 S
H537 N533 0.985 1_554 S
H538 N532 0.984 . S
H539 N532 0.984 . S
H540 N528 0.984 . S
H541 N528 0.985 . S
C542 C543 1.363 . S
C542 C548 1.379 . S
C542 N550 1.356 . S
C543 C542 1.363 . S
C543 C549 1.363 . S
C544 C545 1.363 . S
C544 C549 1.379 . S
C544 N551 1.356 . S
C545 C544 1.363 . S
C545 C548 1.363 . S
N546 C548 1.356 . S
N546 H558 0.984 . S
N546 H559 0.985 . S
N547 C549 1.356 . S
N547 H552 0.984 . S
N547 H553 0.985 . S
C548 C542 1.379 . S
C548 C545 1.363 . S
C548 N546 1.356 . S
C549 C543 1.363 . S
C549 C544 1.379 . S
C549 N547 1.356 . S
N550 C542 1.356 . S
N550 H556 0.984 . S
N550 H557 0.984 . S
N551 C544 1.356 . S
N551 H554 0.984 . S
N551 H555 0.985 . S
H552 N547 0.984 . S
H553 N547 0.985 . S
H554 N551 0.984 . S
H555 N551 0.985 . S
H556 N550 0.984 . S
H557 N550 0.984 . S
H558 N546 0.984 . S
H559 N546 0.985 . S
C560 C561 1.363 . S
C560 C566 1.379 . S
C560 N568 1.356 . S
C561 C560 1.363 . S
C561 C567 1.363 . S
C562 C563 1.363 . S
C562 C567 1.379 . S
C562 N569 1.356 . S
C563 C562 1.363 . S
C563 C566 1.363 . S
N564 C566 1.356 . S
N564 H576 0.984 . S
N564 H577 0.985 . S
N565 C567 1.356 . S
N565 H570 0.984 . S
N565 H571 0.985 . S
C566 C560 1.379 . S
C566 C563 1.363 . S
C566 N564 1.356 . S
C567 C561 1.363 . S
C567 C562 1.379 . S
C567 N565 1.356 . S
N568 C560 1.356 . S
N568 H574 0.984 . S
N568 H575 0.984 . S
N569 C562 1.356 . S
N569 H572 0.984 . S
N569 H573 0.985 . S
H570 N565 0.984 . S
H571 N565 0.985 . S
H572 N569 0.984 . S
H573 N569 0.985 . S
H574 N568 0.984 . S
H575 N568 0.984 . S
H576 N564 0.984 . S
H577 N564 0.985 . S
C578 C579 1.363 . S
C578 C584 1.379 . S
C578 N586 1.356 . S
C579 C578 1.363 . S
C579 C585 1.363 . S
C580 C581 1.363 . S
C580 C585 1.379 . S
C580 N587 1.356 . S
C581 C580 1.363 . S
C581 C584 1.363 . S
N582 C584 1.356 . S
N582 H594 0.984 . S
N582 H595 0.985 . S
N583 C585 1.356 . S
N583 H588 0.984 . S
N583 H589 0.985 . S
C584 C578 1.379 . S
C584 C581 1.363 . S
C584 N582 1.356 . S
C585 C579 1.363 . S
C585 C580 1.379 . S
C585 N583 1.356 . S
N586 C578 1.356 . S
N586 H592 0.984 . S
N586 H593 0.984 . S
N587 C580 1.356 . S
N587 H590 0.984 . S
N587 H591 0.985 1_556 S
H588 N583 0.984 . S
H589 N583 0.985 . S
H590 N587 0.984 . S
H591 N587 0.985 1_554 S
H592 N586 0.984 . S
H593 N586 0.984 . S
H594 N582 0.984 . S
H595 N582 0.985 . S
C596 C597 1.363 . S
C596 C602 1.379 . S
C596 N604 1.356 . S
C597 C596 1.363 . S
C597 C603 1.363 . S
C598 C599 1.363 . S
C598 C603 1.379 . S
C598 N605 1.356 . S
C599 C598 1.363 . S
C599 C602 1.363 . S
N600 C602 1.356 . S
N600 H612 0.984 . S
N600 H613 0.985 . S
N601 C603 1.356 . S
N601 H606 0.984 . S
N601 H607 0.985 . S
C602 C596 1.379 . S
C602 C599 1.363 . S
C602 N600 1.356 . S
C603 C597 1.363 . S
C603 C598 1.379 . S
C603 N601 1.356 . S
N604 C596 1.356 . S
N604 H610 0.984 . S
N604 H611 0.984 . S
N605 C598 1.356 . S
N605 H608 0.984 . S
N605 H609 0.985 1_655 S
H606 N601 0.984 . S
H607 N601 0.985 . S
H608 N605 0.984 . S
H609 N605 0.985 1_455 S
H610 N604 0.984 . S
H611 N604 0.984 . S
H612 N600 0.984 . S
H613 N600 0.985 . S
C614 C615 1.363 . S
C614 C620 1.379 . S
C614 N622 1.356 . S
C615 C614 1.363 . S
C615 C621 1.363 . S
C616 C617 1.363 . S
C616 C621 1.379 . S
C616 N623 1.356 . S
C617 C616 1.363 . S
C617 C620 1.363 . S
N618 C620 1.356 . S
N618 H630 0.984 . S
N618 H631 0.985 . S
N619 C621 1.356 . S
N619 H624 0.984 . S
N619 H625 0.985 . S
C620 C614 1.379 . S
C620 C617 1.363 . S
C620 N618 1.356 . S
C621 C615 1.363 . S
C621 C616 1.379 . S
C621 N619 1.356 . S
N622 C614 1.356 . S
N622 H628 0.984 . S
N622 H629 0.984 . S
N623 C616 1.356 . S
N623 H626 0.984 . S
N623 H627 0.985 . S
H624 N619 0.984 . S
H625 N619 0.985 . S
H626 N623 0.984 . S
H627 N623 0.985 . S
H628 N622 0.984 . S
H629 N622 0.984 . S
H630 N618 0.984 . S
H631 N618 0.985 . S
C632 C633 1.363 . S
C632 C638 1.379 . S
C632 N640 1.356 . S
C633 C632 1.363 . S
C633 C639 1.363 . S
C634 C635 1.363 . S
C634 C639 1.379 . S
C634 N641 1.356 . S
C635 C634 1.363 . S
C635 C638 1.363 . S
N636 C638 1.356 . S
N636 H648 0.984 . S
N636 H649 0.985 . S
N637 C639 1.356 . S
N637 H642 0.984 . S
N637 H643 0.985 . S
C638 C632 1.379 . S
C638 C635 1.363 . S
C638 N636 1.356 . S
C639 C633 1.363 . S
C639 C634 1.379 . S
C639 N637 1.356 . S
N640 C632 1.356 . S
N640 H646 0.984 . S
N640 H647 0.984 . S
N641 C634 1.356 . S
N641 H644 0.984 . S
N641 H645 0.985 . S
H642 N637 0.984 . S
H643 N637 0.985 . S
H644 N641 0.984 . S
H645 N641 0.985 . S
H646 N640 0.984 . S
H647 N640 0.984 . S
H648 N636 0.984 . S
H649 N636 0.985 . S
C650 C651 1.363 . S
C650 C656 1.379 . S
C650 N658 1.356 . S
C651 C650 1.363 . S
C651 C657 1.363 . S
C652 C653 1.363 . S
C652 C657 1.379 . S
C652 N659 1.356 . S
C653 C652 1.363 . S
C653 C656 1.363 . S
N654 C656 1.356 . S
N654 H666 0.984 . S
N654 H667 0.985 . S
N655 C657 1.356 . S
N655 H660 0.984 . S
N655 H661 0.985 . S
C656 C650 1.379 . S
C656 C653 1.363 . S
C656 N654 1.356 . S
C657 C651 1.363 . S
C657 C652 1.379 . S
C657 N655 1.356 . S
N658 C650 1.356 . S
N658 H664 0.984 . S
N658 H665 0.984 . S
N659 C652 1.356 . S
N659 H662 0.984 . S
N659 H663 0.985 . S
H660 N655 0.984 . S
H661 N655 0.985 . S
H662 N659 0.984 . S
H663 N659 0.985 . S
H664 N658 0.984 . S
H665 N658 0.984 . S
H666 N654 0.984 . S
H667 N654 0.985 . S
C668 C669 1.363 . S
C668 C674 1.379 . S
C668 N676 1.356 . S
C669 C668 1.363 . S
C669 C675 1.363 . S
C670 C671 1.363 . S
C670 C675 1.379 . S
C670 N677 1.356 . S
C671 C670 1.363 . S
C671 C674 1.363 . S
N672 C674 1.356 . S
N672 H684 0.984 . S
N672 H685 0.985 . S
N673 C675 1.356 . S
N673 H678 0.984 . S
N673 H679 0.985 . S
C674 C668 1.379 . S
C674 C671 1.363 . S
C674 N672 1.356 . S
C675 C669 1.363 . S
C675 C670 1.379 . S
C675 N673 1.356 . S
N676 C668 1.356 . S
N676 H682 0.984 . S
N676 H683 0.984 . S
N677 C670 1.356 . S
N677 H680 0.984 . S
N677 H681 0.985 . S
H678 N673 0.984 . S
H679 N673 0.985 . S
H680 N677 0.984 . S
H681 N677 0.985 . S
H682 N676 0.984 . S
H683 N676 0.984 . S
H684 N672 0.984 . S
H685 N672 0.985 . S
C686 C687 1.363 . S
C686 C692 1.379 . S
C686 N694 1.356 . S
C687 C686 1.363 . S
C687 C693 1.363 . S
C688 C689 1.363 . S
C688 C693 1.379 . S
C688 N695 1.356 . S
C689 C688 1.363 . S
C689 C692 1.363 . S
N690 C692 1.356 . S
N690 H702 0.984 1_455 S
N690 H703 0.985 . S
N691 C693 1.356 . S
N691 H696 0.984 . S
N691 H697 0.985 . S
C692 C686 1.379 . S
C692 C689 1.363 . S
C692 N690 1.356 . S
C693 C687 1.363 . S
C693 C688 1.379 . S
C693 N691 1.356 . S
N694 C686 1.356 . S
N694 H700 0.984 . S
N694 H701 0.984 . S
N695 C688 1.356 . S
N695 H698 0.984 . S
N695 H699 0.985 . S
H696 N691 0.984 . S
H697 N691 0.985 . S
H698 N695 0.984 . S
H699 N695 0.985 . S
H700 N694 0.984 . S
H701 N694 0.984 . S
H702 N690 0.984 1_655 S
H703 N690 0.985 . S
C704 C705 1.363 . S
C704 C710 1.379 . S
C704 N712 1.356 . S
C705 C704 1.363 . S
C705 C711 1.363 . S
C706 C707 1.363 . S
C706 C711 1.379 . S
C706 N713 1.356 . S
C707 C706 1.363 . S
C707 C710 1.363 . S
N708 C710 1.356 . S
N708 H720 0.984 . S
N708 H721 0.985 . S
N709 C711 1.356 . S
N709 H714 0.984 . S
N709 H715 0.985 . S
C710 C704 1.379 . S
C710 C707 1.363 . S
C710 N708 1.356 . S
C711 C705 1.363 . S
C711 C706 1.379 . S
C711 N709 1.356 . S
N712 C704 1.356 . S
N712 H718 0.984 . S
N712 H719 0.984 . S
N713 C706 1.356 . S
N713 H716 0.984 . S
N713 H717 0.985 . S
H714 N709 0.984 . S
H715 N709 0.985 . S
H716 N713 0.984 . S
H717 N713 0.985 . S
H718 N712 0.984 . S
H719 N712 0.984 . S
H720 N708 0.984 . S
H721 N708 0.985 . S
C722 C723 1.363 . S
C722 C728 1.379 . S
C722 N730 1.356 . S
C723 C722 1.363 . S
C723 C729 1.363 . S
C724 C725 1.363 . S
C724 C729 1.379 . S
C724 N731 1.356 . S
C725 C724 1.363 . S
C725 C728 1.363 . S
N726 C728 1.356 . S
N726 H738 0.984 . S
N726 H739 0.985 . S
N727 C729 1.356 . S
N727 H732 0.984 . S
N727 H733 0.985 . S
C728 C722 1.379 . S
C728 C725 1.363 . S
C728 N726 1.356 . S
C729 C723 1.363 . S
C729 C724 1.379 . S
C729 N727 1.356 . S
N730 C722 1.356 . S
N730 H736 0.984 . S
N730 H737 0.984 . S
N731 C724 1.356 . S
N731 H734 0.984 . S
N731 H735 0.985 . S
H732 N727 0.984 . S
H733 N727 0.985 . S
H734 N731 0.984 . S
H735 N731 0.985 . S
H736 N730 0.984 . S
H737 N730 0.984 . S
H738 N726 0.984 . S
H739 N726 0.985 . S
C740 C741 1.363 . S
C740 C746 1.379 . S
C740 N748 1.356 . S
C741 C740 1.363 . S
C741 C747 1.363 . S
C742 C743 1.363 . S
C742 C747 1.379 . S
C742 N749 1.356 . S
C743 C742 1.363 . S
C743 C746 1.363 . S
N744 C746 1.356 . S
N744 H756 0.984 . S
N744 H757 0.985 . S
N745 C747 1.356 . S
N745 H750 0.984 . S
N745 H751 0.985 . S
C746 C740 1.379 . S
C746 C743 1.363 . S
C746 N744 1.356 . S
C747 C741 1.363 . S
C747 C742 1.379 . S
C747 N745 1.356 . S
N748 C740 1.356 . S
N748 H754 0.984 . S
N748 H755 0.984 . S
N749 C742 1.356 . S
N749 H752 0.984 . S
N749 H753 0.985 . S
H750 N745 0.984 . S
H751 N745 0.985 . S
H752 N749 0.984 . S
H753 N749 0.985 . S
H754 N748 0.984 . S
H755 N748 0.984 . S
H756 N744 0.984 . S
H757 N744 0.985 . S
C758 C759 1.363 . S
C758 C764 1.379 . S
C758 N766 1.356 . S
C759 C758 1.363 . S
C759 C765 1.363 . S
C760 C761 1.363 . S
C760 C765 1.379 . S
C760 N767 1.356 . S
C761 C760 1.363 . S
C761 C764 1.363 . S
N762 C764 1.356 . S
N762 H774 0.984 . S
N762 H775 0.985 . S
N763 C765 1.356 . S
N763 H768 0.984 . S
N763 H769 0.985 . S
C764 C758 1.379 . S
C764 C761 1.363 . S
C764 N762 1.356 . S
C765 C759 1.363 . S
C765 C760 1.379 . S
C765 N763 1.356 . S
N766 C758 1.356 . S
N766 H772 0.984 . S
N766 H773 0.984 . S
N767 C760 1.356 . S
N767 H770 0.984 . S
N767 H771 0.985 . S
H768 N763 0.984 . S
H769 N763 0.985 . S
H770 N767 0.984 . S
H771 N767 0.985 . S
H772 N766 0.984 . S
H773 N766 0.984 . S
H774 N762 0.984 . S
H775 N762 0.985 . S
C776 C777 1.363 . S
C776 C782 1.379 . S
C776 N784 1.356 . S
C777 C776 1.363 . S
C777 C783 1.363 . S
C778 C779 1.363 . S
C778 C783 1.379 . S
C778 N785 1.356 . S
C779 C778 1.363 . S
C779 C782 1.363 . S
N780 C782 1.356 . S
N780 H792 0.984 . S
N780 H793 0.985 . S
N781 C783 1.356 . S
N781 H786 0.984 . S
N781 H787 0.985 . S
C782 C776 1.379 . S
C782 C779 1.363 . S
C782 N780 1.356 . S
C783 C777 1.363 . S
C783 C778 1.379 . S
C783 N781 1.356 . S
N784 C776 1.356 . S
N784 H790 0.984 . S
N784 H791 0.984 . S
N785 C778 1.356 . S
N785 H788 0.984 . S
N785 H789 0.985 . S
H786 N781 0.984 . S
H787 N781 0.985 . S
H788 N785 0.984 . S
H789 N785 0.985 . S
H790 N784 0.984 . S
H791 N784 0.984 . S
H792 N780 0.984 . S
H793 N780 0.985 . S
C794 C795 1.363 . S
C794 C800 1.379 . S
C794 N802 1.356 . S
C795 C794 1.363 . S
C795 C801 1.363 . S
C796 C797 1.363 . S
C796 C801 1.379 . S
C796 N803 1.356 . S
C797 C796 1.363 . S
C797 C800 1.363 . S
N798 C800 1.356 . S
N798 H810 0.984 . S
N798 H811 0.985 . S
N799 C801 1.356 . S
N799 H804 0.984 . S
N799 H805 0.985 . S
C800 C794 1.379 . S
C800 C797 1.363 . S
C800 N798 1.356 . S
C801 C795 1.363 . S
C801 C796 1.379 . S
C801 N799 1.356 . S
N802 C794 1.356 . S
N802 H808 0.984 . S
N802 H809 0.984 . S
N803 C796 1.356 . S
N803 H806 0.984 . S
N803 H807 0.985 . S
H804 N799 0.984 . S
H805 N799 0.985 . S
H806 N803 0.984 . S
H807 N803 0.985 . S
H808 N802 0.984 . S
H809 N802 0.984 . S
H810 N798 0.984 . S
H811 N798 0.985 . S
C812 C813 1.363 . S
C812 C818 1.379 . S
C812 N820 1.356 . S
C813 C812 1.363 . S
C813 C819 1.363 . S
C814 C815 1.363 . S
C814 C819 1.379 . S
C814 N821 1.356 . S
C815 C814 1.363 . S
C815 C818 1.363 . S
N816 C818 1.356 . S
N816 H828 0.984 . S
N816 H829 0.985 . S
N817 C819 1.356 . S
N817 H822 0.984 . S
N817 H823 0.985 . S
C818 C812 1.379 . S
C818 C815 1.363 . S
C818 N816 1.356 . S
C819 C813 1.363 . S
C819 C814 1.379 . S
C819 N817 1.356 . S
N820 C812 1.356 . S
N820 H826 0.984 . S
N820 H827 0.984 . S
N821 C814 1.356 . S
N821 H824 0.984 . S
N821 H825 0.985 . S
H822 N817 0.984 . S
H823 N817 0.985 . S
H824 N821 0.984 . S
H825 N821 0.985 . S
H826 N820 0.984 . S
H827 N820 0.984 . S
H828 N816 0.984 . S
H829 N816 0.985 . S
C830 C831 1.363 . S
C830 C836 1.379 . S
C830 N838 1.356 . S
C831 C830 1.363 . S
C831 C837 1.363 . S
C832 C833 1.363 . S
C832 C837 1.379 . S
C832 N839 1.356 . S
C833 C832 1.363 . S
C833 C836 1.363 . S
N834 C836 1.356 . S
N834 H846 0.984 . S
N834 H847 0.985 . S
N835 C837 1.356 . S
N835 H840 0.984 . S
N835 H841 0.985 . S
C836 C830 1.379 . S
C836 C833 1.363 . S
C836 N834 1.356 . S
C837 C831 1.363 . S
C837 C832 1.379 . S
C837 N835 1.356 . S
N838 C830 1.356 . S
N838 H844 0.984 . S
N838 H845 0.984 . S
N839 C832 1.356 . S
N839 H842 0.984 . S
N839 H843 0.985 . S
H840 N835 0.984 . S
H841 N835 0.985 . S
H842 N839 0.984 . S
H843 N839 0.985 . S
H844 N838 0.984 . S
H845 N838 0.984 . S
H846 N834 0.984 . S
H847 N834 0.985 . S
C417 C29 1.262 . S
C419 C262 1.275 . S
C435 C49 1.003 . S
C437 C311 1.030 . S
C455 C346 2.542 . S
C453 C93 2.571 . S
C471 C119 2.400 . S
C473 C385 2.391 . S
C491 C306 2.378 . S
C489 C17 2.301 . S
C509 C265 0.813 . S
C507 C61 0.825 . S
C527 C395 1.920 . S
C525 C81 1.976 . S
C545 C354 1.769 . S
C543 C125 1.755 . S
C561 C23 1.634 . S
C563 C382 1.651 . S
C581 C314 2.319 . S
C579 C87 2.383 . S
C597 C113 2.351 . S
C599 C275 2.381 . S
C615 C55 1.023 . S
C617 C351 1.128 . S
C635 C271 1.284 . S
C633 C157 1.076 . S
C651 C189 1.048 . S
C653 C302 1.058 . S
C669 C221 2.540 . S
C671 C355 2.505 . S
C687 C253 2.465 . S
C689 C394 2.477 . S
C705 C145 2.076 . S
C707 C315 2.450 . S
C725 C274 0.783 . S
C723 C183 0.789 . S
C743 C386 1.951 . S
C741 C209 1.963 . S
C761 C345 1.740 . S
C759 C247 1.714 . S
C777 C151 1.464 . S
C779 C391 1.673 . S
C797 C305 2.318 . S
C795 C215 2.389 . S
C815 C266 2.360 . S
C813 C241 2.309 . S
C831 C177 1.103 . S
C833 C342 1.099 . S
