# Generated by pormake.
# Topology tbo, (3,4)-cn, num edge types: 1
# Building blocks:
#     Node 0, Type 0, BuildingBlock: BETDIP_clean_linker_0, # of connection points: 3
#     Node 1, Type 0, BuildingBlock: BETDIP_clean_linker_0, # of connection points: 3
#     Node 2, Type 0, BuildingBlock: BETDIP_clean_linker_0, # of connection points: 3
#     Node 3, Type 0, BuildingBlock: BETDIP_clean_linker_0, # of connection points: 3
#     Node 4, Type 0, BuildingBlock: BETDIP_clean_linker_0, # of connection points: 3
#     Node 5, Type 0, BuildingBlock: BETDIP_clean_linker_0, # of connection points: 3
#     Node 6, Type 0, BuildingBlock: BETDIP_clean_linker_0, # of connection points: 3
#     Node 7, Type 0, BuildingBlock: BETDIP_clean_linker_0, # of connection points: 3
#     Node 8, Type 0, BuildingBlock: BETDIP_clean_linker_0, # of connection points: 3
#     Node 9, Type 0, BuildingBlock: BETDIP_clean_linker_0, # of connection points: 3
#     Node 10, Type 0, BuildingBlock: BETDIP_clean_linker_0, # of connection points: 3
#     Node 11, Type 0, BuildingBlock: BETDIP_clean_linker_0, # of connection points: 3
#     Node 12, Type 0, BuildingBlock: BETDIP_clean_linker_0, # of connection points: 3
#     Node 13, Type 0, BuildingBlock: BETDIP_clean_linker_0, # of connection points: 3
#     Node 14, Type 0, BuildingBlock: BETDIP_clean_linker_0, # of connection points: 3
#     Node 15, Type 0, BuildingBlock: BETDIP_clean_linker_0, # of connection points: 3
#     Node 16, Type 0, BuildingBlock: BETDIP_clean_linker_0, # of connection points: 3
#     Node 17, Type 0, BuildingBlock: BETDIP_clean_linker_0, # of connection points: 3
#     Node 18, Type 0, BuildingBlock: BETDIP_clean_linker_0, # of connection points: 3
#     Node 19, Type 0, BuildingBlock: BETDIP_clean_linker_0, # of connection points: 3
#     Node 20, Type 0, BuildingBlock: BETDIP_clean_linker_0, # of connection points: 3
#     Node 21, Type 0, BuildingBlock: BETDIP_clean_linker_0, # of connection points: 3
#     Node 22, Type 0, BuildingBlock: BETDIP_clean_linker_0, # of connection points: 3
#     Node 23, Type 0, BuildingBlock: BETDIP_clean_linker_0, # of connection points: 3
#     Node 24, Type 0, BuildingBlock: BETDIP_clean_linker_0, # of connection points: 3
#     Node 25, Type 0, BuildingBlock: BETDIP_clean_linker_0, # of connection points: 3
#     Node 26, Type 0, BuildingBlock: BETDIP_clean_linker_0, # of connection points: 3
#     Node 27, Type 0, BuildingBlock: BETDIP_clean_linker_0, # of connection points: 3
#     Node 28, Type 0, BuildingBlock: BETDIP_clean_linker_0, # of connection points: 3
#     Node 29, Type 0, BuildingBlock: BETDIP_clean_linker_0, # of connection points: 3
#     Node 30, Type 0, BuildingBlock: BETDIP_clean_linker_0, # of connection points: 3
#     Node 31, Type 0, BuildingBlock: BETDIP_clean_linker_0, # of connection points: 3
#     Node 32, Type 1, BuildingBlock: ESEHIV_clean_sbu_0, # of connection points: 4
#     Node 33, Type 1, BuildingBlock: ESEHIV_clean_sbu_0, # of connection points: 4
#     Node 34, Type 1, BuildingBlock: ESEHIV_clean_sbu_0, # of connection points: 4
#     Node 35, Type 1, BuildingBlock: ESEHIV_clean_sbu_0, # of connection points: 4
#     Node 36, Type 1, BuildingBlock: ESEHIV_clean_sbu_0, # of connection points: 4
#     Node 37, Type 1, BuildingBlock: ESEHIV_clean_sbu_0, # of connection points: 4
#     Node 38, Type 1, BuildingBlock: ESEHIV_clean_sbu_0, # of connection points: 4
#     Node 39, Type 1, BuildingBlock: ESEHIV_clean_sbu_0, # of connection points: 4
#     Node 40, Type 1, BuildingBlock: ESEHIV_clean_sbu_0, # of connection points: 4
#     Node 41, Type 1, BuildingBlock: ESEHIV_clean_sbu_0, # of connection points: 4
#     Node 42, Type 1, BuildingBlock: ESEHIV_clean_sbu_0, # of connection points: 4
#     Node 43, Type 1, BuildingBlock: ESEHIV_clean_sbu_0, # of connection points: 4
#     Node 44, Type 1, BuildingBlock: ESEHIV_clean_sbu_0, # of connection points: 4
#     Node 45, Type 1, BuildingBlock: ESEHIV_clean_sbu_0, # of connection points: 4
#     Node 46, Type 1, BuildingBlock: ESEHIV_clean_sbu_0, # of connection points: 4
#     Node 47, Type 1, BuildingBlock: ESEHIV_clean_sbu_0, # of connection points: 4
#     Node 48, Type 1, BuildingBlock: ESEHIV_clean_sbu_0, # of connection points: 4
#     Node 49, Type 1, BuildingBlock: ESEHIV_clean_sbu_0, # of connection points: 4
#     Node 50, Type 1, BuildingBlock: ESEHIV_clean_sbu_0, # of connection points: 4
#     Node 51, Type 1, BuildingBlock: ESEHIV_clean_sbu_0, # of connection points: 4
#     Node 52, Type 1, BuildingBlock: ESEHIV_clean_sbu_0, # of connection points: 4
#     Node 53, Type 1, BuildingBlock: ESEHIV_clean_sbu_0, # of connection points: 4
#     Node 54, Type 1, BuildingBlock: ESEHIV_clean_sbu_0, # of connection points: 4
#     Node 55, Type 1, BuildingBlock: ESEHIV_clean_sbu_0, # of connection points: 4
#     Edge 56, Type (0, 1), BuildingBlock: ZUJKAS_clean_linker_0, # of connection points: 2
#     Edge 57, Type (0, 1), BuildingBlock: ZUJKAS_clean_linker_0, # of connection points: 2
#     Edge 58, Type (0, 1), BuildingBlock: ZUJKAS_clean_linker_0, # of connection points: 2
#     Edge 59, Type (0, 1), BuildingBlock: ZUJKAS_clean_linker_0, # of connection points: 2
#     Edge 60, Type (0, 1), BuildingBlock: ZUJKAS_clean_linker_0, # of connection points: 2
#     Edge 61, Type (0, 1), BuildingBlock: ZUJKAS_clean_linker_0, # of connection points: 2
#     Edge 62, Type (0, 1), BuildingBlock: ZUJKAS_clean_linker_0, # of connection points: 2
#     Edge 63, Type (0, 1), BuildingBlock: ZUJKAS_clean_linker_0, # of connection points: 2
#     Edge 64, Type (0, 1), BuildingBlock: ZUJKAS_clean_linker_0, # of connection points: 2
#     Edge 65, Type (0, 1), BuildingBlock: ZUJKAS_clean_linker_0, # of connection points: 2
#     Edge 66, Type (0, 1), BuildingBlock: ZUJKAS_clean_linker_0, # of connection points: 2
#     Edge 67, Type (0, 1), BuildingBlock: ZUJKAS_clean_linker_0, # of connection points: 2
#     Edge 68, Type (0, 1), BuildingBlock: ZUJKAS_clean_linker_0, # of connection points: 2
#     Edge 69, Type (0, 1), BuildingBlock: ZUJKAS_clean_linker_0, # of connection points: 2
#     Edge 70, Type (0, 1), BuildingBlock: ZUJKAS_clean_linker_0, # of connection points: 2
#     Edge 71, Type (0, 1), BuildingBlock: ZUJKAS_clean_linker_0, # of connection points: 2
#     Edge 72, Type (0, 1), BuildingBlock: ZUJKAS_clean_linker_0, # of connection points: 2
#     Edge 73, Type (0, 1), BuildingBlock: ZUJKAS_clean_linker_0, # of connection points: 2
#     Edge 74, Type (0, 1), BuildingBlock: ZUJKAS_clean_linker_0, # of connection points: 2
#     Edge 75, Type (0, 1), BuildingBlock: ZUJKAS_clean_linker_0, # of connection points: 2
#     Edge 76, Type (0, 1), BuildingBlock: ZUJKAS_clean_linker_0, # of connection points: 2
#     Edge 77, Type (0, 1), BuildingBlock: ZUJKAS_clean_linker_0, # of connection points: 2
#     Edge 78, Type (0, 1), BuildingBlock: ZUJKAS_clean_linker_0, # of connection points: 2
#     Edge 79, Type (0, 1), BuildingBlock: ZUJKAS_clean_linker_0, # of connection points: 2
#     Edge 80, Type (0, 1), BuildingBlock: ZUJKAS_clean_linker_0, # of connection points: 2
#     Edge 81, Type (0, 1), BuildingBlock: ZUJKAS_clean_linker_0, # of connection points: 2
#     Edge 82, Type (0, 1), BuildingBlock: ZUJKAS_clean_linker_0, # of connection points: 2
#     Edge 83, Type (0, 1), BuildingBlock: ZUJKAS_clean_linker_0, # of connection points: 2
#     Edge 84, Type (0, 1), BuildingBlock: ZUJKAS_clean_linker_0, # of connection points: 2
#     Edge 85, Type (0, 1), BuildingBlock: ZUJKAS_clean_linker_0, # of connection points: 2
#     Edge 86, Type (0, 1), BuildingBlock: ZUJKAS_clean_linker_0, # of connection points: 2
#     Edge 87, Type (0, 1), BuildingBlock: ZUJKAS_clean_linker_0, # of connection points: 2
#     Edge 88, Type (0, 1), BuildingBlock: ZUJKAS_clean_linker_0, # of connection points: 2
#     Edge 89, Type (0, 1), BuildingBlock: ZUJKAS_clean_linker_0, # of connection points: 2
#     Edge 90, Type (0, 1), BuildingBlock: ZUJKAS_clean_linker_0, # of connection points: 2
#     Edge 91, Type (0, 1), BuildingBlock: ZUJKAS_clean_linker_0, # of connection points: 2
#     Edge 92, Type (0, 1), BuildingBlock: ZUJKAS_clean_linker_0, # of connection points: 2
#     Edge 93, Type (0, 1), BuildingBlock: ZUJKAS_clean_linker_0, # of connection points: 2
#     Edge 94, Type (0, 1), BuildingBlock: ZUJKAS_clean_linker_0, # of connection points: 2
#     Edge 95, Type (0, 1), BuildingBlock: ZUJKAS_clean_linker_0, # of connection points: 2
#     Edge 96, Type (0, 1), BuildingBlock: ZUJKAS_clean_linker_0, # of connection points: 2
#     Edge 97, Type (0, 1), BuildingBlock: ZUJKAS_clean_linker_0, # of connection points: 2
#     Edge 98, Type (0, 1), BuildingBlock: ZUJKAS_clean_linker_0, # of connection points: 2
#     Edge 99, Type (0, 1), BuildingBlock: ZUJKAS_clean_linker_0, # of connection points: 2
#     Edge 100, Type (0, 1), BuildingBlock: ZUJKAS_clean_linker_0, # of connection points: 2
#     Edge 101, Type (0, 1), BuildingBlock: ZUJKAS_clean_linker_0, # of connection points: 2
#     Edge 102, Type (0, 1), BuildingBlock: ZUJKAS_clean_linker_0, # of connection points: 2
#     Edge 103, Type (0, 1), BuildingBlock: ZUJKAS_clean_linker_0, # of connection points: 2
#     Edge 104, Type (0, 1), BuildingBlock: ZUJKAS_clean_linker_0, # of connection points: 2
#     Edge 105, Type (0, 1), BuildingBlock: ZUJKAS_clean_linker_0, # of connection points: 2
#     Edge 106, Type (0, 1), BuildingBlock: ZUJKAS_clean_linker_0, # of connection points: 2
#     Edge 107, Type (0, 1), BuildingBlock: ZUJKAS_clean_linker_0, # of connection points: 2
#     Edge 108, Type (0, 1), BuildingBlock: ZUJKAS_clean_linker_0, # of connection points: 2
#     Edge 109, Type (0, 1), BuildingBlock: ZUJKAS_clean_linker_0, # of connection points: 2
#     Edge 110, Type (0, 1), BuildingBlock: ZUJKAS_clean_linker_0, # of connection points: 2
#     Edge 111, Type (0, 1), BuildingBlock: ZUJKAS_clean_linker_0, # of connection points: 2
#     Edge 112, Type (0, 1), BuildingBlock: ZUJKAS_clean_linker_0, # of connection points: 2
#     Edge 113, Type (0, 1), BuildingBlock: ZUJKAS_clean_linker_0, # of connection points: 2
#     Edge 114, Type (0, 1), BuildingBlock: ZUJKAS_clean_linker_0, # of connection points: 2
#     Edge 115, Type (0, 1), BuildingBlock: ZUJKAS_clean_linker_0, # of connection points: 2
#     Edge 116, Type (0, 1), BuildingBlock: ZUJKAS_clean_linker_0, # of connection points: 2
#     Edge 117, Type (0, 1), BuildingBlock: ZUJKAS_clean_linker_0, # of connection points: 2
#     Edge 118, Type (0, 1), BuildingBlock: ZUJKAS_clean_linker_0, # of connection points: 2
#     Edge 119, Type (0, 1), BuildingBlock: ZUJKAS_clean_linker_0, # of connection points: 2
#     Edge 120, Type (0, 1), BuildingBlock: ZUJKAS_clean_linker_0, # of connection points: 2
#     Edge 121, Type (0, 1), BuildingBlock: ZUJKAS_clean_linker_0, # of connection points: 2
#     Edge 122, Type (0, 1), BuildingBlock: ZUJKAS_clean_linker_0, # of connection points: 2
#     Edge 123, Type (0, 1), BuildingBlock: ZUJKAS_clean_linker_0, # of connection points: 2
#     Edge 124, Type (0, 1), BuildingBlock: ZUJKAS_clean_linker_0, # of connection points: 2
#     Edge 125, Type (0, 1), BuildingBlock: ZUJKAS_clean_linker_0, # of connection points: 2
#     Edge 126, Type (0, 1), BuildingBlock: ZUJKAS_clean_linker_0, # of connection points: 2
#     Edge 127, Type (0, 1), BuildingBlock: ZUJKAS_clean_linker_0, # of connection points: 2
#     Edge 128, Type (0, 1), BuildingBlock: ZUJKAS_clean_linker_0, # of connection points: 2
#     Edge 129, Type (0, 1), BuildingBlock: ZUJKAS_clean_linker_0, # of connection points: 2
#     Edge 130, Type (0, 1), BuildingBlock: ZUJKAS_clean_linker_0, # of connection points: 2
#     Edge 131, Type (0, 1), BuildingBlock: ZUJKAS_clean_linker_0, # of connection points: 2
#     Edge 132, Type (0, 1), BuildingBlock: ZUJKAS_clean_linker_0, # of connection points: 2
#     Edge 133, Type (0, 1), BuildingBlock: ZUJKAS_clean_linker_0, # of connection points: 2
#     Edge 134, Type (0, 1), BuildingBlock: ZUJKAS_clean_linker_0, # of connection points: 2
#     Edge 135, Type (0, 1), BuildingBlock: ZUJKAS_clean_linker_0, # of connection points: 2
#     Edge 136, Type (0, 1), BuildingBlock: ZUJKAS_clean_linker_0, # of connection points: 2
#     Edge 137, Type (0, 1), BuildingBlock: ZUJKAS_clean_linker_0, # of connection points: 2
#     Edge 138, Type (0, 1), BuildingBlock: ZUJKAS_clean_linker_0, # of connection points: 2
#     Edge 139, Type (0, 1), BuildingBlock: ZUJKAS_clean_linker_0, # of connection points: 2
#     Edge 140, Type (0, 1), BuildingBlock: ZUJKAS_clean_linker_0, # of connection points: 2
#     Edge 141, Type (0, 1), BuildingBlock: ZUJKAS_clean_linker_0, # of connection points: 2
#     Edge 142, Type (0, 1), BuildingBlock: ZUJKAS_clean_linker_0, # of connection points: 2
#     Edge 143, Type (0, 1), BuildingBlock: ZUJKAS_clean_linker_0, # of connection points: 2
#     Edge 144, Type (0, 1), BuildingBlock: ZUJKAS_clean_linker_0, # of connection points: 2
#     Edge 145, Type (0, 1), BuildingBlock: ZUJKAS_clean_linker_0, # of connection points: 2
#     Edge 146, Type (0, 1), BuildingBlock: ZUJKAS_clean_linker_0, # of connection points: 2
#     Edge 147, Type (0, 1), BuildingBlock: ZUJKAS_clean_linker_0, # of connection points: 2
#     Edge 148, Type (0, 1), BuildingBlock: ZUJKAS_clean_linker_0, # of connection points: 2
#     Edge 149, Type (0, 1), BuildingBlock: ZUJKAS_clean_linker_0, # of connection points: 2
#     Edge 150, Type (0, 1), BuildingBlock: ZUJKAS_clean_linker_0, # of connection points: 2
#     Edge 151, Type (0, 1), BuildingBlock: ZUJKAS_clean_linker_0, # of connection points: 2
# Relax obj value: 0.042
# Max RMSD: 0.168
# Mean RMSD: 0.122
data_MOF--net-tbo--node1-ESEHIV_clean_sbu_0--node2-BETDIP_clean_linker_0--edge1-ZUJKAS_clean_linker_0
_symmetry_space_group_name_H-M    P1
_symmetry_Int_Tables_number       1
_symmetry_cell_setting            triclinic
loop_
_symmetry_equiv_pos_as_xyz
'x, y, z'
_cell_length_a     91.925672
_cell_length_b     90.715197
_cell_length_c     98.502667
_cell_angle_alpha  95.267464
_cell_angle_beta   85.514864
_cell_angle_gamma 101.19035
loop_
_atom_site_label
_atom_site_type_symbol
_atom_site_fract_x
_atom_site_fract_y
_atom_site_fract_z
_atom_type_partial_charge
H0 H 0.17187 0.16455 0.21145 0.0
H1 H 0.20723 0.1719 0.18016 0.0
H2 H 0.17203 0.19733 0.18255 0.0
H3 H 0.21916 0.16003 0.19346 0.0
C4 C 0.21089 0.15254 0.19934 0.0
C5 C 0.17697 0.17041 0.20266 0.0
C6 C 0.17043 0.18156 0.19788 0.0
C7 C 0.19029 0.16693 0.1965 0.0
C8 C 0.19705 0.17457 0.18512 0.0
C9 C 0.19062 0.18572 0.18003 0.0
C10 C 0.17732 0.1891 0.18655 0.0
N11 N 0.19623 0.15548 0.20196 0.0
H12 H 0.87418 0.21919 0.14846 0.0
H13 H 0.83509 0.18431 0.14797 0.0
H14 H 0.86656 0.18636 0.17838 0.0
H15 H 0.82597 0.20063 0.13678 0.0
C16 C 0.83537 0.20626 0.13062 0.0
C17 C 0.86735 0.20947 0.15288 0.0
C18 C 0.87203 0.20363 0.16418 0.0
C19 C 0.85396 0.20277 0.14708 0.0
C20 C 0.84526 0.18985 0.15253 0.0
C21 C 0.84971 0.18391 0.16388 0.0
C22 C 0.86306 0.19092 0.16965 0.0
N23 N 0.8499 0.20899 0.13549 0.0
H24 H 0.87091 0.84416 0.17986 0.0
H25 H 0.87236 0.87715 0.21421 0.0
H26 H 0.84194 0.87645 0.18293 0.0
H27 H 0.88967 0.86603 0.22149 0.0
C28 C 0.89187 0.85667 0.21449 0.0
C29 C 0.86673 0.85358 0.1853 0.0
C30 C 0.8555 0.85938 0.17986 0.0
C31 C 0.87293 0.85977 0.19759 0.0
C32 C 0.86783 0.87229 0.20465 0.0
C33 C 0.85655 0.87844 0.19945 0.0
C34 C 0.85055 0.87186 0.18703 0.0
N35 N 0.88413 0.85281 0.20228 0.0
H36 H 0.21393 0.79317 0.19857 0.0
H37 H 0.24692 0.82871 0.21591 0.0
H38 H 0.20236 0.83575 0.2132 0.0
H39 H 0.24601 0.77911 0.19542 0.0
C40 C 0.24326 0.7898 0.19345 0.0
C41 C 0.21714 0.80467 0.20285 0.0
C42 C 0.20646 0.81393 0.20523 0.0
C43 C 0.23182 0.8101 0.20654 0.0
C44 C 0.23568 0.8247 0.21282 0.0
C45 C 0.2252 0.83418 0.21486 0.0
C46 C 0.21068 0.82873 0.21094 0.0
N47 N 0.24268 0.8008 0.20461 0.0
H48 H 0.15577 0.83304 0.86003 0.0
H49 H 0.19687 0.86528 0.86003 0.0
H50 H 0.16442 0.86765 0.83176 0.0
H51 H 0.20499 0.84829 0.87073 0.0
C52 C 0.19554 0.84227 0.87656 0.0
C53 C 0.163 0.84264 0.85579 0.0
C54 C 0.15827 0.84973 0.84526 0.0
C55 C 0.17698 0.8479 0.86105 0.0
C56 C 0.18628 0.86064 0.85581 0.0
C57 C 0.18167 0.86791 0.84537 0.0
C58 C 0.16774 0.86232 0.84012 0.0
N59 N 0.18097 0.84046 0.87194 0.0
H60 H 0.20437 0.20399 0.87868 0.0
H61 H 0.20701 0.17435 0.84229 0.0
H62 H 0.23609 0.17434 0.87438 0.0
H63 H 0.18437 0.17834 0.83941 0.0
C64 C 0.18338 0.18941 0.84414 0.0
C65 C 0.20946 0.19542 0.87281 0.0
C66 C 0.22101 0.18995 0.8782 0.0
C67 C 0.20406 0.18972 0.86003 0.0
C68 C 0.21057 0.17845 0.85237 0.0
C69 C 0.22216 0.17277 0.85747 0.0
C70 C 0.22721 0.17862 0.87039 0.0
N71 N 0.19237 0.19588 0.85517 0.0
H72 H 0.84012 0.23156 0.81683 0.0
H73 H 0.87742 0.26629 0.82664 0.0
H74 H 0.87767 0.22064 0.83479 0.0
H75 H 0.85093 0.28434 0.81514 0.0
C76 C 0.85149 0.2759 0.82212 0.0
C77 C 0.85091 0.23488 0.82104 0.0
C78 C 0.85782 0.22409 0.82603 0.0
C79 C 0.85773 0.25009 0.82158 0.0
C80 C 0.87189 0.25459 0.82666 0.0
C81 C 0.87923 0.24391 0.83112 0.0
C82 C 0.87209 0.22874 0.83094 0.0
N83 N 0.85022 0.26065 0.81671 0.0
H84 H 0.83344 0.87518 0.87405 0.0
H85 H 0.86485 0.86873 0.84039 0.0
H86 H 0.85944 0.84042 0.87376 0.0
H87 H 0.85202 0.88177 0.82935 0.0
C88 C 0.8472 0.88927 0.83685 0.0
C89 C 0.84181 0.86916 0.86921 0.0
C90 C 0.8456 0.85728 0.87558 0.0
C91 C 0.84842 0.87324 0.85643 0.0
C92 C 0.85922 0.86539 0.84999 0.0
C93 C 0.86326 0.8535 0.85617 0.0
C94 C 0.85637 0.84955 0.86895 0.0
N95 N 0.84416 0.88551 0.85065 0.0
H96 H 0.16579 0.67811 0.6993 0.0
H97 H 0.20074 0.68262 0.66754 0.0
H98 H 0.16777 0.71066 0.66972 0.0
H99 H 0.21173 0.66967 0.68024 0.0
C100 C 0.20351 0.66338 0.68709 0.0
C101 C 0.17119 0.68371 0.69049 0.0
C102 C 0.16523 0.69513 0.68543 0.0
C103 C 0.18404 0.67922 0.6843 0.0
C104 C 0.19092 0.68606 0.67255 0.0
C105 C 0.1851 0.69744 0.66716 0.0
C106 C 0.1723 0.70191 0.67374 0.0
N107 N 0.1894 0.66761 0.69013 0.0
H108 H 0.86899 0.72757 0.64505 0.0
H109 H 0.8335 0.6889 0.64617 0.0
H110 H 0.8692 0.69355 0.67271 0.0
H111 H 0.82093 0.70323 0.63638 0.0
C112 C 0.82901 0.7106 0.63022 0.0
C113 C 0.86384 0.7171 0.64936 0.0
C114 C 0.87087 0.71148 0.6594 0.0
C115 C 0.85024 0.70924 0.64465 0.0
C116 C 0.84368 0.69544 0.65 0.0
C117 C 0.85056 0.68965 0.66004 0.0
C118 C 0.86409 0.69777 0.66469 0.0
N119 N 0.84387 0.71526 0.63418 0.0
H120 H 0.87796 0.34964 0.68244 0.0
H121 H 0.88353 0.38392 0.71591 0.0
H122 H 0.85019 0.38307 0.68743 0.0
H123 H 0.89558 0.36855 0.72488 0.0
C124 C 0.90003 0.36139 0.71682 0.0
C125 C 0.87473 0.3595 0.68799 0.0
C126 C 0.86301 0.36547 0.68357 0.0
C127 C 0.88207 0.36579 0.69977 0.0
C128 C 0.87786 0.37869 0.707 0.0
C129 C 0.86622 0.38496 0.70271 0.0
C130 C 0.85889 0.37817 0.69102 0.0
N131 N 0.89364 0.35888 0.70385 0.0
H132 H 0.21334 0.31808 0.71862 0.0
H133 H 0.25232 0.34871 0.70519 0.0
H134 H 0.22071 0.36452 0.73471 0.0
H135 H 0.21551 0.30912 0.69574 0.0
C136 C 0.22726 0.31129 0.69254 0.0
C137 C 0.22001 0.32932 0.71905 0.0
C138 C 0.21553 0.34086 0.728 0.0
C139 C 0.23322 0.33226 0.71075 0.0
C140 C 0.24216 0.34659 0.71166 0.0
C141 C 0.23772 0.35834 0.72023 0.0
C142 C 0.22445 0.35535 0.72844 0.0
N143 N 0.23744 0.32139 0.70073 0.0
H144 H 0.16915 0.31543 0.35531 0.0
H145 H 0.20796 0.35072 0.35329 0.0
H146 H 0.17557 0.34596 0.32345 0.0
H147 H 0.21769 0.33597 0.36522 0.0
C148 C 0.20877 0.3299 0.37158 0.0
C149 C 0.1757 0.32493 0.35034 0.0
C150 C 0.1707 0.32973 0.33865 0.0
C151 C 0.1893 0.3321 0.35555 0.0
C152 C 0.19773 0.34462 0.34921 0.0
C153 C 0.19291 0.34941 0.33747 0.0
C154 C 0.17947 0.3419 0.33227 0.0
N155 N 0.19399 0.32658 0.36725 0.0
H156 H 0.1968 0.6926 0.36514 0.0
H157 H 0.19808 0.66035 0.33044 0.0
H158 H 0.22904 0.66359 0.36162 0.0
H159 H 0.18653 0.67561 0.32038 0.0
C160 C 0.17995 0.68101 0.32824 0.0
C161 C 0.20183 0.68381 0.35957 0.0
C162 C 0.21352 0.67875 0.3651 0.0
C163 C 0.19639 0.67757 0.34693 0.0
C164 C 0.20259 0.66575 0.33985 0.0
C165 C 0.2143 0.66043 0.34514 0.0
C166 C 0.2197 0.66716 0.3577 0.0
N167 N 0.18443 0.6832 0.34196 0.0
H168 H 0.83767 0.69879 0.32455 0.0
H169 H 0.87274 0.73606 0.33443 0.0
H170 H 0.88346 0.6946 0.31568 0.0
H171 H 0.8535 0.74942 0.3322 0.0
C172 C 0.84555 0.74238 0.33878 0.0
C173 C 0.84944 0.70352 0.32458 0.0
C174 C 0.85999 0.69479 0.31929 0.0
C175 C 0.8539 0.71844 0.32985 0.0
C176 C 0.86911 0.72473 0.32991 0.0
C177 C 0.8798 0.71619 0.32482 0.0
C178 C 0.87519 0.70124 0.31952 0.0
N179 N 0.84295 0.72647 0.336 0.0
H180 H 0.82978 0.3481 0.38583 0.0
H181 H 0.85969 0.34898 0.34986 0.0
H182 H 0.85928 0.3164 0.37898 0.0
H183 H 0.84322 0.36026 0.34131 0.0
C184 C 0.83835 0.36664 0.34973 0.0
C185 C 0.83842 0.34361 0.37962 0.0
C186 C 0.84391 0.33147 0.3839 0.0
C187 C 0.84364 0.34973 0.36716 0.0
C188 C 0.85502 0.34396 0.35915 0.0
C189 C 0.86087 0.33201 0.36343 0.0
C190 C 0.85504 0.32575 0.3757 0.0
N191 N 0.83738 0.36183 0.36321 0.0
H192 H 0.68271 0.1716 0.70628 0.0
H193 H 0.71746 0.17321 0.67442 0.0
H194 H 0.68444 0.20079 0.67383 0.0
H195 H 0.72946 0.16404 0.68935 0.0
C196 C 0.72119 0.15736 0.69589 0.0
C197 C 0.68805 0.17628 0.69702 0.0
C198 C 0.68186 0.18678 0.69076 0.0
C199 C 0.70104 0.17156 0.69144 0.0
C200 C 0.70783 0.17724 0.67919 0.0
C201 C 0.70193 0.18779 0.6727 0.0
C202 C 0.6889 0.19245 0.67857 0.0
N203 N 0.70667 0.16081 0.69824 0.0
H204 H 0.38155 0.22232 0.64862 0.0
H205 H 0.34602 0.18369 0.64795 0.0
H206 H 0.37965 0.18828 0.67672 0.0
H207 H 0.33432 0.19762 0.6371 0.0
C208 C 0.34261 0.20558 0.63172 0.0
C209 C 0.37606 0.21184 0.65275 0.0
C210 C 0.38236 0.20614 0.66322 0.0
C211 C 0.3628 0.20405 0.64734 0.0
C212 C 0.35587 0.19021 0.6524 0.0
C213 C 0.36191 0.18437 0.66297 0.0
C214 C 0.37512 0.19247 0.66833 0.0
N215 N 0.35711 0.21026 0.63655 0.0
H216 H 0.38949 0.85329 0.67677 0.0
H217 H 0.38969 0.88778 0.70975 0.0
H218 H 0.35802 0.88302 0.67895 0.0
H219 H 0.40418 0.87543 0.71934 0.0
C220 C 0.40944 0.86853 0.71162 0.0
C221 C 0.38493 0.86269 0.68177 0.0
C222 C 0.37285 0.86713 0.67637 0.0
C223 C 0.39108 0.86991 0.6938 0.0
C224 C 0.38507 0.88204 0.70051 0.0
C225 C 0.37297 0.88681 0.69534 0.0
C226 C 0.36701 0.87923 0.68325 0.0
N227 N 0.40334 0.86467 0.69859 0.0
H228 H 0.71521 0.81034 0.70254 0.0
H229 H 0.74316 0.85428 0.70678 0.0
H230 H 0.71001 0.84012 0.73835 0.0
H231 H 0.75749 0.84498 0.69024 0.0
C232 C 0.7497 0.8374 0.68388 0.0
C233 C 0.71885 0.82083 0.70859 0.0
C234 C 0.71162 0.82369 0.72137 0.0
C235 C 0.73047 0.83162 0.70333 0.0
C236 C 0.73468 0.84556 0.7109 0.0
C237 C 0.72747 0.84862 0.72367 0.0
C238 C 0.71615 0.83752 0.72887 0.0
N239 N 0.73669 0.82862 0.68991 0.0
H240 H 0.64749 0.83324 0.3644 0.0
H241 H 0.68642 0.86831 0.36364 0.0
H242 H 0.65282 0.86692 0.33544 0.0
H243 H 0.69664 0.85131 0.37293 0.0
C244 C 0.6878 0.84543 0.37953 0.0
C245 C 0.65393 0.84315 0.35996 0.0
C246 C 0.64833 0.84939 0.34938 0.0
C247 C 0.66779 0.84962 0.36497 0.0
C248 C 0.67602 0.86277 0.35951 0.0
C249 C 0.67055 0.8692 0.34898 0.0
C250 C 0.65681 0.86233 0.34391 0.0
N251 N 0.67282 0.84293 0.37583 0.0
H252 H 0.69157 0.20983 0.36636 0.0
H253 H 0.69309 0.17597 0.33308 0.0
H254 H 0.72177 0.17906 0.36624 0.0
H255 H 0.67154 0.18159 0.32813 0.0
C256 C 0.67079 0.19288 0.33245 0.0
C257 C 0.69629 0.20046 0.36152 0.0
C258 C 0.70724 0.19521 0.36794 0.0
C259 C 0.69097 0.1936 0.34907 0.0
C260 C 0.69698 0.18129 0.34274 0.0
C261 C 0.70811 0.1758 0.34885 0.0
C262 C 0.71304 0.18285 0.36153 0.0
N263 N 0.6798 0.1997 0.34332 0.0
H264 H 0.3198 0.21579 0.35374 0.0
H265 H 0.36252 0.24001 0.33977 0.0
H266 H 0.34901 0.19321 0.3268 0.0
H267 H 0.35442 0.26042 0.34815 0.0
C268 C 0.34594 0.25711 0.35616 0.0
C269 C 0.33013 0.21609 0.34758 0.0
C270 C 0.33326 0.20286 0.34042 0.0
C271 C 0.34049 0.22961 0.34731 0.0
C272 C 0.35413 0.22987 0.33966 0.0
C273 C 0.3573 0.21678 0.33219 0.0
C274 C 0.34678 0.20334 0.33264 0.0
N275 N 0.33719 0.24233 0.35565 0.0
H276 H 0.32345 0.87067 0.37938 0.0
H277 H 0.35218 0.86302 0.34386 0.0
H278 H 0.34911 0.83555 0.37763 0.0
H279 H 0.33991 0.87721 0.33389 0.0
C280 C 0.33509 0.88446 0.34161 0.0
C281 C 0.33122 0.86431 0.37393 0.0
C282 C 0.33549 0.85256 0.3801 0.0
C283 C 0.33706 0.86818 0.36086 0.0
C284 C 0.34743 0.86013 0.35387 0.0
C285 C 0.35179 0.84822 0.3598 0.0
C286 C 0.34575 0.84459 0.37292 0.0
N287 N 0.33248 0.88047 0.35537 0.0
H288 H 0.66001 0.67248 0.21566 0.0
H289 H 0.69533 0.67739 0.18408 0.0
H290 H 0.66202 0.70493 0.186 0.0
H291 H 0.70443 0.661 0.19441 0.0
C292 C 0.69715 0.65664 0.2029 0.0
C293 C 0.66546 0.67805 0.20685 0.0
C294 C 0.65936 0.68925 0.20161 0.0
C295 C 0.67842 0.67365 0.20076 0.0
C296 C 0.68538 0.68058 0.18904 0.0
C297 C 0.67953 0.69197 0.18371 0.0
C298 C 0.66656 0.69621 0.19008 0.0
N299 N 0.68386 0.66224 0.20683 0.0
H300 H 0.3591 0.72054 0.15101 0.0
H301 H 0.32503 0.68063 0.14998 0.0
H302 H 0.36066 0.68492 0.17659 0.0
H303 H 0.31133 0.69642 0.14298 0.0
C304 C 0.31917 0.70348 0.13636 0.0
C305 C 0.35436 0.70964 0.15471 0.0
C306 C 0.36162 0.7037 0.16438 0.0
C307 C 0.34101 0.70158 0.14965 0.0
C308 C 0.33498 0.68726 0.15419 0.0
C309 C 0.34212 0.68111 0.1638 0.0
C310 C 0.35537 0.68943 0.16886 0.0
N311 N 0.33428 0.70793 0.13963 0.0
H312 H 0.38652 0.33635 0.17623 0.0
H313 H 0.388 0.3718 0.20849 0.0
H314 H 0.35676 0.36774 0.17743 0.0
H315 H 0.40028 0.35765 0.21919 0.0
C316 C 0.40574 0.35082 0.21155 0.0
C317 C 0.38237 0.3461 0.18099 0.0
C318 C 0.37088 0.35116 0.17519 0.0
C319 C 0.38846 0.35319 0.19311 0.0
C320 C 0.38306 0.36586 0.19947 0.0
C321 C 0.37159 0.37129 0.19387 0.0
C322 C 0.36559 0.36374 0.18178 0.0
N323 N 0.4002 0.34741 0.19826 0.0
H324 H 0.73232 0.30818 0.19026 0.0
H325 H 0.76715 0.34636 0.1982 0.0
H326 H 0.72268 0.3468 0.2153 0.0
H327 H 0.74964 0.29756 0.17874 0.0
C328 C 0.75866 0.30664 0.17605 0.0
C329 C 0.73617 0.31917 0.19532 0.0
C330 C 0.72582 0.32651 0.20312 0.0
C331 C 0.75115 0.3263 0.19366 0.0
C332 C 0.7557 0.34076 0.19993 0.0
C333 C 0.7455 0.34838 0.20757 0.0
C334 C 0.73059 0.34111 0.20921 0.0
N335 N 0.76171 0.32009 0.18475 0.0
H336 H 0.67292 0.3345 0.8612 0.0
H337 H 0.7102 0.37148 0.86166 0.0
H338 H 0.67508 0.37061 0.83523 0.0
H339 H 0.72203 0.35388 0.86792 0.0
C340 C 0.71393 0.34746 0.87481 0.0
C341 C 0.67863 0.34508 0.85743 0.0
C342 C 0.67217 0.35185 0.84773 0.0
C343 C 0.6925 0.35185 0.8623 0.0
C344 C 0.6998 0.36577 0.85762 0.0
C345 C 0.69347 0.37268 0.84796 0.0
C346 C 0.67973 0.36559 0.84305 0.0
N347 N 0.69859 0.34463 0.87216 0.0
H348 H 0.71673 0.7176 0.87469 0.0
H349 H 0.71951 0.68686 0.839 0.0
H350 H 0.74456 0.68437 0.87349 0.0
H351 H 0.69952 0.69408 0.83325 0.0
C352 C 0.69847 0.70492 0.83845 0.0
C353 C 0.72113 0.70825 0.86941 0.0
C354 C 0.73122 0.70165 0.87578 0.0
C355 C 0.71666 0.70302 0.85621 0.0
C356 C 0.72263 0.691 0.8492 0.0
C357 C 0.73265 0.6841 0.8554 0.0
C358 C 0.73687 0.68958 0.86865 0.0
N359 N 0.70632 0.71026 0.85043 0.0
H360 H 0.34061 0.70486 0.83428 0.0
H361 H 0.37646 0.74281 0.83833 0.0
H362 H 0.38096 0.70571 0.80889 0.0
H363 H 0.33298 0.71364 0.85486 0.0
C364 C 0.33744 0.72562 0.8563 0.0
C365 C 0.35164 0.71056 0.83113 0.0
C366 C 0.36012 0.70344 0.82096 0.0
C367 C 0.35754 0.72487 0.83728 0.0
C368 C 0.37187 0.73202 0.83319 0.0
C369 C 0.38056 0.72503 0.8232 0.0
C370 C 0.37446 0.71091 0.81694 0.0
N371 N 0.34973 0.73238 0.8479 0.0
H372 H 0.34248 0.36499 0.87122 0.0
H373 H 0.37267 0.35928 0.83643 0.0
H374 H 0.3706 0.33219 0.87047 0.0
H375 H 0.36029 0.3736 0.82632 0.0
C376 C 0.35353 0.37926 0.83381 0.0
C377 C 0.35104 0.35939 0.86613 0.0
C378 C 0.35597 0.34822 0.87254 0.0
C379 C 0.3567 0.3633 0.85307 0.0
C380 C 0.36781 0.35603 0.84631 0.0
C381 C 0.37303 0.34478 0.85254 0.0
C382 C 0.36686 0.3409 0.86561 0.0
N383 N 0.35096 0.37475 0.84739 0.0
Cu384 Cu 0.28045 0.27562 0.03169 0.0
N385 N 0.28315 0.29319 0.02236 0.0
N386 N 0.2904 0.3076 1.00485 0.0
C387 C 0.2907 0.29445 1.01012 0.0
C388 C 0.28246 0.31504 0.01431 0.0
C389 C 0.27795 0.3061 0.02509 0.0
O390 O 0.279 0.25942 0.01672 0.0
C391 C 0.29473 0.28872 0.0543 0.0
O392 O 0.28373 0.29597 0.05389 0.0
H393 H 0.29621 0.28572 1.00513 0.0
H394 H 0.27115 0.30873 0.0341 0.0
N395 N 0.26265 0.27209 0.04266 0.0
N396 N 0.24703 0.26303 0.05984 0.0
C397 C 0.26004 0.26248 0.0526 0.0
C398 C 0.25083 0.27894 0.04354 0.0
C399 C 0.24118 0.27339 0.05415 0.0
C400 C 0.2686 0.26006 1.00899 0.0
O401 O 0.25997 0.2699 0.01264 0.0
H402 H 0.26789 0.25569 0.05484 0.0
H403 H 0.24945 0.28756 0.03713 0.0
O404 O 0.29633 0.27855 0.04467 0.0
H405 H 0.27971 0.32596 0.01334 0.0
H406 H 0.23074 0.27679 0.05746 0.0
Cu407 Cu 0.80852 0.30051 0.99891 0.0
N408 N 0.80916 0.31445 0.01398 0.0
N409 N 0.80592 0.32207 0.03599 0.0
C410 C 0.80203 0.31111 0.02604 0.0
C411 C 0.8159 0.33281 0.02991 0.0
C412 C 0.81787 0.32806 0.01626 0.0
O413 O 0.80844 0.28141 1.00654 0.0
C414 C 0.78929 0.31315 0.98551 0.0
O415 O 0.79875 0.3253 0.98947 0.0
H416 H 0.79489 0.30036 0.02763 0.0
H417 H 0.82557 0.3338 1.00872 0.0
N418 N 0.82487 0.30552 0.98663 0.0
N419 N 0.83745 0.30866 0.96651 0.0
C420 C 0.82411 0.30414 0.973 0.0
C421 C 0.83922 0.3113 0.98886 0.0
C422 C 0.84707 0.31308 0.97639 0.0
C423 C 0.81979 0.28065 0.0129 0.0
O424 O 0.83118 0.29189 0.0126 0.0
H425 H 0.81396 0.29975 0.96791 0.0
H426 H 0.84366 0.31419 0.9988 0.0
O427 O 0.79097 0.30047 0.98908 0.0
H428 H 0.82165 0.34313 0.035 0.0
H429 H 0.85882 0.31752 0.9747 0.0
Cu430 Cu 0.77086 0.78228 0.03435 0.0
N431 N 0.77115 0.79866 0.02393 0.0
N432 N 0.77681 0.81249 1.00585 0.0
C433 C 0.77888 0.80027 1.01179 0.0
C434 C 0.76742 0.81889 0.01469 0.0
C435 C 0.76386 0.81028 0.02579 0.0
O436 O 0.77141 0.76554 0.02017 0.0
C437 C 0.78724 0.79968 0.05436 0.0
O438 O 0.7772 0.80776 0.0527 0.0
H439 H 0.78588 0.79253 1.00739 0.0
H440 H 0.75637 0.81226 0.0345 0.0
N441 N 0.75351 0.7778 0.04585 0.0
N442 N 0.73841 0.76801 0.06308 0.0
C443 C 0.75226 0.76987 0.05696 0.0
C444 C 0.74003 0.78123 0.04499 0.0
C445 C 0.73067 0.77512 0.05554 0.0
C446 C 0.75996 0.76252 0.01308 0.0
O447 O 0.74892 0.76957 0.01676 0.0
H448 H 0.76128 0.76531 0.06034 0.0
H449 H 0.73714 0.78759 0.03718 0.0
O450 O 0.7872 0.78746 0.04677 0.0
H451 H 0.76312 0.82885 0.0131 0.0
H452 H 0.7191 0.77597 0.05758 0.0
Cu453 Cu 0.26489 0.79655 0.01533 0.0
N454 N 0.26443 0.81066 0.03029 0.0
N455 N 0.26104 0.81832 0.0523 0.0
C456 C 0.2586 0.80674 0.04267 0.0
C457 C 0.26869 0.8301 0.04571 0.0
C458 C 0.27071 0.82535 0.03207 0.0
O459 O 0.26604 0.77793 0.02322 0.0
C460 C 0.24663 0.80785 0.99999 0.0
O461 O 0.25573 0.82018 1.00415 0.0
H462 H 0.25341 0.79531 0.04469 0.0
H463 H 0.27669 0.83203 0.02415 0.0
N464 N 0.28147 0.80122 1.00328 0.0
N465 N 0.296 0.79828 0.98438 0.0
C466 C 0.2832 0.79297 0.99145 0.0
C467 C 0.2936 0.81224 1.00379 0.0
C468 C 0.30259 0.81048 0.99206 0.0
C469 C 0.27839 0.778 0.0283 0.0
O470 O 0.28913 0.78974 0.02691 0.0
H471 H 0.27505 0.7833 0.98806 0.0
H472 H 0.29588 0.8208 1.01212 0.0
O473 O 0.24788 0.79544 1.00445 0.0
H474 H 0.27278 0.84122 0.05045 0.0
H475 H 0.31324 0.81745 0.98952 0.0
Cu476 Cu 1.00807 0.25007 0.2718 0.0
N477 N 0.01748 0.23333 0.26962 0.0
N478 N 0.03525 0.21995 0.26292 0.0
C479 C 0.03107 0.23349 0.26336 0.0
C480 C 0.02374 0.21092 0.26919 0.0
C481 C 0.01282 0.21918 0.27331 0.0
O482 O 0.0237 0.26702 0.27677 0.0
C483 C 0.99115 0.23992 0.24979 0.0
O484 O 0.98979 0.22746 0.25597 0.0
H485 H 0.03759 0.24336 0.25896 0.0
H486 H 1.00216 0.21507 0.27841 0.0
N487 N 0.9926 0.24866 0.2855 0.0
N488 N 0.97333 0.25489 0.29859 0.0
C489 C 0.98253 0.25778 0.28737 0.0
C490 C 0.98963 0.23961 0.29585 0.0
C491 C 0.97778 0.24343 0.30394 0.0
C492 C 0.02761 0.26822 0.28901 0.0
O493 O 0.02013 0.25896 0.29767 0.0
H494 H 0.98233 0.26672 0.28087 0.0
H495 H 0.99592 0.23117 0.29768 0.0
O496 O 0.99926 0.25186 0.25483 0.0
H497 H 0.0232 0.19917 0.27077 0.0
H498 H 0.9729 0.23824 0.31311 0.0
Cu499 Cu 0.77191 0.02632 0.2601 0.0
N500 N 0.77233 0.03383 0.24297 0.0
N501 N 0.77806 0.04985 0.22656 0.0
C502 C 0.78053 0.04699 0.23931 0.0
C503 C 0.76796 0.03791 0.22198 0.0
C504 C 0.76443 0.02806 0.23214 0.0
O505 O 0.77263 0.04384 0.27385 0.0
C506 C 0.78433 1.00163 0.25072 0.0
O507 O 0.77216 0.99964 0.24409 0.0
H508 H 0.7881 0.05434 0.24598 0.0
H509 H 0.75648 0.01757 0.23172 0.0
N510 N 0.75383 0.01354 0.26399 0.0
N511 N 0.73773 0.99509 0.27356 0.0
C512 C 0.75198 1.00239 0.27242 0.0
C513 C 0.74029 0.01339 0.25964 0.0
C514 C 0.73031 1.00201 0.26554 0.0
C515 C 0.76332 0.05232 0.27226 0.0
O516 O 0.75467 0.04873 0.262 0.0
H517 H 0.76093 0.99987 0.27778 0.0
H518 H 0.73782 0.02103 0.25271 0.0
O519 O 0.78724 0.01347 0.25895 0.0
H520 H 0.76315 0.03654 0.21216 0.0
H521 H 0.71856 0.99898 0.26394 0.0
Cu522 Cu 0.03607 0.76809 0.27012 0.0
N523 N 0.01967 0.76594 0.25921 0.0
N524 N 1.00033 0.77217 0.24985 0.0
C525 C 1.01167 0.77678 0.25819 0.0
C526 C 1.0013 0.75779 0.24549 0.0
C527 C 0.01316 0.75399 0.25129 0.0
O528 O 0.02918 0.77726 0.28737 0.0
C529 C 0.05584 0.77724 0.24864 0.0
O530 O 0.04645 0.76672 0.24209 0.0
H531 H 0.01425 0.7879 0.26343 0.0
H532 H 0.01675 0.74325 0.24985 0.0
N533 N 0.04188 0.74985 0.27307 0.0
N534 N 0.056 0.73448 0.27979 0.0
C535 C 0.05561 0.74846 0.2762 0.0
C536 C 0.0333 0.73624 0.27461 0.0
C537 C 0.04194 0.72676 0.2787 0.0
C538 C 0.02997 0.77223 0.29887 0.0
O539 O 0.03956 0.76349 0.30005 0.0
H540 H 0.0649 0.75783 0.2766 0.0
H541 H 0.02146 0.73356 0.2734 0.0
O542 O 0.05315 0.78039 0.26133 0.0
H543 H 0.99384 0.7504 0.23877 0.0
H544 H 0.03804 0.71515 0.28095 0.0
Cu545 Cu 0.2532 0.02048 0.29303 0.0
N546 N 0.24878 0.03341 0.30794 0.0
N547 N 0.24931 0.05525 0.32044 0.0
C548 C 0.25379 0.04835 0.3086 0.0
C549 C 0.24115 0.04421 0.3276 0.0
C550 C 0.24069 0.0307 0.31976 0.0
O551 O 0.25392 0.03184 0.27696 0.0
C552 C 0.27117 1.00673 0.30687 0.0
O553 O 0.26001 1.00733 0.31594 0.0
H554 H 0.26094 0.05401 0.30064 0.0
H555 H 0.23502 0.01969 0.32255 0.0
N556 N 0.23874 1.00312 0.29134 0.0
N557 N 0.23001 0.97874 0.28611 0.0
C558 C 0.2419 0.99001 0.28565 0.0
C559 C 0.22427 1.00013 0.2956 0.0
C560 C 0.21879 0.98502 0.29226 0.0
C561 C 0.24174 0.0358 0.27489 0.0
O562 O 0.23001 0.03127 0.283 0.0
H563 H 0.2528 0.98884 0.28119 0.0
H564 H 0.21821 1.00827 0.30087 0.0
O565 O 0.27127 0.01296 0.29574 0.0
H566 H 0.23595 0.04581 0.33774 0.0
H567 H 0.20756 0.9791 0.29442 0.0
Cu568 Cu 1.00541 0.76512 0.76427 0.0
N569 N 0.01556 0.74893 0.76255 0.0
N570 N 0.03328 0.73568 0.75541 0.0
C571 C 0.02674 0.74728 0.75317 0.0
C572 C 0.02588 0.7298 0.76666 0.0
C573 C 0.01499 0.73801 0.77105 0.0
O574 O 0.01961 0.78223 0.77145 0.0
C575 C 0.99235 0.75546 0.73993 0.0
O576 O 0.99253 0.74243 0.74467 0.0
H577 H 0.03045 0.75493 0.74526 0.0
H578 H 1.00758 0.73648 0.7801 0.0
N579 N 0.98858 0.76225 0.77644 0.0
N580 N 0.96912 0.76789 0.78964 0.0
C581 C 0.98207 0.77334 0.78275 0.0
C582 C 0.97946 0.74931 0.77939 0.0
C583 C 0.96748 0.75274 0.78756 0.0
C584 C 0.02285 0.78136 0.78366 0.0
O585 O 0.0157 0.76996 0.79034 0.0
H586 H 0.98644 0.78519 0.78175 0.0
H587 H 0.98113 0.73818 0.7755 0.0
O588 O 0.9982 0.76751 0.7467 0.0
H589 H 0.02833 0.72041 0.77152 0.0
H590 H 0.95818 0.74469 0.79148 0.0
Cu591 Cu 0.28364 0.0292 0.76182 0.0
N592 N 0.28196 0.03785 0.74552 0.0
N593 N 0.2876 0.0528 0.72825 0.0
C594 C 0.29274 0.04722 0.73881 0.0
C595 C 0.27311 0.04627 0.72806 0.0
C596 C 0.2697 0.03702 0.73865 0.0
O597 O 0.28441 0.04489 0.7772 0.0
C598 C 0.29723 1.00681 0.74901 0.0
O599 O 0.28522 1.00567 0.74228 0.0
H600 H 0.30397 0.05048 0.74204 0.0
H601 H 0.25891 0.03042 0.74126 0.0
N602 N 0.26627 0.0155 0.7661 0.0
N603 N 0.25139 0.99568 0.7749 0.0
C604 C 0.26552 1.00214 0.77134 0.0
C605 C 0.25217 0.01767 0.76657 0.0
C606 C 0.24295 1.00539 0.77184 0.0
C607 C 0.28911 0.059 0.77635 0.0
O608 O 0.29683 0.06364 0.76527 0.0
H609 H 0.27519 0.99747 0.77286 0.0
H610 H 0.24887 0.0278 0.76392 0.0
O611 O 0.2996 0.0173 0.75865 0.0
H612 H 0.26543 0.04824 0.72095 0.0
H613 H 0.23105 1.0041 0.77393 0.0
Cu614 Cu 0.04457 0.28411 0.78458 0.0
N615 N 0.0324 0.28277 0.76981 0.0
N616 N 0.01504 0.28823 0.75715 0.0
C617 C 0.02245 0.29174 0.76874 0.0
C618 C 0.02064 0.27652 0.75072 0.0
C619 C 0.03129 0.2732 0.75852 0.0
O620 O 0.03196 0.289 0.80033 0.0
C621 C 0.07022 0.30552 0.79117 0.0
O622 O 0.06659 0.30165 0.8037 0.0
H623 H 0.02084 0.30077 0.77633 0.0
H624 H 0.0377 0.26437 0.75617 0.0
N625 N 0.05173 0.26627 0.78654 0.0
N626 N 0.06635 0.2509 0.79241 0.0
C627 C 0.06476 0.26534 0.79163 0.0
C628 C 0.04483 0.2519 0.78398 0.0
C629 C 0.05379 0.24244 0.78754 0.0
C630 C 0.02995 0.2827 0.81152 0.0
O631 O 0.03853 0.27337 0.814 0.0
H632 H 0.07293 0.27508 0.79473 0.0
H633 H 0.03392 0.24854 0.78004 0.0
O634 O 0.06165 0.29991 0.78173 0.0
H635 H 0.01718 0.27056 0.74114 0.0
H636 H 0.05103 0.23026 0.78691 0.0
Cu637 Cu 0.77084 0.0326 0.79399 0.0
N638 N 0.77273 0.04768 0.80835 0.0
N639 N 0.78016 0.07055 0.81869 0.0
C640 C 0.77921 0.06207 0.80672 0.0
C641 C 0.77402 0.06117 0.8283 0.0
C642 C 0.76934 0.04704 0.82188 0.0
O643 O 0.76957 0.04275 0.77757 0.0
C644 C 0.78729 0.01463 0.80449 0.0
O645 O 0.77737 0.01634 0.81454 0.0
H646 H 0.78364 0.06611 0.79695 0.0
H647 H 0.76412 0.03703 0.8268 0.0
N648 N 0.7536 0.01811 0.79592 0.0
N649 N 0.73903 0.99577 0.79144 0.0
C650 C 0.75073 1.00594 0.78703 0.0
C651 C 0.74325 0.0157 0.80633 0.0
C652 C 0.73426 1.0018 0.80362 0.0
C653 C 0.75776 0.04816 0.77743 0.0
O654 O 0.74781 0.04597 0.78773 0.0
H655 H 0.7578 1.00412 0.77796 0.0
H656 H 0.7427 0.02312 0.81551 0.0
O657 O 0.7871 0.02141 0.79372 0.0
H658 H 0.77307 0.06427 0.83917 0.0
H659 H 0.72528 0.99634 0.81027 0.0
Cu660 Cu 0.28199 0.77022 0.52627 0.0
N661 N 0.29878 0.77407 0.53687 0.0
N662 N 0.31361 0.78387 0.55387 0.0
C663 C 0.30029 0.78314 0.54856 0.0
C664 C 0.32068 0.77483 0.54512 0.0
C665 C 0.31155 0.76882 0.53471 0.0
O666 O 0.26485 0.7658 0.53936 0.0
C667 C 0.2947 0.79077 0.50811 0.0
O668 O 0.30551 0.78353 0.50944 0.0
H669 H 0.29182 0.78924 0.55295 0.0
H670 H 0.31413 0.76127 0.52611 0.0
N671 N 0.28156 0.75372 0.51304 0.0
N672 N 0.27569 0.73908 0.4938 0.0
C673 C 0.27418 0.75194 0.50148 0.0
C674 C 0.28803 0.74159 0.51267 0.0
C675 C 0.28442 0.73256 0.50087 0.0
C676 C 0.26401 0.75368 0.54526 0.0
O677 O 0.274 0.74526 0.54168 0.0
H678 H 0.26766 0.75989 0.49887 0.0
H679 H 0.29483 0.73938 0.52043 0.0
O680 O 0.28262 0.78737 0.51542 0.0
H681 H 0.33164 0.77254 0.54619 0.0
H682 H 0.28813 0.72209 0.49771 0.0
Cu683 Cu 0.77512 0.80035 0.50499 0.0
N684 N 0.79121 0.80432 0.49232 0.0
N685 N 0.80487 0.80204 0.47276 0.0
C686 C 0.79231 0.79655 0.48012 0.0
C687 C 0.81195 0.81378 0.48066 0.0
C688 C 0.80349 0.81516 0.49276 0.0
O689 O 0.75763 0.79653 0.49434 0.0
C690 C 0.78962 0.78497 0.52066 0.0
O691 O 0.79976 0.79709 0.51876 0.0
H692 H 0.78383 0.78724 0.47664 0.0
H693 H 0.8061 0.82345 0.50125 0.0
N694 N 0.77481 0.8167 0.51783 0.0
N695 N 0.77226 0.82902 0.53829 0.0
C696 C 0.77076 0.81546 0.53114 0.0
C697 C 0.77898 0.83157 0.51642 0.0
C698 C 0.77748 0.83923 0.52909 0.0
C699 C 0.74663 0.8032 0.49682 0.0
O700 O 0.74566 0.81163 0.50831 0.0
H701 H 0.76719 0.80475 0.53555 0.0
H702 H 0.78297 0.83647 0.50691 0.0
O703 O 0.77735 0.78349 0.51502 0.0
H704 H 0.82253 0.82079 0.47797 0.0
H705 H 0.78001 0.85132 0.53135 0.0
Cu706 Cu 0.77426 0.27339 0.53192 0.0
N707 N 0.75885 0.27265 0.52011 0.0
N708 N 0.74573 0.26616 0.5014 0.0
C709 C 0.75932 0.2688 0.5065 0.0
C710 C 0.73634 0.26873 0.51224 0.0
C711 C 0.74443 0.2727 0.52371 0.0
O712 O 0.79256 0.27469 0.52039 0.0
C713 C 0.77637 0.25157 0.55105 0.0
O714 O 0.79067 0.25717 0.5509 0.0
H715 H 0.76927 0.26707 0.50055 0.0
H716 H 0.74001 0.27465 0.53408 0.0
N717 N 0.77683 0.29076 0.54419 0.0
N718 N 0.78532 0.30664 0.56195 0.0
C719 C 0.78298 0.29224 0.55639 0.0
C720 C 0.77512 0.30473 0.54199 0.0
C721 C 0.78034 0.31453 0.55289 0.0
C722 C 0.795 0.26514 0.51061 0.0
O723 O 0.78658 0.25165 0.51003 0.0
H724 H 0.78639 0.28309 0.56081 0.0
H725 H 0.77091 0.30768 0.53285 0.0
O726 O 0.7684 0.25612 0.5429 0.0
H727 H 0.7244 0.26737 0.51203 0.0
H728 H 0.78066 0.32657 0.55394 0.0
Cu729 Cu 0.28659 0.30342 0.51434 0.0
N730 N 0.28031 0.31475 0.52966 0.0
N731 N 0.27192 0.31962 0.55117 0.0
C732 C 0.27583 0.3091 0.54176 0.0
C733 C 0.27398 0.33243 0.54471 0.0
C734 C 0.27921 0.3294 0.53143 0.0
O735 O 0.29145 0.28563 0.5212 0.0
C736 C 0.26871 0.31041 0.49574 0.0
O737 O 0.27582 0.32385 0.49994 0.0
H738 H 0.2753 0.29741 0.54356 0.0
H739 H 0.2821 0.33738 0.52371 0.0
N740 N 0.30349 0.31385 0.5053 0.0
N741 N 0.32037 0.31885 0.48801 0.0
C742 C 0.30959 0.30845 0.49352 0.0
C743 C 0.31074 0.32818 0.50744 0.0
C744 C 0.32115 0.33134 0.49669 0.0
C745 C 0.3032 0.2878 0.52775 0.0
O746 O 0.31154 0.30133 0.52851 0.0
H747 H 0.30551 0.29738 0.48865 0.0
H748 H 0.30825 0.33596 0.51588 0.0
O749 O 0.2713 0.299 0.50112 0.0
H750 H 0.27211 0.34325 0.54931 0.0
H751 H 0.3284 0.34205 0.49516 0.0
Cu752 Cu 0.7906 0.53526 0.76436 0.0
N753 N 0.78975 0.54155 0.747 0.0
N754 N 0.79296 0.55646 0.72976 0.0
C755 C 0.79448 0.55564 0.74318 0.0
C756 C 0.787 0.54232 0.72499 0.0
C757 C 0.78498 0.53315 0.73568 0.0
O758 O 0.79259 0.55355 0.777 0.0
C759 C 0.81569 0.52198 0.75412 0.0
O760 O 0.81782 0.53227 0.74526 0.0
H761 H 0.79937 0.56498 0.75004 0.0
H762 H 0.78056 0.52118 0.73521 0.0
N763 N 0.77263 0.5228 0.76889 0.0
N764 N 0.75656 0.50408 0.7781 0.0
C765 C 0.77098 0.51054 0.77597 0.0
C766 C 0.75882 0.52419 0.76635 0.0
C767 C 0.74886 0.51265 0.77204 0.0
C768 C 0.78612 0.55393 0.78894 0.0
O769 O 0.77994 0.54117 0.79409 0.0
H770 H 0.78022 0.50673 0.77981 0.0
H771 H 0.75621 0.53305 0.76086 0.0
O772 O 0.80573 0.52249 0.76386 0.0
H773 H 0.78429 0.53884 0.71454 0.0
H774 H 0.7369 0.51072 0.77168 0.0
Cu775 Cu 0.28181 0.52653 0.76516 0.0
N776 N 0.27871 0.51297 0.77878 0.0
N777 N 0.2828 0.49445 0.79076 0.0
C778 C 0.28723 0.50265 0.77987 0.0
C779 C 0.27098 0.49991 0.79674 0.0
C780 C 0.26848 0.51132 0.78933 0.0
O781 O 0.29051 0.51591 0.74964 0.0
C782 C 0.30313 0.55355 0.76386 0.0
O783 O 0.30383 0.55 0.75062 0.0
H784 H 0.2967 0.50143 0.77292 0.0
H785 H 0.25987 0.51796 0.7915 0.0
N786 N 0.26425 0.53214 0.76083 0.0
N787 N 0.24934 0.54567 0.75271 0.0
C788 C 0.26342 0.54498 0.75528 0.0
C789 C 0.25022 0.52442 0.76188 0.0
C790 C 0.24099 0.53274 0.75692 0.0
C791 C 0.28541 0.51356 0.73785 0.0
O792 O 0.2756 0.52128 0.73475 0.0
H793 H 0.27303 0.5536 0.75312 0.0
H794 H 0.24696 0.5134 0.76575 0.0
O795 O 0.2949 0.54458 0.77168 0.0
H796 H 0.2645 0.49591 0.80578 0.0
H797 H 0.22912 0.52932 0.75613 0.0
Cu798 Cu 0.28035 0.5145 0.25275 0.0
N799 N 0.26317 0.50021 0.25598 0.0
N800 N 0.24844 0.48023 0.26457 0.0
C801 C 0.26245 0.48805 0.26304 0.0
C802 C 0.24001 0.48776 0.2582 0.0
C803 C 0.24915 0.50008 0.25287 0.0
O804 O 0.29696 0.50334 0.25147 0.0
C805 C 0.27015 0.53933 0.26557 0.0
O806 O 0.26162 0.53563 0.25523 0.0
H807 H 0.27198 0.48528 0.26733 0.0
H808 H 0.24576 0.50844 0.2473 0.0
N809 N 0.28014 0.52263 0.23596 0.0
N810 N 0.28493 0.53942 0.22014 0.0
C811 C 0.28805 0.53602 0.23254 0.0
C812 C 0.27171 0.5173 0.22538 0.0
C813 C 0.27467 0.5276 0.21559 0.0
C814 C 0.2968 0.49364 0.24116 0.0
O815 O 0.28615 0.49232 0.23274 0.0
H816 H 0.2955 0.54335 0.23932 0.0
H817 H 0.26383 0.50676 0.22488 0.0
O818 O 0.27991 0.53132 0.26699 0.0
H819 H 0.22811 0.4846 0.25744 0.0
H820 H 0.26958 0.52644 0.20592 0.0
Cu821 Cu 0.77431 0.51958 0.28274 0.0
N822 N 0.77268 0.50788 0.29778 0.0
N823 N 0.77658 0.49013 0.31084 0.0
C824 C 0.77946 0.49608 0.2986 0.0
C825 C 0.76759 0.49859 0.31802 0.0
C826 C 0.76523 0.5095 0.30996 0.0
O827 O 0.77577 0.50613 0.26654 0.0
C828 C 0.79745 0.54315 0.27448 0.0
O829 O 0.79294 0.53891 0.26215 0.0
H830 H 0.78664 0.49214 0.29043 0.0
H831 H 0.75862 0.51808 0.31281 0.0
N832 N 0.75765 0.52845 0.28161 0.0
N833 N 0.74348 0.54363 0.2748 0.0
C834 C 0.75729 0.54046 0.27459 0.0
C835 C 0.74358 0.52382 0.28647 0.0
C836 C 0.73483 0.53317 0.28234 0.0
C837 C 0.78723 0.50056 0.26276 0.0
O838 O 0.79952 0.50538 0.26911 0.0
H839 H 0.76699 0.54669 0.26935 0.0
H840 H 0.73986 0.51411 0.29231 0.0
O841 O 0.79141 0.53571 0.28444 0.0
H842 H 0.76294 0.49703 0.32833 0.0
H843 H 0.72294 0.53201 0.28438 0.0
Cu844 Cu 0.52075 0.25905 0.76623 0.0
N845 N 0.50498 0.25712 0.77969 0.0
N846 N 0.48558 0.26338 0.79264 0.0
C847 C 0.49485 0.2662 0.78145 0.0
C848 C 0.49004 0.25199 0.79811 0.0
C849 C 0.50197 0.24815 0.7901 0.0
O850 O 0.51208 0.26181 0.74943 0.0
C851 C 0.54128 0.27307 0.78373 0.0
O852 O 0.53571 0.26039 0.78927 0.0
H853 H 0.49471 0.27514 0.77493 0.0
H854 H 0.50829 0.23975 0.79202 0.0
N855 N 0.53016 0.24225 0.76307 0.0
N856 N 0.54767 0.22886 0.7553 0.0
C857 C 0.54351 0.24246 0.75627 0.0
C858 C 0.52565 0.22802 0.76658 0.0
C859 C 0.5364 0.21975 0.76181 0.0
C860 C 0.5037 0.24998 0.74449 0.0
O861 O 0.50226 0.23751 0.75068 0.0
H862 H 0.55007 0.25252 0.75223 0.0
H863 H 0.5152 0.22385 0.77203 0.0
O864 O 0.53606 0.27559 0.77273 0.0
H865 H 0.48515 0.2469 0.80732 0.0
H866 H 0.53578 0.20788 0.76287 0.0
Cu867 Cu 0.55828 0.7992 0.78137 0.0
N868 N 0.57238 0.78641 0.77787 0.0
N869 N 0.59048 0.77375 0.781 0.0
C870 C 0.58174 0.78337 0.78674 0.0
C871 C 0.58628 0.77051 0.76805 0.0
C872 C 0.57514 0.77822 0.7662 0.0
O873 O 0.56594 0.81704 0.79323 0.0
C874 C 0.53245 0.79537 0.79854 0.0
O875 O 0.536 0.81012 0.80041 0.0
H876 H 0.58203 0.78807 0.79724 0.0
H877 H 0.5694 0.77778 0.75697 0.0
N878 N 0.55096 0.80492 0.76558 0.0
N879 N 0.53538 0.81275 0.75246 0.0
C880 C 0.5381 0.81001 0.76522 0.0
C881 C 0.55658 0.80445 0.75254 0.0
C882 C 0.54706 0.80925 0.74447 0.0
C883 C 0.57936 0.82375 0.79428 0.0
O884 O 0.58242 0.83472 0.80389 0.0
H885 H 0.53072 0.81138 0.77414 0.0
H886 H 0.56693 0.80096 0.74908 0.0
O887 O 0.54108 0.78822 0.79102 0.0
H888 H 0.59099 0.76317 0.76038 0.0
H889 H 0.54874 0.81025 0.73357 0.0
Cu890 Cu 0.49482 0.75729 0.27145 0.0
N891 N 0.47871 0.75564 0.28452 0.0
N892 N 0.45947 0.76245 0.2973 0.0
C893 C 0.46962 0.76574 0.2868 0.0
C894 C 0.46231 0.74972 0.30178 0.0
C895 C 0.4742 0.74559 0.29393 0.0
O896 O 0.48694 0.75999 0.25419 0.0
C897 C 0.51421 0.77261 0.28957 0.0
O898 O 0.50789 0.76074 0.29602 0.0
H899 H 0.47056 0.77538 0.28087 0.0
H900 H 0.47946 0.73621 0.29532 0.0
N901 N 0.50443 0.74065 0.26933 0.0
N902 N 0.52252 0.72757 0.26288 0.0
C903 C 0.51835 0.74115 0.26371 0.0
C904 C 0.49957 0.72624 0.27223 0.0
C905 C 0.51068 0.71817 0.26829 0.0
C906 C 0.48155 0.74821 0.24681 0.0
O907 O 0.4824 0.73495 0.25066 0.0
H908 H 0.52525 0.75137 0.2603 0.0
H909 H 0.48858 0.72179 0.27651 0.0
O910 O 0.50983 0.77408 0.2779 0.0
H911 H 0.45656 0.74406 0.31042 0.0
H912 H 0.50989 0.70621 0.26899 0.0
Cu913 Cu 0.53848 0.258 0.25479 0.0
N914 N 0.52276 0.24155 0.25495 0.0
N915 N 0.49976 0.22925 0.25995 0.0
C916 C 0.50937 0.24248 0.26108 0.0
C917 C 0.50743 0.21948 0.25287 0.0
C918 C 0.52164 0.22715 0.24969 0.0
O919 O 0.5287 0.27557 0.25467 0.0
C920 C 0.55707 0.24504 0.26851 0.0
O921 O 0.55392 0.23545 0.25786 0.0
H922 H 0.50681 0.2527 0.26648 0.0
H923 H 0.53048 0.22253 0.24398 0.0
N924 N 0.55091 0.25735 0.23893 0.0
N925 N 0.5718 0.26252 0.22566 0.0
C926 C 0.56464 0.26568 0.23774 0.0
C927 C 0.5492 0.24854 0.22719 0.0
C928 C 0.56212 0.2517 0.21896 0.0
C929 C 0.52161 0.27539 0.24394 0.0
O930 O 0.52233 0.26444 0.23436 0.0
H931 H 0.56947 0.2735 0.24588 0.0
H932 H 0.53937 0.24027 0.22485 0.0
O933 O 0.55114 0.2568 0.26986 0.0
H934 H 0.50304 0.20772 0.25009 0.0
H935 H 0.56423 0.2464 0.20889 0.0
H936 H 0.2041 0.17409 0.1566 0.0
H937 H 0.2147 0.18718 0.13643 0.0
H938 H 0.20259 0.22829 0.15521 0.0
H939 H 0.19271 0.21555 0.17564 0.0
H940 H 0.20134 0.20038 0.11891 0.0
H941 H 0.24499 0.24351 0.14279 0.0
H942 H 0.23522 0.22751 0.15152 0.0
H943 H 0.22692 0.24385 0.15097 0.0
C944 C 0.20397 0.186 0.15658 0.0
C945 C 0.19756 0.19374 0.16783 0.0
C946 C 0.20993 0.19345 0.14497 0.0
C947 C 0.20967 0.20881 0.14433 0.0
C948 C 0.20326 0.21654 0.15552 0.0
H949 H 0.22963 0.27215 0.0813 0.0
H950 H 0.22037 0.25859 0.10159 0.0
C951 C 0.1974 0.20915 0.16716 0.0
C952 C 0.21552 0.21658 0.13177 0.0
H953 H 0.23928 0.24745 0.1203 0.0
C954 C 0.20973 0.21059 0.11921 0.0
C955 C 0.2265 0.22994 0.13211 0.0
C956 C 0.23388 0.2365 0.14505 0.0
C957 C 0.21435 0.21775 0.1071 0.0
C958 C 0.22508 0.23122 0.10753 0.0
C959 C 0.23096 0.23718 0.12003 0.0
C960 C 0.23043 0.23925 0.09507 0.0
C961 C 0.2075 0.21104 0.09397 0.0
C962 C 0.2392 0.23291 0.08469 0.0
C963 C 0.24454 0.24065 0.07311 0.0
C964 C 0.24116 0.25488 0.07163 0.0
C965 C 0.23228 0.26115 0.08202 0.0
C966 C 0.22706 0.25346 0.09367 0.0
H967 H 0.19749 0.2022 0.09577 0.0
H968 H 0.20437 0.21994 0.08838 0.0
H969 H 0.21576 0.20585 0.08732 0.0
H970 H 0.24205 0.22201 0.08562 0.0
H971 H 0.25125 0.23544 0.06527 0.0
H972 H 0.80866 0.20501 0.12021 0.0
H973 H 0.80364 0.21448 0.09883 0.0
H974 H 0.85062 0.22998 0.09052 0.0
H975 H 0.85571 0.22051 0.1118 0.0
H976 H 0.81142 0.24451 0.09104 0.0
H977 H 0.83732 0.20505 0.05498 0.0
H978 H 0.83244 0.20162 0.07269 0.0
H979 H 0.84917 0.2145 0.06802 0.0
C980 C 0.81791 0.2104 0.11378 0.0
C981 C 0.83256 0.212 0.11765 0.0
C982 C 0.81503 0.21579 0.10159 0.0
C983 C 0.82677 0.22273 0.093 0.0
C984 C 0.84141 0.2244 0.09688 0.0
H985 H 0.8435 0.27327 0.02355 0.0
H986 H 0.84333 0.25743 0.04228 0.0
C987 C 0.8443 0.21907 0.10909 0.0
C988 C 0.82374 0.22873 0.0802 0.0
H989 H 0.83186 0.22666 0.04573 0.0
C990 C 0.81568 0.24048 0.0811 0.0
C991 C 0.82928 0.2234 0.06725 0.0
C992 C 0.83742 0.21035 0.06561 0.0
C993 C 0.81367 0.24756 0.06946 0.0
C994 C 0.81963 0.24254 0.05656 0.0
C995 C 0.82726 0.23045 0.05561 0.0
C996 C 0.81942 0.25068 0.0442 0.0
C997 C 0.80585 0.26085 0.07115 0.0
C998 C 0.80603 0.2517 0.03869 0.0
C999 C 0.80608 0.26074 0.02787 0.0
C1000 C 0.81954 0.26891 0.02245 0.0
C1001 C 0.83294 0.26718 0.02753 0.0
C1002 C 0.83287 0.25813 0.03825 0.0
H1003 H 0.80417 0.26489 0.08206 0.0
H1004 H 0.81229 0.27035 0.06556 0.0
H1005 H 0.7948 0.25754 0.06683 0.0
H1006 H 0.79553 0.24583 0.043 0.0
H1007 H 0.79558 0.2619 0.0242 0.0
H1008 H 0.84718 0.8734 0.15879 0.0
H1009 H 0.83691 0.86179 0.13733 0.0
H1010 H 0.83964 0.81789 0.1492 0.0
H1011 H 0.84922 0.82929 0.17091 0.0
H1012 H 0.84884 0.84527 0.11654 0.0
H1013 H 0.79747 0.8103 0.13817 0.0
H1014 H 0.80894 0.82493 0.14834 0.0
H1015 H 0.81412 0.80679 0.14455 0.0
C1016 C 0.84536 0.86125 0.15698 0.0
C1017 C 0.84902 0.85234 0.16672 0.0
C1018 C 0.83959 0.85461 0.1446 0.0
C1019 C 0.83726 0.8389 0.14164 0.0
C1020 C 0.841 0.82999 0.15129 0.0
H1021 H 0.80108 0.7825 0.0692 0.0
H1022 H 0.81476 0.79109 0.08993 0.0
C1023 C 0.8467 0.83659 0.16368 0.0
C1024 C 0.83126 0.83192 0.12835 0.0
H1025 H 0.8028 0.80639 0.11433 0.0
C1026 C 0.83877 0.83677 0.11609 0.0
C1027 C 0.81814 0.82073 0.12767 0.0
C1028 C 0.80911 0.81546 0.14037 0.0
C1029 C 0.83354 0.83084 0.10327 0.0
C1030 C 0.82034 0.81983 0.10261 0.0
C1031 C 0.81299 0.81472 0.11482 0.0
C1032 C 0.81324 0.81455 0.08945 0.0
C1033 C 0.8422 0.83643 0.09051 0.0
C1034 C 0.80792 0.82484 0.08223 0.0
C1035 C 0.8001 0.81996 0.07053 0.0
C1036 C 0.79741 0.80466 0.06564 0.0
C1037 C 0.80313 0.79437 0.07259 0.0
C1038 C 0.81085 0.79927 0.08448 0.0
H1039 H 0.85394 0.84141 0.09249 0.0
H1040 H 0.84201 0.82717 0.08229 0.0
H1041 H 0.83708 0.84531 0.0868 0.0
H1042 H 0.80939 0.83662 0.08593 0.0
H1043 H 0.79583 0.8282 0.06547 0.0
H1044 H 0.24726 0.81772 0.18305 0.0
H1045 H 0.24832 0.82295 0.15914 0.0
H1046 H 0.2411 0.7753 0.14716 0.0
H1047 H 0.23984 0.76992 0.17123 0.0
H1048 H 0.26543 0.79237 0.13307 0.0
H1049 H 0.21475 0.8171 0.13263 0.0
H1050 H 0.22693 0.82535 0.14584 0.0
H1051 H 0.21778 0.80598 0.14608 0.0
C1052 C 0.24545 0.8083 0.17543 0.0
C1053 C 0.2431 0.79334 0.17906 0.0
C1054 C 0.24613 0.81134 0.16172 0.0
C1055 C 0.24454 0.79952 0.1514 0.0
C1056 C 0.24223 0.78458 0.15499 0.0
H1057 H 0.2374 0.80085 0.06449 0.0
H1058 H 0.23317 0.79688 0.08885 0.0
C1059 C 0.2415 0.78153 0.16871 0.0
C1060 C 0.24619 0.80278 0.13685 0.0
H1061 H 0.23145 0.81953 0.11289 0.0
C1062 C 0.25798 0.79827 0.12864 0.0
C1063 C 0.23638 0.81037 0.1311 0.0
C1064 C 0.22316 0.81488 0.13931 0.0
C1065 C 0.26038 0.80139 0.11487 0.0
C1066 C 0.25082 0.80935 0.10924 0.0
C1067 C 0.23887 0.81363 0.11735 0.0
C1068 C 0.25279 0.81278 0.09476 0.0
C1069 C 0.27298 0.79599 0.10636 0.0
C1070 C 0.26502 0.82333 0.09013 0.0
C1071 C 0.26743 0.82566 0.07622 0.0
C1072 C 0.25769 0.81738 0.06676 0.0
C1073 C 0.24517 0.80724 0.07154 0.0
C1074 C 0.24271 0.80501 0.08543 0.0
H1075 H 0.27777 0.78787 0.1116 0.0
H1076 H 0.26912 0.79051 0.09639 0.0
H1077 H 0.28191 0.80579 0.10426 0.0
H1078 H 0.27286 0.8295 0.09724 0.0
H1079 H 0.27722 0.83345 0.07282 0.0
H1080 H 0.17557 0.82437 0.89339 0.0
H1081 H 0.18061 0.81454 0.91456 0.0
H1082 H 0.22663 0.83613 0.90958 0.0
H1083 H 0.22172 0.84566 0.88828 0.0
H1084 H 0.22353 0.80745 0.91725 0.0
H1085 H 0.18682 0.83926 0.95082 0.0
H1086 H 0.17787 0.82701 0.93732 0.0
H1087 H 0.1918 0.84308 0.93324 0.0
C1088 C 0.18676 0.827 0.8968 0.0
C1089 C 0.19827 0.83588 0.88924 0.0
C1090 C 0.1896 0.82143 0.90894 0.0
C1091 C 0.20395 0.82479 0.91379 0.0
C1092 C 0.21547 0.83341 0.90607 0.0
H1093 H 0.2403 0.83287 0.99042 0.0
H1094 H 0.22779 0.83454 0.96991 0.0
C1095 C 0.21265 0.83889 0.89393 0.0
C1096 C 0.2071 0.81959 0.92695 0.0
H1097 H 0.19973 0.82399 0.96147 0.0
C1098 C 0.21822 0.81092 0.92692 0.0
C1099 C 0.2002 0.8242 0.93956 0.0
C1100 C 0.1886 0.834 0.94033 0.0
C1101 C 0.22301 0.8072 0.93916 0.0
C1102 C 0.21627 0.81201 0.95178 0.0
C1103 C 0.20477 0.8202 0.95178 0.0
C1104 C 0.22231 0.81045 0.96503 0.0
C1105 C 0.2358 0.79889 0.93847 0.0
C1106 C 0.22298 0.79629 0.96943 0.0
C1107 C 0.23024 0.79528 0.98123 0.0
C1108 C 0.23689 0.80843 0.98882 0.0
C1109 C 0.23542 0.82251 0.98478 0.0
C1110 C 0.22822 0.8235 0.97304 0.0
H1111 H 0.24151 0.79848 0.92811 0.0
H1112 H 0.24408 0.80429 0.94591 0.0
H1113 H 0.23157 0.78712 0.94111 0.0
H1114 H 0.21823 0.78604 0.96355 0.0
H1115 H 0.23115 0.78426 0.98409 0.0
H1116 H 0.23014 0.17464 0.89798 0.0
H1117 H 0.23954 0.18473 0.92019 0.0
H1118 H 0.23382 0.22905 0.91211 0.0
H1119 H 0.2248 0.21921 0.88973 0.0
H1120 H 0.2645 0.20908 0.92683 0.0
H1121 H 0.21036 0.22095 0.94941 0.0
H1122 H 0.2119 0.20848 0.9342 0.0
H1123 H 0.21612 0.22856 0.93322 0.0
C1124 C 0.23102 0.18658 0.9008 0.0
C1125 C 0.22662 0.19606 0.89194 0.0
C1126 C 0.23636 0.19232 0.91358 0.0
C1127 C 0.23727 0.20763 0.91792 0.0
C1128 C 0.23301 0.21715 0.9091 0.0
H1129 H 0.2591 0.26977 0.98685 0.0
H1130 H 0.25272 0.25588 0.9652 0.0
C1131 C 0.22777 0.21146 0.89629 0.0
C1132 C 0.24251 0.21368 0.93168 0.0
H1133 H 0.23151 0.23107 0.96194 0.0
C1134 C 0.25728 0.21379 0.93457 0.0
C1135 C 0.23307 0.21971 0.94184 0.0
C1136 C 0.21694 0.21933 0.93962 0.0
C1137 C 0.26302 0.2204 0.94707 0.0
C1138 C 0.25366 0.22683 0.95708 0.0
C1139 C 0.23876 0.22623 0.95431 0.0
C1140 C 0.25917 0.23536 0.97001 0.0
C1141 C 0.2792 0.22104 0.94921 0.0
C1142 C 0.26536 0.22866 0.98 0.0
C1143 C 0.26922 0.23676 0.99256 0.0
C1144 C 0.26672 0.25158 0.99536 0.0
C1145 C 0.261 0.25831 0.98514 0.0
C1146 C 0.25733 0.25035 0.97269 0.0
H1147 H 0.28559 0.21855 0.93951 0.0
H1148 H 0.28433 0.23231 0.95379 0.0
H1149 H 0.28015 0.21254 0.95635 0.0
H1150 H 0.26672 0.21703 0.97832 0.0
H1151 H 0.27351 0.23124 1.00024 0.0
H1152 H 0.84249 0.25799 0.84371 0.0
H1153 H 0.84193 0.26596 0.8679 0.0
H1154 H 0.85708 0.31221 0.85865 0.0
H1155 H 0.8588 0.3041 0.83422 0.0
H1156 H 0.8704 0.30642 0.88007 0.0
H1157 H 0.81005 0.28511 0.88767 0.0
H1158 H 0.81954 0.27029 0.88093 0.0
H1159 H 0.81946 0.28595 0.87093 0.0
C1160 C 0.84618 0.2698 0.84673 0.0
C1161 C 0.8511 0.28039 0.83701 0.0
C1162 C 0.84551 0.27439 0.86063 0.0
C1163 C 0.84918 0.28971 0.8651 0.0
C1164 C 0.85416 0.30032 0.85544 0.0
H1165 H 0.82102 0.31724 0.94835 0.0
H1166 H 0.82498 0.31503 0.92345 0.0
C1167 C 0.85508 0.29569 0.8415 0.0
C1168 C 0.84769 0.29459 0.87985 0.0
H1169 H 0.82351 0.29088 0.90791 0.0
C1170 C 0.8601 0.30318 0.88616 0.0
C1171 C 0.83417 0.29066 0.88772 0.0
C1172 C 0.82002 0.28265 0.88142 0.0
C1173 C 0.85949 0.30751 0.90022 0.0
C1174 C 0.84625 0.30267 0.90825 0.0
C1175 C 0.83373 0.29446 0.90183 0.0
C1176 C 0.84501 0.30574 0.92333 0.0
C1177 C 0.87297 0.3174 0.90623 0.0
C1178 C 0.85506 0.3015 0.9316 0.0
C1179 C 0.85296 0.3031 0.94584 0.0
C1180 C 0.84055 0.30853 0.952 0.0
C1181 C 0.83062 0.31294 0.94377 0.0
C1182 C 0.83289 0.31169 0.92958 0.0
H1183 H 0.8798 0.32428 0.89843 0.0
H1184 H 0.8698 0.32511 0.9149 0.0
H1185 H 0.88003 0.31019 0.90998 0.0
H1186 H 0.86421 0.29644 0.92708 0.0
H1187 H 0.86062 0.29944 0.95203 0.0
H1188 H 0.8383 0.87579 0.89774 0.0
H1189 H 0.82638 0.86851 0.91986 0.0
H1190 H 0.82449 0.82167 0.90632 0.0
H1191 H 0.83616 0.82879 0.88412 0.0
H1192 H 0.79841 0.84961 0.92577 0.0
H1193 H 0.84506 0.82642 0.94261 0.0
H1194 H 0.84725 0.83839 0.92863 0.0
H1195 H 0.83888 0.8188 0.92611 0.0
C1196 C 0.83525 0.86393 0.8994 0.0
C1197 C 0.8383 0.8529 0.88911 0.0
C1198 C 0.8285 0.85979 0.91209 0.0
C1199 C 0.82474 0.84456 0.91483 0.0
C1200 C 0.82758 0.83351 0.90456 0.0
H1201 H 0.78515 0.79493 0.98392 0.0
H1202 H 0.79636 0.80313 0.96191 0.0
C1203 C 0.8343 0.83762 0.89186 0.0
C1204 C 0.81767 0.84019 0.92836 0.0
H1205 H 0.82247 0.82229 0.95628 0.0
C1206 C 0.80369 0.84371 0.93249 0.0
C1207 C 0.82456 0.83247 0.93711 0.0
C1208 C 0.83982 0.82889 0.93349 0.0
C1209 C 0.79626 0.83939 0.94496 0.0
C1210 C 0.80314 0.83163 0.9537 0.0
C1211 C 0.81717 0.82821 0.94959 0.0
C1212 C 0.79594 0.82675 0.96706 0.0
C1213 C 0.78092 0.8428 0.94845 0.0
C1214 C 0.79201 0.83729 0.97739 0.0
C1215 C 0.78557 0.83262 0.99003 0.0
C1216 C 0.7831 0.81732 0.9927 0.0
C1217 C 0.78707 0.80682 0.98233 0.0
C1218 C 0.79343 0.81148 0.96969 0.0
H1219 H 0.77565 0.84497 0.93924 0.0
H1220 H 0.77358 0.83337 0.95346 0.0
H1221 H 0.78174 0.85306 0.95562 0.0
H1222 H 0.79414 0.84918 0.97575 0.0
H1223 H 0.78284 0.84102 0.99783 0.0
H1224 H 0.16362 0.20956 0.2044 0.0
H1225 H 0.14072 0.2158 0.21583 0.0
H1226 H 0.12258 0.16848 0.21812 0.0
H1227 H 0.14549 0.16217 0.20681 0.0
H1228 H 0.11233 0.20875 0.20823 0.0
H1229 H 0.11572 0.18444 0.25726 0.0
H1230 H 0.13116 0.18724 0.24468 0.0
H1231 H 0.11637 0.17114 0.24267 0.0
C1232 C 0.15474 0.20047 0.20731 0.0
C1233 C 0.15643 0.18536 0.20475 0.0
C1234 C 0.14167 0.20406 0.21389 0.0
C1235 C 0.13 0.19263 0.21808 0.0
C1236 C 0.13156 0.17752 0.21534 0.0
H1237 H 0.04047 0.19187 0.25448 0.0
H1238 H 0.06348 0.18535 0.24369 0.0
C1239 C 0.14466 0.17393 0.20883 0.0
C1240 C 0.11608 0.19654 0.22497 0.0
H1241 H 0.09303 0.19212 0.2539 0.0
C1242 C 0.10816 0.20518 0.21825 0.0
C1243 C 0.11062 0.19189 0.23806 0.0
C1244 C 0.11897 0.18329 0.24616 0.0
C1245 C 0.09485 0.20907 0.22413 0.0
C1246 C 0.08936 0.20434 0.23716 0.0
C1247 C 0.09724 0.19569 0.24389 0.0
C1248 C 0.0755 0.20835 0.24399 0.0
C1249 C 0.08661 0.218 0.21626 0.0
C1250 C 0.07468 0.22343 0.24797 0.0
C1251 C 0.06157 0.22721 0.25427 0.0
C1252 C 0.04894 0.21598 0.25673 0.0
C1253 C 0.04992 0.20084 0.25289 0.0
C1254 C 0.06307 0.19707 0.24665 0.0
H1255 H 0.09044 0.21784 0.20527 0.0
H1256 H 0.07447 0.21352 0.21711 0.0
H1257 H 0.08853 0.2299 0.22058 0.0
H1258 H 0.08423 0.23229 0.24627 0.0
H1259 H 0.06143 0.23895 0.2573 0.0
H1260 H 0.83651 0.15772 0.15006 0.0
H1261 H 0.82258 0.1348 0.15976 0.0
H1262 H 0.82898 0.15608 0.20038 0.0
H1263 H 0.84256 0.1791 0.19079 0.0
H1264 H 0.8333 0.11726 0.1774 0.0
H1265 H 0.78428 0.13893 0.20159 0.0
H1266 H 0.79673 0.14868 0.18881 0.0
H1267 H 0.80174 0.1502 0.20624 0.0
C1268 C 0.83471 0.1576 0.16105 0.0
C1269 C 0.84062 0.17023 0.16966 0.0
C1270 C 0.82684 0.14448 0.16657 0.0
C1271 C 0.82459 0.14381 0.18078 0.0
C1272 C 0.83035 0.15644 0.18939 0.0
H1273 H 0.789 0.0778 0.23802 0.0
H1274 H 0.80018 0.10012 0.22617 0.0
C1275 C 0.83825 0.16953 0.18389 0.0
C1276 C 0.81689 0.12967 0.18667 0.0
H1277 H 0.78761 0.11518 0.20806 0.0
C1278 C 0.82322 0.11673 0.18399 0.0
C1279 C 0.80377 0.12905 0.19528 0.0
C1280 C 0.79613 0.14241 0.19807 0.0
C1281 C 0.81706 0.10331 0.19006 0.0
C1282 C 0.80406 0.10276 0.19885 0.0
C1283 C 0.79759 0.11564 0.20134 0.0
C1284 C 0.79724 0.08908 0.20589 0.0
C1285 C 0.82482 0.09002 0.18741 0.0
C1286 C 0.79172 0.07547 0.19843 0.0
C1287 C 0.78543 0.06261 0.20518 0.0
C1288 C 0.78447 0.06312 0.21955 0.0
C1289 C 0.78982 0.07687 0.22697 0.0
C1290 C 0.7961 0.0897 0.22021 0.0
H1291 H 0.83643 0.0934 0.18318 0.0
H1292 H 0.82497 0.08439 0.19692 0.0
H1293 H 0.81875 0.0817 0.17987 0.0
H1294 H 0.79224 0.0748 0.18737 0.0
H1295 H 0.78149 0.05223 0.19914 0.0
H1296 H 0.90845 0.86137 0.23678 0.0
H1297 H 0.92698 0.84721 0.24265 0.0
H1298 H 0.91896 0.81771 0.20605 0.0
H1299 H 0.90063 0.83194 0.20005 0.0
H1300 H 0.92423 0.81749 0.24762 0.0
H1301 H 0.96383 0.82974 0.20289 0.0
H1302 H 0.94883 0.83984 0.20735 0.0
H1303 H 0.94531 0.82144 0.19838 0.0
C1304 C 0.9107 0.8519 0.22995 0.0
C1305 C 0.9031 0.84788 0.21791 0.0
C1306 C 0.92129 0.84379 0.23333 0.0
C1307 C 0.92463 0.83149 0.22471 0.0
C1308 C 0.9169 0.82734 0.21274 0.0
H1309 H 0.98377 0.76728 0.22751 0.0
H1310 H 0.96529 0.78146 0.22187 0.0
C1311 C 0.90632 0.83546 0.20935 0.0
C1312 C 0.93593 0.82286 0.22838 0.0
H1313 H 0.96837 0.81134 0.21687 0.0
C1314 C 0.93392 0.81623 0.24092 0.0
C1315 C 0.94862 0.82113 0.21967 0.0
C1316 C 0.95189 0.82852 0.20638 0.0
C1317 C 0.94401 0.80772 0.24483 0.0
C1318 C 0.95668 0.80597 0.23611 0.0
C1319 C 0.95869 0.81261 0.22358 0.0
C1320 C 0.96793 0.79726 0.23974 0.0
C1321 C 0.94076 0.80035 0.25814 0.0
C1322 C 0.9758 0.80142 0.25161 0.0
C1323 C 0.98638 0.79325 0.25492 0.0
C1324 C 0.98945 0.78071 0.24641 0.0
C1325 C 0.98163 0.77668 0.23445 0.0
C1326 C 0.97108 0.78487 0.23114 0.0
H1327 H 0.92886 0.79926 0.26172 0.0
H1328 H 0.94372 0.78898 0.25714 0.0
H1329 H 0.94747 0.80738 0.26609 0.0
H1330 H 0.97385 0.81109 0.2583 0.0
H1331 H 0.99202 0.79671 0.26424 0.0
H1332 H 0.23921 0.84245 0.23862 0.0
H1333 H 0.24185 0.86703 0.25181 0.0
H1334 H 0.2215 0.88462 0.22037 0.0
H1335 H 0.21901 0.8602 0.20709 0.0
H1336 H 0.24721 0.90435 0.23134 0.0
H1337 H 0.20439 0.88173 0.27113 0.0
H1338 H 0.21957 0.87184 0.2673 0.0
H1339 H 0.20665 0.87187 0.25456 0.0
C1340 C 0.2356 0.85167 0.23441 0.0
C1341 C 0.22883 0.84944 0.22189 0.0
C1342 C 0.23697 0.86562 0.242 0.0
C1343 C 0.23163 0.8775 0.23714 0.0
C1344 C 0.22559 0.87552 0.22432 0.0
H1345 H 0.20676 0.95912 0.27556 0.0
H1346 H 0.20731 0.93388 0.2644 0.0
C1347 C 0.22415 0.8616 0.21678 0.0
C1348 C 0.23173 0.89184 0.24556 0.0
H1349 H 0.21548 0.90744 0.27428 0.0
C1350 C 0.24037 0.90505 0.24078 0.0
C1351 C 0.22258 0.89265 0.25773 0.0
C1352 C 0.21266 0.87881 0.26299 0.0
C1353 C 0.24013 0.91912 0.24789 0.0
C1354 C 0.2311 0.91992 0.26015 0.0
C1355 C 0.22244 0.90672 0.26492 0.0
C1356 C 0.23035 0.93448 0.26796 0.0
C1357 C 0.24924 0.93307 0.24208 0.0
C1358 C 0.24297 0.94285 0.27402 0.0
C1359 C 0.24266 0.95717 0.28039 0.0
C1360 C 0.22971 0.96336 0.28085 0.0
C1361 C 0.21685 0.95462 0.27538 0.0
C1362 C 0.21718 0.94026 0.26897 0.0
H1363 H 0.25301 0.93088 0.23121 0.0
H1364 H 0.24277 0.9423 0.24284 0.0
H1365 H 0.25923 0.93702 0.24801 0.0
H1366 H 0.25314 0.93842 0.2736 0.0
H1367 H 0.25264 0.96347 0.28483 0.0
H1368 H 0.13856 0.86617 0.83778 0.0
H1369 H 0.11527 0.85686 0.82679 0.0
H1370 H 0.1211 0.81111 0.82891 0.0
H1371 H 0.14479 0.82035 0.83936 0.0
H1372 H 0.11333 0.81622 0.80369 0.0
H1373 H 0.0756 0.83759 0.84431 0.0
H1374 H 0.09034 0.85185 0.83809 0.0
H1375 H 0.09465 0.83695 0.84699 0.0
C1376 C 0.13493 0.85412 0.83587 0.0
C1377 C 0.14358 0.84401 0.83944 0.0
C1378 C 0.12151 0.84882 0.82972 0.0
C1379 C 0.11634 0.83329 0.82719 0.0
C1380 C 0.12486 0.82315 0.83083 0.0
H1381 H 0.03083 0.78267 0.80977 0.0
H1382 H 0.05339 0.79686 0.81947 0.0
C1383 C 0.13833 0.82844 0.83692 0.0
C1384 C 0.10227 0.82759 0.82038 0.0
H1385 H 0.06489 0.8269 0.82371 0.0
C1386 C 0.10273 0.81858 0.80804 0.0
C1387 C 0.08846 0.83063 0.82612 0.0
C1388 C 0.08715 0.83966 0.83966 0.0
C1389 C 0.08973 0.81235 0.80136 0.0
C1390 C 0.07593 0.8155 0.80703 0.0
C1391 C 0.07551 0.82467 0.81929 0.0
C1392 C 0.06168 0.80811 0.8012 0.0
C1393 C 0.09083 0.80198 0.78858 0.0
C1394 C 0.05859 0.81006 0.7878 0.0
C1395 C 0.04563 0.80185 0.78215 0.0
C1396 C 0.03557 0.79164 0.78986 0.0
C1397 C 0.03838 0.79034 0.80349 0.0
C1398 C 0.05128 0.79848 0.80909 0.0
H1399 H 0.10171 0.79825 0.78721 0.0
H1400 H 0.08185 0.79185 0.78882 0.0
H1401 H 0.08961 0.80801 0.77955 0.0
H1402 H 0.06633 0.81768 0.78163 0.0
H1403 H 0.04374 0.80314 0.77164 0.0
H1404 H 0.20848 0.14796 0.84177 0.0
H1405 H 0.21984 0.12816 0.82901 0.0
H1406 H 0.26286 0.15044 0.84199 0.0
H1407 H 0.25167 0.17036 0.85459 0.0
H1408 H 0.24176 0.12996 0.80781 0.0
H1409 H 0.26068 0.10739 0.8524 0.0
H1410 H 0.24744 0.11987 0.8541 0.0
H1411 H 0.26696 0.12732 0.85151 0.0
C1412 C 0.22038 0.14874 0.84185 0.0
C1413 C 0.22909 0.16078 0.84935 0.0
C1414 C 0.22686 0.13733 0.83459 0.0
C1415 C 0.24219 0.1376 0.83473 0.0
C1416 C 0.25096 0.14972 0.842 0.0
H1417 H 0.29657 0.08976 0.77704 0.0
H1418 H 0.28529 0.10833 0.79156 0.0
C1419 C 0.24451 0.16114 0.84922 0.0
C1420 C 0.24908 0.12545 0.82698 0.0
H1421 H 0.26977 0.09856 0.83044 0.0
C1422 C 0.24783 0.12307 0.81279 0.0
C1423 C 0.25686 0.11627 0.83344 0.0
C1424 C 0.25798 0.1177 0.84872 0.0
C1425 C 0.25443 0.11209 0.80488 0.0
C1426 C 0.26269 0.1033 0.81126 0.0
C1427 C 0.26361 0.10539 0.8255 0.0
C1428 C 0.27045 0.09196 0.80326 0.0
C1429 C 0.25235 0.10988 0.78973 0.0
C1430 C 0.26639 0.07654 0.80536 0.0
C1431 C 0.27292 0.06581 0.79708 0.0
C1432 C 0.28372 0.07029 0.78656 0.0
C1433 C 0.28825 0.08582 0.78496 0.0
C1434 C 0.28172 0.0965 0.79321 0.0
H1435 H 0.24276 0.11458 0.78703 0.0
H1436 H 0.26247 0.11577 0.78418 0.0
H1437 H 0.25063 0.09774 0.78613 0.0
H1438 H 0.2578 0.07274 0.81312 0.0
H1439 H 0.26911 0.05398 0.79862 0.0
H1440 H 0.90283 0.23207 0.82042 0.0
H1441 H 0.9289 0.2409 0.82484 0.0
H1442 H 0.91683 0.27461 0.85522 0.0
H1443 H 0.89063 0.26625 0.85013 0.0
H1444 H 0.93859 0.28719 0.84084 0.0
H1445 H 0.95435 0.23501 0.85315 0.0
H1446 H 0.94605 0.23109 0.83708 0.0
H1447 H 0.93514 0.23635 0.85218 0.0
C1448 C 0.90574 0.24118 0.82821 0.0
C1449 C 0.89478 0.24842 0.83501 0.0
C1450 C 0.92065 0.24615 0.83085 0.0
C1451 C 0.9249 0.25817 0.84068 0.0
C1452 C 0.91386 0.26523 0.84769 0.0
H1453 H 0.02197 0.27259 0.83701 0.0
H1454 H 0.99724 0.26976 0.84886 0.0
C1455 C 0.89892 0.26047 0.84481 0.0
C1456 C 0.94096 0.2642 0.84241 0.0
H1457 H 0.97418 0.25263 0.84133 0.0
C1458 C 0.94634 0.27967 0.84132 0.0
C1459 C 0.95121 0.25466 0.84363 0.0
C1460 C 0.94631 0.2384 0.84676 0.0
C1461 C 0.96164 0.2855 0.84001 0.0
C1462 C 0.97181 0.27549 0.83907 0.0
C1463 C 0.96647 0.26034 0.84162 0.0
C1464 C 0.98747 0.27988 0.83359 0.0
C1465 C 0.96665 0.30228 0.83932 0.0
C1466 C 0.99041 0.28687 0.82127 0.0
C1467 C 1.00455 0.28881 0.81469 0.0
C1468 C 0.01605 0.28335 0.82003 0.0
C1469 C 0.01334 0.27689 0.83264 0.0
C1470 C 0.99919 0.27524 0.8394 0.0
H1471 H 0.95937 0.30848 0.84626 0.0
H1472 H 0.97831 0.30614 0.84217 0.0
H1473 H 0.96568 0.30528 0.8288 0.0
H1474 H 0.98156 0.29005 0.81623 0.0
H1475 H 1.00615 0.29371 0.80494 0.0
H1476 H 0.83491 0.91129 0.85212 0.0
H1477 H 0.82766 0.93337 0.84396 0.0
H1478 H 0.84256 0.92011 0.80286 0.0
H1479 H 0.84976 0.89792 0.81096 0.0
H1480 H 0.84577 0.95717 0.82975 0.0
H1481 H 0.79967 0.92595 0.79892 0.0
H1482 H 0.80753 0.91728 0.81167 0.0
H1483 H 0.81738 0.92033 0.7954 0.0
C1484 C 0.83661 0.91303 0.84134 0.0
C1485 C 0.84283 0.9028 0.83215 0.0
C1486 C 0.83249 0.92568 0.83669 0.0
C1487 C 0.83439 0.92831 0.82277 0.0
C1488 C 0.84075 0.91819 0.8136 0.0
H1489 H 0.8024 0.99947 0.78409 0.0
H1490 H 0.81621 0.97933 0.78693 0.0
C1491 C 0.84491 0.90556 0.81825 0.0
C1492 C 0.82983 0.94172 0.81795 0.0
H1493 H 0.80453 0.9524 0.79906 0.0
C1494 C 0.83682 0.95613 0.82296 0.0
C1495 C 0.81827 0.94037 0.80896 0.0
C1496 C 0.81017 0.92517 0.80346 0.0
C1497 C 0.83236 0.96919 0.81949 0.0
C1498 C 0.82035 0.96783 0.81099 0.0
C1499 C 0.81375 0.95346 0.80554 0.0
C1500 C 0.81337 0.98093 0.80902 0.0
C1501 C 0.84047 0.98435 0.82506 0.0
C1502 C 0.80726 0.98854 0.82043 0.0
C1503 C 0.79944 0.99992 0.81883 0.0
C1504 C 0.79743 1.004 0.80576 0.0
C1505 C 0.80389 0.9967 0.79429 0.0
C1506 C 0.8117 0.98515 0.79591 0.0
H1507 H 0.85207 0.9839 0.82717 0.0
H1508 H 0.84072 0.99314 0.81786 0.0
H1509 H 0.83472 0.98773 0.83485 0.0
H1510 H 0.80809 0.98531 0.83062 0.0
H1511 H 0.7946 1.00527 0.8279 0.0
H1512 H 0.19358 0.13059 0.21418 0.0
H1513 H 0.20163 0.11039 0.22477 0.0
H1514 H 0.24669 0.12591 0.20937 0.0
H1515 H 0.2387 0.14624 0.19875 0.0
H1516 H 0.21672 0.08715 0.21161 0.0
H1517 H 0.24995 0.12377 0.25103 0.0
H1518 H 0.2363 0.13029 0.24207 0.0
H1519 H 0.25397 0.12853 0.23363 0.0
C1520 C 0.20521 0.12975 0.21306 0.0
C1521 C 0.21555 0.14008 0.20569 0.0
C1522 C 0.20979 0.11817 0.2191 0.0
C1523 C 0.22479 0.11673 0.218 0.0
C1524 C 0.2351 0.12693 0.21053 0.0
H1525 H 0.26435 0.05327 0.26001 0.0
H1526 H 0.26181 0.07229 0.24448 0.0
C1527 C 0.23052 0.13849 0.20442 0.0
C1528 C 0.22949 0.10445 0.2246 0.0
H1529 H 0.24889 0.09763 0.25086 0.0
C1530 C 0.22384 0.08944 0.22013 0.0
C1531 C 0.23892 0.10744 0.23562 0.0
C1532 C 0.2451 0.12336 0.24099 0.0
C1533 C 0.2271 0.07735 0.22654 0.0
C1534 C 0.23598 0.08033 0.23796 0.0
C1535 C 0.2421 0.09534 0.24211 0.0
C1536 C 0.23777 0.06816 0.24653 0.0
C1537 C 0.22093 0.06148 0.22104 0.0
C1538 C 0.22516 0.05955 0.25285 0.0
C1539 C 0.22658 0.04876 0.26164 0.0
C1540 C 0.24066 0.04632 0.26445 0.0
C1541 C 0.25334 0.05477 0.25797 0.0
C1542 C 0.2519 0.06568 0.24915 0.0
H1543 H 0.21895 0.061 0.21001 0.0
H1544 H 0.22854 0.05368 0.22244 0.0
H1545 H 0.21011 0.05744 0.22658 0.0
H1546 H 0.21417 0.06146 0.25127 0.0
H1547 H 0.21655 0.04253 0.26646 0.0
H1548 H 0.21107 0.87163 0.8366 0.0
H1549 H 0.2261 0.89327 0.82557 0.0
H1550 H 0.18874 0.91602 0.83046 0.0
H1551 H 0.17372 0.89451 0.84143 0.0
H1552 H 0.21739 0.90497 0.80086 0.0
H1553 H 0.22495 0.94764 0.84518 0.0
H1554 H 0.22061 0.9276 0.84705 0.0
H1555 H 0.20627 0.93738 0.84354 0.0
C1556 C 0.20617 0.88136 0.8355 0.0
C1557 C 0.19124 0.88141 0.83983 0.0
C1558 C 0.21472 0.89366 0.82916 0.0
C1559 C 0.20853 0.90625 0.82731 0.0
C1560 C 0.19375 0.90646 0.83194 0.0
H1561 H 0.22492 0.97667 0.77305 0.0
H1562 H 0.21597 0.95423 0.78559 0.0
C1563 C 0.18518 0.89415 0.83812 0.0
C1564 C 0.21709 0.91885 0.81978 0.0
H1565 H 0.23037 0.95677 0.82304 0.0
C1566 C 0.22041 0.91626 0.80572 0.0
C1567 C 0.22107 0.93353 0.82619 0.0
C1568 C 0.21818 0.93676 0.84135 0.0
C1569 C 0.22707 0.92814 0.79777 0.0
C1570 C 0.23041 0.94294 0.80407 0.0
C1571 C 0.22768 0.94541 0.81824 0.0
C1572 C 0.23615 0.9561 0.79605 0.0
C1573 C 0.23031 0.92484 0.78267 0.0
C1574 C 0.25042 0.96461 0.79787 0.0
C1575 C 0.25556 0.97742 0.7907 0.0
C1576 C 0.24643 0.98205 0.78174 0.0
C1577 C 0.23216 0.97344 0.77994 0.0
C1578 C 0.22708 0.96056 0.787 0.0
H1579 H 0.23027 0.91267 0.77999 0.0
H1580 H 0.22167 0.92817 0.77697 0.0
H1581 H 0.24126 0.93143 0.77926 0.0
H1582 H 0.25753 0.96139 0.8049 0.0
H1583 H 0.26652 0.98392 0.79247 0.0
H1584 H 0.17639 0.21738 0.85266 0.0
H1585 H 0.15669 0.2287 0.8446 0.0
H1586 H 0.1443 0.18942 0.81688 0.0
H1587 H 0.16382 0.17809 0.82491 0.0
H1588 H 0.15195 0.23553 0.81781 0.0
H1589 H 0.10469 0.19367 0.83754 0.0
H1590 H 0.12326 0.19559 0.84311 0.0
H1591 H 0.11835 0.1854 0.82708 0.0
C1592 C 0.16943 0.21114 0.84488 0.0
C1593 C 0.17162 0.19676 0.83949 0.0
C1594 C 0.15818 0.21764 0.84026 0.0
C1595 C 0.14879 0.20984 0.83027 0.0
C1596 C 0.15113 0.19557 0.82478 0.0
H1597 H 0.07444 0.22354 0.78668 0.0
H1598 H 0.09461 0.21442 0.79602 0.0
C1599 C 0.16237 0.18912 0.82934 0.0
C1600 C 0.13666 0.21656 0.82538 0.0
H1601 H 0.09911 0.21012 0.82207 0.0
C1602 C 0.14038 0.23005 0.81885 0.0
C1603 C 0.12152 0.20943 0.82668 0.0
C1604 C 0.11665 0.1953 0.83409 0.0
C1605 C 0.1295 0.2363 0.81321 0.0
C1606 C 0.11436 0.22906 0.81436 0.0
C1607 C 0.11065 0.21569 0.82109 0.0
C1608 C 0.10222 0.23496 0.8085 0.0
C1609 C 0.13442 0.25031 0.80563 0.0
C1610 C 0.09955 0.24955 0.81242 0.0
C1611 C 0.08796 0.25484 0.80706 0.0
C1612 C 0.07858 0.24561 0.79774 0.0
C1613 C 0.08125 0.23097 0.7939 0.0
C1614 C 0.09287 0.22573 0.79923 0.0
H1615 H 0.14644 0.252 0.80238 0.0
H1616 H 0.128 0.24981 0.79646 0.0
H1617 H 0.13254 0.26028 0.81246 0.0
H1618 H 0.10628 0.25682 0.81981 0.0
H1619 H 0.08616 0.26606 0.81048 0.0
H1620 H 0.82811 0.21322 0.83137 0.0
H1621 H 0.81537 0.18702 0.83101 0.0
H1622 H 0.85718 0.17234 0.82159 0.0
H1623 H 0.86991 0.19853 0.82094 0.0
H1624 H 0.83704 0.15657 0.80614 0.0
H1625 H 0.8129 0.1578 0.85933 0.0
H1626 H 0.80738 0.17168 0.85005 0.0
H1627 H 0.82669 0.17308 0.85313 0.0
C1628 C 0.83462 0.20445 0.82907 0.0
C1629 C 0.85009 0.20806 0.82618 0.0
C1630 C 0.82732 0.18944 0.82912 0.0
C1631 C 0.83534 0.17769 0.8266 0.0
C1632 C 0.85076 0.18122 0.82371 0.0
H1633 H 0.79658 0.08376 0.83968 0.0
H1634 H 0.81043 0.10977 0.84186 0.0
C1635 C 0.85806 0.19623 0.82346 0.0
C1636 C 0.82755 0.16171 0.82631 0.0
H1637 H 0.80267 0.1366 0.84436 0.0
C1638 C 0.82963 0.15218 0.81456 0.0
C1639 C 0.81808 0.15587 0.83738 0.0
C1640 C 0.81626 0.16511 0.85073 0.0
C1641 C 0.82224 0.13711 0.81342 0.0
C1642 C 0.81205 0.13154 0.82413 0.0
C1643 C 0.81028 0.14094 0.83605 0.0
C1644 C 0.80316 0.11601 0.82315 0.0
C1645 C 0.82565 0.12727 0.80082 0.0
C1646 C 0.79414 0.11101 0.81215 0.0
C1647 C 0.78641 0.09615 0.81083 0.0
C1648 C 0.78726 0.08611 0.82065 0.0
C1649 C 0.7957 0.09131 0.83201 0.0
C1650 C 0.80364 0.10613 0.83322 0.0
H1651 H 0.8368 0.13159 0.79596 0.0
H1652 H 0.82524 0.11548 0.80324 0.0
H1653 H 0.81733 0.12725 0.79323 0.0
H1654 H 0.79317 0.11856 0.80451 0.0
H1655 H 0.77976 0.09248 0.80212 0.0
H1656 H 0.88606 0.84466 0.86774 0.0
H1657 H 0.90453 0.83066 0.85662 0.0
H1658 H 0.8848 0.82937 0.81812 0.0
H1659 H 0.86634 0.84344 0.82917 0.0
H1660 H 0.90087 0.80272 0.84352 0.0
H1661 H 0.92819 0.84474 0.80764 0.0
H1662 H 0.91556 0.84921 0.8217 0.0
H1663 H 0.9085 0.83946 0.80614 0.0
C1664 C 0.88563 0.84138 0.85691 0.0
C1665 C 0.87472 0.84522 0.84935 0.0
C1666 C 0.89624 0.83342 0.85055 0.0
C1667 C 0.89623 0.82914 0.83648 0.0
C1668 C 0.8853 0.83286 0.82891 0.0
H1669 H 0.93922 0.75914 0.79376 0.0
H1670 H 0.92175 0.77392 0.80546 0.0
C1671 C 0.87472 0.84089 0.83525 0.0
C1672 C 0.90737 0.82038 0.82985 0.0
H1673 H 0.93446 0.82036 0.804 0.0
C1674 C 0.90825 0.80661 0.83491 0.0
C1675 C 0.91718 0.82553 0.81873 0.0
C1676 C 0.91745 0.84061 0.81331 0.0
C1677 C 0.91844 0.79776 0.82904 0.0
C1678 C 0.92784 0.80263 0.81759 0.0
C1679 C 0.92716 0.81653 0.81268 0.0
C1680 C 0.9385 0.79353 0.81058 0.0
C1681 C 0.91921 0.7834 0.83534 0.0
C1682 C 0.95374 0.7997 0.80925 0.0
C1683 C 0.96377 0.79128 0.80248 0.0
C1684 C 0.9588 0.77649 0.79686 0.0
C1685 C 0.94351 0.77036 0.79818 0.0
C1686 C 0.93348 0.77882 0.80489 0.0
H1687 H 0.91458 0.78352 0.84611 0.0
H1688 H 0.91256 0.77372 0.82949 0.0
H1689 H 0.93083 0.78157 0.83507 0.0
H1690 H 0.9579 0.81104 0.81352 0.0
H1691 H 0.97546 0.79632 0.80177 0.0
H1692 H 0.8277 0.88286 0.20313 0.0
H1693 H 0.81841 0.90476 0.21408 0.0
H1694 H 0.86284 0.92582 0.22416 0.0
H1695 H 0.87233 0.90404 0.21281 0.0
H1696 H 0.81928 0.91725 0.24061 0.0
H1697 H 0.84984 0.95913 0.20571 0.0
H1698 H 0.84833 0.93908 0.20178 0.0
H1699 H 0.86116 0.94894 0.21388 0.0
C1700 C 0.83558 0.89219 0.20753 0.0
C1701 C 0.85084 0.89164 0.20689 0.0
C1702 C 0.8302 0.90472 0.2139 0.0
C1703 C 0.8399 0.91716 0.21979 0.0
C1704 C 0.85511 0.91656 0.21947 0.0
H1705 H 0.81399 1.00315 0.25614 0.0
H1706 H 0.82898 0.9833 0.25034 0.0
C1707 C 0.86051 0.90397 0.2131 0.0
C1708 C 0.83389 0.93057 0.22632 0.0
H1709 H 0.8345 0.96812 0.2236 0.0
C1710 C 0.82273 0.92838 0.23694 0.0
C1711 C 0.83839 0.94521 0.22167 0.0
C1712 C 0.85 0.94829 0.21007 0.0
C1713 C 0.81576 0.94021 0.24276 0.0
C1714 C 0.81982 0.9547 0.23774 0.0
C1715 C 0.83139 0.95707 0.22751 0.0
C1716 C 0.811 0.96685 0.24185 0.0
C1717 C 0.80393 0.93703 0.25417 0.0
C1718 C 0.79598 0.96433 0.23898 0.0
C1719 C 0.78752 0.97556 0.2422 0.0
C1720 C 0.79375 0.98977 0.24841 0.0
C1721 C 0.80879 0.99233 0.25147 0.0
C1722 C 0.81738 0.98101 0.24809 0.0
H1723 H 0.8054 0.92734 0.2597 0.0
H1724 H 0.80402 0.94702 0.26159 0.0
H1725 H 0.79287 0.93413 0.2498 0.0
H1726 H 0.7908 0.95368 0.23398 0.0
H1727 H 0.77599 0.97306 0.23967 0.0
H1728 H 0.18989 0.7886 0.21516 0.0
H1729 H 0.16282 0.78238 0.21781 0.0
H1730 H 0.15983 0.81978 0.19476 0.0
H1731 H 0.18699 0.82625 0.19237 0.0
H1732 H 0.14519 0.82161 0.21886 0.0
H1733 H 0.12859 0.7638 0.19519 0.0
H1734 H 0.1428 0.76465 0.20686 0.0
H1735 H 0.1468 0.775 0.19182 0.0
C1736 C 0.18345 0.79513 0.21021 0.0
C1737 C 0.19049 0.8079 0.20357 0.0
C1738 C 0.16796 0.79156 0.21172 0.0
C1739 C 0.15927 0.80056 0.20641 0.0
C1740 C 0.16631 0.81269 0.19893 0.0
H1741 H 0.06294 0.77621 0.22126 0.0
H1742 H 0.08743 0.78369 0.20973 0.0
C1743 C 0.1818 0.81634 0.19753 0.0
C1744 C 0.14314 0.79859 0.21033 0.0
H1745 H 0.11138 0.7721 0.21274 0.0
C1746 C 0.13773 0.81085 0.21729 0.0
C1747 C 0.13334 0.78462 0.20817 0.0
C1748 C 0.13816 0.77133 0.19997 0.0
C1749 C 0.123 0.80933 0.22271 0.0
C1750 C 0.11352 0.79507 0.22143 0.0
C1751 C 0.11871 0.783 0.21389 0.0
C1752 C 0.09841 0.79219 0.22829 0.0
C1753 C 0.11778 0.823 0.2298 0.0
C1754 C 0.09639 0.79471 0.24254 0.0
C1755 C 0.08236 0.79059 0.24916 0.0
C1756 C 0.07016 0.78364 0.24164 0.0
C1757 C 0.07214 0.78151 0.22734 0.0
C1758 C 0.08613 0.78576 0.22073 0.0
H1759 H 0.12436 0.83358 0.22597 0.0
H1760 H 0.10585 0.82265 0.22837 0.0
H1761 H 0.11928 0.82338 0.24091 0.0
H1762 H 0.10577 0.79932 0.24863 0.0
H1763 H 0.08122 0.79222 0.26019 0.0
H1764 H 0.89296 0.18934 0.17248 0.0
H1765 H 0.91542 0.20053 0.18414 0.0
H1766 H 0.90629 0.24492 0.18104 0.0
H1767 H 0.88345 0.23374 0.16968 0.0
H1768 H 0.94058 0.22168 0.17597 0.0
H1769 H 0.91006 0.24355 0.2222 0.0
H1770 H 0.90084 0.22998 0.20959 0.0
H1771 H 0.90638 0.24941 0.20607 0.0
C1772 C 0.89566 0.20148 0.17434 0.0
C1773 C 0.88629 0.21063 0.17032 0.0
C1774 C 0.90858 0.20787 0.18091 0.0
C1775 C 0.91243 0.22354 0.18363 0.0
C1776 C 0.9034 0.23279 0.17923 0.0
H1777 H 0.98277 0.26401 0.23949 0.0
H1778 H 0.96534 0.26293 0.22152 0.0
C1779 C 0.89043 0.22638 0.17263 0.0
C1780 C 0.92566 0.22993 0.19148 0.0
H1781 H 0.93586 0.24606 0.22287 0.0
C1782 C 0.9396 0.22722 0.18615 0.0
C1783 C 0.92437 0.23726 0.20472 0.0
C1784 C 0.90962 0.24017 0.21109 0.0
C1785 C 0.95214 0.23104 0.19392 0.0
C1786 C 0.95067 0.23755 0.20744 0.0
C1787 C 0.93695 0.24109 0.21249 0.0
C1788 C 0.96251 0.23876 0.21711 0.0
C1789 C 0.9668 0.2277 0.18772 0.0
C1790 C 0.96671 0.22558 0.22053 0.0
C1791 C 0.97649 0.22615 0.23077 0.0
C1792 C 0.98232 0.23993 0.23785 0.0
C1793 C 0.97854 0.25325 0.23413 0.0
C1794 C 0.96857 0.25264 0.22391 0.0
H1795 H 0.96736 0.22756 0.17641 0.0
H1796 H 0.97626 0.23613 0.19167 0.0
H1797 H 0.96802 0.2164 0.19039 0.0
H1798 H 0.96196 0.21472 0.21562 0.0
H1799 H 0.97918 0.21569 0.23338 0.0
H1800 H 0.19683 0.68378 0.64391 0.0
H1801 H 0.20846 0.69541 0.62335 0.0
H1802 H 0.20061 0.7387 0.64089 0.0
H1803 H 0.18952 0.72728 0.66173 0.0
H1804 H 0.19662 0.71045 0.60529 0.0
H1805 H 0.24436 0.74856 0.62891 0.0
H1806 H 0.23286 0.73345 0.63768 0.0
H1807 H 0.22648 0.75079 0.63659 0.0
C1808 C 0.19778 0.69582 0.64352 0.0
C1809 C 0.19229 0.70457 0.65458 0.0
C1810 C 0.20433 0.70245 0.63168 0.0
C1811 C 0.20561 0.71799 0.6306 0.0
C1812 C 0.20003 0.72675 0.64155 0.0
H1813 H 0.24819 0.77157 0.56245 0.0
H1814 H 0.23227 0.76403 0.58293 0.0
C1815 C 0.19351 0.72014 0.65342 0.0
C1816 C 0.21254 0.72487 0.61789 0.0
H1817 H 0.24176 0.75057 0.60552 0.0
C1818 C 0.20645 0.71926 0.60537 0.0
C1819 C 0.22534 0.73647 0.61795 0.0
C1820 C 0.23275 0.74261 0.63097 0.0
C1821 C 0.2129 0.72474 0.59295 0.0
C1822 C 0.22591 0.73603 0.59298 0.0
C1823 C 0.23174 0.74199 0.60551 0.0
C1824 C 0.23447 0.74061 0.58009 0.0
C1825 C 0.2058 0.71831 0.57986 0.0
C1826 C 0.24093 0.72997 0.57171 0.0
C1827 C 0.25001 0.73424 0.56015 0.0
C1828 C 0.25287 0.74926 0.55664 0.0
C1829 C 0.24608 0.75988 0.56481 0.0
C1830 C 0.23705 0.75561 0.57653 0.0
H1831 H 0.19388 0.71327 0.58176 0.0
H1832 H 0.20675 0.7271 0.57253 0.0
H1833 H 0.21155 0.70928 0.57505 0.0
H1834 H 0.23931 0.7184 0.57434 0.0
H1835 H 0.25507 0.72576 0.55411 0.0
H1836 H 0.80122 0.70474 0.62113 0.0
H1837 H 0.79259 0.71417 0.60121 0.0
H1838 H 0.83677 0.73907 0.59238 0.0
H1839 H 0.84547 0.72959 0.61213 0.0
H1840 H 0.79319 0.74398 0.59597 0.0
H1841 H 0.82632 0.71614 0.55564 0.0
H1842 H 0.8236 0.71058 0.57294 0.0
H1843 H 0.83734 0.72679 0.56874 0.0
C1844 C 0.80908 0.71217 0.61488 0.0
C1845 C 0.824 0.71639 0.61815 0.0
C1846 C 0.80415 0.71754 0.60352 0.0
C1847 C 0.81408 0.72712 0.59518 0.0
C1848 C 0.82898 0.73142 0.5985 0.0
H1849 H 0.81572 0.78376 0.53126 0.0
H1850 H 0.81999 0.76795 0.54868 0.0
C1851 C 0.83391 0.72608 0.60985 0.0
C1852 C 0.80881 0.73311 0.58331 0.0
H1853 H 0.81558 0.73621 0.54901 0.0
C1854 C 0.7979 0.74211 0.58566 0.0
C1855 C 0.81493 0.73058 0.56987 0.0
C1856 C 0.82609 0.72037 0.56659 0.0
C1857 C 0.79353 0.7493 0.57503 0.0
C1858 C 0.80007 0.74722 0.56168 0.0
C1859 C 0.81058 0.73778 0.55925 0.0
C1860 C 0.79728 0.7559 0.55041 0.0
C1861 C 0.78249 0.75965 0.5783 0.0
C1862 C 0.78312 0.75413 0.54534 0.0
C1863 C 0.78061 0.7632 0.53529 0.0
C1864 C 0.79223 0.77417 0.5302 0.0
C1865 C 0.80648 0.7755 0.535 0.0
C1866 C 0.80897 0.76644 0.54495 0.0
H1867 H 0.78044 0.76203 0.58948 0.0
H1868 H 0.78648 0.77051 0.57362 0.0
H1869 H 0.77176 0.75431 0.57398 0.0
H1870 H 0.77399 0.74588 0.54927 0.0
H1871 H 0.76952 0.7619 0.53179 0.0
H1872 H 0.83299 0.35931 0.68057 0.0
H1873 H 0.81982 0.34865 0.66024 0.0
H1874 H 0.86164 0.34577 0.63802 0.0
H1875 H 0.87483 0.3561 0.65847 0.0
H1876 H 0.81994 0.35869 0.63616 0.0
H1877 H 0.83933 0.30431 0.62844 0.0
H1878 H 0.84248 0.31668 0.64375 0.0
H1879 H 0.85445 0.32011 0.62855 0.0
C1880 C 0.83939 0.35636 0.67137 0.0
C1881 C 0.85499 0.35853 0.6712 0.0
C1882 C 0.83183 0.35023 0.65972 0.0
C1883 C 0.83964 0.34612 0.64755 0.0
C1884 C 0.85525 0.34839 0.64733 0.0
H1885 H 0.80192 0.33452 0.56739 0.0
H1886 H 0.81492 0.34406 0.58804 0.0
C1887 C 0.86282 0.35437 0.65904 0.0
C1888 C 0.83144 0.34003 0.63504 0.0
H1889 H 0.82688 0.31085 0.61017 0.0
C1890 C 0.82144 0.34818 0.63053 0.0
C1891 C 0.83311 0.32618 0.62772 0.0
C1892 C 0.8428 0.31623 0.63243 0.0
C1893 C 0.81328 0.34306 0.61893 0.0
C1894 C 0.81545 0.32956 0.61126 0.0
C1895 C 0.82529 0.32128 0.61588 0.0
C1896 C 0.80752 0.32373 0.59855 0.0
C1897 C 0.80213 0.35202 0.61525 0.0
C1898 C 0.79936 0.30891 0.59723 0.0
C1899 C 0.79205 0.30334 0.58529 0.0
C1900 C 0.79268 0.31246 0.57436 0.0
C1901 C 0.80092 0.32727 0.57568 0.0
C1902 C 0.80835 0.33277 0.58755 0.0
H1903 H 0.79844 0.35899 0.62425 0.0
H1904 H 0.80737 0.35977 0.60742 0.0
H1905 H 0.7922 0.34454 0.61104 0.0
H1906 H 0.79854 0.30164 0.6055 0.0
H1907 H 0.78577 0.29193 0.58469 0.0
H1908 H 0.25536 0.3137 0.68044 0.0
H1909 H 0.26231 0.31269 0.65596 0.0
H1910 H 0.21604 0.30116 0.64722 0.0
H1911 H 0.20899 0.30191 0.6718 0.0
H1912 H 0.23461 0.28571 0.62936 0.0
H1913 H 0.25613 0.34739 0.63439 0.0
H1914 H 0.26439 0.33695 0.6453 0.0
H1915 H 0.24492 0.33755 0.64782 0.0
C1916 C 0.24667 0.31072 0.67331 0.0
C1917 C 0.23161 0.3081 0.67797 0.0
C1918 C 0.25066 0.31021 0.65934 0.0
C1919 C 0.23967 0.30724 0.64982 0.0
C1920 C 0.22467 0.30361 0.65443 0.0
H1921 H 0.25329 0.33476 0.5669 0.0
H1922 H 0.24458 0.33105 0.59069 0.0
C1923 C 0.22067 0.30401 0.66844 0.0
C1924 C 0.24382 0.30891 0.63514 0.0
H1925 H 0.26078 0.33457 0.6129 0.0
C1926 C 0.2403 0.29638 0.62572 0.0
C1927 C 0.25096 0.32294 0.63043 0.0
C1928 C 0.25421 0.33702 0.63998 0.0
C1929 C 0.24408 0.29743 0.6117 0.0
C1930 C 0.25177 0.31132 0.60707 0.0
C1931 C 0.25499 0.3239 0.61648 0.0
C1932 C 0.25663 0.31313 0.59253 0.0
C1933 C 0.23958 0.28374 0.60197 0.0
C1934 C 0.26643 0.30443 0.58574 0.0
C1935 C 0.2714 0.30653 0.57216 0.0
C1936 C 0.2668 0.3175 0.56517 0.0
C1937 C 0.25712 0.32632 0.57205 0.0
C1938 C 0.25208 0.32415 0.5856 0.0
H1939 H 0.23025 0.27559 0.60648 0.0
H1940 H 0.23623 0.28694 0.59223 0.0
H1941 H 0.24916 0.27793 0.59964 0.0
H1942 H 0.27044 0.29618 0.591 0.0
H1943 H 0.27908 0.29976 0.56724 0.0
H1944 H 0.19074 0.31175 0.38962 0.0
H1945 H 0.19768 0.30382 0.41098 0.0
H1946 H 0.24223 0.32881 0.40408 0.0
H1947 H 0.23546 0.3364 0.3826 0.0
H1948 H 0.24219 0.30118 0.4127 0.0
H1949 H 0.20326 0.33026 0.44631 0.0
H1950 H 0.19478 0.31666 0.43347 0.0
H1951 H 0.20709 0.33348 0.42848 0.0
C1952 C 0.20201 0.31553 0.39267 0.0
C1953 C 0.21257 0.32478 0.3845 0.0
C1954 C 0.20594 0.31105 0.40491 0.0
C1955 C 0.22043 0.31589 0.40926 0.0
C1956 C 0.23099 0.32493 0.40097 0.0
H1957 H 0.25997 0.33308 0.48427 0.0
H1958 H 0.2465 0.33162 0.4638 0.0
C1959 C 0.2271 0.32931 0.38872 0.0
C1960 C 0.22474 0.31186 0.42248 0.0
H1961 H 0.21858 0.31757 0.45705 0.0
C1962 C 0.23693 0.3046 0.42241 0.0
C1963 C 0.21788 0.31638 0.43515 0.0
C1964 C 0.2051 0.32473 0.43595 0.0
C1965 C 0.24284 0.3023 0.43462 0.0
C1966 C 0.23618 0.30711 0.44727 0.0
C1967 C 0.22359 0.31378 0.44735 0.0
C1968 C 0.24329 0.30734 0.46035 0.0
C1969 C 0.25669 0.29557 0.43383 0.0
C1970 C 0.24571 0.2941 0.46548 0.0
C1971 C 0.25356 0.2949 0.47728 0.0
C1972 C 0.25904 0.30895 0.48413 0.0
C1973 C 0.25602 0.32206 0.47923 0.0
C1974 C 0.24825 0.32126 0.46752 0.0
H1975 H 0.2619 0.29491 0.42328 0.0
H1976 H 0.265 0.30231 0.44066 0.0
H1977 H 0.25381 0.28398 0.43723 0.0
H1978 H 0.24174 0.2832 0.46025 0.0
H1979 H 0.25565 0.28459 0.48082 0.0
H1980 H 0.22222 0.66431 0.38557 0.0
H1981 H 0.23245 0.67533 0.40719 0.0
H1982 H 0.22833 0.71947 0.39699 0.0
H1983 H 0.21818 0.70855 0.37526 0.0
H1984 H 0.25788 0.69662 0.41167 0.0
H1985 H 0.20849 0.71803 0.43545 0.0
H1986 H 0.20754 0.70478 0.42056 0.0
H1987 H 0.21469 0.72447 0.4189 0.0
C1988 C 0.22352 0.67638 0.38786 0.0
C1989 C 0.21934 0.6855 0.37857 0.0
C1990 C 0.22933 0.68267 0.4003 0.0
C1991 C 0.23102 0.69823 0.40387 0.0
C1992 C 0.22685 0.70739 0.39466 0.0
H1993 H 0.26657 0.75525 0.47512 0.0
H1994 H 0.256 0.74563 0.45326 0.0
C1995 C 0.22103 0.70111 0.3822 0.0
C1996 C 0.23758 0.70483 0.41703 0.0
H1997 H 0.2306 0.72483 0.44726 0.0
C1998 C 0.25188 0.70275 0.41946 0.0
C1999 C 0.22983 0.71293 0.42722 0.0
C2000 C 0.21424 0.7151 0.4255 0.0
C2001 C 0.25867 0.7086 0.43165 0.0
C2002 C 0.25086 0.71653 0.44191 0.0
C2003 C 0.23661 0.71876 0.43944 0.0
C2004 C 0.25719 0.72237 0.45534 0.0
C2005 C 0.2743 0.70647 0.43329 0.0
C2006 C 0.2612 0.71252 0.46399 0.0
C2007 C 0.26723 0.71798 0.47653 0.0
C2008 C 0.26931 0.73345 0.48086 0.0
C2009 C 0.26506 0.74327 0.47226 0.0
C2010 C 0.25904 0.73778 0.45969 0.0
H2011 H 0.28019 0.70419 0.42326 0.0
H2012 H 0.28085 0.71656 0.43872 0.0
H2013 H 0.27388 0.69666 0.43936 0.0
H2014 H 0.25954 0.70054 0.46109 0.0
H2015 H 0.27005 0.71 0.48292 0.0
H2016 H 0.82662 0.72845 0.35869 0.0
H2017 H 0.81919 0.73979 0.38101 0.0
H2018 H 0.84418 0.78305 0.37058 0.0
H2019 H 0.85154 0.77179 0.34813 0.0
H2020 H 0.83921 0.7539 0.40036 0.0
H2021 H 0.80424 0.79304 0.38633 0.0
H2022 H 0.80881 0.77777 0.37472 0.0
H2023 H 0.82223 0.79485 0.37741 0.0
C2024 C 0.83035 0.74042 0.36106 0.0
C2025 C 0.83967 0.74928 0.3517 0.0
C2026 C 0.82611 0.74687 0.37382 0.0
C2027 C 0.83104 0.76227 0.37739 0.0
C2028 C 0.84004 0.7712 0.36793 0.0
H2029 H 0.82232 0.818 0.45356 0.0
H2030 H 0.82951 0.80858 0.43037 0.0
C2031 C 0.84428 0.76476 0.35515 0.0
C2032 C 0.82764 0.7687 0.39137 0.0
H2033 H 0.8103 0.79499 0.40948 0.0
C2034 C 0.83284 0.76285 0.40237 0.0
C2035 C 0.81946 0.78046 0.39392 0.0
C2036 C 0.81324 0.78684 0.3825 0.0
C2037 C 0.83013 0.76848 0.41587 0.0
C2038 C 0.82178 0.7801 0.41844 0.0
C2039 C 0.81672 0.78609 0.40745 0.0
C2040 C 0.81771 0.78577 0.43252 0.0
C2041 C 0.83638 0.76207 0.42727 0.0
C2042 C 0.80865 0.77607 0.44133 0.0
C2043 C 0.8046 0.78137 0.45455 0.0
C2044 C 0.80946 0.79653 0.45922 0.0
C2045 C 0.81855 0.80624 0.45035 0.0
C2046 C 0.82258 0.80091 0.43708 0.0
H2047 H 0.84572 0.75635 0.42345 0.0
H2048 H 0.84035 0.77103 0.43531 0.0
H2049 H 0.82753 0.75362 0.43201 0.0
H2050 H 0.80461 0.76439 0.43793 0.0
H2051 H 0.79773 0.77356 0.46115 0.0
H2052 H 0.83561 0.30158 0.38817 0.0
H2053 H 0.82809 0.29025 0.40983 0.0
H2054 H 0.83247 0.33457 0.43091 0.0
H2055 H 0.83976 0.34596 0.40918 0.0
H2056 H 0.8434 0.29195 0.43216 0.0
H2057 H 0.79222 0.31507 0.44612 0.0
H2058 H 0.80152 0.31614 0.42932 0.0
H2059 H 0.80828 0.32944 0.44316 0.0
C2060 C 0.83487 0.30891 0.39742 0.0
C2061 C 0.83825 0.32468 0.39696 0.0
C2062 C 0.83056 0.30242 0.4098 0.0
C2063 C 0.82954 0.31151 0.42203 0.0
C2064 C 0.83282 0.32728 0.4216 0.0
H2065 H 0.81099 0.29352 0.5073 0.0
H2066 H 0.82058 0.30431 0.48582 0.0
C2067 C 0.83701 0.33379 0.40917 0.0
C2068 C 0.82556 0.30445 0.43524 0.0
H2069 H 0.80114 0.30296 0.46332 0.0
C2070 C 0.83411 0.29431 0.43893 0.0
C2071 C 0.81341 0.30746 0.4441 0.0
C2072 C 0.80323 0.3175 0.44043 0.0
C2073 C 0.83097 0.28734 0.45129 0.0
C2074 C 0.81896 0.29052 0.46018 0.0
C2075 C 0.81042 0.30062 0.45651 0.0
C2076 C 0.81491 0.28342 0.4733 0.0
C2077 C 0.84065 0.27679 0.45487 0.0
C2078 C 0.80887 0.26797 0.47344 0.0
C2079 C 0.80333 0.26172 0.48574 0.0
C2080 C 0.8037 0.27082 0.49813 0.0
C2081 C 0.81051 0.28613 0.49799 0.0
C2082 C 0.81596 0.29237 0.4857 0.0
H2083 H 0.85109 0.27771 0.44825 0.0
H2084 H 0.8435 0.27912 0.46571 0.0
H2085 H 0.83448 0.265 0.45357 0.0
H2086 H 0.80782 0.26089 0.46397 0.0
H2087 H 0.79808 0.24994 0.48542 0.0
H2088 H 0.1417 0.70272 0.67375 0.0
H2089 H 0.11954 0.71047 0.68529 0.0
H2090 H 0.13527 0.70519 0.72433 0.0
H2091 H 0.15779 0.69824 0.71297 0.0
H2092 H 0.09775 0.69533 0.70133 0.0
H2093 H 0.12526 0.74647 0.73116 0.0
H2094 H 0.135 0.73689 0.71754 0.0
H2095 H 0.13217 0.73 0.73431 0.0
C2096 C 0.14061 0.70348 0.68481 0.0
C2097 C 0.15165 0.6999 0.6924 0.0
C2098 C 0.12784 0.7078 0.69139 0.0
C2099 C 0.1258 0.70868 0.70571 0.0
C2100 C 0.13671 0.70496 0.7133 0.0
H2101 H 0.05436 0.72312 0.76534 0.0
H2102 H 0.07653 0.71636 0.75284 0.0
C2103 C 0.14951 0.70075 0.70675 0.0
C2104 C 0.11209 0.71301 0.71269 0.0
H2105 H 0.0997 0.73736 0.73751 0.0
C2106 C 0.09819 0.70461 0.70915 0.0
C2107 C 0.11261 0.72515 0.72289 0.0
C2108 C 0.12705 0.73524 0.72661 0.0
C2109 C 0.08488 0.70777 0.71576 0.0
C2110 C 0.08546 0.71968 0.72614 0.0
C2111 C 0.0993 0.72817 0.72961 0.0
C2112 C 0.0718 0.72348 0.73356 0.0
C2113 C 0.07029 0.69816 0.71183 0.0
C2114 C 0.06181 0.72979 0.72689 0.0
C2115 C 0.04914 0.7337 0.73402 0.0
C2116 C 0.04617 0.73132 0.74797 0.0
C2117 C 0.05619 0.72491 0.75459 0.0
C2118 C 0.06892 0.72113 0.74748 0.0
H2119 H 0.07186 0.68781 0.70537 0.0
H2120 H 0.06315 0.69484 0.72109 0.0
H2121 H 0.06432 0.70477 0.70599 0.0
H2122 H 0.0639 0.73182 0.71618 0.0
H2123 H 0.04162 0.73851 0.7286 0.0
H2124 H 0.86421 0.66646 0.66433 0.0
H2125 H 0.85338 0.6432 0.67501 0.0
H2126 H 0.81076 0.65691 0.67971 0.0
H2127 H 0.82153 0.68014 0.66885 0.0
H2128 H 0.84115 0.64053 0.70056 0.0
H2129 H 0.79951 0.6139 0.66357 0.0
H2130 H 0.81408 0.62966 0.65971 0.0
H2131 H 0.79763 0.63268 0.66986 0.0
C2132 C 0.85251 0.66447 0.66757 0.0
C2133 C 0.84372 0.67512 0.66576 0.0
C2134 C 0.84632 0.65116 0.67364 0.0
C2135 C 0.83122 0.64821 0.67803 0.0
C2136 C 0.82236 0.65876 0.67612 0.0
H2137 H 0.79393 0.58562 0.73916 0.0
H2138 H 0.80278 0.60792 0.72649 0.0
C2139 C 0.82853 0.67205 0.66995 0.0
C2140 C 0.82503 0.6345 0.6853 0.0
H2141 H 0.79799 0.60279 0.68475 0.0
C2142 C 0.83174 0.63225 0.69707 0.0
C2143 C 0.81286 0.62362 0.68066 0.0
C2144 C 0.80568 0.62497 0.66768 0.0
C2145 C 0.82656 0.61952 0.7044 0.0
C2146 C 0.81407 0.60889 0.70004 0.0
C2147 C 0.80745 0.61103 0.68817 0.0
C2148 C 0.80792 0.59536 0.70754 0.0
C2149 C 0.83473 0.61742 0.71658 0.0
C2150 C 0.80732 0.58087 0.70097 0.0
C2151 C 0.80216 0.56809 0.70818 0.0
C2152 C 0.7975 0.56957 0.7221 0.0
C2153 C 0.79773 0.58411 0.72854 0.0
C2154 C 0.80279 0.59686 0.7213 0.0
H2155 H 0.84621 0.62413 0.71627 0.0
H2156 H 0.82874 0.62124 0.72607 0.0
H2157 H 0.83533 0.60538 0.71713 0.0
H2158 H 0.81117 0.57945 0.69034 0.0
H2159 H 0.80222 0.55708 0.70295 0.0
H2160 H 0.91496 0.34212 0.70011 0.0
H2161 H 0.93431 0.32917 0.70642 0.0
H2162 H 0.93147 0.34993 0.74745 0.0
H2163 H 0.91215 0.36277 0.74124 0.0
H2164 H 0.96238 0.34117 0.7169 0.0
H2165 H 0.9268 0.30526 0.75382 0.0
H2166 H 0.91922 0.315 0.74169 0.0
H2167 H 0.92641 0.32498 0.7571 0.0
C2168 C 0.91842 0.34388 0.71048 0.0
C2169 C 0.91192 0.35342 0.72021 0.0
C2170 C 0.92952 0.33648 0.71408 0.0
C2171 C 0.93424 0.33833 0.7275 0.0
C2172 C 0.92786 0.34801 0.73713 0.0
H2173 H 0.99795 0.30579 0.77262 0.0
H2174 H 0.97891 0.31795 0.76496 0.0
C2175 C 0.91685 0.35543 0.73353 0.0
C2176 C 0.94597 0.3304 0.73143 0.0
H2177 H 0.95279 0.30606 0.75371 0.0
C2178 C 0.96025 0.3334 0.72487 0.0
C2179 C 0.94328 0.32028 0.74189 0.0
C2180 C 0.92807 0.31605 0.74896 0.0
C2181 C 0.97195 0.32693 0.72872 0.0
C2182 C 0.96928 0.31687 0.73924 0.0
C2183 C 0.95494 0.31377 0.74569 0.0
C2184 C 0.98117 0.30952 0.74378 0.0
C2185 C 0.98719 0.33137 0.72176 0.0
C2186 C 0.98882 0.30052 0.73454 0.0
C2187 C 0.99989 0.29362 0.73888 0.0
C2188 C 1.00357 0.29539 0.75265 0.0
C2189 C 0.99573 0.30428 0.76192 0.0
C2190 C 0.98468 0.3112 0.75755 0.0
H2191 H 0.98838 0.34219 0.71696 0.0
H2192 H 0.996 0.33249 0.72909 0.0
H2193 H 0.989 0.32254 0.71358 0.0
H2194 H 0.98615 0.2987 0.72393 0.0
H2195 H 1.00561 0.28697 0.73136 0.0
H2196 H 0.24969 0.37299 0.69774 0.0
H2197 H 0.26182 0.39942 0.69695 0.0
H2198 H 0.25692 0.40552 0.7409 0.0
H2199 H 0.24483 0.37906 0.74178 0.0
H2200 H 0.24544 0.42596 0.7273 0.0
H2201 H 0.30313 0.42271 0.70746 0.0
H2202 H 0.28858 0.4114 0.6978 0.0
H2203 H 0.29075 0.40713 0.71489 0.0
C2204 C 0.25152 0.37986 0.70726 0.0
C2205 C 0.24631 0.37395 0.71984 0.0
C2206 C 0.25847 0.39495 0.70678 0.0
C2207 C 0.2604 0.40435 0.71887 0.0
C2208 C 0.25556 0.3984 0.73145 0.0
H2209 H 0.30208 0.49308 0.74315 0.0
H2210 H 0.29765 0.46649 0.7351 0.0
C2211 C 0.2486 0.38333 0.73195 0.0
C2212 C 0.26612 0.42071 0.7184 0.0
H2213 H 0.29676 0.44697 0.71005 0.0
C2214 C 0.25663 0.43057 0.72347 0.0
C2215 C 0.28074 0.42661 0.71339 0.0
C2216 C 0.29147 0.41646 0.70816 0.0
C2217 C 0.26141 0.44621 0.72394 0.0
C2218 C 0.27602 0.45217 0.7189 0.0
C2219 C 0.2855 0.44233 0.71367 0.0
C2220 C 0.28191 0.46855 0.72051 0.0
C2221 C 0.25096 0.45621 0.73035 0.0
C2222 C 0.27533 0.47868 0.71423 0.0
C2223 C 0.27773 0.49393 0.71889 0.0
C2224 C 0.28678 0.49921 0.72986 0.0
C2225 C 0.29485 0.48936 0.73483 0.0
C2226 C 0.29238 0.47412 0.73022 0.0
H2227 H 0.24119 0.44976 0.73598 0.0
H2228 H 0.25679 0.46517 0.73754 0.0
H2229 H 0.24684 0.46175 0.72223 0.0
H2230 H 0.26741 0.47458 0.70653 0.0
H2231 H 0.27152 0.50125 0.7147 0.0
H2232 H 0.14402 0.32108 0.35288 0.0
H2233 H 0.11977 0.3113 0.34352 0.0
H2234 H 0.14028 0.31303 0.30265 0.0
H2235 H 0.16454 0.32226 0.3119 0.0
H2236 H 0.10544 0.32582 0.32647 0.0
H2237 H 0.11506 0.27094 0.30132 0.0
H2238 H 0.12716 0.28179 0.31368 0.0
H2239 H 0.12873 0.28679 0.29631 0.0
C2240 C 0.1434 0.31904 0.34192 0.0
C2241 C 0.1562 0.32246 0.33314 0.0
C2242 C 0.12953 0.31358 0.33658 0.0
C2243 C 0.12823 0.31133 0.32239 0.0
C2244 C 0.14103 0.31445 0.31363 0.0
H2245 H 0.05166 0.28042 0.27262 0.0
H2246 H 0.07624 0.29288 0.28006 0.0
C2247 C 0.15488 0.31987 0.31894 0.0
C2248 C 0.11342 0.30641 0.31673 0.0
H2249 H 0.09296 0.27873 0.29645 0.0
C2250 C 0.10269 0.3155 0.31994 0.0
C2251 C 0.10991 0.29301 0.30811 0.0
C2252 C 0.12076 0.28249 0.30473 0.0
C2253 C 0.08854 0.31156 0.31474 0.0
C2254 C 0.08499 0.29811 0.30624 0.0
C2255 C 0.09578 0.28912 0.30287 0.0
C2256 C 0.0698 0.29246 0.30164 0.0
C2257 C 0.07752 0.32187 0.31833 0.0
C2258 C 0.05803 0.28833 0.31131 0.0
C2259 C 0.04408 0.28121 0.30711 0.0
C2260 C 0.0416 0.27807 0.29315 0.0
C2261 C 0.05321 0.28283 0.28344 0.0
C2262 C 0.06725 0.28986 0.28767 0.0
H2263 H 0.08315 0.33351 0.32154 0.0
H2264 H 0.07078 0.32229 0.30955 0.0
H2265 H 0.06987 0.31755 0.32696 0.0
H2266 H 0.05981 0.29 0.32213 0.0
H2267 H 0.03536 0.27767 0.31483 0.0
H2268 H 0.22407 0.63734 0.35589 0.0
H2269 H 0.236 0.61765 0.34386 0.0
H2270 H 0.23088 0.63456 0.30536 0.0
H2271 H 0.21962 0.65476 0.31735 0.0
H2272 H 0.2264 0.59489 0.32569 0.0
H2273 H 0.27414 0.63218 0.30125 0.0
H2274 H 0.26197 0.63917 0.31451 0.0
H2275 H 0.25672 0.63613 0.29709 0.0
C2276 C 0.22568 0.63707 0.34487 0.0
C2277 C 0.22098 0.64788 0.33766 0.0
C2278 C 0.23243 0.62568 0.33798 0.0
C2279 C 0.2347 0.62472 0.32367 0.0
C2280 C 0.22967 0.63522 0.31641 0.0
H2281 H 0.25924 0.56328 0.2593 0.0
H2282 H 0.25226 0.5838 0.27455 0.0
C2283 C 0.22299 0.64669 0.3233 0.0
C2284 C 0.24199 0.61256 0.31637 0.0
H2285 H 0.26975 0.60627 0.29254 0.0
C2286 C 0.23601 0.59741 0.31859 0.0
C2287 C 0.25464 0.61575 0.30716 0.0
C2288 C 0.26234 0.63169 0.30496 0.0
C2289 C 0.24186 0.58546 0.31142 0.0
C2290 C 0.25413 0.58866 0.30184 0.0
C2291 C 0.26036 0.60379 0.29989 0.0
C2292 C 0.2596 0.57653 0.29271 0.0
C2293 C 0.23448 0.56944 0.31371 0.0
C2294 C 0.26649 0.56571 0.29774 0.0
C2295 C 0.27069 0.5539 0.28891 0.0
C2296 C 0.2679 0.55264 0.27497 0.0
C2297 C 0.26146 0.5638 0.26999 0.0
C2298 C 0.25747 0.5756 0.27871 0.0
H2299 H 0.22391 0.56884 0.3201 0.0
H2300 H 0.23217 0.56287 0.30378 0.0
H2301 H 0.24208 0.56401 0.31893 0.0
H2302 H 0.26842 0.56629 0.30849 0.0
H2303 H 0.27557 0.54547 0.29308 0.0
H2304 H 0.89398 0.74342 0.31652 0.0
H2305 H 0.92046 0.75445 0.3172 0.0
H2306 H 0.92798 0.71541 0.33557 0.0
H2307 H 0.90157 0.70416 0.33456 0.0
H2308 H 0.93898 0.76234 0.33805 0.0
H2309 H 0.95727 0.71702 0.3029 0.0
H2310 H 0.93806 0.71882 0.30559 0.0
H2311 H 0.94662 0.71036 0.31791 0.0
C2312 C 0.90131 0.73721 0.3207 0.0
C2313 C 0.8958 0.72287 0.32533 0.0
C2314 C 0.9164 0.74353 0.32112 0.0
C2315 C 0.92623 0.73566 0.32625 0.0
C2316 C 0.92067 0.72152 0.33127 0.0
H2317 H 0.0226 0.75469 0.32046 0.0
H2318 H 0.99767 0.74744 0.33115 0.0
C2319 C 0.9056 0.71511 0.33068 0.0
C2320 C 0.94235 0.74211 0.32594 0.0
H2321 H 0.97601 0.73579 0.31216 0.0
C2322 C 0.9471 0.7565 0.33246 0.0
C2323 C 0.95293 0.73449 0.31862 0.0
C2324 C 0.94849 0.71939 0.31075 0.0
C2325 C 0.96214 0.76355 0.3317 0.0
C2326 C 0.97262 0.75601 0.32422 0.0
C2327 C 0.96794 0.74146 0.31805 0.0
C2328 C 0.98823 0.7634 0.32126 0.0
C2329 C 0.96668 0.77906 0.33875 0.0
C2330 C 0.99133 0.77532 0.31273 0.0
C2331 C 1.00557 0.77947 0.30655 0.0
C2332 C 0.01689 0.77166 0.30873 0.0
C2333 C 0.01414 0.76088 0.31848 0.0
C2334 C 0.99987 0.75669 0.3246 0.0
H2335 H 0.9584 0.78148 0.34707 0.0
H2336 H 0.9777 0.78031 0.34308 0.0
H2337 H 0.96753 0.78759 0.33121 0.0
H2338 H 0.98247 0.78053 0.30988 0.0
H2339 H 1.00733 0.78789 0.29917 0.0
H2340 H 0.82496 0.38618 0.36747 0.0
H2341 H 0.81375 0.40704 0.36156 0.0
H2342 H 0.82542 0.39701 0.31893 0.0
H2343 H 0.83656 0.37615 0.32475 0.0
H2344 H 0.82714 0.43281 0.34731 0.0
H2345 H 0.78075 0.39774 0.31951 0.0
H2346 H 0.79141 0.39 0.33075 0.0
H2347 H 0.79877 0.39394 0.31374 0.0
C2348 C 0.82509 0.38839 0.35684 0.0
C2349 C 0.83156 0.37945 0.34655 0.0
C2350 C 0.8187 0.40033 0.35348 0.0
C2351 C 0.81852 0.40347 0.33978 0.0
C2352 C 0.82514 0.39465 0.32954 0.0
H2353 H 0.78749 0.46802 0.29494 0.0
H2354 H 0.79772 0.44751 0.30252 0.0
C2355 C 0.83158 0.38278 0.33289 0.0
C2356 C 0.8117 0.4161 0.33614 0.0
H2357 H 0.78477 0.42414 0.31747 0.0
C2358 C 0.8178 0.43092 0.34088 0.0
C2359 C 0.79953 0.41365 0.3277 0.0
C2360 C 0.79212 0.39797 0.32271 0.0
C2361 C 0.81237 0.44335 0.3371 0.0
C2362 C 0.80026 0.44091 0.32857 0.0
C2363 C 0.79406 0.42606 0.32397 0.0
C2364 C 0.79402 0.45357 0.32409 0.0
C2365 C 0.82001 0.45901 0.34189 0.0
C2366 C 0.7883 0.46379 0.33365 0.0
C2367 C 0.78255 0.4757 0.32934 0.0
C2368 C 0.78225 0.47764 0.31534 0.0
C2369 C 0.78774 0.46717 0.30579 0.0
C2370 C 0.79352 0.4553 0.31012 0.0
H2371 H 0.83137 0.45913 0.34506 0.0
H2372 H 0.82082 0.46689 0.33376 0.0
H2373 H 0.8135 0.46326 0.35085 0.0
H2374 H 0.78822 0.46254 0.34448 0.0
H2375 H 0.77852 0.48348 0.33704 0.0
H2376 H 0.1865 0.64462 0.70521 0.0
H2377 H 0.1941 0.62474 0.71671 0.0
H2378 H 0.2376 0.63436 0.69607 0.0
H2379 H 0.23011 0.65433 0.68462 0.0
H2380 H 0.20459 0.59879 0.70525 0.0
H2381 H 0.24688 0.63609 0.73632 0.0
H2382 H 0.23314 0.64318 0.72797 0.0
H2383 H 0.24932 0.63857 0.71835 0.0
C2384 C 0.1977 0.64255 0.70315 0.0
C2385 C 0.20776 0.65112 0.69406 0.0
C2386 C 0.20202 0.63116 0.70972 0.0
C2387 C 0.2165 0.6282 0.70743 0.0
C2388 C 0.22648 0.63662 0.69822 0.0
H2389 H 0.26557 0.56536 0.73553 0.0
H2390 H 0.25716 0.58512 0.72471 0.0
C2391 C 0.22216 0.64798 0.69163 0.0
C2392 C 0.22109 0.61614 0.71447 0.0
H2393 H 0.24611 0.60978 0.73615 0.0
C2394 C 0.2136 0.60119 0.71207 0.0
C2395 C 0.23288 0.61927 0.72335 0.0
C2396 C 0.24096 0.63516 0.72678 0.0
C2397 C 0.21781 0.58926 0.71804 0.0
C2398 C 0.22964 0.59239 0.7269 0.0
C2399 C 0.23706 0.60736 0.72935 0.0
C2400 C 0.23464 0.58029 0.73359 0.0
C2401 C 0.20982 0.57337 0.71448 0.0
C2402 C 0.22486 0.57108 0.74237 0.0
C2403 C 0.22965 0.55974 0.74862 0.0
C2404 C 0.24439 0.55745 0.74634 0.0
C2405 C 0.2542 0.56685 0.73768 0.0
C2406 C 0.24939 0.57814 0.73141 0.0
H2407 H 0.20396 0.57249 0.70491 0.0
H2408 H 0.21767 0.56539 0.71326 0.0
H2409 H 0.20141 0.56985 0.72284 0.0
H2410 H 0.21353 0.57274 0.7445 0.0
H2411 H 0.22185 0.55293 0.75539 0.0
H2412 H 0.20197 0.35041 0.31061 0.0
H2413 H 0.21356 0.37257 0.29859 0.0
H2414 H 0.21403 0.4002 0.33669 0.0
H2415 H 0.20285 0.37789 0.3488 0.0
H2416 H 0.20157 0.39628 0.29633 0.0
H2417 H 0.25508 0.41549 0.32056 0.0
H2418 H 0.24369 0.3972 0.32282 0.0
H2419 H 0.23939 0.41367 0.33272 0.0
C2420 C 0.20483 0.36118 0.31643 0.0
C2421 C 0.20157 0.36248 0.33061 0.0
C2422 C 0.21141 0.37383 0.30957 0.0
C2423 C 0.21479 0.38806 0.31673 0.0
C2424 C 0.21187 0.38931 0.33098 0.0
H2425 H 0.22196 0.4722 0.27859 0.0
H2426 H 0.21386 0.44988 0.2914 0.0
C2427 C 0.20545 0.37659 0.33788 0.0
C2428 C 0.22017 0.40164 0.30908 0.0
H2429 H 0.2477 0.43273 0.30676 0.0
C2430 C 0.21171 0.4042 0.29856 0.0
C2431 C 0.23348 0.41191 0.3119 0.0
C2432 C 0.24352 0.40937 0.32252 0.0
C2433 C 0.21609 0.41675 0.29086 0.0
C2434 C 0.22907 0.42732 0.29402 0.0
C2435 C 0.23765 0.42471 0.30444 0.0
C2436 C 0.23406 0.44105 0.2865 0.0
C2437 C 0.2069 0.41834 0.27921 0.0
C2438 C 0.24827 0.44376 0.27982 0.0
C2439 C 0.25297 0.45659 0.27262 0.0
C2440 C 0.24354 0.46695 0.27193 0.0
C2441 C 0.22936 0.46428 0.27871 0.0
C2442 C 0.22472 0.45152 0.28603 0.0
H2443 H 0.20015 0.40734 0.27563 0.0
H2444 H 0.19915 0.42607 0.28272 0.0
H2445 H 0.21404 0.42306 0.27042 0.0
H2446 H 0.25568 0.43585 0.28006 0.0
H2447 H 0.26391 0.4583 0.26742 0.0
H2448 H 0.17105 0.68017 0.30256 0.0
H2449 H 0.15025 0.68981 0.29486 0.0
H2450 H 0.13867 0.70467 0.33645 0.0
H2451 H 0.15972 0.69529 0.34416 0.0
H2452 H 0.121 0.6821 0.30041 0.0
H2453 H 0.13887 0.74238 0.31759 0.0
H2454 H 0.151 0.7289 0.31721 0.0
H2455 H 0.13719 0.72999 0.33106 0.0
C2456 C 0.16412 0.68557 0.31007 0.0
C2457 C 0.16713 0.68703 0.32396 0.0
C2458 C 0.15219 0.69107 0.30565 0.0
C2459 C 0.14292 0.69822 0.315 0.0
C2460 C 0.14581 0.69955 0.32895 0.0
H2461 H 0.05489 0.71175 0.29635 0.0
H2462 H 0.07574 0.70307 0.30488 0.0
C2463 C 0.15782 0.69408 0.33337 0.0
C2464 C 0.13008 0.70384 0.31008 0.0
H2465 H 0.1147 0.73525 0.30933 0.0
C2466 C 0.11966 0.69373 0.30238 0.0
C2467 C 0.12834 0.71908 0.3124 0.0
C2468 C 0.13951 0.73077 0.3199 0.0
C2469 C 0.10758 0.69834 0.29709 0.0
C2470 C 0.10558 0.71347 0.29977 0.0
C2471 C 0.11608 0.72363 0.30734 0.0
C2472 C 0.09276 0.71898 0.29469 0.0
C2473 C 0.0973 0.687 0.28838 0.0
C2474 C 0.09521 0.73116 0.2864 0.0
C2475 C 0.08323 0.73623 0.28151 0.0
C2476 C 0.06844 0.72927 0.28481 0.0
C2477 C 0.06605 0.71721 0.29328 0.0
C2478 C 0.07802 0.7122 0.2982 0.0
H2479 H 0.10266 0.67748 0.28405 0.0
H2480 H 0.08729 0.68226 0.29476 0.0
H2481 H 0.09367 0.69231 0.27983 0.0
H2482 H 0.10644 0.73665 0.28355 0.0
H2483 H 0.08558 0.74547 0.27498 0.0
H2484 H 0.83756 0.67338 0.32944 0.0
H2485 H 0.82932 0.64749 0.31998 0.0
H2486 H 0.86324 0.65426 0.28718 0.0
H2487 H 0.8714 0.68031 0.2964 0.0
H2488 H 0.8195 0.63818 0.2928 0.0
H2489 H 0.86878 0.61508 0.30388 0.0
H2490 H 0.8646 0.63242 0.31236 0.0
H2491 H 0.87239 0.63207 0.29508 0.0
C2492 C 0.84321 0.66943 0.32015 0.0
C2493 C 0.85514 0.67895 0.31368 0.0
C2494 C 0.83854 0.6546 0.31482 0.0
C2495 C 0.84577 0.64895 0.30298 0.0
C2496 C 0.85768 0.65835 0.29646 0.0
H2497 H 0.80775 0.56496 0.25676 0.0
H2498 H 0.82107 0.59064 0.2624 0.0
C2499 C 0.86233 0.67322 0.30177 0.0
C2500 C 0.84051 0.6333 0.29731 0.0
H2501 H 0.84989 0.59847 0.29225 0.0
C2502 C 0.82616 0.62951 0.29258 0.0
C2503 C 0.84924 0.62204 0.29714 0.0
C2504 C 0.86458 0.62549 0.30246 0.0
C2505 C 0.82021 0.61468 0.2878 0.0
C2506 C 0.82892 0.6034 0.28764 0.0
C2507 C 0.84333 0.60721 0.29227 0.0
C2508 C 0.82274 0.58741 0.28367 0.0
C2509 C 0.80447 0.61109 0.28338 0.0
C2510 C 0.81986 0.57696 0.29363 0.0
C2511 C 0.81229 0.56229 0.29045 0.0
C2512 C 0.80751 0.55781 0.27722 0.0
C2513 C 0.81122 0.56806 0.26705 0.0
C2514 C 0.81876 0.58276 0.27027 0.0
H2515 H 0.79841 0.62047 0.2864 0.0
H2516 H 0.80465 0.60899 0.2721 0.0
H2517 H 0.79822 0.60074 0.28787 0.0
H2518 H 0.82291 0.58034 0.30402 0.0
H2519 H 0.80969 0.55466 0.29851 0.0
H2520 H 0.88506 0.32369 0.37292 0.0
H2521 H 0.90368 0.31127 0.36003 0.0
H2522 H 0.8835 0.31427 0.3226 0.0
H2523 H 0.86444 0.32641 0.3355 0.0
H2524 H 0.89492 0.2826 0.34121 0.0
H2525 H 0.93061 0.33098 0.31654 0.0
H2526 H 0.91958 0.33362 0.33228 0.0
H2527 H 0.91069 0.32882 0.3165 0.0
C2528 C 0.8845 0.3217 0.36195 0.0
C2529 C 0.8731 0.3259 0.35528 0.0
C2530 C 0.89524 0.31467 0.35459 0.0
C2531 C 0.89497 0.31186 0.34038 0.0
C2532 C 0.88395 0.31646 0.33357 0.0
H2533 H 0.95683 0.26944 0.28459 0.0
H2534 H 0.9372 0.28295 0.29403 0.0
C2535 C 0.8731 0.32344 0.34095 0.0
C2536 C 0.90577 0.30334 0.33293 0.0
H2537 H 0.93776 0.30734 0.31237 0.0
C2538 C 0.90425 0.28797 0.33484 0.0
C2539 C 0.91783 0.31035 0.32454 0.0
C2540 C 0.91993 0.32687 0.3223 0.0
C2541 C 0.91456 0.27943 0.32869 0.0
C2542 C 0.927 0.28656 0.32073 0.0
C2543 C 0.9283 0.30188 0.31853 0.0
C2544 C 0.93898 0.27842 0.31496 0.0
C2545 C 0.9119 0.2628 0.33069 0.0
C2546 C 0.9467 0.27157 0.32358 0.0
C2547 C 0.95786 0.2638 0.31821 0.0
C2548 C 0.96174 0.26287 0.3041 0.0
C2549 C 0.95419 0.27 0.2955 0.0
C2550 C 0.94293 0.27769 0.30088 0.0
H2551 H 0.89995 0.25828 0.33312 0.0
H2552 H 0.9157 0.25627 0.32145 0.0
H2553 H 0.91814 0.26099 0.3394 0.0
H2554 H 0.94419 0.27235 0.33452 0.0
H2555 H 0.96365 0.25875 0.32517 0.0
H2556 H 0.88404 0.41073 0.71355 0.0
H2557 H 0.87644 0.43378 0.72419 0.0
H2558 H 0.83052 0.41352 0.71927 0.0
H2559 H 0.838 0.39048 0.70872 0.0
H2560 H 0.83742 0.44158 0.71002 0.0
H2561 H 0.85744 0.4435 0.76193 0.0
H2562 H 0.87144 0.44195 0.74838 0.0
H2563 H 0.85578 0.42681 0.75024 0.0
C2564 C 0.87231 0.41106 0.71496 0.0
C2565 C 0.86166 0.39869 0.71019 0.0
C2566 C 0.86796 0.42428 0.72108 0.0
C2567 C 0.85286 0.42542 0.72269 0.0
C2568 C 0.84223 0.41299 0.71816 0.0
H2569 H 0.81026 0.49561 0.76715 0.0
H2570 H 0.81981 0.47242 0.7601 0.0
C2571 C 0.84655 0.39981 0.71206 0.0
C2572 C 0.84811 0.43978 0.72831 0.0
H2573 H 0.84904 0.46528 0.75629 0.0
C2574 C 0.83996 0.44672 0.72015 0.0
C2575 C 0.85124 0.44648 0.7416 0.0
C2576 C 0.85934 0.43926 0.75112 0.0
C2577 C 0.83505 0.46018 0.72478 0.0
C2578 C 0.83854 0.46713 0.73791 0.0
C2579 C 0.84648 0.46008 0.74618 0.0
C2580 C 0.83392 0.48165 0.74311 0.0
C2581 C 0.82591 0.46672 0.71564 0.0
C2582 C 0.83905 0.49476 0.73625 0.0
C2583 C 0.83365 0.50802 0.74027 0.0
C2584 C 0.82301 0.50857 0.75131 0.0
C2585 C 0.81845 0.49565 0.75863 0.0
C2586 C 0.82388 0.48235 0.75458 0.0
H2587 H 0.82105 0.45822 0.70757 0.0
H2588 H 0.81676 0.4712 0.72163 0.0
H2589 H 0.83313 0.47615 0.71053 0.0
H2590 H 0.84701 0.49463 0.72755 0.0
H2591 H 0.83751 0.51773 0.73442 0.0
H2592 H 0.20958 0.35205 0.75428 0.0
H2593 H 0.1857 0.34841 0.7676 0.0
H2594 H 0.16535 0.31952 0.73436 0.0
H2595 H 0.18897 0.32348 0.72074 0.0
H2596 H 0.15666 0.35424 0.75774 0.0
H2597 H 0.15603 0.29567 0.77063 0.0
H2598 H 0.173 0.30854 0.76621 0.0
H2599 H 0.16103 0.29959 0.75311 0.0
C2600 C 0.20001 0.345 0.74974 0.0
C2601 C 0.20123 0.33805 0.73642 0.0
C2602 C 0.18642 0.34288 0.7574 0.0
C2603 C 0.17386 0.33364 0.75196 0.0
C2604 C 0.17501 0.32657 0.73876 0.0
H2605 H 0.08025 0.31803 0.76723 0.0
H2606 H 0.10605 0.3272 0.7595 0.0
C2607 C 0.18855 0.32877 0.73104 0.0
C2608 C 0.15941 0.33156 0.75992 0.0
H2609 H 0.13364 0.305 0.77537 0.0
C2610 C 0.15165 0.34354 0.76174 0.0
C2611 C 0.15306 0.31764 0.7652 0.0
C2612 C 0.1612 0.30461 0.76382 0.0
C2613 C 0.13735 0.34175 0.76827 0.0
C2614 C 0.13072 0.32761 0.77303 0.0
C2615 C 0.13876 0.31583 0.77169 0.0
C2616 C 0.11509 0.32437 0.77852 0.0
C2617 C 0.12936 0.35489 0.7699 0.0
C2618 C 0.11162 0.31995 0.79185 0.0
C2619 C 0.09685 0.31475 0.79633 0.0
C2620 C 0.08536 0.31365 0.78745 0.0
C2621 C 0.08884 0.31874 0.77431 0.0
C2622 C 0.10358 0.32405 0.76989 0.0
H2623 H 0.13721 0.36579 0.76903 0.0
H2624 H 0.12144 0.35363 0.76174 0.0
H2625 H 0.12294 0.35524 0.77992 0.0
H2626 H 0.12038 0.32003 0.79861 0.0
H2627 H 0.09455 0.31084 0.80648 0.0
H2628 H 0.8951 0.69994 0.66432 0.0
H2629 H 0.91769 0.71309 0.67486 0.0
H2630 H 0.90206 0.75509 0.67631 0.0
H2631 H 0.87913 0.74189 0.66609 0.0
H2632 H 0.93987 0.73775 0.66709 0.0
H2633 H 0.90928 0.75105 0.7164 0.0
H2634 H 0.90081 0.73758 0.70334 0.0
H2635 H 0.90341 0.75741 0.70133 0.0
C2636 C 0.89644 0.71198 0.66689 0.0
C2637 C 0.88521 0.71983 0.66454 0.0
C2638 C 0.90942 0.7195 0.67282 0.0
C2639 C 0.91147 0.73503 0.67654 0.0
C2640 C 0.9006 0.74306 0.6737 0.0
H2641 H 0.98013 0.77869 0.73252 0.0
H2642 H 0.96205 0.7771 0.71508 0.0
C2643 C 0.88757 0.73552 0.66775 0.0
C2644 C 0.9247 0.74244 0.68401 0.0
H2645 H 0.93525 0.75691 0.71574 0.0
C2646 C 0.93888 0.74217 0.67767 0.0
C2647 C 0.92339 0.74829 0.69778 0.0
C2648 C 0.90844 0.74856 0.70521 0.0
C2649 C 0.95175 0.74699 0.6849 0.0
C2650 C 0.95038 0.75198 0.69889 0.0
C2651 C 0.93628 0.75311 0.705 0.0
C2652 C 0.963 0.75402 0.70785 0.0
C2653 C 0.96667 0.74635 0.67758 0.0
C2654 C 0.96967 0.74168 0.70943 0.0
C2655 C 0.97988 0.74254 0.71936 0.0
C2656 C 0.98363 0.75575 0.72798 0.0
C2657 C 0.97753 0.76839 0.72596 0.0
C2658 C 0.96717 0.76748 0.71604 0.0
H2659 H 0.96641 0.74758 0.66648 0.0
H2660 H 0.97552 0.75529 0.68188 0.0
H2661 H 0.96958 0.73523 0.6787 0.0
H2662 H 0.96641 0.73107 0.70346 0.0
H2663 H 0.98438 0.7326 0.72065 0.0
H2664 H 0.68922 0.1931 0.64968 0.0
H2665 H 0.70181 0.20254 0.62846 0.0
H2666 H 0.74428 0.20582 0.64537 0.0
H2667 H 0.73183 0.19647 0.66658 0.0
H2668 H 0.72089 0.22952 0.62407 0.0
H2669 H 0.74976 0.18168 0.60902 0.0
H2670 H 0.73484 0.18076 0.62215 0.0
H2671 H 0.75333 0.19021 0.6259 0.0
C2672 C 0.70124 0.1959 0.64892 0.0
C2673 C 0.70949 0.19389 0.65984 0.0
C2674 C 0.70843 0.20123 0.63674 0.0
C2675 C 0.72402 0.2046 0.63518 0.0
C2676 C 0.73227 0.20289 0.64615 0.0
H2677 H 0.78897 0.24356 0.573 0.0
H2678 H 0.77611 0.23155 0.59302 0.0
C2679 C 0.72511 0.19756 0.6583 0.0
C2680 C 0.73165 0.21031 0.62225 0.0
H2681 H 0.75706 0.20331 0.59634 0.0
C2682 C 0.72871 0.22372 0.61796 0.0
C2683 C 0.74191 0.20278 0.61427 0.0
C2684 C 0.74507 0.18799 0.61798 0.0
C2685 C 0.73596 0.22997 0.60612 0.0
C2686 C 0.74625 0.22248 0.59817 0.0
C2687 C 0.74917 0.20905 0.60243 0.0
C2688 C 0.75416 0.22853 0.58549 0.0
C2689 C 0.73282 0.24479 0.60243 0.0
C2690 C 0.74618 0.23034 0.57436 0.0
C2691 C 0.75349 0.23717 0.5629 0.0
C2692 C 0.76898 0.2423 0.56225 0.0
C2693 C 0.77704 0.23977 0.57312 0.0
C2694 C 0.7697 0.23293 0.58461 0.0
H2695 H 0.72764 0.25087 0.61124 0.0
H2696 H 0.74317 0.2522 0.59873 0.0
H2697 H 0.72501 0.24263 0.59412 0.0
H2698 H 0.73422 0.22673 0.57467 0.0
H2699 H 0.74691 0.23883 0.55471 0.0
H2700 H 0.31572 0.1992 0.6208 0.0
H2701 H 0.3079 0.21001 0.60127 0.0
H2702 H 0.35145 0.23778 0.5965 0.0
H2703 H 0.35938 0.22687 0.61584 0.0
H2704 H 0.30684 0.23962 0.59833 0.0
H2705 H 0.34491 0.21891 0.55784 0.0
H2706 H 0.34163 0.21147 0.57442 0.0
H2707 H 0.35442 0.22891 0.57213 0.0
C2708 C 0.32364 0.20754 0.61551 0.0
C2709 C 0.33815 0.21215 0.61981 0.0
C2710 C 0.31916 0.2137 0.60437 0.0
C2711 C 0.32916 0.22451 0.59727 0.0
C2712 C 0.34365 0.22919 0.60161 0.0
H2713 H 0.3293 0.28781 0.53892 0.0
H2714 H 0.3344 0.27063 0.55481 0.0
C2715 C 0.34814 0.22302 0.61274 0.0
C2716 C 0.32425 0.23143 0.58573 0.0
H2717 H 0.33299 0.23867 0.55234 0.0
C2718 C 0.31241 0.23923 0.58822 0.0
C2719 C 0.33149 0.23085 0.57253 0.0
C2720 C 0.34372 0.22196 0.56901 0.0
C2721 C 0.30807 0.24708 0.57804 0.0
C2722 C 0.31565 0.24693 0.56497 0.0
C2723 C 0.32719 0.23875 0.56237 0.0
C2724 C 0.31267 0.25632 0.55432 0.0
C2725 C 0.29588 0.25605 0.58151 0.0
C2726 C 0.29887 0.25371 0.54844 0.0
C2727 C 0.2959 0.26353 0.53925 0.0
C2728 C 0.3067 0.27612 0.53587 0.0
C2729 C 0.3207 0.27828 0.54136 0.0
C2730 C 0.32366 0.26845 0.55044 0.0
H2731 H 0.2929 0.25706 0.59267 0.0
H2732 H 0.29926 0.26755 0.57793 0.0
H2733 H 0.2858 0.25038 0.57627 0.0
H2734 H 0.2903 0.24427 0.55117 0.0
H2735 H 0.28501 0.26159 0.53522 0.0
H2736 H 0.38748 0.85651 0.65315 0.0
H2737 H 0.3768 0.84277 0.63261 0.0
H2738 H 0.3328 0.84555 0.64995 0.0
H2739 H 0.34338 0.85922 0.67057 0.0
H2740 H 0.35747 0.81555 0.62983 0.0
H2741 H 0.33182 0.8605 0.61244 0.0
H2742 H 0.34521 0.86418 0.62537 0.0
H2743 H 0.32616 0.85599 0.62966 0.0
C2744 C 0.37552 0.85418 0.65265 0.0
C2745 C 0.36633 0.85906 0.6636 0.0
C2746 C 0.36942 0.84636 0.64083 0.0
C2747 C 0.35398 0.84327 0.63957 0.0
C2748 C 0.34476 0.84808 0.65048 0.0
H2749 H 0.29754 0.79441 0.57587 0.0
H2750 H 0.30712 0.80862 0.59668 0.0
C2751 C 0.35085 0.85592 0.66231 0.0
C2752 C 0.34758 0.83461 0.62704 0.0
H2753 H 0.32612 0.83634 0.60054 0.0
C2754 C 0.35067 0.82014 0.62341 0.0
C2755 C 0.33861 0.84051 0.61864 0.0
C2756 C 0.33534 0.85619 0.62162 0.0
C2757 C 0.34495 0.81138 0.61178 0.0
C2758 C 0.33609 0.81732 0.60331 0.0
C2759 C 0.33289 0.83175 0.60699 0.0
C2760 C 0.33025 0.80883 0.59049 0.0
C2761 C 0.34821 0.79569 0.60883 0.0
C2762 C 0.34002 0.8044 0.57989 0.0
C2763 C 0.33458 0.79631 0.56794 0.0
C2764 C 0.31919 0.79248 0.56618 0.0
C2765 C 0.30944 0.79719 0.57673 0.0
C2766 C 0.31491 0.80529 0.58871 0.0
H2767 H 0.35138 0.79128 0.61812 0.0
H2768 H 0.33846 0.78776 0.60478 0.0
H2769 H 0.35765 0.79595 0.60105 0.0
H2770 H 0.35191 0.80731 0.58081 0.0
H2771 H 0.3425 0.79322 0.56 0.0
H2772 H 0.73378 0.81896 0.66431 0.0
H2773 H 0.73837 0.81898 0.63952 0.0
H2774 H 0.77627 0.85493 0.64479 0.0
H2775 H 0.77192 0.85475 0.66964 0.0
H2776 H 0.73852 0.84207 0.62328 0.0
H2777 H 0.79352 0.82471 0.6185 0.0
H2778 H 0.78156 0.82308 0.63392 0.0
H2779 H 0.79262 0.84102 0.6301 0.0
C2780 C 0.74317 0.82678 0.6602 0.0
C2781 C 0.75257 0.83682 0.66889 0.0
C2782 C 0.74576 0.8268 0.64603 0.0
C2783 C 0.75777 0.83682 0.64031 0.0
C2784 C 0.76714 0.84688 0.64898 0.0
H2785 H 0.78673 0.8516 0.55503 0.0
H2786 H 0.78297 0.85495 0.58 0.0
C2787 C 0.7646 0.84681 0.66315 0.0
C2788 C 0.76018 0.83702 0.62526 0.0
H2789 H 0.78511 0.83203 0.59845 0.0
C2790 C 0.74871 0.83987 0.61785 0.0
C2791 C 0.7735 0.8342 0.61821 0.0
C2792 C 0.78596 0.83044 0.62555 0.0
C2793 C 0.75019 0.83994 0.60357 0.0
C2794 C 0.76343 0.83698 0.59654 0.0
C2795 C 0.77501 0.83439 0.60393 0.0
C2796 C 0.76515 0.8356 0.58145 0.0
C2797 C 0.7376 0.84323 0.5961 0.0
C2798 C 0.75636 0.82364 0.57407 0.0
C2799 C 0.7585 0.8217 0.55989 0.0
C2800 C 0.76947 0.83169 0.5528 0.0
C2801 C 0.77809 0.84384 0.5602 0.0
C2802 C 0.77602 0.84571 0.57444 0.0
H2803 H 0.72986 0.84885 0.60304 0.0
H2804 H 0.74191 0.85049 0.58764 0.0
H2805 H 0.7312 0.83247 0.59162 0.0
H2806 H 0.74803 0.81562 0.57932 0.0
H2807 H 0.7516 0.81233 0.55446 0.0
H2808 H 0.66937 0.8294 0.39872 0.0
H2809 H 0.67658 0.82049 0.41954 0.0
H2810 H 0.7225 0.83909 0.40912 0.0
H2811 H 0.71536 0.84813 0.3884 0.0
H2812 H 0.69643 0.80088 0.4229 0.0
H2813 H 0.71519 0.85794 0.44802 0.0
H2814 H 0.70397 0.85466 0.4334 0.0
H2815 H 0.72367 0.85521 0.43116 0.0
C2816 C 0.681 0.83159 0.40087 0.0
C2817 C 0.69183 0.83955 0.39199 0.0
C2818 C 0.68509 0.82647 0.41275 0.0
C2819 C 0.70004 0.82932 0.41598 0.0
C2820 C 0.71087 0.83701 0.40697 0.0
H2821 H 0.74843 0.79106 0.47037 0.0
H2822 H 0.73501 0.79599 0.45137 0.0
C2823 C 0.70679 0.84211 0.39511 0.0
C2824 C 0.70441 0.82435 0.42876 0.0
H2825 H 0.72209 0.8375 0.45789 0.0
C2826 C 0.70192 0.80887 0.43063 0.0
C2827 C 0.71135 0.8348 0.43893 0.0
C2828 C 0.71359 0.85159 0.43788 0.0
C2829 C 0.70669 0.80355 0.44217 0.0
C2830 C 0.71433 0.81399 0.45199 0.0
C2831 C 0.71632 0.82948 0.45034 0.0
C2832 C 0.72095 0.8092 0.46377 0.0
C2833 C 0.7035 0.78683 0.44374 0.0
C2834 C 0.71749 0.81491 0.47713 0.0
C2835 C 0.72525 0.81221 0.48803 0.0
C2836 C 0.7367 0.80382 0.48579 0.0
C2837 C 0.73964 0.79751 0.4725 0.0
C2838 C 0.73191 0.80026 0.4616 0.0
H2839 H 0.6938 0.78103 0.43799 0.0
H2840 H 0.71328 0.78198 0.4396 0.0
H2841 H 0.70129 0.78444 0.45464 0.0
H2842 H 0.70911 0.82187 0.47905 0.0
H2843 H 0.72268 0.81724 0.49812 0.0
H2844 H 0.71366 0.22551 0.37573 0.0
H2845 H 0.721 0.23778 0.39795 0.0
H2846 H 0.71971 0.19434 0.41297 0.0
H2847 H 0.7125 0.18199 0.39068 0.0
H2848 H 0.70653 0.2362 0.42245 0.0
H2849 H 0.75947 0.21637 0.42503 0.0
H2850 H 0.7498 0.21426 0.40951 0.0
H2851 H 0.74398 0.2012 0.42245 0.0
C2852 C 0.71496 0.21854 0.38374 0.0
C2853 C 0.71248 0.20272 0.38136 0.0
C2854 C 0.71921 0.22559 0.39647 0.0
C2855 C 0.72113 0.21706 0.40719 0.0
C2856 C 0.7187 0.20126 0.40483 0.0
H2857 H 0.71949 0.24911 0.49363 0.0
H2858 H 0.7136 0.23767 0.47083 0.0
C2859 C 0.71453 0.19418 0.39206 0.0
C2860 C 0.72509 0.22472 0.4209 0.0
H2861 H 0.75008 0.22821 0.44556 0.0
C2862 C 0.7161 0.23447 0.42746 0.0
C2863 C 0.73769 0.22272 0.42745 0.0
C2864 C 0.74838 0.2132 0.4207 0.0
C2865 C 0.71918 0.24204 0.44035 0.0
C2866 C 0.73144 0.23957 0.44714 0.0
C2867 C 0.74059 0.23003 0.44049 0.0
C2868 C 0.73498 0.24678 0.4611 0.0
C2869 C 0.70942 0.25286 0.44643 0.0
C2870 C 0.74909 0.2555 0.46344 0.0
C2871 C 0.75254 0.26203 0.47656 0.0
C2872 C 0.74196 0.25999 0.48772 0.0
C2873 C 0.72783 0.25124 0.48532 0.0
C2874 C 0.72443 0.24466 0.47222 0.0
H2875 H 0.70363 0.25693 0.43844 0.0
H2876 H 0.70081 0.247 0.45364 0.0
H2877 H 0.71596 0.26277 0.45211 0.0
H2878 H 0.75747 0.25731 0.45509 0.0
H2879 H 0.76349 0.26874 0.47794 0.0
H2880 H 0.32453 0.25422 0.37721 0.0
H2881 H 0.3234 0.27095 0.39796 0.0
H2882 H 0.36276 0.30077 0.38328 0.0
H2883 H 0.36398 0.28396 0.36235 0.0
H2884 H 0.36397 0.292 0.40995 0.0
H2885 H 0.31218 0.31294 0.40467 0.0
H2886 H 0.30986 0.29284 0.40158 0.0
H2887 H 0.32222 0.30477 0.39032 0.0
C2888 C 0.33285 0.26442 0.37829 0.0
C2889 C 0.34439 0.2678 0.36819 0.0
C2890 C 0.33212 0.27403 0.39012 0.0
C2891 C 0.34288 0.28719 0.39206 0.0
C2892 C 0.35428 0.29073 0.3819 0.0
H2893 H 0.3274 0.33986 0.46954 0.0
H2894 H 0.33619 0.33554 0.44556 0.0
C2895 C 0.35496 0.28115 0.36998 0.0
C2896 C 0.34279 0.2964 0.40525 0.0
H2897 H 0.31994 0.31361 0.42762 0.0
C2898 C 0.35451 0.29704 0.41372 0.0
C2899 C 0.33055 0.30316 0.41007 0.0
C2900 C 0.31806 0.30355 0.40113 0.0
C2901 C 0.35376 0.30325 0.42728 0.0
C2902 C 0.34092 0.3088 0.43246 0.0
C2903 C 0.32974 0.30923 0.42366 0.0
C2904 C 0.33792 0.31234 0.44725 0.0
C2905 C 0.36646 0.3033 0.4361 0.0
C2906 C 0.33619 0.3008 0.45612 0.0
C2907 C 0.33113 0.30322 0.4697 0.0
C2908 C 0.32772 0.31722 0.47468 0.0
C2909 C 0.33012 0.32902 0.46598 0.0
C2910 C 0.33506 0.32655 0.4523 0.0
H2911 H 0.37706 0.30341 0.42983 0.0
H2912 H 0.36784 0.3132 0.44373 0.0
H2913 H 0.36416 0.29292 0.44167 0.0
H2914 H 0.33806 0.28967 0.45237 0.0
H2915 H 0.32942 0.29398 0.47623 0.0
H2916 H 0.30657 0.84949 0.39058 0.0
H2917 H 0.29659 0.84232 0.41341 0.0
H2918 H 0.34053 0.8393 0.42385 0.0
H2919 H 0.35059 0.84663 0.40122 0.0
H2920 H 0.29835 0.81529 0.42543 0.0
H2921 H 0.32559 0.86591 0.45614 0.0
H2922 H 0.32379 0.86567 0.43798 0.0
H2923 H 0.33822 0.85775 0.44425 0.0
C2924 C 0.31413 0.84748 0.39781 0.0
C2925 C 0.32938 0.84864 0.39407 0.0
C2926 C 0.3084 0.84333 0.41082 0.0
C2927 C 0.31784 0.84047 0.42041 0.0
C2928 C 0.33306 0.84169 0.41672 0.0
H2929 H 0.32044 0.80422 0.49548 0.0
H2930 H 0.32373 0.81767 0.47486 0.0
C2931 C 0.33878 0.84573 0.40371 0.0
C2932 C 0.31182 0.83554 0.43407 0.0
H2933 H 0.31604 0.84398 0.46823 0.0
C2934 C 0.30198 0.82167 0.43482 0.0
C2935 C 0.31653 0.84391 0.4463 0.0
C2936 C 0.3265 0.85921 0.44618 0.0
C2937 C 0.29748 0.8155 0.44742 0.0
C2938 C 0.30272 0.82358 0.45963 0.0
C2939 C 0.312 0.83778 0.45889 0.0
C2940 C 0.30028 0.81671 0.47299 0.0
C2941 C 0.28787 0.79999 0.44748 0.0
C2942 C 0.28597 0.81209 0.47915 0.0
C2943 C 0.28402 0.80433 0.49108 0.0
C2944 C 0.29637 0.80108 0.49699 0.0
C2945 C 0.31067 0.80643 0.49115 0.0
C2946 C 0.31259 0.81417 0.47935 0.0
H2947 H 0.28696 0.7942 0.43706 0.0
H2948 H 0.29238 0.79284 0.45405 0.0
H2949 H 0.27652 0.80097 0.45171 0.0
H2950 H 0.2763 0.81418 0.47458 0.0
H2951 H 0.27287 0.80033 0.49531 0.0
H2952 H 0.67486 0.19378 0.71788 0.0
H2953 H 0.65199 0.20103 0.72832 0.0
H2954 H 0.63497 0.19889 0.68849 0.0
H2955 H 0.6577 0.19127 0.67797 0.0
H2956 H 0.63917 0.22584 0.7244 0.0
H2957 H 0.60153 0.17192 0.70997 0.0
H2958 H 0.62148 0.17378 0.70907 0.0
H2959 H 0.6126 0.18066 0.69599 0.0
C2960 C 0.66621 0.19471 0.71132 0.0
C2961 C 0.66811 0.19179 0.69707 0.0
C2962 C 0.65316 0.19896 0.71732 0.0
C2963 C 0.64164 0.2003 0.70923 0.0
C2964 C 0.64358 0.19768 0.69498 0.0
H2965 H 0.56588 0.24353 0.73559 0.0
H2966 H 0.58868 0.2369 0.72451 0.0
C2967 C 0.65666 0.19348 0.68896 0.0
C2968 C 0.62767 0.20451 0.71577 0.0
H2969 H 0.59021 0.19179 0.72044 0.0
C2970 C 0.62846 0.2184 0.72352 0.0
C2971 C 0.6137 0.19472 0.71477 0.0
C2972 C 0.61221 0.17938 0.70711 0.0
C2973 C 0.6157 0.22284 0.73017 0.0
C2974 C 0.60169 0.2132 0.72893 0.0
C2975 C 0.60091 0.19923 0.7213 0.0
C2976 C 0.58775 0.21727 0.73569 0.0
C2977 C 0.61736 0.23769 0.7387 0.0
C2978 C 0.5794 0.20831 0.74551 0.0
C2979 C 0.56633 0.2121 0.75193 0.0
C2980 C 0.56119 0.22491 0.74863 0.0
C2981 C 0.56954 0.23377 0.73865 0.0
C2982 C 0.58263 0.22997 0.73225 0.0
H2983 H 0.62905 0.24196 0.74133 0.0
H2984 H 0.6139 0.24619 0.73287 0.0
H2985 H 0.6102 0.23663 0.74831 0.0
H2986 H 0.58311 0.19843 0.74832 0.0
H2987 H 0.56037 0.20505 0.75962 0.0
H2988 H 0.37482 0.16167 0.67031 0.0
H2989 H 0.36258 0.13831 0.68019 0.0
H2990 H 0.31993 0.15073 0.67797 0.0
H2991 H 0.33207 0.17424 0.66829 0.0
H2992 H 0.34415 0.13567 0.70464 0.0
H2993 H 0.31415 0.10735 0.65976 0.0
H2994 H 0.32942 0.12313 0.65841 0.0
H2995 H 0.31125 0.1262 0.66457 0.0
C2996 C 0.36284 0.15947 0.67196 0.0
C2997 C 0.35444 0.16986 0.66849 0.0
C2998 C 0.35586 0.14607 0.67754 0.0
C2999 C 0.34034 0.14269 0.67964 0.0
C3000 C 0.3319 0.15297 0.67616 0.0
H3001 H 0.27572 0.07319 0.71637 0.0
H3002 H 0.28911 0.09448 0.70418 0.0
C3003 C 0.33887 0.1664 0.67061 0.0
C3004 C 0.33304 0.12873 0.68604 0.0
H3005 H 0.30783 0.09605 0.68078 0.0
C3006 C 0.3363 0.12694 0.6994 0.0
C3007 C 0.32276 0.1174 0.67918 0.0
C3008 C 0.31925 0.11849 0.66464 0.0
C3009 C 0.32925 0.1143 0.70625 0.0
C3010 C 0.31892 0.10298 0.69941 0.0
C3011 C 0.31577 0.10472 0.68599 0.0
C3012 C 0.31088 0.08951 0.70619 0.0
C3013 C 0.33258 0.11345 0.72089 0.0
C3014 C 0.31864 0.0794 0.71109 0.0
C3015 C 0.311 0.06717 0.71808 0.0
C3016 C 0.29543 0.06473 0.72018 0.0
C3017 C 0.28768 0.0746 0.71483 0.0
C3018 C 0.29533 0.08685 0.70791 0.0
H3019 H 0.33774 0.12463 0.72565 0.0
H3020 H 0.32232 0.10905 0.72711 0.0
H3021 H 0.34048 0.10568 0.72121 0.0
H3022 H 0.33063 0.08102 0.70959 0.0
H3023 H 0.31728 0.05965 0.72186 0.0
H3024 H 0.42649 0.85074 0.69567 0.0
H3025 H 0.44765 0.84084 0.70249 0.0
H3026 H 0.44298 0.86281 0.74287 0.0
H3027 H 0.4218 0.87262 0.73614 0.0
H3028 H 0.47479 0.85644 0.71238 0.0
H3029 H 0.44362 0.8195 0.75091 0.0
H3030 H 0.43451 0.82733 0.73847 0.0
H3031 H 0.44109 0.83872 0.75347 0.0
C3032 C 0.42993 0.85341 0.70602 0.0
C3033 C 0.42238 0.8624 0.7154 0.0
C3034 C 0.44205 0.84776 0.7099 0.0
C3035 C 0.44681 0.85085 0.72328 0.0
C3036 C 0.43937 0.85997 0.73259 0.0
H3037 H 0.51712 0.82886 0.76801 0.0
H3038 H 0.49588 0.83804 0.76069 0.0
C3039 C 0.42731 0.86565 0.7287 0.0
C3040 C 0.45972 0.84484 0.72744 0.0
H3041 H 0.46994 0.82308 0.7503 0.0
C3042 C 0.47371 0.84906 0.72061 0.0
C3043 C 0.45837 0.83526 0.73823 0.0
C3044 C 0.44358 0.8298 0.74563 0.0
C3045 C 0.4864 0.84428 0.72446 0.0
C3046 C 0.48506 0.83469 0.73527 0.0
C3047 C 0.47104 0.83043 0.74205 0.0
C3048 C 0.49804 0.82898 0.73969 0.0
C3049 C 0.50121 0.84993 0.71716 0.0
C3050 C 0.50628 0.82056 0.73044 0.0
C3051 C 0.51847 0.81528 0.73461 0.0
C3052 C 0.52268 0.81812 0.7482 0.0
C3053 C 0.51423 0.82633 0.75751 0.0
C3054 C 0.50206 0.83165 0.75331 0.0
H3055 H 0.50112 0.86035 0.71208 0.0
H3056 H 0.51027 0.85229 0.72432 0.0
H3057 H 0.50372 0.84119 0.70915 0.0
H3058 H 0.50321 0.81793 0.71998 0.0
H3059 H 0.52444 0.80876 0.72719 0.0
H3060 H 0.73156 0.87597 0.71287 0.0
H3061 H 0.73338 0.9008 0.72527 0.0
H3062 H 0.73078 0.88046 0.76349 0.0
H3063 H 0.72962 0.85567 0.75115 0.0
H3064 H 0.71201 0.90945 0.74348 0.0
H3065 H 0.76503 0.91557 0.76865 0.0
H3066 H 0.75991 0.90149 0.75482 0.0
H3067 H 0.75218 0.89849 0.77191 0.0
C3068 C 0.73184 0.87682 0.72389 0.0
C3069 C 0.7305 0.86384 0.73103 0.0
C3070 C 0.73272 0.89101 0.73097 0.0
C3071 C 0.73232 0.8925 0.74529 0.0
C3072 C 0.73137 0.87962 0.75243 0.0
H3073 H 0.73022 0.97014 0.80438 0.0
H3074 H 0.7266 0.94428 0.79361 0.0
C3075 C 0.73057 0.86545 0.74537 0.0
C3076 C 0.73191 0.90736 0.75276 0.0
H3077 H 0.74991 0.93364 0.77585 0.0
C3078 C 0.72032 0.91476 0.75053 0.0
C3079 C 0.7427 0.91421 0.76202 0.0
C3080 C 0.75574 0.90712 0.76442 0.0
C3081 C 0.71925 0.92883 0.75731 0.0
C3082 C 0.73009 0.9357 0.76648 0.0
C3083 C 0.74155 0.92824 0.76888 0.0
C3084 C 0.7304 0.9511 0.77295 0.0
C3085 C 0.70651 0.93624 0.75466 0.0
C3086 C 0.73348 0.9634 0.76487 0.0
C3087 C 0.73557 0.97809 0.77098 0.0
C3088 C 0.73459 0.98074 0.78527 0.0
C3089 C 0.73085 0.9684 0.79334 0.0
C3090 C 0.72889 0.95367 0.78722 0.0
H3091 H 0.69724 0.92801 0.75012 0.0
H3092 H 0.70221 0.94179 0.76425 0.0
H3093 H 0.71048 0.94502 0.74739 0.0
H3094 H 0.73487 0.96165 0.75386 0.0
H3095 H 0.73839 0.98742 0.76455 0.0
H3096 H 0.6268 0.86377 0.3423 0.0
H3097 H 0.60369 0.85258 0.33164 0.0
H3098 H 0.61349 0.80823 0.33346 0.0
H3099 H 0.63697 0.81939 0.34368 0.0
H3100 H 0.60457 0.81284 0.30817 0.0
H3101 H 0.5656 0.83007 0.34985 0.0
H3102 H 0.57927 0.84535 0.34371 0.0
H3103 H 0.58503 0.8309 0.35216 0.0
C3104 C 0.62408 0.85163 0.3404 0.0
C3105 C 0.63376 0.84247 0.34382 0.0
C3106 C 0.61078 0.84525 0.33444 0.0
C3107 C 0.60679 0.82957 0.3319 0.0
C3108 C 0.61634 0.82037 0.33539 0.0
H3109 H 0.52383 0.77303 0.31498 0.0
H3110 H 0.54612 0.78819 0.32435 0.0
C3111 C 0.62969 0.82674 0.34134 0.0
C3112 C 0.59283 0.82279 0.32529 0.0
H3113 H 0.55509 0.8189 0.32931 0.0
C3114 C 0.59374 0.81418 0.31276 0.0
C3115 C 0.57874 0.82452 0.33134 0.0
C3116 C 0.57703 0.83309 0.34507 0.0
C3117 C 0.5809 0.80711 0.30618 0.0
C3118 C 0.56681 0.80894 0.31219 0.0
C3119 C 0.56592 0.81768 0.32464 0.0
C3120 C 0.55281 0.80062 0.30647 0.0
C3121 C 0.58251 0.7973 0.29313 0.0
C3122 C 0.54895 0.80282 0.29338 0.0
C3123 C 0.53612 0.79408 0.28791 0.0
C3124 C 0.52698 0.78306 0.2955 0.0
C3125 C 0.53065 0.78134 0.3088 0.0
C3126 C 0.5434 0.79003 0.31421 0.0
H3127 H 0.59386 0.79469 0.29134 0.0
H3128 H 0.57436 0.78653 0.29333 0.0
H3129 H 0.58031 0.80325 0.28437 0.0
H3130 H 0.55595 0.81115 0.28733 0.0
H3131 H 0.53357 0.79569 0.27766 0.0
H3132 H 0.71472 0.16948 0.32135 0.0
H3133 H 0.72565 0.14862 0.31026 0.0
H3134 H 0.72855 0.13235 0.34953 0.0
H3135 H 0.71696 0.15275 0.36066 0.0
H3136 H 0.75246 0.14138 0.31218 0.0
H3137 H 0.70911 0.09406 0.32924 0.0
H3138 H 0.70645 0.11334 0.33118 0.0
H3139 H 0.7171 0.10658 0.34301 0.0
C3140 C 0.7174 0.16134 0.32766 0.0
C3141 C 0.71478 0.16289 0.34197 0.0
C3142 C 0.72381 0.14943 0.32128 0.0
C3143 C 0.72778 0.13866 0.32897 0.0
C3144 C 0.72533 0.14024 0.34326 0.0
H3145 H 0.76688 0.05796 0.30014 0.0
H3146 H 0.75992 0.07925 0.31506 0.0
C3147 C 0.71886 0.15211 0.34966 0.0
C3148 C 0.73477 0.12606 0.32201 0.0
H3149 H 0.73063 0.08757 0.31732 0.0
C3150 C 0.74766 0.12963 0.31336 0.0
C3151 C 0.72866 0.11063 0.32353 0.0
C3152 C 0.7145 0.10587 0.33214 0.0
C3153 C 0.75446 0.11833 0.30616 0.0
C3154 C 0.7482 0.10294 0.30747 0.0
C3155 C 0.73555 0.09934 0.31638 0.0
C3156 C 0.75365 0.09055 0.29861 0.0
C3157 C 0.76832 0.12299 0.29713 0.0
C3158 C 0.75258 0.08981 0.28443 0.0
C3159 C 0.75644 0.07772 0.276 0.0
C3160 C 0.76159 0.06599 0.28144 0.0
C3161 C 0.76316 0.0669 0.2956 0.0
C3162 C 0.75907 0.07901 0.30413 0.0
H3163 H 0.77414 0.13459 0.30026 0.0
H3164 H 0.77613 0.1151 0.29736 0.0
H3165 H 0.76522 0.12285 0.28645 0.0
H3166 H 0.74825 0.09837 0.27988 0.0
H3167 H 0.75504 0.07739 0.26514 0.0
H3168 H 0.37229 0.23874 0.31626 0.0
H3169 H 0.39617 0.23927 0.30327 0.0
H3170 H 0.39865 0.19595 0.31665 0.0
H3171 H 0.37496 0.19544 0.32993 0.0
H3172 H 0.42388 0.23668 0.31476 0.0
H3173 H 0.40597 0.19155 0.27402 0.0
H3174 H 0.39301 0.20129 0.2842 0.0
H3175 H 0.4006 0.18716 0.29136 0.0
C3176 C 0.37794 0.22936 0.31651 0.0
C3177 C 0.37169 0.21704 0.32412 0.0
C3178 C 0.39152 0.22964 0.30901 0.0
C3179 C 0.39902 0.21756 0.30888 0.0
C3180 C 0.39286 0.20524 0.31643 0.0
H3181 H 0.48458 0.20348 0.27008 0.0
H3182 H 0.45975 0.19988 0.28191 0.0
C3183 C 0.37932 0.20498 0.32399 0.0
C3184 C 0.41363 0.2182 0.30132 0.0
H3185 H 0.43159 0.20211 0.2739 0.0
C3186 C 0.42559 0.22915 0.30582 0.0
C3187 C 0.41579 0.20822 0.28976 0.0
C3188 C 0.40318 0.19643 0.28443 0.0
C3189 C 0.43972 0.23042 0.29906 0.0
C3190 C 0.44182 0.22071 0.28728 0.0
C3191 C 0.42991 0.20957 0.2829 0.0
C3192 C 0.45624 0.22231 0.2792 0.0
C3193 C 0.45231 0.24202 0.30473 0.0
C3194 C 0.46219 0.23588 0.27337 0.0
C3195 C 0.4763 0.23796 0.26671 0.0
C3196 C 0.48466 0.22643 0.2656 0.0
C3197 C 0.47836 0.21253 0.27079 0.0
C3198 C 0.46423 0.21049 0.27757 0.0
H3199 H 0.44997 0.24535 0.31571 0.0
H3200 H 0.46289 0.23773 0.3036 0.0
H3201 H 0.4538 0.25228 0.29906 0.0
H3202 H 0.45602 0.24499 0.27418 0.0
H3203 H 0.48075 0.24866 0.26253 0.0
H3204 H 0.33719 0.89368 0.31596 0.0
H3205 H 0.32944 0.91585 0.3084 0.0
H3206 H 0.31442 0.92781 0.34978 0.0
H3207 H 0.32226 0.90579 0.3574 0.0
H3208 H 0.30125 0.92311 0.31037 0.0
H3209 H 0.34052 0.96719 0.33861 0.0
H3210 H 0.3428 0.94777 0.33614 0.0
H3211 H 0.32986 0.95347 0.3493 0.0
C3212 C 0.3323 0.90109 0.32344 0.0
C3213 C 0.33039 0.898 0.33727 0.0
C3214 C 0.32787 0.91375 0.31911 0.0
C3215 C 0.32155 0.92365 0.32854 0.0
C3216 C 0.31955 0.92053 0.34235 0.0
H3217 H 0.27705 0.99772 0.33101 0.0
H3218 H 0.29093 0.97829 0.33475 0.0
C3219 C 0.32396 0.90787 0.34669 0.0
C3220 C 0.31657 0.93694 0.32389 0.0
H3221 H 0.32033 0.97522 0.3294 0.0
C3222 C 0.30556 0.93453 0.31438 0.0
C3223 C 0.32224 0.95186 0.32907 0.0
C3224 C 0.33461 0.95529 0.33874 0.0
C3225 C 0.29955 0.94652 0.31044 0.0
C3226 C 0.3049 0.96139 0.31597 0.0
C3227 C 0.31625 0.96384 0.32514 0.0
C3228 C 0.29785 0.97428 0.31346 0.0
C3229 C 0.28702 0.94308 0.30092 0.0
C3230 C 0.29754 0.97895 0.30026 0.0
C3231 C 0.28958 0.9902 0.29807 0.0
C3232 C 0.28182 0.99692 0.30906 0.0
C3233 C 0.28284 0.99274 0.3223 0.0
C3234 C 0.29079 0.98161 0.32448 0.0
H3235 H 0.28229 0.93083 0.29969 0.0
H3236 H 0.27797 0.9492 0.30472 0.0
H3237 H 0.29124 0.94684 0.2907 0.0
H3238 H 0.30314 0.97365 0.29162 0.0
H3239 H 0.28896 0.99312 0.28774 0.0
H3240 H 0.7044 0.13821 0.71379 0.0
H3241 H 0.71253 0.11887 0.72558 0.0
H3242 H 0.75633 0.13002 0.70578 0.0
H3243 H 0.74831 0.14951 0.69407 0.0
H3244 H 0.72422 0.09353 0.71444 0.0
H3245 H 0.76487 0.13243 0.74623 0.0
H3246 H 0.75105 0.13892 0.73747 0.0
H3247 H 0.76744 0.13443 0.72818 0.0
C3248 C 0.71577 0.13659 0.71198 0.0
C3249 C 0.72576 0.14545 0.70307 0.0
C3250 C 0.7204 0.1255 0.7187 0.0
C3251 C 0.7351 0.12313 0.71672 0.0
C3252 C 0.74502 0.13184 0.70769 0.0
H3253 H 0.77792 0.06161 0.75784 0.0
H3254 H 0.77346 0.07892 0.74143 0.0
C3255 C 0.7404 0.14291 0.70095 0.0
C3256 C 0.73995 0.11141 0.72401 0.0
H3257 H 0.76321 0.10638 0.74793 0.0
C3258 C 0.73278 0.09634 0.72172 0.0
C3259 C 0.75123 0.11505 0.73343 0.0
C3260 C 0.75904 0.13109 0.7366 0.0
C3261 C 0.73644 0.08485 0.72871 0.0
C3262 C 0.74738 0.08855 0.73845 0.0
C3263 C 0.75488 0.10355 0.74043 0.0
C3264 C 0.75012 0.07734 0.74761 0.0
C3265 C 0.72851 0.06884 0.72562 0.0
C3266 C 0.73854 0.07075 0.75652 0.0
C3267 C 0.74106 0.06097 0.76584 0.0
C3268 C 0.75525 0.05754 0.76656 0.0
C3269 C 0.76685 0.06393 0.75747 0.0
C3270 C 0.76432 0.07386 0.74814 0.0
H3271 H 0.72426 0.06717 0.71523 0.0
H3272 H 0.73594 0.0607 0.72643 0.0
H3273 H 0.71886 0.06628 0.73308 0.0
H3274 H 0.72758 0.07349 0.75652 0.0
H3275 H 0.73185 0.0563 0.77268 0.0
H3276 H 0.65983 0.89364 0.34279 0.0
H3277 H 0.67314 0.91531 0.33104 0.0
H3278 H 0.71379 0.89816 0.33042 0.0
H3279 H 0.70042 0.87613 0.34187 0.0
H3280 H 0.69773 0.93743 0.33798 0.0
H3281 H 0.70964 0.9033 0.29 0.0
H3282 H 0.69642 0.89582 0.30334 0.0
H3283 H 0.716 0.89775 0.3052 0.0
C3284 C 0.6716 0.89444 0.34012 0.0
C3285 C 0.67904 0.88306 0.34309 0.0
C3286 C 0.6792 0.90688 0.33348 0.0
C3287 C 0.69438 0.9082 0.32964 0.0
C3288 C 0.70201 0.8972 0.33308 0.0
H3289 H 0.75242 0.97424 0.28108 0.0
H3290 H 0.74254 0.95352 0.29541 0.0
C3291 C 0.69439 0.88471 0.33974 0.0
C3292 C 0.702 0.92095 0.32176 0.0
H3293 H 0.71882 0.92946 0.29055 0.0
C3294 C 0.70239 0.93571 0.32763 0.0
C3295 C 0.70806 0.91864 0.30825 0.0
C3296 C 0.70744 0.90304 0.30124 0.0
C3297 C 0.70866 0.94824 0.32034 0.0
C3298 C 0.71446 0.94593 0.30675 0.0
C3299 C 0.71434 0.93118 0.30097 0.0
C3300 C 0.72044 0.95865 0.29824 0.0
C3301 C 0.70912 0.96385 0.32727 0.0
C3302 C 0.71122 0.96828 0.29492 0.0
C3303 C 0.71685 0.98017 0.28676 0.0
C3304 C 0.7318 0.98265 0.28175 0.0
C3305 C 0.74094 0.97283 0.28496 0.0
C3306 C 0.73529 0.96092 0.29309 0.0
H3307 H 0.70794 0.96369 0.33858 0.0
H3308 H 0.71968 0.97148 0.32441 0.0
H3309 H 0.6998 0.96856 0.32402 0.0
H3310 H 0.69964 0.96654 0.29858 0.0
H3311 H 0.70954 0.98755 0.28454 0.0
H3312 H 0.65022 0.18105 0.31415 0.0
H3313 H 0.63088 0.19267 0.30607 0.0
H3314 H 0.64572 0.23314 0.33164 0.0
H3315 H 0.66513 0.22155 0.33977 0.0
H3316 H 0.60759 0.20423 0.32223 0.0
H3317 H 0.64423 0.24868 0.29346 0.0
H3318 H 0.65069 0.23245 0.29832 0.0
H3319 H 0.64828 0.24755 0.31087 0.0
C3320 C 0.6494 0.19245 0.31802 0.0
C3321 C 0.65924 0.20035 0.32759 0.0
C3322 C 0.63832 0.19908 0.31341 0.0
C3323 C 0.63688 0.21386 0.31812 0.0
C3324 C 0.64671 0.22182 0.32768 0.0
H3325 H 0.57305 0.26427 0.28815 0.0
H3326 H 0.59196 0.25823 0.30216 0.0
C3327 C 0.65777 0.21514 0.33238 0.0
C3328 C 0.62484 0.22063 0.31319 0.0
H3329 H 0.61843 0.24744 0.29324 0.0
C3330 C 0.60998 0.21376 0.31599 0.0
C3331 C 0.62788 0.23319 0.30517 0.0
C3332 C 0.64362 0.2409 0.30165 0.0
C3333 C 0.59817 0.21883 0.31075 0.0
C3334 C 0.60122 0.2309 0.30215 0.0
C3335 C 0.61604 0.2382 0.29981 0.0
C3336 C 0.58938 0.23484 0.2943 0.0
C3337 C 0.58248 0.21105 0.31439 0.0
C3338 C 0.5817 0.22382 0.28518 0.0
C3339 C 0.57101 0.22722 0.27726 0.0
C3340 C 0.56767 0.24181 0.2781 0.0
C3341 C 0.57523 0.2529 0.28733 0.0
C3342 C 0.58609 0.24947 0.29529 0.0
H3343 H 0.58167 0.20602 0.32435 0.0
H3344 H 0.5746 0.21897 0.31491 0.0
H3345 H 0.57902 0.20178 0.30647 0.0
H3346 H 0.58418 0.21256 0.28395 0.0
H3347 H 0.56549 0.21834 0.27029 0.0
H3348 H 0.30344 0.19719 0.33674 0.0
H3349 H 0.28657 0.17263 0.33608 0.0
H3350 H 0.32239 0.15153 0.34552 0.0
H3351 H 0.33929 0.17593 0.34588 0.0
H3352 H 0.3091 0.13787 0.32344 0.0
H3353 H 0.26623 0.14528 0.36502 0.0
H3354 H 0.2689 0.15941 0.35298 0.0
H3355 H 0.28377 0.15822 0.36341 0.0
C3356 C 0.3076 0.18732 0.33889 0.0
C3357 C 0.32266 0.18839 0.34125 0.0
C3358 C 0.29795 0.17333 0.3386 0.0
C3359 C 0.30319 0.16027 0.3409 0.0
C3360 C 0.31812 0.16146 0.34373 0.0
H3361 H 0.25646 0.06763 0.34567 0.0
H3362 H 0.26817 0.09396 0.35151 0.0
C3363 C 0.32777 0.17537 0.34387 0.0
C3364 C 0.29364 0.14516 0.33899 0.0
H3365 H 0.26085 0.12326 0.34959 0.0
C3366 C 0.2986 0.13468 0.32923 0.0
C3367 C 0.27999 0.14096 0.34661 0.0
C3368 C 0.27445 0.1515 0.35769 0.0
C3369 C 0.29025 0.12017 0.32677 0.0
C3370 C 0.27635 0.11614 0.33401 0.0
C3371 C 0.27144 0.12649 0.34394 0.0
C3372 C 0.26697 0.1011 0.33133 0.0
C3373 C 0.29653 0.10921 0.31656 0.0
C3374 C 0.26184 0.09666 0.31827 0.0
C3375 C 0.25533 0.0817 0.31492 0.0
C3376 C 0.25362 0.07098 0.32463 0.0
C3377 C 0.25764 0.0757 0.33803 0.0
C3378 C 0.26433 0.09069 0.34135 0.0
H3379 H 0.30873 0.11268 0.31461 0.0
H3380 H 0.29418 0.09769 0.32014 0.0
H3381 H 0.2913 0.10877 0.30671 0.0
H3382 H 0.26352 0.10461 0.31048 0.0
H3383 H 0.25207 0.07836 0.30459 0.0
H3384 H 0.35095 0.81772 0.35824 0.0
H3385 H 0.36939 0.8037 0.34717 0.0
H3386 H 0.39551 0.84487 0.33309 0.0
H3387 H 0.37738 0.85909 0.34457 0.0
H3388 H 0.37937 0.80041 0.32014 0.0
H3389 H 0.42594 0.82798 0.35181 0.0
H3390 H 0.40695 0.8299 0.35633 0.0
H3391 H 0.41774 0.84085 0.34344 0.0
C3392 C 0.3607 0.82385 0.35292 0.0
C3393 C 0.36272 0.83959 0.35244 0.0
C3394 C 0.37119 0.81578 0.3465 0.0
C3395 C 0.38399 0.82324 0.33948 0.0
C3396 C 0.38589 0.83889 0.33868 0.0
H3397 H 0.46029 0.79245 0.29603 0.0
H3398 H 0.44168 0.80702 0.30569 0.0
C3399 C 0.3754 0.84699 0.34512 0.0
C3400 C 0.39524 0.81457 0.33296 0.0
H3401 H 0.43168 0.8113 0.3331 0.0
C3402 C 0.3908 0.80277 0.323 0.0
C3403 C 0.41017 0.81763 0.33668 0.0
C3404 C 0.4155 0.82968 0.34773 0.0
C3405 C 0.40089 0.7941 0.31656 0.0
C3406 C 0.41579 0.79714 0.32032 0.0
C3407 C 0.42026 0.80899 0.33021 0.0
C3408 C 0.4269 0.7881 0.31419 0.0
C3409 C 0.39556 0.78194 0.3056 0.0
C3410 C 0.42488 0.7726 0.31584 0.0
C3411 C 0.43549 0.76419 0.31027 0.0
C3412 C 0.44841 0.7711 0.30294 0.0
C3413 C 0.45041 0.78666 0.30138 0.0
C3414 C 0.43981 0.79506 0.30699 0.0
H3415 H 0.38516 0.78362 0.30145 0.0
H3416 H 0.40415 0.78158 0.29706 0.0
H3417 H 0.39326 0.77084 0.31002 0.0
H3418 H 0.41514 0.76702 0.32156 0.0
H3419 H 0.43351 0.75225 0.31162 0.0
H3420 H 0.38757 0.91331 0.70826 0.0
H3421 H 0.37683 0.93411 0.71989 0.0
H3422 H 0.33311 0.91081 0.70968 0.0
H3423 H 0.34361 0.88971 0.69866 0.0
H3424 H 0.36155 0.95316 0.71057 0.0
H3425 H 0.32554 0.92125 0.74968 0.0
H3426 H 0.33974 0.91352 0.73931 0.0
H3427 H 0.32183 0.91289 0.7328 0.0
C3428 C 0.37563 0.91245 0.70869 0.0
C3429 C 0.3665 0.89967 0.70252 0.0
C3430 C 0.3695 0.92446 0.71527 0.0
C3431 C 0.35409 0.92401 0.71594 0.0
C3432 C 0.34499 0.91136 0.70966 0.0
H3433 H 0.29082 0.98077 0.7329 0.0
H3434 H 0.30608 0.96187 0.72642 0.0
C3435 C 0.35107 0.89934 0.70314 0.0
C3436 C 0.3475 0.93688 0.72278 0.0
H3437 H 0.31971 0.94519 0.74571 0.0
C3438 C 0.35258 0.95145 0.71843 0.0
C3439 C 0.33585 0.93479 0.73316 0.0
C3440 C 0.33053 0.9198 0.73911 0.0
C3441 C 0.34583 0.96369 0.72361 0.0
C3442 C 0.33371 0.96138 0.73344 0.0
C3443 C 0.32899 0.94698 0.73816 0.0
C3444 C 0.32473 0.97326 0.73779 0.0
C3445 C 0.35121 0.9789 0.71809 0.0
C3446 C 0.33006 0.98604 0.74652 0.0
C3447 C 0.32122 0.997 0.7504 0.0
C3448 C 0.30696 0.99541 0.74551 0.0
C3449 C 0.30175 0.98253 0.73684 0.0
C3450 C 0.31046 0.97161 0.73311 0.0
H3451 H 0.36008 0.97864 0.70979 0.0
H3452 H 0.3418 0.9829 0.71412 0.0
H3453 H 0.35563 0.98719 0.72647 0.0
H3454 H 0.34102 0.98751 0.75035 0.0
H3455 H 0.32557 1.00675 0.75709 0.0
H3456 H 0.70459 0.81421 0.74697 0.0
H3457 H 0.67955 0.80542 0.75676 0.0
H3458 H 0.66253 0.80179 0.71676 0.0
H3459 H 0.68755 0.81099 0.70698 0.0
H3460 H 0.65258 0.82292 0.73425 0.0
H3461 H 0.6451 0.77017 0.76014 0.0
H3462 H 0.66189 0.78292 0.7644 0.0
H3463 H 0.65974 0.77506 0.74705 0.0
C3464 C 0.69559 0.81095 0.74019 0.0
C3465 C 0.69796 0.81353 0.72627 0.0
C3466 C 0.68128 0.80577 0.74578 0.0
C3467 C 0.66914 0.80295 0.7375 0.0
C3468 C 0.67175 0.80384 0.72332 0.0
H3469 H 0.58038 0.81861 0.76676 0.0
H3470 H 0.60033 0.81036 0.75179 0.0
C3471 C 0.68608 0.80905 0.71773 0.0
C3472 C 0.65403 0.80295 0.74393 0.0
H3473 H 0.62909 0.78768 0.76875 0.0
C3474 C 0.64725 0.81499 0.74154 0.0
C3475 C 0.64725 0.79277 0.75362 0.0
C3476 C 0.65382 0.77942 0.75636 0.0
C3477 C 0.63437 0.81767 0.74912 0.0
C3478 C 0.62777 0.80772 0.75907 0.0
C3479 C 0.63417 0.79529 0.76109 0.0
C3480 C 0.6149 0.81077 0.76814 0.0
C3481 C 0.62857 0.83172 0.74695 0.0
C3482 C 0.61623 0.8132 0.78231 0.0
C3483 C 0.60464 0.81747 0.79084 0.0
C3484 C 0.59151 0.81918 0.78532 0.0
C3485 C 0.59019 0.8168 0.77119 0.0
C3486 C 0.60167 0.81233 0.76267 0.0
H3487 H 0.63702 0.84 0.74154 0.0
H3488 H 0.61881 0.82861 0.74062 0.0
H3489 H 0.62505 0.83731 0.75684 0.0
H3490 H 0.62636 0.81213 0.78673 0.0
H3491 H 0.6059 0.81935 0.80174 0.0
H3492 H 0.39066 0.23648 0.67021 0.0
H3493 H 0.4136 0.24956 0.68053 0.0
H3494 H 0.42865 0.2073 0.67964 0.0
H3495 H 0.40603 0.19428 0.66911 0.0
H3496 H 0.42328 0.24427 0.70536 0.0
H3497 H 0.46514 0.23491 0.66372 0.0
H3498 H 0.4456 0.23259 0.66095 0.0
H3499 H 0.45277 0.21771 0.6675 0.0
C3500 C 0.399 0.23004 0.672 0.0
C3501 C 0.39652 0.21433 0.66886 0.0
C3502 C 0.41206 0.23752 0.67794 0.0
C3503 C 0.42296 0.22945 0.68065 0.0
C3504 C 0.42056 0.21382 0.67737 0.0
H3505 H 0.49217 0.22591 0.72783 0.0
H3506 H 0.47392 0.22458 0.71092 0.0
C3507 C 0.40753 0.20635 0.67151 0.0
C3508 C 0.43635 0.23699 0.68785 0.0
H3509 H 0.47399 0.2397 0.68652 0.0
C3510 C 0.43442 0.24365 0.70114 0.0
C3511 C 0.45087 0.23626 0.68228 0.0
C3512 C 0.45375 0.23012 0.66777 0.0
C3513 C 0.44651 0.24845 0.70941 0.0
C3514 C 0.4609 0.24672 0.70415 0.0
C3515 C 0.46295 0.241 0.69055 0.0
C3516 C 0.47339 0.24842 0.71319 0.0
C3517 C 0.44366 0.25433 0.72401 0.0
C3518 C 0.47956 0.26239 0.71979 0.0
C3519 C 0.49014 0.26321 0.72951 0.0
C3520 C 0.49457 0.25003 0.73278 0.0
C3521 C 0.4889 0.23625 0.72562 0.0
C3522 C 0.47849 0.23547 0.71591 0.0
H3523 H 0.43161 0.25339 0.72694 0.0
H3524 H 0.44855 0.24804 0.73108 0.0
H3525 H 0.44904 0.26637 0.72541 0.0
H3526 H 0.47588 0.27256 0.71771 0.0
H3527 H 0.49431 0.27397 0.73489 0.0
H3528 H 0.68709 0.72217 0.18064 0.0
H3529 H 0.69781 0.73463 0.16018 0.0
H3530 H 0.69871 0.6913 0.13841 0.0
H3531 H 0.68848 0.67881 0.15908 0.0
H3532 H 0.72312 0.71028 0.13179 0.0
H3533 H 0.67581 0.73883 0.12799 0.0
H3534 H 0.68417 0.74394 0.14401 0.0
H3535 H 0.67526 0.72471 0.13984 0.0
C3536 C 0.68959 0.71531 0.17148 0.0
C3537 C 0.68682 0.6995 0.17144 0.0
C3538 C 0.69562 0.72244 0.15975 0.0
C3539 C 0.6987 0.71394 0.14756 0.0
C3540 C 0.69634 0.69815 0.14762 0.0
H3541 H 0.71074 0.75202 0.06825 0.0
H3542 H 0.7015 0.73828 0.08839 0.0
C3543 C 0.69052 0.69101 0.15944 0.0
C3544 C 0.70439 0.72152 0.13481 0.0
H3545 H 0.69757 0.74711 0.11385 0.0
C3546 C 0.71747 0.71827 0.12783 0.0
C3547 C 0.69693 0.73175 0.12941 0.0
C3548 C 0.68219 0.73489 0.13562 0.0
C3549 C 0.7234 0.72512 0.11582 0.0
C3550 C 0.71635 0.73594 0.11083 0.0
C3551 C 0.70314 0.73899 0.1177 0.0
C3552 C 0.72224 0.74405 0.0984 0.0
C3553 C 0.73695 0.72033 0.10845 0.0
C3554 C 0.73696 0.75204 0.09724 0.0
C3555 C 0.74231 0.75973 0.08561 0.0
C3556 C 0.73297 0.75993 0.07501 0.0
C3557 C 0.71818 0.75217 0.07628 0.0
C3558 C 0.71291 0.74428 0.08779 0.0
H3559 H 0.73799 0.70888 0.11089 0.0
H3560 H 0.73661 0.72035 0.09721 0.0
H3561 H 0.74705 0.72827 0.11175 0.0
H3562 H 0.74429 0.75252 0.10541 0.0
H3563 H 0.75368 0.76581 0.08504 0.0
H3564 H 0.29059 0.69935 0.12948 0.0
H3565 H 0.28101 0.70863 0.10996 0.0
H3566 H 0.32553 0.72969 0.09714 0.0
H3567 H 0.33516 0.72047 0.11657 0.0
H3568 H 0.28437 0.73944 0.10356 0.0
H3569 H 0.30929 0.7044 0.06243 0.0
H3570 H 0.30725 0.69998 0.08008 0.0
H3571 H 0.32222 0.7144 0.0744 0.0
C3572 C 0.29831 0.70593 0.12246 0.0
C3573 C 0.31359 0.70918 0.12454 0.0
C3574 C 0.29284 0.71121 0.11134 0.0
C3575 C 0.30259 0.71966 0.10202 0.0
C3576 C 0.31786 0.72296 0.1041 0.0
H3577 H 0.30447 0.77241 0.0356 0.0
H3578 H 0.30829 0.75629 0.05294 0.0
C3579 C 0.32333 0.71776 0.11525 0.0
C3580 C 0.29682 0.72549 0.09034 0.0
H3581 H 0.29996 0.72518 0.05556 0.0
C3582 C 0.28756 0.73617 0.09304 0.0
C3583 C 0.30098 0.72115 0.07666 0.0
C3584 C 0.31037 0.70925 0.07317 0.0
C3585 C 0.28302 0.74325 0.08242 0.0
C3586 C 0.28762 0.73928 0.06875 0.0
C3587 C 0.2964 0.72816 0.06604 0.0
C3588 C 0.2849 0.74772 0.05728 0.0
C3589 C 0.27404 0.75551 0.08597 0.0
C3590 C 0.27046 0.74788 0.05362 0.0
C3591 C 0.26821 0.75712 0.0436 0.0
C3592 C 0.2804 0.76634 0.03718 0.0
C3593 C 0.29484 0.76553 0.04043 0.0
C3594 C 0.29705 0.7563 0.05033 0.0
H3595 H 0.27356 0.75895 0.09709 0.0
H3596 H 0.27881 0.76559 0.08036 0.0
H3597 H 0.26251 0.75137 0.0829 0.0
H3598 H 0.26093 0.74114 0.05872 0.0
H3599 H 0.25697 0.75754 0.04133 0.0
H3600 H 0.38524 0.33875 0.15253 0.0
H3601 H 0.37461 0.32668 0.13131 0.0
H3602 H 0.33133 0.33406 0.14701 0.0
H3603 H 0.34169 0.34571 0.16838 0.0
H3604 H 0.3495 0.3008 0.12691 0.0
H3605 H 0.33939 0.35439 0.1099 0.0
H3606 H 0.35211 0.35385 0.12285 0.0
H3607 H 0.33244 0.35065 0.12706 0.0
C3608 C 0.37341 0.33765 0.1516 0.0
C3609 C 0.3644 0.34339 0.16226 0.0
C3610 C 0.36737 0.33078 0.13939 0.0
C3611 C 0.3522 0.3296 0.13747 0.0
C3612 C 0.34312 0.33504 0.14815 0.0
H3613 H 0.28746 0.30219 0.07881 0.0
H3614 H 0.30279 0.31089 0.09796 0.0
C3615 C 0.34911 0.3418 0.16037 0.0
C3616 C 0.3458 0.32303 0.12426 0.0
H3617 H 0.32814 0.33183 0.09769 0.0
C3618 C 0.34497 0.30759 0.12042 0.0
C3619 C 0.33998 0.3319 0.11573 0.0
C3620 C 0.34111 0.34865 0.11898 0.0
C3621 C 0.33776 0.30065 0.10867 0.0
C3622 C 0.33148 0.30946 0.10039 0.0
C3623 C 0.33288 0.32502 0.104 0.0
C3624 C 0.32215 0.30275 0.08873 0.0
C3625 C 0.33633 0.28386 0.10557 0.0
C3626 C 0.32775 0.29492 0.07705 0.0
C3627 C 0.31882 0.28973 0.0659 0.0
C3628 C 0.30424 0.29248 0.06621 0.0
C3629 C 0.29868 0.29998 0.07807 0.0
C3630 C 0.30746 0.305 0.08911 0.0
H3631 H 0.33916 0.27829 0.11433 0.0
H3632 H 0.32485 0.27867 0.10288 0.0
H3633 H 0.34401 0.28163 0.09668 0.0
H3634 H 0.33912 0.2932 0.07637 0.0
H3635 H 0.32348 0.28407 0.05692 0.0
H3636 H 0.78287 0.32604 0.16588 0.0
H3637 H 0.79213 0.32732 0.14197 0.0
H3638 H 0.75965 0.28791 0.13069 0.0
H3639 H 0.75029 0.28648 0.15469 0.0
H3640 H 0.79986 0.29948 0.12023 0.0
H3641 H 0.75395 0.32897 0.11136 0.0
H3642 H 0.76133 0.33006 0.12797 0.0
H3643 H 0.75005 0.31288 0.12144 0.0
C3644 C 0.77784 0.3175 0.15836 0.0
C3645 C 0.76576 0.30622 0.16208 0.0
C3646 C 0.78318 0.31823 0.14473 0.0
C3647 C 0.7765 0.30776 0.13466 0.0
C3648 C 0.76492 0.29607 0.1384 0.0
H3649 H 0.77993 0.30728 0.04694 0.0
H3650 H 0.77334 0.30364 0.07105 0.0
C3651 C 0.75961 0.29526 0.15206 0.0
C3652 C 0.78076 0.3099 0.12014 0.0
H3653 H 0.7706 0.32495 0.09267 0.0
C3654 C 0.79351 0.30502 0.11415 0.0
C3655 C 0.77237 0.31713 0.11236 0.0
C3656 C 0.75866 0.32265 0.11853 0.0
C3657 C 0.79804 0.30708 0.10039 0.0
C3658 C 0.78975 0.31453 0.09264 0.0
C3659 C 0.77697 0.31934 0.09868 0.0
C3660 C 0.79386 0.31704 0.07811 0.0
C3661 C 0.81143 0.30101 0.09419 0.0
C3662 C 0.80745 0.32607 0.07414 0.0
C3663 C 0.81128 0.32814 0.06032 0.0
C3664 C 0.80155 0.32121 0.05029 0.0
C3665 C 0.78776 0.31256 0.0544 0.0
C3666 C 0.78395 0.31052 0.06817 0.0
H3667 H 0.81422 0.2924 0.10036 0.0
H3668 H 0.80956 0.29591 0.08364 0.0
H3669 H 0.82115 0.3104 0.0937 0.0
H3670 H 0.81512 0.33144 0.08171 0.0
H3671 H 0.822 0.33478 0.05748 0.0
H3672 H 0.6979 0.32962 0.89417 0.0
H3673 H 0.70757 0.3204 0.91366 0.0
H3674 H 0.75184 0.34279 0.90146 0.0
H3675 H 0.74229 0.35177 0.88189 0.0
H3676 H 0.75097 0.31388 0.90844 0.0
H3677 H 0.72087 0.34593 0.94842 0.0
H3678 H 0.70944 0.33363 0.93649 0.0
H3679 H 0.72225 0.3497 0.93065 0.0
C3680 C 0.70969 0.33255 0.89565 0.0
C3681 C 0.71937 0.34147 0.88655 0.0
C3682 C 0.71519 0.32734 0.90683 0.0
C3683 C 0.73041 0.33107 0.90913 0.0
C3684 C 0.74006 0.33978 0.89991 0.0
H3685 H 0.78255 0.33874 0.97733 0.0
H3686 H 0.76652 0.34102 0.95938 0.0
C3687 C 0.7346 0.34494 0.88875 0.0
C3688 C 0.73646 0.3261 0.92113 0.0
H3689 H 0.73638 0.33094 0.95595 0.0
C3690 C 0.74768 0.31746 0.91884 0.0
C3691 C 0.73221 0.33088 0.9347 0.0
C3692 C 0.72062 0.34065 0.93778 0.0
C3693 C 0.75507 0.31385 0.92969 0.0
C3694 C 0.75094 0.31879 0.94324 0.0
C3695 C 0.73942 0.32705 0.94557 0.0
C3696 C 0.75954 0.31699 0.95494 0.0
C3697 C 0.76774 0.30545 0.9265 0.0
C3698 C 0.76065 0.30269 0.9587 0.0
C3699 C 0.7699 0.30133 0.96901 0.0
C3700 C 0.77814 0.31427 0.97574 0.0
C3701 C 0.77645 0.32854 0.97232 0.0
C3702 C 0.76725 0.32987 0.96207 0.0
H3703 H 0.7713 0.30496 0.91546 0.0
H3704 H 0.77746 0.31086 0.93239 0.0
H3705 H 0.76418 0.29373 0.92947 0.0
H3706 H 0.75459 0.2926 0.95349 0.0
H3707 H 0.77092 0.29018 0.97142 0.0
H3708 H 0.75911 0.70656 0.88561 0.0
H3709 H 0.76626 0.71496 0.90895 0.0
H3710 H 0.72082 0.71786 0.92131 0.0
H3711 H 0.71355 0.70931 0.89808 0.0
H3712 H 0.7624 0.74232 0.92526 0.0
H3713 H 0.73247 0.69105 0.9491 0.0
H3714 H 0.73669 0.69145 0.93091 0.0
H3715 H 0.72132 0.6993 0.93885 0.0
C3716 C 0.7506 0.70889 0.89331 0.0
C3717 C 0.73572 0.70717 0.88993 0.0
C3718 C 0.75474 0.71377 0.90665 0.0
C3719 C 0.74407 0.71686 0.91696 0.0
C3720 C 0.72924 0.71534 0.9136 0.0
H3721 H 0.73518 0.74907 1.00041 0.0
H3722 H 0.73327 0.73721 0.9773 0.0
C3723 C 0.72512 0.71058 0.90025 0.0
C3724 C 0.74837 0.7218 0.93122 0.0
H3725 H 0.7414 0.7123 0.96422 0.0
C3726 C 0.75797 0.7357 0.93378 0.0
C3727 C 0.74265 0.71313 0.94234 0.0
C3728 C 0.73281 0.69783 0.94021 0.0
C3729 C 0.76137 0.74148 0.94719 0.0
C3730 C 0.75529 0.73298 0.95836 0.0
C3731 C 0.74611 0.71884 0.95572 0.0
C3732 C 0.75696 0.73917 0.9729 0.0
C3733 C 0.77082 0.75699 0.9493 0.0
C3734 C 0.77094 0.74385 0.97846 0.0
C3735 C 0.77209 0.75071 0.99187 0.0
C3736 C 0.75926 0.75297 0.99992 0.0
C3737 C 0.74532 0.74759 0.99451 0.0
C3738 C 0.74419 0.74077 0.98124 0.0
H3739 H 0.77204 0.76328 0.93999 0.0
H3740 H 0.766 0.76371 0.95787 0.0
H3741 H 0.78208 0.75591 0.95189 0.0
H3742 H 0.78098 0.74246 0.97237 0.0
H3743 H 0.783 0.75479 0.99569 0.0
H3744 H 0.31786 0.71498 0.87678 0.0
H3745 H 0.31064 0.72889 0.89797 0.0
H3746 H 0.33816 0.76972 0.88454 0.0
H3747 H 0.34557 0.75589 0.86349 0.0
H3748 H 0.34297 0.76442 0.91075 0.0
H3749 H 0.28272 0.75896 0.90442 0.0
H3750 H 0.28886 0.74124 0.90256 0.0
H3751 H 0.29568 0.75504 0.89045 0.0
C3752 C 0.32221 0.72696 0.87831 0.0
C3753 C 0.33227 0.73433 0.86853 0.0
C3754 C 0.31804 0.7349 0.89036 0.0
C3755 C 0.32374 0.75037 0.89273 0.0
C3756 C 0.33361 0.7578 0.88287 0.0
H3757 H 0.3137 0.81318 0.96469 0.0
H3758 H 0.32126 0.80246 0.94204 0.0
C3759 C 0.33782 0.74986 0.87085 0.0
C3760 C 0.32004 0.75863 0.90582 0.0
H3761 H 0.29101 0.76743 0.92666 0.0
C3762 C 0.33163 0.76523 0.91419 0.0
C3763 C 0.30524 0.75969 0.91023 0.0
C3764 C 0.29242 0.75348 0.90139 0.0
C3765 C 0.32876 0.7724 0.92709 0.0
C3766 C 0.31393 0.77312 0.93162 0.0
C3767 C 0.30237 0.7668 0.92314 0.0
C3768 C 0.31003 0.7797 0.94541 0.0
C3769 C 0.34154 0.77868 0.93596 0.0
C3770 C 0.30121 0.77046 0.95473 0.0
C3771 C 0.29691 0.77653 0.96758 0.0
C3772 C 0.30125 0.792 0.97138 0.0
C3773 C 0.31031 0.80121 0.96211 0.0
C3774 C 0.31461 0.79511 0.94918 0.0
H3775 H 0.35185 0.7746 0.9321 0.0
H3776 H 0.34383 0.79116 0.93615 0.0
H3777 H 0.33871 0.77556 0.94662 0.0
H3778 H 0.29762 0.75852 0.95202 0.0
H3779 H 0.29017 0.76907 0.97456 0.0
H3780 H 0.35004 0.36738 0.89457 0.0
H3781 H 0.33925 0.36089 0.91724 0.0
H3782 H 0.33675 0.3137 0.90475 0.0
H3783 H 0.34751 0.32009 0.88203 0.0
H3784 H 0.31206 0.34371 0.92453 0.0
H3785 H 0.35758 0.3181 0.94025 0.0
H3786 H 0.35972 0.32925 0.92571 0.0
H3787 H 0.35037 0.30988 0.92429 0.0
C3788 C 0.34716 0.35561 0.89662 0.0
C3789 C 0.34969 0.34426 0.88646 0.0
C3790 C 0.34104 0.35193 0.90962 0.0
C3791 C 0.33738 0.33683 0.91279 0.0
C3792 C 0.33981 0.32546 0.90266 0.0
H3793 H 0.29591 0.28948 0.98228 0.0
H3794 H 0.3072 0.29719 0.96019 0.0
C3795 C 0.34596 0.32913 0.88967 0.0
C3796 C 0.33063 0.33298 0.92656 0.0
H3797 H 0.33522 0.31488 0.95443 0.0
C3798 C 0.31718 0.33749 0.93111 0.0
C3799 C 0.33731 0.32489 0.93517 0.0
C3800 C 0.35211 0.32036 0.93119 0.0
C3801 C 0.31004 0.33381 0.94384 0.0
C3802 C 0.31664 0.32557 0.95237 0.0
C3803 C 0.33015 0.32117 0.94788 0.0
C3804 C 0.30957 0.3211 0.96586 0.0
C3805 C 0.29528 0.33838 0.9479 0.0
C3806 C 0.30718 0.33197 0.97648 0.0
C3807 C 0.30077 0.32759 0.98923 0.0
C3808 C 0.29672 0.31223 0.99164 0.0
C3809 C 0.29911 0.3014 0.98093 0.0
C3810 C 0.3055 0.30579 0.96823 0.0
H3811 H 0.29008 0.34142 0.93899 0.0
H3812 H 0.28745 0.32917 0.95278 0.0
H3813 H 0.29697 0.34837 0.95539 0.0
H3814 H 0.31047 0.34386 0.97499 0.0
H3815 H 0.29926 0.33622 0.99727 0.0
H3816 H 0.65155 0.69368 0.22894 0.0
H3817 H 0.62831 0.69998 0.23956 0.0
H3818 H 0.61242 0.70119 0.19972 0.0
H3819 H 0.63548 0.69456 0.18901 0.0
H3820 H 0.61549 0.72541 0.23684 0.0
H3821 H 0.57867 0.67223 0.21909 0.0
H3822 H 0.59862 0.67421 0.21868 0.0
H3823 H 0.59014 0.68184 0.20578 0.0
C3824 C 0.64306 0.69515 0.22243 0.0
C3825 C 0.64538 0.69353 0.20811 0.0
C3826 C 0.62981 0.69884 0.22852 0.0
C3827 C 0.61853 0.70085 0.22044 0.0
C3828 C 0.62087 0.69945 0.20616 0.0
H3829 H 0.54223 0.74299 0.24466 0.0
H3830 H 0.56565 0.73666 0.23487 0.0
C3831 C 0.63413 0.69582 0.20006 0.0
C3832 C 0.60439 0.70456 0.22697 0.0
H3833 H 0.56685 0.69168 0.22981 0.0
C3834 C 0.60486 0.71803 0.23533 0.0
C3835 C 0.59053 0.69483 0.22514 0.0
C3836 C 0.58939 0.67989 0.21679 0.0
C3837 C 0.59184 0.72216 0.24168 0.0
C3838 C 0.57793 0.71264 0.23952 0.0
C3839 C 0.57749 0.69903 0.23138 0.0
C3840 C 0.56372 0.71658 0.24564 0.0
C3841 C 0.59308 0.73658 0.25081 0.0
C3842 C 0.55465 0.70726 0.25479 0.0
C3843 C 0.54121 0.71087 0.26048 0.0
C3844 C 0.53646 0.72386 0.25707 0.0
C3845 C 0.54557 0.73308 0.24778 0.0
C3846 C 0.55901 0.72947 0.24213 0.0
H3847 H 0.60456 0.74059 0.25412 0.0
H3848 H 0.59012 0.74549 0.24513 0.0
H3849 H 0.58534 0.73507 0.26002 0.0
H3850 H 0.55805 0.69722 0.25762 0.0
H3851 H 0.53465 0.70356 0.26766 0.0
H3852 H 0.31312 0.66985 0.17156 0.0
H3853 H 0.30292 0.64527 0.18036 0.0
H3854 H 0.34651 0.63382 0.17592 0.0
H3855 H 0.35677 0.65827 0.16698 0.0
H3856 H 0.3218 0.6105 0.1657 0.0
H3857 H 0.3117 0.63395 0.21907 0.0
H3858 H 0.30457 0.64249 0.20586 0.0
H3859 H 0.32427 0.64436 0.20677 0.0
C3860 C 0.3205 0.66203 0.17234 0.0
C3861 C 0.33577 0.66602 0.16865 0.0
C3862 C 0.31468 0.64806 0.17745 0.0
C3863 C 0.32401 0.63783 0.1789 0.0
C3864 C 0.33916 0.64161 0.17493 0.0
H3865 H 0.31055 0.55929 0.22509 0.0
H3866 H 0.31981 0.58298 0.21468 0.0
C3867 C 0.34501 0.6556 0.16991 0.0
C3868 C 0.31803 0.62324 0.18474 0.0
H3869 H 0.30375 0.60774 0.21438 0.0
C3870 C 0.31781 0.60986 0.17632 0.0
C3871 C 0.31299 0.6225 0.19864 0.0
C3872 C 0.31345 0.63655 0.2082 0.0
C3873 C 0.31254 0.59572 0.18144 0.0
C3874 C 0.30734 0.59499 0.1953 0.0
C3875 C 0.30767 0.60837 0.20374 0.0
C3876 C 0.30176 0.58044 0.20133 0.0
C3877 C 0.31281 0.58164 0.17208 0.0
C3878 C 0.28849 0.57119 0.19732 0.0
C3879 C 0.28304 0.55768 0.20336 0.0
C3880 C 0.29076 0.55314 0.21357 0.0
C3881 C 0.30415 0.56245 0.21745 0.0
C3882 C 0.30953 0.57598 0.21145 0.0
H3883 H 0.31972 0.58402 0.16248 0.0
H3884 H 0.31716 0.57318 0.17727 0.0
H3885 H 0.30131 0.57659 0.16936 0.0
H3886 H 0.28221 0.57456 0.18966 0.0
H3887 H 0.27261 0.55099 0.20022 0.0
H3888 H 0.42326 0.33341 0.19578 0.0
H3889 H 0.44366 0.32272 0.20309 0.0
H3890 H 0.43706 0.34274 0.24396 0.0
H3891 H 0.41662 0.3534 0.23672 0.0
H3892 H 0.47035 0.33792 0.21486 0.0
H3893 H 0.43657 0.2984 0.25018 0.0
H3894 H 0.42837 0.307 0.23762 0.0
H3895 H 0.43432 0.3177 0.25312 0.0
C3896 C 0.4261 0.3355 0.20634 0.0
C3897 C 0.41823 0.3442 0.2157 0.0
C3898 C 0.4378 0.32939 0.21051 0.0
C3899 C 0.44182 0.33172 0.22414 0.0
C3900 C 0.43404 0.34052 0.23346 0.0
H3901 H 0.50894 0.2941 0.26342 0.0
H3902 H 0.49045 0.30953 0.25971 0.0
C3903 C 0.4224 0.34668 0.22929 0.0
C3904 C 0.45431 0.32519 0.2285 0.0
H3905 H 0.46255 0.29987 0.24911 0.0
C3906 C 0.46863 0.32963 0.22237 0.0
C3907 C 0.45218 0.31449 0.23845 0.0
C3908 C 0.43703 0.30899 0.24518 0.0
C3909 C 0.48077 0.3236 0.22578 0.0
C3910 C 0.47855 0.31252 0.23538 0.0
C3911 C 0.46432 0.30838 0.2418 0.0
C3912 C 0.49047 0.30408 0.23784 0.0
C3913 C 0.4959 0.32925 0.21907 0.0
C3914 C 0.49666 0.29588 0.22687 0.0
C3915 C 0.50715 0.28717 0.22896 0.0
C3916 C 0.51177 0.28627 0.24211 0.0
C3917 C 0.50579 0.29468 0.25315 0.0
C3918 C 0.49514 0.30341 0.25104 0.0
H3919 H 0.49682 0.34087 0.21594 0.0
H3920 H 0.50487 0.32919 0.22598 0.0
H3921 H 0.49767 0.32184 0.20972 0.0
H3922 H 0.49307 0.29585 0.21665 0.0
H3923 H 0.51143 0.28084 0.22019 0.0
H3924 H 0.77106 0.36088 0.22019 0.0
H3925 H 0.77935 0.38733 0.22823 0.0
H3926 H 0.73923 0.39817 0.21521 0.0
H3927 H 0.73092 0.37184 0.20706 0.0
H3928 H 0.78395 0.41322 0.21298 0.0
H3929 H 0.74061 0.41538 0.25529 0.0
H3930 H 0.74459 0.39786 0.24707 0.0
H3931 H 0.73347 0.40838 0.239 0.0
C3932 C 0.76401 0.3689 0.21904 0.0
C3933 C 0.75028 0.36424 0.21307 0.0
C3934 C 0.76875 0.38399 0.22365 0.0
C3935 C 0.75982 0.39464 0.22244 0.0
C3936 C 0.74615 0.39005 0.21647 0.0
H3937 H 0.76444 0.4891 0.24643 0.0
H3938 H 0.75904 0.46379 0.23497 0.0
C3939 C 0.74139 0.37499 0.21186 0.0
C3940 C 0.76485 0.41062 0.22729 0.0
H3941 H 0.75557 0.43866 0.2498 0.0
C3942 C 0.77781 0.41881 0.22107 0.0
C3943 C 0.7568 0.41781 0.23785 0.0
C3944 C 0.74317 0.4094 0.24529 0.0
C3945 C 0.78275 0.43415 0.22494 0.0
C3946 C 0.77461 0.44137 0.23541 0.0
C3947 C 0.76172 0.43312 0.24169 0.0
C3948 C 0.77923 0.45741 0.24028 0.0
C3949 C 0.79644 0.44259 0.21762 0.0
C3950 C 0.79261 0.46237 0.2467 0.0
C3951 C 0.79579 0.47689 0.25321 0.0
C3952 C 0.78553 0.4866 0.25353 0.0
C3953 C 0.77254 0.48187 0.24642 0.0
C3954 C 0.76942 0.46741 0.23988 0.0
H3955 H 0.79914 0.43659 0.20767 0.0
H3956 H 0.795 0.45411 0.21579 0.0
H3957 H 0.80604 0.44368 0.22404 0.0
H3958 H 0.80022 0.45475 0.24733 0.0
H3959 H 0.80584 0.48015 0.25868 0.0
H3960 H 0.64902 0.36522 0.84298 0.0
H3961 H 0.62632 0.35374 0.83174 0.0
H3962 H 0.63981 0.31054 0.82855 0.0
H3963 H 0.66283 0.32206 0.83943 0.0
H3964 H 0.63029 0.31804 0.80408 0.0
H3965 H 0.58972 0.32602 0.8477 0.0
H3966 H 0.60239 0.34288 0.8434 0.0
H3967 H 0.60933 0.32781 0.84978 0.0
C3968 C 0.64716 0.35327 0.8399 0.0
C3969 C 0.65775 0.34455 0.84208 0.0
C3970 C 0.63411 0.34671 0.83358 0.0
C3971 C 0.63132 0.33128 0.82941 0.0
C3972 C 0.64175 0.32248 0.83173 0.0
H3973 H 0.55244 0.27075 0.80795 0.0
H3974 H 0.57403 0.28631 0.81809 0.0
C3975 C 0.65482 0.32904 0.83806 0.0
C3976 C 0.61771 0.32437 0.82231 0.0
H3977 H 0.57985 0.31669 0.82646 0.0
C3978 C 0.61924 0.31777 0.80894 0.0
C3979 C 0.60334 0.32404 0.8287 0.0
C3980 C 0.60103 0.33044 0.84323 0.0
C3981 C 0.60678 0.31064 0.80184 0.0
C3982 C 0.5924 0.31031 0.80823 0.0
C3983 C 0.59088 0.31712 0.82153 0.0
C3984 C 0.57892 0.30152 0.80196 0.0
C3985 C 0.60911 0.30301 0.78779 0.0
C3986 C 0.57429 0.30503 0.78957 0.0
C3987 C 0.56184 0.29604 0.78364 0.0
C3988 C 0.55385 0.28345 0.79006 0.0
C3989 C 0.55835 0.28029 0.80265 0.0
C3990 C 0.5707 0.28922 0.80851 0.0
H3991 H 0.62089 0.30192 0.78538 0.0
H3992 H 0.60203 0.2916 0.78685 0.0
H3993 H 0.60592 0.30975 0.78005 0.0
H3994 H 0.58036 0.31464 0.78445 0.0
H3995 H 0.55863 0.29878 0.77397 0.0
H3996 H 0.74314 0.68056 0.82854 0.0
H3997 H 0.75305 0.65912 0.81695 0.0
H3998 H 0.74585 0.63677 0.85433 0.0
H3999 H 0.73577 0.65798 0.8659 0.0
H4000 H 0.77791 0.64637 0.82411 0.0
H4001 H 0.72479 0.60504 0.82568 0.0
H4002 H 0.72554 0.62514 0.8282 0.0
H4003 H 0.72963 0.61499 0.84181 0.0
C4004 C 0.74354 0.67102 0.83427 0.0
C4005 C 0.73861 0.67103 0.84818 0.0
C4006 C 0.7493 0.65881 0.82764 0.0
C4007 C 0.75008 0.64624 0.83471 0.0
C4008 C 0.74521 0.64624 0.84859 0.0
H4009 H 0.77506 0.55887 0.81522 0.0
H4010 H 0.76752 0.58174 0.82611 0.0
C4011 C 0.73955 0.65846 0.85524 0.0
C4012 C 0.75606 0.63316 0.82768 0.0
H4013 H 0.74656 0.59539 0.81866 0.0
C4014 C 0.77105 0.63523 0.82283 0.0
C4015 C 0.74714 0.61861 0.82604 0.0
C4016 C 0.73084 0.61576 0.83059 0.0
C4017 C 0.77744 0.62309 0.81676 0.0
C4018 C 0.76852 0.60848 0.81517 0.0
C4019 C 0.75348 0.6065 0.81989 0.0
C4020 C 0.77446 0.59503 0.80878 0.0
C4021 C 0.79381 0.62595 0.81252 0.0
C4022 C 0.78112 0.59481 0.79542 0.0
C4023 C 0.78562 0.58172 0.78919 0.0
C4024 C 0.78338 0.56846 0.7961 0.0
C4025 C 0.77701 0.56883 0.80957 0.0
C4026 C 0.77262 0.58193 0.81581 0.0
H4027 H 0.79982 0.63635 0.81798 0.0
H4028 H 0.79898 0.61633 0.81451 0.0
H4029 H 0.7953 0.62748 0.80142 0.0
H4030 H 0.78237 0.60458 0.7896 0.0
H4031 H 0.7903 0.58181 0.77875 0.0
H4032 H 0.3924 0.7549 0.82054 0.0
H4033 H 0.41869 0.76636 0.81699 0.0
H4034 H 0.43053 0.72248 0.81503 0.0
H4035 H 0.40441 0.71094 0.81899 0.0
H4036 H 0.44285 0.76097 0.83505 0.0
H4037 H 0.45059 0.7443 0.77948 0.0
H4038 H 0.43265 0.74612 0.78764 0.0
H4039 H 0.44069 0.73018 0.79027 0.0
C4040 C 0.4006 0.74769 0.81938 0.0
C4041 C 0.3963 0.732 0.82002 0.0
C4042 C 0.41557 0.75424 0.8173 0.0
C4043 C 0.42643 0.74521 0.81569 0.0
C4044 C 0.42222 0.72957 0.81611 0.0
H4045 H 0.52165 0.765 0.79707 0.0
H4046 H 0.49615 0.75234 0.80268 0.0
C4047 C 0.40729 0.72301 0.81828 0.0
C4048 C 0.44226 0.75215 0.81402 0.0
H4049 H 0.47186 0.75654 0.79071 0.0
C4050 C 0.44924 0.76006 0.82537 0.0
C4051 C 0.45046 0.75073 0.80141 0.0
C4052 C 0.44328 0.74245 0.78893 0.0
C4053 C 0.46439 0.76657 0.82446 0.0
C4054 C 0.47258 0.7654 0.81177 0.0
C4055 C 0.46556 0.75738 0.80044 0.0
C4056 C 0.4883 0.77287 0.8098 0.0
C4057 C 0.4715 0.77439 0.83715 0.0
C4058 C 0.49235 0.78857 0.81211 0.0
C4059 C 0.50691 0.79581 0.80904 0.0
C4060 C 0.51763 0.78749 0.80339 0.0
C4061 C 0.51364 0.77172 0.8014 0.0
C4062 C 0.49909 0.76448 0.80458 0.0
H4063 H 0.46518 0.77025 0.84657 0.0
H4064 H 0.48313 0.77271 0.83734 0.0
H4065 H 0.47162 0.78666 0.83733 0.0
H4066 H 0.48413 0.79531 0.81583 0.0
H4067 H 0.50958 0.80799 0.8106 0.0
H4068 H 0.3355 0.39618 0.8493 0.0
H4069 H 0.32334 0.41545 0.84175 0.0
H4070 H 0.34304 0.40884 0.801 0.0
H4071 H 0.35513 0.38938 0.80848 0.0
H4072 H 0.33585 0.44242 0.83034 0.0
H4073 H 0.29904 0.40488 0.79435 0.0
H4074 H 0.30864 0.39772 0.80686 0.0
H4075 H 0.3184 0.40407 0.7913 0.0
C4076 C 0.33723 0.39877 0.83872 0.0
C4077 C 0.34623 0.39117 0.82945 0.0
C4078 C 0.33027 0.40982 0.83442 0.0
C4079 C 0.33206 0.41346 0.82075 0.0
C4080 C 0.34121 0.40603 0.81153 0.0
H4081 H 0.29966 0.47698 0.77515 0.0
H4082 H 0.31174 0.4577 0.78269 0.0
C4083 C 0.34819 0.39498 0.81582 0.0
C4084 C 0.32459 0.42521 0.81626 0.0
H4085 H 0.29971 0.43113 0.79421 0.0
C4086 C 0.3279 0.43994 0.82248 0.0
C4087 C 0.31422 0.422 0.80599 0.0
C4088 C 0.30973 0.40629 0.7993 0.0
C4089 C 0.32137 0.45157 0.81855 0.0
C4090 C 0.31097 0.44835 0.80829 0.0
C4091 C 0.30766 0.43362 0.80207 0.0
C4092 C 0.3035 0.46011 0.8038 0.0
C4093 C 0.32595 0.46729 0.82518 0.0
C4094 C 0.29462 0.46778 0.81308 0.0
C4095 C 0.28776 0.47894 0.80882 0.0
C4096 C 0.28955 0.48264 0.79513 0.0
C4097 C 0.29822 0.47469 0.78581 0.0
C4098 C 0.30507 0.46355 0.79009 0.0
H4099 H 0.33674 0.4687 0.82997 0.0
H4100 H 0.3269 0.47586 0.81764 0.0
H4101 H 0.31742 0.4695 0.83332 0.0
H4102 H 0.29296 0.46513 0.82365 0.0
H4103 H 0.28124 0.4848 0.81631 0.0
H4104 H 0.72176 0.64408 0.19795 0.0
H4105 H 0.7293 0.62482 0.21036 0.0
H4106 H 0.69015 0.62372 0.23766 0.0
H4107 H 0.68247 0.64279 0.22521 0.0
H4108 H 0.73542 0.62569 0.23754 0.0
H4109 H 0.68817 0.57923 0.22566 0.0
H4110 H 0.69226 0.59616 0.21667 0.0
H4111 H 0.68271 0.59623 0.23331 0.0
C4112 C 0.71473 0.63966 0.20656 0.0
C4113 C 0.7015 0.64491 0.21053 0.0
C4114 C 0.71906 0.62868 0.21366 0.0
C4115 C 0.71019 0.62262 0.22483 0.0
C4116 C 0.69702 0.62795 0.2289 0.0
H4117 H 0.71882 0.55604 0.28093 0.0
H4118 H 0.71093 0.57541 0.26905 0.0
C4119 C 0.69269 0.63894 0.2218 0.0
C4120 C 0.71492 0.611 0.23239 0.0
H4121 H 0.70435 0.57494 0.24188 0.0
C4122 C 0.72865 0.61458 0.23844 0.0
C4123 C 0.70609 0.59649 0.23362 0.0
C4124 C 0.69155 0.5917 0.22688 0.0
C4125 C 0.73366 0.60416 0.24582 0.0
C4126 C 0.72484 0.58963 0.24701 0.0
C4127 C 0.7111 0.58607 0.24101 0.0
C4128 C 0.72976 0.5779 0.25428 0.0
C4129 C 0.74822 0.60893 0.25253 0.0
C4130 C 0.74288 0.57267 0.24986 0.0
C4131 C 0.74741 0.56154 0.25661 0.0
C4132 C 0.73887 0.55526 0.26791 0.0
C4133 C 0.72564 0.56046 0.27223 0.0
C4134 C 0.72113 0.5716 0.26547 0.0
H4135 H 0.75152 0.6214 0.25388 0.0
H4136 H 0.7476 0.60432 0.26266 0.0
H4137 H 0.75707 0.60455 0.24598 0.0
H4138 H 0.74956 0.57706 0.24106 0.0
H4139 H 0.75747 0.55768 0.25275 0.0
H4140 H 0.68153 0.39717 0.84406 0.0
H4141 H 0.69367 0.41993 0.83316 0.0
H4142 H 0.73507 0.40382 0.82918 0.0
H4143 H 0.72291 0.38083 0.83983 0.0
H4144 H 0.71915 0.44218 0.8402 0.0
H4145 H 0.72735 0.4111 0.78967 0.0
H4146 H 0.71491 0.40288 0.80323 0.0
H4147 H 0.73461 0.40432 0.80383 0.0
C4148 C 0.69322 0.39848 0.84086 0.0
C4149 C 0.70123 0.38714 0.84265 0.0
C4150 C 0.70015 0.41151 0.83471 0.0
C4151 C 0.71519 0.41342 0.83018 0.0
C4152 C 0.72339 0.40243 0.83243 0.0
H4153 H 0.77067 0.48141 0.78236 0.0
H4154 H 0.76109 0.45984 0.79572 0.0
C4155 C 0.71647 0.38938 0.83862 0.0
C4156 C 0.72209 0.42673 0.82272 0.0
H4157 H 0.73678 0.43724 0.79138 0.0
C4158 C 0.72304 0.44113 0.82953 0.0
C4159 C 0.72713 0.42528 0.80881 0.0
C4160 C 0.72587 0.41009 0.80087 0.0
C4161 C 0.72901 0.45416 0.82281 0.0
C4162 C 0.73385 0.45272 0.80884 0.0
C4163 C 0.73305 0.4383 0.80208 0.0
C4164 C 0.73967 0.46602 0.80098 0.0
C4165 C 0.73027 0.46933 0.83078 0.0
C4166 C 0.73072 0.47656 0.79934 0.0
C4167 C 0.73621 0.48899 0.79178 0.0
C4168 C 0.75073 0.49108 0.78564 0.0
C4169 C 0.75955 0.48034 0.78714 0.0
C4170 C 0.75406 0.46793 0.7947 0.0
H4171 H 0.73 0.46832 0.84195 0.0
H4172 H 0.7407 0.47702 0.82766 0.0
H4173 H 0.72076 0.47453 0.82876 0.0
H4174 H 0.71946 0.47513 0.80385 0.0
H4175 H 0.72913 0.49705 0.79092 0.0
H4176 H 0.69152 0.73262 0.84803 0.0
H4177 H 0.6734 0.74545 0.83919 0.0
H4178 H 0.66335 0.7089 0.80816 0.0
H4179 H 0.68129 0.69604 0.81698 0.0
H4180 H 0.67168 0.75509 0.81266 0.0
H4181 H 0.62229 0.71216 0.82623 0.0
H4182 H 0.64008 0.71312 0.83319 0.0
H4183 H 0.63665 0.70445 0.81629 0.0
C4184 C 0.68543 0.72731 0.83935 0.0
C4185 C 0.68777 0.71323 0.83327 0.0
C4186 C 0.67508 0.73467 0.83428 0.0
C4187 C 0.66679 0.72806 0.82312 0.0
C4188 C 0.66935 0.71413 0.81694 0.0
H4189 H 0.60006 0.74743 0.77377 0.0
H4190 H 0.61895 0.73747 0.78426 0.0
C4191 C 0.67967 0.70681 0.82195 0.0
C4192 C 0.65549 0.73559 0.81785 0.0
H4193 H 0.61871 0.73018 0.81132 0.0
C4194 C 0.66007 0.74972 0.8125 0.0
C4195 C 0.6403 0.72862 0.8176 0.0
C4196 C 0.63447 0.71382 0.82375 0.0
C4197 C 0.65003 0.75677 0.8065 0.0
C4198 C 0.6349 0.74964 0.80604 0.0
C4199 C 0.63029 0.73565 0.81161 0.0
C4200 C 0.62374 0.75622 0.79947 0.0
C4201 C 0.65578 0.77152 0.80024 0.0
C4202 C 0.62 0.77011 0.80451 0.0
C4203 C 0.60913 0.77588 0.79849 0.0
C4204 C 0.60174 0.7679 0.78727 0.0
C4205 C 0.60558 0.75402 0.78226 0.0
C4206 C 0.61636 0.74824 0.78831 0.0
H4207 H 0.66808 0.7738 0.79866 0.0
H4208 H 0.65093 0.77159 0.79026 0.0
H4209 H 0.65249 0.78084 0.80714 0.0
H4210 H 0.62534 0.77641 0.81323 0.0
H4211 H 0.60659 0.78663 0.80259 0.0
H4212 H 0.33172 0.69114 0.81382 0.0
H4213 H 0.32248 0.66545 0.80429 0.0
H4214 H 0.36649 0.6554 0.80404 0.0
H4215 H 0.37558 0.68059 0.81436 0.0
H4216 H 0.32972 0.65074 0.78061 0.0
H4217 H 0.34257 0.62098 0.82352 0.0
H4218 H 0.34339 0.64108 0.82474 0.0
H4219 H 0.35866 0.63313 0.8166 0.0
C4220 C 0.33938 0.68339 0.81196 0.0
C4221 C 0.35439 0.68795 0.81491 0.0
C4222 C 0.33411 0.66875 0.80639 0.0
C4223 C 0.34375 0.65843 0.80367 0.0
C4224 C 0.35877 0.66305 0.80635 0.0
H4225 H 0.32364 0.57482 0.75109 0.0
H4226 H 0.3342 0.60029 0.76043 0.0
C4227 C 0.364 0.67757 0.81206 0.0
C4228 C 0.33817 0.64289 0.79786 0.0
H4229 H 0.33625 0.60586 0.80301 0.0
C4230 C 0.33107 0.64091 0.78553 0.0
C4231 C 0.33979 0.63009 0.80438 0.0
C4232 C 0.34638 0.6314 0.81811 0.0
C4233 C 0.32563 0.62646 0.77949 0.0
C4234 C 0.32778 0.61367 0.78575 0.0
C4235 C 0.3348 0.61568 0.79812 0.0
C4236 C 0.32207 0.59808 0.78012 0.0
C4237 C 0.3173 0.62507 0.76669 0.0
C4238 C 0.31229 0.58818 0.78828 0.0
C4239 C 0.30652 0.57358 0.78309 0.0
C4240 C 0.31033 0.56859 0.76957 0.0
C4241 C 0.32041 0.57838 0.7615 0.0
C4242 C 0.32634 0.59298 0.76678 0.0
H4243 H 0.31312 0.63553 0.7654 0.0
H4244 H 0.32488 0.62304 0.75768 0.0
H4245 H 0.30771 0.6155 0.76681 0.0
H4246 H 0.30889 0.59185 0.79862 0.0
H4247 H 0.29877 0.56635 0.78959 0.0
H4248 H 0.3772 0.33585 0.82518 0.0
H4249 H 0.39622 0.32237 0.81418 0.0
H4250 H 0.41464 0.32236 0.85306 0.0
H4251 H 0.39609 0.33623 0.86408 0.0
H4252 H 0.43001 0.33125 0.81586 0.0
H4253 H 0.40445 0.2766 0.83675 0.0
H4254 H 0.39398 0.29124 0.83524 0.0
H4255 H 0.40649 0.29305 0.84865 0.0
C4256 C 0.3854 0.33319 0.83139 0.0
C4257 C 0.38494 0.33706 0.84559 0.0
C4258 C 0.39623 0.32539 0.82508 0.0
C4259 C 0.40672 0.32119 0.83283 0.0
C4260 C 0.4065 0.32528 0.84691 0.0
H4261 H 0.47603 0.26786 0.81923 0.0
H4262 H 0.45695 0.2821 0.82841 0.0
C4263 C 0.3958 0.33316 0.85321 0.0
C4264 C 0.41788 0.31243 0.82631 0.0
H4265 H 0.42799 0.27798 0.82497 0.0
C4266 C 0.42955 0.31957 0.81775 0.0
C4267 C 0.41731 0.29724 0.82889 0.0
C4268 C 0.40485 0.28897 0.8378 0.0
C4269 C 0.44088 0.31204 0.81198 0.0
C4270 C 0.4403 0.29678 0.81452 0.0
C4271 C 0.4285 0.28964 0.82299 0.0
C4272 C 0.45193 0.28809 0.80876 0.0
C4273 C 0.45363 0.32071 0.80365 0.0
C4274 C 0.45539 0.28645 0.79461 0.0
C4275 C 0.4664 0.27837 0.78933 0.0
C4276 C 0.47403 0.2715 0.79806 0.0
C4277 C 0.47031 0.27287 0.81219 0.0
C4278 C 0.45942 0.28108 0.81747 0.0
H4279 H 0.45469 0.33308 0.80602 0.0
H4280 H 0.46431 0.31747 0.80547 0.0
H4281 H 0.45162 0.31823 0.79264 0.0
H4282 H 0.4495 0.29132 0.7876 0.0
H4283 H 0.46879 0.27731 0.77839 0.0
H4284 H 0.36291 0.39389 0.18143 0.0
H4285 H 0.35192 0.41489 0.19203 0.0
H4286 H 0.3565 0.40109 0.23191 0.0
H4287 H 0.36712 0.37965 0.22139 0.0
H4288 H 0.32502 0.41137 0.21101 0.0
H4289 H 0.37446 0.44792 0.23366 0.0
H4290 H 0.37617 0.43397 0.21959 0.0
H4291 H 0.37081 0.42816 0.23646 0.0
C4292 C 0.36152 0.39517 0.19246 0.0
C4293 C 0.36583 0.38484 0.20049 0.0
C4294 C 0.35533 0.40732 0.19852 0.0
C4295 C 0.35344 0.40967 0.21278 0.0
C4296 C 0.35801 0.39965 0.22089 0.0
H4297 H 0.31172 0.48122 0.25938 0.0
H4298 H 0.32598 0.46074 0.2539 0.0
C4299 C 0.36413 0.38738 0.21483 0.0
C4300 C 0.34591 0.42212 0.21897 0.0
H4301 H 0.35189 0.4569 0.23663 0.0
C4302 C 0.33089 0.42128 0.21668 0.0
C4303 C 0.35348 0.43498 0.22654 0.0
C4304 C 0.36965 0.43648 0.22921 0.0
C4305 C 0.32332 0.43298 0.22149 0.0
C4306 C 0.33105 0.44621 0.22849 0.0
C4307 C 0.34596 0.44685 0.23122 0.0
C4308 C 0.32399 0.45974 0.23205 0.0
C4309 C 0.30703 0.43104 0.21901 0.0
C4310 C 0.31872 0.46646 0.22164 0.0
C4311 C 0.3106 0.47798 0.22474 0.0
C4312 C 0.3077 0.48336 0.23834 0.0
C4313 C 0.31382 0.47739 0.2488 0.0
C4314 C 0.3219 0.46563 0.24567 0.0
H4315 H 0.30177 0.41894 0.21764 0.0
H4316 H 0.30092 0.43651 0.22759 0.0
H4317 H 0.30584 0.4363 0.20952 0.0
H4318 H 0.3205 0.46246 0.21105 0.0
H4319 H 0.3062 0.48243 0.21641 0.0
H4320 H 0.70149 0.33902 0.20067 0.0
H4321 H 0.67528 0.32699 0.20328 0.0
H4322 H 0.688 0.28533 0.21089 0.0
H4323 H 0.71427 0.29734 0.20852 0.0
H4324 H 0.65984 0.29977 0.18831 0.0
H4325 H 0.65951 0.29521 0.24431 0.0
H4326 H 0.67388 0.30772 0.23518 0.0
H4327 H 0.67384 0.28784 0.23392 0.0
C4328 C 0.69871 0.32733 0.20301 0.0
C4329 C 0.70993 0.31915 0.20451 0.0
C4330 C 0.68375 0.32045 0.20438 0.0
C4331 C 0.67975 0.30533 0.20737 0.0
C4332 C 0.6909 0.29706 0.2087 0.0
H4333 H 0.59067 0.24938 0.20804 0.0
H4334 H 0.61697 0.25947 0.20248 0.0
C4335 C 0.70587 0.3039 0.20727 0.0
C4336 C 0.66388 0.29833 0.20934 0.0
H4337 H 0.63734 0.28481 0.23362 0.0
C4338 C 0.6549 0.29642 0.19819 0.0
C4339 C 0.65752 0.29412 0.22227 0.0
C4340 C 0.66661 0.29639 0.23466 0.0
C4341 C 0.63963 0.29039 0.19965 0.0
C4342 C 0.63329 0.28614 0.21258 0.0
C4343 C 0.6423 0.28801 0.22371 0.0
C4344 C 0.61719 0.28038 0.21501 0.0
C4345 C 0.63031 0.28896 0.18749 0.0
C4346 C 0.60865 0.28883 0.22382 0.0
C4347 C 0.59367 0.28315 0.22696 0.0
C4348 C 0.58694 0.26881 0.22145 0.0
C4349 C 0.59546 0.2605 0.21234 0.0
C4350 C 0.61049 0.26623 0.20918 0.0
H4351 H 0.63636 0.29515 0.17889 0.0
H4352 H 0.62719 0.27688 0.18387 0.0
H4353 H 0.6199 0.29329 0.19037 0.0
H4354 H 0.61363 0.29979 0.22838 0.0
H4355 H 0.58739 0.28996 0.23379 0.0
H4356 H 0.38655 0.69306 0.16883 0.0
H4357 H 0.40857 0.70656 0.18009 0.0
H4358 H 0.39073 0.74742 0.18363 0.0
H4359 H 0.36838 0.73385 0.17268 0.0
H4360 H 0.42973 0.73271 0.17362 0.0
H4361 H 0.39795 0.7413 0.22333 0.0
H4362 H 0.39021 0.72825 0.20963 0.0
H4363 H 0.39173 0.74816 0.20866 0.0
C4364 C 0.38728 0.70491 0.17202 0.0
C4365 C 0.37561 0.71233 0.17002 0.0
C4366 C 0.39993 0.71264 0.17835 0.0
C4367 C 0.4012 0.72794 0.18286 0.0
C4368 C 0.38987 0.73556 0.1804 0.0
H4369 H 0.46784 0.77111 0.24101 0.0
H4370 H 0.4497 0.7698 0.22365 0.0
C4371 C 0.37717 0.72783 0.17404 0.0
C4372 C 0.41411 0.7355 0.19069 0.0
H4373 H 0.42383 0.74846 0.223 0.0
C4374 C 0.42845 0.73638 0.18437 0.0
C4375 C 0.41242 0.7404 0.20468 0.0
C4376 C 0.39728 0.73943 0.21207 0.0
C4377 C 0.44114 0.74142 0.19182 0.0
C4378 C 0.43943 0.74542 0.206 0.0
C4379 C 0.42512 0.74541 0.21212 0.0
C4380 C 0.45202 0.7475 0.215 0.0
C4381 C 0.45625 0.74205 0.18449 0.0
C4382 C 0.45946 0.73552 0.21577 0.0
C4383 C 0.4697 0.73622 0.22564 0.0
C4384 C 0.47272 0.74891 0.23502 0.0
C4385 C 0.46583 0.76124 0.23386 0.0
C4386 C 0.45544 0.76048 0.22398 0.0
H4387 H 0.45596 0.74405 0.17356 0.0
H4388 H 0.46469 0.75106 0.1893 0.0
H4389 H 0.45978 0.73108 0.18488 0.0
H4390 H 0.45679 0.72525 0.20919 0.0
H4391 H 0.47482 0.72653 0.22627 0.0
loop_
_geom_bond_atom_site_label_1
_geom_bond_atom_site_label_2
_geom_bond_distance
_geom_bond_site_symmetry_2
_ccdc_geom_bond_type
H0 C5 0.930 . S
H1 C8 0.930 . S
H2 C10 0.930 . S
H3 C4 1.016 . S
C4 H3 1.016 . S
C4 N11 1.286 . S
C5 H0 0.930 . S
C5 C6 1.397 . S
C5 C7 1.361 . S
C6 C5 1.397 . S
C6 C10 1.390 . S
C7 C5 1.361 . S
C7 C8 1.393 . S
C7 N11 1.413 . S
C8 H1 0.930 . S
C8 C7 1.393 . S
C8 C9 1.399 . S
C9 C8 1.399 . S
C9 C10 1.381 . S
C10 H2 0.930 . S
C10 C6 1.390 . S
C10 C9 1.381 . S
N11 C4 1.286 . S
N11 C7 1.413 . S
H12 C17 0.930 . S
H13 C20 0.930 . S
H14 C22 0.930 . S
H15 C16 1.016 . S
C16 H15 1.016 . S
C16 N23 1.286 . S
C17 H12 0.930 . S
C17 C18 1.397 . S
C17 C19 1.361 . S
C18 C17 1.397 . S
C18 C22 1.390 . S
C19 C17 1.361 . S
C19 C20 1.393 . S
C19 N23 1.413 . S
C20 H13 0.930 . S
C20 C19 1.393 . S
C20 C21 1.399 . S
C21 C20 1.399 . S
C21 C22 1.381 . S
C22 H14 0.930 . S
C22 C18 1.390 . S
C22 C21 1.381 . S
N23 C16 1.286 . S
N23 C19 1.413 . S
H24 C29 0.930 . S
H25 C32 0.930 . S
H26 C34 0.930 . S
H27 C28 1.016 . S
C28 H27 1.016 . S
C28 N35 1.286 . S
C29 H24 0.930 . S
C29 C30 1.397 . S
C29 C31 1.361 . S
C30 C29 1.397 . S
C30 C34 1.390 . S
C31 C29 1.361 . S
C31 C32 1.393 . S
C31 N35 1.413 . S
C32 H25 0.930 . S
C32 C31 1.393 . S
C32 C33 1.399 . S
C33 C32 1.399 . S
C33 C34 1.381 . S
C34 H26 0.930 . S
C34 C30 1.390 . S
C34 C33 1.381 . S
N35 C28 1.286 . S
N35 C31 1.413 . S
H36 C41 0.930 . S
H37 C44 0.930 . S
H38 C46 0.930 . S
H39 C40 1.016 . S
C40 H39 1.016 . S
C40 N47 1.286 . S
C41 H36 0.930 . S
C41 C42 1.397 . S
C41 C43 1.361 . S
C42 C41 1.397 . S
C42 C46 1.390 . S
C43 C41 1.361 . S
C43 C44 1.393 . S
C43 N47 1.413 . S
C44 H37 0.930 . S
C44 C43 1.393 . S
C44 C45 1.399 . S
C45 C44 1.399 . S
C45 C46 1.381 . S
C46 H38 0.930 . S
C46 C42 1.390 . S
C46 C45 1.381 . S
N47 C40 1.286 . S
N47 C43 1.413 . S
H48 C53 0.930 . S
H49 C56 0.930 . S
H50 C58 0.930 . S
H51 C52 1.016 . S
C52 H51 1.016 . S
C52 N59 1.286 . S
C53 H48 0.930 . S
C53 C54 1.397 . S
C53 C55 1.361 . S
C54 C53 1.397 . S
C54 C58 1.390 . S
C55 C53 1.361 . S
C55 C56 1.393 . S
C55 N59 1.413 . S
C56 H49 0.930 . S
C56 C55 1.393 . S
C56 C57 1.399 . S
C57 C56 1.399 . S
C57 C58 1.381 . S
C58 H50 0.930 . S
C58 C54 1.390 . S
C58 C57 1.381 . S
N59 C52 1.286 . S
N59 C55 1.413 . S
H60 C65 0.930 . S
H61 C68 0.930 . S
H62 C70 0.930 . S
H63 C64 1.016 . S
C64 H63 1.016 . S
C64 N71 1.286 . S
C65 H60 0.930 . S
C65 C66 1.397 . S
C65 C67 1.361 . S
C66 C65 1.397 . S
C66 C70 1.390 . S
C67 C65 1.361 . S
C67 C68 1.393 . S
C67 N71 1.413 . S
C68 H61 0.930 . S
C68 C67 1.393 . S
C68 C69 1.399 . S
C69 C68 1.399 . S
C69 C70 1.381 . S
C70 H62 0.930 . S
C70 C66 1.390 . S
C70 C69 1.381 . S
N71 C64 1.286 . S
N71 C67 1.413 . S
H72 C77 0.930 . S
H73 C80 0.930 . S
H74 C82 0.930 . S
H75 C76 1.016 . S
C76 H75 1.016 . S
C76 N83 1.286 . S
C77 H72 0.930 . S
C77 C78 1.397 . S
C77 C79 1.361 . S
C78 C77 1.397 . S
C78 C82 1.390 . S
C79 C77 1.361 . S
C79 C80 1.393 . S
C79 N83 1.413 . S
C80 H73 0.930 . S
C80 C79 1.393 . S
C80 C81 1.399 . S
C81 C80 1.399 . S
C81 C82 1.381 . S
C82 H74 0.930 . S
C82 C78 1.390 . S
C82 C81 1.381 . S
N83 C76 1.286 . S
N83 C79 1.413 . S
H84 C89 0.930 . S
H85 C92 0.930 . S
H86 C94 0.930 . S
H87 C88 1.016 . S
C88 H87 1.016 . S
C88 N95 1.286 . S
C89 H84 0.930 . S
C89 C90 1.397 . S
C89 C91 1.361 . S
C90 C89 1.397 . S
C90 C94 1.390 . S
C91 C89 1.361 . S
C91 C92 1.393 . S
C91 N95 1.413 . S
C92 H85 0.930 . S
C92 C91 1.393 . S
C92 C93 1.399 . S
C93 C92 1.399 . S
C93 C94 1.381 . S
C94 H86 0.930 . S
C94 C90 1.390 . S
C94 C93 1.381 . S
N95 C88 1.286 . S
N95 C91 1.413 . S
H96 C101 0.930 . S
H97 C104 0.930 . S
H98 C106 0.930 . S
H99 C100 1.016 . S
C100 H99 1.016 . S
C100 N107 1.286 . S
C101 H96 0.930 . S
C101 C102 1.397 . S
C101 C103 1.361 . S
C102 C101 1.397 . S
C102 C106 1.390 . S
C103 C101 1.361 . S
C103 C104 1.393 . S
C103 N107 1.413 . S
C104 H97 0.930 . S
C104 C103 1.393 . S
C104 C105 1.399 . S
C105 C104 1.399 . S
C105 C106 1.381 . S
C106 H98 0.930 . S
C106 C102 1.390 . S
C106 C105 1.381 . S
N107 C100 1.286 . S
N107 C103 1.413 . S
H108 C113 0.930 . S
H109 C116 0.930 . S
H110 C118 0.930 . S
H111 C112 1.016 . S
C112 H111 1.016 . S
C112 N119 1.286 . S
C113 H108 0.930 . S
C113 C114 1.397 . S
C113 C115 1.361 . S
C114 C113 1.397 . S
C114 C118 1.390 . S
C115 C113 1.361 . S
C115 C116 1.393 . S
C115 N119 1.413 . S
C116 H109 0.930 . S
C116 C115 1.393 . S
C116 C117 1.399 . S
C117 C116 1.399 . S
C117 C118 1.381 . S
C118 H110 0.930 . S
C118 C114 1.390 . S
C118 C117 1.381 . S
N119 C112 1.286 . S
N119 C115 1.413 . S
H120 C125 0.930 . S
H121 C128 0.930 . S
H122 C130 0.930 . S
H123 C124 1.016 . S
C124 H123 1.016 . S
C124 N131 1.286 . S
C125 H120 0.930 . S
C125 C126 1.397 . S
C125 C127 1.361 . S
C126 C125 1.397 . S
C126 C130 1.390 . S
C127 C125 1.361 . S
C127 C128 1.393 . S
C127 N131 1.413 . S
C128 H121 0.930 . S
C128 C127 1.393 . S
C128 C129 1.399 . S
C129 C128 1.399 . S
C129 C130 1.381 . S
C130 H122 0.930 . S
C130 C126 1.390 . S
C130 C129 1.381 . S
N131 C124 1.286 . S
N131 C127 1.413 . S
H132 C137 0.930 . S
H133 C140 0.930 . S
H134 C142 0.930 . S
H135 C136 1.016 . S
C136 H135 1.016 . S
C136 N143 1.286 . S
C137 H132 0.930 . S
C137 C138 1.397 . S
C137 C139 1.361 . S
C138 C137 1.397 . S
C138 C142 1.390 . S
C139 C137 1.361 . S
C139 C140 1.393 . S
C139 N143 1.413 . S
C140 H133 0.930 . S
C140 C139 1.393 . S
C140 C141 1.399 . S
C141 C140 1.399 . S
C141 C142 1.381 . S
C142 H134 0.930 . S
C142 C138 1.390 . S
C142 C141 1.381 . S
N143 C136 1.286 . S
N143 C139 1.413 . S
H144 C149 0.930 . S
H145 C152 0.930 . S
H146 C154 0.930 . S
H147 C148 1.016 . S
C148 H147 1.016 . S
C148 N155 1.286 . S
C149 H144 0.930 . S
C149 C150 1.397 . S
C149 C151 1.361 . S
C150 C149 1.397 . S
C150 C154 1.390 . S
C151 C149 1.361 . S
C151 C152 1.393 . S
C151 N155 1.413 . S
C152 H145 0.930 . S
C152 C151 1.393 . S
C152 C153 1.399 . S
C153 C152 1.399 . S
C153 C154 1.381 . S
C154 H146 0.930 . S
C154 C150 1.390 . S
C154 C153 1.381 . S
N155 C148 1.286 . S
N155 C151 1.413 . S
H156 C161 0.930 . S
H157 C164 0.930 . S
H158 C166 0.930 . S
H159 C160 1.016 . S
C160 H159 1.016 . S
C160 N167 1.286 . S
C161 H156 0.930 . S
C161 C162 1.397 . S
C161 C163 1.361 . S
C162 C161 1.397 . S
C162 C166 1.390 . S
C163 C161 1.361 . S
C163 C164 1.393 . S
C163 N167 1.413 . S
C164 H157 0.930 . S
C164 C163 1.393 . S
C164 C165 1.399 . S
C165 C164 1.399 . S
C165 C166 1.381 . S
C166 H158 0.930 . S
C166 C162 1.390 . S
C166 C165 1.381 . S
N167 C160 1.286 . S
N167 C163 1.413 . S
H168 C173 0.930 . S
H169 C176 0.930 . S
H170 C178 0.930 . S
H171 C172 1.016 . S
C172 H171 1.016 . S
C172 N179 1.286 . S
C173 H168 0.930 . S
C173 C174 1.397 . S
C173 C175 1.361 . S
C174 C173 1.397 . S
C174 C178 1.390 . S
C175 C173 1.361 . S
C175 C176 1.393 . S
C175 N179 1.413 . S
C176 H169 0.930 . S
C176 C175 1.393 . S
C176 C177 1.399 . S
C177 C176 1.399 . S
C177 C178 1.381 . S
C178 H170 0.930 . S
C178 C174 1.390 . S
C178 C177 1.381 . S
N179 C172 1.286 . S
N179 C175 1.413 . S
H180 C185 0.930 . S
H181 C188 0.930 . S
H182 C190 0.930 . S
H183 C184 1.016 . S
C184 H183 1.016 . S
C184 N191 1.286 . S
C185 H180 0.930 . S
C185 C186 1.397 . S
C185 C187 1.361 . S
C186 C185 1.397 . S
C186 C190 1.390 . S
C187 C185 1.361 . S
C187 C188 1.393 . S
C187 N191 1.413 . S
C188 H181 0.930 . S
C188 C187 1.393 . S
C188 C189 1.399 . S
C189 C188 1.399 . S
C189 C190 1.381 . S
C190 H182 0.930 . S
C190 C186 1.390 . S
C190 C189 1.381 . S
N191 C184 1.286 . S
N191 C187 1.413 . S
H192 C197 0.930 . S
H193 C200 0.930 . S
H194 C202 0.930 . S
H195 C196 1.016 . S
C196 H195 1.016 . S
C196 N203 1.286 . S
C197 H192 0.930 . S
C197 C198 1.397 . S
C197 C199 1.361 . S
C198 C197 1.397 . S
C198 C202 1.390 . S
C199 C197 1.361 . S
C199 C200 1.393 . S
C199 N203 1.413 . S
C200 H193 0.930 . S
C200 C199 1.393 . S
C200 C201 1.399 . S
C201 C200 1.399 . S
C201 C202 1.381 . S
C202 H194 0.930 . S
C202 C198 1.390 . S
C202 C201 1.381 . S
N203 C196 1.286 . S
N203 C199 1.413 . S
H204 C209 0.930 . S
H205 C212 0.930 . S
H206 C214 0.930 . S
H207 C208 1.016 . S
C208 H207 1.016 . S
C208 N215 1.286 . S
C209 H204 0.930 . S
C209 C210 1.397 . S
C209 C211 1.361 . S
C210 C209 1.397 . S
C210 C214 1.390 . S
C211 C209 1.361 . S
C211 C212 1.393 . S
C211 N215 1.413 . S
C212 H205 0.930 . S
C212 C211 1.393 . S
C212 C213 1.399 . S
C213 C212 1.399 . S
C213 C214 1.381 . S
C214 H206 0.930 . S
C214 C210 1.390 . S
C214 C213 1.381 . S
N215 C208 1.286 . S
N215 C211 1.413 . S
H216 C221 0.930 . S
H217 C224 0.930 . S
H218 C226 0.930 . S
H219 C220 1.016 . S
C220 H219 1.016 . S
C220 N227 1.286 . S
C221 H216 0.930 . S
C221 C222 1.397 . S
C221 C223 1.361 . S
C222 C221 1.397 . S
C222 C226 1.390 . S
C223 C221 1.361 . S
C223 C224 1.393 . S
C223 N227 1.413 . S
C224 H217 0.930 . S
C224 C223 1.393 . S
C224 C225 1.399 . S
C225 C224 1.399 . S
C225 C226 1.381 . S
C226 H218 0.930 . S
C226 C222 1.390 . S
C226 C225 1.381 . S
N227 C220 1.286 . S
N227 C223 1.413 . S
H228 C233 0.930 . S
H229 C236 0.930 . S
H230 C238 0.930 . S
H231 C232 1.016 . S
C232 H231 1.016 . S
C232 N239 1.286 . S
C233 H228 0.930 . S
C233 C234 1.397 . S
C233 C235 1.361 . S
C234 C233 1.397 . S
C234 C238 1.390 . S
C235 C233 1.361 . S
C235 C236 1.393 . S
C235 N239 1.413 . S
C236 H229 0.930 . S
C236 C235 1.393 . S
C236 C237 1.399 . S
C237 C236 1.399 . S
C237 C238 1.381 . S
C238 H230 0.930 . S
C238 C234 1.390 . S
C238 C237 1.381 . S
N239 C232 1.286 . S
N239 C235 1.413 . S
H240 C245 0.930 . S
H241 C248 0.930 . S
H242 C250 0.930 . S
H243 C244 1.016 . S
C244 H243 1.016 . S
C244 N251 1.286 . S
C245 H240 0.930 . S
C245 C246 1.397 . S
C245 C247 1.361 . S
C246 C245 1.397 . S
C246 C250 1.390 . S
C247 C245 1.361 . S
C247 C248 1.393 . S
C247 N251 1.413 . S
C248 H241 0.930 . S
C248 C247 1.393 . S
C248 C249 1.399 . S
C249 C248 1.399 . S
C249 C250 1.381 . S
C250 H242 0.930 . S
C250 C246 1.390 . S
C250 C249 1.381 . S
N251 C244 1.286 . S
N251 C247 1.413 . S
H252 C257 0.930 . S
H253 C260 0.930 . S
H254 C262 0.930 . S
H255 C256 1.016 . S
C256 H255 1.016 . S
C256 N263 1.286 . S
C257 H252 0.930 . S
C257 C258 1.397 . S
C257 C259 1.361 . S
C258 C257 1.397 . S
C258 C262 1.390 . S
C259 C257 1.361 . S
C259 C260 1.393 . S
C259 N263 1.413 . S
C260 H253 0.930 . S
C260 C259 1.393 . S
C260 C261 1.399 . S
C261 C260 1.399 . S
C261 C262 1.381 . S
C262 H254 0.930 . S
C262 C258 1.390 . S
C262 C261 1.381 . S
N263 C256 1.286 . S
N263 C259 1.413 . S
H264 C269 0.930 . S
H265 C272 0.930 . S
H266 C274 0.930 . S
H267 C268 1.016 . S
C268 H267 1.016 . S
C268 N275 1.286 . S
C269 H264 0.930 . S
C269 C270 1.397 . S
C269 C271 1.361 . S
C270 C269 1.397 . S
C270 C274 1.390 . S
C271 C269 1.361 . S
C271 C272 1.393 . S
C271 N275 1.413 . S
C272 H265 0.930 . S
C272 C271 1.393 . S
C272 C273 1.399 . S
C273 C272 1.399 . S
C273 C274 1.381 . S
C274 H266 0.930 . S
C274 C270 1.390 . S
C274 C273 1.381 . S
N275 C268 1.286 . S
N275 C271 1.413 . S
H276 C281 0.930 . S
H277 C284 0.930 . S
H278 C286 0.930 . S
H279 C280 1.016 . S
C280 H279 1.016 . S
C280 N287 1.286 . S
C281 H276 0.930 . S
C281 C282 1.397 . S
C281 C283 1.361 . S
C282 C281 1.397 . S
C282 C286 1.390 . S
C283 C281 1.361 . S
C283 C284 1.393 . S
C283 N287 1.413 . S
C284 H277 0.930 . S
C284 C283 1.393 . S
C284 C285 1.399 . S
C285 C284 1.399 . S
C285 C286 1.381 . S
C286 H278 0.930 . S
C286 C282 1.390 . S
C286 C285 1.381 . S
N287 C280 1.286 . S
N287 C283 1.413 . S
H288 C293 0.930 . S
H289 C296 0.930 . S
H290 C298 0.930 . S
H291 C292 1.016 . S
C292 H291 1.016 . S
C292 N299 1.286 . S
C293 H288 0.930 . S
C293 C294 1.397 . S
C293 C295 1.361 . S
C294 C293 1.397 . S
C294 C298 1.390 . S
C295 C293 1.361 . S
C295 C296 1.393 . S
C295 N299 1.413 . S
C296 H289 0.930 . S
C296 C295 1.393 . S
C296 C297 1.399 . S
C297 C296 1.399 . S
C297 C298 1.381 . S
C298 H290 0.930 . S
C298 C294 1.390 . S
C298 C297 1.381 . S
N299 C292 1.286 . S
N299 C295 1.413 . S
H300 C305 0.930 . S
H301 C308 0.930 . S
H302 C310 0.930 . S
H303 C304 1.016 . S
C304 H303 1.016 . S
C304 N311 1.286 . S
C305 H300 0.930 . S
C305 C306 1.397 . S
C305 C307 1.361 . S
C306 C305 1.397 . S
C306 C310 1.390 . S
C307 C305 1.361 . S
C307 C308 1.393 . S
C307 N311 1.413 . S
C308 H301 0.930 . S
C308 C307 1.393 . S
C308 C309 1.399 . S
C309 C308 1.399 . S
C309 C310 1.381 . S
C310 H302 0.930 . S
C310 C306 1.390 . S
C310 C309 1.381 . S
N311 C304 1.286 . S
N311 C307 1.413 . S
H312 C317 0.930 . S
H313 C320 0.930 . S
H314 C322 0.930 . S
H315 C316 1.016 . S
C316 H315 1.016 . S
C316 N323 1.286 . S
C317 H312 0.930 . S
C317 C318 1.397 . S
C317 C319 1.361 . S
C318 C317 1.397 . S
C318 C322 1.390 . S
C319 C317 1.361 . S
C319 C320 1.393 . S
C319 N323 1.413 . S
C320 H313 0.930 . S
C320 C319 1.393 . S
C320 C321 1.399 . S
C321 C320 1.399 . S
C321 C322 1.381 . S
C322 H314 0.930 . S
C322 C318 1.390 . S
C322 C321 1.381 . S
N323 C316 1.286 . S
N323 C319 1.413 . S
H324 C329 0.930 . S
H325 C332 0.930 . S
H326 C334 0.930 . S
H327 C328 1.016 . S
C328 H327 1.016 . S
C328 N335 1.286 . S
C329 H324 0.930 . S
C329 C330 1.397 . S
C329 C331 1.361 . S
C330 C329 1.397 . S
C330 C334 1.390 . S
C331 C329 1.361 . S
C331 C332 1.393 . S
C331 N335 1.413 . S
C332 H325 0.930 . S
C332 C331 1.393 . S
C332 C333 1.399 . S
C333 C332 1.399 . S
C333 C334 1.381 . S
C334 H326 0.930 . S
C334 C330 1.390 . S
C334 C333 1.381 . S
N335 C328 1.286 . S
N335 C331 1.413 . S
H336 C341 0.930 . S
H337 C344 0.930 . S
H338 C346 0.930 . S
H339 C340 1.016 . S
C340 H339 1.016 . S
C340 N347 1.286 . S
C341 H336 0.930 . S
C341 C342 1.397 . S
C341 C343 1.361 . S
C342 C341 1.397 . S
C342 C346 1.390 . S
C343 C341 1.361 . S
C343 C344 1.393 . S
C343 N347 1.413 . S
C344 H337 0.930 . S
C344 C343 1.393 . S
C344 C345 1.399 . S
C345 C344 1.399 . S
C345 C346 1.381 . S
C346 H338 0.930 . S
C346 C342 1.390 . S
C346 C345 1.381 . S
N347 C340 1.286 . S
N347 C343 1.413 . S
H348 C353 0.930 . S
H349 C356 0.930 . S
H350 C358 0.930 . S
H351 C352 1.016 . S
C352 H351 1.016 . S
C352 N359 1.286 . S
C353 H348 0.930 . S
C353 C354 1.397 . S
C353 C355 1.361 . S
C354 C353 1.397 . S
C354 C358 1.390 . S
C355 C353 1.361 . S
C355 C356 1.393 . S
C355 N359 1.413 . S
C356 H349 0.930 . S
C356 C355 1.393 . S
C356 C357 1.399 . S
C357 C356 1.399 . S
C357 C358 1.381 . S
C358 H350 0.930 . S
C358 C354 1.390 . S
C358 C357 1.381 . S
N359 C352 1.286 . S
N359 C355 1.413 . S
H360 C365 0.930 . S
H361 C368 0.930 . S
H362 C370 0.930 . S
H363 C364 1.016 . S
C364 H363 1.016 . S
C364 N371 1.286 . S
C365 H360 0.930 . S
C365 C366 1.397 . S
C365 C367 1.361 . S
C366 C365 1.397 . S
C366 C370 1.390 . S
C367 C365 1.361 . S
C367 C368 1.393 . S
C367 N371 1.413 . S
C368 H361 0.930 . S
C368 C367 1.393 . S
C368 C369 1.399 . S
C369 C368 1.399 . S
C369 C370 1.381 . S
C370 H362 0.930 . S
C370 C366 1.390 . S
C370 C369 1.381 . S
N371 C364 1.286 . S
N371 C367 1.413 . S
H372 C377 0.930 . S
H373 C380 0.930 . S
H374 C382 0.930 . S
H375 C376 1.016 . S
C376 H375 1.016 . S
C376 N383 1.286 . S
C377 H372 0.930 . S
C377 C378 1.397 . S
C377 C379 1.361 . S
C378 C377 1.397 . S
C378 C382 1.390 . S
C379 C377 1.361 . S
C379 C380 1.393 . S
C379 N383 1.413 . S
C380 H373 0.930 . S
C380 C379 1.393 . S
C380 C381 1.399 . S
C381 C380 1.399 . S
C381 C382 1.381 . S
C382 H374 0.930 . S
C382 C378 1.390 . S
C382 C381 1.381 . S
N383 C376 1.286 . S
N383 C379 1.413 . S
Cu384 N385 1.999 . S
Cu384 O390 1.919 1_554 S
Cu384 N395 1.985 . S
Cu384 O404 1.959 . S
N385 Cu384 1.999 . S
N385 C387 1.263 1_554 S
N385 C389 1.389 . S
N386 C387 1.358 . S
N386 C388 1.400 . S
C387 N385 1.263 1_556 S
C387 N386 1.358 . S
C387 H393 0.930 . S
C388 N386 1.400 . S
C388 C389 1.351 1_556 S
C388 H405 0.930 . S
C389 N385 1.389 . S
C389 C388 1.351 1_554 S
C389 H394 0.930 . S
O390 Cu384 1.919 1_556 S
O390 C400 1.313 . S
C391 O392 1.261 . S
C391 O404 1.251 . S
O392 C391 1.261 . S
H393 C387 0.930 . S
H394 C389 0.930 . S
N395 Cu384 1.985 . S
N395 C397 1.335 . S
N395 C398 1.390 . S
N396 C397 1.345 . S
N396 C399 1.336 . S
C397 N395 1.335 . S
C397 N396 1.345 . S
C397 H402 0.930 . S
C398 N395 1.390 . S
C398 C399 1.346 . S
C398 H403 0.930 . S
C399 N396 1.336 . S
C399 C398 1.346 . S
C399 H406 0.929 . S
C400 O390 1.313 . S
C400 O401 1.190 1_556 S
O401 C400 1.190 1_554 S
H402 C397 0.930 . S
H403 C398 0.930 . S
O404 Cu384 1.959 . S
O404 C391 1.251 . S
H405 C388 0.930 . S
H406 C399 0.929 . S
Cu407 N408 1.999 . S
Cu407 O413 1.974 . S
Cu407 N418 1.985 1_554 S
Cu407 O427 1.959 1_554 S
N408 Cu407 1.999 . S
N408 C410 1.263 . S
N408 C412 1.389 . S
N409 C410 1.358 . S
N409 C411 1.400 . S
C410 N408 1.263 . S
C410 N409 1.358 . S
C410 H416 0.930 . S
C411 N409 1.400 . S
C411 C412 1.351 . S
C411 H428 0.930 . S
C412 N408 1.389 . S
C412 C411 1.351 . S
C412 H417 0.930 . S
O413 Cu407 1.974 . S
O413 C423 1.282 . S
C414 O415 1.261 . S
C414 O427 1.251 . S
O415 C414 1.261 . S
H416 C410 0.930 . S
H417 C412 0.930 . S
N418 Cu407 1.985 1_556 S
N418 C420 1.335 . S
N418 C421 1.390 . S
N419 C420 1.345 . S
N419 C422 1.336 . S
C420 N418 1.335 . S
C420 N419 1.345 . S
C420 H425 0.930 . S
C421 N418 1.390 . S
C421 C422 1.346 . S
C421 H426 0.887 1_556 S
C422 N419 1.336 . S
C422 C421 1.346 . S
C422 H429 0.929 . S
C423 O413 1.282 . S
C423 O424 1.216 . S
O424 C423 1.216 . S
H425 C420 0.930 . S
H426 C421 0.887 1_554 S
O427 Cu407 1.959 1_556 S
O427 C414 1.251 . S
H428 C411 0.930 . S
H429 C422 0.929 . S
Cu430 N431 1.999 1_554 S
Cu430 O436 1.974 1_554 S
Cu430 N441 1.985 . S
Cu430 O450 1.959 . S
N431 Cu430 1.999 1_556 S
N431 C433 1.263 . S
N431 C435 1.389 . S
N432 C433 1.358 . S
N432 C434 1.400 . S
C433 N431 1.263 . S
C433 N432 1.358 . S
C433 H439 0.930 . S
C434 N432 1.400 . S
C434 C435 1.351 . S
C434 H451 0.930 . S
C435 N431 1.389 . S
C435 C434 1.351 . S
C435 H440 0.996 . S
O436 Cu430 1.974 1_556 S
O436 C446 1.282 . S
C437 O438 1.261 . S
C437 O450 1.251 . S
O438 C437 1.261 . S
H439 C433 0.930 . S
H440 C435 0.996 . S
N441 Cu430 1.985 . S
N441 C443 1.335 . S
N441 C444 1.390 . S
N442 C443 1.345 . S
N442 C445 1.336 . S
C443 N441 1.335 . S
C443 N442 1.345 . S
C443 H448 0.930 . S
C444 N441 1.390 . S
C444 C445 1.346 . S
C444 H449 0.930 . S
C445 N442 1.336 . S
C445 C444 1.346 . S
C445 H452 0.929 . S
C446 O436 1.282 . S
C446 O447 1.216 . S
O447 C446 1.216 . S
H448 C443 0.930 . S
H449 C444 0.930 . S
O450 Cu430 1.959 . S
O450 C437 1.251 . S
H451 C434 0.930 . S
H452 C445 0.929 . S
Cu453 N454 1.972 1_556 S
Cu453 O459 1.943 1_556 S
Cu453 N464 2.011 . S
Cu453 O473 1.989 . S
N454 Cu453 1.972 1_554 S
N454 C456 1.263 . S
N454 C458 1.389 . S
N455 C456 1.358 . S
N455 C457 1.400 . S
C456 N454 1.263 . S
C456 N455 1.358 . S
C456 H462 0.930 . S
C457 N455 1.400 . S
C457 C458 1.351 . S
C457 H474 0.930 . S
C458 N454 1.389 . S
C458 C457 1.351 . S
C458 H463 0.930 . S
O459 Cu453 1.943 1_554 S
O459 C469 1.282 . S
C460 O461 1.261 . S
C460 O473 1.251 . S
O461 C460 1.261 . S
H462 C456 0.930 . S
H463 C458 0.930 . S
N464 Cu453 2.011 . S
N464 C466 1.335 . S
N464 C467 1.390 . S
N465 C466 1.345 . S
N465 C468 1.336 . S
C466 N464 1.335 . S
C466 N465 1.345 . S
C466 H471 0.930 . S
C467 N464 1.390 . S
C467 C468 1.346 . S
C467 H472 0.930 . S
C468 N465 1.336 . S
C468 C467 1.346 . S
C468 H475 0.929 . S
C469 O459 1.282 . S
C469 O470 1.216 . S
O470 C469 1.216 . S
H471 C466 0.930 . S
H472 C467 0.930 . S
O473 Cu453 1.989 . S
O473 C460 1.251 . S
H474 C457 0.930 . S
H475 C468 0.929 . S
Cu476 N477 1.999 . S
Cu476 O482 1.974 . S
Cu476 N487 1.985 . S
Cu476 O496 1.959 . S
N477 Cu476 1.999 . S
N477 C479 1.263 . S
N477 C481 1.389 . S
N478 C479 1.358 . S
N478 C480 1.400 . S
C479 N477 1.263 . S
C479 N478 1.358 . S
C479 H485 0.930 . S
C480 N478 1.400 . S
C480 C481 1.351 . S
C480 H497 0.930 . S
C481 N477 1.389 . S
C481 C480 1.351 . S
C481 H486 0.930 . S
O482 Cu476 1.974 . S
O482 C492 1.282 . S
C483 O484 1.261 . S
C483 O496 1.251 1_655 S
O484 C483 1.261 . S
H485 C479 0.930 . S
H486 C481 0.930 . S
N487 Cu476 1.985 . S
N487 C489 1.335 1_455 S
N487 C490 1.390 . S
N488 C489 1.345 . S
N488 C491 1.336 . S
C489 N487 1.335 1_655 S
C489 N488 1.345 . S
C489 H494 0.930 . S
C490 N487 1.390 . S
C490 C491 1.346 1_455 S
C490 H495 0.930 . S
C491 N488 1.336 . S
C491 C490 1.346 1_655 S
C491 H498 0.929 . S
C492 O482 1.282 . S
C492 O493 1.216 . S
O493 C492 1.216 . S
H494 C489 0.930 . S
H495 C490 0.930 . S
O496 Cu476 1.959 . S
O496 C483 1.251 1_455 S
H497 C480 0.930 . S
H498 C491 0.929 . S
Cu499 N500 1.999 . S
Cu499 O505 1.974 . S
Cu499 N510 1.983 1_545 S
Cu499 O519 1.959 1_545 S
N500 Cu499 1.999 . S
N500 C502 1.263 . S
N500 C504 1.389 . S
N501 C502 1.358 . S
N501 C503 1.400 . S
C502 N500 1.263 . S
C502 N501 1.358 . S
C502 H508 0.930 . S
C503 N501 1.400 . S
C503 C504 1.351 . S
C503 H520 0.930 . S
C504 N500 1.389 . S
C504 C503 1.351 . S
C504 H509 0.930 . S
O505 Cu499 1.974 . S
O505 C515 1.282 . S
C506 O507 1.261 1_565 S
C506 O519 1.251 . S
O507 C506 1.261 1_545 S
H508 C502 0.930 . S
H509 C504 0.930 . S
N510 Cu499 1.983 1_565 S
N510 C512 1.338 . S
N510 C513 1.389 1_565 S
N511 C512 1.345 . S
N511 C514 1.336 . S
C512 N510 1.338 . S
C512 N511 1.345 . S
C512 H517 0.930 . S
C513 N510 1.389 1_545 S
C513 C514 1.346 1_545 S
C513 H518 0.930 . S
C514 N511 1.336 . S
C514 C513 1.346 1_565 S
C514 H521 0.929 . S
C515 O505 1.282 . S
C515 O516 1.216 . S
O516 C515 1.216 . S
H517 C512 0.930 . S
H518 C513 0.930 . S
O519 Cu499 1.959 1_565 S
O519 C506 1.251 . S
H520 C503 0.930 . S
H521 C514 0.929 . S
Cu522 N523 2.053 . S
Cu522 O528 2.041 . S
Cu522 N533 1.934 1_655 S
Cu522 O542 1.894 1_655 S
N523 Cu522 2.053 . S
N523 C525 1.263 . S
N523 C527 1.389 . S
N524 C525 1.358 . S
N524 C526 1.400 . S
C525 N523 1.263 . S
C525 N524 1.358 . S
C525 H531 0.930 . S
C526 N524 1.400 . S
C526 C527 1.351 . S
C526 H543 0.930 . S
C527 N523 1.389 . S
C527 C526 1.351 . S
C527 H532 0.930 1_655 S
O528 Cu522 2.041 . S
O528 C538 1.282 . S
C529 O530 1.261 . S
C529 O542 1.251 . S
O530 C529 1.261 . S
H531 C525 0.930 . S
H532 C527 0.930 1_455 S
N533 Cu522 1.934 1_455 S
N533 C535 1.335 . S
N533 C536 1.390 . S
N534 C535 1.345 . S
N534 C537 1.336 . S
C535 N533 1.335 . S
C535 N534 1.345 . S
C535 H540 0.930 . S
C536 N533 1.390 . S
C536 C537 1.346 . S
C536 H541 0.930 1_455 S
C537 N534 1.336 . S
C537 C536 1.346 . S
C537 H544 0.929 . S
C538 O528 1.282 . S
C538 O539 1.216 . S
O539 C538 1.216 . S
H540 C535 0.930 . S
H541 C536 0.930 1_655 S
O542 Cu522 1.894 1_455 S
O542 C529 1.251 . S
H543 C526 0.930 . S
H544 C537 0.929 . S
Cu545 N546 2.037 . S
Cu545 O551 2.017 . S
Cu545 N556 1.949 1_545 S
Cu545 O565 1.917 1_545 S
N546 Cu545 2.037 . S
N546 C548 1.263 . S
N546 C550 1.389 . S
N547 C548 1.358 . S
N547 C549 1.400 . S
C548 N546 1.263 . S
C548 N547 1.358 . S
C548 H554 0.930 . S
C549 N547 1.400 . S
C549 C550 1.351 . S
C549 H566 0.930 . S
C550 N546 1.389 . S
C550 C549 1.351 . S
C550 H555 0.930 . S
O551 Cu545 2.017 . S
O551 C561 1.282 . S
C552 O553 1.261 . S
C552 O565 1.251 . S
O553 C552 1.261 . S
H554 C548 0.930 . S
H555 C550 0.930 . S
N556 Cu545 1.949 1_565 S
N556 C558 1.335 . S
N556 C559 1.390 . S
N557 C558 1.345 . S
N557 C560 1.336 . S
C558 N556 1.335 . S
C558 N557 1.345 . S
C558 H563 0.930 . S
C559 N556 1.390 . S
C559 C560 1.346 . S
C559 H564 0.930 . S
C560 N557 1.336 . S
C560 C559 1.346 . S
C560 H567 0.929 . S
C561 O551 1.282 . S
C561 O562 1.216 . S
O562 C561 1.216 . S
H563 C558 0.930 . S
H564 C559 0.930 . S
O565 Cu545 1.917 1_565 S
O565 C552 1.251 . S
H566 C549 0.930 . S
H567 C560 0.929 . S
Cu568 N569 1.999 . S
Cu568 O574 1.974 . S
Cu568 N579 1.985 . S
Cu568 O588 1.959 . S
N569 Cu568 1.999 . S
N569 C571 1.263 . S
N569 C573 1.389 . S
N570 C571 1.358 . S
N570 C572 1.400 . S
C571 N569 1.263 . S
C571 N570 1.358 . S
C571 H577 0.930 . S
C572 N570 1.400 . S
C572 C573 1.351 . S
C572 H589 0.930 . S
C573 N569 1.389 . S
C573 C572 1.351 . S
C573 H578 0.930 . S
O574 Cu568 1.974 . S
O574 C584 1.282 . S
C575 O576 1.261 . S
C575 O588 1.251 1_655 S
O576 C575 1.261 . S
H577 C571 0.930 . S
H578 C573 0.930 . S
N579 Cu568 1.985 . S
N579 C581 1.335 1_455 S
N579 C582 1.390 . S
N580 C581 1.345 . S
N580 C583 1.336 . S
C581 N579 1.335 1_655 S
C581 N580 1.345 . S
C581 H586 0.930 . S
C582 N579 1.390 . S
C582 C583 1.346 1_455 S
C582 H587 0.930 . S
C583 N580 1.336 . S
C583 C582 1.346 1_655 S
C583 H590 0.929 . S
C584 O574 1.282 . S
C584 O585 1.216 . S
O585 C584 1.216 . S
H586 C581 0.930 . S
H587 C582 0.930 . S
O588 Cu568 1.959 . S
O588 C575 1.251 1_455 S
H589 C572 0.930 . S
H590 C583 0.929 . S
Cu591 N592 1.999 . S
Cu591 O597 1.974 . S
Cu591 N602 1.985 . S
Cu591 O611 1.959 . S
N592 Cu591 1.999 . S
N592 C594 1.263 . S
N592 C596 1.389 . S
N593 C594 1.358 . S
N593 C595 1.400 . S
C594 N592 1.263 . S
C594 N593 1.358 . S
C594 H600 0.930 . S
C595 N593 1.400 . S
C595 C596 1.351 . S
C595 H612 0.930 . S
C596 N592 1.389 . S
C596 C595 1.351 . S
C596 H601 0.930 . S
O597 Cu591 1.974 . S
O597 C607 1.282 . S
C598 O599 1.261 . S
C598 O611 1.251 . S
O599 C598 1.261 . S
H600 C594 0.930 . S
H601 C596 0.930 . S
N602 Cu591 1.985 . S
N602 C604 1.335 1_545 S
N602 C605 1.390 . S
N603 C604 1.345 . S
N603 C606 1.336 . S
C604 N602 1.335 1_565 S
C604 N603 1.345 . S
C604 H609 0.930 . S
C605 N602 1.390 . S
C605 C606 1.346 1_545 S
C605 H610 0.930 . S
C606 N603 1.336 . S
C606 C605 1.346 1_565 S
C606 H613 0.929 . S
C607 O597 1.282 . S
C607 O608 1.216 . S
O608 C607 1.216 . S
H609 C604 0.930 . S
H610 C605 0.930 . S
O611 Cu591 1.959 . S
O611 C598 1.251 . S
H612 C595 0.930 . S
H613 C606 0.929 . S
Cu614 N615 1.999 . S
Cu614 O620 1.974 . S
Cu614 N625 1.985 . S
Cu614 O634 1.959 . S
N615 Cu614 1.999 . S
N615 C617 1.263 . S
N615 C619 1.389 . S
N616 C617 1.358 . S
N616 C618 1.400 . S
C617 N615 1.263 . S
C617 N616 1.358 . S
C617 H623 0.930 . S
C618 N616 1.400 . S
C618 C619 1.351 . S
C618 H635 0.930 . S
C619 N615 1.389 . S
C619 C618 1.351 . S
C619 H624 0.930 . S
O620 Cu614 1.974 . S
O620 C630 1.282 . S
C621 O622 1.261 . S
C621 O634 1.251 . S
O622 C621 1.261 . S
H623 C617 0.930 . S
H624 C619 0.930 . S
N625 Cu614 1.985 . S
N625 C627 1.335 . S
N625 C628 1.390 . S
N626 C627 1.345 . S
N626 C629 1.336 . S
C627 N625 1.335 . S
C627 N626 1.345 . S
C627 H632 0.930 . S
C628 N625 1.390 . S
C628 C629 1.346 . S
C628 H633 0.930 . S
C629 N626 1.336 . S
C629 C628 1.346 . S
C629 H636 0.929 . S
C630 O620 1.282 . S
C630 O631 1.216 . S
O631 C630 1.216 . S
H632 C627 0.930 . S
H633 C628 0.930 . S
O634 Cu614 1.959 . S
O634 C621 1.251 . S
H635 C618 0.930 . S
H636 C629 0.929 . S
Cu637 N638 1.999 . S
Cu637 O643 1.974 . S
Cu637 N648 1.985 . S
Cu637 O657 1.959 . S
N638 Cu637 1.999 . S
N638 C640 1.263 . S
N638 C642 1.389 . S
N639 C640 1.358 . S
N639 C641 1.400 . S
C640 N638 1.263 . S
C640 N639 1.358 . S
C640 H646 0.930 . S
C641 N639 1.400 . S
C641 C642 1.351 . S
C641 H658 0.930 . S
C642 N638 1.389 . S
C642 C641 1.351 . S
C642 H647 0.930 . S
O643 Cu637 1.974 . S
O643 C653 1.282 . S
C644 O645 1.261 . S
C644 O657 1.251 . S
O645 C644 1.261 . S
H646 C640 0.930 . S
H647 C642 0.930 . S
N648 Cu637 1.985 . S
N648 C650 1.335 1_545 S
N648 C651 1.390 . S
N649 C650 1.345 . S
N649 C652 1.336 . S
C650 N648 1.335 1_565 S
C650 N649 1.345 . S
C650 H655 0.930 . S
C651 N648 1.390 . S
C651 C652 1.346 1_545 S
C651 H656 0.930 . S
C652 N649 1.336 . S
C652 C651 1.346 1_565 S
C652 H659 0.929 . S
C653 O643 1.282 . S
C653 O654 1.216 . S
O654 C653 1.216 . S
H655 C650 0.930 . S
H656 C651 0.930 . S
O657 Cu637 1.959 . S
O657 C644 1.251 . S
H658 C641 0.930 . S
H659 C652 0.929 . S
Cu660 N661 1.999 . S
Cu660 O666 1.974 . S
Cu660 N671 1.985 . S
Cu660 O680 1.959 . S
N661 Cu660 1.999 . S
N661 C663 1.263 . S
N661 C665 1.389 . S
N662 C663 1.358 . S
N662 C664 1.400 . S
C663 N661 1.263 . S
C663 N662 1.358 . S
C663 H669 0.930 . S
C664 N662 1.400 . S
C664 C665 1.351 . S
C664 H681 0.930 . S
C665 N661 1.389 . S
C665 C664 1.351 . S
C665 H670 0.930 . S
O666 Cu660 1.974 . S
O666 C676 1.282 . S
C667 O668 1.261 . S
C667 O680 1.251 . S
O668 C667 1.261 . S
H669 C663 0.930 . S
H670 C665 0.930 . S
N671 Cu660 1.985 . S
N671 C673 1.335 . S
N671 C674 1.390 . S
N672 C673 1.345 . S
N672 C675 1.336 . S
C673 N671 1.335 . S
C673 N672 1.345 . S
C673 H678 0.930 . S
C674 N671 1.390 . S
C674 C675 1.346 . S
C674 H679 0.930 . S
C675 N672 1.336 . S
C675 C674 1.346 . S
C675 H682 0.929 . S
C676 O666 1.282 . S
C676 O677 1.216 . S
O677 C676 1.216 . S
H678 C673 0.930 . S
H679 C674 0.930 . S
O680 Cu660 1.959 . S
O680 C667 1.251 . S
H681 C664 0.930 . S
H682 C675 0.929 . S
Cu683 N684 1.999 . S
Cu683 O689 1.974 . S
Cu683 N694 1.985 . S
Cu683 O703 1.959 . S
N684 Cu683 1.999 . S
N684 C686 1.263 . S
N684 C688 1.389 . S
N685 C686 1.358 . S
N685 C687 1.400 . S
C686 N684 1.263 . S
C686 N685 1.358 . S
C686 H692 0.930 . S
C687 N685 1.400 . S
C687 C688 1.351 . S
C687 H704 0.930 . S
C688 N684 1.389 . S
C688 C687 1.351 . S
C688 H693 0.930 . S
O689 Cu683 1.974 . S
O689 C699 1.282 . S
C690 O691 1.261 . S
C690 O703 1.251 . S
O691 C690 1.261 . S
H692 C686 0.930 . S
H693 C688 0.930 . S
N694 Cu683 1.985 . S
N694 C696 1.335 . S
N694 C697 1.390 . S
N695 C696 1.345 . S
N695 C698 1.336 . S
C696 N694 1.335 . S
C696 N695 1.345 . S
C696 H701 0.930 . S
C697 N694 1.390 . S
C697 C698 1.346 . S
C697 H702 0.930 . S
C698 N695 1.336 . S
C698 C697 1.346 . S
C698 H705 0.929 . S
C699 O689 1.282 . S
C699 O700 1.216 . S
O700 C699 1.216 . S
H701 C696 0.930 . S
H702 C697 0.930 . S
O703 Cu683 1.959 . S
O703 C690 1.251 . S
H704 C687 0.930 . S
H705 C698 0.929 . S
Cu706 N707 1.999 . S
Cu706 O712 1.974 . S
Cu706 N717 1.985 . S
Cu706 O726 1.959 . S
N707 Cu706 1.999 . S
N707 C709 1.263 . S
N707 C711 1.389 . S
N708 C709 1.358 . S
N708 C710 1.400 . S
C709 N707 1.263 . S
C709 N708 1.358 . S
C709 H715 0.930 . S
C710 N708 1.400 . S
C710 C711 1.351 . S
C710 H727 0.930 . S
C711 N707 1.389 . S
C711 C710 1.351 . S
C711 H716 0.930 . S
O712 Cu706 1.974 . S
O712 C722 1.282 . S
C713 O714 1.261 . S
C713 O726 1.251 . S
O714 C713 1.261 . S
H715 C709 0.930 . S
H716 C711 0.930 . S
N717 Cu706 1.985 . S
N717 C719 1.335 . S
N717 C720 1.390 . S
N718 C719 1.345 . S
N718 C721 1.336 . S
C719 N717 1.335 . S
C719 N718 1.345 . S
C719 H724 0.930 . S
C720 N717 1.390 . S
C720 C721 1.346 . S
C720 H725 0.930 . S
C721 N718 1.336 . S
C721 C720 1.346 . S
C721 H728 0.929 . S
C722 O712 1.282 . S
C722 O723 1.216 . S
O723 C722 1.216 . S
H724 C719 0.930 . S
H725 C720 0.930 . S
O726 Cu706 1.959 . S
O726 C713 1.251 . S
H727 C710 0.930 . S
H728 C721 0.929 . S
Cu729 N730 1.999 . S
Cu729 O735 1.974 . S
Cu729 N740 1.985 . S
Cu729 O749 1.959 . S
N730 Cu729 1.999 . S
N730 C732 1.263 . S
N730 C734 1.389 . S
N731 C732 1.358 . S
N731 C733 1.400 . S
C732 N730 1.263 . S
C732 N731 1.358 . S
C732 H738 0.930 . S
C733 N731 1.400 . S
C733 C734 1.351 . S
C733 H750 0.930 . S
C734 N730 1.389 . S
C734 C733 1.351 . S
C734 H739 0.930 . S
O735 Cu729 1.974 . S
O735 C745 1.282 . S
C736 O737 1.261 . S
C736 O749 1.251 . S
O737 C736 1.261 . S
H738 C732 0.930 . S
H739 C734 0.930 . S
N740 Cu729 1.985 . S
N740 C742 1.335 . S
N740 C743 1.390 . S
N741 C742 1.345 . S
N741 C744 1.336 . S
C742 N740 1.335 . S
C742 N741 1.345 . S
C742 H747 0.930 . S
C743 N740 1.390 . S
C743 C744 1.346 . S
C743 H748 0.930 . S
C744 N741 1.336 . S
C744 C743 1.346 . S
C744 H751 0.929 . S
C745 O735 1.282 . S
C745 O746 1.216 . S
O746 C745 1.216 . S
H747 C742 0.930 . S
H748 C743 0.930 . S
O749 Cu729 1.959 . S
O749 C736 1.251 . S
H750 C733 0.930 . S
H751 C744 0.929 . S
Cu752 N753 1.999 . S
Cu752 O758 1.974 . S
Cu752 N763 1.985 . S
Cu752 O772 1.959 . S
N753 Cu752 1.999 . S
N753 C755 1.263 . S
N753 C757 1.389 . S
N754 C755 1.358 . S
N754 C756 1.400 . S
C755 N753 1.263 . S
C755 N754 1.358 . S
C755 H761 0.930 . S
C756 N754 1.400 . S
C756 C757 1.351 . S
C756 H773 0.930 . S
C757 N753 1.389 . S
C757 C756 1.351 . S
C757 H762 0.930 . S
O758 Cu752 1.974 . S
O758 C768 1.282 . S
C759 O760 1.261 . S
C759 O772 1.251 . S
O760 C759 1.261 . S
H761 C755 0.930 . S
H762 C757 0.930 . S
N763 Cu752 1.985 . S
N763 C765 1.335 . S
N763 C766 1.390 . S
N764 C765 1.345 . S
N764 C767 1.336 . S
C765 N763 1.335 . S
C765 N764 1.345 . S
C765 H770 0.930 . S
C766 N763 1.390 . S
C766 C767 1.346 . S
C766 H771 0.930 . S
C767 N764 1.336 . S
C767 C766 1.346 . S
C767 H774 0.929 . S
C768 O758 1.282 . S
C768 O769 1.216 . S
O769 C768 1.216 . S
H770 C765 0.930 . S
H771 C766 0.930 . S
O772 Cu752 1.959 . S
O772 C759 1.251 . S
H773 C756 0.930 . S
H774 C767 0.929 . S
Cu775 N776 1.999 . S
Cu775 O781 1.974 . S
Cu775 N786 1.985 . S
Cu775 O795 1.959 . S
N776 Cu775 1.999 . S
N776 C778 1.263 . S
N776 C780 1.389 . S
N777 C778 1.358 . S
N777 C779 1.400 . S
C778 N776 1.263 . S
C778 N777 1.358 . S
C778 H784 0.930 . S
C779 N777 1.400 . S
C779 C780 1.351 . S
C779 H796 0.930 . S
C780 N776 1.389 . S
C780 C779 1.351 . S
C780 H785 0.930 . S
O781 Cu775 1.974 . S
O781 C791 1.282 . S
C782 O783 1.261 . S
C782 O795 1.251 . S
O783 C782 1.261 . S
H784 C778 0.930 . S
H785 C780 0.930 . S
N786 Cu775 1.985 . S
N786 C788 1.335 . S
N786 C789 1.390 . S
N787 C788 1.345 . S
N787 C790 1.336 . S
C788 N786 1.335 . S
C788 N787 1.345 . S
C788 H793 0.930 . S
C789 N786 1.390 . S
C789 C790 1.346 . S
C789 H794 0.930 . S
C790 N787 1.336 . S
C790 C789 1.346 . S
C790 H797 0.929 . S
C791 O781 1.282 . S
C791 O792 1.216 . S
O792 C791 1.216 . S
H793 C788 0.930 . S
H794 C789 0.930 . S
O795 Cu775 1.959 . S
O795 C782 1.251 . S
H796 C779 0.930 . S
H797 C790 0.929 . S
Cu798 N799 1.999 . S
Cu798 O804 1.974 . S
Cu798 N809 1.985 . S
Cu798 O818 1.959 . S
N799 Cu798 1.999 . S
N799 C801 1.263 . S
N799 C803 1.389 . S
N800 C801 1.358 . S
N800 C802 1.400 . S
C801 N799 1.263 . S
C801 N800 1.358 . S
C801 H807 0.930 . S
C802 N800 1.400 . S
C802 C803 1.351 . S
C802 H819 0.930 . S
C803 N799 1.389 . S
C803 C802 1.351 . S
C803 H808 0.930 . S
O804 Cu798 1.974 . S
O804 C814 1.282 . S
C805 O806 1.261 . S
C805 O818 1.251 . S
O806 C805 1.261 . S
H807 C801 0.930 . S
H808 C803 0.930 . S
N809 Cu798 1.985 . S
N809 C811 1.335 . S
N809 C812 1.390 . S
N810 C811 1.345 . S
N810 C813 1.336 . S
C811 N809 1.335 . S
C811 N810 1.345 . S
C811 H816 0.930 . S
C812 N809 1.390 . S
C812 C813 1.346 . S
C812 H817 0.930 . S
C813 N810 1.336 . S
C813 C812 1.346 . S
C813 H820 0.929 . S
C814 O804 1.282 . S
C814 O815 1.216 . S
O815 C814 1.216 . S
H816 C811 0.930 . S
H817 C812 0.930 . S
O818 Cu798 1.959 . S
O818 C805 1.251 . S
H819 C802 0.930 . S
H820 C813 0.929 . S
Cu821 N822 1.999 . S
Cu821 O827 1.974 . S
Cu821 N832 1.985 . S
Cu821 O841 1.959 . S
N822 Cu821 1.999 . S
N822 C824 1.263 . S
N822 C826 1.389 . S
N823 C824 1.358 . S
N823 C825 1.400 . S
C824 N822 1.263 . S
C824 N823 1.358 . S
C824 H830 0.930 . S
C825 N823 1.400 . S
C825 C826 1.351 . S
C825 H842 0.930 . S
C826 N822 1.389 . S
C826 C825 1.351 . S
C826 H831 0.930 . S
O827 Cu821 1.974 . S
O827 C837 1.282 . S
C828 O829 1.261 . S
C828 O841 1.251 . S
O829 C828 1.261 . S
H830 C824 0.930 . S
H831 C826 0.930 . S
N832 Cu821 1.985 . S
N832 C834 1.335 . S
N832 C835 1.390 . S
N833 C834 1.345 . S
N833 C836 1.336 . S
C834 N832 1.335 . S
C834 N833 1.345 . S
C834 H839 0.930 . S
C835 N832 1.390 . S
C835 C836 1.346 . S
C835 H840 0.930 . S
C836 N833 1.336 . S
C836 C835 1.346 . S
C836 H843 0.929 . S
C837 O827 1.282 . S
C837 O838 1.216 . S
O838 C837 1.216 . S
H839 C834 0.930 . S
H840 C835 0.930 . S
O841 Cu821 1.959 . S
O841 C828 1.251 . S
H842 C825 0.930 . S
H843 C836 0.929 . S
Cu844 N845 1.999 . S
Cu844 O850 1.974 . S
Cu844 N855 1.985 . S
Cu844 O864 1.959 . S
N845 Cu844 1.999 . S
N845 C847 1.263 . S
N845 C849 1.389 . S
N846 C847 1.358 . S
N846 C848 1.400 . S
C847 N845 1.263 . S
C847 N846 1.358 . S
C847 H853 0.930 . S
C848 N846 1.400 . S
C848 C849 1.351 . S
C848 H865 0.930 . S
C849 N845 1.389 . S
C849 C848 1.351 . S
C849 H854 0.930 . S
O850 Cu844 1.974 . S
O850 C860 1.282 . S
C851 O852 1.261 . S
C851 O864 1.251 . S
O852 C851 1.261 . S
H853 C847 0.930 . S
H854 C849 0.930 . S
N855 Cu844 1.985 . S
N855 C857 1.335 . S
N855 C858 1.390 . S
N856 C857 1.345 . S
N856 C859 1.336 . S
C857 N855 1.335 . S
C857 N856 1.345 . S
C857 H862 0.930 . S
C858 N855 1.390 . S
C858 C859 1.346 . S
C858 H863 0.930 . S
C859 N856 1.336 . S
C859 C858 1.346 . S
C859 H866 0.929 . S
C860 O850 1.282 . S
C860 O861 1.216 . S
O861 C860 1.216 . S
H862 C857 0.930 . S
H863 C858 0.930 . S
O864 Cu844 1.959 . S
O864 C851 1.251 . S
H865 C848 0.930 . S
H866 C859 0.929 . S
Cu867 N868 1.999 . S
Cu867 O873 1.974 . S
Cu867 N878 1.985 . S
Cu867 O887 1.959 . S
N868 Cu867 1.999 . S
N868 C870 1.263 . S
N868 C872 1.389 . S
N869 C870 1.358 . S
N869 C871 1.400 . S
C870 N868 1.263 . S
C870 N869 1.358 . S
C870 H876 0.930 . S
C871 N869 1.400 . S
C871 C872 1.351 . S
C871 H888 0.930 . S
C872 N868 1.389 . S
C872 C871 1.351 . S
C872 H877 0.930 . S
O873 Cu867 1.974 . S
O873 C883 1.282 . S
C874 O875 1.261 . S
C874 O887 1.251 . S
O875 C874 1.261 . S
H876 C870 0.930 . S
H877 C872 0.930 . S
N878 Cu867 1.985 . S
N878 C880 1.335 . S
N878 C881 1.390 . S
N879 C880 1.345 . S
N879 C882 1.336 . S
C880 N878 1.335 . S
C880 N879 1.345 . S
C880 H885 0.930 . S
C881 N878 1.390 . S
C881 C882 1.346 . S
C881 H886 0.930 . S
C882 N879 1.336 . S
C882 C881 1.346 . S
C882 H889 0.929 . S
C883 O873 1.282 . S
C883 O884 1.216 . S
O884 C883 1.216 . S
H885 C880 0.930 . S
H886 C881 0.930 . S
O887 Cu867 1.959 . S
O887 C874 1.251 . S
H888 C871 0.930 . S
H889 C882 0.929 . S
Cu890 N891 1.999 . S
Cu890 O896 1.974 . S
Cu890 N901 1.985 . S
Cu890 O910 1.959 . S
N891 Cu890 1.999 . S
N891 C893 1.263 . S
N891 C895 1.389 . S
N892 C893 1.358 . S
N892 C894 1.400 . S
C893 N891 1.263 . S
C893 N892 1.358 . S
C893 H899 0.930 . S
C894 N892 1.400 . S
C894 C895 1.351 . S
C894 H911 0.930 . S
C895 N891 1.389 . S
C895 C894 1.351 . S
C895 H900 0.930 . S
O896 Cu890 1.974 . S
O896 C906 1.282 . S
C897 O898 1.261 . S
C897 O910 1.251 . S
O898 C897 1.261 . S
H899 C893 0.930 . S
H900 C895 0.930 . S
N901 Cu890 1.985 . S
N901 C903 1.335 . S
N901 C904 1.390 . S
N902 C903 1.345 . S
N902 C905 1.336 . S
C903 N901 1.335 . S
C903 N902 1.345 . S
C903 H908 0.930 . S
C904 N901 1.390 . S
C904 C905 1.346 . S
C904 H909 0.930 . S
C905 N902 1.336 . S
C905 C904 1.346 . S
C905 H912 0.929 . S
C906 O896 1.282 . S
C906 O907 1.216 . S
O907 C906 1.216 . S
H908 C903 0.930 . S
H909 C904 0.930 . S
O910 Cu890 1.959 . S
O910 C897 1.251 . S
H911 C894 0.930 . S
H912 C905 0.929 . S
Cu913 N914 1.999 . S
Cu913 O919 1.974 . S
Cu913 N924 1.985 . S
Cu913 O933 1.959 . S
N914 Cu913 1.999 . S
N914 C916 1.263 . S
N914 C918 1.389 . S
N915 C916 1.358 . S
N915 C917 1.400 . S
C916 N914 1.263 . S
C916 N915 1.358 . S
C916 H922 0.930 . S
C917 N915 1.400 . S
C917 C918 1.351 . S
C917 H934 0.930 . S
C918 N914 1.389 . S
C918 C917 1.351 . S
C918 H923 0.930 . S
O919 Cu913 1.974 . S
O919 C929 1.282 . S
C920 O921 1.261 . S
C920 O933 1.251 . S
O921 C920 1.261 . S
H922 C916 0.930 . S
H923 C918 0.930 . S
N924 Cu913 1.985 . S
N924 C926 1.335 . S
N924 C927 1.390 . S
N925 C926 1.345 . S
N925 C928 1.336 . S
C926 N924 1.335 . S
C926 N925 1.345 . S
C926 H931 0.930 . S
C927 N924 1.390 . S
C927 C928 1.346 . S
C927 H932 0.930 . S
C928 N925 1.336 . S
C928 C927 1.346 . S
C928 H935 0.929 . S
C929 O919 1.282 . S
C929 O930 1.216 . S
O930 C929 1.216 . S
H931 C926 0.930 . S
H932 C927 0.930 . S
O933 Cu913 1.959 . S
O933 C920 1.251 . S
H934 C917 0.930 . S
H935 C928 0.929 . S
H936 C944 0.929 . S
H937 C946 0.930 . S
H938 C948 0.930 . S
H939 C951 0.929 . S
H940 C954 0.930 . S
H941 C956 0.960 . S
H942 C956 0.960 . S
H943 C956 0.960 . S
C944 H936 0.929 . S
C944 C945 1.377 . S
C944 C946 1.384 . S
C945 C944 1.377 . S
C945 C951 1.390 . S
C946 H937 0.930 . S
C946 C944 1.384 . S
C946 C947 1.372 . S
C947 C946 1.372 . S
C947 C948 1.400 . S
C947 C952 1.490 . S
C948 H938 0.930 . S
C948 C947 1.400 . S
C948 C951 1.386 . S
H949 C965 0.930 . S
H950 C966 0.931 . S
C951 H939 0.929 . S
C951 C945 1.390 . S
C951 C948 1.386 . S
C952 C947 1.490 . S
C952 C954 1.395 . S
C952 C955 1.403 . S
H953 C959 0.930 . S
C954 H940 0.930 . S
C954 C952 1.395 . S
C954 C957 1.403 . S
C955 C952 1.403 . S
C955 C956 1.524 . S
C955 C959 1.400 . S
C956 H941 0.960 . S
C956 H942 0.960 . S
C956 H943 0.960 . S
C956 C955 1.524 . S
C957 C954 1.403 . S
C957 C958 1.392 . S
C957 C961 1.495 . S
C958 C957 1.392 . S
C958 C959 1.385 . S
C958 C960 1.478 . S
C959 H953 0.930 . S
C959 C955 1.400 . S
C959 C958 1.385 . S
C960 C958 1.478 . S
C960 C962 1.381 . S
C960 C966 1.383 . S
C961 C957 1.495 . S
C961 H967 0.959 . S
C961 H968 0.961 . S
C961 H969 0.960 . S
C962 C960 1.381 . S
C962 C963 1.394 . S
C962 H970 0.930 . S
C963 C962 1.394 . S
C963 C964 1.383 . S
C963 H971 0.929 . S
C964 C963 1.383 . S
C964 C965 1.377 . S
C965 H949 0.930 . S
C965 C964 1.377 . S
C965 C966 1.379 . S
C966 H950 0.931 . S
C966 C960 1.383 . S
C966 C965 1.379 . S
H967 C961 0.959 . S
H968 C961 0.961 . S
H969 C961 0.960 . S
H970 C962 0.930 . S
H971 C963 0.929 . S
H972 C980 0.929 . S
H973 C982 0.930 . S
H974 C984 0.930 . S
H975 C987 0.929 . S
H976 C990 0.930 . S
H977 C992 0.960 . S
H978 C992 0.960 . S
H979 C992 0.960 . S
C980 H972 0.929 . S
C980 C981 1.377 . S
C980 C982 1.384 . S
C981 C980 1.377 . S
C981 C987 1.390 . S
C982 H973 0.930 . S
C982 C980 1.384 . S
C982 C983 1.372 . S
C983 C982 1.372 . S
C983 C984 1.400 . S
C983 C988 1.490 . S
C984 H974 0.930 . S
C984 C983 1.400 . S
C984 C987 1.386 . S
H985 C1001 0.930 . S
H986 C1002 0.931 . S
C987 H975 0.929 . S
C987 C981 1.390 . S
C987 C984 1.386 . S
C988 C983 1.490 . S
C988 C990 1.395 . S
C988 C991 1.403 . S
H989 C995 0.930 . S
C990 H976 0.930 . S
C990 C988 1.395 . S
C990 C993 1.403 . S
C991 C988 1.403 . S
C991 C992 1.524 . S
C991 C995 1.400 . S
C992 H977 0.960 . S
C992 H978 0.960 . S
C992 H979 0.960 . S
C992 C991 1.524 . S
C993 C990 1.403 . S
C993 C994 1.392 . S
C993 C997 1.495 . S
C994 C993 1.392 . S
C994 C995 1.385 . S
C994 C996 1.478 . S
C995 H989 0.930 . S
C995 C991 1.400 . S
C995 C994 1.385 . S
C996 C994 1.478 . S
C996 C998 1.381 . S
C996 C1002 1.383 . S
C997 C993 1.495 . S
C997 H1003 0.959 . S
C997 H1004 0.961 . S
C997 H1005 0.960 . S
C998 C996 1.381 . S
C998 C999 1.394 . S
C998 H1006 0.930 . S
C999 C998 1.394 . S
C999 C1000 1.383 . S
C999 H1007 0.929 . S
C1000 C999 1.383 . S
C1000 C1001 1.377 . S
C1001 H985 0.930 . S
C1001 C1000 1.377 . S
C1001 C1002 1.379 . S
C1002 H986 0.931 . S
C1002 C996 1.383 . S
C1002 C1001 1.379 . S
H1003 C997 0.959 . S
H1004 C997 0.961 . S
H1005 C997 0.960 . S
H1006 C998 0.930 . S
H1007 C999 0.929 . S
H1008 C1016 0.929 . S
H1009 C1018 0.930 . S
H1010 C1020 0.930 . S
H1011 C1023 0.929 . S
H1012 C1026 0.930 . S
H1013 C1028 0.960 . S
H1014 C1028 0.960 . S
H1015 C1028 0.960 . S
C1016 H1008 0.929 . S
C1016 C1017 1.377 . S
C1016 C1018 1.384 . S
C1017 C1016 1.377 . S
C1017 C1023 1.390 . S
C1018 H1009 0.930 . S
C1018 C1016 1.384 . S
C1018 C1019 1.372 . S
C1019 C1018 1.372 . S
C1019 C1020 1.400 . S
C1019 C1024 1.490 . S
C1020 H1010 0.930 . S
C1020 C1019 1.400 . S
C1020 C1023 1.386 . S
H1021 C1037 0.930 . S
H1022 C1038 0.931 . S
C1023 H1011 0.929 . S
C1023 C1017 1.390 . S
C1023 C1020 1.386 . S
C1024 C1019 1.490 . S
C1024 C1026 1.395 . S
C1024 C1027 1.403 . S
H1025 C1031 0.930 . S
C1026 H1012 0.930 . S
C1026 C1024 1.395 . S
C1026 C1029 1.403 . S
C1027 C1024 1.403 . S
C1027 C1028 1.524 . S
C1027 C1031 1.400 . S
C1028 H1013 0.960 . S
C1028 H1014 0.960 . S
C1028 H1015 0.960 . S
C1028 C1027 1.524 . S
C1029 C1026 1.403 . S
C1029 C1030 1.392 . S
C1029 C1033 1.495 . S
C1030 C1029 1.392 . S
C1030 C1031 1.385 . S
C1030 C1032 1.478 . S
C1031 H1025 0.930 . S
C1031 C1027 1.400 . S
C1031 C1030 1.385 . S
C1032 C1030 1.478 . S
C1032 C1034 1.381 . S
C1032 C1038 1.383 . S
C1033 C1029 1.495 . S
C1033 H1039 0.959 . S
C1033 H1040 0.961 . S
C1033 H1041 0.960 . S
C1034 C1032 1.381 . S
C1034 C1035 1.394 . S
C1034 H1042 0.930 . S
C1035 C1034 1.394 . S
C1035 C1036 1.383 . S
C1035 H1043 0.929 . S
C1036 C1035 1.383 . S
C1036 C1037 1.377 . S
C1037 H1021 0.930 . S
C1037 C1036 1.377 . S
C1037 C1038 1.379 . S
C1038 H1022 0.931 . S
C1038 C1032 1.383 . S
C1038 C1037 1.379 . S
H1039 C1033 0.959 . S
H1040 C1033 0.961 . S
H1041 C1033 0.960 . S
H1042 C1034 0.930 . S
H1043 C1035 0.929 . S
H1044 C1052 0.929 . S
H1045 C1054 0.930 . S
H1046 C1056 0.930 . S
H1047 C1059 0.929 . S
H1048 C1062 0.930 . S
H1049 C1064 0.960 . S
H1050 C1064 0.960 . S
H1051 C1064 0.960 . S
C1052 H1044 0.929 . S
C1052 C1053 1.377 . S
C1052 C1054 1.384 . S
C1053 C1052 1.377 . S
C1053 C1059 1.390 . S
C1054 H1045 0.930 . S
C1054 C1052 1.384 . S
C1054 C1055 1.372 . S
C1055 C1054 1.372 . S
C1055 C1056 1.400 . S
C1055 C1060 1.490 . S
C1056 H1046 0.930 . S
C1056 C1055 1.400 . S
C1056 C1059 1.386 . S
H1057 C1073 0.930 . S
H1058 C1074 0.931 . S
C1059 H1047 0.929 . S
C1059 C1053 1.390 . S
C1059 C1056 1.386 . S
C1060 C1055 1.490 . S
C1060 C1062 1.395 . S
C1060 C1063 1.403 . S
H1061 C1067 0.930 . S
C1062 H1048 0.930 . S
C1062 C1060 1.395 . S
C1062 C1065 1.403 . S
C1063 C1060 1.403 . S
C1063 C1064 1.524 . S
C1063 C1067 1.400 . S
C1064 H1049 0.960 . S
C1064 H1050 0.960 . S
C1064 H1051 0.960 . S
C1064 C1063 1.524 . S
C1065 C1062 1.403 . S
C1065 C1066 1.392 . S
C1065 C1069 1.495 . S
C1066 C1065 1.392 . S
C1066 C1067 1.385 . S
C1066 C1068 1.478 . S
C1067 H1061 0.930 . S
C1067 C1063 1.400 . S
C1067 C1066 1.385 . S
C1068 C1066 1.478 . S
C1068 C1070 1.381 . S
C1068 C1074 1.383 . S
C1069 C1065 1.495 . S
C1069 H1075 0.959 . S
C1069 H1076 0.961 . S
C1069 H1077 0.960 . S
C1070 C1068 1.381 . S
C1070 C1071 1.394 . S
C1070 H1078 0.930 . S
C1071 C1070 1.394 . S
C1071 C1072 1.383 . S
C1071 H1079 0.929 . S
C1072 C1071 1.383 . S
C1072 C1073 1.377 . S
C1073 H1057 0.930 . S
C1073 C1072 1.377 . S
C1073 C1074 1.379 . S
C1074 H1058 0.931 . S
C1074 C1068 1.383 . S
C1074 C1073 1.379 . S
H1075 C1069 0.959 . S
H1076 C1069 0.961 . S
H1077 C1069 0.960 . S
H1078 C1070 0.930 . S
H1079 C1071 0.929 . S
H1080 C1088 0.929 . S
H1081 C1090 0.930 . S
H1082 C1092 0.930 . S
H1083 C1095 0.929 . S
H1084 C1098 0.930 . S
H1085 C1100 0.960 . S
H1086 C1100 0.960 . S
H1087 C1100 0.960 . S
C1088 H1080 0.929 . S
C1088 C1089 1.377 . S
C1088 C1090 1.384 . S
C1089 C1088 1.377 . S
C1089 C1095 1.390 . S
C1090 H1081 0.930 . S
C1090 C1088 1.384 . S
C1090 C1091 1.372 . S
C1091 C1090 1.372 . S
C1091 C1092 1.400 . S
C1091 C1096 1.490 . S
C1092 H1082 0.930 . S
C1092 C1091 1.400 . S
C1092 C1095 1.386 . S
H1093 C1109 0.930 . S
H1094 C1110 0.931 . S
C1095 H1083 0.929 . S
C1095 C1089 1.390 . S
C1095 C1092 1.386 . S
C1096 C1091 1.490 . S
C1096 C1098 1.395 . S
C1096 C1099 1.403 . S
H1097 C1103 0.930 . S
C1098 H1084 0.930 . S
C1098 C1096 1.395 . S
C1098 C1101 1.403 . S
C1099 C1096 1.403 . S
C1099 C1100 1.524 . S
C1099 C1103 1.400 . S
C1100 H1085 0.960 . S
C1100 H1086 0.960 . S
C1100 H1087 0.960 . S
C1100 C1099 1.524 . S
C1101 C1098 1.403 . S
C1101 C1102 1.392 . S
C1101 C1105 1.495 . S
C1102 C1101 1.392 . S
C1102 C1103 1.385 . S
C1102 C1104 1.478 . S
C1103 H1097 0.930 . S
C1103 C1099 1.400 . S
C1103 C1102 1.385 . S
C1104 C1102 1.478 . S
C1104 C1106 1.381 . S
C1104 C1110 1.383 . S
C1105 C1101 1.495 . S
C1105 H1111 0.959 . S
C1105 H1112 0.961 . S
C1105 H1113 0.960 . S
C1106 C1104 1.381 . S
C1106 C1107 1.394 . S
C1106 H1114 0.930 . S
C1107 C1106 1.394 . S
C1107 C1108 1.383 . S
C1107 H1115 0.929 . S
C1108 C1107 1.383 . S
C1108 C1109 1.377 . S
C1109 H1093 0.930 . S
C1109 C1108 1.377 . S
C1109 C1110 1.379 . S
C1110 H1094 0.931 . S
C1110 C1104 1.383 . S
C1110 C1109 1.379 . S
H1111 C1105 0.959 . S
H1112 C1105 0.961 . S
H1113 C1105 0.960 . S
H1114 C1106 0.930 . S
H1115 C1107 0.929 . S
H1116 C1124 0.929 . S
H1117 C1126 0.930 . S
H1118 C1128 0.930 . S
H1119 C1131 0.929 . S
H1120 C1134 0.930 . S
H1121 C1136 0.960 . S
H1122 C1136 0.960 . S
H1123 C1136 0.960 . S
C1124 H1116 0.929 . S
C1124 C1125 1.377 . S
C1124 C1126 1.384 . S
C1125 C1124 1.377 . S
C1125 C1131 1.390 . S
C1126 H1117 0.930 . S
C1126 C1124 1.384 . S
C1126 C1127 1.372 . S
C1127 C1126 1.372 . S
C1127 C1128 1.400 . S
C1127 C1132 1.490 . S
C1128 H1118 0.930 . S
C1128 C1127 1.400 . S
C1128 C1131 1.386 . S
H1129 C1145 0.930 . S
H1130 C1146 0.931 . S
C1131 H1119 0.929 . S
C1131 C1125 1.390 . S
C1131 C1128 1.386 . S
C1132 C1127 1.490 . S
C1132 C1134 1.395 . S
C1132 C1135 1.403 . S
H1133 C1139 0.930 . S
C1134 H1120 0.930 . S
C1134 C1132 1.395 . S
C1134 C1137 1.403 . S
C1135 C1132 1.403 . S
C1135 C1136 1.524 . S
C1135 C1139 1.400 . S
C1136 H1121 0.960 . S
C1136 H1122 0.960 . S
C1136 H1123 0.960 . S
C1136 C1135 1.524 . S
C1137 C1134 1.403 . S
C1137 C1138 1.392 . S
C1137 C1141 1.495 . S
C1138 C1137 1.392 . S
C1138 C1139 1.385 . S
C1138 C1140 1.478 . S
C1139 H1133 0.930 . S
C1139 C1135 1.400 . S
C1139 C1138 1.385 . S
C1140 C1138 1.478 . S
C1140 C1142 1.381 . S
C1140 C1146 1.383 . S
C1141 C1137 1.495 . S
C1141 H1147 0.959 . S
C1141 H1148 0.961 . S
C1141 H1149 0.960 . S
C1142 C1140 1.381 . S
C1142 C1143 1.394 . S
C1142 H1150 0.930 . S
C1143 C1142 1.394 . S
C1143 C1144 1.383 . S
C1143 H1151 0.929 . S
C1144 C1143 1.383 . S
C1144 C1145 1.377 . S
C1145 H1129 0.930 . S
C1145 C1144 1.377 . S
C1145 C1146 1.379 . S
C1146 H1130 0.931 . S
C1146 C1140 1.383 . S
C1146 C1145 1.379 . S
H1147 C1141 0.959 . S
H1148 C1141 0.961 . S
H1149 C1141 0.960 . S
H1150 C1142 0.930 . S
H1151 C1143 0.929 . S
H1152 C1160 0.929 . S
H1153 C1162 0.930 . S
H1154 C1164 0.930 . S
H1155 C1167 0.929 . S
H1156 C1170 0.930 . S
H1157 C1172 0.960 . S
H1158 C1172 0.960 . S
H1159 C1172 0.960 . S
C1160 H1152 0.929 . S
C1160 C1161 1.377 . S
C1160 C1162 1.384 . S
C1161 C1160 1.377 . S
C1161 C1167 1.390 . S
C1162 H1153 0.930 . S
C1162 C1160 1.384 . S
C1162 C1163 1.372 . S
C1163 C1162 1.372 . S
C1163 C1164 1.400 . S
C1163 C1168 1.490 . S
C1164 H1154 0.930 . S
C1164 C1163 1.400 . S
C1164 C1167 1.386 . S
H1165 C1181 0.930 . S
H1166 C1182 0.931 . S
C1167 H1155 0.929 . S
C1167 C1161 1.390 . S
C1167 C1164 1.386 . S
C1168 C1163 1.490 . S
C1168 C1170 1.395 . S
C1168 C1171 1.403 . S
H1169 C1175 0.930 . S
C1170 H1156 0.930 . S
C1170 C1168 1.395 . S
C1170 C1173 1.403 . S
C1171 C1168 1.403 . S
C1171 C1172 1.524 . S
C1171 C1175 1.400 . S
C1172 H1157 0.960 . S
C1172 H1158 0.960 . S
C1172 H1159 0.960 . S
C1172 C1171 1.524 . S
C1173 C1170 1.403 . S
C1173 C1174 1.392 . S
C1173 C1177 1.495 . S
C1174 C1173 1.392 . S
C1174 C1175 1.385 . S
C1174 C1176 1.478 . S
C1175 H1169 0.930 . S
C1175 C1171 1.400 . S
C1175 C1174 1.385 . S
C1176 C1174 1.478 . S
C1176 C1178 1.381 . S
C1176 C1182 1.383 . S
C1177 C1173 1.495 . S
C1177 H1183 0.959 . S
C1177 H1184 0.961 . S
C1177 H1185 0.960 . S
C1178 C1176 1.381 . S
C1178 C1179 1.394 . S
C1178 H1186 0.930 . S
C1179 C1178 1.394 . S
C1179 C1180 1.383 . S
C1179 H1187 0.929 . S
C1180 C1179 1.383 . S
C1180 C1181 1.377 . S
C1181 H1165 0.930 . S
C1181 C1180 1.377 . S
C1181 C1182 1.379 . S
C1182 H1166 0.931 . S
C1182 C1176 1.383 . S
C1182 C1181 1.379 . S
H1183 C1177 0.959 . S
H1184 C1177 0.961 . S
H1185 C1177 0.960 . S
H1186 C1178 0.930 . S
H1187 C1179 0.929 . S
H1188 C1196 0.929 . S
H1189 C1198 0.930 . S
H1190 C1200 0.930 . S
H1191 C1203 0.929 . S
H1192 C1206 0.930 . S
H1193 C1208 0.960 . S
H1194 C1208 0.960 . S
H1195 C1208 0.960 . S
C1196 H1188 0.929 . S
C1196 C1197 1.377 . S
C1196 C1198 1.384 . S
C1197 C1196 1.377 . S
C1197 C1203 1.390 . S
C1198 H1189 0.930 . S
C1198 C1196 1.384 . S
C1198 C1199 1.372 . S
C1199 C1198 1.372 . S
C1199 C1200 1.400 . S
C1199 C1204 1.490 . S
C1200 H1190 0.930 . S
C1200 C1199 1.400 . S
C1200 C1203 1.386 . S
H1201 C1217 0.930 . S
H1202 C1218 0.931 . S
C1203 H1191 0.929 . S
C1203 C1197 1.390 . S
C1203 C1200 1.386 . S
C1204 C1199 1.490 . S
C1204 C1206 1.395 . S
C1204 C1207 1.403 . S
H1205 C1211 0.930 . S
C1206 H1192 0.930 . S
C1206 C1204 1.395 . S
C1206 C1209 1.403 . S
C1207 C1204 1.403 . S
C1207 C1208 1.524 . S
C1207 C1211 1.400 . S
C1208 H1193 0.960 . S
C1208 H1194 0.960 . S
C1208 H1195 0.960 . S
C1208 C1207 1.524 . S
C1209 C1206 1.403 . S
C1209 C1210 1.392 . S
C1209 C1213 1.495 . S
C1210 C1209 1.392 . S
C1210 C1211 1.385 . S
C1210 C1212 1.478 . S
C1211 H1205 0.930 . S
C1211 C1207 1.400 . S
C1211 C1210 1.385 . S
C1212 C1210 1.478 . S
C1212 C1214 1.381 . S
C1212 C1218 1.383 . S
C1213 C1209 1.495 . S
C1213 H1219 0.959 . S
C1213 H1220 0.961 . S
C1213 H1221 0.960 . S
C1214 C1212 1.381 . S
C1214 C1215 1.394 . S
C1214 H1222 0.930 . S
C1215 C1214 1.394 . S
C1215 C1216 1.383 . S
C1215 H1223 0.929 . S
C1216 C1215 1.383 . S
C1216 C1217 1.377 . S
C1217 H1201 0.930 . S
C1217 C1216 1.377 . S
C1217 C1218 1.379 . S
C1218 H1202 0.931 . S
C1218 C1212 1.383 . S
C1218 C1217 1.379 . S
H1219 C1213 0.959 . S
H1220 C1213 0.961 . S
H1221 C1213 0.960 . S
H1222 C1214 0.930 . S
H1223 C1215 0.929 . S
H1224 C1232 0.929 . S
H1225 C1234 0.930 . S
H1226 C1236 0.930 . S
H1227 C1239 0.929 . S
H1228 C1242 0.930 . S
H1229 C1244 0.960 . S
H1230 C1244 0.960 . S
H1231 C1244 0.960 . S
C1232 H1224 0.929 . S
C1232 C1233 1.377 . S
C1232 C1234 1.384 . S
C1233 C1232 1.377 . S
C1233 C1239 1.390 . S
C1234 H1225 0.930 . S
C1234 C1232 1.384 . S
C1234 C1235 1.372 . S
C1235 C1234 1.372 . S
C1235 C1236 1.400 . S
C1235 C1240 1.490 . S
C1236 H1226 0.930 . S
C1236 C1235 1.400 . S
C1236 C1239 1.386 . S
H1237 C1253 0.930 . S
H1238 C1254 0.931 . S
C1239 H1227 0.929 . S
C1239 C1233 1.390 . S
C1239 C1236 1.386 . S
C1240 C1235 1.490 . S
C1240 C1242 1.395 . S
C1240 C1243 1.403 . S
H1241 C1247 0.930 . S
C1242 H1228 0.930 . S
C1242 C1240 1.395 . S
C1242 C1245 1.403 . S
C1243 C1240 1.403 . S
C1243 C1244 1.524 . S
C1243 C1247 1.400 . S
C1244 H1229 0.960 . S
C1244 H1230 0.960 . S
C1244 H1231 0.960 . S
C1244 C1243 1.524 . S
C1245 C1242 1.403 . S
C1245 C1246 1.392 . S
C1245 C1249 1.495 . S
C1246 C1245 1.392 . S
C1246 C1247 1.385 . S
C1246 C1248 1.478 . S
C1247 H1241 0.930 . S
C1247 C1243 1.400 . S
C1247 C1246 1.385 . S
C1248 C1246 1.478 . S
C1248 C1250 1.381 . S
C1248 C1254 1.383 . S
C1249 C1245 1.495 . S
C1249 H1255 0.959 . S
C1249 H1256 0.961 . S
C1249 H1257 0.960 . S
C1250 C1248 1.381 . S
C1250 C1251 1.394 . S
C1250 H1258 0.930 . S
C1251 C1250 1.394 . S
C1251 C1252 1.383 . S
C1251 H1259 0.929 . S
C1252 C1251 1.383 . S
C1252 C1253 1.377 . S
C1253 H1237 0.930 . S
C1253 C1252 1.377 . S
C1253 C1254 1.379 . S
C1254 H1238 0.931 . S
C1254 C1248 1.383 . S
C1254 C1253 1.379 . S
H1255 C1249 0.959 . S
H1256 C1249 0.961 . S
H1257 C1249 0.960 . S
H1258 C1250 0.930 . S
H1259 C1251 0.929 . S
H1260 C1268 0.929 . S
H1261 C1270 0.930 . S
H1262 C1272 0.930 . S
H1263 C1275 0.929 . S
H1264 C1278 0.930 . S
H1265 C1280 0.960 . S
H1266 C1280 0.960 . S
H1267 C1280 0.960 . S
C1268 H1260 0.929 . S
C1268 C1269 1.377 . S
C1268 C1270 1.384 . S
C1269 C1268 1.377 . S
C1269 C1275 1.390 . S
C1270 H1261 0.930 . S
C1270 C1268 1.384 . S
C1270 C1271 1.372 . S
C1271 C1270 1.372 . S
C1271 C1272 1.400 . S
C1271 C1276 1.490 . S
C1272 H1262 0.930 . S
C1272 C1271 1.400 . S
C1272 C1275 1.386 . S
H1273 C1289 0.930 . S
H1274 C1290 0.931 . S
C1275 H1263 0.929 . S
C1275 C1269 1.390 . S
C1275 C1272 1.386 . S
C1276 C1271 1.490 . S
C1276 C1278 1.395 . S
C1276 C1279 1.403 . S
H1277 C1283 0.930 . S
C1278 H1264 0.930 . S
C1278 C1276 1.395 . S
C1278 C1281 1.403 . S
C1279 C1276 1.403 . S
C1279 C1280 1.524 . S
C1279 C1283 1.400 . S
C1280 H1265 0.960 . S
C1280 H1266 0.960 . S
C1280 H1267 0.960 . S
C1280 C1279 1.524 . S
C1281 C1278 1.403 . S
C1281 C1282 1.392 . S
C1281 C1285 1.495 . S
C1282 C1281 1.392 . S
C1282 C1283 1.385 . S
C1282 C1284 1.478 . S
C1283 H1277 0.930 . S
C1283 C1279 1.400 . S
C1283 C1282 1.385 . S
C1284 C1282 1.478 . S
C1284 C1286 1.381 . S
C1284 C1290 1.383 . S
C1285 C1281 1.495 . S
C1285 H1291 0.959 . S
C1285 H1292 0.961 . S
C1285 H1293 0.960 . S
C1286 C1284 1.381 . S
C1286 C1287 1.394 . S
C1286 H1294 0.930 . S
C1287 C1286 1.394 . S
C1287 C1288 1.383 . S
C1287 H1295 0.929 . S
C1288 C1287 1.383 . S
C1288 C1289 1.377 . S
C1289 H1273 0.930 . S
C1289 C1288 1.377 . S
C1289 C1290 1.379 . S
C1290 H1274 0.931 . S
C1290 C1284 1.383 . S
C1290 C1289 1.379 . S
H1291 C1285 0.959 . S
H1292 C1285 0.961 . S
H1293 C1285 0.960 . S
H1294 C1286 0.930 . S
H1295 C1287 0.929 . S
H1296 C1304 0.929 . S
H1297 C1306 0.930 . S
H1298 C1308 0.930 . S
H1299 C1311 0.929 . S
H1300 C1314 0.930 . S
H1301 C1316 0.960 . S
H1302 C1316 0.960 . S
H1303 C1316 0.960 . S
C1304 H1296 0.929 . S
C1304 C1305 1.377 . S
C1304 C1306 1.384 . S
C1305 C1304 1.377 . S
C1305 C1311 1.390 . S
C1306 H1297 0.930 . S
C1306 C1304 1.384 . S
C1306 C1307 1.372 . S
C1307 C1306 1.372 . S
C1307 C1308 1.400 . S
C1307 C1312 1.490 . S
C1308 H1298 0.930 . S
C1308 C1307 1.400 . S
C1308 C1311 1.386 . S
H1309 C1325 0.930 . S
H1310 C1326 0.931 . S
C1311 H1299 0.929 . S
C1311 C1305 1.390 . S
C1311 C1308 1.386 . S
C1312 C1307 1.490 . S
C1312 C1314 1.395 . S
C1312 C1315 1.403 . S
H1313 C1319 0.930 . S
C1314 H1300 0.930 . S
C1314 C1312 1.395 . S
C1314 C1317 1.403 . S
C1315 C1312 1.403 . S
C1315 C1316 1.524 . S
C1315 C1319 1.400 . S
C1316 H1301 0.960 . S
C1316 H1302 0.960 . S
C1316 H1303 0.960 . S
C1316 C1315 1.524 . S
C1317 C1314 1.403 . S
C1317 C1318 1.392 . S
C1317 C1321 1.495 . S
C1318 C1317 1.392 . S
C1318 C1319 1.385 . S
C1318 C1320 1.478 . S
C1319 H1313 0.930 . S
C1319 C1315 1.400 . S
C1319 C1318 1.385 . S
C1320 C1318 1.478 . S
C1320 C1322 1.381 . S
C1320 C1326 1.383 . S
C1321 C1317 1.495 . S
C1321 H1327 0.959 . S
C1321 H1328 0.961 . S
C1321 H1329 0.960 . S
C1322 C1320 1.381 . S
C1322 C1323 1.394 . S
C1322 H1330 0.930 . S
C1323 C1322 1.394 . S
C1323 C1324 1.383 . S
C1323 H1331 0.929 . S
C1324 C1323 1.383 . S
C1324 C1325 1.377 . S
C1325 H1309 0.930 . S
C1325 C1324 1.377 . S
C1325 C1326 1.379 . S
C1326 H1310 0.931 . S
C1326 C1320 1.383 . S
C1326 C1325 1.379 . S
H1327 C1321 0.959 . S
H1328 C1321 0.961 . S
H1329 C1321 0.960 . S
H1330 C1322 0.930 . S
H1331 C1323 0.929 . S
H1332 C1340 0.929 . S
H1333 C1342 0.930 . S
H1334 C1344 0.930 . S
H1335 C1347 0.929 . S
H1336 C1350 0.930 . S
H1337 C1352 0.960 . S
H1338 C1352 0.960 . S
H1339 C1352 0.960 . S
C1340 H1332 0.929 . S
C1340 C1341 1.377 . S
C1340 C1342 1.384 . S
C1341 C1340 1.377 . S
C1341 C1347 1.390 . S
C1342 H1333 0.930 . S
C1342 C1340 1.384 . S
C1342 C1343 1.372 . S
C1343 C1342 1.372 . S
C1343 C1344 1.400 . S
C1343 C1348 1.490 . S
C1344 H1334 0.930 . S
C1344 C1343 1.400 . S
C1344 C1347 1.386 . S
H1345 C1361 0.930 . S
H1346 C1362 0.931 . S
C1347 H1335 0.929 . S
C1347 C1341 1.390 . S
C1347 C1344 1.386 . S
C1348 C1343 1.490 . S
C1348 C1350 1.395 . S
C1348 C1351 1.403 . S
H1349 C1355 0.930 . S
C1350 H1336 0.930 . S
C1350 C1348 1.395 . S
C1350 C1353 1.403 . S
C1351 C1348 1.403 . S
C1351 C1352 1.524 . S
C1351 C1355 1.400 . S
C1352 H1337 0.960 . S
C1352 H1338 0.960 . S
C1352 H1339 0.960 . S
C1352 C1351 1.524 . S
C1353 C1350 1.403 . S
C1353 C1354 1.392 . S
C1353 C1357 1.495 . S
C1354 C1353 1.392 . S
C1354 C1355 1.385 . S
C1354 C1356 1.478 . S
C1355 H1349 0.930 . S
C1355 C1351 1.400 . S
C1355 C1354 1.385 . S
C1356 C1354 1.478 . S
C1356 C1358 1.381 . S
C1356 C1362 1.383 . S
C1357 C1353 1.495 . S
C1357 H1363 0.959 . S
C1357 H1364 0.961 . S
C1357 H1365 0.960 . S
C1358 C1356 1.381 . S
C1358 C1359 1.394 . S
C1358 H1366 0.930 . S
C1359 C1358 1.394 . S
C1359 C1360 1.383 . S
C1359 H1367 0.929 . S
C1360 C1359 1.383 . S
C1360 C1361 1.377 . S
C1361 H1345 0.930 . S
C1361 C1360 1.377 . S
C1361 C1362 1.379 . S
C1362 H1346 0.931 . S
C1362 C1356 1.383 . S
C1362 C1361 1.379 . S
H1363 C1357 0.959 . S
H1364 C1357 0.961 . S
H1365 C1357 0.960 . S
H1366 C1358 0.930 . S
H1367 C1359 0.929 . S
H1368 C1376 0.929 . S
H1369 C1378 0.930 . S
H1370 C1380 0.930 . S
H1371 C1383 0.929 . S
H1372 C1386 0.930 . S
H1373 C1388 0.960 . S
H1374 C1388 0.960 . S
H1375 C1388 0.960 . S
C1376 H1368 0.929 . S
C1376 C1377 1.377 . S
C1376 C1378 1.384 . S
C1377 C1376 1.377 . S
C1377 C1383 1.390 . S
C1378 H1369 0.930 . S
C1378 C1376 1.384 . S
C1378 C1379 1.372 . S
C1379 C1378 1.372 . S
C1379 C1380 1.400 . S
C1379 C1384 1.490 . S
C1380 H1370 0.930 . S
C1380 C1379 1.400 . S
C1380 C1383 1.386 . S
H1381 C1397 0.930 . S
H1382 C1398 0.931 . S
C1383 H1371 0.929 . S
C1383 C1377 1.390 . S
C1383 C1380 1.386 . S
C1384 C1379 1.490 . S
C1384 C1386 1.395 . S
C1384 C1387 1.403 . S
H1385 C1391 0.930 . S
C1386 H1372 0.930 . S
C1386 C1384 1.395 . S
C1386 C1389 1.403 . S
C1387 C1384 1.403 . S
C1387 C1388 1.524 . S
C1387 C1391 1.400 . S
C1388 H1373 0.960 . S
C1388 H1374 0.960 . S
C1388 H1375 0.960 . S
C1388 C1387 1.524 . S
C1389 C1386 1.403 . S
C1389 C1390 1.392 . S
C1389 C1393 1.495 . S
C1390 C1389 1.392 . S
C1390 C1391 1.385 . S
C1390 C1392 1.478 . S
C1391 H1385 0.930 . S
C1391 C1387 1.400 . S
C1391 C1390 1.385 . S
C1392 C1390 1.478 . S
C1392 C1394 1.381 . S
C1392 C1398 1.383 . S
C1393 C1389 1.495 . S
C1393 H1399 0.959 . S
C1393 H1400 0.961 . S
C1393 H1401 0.960 . S
C1394 C1392 1.381 . S
C1394 C1395 1.394 . S
C1394 H1402 0.930 . S
C1395 C1394 1.394 . S
C1395 C1396 1.383 . S
C1395 H1403 0.929 . S
C1396 C1395 1.383 . S
C1396 C1397 1.377 . S
C1397 H1381 0.930 . S
C1397 C1396 1.377 . S
C1397 C1398 1.379 . S
C1398 H1382 0.931 . S
C1398 C1392 1.383 . S
C1398 C1397 1.379 . S
H1399 C1393 0.959 . S
H1400 C1393 0.961 . S
H1401 C1393 0.960 . S
H1402 C1394 0.930 . S
H1403 C1395 0.929 . S
H1404 C1412 0.929 . S
H1405 C1414 0.930 . S
H1406 C1416 0.930 . S
H1407 C1419 0.929 . S
H1408 C1422 0.930 . S
H1409 C1424 0.960 . S
H1410 C1424 0.960 . S
H1411 C1424 0.960 . S
C1412 H1404 0.929 . S
C1412 C1413 1.377 . S
C1412 C1414 1.384 . S
C1413 C1412 1.377 . S
C1413 C1419 1.390 . S
C1414 H1405 0.930 . S
C1414 C1412 1.384 . S
C1414 C1415 1.372 . S
C1415 C1414 1.372 . S
C1415 C1416 1.400 . S
C1415 C1420 1.490 . S
C1416 H1406 0.930 . S
C1416 C1415 1.400 . S
C1416 C1419 1.386 . S
H1417 C1433 0.930 . S
H1418 C1434 0.931 . S
C1419 H1407 0.929 . S
C1419 C1413 1.390 . S
C1419 C1416 1.386 . S
C1420 C1415 1.490 . S
C1420 C1422 1.395 . S
C1420 C1423 1.403 . S
H1421 C1427 0.930 . S
C1422 H1408 0.930 . S
C1422 C1420 1.395 . S
C1422 C1425 1.403 . S
C1423 C1420 1.403 . S
C1423 C1424 1.524 . S
C1423 C1427 1.400 . S
C1424 H1409 0.960 . S
C1424 H1410 0.960 . S
C1424 H1411 0.960 . S
C1424 C1423 1.524 . S
C1425 C1422 1.403 . S
C1425 C1426 1.392 . S
C1425 C1429 1.495 . S
C1426 C1425 1.392 . S
C1426 C1427 1.385 . S
C1426 C1428 1.478 . S
C1427 H1421 0.930 . S
C1427 C1423 1.400 . S
C1427 C1426 1.385 . S
C1428 C1426 1.478 . S
C1428 C1430 1.381 . S
C1428 C1434 1.383 . S
C1429 C1425 1.495 . S
C1429 H1435 0.959 . S
C1429 H1436 0.961 . S
C1429 H1437 0.960 . S
C1430 C1428 1.381 . S
C1430 C1431 1.394 . S
C1430 H1438 0.930 . S
C1431 C1430 1.394 . S
C1431 C1432 1.383 . S
C1431 H1439 0.929 . S
C1432 C1431 1.383 . S
C1432 C1433 1.377 . S
C1433 H1417 0.930 . S
C1433 C1432 1.377 . S
C1433 C1434 1.379 . S
C1434 H1418 0.931 . S
C1434 C1428 1.383 . S
C1434 C1433 1.379 . S
H1435 C1429 0.959 . S
H1436 C1429 0.961 . S
H1437 C1429 0.960 . S
H1438 C1430 0.930 . S
H1439 C1431 0.929 . S
H1440 C1448 0.929 . S
H1441 C1450 0.930 . S
H1442 C1452 0.930 . S
H1443 C1455 0.929 . S
H1444 C1458 0.930 . S
H1445 C1460 0.960 . S
H1446 C1460 0.960 . S
H1447 C1460 0.960 . S
C1448 H1440 0.929 . S
C1448 C1449 1.377 . S
C1448 C1450 1.384 . S
C1449 C1448 1.377 . S
C1449 C1455 1.390 . S
C1450 H1441 0.930 . S
C1450 C1448 1.384 . S
C1450 C1451 1.372 . S
C1451 C1450 1.372 . S
C1451 C1452 1.400 . S
C1451 C1456 1.490 . S
C1452 H1442 0.930 . S
C1452 C1451 1.400 . S
C1452 C1455 1.386 . S
H1453 C1469 0.930 . S
H1454 C1470 0.931 . S
C1455 H1443 0.929 . S
C1455 C1449 1.390 . S
C1455 C1452 1.386 . S
C1456 C1451 1.490 . S
C1456 C1458 1.395 . S
C1456 C1459 1.403 . S
H1457 C1463 0.930 . S
C1458 H1444 0.930 . S
C1458 C1456 1.395 . S
C1458 C1461 1.403 . S
C1459 C1456 1.403 . S
C1459 C1460 1.524 . S
C1459 C1463 1.400 . S
C1460 H1445 0.960 . S
C1460 H1446 0.960 . S
C1460 H1447 0.960 . S
C1460 C1459 1.524 . S
C1461 C1458 1.403 . S
C1461 C1462 1.392 . S
C1461 C1465 1.495 . S
C1462 C1461 1.392 . S
C1462 C1463 1.385 . S
C1462 C1464 1.478 . S
C1463 H1457 0.930 . S
C1463 C1459 1.400 . S
C1463 C1462 1.385 . S
C1464 C1462 1.478 . S
C1464 C1466 1.381 . S
C1464 C1470 1.383 . S
C1465 C1461 1.495 . S
C1465 H1471 0.959 . S
C1465 H1472 0.961 . S
C1465 H1473 0.960 . S
C1466 C1464 1.381 . S
C1466 C1467 1.394 . S
C1466 H1474 0.930 . S
C1467 C1466 1.394 . S
C1467 C1468 1.383 . S
C1467 H1475 0.929 . S
C1468 C1467 1.383 . S
C1468 C1469 1.377 . S
C1469 H1453 0.930 . S
C1469 C1468 1.377 . S
C1469 C1470 1.379 . S
C1470 H1454 0.931 . S
C1470 C1464 1.383 . S
C1470 C1469 1.379 . S
H1471 C1465 0.959 . S
H1472 C1465 0.961 . S
H1473 C1465 0.960 . S
H1474 C1466 0.930 . S
H1475 C1467 0.929 . S
H1476 C1484 0.929 . S
H1477 C1486 0.930 . S
H1478 C1488 0.930 . S
H1479 C1491 0.929 . S
H1480 C1494 0.930 . S
H1481 C1496 0.960 . S
H1482 C1496 0.960 . S
H1483 C1496 0.960 . S
C1484 H1476 0.929 . S
C1484 C1485 1.377 . S
C1484 C1486 1.384 . S
C1485 C1484 1.377 . S
C1485 C1491 1.390 . S
C1486 H1477 0.930 . S
C1486 C1484 1.384 . S
C1486 C1487 1.372 . S
C1487 C1486 1.372 . S
C1487 C1488 1.400 . S
C1487 C1492 1.490 . S
C1488 H1478 0.930 . S
C1488 C1487 1.400 . S
C1488 C1491 1.386 . S
H1489 C1505 0.930 . S
H1490 C1506 0.931 . S
C1491 H1479 0.929 . S
C1491 C1485 1.390 . S
C1491 C1488 1.386 . S
C1492 C1487 1.490 . S
C1492 C1494 1.395 . S
C1492 C1495 1.403 . S
H1493 C1499 0.930 . S
C1494 H1480 0.930 . S
C1494 C1492 1.395 . S
C1494 C1497 1.403 . S
C1495 C1492 1.403 . S
C1495 C1496 1.524 . S
C1495 C1499 1.400 . S
C1496 H1481 0.960 . S
C1496 H1482 0.960 . S
C1496 H1483 0.960 . S
C1496 C1495 1.524 . S
C1497 C1494 1.403 . S
C1497 C1498 1.392 . S
C1497 C1501 1.495 . S
C1498 C1497 1.392 . S
C1498 C1499 1.385 . S
C1498 C1500 1.478 . S
C1499 H1493 0.930 . S
C1499 C1495 1.400 . S
C1499 C1498 1.385 . S
C1500 C1498 1.478 . S
C1500 C1502 1.381 . S
C1500 C1506 1.383 . S
C1501 C1497 1.495 . S
C1501 H1507 0.959 . S
C1501 H1508 0.961 . S
C1501 H1509 0.960 . S
C1502 C1500 1.381 . S
C1502 C1503 1.394 . S
C1502 H1510 0.930 . S
C1503 C1502 1.394 . S
C1503 C1504 1.383 . S
C1503 H1511 0.929 . S
C1504 C1503 1.383 . S
C1504 C1505 1.377 1_565 S
C1505 H1489 0.930 . S
C1505 C1504 1.377 1_545 S
C1505 C1506 1.379 1_545 S
C1506 H1490 0.931 . S
C1506 C1500 1.383 . S
C1506 C1505 1.379 1_565 S
H1507 C1501 0.959 . S
H1508 C1501 0.961 . S
H1509 C1501 0.960 . S
H1510 C1502 0.930 . S
H1511 C1503 0.929 . S
H1512 C1520 0.929 . S
H1513 C1522 0.930 . S
H1514 C1524 0.930 . S
H1515 C1527 0.929 . S
H1516 C1530 0.930 . S
H1517 C1532 0.960 . S
H1518 C1532 0.960 . S
H1519 C1532 0.960 . S
C1520 H1512 0.929 . S
C1520 C1521 1.377 . S
C1520 C1522 1.384 . S
C1521 C1520 1.377 . S
C1521 C1527 1.390 . S
C1522 H1513 0.930 . S
C1522 C1520 1.384 . S
C1522 C1523 1.372 . S
C1523 C1522 1.372 . S
C1523 C1524 1.400 . S
C1523 C1528 1.490 . S
C1524 H1514 0.930 . S
C1524 C1523 1.400 . S
C1524 C1527 1.386 . S
H1525 C1541 0.930 . S
H1526 C1542 0.931 . S
C1527 H1515 0.929 . S
C1527 C1521 1.390 . S
C1527 C1524 1.386 . S
C1528 C1523 1.490 . S
C1528 C1530 1.395 . S
C1528 C1531 1.403 . S
H1529 C1535 0.930 . S
C1530 H1516 0.930 . S
C1530 C1528 1.395 . S
C1530 C1533 1.403 . S
C1531 C1528 1.403 . S
C1531 C1532 1.524 . S
C1531 C1535 1.400 . S
C1532 H1517 0.960 . S
C1532 H1518 0.960 . S
C1532 H1519 0.960 . S
C1532 C1531 1.524 . S
C1533 C1530 1.403 . S
C1533 C1534 1.392 . S
C1533 C1537 1.495 . S
C1534 C1533 1.392 . S
C1534 C1535 1.385 . S
C1534 C1536 1.478 . S
C1535 H1529 0.930 . S
C1535 C1531 1.400 . S
C1535 C1534 1.385 . S
C1536 C1534 1.478 . S
C1536 C1538 1.381 . S
C1536 C1542 1.383 . S
C1537 C1533 1.495 . S
C1537 H1543 0.959 . S
C1537 H1544 0.961 . S
C1537 H1545 0.960 . S
C1538 C1536 1.381 . S
C1538 C1539 1.394 . S
C1538 H1546 0.930 . S
C1539 C1538 1.394 . S
C1539 C1540 1.383 . S
C1539 H1547 0.929 . S
C1540 C1539 1.383 . S
C1540 C1541 1.377 . S
C1541 H1525 0.930 . S
C1541 C1540 1.377 . S
C1541 C1542 1.379 . S
C1542 H1526 0.931 . S
C1542 C1536 1.383 . S
C1542 C1541 1.379 . S
H1543 C1537 0.959 . S
H1544 C1537 0.961 . S
H1545 C1537 0.960 . S
H1546 C1538 0.930 . S
H1547 C1539 0.929 . S
H1548 C1556 0.929 . S
H1549 C1558 0.930 . S
H1550 C1560 0.930 . S
H1551 C1563 0.929 . S
H1552 C1566 0.930 . S
H1553 C1568 0.960 . S
H1554 C1568 0.960 . S
H1555 C1568 0.960 . S
C1556 H1548 0.929 . S
C1556 C1557 1.377 . S
C1556 C1558 1.384 . S
C1557 C1556 1.377 . S
C1557 C1563 1.390 . S
C1558 H1549 0.930 . S
C1558 C1556 1.384 . S
C1558 C1559 1.372 . S
C1559 C1558 1.372 . S
C1559 C1560 1.400 . S
C1559 C1564 1.490 . S
C1560 H1550 0.930 . S
C1560 C1559 1.400 . S
C1560 C1563 1.386 . S
H1561 C1577 0.930 . S
H1562 C1578 0.931 . S
C1563 H1551 0.929 . S
C1563 C1557 1.390 . S
C1563 C1560 1.386 . S
C1564 C1559 1.490 . S
C1564 C1566 1.395 . S
C1564 C1567 1.403 . S
H1565 C1571 0.930 . S
C1566 H1552 0.930 . S
C1566 C1564 1.395 . S
C1566 C1569 1.403 . S
C1567 C1564 1.403 . S
C1567 C1568 1.524 . S
C1567 C1571 1.400 . S
C1568 H1553 0.960 . S
C1568 H1554 0.960 . S
C1568 H1555 0.960 . S
C1568 C1567 1.524 . S
C1569 C1566 1.403 . S
C1569 C1570 1.392 . S
C1569 C1573 1.495 . S
C1570 C1569 1.392 . S
C1570 C1571 1.385 . S
C1570 C1572 1.478 . S
C1571 H1565 0.930 . S
C1571 C1567 1.400 . S
C1571 C1570 1.385 . S
C1572 C1570 1.478 . S
C1572 C1574 1.381 . S
C1572 C1578 1.383 . S
C1573 C1569 1.495 . S
C1573 H1579 0.959 . S
C1573 H1580 0.961 . S
C1573 H1581 0.960 . S
C1574 C1572 1.381 . S
C1574 C1575 1.394 . S
C1574 H1582 0.930 . S
C1575 C1574 1.394 . S
C1575 C1576 1.383 . S
C1575 H1583 0.929 . S
C1576 C1575 1.383 . S
C1576 C1577 1.377 . S
C1577 H1561 0.930 . S
C1577 C1576 1.377 . S
C1577 C1578 1.379 . S
C1578 H1562 0.931 . S
C1578 C1572 1.383 . S
C1578 C1577 1.379 . S
H1579 C1573 0.959 . S
H1580 C1573 0.961 . S
H1581 C1573 0.960 . S
H1582 C1574 0.930 . S
H1583 C1575 0.929 . S
H1584 C1592 0.929 . S
H1585 C1594 0.930 . S
H1586 C1596 0.930 . S
H1587 C1599 0.929 . S
H1588 C1602 0.930 . S
H1589 C1604 0.960 . S
H1590 C1604 0.960 . S
H1591 C1604 0.960 . S
C1592 H1584 0.929 . S
C1592 C1593 1.377 . S
C1592 C1594 1.384 . S
C1593 C1592 1.377 . S
C1593 C1599 1.390 . S
C1594 H1585 0.930 . S
C1594 C1592 1.384 . S
C1594 C1595 1.372 . S
C1595 C1594 1.372 . S
C1595 C1596 1.400 . S
C1595 C1600 1.490 . S
C1596 H1586 0.930 . S
C1596 C1595 1.400 . S
C1596 C1599 1.386 . S
H1597 C1613 0.930 . S
H1598 C1614 0.931 . S
C1599 H1587 0.929 . S
C1599 C1593 1.390 . S
C1599 C1596 1.386 . S
C1600 C1595 1.490 . S
C1600 C1602 1.395 . S
C1600 C1603 1.403 . S
H1601 C1607 0.930 . S
C1602 H1588 0.930 . S
C1602 C1600 1.395 . S
C1602 C1605 1.403 . S
C1603 C1600 1.403 . S
C1603 C1604 1.524 . S
C1603 C1607 1.400 . S
C1604 H1589 0.960 . S
C1604 H1590 0.960 . S
C1604 H1591 0.960 . S
C1604 C1603 1.524 . S
C1605 C1602 1.403 . S
C1605 C1606 1.392 . S
C1605 C1609 1.495 . S
C1606 C1605 1.392 . S
C1606 C1607 1.385 . S
C1606 C1608 1.478 . S
C1607 H1601 0.930 . S
C1607 C1603 1.400 . S
C1607 C1606 1.385 . S
C1608 C1606 1.478 . S
C1608 C1610 1.381 . S
C1608 C1614 1.383 . S
C1609 C1605 1.495 . S
C1609 H1615 0.959 . S
C1609 H1616 0.961 . S
C1609 H1617 0.960 . S
C1610 C1608 1.381 . S
C1610 C1611 1.394 . S
C1610 H1618 0.930 . S
C1611 C1610 1.394 . S
C1611 C1612 1.383 . S
C1611 H1619 0.929 . S
C1612 C1611 1.383 . S
C1612 C1613 1.377 . S
C1613 H1597 0.930 . S
C1613 C1612 1.377 . S
C1613 C1614 1.379 . S
C1614 H1598 0.931 . S
C1614 C1608 1.383 . S
C1614 C1613 1.379 . S
H1615 C1609 0.959 . S
H1616 C1609 0.961 . S
H1617 C1609 0.960 . S
H1618 C1610 0.930 . S
H1619 C1611 0.929 . S
H1620 C1628 0.929 . S
H1621 C1630 0.930 . S
H1622 C1632 0.930 . S
H1623 C1635 0.929 . S
H1624 C1638 0.930 . S
H1625 C1640 0.960 . S
H1626 C1640 0.960 . S
H1627 C1640 0.960 . S
C1628 H1620 0.929 . S
C1628 C1629 1.377 . S
C1628 C1630 1.384 . S
C1629 C1628 1.377 . S
C1629 C1635 1.390 . S
C1630 H1621 0.930 . S
C1630 C1628 1.384 . S
C1630 C1631 1.372 . S
C1631 C1630 1.372 . S
C1631 C1632 1.400 . S
C1631 C1636 1.490 . S
C1632 H1622 0.930 . S
C1632 C1631 1.400 . S
C1632 C1635 1.386 . S
H1633 C1649 0.930 . S
H1634 C1650 0.931 . S
C1635 H1623 0.929 . S
C1635 C1629 1.390 . S
C1635 C1632 1.386 . S
C1636 C1631 1.490 . S
C1636 C1638 1.395 . S
C1636 C1639 1.403 . S
H1637 C1643 0.930 . S
C1638 H1624 0.930 . S
C1638 C1636 1.395 . S
C1638 C1641 1.403 . S
C1639 C1636 1.403 . S
C1639 C1640 1.524 . S
C1639 C1643 1.400 . S
C1640 H1625 0.960 . S
C1640 H1626 0.960 . S
C1640 H1627 0.960 . S
C1640 C1639 1.524 . S
C1641 C1638 1.403 . S
C1641 C1642 1.392 . S
C1641 C1645 1.495 . S
C1642 C1641 1.392 . S
C1642 C1643 1.385 . S
C1642 C1644 1.478 . S
C1643 H1637 0.930 . S
C1643 C1639 1.400 . S
C1643 C1642 1.385 . S
C1644 C1642 1.478 . S
C1644 C1646 1.381 . S
C1644 C1650 1.383 . S
C1645 C1641 1.495 . S
C1645 H1651 0.959 . S
C1645 H1652 0.961 . S
C1645 H1653 0.960 . S
C1646 C1644 1.381 . S
C1646 C1647 1.394 . S
C1646 H1654 0.930 . S
C1647 C1646 1.394 . S
C1647 C1648 1.383 . S
C1647 H1655 0.929 . S
C1648 C1647 1.383 . S
C1648 C1649 1.377 . S
C1649 H1633 0.930 . S
C1649 C1648 1.377 . S
C1649 C1650 1.379 . S
C1650 H1634 0.931 . S
C1650 C1644 1.383 . S
C1650 C1649 1.379 . S
H1651 C1645 0.959 . S
H1652 C1645 0.961 . S
H1653 C1645 0.960 . S
H1654 C1646 0.930 . S
H1655 C1647 0.929 . S
H1656 C1664 0.929 . S
H1657 C1666 0.930 . S
H1658 C1668 0.930 . S
H1659 C1671 0.929 . S
H1660 C1674 0.930 . S
H1661 C1676 0.960 . S
H1662 C1676 0.960 . S
H1663 C1676 0.960 . S
C1664 H1656 0.929 . S
C1664 C1665 1.377 . S
C1664 C1666 1.384 . S
C1665 C1664 1.377 . S
C1665 C1671 1.390 . S
C1666 H1657 0.930 . S
C1666 C1664 1.384 . S
C1666 C1667 1.372 . S
C1667 C1666 1.372 . S
C1667 C1668 1.400 . S
C1667 C1672 1.490 . S
C1668 H1658 0.930 . S
C1668 C1667 1.400 . S
C1668 C1671 1.386 . S
H1669 C1685 0.930 . S
H1670 C1686 0.931 . S
C1671 H1659 0.929 . S
C1671 C1665 1.390 . S
C1671 C1668 1.386 . S
C1672 C1667 1.490 . S
C1672 C1674 1.395 . S
C1672 C1675 1.403 . S
H1673 C1679 0.930 . S
C1674 H1660 0.930 . S
C1674 C1672 1.395 . S
C1674 C1677 1.403 . S
C1675 C1672 1.403 . S
C1675 C1676 1.524 . S
C1675 C1679 1.400 . S
C1676 H1661 0.960 . S
C1676 H1662 0.960 . S
C1676 H1663 0.960 . S
C1676 C1675 1.524 . S
C1677 C1674 1.403 . S
C1677 C1678 1.392 . S
C1677 C1681 1.495 . S
C1678 C1677 1.392 . S
C1678 C1679 1.385 . S
C1678 C1680 1.478 . S
C1679 H1673 0.930 . S
C1679 C1675 1.400 . S
C1679 C1678 1.385 . S
C1680 C1678 1.478 . S
C1680 C1682 1.381 . S
C1680 C1686 1.383 . S
C1681 C1677 1.495 . S
C1681 H1687 0.959 . S
C1681 H1688 0.961 . S
C1681 H1689 0.960 . S
C1682 C1680 1.381 . S
C1682 C1683 1.394 . S
C1682 H1690 0.930 . S
C1683 C1682 1.394 . S
C1683 C1684 1.383 . S
C1683 H1691 0.929 . S
C1684 C1683 1.383 . S
C1684 C1685 1.377 . S
C1685 H1669 0.930 . S
C1685 C1684 1.377 . S
C1685 C1686 1.379 . S
C1686 H1670 0.931 . S
C1686 C1680 1.383 . S
C1686 C1685 1.379 . S
H1687 C1681 0.959 . S
H1688 C1681 0.961 . S
H1689 C1681 0.960 . S
H1690 C1682 0.930 . S
H1691 C1683 0.929 . S
H1692 C1700 0.929 . S
H1693 C1702 0.930 . S
H1694 C1704 0.930 . S
H1695 C1707 0.929 . S
H1696 C1710 0.930 . S
H1697 C1712 0.960 . S
H1698 C1712 0.960 . S
H1699 C1712 0.960 . S
C1700 H1692 0.929 . S
C1700 C1701 1.377 . S
C1700 C1702 1.384 . S
C1701 C1700 1.377 . S
C1701 C1707 1.390 . S
C1702 H1693 0.930 . S
C1702 C1700 1.384 . S
C1702 C1703 1.372 . S
C1703 C1702 1.372 . S
C1703 C1704 1.400 . S
C1703 C1708 1.490 . S
C1704 H1694 0.930 . S
C1704 C1703 1.400 . S
C1704 C1707 1.386 . S
H1705 C1721 0.930 . S
H1706 C1722 0.931 . S
C1707 H1695 0.929 . S
C1707 C1701 1.390 . S
C1707 C1704 1.386 . S
C1708 C1703 1.490 . S
C1708 C1710 1.395 . S
C1708 C1711 1.403 . S
H1709 C1715 0.930 . S
C1710 H1696 0.930 . S
C1710 C1708 1.395 . S
C1710 C1713 1.403 . S
C1711 C1708 1.403 . S
C1711 C1712 1.524 . S
C1711 C1715 1.400 . S
C1712 H1697 0.960 . S
C1712 H1698 0.960 . S
C1712 H1699 0.960 . S
C1712 C1711 1.524 . S
C1713 C1710 1.403 . S
C1713 C1714 1.392 . S
C1713 C1717 1.495 . S
C1714 C1713 1.392 . S
C1714 C1715 1.385 . S
C1714 C1716 1.478 . S
C1715 H1709 0.930 . S
C1715 C1711 1.400 . S
C1715 C1714 1.385 . S
C1716 C1714 1.478 . S
C1716 C1718 1.381 . S
C1716 C1722 1.383 . S
C1717 C1713 1.495 . S
C1717 H1723 0.959 . S
C1717 H1724 0.961 . S
C1717 H1725 0.960 . S
C1718 C1716 1.381 . S
C1718 C1719 1.394 . S
C1718 H1726 0.930 . S
C1719 C1718 1.394 . S
C1719 C1720 1.383 . S
C1719 H1727 0.929 . S
C1720 C1719 1.383 . S
C1720 C1721 1.377 . S
C1721 H1705 0.930 . S
C1721 C1720 1.377 . S
C1721 C1722 1.379 . S
C1722 H1706 0.931 . S
C1722 C1716 1.383 . S
C1722 C1721 1.379 . S
H1723 C1717 0.959 . S
H1724 C1717 0.961 . S
H1725 C1717 0.960 . S
H1726 C1718 0.930 . S
H1727 C1719 0.929 . S
H1728 C1736 0.929 . S
H1729 C1738 0.930 . S
H1730 C1740 0.930 . S
H1731 C1743 0.929 . S
H1732 C1746 0.930 . S
H1733 C1748 0.960 . S
H1734 C1748 0.960 . S
H1735 C1748 0.960 . S
C1736 H1728 0.929 . S
C1736 C1737 1.377 . S
C1736 C1738 1.384 . S
C1737 C1736 1.377 . S
C1737 C1743 1.390 . S
C1738 H1729 0.930 . S
C1738 C1736 1.384 . S
C1738 C1739 1.372 . S
C1739 C1738 1.372 . S
C1739 C1740 1.400 . S
C1739 C1744 1.490 . S
C1740 H1730 0.930 . S
C1740 C1739 1.400 . S
C1740 C1743 1.386 . S
H1741 C1757 0.930 . S
H1742 C1758 0.931 . S
C1743 H1731 0.929 . S
C1743 C1737 1.390 . S
C1743 C1740 1.386 . S
C1744 C1739 1.490 . S
C1744 C1746 1.395 . S
C1744 C1747 1.403 . S
H1745 C1751 0.930 . S
C1746 H1732 0.930 . S
C1746 C1744 1.395 . S
C1746 C1749 1.403 . S
C1747 C1744 1.403 . S
C1747 C1748 1.524 . S
C1747 C1751 1.400 . S
C1748 H1733 0.960 . S
C1748 H1734 0.960 . S
C1748 H1735 0.960 . S
C1748 C1747 1.524 . S
C1749 C1746 1.403 . S
C1749 C1750 1.392 . S
C1749 C1753 1.495 . S
C1750 C1749 1.392 . S
C1750 C1751 1.385 . S
C1750 C1752 1.478 . S
C1751 H1745 0.930 . S
C1751 C1747 1.400 . S
C1751 C1750 1.385 . S
C1752 C1750 1.478 . S
C1752 C1754 1.381 . S
C1752 C1758 1.383 . S
C1753 C1749 1.495 . S
C1753 H1759 0.959 . S
C1753 H1760 0.961 . S
C1753 H1761 0.960 . S
C1754 C1752 1.381 . S
C1754 C1755 1.394 . S
C1754 H1762 0.930 . S
C1755 C1754 1.394 . S
C1755 C1756 1.383 . S
C1755 H1763 0.929 . S
C1756 C1755 1.383 . S
C1756 C1757 1.377 . S
C1757 H1741 0.930 . S
C1757 C1756 1.377 . S
C1757 C1758 1.379 . S
C1758 H1742 0.931 . S
C1758 C1752 1.383 . S
C1758 C1757 1.379 . S
H1759 C1753 0.959 . S
H1760 C1753 0.961 . S
H1761 C1753 0.960 . S
H1762 C1754 0.930 . S
H1763 C1755 0.929 . S
H1764 C1772 0.929 . S
H1765 C1774 0.930 . S
H1766 C1776 0.930 . S
H1767 C1779 0.929 . S
H1768 C1782 0.930 . S
H1769 C1784 0.960 . S
H1770 C1784 0.960 . S
H1771 C1784 0.960 . S
C1772 H1764 0.929 . S
C1772 C1773 1.377 . S
C1772 C1774 1.384 . S
C1773 C1772 1.377 . S
C1773 C1779 1.390 . S
C1774 H1765 0.930 . S
C1774 C1772 1.384 . S
C1774 C1775 1.372 . S
C1775 C1774 1.372 . S
C1775 C1776 1.400 . S
C1775 C1780 1.490 . S
C1776 H1766 0.930 . S
C1776 C1775 1.400 . S
C1776 C1779 1.386 . S
H1777 C1793 0.930 . S
H1778 C1794 0.931 . S
C1779 H1767 0.929 . S
C1779 C1773 1.390 . S
C1779 C1776 1.386 . S
C1780 C1775 1.490 . S
C1780 C1782 1.395 . S
C1780 C1783 1.403 . S
H1781 C1787 0.930 . S
C1782 H1768 0.930 . S
C1782 C1780 1.395 . S
C1782 C1785 1.403 . S
C1783 C1780 1.403 . S
C1783 C1784 1.524 . S
C1783 C1787 1.400 . S
C1784 H1769 0.960 . S
C1784 H1770 0.960 . S
C1784 H1771 0.960 . S
C1784 C1783 1.524 . S
C1785 C1782 1.403 . S
C1785 C1786 1.392 . S
C1785 C1789 1.495 . S
C1786 C1785 1.392 . S
C1786 C1787 1.385 . S
C1786 C1788 1.478 . S
C1787 H1781 0.930 . S
C1787 C1783 1.400 . S
C1787 C1786 1.385 . S
C1788 C1786 1.478 . S
C1788 C1790 1.381 . S
C1788 C1794 1.383 . S
C1789 C1785 1.495 . S
C1789 H1795 0.959 . S
C1789 H1796 0.961 . S
C1789 H1797 0.960 . S
C1790 C1788 1.381 . S
C1790 C1791 1.394 . S
C1790 H1798 0.930 . S
C1791 C1790 1.394 . S
C1791 C1792 1.383 . S
C1791 H1799 0.929 . S
C1792 C1791 1.383 . S
C1792 C1793 1.377 . S
C1793 H1777 0.930 . S
C1793 C1792 1.377 . S
C1793 C1794 1.379 . S
C1794 H1778 0.931 . S
C1794 C1788 1.383 . S
C1794 C1793 1.379 . S
H1795 C1789 0.959 . S
H1796 C1789 0.961 . S
H1797 C1789 0.960 . S
H1798 C1790 0.930 . S
H1799 C1791 0.929 . S
H1800 C1808 0.929 . S
H1801 C1810 0.930 . S
H1802 C1812 0.930 . S
H1803 C1815 0.929 . S
H1804 C1818 0.930 . S
H1805 C1820 0.960 . S
H1806 C1820 0.960 . S
H1807 C1820 0.960 . S
C1808 H1800 0.929 . S
C1808 C1809 1.377 . S
C1808 C1810 1.384 . S
C1809 C1808 1.377 . S
C1809 C1815 1.390 . S
C1810 H1801 0.930 . S
C1810 C1808 1.384 . S
C1810 C1811 1.372 . S
C1811 C1810 1.372 . S
C1811 C1812 1.400 . S
C1811 C1816 1.490 . S
C1812 H1802 0.930 . S
C1812 C1811 1.400 . S
C1812 C1815 1.386 . S
H1813 C1829 0.930 . S
H1814 C1830 0.931 . S
C1815 H1803 0.929 . S
C1815 C1809 1.390 . S
C1815 C1812 1.386 . S
C1816 C1811 1.490 . S
C1816 C1818 1.395 . S
C1816 C1819 1.403 . S
H1817 C1823 0.930 . S
C1818 H1804 0.930 . S
C1818 C1816 1.395 . S
C1818 C1821 1.403 . S
C1819 C1816 1.403 . S
C1819 C1820 1.524 . S
C1819 C1823 1.400 . S
C1820 H1805 0.960 . S
C1820 H1806 0.960 . S
C1820 H1807 0.960 . S
C1820 C1819 1.524 . S
C1821 C1818 1.403 . S
C1821 C1822 1.392 . S
C1821 C1825 1.495 . S
C1822 C1821 1.392 . S
C1822 C1823 1.385 . S
C1822 C1824 1.478 . S
C1823 H1817 0.930 . S
C1823 C1819 1.400 . S
C1823 C1822 1.385 . S
C1824 C1822 1.478 . S
C1824 C1826 1.381 . S
C1824 C1830 1.383 . S
C1825 C1821 1.495 . S
C1825 H1831 0.959 . S
C1825 H1832 0.961 . S
C1825 H1833 0.960 . S
C1826 C1824 1.381 . S
C1826 C1827 1.394 . S
C1826 H1834 0.930 . S
C1827 C1826 1.394 . S
C1827 C1828 1.383 . S
C1827 H1835 0.929 . S
C1828 C1827 1.383 . S
C1828 C1829 1.377 . S
C1829 H1813 0.930 . S
C1829 C1828 1.377 . S
C1829 C1830 1.379 . S
C1830 H1814 0.931 . S
C1830 C1824 1.383 . S
C1830 C1829 1.379 . S
H1831 C1825 0.959 . S
H1832 C1825 0.961 . S
H1833 C1825 0.960 . S
H1834 C1826 0.930 . S
H1835 C1827 0.929 . S
H1836 C1844 0.929 . S
H1837 C1846 0.930 . S
H1838 C1848 0.930 . S
H1839 C1851 0.929 . S
H1840 C1854 0.930 . S
H1841 C1856 0.960 . S
H1842 C1856 0.960 . S
H1843 C1856 0.960 . S
C1844 H1836 0.929 . S
C1844 C1845 1.377 . S
C1844 C1846 1.384 . S
C1845 C1844 1.377 . S
C1845 C1851 1.390 . S
C1846 H1837 0.930 . S
C1846 C1844 1.384 . S
C1846 C1847 1.372 . S
C1847 C1846 1.372 . S
C1847 C1848 1.400 . S
C1847 C1852 1.490 . S
C1848 H1838 0.930 . S
C1848 C1847 1.400 . S
C1848 C1851 1.386 . S
H1849 C1865 0.930 . S
H1850 C1866 0.931 . S
C1851 H1839 0.929 . S
C1851 C1845 1.390 . S
C1851 C1848 1.386 . S
C1852 C1847 1.490 . S
C1852 C1854 1.395 . S
C1852 C1855 1.403 . S
H1853 C1859 0.930 . S
C1854 H1840 0.930 . S
C1854 C1852 1.395 . S
C1854 C1857 1.403 . S
C1855 C1852 1.403 . S
C1855 C1856 1.524 . S
C1855 C1859 1.400 . S
C1856 H1841 0.960 . S
C1856 H1842 0.960 . S
C1856 H1843 0.960 . S
C1856 C1855 1.524 . S
C1857 C1854 1.403 . S
C1857 C1858 1.392 . S
C1857 C1861 1.495 . S
C1858 C1857 1.392 . S
C1858 C1859 1.385 . S
C1858 C1860 1.478 . S
C1859 H1853 0.930 . S
C1859 C1855 1.400 . S
C1859 C1858 1.385 . S
C1860 C1858 1.478 . S
C1860 C1862 1.381 . S
C1860 C1866 1.383 . S
C1861 C1857 1.495 . S
C1861 H1867 0.959 . S
C1861 H1868 0.961 . S
C1861 H1869 0.960 . S
C1862 C1860 1.381 . S
C1862 C1863 1.394 . S
C1862 H1870 0.930 . S
C1863 C1862 1.394 . S
C1863 C1864 1.383 . S
C1863 H1871 0.929 . S
C1864 C1863 1.383 . S
C1864 C1865 1.377 . S
C1865 H1849 0.930 . S
C1865 C1864 1.377 . S
C1865 C1866 1.379 . S
C1866 H1850 0.931 . S
C1866 C1860 1.383 . S
C1866 C1865 1.379 . S
H1867 C1861 0.959 . S
H1868 C1861 0.961 . S
H1869 C1861 0.960 . S
H1870 C1862 0.930 . S
H1871 C1863 0.929 . S
H1872 C1880 0.929 . S
H1873 C1882 0.930 . S
H1874 C1884 0.930 . S
H1875 C1887 0.929 . S
H1876 C1890 0.930 . S
H1877 C1892 0.960 . S
H1878 C1892 0.960 . S
H1879 C1892 0.960 . S
C1880 H1872 0.929 . S
C1880 C1881 1.377 . S
C1880 C1882 1.384 . S
C1881 C1880 1.377 . S
C1881 C1887 1.390 . S
C1882 H1873 0.930 . S
C1882 C1880 1.384 . S
C1882 C1883 1.372 . S
C1883 C1882 1.372 . S
C1883 C1884 1.400 . S
C1883 C1888 1.490 . S
C1884 H1874 0.930 . S
C1884 C1883 1.400 . S
C1884 C1887 1.386 . S
H1885 C1901 0.930 . S
H1886 C1902 0.931 . S
C1887 H1875 0.929 . S
C1887 C1881 1.390 . S
C1887 C1884 1.386 . S
C1888 C1883 1.490 . S
C1888 C1890 1.395 . S
C1888 C1891 1.403 . S
H1889 C1895 0.930 . S
C1890 H1876 0.930 . S
C1890 C1888 1.395 . S
C1890 C1893 1.403 . S
C1891 C1888 1.403 . S
C1891 C1892 1.524 . S
C1891 C1895 1.400 . S
C1892 H1877 0.960 . S
C1892 H1878 0.960 . S
C1892 H1879 0.960 . S
C1892 C1891 1.524 . S
C1893 C1890 1.403 . S
C1893 C1894 1.392 . S
C1893 C1897 1.495 . S
C1894 C1893 1.392 . S
C1894 C1895 1.385 . S
C1894 C1896 1.478 . S
C1895 H1889 0.930 . S
C1895 C1891 1.400 . S
C1895 C1894 1.385 . S
C1896 C1894 1.478 . S
C1896 C1898 1.381 . S
C1896 C1902 1.383 . S
C1897 C1893 1.495 . S
C1897 H1903 0.959 . S
C1897 H1904 0.961 . S
C1897 H1905 0.960 . S
C1898 C1896 1.381 . S
C1898 C1899 1.394 . S
C1898 H1906 0.930 . S
C1899 C1898 1.394 . S
C1899 C1900 1.383 . S
C1899 H1907 0.929 . S
C1900 C1899 1.383 . S
C1900 C1901 1.377 . S
C1901 H1885 0.930 . S
C1901 C1900 1.377 . S
C1901 C1902 1.379 . S
C1902 H1886 0.931 . S
C1902 C1896 1.383 . S
C1902 C1901 1.379 . S
H1903 C1897 0.959 . S
H1904 C1897 0.961 . S
H1905 C1897 0.960 . S
H1906 C1898 0.930 . S
H1907 C1899 0.929 . S
H1908 C1916 0.929 . S
H1909 C1918 0.930 . S
H1910 C1920 0.930 . S
H1911 C1923 0.929 . S
H1912 C1926 0.930 . S
H1913 C1928 0.960 . S
H1914 C1928 0.960 . S
H1915 C1928 0.960 . S
C1916 H1908 0.929 . S
C1916 C1917 1.377 . S
C1916 C1918 1.384 . S
C1917 C1916 1.377 . S
C1917 C1923 1.390 . S
C1918 H1909 0.930 . S
C1918 C1916 1.384 . S
C1918 C1919 1.372 . S
C1919 C1918 1.372 . S
C1919 C1920 1.400 . S
C1919 C1924 1.490 . S
C1920 H1910 0.930 . S
C1920 C1919 1.400 . S
C1920 C1923 1.386 . S
H1921 C1937 0.930 . S
H1922 C1938 0.931 . S
C1923 H1911 0.929 . S
C1923 C1917 1.390 . S
C1923 C1920 1.386 . S
C1924 C1919 1.490 . S
C1924 C1926 1.395 . S
C1924 C1927 1.403 . S
H1925 C1931 0.930 . S
C1926 H1912 0.930 . S
C1926 C1924 1.395 . S
C1926 C1929 1.403 . S
C1927 C1924 1.403 . S
C1927 C1928 1.524 . S
C1927 C1931 1.400 . S
C1928 H1913 0.960 . S
C1928 H1914 0.960 . S
C1928 H1915 0.960 . S
C1928 C1927 1.524 . S
C1929 C1926 1.403 . S
C1929 C1930 1.392 . S
C1929 C1933 1.495 . S
C1930 C1929 1.392 . S
C1930 C1931 1.385 . S
C1930 C1932 1.478 . S
C1931 H1925 0.930 . S
C1931 C1927 1.400 . S
C1931 C1930 1.385 . S
C1932 C1930 1.478 . S
C1932 C1934 1.381 . S
C1932 C1938 1.383 . S
C1933 C1929 1.495 . S
C1933 H1939 0.959 . S
C1933 H1940 0.961 . S
C1933 H1941 0.960 . S
C1934 C1932 1.381 . S
C1934 C1935 1.394 . S
C1934 H1942 0.930 . S
C1935 C1934 1.394 . S
C1935 C1936 1.383 . S
C1935 H1943 0.929 . S
C1936 C1935 1.383 . S
C1936 C1937 1.377 . S
C1937 H1921 0.930 . S
C1937 C1936 1.377 . S
C1937 C1938 1.379 . S
C1938 H1922 0.931 . S
C1938 C1932 1.383 . S
C1938 C1937 1.379 . S
H1939 C1933 0.959 . S
H1940 C1933 0.961 . S
H1941 C1933 0.960 . S
H1942 C1934 0.930 . S
H1943 C1935 0.929 . S
H1944 C1952 0.929 . S
H1945 C1954 0.930 . S
H1946 C1956 0.930 . S
H1947 C1959 0.929 . S
H1948 C1962 0.930 . S
H1949 C1964 0.960 . S
H1950 C1964 0.960 . S
H1951 C1964 0.960 . S
C1952 H1944 0.929 . S
C1952 C1953 1.377 . S
C1952 C1954 1.384 . S
C1953 C1952 1.377 . S
C1953 C1959 1.390 . S
C1954 H1945 0.930 . S
C1954 C1952 1.384 . S
C1954 C1955 1.372 . S
C1955 C1954 1.372 . S
C1955 C1956 1.400 . S
C1955 C1960 1.490 . S
C1956 H1946 0.930 . S
C1956 C1955 1.400 . S
C1956 C1959 1.386 . S
H1957 C1973 0.930 . S
H1958 C1974 0.931 . S
C1959 H1947 0.929 . S
C1959 C1953 1.390 . S
C1959 C1956 1.386 . S
C1960 C1955 1.490 . S
C1960 C1962 1.395 . S
C1960 C1963 1.403 . S
H1961 C1967 0.930 . S
C1962 H1948 0.930 . S
C1962 C1960 1.395 . S
C1962 C1965 1.403 . S
C1963 C1960 1.403 . S
C1963 C1964 1.524 . S
C1963 C1967 1.400 . S
C1964 H1949 0.960 . S
C1964 H1950 0.960 . S
C1964 H1951 0.960 . S
C1964 C1963 1.524 . S
C1965 C1962 1.403 . S
C1965 C1966 1.392 . S
C1965 C1969 1.495 . S
C1966 C1965 1.392 . S
C1966 C1967 1.385 . S
C1966 C1968 1.478 . S
C1967 H1961 0.930 . S
C1967 C1963 1.400 . S
C1967 C1966 1.385 . S
C1968 C1966 1.478 . S
C1968 C1970 1.381 . S
C1968 C1974 1.383 . S
C1969 C1965 1.495 . S
C1969 H1975 0.959 . S
C1969 H1976 0.961 . S
C1969 H1977 0.960 . S
C1970 C1968 1.381 . S
C1970 C1971 1.394 . S
C1970 H1978 0.930 . S
C1971 C1970 1.394 . S
C1971 C1972 1.383 . S
C1971 H1979 0.929 . S
C1972 C1971 1.383 . S
C1972 C1973 1.377 . S
C1973 H1957 0.930 . S
C1973 C1972 1.377 . S
C1973 C1974 1.379 . S
C1974 H1958 0.931 . S
C1974 C1968 1.383 . S
C1974 C1973 1.379 . S
H1975 C1969 0.959 . S
H1976 C1969 0.961 . S
H1977 C1969 0.960 . S
H1978 C1970 0.930 . S
H1979 C1971 0.929 . S
H1980 C1988 0.929 . S
H1981 C1990 0.930 . S
H1982 C1992 0.930 . S
H1983 C1995 0.929 . S
H1984 C1998 0.930 . S
H1985 C2000 0.960 . S
H1986 C2000 0.960 . S
H1987 C2000 0.960 . S
C1988 H1980 0.929 . S
C1988 C1989 1.377 . S
C1988 C1990 1.384 . S
C1989 C1988 1.377 . S
C1989 C1995 1.390 . S
C1990 H1981 0.930 . S
C1990 C1988 1.384 . S
C1990 C1991 1.372 . S
C1991 C1990 1.372 . S
C1991 C1992 1.400 . S
C1991 C1996 1.490 . S
C1992 H1982 0.930 . S
C1992 C1991 1.400 . S
C1992 C1995 1.386 . S
H1993 C2009 0.930 . S
H1994 C2010 0.931 . S
C1995 H1983 0.929 . S
C1995 C1989 1.390 . S
C1995 C1992 1.386 . S
C1996 C1991 1.490 . S
C1996 C1998 1.395 . S
C1996 C1999 1.403 . S
H1997 C2003 0.930 . S
C1998 H1984 0.930 . S
C1998 C1996 1.395 . S
C1998 C2001 1.403 . S
C1999 C1996 1.403 . S
C1999 C2000 1.524 . S
C1999 C2003 1.400 . S
C2000 H1985 0.960 . S
C2000 H1986 0.960 . S
C2000 H1987 0.960 . S
C2000 C1999 1.524 . S
C2001 C1998 1.403 . S
C2001 C2002 1.392 . S
C2001 C2005 1.495 . S
C2002 C2001 1.392 . S
C2002 C2003 1.385 . S
C2002 C2004 1.478 . S
C2003 H1997 0.930 . S
C2003 C1999 1.400 . S
C2003 C2002 1.385 . S
C2004 C2002 1.478 . S
C2004 C2006 1.381 . S
C2004 C2010 1.383 . S
C2005 C2001 1.495 . S
C2005 H2011 0.959 . S
C2005 H2012 0.961 . S
C2005 H2013 0.960 . S
C2006 C2004 1.381 . S
C2006 C2007 1.394 . S
C2006 H2014 0.930 . S
C2007 C2006 1.394 . S
C2007 C2008 1.383 . S
C2007 H2015 0.929 . S
C2008 C2007 1.383 . S
C2008 C2009 1.377 . S
C2009 H1993 0.930 . S
C2009 C2008 1.377 . S
C2009 C2010 1.379 . S
C2010 H1994 0.931 . S
C2010 C2004 1.383 . S
C2010 C2009 1.379 . S
H2011 C2005 0.959 . S
H2012 C2005 0.961 . S
H2013 C2005 0.960 . S
H2014 C2006 0.930 . S
H2015 C2007 0.929 . S
H2016 C2024 0.929 . S
H2017 C2026 0.930 . S
H2018 C2028 0.930 . S
H2019 C2031 0.929 . S
H2020 C2034 0.930 . S
H2021 C2036 0.960 . S
H2022 C2036 0.960 . S
H2023 C2036 0.960 . S
C2024 H2016 0.929 . S
C2024 C2025 1.377 . S
C2024 C2026 1.384 . S
C2025 C2024 1.377 . S
C2025 C2031 1.390 . S
C2026 H2017 0.930 . S
C2026 C2024 1.384 . S
C2026 C2027 1.372 . S
C2027 C2026 1.372 . S
C2027 C2028 1.400 . S
C2027 C2032 1.490 . S
C2028 H2018 0.930 . S
C2028 C2027 1.400 . S
C2028 C2031 1.386 . S
H2029 C2045 0.930 . S
H2030 C2046 0.931 . S
C2031 H2019 0.929 . S
C2031 C2025 1.390 . S
C2031 C2028 1.386 . S
C2032 C2027 1.490 . S
C2032 C2034 1.395 . S
C2032 C2035 1.403 . S
H2033 C2039 0.930 . S
C2034 H2020 0.930 . S
C2034 C2032 1.395 . S
C2034 C2037 1.403 . S
C2035 C2032 1.403 . S
C2035 C2036 1.524 . S
C2035 C2039 1.400 . S
C2036 H2021 0.960 . S
C2036 H2022 0.960 . S
C2036 H2023 0.960 . S
C2036 C2035 1.524 . S
C2037 C2034 1.403 . S
C2037 C2038 1.392 . S
C2037 C2041 1.495 . S
C2038 C2037 1.392 . S
C2038 C2039 1.385 . S
C2038 C2040 1.478 . S
C2039 H2033 0.930 . S
C2039 C2035 1.400 . S
C2039 C2038 1.385 . S
C2040 C2038 1.478 . S
C2040 C2042 1.381 . S
C2040 C2046 1.383 . S
C2041 C2037 1.495 . S
C2041 H2047 0.959 . S
C2041 H2048 0.961 . S
C2041 H2049 0.960 . S
C2042 C2040 1.381 . S
C2042 C2043 1.394 . S
C2042 H2050 0.930 . S
C2043 C2042 1.394 . S
C2043 C2044 1.383 . S
C2043 H2051 0.929 . S
C2044 C2043 1.383 . S
C2044 C2045 1.377 . S
C2045 H2029 0.930 . S
C2045 C2044 1.377 . S
C2045 C2046 1.379 . S
C2046 H2030 0.931 . S
C2046 C2040 1.383 . S
C2046 C2045 1.379 . S
H2047 C2041 0.959 . S
H2048 C2041 0.961 . S
H2049 C2041 0.960 . S
H2050 C2042 0.930 . S
H2051 C2043 0.929 . S
H2052 C2060 0.929 . S
H2053 C2062 0.930 . S
H2054 C2064 0.930 . S
H2055 C2067 0.929 . S
H2056 C2070 0.930 . S
H2057 C2072 0.960 . S
H2058 C2072 0.960 . S
H2059 C2072 0.960 . S
C2060 H2052 0.929 . S
C2060 C2061 1.377 . S
C2060 C2062 1.384 . S
C2061 C2060 1.377 . S
C2061 C2067 1.390 . S
C2062 H2053 0.930 . S
C2062 C2060 1.384 . S
C2062 C2063 1.372 . S
C2063 C2062 1.372 . S
C2063 C2064 1.400 . S
C2063 C2068 1.490 . S
C2064 H2054 0.930 . S
C2064 C2063 1.400 . S
C2064 C2067 1.386 . S
H2065 C2081 0.930 . S
H2066 C2082 0.931 . S
C2067 H2055 0.929 . S
C2067 C2061 1.390 . S
C2067 C2064 1.386 . S
C2068 C2063 1.490 . S
C2068 C2070 1.395 . S
C2068 C2071 1.403 . S
H2069 C2075 0.930 . S
C2070 H2056 0.930 . S
C2070 C2068 1.395 . S
C2070 C2073 1.403 . S
C2071 C2068 1.403 . S
C2071 C2072 1.524 . S
C2071 C2075 1.400 . S
C2072 H2057 0.960 . S
C2072 H2058 0.960 . S
C2072 H2059 0.960 . S
C2072 C2071 1.524 . S
C2073 C2070 1.403 . S
C2073 C2074 1.392 . S
C2073 C2077 1.495 . S
C2074 C2073 1.392 . S
C2074 C2075 1.385 . S
C2074 C2076 1.478 . S
C2075 H2069 0.930 . S
C2075 C2071 1.400 . S
C2075 C2074 1.385 . S
C2076 C2074 1.478 . S
C2076 C2078 1.381 . S
C2076 C2082 1.383 . S
C2077 C2073 1.495 . S
C2077 H2083 0.959 . S
C2077 H2084 0.961 . S
C2077 H2085 0.960 . S
C2078 C2076 1.381 . S
C2078 C2079 1.394 . S
C2078 H2086 0.930 . S
C2079 C2078 1.394 . S
C2079 C2080 1.383 . S
C2079 H2087 0.929 . S
C2080 C2079 1.383 . S
C2080 C2081 1.377 . S
C2081 H2065 0.930 . S
C2081 C2080 1.377 . S
C2081 C2082 1.379 . S
C2082 H2066 0.931 . S
C2082 C2076 1.383 . S
C2082 C2081 1.379 . S
H2083 C2077 0.959 . S
H2084 C2077 0.961 . S
H2085 C2077 0.960 . S
H2086 C2078 0.930 . S
H2087 C2079 0.929 . S
H2088 C2096 0.929 . S
H2089 C2098 0.930 . S
H2090 C2100 0.930 . S
H2091 C2103 0.929 . S
H2092 C2106 0.930 . S
H2093 C2108 0.960 . S
H2094 C2108 0.960 . S
H2095 C2108 0.960 . S
C2096 H2088 0.929 . S
C2096 C2097 1.377 . S
C2096 C2098 1.384 . S
C2097 C2096 1.377 . S
C2097 C2103 1.390 . S
C2098 H2089 0.930 . S
C2098 C2096 1.384 . S
C2098 C2099 1.372 . S
C2099 C2098 1.372 . S
C2099 C2100 1.400 . S
C2099 C2104 1.490 . S
C2100 H2090 0.930 . S
C2100 C2099 1.400 . S
C2100 C2103 1.386 . S
H2101 C2117 0.930 . S
H2102 C2118 0.931 . S
C2103 H2091 0.929 . S
C2103 C2097 1.390 . S
C2103 C2100 1.386 . S
C2104 C2099 1.490 . S
C2104 C2106 1.395 . S
C2104 C2107 1.403 . S
H2105 C2111 0.930 . S
C2106 H2092 0.930 . S
C2106 C2104 1.395 . S
C2106 C2109 1.403 . S
C2107 C2104 1.403 . S
C2107 C2108 1.524 . S
C2107 C2111 1.400 . S
C2108 H2093 0.960 . S
C2108 H2094 0.960 . S
C2108 H2095 0.960 . S
C2108 C2107 1.524 . S
C2109 C2106 1.403 . S
C2109 C2110 1.392 . S
C2109 C2113 1.495 . S
C2110 C2109 1.392 . S
C2110 C2111 1.385 . S
C2110 C2112 1.478 . S
C2111 H2105 0.930 . S
C2111 C2107 1.400 . S
C2111 C2110 1.385 . S
C2112 C2110 1.478 . S
C2112 C2114 1.381 . S
C2112 C2118 1.383 . S
C2113 C2109 1.495 . S
C2113 H2119 0.959 . S
C2113 H2120 0.961 . S
C2113 H2121 0.960 . S
C2114 C2112 1.381 . S
C2114 C2115 1.394 . S
C2114 H2122 0.930 . S
C2115 C2114 1.394 . S
C2115 C2116 1.383 . S
C2115 H2123 0.929 . S
C2116 C2115 1.383 . S
C2116 C2117 1.377 . S
C2117 H2101 0.930 . S
C2117 C2116 1.377 . S
C2117 C2118 1.379 . S
C2118 H2102 0.931 . S
C2118 C2112 1.383 . S
C2118 C2117 1.379 . S
H2119 C2113 0.959 . S
H2120 C2113 0.961 . S
H2121 C2113 0.960 . S
H2122 C2114 0.930 . S
H2123 C2115 0.929 . S
H2124 C2132 0.929 . S
H2125 C2134 0.930 . S
H2126 C2136 0.930 . S
H2127 C2139 0.929 . S
H2128 C2142 0.930 . S
H2129 C2144 0.960 . S
H2130 C2144 0.960 . S
H2131 C2144 0.960 . S
C2132 H2124 0.929 . S
C2132 C2133 1.377 . S
C2132 C2134 1.384 . S
C2133 C2132 1.377 . S
C2133 C2139 1.390 . S
C2134 H2125 0.930 . S
C2134 C2132 1.384 . S
C2134 C2135 1.372 . S
C2135 C2134 1.372 . S
C2135 C2136 1.400 . S
C2135 C2140 1.490 . S
C2136 H2126 0.930 . S
C2136 C2135 1.400 . S
C2136 C2139 1.386 . S
H2137 C2153 0.930 . S
H2138 C2154 0.931 . S
C2139 H2127 0.929 . S
C2139 C2133 1.390 . S
C2139 C2136 1.386 . S
C2140 C2135 1.490 . S
C2140 C2142 1.395 . S
C2140 C2143 1.403 . S
H2141 C2147 0.930 . S
C2142 H2128 0.930 . S
C2142 C2140 1.395 . S
C2142 C2145 1.403 . S
C2143 C2140 1.403 . S
C2143 C2144 1.524 . S
C2143 C2147 1.400 . S
C2144 H2129 0.960 . S
C2144 H2130 0.960 . S
C2144 H2131 0.960 . S
C2144 C2143 1.524 . S
C2145 C2142 1.403 . S
C2145 C2146 1.392 . S
C2145 C2149 1.495 . S
C2146 C2145 1.392 . S
C2146 C2147 1.385 . S
C2146 C2148 1.478 . S
C2147 H2141 0.930 . S
C2147 C2143 1.400 . S
C2147 C2146 1.385 . S
C2148 C2146 1.478 . S
C2148 C2150 1.381 . S
C2148 C2154 1.383 . S
C2149 C2145 1.495 . S
C2149 H2155 0.959 . S
C2149 H2156 0.961 . S
C2149 H2157 0.960 . S
C2150 C2148 1.381 . S
C2150 C2151 1.394 . S
C2150 H2158 0.930 . S
C2151 C2150 1.394 . S
C2151 C2152 1.383 . S
C2151 H2159 0.929 . S
C2152 C2151 1.383 . S
C2152 C2153 1.377 . S
C2153 H2137 0.930 . S
C2153 C2152 1.377 . S
C2153 C2154 1.379 . S
C2154 H2138 0.931 . S
C2154 C2148 1.383 . S
C2154 C2153 1.379 . S
H2155 C2149 0.959 . S
H2156 C2149 0.961 . S
H2157 C2149 0.960 . S
H2158 C2150 0.930 . S
H2159 C2151 0.929 . S
H2160 C2168 0.929 . S
H2161 C2170 0.930 . S
H2162 C2172 0.930 . S
H2163 C2175 0.929 . S
H2164 C2178 0.930 . S
H2165 C2180 0.960 . S
H2166 C2180 0.960 . S
H2167 C2180 0.960 . S
C2168 H2160 0.929 . S
C2168 C2169 1.377 . S
C2168 C2170 1.384 . S
C2169 C2168 1.377 . S
C2169 C2175 1.390 . S
C2170 H2161 0.930 . S
C2170 C2168 1.384 . S
C2170 C2171 1.372 . S
C2171 C2170 1.372 . S
C2171 C2172 1.400 . S
C2171 C2176 1.490 . S
C2172 H2162 0.930 . S
C2172 C2171 1.400 . S
C2172 C2175 1.386 . S
H2173 C2189 0.930 . S
H2174 C2190 0.931 . S
C2175 H2163 0.929 . S
C2175 C2169 1.390 . S
C2175 C2172 1.386 . S
C2176 C2171 1.490 . S
C2176 C2178 1.395 . S
C2176 C2179 1.403 . S
H2177 C2183 0.930 . S
C2178 H2164 0.930 . S
C2178 C2176 1.395 . S
C2178 C2181 1.403 . S
C2179 C2176 1.403 . S
C2179 C2180 1.524 . S
C2179 C2183 1.400 . S
C2180 H2165 0.960 . S
C2180 H2166 0.960 . S
C2180 H2167 0.960 . S
C2180 C2179 1.524 . S
C2181 C2178 1.403 . S
C2181 C2182 1.392 . S
C2181 C2185 1.495 . S
C2182 C2181 1.392 . S
C2182 C2183 1.385 . S
C2182 C2184 1.478 . S
C2183 H2177 0.930 . S
C2183 C2179 1.400 . S
C2183 C2182 1.385 . S
C2184 C2182 1.478 . S
C2184 C2186 1.381 . S
C2184 C2190 1.383 . S
C2185 C2181 1.495 . S
C2185 H2191 0.959 . S
C2185 H2192 0.961 . S
C2185 H2193 0.960 . S
C2186 C2184 1.381 . S
C2186 C2187 1.394 . S
C2186 H2194 0.930 . S
C2187 C2186 1.394 . S
C2187 C2188 1.383 . S
C2187 H2195 0.929 1_655 S
C2188 C2187 1.383 . S
C2188 C2189 1.377 . S
C2189 H2173 0.930 . S
C2189 C2188 1.377 . S
C2189 C2190 1.379 . S
C2190 H2174 0.931 . S
C2190 C2184 1.383 . S
C2190 C2189 1.379 . S
H2191 C2185 0.959 . S
H2192 C2185 0.961 . S
H2193 C2185 0.960 . S
H2194 C2186 0.930 . S
H2195 C2187 0.929 1_455 S
H2196 C2204 0.929 . S
H2197 C2206 0.930 . S
H2198 C2208 0.930 . S
H2199 C2211 0.929 . S
H2200 C2214 0.930 . S
H2201 C2216 0.960 . S
H2202 C2216 0.960 . S
H2203 C2216 0.960 . S
C2204 H2196 0.929 . S
C2204 C2205 1.377 . S
C2204 C2206 1.384 . S
C2205 C2204 1.377 . S
C2205 C2211 1.390 . S
C2206 H2197 0.930 . S
C2206 C2204 1.384 . S
C2206 C2207 1.372 . S
C2207 C2206 1.372 . S
C2207 C2208 1.400 . S
C2207 C2212 1.490 . S
C2208 H2198 0.930 . S
C2208 C2207 1.400 . S
C2208 C2211 1.386 . S
H2209 C2225 0.930 . S
H2210 C2226 0.931 . S
C2211 H2199 0.929 . S
C2211 C2205 1.390 . S
C2211 C2208 1.386 . S
C2212 C2207 1.490 . S
C2212 C2214 1.395 . S
C2212 C2215 1.403 . S
H2213 C2219 0.930 . S
C2214 H2200 0.930 . S
C2214 C2212 1.395 . S
C2214 C2217 1.403 . S
C2215 C2212 1.403 . S
C2215 C2216 1.524 . S
C2215 C2219 1.400 . S
C2216 H2201 0.960 . S
C2216 H2202 0.960 . S
C2216 H2203 0.960 . S
C2216 C2215 1.524 . S
C2217 C2214 1.403 . S
C2217 C2218 1.392 . S
C2217 C2221 1.495 . S
C2218 C2217 1.392 . S
C2218 C2219 1.385 . S
C2218 C2220 1.478 . S
C2219 H2213 0.930 . S
C2219 C2215 1.400 . S
C2219 C2218 1.385 . S
C2220 C2218 1.478 . S
C2220 C2222 1.381 . S
C2220 C2226 1.383 . S
C2221 C2217 1.495 . S
C2221 H2227 0.959 . S
C2221 H2228 0.961 . S
C2221 H2229 0.960 . S
C2222 C2220 1.381 . S
C2222 C2223 1.394 . S
C2222 H2230 0.930 . S
C2223 C2222 1.394 . S
C2223 C2224 1.383 . S
C2223 H2231 0.929 . S
C2224 C2223 1.383 . S
C2224 C2225 1.377 . S
C2225 H2209 0.930 . S
C2225 C2224 1.377 . S
C2225 C2226 1.379 . S
C2226 H2210 0.931 . S
C2226 C2220 1.383 . S
C2226 C2225 1.379 . S
H2227 C2221 0.959 . S
H2228 C2221 0.961 . S
H2229 C2221 0.960 . S
H2230 C2222 0.930 . S
H2231 C2223 0.929 . S
H2232 C2240 0.929 . S
H2233 C2242 0.930 . S
H2234 C2244 0.930 . S
H2235 C2247 0.929 . S
H2236 C2250 0.930 . S
H2237 C2252 0.960 . S
H2238 C2252 0.960 . S
H2239 C2252 0.960 . S
C2240 H2232 0.929 . S
C2240 C2241 1.377 . S
C2240 C2242 1.384 . S
C2241 C2240 1.377 . S
C2241 C2247 1.390 . S
C2242 H2233 0.930 . S
C2242 C2240 1.384 . S
C2242 C2243 1.372 . S
C2243 C2242 1.372 . S
C2243 C2244 1.400 . S
C2243 C2248 1.490 . S
C2244 H2234 0.930 . S
C2244 C2243 1.400 . S
C2244 C2247 1.386 . S
H2245 C2261 0.930 . S
H2246 C2262 0.931 . S
C2247 H2235 0.929 . S
C2247 C2241 1.390 . S
C2247 C2244 1.386 . S
C2248 C2243 1.490 . S
C2248 C2250 1.395 . S
C2248 C2251 1.403 . S
H2249 C2255 0.930 . S
C2250 H2236 0.930 . S
C2250 C2248 1.395 . S
C2250 C2253 1.403 . S
C2251 C2248 1.403 . S
C2251 C2252 1.524 . S
C2251 C2255 1.400 . S
C2252 H2237 0.960 . S
C2252 H2238 0.960 . S
C2252 H2239 0.960 . S
C2252 C2251 1.524 . S
C2253 C2250 1.403 . S
C2253 C2254 1.392 . S
C2253 C2257 1.495 . S
C2254 C2253 1.392 . S
C2254 C2255 1.385 . S
C2254 C2256 1.478 . S
C2255 H2249 0.930 . S
C2255 C2251 1.400 . S
C2255 C2254 1.385 . S
C2256 C2254 1.478 . S
C2256 C2258 1.381 . S
C2256 C2262 1.383 . S
C2257 C2253 1.495 . S
C2257 H2263 0.959 . S
C2257 H2264 0.961 . S
C2257 H2265 0.960 . S
C2258 C2256 1.381 . S
C2258 C2259 1.394 . S
C2258 H2266 0.930 . S
C2259 C2258 1.394 . S
C2259 C2260 1.383 . S
C2259 H2267 0.929 . S
C2260 C2259 1.383 . S
C2260 C2261 1.377 . S
C2261 H2245 0.930 . S
C2261 C2260 1.377 . S
C2261 C2262 1.379 . S
C2262 H2246 0.931 . S
C2262 C2256 1.383 . S
C2262 C2261 1.379 . S
H2263 C2257 0.959 . S
H2264 C2257 0.961 . S
H2265 C2257 0.960 . S
H2266 C2258 0.930 . S
H2267 C2259 0.929 . S
H2268 C2276 0.929 . S
H2269 C2278 0.930 . S
H2270 C2280 0.930 . S
H2271 C2283 0.929 . S
H2272 C2286 0.930 . S
H2273 C2288 0.960 . S
H2274 C2288 0.960 . S
H2275 C2288 0.960 . S
C2276 H2268 0.929 . S
C2276 C2277 1.377 . S
C2276 C2278 1.384 . S
C2277 C2276 1.377 . S
C2277 C2283 1.390 . S
C2278 H2269 0.930 . S
C2278 C2276 1.384 . S
C2278 C2279 1.372 . S
C2279 C2278 1.372 . S
C2279 C2280 1.400 . S
C2279 C2284 1.490 . S
C2280 H2270 0.930 . S
C2280 C2279 1.400 . S
C2280 C2283 1.386 . S
H2281 C2297 0.930 . S
H2282 C2298 0.931 . S
C2283 H2271 0.929 . S
C2283 C2277 1.390 . S
C2283 C2280 1.386 . S
C2284 C2279 1.490 . S
C2284 C2286 1.395 . S
C2284 C2287 1.403 . S
H2285 C2291 0.930 . S
C2286 H2272 0.930 . S
C2286 C2284 1.395 . S
C2286 C2289 1.403 . S
C2287 C2284 1.403 . S
C2287 C2288 1.524 . S
C2287 C2291 1.400 . S
C2288 H2273 0.960 . S
C2288 H2274 0.960 . S
C2288 H2275 0.960 . S
C2288 C2287 1.524 . S
C2289 C2286 1.403 . S
C2289 C2290 1.392 . S
C2289 C2293 1.495 . S
C2290 C2289 1.392 . S
C2290 C2291 1.385 . S
C2290 C2292 1.478 . S
C2291 H2285 0.930 . S
C2291 C2287 1.400 . S
C2291 C2290 1.385 . S
C2292 C2290 1.478 . S
C2292 C2294 1.381 . S
C2292 C2298 1.383 . S
C2293 C2289 1.495 . S
C2293 H2299 0.959 . S
C2293 H2300 0.961 . S
C2293 H2301 0.960 . S
C2294 C2292 1.381 . S
C2294 C2295 1.394 . S
C2294 H2302 0.930 . S
C2295 C2294 1.394 . S
C2295 C2296 1.383 . S
C2295 H2303 0.929 . S
C2296 C2295 1.383 . S
C2296 C2297 1.377 . S
C2297 H2281 0.930 . S
C2297 C2296 1.377 . S
C2297 C2298 1.379 . S
C2298 H2282 0.931 . S
C2298 C2292 1.383 . S
C2298 C2297 1.379 . S
H2299 C2293 0.959 . S
H2300 C2293 0.961 . S
H2301 C2293 0.960 . S
H2302 C2294 0.930 . S
H2303 C2295 0.929 . S
H2304 C2312 0.929 . S
H2305 C2314 0.930 . S
H2306 C2316 0.930 . S
H2307 C2319 0.929 . S
H2308 C2322 0.930 . S
H2309 C2324 0.960 . S
H2310 C2324 0.960 . S
H2311 C2324 0.960 . S
C2312 H2304 0.929 . S
C2312 C2313 1.377 . S
C2312 C2314 1.384 . S
C2313 C2312 1.377 . S
C2313 C2319 1.390 . S
C2314 H2305 0.930 . S
C2314 C2312 1.384 . S
C2314 C2315 1.372 . S
C2315 C2314 1.372 . S
C2315 C2316 1.400 . S
C2315 C2320 1.490 . S
C2316 H2306 0.930 . S
C2316 C2315 1.400 . S
C2316 C2319 1.386 . S
H2317 C2333 0.930 . S
H2318 C2334 0.931 . S
C2319 H2307 0.929 . S
C2319 C2313 1.390 . S
C2319 C2316 1.386 . S
C2320 C2315 1.490 . S
C2320 C2322 1.395 . S
C2320 C2323 1.403 . S
H2321 C2327 0.930 . S
C2322 H2308 0.930 . S
C2322 C2320 1.395 . S
C2322 C2325 1.403 . S
C2323 C2320 1.403 . S
C2323 C2324 1.524 . S
C2323 C2327 1.400 . S
C2324 H2309 0.960 . S
C2324 H2310 0.960 . S
C2324 H2311 0.960 . S
C2324 C2323 1.524 . S
C2325 C2322 1.403 . S
C2325 C2326 1.392 . S
C2325 C2329 1.495 . S
C2326 C2325 1.392 . S
C2326 C2327 1.385 . S
C2326 C2328 1.478 . S
C2327 H2321 0.930 . S
C2327 C2323 1.400 . S
C2327 C2326 1.385 . S
C2328 C2326 1.478 . S
C2328 C2330 1.381 . S
C2328 C2334 1.383 . S
C2329 C2325 1.495 . S
C2329 H2335 0.959 . S
C2329 H2336 0.961 . S
C2329 H2337 0.960 . S
C2330 C2328 1.381 . S
C2330 C2331 1.394 . S
C2330 H2338 0.930 . S
C2331 C2330 1.394 . S
C2331 C2332 1.383 . S
C2331 H2339 0.929 . S
C2332 C2331 1.383 . S
C2332 C2333 1.377 . S
C2333 H2317 0.930 . S
C2333 C2332 1.377 . S
C2333 C2334 1.379 . S
C2334 H2318 0.931 . S
C2334 C2328 1.383 . S
C2334 C2333 1.379 . S
H2335 C2329 0.959 . S
H2336 C2329 0.961 . S
H2337 C2329 0.960 . S
H2338 C2330 0.930 . S
H2339 C2331 0.929 . S
H2340 C2348 0.929 . S
H2341 C2350 0.930 . S
H2342 C2352 0.930 . S
H2343 C2355 0.929 . S
H2344 C2358 0.930 . S
H2345 C2360 0.960 . S
H2346 C2360 0.960 . S
H2347 C2360 0.960 . S
C2348 H2340 0.929 . S
C2348 C2349 1.377 . S
C2348 C2350 1.384 . S
C2349 C2348 1.377 . S
C2349 C2355 1.390 . S
C2350 H2341 0.930 . S
C2350 C2348 1.384 . S
C2350 C2351 1.372 . S
C2351 C2350 1.372 . S
C2351 C2352 1.400 . S
C2351 C2356 1.490 . S
C2352 H2342 0.930 . S
C2352 C2351 1.400 . S
C2352 C2355 1.386 . S
H2353 C2369 0.930 . S
H2354 C2370 0.931 . S
C2355 H2343 0.929 . S
C2355 C2349 1.390 . S
C2355 C2352 1.386 . S
C2356 C2351 1.490 . S
C2356 C2358 1.395 . S
C2356 C2359 1.403 . S
H2357 C2363 0.930 . S
C2358 H2344 0.930 . S
C2358 C2356 1.395 . S
C2358 C2361 1.403 . S
C2359 C2356 1.403 . S
C2359 C2360 1.524 . S
C2359 C2363 1.400 . S
C2360 H2345 0.960 . S
C2360 H2346 0.960 . S
C2360 H2347 0.960 . S
C2360 C2359 1.524 . S
C2361 C2358 1.403 . S
C2361 C2362 1.392 . S
C2361 C2365 1.495 . S
C2362 C2361 1.392 . S
C2362 C2363 1.385 . S
C2362 C2364 1.478 . S
C2363 H2357 0.930 . S
C2363 C2359 1.400 . S
C2363 C2362 1.385 . S
C2364 C2362 1.478 . S
C2364 C2366 1.381 . S
C2364 C2370 1.383 . S
C2365 C2361 1.495 . S
C2365 H2371 0.959 . S
C2365 H2372 0.961 . S
C2365 H2373 0.960 . S
C2366 C2364 1.381 . S
C2366 C2367 1.394 . S
C2366 H2374 0.930 . S
C2367 C2366 1.394 . S
C2367 C2368 1.383 . S
C2367 H2375 0.929 . S
C2368 C2367 1.383 . S
C2368 C2369 1.377 . S
C2369 H2353 0.930 . S
C2369 C2368 1.377 . S
C2369 C2370 1.379 . S
C2370 H2354 0.931 . S
C2370 C2364 1.383 . S
C2370 C2369 1.379 . S
H2371 C2365 0.959 . S
H2372 C2365 0.961 . S
H2373 C2365 0.960 . S
H2374 C2366 0.930 . S
H2375 C2367 0.929 . S
H2376 C2384 0.929 . S
H2377 C2386 0.930 . S
H2378 C2388 0.930 . S
H2379 C2391 0.929 . S
H2380 C2394 0.930 . S
H2381 C2396 0.960 . S
H2382 C2396 0.960 . S
H2383 C2396 0.960 . S
C2384 H2376 0.929 . S
C2384 C2385 1.377 . S
C2384 C2386 1.384 . S
C2385 C2384 1.377 . S
C2385 C2391 1.390 . S
C2386 H2377 0.930 . S
C2386 C2384 1.384 . S
C2386 C2387 1.372 . S
C2387 C2386 1.372 . S
C2387 C2388 1.400 . S
C2387 C2392 1.490 . S
C2388 H2378 0.930 . S
C2388 C2387 1.400 . S
C2388 C2391 1.386 . S
H2389 C2405 0.930 . S
H2390 C2406 0.931 . S
C2391 H2379 0.929 . S
C2391 C2385 1.390 . S
C2391 C2388 1.386 . S
C2392 C2387 1.490 . S
C2392 C2394 1.395 . S
C2392 C2395 1.403 . S
H2393 C2399 0.930 . S
C2394 H2380 0.930 . S
C2394 C2392 1.395 . S
C2394 C2397 1.403 . S
C2395 C2392 1.403 . S
C2395 C2396 1.524 . S
C2395 C2399 1.400 . S
C2396 H2381 0.960 . S
C2396 H2382 0.960 . S
C2396 H2383 0.960 . S
C2396 C2395 1.524 . S
C2397 C2394 1.403 . S
C2397 C2398 1.392 . S
C2397 C2401 1.495 . S
C2398 C2397 1.392 . S
C2398 C2399 1.385 . S
C2398 C2400 1.478 . S
C2399 H2393 0.930 . S
C2399 C2395 1.400 . S
C2399 C2398 1.385 . S
C2400 C2398 1.478 . S
C2400 C2402 1.381 . S
C2400 C2406 1.383 . S
C2401 C2397 1.495 . S
C2401 H2407 0.959 . S
C2401 H2408 0.961 . S
C2401 H2409 0.960 . S
C2402 C2400 1.381 . S
C2402 C2403 1.394 . S
C2402 H2410 0.930 . S
C2403 C2402 1.394 . S
C2403 C2404 1.383 . S
C2403 H2411 0.929 . S
C2404 C2403 1.383 . S
C2404 C2405 1.377 . S
C2405 H2389 0.930 . S
C2405 C2404 1.377 . S
C2405 C2406 1.379 . S
C2406 H2390 0.931 . S
C2406 C2400 1.383 . S
C2406 C2405 1.379 . S
H2407 C2401 0.959 . S
H2408 C2401 0.961 . S
H2409 C2401 0.960 . S
H2410 C2402 0.930 . S
H2411 C2403 0.929 . S
H2412 C2420 0.929 . S
H2413 C2422 0.930 . S
H2414 C2424 0.930 . S
H2415 C2427 0.929 . S
H2416 C2430 0.930 . S
H2417 C2432 0.960 . S
H2418 C2432 0.960 . S
H2419 C2432 0.960 . S
C2420 H2412 0.929 . S
C2420 C2421 1.377 . S
C2420 C2422 1.384 . S
C2421 C2420 1.377 . S
C2421 C2427 1.390 . S
C2422 H2413 0.930 . S
C2422 C2420 1.384 . S
C2422 C2423 1.372 . S
C2423 C2422 1.372 . S
C2423 C2424 1.400 . S
C2423 C2428 1.490 . S
C2424 H2414 0.930 . S
C2424 C2423 1.400 . S
C2424 C2427 1.386 . S
H2425 C2441 0.930 . S
H2426 C2442 0.931 . S
C2427 H2415 0.929 . S
C2427 C2421 1.390 . S
C2427 C2424 1.386 . S
C2428 C2423 1.490 . S
C2428 C2430 1.395 . S
C2428 C2431 1.403 . S
H2429 C2435 0.930 . S
C2430 H2416 0.930 . S
C2430 C2428 1.395 . S
C2430 C2433 1.403 . S
C2431 C2428 1.403 . S
C2431 C2432 1.524 . S
C2431 C2435 1.400 . S
C2432 H2417 0.960 . S
C2432 H2418 0.960 . S
C2432 H2419 0.960 . S
C2432 C2431 1.524 . S
C2433 C2430 1.403 . S
C2433 C2434 1.392 . S
C2433 C2437 1.495 . S
C2434 C2433 1.392 . S
C2434 C2435 1.385 . S
C2434 C2436 1.478 . S
C2435 H2429 0.930 . S
C2435 C2431 1.400 . S
C2435 C2434 1.385 . S
C2436 C2434 1.478 . S
C2436 C2438 1.381 . S
C2436 C2442 1.383 . S
C2437 C2433 1.495 . S
C2437 H2443 0.959 . S
C2437 H2444 0.961 . S
C2437 H2445 0.960 . S
C2438 C2436 1.381 . S
C2438 C2439 1.394 . S
C2438 H2446 0.930 . S
C2439 C2438 1.394 . S
C2439 C2440 1.383 . S
C2439 H2447 0.929 . S
C2440 C2439 1.383 . S
C2440 C2441 1.377 . S
C2441 H2425 0.930 . S
C2441 C2440 1.377 . S
C2441 C2442 1.379 . S
C2442 H2426 0.931 . S
C2442 C2436 1.383 . S
C2442 C2441 1.379 . S
H2443 C2437 0.959 . S
H2444 C2437 0.961 . S
H2445 C2437 0.960 . S
H2446 C2438 0.930 . S
H2447 C2439 0.929 . S
H2448 C2456 0.929 . S
H2449 C2458 0.930 . S
H2450 C2460 0.930 . S
H2451 C2463 0.929 . S
H2452 C2466 0.930 . S
H2453 C2468 0.960 . S
H2454 C2468 0.960 . S
H2455 C2468 0.960 . S
C2456 H2448 0.929 . S
C2456 C2457 1.377 . S
C2456 C2458 1.384 . S
C2457 C2456 1.377 . S
C2457 C2463 1.390 . S
C2458 H2449 0.930 . S
C2458 C2456 1.384 . S
C2458 C2459 1.372 . S
C2459 C2458 1.372 . S
C2459 C2460 1.400 . S
C2459 C2464 1.490 . S
C2460 H2450 0.930 . S
C2460 C2459 1.400 . S
C2460 C2463 1.386 . S
H2461 C2477 0.930 . S
H2462 C2478 0.931 . S
C2463 H2451 0.929 . S
C2463 C2457 1.390 . S
C2463 C2460 1.386 . S
C2464 C2459 1.490 . S
C2464 C2466 1.395 . S
C2464 C2467 1.403 . S
H2465 C2471 0.930 . S
C2466 H2452 0.930 . S
C2466 C2464 1.395 . S
C2466 C2469 1.403 . S
C2467 C2464 1.403 . S
C2467 C2468 1.524 . S
C2467 C2471 1.400 . S
C2468 H2453 0.960 . S
C2468 H2454 0.960 . S
C2468 H2455 0.960 . S
C2468 C2467 1.524 . S
C2469 C2466 1.403 . S
C2469 C2470 1.392 . S
C2469 C2473 1.495 . S
C2470 C2469 1.392 . S
C2470 C2471 1.385 . S
C2470 C2472 1.478 . S
C2471 H2465 0.930 . S
C2471 C2467 1.400 . S
C2471 C2470 1.385 . S
C2472 C2470 1.478 . S
C2472 C2474 1.381 . S
C2472 C2478 1.383 . S
C2473 C2469 1.495 . S
C2473 H2479 0.959 . S
C2473 H2480 0.961 . S
C2473 H2481 0.960 . S
C2474 C2472 1.381 . S
C2474 C2475 1.394 . S
C2474 H2482 0.930 . S
C2475 C2474 1.394 . S
C2475 C2476 1.383 . S
C2475 H2483 0.929 . S
C2476 C2475 1.383 . S
C2476 C2477 1.377 . S
C2477 H2461 0.930 . S
C2477 C2476 1.377 . S
C2477 C2478 1.379 . S
C2478 H2462 0.931 . S
C2478 C2472 1.383 . S
C2478 C2477 1.379 . S
H2479 C2473 0.959 . S
H2480 C2473 0.961 . S
H2481 C2473 0.960 . S
H2482 C2474 0.930 . S
H2483 C2475 0.929 . S
H2484 C2492 0.929 . S
H2485 C2494 0.930 . S
H2486 C2496 0.930 . S
H2487 C2499 0.929 . S
H2488 C2502 0.930 . S
H2489 C2504 0.960 . S
H2490 C2504 0.960 . S
H2491 C2504 0.960 . S
C2492 H2484 0.929 . S
C2492 C2493 1.377 . S
C2492 C2494 1.384 . S
C2493 C2492 1.377 . S
C2493 C2499 1.390 . S
C2494 H2485 0.930 . S
C2494 C2492 1.384 . S
C2494 C2495 1.372 . S
C2495 C2494 1.372 . S
C2495 C2496 1.400 . S
C2495 C2500 1.490 . S
C2496 H2486 0.930 . S
C2496 C2495 1.400 . S
C2496 C2499 1.386 . S
H2497 C2513 0.930 . S
H2498 C2514 0.931 . S
C2499 H2487 0.929 . S
C2499 C2493 1.390 . S
C2499 C2496 1.386 . S
C2500 C2495 1.490 . S
C2500 C2502 1.395 . S
C2500 C2503 1.403 . S
H2501 C2507 0.930 . S
C2502 H2488 0.930 . S
C2502 C2500 1.395 . S
C2502 C2505 1.403 . S
C2503 C2500 1.403 . S
C2503 C2504 1.524 . S
C2503 C2507 1.400 . S
C2504 H2489 0.960 . S
C2504 H2490 0.960 . S
C2504 H2491 0.960 . S
C2504 C2503 1.524 . S
C2505 C2502 1.403 . S
C2505 C2506 1.392 . S
C2505 C2509 1.495 . S
C2506 C2505 1.392 . S
C2506 C2507 1.385 . S
C2506 C2508 1.478 . S
C2507 H2501 0.930 . S
C2507 C2503 1.400 . S
C2507 C2506 1.385 . S
C2508 C2506 1.478 . S
C2508 C2510 1.381 . S
C2508 C2514 1.383 . S
C2509 C2505 1.495 . S
C2509 H2515 0.959 . S
C2509 H2516 0.961 . S
C2509 H2517 0.960 . S
C2510 C2508 1.381 . S
C2510 C2511 1.394 . S
C2510 H2518 0.930 . S
C2511 C2510 1.394 . S
C2511 C2512 1.383 . S
C2511 H2519 0.929 . S
C2512 C2511 1.383 . S
C2512 C2513 1.377 . S
C2513 H2497 0.930 . S
C2513 C2512 1.377 . S
C2513 C2514 1.379 . S
C2514 H2498 0.931 . S
C2514 C2508 1.383 . S
C2514 C2513 1.379 . S
H2515 C2509 0.959 . S
H2516 C2509 0.961 . S
H2517 C2509 0.960 . S
H2518 C2510 0.930 . S
H2519 C2511 0.929 . S
H2520 C2528 0.929 . S
H2521 C2530 0.930 . S
H2522 C2532 0.930 . S
H2523 C2535 0.929 . S
H2524 C2538 0.930 . S
H2525 C2540 0.960 . S
H2526 C2540 0.960 . S
H2527 C2540 0.960 . S
C2528 H2520 0.929 . S
C2528 C2529 1.377 . S
C2528 C2530 1.384 . S
C2529 C2528 1.377 . S
C2529 C2535 1.390 . S
C2530 H2521 0.930 . S
C2530 C2528 1.384 . S
C2530 C2531 1.372 . S
C2531 C2530 1.372 . S
C2531 C2532 1.400 . S
C2531 C2536 1.490 . S
C2532 H2522 0.930 . S
C2532 C2531 1.400 . S
C2532 C2535 1.386 . S
H2533 C2549 0.930 . S
H2534 C2550 0.931 . S
C2535 H2523 0.929 . S
C2535 C2529 1.390 . S
C2535 C2532 1.386 . S
C2536 C2531 1.490 . S
C2536 C2538 1.395 . S
C2536 C2539 1.403 . S
H2537 C2543 0.930 . S
C2538 H2524 0.930 . S
C2538 C2536 1.395 . S
C2538 C2541 1.403 . S
C2539 C2536 1.403 . S
C2539 C2540 1.524 . S
C2539 C2543 1.400 . S
C2540 H2525 0.960 . S
C2540 H2526 0.960 . S
C2540 H2527 0.960 . S
C2540 C2539 1.524 . S
C2541 C2538 1.403 . S
C2541 C2542 1.392 . S
C2541 C2545 1.495 . S
C2542 C2541 1.392 . S
C2542 C2543 1.385 . S
C2542 C2544 1.478 . S
C2543 H2537 0.930 . S
C2543 C2539 1.400 . S
C2543 C2542 1.385 . S
C2544 C2542 1.478 . S
C2544 C2546 1.381 . S
C2544 C2550 1.383 . S
C2545 C2541 1.495 . S
C2545 H2551 0.959 . S
C2545 H2552 0.961 . S
C2545 H2553 0.960 . S
C2546 C2544 1.381 . S
C2546 C2547 1.394 . S
C2546 H2554 0.930 . S
C2547 C2546 1.394 . S
C2547 C2548 1.383 . S
C2547 H2555 0.929 . S
C2548 C2547 1.383 . S
C2548 C2549 1.377 . S
C2549 H2533 0.930 . S
C2549 C2548 1.377 . S
C2549 C2550 1.379 . S
C2550 H2534 0.931 . S
C2550 C2544 1.383 . S
C2550 C2549 1.379 . S
H2551 C2545 0.959 . S
H2552 C2545 0.961 . S
H2553 C2545 0.960 . S
H2554 C2546 0.930 . S
H2555 C2547 0.929 . S
H2556 C2564 0.929 . S
H2557 C2566 0.930 . S
H2558 C2568 0.930 . S
H2559 C2571 0.929 . S
H2560 C2574 0.930 . S
H2561 C2576 0.960 . S
H2562 C2576 0.960 . S
H2563 C2576 0.960 . S
C2564 H2556 0.929 . S
C2564 C2565 1.377 . S
C2564 C2566 1.384 . S
C2565 C2564 1.377 . S
C2565 C2571 1.390 . S
C2566 H2557 0.930 . S
C2566 C2564 1.384 . S
C2566 C2567 1.372 . S
C2567 C2566 1.372 . S
C2567 C2568 1.400 . S
C2567 C2572 1.490 . S
C2568 H2558 0.930 . S
C2568 C2567 1.400 . S
C2568 C2571 1.386 . S
H2569 C2585 0.930 . S
H2570 C2586 0.931 . S
C2571 H2559 0.929 . S
C2571 C2565 1.390 . S
C2571 C2568 1.386 . S
C2572 C2567 1.490 . S
C2572 C2574 1.395 . S
C2572 C2575 1.403 . S
H2573 C2579 0.930 . S
C2574 H2560 0.930 . S
C2574 C2572 1.395 . S
C2574 C2577 1.403 . S
C2575 C2572 1.403 . S
C2575 C2576 1.524 . S
C2575 C2579 1.400 . S
C2576 H2561 0.960 . S
C2576 H2562 0.960 . S
C2576 H2563 0.960 . S
C2576 C2575 1.524 . S
C2577 C2574 1.403 . S
C2577 C2578 1.392 . S
C2577 C2581 1.495 . S
C2578 C2577 1.392 . S
C2578 C2579 1.385 . S
C2578 C2580 1.478 . S
C2579 H2573 0.930 . S
C2579 C2575 1.400 . S
C2579 C2578 1.385 . S
C2580 C2578 1.478 . S
C2580 C2582 1.381 . S
C2580 C2586 1.383 . S
C2581 C2577 1.495 . S
C2581 H2587 0.959 . S
C2581 H2588 0.961 . S
C2581 H2589 0.960 . S
C2582 C2580 1.381 . S
C2582 C2583 1.394 . S
C2582 H2590 0.930 . S
C2583 C2582 1.394 . S
C2583 C2584 1.383 . S
C2583 H2591 0.929 . S
C2584 C2583 1.383 . S
C2584 C2585 1.377 . S
C2585 H2569 0.930 . S
C2585 C2584 1.377 . S
C2585 C2586 1.379 . S
C2586 H2570 0.931 . S
C2586 C2580 1.383 . S
C2586 C2585 1.379 . S
H2587 C2581 0.959 . S
H2588 C2581 0.961 . S
H2589 C2581 0.960 . S
H2590 C2582 0.930 . S
H2591 C2583 0.929 . S
H2592 C2600 0.929 . S
H2593 C2602 0.930 . S
H2594 C2604 0.930 . S
H2595 C2607 0.929 . S
H2596 C2610 0.930 . S
H2597 C2612 0.960 . S
H2598 C2612 0.960 . S
H2599 C2612 0.960 . S
C2600 H2592 0.929 . S
C2600 C2601 1.377 . S
C2600 C2602 1.384 . S
C2601 C2600 1.377 . S
C2601 C2607 1.390 . S
C2602 H2593 0.930 . S
C2602 C2600 1.384 . S
C2602 C2603 1.372 . S
C2603 C2602 1.372 . S
C2603 C2604 1.400 . S
C2603 C2608 1.490 . S
C2604 H2594 0.930 . S
C2604 C2603 1.400 . S
C2604 C2607 1.386 . S
H2605 C2621 0.930 . S
H2606 C2622 0.931 . S
C2607 H2595 0.929 . S
C2607 C2601 1.390 . S
C2607 C2604 1.386 . S
C2608 C2603 1.490 . S
C2608 C2610 1.395 . S
C2608 C2611 1.403 . S
H2609 C2615 0.930 . S
C2610 H2596 0.930 . S
C2610 C2608 1.395 . S
C2610 C2613 1.403 . S
C2611 C2608 1.403 . S
C2611 C2612 1.524 . S
C2611 C2615 1.400 . S
C2612 H2597 0.960 . S
C2612 H2598 0.960 . S
C2612 H2599 0.960 . S
C2612 C2611 1.524 . S
C2613 C2610 1.403 . S
C2613 C2614 1.392 . S
C2613 C2617 1.495 . S
C2614 C2613 1.392 . S
C2614 C2615 1.385 . S
C2614 C2616 1.478 . S
C2615 H2609 0.930 . S
C2615 C2611 1.400 . S
C2615 C2614 1.385 . S
C2616 C2614 1.478 . S
C2616 C2618 1.381 . S
C2616 C2622 1.383 . S
C2617 C2613 1.495 . S
C2617 H2623 0.959 . S
C2617 H2624 0.961 . S
C2617 H2625 0.960 . S
C2618 C2616 1.381 . S
C2618 C2619 1.394 . S
C2618 H2626 0.930 . S
C2619 C2618 1.394 . S
C2619 C2620 1.383 . S
C2619 H2627 0.929 . S
C2620 C2619 1.383 . S
C2620 C2621 1.377 . S
C2621 H2605 0.930 . S
C2621 C2620 1.377 . S
C2621 C2622 1.379 . S
C2622 H2606 0.931 . S
C2622 C2616 1.383 . S
C2622 C2621 1.379 . S
H2623 C2617 0.959 . S
H2624 C2617 0.961 . S
H2625 C2617 0.960 . S
H2626 C2618 0.930 . S
H2627 C2619 0.929 . S
H2628 C2636 0.929 . S
H2629 C2638 0.930 . S
H2630 C2640 0.930 . S
H2631 C2643 0.929 . S
H2632 C2646 0.930 . S
H2633 C2648 0.960 . S
H2634 C2648 0.960 . S
H2635 C2648 0.960 . S
C2636 H2628 0.929 . S
C2636 C2637 1.377 . S
C2636 C2638 1.384 . S
C2637 C2636 1.377 . S
C2637 C2643 1.390 . S
C2638 H2629 0.930 . S
C2638 C2636 1.384 . S
C2638 C2639 1.372 . S
C2639 C2638 1.372 . S
C2639 C2640 1.400 . S
C2639 C2644 1.490 . S
C2640 H2630 0.930 . S
C2640 C2639 1.400 . S
C2640 C2643 1.386 . S
H2641 C2657 0.930 . S
H2642 C2658 0.931 . S
C2643 H2631 0.929 . S
C2643 C2637 1.390 . S
C2643 C2640 1.386 . S
C2644 C2639 1.490 . S
C2644 C2646 1.395 . S
C2644 C2647 1.403 . S
H2645 C2651 0.930 . S
C2646 H2632 0.930 . S
C2646 C2644 1.395 . S
C2646 C2649 1.403 . S
C2647 C2644 1.403 . S
C2647 C2648 1.524 . S
C2647 C2651 1.400 . S
C2648 H2633 0.960 . S
C2648 H2634 0.960 . S
C2648 H2635 0.960 . S
C2648 C2647 1.524 . S
C2649 C2646 1.403 . S
C2649 C2650 1.392 . S
C2649 C2653 1.495 . S
C2650 C2649 1.392 . S
C2650 C2651 1.385 . S
C2650 C2652 1.478 . S
C2651 H2645 0.930 . S
C2651 C2647 1.400 . S
C2651 C2650 1.385 . S
C2652 C2650 1.478 . S
C2652 C2654 1.381 . S
C2652 C2658 1.383 . S
C2653 C2649 1.495 . S
C2653 H2659 0.959 . S
C2653 H2660 0.961 . S
C2653 H2661 0.960 . S
C2654 C2652 1.381 . S
C2654 C2655 1.394 . S
C2654 H2662 0.930 . S
C2655 C2654 1.394 . S
C2655 C2656 1.383 . S
C2655 H2663 0.929 . S
C2656 C2655 1.383 . S
C2656 C2657 1.377 . S
C2657 H2641 0.930 . S
C2657 C2656 1.377 . S
C2657 C2658 1.379 . S
C2658 H2642 0.931 . S
C2658 C2652 1.383 . S
C2658 C2657 1.379 . S
H2659 C2653 0.959 . S
H2660 C2653 0.961 . S
H2661 C2653 0.960 . S
H2662 C2654 0.930 . S
H2663 C2655 0.929 . S
H2664 C2672 0.929 . S
H2665 C2674 0.930 . S
H2666 C2676 0.930 . S
H2667 C2679 0.929 . S
H2668 C2682 0.930 . S
H2669 C2684 0.960 . S
H2670 C2684 0.960 . S
H2671 C2684 0.960 . S
C2672 H2664 0.929 . S
C2672 C2673 1.377 . S
C2672 C2674 1.384 . S
C2673 C2672 1.377 . S
C2673 C2679 1.390 . S
C2674 H2665 0.930 . S
C2674 C2672 1.384 . S
C2674 C2675 1.372 . S
C2675 C2674 1.372 . S
C2675 C2676 1.400 . S
C2675 C2680 1.490 . S
C2676 H2666 0.930 . S
C2676 C2675 1.400 . S
C2676 C2679 1.386 . S
H2677 C2693 0.930 . S
H2678 C2694 0.931 . S
C2679 H2667 0.929 . S
C2679 C2673 1.390 . S
C2679 C2676 1.386 . S
C2680 C2675 1.490 . S
C2680 C2682 1.395 . S
C2680 C2683 1.403 . S
H2681 C2687 0.930 . S
C2682 H2668 0.930 . S
C2682 C2680 1.395 . S
C2682 C2685 1.403 . S
C2683 C2680 1.403 . S
C2683 C2684 1.524 . S
C2683 C2687 1.400 . S
C2684 H2669 0.960 . S
C2684 H2670 0.960 . S
C2684 H2671 0.960 . S
C2684 C2683 1.524 . S
C2685 C2682 1.403 . S
C2685 C2686 1.392 . S
C2685 C2689 1.495 . S
C2686 C2685 1.392 . S
C2686 C2687 1.385 . S
C2686 C2688 1.478 . S
C2687 H2681 0.930 . S
C2687 C2683 1.400 . S
C2687 C2686 1.385 . S
C2688 C2686 1.478 . S
C2688 C2690 1.381 . S
C2688 C2694 1.383 . S
C2689 C2685 1.495 . S
C2689 H2695 0.959 . S
C2689 H2696 0.961 . S
C2689 H2697 0.960 . S
C2690 C2688 1.381 . S
C2690 C2691 1.394 . S
C2690 H2698 0.930 . S
C2691 C2690 1.394 . S
C2691 C2692 1.383 . S
C2691 H2699 0.929 . S
C2692 C2691 1.383 . S
C2692 C2693 1.377 . S
C2693 H2677 0.930 . S
C2693 C2692 1.377 . S
C2693 C2694 1.379 . S
C2694 H2678 0.931 . S
C2694 C2688 1.383 . S
C2694 C2693 1.379 . S
H2695 C2689 0.959 . S
H2696 C2689 0.961 . S
H2697 C2689 0.960 . S
H2698 C2690 0.930 . S
H2699 C2691 0.929 . S
H2700 C2708 0.929 . S
H2701 C2710 0.930 . S
H2702 C2712 0.930 . S
H2703 C2715 0.929 . S
H2704 C2718 0.930 . S
H2705 C2720 0.960 . S
H2706 C2720 0.960 . S
H2707 C2720 0.960 . S
C2708 H2700 0.929 . S
C2708 C2709 1.377 . S
C2708 C2710 1.384 . S
C2709 C2708 1.377 . S
C2709 C2715 1.390 . S
C2710 H2701 0.930 . S
C2710 C2708 1.384 . S
C2710 C2711 1.372 . S
C2711 C2710 1.372 . S
C2711 C2712 1.400 . S
C2711 C2716 1.490 . S
C2712 H2702 0.930 . S
C2712 C2711 1.400 . S
C2712 C2715 1.386 . S
H2713 C2729 0.930 . S
H2714 C2730 0.931 . S
C2715 H2703 0.929 . S
C2715 C2709 1.390 . S
C2715 C2712 1.386 . S
C2716 C2711 1.490 . S
C2716 C2718 1.395 . S
C2716 C2719 1.403 . S
H2717 C2723 0.930 . S
C2718 H2704 0.930 . S
C2718 C2716 1.395 . S
C2718 C2721 1.403 . S
C2719 C2716 1.403 . S
C2719 C2720 1.524 . S
C2719 C2723 1.400 . S
C2720 H2705 0.960 . S
C2720 H2706 0.960 . S
C2720 H2707 0.960 . S
C2720 C2719 1.524 . S
C2721 C2718 1.403 . S
C2721 C2722 1.392 . S
C2721 C2725 1.495 . S
C2722 C2721 1.392 . S
C2722 C2723 1.385 . S
C2722 C2724 1.478 . S
C2723 H2717 0.930 . S
C2723 C2719 1.400 . S
C2723 C2722 1.385 . S
C2724 C2722 1.478 . S
C2724 C2726 1.381 . S
C2724 C2730 1.383 . S
C2725 C2721 1.495 . S
C2725 H2731 0.959 . S
C2725 H2732 0.961 . S
C2725 H2733 0.960 . S
C2726 C2724 1.381 . S
C2726 C2727 1.394 . S
C2726 H2734 0.930 . S
C2727 C2726 1.394 . S
C2727 C2728 1.383 . S
C2727 H2735 0.929 . S
C2728 C2727 1.383 . S
C2728 C2729 1.377 . S
C2729 H2713 0.930 . S
C2729 C2728 1.377 . S
C2729 C2730 1.379 . S
C2730 H2714 0.931 . S
C2730 C2724 1.383 . S
C2730 C2729 1.379 . S
H2731 C2725 0.959 . S
H2732 C2725 0.961 . S
H2733 C2725 0.960 . S
H2734 C2726 0.930 . S
H2735 C2727 0.929 . S
H2736 C2744 0.929 . S
H2737 C2746 0.930 . S
H2738 C2748 0.930 . S
H2739 C2751 0.929 . S
H2740 C2754 0.930 . S
H2741 C2756 0.960 . S
H2742 C2756 0.960 . S
H2743 C2756 0.960 . S
C2744 H2736 0.929 . S
C2744 C2745 1.377 . S
C2744 C2746 1.384 . S
C2745 C2744 1.377 . S
C2745 C2751 1.390 . S
C2746 H2737 0.930 . S
C2746 C2744 1.384 . S
C2746 C2747 1.372 . S
C2747 C2746 1.372 . S
C2747 C2748 1.400 . S
C2747 C2752 1.490 . S
C2748 H2738 0.930 . S
C2748 C2747 1.400 . S
C2748 C2751 1.386 . S
H2749 C2765 0.930 . S
H2750 C2766 0.931 . S
C2751 H2739 0.929 . S
C2751 C2745 1.390 . S
C2751 C2748 1.386 . S
C2752 C2747 1.490 . S
C2752 C2754 1.395 . S
C2752 C2755 1.403 . S
H2753 C2759 0.930 . S
C2754 H2740 0.930 . S
C2754 C2752 1.395 . S
C2754 C2757 1.403 . S
C2755 C2752 1.403 . S
C2755 C2756 1.524 . S
C2755 C2759 1.400 . S
C2756 H2741 0.960 . S
C2756 H2742 0.960 . S
C2756 H2743 0.960 . S
C2756 C2755 1.524 . S
C2757 C2754 1.403 . S
C2757 C2758 1.392 . S
C2757 C2761 1.495 . S
C2758 C2757 1.392 . S
C2758 C2759 1.385 . S
C2758 C2760 1.478 . S
C2759 H2753 0.930 . S
C2759 C2755 1.400 . S
C2759 C2758 1.385 . S
C2760 C2758 1.478 . S
C2760 C2762 1.381 . S
C2760 C2766 1.383 . S
C2761 C2757 1.495 . S
C2761 H2767 0.959 . S
C2761 H2768 0.961 . S
C2761 H2769 0.960 . S
C2762 C2760 1.381 . S
C2762 C2763 1.394 . S
C2762 H2770 0.930 . S
C2763 C2762 1.394 . S
C2763 C2764 1.383 . S
C2763 H2771 0.929 . S
C2764 C2763 1.383 . S
C2764 C2765 1.377 . S
C2765 H2749 0.930 . S
C2765 C2764 1.377 . S
C2765 C2766 1.379 . S
C2766 H2750 0.931 . S
C2766 C2760 1.383 . S
C2766 C2765 1.379 . S
H2767 C2761 0.959 . S
H2768 C2761 0.961 . S
H2769 C2761 0.960 . S
H2770 C2762 0.930 . S
H2771 C2763 0.929 . S
H2772 C2780 0.929 . S
H2773 C2782 0.930 . S
H2774 C2784 0.930 . S
H2775 C2787 0.929 . S
H2776 C2790 0.930 . S
H2777 C2792 0.960 . S
H2778 C2792 0.960 . S
H2779 C2792 0.960 . S
C2780 H2772 0.929 . S
C2780 C2781 1.377 . S
C2780 C2782 1.384 . S
C2781 C2780 1.377 . S
C2781 C2787 1.390 . S
C2782 H2773 0.930 . S
C2782 C2780 1.384 . S
C2782 C2783 1.372 . S
C2783 C2782 1.372 . S
C2783 C2784 1.400 . S
C2783 C2788 1.490 . S
C2784 H2774 0.930 . S
C2784 C2783 1.400 . S
C2784 C2787 1.386 . S
H2785 C2801 0.930 . S
H2786 C2802 0.931 . S
C2787 H2775 0.929 . S
C2787 C2781 1.390 . S
C2787 C2784 1.386 . S
C2788 C2783 1.490 . S
C2788 C2790 1.395 . S
C2788 C2791 1.403 . S
H2789 C2795 0.930 . S
C2790 H2776 0.930 . S
C2790 C2788 1.395 . S
C2790 C2793 1.403 . S
C2791 C2788 1.403 . S
C2791 C2792 1.524 . S
C2791 C2795 1.400 . S
C2792 H2777 0.960 . S
C2792 H2778 0.960 . S
C2792 H2779 0.960 . S
C2792 C2791 1.524 . S
C2793 C2790 1.403 . S
C2793 C2794 1.392 . S
C2793 C2797 1.495 . S
C2794 C2793 1.392 . S
C2794 C2795 1.385 . S
C2794 C2796 1.478 . S
C2795 H2789 0.930 . S
C2795 C2791 1.400 . S
C2795 C2794 1.385 . S
C2796 C2794 1.478 . S
C2796 C2798 1.381 . S
C2796 C2802 1.383 . S
C2797 C2793 1.495 . S
C2797 H2803 0.959 . S
C2797 H2804 0.961 . S
C2797 H2805 0.960 . S
C2798 C2796 1.381 . S
C2798 C2799 1.394 . S
C2798 H2806 0.930 . S
C2799 C2798 1.394 . S
C2799 C2800 1.383 . S
C2799 H2807 0.929 . S
C2800 C2799 1.383 . S
C2800 C2801 1.377 . S
C2801 H2785 0.930 . S
C2801 C2800 1.377 . S
C2801 C2802 1.379 . S
C2802 H2786 0.931 . S
C2802 C2796 1.383 . S
C2802 C2801 1.379 . S
H2803 C2797 0.959 . S
H2804 C2797 0.961 . S
H2805 C2797 0.960 . S
H2806 C2798 0.930 . S
H2807 C2799 0.929 . S
H2808 C2816 0.929 . S
H2809 C2818 0.930 . S
H2810 C2820 0.930 . S
H2811 C2823 0.929 . S
H2812 C2826 0.930 . S
H2813 C2828 0.960 . S
H2814 C2828 0.960 . S
H2815 C2828 0.960 . S
C2816 H2808 0.929 . S
C2816 C2817 1.377 . S
C2816 C2818 1.384 . S
C2817 C2816 1.377 . S
C2817 C2823 1.390 . S
C2818 H2809 0.930 . S
C2818 C2816 1.384 . S
C2818 C2819 1.372 . S
C2819 C2818 1.372 . S
C2819 C2820 1.400 . S
C2819 C2824 1.490 . S
C2820 H2810 0.930 . S
C2820 C2819 1.400 . S
C2820 C2823 1.386 . S
H2821 C2837 0.930 . S
H2822 C2838 0.931 . S
C2823 H2811 0.929 . S
C2823 C2817 1.390 . S
C2823 C2820 1.386 . S
C2824 C2819 1.490 . S
C2824 C2826 1.395 . S
C2824 C2827 1.403 . S
H2825 C2831 0.930 . S
C2826 H2812 0.930 . S
C2826 C2824 1.395 . S
C2826 C2829 1.403 . S
C2827 C2824 1.403 . S
C2827 C2828 1.524 . S
C2827 C2831 1.400 . S
C2828 H2813 0.960 . S
C2828 H2814 0.960 . S
C2828 H2815 0.960 . S
C2828 C2827 1.524 . S
C2829 C2826 1.403 . S
C2829 C2830 1.392 . S
C2829 C2833 1.495 . S
C2830 C2829 1.392 . S
C2830 C2831 1.385 . S
C2830 C2832 1.478 . S
C2831 H2825 0.930 . S
C2831 C2827 1.400 . S
C2831 C2830 1.385 . S
C2832 C2830 1.478 . S
C2832 C2834 1.381 . S
C2832 C2838 1.383 . S
C2833 C2829 1.495 . S
C2833 H2839 0.959 . S
C2833 H2840 0.961 . S
C2833 H2841 0.960 . S
C2834 C2832 1.381 . S
C2834 C2835 1.394 . S
C2834 H2842 0.930 . S
C2835 C2834 1.394 . S
C2835 C2836 1.383 . S
C2835 H2843 0.929 . S
C2836 C2835 1.383 . S
C2836 C2837 1.377 . S
C2837 H2821 0.930 . S
C2837 C2836 1.377 . S
C2837 C2838 1.379 . S
C2838 H2822 0.931 . S
C2838 C2832 1.383 . S
C2838 C2837 1.379 . S
H2839 C2833 0.959 . S
H2840 C2833 0.961 . S
H2841 C2833 0.960 . S
H2842 C2834 0.930 . S
H2843 C2835 0.929 . S
H2844 C2852 0.929 . S
H2845 C2854 0.930 . S
H2846 C2856 0.930 . S
H2847 C2859 0.929 . S
H2848 C2862 0.930 . S
H2849 C2864 0.960 . S
H2850 C2864 0.960 . S
H2851 C2864 0.960 . S
C2852 H2844 0.929 . S
C2852 C2853 1.377 . S
C2852 C2854 1.384 . S
C2853 C2852 1.377 . S
C2853 C2859 1.390 . S
C2854 H2845 0.930 . S
C2854 C2852 1.384 . S
C2854 C2855 1.372 . S
C2855 C2854 1.372 . S
C2855 C2856 1.400 . S
C2855 C2860 1.490 . S
C2856 H2846 0.930 . S
C2856 C2855 1.400 . S
C2856 C2859 1.386 . S
H2857 C2873 0.930 . S
H2858 C2874 0.931 . S
C2859 H2847 0.929 . S
C2859 C2853 1.390 . S
C2859 C2856 1.386 . S
C2860 C2855 1.490 . S
C2860 C2862 1.395 . S
C2860 C2863 1.403 . S
H2861 C2867 0.930 . S
C2862 H2848 0.930 . S
C2862 C2860 1.395 . S
C2862 C2865 1.403 . S
C2863 C2860 1.403 . S
C2863 C2864 1.524 . S
C2863 C2867 1.400 . S
C2864 H2849 0.960 . S
C2864 H2850 0.960 . S
C2864 H2851 0.960 . S
C2864 C2863 1.524 . S
C2865 C2862 1.403 . S
C2865 C2866 1.392 . S
C2865 C2869 1.495 . S
C2866 C2865 1.392 . S
C2866 C2867 1.385 . S
C2866 C2868 1.478 . S
C2867 H2861 0.930 . S
C2867 C2863 1.400 . S
C2867 C2866 1.385 . S
C2868 C2866 1.478 . S
C2868 C2870 1.381 . S
C2868 C2874 1.383 . S
C2869 C2865 1.495 . S
C2869 H2875 0.959 . S
C2869 H2876 0.961 . S
C2869 H2877 0.960 . S
C2870 C2868 1.381 . S
C2870 C2871 1.394 . S
C2870 H2878 0.930 . S
C2871 C2870 1.394 . S
C2871 C2872 1.383 . S
C2871 H2879 0.929 . S
C2872 C2871 1.383 . S
C2872 C2873 1.377 . S
C2873 H2857 0.930 . S
C2873 C2872 1.377 . S
C2873 C2874 1.379 . S
C2874 H2858 0.931 . S
C2874 C2868 1.383 . S
C2874 C2873 1.379 . S
H2875 C2869 0.959 . S
H2876 C2869 0.961 . S
H2877 C2869 0.960 . S
H2878 C2870 0.930 . S
H2879 C2871 0.929 . S
H2880 C2888 0.929 . S
H2881 C2890 0.930 . S
H2882 C2892 0.930 . S
H2883 C2895 0.929 . S
H2884 C2898 0.930 . S
H2885 C2900 0.960 . S
H2886 C2900 0.960 . S
H2887 C2900 0.960 . S
C2888 H2880 0.929 . S
C2888 C2889 1.377 . S
C2888 C2890 1.384 . S
C2889 C2888 1.377 . S
C2889 C2895 1.390 . S
C2890 H2881 0.930 . S
C2890 C2888 1.384 . S
C2890 C2891 1.372 . S
C2891 C2890 1.372 . S
C2891 C2892 1.400 . S
C2891 C2896 1.490 . S
C2892 H2882 0.930 . S
C2892 C2891 1.400 . S
C2892 C2895 1.386 . S
H2893 C2909 0.930 . S
H2894 C2910 0.931 . S
C2895 H2883 0.929 . S
C2895 C2889 1.390 . S
C2895 C2892 1.386 . S
C2896 C2891 1.490 . S
C2896 C2898 1.395 . S
C2896 C2899 1.403 . S
H2897 C2903 0.930 . S
C2898 H2884 0.930 . S
C2898 C2896 1.395 . S
C2898 C2901 1.403 . S
C2899 C2896 1.403 . S
C2899 C2900 1.524 . S
C2899 C2903 1.400 . S
C2900 H2885 0.960 . S
C2900 H2886 0.960 . S
C2900 H2887 0.960 . S
C2900 C2899 1.524 . S
C2901 C2898 1.403 . S
C2901 C2902 1.392 . S
C2901 C2905 1.495 . S
C2902 C2901 1.392 . S
C2902 C2903 1.385 . S
C2902 C2904 1.478 . S
C2903 H2897 0.930 . S
C2903 C2899 1.400 . S
C2903 C2902 1.385 . S
C2904 C2902 1.478 . S
C2904 C2906 1.381 . S
C2904 C2910 1.383 . S
C2905 C2901 1.495 . S
C2905 H2911 0.959 . S
C2905 H2912 0.961 . S
C2905 H2913 0.960 . S
C2906 C2904 1.381 . S
C2906 C2907 1.394 . S
C2906 H2914 0.930 . S
C2907 C2906 1.394 . S
C2907 C2908 1.383 . S
C2907 H2915 0.929 . S
C2908 C2907 1.383 . S
C2908 C2909 1.377 . S
C2909 H2893 0.930 . S
C2909 C2908 1.377 . S
C2909 C2910 1.379 . S
C2910 H2894 0.931 . S
C2910 C2904 1.383 . S
C2910 C2909 1.379 . S
H2911 C2905 0.959 . S
H2912 C2905 0.961 . S
H2913 C2905 0.960 . S
H2914 C2906 0.930 . S
H2915 C2907 0.929 . S
H2916 C2924 0.929 . S
H2917 C2926 0.930 . S
H2918 C2928 0.930 . S
H2919 C2931 0.929 . S
H2920 C2934 0.930 . S
H2921 C2936 0.960 . S
H2922 C2936 0.960 . S
H2923 C2936 0.960 . S
C2924 H2916 0.929 . S
C2924 C2925 1.377 . S
C2924 C2926 1.384 . S
C2925 C2924 1.377 . S
C2925 C2931 1.390 . S
C2926 H2917 0.930 . S
C2926 C2924 1.384 . S
C2926 C2927 1.372 . S
C2927 C2926 1.372 . S
C2927 C2928 1.400 . S
C2927 C2932 1.490 . S
C2928 H2918 0.930 . S
C2928 C2927 1.400 . S
C2928 C2931 1.386 . S
H2929 C2945 0.930 . S
H2930 C2946 0.931 . S
C2931 H2919 0.929 . S
C2931 C2925 1.390 . S
C2931 C2928 1.386 . S
C2932 C2927 1.490 . S
C2932 C2934 1.395 . S
C2932 C2935 1.403 . S
H2933 C2939 0.930 . S
C2934 H2920 0.930 . S
C2934 C2932 1.395 . S
C2934 C2937 1.403 . S
C2935 C2932 1.403 . S
C2935 C2936 1.524 . S
C2935 C2939 1.400 . S
C2936 H2921 0.960 . S
C2936 H2922 0.960 . S
C2936 H2923 0.960 . S
C2936 C2935 1.524 . S
C2937 C2934 1.403 . S
C2937 C2938 1.392 . S
C2937 C2941 1.495 . S
C2938 C2937 1.392 . S
C2938 C2939 1.385 . S
C2938 C2940 1.478 . S
C2939 H2933 0.930 . S
C2939 C2935 1.400 . S
C2939 C2938 1.385 . S
C2940 C2938 1.478 . S
C2940 C2942 1.381 . S
C2940 C2946 1.383 . S
C2941 C2937 1.495 . S
C2941 H2947 0.959 . S
C2941 H2948 0.961 . S
C2941 H2949 0.960 . S
C2942 C2940 1.381 . S
C2942 C2943 1.394 . S
C2942 H2950 0.930 . S
C2943 C2942 1.394 . S
C2943 C2944 1.383 . S
C2943 H2951 0.929 . S
C2944 C2943 1.383 . S
C2944 C2945 1.377 . S
C2945 H2929 0.930 . S
C2945 C2944 1.377 . S
C2945 C2946 1.379 . S
C2946 H2930 0.931 . S
C2946 C2940 1.383 . S
C2946 C2945 1.379 . S
H2947 C2941 0.959 . S
H2948 C2941 0.961 . S
H2949 C2941 0.960 . S
H2950 C2942 0.930 . S
H2951 C2943 0.929 . S
H2952 C2960 0.929 . S
H2953 C2962 0.930 . S
H2954 C2964 0.930 . S
H2955 C2967 0.929 . S
H2956 C2970 0.930 . S
H2957 C2972 0.960 . S
H2958 C2972 0.960 . S
H2959 C2972 0.960 . S
C2960 H2952 0.929 . S
C2960 C2961 1.377 . S
C2960 C2962 1.384 . S
C2961 C2960 1.377 . S
C2961 C2967 1.390 . S
C2962 H2953 0.930 . S
C2962 C2960 1.384 . S
C2962 C2963 1.372 . S
C2963 C2962 1.372 . S
C2963 C2964 1.400 . S
C2963 C2968 1.490 . S
C2964 H2954 0.930 . S
C2964 C2963 1.400 . S
C2964 C2967 1.386 . S
H2965 C2981 0.930 . S
H2966 C2982 0.931 . S
C2967 H2955 0.929 . S
C2967 C2961 1.390 . S
C2967 C2964 1.386 . S
C2968 C2963 1.490 . S
C2968 C2970 1.395 . S
C2968 C2971 1.403 . S
H2969 C2975 0.930 . S
C2970 H2956 0.930 . S
C2970 C2968 1.395 . S
C2970 C2973 1.403 . S
C2971 C2968 1.403 . S
C2971 C2972 1.524 . S
C2971 C2975 1.400 . S
C2972 H2957 0.960 . S
C2972 H2958 0.960 . S
C2972 H2959 0.960 . S
C2972 C2971 1.524 . S
C2973 C2970 1.403 . S
C2973 C2974 1.392 . S
C2973 C2977 1.495 . S
C2974 C2973 1.392 . S
C2974 C2975 1.385 . S
C2974 C2976 1.478 . S
C2975 H2969 0.930 . S
C2975 C2971 1.400 . S
C2975 C2974 1.385 . S
C2976 C2974 1.478 . S
C2976 C2978 1.381 . S
C2976 C2982 1.383 . S
C2977 C2973 1.495 . S
C2977 H2983 0.959 . S
C2977 H2984 0.961 . S
C2977 H2985 0.960 . S
C2978 C2976 1.381 . S
C2978 C2979 1.394 . S
C2978 H2986 0.930 . S
C2979 C2978 1.394 . S
C2979 C2980 1.383 . S
C2979 H2987 0.929 . S
C2980 C2979 1.383 . S
C2980 C2981 1.377 . S
C2981 H2965 0.930 . S
C2981 C2980 1.377 . S
C2981 C2982 1.379 . S
C2982 H2966 0.931 . S
C2982 C2976 1.383 . S
C2982 C2981 1.379 . S
H2983 C2977 0.959 . S
H2984 C2977 0.961 . S
H2985 C2977 0.960 . S
H2986 C2978 0.930 . S
H2987 C2979 0.929 . S
H2988 C2996 0.929 . S
H2989 C2998 0.930 . S
H2990 C3000 0.930 . S
H2991 C3003 0.929 . S
H2992 C3006 0.930 . S
H2993 C3008 0.960 . S
H2994 C3008 0.960 . S
H2995 C3008 0.960 . S
C2996 H2988 0.929 . S
C2996 C2997 1.377 . S
C2996 C2998 1.384 . S
C2997 C2996 1.377 . S
C2997 C3003 1.390 . S
C2998 H2989 0.930 . S
C2998 C2996 1.384 . S
C2998 C2999 1.372 . S
C2999 C2998 1.372 . S
C2999 C3000 1.400 . S
C2999 C3004 1.490 . S
C3000 H2990 0.930 . S
C3000 C2999 1.400 . S
C3000 C3003 1.386 . S
H3001 C3017 0.930 . S
H3002 C3018 0.931 . S
C3003 H2991 0.929 . S
C3003 C2997 1.390 . S
C3003 C3000 1.386 . S
C3004 C2999 1.490 . S
C3004 C3006 1.395 . S
C3004 C3007 1.403 . S
H3005 C3011 0.930 . S
C3006 H2992 0.930 . S
C3006 C3004 1.395 . S
C3006 C3009 1.403 . S
C3007 C3004 1.403 . S
C3007 C3008 1.524 . S
C3007 C3011 1.400 . S
C3008 H2993 0.960 . S
C3008 H2994 0.960 . S
C3008 H2995 0.960 . S
C3008 C3007 1.524 . S
C3009 C3006 1.403 . S
C3009 C3010 1.392 . S
C3009 C3013 1.495 . S
C3010 C3009 1.392 . S
C3010 C3011 1.385 . S
C3010 C3012 1.478 . S
C3011 H3005 0.930 . S
C3011 C3007 1.400 . S
C3011 C3010 1.385 . S
C3012 C3010 1.478 . S
C3012 C3014 1.381 . S
C3012 C3018 1.383 . S
C3013 C3009 1.495 . S
C3013 H3019 0.959 . S
C3013 H3020 0.961 . S
C3013 H3021 0.960 . S
C3014 C3012 1.381 . S
C3014 C3015 1.394 . S
C3014 H3022 0.930 . S
C3015 C3014 1.394 . S
C3015 C3016 1.383 . S
C3015 H3023 0.929 . S
C3016 C3015 1.383 . S
C3016 C3017 1.377 . S
C3017 H3001 0.930 . S
C3017 C3016 1.377 . S
C3017 C3018 1.379 . S
C3018 H3002 0.931 . S
C3018 C3012 1.383 . S
C3018 C3017 1.379 . S
H3019 C3013 0.959 . S
H3020 C3013 0.961 . S
H3021 C3013 0.960 . S
H3022 C3014 0.930 . S
H3023 C3015 0.929 . S
H3024 C3032 0.929 . S
H3025 C3034 0.930 . S
H3026 C3036 0.930 . S
H3027 C3039 0.929 . S
H3028 C3042 0.930 . S
H3029 C3044 0.960 . S
H3030 C3044 0.960 . S
H3031 C3044 0.960 . S
C3032 H3024 0.929 . S
C3032 C3033 1.377 . S
C3032 C3034 1.384 . S
C3033 C3032 1.377 . S
C3033 C3039 1.390 . S
C3034 H3025 0.930 . S
C3034 C3032 1.384 . S
C3034 C3035 1.372 . S
C3035 C3034 1.372 . S
C3035 C3036 1.400 . S
C3035 C3040 1.490 . S
C3036 H3026 0.930 . S
C3036 C3035 1.400 . S
C3036 C3039 1.386 . S
H3037 C3053 0.930 . S
H3038 C3054 0.931 . S
C3039 H3027 0.929 . S
C3039 C3033 1.390 . S
C3039 C3036 1.386 . S
C3040 C3035 1.490 . S
C3040 C3042 1.395 . S
C3040 C3043 1.403 . S
H3041 C3047 0.930 . S
C3042 H3028 0.930 . S
C3042 C3040 1.395 . S
C3042 C3045 1.403 . S
C3043 C3040 1.403 . S
C3043 C3044 1.524 . S
C3043 C3047 1.400 . S
C3044 H3029 0.960 . S
C3044 H3030 0.960 . S
C3044 H3031 0.960 . S
C3044 C3043 1.524 . S
C3045 C3042 1.403 . S
C3045 C3046 1.392 . S
C3045 C3049 1.495 . S
C3046 C3045 1.392 . S
C3046 C3047 1.385 . S
C3046 C3048 1.478 . S
C3047 H3041 0.930 . S
C3047 C3043 1.400 . S
C3047 C3046 1.385 . S
C3048 C3046 1.478 . S
C3048 C3050 1.381 . S
C3048 C3054 1.383 . S
C3049 C3045 1.495 . S
C3049 H3055 0.959 . S
C3049 H3056 0.961 . S
C3049 H3057 0.960 . S
C3050 C3048 1.381 . S
C3050 C3051 1.394 . S
C3050 H3058 0.930 . S
C3051 C3050 1.394 . S
C3051 C3052 1.383 . S
C3051 H3059 0.929 . S
C3052 C3051 1.383 . S
C3052 C3053 1.377 . S
C3053 H3037 0.930 . S
C3053 C3052 1.377 . S
C3053 C3054 1.379 . S
C3054 H3038 0.931 . S
C3054 C3048 1.383 . S
C3054 C3053 1.379 . S
H3055 C3049 0.959 . S
H3056 C3049 0.961 . S
H3057 C3049 0.960 . S
H3058 C3050 0.930 . S
H3059 C3051 0.929 . S
H3060 C3068 0.929 . S
H3061 C3070 0.930 . S
H3062 C3072 0.930 . S
H3063 C3075 0.929 . S
H3064 C3078 0.930 . S
H3065 C3080 0.960 . S
H3066 C3080 0.960 . S
H3067 C3080 0.960 . S
C3068 H3060 0.929 . S
C3068 C3069 1.377 . S
C3068 C3070 1.384 . S
C3069 C3068 1.377 . S
C3069 C3075 1.390 . S
C3070 H3061 0.930 . S
C3070 C3068 1.384 . S
C3070 C3071 1.372 . S
C3071 C3070 1.372 . S
C3071 C3072 1.400 . S
C3071 C3076 1.490 . S
C3072 H3062 0.930 . S
C3072 C3071 1.400 . S
C3072 C3075 1.386 . S
H3073 C3089 0.930 . S
H3074 C3090 0.931 . S
C3075 H3063 0.929 . S
C3075 C3069 1.390 . S
C3075 C3072 1.386 . S
C3076 C3071 1.490 . S
C3076 C3078 1.395 . S
C3076 C3079 1.403 . S
H3077 C3083 0.930 . S
C3078 H3064 0.930 . S
C3078 C3076 1.395 . S
C3078 C3081 1.403 . S
C3079 C3076 1.403 . S
C3079 C3080 1.524 . S
C3079 C3083 1.400 . S
C3080 H3065 0.960 . S
C3080 H3066 0.960 . S
C3080 H3067 0.960 . S
C3080 C3079 1.524 . S
C3081 C3078 1.403 . S
C3081 C3082 1.392 . S
C3081 C3085 1.495 . S
C3082 C3081 1.392 . S
C3082 C3083 1.385 . S
C3082 C3084 1.478 . S
C3083 H3077 0.930 . S
C3083 C3079 1.400 . S
C3083 C3082 1.385 . S
C3084 C3082 1.478 . S
C3084 C3086 1.381 . S
C3084 C3090 1.383 . S
C3085 C3081 1.495 . S
C3085 H3091 0.959 . S
C3085 H3092 0.961 . S
C3085 H3093 0.960 . S
C3086 C3084 1.381 . S
C3086 C3087 1.394 . S
C3086 H3094 0.930 . S
C3087 C3086 1.394 . S
C3087 C3088 1.383 . S
C3087 H3095 0.929 . S
C3088 C3087 1.383 . S
C3088 C3089 1.377 . S
C3089 H3073 0.930 . S
C3089 C3088 1.377 . S
C3089 C3090 1.379 . S
C3090 H3074 0.931 . S
C3090 C3084 1.383 . S
C3090 C3089 1.379 . S
H3091 C3085 0.959 . S
H3092 C3085 0.961 . S
H3093 C3085 0.960 . S
H3094 C3086 0.930 . S
H3095 C3087 0.929 . S
H3096 C3104 0.929 . S
H3097 C3106 0.930 . S
H3098 C3108 0.930 . S
H3099 C3111 0.929 . S
H3100 C3114 0.930 . S
H3101 C3116 0.960 . S
H3102 C3116 0.960 . S
H3103 C3116 0.960 . S
C3104 H3096 0.929 . S
C3104 C3105 1.377 . S
C3104 C3106 1.384 . S
C3105 C3104 1.377 . S
C3105 C3111 1.390 . S
C3106 H3097 0.930 . S
C3106 C3104 1.384 . S
C3106 C3107 1.372 . S
C3107 C3106 1.372 . S
C3107 C3108 1.400 . S
C3107 C3112 1.490 . S
C3108 H3098 0.930 . S
C3108 C3107 1.400 . S
C3108 C3111 1.386 . S
H3109 C3125 0.930 . S
H3110 C3126 0.931 . S
C3111 H3099 0.929 . S
C3111 C3105 1.390 . S
C3111 C3108 1.386 . S
C3112 C3107 1.490 . S
C3112 C3114 1.395 . S
C3112 C3115 1.403 . S
H3113 C3119 0.930 . S
C3114 H3100 0.930 . S
C3114 C3112 1.395 . S
C3114 C3117 1.403 . S
C3115 C3112 1.403 . S
C3115 C3116 1.524 . S
C3115 C3119 1.400 . S
C3116 H3101 0.960 . S
C3116 H3102 0.960 . S
C3116 H3103 0.960 . S
C3116 C3115 1.524 . S
C3117 C3114 1.403 . S
C3117 C3118 1.392 . S
C3117 C3121 1.495 . S
C3118 C3117 1.392 . S
C3118 C3119 1.385 . S
C3118 C3120 1.478 . S
C3119 H3113 0.930 . S
C3119 C3115 1.400 . S
C3119 C3118 1.385 . S
C3120 C3118 1.478 . S
C3120 C3122 1.381 . S
C3120 C3126 1.383 . S
C3121 C3117 1.495 . S
C3121 H3127 0.959 . S
C3121 H3128 0.961 . S
C3121 H3129 0.960 . S
C3122 C3120 1.381 . S
C3122 C3123 1.394 . S
C3122 H3130 0.930 . S
C3123 C3122 1.394 . S
C3123 C3124 1.383 . S
C3123 H3131 0.929 . S
C3124 C3123 1.383 . S
C3124 C3125 1.377 . S
C3125 H3109 0.930 . S
C3125 C3124 1.377 . S
C3125 C3126 1.379 . S
C3126 H3110 0.931 . S
C3126 C3120 1.383 . S
C3126 C3125 1.379 . S
H3127 C3121 0.959 . S
H3128 C3121 0.961 . S
H3129 C3121 0.960 . S
H3130 C3122 0.930 . S
H3131 C3123 0.929 . S
H3132 C3140 0.929 . S
H3133 C3142 0.930 . S
H3134 C3144 0.930 . S
H3135 C3147 0.929 . S
H3136 C3150 0.930 . S
H3137 C3152 0.960 . S
H3138 C3152 0.960 . S
H3139 C3152 0.960 . S
C3140 H3132 0.929 . S
C3140 C3141 1.377 . S
C3140 C3142 1.384 . S
C3141 C3140 1.377 . S
C3141 C3147 1.390 . S
C3142 H3133 0.930 . S
C3142 C3140 1.384 . S
C3142 C3143 1.372 . S
C3143 C3142 1.372 . S
C3143 C3144 1.400 . S
C3143 C3148 1.490 . S
C3144 H3134 0.930 . S
C3144 C3143 1.400 . S
C3144 C3147 1.386 . S
H3145 C3161 0.930 . S
H3146 C3162 0.931 . S
C3147 H3135 0.929 . S
C3147 C3141 1.390 . S
C3147 C3144 1.386 . S
C3148 C3143 1.490 . S
C3148 C3150 1.395 . S
C3148 C3151 1.403 . S
H3149 C3155 0.930 . S
C3150 H3136 0.930 . S
C3150 C3148 1.395 . S
C3150 C3153 1.403 . S
C3151 C3148 1.403 . S
C3151 C3152 1.524 . S
C3151 C3155 1.400 . S
C3152 H3137 0.960 . S
C3152 H3138 0.960 . S
C3152 H3139 0.960 . S
C3152 C3151 1.524 . S
C3153 C3150 1.403 . S
C3153 C3154 1.392 . S
C3153 C3157 1.495 . S
C3154 C3153 1.392 . S
C3154 C3155 1.385 . S
C3154 C3156 1.478 . S
C3155 H3149 0.930 . S
C3155 C3151 1.400 . S
C3155 C3154 1.385 . S
C3156 C3154 1.478 . S
C3156 C3158 1.381 . S
C3156 C3162 1.383 . S
C3157 C3153 1.495 . S
C3157 H3163 0.959 . S
C3157 H3164 0.961 . S
C3157 H3165 0.960 . S
C3158 C3156 1.381 . S
C3158 C3159 1.394 . S
C3158 H3166 0.930 . S
C3159 C3158 1.394 . S
C3159 C3160 1.383 . S
C3159 H3167 0.929 . S
C3160 C3159 1.383 . S
C3160 C3161 1.377 . S
C3161 H3145 0.930 . S
C3161 C3160 1.377 . S
C3161 C3162 1.379 . S
C3162 H3146 0.931 . S
C3162 C3156 1.383 . S
C3162 C3161 1.379 . S
H3163 C3157 0.959 . S
H3164 C3157 0.961 . S
H3165 C3157 0.960 . S
H3166 C3158 0.930 . S
H3167 C3159 0.929 . S
H3168 C3176 0.929 . S
H3169 C3178 0.930 . S
H3170 C3180 0.930 . S
H3171 C3183 0.929 . S
H3172 C3186 0.930 . S
H3173 C3188 0.960 . S
H3174 C3188 0.960 . S
H3175 C3188 0.960 . S
C3176 H3168 0.929 . S
C3176 C3177 1.377 . S
C3176 C3178 1.384 . S
C3177 C3176 1.377 . S
C3177 C3183 1.390 . S
C3178 H3169 0.930 . S
C3178 C3176 1.384 . S
C3178 C3179 1.372 . S
C3179 C3178 1.372 . S
C3179 C3180 1.400 . S
C3179 C3184 1.490 . S
C3180 H3170 0.930 . S
C3180 C3179 1.400 . S
C3180 C3183 1.386 . S
H3181 C3197 0.930 . S
H3182 C3198 0.931 . S
C3183 H3171 0.929 . S
C3183 C3177 1.390 . S
C3183 C3180 1.386 . S
C3184 C3179 1.490 . S
C3184 C3186 1.395 . S
C3184 C3187 1.403 . S
H3185 C3191 0.930 . S
C3186 H3172 0.930 . S
C3186 C3184 1.395 . S
C3186 C3189 1.403 . S
C3187 C3184 1.403 . S
C3187 C3188 1.524 . S
C3187 C3191 1.400 . S
C3188 H3173 0.960 . S
C3188 H3174 0.960 . S
C3188 H3175 0.960 . S
C3188 C3187 1.524 . S
C3189 C3186 1.403 . S
C3189 C3190 1.392 . S
C3189 C3193 1.495 . S
C3190 C3189 1.392 . S
C3190 C3191 1.385 . S
C3190 C3192 1.478 . S
C3191 H3185 0.930 . S
C3191 C3187 1.400 . S
C3191 C3190 1.385 . S
C3192 C3190 1.478 . S
C3192 C3194 1.381 . S
C3192 C3198 1.383 . S
C3193 C3189 1.495 . S
C3193 H3199 0.959 . S
C3193 H3200 0.961 . S
C3193 H3201 0.960 . S
C3194 C3192 1.381 . S
C3194 C3195 1.394 . S
C3194 H3202 0.930 . S
C3195 C3194 1.394 . S
C3195 C3196 1.383 . S
C3195 H3203 0.929 . S
C3196 C3195 1.383 . S
C3196 C3197 1.377 . S
C3197 H3181 0.930 . S
C3197 C3196 1.377 . S
C3197 C3198 1.379 . S
C3198 H3182 0.931 . S
C3198 C3192 1.383 . S
C3198 C3197 1.379 . S
H3199 C3193 0.959 . S
H3200 C3193 0.961 . S
H3201 C3193 0.960 . S
H3202 C3194 0.930 . S
H3203 C3195 0.929 . S
H3204 C3212 0.929 . S
H3205 C3214 0.930 . S
H3206 C3216 0.930 . S
H3207 C3219 0.929 . S
H3208 C3222 0.930 . S
H3209 C3224 0.960 . S
H3210 C3224 0.960 . S
H3211 C3224 0.960 . S
C3212 H3204 0.929 . S
C3212 C3213 1.377 . S
C3212 C3214 1.384 . S
C3213 C3212 1.377 . S
C3213 C3219 1.390 . S
C3214 H3205 0.930 . S
C3214 C3212 1.384 . S
C3214 C3215 1.372 . S
C3215 C3214 1.372 . S
C3215 C3216 1.400 . S
C3215 C3220 1.490 . S
C3216 H3206 0.930 . S
C3216 C3215 1.400 . S
C3216 C3219 1.386 . S
H3217 C3233 0.930 . S
H3218 C3234 0.931 . S
C3219 H3207 0.929 . S
C3219 C3213 1.390 . S
C3219 C3216 1.386 . S
C3220 C3215 1.490 . S
C3220 C3222 1.395 . S
C3220 C3223 1.403 . S
H3221 C3227 0.930 . S
C3222 H3208 0.930 . S
C3222 C3220 1.395 . S
C3222 C3225 1.403 . S
C3223 C3220 1.403 . S
C3223 C3224 1.524 . S
C3223 C3227 1.400 . S
C3224 H3209 0.960 . S
C3224 H3210 0.960 . S
C3224 H3211 0.960 . S
C3224 C3223 1.524 . S
C3225 C3222 1.403 . S
C3225 C3226 1.392 . S
C3225 C3229 1.495 . S
C3226 C3225 1.392 . S
C3226 C3227 1.385 . S
C3226 C3228 1.478 . S
C3227 H3221 0.930 . S
C3227 C3223 1.400 . S
C3227 C3226 1.385 . S
C3228 C3226 1.478 . S
C3228 C3230 1.381 . S
C3228 C3234 1.383 . S
C3229 C3225 1.495 . S
C3229 H3235 0.959 . S
C3229 H3236 0.961 . S
C3229 H3237 0.960 . S
C3230 C3228 1.381 . S
C3230 C3231 1.394 . S
C3230 H3238 0.930 . S
C3231 C3230 1.394 . S
C3231 C3232 1.383 . S
C3231 H3239 0.929 . S
C3232 C3231 1.383 . S
C3232 C3233 1.377 . S
C3233 H3217 0.930 . S
C3233 C3232 1.377 . S
C3233 C3234 1.379 . S
C3234 H3218 0.931 . S
C3234 C3228 1.383 . S
C3234 C3233 1.379 . S
H3235 C3229 0.959 . S
H3236 C3229 0.961 . S
H3237 C3229 0.960 . S
H3238 C3230 0.930 . S
H3239 C3231 0.929 . S
H3240 C3248 0.929 . S
H3241 C3250 0.930 . S
H3242 C3252 0.930 . S
H3243 C3255 0.929 . S
H3244 C3258 0.930 . S
H3245 C3260 0.960 . S
H3246 C3260 0.960 . S
H3247 C3260 0.960 . S
C3248 H3240 0.929 . S
C3248 C3249 1.377 . S
C3248 C3250 1.384 . S
C3249 C3248 1.377 . S
C3249 C3255 1.390 . S
C3250 H3241 0.930 . S
C3250 C3248 1.384 . S
C3250 C3251 1.372 . S
C3251 C3250 1.372 . S
C3251 C3252 1.400 . S
C3251 C3256 1.490 . S
C3252 H3242 0.930 . S
C3252 C3251 1.400 . S
C3252 C3255 1.386 . S
H3253 C3269 0.930 . S
H3254 C3270 0.931 . S
C3255 H3243 0.929 . S
C3255 C3249 1.390 . S
C3255 C3252 1.386 . S
C3256 C3251 1.490 . S
C3256 C3258 1.395 . S
C3256 C3259 1.403 . S
H3257 C3263 0.930 . S
C3258 H3244 0.930 . S
C3258 C3256 1.395 . S
C3258 C3261 1.403 . S
C3259 C3256 1.403 . S
C3259 C3260 1.524 . S
C3259 C3263 1.400 . S
C3260 H3245 0.960 . S
C3260 H3246 0.960 . S
C3260 H3247 0.960 . S
C3260 C3259 1.524 . S
C3261 C3258 1.403 . S
C3261 C3262 1.392 . S
C3261 C3265 1.495 . S
C3262 C3261 1.392 . S
C3262 C3263 1.385 . S
C3262 C3264 1.478 . S
C3263 H3257 0.930 . S
C3263 C3259 1.400 . S
C3263 C3262 1.385 . S
C3264 C3262 1.478 . S
C3264 C3266 1.381 . S
C3264 C3270 1.383 . S
C3265 C3261 1.495 . S
C3265 H3271 0.959 . S
C3265 H3272 0.961 . S
C3265 H3273 0.960 . S
C3266 C3264 1.381 . S
C3266 C3267 1.394 . S
C3266 H3274 0.930 . S
C3267 C3266 1.394 . S
C3267 C3268 1.383 . S
C3267 H3275 0.929 . S
C3268 C3267 1.383 . S
C3268 C3269 1.377 . S
C3269 H3253 0.930 . S
C3269 C3268 1.377 . S
C3269 C3270 1.379 . S
C3270 H3254 0.931 . S
C3270 C3264 1.383 . S
C3270 C3269 1.379 . S
H3271 C3265 0.959 . S
H3272 C3265 0.961 . S
H3273 C3265 0.960 . S
H3274 C3266 0.930 . S
H3275 C3267 0.929 . S
H3276 C3284 0.929 . S
H3277 C3286 0.930 . S
H3278 C3288 0.930 . S
H3279 C3291 0.929 . S
H3280 C3294 0.930 . S
H3281 C3296 0.960 . S
H3282 C3296 0.960 . S
H3283 C3296 0.960 . S
C3284 H3276 0.929 . S
C3284 C3285 1.377 . S
C3284 C3286 1.384 . S
C3285 C3284 1.377 . S
C3285 C3291 1.390 . S
C3286 H3277 0.930 . S
C3286 C3284 1.384 . S
C3286 C3287 1.372 . S
C3287 C3286 1.372 . S
C3287 C3288 1.400 . S
C3287 C3292 1.490 . S
C3288 H3278 0.930 . S
C3288 C3287 1.400 . S
C3288 C3291 1.386 . S
H3289 C3305 0.930 . S
H3290 C3306 0.931 . S
C3291 H3279 0.929 . S
C3291 C3285 1.390 . S
C3291 C3288 1.386 . S
C3292 C3287 1.490 . S
C3292 C3294 1.395 . S
C3292 C3295 1.403 . S
H3293 C3299 0.930 . S
C3294 H3280 0.930 . S
C3294 C3292 1.395 . S
C3294 C3297 1.403 . S
C3295 C3292 1.403 . S
C3295 C3296 1.524 . S
C3295 C3299 1.400 . S
C3296 H3281 0.960 . S
C3296 H3282 0.960 . S
C3296 H3283 0.960 . S
C3296 C3295 1.524 . S
C3297 C3294 1.403 . S
C3297 C3298 1.392 . S
C3297 C3301 1.495 . S
C3298 C3297 1.392 . S
C3298 C3299 1.385 . S
C3298 C3300 1.478 . S
C3299 H3293 0.930 . S
C3299 C3295 1.400 . S
C3299 C3298 1.385 . S
C3300 C3298 1.478 . S
C3300 C3302 1.381 . S
C3300 C3306 1.383 . S
C3301 C3297 1.495 . S
C3301 H3307 0.959 . S
C3301 H3308 0.961 . S
C3301 H3309 0.960 . S
C3302 C3300 1.381 . S
C3302 C3303 1.394 . S
C3302 H3310 0.930 . S
C3303 C3302 1.394 . S
C3303 C3304 1.383 . S
C3303 H3311 0.929 . S
C3304 C3303 1.383 . S
C3304 C3305 1.377 . S
C3305 H3289 0.930 . S
C3305 C3304 1.377 . S
C3305 C3306 1.379 . S
C3306 H3290 0.931 . S
C3306 C3300 1.383 . S
C3306 C3305 1.379 . S
H3307 C3301 0.959 . S
H3308 C3301 0.961 . S
H3309 C3301 0.960 . S
H3310 C3302 0.930 . S
H3311 C3303 0.929 . S
H3312 C3320 0.929 . S
H3313 C3322 0.930 . S
H3314 C3324 0.930 . S
H3315 C3327 0.929 . S
H3316 C3330 0.930 . S
H3317 C3332 0.960 . S
H3318 C3332 0.960 . S
H3319 C3332 0.960 . S
C3320 H3312 0.929 . S
C3320 C3321 1.377 . S
C3320 C3322 1.384 . S
C3321 C3320 1.377 . S
C3321 C3327 1.390 . S
C3322 H3313 0.930 . S
C3322 C3320 1.384 . S
C3322 C3323 1.372 . S
C3323 C3322 1.372 . S
C3323 C3324 1.400 . S
C3323 C3328 1.490 . S
C3324 H3314 0.930 . S
C3324 C3323 1.400 . S
C3324 C3327 1.386 . S
H3325 C3341 0.930 . S
H3326 C3342 0.931 . S
C3327 H3315 0.929 . S
C3327 C3321 1.390 . S
C3327 C3324 1.386 . S
C3328 C3323 1.490 . S
C3328 C3330 1.395 . S
C3328 C3331 1.403 . S
H3329 C3335 0.930 . S
C3330 H3316 0.930 . S
C3330 C3328 1.395 . S
C3330 C3333 1.403 . S
C3331 C3328 1.403 . S
C3331 C3332 1.524 . S
C3331 C3335 1.400 . S
C3332 H3317 0.960 . S
C3332 H3318 0.960 . S
C3332 H3319 0.960 . S
C3332 C3331 1.524 . S
C3333 C3330 1.403 . S
C3333 C3334 1.392 . S
C3333 C3337 1.495 . S
C3334 C3333 1.392 . S
C3334 C3335 1.385 . S
C3334 C3336 1.478 . S
C3335 H3329 0.930 . S
C3335 C3331 1.400 . S
C3335 C3334 1.385 . S
C3336 C3334 1.478 . S
C3336 C3338 1.381 . S
C3336 C3342 1.383 . S
C3337 C3333 1.495 . S
C3337 H3343 0.959 . S
C3337 H3344 0.961 . S
C3337 H3345 0.960 . S
C3338 C3336 1.381 . S
C3338 C3339 1.394 . S
C3338 H3346 0.930 . S
C3339 C3338 1.394 . S
C3339 C3340 1.383 . S
C3339 H3347 0.929 . S
C3340 C3339 1.383 . S
C3340 C3341 1.377 . S
C3341 H3325 0.930 . S
C3341 C3340 1.377 . S
C3341 C3342 1.379 . S
C3342 H3326 0.931 . S
C3342 C3336 1.383 . S
C3342 C3341 1.379 . S
H3343 C3337 0.959 . S
H3344 C3337 0.961 . S
H3345 C3337 0.960 . S
H3346 C3338 0.930 . S
H3347 C3339 0.929 . S
H3348 C3356 0.929 . S
H3349 C3358 0.930 . S
H3350 C3360 0.930 . S
H3351 C3363 0.929 . S
H3352 C3366 0.930 . S
H3353 C3368 0.960 . S
H3354 C3368 0.960 . S
H3355 C3368 0.960 . S
C3356 H3348 0.929 . S
C3356 C3357 1.377 . S
C3356 C3358 1.384 . S
C3357 C3356 1.377 . S
C3357 C3363 1.390 . S
C3358 H3349 0.930 . S
C3358 C3356 1.384 . S
C3358 C3359 1.372 . S
C3359 C3358 1.372 . S
C3359 C3360 1.400 . S
C3359 C3364 1.490 . S
C3360 H3350 0.930 . S
C3360 C3359 1.400 . S
C3360 C3363 1.386 . S
H3361 C3377 0.930 . S
H3362 C3378 0.931 . S
C3363 H3351 0.929 . S
C3363 C3357 1.390 . S
C3363 C3360 1.386 . S
C3364 C3359 1.490 . S
C3364 C3366 1.395 . S
C3364 C3367 1.403 . S
H3365 C3371 0.930 . S
C3366 H3352 0.930 . S
C3366 C3364 1.395 . S
C3366 C3369 1.403 . S
C3367 C3364 1.403 . S
C3367 C3368 1.524 . S
C3367 C3371 1.400 . S
C3368 H3353 0.960 . S
C3368 H3354 0.960 . S
C3368 H3355 0.960 . S
C3368 C3367 1.524 . S
C3369 C3366 1.403 . S
C3369 C3370 1.392 . S
C3369 C3373 1.495 . S
C3370 C3369 1.392 . S
C3370 C3371 1.385 . S
C3370 C3372 1.478 . S
C3371 H3365 0.930 . S
C3371 C3367 1.400 . S
C3371 C3370 1.385 . S
C3372 C3370 1.478 . S
C3372 C3374 1.381 . S
C3372 C3378 1.383 . S
C3373 C3369 1.495 . S
C3373 H3379 0.959 . S
C3373 H3380 0.961 . S
C3373 H3381 0.960 . S
C3374 C3372 1.381 . S
C3374 C3375 1.394 . S
C3374 H3382 0.930 . S
C3375 C3374 1.394 . S
C3375 C3376 1.383 . S
C3375 H3383 0.929 . S
C3376 C3375 1.383 . S
C3376 C3377 1.377 . S
C3377 H3361 0.930 . S
C3377 C3376 1.377 . S
C3377 C3378 1.379 . S
C3378 H3362 0.931 . S
C3378 C3372 1.383 . S
C3378 C3377 1.379 . S
H3379 C3373 0.959 . S
H3380 C3373 0.961 . S
H3381 C3373 0.960 . S
H3382 C3374 0.930 . S
H3383 C3375 0.929 . S
H3384 C3392 0.929 . S
H3385 C3394 0.930 . S
H3386 C3396 0.930 . S
H3387 C3399 0.929 . S
H3388 C3402 0.930 . S
H3389 C3404 0.960 . S
H3390 C3404 0.960 . S
H3391 C3404 0.960 . S
C3392 H3384 0.929 . S
C3392 C3393 1.377 . S
C3392 C3394 1.384 . S
C3393 C3392 1.377 . S
C3393 C3399 1.390 . S
C3394 H3385 0.930 . S
C3394 C3392 1.384 . S
C3394 C3395 1.372 . S
C3395 C3394 1.372 . S
C3395 C3396 1.400 . S
C3395 C3400 1.490 . S
C3396 H3386 0.930 . S
C3396 C3395 1.400 . S
C3396 C3399 1.386 . S
H3397 C3413 0.930 . S
H3398 C3414 0.931 . S
C3399 H3387 0.929 . S
C3399 C3393 1.390 . S
C3399 C3396 1.386 . S
C3400 C3395 1.490 . S
C3400 C3402 1.395 . S
C3400 C3403 1.403 . S
H3401 C3407 0.930 . S
C3402 H3388 0.930 . S
C3402 C3400 1.395 . S
C3402 C3405 1.403 . S
C3403 C3400 1.403 . S
C3403 C3404 1.524 . S
C3403 C3407 1.400 . S
C3404 H3389 0.960 . S
C3404 H3390 0.960 . S
C3404 H3391 0.960 . S
C3404 C3403 1.524 . S
C3405 C3402 1.403 . S
C3405 C3406 1.392 . S
C3405 C3409 1.495 . S
C3406 C3405 1.392 . S
C3406 C3407 1.385 . S
C3406 C3408 1.478 . S
C3407 H3401 0.930 . S
C3407 C3403 1.400 . S
C3407 C3406 1.385 . S
C3408 C3406 1.478 . S
C3408 C3410 1.381 . S
C3408 C3414 1.383 . S
C3409 C3405 1.495 . S
C3409 H3415 0.959 . S
C3409 H3416 0.961 . S
C3409 H3417 0.960 . S
C3410 C3408 1.381 . S
C3410 C3411 1.394 . S
C3410 H3418 0.930 . S
C3411 C3410 1.394 . S
C3411 C3412 1.383 . S
C3411 H3419 0.929 . S
C3412 C3411 1.383 . S
C3412 C3413 1.377 . S
C3413 H3397 0.930 . S
C3413 C3412 1.377 . S
C3413 C3414 1.379 . S
C3414 H3398 0.931 . S
C3414 C3408 1.383 . S
C3414 C3413 1.379 . S
H3415 C3409 0.959 . S
H3416 C3409 0.961 . S
H3417 C3409 0.960 . S
H3418 C3410 0.930 . S
H3419 C3411 0.929 . S
H3420 C3428 0.929 . S
H3421 C3430 0.930 . S
H3422 C3432 0.930 . S
H3423 C3435 0.929 . S
H3424 C3438 0.930 . S
H3425 C3440 0.960 . S
H3426 C3440 0.960 . S
H3427 C3440 0.960 . S
C3428 H3420 0.929 . S
C3428 C3429 1.377 . S
C3428 C3430 1.384 . S
C3429 C3428 1.377 . S
C3429 C3435 1.390 . S
C3430 H3421 0.930 . S
C3430 C3428 1.384 . S
C3430 C3431 1.372 . S
C3431 C3430 1.372 . S
C3431 C3432 1.400 . S
C3431 C3436 1.490 . S
C3432 H3422 0.930 . S
C3432 C3431 1.400 . S
C3432 C3435 1.386 . S
H3433 C3449 0.930 . S
H3434 C3450 0.931 . S
C3435 H3423 0.929 . S
C3435 C3429 1.390 . S
C3435 C3432 1.386 . S
C3436 C3431 1.490 . S
C3436 C3438 1.395 . S
C3436 C3439 1.403 . S
H3437 C3443 0.930 . S
C3438 H3424 0.930 . S
C3438 C3436 1.395 . S
C3438 C3441 1.403 . S
C3439 C3436 1.403 . S
C3439 C3440 1.524 . S
C3439 C3443 1.400 . S
C3440 H3425 0.960 . S
C3440 H3426 0.960 . S
C3440 H3427 0.960 . S
C3440 C3439 1.524 . S
C3441 C3438 1.403 . S
C3441 C3442 1.392 . S
C3441 C3445 1.495 . S
C3442 C3441 1.392 . S
C3442 C3443 1.385 . S
C3442 C3444 1.478 . S
C3443 H3437 0.930 . S
C3443 C3439 1.400 . S
C3443 C3442 1.385 . S
C3444 C3442 1.478 . S
C3444 C3446 1.381 . S
C3444 C3450 1.383 . S
C3445 C3441 1.495 . S
C3445 H3451 0.959 . S
C3445 H3452 0.961 . S
C3445 H3453 0.960 . S
C3446 C3444 1.381 . S
C3446 C3447 1.394 . S
C3446 H3454 0.930 . S
C3447 C3446 1.394 . S
C3447 C3448 1.383 . S
C3447 H3455 0.929 . S
C3448 C3447 1.383 . S
C3448 C3449 1.377 . S
C3449 H3433 0.930 . S
C3449 C3448 1.377 . S
C3449 C3450 1.379 . S
C3450 H3434 0.931 . S
C3450 C3444 1.383 . S
C3450 C3449 1.379 . S
H3451 C3445 0.959 . S
H3452 C3445 0.961 . S
H3453 C3445 0.960 . S
H3454 C3446 0.930 . S
H3455 C3447 0.929 . S
H3456 C3464 0.929 . S
H3457 C3466 0.930 . S
H3458 C3468 0.930 . S
H3459 C3471 0.929 . S
H3460 C3474 0.930 . S
H3461 C3476 0.960 . S
H3462 C3476 0.960 . S
H3463 C3476 0.960 . S
C3464 H3456 0.929 . S
C3464 C3465 1.377 . S
C3464 C3466 1.384 . S
C3465 C3464 1.377 . S
C3465 C3471 1.390 . S
C3466 H3457 0.930 . S
C3466 C3464 1.384 . S
C3466 C3467 1.372 . S
C3467 C3466 1.372 . S
C3467 C3468 1.400 . S
C3467 C3472 1.490 . S
C3468 H3458 0.930 . S
C3468 C3467 1.400 . S
C3468 C3471 1.386 . S
H3469 C3485 0.930 . S
H3470 C3486 0.931 . S
C3471 H3459 0.929 . S
C3471 C3465 1.390 . S
C3471 C3468 1.386 . S
C3472 C3467 1.490 . S
C3472 C3474 1.395 . S
C3472 C3475 1.403 . S
H3473 C3479 0.930 . S
C3474 H3460 0.930 . S
C3474 C3472 1.395 . S
C3474 C3477 1.403 . S
C3475 C3472 1.403 . S
C3475 C3476 1.524 . S
C3475 C3479 1.400 . S
C3476 H3461 0.960 . S
C3476 H3462 0.960 . S
C3476 H3463 0.960 . S
C3476 C3475 1.524 . S
C3477 C3474 1.403 . S
C3477 C3478 1.392 . S
C3477 C3481 1.495 . S
C3478 C3477 1.392 . S
C3478 C3479 1.385 . S
C3478 C3480 1.478 . S
C3479 H3473 0.930 . S
C3479 C3475 1.400 . S
C3479 C3478 1.385 . S
C3480 C3478 1.478 . S
C3480 C3482 1.381 . S
C3480 C3486 1.383 . S
C3481 C3477 1.495 . S
C3481 H3487 0.959 . S
C3481 H3488 0.961 . S
C3481 H3489 0.960 . S
C3482 C3480 1.381 . S
C3482 C3483 1.394 . S
C3482 H3490 0.930 . S
C3483 C3482 1.394 . S
C3483 C3484 1.383 . S
C3483 H3491 0.929 . S
C3484 C3483 1.383 . S
C3484 C3485 1.377 . S
C3485 H3469 0.930 . S
C3485 C3484 1.377 . S
C3485 C3486 1.379 . S
C3486 H3470 0.931 . S
C3486 C3480 1.383 . S
C3486 C3485 1.379 . S
H3487 C3481 0.959 . S
H3488 C3481 0.961 . S
H3489 C3481 0.960 . S
H3490 C3482 0.930 . S
H3491 C3483 0.929 . S
H3492 C3500 0.929 . S
H3493 C3502 0.930 . S
H3494 C3504 0.930 . S
H3495 C3507 0.929 . S
H3496 C3510 0.930 . S
H3497 C3512 0.960 . S
H3498 C3512 0.960 . S
H3499 C3512 0.960 . S
C3500 H3492 0.929 . S
C3500 C3501 1.377 . S
C3500 C3502 1.384 . S
C3501 C3500 1.377 . S
C3501 C3507 1.390 . S
C3502 H3493 0.930 . S
C3502 C3500 1.384 . S
C3502 C3503 1.372 . S
C3503 C3502 1.372 . S
C3503 C3504 1.400 . S
C3503 C3508 1.490 . S
C3504 H3494 0.930 . S
C3504 C3503 1.400 . S
C3504 C3507 1.386 . S
H3505 C3521 0.930 . S
H3506 C3522 0.931 . S
C3507 H3495 0.929 . S
C3507 C3501 1.390 . S
C3507 C3504 1.386 . S
C3508 C3503 1.490 . S
C3508 C3510 1.395 . S
C3508 C3511 1.403 . S
H3509 C3515 0.930 . S
C3510 H3496 0.930 . S
C3510 C3508 1.395 . S
C3510 C3513 1.403 . S
C3511 C3508 1.403 . S
C3511 C3512 1.524 . S
C3511 C3515 1.400 . S
C3512 H3497 0.960 . S
C3512 H3498 0.960 . S
C3512 H3499 0.960 . S
C3512 C3511 1.524 . S
C3513 C3510 1.403 . S
C3513 C3514 1.392 . S
C3513 C3517 1.495 . S
C3514 C3513 1.392 . S
C3514 C3515 1.385 . S
C3514 C3516 1.478 . S
C3515 H3509 0.930 . S
C3515 C3511 1.400 . S
C3515 C3514 1.385 . S
C3516 C3514 1.478 . S
C3516 C3518 1.381 . S
C3516 C3522 1.383 . S
C3517 C3513 1.495 . S
C3517 H3523 0.959 . S
C3517 H3524 0.961 . S
C3517 H3525 0.960 . S
C3518 C3516 1.381 . S
C3518 C3519 1.394 . S
C3518 H3526 0.930 . S
C3519 C3518 1.394 . S
C3519 C3520 1.383 . S
C3519 H3527 0.929 . S
C3520 C3519 1.383 . S
C3520 C3521 1.377 . S
C3521 H3505 0.930 . S
C3521 C3520 1.377 . S
C3521 C3522 1.379 . S
C3522 H3506 0.931 . S
C3522 C3516 1.383 . S
C3522 C3521 1.379 . S
H3523 C3517 0.959 . S
H3524 C3517 0.961 . S
H3525 C3517 0.960 . S
H3526 C3518 0.930 . S
H3527 C3519 0.929 . S
H3528 C3536 0.929 . S
H3529 C3538 0.930 . S
H3530 C3540 0.930 . S
H3531 C3543 0.929 . S
H3532 C3546 0.930 . S
H3533 C3548 0.960 . S
H3534 C3548 0.960 . S
H3535 C3548 0.960 . S
C3536 H3528 0.929 . S
C3536 C3537 1.377 . S
C3536 C3538 1.384 . S
C3537 C3536 1.377 . S
C3537 C3543 1.390 . S
C3538 H3529 0.930 . S
C3538 C3536 1.384 . S
C3538 C3539 1.372 . S
C3539 C3538 1.372 . S
C3539 C3540 1.400 . S
C3539 C3544 1.490 . S
C3540 H3530 0.930 . S
C3540 C3539 1.400 . S
C3540 C3543 1.386 . S
H3541 C3557 0.930 . S
H3542 C3558 0.931 . S
C3543 H3531 0.929 . S
C3543 C3537 1.390 . S
C3543 C3540 1.386 . S
C3544 C3539 1.490 . S
C3544 C3546 1.395 . S
C3544 C3547 1.403 . S
H3545 C3551 0.930 . S
C3546 H3532 0.930 . S
C3546 C3544 1.395 . S
C3546 C3549 1.403 . S
C3547 C3544 1.403 . S
C3547 C3548 1.524 . S
C3547 C3551 1.400 . S
C3548 H3533 0.960 . S
C3548 H3534 0.960 . S
C3548 H3535 0.960 . S
C3548 C3547 1.524 . S
C3549 C3546 1.403 . S
C3549 C3550 1.392 . S
C3549 C3553 1.495 . S
C3550 C3549 1.392 . S
C3550 C3551 1.385 . S
C3550 C3552 1.478 . S
C3551 H3545 0.930 . S
C3551 C3547 1.400 . S
C3551 C3550 1.385 . S
C3552 C3550 1.478 . S
C3552 C3554 1.381 . S
C3552 C3558 1.383 . S
C3553 C3549 1.495 . S
C3553 H3559 0.959 . S
C3553 H3560 0.961 . S
C3553 H3561 0.960 . S
C3554 C3552 1.381 . S
C3554 C3555 1.394 . S
C3554 H3562 0.930 . S
C3555 C3554 1.394 . S
C3555 C3556 1.383 . S
C3555 H3563 0.929 . S
C3556 C3555 1.383 . S
C3556 C3557 1.377 . S
C3557 H3541 0.930 . S
C3557 C3556 1.377 . S
C3557 C3558 1.379 . S
C3558 H3542 0.931 . S
C3558 C3552 1.383 . S
C3558 C3557 1.379 . S
H3559 C3553 0.959 . S
H3560 C3553 0.961 . S
H3561 C3553 0.960 . S
H3562 C3554 0.930 . S
H3563 C3555 0.929 . S
H3564 C3572 0.929 . S
H3565 C3574 0.930 . S
H3566 C3576 0.930 . S
H3567 C3579 0.929 . S
H3568 C3582 0.930 . S
H3569 C3584 0.960 . S
H3570 C3584 0.960 . S
H3571 C3584 0.960 . S
C3572 H3564 0.929 . S
C3572 C3573 1.377 . S
C3572 C3574 1.384 . S
C3573 C3572 1.377 . S
C3573 C3579 1.390 . S
C3574 H3565 0.930 . S
C3574 C3572 1.384 . S
C3574 C3575 1.372 . S
C3575 C3574 1.372 . S
C3575 C3576 1.400 . S
C3575 C3580 1.490 . S
C3576 H3566 0.930 . S
C3576 C3575 1.400 . S
C3576 C3579 1.386 . S
H3577 C3593 0.930 . S
H3578 C3594 0.931 . S
C3579 H3567 0.929 . S
C3579 C3573 1.390 . S
C3579 C3576 1.386 . S
C3580 C3575 1.490 . S
C3580 C3582 1.395 . S
C3580 C3583 1.403 . S
H3581 C3587 0.930 . S
C3582 H3568 0.930 . S
C3582 C3580 1.395 . S
C3582 C3585 1.403 . S
C3583 C3580 1.403 . S
C3583 C3584 1.524 . S
C3583 C3587 1.400 . S
C3584 H3569 0.960 . S
C3584 H3570 0.960 . S
C3584 H3571 0.960 . S
C3584 C3583 1.524 . S
C3585 C3582 1.403 . S
C3585 C3586 1.392 . S
C3585 C3589 1.495 . S
C3586 C3585 1.392 . S
C3586 C3587 1.385 . S
C3586 C3588 1.478 . S
C3587 H3581 0.930 . S
C3587 C3583 1.400 . S
C3587 C3586 1.385 . S
C3588 C3586 1.478 . S
C3588 C3590 1.381 . S
C3588 C3594 1.383 . S
C3589 C3585 1.495 . S
C3589 H3595 0.959 . S
C3589 H3596 0.961 . S
C3589 H3597 0.960 . S
C3590 C3588 1.381 . S
C3590 C3591 1.394 . S
C3590 H3598 0.930 . S
C3591 C3590 1.394 . S
C3591 C3592 1.383 . S
C3591 H3599 0.929 . S
C3592 C3591 1.383 . S
C3592 C3593 1.377 . S
C3593 H3577 0.930 . S
C3593 C3592 1.377 . S
C3593 C3594 1.379 . S
C3594 H3578 0.931 . S
C3594 C3588 1.383 . S
C3594 C3593 1.379 . S
H3595 C3589 0.959 . S
H3596 C3589 0.961 . S
H3597 C3589 0.960 . S
H3598 C3590 0.930 . S
H3599 C3591 0.929 . S
H3600 C3608 0.929 . S
H3601 C3610 0.930 . S
H3602 C3612 0.930 . S
H3603 C3615 0.929 . S
H3604 C3618 0.930 . S
H3605 C3620 0.960 . S
H3606 C3620 0.960 . S
H3607 C3620 0.960 . S
C3608 H3600 0.929 . S
C3608 C3609 1.377 . S
C3608 C3610 1.384 . S
C3609 C3608 1.377 . S
C3609 C3615 1.390 . S
C3610 H3601 0.930 . S
C3610 C3608 1.384 . S
C3610 C3611 1.372 . S
C3611 C3610 1.372 . S
C3611 C3612 1.400 . S
C3611 C3616 1.490 . S
C3612 H3602 0.930 . S
C3612 C3611 1.400 . S
C3612 C3615 1.386 . S
H3613 C3629 0.930 . S
H3614 C3630 0.931 . S
C3615 H3603 0.929 . S
C3615 C3609 1.390 . S
C3615 C3612 1.386 . S
C3616 C3611 1.490 . S
C3616 C3618 1.395 . S
C3616 C3619 1.403 . S
H3617 C3623 0.930 . S
C3618 H3604 0.930 . S
C3618 C3616 1.395 . S
C3618 C3621 1.403 . S
C3619 C3616 1.403 . S
C3619 C3620 1.524 . S
C3619 C3623 1.400 . S
C3620 H3605 0.960 . S
C3620 H3606 0.960 . S
C3620 H3607 0.960 . S
C3620 C3619 1.524 . S
C3621 C3618 1.403 . S
C3621 C3622 1.392 . S
C3621 C3625 1.495 . S
C3622 C3621 1.392 . S
C3622 C3623 1.385 . S
C3622 C3624 1.478 . S
C3623 H3617 0.930 . S
C3623 C3619 1.400 . S
C3623 C3622 1.385 . S
C3624 C3622 1.478 . S
C3624 C3626 1.381 . S
C3624 C3630 1.383 . S
C3625 C3621 1.495 . S
C3625 H3631 0.959 . S
C3625 H3632 0.961 . S
C3625 H3633 0.960 . S
C3626 C3624 1.381 . S
C3626 C3627 1.394 . S
C3626 H3634 0.930 . S
C3627 C3626 1.394 . S
C3627 C3628 1.383 . S
C3627 H3635 0.929 . S
C3628 C3627 1.383 . S
C3628 C3629 1.377 . S
C3629 H3613 0.930 . S
C3629 C3628 1.377 . S
C3629 C3630 1.379 . S
C3630 H3614 0.931 . S
C3630 C3624 1.383 . S
C3630 C3629 1.379 . S
H3631 C3625 0.959 . S
H3632 C3625 0.961 . S
H3633 C3625 0.960 . S
H3634 C3626 0.930 . S
H3635 C3627 0.929 . S
H3636 C3644 0.929 . S
H3637 C3646 0.930 . S
H3638 C3648 0.930 . S
H3639 C3651 0.929 . S
H3640 C3654 0.930 . S
H3641 C3656 0.960 . S
H3642 C3656 0.960 . S
H3643 C3656 0.960 . S
C3644 H3636 0.929 . S
C3644 C3645 1.377 . S
C3644 C3646 1.384 . S
C3645 C3644 1.377 . S
C3645 C3651 1.390 . S
C3646 H3637 0.930 . S
C3646 C3644 1.384 . S
C3646 C3647 1.372 . S
C3647 C3646 1.372 . S
C3647 C3648 1.400 . S
C3647 C3652 1.490 . S
C3648 H3638 0.930 . S
C3648 C3647 1.400 . S
C3648 C3651 1.386 . S
H3649 C3665 0.930 . S
H3650 C3666 0.931 . S
C3651 H3639 0.929 . S
C3651 C3645 1.390 . S
C3651 C3648 1.386 . S
C3652 C3647 1.490 . S
C3652 C3654 1.395 . S
C3652 C3655 1.403 . S
H3653 C3659 0.930 . S
C3654 H3640 0.930 . S
C3654 C3652 1.395 . S
C3654 C3657 1.403 . S
C3655 C3652 1.403 . S
C3655 C3656 1.524 . S
C3655 C3659 1.400 . S
C3656 H3641 0.960 . S
C3656 H3642 0.960 . S
C3656 H3643 0.960 . S
C3656 C3655 1.524 . S
C3657 C3654 1.403 . S
C3657 C3658 1.392 . S
C3657 C3661 1.495 . S
C3658 C3657 1.392 . S
C3658 C3659 1.385 . S
C3658 C3660 1.478 . S
C3659 H3653 0.930 . S
C3659 C3655 1.400 . S
C3659 C3658 1.385 . S
C3660 C3658 1.478 . S
C3660 C3662 1.381 . S
C3660 C3666 1.383 . S
C3661 C3657 1.495 . S
C3661 H3667 0.959 . S
C3661 H3668 0.961 . S
C3661 H3669 0.960 . S
C3662 C3660 1.381 . S
C3662 C3663 1.394 . S
C3662 H3670 0.930 . S
C3663 C3662 1.394 . S
C3663 C3664 1.383 . S
C3663 H3671 0.929 . S
C3664 C3663 1.383 . S
C3664 C3665 1.377 . S
C3665 H3649 0.930 . S
C3665 C3664 1.377 . S
C3665 C3666 1.379 . S
C3666 H3650 0.931 . S
C3666 C3660 1.383 . S
C3666 C3665 1.379 . S
H3667 C3661 0.959 . S
H3668 C3661 0.961 . S
H3669 C3661 0.960 . S
H3670 C3662 0.930 . S
H3671 C3663 0.929 . S
H3672 C3680 0.929 . S
H3673 C3682 0.930 . S
H3674 C3684 0.930 . S
H3675 C3687 0.929 . S
H3676 C3690 0.930 . S
H3677 C3692 0.960 . S
H3678 C3692 0.960 . S
H3679 C3692 0.960 . S
C3680 H3672 0.929 . S
C3680 C3681 1.377 . S
C3680 C3682 1.384 . S
C3681 C3680 1.377 . S
C3681 C3687 1.390 . S
C3682 H3673 0.930 . S
C3682 C3680 1.384 . S
C3682 C3683 1.372 . S
C3683 C3682 1.372 . S
C3683 C3684 1.400 . S
C3683 C3688 1.490 . S
C3684 H3674 0.930 . S
C3684 C3683 1.400 . S
C3684 C3687 1.386 . S
H3685 C3701 0.930 . S
H3686 C3702 0.931 . S
C3687 H3675 0.929 . S
C3687 C3681 1.390 . S
C3687 C3684 1.386 . S
C3688 C3683 1.490 . S
C3688 C3690 1.395 . S
C3688 C3691 1.403 . S
H3689 C3695 0.930 . S
C3690 H3676 0.930 . S
C3690 C3688 1.395 . S
C3690 C3693 1.403 . S
C3691 C3688 1.403 . S
C3691 C3692 1.524 . S
C3691 C3695 1.400 . S
C3692 H3677 0.960 . S
C3692 H3678 0.960 . S
C3692 H3679 0.960 . S
C3692 C3691 1.524 . S
C3693 C3690 1.403 . S
C3693 C3694 1.392 . S
C3693 C3697 1.495 . S
C3694 C3693 1.392 . S
C3694 C3695 1.385 . S
C3694 C3696 1.478 . S
C3695 H3689 0.930 . S
C3695 C3691 1.400 . S
C3695 C3694 1.385 . S
C3696 C3694 1.478 . S
C3696 C3698 1.381 . S
C3696 C3702 1.383 . S
C3697 C3693 1.495 . S
C3697 H3703 0.959 . S
C3697 H3704 0.961 . S
C3697 H3705 0.960 . S
C3698 C3696 1.381 . S
C3698 C3699 1.394 . S
C3698 H3706 0.930 . S
C3699 C3698 1.394 . S
C3699 C3700 1.383 . S
C3699 H3707 0.929 . S
C3700 C3699 1.383 . S
C3700 C3701 1.377 . S
C3701 H3685 0.930 . S
C3701 C3700 1.377 . S
C3701 C3702 1.379 . S
C3702 H3686 0.931 . S
C3702 C3696 1.383 . S
C3702 C3701 1.379 . S
H3703 C3697 0.959 . S
H3704 C3697 0.961 . S
H3705 C3697 0.960 . S
H3706 C3698 0.930 . S
H3707 C3699 0.929 . S
H3708 C3716 0.929 . S
H3709 C3718 0.930 . S
H3710 C3720 0.930 . S
H3711 C3723 0.929 . S
H3712 C3726 0.930 . S
H3713 C3728 0.960 . S
H3714 C3728 0.960 . S
H3715 C3728 0.960 . S
C3716 H3708 0.929 . S
C3716 C3717 1.377 . S
C3716 C3718 1.384 . S
C3717 C3716 1.377 . S
C3717 C3723 1.390 . S
C3718 H3709 0.930 . S
C3718 C3716 1.384 . S
C3718 C3719 1.372 . S
C3719 C3718 1.372 . S
C3719 C3720 1.400 . S
C3719 C3724 1.490 . S
C3720 H3710 0.930 . S
C3720 C3719 1.400 . S
C3720 C3723 1.386 . S
H3721 C3737 0.930 . S
H3722 C3738 0.931 . S
C3723 H3711 0.929 . S
C3723 C3717 1.390 . S
C3723 C3720 1.386 . S
C3724 C3719 1.490 . S
C3724 C3726 1.395 . S
C3724 C3727 1.403 . S
H3725 C3731 0.930 . S
C3726 H3712 0.930 . S
C3726 C3724 1.395 . S
C3726 C3729 1.403 . S
C3727 C3724 1.403 . S
C3727 C3728 1.524 . S
C3727 C3731 1.400 . S
C3728 H3713 0.960 . S
C3728 H3714 0.960 . S
C3728 H3715 0.960 . S
C3728 C3727 1.524 . S
C3729 C3726 1.403 . S
C3729 C3730 1.392 . S
C3729 C3733 1.495 . S
C3730 C3729 1.392 . S
C3730 C3731 1.385 . S
C3730 C3732 1.478 . S
C3731 H3725 0.930 . S
C3731 C3727 1.400 . S
C3731 C3730 1.385 . S
C3732 C3730 1.478 . S
C3732 C3734 1.381 . S
C3732 C3738 1.383 . S
C3733 C3729 1.495 . S
C3733 H3739 0.959 . S
C3733 H3740 0.961 . S
C3733 H3741 0.960 . S
C3734 C3732 1.381 . S
C3734 C3735 1.394 . S
C3734 H3742 0.930 . S
C3735 C3734 1.394 . S
C3735 C3736 1.383 . S
C3735 H3743 0.929 . S
C3736 C3735 1.383 . S
C3736 C3737 1.377 . S
C3737 H3721 0.930 . S
C3737 C3736 1.377 . S
C3737 C3738 1.379 . S
C3738 H3722 0.931 . S
C3738 C3732 1.383 . S
C3738 C3737 1.379 . S
H3739 C3733 0.959 . S
H3740 C3733 0.961 . S
H3741 C3733 0.960 . S
H3742 C3734 0.930 . S
H3743 C3735 0.929 . S
H3744 C3752 0.929 . S
H3745 C3754 0.930 . S
H3746 C3756 0.930 . S
H3747 C3759 0.929 . S
H3748 C3762 0.930 . S
H3749 C3764 0.960 . S
H3750 C3764 0.960 . S
H3751 C3764 0.960 . S
C3752 H3744 0.929 . S
C3752 C3753 1.377 . S
C3752 C3754 1.384 . S
C3753 C3752 1.377 . S
C3753 C3759 1.390 . S
C3754 H3745 0.930 . S
C3754 C3752 1.384 . S
C3754 C3755 1.372 . S
C3755 C3754 1.372 . S
C3755 C3756 1.400 . S
C3755 C3760 1.490 . S
C3756 H3746 0.930 . S
C3756 C3755 1.400 . S
C3756 C3759 1.386 . S
H3757 C3773 0.930 . S
H3758 C3774 0.931 . S
C3759 H3747 0.929 . S
C3759 C3753 1.390 . S
C3759 C3756 1.386 . S
C3760 C3755 1.490 . S
C3760 C3762 1.395 . S
C3760 C3763 1.403 . S
H3761 C3767 0.930 . S
C3762 H3748 0.930 . S
C3762 C3760 1.395 . S
C3762 C3765 1.403 . S
C3763 C3760 1.403 . S
C3763 C3764 1.524 . S
C3763 C3767 1.400 . S
C3764 H3749 0.960 . S
C3764 H3750 0.960 . S
C3764 H3751 0.960 . S
C3764 C3763 1.524 . S
C3765 C3762 1.403 . S
C3765 C3766 1.392 . S
C3765 C3769 1.495 . S
C3766 C3765 1.392 . S
C3766 C3767 1.385 . S
C3766 C3768 1.478 . S
C3767 H3761 0.930 . S
C3767 C3763 1.400 . S
C3767 C3766 1.385 . S
C3768 C3766 1.478 . S
C3768 C3770 1.381 . S
C3768 C3774 1.383 . S
C3769 C3765 1.495 . S
C3769 H3775 0.959 . S
C3769 H3776 0.961 . S
C3769 H3777 0.960 . S
C3770 C3768 1.381 . S
C3770 C3771 1.394 . S
C3770 H3778 0.930 . S
C3771 C3770 1.394 . S
C3771 C3772 1.383 . S
C3771 H3779 0.929 . S
C3772 C3771 1.383 . S
C3772 C3773 1.377 . S
C3773 H3757 0.930 . S
C3773 C3772 1.377 . S
C3773 C3774 1.379 . S
C3774 H3758 0.931 . S
C3774 C3768 1.383 . S
C3774 C3773 1.379 . S
H3775 C3769 0.959 . S
H3776 C3769 0.961 . S
H3777 C3769 0.960 . S
H3778 C3770 0.930 . S
H3779 C3771 0.929 . S
H3780 C3788 0.929 . S
H3781 C3790 0.930 . S
H3782 C3792 0.930 . S
H3783 C3795 0.929 . S
H3784 C3798 0.930 . S
H3785 C3800 0.960 . S
H3786 C3800 0.960 . S
H3787 C3800 0.960 . S
C3788 H3780 0.929 . S
C3788 C3789 1.377 . S
C3788 C3790 1.384 . S
C3789 C3788 1.377 . S
C3789 C3795 1.390 . S
C3790 H3781 0.930 . S
C3790 C3788 1.384 . S
C3790 C3791 1.372 . S
C3791 C3790 1.372 . S
C3791 C3792 1.400 . S
C3791 C3796 1.490 . S
C3792 H3782 0.930 . S
C3792 C3791 1.400 . S
C3792 C3795 1.386 . S
H3793 C3809 0.930 . S
H3794 C3810 0.931 . S
C3795 H3783 0.929 . S
C3795 C3789 1.390 . S
C3795 C3792 1.386 . S
C3796 C3791 1.490 . S
C3796 C3798 1.395 . S
C3796 C3799 1.403 . S
H3797 C3803 0.930 . S
C3798 H3784 0.930 . S
C3798 C3796 1.395 . S
C3798 C3801 1.403 . S
C3799 C3796 1.403 . S
C3799 C3800 1.524 . S
C3799 C3803 1.400 . S
C3800 H3785 0.960 . S
C3800 H3786 0.960 . S
C3800 H3787 0.960 . S
C3800 C3799 1.524 . S
C3801 C3798 1.403 . S
C3801 C3802 1.392 . S
C3801 C3805 1.495 . S
C3802 C3801 1.392 . S
C3802 C3803 1.385 . S
C3802 C3804 1.478 . S
C3803 H3797 0.930 . S
C3803 C3799 1.400 . S
C3803 C3802 1.385 . S
C3804 C3802 1.478 . S
C3804 C3806 1.381 . S
C3804 C3810 1.383 . S
C3805 C3801 1.495 . S
C3805 H3811 0.959 . S
C3805 H3812 0.961 . S
C3805 H3813 0.960 . S
C3806 C3804 1.381 . S
C3806 C3807 1.394 . S
C3806 H3814 0.930 . S
C3807 C3806 1.394 . S
C3807 C3808 1.383 . S
C3807 H3815 0.929 . S
C3808 C3807 1.383 . S
C3808 C3809 1.377 . S
C3809 H3793 0.930 . S
C3809 C3808 1.377 . S
C3809 C3810 1.379 . S
C3810 H3794 0.931 . S
C3810 C3804 1.383 . S
C3810 C3809 1.379 . S
H3811 C3805 0.959 . S
H3812 C3805 0.961 . S
H3813 C3805 0.960 . S
H3814 C3806 0.930 . S
H3815 C3807 0.929 . S
H3816 C3824 0.929 . S
H3817 C3826 0.930 . S
H3818 C3828 0.930 . S
H3819 C3831 0.929 . S
H3820 C3834 0.930 . S
H3821 C3836 0.960 . S
H3822 C3836 0.960 . S
H3823 C3836 0.960 . S
C3824 H3816 0.929 . S
C3824 C3825 1.377 . S
C3824 C3826 1.384 . S
C3825 C3824 1.377 . S
C3825 C3831 1.390 . S
C3826 H3817 0.930 . S
C3826 C3824 1.384 . S
C3826 C3827 1.372 . S
C3827 C3826 1.372 . S
C3827 C3828 1.400 . S
C3827 C3832 1.490 . S
C3828 H3818 0.930 . S
C3828 C3827 1.400 . S
C3828 C3831 1.386 . S
H3829 C3845 0.930 . S
H3830 C3846 0.931 . S
C3831 H3819 0.929 . S
C3831 C3825 1.390 . S
C3831 C3828 1.386 . S
C3832 C3827 1.490 . S
C3832 C3834 1.395 . S
C3832 C3835 1.403 . S
H3833 C3839 0.930 . S
C3834 H3820 0.930 . S
C3834 C3832 1.395 . S
C3834 C3837 1.403 . S
C3835 C3832 1.403 . S
C3835 C3836 1.524 . S
C3835 C3839 1.400 . S
C3836 H3821 0.960 . S
C3836 H3822 0.960 . S
C3836 H3823 0.960 . S
C3836 C3835 1.524 . S
C3837 C3834 1.403 . S
C3837 C3838 1.392 . S
C3837 C3841 1.495 . S
C3838 C3837 1.392 . S
C3838 C3839 1.385 . S
C3838 C3840 1.478 . S
C3839 H3833 0.930 . S
C3839 C3835 1.400 . S
C3839 C3838 1.385 . S
C3840 C3838 1.478 . S
C3840 C3842 1.381 . S
C3840 C3846 1.383 . S
C3841 C3837 1.495 . S
C3841 H3847 0.959 . S
C3841 H3848 0.961 . S
C3841 H3849 0.960 . S
C3842 C3840 1.381 . S
C3842 C3843 1.394 . S
C3842 H3850 0.930 . S
C3843 C3842 1.394 . S
C3843 C3844 1.383 . S
C3843 H3851 0.929 . S
C3844 C3843 1.383 . S
C3844 C3845 1.377 . S
C3845 H3829 0.930 . S
C3845 C3844 1.377 . S
C3845 C3846 1.379 . S
C3846 H3830 0.931 . S
C3846 C3840 1.383 . S
C3846 C3845 1.379 . S
H3847 C3841 0.959 . S
H3848 C3841 0.961 . S
H3849 C3841 0.960 . S
H3850 C3842 0.930 . S
H3851 C3843 0.929 . S
H3852 C3860 0.929 . S
H3853 C3862 0.930 . S
H3854 C3864 0.930 . S
H3855 C3867 0.929 . S
H3856 C3870 0.930 . S
H3857 C3872 0.960 . S
H3858 C3872 0.960 . S
H3859 C3872 0.960 . S
C3860 H3852 0.929 . S
C3860 C3861 1.377 . S
C3860 C3862 1.384 . S
C3861 C3860 1.377 . S
C3861 C3867 1.390 . S
C3862 H3853 0.930 . S
C3862 C3860 1.384 . S
C3862 C3863 1.372 . S
C3863 C3862 1.372 . S
C3863 C3864 1.400 . S
C3863 C3868 1.490 . S
C3864 H3854 0.930 . S
C3864 C3863 1.400 . S
C3864 C3867 1.386 . S
H3865 C3881 0.930 . S
H3866 C3882 0.931 . S
C3867 H3855 0.929 . S
C3867 C3861 1.390 . S
C3867 C3864 1.386 . S
C3868 C3863 1.490 . S
C3868 C3870 1.395 . S
C3868 C3871 1.403 . S
H3869 C3875 0.930 . S
C3870 H3856 0.930 . S
C3870 C3868 1.395 . S
C3870 C3873 1.403 . S
C3871 C3868 1.403 . S
C3871 C3872 1.524 . S
C3871 C3875 1.400 . S
C3872 H3857 0.960 . S
C3872 H3858 0.960 . S
C3872 H3859 0.960 . S
C3872 C3871 1.524 . S
C3873 C3870 1.403 . S
C3873 C3874 1.392 . S
C3873 C3877 1.495 . S
C3874 C3873 1.392 . S
C3874 C3875 1.385 . S
C3874 C3876 1.478 . S
C3875 H3869 0.930 . S
C3875 C3871 1.400 . S
C3875 C3874 1.385 . S
C3876 C3874 1.478 . S
C3876 C3878 1.381 . S
C3876 C3882 1.383 . S
C3877 C3873 1.495 . S
C3877 H3883 0.959 . S
C3877 H3884 0.961 . S
C3877 H3885 0.960 . S
C3878 C3876 1.381 . S
C3878 C3879 1.394 . S
C3878 H3886 0.930 . S
C3879 C3878 1.394 . S
C3879 C3880 1.383 . S
C3879 H3887 0.929 . S
C3880 C3879 1.383 . S
C3880 C3881 1.377 . S
C3881 H3865 0.930 . S
C3881 C3880 1.377 . S
C3881 C3882 1.379 . S
C3882 H3866 0.931 . S
C3882 C3876 1.383 . S
C3882 C3881 1.379 . S
H3883 C3877 0.959 . S
H3884 C3877 0.961 . S
H3885 C3877 0.960 . S
H3886 C3878 0.930 . S
H3887 C3879 0.929 . S
H3888 C3896 0.929 . S
H3889 C3898 0.930 . S
H3890 C3900 0.930 . S
H3891 C3903 0.929 . S
H3892 C3906 0.930 . S
H3893 C3908 0.960 . S
H3894 C3908 0.960 . S
H3895 C3908 0.960 . S
C3896 H3888 0.929 . S
C3896 C3897 1.377 . S
C3896 C3898 1.384 . S
C3897 C3896 1.377 . S
C3897 C3903 1.390 . S
C3898 H3889 0.930 . S
C3898 C3896 1.384 . S
C3898 C3899 1.372 . S
C3899 C3898 1.372 . S
C3899 C3900 1.400 . S
C3899 C3904 1.490 . S
C3900 H3890 0.930 . S
C3900 C3899 1.400 . S
C3900 C3903 1.386 . S
H3901 C3917 0.930 . S
H3902 C3918 0.931 . S
C3903 H3891 0.929 . S
C3903 C3897 1.390 . S
C3903 C3900 1.386 . S
C3904 C3899 1.490 . S
C3904 C3906 1.395 . S
C3904 C3907 1.403 . S
H3905 C3911 0.930 . S
C3906 H3892 0.930 . S
C3906 C3904 1.395 . S
C3906 C3909 1.403 . S
C3907 C3904 1.403 . S
C3907 C3908 1.524 . S
C3907 C3911 1.400 . S
C3908 H3893 0.960 . S
C3908 H3894 0.960 . S
C3908 H3895 0.960 . S
C3908 C3907 1.524 . S
C3909 C3906 1.403 . S
C3909 C3910 1.392 . S
C3909 C3913 1.495 . S
C3910 C3909 1.392 . S
C3910 C3911 1.385 . S
C3910 C3912 1.478 . S
C3911 H3905 0.930 . S
C3911 C3907 1.400 . S
C3911 C3910 1.385 . S
C3912 C3910 1.478 . S
C3912 C3914 1.381 . S
C3912 C3918 1.383 . S
C3913 C3909 1.495 . S
C3913 H3919 0.959 . S
C3913 H3920 0.961 . S
C3913 H3921 0.960 . S
C3914 C3912 1.381 . S
C3914 C3915 1.394 . S
C3914 H3922 0.930 . S
C3915 C3914 1.394 . S
C3915 C3916 1.383 . S
C3915 H3923 0.929 . S
C3916 C3915 1.383 . S
C3916 C3917 1.377 . S
C3917 H3901 0.930 . S
C3917 C3916 1.377 . S
C3917 C3918 1.379 . S
C3918 H3902 0.931 . S
C3918 C3912 1.383 . S
C3918 C3917 1.379 . S
H3919 C3913 0.959 . S
H3920 C3913 0.961 . S
H3921 C3913 0.960 . S
H3922 C3914 0.930 . S
H3923 C3915 0.929 . S
H3924 C3932 0.929 . S
H3925 C3934 0.930 . S
H3926 C3936 0.930 . S
H3927 C3939 0.929 . S
H3928 C3942 0.930 . S
H3929 C3944 0.960 . S
H3930 C3944 0.960 . S
H3931 C3944 0.960 . S
C3932 H3924 0.929 . S
C3932 C3933 1.377 . S
C3932 C3934 1.384 . S
C3933 C3932 1.377 . S
C3933 C3939 1.390 . S
C3934 H3925 0.930 . S
C3934 C3932 1.384 . S
C3934 C3935 1.372 . S
C3935 C3934 1.372 . S
C3935 C3936 1.400 . S
C3935 C3940 1.490 . S
C3936 H3926 0.930 . S
C3936 C3935 1.400 . S
C3936 C3939 1.386 . S
H3937 C3953 0.930 . S
H3938 C3954 0.931 . S
C3939 H3927 0.929 . S
C3939 C3933 1.390 . S
C3939 C3936 1.386 . S
C3940 C3935 1.490 . S
C3940 C3942 1.395 . S
C3940 C3943 1.403 . S
H3941 C3947 0.930 . S
C3942 H3928 0.930 . S
C3942 C3940 1.395 . S
C3942 C3945 1.403 . S
C3943 C3940 1.403 . S
C3943 C3944 1.524 . S
C3943 C3947 1.400 . S
C3944 H3929 0.960 . S
C3944 H3930 0.960 . S
C3944 H3931 0.960 . S
C3944 C3943 1.524 . S
C3945 C3942 1.403 . S
C3945 C3946 1.392 . S
C3945 C3949 1.495 . S
C3946 C3945 1.392 . S
C3946 C3947 1.385 . S
C3946 C3948 1.478 . S
C3947 H3941 0.930 . S
C3947 C3943 1.400 . S
C3947 C3946 1.385 . S
C3948 C3946 1.478 . S
C3948 C3950 1.381 . S
C3948 C3954 1.383 . S
C3949 C3945 1.495 . S
C3949 H3955 0.959 . S
C3949 H3956 0.961 . S
C3949 H3957 0.960 . S
C3950 C3948 1.381 . S
C3950 C3951 1.394 . S
C3950 H3958 0.930 . S
C3951 C3950 1.394 . S
C3951 C3952 1.383 . S
C3951 H3959 0.929 . S
C3952 C3951 1.383 . S
C3952 C3953 1.377 . S
C3953 H3937 0.930 . S
C3953 C3952 1.377 . S
C3953 C3954 1.379 . S
C3954 H3938 0.931 . S
C3954 C3948 1.383 . S
C3954 C3953 1.379 . S
H3955 C3949 0.959 . S
H3956 C3949 0.961 . S
H3957 C3949 0.960 . S
H3958 C3950 0.930 . S
H3959 C3951 0.929 . S
H3960 C3968 0.929 . S
H3961 C3970 0.930 . S
H3962 C3972 0.930 . S
H3963 C3975 0.929 . S
H3964 C3978 0.930 . S
H3965 C3980 0.960 . S
H3966 C3980 0.960 . S
H3967 C3980 0.960 . S
C3968 H3960 0.929 . S
C3968 C3969 1.377 . S
C3968 C3970 1.384 . S
C3969 C3968 1.377 . S
C3969 C3975 1.390 . S
C3970 H3961 0.930 . S
C3970 C3968 1.384 . S
C3970 C3971 1.372 . S
C3971 C3970 1.372 . S
C3971 C3972 1.400 . S
C3971 C3976 1.490 . S
C3972 H3962 0.930 . S
C3972 C3971 1.400 . S
C3972 C3975 1.386 . S
H3973 C3989 0.930 . S
H3974 C3990 0.931 . S
C3975 H3963 0.929 . S
C3975 C3969 1.390 . S
C3975 C3972 1.386 . S
C3976 C3971 1.490 . S
C3976 C3978 1.395 . S
C3976 C3979 1.403 . S
H3977 C3983 0.930 . S
C3978 H3964 0.930 . S
C3978 C3976 1.395 . S
C3978 C3981 1.403 . S
C3979 C3976 1.403 . S
C3979 C3980 1.524 . S
C3979 C3983 1.400 . S
C3980 H3965 0.960 . S
C3980 H3966 0.960 . S
C3980 H3967 0.960 . S
C3980 C3979 1.524 . S
C3981 C3978 1.403 . S
C3981 C3982 1.392 . S
C3981 C3985 1.495 . S
C3982 C3981 1.392 . S
C3982 C3983 1.385 . S
C3982 C3984 1.478 . S
C3983 H3977 0.930 . S
C3983 C3979 1.400 . S
C3983 C3982 1.385 . S
C3984 C3982 1.478 . S
C3984 C3986 1.381 . S
C3984 C3990 1.383 . S
C3985 C3981 1.495 . S
C3985 H3991 0.959 . S
C3985 H3992 0.961 . S
C3985 H3993 0.960 . S
C3986 C3984 1.381 . S
C3986 C3987 1.394 . S
C3986 H3994 0.930 . S
C3987 C3986 1.394 . S
C3987 C3988 1.383 . S
C3987 H3995 0.929 . S
C3988 C3987 1.383 . S
C3988 C3989 1.377 . S
C3989 H3973 0.930 . S
C3989 C3988 1.377 . S
C3989 C3990 1.379 . S
C3990 H3974 0.931 . S
C3990 C3984 1.383 . S
C3990 C3989 1.379 . S
H3991 C3985 0.959 . S
H3992 C3985 0.961 . S
H3993 C3985 0.960 . S
H3994 C3986 0.930 . S
H3995 C3987 0.929 . S
H3996 C4004 0.929 . S
H3997 C4006 0.930 . S
H3998 C4008 0.930 . S
H3999 C4011 0.929 . S
H4000 C4014 0.930 . S
H4001 C4016 0.960 . S
H4002 C4016 0.960 . S
H4003 C4016 0.960 . S
C4004 H3996 0.929 . S
C4004 C4005 1.377 . S
C4004 C4006 1.384 . S
C4005 C4004 1.377 . S
C4005 C4011 1.390 . S
C4006 H3997 0.930 . S
C4006 C4004 1.384 . S
C4006 C4007 1.372 . S
C4007 C4006 1.372 . S
C4007 C4008 1.400 . S
C4007 C4012 1.490 . S
C4008 H3998 0.930 . S
C4008 C4007 1.400 . S
C4008 C4011 1.386 . S
H4009 C4025 0.930 . S
H4010 C4026 0.931 . S
C4011 H3999 0.929 . S
C4011 C4005 1.390 . S
C4011 C4008 1.386 . S
C4012 C4007 1.490 . S
C4012 C4014 1.395 . S
C4012 C4015 1.403 . S
H4013 C4019 0.930 . S
C4014 H4000 0.930 . S
C4014 C4012 1.395 . S
C4014 C4017 1.403 . S
C4015 C4012 1.403 . S
C4015 C4016 1.524 . S
C4015 C4019 1.400 . S
C4016 H4001 0.960 . S
C4016 H4002 0.960 . S
C4016 H4003 0.960 . S
C4016 C4015 1.524 . S
C4017 C4014 1.403 . S
C4017 C4018 1.392 . S
C4017 C4021 1.495 . S
C4018 C4017 1.392 . S
C4018 C4019 1.385 . S
C4018 C4020 1.478 . S
C4019 H4013 0.930 . S
C4019 C4015 1.400 . S
C4019 C4018 1.385 . S
C4020 C4018 1.478 . S
C4020 C4022 1.381 . S
C4020 C4026 1.383 . S
C4021 C4017 1.495 . S
C4021 H4027 0.959 . S
C4021 H4028 0.961 . S
C4021 H4029 0.960 . S
C4022 C4020 1.381 . S
C4022 C4023 1.394 . S
C4022 H4030 0.930 . S
C4023 C4022 1.394 . S
C4023 C4024 1.383 . S
C4023 H4031 0.929 . S
C4024 C4023 1.383 . S
C4024 C4025 1.377 . S
C4025 H4009 0.930 . S
C4025 C4024 1.377 . S
C4025 C4026 1.379 . S
C4026 H4010 0.931 . S
C4026 C4020 1.383 . S
C4026 C4025 1.379 . S
H4027 C4021 0.959 . S
H4028 C4021 0.961 . S
H4029 C4021 0.960 . S
H4030 C4022 0.930 . S
H4031 C4023 0.929 . S
H4032 C4040 0.929 . S
H4033 C4042 0.930 . S
H4034 C4044 0.930 . S
H4035 C4047 0.929 . S
H4036 C4050 0.930 . S
H4037 C4052 0.960 . S
H4038 C4052 0.960 . S
H4039 C4052 0.960 . S
C4040 H4032 0.929 . S
C4040 C4041 1.377 . S
C4040 C4042 1.384 . S
C4041 C4040 1.377 . S
C4041 C4047 1.390 . S
C4042 H4033 0.930 . S
C4042 C4040 1.384 . S
C4042 C4043 1.372 . S
C4043 C4042 1.372 . S
C4043 C4044 1.400 . S
C4043 C4048 1.490 . S
C4044 H4034 0.930 . S
C4044 C4043 1.400 . S
C4044 C4047 1.386 . S
H4045 C4061 0.930 . S
H4046 C4062 0.931 . S
C4047 H4035 0.929 . S
C4047 C4041 1.390 . S
C4047 C4044 1.386 . S
C4048 C4043 1.490 . S
C4048 C4050 1.395 . S
C4048 C4051 1.403 . S
H4049 C4055 0.930 . S
C4050 H4036 0.930 . S
C4050 C4048 1.395 . S
C4050 C4053 1.403 . S
C4051 C4048 1.403 . S
C4051 C4052 1.524 . S
C4051 C4055 1.400 . S
C4052 H4037 0.960 . S
C4052 H4038 0.960 . S
C4052 H4039 0.960 . S
C4052 C4051 1.524 . S
C4053 C4050 1.403 . S
C4053 C4054 1.392 . S
C4053 C4057 1.495 . S
C4054 C4053 1.392 . S
C4054 C4055 1.385 . S
C4054 C4056 1.478 . S
C4055 H4049 0.930 . S
C4055 C4051 1.400 . S
C4055 C4054 1.385 . S
C4056 C4054 1.478 . S
C4056 C4058 1.381 . S
C4056 C4062 1.383 . S
C4057 C4053 1.495 . S
C4057 H4063 0.959 . S
C4057 H4064 0.961 . S
C4057 H4065 0.960 . S
C4058 C4056 1.381 . S
C4058 C4059 1.394 . S
C4058 H4066 0.930 . S
C4059 C4058 1.394 . S
C4059 C4060 1.383 . S
C4059 H4067 0.929 . S
C4060 C4059 1.383 . S
C4060 C4061 1.377 . S
C4061 H4045 0.930 . S
C4061 C4060 1.377 . S
C4061 C4062 1.379 . S
C4062 H4046 0.931 . S
C4062 C4056 1.383 . S
C4062 C4061 1.379 . S
H4063 C4057 0.959 . S
H4064 C4057 0.961 . S
H4065 C4057 0.960 . S
H4066 C4058 0.930 . S
H4067 C4059 0.929 . S
H4068 C4076 0.929 . S
H4069 C4078 0.930 . S
H4070 C4080 0.930 . S
H4071 C4083 0.929 . S
H4072 C4086 0.930 . S
H4073 C4088 0.960 . S
H4074 C4088 0.960 . S
H4075 C4088 0.960 . S
C4076 H4068 0.929 . S
C4076 C4077 1.377 . S
C4076 C4078 1.384 . S
C4077 C4076 1.377 . S
C4077 C4083 1.390 . S
C4078 H4069 0.930 . S
C4078 C4076 1.384 . S
C4078 C4079 1.372 . S
C4079 C4078 1.372 . S
C4079 C4080 1.400 . S
C4079 C4084 1.490 . S
C4080 H4070 0.930 . S
C4080 C4079 1.400 . S
C4080 C4083 1.386 . S
H4081 C4097 0.930 . S
H4082 C4098 0.931 . S
C4083 H4071 0.929 . S
C4083 C4077 1.390 . S
C4083 C4080 1.386 . S
C4084 C4079 1.490 . S
C4084 C4086 1.395 . S
C4084 C4087 1.403 . S
H4085 C4091 0.930 . S
C4086 H4072 0.930 . S
C4086 C4084 1.395 . S
C4086 C4089 1.403 . S
C4087 C4084 1.403 . S
C4087 C4088 1.524 . S
C4087 C4091 1.400 . S
C4088 H4073 0.960 . S
C4088 H4074 0.960 . S
C4088 H4075 0.960 . S
C4088 C4087 1.524 . S
C4089 C4086 1.403 . S
C4089 C4090 1.392 . S
C4089 C4093 1.495 . S
C4090 C4089 1.392 . S
C4090 C4091 1.385 . S
C4090 C4092 1.478 . S
C4091 H4085 0.930 . S
C4091 C4087 1.400 . S
C4091 C4090 1.385 . S
C4092 C4090 1.478 . S
C4092 C4094 1.381 . S
C4092 C4098 1.383 . S
C4093 C4089 1.495 . S
C4093 H4099 0.959 . S
C4093 H4100 0.961 . S
C4093 H4101 0.960 . S
C4094 C4092 1.381 . S
C4094 C4095 1.394 . S
C4094 H4102 0.930 . S
C4095 C4094 1.394 . S
C4095 C4096 1.383 . S
C4095 H4103 0.929 . S
C4096 C4095 1.383 . S
C4096 C4097 1.377 . S
C4097 H4081 0.930 . S
C4097 C4096 1.377 . S
C4097 C4098 1.379 . S
C4098 H4082 0.931 . S
C4098 C4092 1.383 . S
C4098 C4097 1.379 . S
H4099 C4093 0.959 . S
H4100 C4093 0.961 . S
H4101 C4093 0.960 . S
H4102 C4094 0.930 . S
H4103 C4095 0.929 . S
H4104 C4112 0.929 . S
H4105 C4114 0.930 . S
H4106 C4116 0.930 . S
H4107 C4119 0.929 . S
H4108 C4122 0.930 . S
H4109 C4124 0.960 . S
H4110 C4124 0.960 . S
H4111 C4124 0.960 . S
C4112 H4104 0.929 . S
C4112 C4113 1.377 . S
C4112 C4114 1.384 . S
C4113 C4112 1.377 . S
C4113 C4119 1.390 . S
C4114 H4105 0.930 . S
C4114 C4112 1.384 . S
C4114 C4115 1.372 . S
C4115 C4114 1.372 . S
C4115 C4116 1.400 . S
C4115 C4120 1.490 . S
C4116 H4106 0.930 . S
C4116 C4115 1.400 . S
C4116 C4119 1.386 . S
H4117 C4133 0.930 . S
H4118 C4134 0.931 . S
C4119 H4107 0.929 . S
C4119 C4113 1.390 . S
C4119 C4116 1.386 . S
C4120 C4115 1.490 . S
C4120 C4122 1.395 . S
C4120 C4123 1.403 . S
H4121 C4127 0.930 . S
C4122 H4108 0.930 . S
C4122 C4120 1.395 . S
C4122 C4125 1.403 . S
C4123 C4120 1.403 . S
C4123 C4124 1.524 . S
C4123 C4127 1.400 . S
C4124 H4109 0.960 . S
C4124 H4110 0.960 . S
C4124 H4111 0.960 . S
C4124 C4123 1.524 . S
C4125 C4122 1.403 . S
C4125 C4126 1.392 . S
C4125 C4129 1.495 . S
C4126 C4125 1.392 . S
C4126 C4127 1.385 . S
C4126 C4128 1.478 . S
C4127 H4121 0.930 . S
C4127 C4123 1.400 . S
C4127 C4126 1.385 . S
C4128 C4126 1.478 . S
C4128 C4130 1.381 . S
C4128 C4134 1.383 . S
C4129 C4125 1.495 . S
C4129 H4135 0.959 . S
C4129 H4136 0.961 . S
C4129 H4137 0.960 . S
C4130 C4128 1.381 . S
C4130 C4131 1.394 . S
C4130 H4138 0.930 . S
C4131 C4130 1.394 . S
C4131 C4132 1.383 . S
C4131 H4139 0.929 . S
C4132 C4131 1.383 . S
C4132 C4133 1.377 . S
C4133 H4117 0.930 . S
C4133 C4132 1.377 . S
C4133 C4134 1.379 . S
C4134 H4118 0.931 . S
C4134 C4128 1.383 . S
C4134 C4133 1.379 . S
H4135 C4129 0.959 . S
H4136 C4129 0.961 . S
H4137 C4129 0.960 . S
H4138 C4130 0.930 . S
H4139 C4131 0.929 . S
H4140 C4148 0.929 . S
H4141 C4150 0.930 . S
H4142 C4152 0.930 . S
H4143 C4155 0.929 . S
H4144 C4158 0.930 . S
H4145 C4160 0.960 . S
H4146 C4160 0.960 . S
H4147 C4160 0.960 . S
C4148 H4140 0.929 . S
C4148 C4149 1.377 . S
C4148 C4150 1.384 . S
C4149 C4148 1.377 . S
C4149 C4155 1.390 . S
C4150 H4141 0.930 . S
C4150 C4148 1.384 . S
C4150 C4151 1.372 . S
C4151 C4150 1.372 . S
C4151 C4152 1.400 . S
C4151 C4156 1.490 . S
C4152 H4142 0.930 . S
C4152 C4151 1.400 . S
C4152 C4155 1.386 . S
H4153 C4169 0.930 . S
H4154 C4170 0.931 . S
C4155 H4143 0.929 . S
C4155 C4149 1.390 . S
C4155 C4152 1.386 . S
C4156 C4151 1.490 . S
C4156 C4158 1.395 . S
C4156 C4159 1.403 . S
H4157 C4163 0.930 . S
C4158 H4144 0.930 . S
C4158 C4156 1.395 . S
C4158 C4161 1.403 . S
C4159 C4156 1.403 . S
C4159 C4160 1.524 . S
C4159 C4163 1.400 . S
C4160 H4145 0.960 . S
C4160 H4146 0.960 . S
C4160 H4147 0.960 . S
C4160 C4159 1.524 . S
C4161 C4158 1.403 . S
C4161 C4162 1.392 . S
C4161 C4165 1.495 . S
C4162 C4161 1.392 . S
C4162 C4163 1.385 . S
C4162 C4164 1.478 . S
C4163 H4157 0.930 . S
C4163 C4159 1.400 . S
C4163 C4162 1.385 . S
C4164 C4162 1.478 . S
C4164 C4166 1.381 . S
C4164 C4170 1.383 . S
C4165 C4161 1.495 . S
C4165 H4171 0.959 . S
C4165 H4172 0.961 . S
C4165 H4173 0.960 . S
C4166 C4164 1.381 . S
C4166 C4167 1.394 . S
C4166 H4174 0.930 . S
C4167 C4166 1.394 . S
C4167 C4168 1.383 . S
C4167 H4175 0.929 . S
C4168 C4167 1.383 . S
C4168 C4169 1.377 . S
C4169 H4153 0.930 . S
C4169 C4168 1.377 . S
C4169 C4170 1.379 . S
C4170 H4154 0.931 . S
C4170 C4164 1.383 . S
C4170 C4169 1.379 . S
H4171 C4165 0.959 . S
H4172 C4165 0.961 . S
H4173 C4165 0.960 . S
H4174 C4166 0.930 . S
H4175 C4167 0.929 . S
H4176 C4184 0.929 . S
H4177 C4186 0.930 . S
H4178 C4188 0.930 . S
H4179 C4191 0.929 . S
H4180 C4194 0.930 . S
H4181 C4196 0.960 . S
H4182 C4196 0.960 . S
H4183 C4196 0.960 . S
C4184 H4176 0.929 . S
C4184 C4185 1.377 . S
C4184 C4186 1.384 . S
C4185 C4184 1.377 . S
C4185 C4191 1.390 . S
C4186 H4177 0.930 . S
C4186 C4184 1.384 . S
C4186 C4187 1.372 . S
C4187 C4186 1.372 . S
C4187 C4188 1.400 . S
C4187 C4192 1.490 . S
C4188 H4178 0.930 . S
C4188 C4187 1.400 . S
C4188 C4191 1.386 . S
H4189 C4205 0.930 . S
H4190 C4206 0.931 . S
C4191 H4179 0.929 . S
C4191 C4185 1.390 . S
C4191 C4188 1.386 . S
C4192 C4187 1.490 . S
C4192 C4194 1.395 . S
C4192 C4195 1.403 . S
H4193 C4199 0.930 . S
C4194 H4180 0.930 . S
C4194 C4192 1.395 . S
C4194 C4197 1.403 . S
C4195 C4192 1.403 . S
C4195 C4196 1.524 . S
C4195 C4199 1.400 . S
C4196 H4181 0.960 . S
C4196 H4182 0.960 . S
C4196 H4183 0.960 . S
C4196 C4195 1.524 . S
C4197 C4194 1.403 . S
C4197 C4198 1.392 . S
C4197 C4201 1.495 . S
C4198 C4197 1.392 . S
C4198 C4199 1.385 . S
C4198 C4200 1.478 . S
C4199 H4193 0.930 . S
C4199 C4195 1.400 . S
C4199 C4198 1.385 . S
C4200 C4198 1.478 . S
C4200 C4202 1.381 . S
C4200 C4206 1.383 . S
C4201 C4197 1.495 . S
C4201 H4207 0.959 . S
C4201 H4208 0.961 . S
C4201 H4209 0.960 . S
C4202 C4200 1.381 . S
C4202 C4203 1.394 . S
C4202 H4210 0.930 . S
C4203 C4202 1.394 . S
C4203 C4204 1.383 . S
C4203 H4211 0.929 . S
C4204 C4203 1.383 . S
C4204 C4205 1.377 . S
C4205 H4189 0.930 . S
C4205 C4204 1.377 . S
C4205 C4206 1.379 . S
C4206 H4190 0.931 . S
C4206 C4200 1.383 . S
C4206 C4205 1.379 . S
H4207 C4201 0.959 . S
H4208 C4201 0.961 . S
H4209 C4201 0.960 . S
H4210 C4202 0.930 . S
H4211 C4203 0.929 . S
H4212 C4220 0.929 . S
H4213 C4222 0.930 . S
H4214 C4224 0.930 . S
H4215 C4227 0.929 . S
H4216 C4230 0.930 . S
H4217 C4232 0.960 . S
H4218 C4232 0.960 . S
H4219 C4232 0.960 . S
C4220 H4212 0.929 . S
C4220 C4221 1.377 . S
C4220 C4222 1.384 . S
C4221 C4220 1.377 . S
C4221 C4227 1.390 . S
C4222 H4213 0.930 . S
C4222 C4220 1.384 . S
C4222 C4223 1.372 . S
C4223 C4222 1.372 . S
C4223 C4224 1.400 . S
C4223 C4228 1.490 . S
C4224 H4214 0.930 . S
C4224 C4223 1.400 . S
C4224 C4227 1.386 . S
H4225 C4241 0.930 . S
H4226 C4242 0.931 . S
C4227 H4215 0.929 . S
C4227 C4221 1.390 . S
C4227 C4224 1.386 . S
C4228 C4223 1.490 . S
C4228 C4230 1.395 . S
C4228 C4231 1.403 . S
H4229 C4235 0.930 . S
C4230 H4216 0.930 . S
C4230 C4228 1.395 . S
C4230 C4233 1.403 . S
C4231 C4228 1.403 . S
C4231 C4232 1.524 . S
C4231 C4235 1.400 . S
C4232 H4217 0.960 . S
C4232 H4218 0.960 . S
C4232 H4219 0.960 . S
C4232 C4231 1.524 . S
C4233 C4230 1.403 . S
C4233 C4234 1.392 . S
C4233 C4237 1.495 . S
C4234 C4233 1.392 . S
C4234 C4235 1.385 . S
C4234 C4236 1.478 . S
C4235 H4229 0.930 . S
C4235 C4231 1.400 . S
C4235 C4234 1.385 . S
C4236 C4234 1.478 . S
C4236 C4238 1.381 . S
C4236 C4242 1.383 . S
C4237 C4233 1.495 . S
C4237 H4243 0.959 . S
C4237 H4244 0.961 . S
C4237 H4245 0.960 . S
C4238 C4236 1.381 . S
C4238 C4239 1.394 . S
C4238 H4246 0.930 . S
C4239 C4238 1.394 . S
C4239 C4240 1.383 . S
C4239 H4247 0.929 . S
C4240 C4239 1.383 . S
C4240 C4241 1.377 . S
C4241 H4225 0.930 . S
C4241 C4240 1.377 . S
C4241 C4242 1.379 . S
C4242 H4226 0.931 . S
C4242 C4236 1.383 . S
C4242 C4241 1.379 . S
H4243 C4237 0.959 . S
H4244 C4237 0.961 . S
H4245 C4237 0.960 . S
H4246 C4238 0.930 . S
H4247 C4239 0.929 . S
H4248 C4256 0.929 . S
H4249 C4258 0.930 . S
H4250 C4260 0.930 . S
H4251 C4263 0.929 . S
H4252 C4266 0.930 . S
H4253 C4268 0.960 . S
H4254 C4268 0.960 . S
H4255 C4268 0.960 . S
C4256 H4248 0.929 . S
C4256 C4257 1.377 . S
C4256 C4258 1.384 . S
C4257 C4256 1.377 . S
C4257 C4263 1.390 . S
C4258 H4249 0.930 . S
C4258 C4256 1.384 . S
C4258 C4259 1.372 . S
C4259 C4258 1.372 . S
C4259 C4260 1.400 . S
C4259 C4264 1.490 . S
C4260 H4250 0.930 . S
C4260 C4259 1.400 . S
C4260 C4263 1.386 . S
H4261 C4277 0.930 . S
H4262 C4278 0.931 . S
C4263 H4251 0.929 . S
C4263 C4257 1.390 . S
C4263 C4260 1.386 . S
C4264 C4259 1.490 . S
C4264 C4266 1.395 . S
C4264 C4267 1.403 . S
H4265 C4271 0.930 . S
C4266 H4252 0.930 . S
C4266 C4264 1.395 . S
C4266 C4269 1.403 . S
C4267 C4264 1.403 . S
C4267 C4268 1.524 . S
C4267 C4271 1.400 . S
C4268 H4253 0.960 . S
C4268 H4254 0.960 . S
C4268 H4255 0.960 . S
C4268 C4267 1.524 . S
C4269 C4266 1.403 . S
C4269 C4270 1.392 . S
C4269 C4273 1.495 . S
C4270 C4269 1.392 . S
C4270 C4271 1.385 . S
C4270 C4272 1.478 . S
C4271 H4265 0.930 . S
C4271 C4267 1.400 . S
C4271 C4270 1.385 . S
C4272 C4270 1.478 . S
C4272 C4274 1.381 . S
C4272 C4278 1.383 . S
C4273 C4269 1.495 . S
C4273 H4279 0.959 . S
C4273 H4280 0.961 . S
C4273 H4281 0.960 . S
C4274 C4272 1.381 . S
C4274 C4275 1.394 . S
C4274 H4282 0.930 . S
C4275 C4274 1.394 . S
C4275 C4276 1.383 . S
C4275 H4283 0.929 . S
C4276 C4275 1.383 . S
C4276 C4277 1.377 . S
C4277 H4261 0.930 . S
C4277 C4276 1.377 . S
C4277 C4278 1.379 . S
C4278 H4262 0.931 . S
C4278 C4272 1.383 . S
C4278 C4277 1.379 . S
H4279 C4273 0.959 . S
H4280 C4273 0.961 . S
H4281 C4273 0.960 . S
H4282 C4274 0.930 . S
H4283 C4275 0.929 . S
H4284 C4292 0.929 . S
H4285 C4294 0.930 . S
H4286 C4296 0.930 . S
H4287 C4299 0.929 . S
H4288 C4302 0.930 . S
H4289 C4304 0.960 . S
H4290 C4304 0.960 . S
H4291 C4304 0.960 . S
C4292 H4284 0.929 . S
C4292 C4293 1.377 . S
C4292 C4294 1.384 . S
C4293 C4292 1.377 . S
C4293 C4299 1.390 . S
C4294 H4285 0.930 . S
C4294 C4292 1.384 . S
C4294 C4295 1.372 . S
C4295 C4294 1.372 . S
C4295 C4296 1.400 . S
C4295 C4300 1.490 . S
C4296 H4286 0.930 . S
C4296 C4295 1.400 . S
C4296 C4299 1.386 . S
H4297 C4313 0.930 . S
H4298 C4314 0.931 . S
C4299 H4287 0.929 . S
C4299 C4293 1.390 . S
C4299 C4296 1.386 . S
C4300 C4295 1.490 . S
C4300 C4302 1.395 . S
C4300 C4303 1.403 . S
H4301 C4307 0.930 . S
C4302 H4288 0.930 . S
C4302 C4300 1.395 . S
C4302 C4305 1.403 . S
C4303 C4300 1.403 . S
C4303 C4304 1.524 . S
C4303 C4307 1.400 . S
C4304 H4289 0.960 . S
C4304 H4290 0.960 . S
C4304 H4291 0.960 . S
C4304 C4303 1.524 . S
C4305 C4302 1.403 . S
C4305 C4306 1.392 . S
C4305 C4309 1.495 . S
C4306 C4305 1.392 . S
C4306 C4307 1.385 . S
C4306 C4308 1.478 . S
C4307 H4301 0.930 . S
C4307 C4303 1.400 . S
C4307 C4306 1.385 . S
C4308 C4306 1.478 . S
C4308 C4310 1.381 . S
C4308 C4314 1.383 . S
C4309 C4305 1.495 . S
C4309 H4315 0.959 . S
C4309 H4316 0.961 . S
C4309 H4317 0.960 . S
C4310 C4308 1.381 . S
C4310 C4311 1.394 . S
C4310 H4318 0.930 . S
C4311 C4310 1.394 . S
C4311 C4312 1.383 . S
C4311 H4319 0.929 . S
C4312 C4311 1.383 . S
C4312 C4313 1.377 . S
C4313 H4297 0.930 . S
C4313 C4312 1.377 . S
C4313 C4314 1.379 . S
C4314 H4298 0.931 . S
C4314 C4308 1.383 . S
C4314 C4313 1.379 . S
H4315 C4309 0.959 . S
H4316 C4309 0.961 . S
H4317 C4309 0.960 . S
H4318 C4310 0.930 . S
H4319 C4311 0.929 . S
H4320 C4328 0.929 . S
H4321 C4330 0.930 . S
H4322 C4332 0.930 . S
H4323 C4335 0.929 . S
H4324 C4338 0.930 . S
H4325 C4340 0.960 . S
H4326 C4340 0.960 . S
H4327 C4340 0.960 . S
C4328 H4320 0.929 . S
C4328 C4329 1.377 . S
C4328 C4330 1.384 . S
C4329 C4328 1.377 . S
C4329 C4335 1.390 . S
C4330 H4321 0.930 . S
C4330 C4328 1.384 . S
C4330 C4331 1.372 . S
C4331 C4330 1.372 . S
C4331 C4332 1.400 . S
C4331 C4336 1.490 . S
C4332 H4322 0.930 . S
C4332 C4331 1.400 . S
C4332 C4335 1.386 . S
H4333 C4349 0.930 . S
H4334 C4350 0.931 . S
C4335 H4323 0.929 . S
C4335 C4329 1.390 . S
C4335 C4332 1.386 . S
C4336 C4331 1.490 . S
C4336 C4338 1.395 . S
C4336 C4339 1.403 . S
H4337 C4343 0.930 . S
C4338 H4324 0.930 . S
C4338 C4336 1.395 . S
C4338 C4341 1.403 . S
C4339 C4336 1.403 . S
C4339 C4340 1.524 . S
C4339 C4343 1.400 . S
C4340 H4325 0.960 . S
C4340 H4326 0.960 . S
C4340 H4327 0.960 . S
C4340 C4339 1.524 . S
C4341 C4338 1.403 . S
C4341 C4342 1.392 . S
C4341 C4345 1.495 . S
C4342 C4341 1.392 . S
C4342 C4343 1.385 . S
C4342 C4344 1.478 . S
C4343 H4337 0.930 . S
C4343 C4339 1.400 . S
C4343 C4342 1.385 . S
C4344 C4342 1.478 . S
C4344 C4346 1.381 . S
C4344 C4350 1.383 . S
C4345 C4341 1.495 . S
C4345 H4351 0.959 . S
C4345 H4352 0.961 . S
C4345 H4353 0.960 . S
C4346 C4344 1.381 . S
C4346 C4347 1.394 . S
C4346 H4354 0.930 . S
C4347 C4346 1.394 . S
C4347 C4348 1.383 . S
C4347 H4355 0.929 . S
C4348 C4347 1.383 . S
C4348 C4349 1.377 . S
C4349 H4333 0.930 . S
C4349 C4348 1.377 . S
C4349 C4350 1.379 . S
C4350 H4334 0.931 . S
C4350 C4344 1.383 . S
C4350 C4349 1.379 . S
H4351 C4345 0.959 . S
H4352 C4345 0.961 . S
H4353 C4345 0.960 . S
H4354 C4346 0.930 . S
H4355 C4347 0.929 . S
H4356 C4364 0.929 . S
H4357 C4366 0.930 . S
H4358 C4368 0.930 . S
H4359 C4371 0.929 . S
H4360 C4374 0.930 . S
H4361 C4376 0.960 . S
H4362 C4376 0.960 . S
H4363 C4376 0.960 . S
C4364 H4356 0.929 . S
C4364 C4365 1.377 . S
C4364 C4366 1.384 . S
C4365 C4364 1.377 . S
C4365 C4371 1.390 . S
C4366 H4357 0.930 . S
C4366 C4364 1.384 . S
C4366 C4367 1.372 . S
C4367 C4366 1.372 . S
C4367 C4368 1.400 . S
C4367 C4372 1.490 . S
C4368 H4358 0.930 . S
C4368 C4367 1.400 . S
C4368 C4371 1.386 . S
H4369 C4385 0.930 . S
H4370 C4386 0.931 . S
C4371 H4359 0.929 . S
C4371 C4365 1.390 . S
C4371 C4368 1.386 . S
C4372 C4367 1.490 . S
C4372 C4374 1.395 . S
C4372 C4375 1.403 . S
H4373 C4379 0.930 . S
C4374 H4360 0.930 . S
C4374 C4372 1.395 . S
C4374 C4377 1.403 . S
C4375 C4372 1.403 . S
C4375 C4376 1.524 . S
C4375 C4379 1.400 . S
C4376 H4361 0.960 . S
C4376 H4362 0.960 . S
C4376 H4363 0.960 . S
C4376 C4375 1.524 . S
C4377 C4374 1.403 . S
C4377 C4378 1.392 . S
C4377 C4381 1.495 . S
C4378 C4377 1.392 . S
C4378 C4379 1.385 . S
C4378 C4380 1.478 . S
C4379 H4373 0.930 . S
C4379 C4375 1.400 . S
C4379 C4378 1.385 . S
C4380 C4378 1.478 . S
C4380 C4382 1.381 . S
C4380 C4386 1.383 . S
C4381 C4377 1.495 . S
C4381 H4387 0.959 . S
C4381 H4388 0.961 . S
C4381 H4389 0.960 . S
C4382 C4380 1.381 . S
C4382 C4383 1.394 . S
C4382 H4390 0.930 . S
C4383 C4382 1.394 . S
C4383 C4384 1.383 . S
C4383 H4391 0.929 . S
C4384 C4383 1.383 . S
C4384 C4385 1.377 . S
C4385 H4369 0.930 . S
C4385 C4384 1.377 . S
C4385 C4386 1.379 . S
C4386 H4370 0.931 . S
C4386 C4380 1.383 . S
C4386 C4385 1.379 . S
H4387 C4381 0.959 . S
H4388 C4381 0.961 . S
H4389 C4381 0.960 . S
H4390 C4382 0.930 . S
H4391 C4383 0.929 . S
C964 N396 1.781 . S
C945 C9 1.837 . S
C1000 C423 1.533 . S
C981 C16 1.532 . S
C1017 C30 1.914 . S
C1036 C437 1.918 . S
C1072 N455 0.508 . S
C1053 C40 0.471 . S
C1089 C52 1.504 . S
C1108 C460 1.511 . S
C1125 C66 1.874 . S
C1144 C400 1.871 . S
C1161 C76 0.430 . S
C1180 N419 0.398 . S
C1216 N432 1.854 . S
C1197 C90 1.873 . S
C1252 N478 1.824 . S
C1233 C6 1.885 . S
C1269 C21 1.676 . S
C1288 N501 1.623 . S
C1305 C28 1.699 . S
C1324 N524 1.671 . S
C1360 N557 1.047 . S
C1341 C45 1.077 . S
C1377 C54 1.570 . S
C1396 C584 1.569 . S
C1432 C607 2.156 . S
C1413 C69 2.156 . S
C1449 C81 0.867 . S
C1468 C630 0.872 1_655 S
C1504 C644 1.586 1_565 S
C1485 C88 1.585 . S
C1521 C4 1.519 . S
C1540 C561 1.499 . S
C1557 C57 1.631 . S
C1576 N603 1.616 . S
C1612 N626 1.624 . S
C1593 C64 1.640 . S
C1629 C78 1.047 . S
C1648 N639 1.058 . S
C1684 N580 1.803 . S
C1665 C93 1.876 . S
C1720 C506 2.218 . S
C1701 C33 2.210 . S
C1737 C42 0.838 . S
C1756 C529 0.833 . S
C1792 C483 1.628 . S
C1773 C18 1.629 . S
C1828 C676 1.784 . S
C1809 C105 1.790 . S
C1845 C112 1.514 . S
C1864 C690 1.523 . S
C1881 C126 1.873 . S
C1900 N718 1.836 . S
C1936 N731 0.406 . S
C1917 C136 0.435 . S
C1953 C148 1.491 . S
C1972 C736 1.497 . S
C1989 C162 1.814 . S
C2008 N672 1.775 . S
C2025 C172 0.521 . S
C2044 N685 0.484 . S
C2061 C186 1.783 . S
C2080 C722 1.769 . S
C2116 N570 1.842 . S
C2097 C102 1.893 . S
C2133 C117 1.600 . S
C2152 N754 1.576 . S
C2188 N616 1.602 1_655 S
C2169 C124 1.639 . S
C2205 C141 1.030 . S
C2224 C791 1.021 . S
C2241 C150 1.669 . S
C2260 C492 1.653 . S
C2296 C805 2.199 . S
C2277 C165 2.195 . S
C2313 C177 0.963 . S
C2332 C538 0.972 . S
C2368 N823 1.434 . S
C2349 C184 1.495 . S
C2385 C100 1.548 . S
C2404 N787 1.505 . S
C2440 N800 1.547 . S
C2421 C153 1.595 . S
C2457 C160 1.636 . S
C2476 N534 1.617 . S
C2512 C828 0.846 . S
C2493 C174 0.845 . S
C2529 C189 1.859 . S
C2548 N488 1.798 . S
C2565 C129 2.129 . S
C2584 C759 2.129 . S
C2601 C138 0.947 . S
C2620 C621 0.952 . S
C2637 C114 1.689 . S
C2656 C575 1.694 . S
C2673 C201 1.869 . S
C2692 C713 1.873 . S
C2728 C745 1.458 . S
C2709 C208 1.456 . S
C2745 C222 1.883 . S
C2764 N662 1.861 . S
C2781 C232 0.476 . S
C2800 N695 0.462 . S
C2817 C244 1.516 . S
C2836 C699 1.522 . S
C2853 C258 1.944 . S
C2872 N708 1.897 . S
C2908 N741 0.397 . S
C2889 C268 0.402 . S
C2925 C282 1.865 . S
C2944 C667 1.872 . S
C2980 N856 1.892 . S
C2961 C198 1.920 . S
C2997 C213 1.566 . S
C3016 N593 1.549 . S
C3052 N879 1.514 . S
C3033 C220 1.565 . S
C3069 C237 1.107 . S
C3088 N649 1.039 . S
C3105 C246 1.626 . S
C3124 C897 1.626 . S
C3141 C261 2.239 . S
C3160 C515 2.239 . S
C3196 N915 0.882 . S
C3177 C273 0.900 . S
C3213 C280 1.581 . S
C3232 C552 1.595 . S
C3268 C653 1.558 . S
C3249 C196 1.586 . S
C3304 N511 1.570 . S
C3285 C249 1.622 . S
C3321 C256 1.782 . S
C3340 C920 1.790 . S
C3357 C270 0.890 . S
C3376 N547 0.871 . S
C3412 N892 1.891 . S
C3393 C285 1.915 . S
C3448 C598 2.099 1_565 S
C3429 C225 2.102 . S
C3484 C883 0.957 . S
C3465 C234 0.960 . S
C3520 C860 1.653 . S
C3501 C210 1.650 . S
C3537 C297 1.780 . S
C3556 N442 1.760 . S
C3573 C304 1.471 . S
C3592 C469 1.474 . S
C3628 C391 1.942 . S
C3609 C318 1.937 . S
C3664 N409 0.416 . S
C3645 C328 0.380 . S
C3700 C414 1.532 . S
C3681 C340 1.528 . S
C3736 C446 1.795 . S
C3717 C354 1.801 . S
C3772 N465 0.516 . S
C3753 C364 0.550 . S
C3789 C378 1.867 . S
C3808 N386 1.849 . S
C3825 C294 1.844 . S
C3844 N902 1.816 . S
C3880 N810 1.558 . S
C3861 C309 1.600 . S
C3916 C929 1.785 . S
C3897 C316 1.794 . S
C3952 C837 0.827 . S
C3933 C333 0.836 . S
C3969 C342 1.676 . S
C3988 C851 1.663 . S
C4024 C768 2.161 . S
C4005 C357 2.176 . S
C4060 C874 1.095 . S
C4041 C369 1.094 . S
C4077 C376 1.601 . S
C4096 N777 1.536 . S
C4132 N833 1.455 . S
C4113 C292 1.463 . S
C4168 N764 1.554 . S
C4149 C345 1.598 . S
C4204 N869 1.534 . S
C4185 C352 1.562 . S
C4221 C366 0.961 . S
C4240 C782 0.959 . S
C4257 C381 1.849 . S
C4276 N846 1.788 . S
C4293 C321 2.237 . S
C4312 C814 2.235 . S
C4329 C330 0.905 . S
C4348 N925 0.876 . S
C4384 C906 1.595 . S
C4365 C306 1.598 . S
