# Generated by pormake.
# Topology tsx, (6,3)-cn, num edge types: 1
# Building blocks:
#     Node 0, Type 0, BuildingBlock: FUNLAD_clean_sbu_0, # of connection points: 6
#     Node 1, Type 0, BuildingBlock: FUNLAD_clean_sbu_0, # of connection points: 6
#     Node 2, Type 1, BuildingBlock: BELTOD_clean_linker_0, # of connection points: 3
#     Node 3, Type 1, BuildingBlock: BELTOD_clean_linker_0, # of connection points: 3
#     Node 4, Type 1, BuildingBlock: BELTOD_clean_linker_0, # of connection points: 3
#     Node 5, Type 1, BuildingBlock: BELTOD_clean_linker_0, # of connection points: 3
#     Edge 6, Type (0, 1), BuildingBlock: EZIPEK_clean_linker_0, # of connection points: 2
#     Edge 7, Type (0, 1), BuildingBlock: EZIPEK_clean_linker_0, # of connection points: 2
#     Edge 8, Type (0, 1), BuildingBlock: EZIPEK_clean_linker_0, # of connection points: 2
#     Edge 9, Type (0, 1), BuildingBlock: EZIPEK_clean_linker_0, # of connection points: 2
#     Edge 10, Type (0, 1), BuildingBlock: EZIPEK_clean_linker_0, # of connection points: 2
#     Edge 11, Type (0, 1), BuildingBlock: EZIPEK_clean_linker_0, # of connection points: 2
#     Edge 12, Type (0, 1), BuildingBlock: EZIPEK_clean_linker_0, # of connection points: 2
#     Edge 13, Type (0, 1), BuildingBlock: EZIPEK_clean_linker_0, # of connection points: 2
#     Edge 14, Type (0, 1), BuildingBlock: EZIPEK_clean_linker_0, # of connection points: 2
#     Edge 15, Type (0, 1), BuildingBlock: EZIPEK_clean_linker_0, # of connection points: 2
#     Edge 16, Type (0, 1), BuildingBlock: EZIPEK_clean_linker_0, # of connection points: 2
#     Edge 17, Type (0, 1), BuildingBlock: EZIPEK_clean_linker_0, # of connection points: 2
# Relax obj value: 0.151
# Max RMSD: 0.147
# Mean RMSD: 0.068
data_MOF--net-tsx--node1-FUNLAD_clean_sbu_0--node2-BELTOD_clean_linker_0--edge1-EZIPEK_clean_linker_0
_symmetry_space_group_name_H-M    P1
_symmetry_Int_Tables_number       1
_symmetry_cell_setting            triclinic
loop_
_symmetry_equiv_pos_as_xyz
'x, y, z'
_cell_length_a     16.325296
_cell_length_b     18.035659
_cell_length_c     37.518085
_cell_angle_alpha  91.190157
_cell_angle_beta   91.434118
_cell_angle_gamma 90.157652
loop_
_atom_site_label
_atom_site_type_symbol
_atom_site_fract_x
_atom_site_fract_y
_atom_site_fract_z
_atom_type_partial_charge
C0 C 0.8838 0.90089 0.00516 0.0
N1 N 0.99032 0.05545 0.0737 0.0
C2 C 0.91467 0.06287 0.08782 0.0
C3 C 0.90652 0.07218 0.12449 0.0
C4 C 0.97699 0.07407 0.14643 0.0
C5 C 0.05436 0.06976 0.13126 0.0
C6 C 0.05972 0.06026 0.09444 0.0
Zn7 Zn 0.9975 0.02657 0.02151 0.0
C8 C 0.11891 0.90738 0.00794 0.0
N9 N 0.00555 0.96224 0.91211 0.0
C10 C 0.93644 0.95609 0.89117 0.0
C11 C 0.08137 0.95495 0.89816 0.0
C12 C 0.08998 0.94291 0.86168 0.0
C13 C 0.01995 0.9394 0.83947 0.0
C14 C 0.94233 0.94504 0.85437 0.0
Zn15 Zn -0.00122 0.99133 0.96462 0.0
O16 O 0.90717 0.94736 0.02901 0.0
C17 C 0.87911 0.11025 0.97632 0.0
O18 O 0.91085 0.90556 0.97371 0.0
H19 H 0.1355 0.96076 0.91517 0.0
H20 H 0.86038 0.05859 0.07078 0.0
H21 H 0.87687 0.96205 0.90286 0.0
O22 O 0.90687 0.10648 0.00817 0.0
O23 O 0.90542 0.06638 0.95245 0.0
H24 H 0.11905 0.05399 0.08256 0.0
O25 O 0.08855 0.07701 0.95735 0.0
O26 O 0.08818 0.10571 0.01456 0.0
O27 O 0.09135 0.91667 0.97654 0.0
O28 O 0.09008 0.94528 0.03368 0.0
C29 C 0.1162 0.11553 0.98382 0.0
H30 H 0.84612 0.07523 0.13574 0.0
H31 H 0.10964 0.07092 0.14785 0.0
H32 H 0.15062 0.93908 0.85071 0.0
H33 H 0.88732 0.94261 0.83763 0.0
C34 C 0.38272 0.40093 0.50519 0.0
N35 N 0.48931 0.55549 0.57369 0.0
C36 C 0.41365 0.56302 0.5878 0.0
C37 C 0.40548 0.57233 0.62447 0.0
C38 C 0.47593 0.5741 0.64642 0.0
C39 C 0.55331 0.56968 0.63126 0.0
C40 C 0.55869 0.5602 0.59445 0.0
Zn41 Zn 0.49649 0.52657 0.52151 0.0
C42 C 0.61785 0.4073 0.50796 0.0
N43 N 0.50452 0.46212 0.41211 0.0
C44 C 0.43544 0.45602 0.39116 0.0
C45 C 0.58035 0.45482 0.39818 0.0
C46 C 0.58901 0.44284 0.3617 0.0
C47 C 0.51901 0.43938 0.33946 0.0
C48 C 0.44137 0.44502 0.35435 0.0
Zn49 Zn 0.49774 0.49124 0.46462 0.0
O50 O 0.40613 0.44742 0.52902 0.0
C51 C 0.37812 0.61022 0.47629 0.0
O52 O 0.40976 0.40553 0.47374 0.0
H53 H 0.63447 0.46061 0.4152 0.0
H54 H 0.35937 0.55881 0.57075 0.0
H55 H 0.37585 0.46199 0.40283 0.0
O56 O 0.40589 0.6065 0.50814 0.0
O57 O 0.40441 0.5663 0.45244 0.0
H58 H 0.61803 0.55385 0.58258 0.0
O59 O 0.58756 0.57689 0.45734 0.0
O60 O 0.58719 0.60567 0.51455 0.0
O61 O 0.59027 0.41655 0.47656 0.0
O62 O 0.58905 0.44526 0.53369 0.0
C63 C 0.61521 0.61544 0.4838 0.0
H64 H 0.34508 0.57548 0.63571 0.0
H65 H 0.60858 0.57075 0.64787 0.0
H66 H 0.64966 0.43901 0.35074 0.0
H67 H 0.38637 0.44263 0.3376 0.0
P68 P 0.07248 0.08563 0.41736 0.0
H69 H 0.98812 0.22393 0.40547 0.0
H70 H 0.88384 0.29188 0.43858 0.0
H71 H 0.88661 0.12301 0.51834 0.0
H72 H 0.99059 0.05469 0.48472 0.0
H73 H 0.20322 0.03859 0.46501 0.0
H74 H 0.25939 0.91644 0.47833 0.0
H75 H 0.06221 0.81236 0.41714 0.0
H76 H 0.00491 0.93547 0.40414 0.0
H77 H 0.91157 0.08438 0.37973 0.0
H78 H 0.16691 0.06389 0.35392 0.0
O79 O 0.15629 0.13884 0.41896 0.0
H80 H 0.87425 0.08187 0.31583 0.0
H81 H 0.12923 0.05965 0.29025 0.0
C82 C 0.99497 0.13302 0.44214 0.0
C83 C 0.96582 0.20111 0.4299 0.0
C84 C 0.9071 0.24015 0.4489 0.0
C85 C 0.87741 0.21202 0.48066 0.0
C86 C 0.9086 0.14516 0.49371 0.0
C87 C 0.96705 0.10577 0.47439 0.0
C88 C 0.10051 0.99592 0.43348 0.0
C89 C 0.17045 0.98963 0.45545 0.0
C90 C 0.20237 0.92004 0.46309 0.0
C91 C 0.1647 0.85568 0.44889 0.0
C92 C 0.09171 0.86154 0.42854 0.0
C93 C 0.05934 0.93159 0.42108 0.0
C94 C 0.04224 0.07656 0.3713 0.0
C95 C 0.95946 0.07935 0.36041 0.0
C96 C 0.93807 0.0776 0.32412 0.0
C97 C -0.00069 0.07132 0.29872 0.0
C98 C 0.08155 0.06502 0.30971 0.0
C99 C 0.10289 0.06753 0.34587 0.0
P100 P 0.11494 0.90469 0.56757 0.0
H101 H 0.00943 0.78178 0.58403 0.0
H102 H 0.88969 0.72574 0.55357 0.0
H103 H 0.90347 0.88759 0.47086 0.0
H104 H 0.02547 0.94271 0.50147 0.0
H105 H 0.26924 0.96126 0.54199 0.0
H106 H 0.31617 0.08526 0.52757 0.0
H107 H 0.07851 0.17395 0.5522 0.0
H108 H 0.02979 0.04789 0.5648 0.0
H109 H 0.96947 0.93975 0.60845 0.0
H110 H 0.22377 0.88803 0.62982 0.0
O111 O 0.19024 0.84425 0.56028 0.0
H112 H 0.94546 0.94641 0.67269 0.0
H113 H 0.19994 0.89674 0.69425 0.0
C114 C 0.024 0.86834 0.54558 0.0
C115 C 0.98605 0.80609 0.55967 0.0
C116 C 0.91817 0.77389 0.54223 0.0
C117 C 0.88754 0.80308 0.51026 0.0
C118 C 0.92572 0.86511 0.49582 0.0
C119 C 0.99413 0.89729 0.51343 0.0
C120 C 0.14547 0.99513 0.55354 0.0
C121 C 0.22627 0.00675 0.54334 0.0
C122 C 0.25321 0.07765 0.53527 0.0
C123 C 0.20051 0.13872 0.53824 0.0
C124 C 0.11963 0.12739 0.549 0.0
C125 C 0.09202 0.05572 0.55623 0.0
C126 C 0.09788 0.91129 0.61454 0.0
C127 C 0.01994 0.92938 0.62693 0.0
C128 C 0.0062 0.9334 0.66345 0.0
C129 C 0.07082 0.92129 0.68791 0.0
C130 C 0.14941 0.90555 0.67557 0.0
C131 C 0.16286 0.90054 0.63898 0.0
P132 P 0.57304 0.58536 0.91719 0.0
H133 H 0.48979 0.72433 0.90563 0.0
H134 H 0.38568 0.7924 0.93879 0.0
H135 H 0.38703 0.62269 0.01813 0.0
H136 H 0.49077 0.55421 0.98445 0.0
H137 H 0.7035 0.53864 0.96506 0.0
H138 H 0.75989 0.41659 0.97846 0.0
H139 H 0.5633 0.3121 0.91707 0.0
H140 H 0.50582 0.43508 0.90396 0.0
H141 H 0.41177 0.5853 0.87983 0.0
H142 H 0.66662 0.56216 0.85362 0.0
O143 O 0.65698 0.63842 0.91853 0.0
H144 H 0.37392 0.58289 0.81599 0.0
H145 H 0.62837 0.55802 0.79001 0.0
C146 C 0.49595 0.63303 0.94209 0.0
C147 C 0.46726 0.70139 0.92999 0.0
C148 C 0.40863 0.74048 0.94902 0.0
C149 C 0.37855 0.71214 0.98066 0.0
C150 C 0.40934 0.64502 -0.0064 0.0
C151 C 0.46768 0.60557 0.97424 0.0
C152 C 0.60112 0.49573 0.93339 0.0
C153 C 0.67091 0.4896 0.95547 0.0
C154 C 0.70295 0.42008 0.96316 0.0
C155 C 0.66551 0.35563 0.94892 0.0
C156 C 0.59262 0.36134 0.92849 0.0
C157 C 0.56015 0.43132 0.92097 0.0
C158 C 0.54227 0.57613 0.87119 0.0
C159 C 0.45944 0.57969 0.86043 0.0
C160 C 0.43774 0.57799 0.82418 0.0
C161 C 0.49868 0.57102 0.79868 0.0
C162 C 0.58092 0.56392 0.80955 0.0
C163 C 0.60258 0.56637 0.84567 0.0
P164 P 0.61586 0.40468 0.06771 0.0
H165 H 0.51042 0.28167 0.08407 0.0
H166 H 0.39071 0.22566 0.05357 0.0
H167 H 0.40457 0.38765 0.97092 0.0
H168 H 0.52655 0.44272 0.00157 0.0
H169 H 0.77035 0.461 0.0422 0.0
H170 H 0.81747 0.58489 0.0277 0.0
H171 H 0.57974 0.67386 0.05198 0.0
H172 H 0.53085 0.54791 0.06468 0.0
H173 H 0.47006 0.43992 0.10834 0.0
H174 H 0.7242 0.38825 0.13015 0.0
O175 O 0.69117 0.34416 0.06059 0.0
H176 H 0.44549 0.44665 0.17254 0.0
H177 H 0.69981 0.39705 0.19453 0.0
C178 C 0.52504 0.36827 0.04565 0.0
C179 C 0.48708 0.306 0.05971 0.0
C180 C 0.41921 0.27383 0.04225 0.0
C181 C 0.3886 0.30307 0.01029 0.0
C182 C 0.4268 0.36512 -0.00413 0.0
C183 C 0.49521 0.39727 0.01351 0.0
C184 C 0.64655 0.49502 0.05361 0.0
C185 C 0.72741 0.50652 0.04346 0.0
C186 C 0.75447 0.57736 0.03534 0.0
C187 C 0.7018 0.63848 0.03819 0.0
C188 C 0.62084 0.62726 0.04887 0.0
C189 C 0.59313 0.55565 0.05617 0.0
C190 C 0.59843 0.41149 0.11465 0.0
C191 C 0.52038 0.4296 0.12691 0.0
C192 C 0.50632 0.43366 0.1634 0.0
C193 C 0.57073 0.42158 0.18797 0.0
C194 C 0.64944 0.40584 0.17576 0.0
C195 C 0.66321 0.40079 0.1392 0.0
C196 C 0.16865 0.24479 -0.00856 0.0
C197 C 0.18255 0.1705 0.98001 0.0
C198 C 0.32845 0.19804 0.97427 0.0
C199 C 0.31668 0.26646 -0.00745 0.0
N200 N 0.2266 0.35767 0.01796 0.0
N201 N 0.27637 0.0742 0.96182 0.0
C202 C 0.23677 0.29141 0.00031 0.0
C203 C 0.26237 0.1468 0.9709 0.0
N204 N 0.09018 0.27023 -0.00605 0.0
N205 N 0.40334 0.18201 0.96068 0.0
H206 H 0.23004 0.0345 0.95925 0.0
H207 H 0.33477 0.05193 0.9593 0.0
H208 H 0.45223 0.21935 0.96269 0.0
H209 H 0.41444 0.13576 0.94445 0.0
H210 H 0.07557 0.32554 -0.00099 0.0
H211 H 0.03922 0.23688 0.98784 0.0
H212 H 0.17119 0.37496 0.02841 0.0
H213 H 0.27501 0.39424 0.02366 0.0
C214 C 0.26458 0.87199 0.02196 0.0
C215 C 0.18275 0.85053 0.01319 0.0
C216 C 0.2291 0.72916 -0.00853 0.0
C217 C 0.31119 0.752 -0.00153 0.0
N218 N 0.40685 0.83422 0.02899 0.0
N219 N 0.08464 0.75378 -0.0009 0.0
C220 C 0.32867 0.81981 0.0169 0.0
C221 C 0.16439 0.77701 0.00141 0.0
N222 N 0.28161 0.94349 0.03251 0.0
N223 N 0.21318 0.66428 0.97303 0.0
H224 H 0.03588 0.78864 0.00512 0.0
H225 H 0.06712 0.69889 -0.00581 0.0
H226 H 0.25875 0.62687 0.96585 0.0
H227 H 0.15535 0.64918 0.96301 0.0
H228 H 0.34072 0.9651 0.03491 0.0
H229 H 0.23616 0.98279 0.03711 0.0
H230 H 0.42284 0.87982 0.04519 0.0
H231 H 0.45457 0.79658 0.0254 0.0
C232 C 0.85447 0.79469 0.04512 0.0
C233 C 0.83084 0.83847 0.01543 0.0
C234 C 0.71176 0.7578 0.00372 0.0
C235 C 0.73613 0.71407 0.03319 0.0
N236 N 0.81189 0.70657 0.08882 0.0
N237 N 0.72589 0.87423 0.97293 0.0
C238 C 0.80142 0.73786 0.05614 0.0
C239 C 0.7559 0.82389 -0.00335 0.0
N240 N 0.92947 0.80413 0.06172 0.0
N241 N 0.6482 0.73505 0.98192 0.0
H242 H 0.75615 0.92366 0.96763 0.0
H243 H 0.66773 0.87069 0.96099 0.0
H244 H 0.61446 0.68755 0.98668 0.0
H245 H 0.6319 0.76061 0.95817 0.0
H246 H 0.95294 0.76769 0.08055 0.0
H247 H 0.97217 0.8437 0.05454 0.0
H248 H 0.85342 0.72672 0.10824 0.0
H249 H 0.77265 0.66572 0.09796 0.0
C250 C 0.84143 0.22228 0.94152 0.0
C251 C 0.81951 0.16799 0.96647 0.0
C252 C 0.68846 0.23012 0.97599 0.0
C253 C 0.71084 0.2846 0.95128 0.0
N254 N 0.79596 0.32115 0.90312 0.0
N255 N 0.71643 0.10972 0.00136 0.0
C256 C 0.78336 0.2768 0.93162 0.0
C257 C 0.74118 0.16876 0.98196 0.0
N258 N 0.91916 0.22439 0.92874 0.0
N259 N 0.61777 0.23804 -0.00577 0.0
H260 H 0.75335 0.06356 0.00589 0.0
H261 H 0.65724 0.10335 0.01053 0.0
H262 H 0.57524 0.2788 0.98806 0.0
H263 H 0.60251 0.20618 0.01592 0.0
H264 H 0.94144 0.26805 0.91402 0.0
H265 H 0.96417 0.18575 0.93522 0.0
H266 H 0.84355 0.3133 0.88548 0.0
H267 H 0.75399 0.36131 0.89496 0.0
C268 C 0.66762 0.74472 0.49138 0.0
C269 C 0.68155 0.67041 0.47998 0.0
C270 C 0.82747 0.69796 0.47427 0.0
C271 C 0.81565 0.7664 0.49253 0.0
N272 N 0.72551 0.85765 0.51787 0.0
N273 N 0.7754 0.57411 0.46183 0.0
C274 C 0.73572 0.79136 0.50025 0.0
C275 C 0.76139 0.64672 0.47089 0.0
N276 N 0.58914 0.77016 0.49385 0.0
N277 N 0.90238 0.68191 0.46072 0.0
H278 H 0.72907 0.53441 0.45924 0.0
H279 H 0.83381 0.55183 0.45933 0.0
H280 H 0.95127 0.71925 0.46274 0.0
H281 H 0.91352 0.63564 0.44452 0.0
H282 H 0.57452 0.82547 0.49889 0.0
H283 H 0.5382 0.73679 0.48773 0.0
H284 H 0.67007 0.87495 0.52829 0.0
H285 H 0.77391 0.89423 0.52358 0.0
C286 C 0.76357 0.37199 0.52191 0.0
C287 C 0.68172 0.35048 0.51322 0.0
C288 C 0.72803 0.22899 0.49162 0.0
C289 C 0.81013 0.25191 0.49851 0.0
N290 N 0.9059 0.33433 0.52884 0.0
N291 N 0.58358 0.25367 0.49927 0.0
C292 C 0.82766 0.31981 0.51684 0.0
C293 C 0.66334 0.2769 0.50152 0.0
N294 N 0.78059 0.44353 0.53238 0.0
N295 N 0.71209 0.16394 0.47332 0.0
H296 H 0.53483 0.28857 0.50525 0.0
H297 H 0.56603 0.19877 0.49442 0.0
H298 H 0.75767 0.12648 0.46622 0.0
H299 H 0.65424 0.14871 0.46337 0.0
H300 H 0.8397 0.46518 0.53472 0.0
H301 H 0.73515 0.48283 0.53699 0.0
H302 H 0.92196 0.38001 0.54496 0.0
H303 H 0.95362 0.29668 0.52524 0.0
C304 C 0.35328 0.29479 0.54517 0.0
C305 C 0.32966 0.33861 0.51549 0.0
C306 C 0.21032 0.25819 0.50387 0.0
C307 C 0.23478 0.21436 0.53329 0.0
N308 N 0.31071 0.20665 0.58886 0.0
N309 N 0.22466 0.37459 0.47306 0.0
C310 C 0.30018 0.23802 0.55621 0.0
C311 C 0.25461 0.32419 0.49676 0.0
N312 N 0.42831 0.30417 0.56175 0.0
N313 N 0.14652 0.23566 0.48216 0.0
H314 H 0.25504 0.42395 0.46774 0.0
H315 H 0.16645 0.37119 0.46116 0.0
H316 H 0.11259 0.18831 0.48698 0.0
H317 H 0.13011 0.26127 0.45844 0.0
H318 H 0.45179 0.2677 0.58057 0.0
H319 H 0.47103 0.34373 0.55458 0.0
H320 H 0.35232 0.2267 0.60827 0.0
H321 H 0.27142 0.16583 0.59801 0.0
C322 C 0.24021 0.66877 0.48193 0.0
C323 C 0.31852 0.66795 0.46642 0.0
C324 C 0.28233 0.77667 0.43151 0.0
C325 C 0.20987 0.78456 0.4512 0.0
N326 N 0.11685 0.73811 0.4942 0.0
N327 N 0.41811 0.72421 0.42862 0.0
C328 C 0.18751 0.73013 0.47594 0.0
C329 C 0.34041 0.72216 0.44143 0.0
N330 N 0.21546 0.60978 0.50137 0.0
N331 N 0.29489 0.82094 0.40299 0.0
H332 H 0.46312 0.68559 0.43511 0.0
H333 H 0.44037 0.76782 0.41385 0.0
H334 H 0.25289 0.86108 0.39482 0.0
H335 H 0.34243 0.81304 0.38532 0.0
H336 H 0.15629 0.60345 0.51056 0.0
H337 H 0.25238 0.56362 0.50591 0.0
H338 H 0.10161 0.7063 0.51591 0.0
H339 H 0.07433 0.77888 0.48803 0.0
C340 C 0.96448 0.00607 0.20332 0.0
C341 C 0.97011 0.07454 0.18554 0.0
C342 C 0.9834 0.1422 0.24251 0.0
C343 C 0.97882 0.07365 0.26026 0.0
N344 N 0.94816 0.94295 0.25923 0.0
N345 N 0.9678 0.20805 0.18696 0.0
C346 C 0.96361 0.00633 0.24112 0.0
C347 C 0.97393 0.14286 0.20481 0.0
N348 N 0.96334 0.94082 0.18403 0.0
N349 N -0.00021 0.20608 0.2617 0.0
H350 H 0.9621 0.21015 0.15924 0.0
H351 H 0.96206 0.25971 0.1995 0.0
H352 H 0.00338 0.20811 0.28951 0.0
H353 H 0.0138 0.25645 0.25023 0.0
H354 H 0.96912 0.88886 0.19535 0.0
H355 H 0.96122 0.93841 0.15622 0.0
H356 H 0.92852 0.8935 0.247 0.0
H357 H 0.94867 0.94121 0.28701 0.0
C358 C 0.0452 0.00066 0.78158 0.0
C359 C 0.02885 0.93488 0.80034 0.0
C360 C 0.04244 0.85992 0.74561 0.0
C361 C 0.0561 0.92594 0.72664 0.0
N362 N 0.06253 0.05936 0.72461 0.0
N363 N 0.0024 0.80345 0.80081 0.0
C364 C 0.05512 0.99646 0.74409 0.0
C365 C 0.02464 0.86486 0.78249 0.0
N366 N 0.05306 0.06686 0.79989 0.0
N367 N 0.0481 0.79256 0.72838 0.0
H368 H 0.99164 0.80474 0.8281 0.0
H369 H 0.98957 0.75202 0.78887 0.0
H370 H 0.05737 0.78691 0.70105 0.0
H371 H 0.04814 0.74199 0.74121 0.0
H372 H 0.07476 0.11533 0.78885 0.0
H373 H 0.04177 0.07298 0.82703 0.0
H374 H 0.05276 0.11266 0.73471 0.0
H375 H 0.07417 0.05846 0.6974 0.0
C376 C 0.47346 0.64285 0.70482 0.0
C377 C 0.46902 0.57458 0.68554 0.0
C378 C 0.46204 0.50638 0.7411 0.0
C379 C 0.47794 0.57356 0.76024 0.0
N380 N 0.50012 0.70583 0.7617 0.0
N381 N 0.46113 0.4409 0.684 0.0
C382 C 0.48307 0.64209 0.74251 0.0
C383 C 0.46283 0.50614 0.7033 0.0
N384 N 0.46778 0.7081 0.687 0.0
N385 N 0.44601 0.44311 0.7592 0.0
H386 H 0.45901 0.43852 0.65618 0.0
H387 H 0.46647 0.3889 0.69531 0.0
H388 H 0.44651 0.44138 0.78698 0.0
H389 H 0.42587 0.39382 0.74696 0.0
H390 H 0.46252 0.75979 0.69956 0.0
H391 H 0.46196 0.71026 0.65928 0.0
H392 H 0.51455 0.7561 0.75023 0.0
H393 H 0.50386 0.70782 0.78951 0.0
C394 C 0.54436 0.50079 0.28163 0.0
C395 C 0.52797 0.43496 0.30034 0.0
C396 C 0.5419 0.3601 0.24559 0.0
C397 C 0.55566 0.42616 0.22667 0.0
N398 N 0.56194 0.55959 0.22469 0.0
N399 N 0.50155 0.30352 0.30072 0.0
C400 C 0.55449 0.49666 0.24414 0.0
C401 C 0.52388 0.36497 0.28246 0.0
N402 N 0.55205 0.56696 0.29996 0.0
N403 N 0.54768 0.29278 0.22835 0.0
H404 H 0.4906 0.30477 0.328 0.0
H405 H 0.48881 0.25211 0.28875 0.0
H406 H 0.5571 0.28717 0.20103 0.0
H407 H 0.54767 0.24218 0.24115 0.0
H408 H 0.57377 0.61547 0.28896 0.0
H409 H 0.5406 0.57302 0.32709 0.0
H410 H 0.55206 0.61287 0.23481 0.0
H411 H 0.57373 0.55875 0.1975 0.0
loop_
_geom_bond_atom_site_label_1
_geom_bond_atom_site_label_2
_geom_bond_distance
_geom_bond_site_symmetry_2
_ccdc_geom_bond_type
C0 O16 1.251 . S
C0 O18 1.254 1_554 S
N1 C2 1.333 1_445 S
N1 C6 1.307 . S
N1 Zn7 2.020 . S
C2 N1 1.333 1_665 S
C2 C3 1.379 . S
C2 H20 0.952 . S
C3 C2 1.379 . S
C3 C4 1.390 1_665 S
C3 H30 0.949 . S
C4 C3 1.390 1_445 S
C4 C5 1.357 . S
C5 C4 1.357 . S
C5 C6 1.370 . S
C5 H31 0.950 . S
C6 N1 1.307 . S
C6 C5 1.370 . S
C6 H24 0.948 . S
Zn7 N1 2.020 . S
Zn7 O16 2.039 1_445 S
Zn7 O22 2.034 1_455 S
Zn7 O26 2.025 . S
Zn7 O28 2.024 1_545 S
C8 O27 1.246 1_554 S
C8 O28 1.249 . S
N9 C10 1.306 1_445 S
N9 C11 1.335 . S
N9 Zn15 2.020 . S
C10 N9 1.306 1_665 S
C10 C14 1.370 . S
C10 H21 0.948 . S
C11 N9 1.335 . S
C11 C12 1.379 . S
C11 H19 0.952 . S
C12 C11 1.379 . S
C12 C13 1.390 . S
C12 H32 0.949 . S
C13 C12 1.390 . S
C13 C14 1.357 1_445 S
C14 C10 1.370 . S
C14 C13 1.357 1_665 S
C14 H33 0.950 . S
Zn15 N9 2.020 . S
Zn15 O18 2.025 1_445 S
Zn15 O23 2.024 1_455 S
Zn15 O25 2.039 . S
Zn15 O27 2.034 1_545 S
O16 C0 1.251 . S
O16 Zn7 2.039 1_665 S
C17 O22 1.246 . S
C17 O23 1.249 1_554 S
O18 C0 1.254 1_556 S
O18 Zn15 2.025 1_665 S
H19 C11 0.952 . S
H20 C2 0.952 . S
H21 C10 0.948 . S
O22 Zn7 2.034 1_655 S
O22 C17 1.246 . S
O23 Zn15 2.024 1_655 S
O23 C17 1.249 1_556 S
H24 C6 0.948 . S
O25 Zn15 2.039 . S
O25 C29 1.251 1_556 S
O26 Zn7 2.025 . S
O26 C29 1.254 . S
O27 C8 1.246 1_556 S
O27 Zn15 2.034 1_565 S
O28 Zn7 2.024 1_565 S
O28 C8 1.249 . S
C29 O25 1.251 1_554 S
C29 O26 1.254 . S
H30 C3 0.949 . S
H31 C5 0.950 . S
H32 C12 0.949 . S
H33 C14 0.950 . S
C34 O50 1.251 . S
C34 O52 1.254 . S
N35 C36 1.333 . S
N35 C40 1.307 . S
N35 Zn41 2.020 . S
C36 N35 1.333 . S
C36 C37 1.379 . S
C36 H54 0.952 . S
C37 C36 1.379 . S
C37 C38 1.390 . S
C37 H64 0.949 . S
C38 C37 1.390 . S
C38 C39 1.357 . S
C39 C38 1.357 . S
C39 C40 1.370 . S
C39 H65 0.950 . S
C40 N35 1.307 . S
C40 C39 1.370 . S
C40 H58 0.948 . S
Zn41 N35 2.020 . S
Zn41 O50 2.039 . S
Zn41 O56 2.034 . S
Zn41 O60 2.025 . S
Zn41 O62 2.024 . S
C42 O61 1.246 . S
C42 O62 1.249 . S
N43 C44 1.307 . S
N43 C45 1.333 . S
N43 Zn49 2.020 . S
C44 N43 1.307 . S
C44 C48 1.370 . S
C44 H55 0.948 . S
C45 N43 1.333 . S
C45 C46 1.379 . S
C45 H53 0.952 . S
C46 C45 1.379 . S
C46 C47 1.390 . S
C46 H66 0.949 . S
C47 C46 1.390 . S
C47 C48 1.357 . S
C48 C44 1.370 . S
C48 C47 1.357 . S
C48 H67 0.950 . S
Zn49 N43 2.020 . S
Zn49 O52 2.025 . S
Zn49 O57 2.024 . S
Zn49 O59 2.039 . S
Zn49 O61 2.034 . S
O50 C34 1.251 . S
O50 Zn41 2.039 . S
C51 O56 1.246 . S
C51 O57 1.249 . S
O52 C34 1.254 . S
O52 Zn49 2.025 . S
H53 C45 0.952 . S
H54 C36 0.952 . S
H55 C44 0.948 . S
O56 Zn41 2.034 . S
O56 C51 1.246 . S
O57 Zn49 2.024 . S
O57 C51 1.249 . S
H58 C40 0.948 . S
O59 Zn49 2.039 . S
O59 C63 1.251 . S
O60 Zn41 2.025 . S
O60 C63 1.254 . S
O61 C42 1.246 . S
O61 Zn49 2.034 . S
O62 Zn41 2.024 . S
O62 C42 1.249 . S
C63 O59 1.251 . S
C63 O60 1.254 . S
H64 C37 0.949 . S
H65 C39 0.950 . S
H66 C46 0.949 . S
H67 C48 0.950 . S
P68 O79 1.490 . S
P68 C82 1.812 1_455 S
P68 C88 1.803 1_545 S
P68 C94 1.819 . S
H69 C83 0.941 . S
H70 C84 0.939 . S
H71 C86 0.940 . S
H72 C87 0.940 . S
H73 C89 0.939 . S
H74 C90 0.942 . S
H75 C92 0.940 . S
H76 C93 0.939 . S
H77 C95 0.941 . S
H78 C99 0.939 . S
O79 P68 1.490 . S
H80 C96 0.939 . S
H81 C98 0.940 . S
C82 P68 1.812 1_655 S
C82 C83 1.389 1_655 S
C82 C87 1.391 . S
C83 H69 0.941 . S
C83 C82 1.389 1_455 S
C83 C84 1.397 1_455 S
C84 H70 0.939 . S
C84 C83 1.397 1_655 S
C84 C85 1.378 . S
C85 C84 1.378 . S
C85 C86 1.378 . S
C86 H71 0.940 . S
C86 C85 1.378 . S
C86 C87 1.396 . S
C87 H72 0.940 . S
C87 C82 1.391 . S
C87 C86 1.396 . S
C88 P68 1.803 1_565 S
C88 C89 1.378 . S
C88 C93 1.400 . S
C89 H73 0.939 . S
C89 C88 1.378 . S
C89 C90 1.361 . S
C90 H74 0.942 . S
C90 C89 1.361 . S
C90 C91 1.369 . S
C91 C90 1.369 . S
C91 C92 1.404 . S
C92 H75 0.940 . S
C92 C91 1.404 . S
C92 C93 1.389 . S
C93 H76 0.939 . S
C93 C88 1.400 . S
C93 C92 1.389 . S
C94 P68 1.819 . S
C94 C95 1.391 . S
C94 C99 1.391 1_545 S
C95 H77 0.941 . S
C95 C94 1.391 . S
C95 C96 1.396 . S
C96 H80 0.939 . S
C96 C95 1.396 . S
C96 C97 1.397 . S
C97 C96 1.397 . S
C97 C98 1.385 1_545 S
C98 H81 0.940 . S
C98 C97 1.385 1_565 S
C98 C99 1.388 . S
C99 H78 0.939 . S
C99 C94 1.391 1_565 S
C99 C98 1.388 . S
P100 O111 1.490 . S
P100 C114 1.812 . S
P100 C120 1.803 1_565 S
P100 C126 1.819 . S
H101 C115 0.941 . S
H102 C116 0.939 . S
H103 C118 0.940 . S
H104 C119 0.940 . S
H105 C121 0.939 . S
H106 C122 0.942 . S
H107 C124 0.940 . S
H108 C125 0.939 . S
H109 C127 0.941 . S
H110 C131 0.939 . S
O111 P100 1.490 . S
H112 C128 0.939 . S
H113 C130 0.940 . S
C114 P100 1.812 . S
C114 C115 1.389 . S
C114 C119 1.391 1_455 S
C115 H101 0.941 . S
C115 C114 1.389 . S
C115 C116 1.397 1_455 S
C116 H102 0.939 . S
C116 C115 1.397 1_655 S
C116 C117 1.378 . S
C117 C116 1.378 . S
C117 C118 1.378 . S
C118 H103 0.940 . S
C118 C117 1.378 . S
C118 C119 1.396 . S
C119 H104 0.940 . S
C119 C114 1.391 1_655 S
C119 C118 1.396 . S
C120 P100 1.803 1_545 S
C120 C121 1.378 . S
C120 C125 1.400 . S
C121 H105 0.939 . S
C121 C120 1.378 . S
C121 C122 1.361 . S
C122 H106 0.942 . S
C122 C121 1.361 . S
C122 C123 1.369 . S
C123 C122 1.369 . S
C123 C124 1.404 . S
C124 H107 0.940 . S
C124 C123 1.404 . S
C124 C125 1.389 . S
C125 H108 0.939 . S
C125 C120 1.400 . S
C125 C124 1.389 . S
C126 P100 1.819 . S
C126 C127 1.391 . S
C126 C131 1.391 1_565 S
C127 H109 0.941 . S
C127 C126 1.391 . S
C127 C128 1.396 . S
C128 H112 0.939 . S
C128 C127 1.396 . S
C128 C129 1.397 . S
C129 C128 1.397 . S
C129 C130 1.385 1_565 S
C130 H113 0.940 . S
C130 C129 1.385 1_545 S
C130 C131 1.388 . S
C131 H110 0.939 . S
C131 C126 1.391 1_545 S
C131 C130 1.388 . S
P132 O143 1.490 . S
P132 C146 1.812 . S
P132 C152 1.803 . S
P132 C158 1.819 . S
H133 C147 0.941 1_554 S
H134 C148 0.939 . S
H135 C150 0.940 . S
H136 C151 0.940 . S
H137 C153 0.939 . S
H138 C154 0.942 . S
H139 C156 0.940 . S
H140 C157 0.939 . S
H141 C159 0.941 . S
H142 C163 0.939 . S
O143 P132 1.490 . S
H144 C160 0.939 . S
H145 C162 0.940 . S
C146 P132 1.812 . S
C146 C147 1.389 . S
C146 C151 1.391 . S
C147 H133 0.941 1_556 S
C147 C146 1.389 . S
C147 C148 1.397 1_556 S
C148 H134 0.939 . S
C148 C147 1.397 1_554 S
C148 C149 1.378 . S
C149 C148 1.378 . S
C149 C150 1.378 1_554 S
C150 H135 0.940 . S
C150 C149 1.378 1_556 S
C150 C151 1.396 . S
C151 H136 0.940 . S
C151 C146 1.391 . S
C151 C150 1.396 . S
C152 P132 1.803 . S
C152 C153 1.378 . S
C152 C157 1.400 . S
C153 H137 0.939 . S
C153 C152 1.378 . S
C153 C154 1.361 . S
C154 H138 0.942 . S
C154 C153 1.361 . S
C154 C155 1.369 1_556 S
C155 C154 1.369 1_554 S
C155 C156 1.404 . S
C156 H139 0.940 . S
C156 C155 1.404 . S
C156 C157 1.389 1_554 S
C157 H140 0.939 . S
C157 C152 1.400 . S
C157 C156 1.389 1_556 S
C158 P132 1.819 . S
C158 C159 1.391 . S
C158 C163 1.391 . S
C159 H141 0.941 . S
C159 C158 1.391 . S
C159 C160 1.396 . S
C160 H144 0.939 . S
C160 C159 1.396 . S
C160 C161 1.397 . S
C161 C160 1.397 . S
C161 C162 1.385 . S
C162 H145 0.940 . S
C162 C161 1.385 . S
C162 C163 1.388 . S
C163 H142 0.939 . S
C163 C158 1.391 . S
C163 C162 1.388 . S
P164 O175 1.490 . S
P164 C178 1.812 . S
P164 C184 1.803 . S
P164 C190 1.819 . S
H165 C179 0.941 . S
H166 C180 0.939 . S
H167 C182 0.940 . S
H168 C183 0.940 . S
H169 C185 0.939 . S
H170 C186 0.942 . S
H171 C188 0.940 1_556 S
H172 C189 0.939 . S
H173 C191 0.941 . S
H174 C195 0.939 . S
O175 P164 1.490 . S
H176 C192 0.939 . S
H177 C194 0.940 . S
C178 P164 1.812 . S
C178 C179 1.389 . S
C178 C183 1.391 . S
C179 H165 0.941 . S
C179 C178 1.389 . S
C179 C180 1.397 1_554 S
C180 H166 0.939 . S
C180 C179 1.397 1_556 S
C180 C181 1.378 1_556 S
C181 C180 1.378 1_554 S
C181 C182 1.378 . S
C182 H167 0.940 . S
C182 C181 1.378 . S
C182 C183 1.396 . S
C183 H168 0.940 . S
C183 C178 1.391 . S
C183 C182 1.396 . S
C184 P164 1.803 . S
C184 C185 1.378 . S
C184 C189 1.400 . S
C185 H169 0.939 . S
C185 C184 1.378 . S
C185 C186 1.361 . S
C186 H170 0.942 . S
C186 C185 1.361 . S
C186 C187 1.369 . S
C187 C186 1.369 . S
C187 C188 1.404 . S
C188 H171 0.940 1_554 S
C188 C187 1.404 . S
C188 C189 1.389 . S
C189 H172 0.939 . S
C189 C184 1.400 . S
C189 C188 1.389 . S
C190 P164 1.819 . S
C190 C191 1.391 . S
C190 C195 1.391 . S
C191 H173 0.941 . S
C191 C190 1.391 . S
C191 C192 1.396 . S
C192 H176 0.939 . S
C192 C191 1.396 . S
C192 C193 1.397 . S
C193 C192 1.397 . S
C193 C194 1.385 . S
C194 H177 0.940 . S
C194 C193 1.385 . S
C194 C195 1.388 . S
C195 H174 0.939 . S
C195 C190 1.391 . S
C195 C194 1.388 . S
C196 C197 1.363 . S
C196 C202 1.379 . S
C196 N204 1.356 . S
C197 C196 1.363 . S
C197 C203 1.363 1_554 S
C198 C199 1.363 . S
C198 C203 1.379 . S
C198 N205 1.356 . S
C199 C198 1.363 . S
C199 C202 1.363 1_556 S
N200 C202 1.356 . S
N200 H212 0.984 . S
N200 H213 0.985 . S
N201 C203 1.356 . S
N201 H206 0.984 . S
N201 H207 0.985 . S
C202 C196 1.379 . S
C202 C199 1.363 1_554 S
C202 N200 1.356 . S
C203 C197 1.363 1_556 S
C203 C198 1.379 . S
C203 N201 1.356 . S
N204 C196 1.356 . S
N204 H210 0.984 . S
N204 H211 0.984 . S
N205 C198 1.356 . S
N205 H208 0.984 . S
N205 H209 0.985 . S
H206 N201 0.984 . S
H207 N201 0.985 . S
H208 N205 0.984 . S
H209 N205 0.985 . S
H210 N204 0.984 . S
H211 N204 0.984 . S
H212 N200 0.984 . S
H213 N200 0.985 . S
C214 C215 1.363 . S
C214 C220 1.379 . S
C214 N222 1.356 . S
C215 C214 1.363 . S
C215 C221 1.363 1_554 S
C216 C217 1.363 1_556 S
C216 C221 1.379 . S
C216 N223 1.356 . S
C217 C216 1.363 1_554 S
C217 C220 1.363 . S
N218 C220 1.356 . S
N218 H230 0.984 . S
N218 H231 0.985 . S
N219 C221 1.356 . S
N219 H224 0.984 . S
N219 H225 0.985 . S
C220 C214 1.379 . S
C220 C217 1.363 . S
C220 N218 1.356 . S
C221 C215 1.363 1_556 S
C221 C216 1.379 . S
C221 N219 1.356 . S
N222 C214 1.356 . S
N222 H228 0.984 . S
N222 H229 0.984 . S
N223 C216 1.356 . S
N223 H226 0.984 . S
N223 H227 0.985 . S
H224 N219 0.984 . S
H225 N219 0.985 . S
H226 N223 0.984 . S
H227 N223 0.985 . S
H228 N222 0.984 . S
H229 N222 0.984 . S
H230 N218 0.984 . S
H231 N218 0.985 . S
C232 C233 1.363 . S
C232 C238 1.379 . S
C232 N240 1.356 . S
C233 C232 1.363 . S
C233 C239 1.363 1_554 S
C234 C235 1.353 1_556 S
C234 C239 1.379 . S
C234 N241 1.356 . S
C235 C234 1.353 1_554 S
C235 C238 1.373 . S
N236 C238 1.356 . S
N236 H248 0.984 . S
N236 H249 0.985 . S
N237 C239 1.356 . S
N237 H242 0.984 . S
N237 H243 0.985 . S
C238 C232 1.379 . S
C238 C235 1.373 . S
C238 N236 1.356 . S
C239 C233 1.363 1_556 S
C239 C234 1.379 . S
C239 N237 1.356 . S
N240 C232 1.356 . S
N240 H246 0.984 . S
N240 H247 0.984 . S
N241 C234 1.356 . S
N241 H244 0.984 . S
N241 H245 0.985 . S
H242 N237 0.984 . S
H243 N237 0.985 . S
H244 N241 0.984 . S
H245 N241 0.985 . S
H246 N240 0.984 . S
H247 N240 0.984 . S
H248 N236 0.984 . S
H249 N236 0.985 . S
C250 C251 1.363 1_556 S
C250 C256 1.379 . S
C250 N258 1.356 . S
C251 C250 1.363 1_554 S
C251 C257 1.363 . S
C252 C253 1.363 . S
C252 C257 1.379 . S
C252 N259 1.356 . S
C253 C252 1.363 . S
C253 C256 1.363 1_554 S
N254 C256 1.356 . S
N254 H266 0.984 . S
N254 H267 0.985 . S
N255 C257 1.356 . S
N255 H260 0.984 . S
N255 H261 0.985 . S
C256 C250 1.379 . S
C256 C253 1.363 1_556 S
C256 N254 1.356 . S
C257 C251 1.363 . S
C257 C252 1.379 . S
C257 N255 1.356 . S
N258 C250 1.356 . S
N258 H264 0.984 . S
N258 H265 0.984 . S
N259 C252 1.356 . S
N259 H262 0.984 . S
N259 H263 0.985 . S
H260 N255 0.984 . S
H261 N255 0.985 . S
H262 N259 0.984 . S
H263 N259 0.985 . S
H264 N258 0.984 . S
H265 N258 0.984 . S
H266 N254 0.984 . S
H267 N254 0.985 . S
C268 C269 1.363 . S
C268 C274 1.379 . S
C268 N276 1.356 . S
C269 C268 1.363 . S
C269 C275 1.363 . S
C270 C271 1.363 . S
C270 C275 1.379 . S
C270 N277 1.356 . S
C271 C270 1.363 . S
C271 C274 1.363 . S
N272 C274 1.356 . S
N272 H284 0.984 . S
N272 H285 0.985 . S
N273 C275 1.356 . S
N273 H278 0.984 . S
N273 H279 0.985 . S
C274 C268 1.379 . S
C274 C271 1.363 . S
C274 N272 1.356 . S
C275 C269 1.363 . S
C275 C270 1.379 . S
C275 N273 1.356 . S
N276 C268 1.356 . S
N276 H282 0.984 . S
N276 H283 0.984 . S
N277 C270 1.356 . S
N277 H280 0.984 . S
N277 H281 0.985 . S
H278 N273 0.984 . S
H279 N273 0.985 . S
H280 N277 0.984 . S
H281 N277 0.985 . S
H282 N276 0.984 . S
H283 N276 0.984 . S
H284 N272 0.984 . S
H285 N272 0.985 . S
C286 C287 1.363 . S
C286 C292 1.379 . S
C286 N294 1.356 . S
C287 C286 1.363 . S
C287 C293 1.363 . S
C288 C289 1.363 . S
C288 C293 1.379 . S
C288 N295 1.356 . S
C289 C288 1.363 . S
C289 C292 1.363 . S
N290 C292 1.356 . S
N290 H302 0.984 . S
N290 H303 0.985 . S
N291 C293 1.356 . S
N291 H296 0.984 . S
N291 H297 0.985 . S
C292 C286 1.379 . S
C292 C289 1.363 . S
C292 N290 1.356 . S
C293 C287 1.363 . S
C293 C288 1.379 . S
C293 N291 1.356 . S
N294 C286 1.356 . S
N294 H300 0.984 . S
N294 H301 0.984 . S
N295 C288 1.356 . S
N295 H298 0.984 . S
N295 H299 0.985 . S
H296 N291 0.984 . S
H297 N291 0.985 . S
H298 N295 0.984 . S
H299 N295 0.985 . S
H300 N294 0.984 . S
H301 N294 0.984 . S
H302 N290 0.984 . S
H303 N290 0.985 . S
C304 C305 1.363 . S
C304 C310 1.379 . S
C304 N312 1.356 . S
C305 C304 1.363 . S
C305 C311 1.363 . S
C306 C307 1.363 . S
C306 C311 1.379 . S
C306 N313 1.356 . S
C307 C306 1.363 . S
C307 C310 1.363 . S
N308 C310 1.356 . S
N308 H320 0.984 . S
N308 H321 0.985 . S
N309 C311 1.356 . S
N309 H314 0.984 . S
N309 H315 0.985 . S
C310 C304 1.379 . S
C310 C307 1.363 . S
C310 N308 1.356 . S
C311 C305 1.363 . S
C311 C306 1.379 . S
C311 N309 1.356 . S
N312 C304 1.356 . S
N312 H318 0.984 . S
N312 H319 0.984 . S
N313 C306 1.356 . S
N313 H316 0.984 . S
N313 H317 0.985 . S
H314 N309 0.984 . S
H315 N309 0.985 . S
H316 N313 0.984 . S
H317 N313 0.985 . S
H318 N312 0.984 . S
H319 N312 0.984 . S
H320 N308 0.984 . S
H321 N308 0.985 . S
C322 C323 1.363 . S
C322 C328 1.379 . S
C322 N330 1.356 . S
C323 C322 1.363 . S
C323 C329 1.363 . S
C324 C325 1.363 . S
C324 C329 1.379 . S
C324 N331 1.356 . S
C325 C324 1.363 . S
C325 C328 1.363 . S
N326 C328 1.356 . S
N326 H338 0.984 . S
N326 H339 0.985 . S
N327 C329 1.356 . S
N327 H332 0.984 . S
N327 H333 0.985 . S
C328 C322 1.379 . S
C328 C325 1.363 . S
C328 N326 1.356 . S
C329 C323 1.363 . S
C329 C324 1.379 . S
C329 N327 1.356 . S
N330 C322 1.356 . S
N330 H336 0.984 . S
N330 H337 0.984 . S
N331 C324 1.356 . S
N331 H334 0.984 . S
N331 H335 0.985 . S
H332 N327 0.984 . S
H333 N327 0.985 . S
H334 N331 0.984 . S
H335 N331 0.985 . S
H336 N330 0.984 . S
H337 N330 0.984 . S
H338 N326 0.984 . S
H339 N326 0.985 . S
C340 C341 1.363 1_665 S
C340 C346 1.379 . S
C340 N348 1.356 . S
C341 C340 1.363 1_445 S
C341 C347 1.363 . S
C342 C343 1.363 1_455 S
C342 C347 1.379 . S
C342 N349 1.356 . S
C343 C342 1.363 1_655 S
C343 C346 1.363 1_545 S
N344 C346 1.356 . S
N344 H356 0.984 . S
N344 H357 0.985 . S
N345 C347 1.356 . S
N345 H350 0.984 . S
N345 H351 0.985 . S
C346 C340 1.379 . S
C346 C343 1.363 1_565 S
C346 N344 1.356 . S
C347 C341 1.363 . S
C347 C342 1.379 . S
C347 N345 1.356 . S
N348 C340 1.356 . S
N348 H354 0.984 . S
N348 H355 0.984 . S
N349 C342 1.356 . S
N349 H352 0.984 . S
N349 H353 0.985 . S
H350 N345 0.984 . S
H351 N345 0.985 . S
H352 N349 0.984 . S
H353 N349 0.985 . S
H354 N348 0.984 . S
H355 N348 0.984 . S
H356 N344 0.984 . S
H357 N344 0.985 . S
C358 C359 1.363 1_655 S
C358 C364 1.379 . S
C358 N366 1.356 . S
C359 C358 1.363 1_455 S
C359 C365 1.363 1_545 S
C360 C361 1.363 1_565 S
C360 C365 1.379 . S
C360 N367 1.356 . S
C361 C360 1.363 1_545 S
C361 C364 1.363 1_455 S
N362 C364 1.356 . S
N362 H374 0.984 . S
N362 H375 0.985 . S
N363 C365 1.356 . S
N363 H368 0.984 . S
N363 H369 0.985 . S
C364 C358 1.379 . S
C364 C361 1.363 1_655 S
C364 N362 1.356 . S
C365 C359 1.363 1_565 S
C365 C360 1.379 . S
C365 N363 1.356 . S
N366 C358 1.356 . S
N366 H372 0.984 . S
N366 H373 0.984 . S
N367 C360 1.356 . S
N367 H370 0.984 . S
N367 H371 0.985 . S
H368 N363 0.984 . S
H369 N363 0.985 . S
H370 N367 0.984 . S
H371 N367 0.985 . S
H372 N366 0.984 . S
H373 N366 0.984 . S
H374 N362 0.984 . S
H375 N362 0.985 . S
C376 C377 1.363 . S
C376 C382 1.379 . S
C376 N384 1.356 . S
C377 C376 1.363 . S
C377 C383 1.363 . S
C378 C379 1.363 . S
C378 C383 1.379 . S
C378 N385 1.356 . S
C379 C378 1.363 . S
C379 C382 1.363 . S
N380 C382 1.356 . S
N380 H392 0.984 . S
N380 H393 0.985 . S
N381 C383 1.356 . S
N381 H386 0.984 . S
N381 H387 0.985 . S
C382 C376 1.379 . S
C382 C379 1.363 . S
C382 N380 1.356 . S
C383 C377 1.363 . S
C383 C378 1.379 . S
C383 N381 1.356 . S
N384 C376 1.356 . S
N384 H390 0.984 . S
N384 H391 0.984 . S
N385 C378 1.356 . S
N385 H388 0.984 . S
N385 H389 0.985 . S
H386 N381 0.984 . S
H387 N381 0.985 . S
H388 N385 0.984 . S
H389 N385 0.985 . S
H390 N384 0.984 . S
H391 N384 0.984 . S
H392 N380 0.984 . S
H393 N380 0.985 . S
C394 C395 1.363 . S
C394 C400 1.379 . S
C394 N402 1.356 . S
C395 C394 1.363 . S
C395 C401 1.363 . S
C396 C397 1.363 . S
C396 C401 1.379 . S
C396 N403 1.356 . S
C397 C396 1.363 . S
C397 C400 1.363 . S
N398 C400 1.356 . S
N398 H410 0.984 . S
N398 H411 0.985 . S
N399 C401 1.356 . S
N399 H404 0.984 . S
N399 H405 0.985 . S
C400 C394 1.379 . S
C400 C397 1.363 . S
C400 N398 1.356 . S
C401 C395 1.363 . S
C401 C396 1.379 . S
C401 N399 1.356 . S
N402 C394 1.356 . S
N402 H408 0.984 . S
N402 H409 0.984 . S
N403 C396 1.356 . S
N403 H406 0.984 . S
N403 H407 0.985 . S
H404 N399 0.984 . S
H405 N399 0.985 . S
H406 N403 0.984 . S
H407 N403 0.985 . S
H408 N402 0.984 . S
H409 N402 0.984 . S
H410 N398 0.984 . S
H411 N398 0.985 . S
C199 C181 1.480 1_556 S
C197 C29 1.540 . S
C215 C8 1.523 . S
C217 C149 1.461 . S
C233 C0 1.522 . S
C235 C187 1.465 . S
C251 C17 1.538 . S
C253 C155 1.463 . S
C269 C63 1.541 . S
C271 C117 1.480 . S
C287 C42 1.523 . S
C289 C85 1.462 . S
C307 C123 1.462 . S
C305 C34 1.522 . S
C325 C91 1.463 . S
C323 C51 1.537 . S
C341 C4 1.493 . S
C343 C97 1.458 1_655 S
C359 C13 1.490 . S
C361 C129 1.462 1_545 S
C379 C161 1.458 . S
C377 C38 1.493 . S
C395 C47 1.490 . S
C397 C193 1.462 . S
