# Generated by pormake.
# Topology zzz, (3,6)-cn, num edge types: 1
# Building blocks:
#     Node 0, Type 0, BuildingBlock: CUQRIR_clean_linker_1, # of connection points: 3
#     Node 1, Type 0, BuildingBlock: CUQRIR_clean_linker_1, # of connection points: 3
#     Node 2, Type 0, BuildingBlock: CUQRIR_clean_linker_1, # of connection points: 3
#     Node 3, Type 0, BuildingBlock: CUQRIR_clean_linker_1, # of connection points: 3
#     Node 4, Type 0, BuildingBlock: CUQRIR_clean_linker_1, # of connection points: 3
#     Node 5, Type 0, BuildingBlock: CUQRIR_clean_linker_1, # of connection points: 3
#     Node 6, Type 0, BuildingBlock: CUQRIR_clean_linker_1, # of connection points: 3
#     Node 7, Type 0, BuildingBlock: CUQRIR_clean_linker_1, # of connection points: 3
#     Node 8, Type 1, BuildingBlock: BETDAH_clean_sbu_0, # of connection points: 6
#     Node 9, Type 1, BuildingBlock: BETDAH_clean_sbu_0, # of connection points: 6
#     Node 10, Type 1, BuildingBlock: BETDAH_clean_sbu_0, # of connection points: 6
#     Node 11, Type 1, BuildingBlock: BETDAH_clean_sbu_0, # of connection points: 6
#     Edge 12, Type (0, 1), BuildingBlock: CIFDUS_clean_linker_0, # of connection points: 2
#     Edge 13, Type (0, 1), BuildingBlock: CIFDUS_clean_linker_0, # of connection points: 2
#     Edge 14, Type (0, 1), BuildingBlock: CIFDUS_clean_linker_0, # of connection points: 2
#     Edge 15, Type (0, 1), BuildingBlock: CIFDUS_clean_linker_0, # of connection points: 2
#     Edge 16, Type (0, 1), BuildingBlock: CIFDUS_clean_linker_0, # of connection points: 2
#     Edge 17, Type (0, 1), BuildingBlock: CIFDUS_clean_linker_0, # of connection points: 2
#     Edge 18, Type (0, 1), BuildingBlock: CIFDUS_clean_linker_0, # of connection points: 2
#     Edge 19, Type (0, 1), BuildingBlock: CIFDUS_clean_linker_0, # of connection points: 2
#     Edge 20, Type (0, 1), BuildingBlock: CIFDUS_clean_linker_0, # of connection points: 2
#     Edge 21, Type (0, 1), BuildingBlock: CIFDUS_clean_linker_0, # of connection points: 2
#     Edge 22, Type (0, 1), BuildingBlock: CIFDUS_clean_linker_0, # of connection points: 2
#     Edge 23, Type (0, 1), BuildingBlock: CIFDUS_clean_linker_0, # of connection points: 2
#     Edge 24, Type (0, 1), BuildingBlock: CIFDUS_clean_linker_0, # of connection points: 2
#     Edge 25, Type (0, 1), BuildingBlock: CIFDUS_clean_linker_0, # of connection points: 2
#     Edge 26, Type (0, 1), BuildingBlock: CIFDUS_clean_linker_0, # of connection points: 2
#     Edge 27, Type (0, 1), BuildingBlock: CIFDUS_clean_linker_0, # of connection points: 2
#     Edge 28, Type (0, 1), BuildingBlock: CIFDUS_clean_linker_0, # of connection points: 2
#     Edge 29, Type (0, 1), BuildingBlock: CIFDUS_clean_linker_0, # of connection points: 2
#     Edge 30, Type (0, 1), BuildingBlock: CIFDUS_clean_linker_0, # of connection points: 2
#     Edge 31, Type (0, 1), BuildingBlock: CIFDUS_clean_linker_0, # of connection points: 2
#     Edge 32, Type (0, 1), BuildingBlock: CIFDUS_clean_linker_0, # of connection points: 2
#     Edge 33, Type (0, 1), BuildingBlock: CIFDUS_clean_linker_0, # of connection points: 2
#     Edge 34, Type (0, 1), BuildingBlock: CIFDUS_clean_linker_0, # of connection points: 2
#     Edge 35, Type (0, 1), BuildingBlock: CIFDUS_clean_linker_0, # of connection points: 2
# Relax obj value: 0.360
# Max RMSD: 0.207
# Mean RMSD: 0.160
data_MOF--net-zzz--node1-BETDAH_clean_sbu_0--node2-CUQRIR_clean_linker_1--edge1-CIFDUS_clean_linker_0
_symmetry_space_group_name_H-M    P1
_symmetry_Int_Tables_number       1
_symmetry_cell_setting            triclinic
loop_
_symmetry_equiv_pos_as_xyz
'x, y, z'
_cell_length_a     41.948513
_cell_length_b     41.908829
_cell_length_c     10.487131
_cell_angle_alpha  89.81447
_cell_angle_beta   89.950893
_cell_angle_gamma 89.899614
loop_
_atom_site_label
_atom_site_type_symbol
_atom_site_fract_x
_atom_site_fract_y
_atom_site_fract_z
_atom_type_partial_charge
C0 C 0.75746 0.53644 0.36663 0.0
N1 N 0.7773 0.51763 0.43721 0.0
N2 N 0.7299 0.5209 0.33736 0.0
C3 C 0.76587 0.56911 0.31878 0.0
C4 C 0.73413 0.49177 0.39132 0.0
N5 N 0.76301 0.48936 0.44904 0.0
C6 C 0.71187 0.46411 0.37141 0.0
H7 H 0.78122 0.58161 0.38872 0.0
H8 H 0.74399 0.58331 0.30022 0.0
H9 H 0.77933 0.56682 0.22815 0.0
H10 H 0.71058 0.45837 0.26829 0.0
H11 H 0.68763 0.47096 0.40319 0.0
H12 H 0.71956 0.44266 0.4256 0.0
C13 C 0.0302 0.74992 0.41992 0.0
N14 N 0.04976 0.77316 0.46662 0.0
N15 N 0.04737 0.72556 0.3672 0.0
C16 C 0.99454 0.75212 0.41529 0.0
C17 C 0.07795 0.73504 0.38338 0.0
N18 N 0.07949 0.76376 0.44187 0.0
C19 C 0.10663 0.71656 0.33901 0.0
H20 H 0.98629 0.74859 0.31579 0.0
H21 H 0.98577 0.77539 0.45136 0.0
H22 H 0.98421 0.73266 0.47405 0.0
H23 H 0.11269 0.72358 0.23991 0.0
H24 H 0.1015 0.69072 0.33922 0.0
H25 H 0.1275 0.72154 0.40078 0.0
C26 C 0.79358 1.00826 0.4323 0.0
N27 N 0.77099 0.02939 0.47264 0.0
N28 N 0.81907 1.02363 0.37942 0.0
C29 C 0.7896 0.97277 0.435 0.0
C30 C 0.81079 0.05477 0.38855 0.0
N31 N 0.78145 0.0584 0.44161 0.0
C32 C 0.83062 0.08163 0.33539 0.0
H33 H 0.77777 0.96528 0.52492 0.0
H34 H 0.81299 0.96058 0.4253 0.0
H35 H 0.77409 0.96561 0.35439 0.0
H36 H 0.8301 0.08083 0.22966 0.0
H37 H 0.85582 0.07856 0.36517 0.0
H38 H 0.82181 0.10518 0.36839 0.0
C39 C 0.5235 0.78795 0.38811 0.0
N40 N 0.50438 0.76376 0.43044 0.0
N41 N 0.5059 0.81377 0.35044 0.0
C42 C 0.55903 0.78574 0.37711 0.0
C43 C 0.4755 0.80405 0.36952 0.0
N44 N 0.47443 0.77375 0.41526 0.0
C45 C 0.44665 0.82311 0.33011 0.0
H46 H 0.56887 0.77061 0.45476 0.0
H47 H 0.56993 0.80984 0.37993 0.0
H48 H 0.56514 0.77448 0.28463 0.0
H49 H 0.44703 0.82671 0.22521 0.0
H50 H 0.44735 0.847 0.37515 0.0
H51 H 0.42414 0.81115 0.35825 0.0
C52 C 0.28673 0.50873 0.21478 0.0
N53 N 0.26569 0.52933 0.15943 0.0
N54 N 0.3135 0.52414 0.25457 0.0
C55 C 0.27985 0.47425 0.24117 0.0
C56 C 0.30746 0.55496 0.22361 0.0
N57 N 0.27824 0.55843 0.16962 0.0
C58 C 0.32852 0.58229 0.26231 0.0
H59 H 0.26624 0.47236 0.33164 0.0
H60 H 0.30236 0.46052 0.25144 0.0
H61 H 0.26512 0.464 0.16365 0.0
H62 H 0.35355 0.57673 0.23721 0.0
H63 H 0.32744 0.58533 0.36731 0.0
H64 H 0.32124 0.60485 0.21478 0.0
C65 C 0.02886 0.2851 0.22044 0.0
N66 N 1.00904 0.26061 0.18905 0.0
N67 N 1.01283 0.30858 0.284 0.0
C68 C 0.06397 0.28537 0.19415 0.0
C69 C 0.98259 0.29725 0.28963 0.0
N70 N 0.98037 0.268 0.23513 0.0
C71 C 0.95548 0.31399 0.35668 0.0
H72 H 0.07627 0.27117 0.26886 0.0
H73 H 0.0734 0.3101 0.19557 0.0
H74 H 0.06903 0.27416 0.10055 0.0
H75 H 0.95098 0.33741 0.31081 0.0
H76 H 0.96202 0.31841 0.45762 0.0
H77 H 0.93297 0.30024 0.35235 0.0
C78 C 0.2581 1.01889 0.24637 0.0
N79 N 0.28214 0.0372 0.19779 0.0
N80 N 0.23318 0.03728 0.28636 0.0
C81 C 0.25962 0.98336 0.26101 0.0
C82 C 0.2432 0.06738 0.26186 0.0
N83 N 0.27294 0.06757 0.21046 0.0
C84 C 0.2248 0.09679 0.29865 0.0
H85 H 0.27347 0.97265 0.18167 0.0
H86 H 0.23529 0.973 0.26413 0.0
H87 H 0.27191 0.97754 0.35182 0.0
H88 H 0.224 0.0986 0.40417 0.0
H89 H 0.19987 0.09489 0.26441 0.0
H90 H 0.23571 0.1187 0.2582 0.0
C91 C 0.51787 0.24812 0.1877 0.0
N92 N 0.53782 0.27174 0.14638 0.0
N93 N 0.53461 0.22222 0.23035 0.0
C94 C 0.48236 0.25123 0.19545 0.0
C95 C 0.56531 0.23125 0.21537 0.0
N96 N 0.56742 0.26123 0.16688 0.0
C97 C 0.5933 0.21165 0.25951 0.0
H98 H 0.47603 0.2631 0.28648 0.0
H99 H 0.4709 0.22739 0.19357 0.0
H100 H 0.47331 0.2662 0.11578 0.0
H101 H 0.58993 0.18638 0.23179 0.0
H102 H 0.59467 0.21245 0.36512 0.0
H103 H 0.61597 0.22068 0.21849 0.0
Ho104 Ho 0.04951 1.00514 0.99008 0.0
Ho105 Ho 1.01753 1.01983 0.75742 0.0
C106 C 0.03654 0.94634 0.79711 0.0
C107 C 0.06824 0.98991 0.21742 0.0
C108 C 0.09141 0.97101 0.28923 0.0
C109 C 0.12113 0.96267 0.23792 0.0
C110 C 0.14134 0.94217 0.30546 0.0
C111 C 0.13142 0.92879 0.42245 0.0
C112 C 0.1033 0.94048 0.47924 0.0
C113 C 0.08342 0.96126 0.41265 0.0
C114 C 0.09203 1.02062 0.7992 0.0
C115 C 0.0294 0.07806 0.95626 0.0
C116 C 0.99914 0.03709 0.53219 0.0
C117 C 0.97625 0.05775 0.46711 0.0
C118 C 0.98317 0.06761 0.34291 0.0
C119 C 0.96277 0.08845 0.27926 0.0
C120 C 0.93535 0.10033 0.34023 0.0
C121 C 0.927 0.08803 0.46087 0.0
C122 C 0.9475 0.06704 0.52454 0.0
C123 C 0.97535 1.00462 0.9496 0.0
O124 O 0.04074 0.95439 0.91819 0.0
O125 O 0.03209 0.96904 0.71139 0.0
O126 O 0.07956 1.01386 0.1522 0.0
O127 O 0.04595 0.9744 0.15639 0.0
O128 O 0.09444 0.02839 0.91779 0.0
O129 O 0.06731 1.00359 0.78752 0.0
O130 O 0.02593 0.07106 0.83346 0.0
O131 O 0.03254 0.05441 0.03816 0.0
O132 O 0.98721 1.01294 0.59446 0.0
O133 O 1.02237 0.05107 0.5934 0.0
O134 O 0.97152 0.99763 0.83076 0.0
O135 O 1.00021 1.02135 0.95873 0.0
H136 H 0.12814 0.97097 0.14407 0.0
H137 H 0.16336 0.93456 0.26084 0.0
H138 H 0.09485 0.93127 0.56956 0.0
H139 H 0.06098 0.96847 0.45512 0.0
H140 H 1.00481 0.0597 0.29624 0.0
H141 H 0.97005 0.09729 0.18667 0.0
H142 H 0.90588 0.0965 0.50976 0.0
H143 H 0.94147 0.05895 0.61976 0.0
Ho144 Ho 0.53031 0.03271 0.90847 0.0
Ho145 Ho 0.51206 1.00442 0.67976 0.0
C146 C 0.58695 1.01652 0.70156 0.0
C147 C 0.54972 0.05068 0.1311 0.0
C148 C 0.57101 0.07268 0.19663 0.0
C149 C 0.57692 0.06772 0.32617 0.0
C150 C 0.5992 0.08641 0.38964 0.0
C151 C 0.61603 0.11046 0.32401 0.0
C152 C 0.60685 0.11786 0.19786 0.0
C153 C 0.5848 0.09877 0.13391 0.0
C154 C 0.51363 0.0781 0.72924 0.0
C155 C 0.45681 1.02085 0.87975 0.0
C156 C 0.48546 0.99575 0.46186 0.0
C157 C 0.46452 1.01896 0.39683 0.0
C158 C 0.47558 0.03564 0.2893 0.0
C159 C 0.4589 0.06212 0.24188 0.0
C160 C 0.43053 0.07214 0.3007 0.0
C161 C 0.41919 0.05467 0.4067 0.0
C162 C 0.43592 0.02856 0.45387 0.0
C163 C 0.52853 0.95861 0.85562 0.0
O164 O 0.58051 1.0246 0.82157 0.0
O165 O 0.56334 1.00928 0.62443 0.0
O166 O 0.52605 0.06374 0.07001 0.0
O167 O 0.56253 0.02684 0.06907 0.0
O168 O 0.5065 0.07884 0.84888 0.0
O169 O 0.53008 0.05328 0.71046 0.0
O170 O 0.46492 1.02352 0.75841 0.0
O171 O 0.48007 1.01749 0.96302 0.0
O172 O 0.47461 0.9828 0.5668 0.0
O173 O 0.51484 1.00521 0.47393 0.0
O174 O 0.53474 0.95755 0.73473 0.0
O175 O 0.51246 0.98362 0.87744 0.0
H176 H 0.56524 0.04847 0.37703 0.0
H177 H 0.60505 0.07994 0.48679 0.0
H178 H 0.61836 0.13693 0.14548 0.0
H179 H 0.57939 0.10366 0.03474 0.0
H180 H 0.49745 0.02828 0.2439 0.0
H181 H 0.46796 0.07454 0.15889 0.0
H182 H 0.39665 0.06031 0.45171 0.0
H183 H 0.42648 1.01614 0.53621 0.0
Ho184 Ho 0.50589 0.52312 0.907 0.0
Ho185 Ho 0.53994 0.51249 0.66756 0.0
C186 C 0.51891 0.58499 0.7198 0.0
C187 C 0.48847 0.53942 0.13404 0.0
C188 C 0.46769 0.5621 0.19932 0.0
C189 C 0.47644 0.57262 0.32059 0.0
C190 C 0.45767 0.59481 0.38449 0.0
C191 C 0.43021 0.60762 0.32652 0.0
C192 C 0.42054 0.5955 0.20761 0.0
C193 C 0.43918 0.57292 0.14427 0.0
C194 C 0.46557 0.50995 0.7093 0.0
C195 C 0.5266 0.45058 0.85439 0.0
C196 C 0.55799 0.49646 0.44085 0.0
C197 C 0.5785 0.47354 0.37509 0.0
C198 C 0.56935 0.46293 0.25438 0.0
C199 C 0.58756 0.4402 0.19083 0.0
C200 C 0.61484 0.42699 0.24855 0.0
C201 C 0.62511 0.43936 0.36618 0.0
C202 C 0.60703 0.46247 0.42925 0.0
C203 C 0.57995 0.52594 0.86617 0.0
O204 O 0.51266 0.57488 0.83772 0.0
O205 O 0.52608 0.56398 0.63052 0.0
O206 O 0.4744 0.51724 0.06761 0.0
O207 O 0.51341 0.5514 0.07654 0.0
O208 O 0.46066 0.50174 0.82668 0.0
O209 O 0.49034 0.5271 0.70453 0.0
O210 O 0.53296 0.46068 0.73652 0.0
O211 O 0.51952 0.47159 0.94369 0.0
O212 O 0.57227 0.51807 0.5095 0.0
O213 O 0.53252 0.4849 0.49599 0.0
O214 O 0.58488 0.53441 0.74909 0.0
O215 O 0.55541 0.50849 0.86991 0.0
H216 H 0.4982 0.56412 0.36496 0.0
H217 H 0.4661 0.60361 0.47517 0.0
H218 H 0.3996 0.60486 0.16012 0.0
H219 H 0.43187 0.56468 0.05097 0.0
H220 H 0.54761 0.47165 0.21049 0.0
H221 H 0.57876 0.43126 0.10094 0.0
H222 H 0.64603 0.42975 0.41302 0.0
H223 H 0.61472 0.47082 0.52188 0.0
Ho224 Ho 1.01698 0.50728 0.90452 0.0
Ho225 Ho 0.02794 0.5411 0.67283 0.0
C226 C 0.95544 0.52405 0.72496 0.0
C227 C 0.99717 0.48663 0.12217 0.0
C228 C 0.96959 0.46814 0.16509 0.0
C229 C 0.95244 0.4789 0.27087 0.0
C230 C 0.92571 0.46229 0.31269 0.0
C231 C 0.91527 0.43479 0.24832 0.0
C232 C 0.93285 0.4237 0.14322 0.0
C233 C 0.95979 0.44032 0.10151 0.0
C234 C 0.0278 0.46694 0.70405 0.0
C235 C 0.08951 0.52448 0.85461 0.0
C236 C 0.04193 0.56107 0.4456 0.0
C237 C 0.06435 0.58128 0.3759 0.0
C238 C 0.07932 0.6072 0.43434 0.0
C239 C 0.10356 0.62348 0.37058 0.0
C240 C 0.11354 0.61381 0.24808 0.0
C241 C 0.09607 0.58971 0.18603 0.0
C242 C 0.07183 0.57353 0.24981 0.0
C243 C 1.01801 0.58163 0.87628 0.0
O244 O 0.96553 0.51852 0.84286 0.0
O245 O 0.97663 0.5287 0.63439 0.0
O246 O 1.01822 0.47156 0.05297 0.0
O247 O 0.99075 0.51521 0.079 0.0
O248 O 0.03895 0.4628 0.81783 0.0
O249 O 1.01086 0.49193 0.70336 0.0
O250 O 0.07965 0.53075 0.73631 0.0
O251 O 0.06825 0.51894 0.9446 0.0
O252 O 1.02205 0.57558 0.52162 0.0
O253 O 0.05352 0.53482 0.49519 0.0
O254 O 1.00735 0.58566 0.76166 0.0
O255 O 0.03456 0.55642 0.8755 0.0
H256 H 0.95959 0.50037 0.32047 0.0
H257 H 0.91229 0.472 0.39173 0.0
H258 H 0.92521 0.4028 0.09111 0.0
H259 H 0.97261 0.43169 0.01878 0.0
H260 H 0.07339 0.61385 0.53127 0.0
H261 H 0.11592 0.6421 0.42157 0.0
H262 H 0.1027 0.58128 0.09232 0.0
H263 H 0.05996 0.55387 0.20264 0.0
H264 H 0.22906 1.02057 0.53493 0.0
H265 H 0.17274 0.03781 0.19976 0.0
H266 H 0.12361 0.03342 0.32607 0.0
H267 H 0.09614 0.0261 0.53567 0.0
H268 H 0.15354 1.01247 0.87226 0.0
H269 H 0.20193 1.01281 0.74311 0.0
C270 C 0.20594 1.02229 0.48926 0.0
C271 C 0.20458 0.02871 0.35729 0.0
C272 C 0.17768 1.0201 0.56336 0.0
C273 C 0.17443 0.03211 0.30032 0.0
C274 C 0.1463 0.02971 0.37289 0.0
C275 C 0.11922 1.02283 0.58032 0.0
C276 C 0.12091 1.01908 0.7142 0.0
C277 C 0.14748 1.02385 0.50496 0.0
C278 C 0.15125 1.01543 0.76999 0.0
C279 C 0.17911 1.01557 0.69589 0.0
H280 H 0.52378 0.21705 0.4829 0.0
H281 H 0.52484 0.16328 0.13495 0.0
H282 H 0.51749 0.11344 0.25597 0.0
H283 H 0.5156 0.08434 0.46512 0.0
H284 H 0.5134 0.13941 0.81174 0.0
H285 H 0.51699 0.18875 0.68902 0.0
C286 C 0.52164 0.19443 0.43381 0.0
C287 C 0.52412 0.19398 0.29975 0.0
C288 C 0.51826 0.16575 0.50471 0.0
C289 C 0.52227 0.16436 0.23759 0.0
C290 C 0.51861 0.13578 0.3072 0.0
C291 C 0.51589 0.10715 0.51355 0.0
C292 C 0.51464 0.10785 0.64844 0.0
C293 C 0.5174 0.13598 0.44138 0.0
C294 C 0.51445 0.13784 0.70873 0.0
C295 C 0.51652 0.16626 0.63833 0.0
H296 H 0.37687 0.51693 0.21786 0.0
H297 H 0.30333 0.51099 0.50257 0.0
H298 H 0.34374 0.5047 0.67026 0.0
H299 H 0.40059 0.50514 0.73762 0.0
H300 H 0.47407 0.51079 0.45145 0.0
H301 H 0.43338 0.51065 0.28344 0.0
C302 C 0.3698 0.51338 0.31634 0.0
C303 C 0.3371 0.51396 0.34764 0.0
C304 C 0.39331 0.51004 0.41245 0.0
C305 C 0.32827 0.50999 0.47599 0.0
C306 C 0.35144 0.50676 0.57193 0.0
C307 C 0.40775 0.50653 0.6384 0.0
C308 C 0.44052 0.50873 0.60758 0.0
C309 C 0.38412 0.50749 0.54176 0.0
C310 C 0.44917 0.51 0.47832 0.0
C311 C 0.4259 0.51015 0.38208 0.0
H312 H 0.99404 0.36979 0.2611 0.0
H313 H 0.05757 0.3087 0.47133 0.0
H314 H 0.06983 0.35274 0.61815 0.0
H315 H 0.05828 0.40807 0.6982 0.0
H316 H 0.9912 0.46659 0.49128 0.0
H317 H 0.98315 0.42321 0.33922 0.0
C318 C 1.01067 0.36615 0.33883 0.0
C319 C 0.02479 0.3359 0.35489 0.0
C320 C 1.01649 0.39113 0.42587 0.0
C321 C 0.04671 0.33182 0.45523 0.0
C322 C 0.05337 0.35695 0.54031 0.0
C323 C 0.04229 0.41163 0.61828 0.0
C324 C 0.02546 0.4409 0.6065 0.0
C325 C 0.03782 0.38666 0.52836 0.0
C326 C 1.0047 0.44473 0.50265 0.0
C327 C 1.0002 0.42013 0.4146 0.0
H328 H 0.88213 1.01631 0.42722 0.0
H329 H 0.81116 1.00693 0.13451 0.0
H330 H 0.85301 0.99884 0.97378 0.0
H331 H 0.91043 0.99898 0.91347 0.0
H332 H 0.98142 1.00692 0.20798 0.0
H333 H 0.93929 1.0089 0.37046 0.0
C334 C 0.87591 1.01145 0.32889 0.0
C335 C 0.84346 1.0116 0.29327 0.0
C336 C 0.90029 1.00695 0.23663 0.0
C337 C 0.83583 1.00617 0.16467 0.0
C338 C 0.85984 1.00194 0.07257 0.0
C339 C 0.91674 1.00121 0.01326 0.0
C340 C 0.94925 1.00367 0.04784 0.0
C341 C 0.89226 1.00304 0.10672 0.0
C342 C 0.95674 1.006 0.17803 0.0
C343 C 0.93263 1.00729 0.27112 0.0
H344 H 0.53077 0.82027 0.11296 0.0
H345 H 0.49976 0.87366 0.43962 0.0
H346 H 0.5043 0.92369 0.31854 0.0
H347 H 0.51341 0.95225 0.11254 0.0
H348 H 0.54558 0.89831 0.78726 0.0
H349 H 0.54436 0.84926 0.91296 0.0
C350 C 0.52589 0.84296 0.15829 0.0
C351 C 0.51524 0.84318 0.28595 0.0
C352 C 0.52824 0.87176 0.08691 0.0
C353 C 0.50831 0.87284 0.34223 0.0
C354 C 0.51065 0.90146 0.2724 0.0
C355 C 0.52036 0.92981 0.06943 0.0
C356 C 0.52929 0.92928 0.93928 0.0
C357 C 0.51994 0.90127 0.14348 0.0
C358 C 0.53843 0.89976 0.88634 0.0
C359 C 0.53777 0.87149 0.95852 0.0
H360 H 0.66601 0.52558 0.36582 0.0
H361 H 0.74101 0.53108 0.08689 0.0
H362 H 0.70142 0.53457 0.91505 0.0
H363 H 0.64495 0.53224 0.84277 0.0
H364 H 0.57018 0.52536 0.12318 0.0
H365 H 0.60984 0.52799 0.29441 0.0
C366 C 0.67359 0.5281 0.26746 0.0
C367 C 0.70648 0.52839 0.2394 0.0
C368 C 0.65057 0.52957 0.16887 0.0
C369 C 0.71593 0.53141 0.11127 0.0
C370 C 0.69323 0.53303 1.01289 0.0
C371 C 0.6373 0.53112 0.94146 0.0
C372 C 0.60446 0.52807 0.96971 0.0
C373 C 0.66041 0.53148 0.04019 0.0
C374 C 0.59515 0.52701 0.09828 0.0
C375 C 0.61785 0.5283 0.19644 0.0
H376 H 0.06249 0.71233 0.12321 0.0
H377 H 1.00912 0.6768 0.44357 0.0
H378 H 0.99568 0.62828 0.32324 0.0
H379 H 1.00006 0.59522 0.12462 0.0
H380 H 0.05433 0.63189 0.80747 0.0
H381 H 0.06716 0.67991 0.92861 0.0
C382 C 0.04786 0.69397 0.16653 0.0
C383 C 0.03668 0.69835 0.29226 0.0
C384 C 0.04072 0.666 0.09719 0.0
C385 C 1.01757 0.67435 0.34655 0.0
C386 C 1.01017 0.64645 0.27788 0.0
C387 C 1.01471 0.61376 0.0825 0.0
C388 C 0.0262 0.60992 0.95659 0.0
C389 C 1.02173 0.64185 0.15297 0.0
C390 C 0.04512 0.63422 0.90358 0.0
C391 C 0.05243 0.66176 0.9729 0.0
H392 H 0.94901 0.22848 0.07584 0.0
H393 H 0.96032 0.25375 0.47111 0.0
H394 H 0.93289 0.20559 0.5368 0.0
H395 H 0.92172 0.151 0.48582 0.0
H396 H 0.92131 0.11982 0.09445 0.0
H397 H 0.92797 0.175 0.02253 0.0
C398 C 0.94482 0.22351 0.17587 0.0
C399 C 0.95692 0.24436 0.26843 0.0
C400 C 0.93154 0.19424 0.2135 0.0
C401 C 0.95087 0.23825 0.39801 0.0
C402 C 0.93553 0.21047 0.43574 0.0
C403 C 0.92143 0.15626 0.38448 0.0
C404 C 0.92225 0.13127 0.29578 0.0
C405 C 0.92788 0.18739 0.34486 0.0
C406 C 0.92149 0.13869 0.16479 0.0
C407 C 0.92571 0.17019 0.12375 0.0
H408 H 0.31089 0.09276 0.02741 0.0
H409 H 0.28523 0.1013 0.42282 0.0
H410 H 0.33726 0.12315 0.47198 0.0
H411 H 0.39328 0.1157 0.42249 0.0
H412 H 0.42059 0.08614 0.04514 0.0
H413 H 0.36752 0.09878 0.96638 0.0
C414 C 0.31676 0.10004 0.12347 0.0
C415 C 0.29523 0.09353 0.22257 0.0
C416 C 0.34823 0.10823 0.15419 0.0
C417 C 0.30174 0.10533 0.34512 0.0
C418 C 0.3318 0.11738 0.3737 0.0
C419 C 0.38774 0.11282 0.3221 0.0
C420 C 0.40963 0.09701 0.24282 0.0
C421 C 0.35604 0.1152 0.28231 0.0
C422 C 0.40352 0.0963 0.11091 0.0
C423 C 0.37284 0.10304 0.06596 0.0
H424 H 0.59802 0.29803 0.99493 0.0
H425 H 0.59503 0.27236 0.39232 0.0
H426 H 0.62325 0.32086 0.44833 0.0
H427 H 0.63073 0.37617 0.39309 0.0
H428 H 0.62425 0.40684 1.00081 0.0
H429 H 0.61761 0.3515 0.93333 0.0
C430 C 0.60432 0.30297 0.09302 0.0
C431 C 0.59368 0.28243 0.18979 0.0
C432 C 0.61792 0.33239 0.12551 0.0
C433 C 0.60295 0.288 0.31634 0.0
C434 C 0.61866 0.316 0.34855 0.0
C435 C 0.62955 0.37083 0.29209 0.0
C436 C 0.62667 0.39568 0.20264 0.0
C437 C 0.62372 0.3394 0.25527 0.0
C438 C 0.6255 0.3881 0.07205 0.0
C439 C 0.62149 0.35647 0.03349 0.0
H440 H 0.24233 0.58855 0.99201 0.0
H441 H 0.26885 0.58985 0.38846 0.0
H442 H 0.22123 0.61974 0.44088 0.0
H443 H 0.16624 0.6275 0.38776 0.0
H444 H 0.13441 0.61933 0.99753 0.0
H445 H 0.18917 0.60931 0.92943 0.0
C446 C 0.23786 0.59623 0.08892 0.0
C447 C 0.25848 0.58624 0.18664 0.0
C448 C 0.20875 0.61085 0.12038 0.0
C449 C 0.25338 0.59728 0.31135 0.0
C450 C 0.22574 0.61387 0.34187 0.0
C451 C 0.171 0.62515 0.28673 0.0
C452 C 0.14577 0.62252 0.19915 0.0
C453 C 0.20217 0.61822 0.24914 0.0
C454 C 0.15316 0.6199 0.06841 0.0
C455 C 0.18453 0.61421 0.02916 0.0
H456 H 0.10718 0.79682 0.63192 0.0
H457 H 0.11028 0.77989 0.22745 0.0
H458 H 0.14173 0.82771 0.19543 0.0
H459 H 0.15111 0.88084 0.26992 0.0
H460 H 0.13793 0.90414 0.66705 0.0
H461 H 0.12793 0.84797 0.71545 0.0
C462 C 0.1154 0.80351 0.53765 0.0
C463 C 0.10594 0.78541 0.43195 0.0
C464 C 0.13091 0.83278 0.51852 0.0
C465 C 0.11752 0.79334 0.31036 0.0
C466 C 0.1351 0.82102 0.2918 0.0
C467 C 0.14765 0.87375 0.36844 0.0
C468 C 0.1435 0.89698 0.46346 0.0
C469 C 0.13959 0.84206 0.39351 0.0
C470 C 0.13991 0.88684 0.59089 0.0
C471 C 0.13389 0.85474 0.61848 0.0
H472 H 0.74204 0.08973 0.60291 0.0
H473 H 0.77179 0.08404 0.21027 0.0
H474 H 0.72465 0.11277 0.14305 0.0
H475 H 0.66947 0.12257 0.18718 0.0
H476 H 0.6345 0.12111 0.57455 0.0
H477 H 0.68861 0.11184 0.65231 0.0
C478 C 0.73838 0.09558 0.50332 0.0
C479 C 0.76004 0.08427 0.41169 0.0
C480 C 0.70967 0.10979 0.46385 0.0
C481 C 0.7557 0.0927 0.28304 0.0
C482 C 0.72837 0.1087 0.24411 0.0
C483 C 0.67347 0.12183 0.28919 0.0
C484 C 0.64755 0.12086 0.37416 0.0
C485 C 0.70421 0.11502 0.33246 0.0
C486 C 0.65385 0.12045 0.50617 0.0
C487 C 0.68482 0.11506 0.55086 0.0
H488 H 0.44499 0.73572 0.58643 0.0
H489 H 0.44651 0.76292 0.19054 0.0
H490 H 0.41902 0.7141 0.13267 0.0
H491 H 0.4127 0.65851 0.18503 0.0
H492 H 0.42022 0.62662 0.57548 0.0
H493 H 0.4261 0.68181 0.6458 0.0
C494 C 0.43853 0.73102 0.48831 0.0
C495 C 0.44858 0.75207 0.39228 0.0
C496 C 0.42526 0.70154 0.45465 0.0
C497 C 0.4391 0.74681 0.26578 0.0
C498 C 0.42378 0.71868 0.23254 0.0
C499 C 0.41394 0.66349 0.28629 0.0
C500 C 0.41749 0.63841 0.37425 0.0
C501 C 0.41929 0.69489 0.32469 0.0
C502 C 0.41858 0.64557 0.50527 0.0
C503 C 0.42216 0.67712 0.54547 0.0
H504 H 0.77437 0.45129 0.25321 0.0
H505 H 0.79302 0.46265 0.65316 0.0
H506 H 0.84387 0.43435 0.62989 0.0
H507 H 0.88833 0.42403 0.48143 0.0
H508 H 0.86938 0.41823 0.07772 0.0
H509 H 0.81272 0.42411 0.1171 0.0
C510 C 0.78864 0.44574 0.3366 0.0
C511 C 0.78119 0.46025 0.45321 0.0
C512 C 0.81807 0.43069 0.32069 0.0
C513 C 0.79931 0.45269 0.56142 0.0
C514 C 0.82837 0.43669 0.54773 0.0
C515 C 0.87157 0.42275 0.40283 0.0
C516 C 0.88306 0.42227 0.27666 0.0
C517 C 0.83913 0.42833 0.42546 0.0
C518 C 0.86127 0.41926 0.1757 0.0
C519 C 0.82878 0.42308 0.19798 0.0
H520 H 0.02723 0.20458 0.29545 0.0
H521 H 1.00574 0.24909 0.93637 0.0
H522 H 1.00956 0.19719 0.82802 0.0
H523 H 1.01682 0.13756 0.83767 0.0
H524 H 0.04211 0.09531 0.19994 0.0
H525 H 0.03871 0.14675 0.30237 0.0
C526 C 1.02417 0.20294 0.19306 0.0
C527 C 1.01673 0.23082 0.12385 0.0
C528 C 0.02645 0.17289 0.13144 0.0
C529 C 1.01212 0.22813 0.99138 0.0
C530 C 1.01399 0.1983 0.92967 0.0
C531 C 1.02176 0.1396 0.93872 0.0
C532 C 0.02884 0.11167 1.0102 0.0
C533 C 1.0208 0.17022 0.99874 0.0
C534 C 0.03561 0.11557 0.14128 0.0
C535 C 0.03397 0.14535 0.20095 0.0
H536 H 0.30612 0.03761 0.95765 0.0
H537 H 0.33039 1.01448 0.34506 0.0
H538 H 0.38593 1.00436 0.28073 0.0
H539 H 0.42929 1.00749 0.11672 0.0
H540 H 0.40491 0.03631 0.73393 0.0
H541 H 0.34882 0.03946 0.79353 0.0
C542 C 0.3236 0.03017 0.02776 0.0
C543 C 0.31395 0.02693 0.15646 0.0
C544 C 0.35602 0.02621 0.99101 0.0
C545 C 0.33698 1.01712 0.24576 0.0
C546 C 0.36893 1.01182 0.20899 0.0
C547 C 0.41181 1.01466 0.04633 0.0
C548 C 0.42203 1.02188 0.92024 0.0
C549 C 0.37908 1.01723 0.08248 0.0
C550 C 0.39838 0.03047 0.83103 0.0
C551 C 0.36601 0.03235 0.86531 0.0
H552 H 0.54234 0.29859 0.91092 0.0
H553 H 0.5173 0.31954 0.29923 0.0
H554 H 0.51114 0.37637 0.24455 0.0
H555 H 0.51472 0.42083 0.08687 0.0
H556 H 0.5427 0.39992 0.70006 0.0
H557 H 0.54606 0.34312 0.75308 0.0
C558 C 0.53504 0.31559 0.98295 0.0
C559 C 0.52981 0.30455 0.1091 0.0
C560 C 0.53245 0.34856 0.951 0.0
C561 C 0.52087 0.32711 0.20145 0.0
C562 C 0.51769 0.35973 0.17009 0.0
C563 C 0.52149 0.40395 0.01359 0.0
C564 C 0.52841 0.41531 0.88865 0.0
C565 C 0.5237 0.3709 0.04532 0.0
C566 C 0.53719 0.39248 0.79658 0.0
C567 C 0.5391 0.35974 0.82701 0.0
H568 H 0.24128 0.53023 0.92063 0.0
H569 H 0.21572 0.51661 0.31403 0.0
H570 H 0.15908 0.51371 0.25508 0.0
H571 H 0.11655 0.51685 0.09206 0.0
H572 H 0.1418 0.53314 0.69829 0.0
H573 H 0.19837 0.53348 0.75632 0.0
C574 C 0.22325 0.52603 0.99278 0.0
C575 C 0.23279 0.52306 0.12164 0.0
C576 C 0.19054 0.5253 0.95796 0.0
C577 C 0.20911 0.51829 0.21445 0.0
C578 C 0.17669 0.51699 0.18055 0.0
C579 C 0.13432 0.52039 0.01829 0.0
C580 C 0.12444 0.52485 0.89004 0.0
C581 C 0.16703 0.52075 0.0527 0.0
C582 C 0.14826 0.52959 0.79728 0.0
C583 C 0.18079 0.52972 0.83061 0.0
H584 H 0.04934 0.79543 0.70924 0.0
H585 H 0.03363 0.82372 0.3201 0.0
H586 H 0.02766 0.87964 0.38656 0.0
H587 H 0.0289 0.92107 0.55539 0.0
H588 H 0.04756 0.89292 0.94429 0.0
H589 H 0.05046 0.83702 0.87882 0.0
C590 C 0.04396 0.81383 0.63967 0.0
C591 C 0.04128 0.80523 0.50977 0.0
C592 C 0.0415 0.84621 0.67876 0.0
C593 C 0.03508 0.82952 0.42045 0.0
C594 C 0.03203 0.86158 0.45864 0.0
C595 C 0.03358 0.9028 0.6263 0.0
C596 C 0.03803 0.91176 0.7555 0.0
C597 C 0.03552 0.87035 0.58749 0.0
C598 C 0.04403 0.88725 0.84464 0.0
C599 C 0.04566 0.85505 0.80705 0.0
H600 H 0.71389 1.01745 0.36022 0.0
H601 H 0.75881 0.02916 0.72481 0.0
H602 H 0.7066 0.02718 0.83146 0.0
H603 H 0.64686 1.024 0.82028 0.0
H604 H 0.60348 1.00849 0.45255 0.0
H605 H 0.65522 1.01047 0.35039 0.0
C606 C 0.71222 1.01879 0.4632 0.0
C607 C 0.74041 1.02288 0.53456 0.0
C608 C 0.6819 1.01755 0.52408 0.0
C609 C 0.73764 0.02534 0.66795 0.0
C610 C 0.70764 1.02454 0.72881 0.0
C611 C 0.64868 1.0209 0.71799 0.0
C612 C 0.62045 1.01663 0.64552 0.0
C613 C 0.67935 1.02096 0.65803 0.0
C614 C 0.62407 1.01231 0.51261 0.0
C615 C 0.65399 1.01327 0.45299 0.0
H616 H 0.50105 0.7367 0.66543 0.0
H617 H 0.52566 0.7165 0.27609 0.0
H618 H 0.53287 0.65972 0.32981 0.0
H619 H 0.53016 0.61502 0.48709 0.0
H620 H 0.50255 0.63532 0.8749 0.0
H621 H 0.49834 0.69206 0.82271 0.0
C622 C 0.50851 0.71988 0.59296 0.0
C623 C 0.51328 0.73111 0.46683 0.0
C624 C 0.51168 0.68695 0.62436 0.0
C625 C 0.52244 0.7088 0.37388 0.0
C626 C 0.52621 0.67619 0.40471 0.0
C627 C 0.52329 0.63177 0.56073 0.0
C628 C 0.51671 0.62024 0.68573 0.0
C629 C 0.52059 0.66481 0.52949 0.0
C630 C 0.50781 0.64288 0.77832 0.0
C631 C 0.50541 0.6756 0.74837 0.0
H632 H 0.80329 0.52015 0.67335 0.0
H633 H 0.82676 0.5269 0.27501 0.0
H634 H 0.88368 0.5305 0.32814 0.0
H635 H 0.92723 0.52953 0.48827 0.0
H636 H 0.90391 0.51833 0.88657 0.0
H637 H 0.84706 0.51818 0.83378 0.0
C638 C 0.82094 0.52269 0.5985 0.0
C639 C 0.81064 0.52362 0.47011 0.0
C640 C 0.85385 0.52351 0.63008 0.0
C641 C 0.83386 0.52675 0.37423 0.0
C642 C 0.86648 0.52845 0.40488 0.0
C643 C 0.90981 0.52702 0.56395 0.0
C644 C 0.92035 0.52392 0.69194 0.0
C645 C 0.87687 0.5265 0.53246 0.0
C646 C 0.89696 0.52074 0.78756 0.0
C647 C 0.86426 0.52071 0.75726 0.0
loop_
_geom_bond_atom_site_label_1
_geom_bond_atom_site_label_2
_geom_bond_distance
_geom_bond_site_symmetry_2
_ccdc_geom_bond_type
C0 N1 1.317 . S
C0 N2 1.348 . S
C0 C3 1.485 . S
N1 C0 1.317 . S
N1 N5 1.370 . S
N2 C0 1.348 . S
N2 C4 1.346 . S
C3 C0 1.485 . S
C3 H7 0.960 . S
C3 H8 0.961 . S
C3 H9 0.960 . S
C4 N2 1.346 . S
C4 N5 1.307 . S
C4 C6 1.486 . S
N5 N1 1.370 . S
N5 C4 1.307 . S
C6 C4 1.486 . S
C6 H10 0.960 . S
C6 H11 0.960 . S
C6 H12 0.959 . S
H7 C3 0.960 . S
H8 C3 0.961 . S
H9 C3 0.960 . S
H10 C6 0.960 . S
H11 C6 0.960 . S
H12 C6 0.959 . S
C13 N14 1.317 . S
C13 N15 1.350 . S
C13 C16 1.485 . S
N14 C13 1.317 . S
N14 N18 1.371 . S
N15 C13 1.350 . S
N15 C17 1.345 1_655 S
C16 C13 1.485 . S
C16 H20 0.960 1_655 S
C16 H21 0.961 . S
C16 H22 0.960 . S
C17 N15 1.345 1_455 S
C17 N18 1.307 1_455 S
C17 C19 1.486 . S
N18 N14 1.371 . S
N18 C17 1.307 1_655 S
C19 C17 1.486 . S
C19 H23 0.960 1_455 S
C19 H24 0.960 . S
C19 H25 0.959 . S
H20 C16 0.960 1_455 S
H21 C16 0.961 . S
H22 C16 0.960 . S
H23 C19 0.960 1_655 S
H24 C19 0.960 . S
H25 C19 0.959 . S
C26 N27 1.317 . S
C26 N28 1.348 . S
C26 C29 1.485 . S
N27 C26 1.317 . S
N27 N31 1.371 . S
N28 C26 1.348 . S
N28 C30 1.346 1_565 S
C29 C26 1.485 . S
C29 H33 0.960 1_565 S
C29 H34 0.961 . S
C29 H35 0.960 . S
C30 N28 1.346 1_545 S
C30 N31 1.307 1_545 S
C30 C32 1.486 . S
N31 N27 1.371 . S
N31 C30 1.307 1_565 S
C32 C30 1.486 . S
C32 H36 0.960 1_545 S
C32 H37 0.960 . S
C32 H38 0.959 . S
H33 C29 0.960 1_545 S
H34 C29 0.961 . S
H35 C29 0.960 . S
H36 C32 0.960 1_565 S
H37 C32 0.960 . S
H38 C32 0.959 . S
C39 N40 1.317 . S
C39 N41 1.348 . S
C39 C42 1.485 . S
N40 C39 1.317 . S
N40 N44 1.370 . S
N41 C39 1.348 . S
N41 C43 1.346 . S
C42 C39 1.485 . S
C42 H46 0.960 . S
C42 H47 0.961 . S
C42 H48 0.960 . S
C43 N41 1.346 . S
C43 N44 1.307 . S
C43 C45 1.486 . S
N44 N40 1.370 . S
N44 C43 1.307 . S
C45 C43 1.486 . S
C45 H49 0.960 . S
C45 H50 0.960 . S
C45 H51 0.959 . S
H46 C42 0.960 . S
H47 C42 0.961 . S
H48 C42 0.960 . S
H49 C45 0.960 . S
H50 C45 0.960 . S
H51 C45 0.959 . S
C52 N53 1.317 . S
C52 N54 1.348 1_556 S
C52 C55 1.485 . S
N53 C52 1.317 . S
N53 N57 1.370 1_556 S
N54 C52 1.348 1_554 S
N54 C56 1.346 . S
C55 C52 1.485 . S
C55 H59 0.960 . S
C55 H60 0.961 . S
C55 H61 0.960 . S
C56 N54 1.346 . S
C56 N57 1.307 . S
C56 C58 1.486 . S
N57 N53 1.370 1_554 S
N57 C56 1.307 . S
C58 C56 1.486 . S
C58 H62 0.960 . S
C58 H63 0.960 . S
C58 H64 0.959 . S
H59 C55 0.960 . S
H60 C55 0.961 . S
H61 C55 0.960 . S
H62 C58 0.960 . S
H63 C58 0.960 . S
H64 C58 0.959 . S
C65 N66 1.317 . S
C65 N67 1.350 1_556 S
C65 C68 1.485 . S
N66 C65 1.317 . S
N66 N70 1.370 1_556 S
N67 C65 1.350 1_554 S
N67 C69 1.345 1_655 S
C68 C65 1.485 . S
C68 H72 0.960 1_655 S
C68 H73 0.961 . S
C68 H74 0.960 . S
C69 N67 1.345 1_455 S
C69 N70 1.307 1_455 S
C69 C71 1.486 . S
N70 N66 1.370 1_554 S
N70 C69 1.307 1_655 S
C71 C69 1.486 . S
C71 H75 0.960 1_455 S
C71 H76 0.960 . S
C71 H77 0.959 . S
H72 C68 0.960 1_455 S
H73 C68 0.961 . S
H74 C68 0.960 . S
H75 C71 0.960 1_655 S
H76 C71 0.960 . S
H77 C71 0.959 . S
C78 N79 1.317 . S
C78 N80 1.350 1_556 S
C78 C81 1.485 . S
N79 C78 1.317 . S
N79 N83 1.371 1_556 S
N80 C78 1.350 1_554 S
N80 C82 1.345 1_565 S
C81 C78 1.485 . S
C81 H85 0.960 1_565 S
C81 H86 0.961 . S
C81 H87 0.960 . S
C82 N80 1.345 1_545 S
C82 N83 1.307 1_545 S
C82 C84 1.487 . S
N83 N79 1.371 1_554 S
N83 C82 1.307 1_565 S
C84 C82 1.487 . S
C84 H88 0.960 1_545 S
C84 H89 0.960 . S
C84 H90 0.959 . S
H85 C81 0.960 1_545 S
H86 C81 0.961 . S
H87 C81 0.960 . S
H88 C84 0.960 1_565 S
H89 C84 0.960 . S
H90 C84 0.959 . S
C91 N92 1.317 . S
C91 N93 1.348 1_556 S
C91 C94 1.485 . S
N92 C91 1.317 . S
N92 N96 1.370 1_556 S
N93 C91 1.348 1_554 S
N93 C95 1.346 . S
C94 C91 1.485 . S
C94 H98 0.960 . S
C94 H99 0.961 . S
C94 H100 0.960 . S
C95 N93 1.346 . S
C95 N96 1.307 . S
C95 C97 1.486 . S
N96 N92 1.370 1_554 S
N96 C95 1.307 . S
C97 C95 1.486 . S
C97 H101 0.960 . S
C97 H102 0.960 . S
C97 H103 0.959 . S
H98 C94 0.960 . S
H99 C94 0.961 . S
H100 C94 0.960 . S
H101 C97 0.960 . S
H102 C97 0.960 . S
H103 C97 0.959 . S
Ho104 C107 2.811 1_556 S
Ho104 O124 2.322 . S
Ho104 O126 2.378 1_556 S
Ho104 O127 2.524 1_556 S
Ho104 O128 2.381 . S
Ho104 O129 2.669 1_565 S
Ho104 O131 2.346 1_565 S
Ho104 O135 2.305 1_455 S
Ho105 C116 2.811 . S
Ho105 O125 2.346 1_545 S
Ho105 O129 2.305 1_655 S
Ho105 O130 2.322 . S
Ho105 O132 2.378 . S
Ho105 O133 2.524 . S
Ho105 O134 2.381 . S
Ho105 O135 2.669 1_545 S
C106 O124 1.259 1_655 S
C106 O125 1.268 . S
C107 Ho104 2.811 1_554 S
C107 C108 1.488 . S
C107 O126 1.215 . S
C107 O127 1.289 . S
C108 C107 1.488 . S
C108 C109 1.348 . S
C108 C113 1.413 . S
C109 C108 1.348 . S
C109 C110 1.442 . S
C109 H136 0.930 1_455 S
C110 C109 1.442 . S
C110 C111 1.381 . S
C110 H137 0.931 1_455 S
C111 C110 1.381 . S
C111 C112 1.321 . S
C112 C111 1.321 . S
C112 C113 1.403 . S
C112 H138 0.934 . S
C113 C108 1.413 . S
C113 C112 1.403 . S
C113 H139 0.930 . S
C114 O128 1.275 . S
C114 O129 1.256 1_565 S
C115 O130 1.259 1_455 S
C115 O131 1.268 . S
C116 Ho105 2.811 . S
C116 C117 1.488 . S
C116 O132 1.215 . S
C116 O133 1.289 . S
C117 C116 1.488 . S
C117 C118 1.348 . S
C117 C122 1.413 . S
C118 C117 1.348 . S
C118 C119 1.442 . S
C118 H140 0.930 1_655 S
C119 C118 1.442 . S
C119 C120 1.381 . S
C119 H141 0.931 1_655 S
C120 C119 1.381 . S
C120 C121 1.321 . S
C121 C120 1.321 . S
C121 C122 1.403 . S
C121 H142 0.934 . S
C122 C117 1.413 . S
C122 C121 1.403 . S
C122 H143 0.930 . S
C123 O134 1.275 . S
C123 O135 1.256 1_545 S
O124 Ho104 2.322 . S
O124 C106 1.259 1_455 S
O125 Ho105 2.346 1_565 S
O125 C106 1.268 . S
O126 Ho104 2.378 1_554 S
O126 C107 1.215 . S
O127 Ho104 2.524 1_554 S
O127 C107 1.289 . S
O128 Ho104 2.381 . S
O128 C114 1.275 . S
O129 Ho104 2.669 1_545 S
O129 Ho105 2.305 1_455 S
O129 C114 1.256 1_545 S
O130 Ho105 2.322 . S
O130 C115 1.259 1_655 S
O131 Ho104 2.346 1_545 S
O131 C115 1.268 . S
O132 Ho105 2.378 . S
O132 C116 1.215 . S
O133 Ho105 2.524 . S
O133 C116 1.289 . S
O134 Ho105 2.381 . S
O134 C123 1.275 . S
O135 Ho104 2.305 1_655 S
O135 Ho105 2.669 1_565 S
O135 C123 1.256 1_565 S
H136 C109 0.930 1_655 S
H137 C110 0.931 1_655 S
H138 C112 0.934 . S
H139 C113 0.930 . S
H140 C118 0.930 1_455 S
H141 C119 0.931 1_455 S
H142 C121 0.934 . S
H143 C122 0.930 . S
Ho144 C147 2.811 1_556 S
Ho144 O164 2.322 . S
Ho144 O166 2.378 1_556 S
Ho144 O167 2.524 1_556 S
Ho144 O168 2.381 . S
Ho144 O169 2.669 . S
Ho144 O171 2.346 . S
Ho144 O175 2.305 1_545 S
Ho145 C156 2.811 . S
Ho145 O165 2.346 . S
Ho145 O169 2.305 1_565 S
Ho145 O170 2.322 . S
Ho145 O172 2.378 . S
Ho145 O173 2.524 . S
Ho145 O174 2.381 . S
Ho145 O175 2.669 . S
C146 O164 1.259 1_565 S
C146 O165 1.268 . S
C147 Ho144 2.811 1_554 S
C147 C148 1.488 . S
C147 O166 1.215 . S
C147 O167 1.289 . S
C148 C147 1.488 . S
C148 C149 1.348 . S
C148 C153 1.413 . S
C149 C148 1.348 . S
C149 C150 1.442 . S
C149 H176 0.930 1_545 S
C150 C149 1.442 . S
C150 C151 1.381 . S
C150 H177 0.931 1_545 S
C151 C150 1.381 . S
C151 C152 1.321 . S
C152 C151 1.321 . S
C152 C153 1.403 . S
C152 H178 0.934 . S
C153 C148 1.413 . S
C153 C152 1.403 . S
C153 H179 0.930 . S
C154 O168 1.275 . S
C154 O169 1.256 . S
C155 O170 1.259 1_545 S
C155 O171 1.268 . S
C156 Ho145 2.811 . S
C156 C157 1.488 . S
C156 O172 1.215 . S
C156 O173 1.289 . S
C157 C156 1.488 . S
C157 C158 1.348 . S
C157 C162 1.413 . S
C158 C157 1.348 . S
C158 C159 1.442 . S
C158 H180 0.930 1_565 S
C159 C158 1.442 . S
C159 C160 1.381 . S
C159 H181 0.931 1_565 S
C160 C159 1.381 . S
C160 C161 1.321 . S
C161 C160 1.321 . S
C161 C162 1.403 . S
C161 H182 0.934 . S
C162 C157 1.413 . S
C162 C161 1.403 . S
C162 H183 0.930 . S
C163 O174 1.275 . S
C163 O175 1.256 . S
O164 Ho144 2.322 . S
O164 C146 1.259 1_545 S
O165 Ho145 2.346 . S
O165 C146 1.268 . S
O166 Ho144 2.378 1_554 S
O166 C147 1.215 . S
O167 Ho144 2.524 1_554 S
O167 C147 1.289 . S
O168 Ho144 2.381 . S
O168 C154 1.275 . S
O169 Ho144 2.669 . S
O169 Ho145 2.305 1_545 S
O169 C154 1.256 . S
O170 Ho145 2.322 . S
O170 C155 1.259 1_565 S
O171 Ho144 2.346 . S
O171 C155 1.268 . S
O172 Ho145 2.378 . S
O172 C156 1.215 . S
O173 Ho145 2.524 . S
O173 C156 1.289 . S
O174 Ho145 2.381 . S
O174 C163 1.275 . S
O175 Ho144 2.305 1_565 S
O175 Ho145 2.669 . S
O175 C163 1.256 . S
H176 C149 0.930 1_565 S
H177 C150 0.931 1_565 S
H178 C152 0.934 . S
H179 C153 0.930 . S
H180 C158 0.930 1_545 S
H181 C159 0.931 1_545 S
H182 C161 0.934 . S
H183 C162 0.930 . S
Ho184 C187 2.811 1_556 S
Ho184 O204 2.322 . S
Ho184 O206 2.378 1_556 S
Ho184 O207 2.524 1_556 S
Ho184 O208 2.381 . S
Ho184 O209 2.669 . S
Ho184 O211 2.346 . S
Ho184 O215 2.305 . S
Ho185 C196 2.811 . S
Ho185 O205 2.346 . S
Ho185 O209 2.305 . S
Ho185 O210 2.322 . S
Ho185 O212 2.378 . S
Ho185 O213 2.524 . S
Ho185 O214 2.381 . S
Ho185 O215 2.669 . S
C186 O204 1.259 . S
C186 O205 1.268 . S
C187 Ho184 2.811 1_554 S
C187 C188 1.488 . S
C187 O206 1.215 . S
C187 O207 1.289 . S
C188 C187 1.488 . S
C188 C189 1.348 . S
C188 C193 1.413 . S
C189 C188 1.348 . S
C189 C190 1.442 . S
C189 H216 0.930 . S
C190 C189 1.442 . S
C190 C191 1.381 . S
C190 H217 0.931 . S
C191 C190 1.381 . S
C191 C192 1.321 . S
C192 C191 1.321 . S
C192 C193 1.403 . S
C192 H218 0.934 . S
C193 C188 1.413 . S
C193 C192 1.403 . S
C193 H219 0.930 . S
C194 O208 1.275 . S
C194 O209 1.256 . S
C195 O210 1.259 . S
C195 O211 1.268 . S
C196 Ho185 2.811 . S
C196 C197 1.488 . S
C196 O212 1.215 . S
C196 O213 1.289 . S
C197 C196 1.488 . S
C197 C198 1.348 . S
C197 C202 1.413 . S
C198 C197 1.348 . S
C198 C199 1.442 . S
C198 H220 0.930 . S
C199 C198 1.442 . S
C199 C200 1.381 . S
C199 H221 0.931 . S
C200 C199 1.381 . S
C200 C201 1.321 . S
C201 C200 1.321 . S
C201 C202 1.403 . S
C201 H222 0.934 . S
C202 C197 1.413 . S
C202 C201 1.403 . S
C202 H223 0.930 . S
C203 O214 1.275 . S
C203 O215 1.256 . S
O204 Ho184 2.322 . S
O204 C186 1.259 . S
O205 Ho185 2.346 . S
O205 C186 1.268 . S
O206 Ho184 2.378 1_554 S
O206 C187 1.215 . S
O207 Ho184 2.524 1_554 S
O207 C187 1.289 . S
O208 Ho184 2.381 . S
O208 C194 1.275 . S
O209 Ho184 2.669 . S
O209 Ho185 2.305 . S
O209 C194 1.256 . S
O210 Ho185 2.322 . S
O210 C195 1.259 . S
O211 Ho184 2.346 . S
O211 C195 1.268 . S
O212 Ho185 2.378 . S
O212 C196 1.215 . S
O213 Ho185 2.524 . S
O213 C196 1.289 . S
O214 Ho185 2.381 . S
O214 C203 1.275 . S
O215 Ho184 2.305 . S
O215 Ho185 2.669 . S
O215 C203 1.256 . S
H216 C189 0.930 . S
H217 C190 0.931 . S
H218 C192 0.934 . S
H219 C193 0.930 . S
H220 C198 0.930 . S
H221 C199 0.931 . S
H222 C201 0.934 . S
H223 C202 0.930 . S
Ho224 C227 2.811 1_556 S
Ho224 O244 2.322 . S
Ho224 O246 2.378 1_556 S
Ho224 O247 2.524 1_556 S
Ho224 O248 2.381 . S
Ho224 O249 2.669 1_655 S
Ho224 O251 2.346 1_655 S
Ho224 O255 2.305 . S
Ho225 C236 2.811 . S
Ho225 O245 2.346 1_455 S
Ho225 O249 2.305 . S
Ho225 O250 2.322 . S
Ho225 O252 2.378 . S
Ho225 O253 2.524 . S
Ho225 O254 2.381 . S
Ho225 O255 2.669 1_455 S
C226 O244 1.259 . S
C226 O245 1.268 . S
C227 Ho224 2.811 1_554 S
C227 C228 1.488 . S
C227 O246 1.215 . S
C227 O247 1.289 . S
C228 C227 1.488 . S
C228 C229 1.348 . S
C228 C233 1.413 . S
C229 C228 1.348 . S
C229 C230 1.442 . S
C229 H256 0.930 . S
C230 C229 1.442 . S
C230 C231 1.381 . S
C230 H257 0.931 . S
C231 C230 1.381 . S
C231 C232 1.321 . S
C232 C231 1.321 . S
C232 C233 1.403 . S
C232 H258 0.934 . S
C233 C228 1.413 . S
C233 C232 1.403 . S
C233 H259 0.930 . S
C234 O248 1.285 . S
C234 O249 1.250 1_655 S
C235 O250 1.259 . S
C235 O251 1.268 . S
C236 Ho225 2.811 . S
C236 C237 1.488 . S
C236 O252 1.215 . S
C236 O253 1.289 . S
C237 C236 1.488 . S
C237 C238 1.348 . S
C237 C242 1.413 . S
C238 C237 1.348 . S
C238 C239 1.442 . S
C238 H260 0.930 . S
C239 C238 1.442 . S
C239 C240 1.381 . S
C239 H261 0.931 . S
C240 C239 1.381 . S
C240 C241 1.321 . S
C241 C240 1.321 . S
C241 C242 1.403 . S
C241 H262 0.934 . S
C242 C237 1.413 . S
C242 C241 1.403 . S
C242 H263 0.930 . S
C243 O254 1.289 . S
C243 O255 1.248 1_455 S
O244 Ho224 2.322 . S
O244 C226 1.259 . S
O245 Ho225 2.346 1_655 S
O245 C226 1.268 . S
O246 Ho224 2.378 1_554 S
O246 C227 1.215 . S
O247 Ho224 2.524 1_554 S
O247 C227 1.289 . S
O248 Ho224 2.381 . S
O248 C234 1.285 . S
O249 Ho224 2.669 1_455 S
O249 Ho225 2.305 . S
O249 C234 1.250 1_455 S
O250 Ho225 2.322 . S
O250 C235 1.259 . S
O251 Ho224 2.346 1_455 S
O251 C235 1.268 . S
O252 Ho225 2.378 . S
O252 C236 1.215 . S
O253 Ho225 2.524 . S
O253 C236 1.289 . S
O254 Ho225 2.381 . S
O254 C243 1.289 . S
O255 Ho224 2.305 . S
O255 Ho225 2.669 1_655 S
O255 C243 1.248 1_655 S
H256 C229 0.930 . S
H257 C230 0.931 . S
H258 C232 0.934 . S
H259 C233 0.930 . S
H260 C238 0.930 . S
H261 C239 0.931 . S
H262 C241 0.934 . S
H263 C242 0.930 . S
H264 C270 0.930 . S
H265 C273 0.930 . S
H266 C274 0.930 . S
H267 C275 0.930 . S
H268 C278 0.930 . S
H269 C279 0.930 . S
C270 H264 0.930 . S
C270 C271 1.352 1_565 S
C270 C272 1.415 . S
C271 C270 1.352 1_545 S
C271 C273 1.423 . S
C272 C270 1.415 . S
C272 C277 1.425 1_565 S
C272 C279 1.409 . S
C273 H265 0.930 . S
C273 C271 1.423 . S
C273 C274 1.362 . S
C274 H266 0.930 . S
C274 C273 1.362 . S
C274 C277 1.409 . S
C275 H267 0.930 . S
C275 C276 1.355 . S
C275 C277 1.415 . S
C276 C275 1.355 . S
C276 C278 1.419 1_545 S
C277 C272 1.425 1_545 S
C277 C274 1.409 . S
C277 C275 1.415 . S
C278 H268 0.930 . S
C278 C276 1.419 1_565 S
C278 C279 1.362 . S
C279 H269 0.930 . S
C279 C272 1.409 . S
C279 C278 1.362 . S
H280 C286 0.930 . S
H281 C289 0.930 . S
H282 C290 0.930 . S
H283 C291 0.930 . S
H284 C294 0.930 . S
H285 C295 0.930 . S
C286 H280 0.930 . S
C286 C287 1.355 . S
C286 C288 1.415 . S
C287 C286 1.355 . S
C287 C289 1.419 . S
C288 C286 1.415 . S
C288 C293 1.425 . S
C288 C295 1.409 . S
C289 H281 0.930 . S
C289 C287 1.419 . S
C289 C290 1.362 . S
C290 H282 0.930 . S
C290 C289 1.362 . S
C290 C293 1.409 . S
C291 H283 0.930 . S
C291 C292 1.355 . S
C291 C293 1.415 . S
C292 C291 1.355 . S
C292 C294 1.419 . S
C293 C288 1.425 . S
C293 C290 1.409 . S
C293 C291 1.415 . S
C294 H284 0.930 . S
C294 C292 1.419 . S
C294 C295 1.362 . S
C295 H285 0.930 . S
C295 C288 1.409 . S
C295 C294 1.362 . S
H296 C302 0.930 . S
H297 C305 0.930 . S
H298 C306 0.930 . S
H299 C307 0.930 . S
H300 C310 0.930 . S
H301 C311 0.930 . S
C302 H296 0.930 . S
C302 C303 1.355 . S
C302 C304 1.415 . S
C303 C302 1.355 . S
C303 C305 1.419 . S
C304 C302 1.415 . S
C304 C309 1.425 . S
C304 C311 1.409 . S
C305 H297 0.930 . S
C305 C303 1.419 . S
C305 C306 1.362 . S
C306 H298 0.930 . S
C306 C305 1.362 . S
C306 C309 1.409 . S
C307 H299 0.930 . S
C307 C308 1.355 . S
C307 C309 1.415 . S
C308 C307 1.355 . S
C308 C310 1.419 . S
C309 C304 1.425 . S
C309 C306 1.409 . S
C309 C307 1.415 . S
C310 H300 0.930 . S
C310 C308 1.419 . S
C310 C311 1.362 . S
C311 H301 0.930 . S
C311 C304 1.409 . S
C311 C310 1.362 . S
H312 C318 0.930 . S
H313 C321 0.930 . S
H314 C322 0.930 . S
H315 C323 0.930 . S
H316 C326 0.930 . S
H317 C327 0.930 . S
C318 H312 0.930 . S
C318 C319 1.355 1_655 S
C318 C320 1.415 . S
C319 C318 1.355 1_455 S
C319 C321 1.419 . S
C320 C318 1.415 . S
C320 C325 1.425 1_655 S
C320 C327 1.409 . S
C321 H313 0.930 . S
C321 C319 1.419 . S
C321 C322 1.362 . S
C322 H314 0.930 . S
C322 C321 1.362 . S
C322 C325 1.409 . S
C323 H315 0.930 . S
C323 C324 1.355 1_455 S
C323 C325 1.415 . S
C324 C323 1.355 1_655 S
C324 C326 1.419 . S
C325 C320 1.425 1_455 S
C325 C322 1.409 . S
C325 C323 1.415 . S
C326 H316 0.930 . S
C326 C324 1.419 . S
C326 C327 1.362 . S
C327 H317 0.930 . S
C327 C320 1.409 . S
C327 C326 1.362 . S
H328 C334 0.930 . S
H329 C337 0.930 . S
H330 C338 0.930 . S
H331 C339 0.930 . S
H332 C342 0.930 . S
H333 C343 0.930 . S
C334 H328 0.930 . S
C334 C335 1.343 1_545 S
C334 C336 1.415 . S
C335 C334 1.343 1_565 S
C335 C337 1.435 . S
C336 C334 1.415 . S
C336 C341 1.425 1_545 S
C336 C343 1.409 . S
C337 H329 0.930 . S
C337 C335 1.435 . S
C337 C338 1.362 . S
C338 H330 0.930 . S
C338 C337 1.362 . S
C338 C341 1.409 . S
C339 H331 0.930 . S
C339 C340 1.356 . S
C339 C341 1.415 . S
C340 C339 1.356 . S
C340 C342 1.417 1_565 S
C341 C336 1.425 1_565 S
C341 C338 1.409 . S
C341 C339 1.415 . S
C342 H332 0.930 . S
C342 C340 1.417 1_545 S
C342 C343 1.362 . S
C343 H333 0.930 . S
C343 C336 1.409 . S
C343 C342 1.362 . S
H344 C350 0.930 . S
H345 C353 0.930 . S
H346 C354 0.930 . S
H347 C355 0.930 . S
H348 C358 0.930 1_556 S
H349 C359 0.930 . S
C350 H344 0.930 . S
C350 C351 1.355 . S
C350 C352 1.415 . S
C351 C350 1.355 . S
C351 C353 1.419 . S
C352 C350 1.415 . S
C352 C357 1.425 . S
C352 C359 1.409 . S
C353 H345 0.930 . S
C353 C351 1.419 . S
C353 C354 1.362 . S
C354 H346 0.930 . S
C354 C353 1.362 . S
C354 C357 1.409 . S
C355 H347 0.930 . S
C355 C356 1.355 . S
C355 C357 1.415 . S
C356 C355 1.355 . S
C356 C358 1.419 . S
C357 C352 1.425 . S
C357 C354 1.409 . S
C357 C355 1.415 . S
C358 H348 0.930 1_554 S
C358 C356 1.419 . S
C358 C359 1.362 . S
C359 H349 0.930 . S
C359 C352 1.409 . S
C359 C358 1.362 . S
H360 C366 0.930 . S
H361 C369 0.930 . S
H362 C370 0.930 . S
H363 C371 0.930 . S
H364 C374 0.930 . S
H365 C375 0.930 . S
C366 H360 0.930 . S
C366 C367 1.355 . S
C366 C368 1.415 . S
C367 C366 1.355 . S
C367 C369 1.419 . S
C368 C366 1.415 . S
C368 C373 1.425 . S
C368 C375 1.409 . S
C369 H361 0.930 . S
C369 C367 1.419 . S
C369 C370 1.362 . S
C370 H362 0.930 . S
C370 C369 1.362 . S
C370 C373 1.409 . S
C371 H363 0.930 . S
C371 C372 1.355 . S
C371 C373 1.415 . S
C372 C371 1.355 . S
C372 C374 1.419 . S
C373 C368 1.425 . S
C373 C370 1.409 . S
C373 C371 1.415 . S
C374 H364 0.930 . S
C374 C372 1.419 . S
C374 C375 1.362 . S
C375 H365 0.930 . S
C375 C368 1.409 . S
C375 C374 1.362 . S
H376 C382 0.930 . S
H377 C385 0.930 . S
H378 C386 0.930 . S
H379 C387 0.930 . S
H380 C390 0.930 1_556 S
H381 C391 0.930 . S
C382 H376 0.930 . S
C382 C383 1.356 . S
C382 C384 1.415 . S
C383 C382 1.356 . S
C383 C385 1.418 1_655 S
C384 C382 1.415 . S
C384 C389 1.425 1_655 S
C384 C391 1.409 . S
C385 H377 0.930 . S
C385 C383 1.418 1_455 S
C385 C386 1.362 . S
C386 H378 0.930 . S
C386 C385 1.362 . S
C386 C389 1.409 . S
C387 H379 0.930 . S
C387 C388 1.355 1_455 S
C387 C389 1.415 . S
C388 C387 1.355 1_655 S
C388 C390 1.419 . S
C389 C384 1.425 1_455 S
C389 C386 1.409 . S
C389 C387 1.415 . S
C390 H380 0.930 1_554 S
C390 C388 1.419 . S
C390 C391 1.362 . S
C391 H381 0.930 . S
C391 C384 1.409 . S
C391 C390 1.362 . S
H392 C398 0.930 . S
H393 C401 0.930 . S
H394 C402 0.930 . S
H395 C403 0.930 . S
H396 C406 0.930 . S
H397 C407 0.930 . S
C398 H392 0.930 . S
C398 C399 1.355 1_655 S
C398 C400 1.415 . S
C399 C398 1.355 1_455 S
C399 C401 1.419 . S
C400 C398 1.415 . S
C400 C405 1.425 . S
C400 C407 1.409 . S
C401 H393 0.930 . S
C401 C399 1.419 . S
C401 C402 1.362 . S
C402 H394 0.930 . S
C402 C401 1.362 . S
C402 C405 1.409 1_455 S
C403 H395 0.930 . S
C403 C404 1.355 . S
C403 C405 1.415 . S
C404 C403 1.355 . S
C404 C406 1.419 . S
C405 C400 1.425 . S
C405 C402 1.409 1_655 S
C405 C403 1.415 . S
C406 H396 0.930 . S
C406 C404 1.419 . S
C406 C407 1.362 . S
C407 H397 0.930 . S
C407 C400 1.409 . S
C407 C406 1.362 . S
H408 C414 0.930 1_556 S
H409 C417 0.930 1_545 S
H410 C418 0.930 . S
H411 C419 0.930 . S
H412 C422 0.930 . S
H413 C423 0.930 . S
C414 H408 0.930 1_554 S
C414 C415 1.355 1_565 S
C414 C416 1.415 . S
C415 C414 1.355 1_545 S
C415 C417 1.419 1_545 S
C416 C414 1.415 . S
C416 C421 1.425 . S
C416 C423 1.409 . S
C417 H409 0.930 1_565 S
C417 C415 1.419 1_565 S
C417 C418 1.362 . S
C418 H410 0.930 . S
C418 C417 1.362 . S
C418 C421 1.409 . S
C419 H411 0.930 . S
C419 C420 1.355 . S
C419 C421 1.415 . S
C420 C419 1.355 . S
C420 C422 1.419 . S
C421 C416 1.425 . S
C421 C418 1.409 . S
C421 C419 1.415 . S
C422 H412 0.930 . S
C422 C420 1.419 . S
C422 C423 1.362 . S
C423 H413 0.930 . S
C423 C416 1.409 . S
C423 C422 1.362 . S
H424 C430 0.930 1_556 S
H425 C433 0.930 . S
H426 C434 0.930 . S
H427 C435 0.930 . S
H428 C438 0.930 . S
H429 C439 0.930 . S
C430 H424 0.930 1_554 S
C430 C431 1.355 . S
C430 C432 1.415 . S
C431 C430 1.355 . S
C431 C433 1.419 . S
C432 C430 1.415 . S
C432 C437 1.425 . S
C432 C439 1.409 . S
C433 H425 0.930 . S
C433 C431 1.419 . S
C433 C434 1.362 . S
C434 H426 0.930 . S
C434 C433 1.362 . S
C434 C437 1.409 . S
C435 H427 0.930 . S
C435 C436 1.355 . S
C435 C437 1.415 . S
C436 C435 1.355 . S
C436 C438 1.419 . S
C437 C432 1.425 . S
C437 C434 1.409 . S
C437 C435 1.415 . S
C438 H428 0.930 . S
C438 C436 1.419 . S
C438 C439 1.362 . S
C439 H429 0.930 . S
C439 C432 1.409 . S
C439 C438 1.362 . S
H440 C446 0.930 . S
H441 C449 0.930 . S
H442 C450 0.930 . S
H443 C451 0.930 . S
H444 C454 0.930 . S
H445 C455 0.930 . S
C446 H440 0.930 . S
C446 C447 1.355 . S
C446 C448 1.415 . S
C447 C446 1.355 . S
C447 C449 1.419 . S
C448 C446 1.415 . S
C448 C453 1.425 . S
C448 C455 1.409 . S
C449 H441 0.930 . S
C449 C447 1.419 . S
C449 C450 1.362 . S
C450 H442 0.930 . S
C450 C449 1.362 . S
C450 C453 1.409 . S
C451 H443 0.930 . S
C451 C452 1.355 . S
C451 C453 1.415 . S
C452 C451 1.355 . S
C452 C454 1.419 . S
C453 C448 1.425 . S
C453 C450 1.409 . S
C453 C451 1.415 . S
C454 H444 0.930 . S
C454 C452 1.419 . S
C454 C455 1.362 . S
C455 H445 0.930 . S
C455 C448 1.409 . S
C455 C454 1.362 . S
H456 C462 0.930 . S
H457 C465 0.930 . S
H458 C466 0.930 . S
H459 C467 0.930 . S
H460 C470 0.930 . S
H461 C471 0.930 . S
C462 H456 0.930 . S
C462 C463 1.355 1_455 S
C462 C464 1.415 . S
C463 C462 1.355 1_655 S
C463 C465 1.419 . S
C464 C462 1.415 . S
C464 C469 1.425 . S
C464 C471 1.409 . S
C465 H457 0.930 . S
C465 C463 1.419 . S
C465 C466 1.362 . S
C466 H458 0.930 . S
C466 C465 1.362 . S
C466 C469 1.409 1_655 S
C467 H459 0.930 . S
C467 C468 1.355 . S
C467 C469 1.415 . S
C468 C467 1.355 . S
C468 C470 1.419 . S
C469 C464 1.425 . S
C469 C466 1.409 1_455 S
C469 C467 1.415 . S
C470 H460 0.930 . S
C470 C468 1.419 . S
C470 C471 1.362 . S
C471 H461 0.930 . S
C471 C464 1.409 . S
C471 C470 1.362 . S
H472 C478 0.930 . S
H473 C481 0.930 . S
H474 C482 0.930 . S
H475 C483 0.930 . S
H476 C486 0.930 . S
H477 C487 0.930 . S
C478 H472 0.930 . S
C478 C479 1.355 1_545 S
C478 C480 1.415 . S
C479 C478 1.355 1_565 S
C479 C481 1.419 . S
C480 C478 1.415 . S
C480 C485 1.425 . S
C480 C487 1.409 . S
C481 H473 0.930 . S
C481 C479 1.419 . S
C481 C482 1.362 . S
C482 H474 0.930 . S
C482 C481 1.362 . S
C482 C485 1.409 1_565 S
C483 H475 0.930 . S
C483 C484 1.355 . S
C483 C485 1.415 . S
C484 C483 1.355 . S
C484 C486 1.419 . S
C485 C480 1.425 . S
C485 C482 1.409 1_545 S
C485 C483 1.415 . S
C486 H476 0.930 . S
C486 C484 1.419 . S
C486 C487 1.362 . S
C487 H477 0.930 . S
C487 C480 1.409 . S
C487 C486 1.362 . S
H488 C494 0.930 . S
H489 C497 0.930 . S
H490 C498 0.930 . S
H491 C499 0.930 . S
H492 C502 0.930 . S
H493 C503 0.930 . S
C494 H488 0.930 . S
C494 C495 1.355 . S
C494 C496 1.415 . S
C495 C494 1.355 . S
C495 C497 1.419 . S
C496 C494 1.415 . S
C496 C501 1.425 . S
C496 C503 1.409 . S
C497 H489 0.930 . S
C497 C495 1.419 . S
C497 C498 1.362 . S
C498 H490 0.930 . S
C498 C497 1.362 . S
C498 C501 1.409 . S
C499 H491 0.930 . S
C499 C500 1.355 . S
C499 C501 1.415 . S
C500 C499 1.355 . S
C500 C502 1.419 . S
C501 C496 1.425 . S
C501 C498 1.409 . S
C501 C499 1.415 . S
C502 H492 0.930 . S
C502 C500 1.419 . S
C502 C503 1.362 . S
C503 H493 0.930 . S
C503 C496 1.409 . S
C503 C502 1.362 . S
H504 C510 0.930 . S
H505 C513 0.930 . S
H506 C514 0.930 . S
H507 C515 0.930 . S
H508 C518 0.930 . S
H509 C519 0.930 . S
C510 H504 0.930 . S
C510 C511 1.355 . S
C510 C512 1.415 . S
C511 C510 1.355 . S
C511 C513 1.419 . S
C512 C510 1.415 . S
C512 C517 1.425 . S
C512 C519 1.409 . S
C513 H505 0.930 . S
C513 C511 1.419 . S
C513 C514 1.362 . S
C514 H506 0.930 . S
C514 C513 1.362 . S
C514 C517 1.409 . S
C515 H507 0.930 . S
C515 C516 1.355 . S
C515 C517 1.415 . S
C516 C515 1.355 . S
C516 C518 1.419 . S
C517 C512 1.425 . S
C517 C514 1.409 . S
C517 C515 1.415 . S
C518 H508 0.930 . S
C518 C516 1.419 . S
C518 C519 1.362 . S
C519 H509 0.930 . S
C519 C512 1.409 . S
C519 C518 1.362 . S
H520 C526 0.930 . S
H521 C529 0.930 . S
H522 C530 0.930 . S
H523 C531 0.930 1_554 S
H524 C534 0.930 . S
H525 C535 0.930 . S
C526 H520 0.930 . S
C526 C527 1.366 . S
C526 C528 1.415 . S
C527 C526 1.366 . S
C527 C529 1.407 1_456 S
C528 C526 1.415 . S
C528 C533 1.425 1_455 S
C528 C535 1.409 . S
C529 H521 0.930 . S
C529 C527 1.407 1_654 S
C529 C530 1.362 . S
C530 H522 0.930 . S
C530 C529 1.362 . S
C530 C533 1.409 1_554 S
C531 H523 0.930 1_556 S
C531 C532 1.355 1_655 S
C531 C533 1.415 . S
C532 C531 1.355 1_455 S
C532 C534 1.419 . S
C533 C528 1.425 1_655 S
C533 C530 1.409 1_556 S
C533 C531 1.415 . S
C534 H524 0.930 . S
C534 C532 1.419 . S
C534 C535 1.362 . S
C535 H525 0.930 . S
C535 C528 1.409 . S
C535 C534 1.362 . S
H536 C542 0.930 . S
H537 C545 0.930 1_554 S
H538 C546 0.930 . S
H539 C547 0.933 . S
H540 C550 0.930 . S
H541 C551 0.930 . S
C542 H536 0.930 . S
C542 C543 1.367 . S
C542 C544 1.415 . S
C543 C542 1.367 . S
C543 C545 1.406 1_545 S
C544 C542 1.415 . S
C544 C549 1.425 1_545 S
C544 C551 1.409 . S
C545 H537 0.930 1_556 S
C545 C543 1.406 1_565 S
C545 C546 1.362 1_556 S
C546 H538 0.930 . S
C546 C545 1.362 1_554 S
C546 C549 1.409 1_554 S
C547 H539 0.933 . S
C547 C548 1.355 1_565 S
C547 C549 1.415 . S
C548 C547 1.355 1_545 S
C548 C550 1.419 . S
C549 C544 1.425 1_565 S
C549 C546 1.409 1_556 S
C549 C547 1.415 . S
C550 H540 0.930 . S
C550 C548 1.419 . S
C550 C551 1.362 . S
C551 H541 0.930 . S
C551 C544 1.409 . S
C551 C550 1.362 . S
H552 C558 0.930 . S
H553 C561 0.930 . S
H554 C562 0.930 . S
H555 C563 0.930 1_554 S
H556 C566 0.930 . S
H557 C567 0.930 . S
C558 H552 0.930 . S
C558 C559 1.355 . S
C558 C560 1.415 . S
C559 C558 1.355 . S
C559 C561 1.419 1_556 S
C560 C558 1.415 . S
C560 C565 1.425 . S
C560 C567 1.409 . S
C561 H553 0.930 . S
C561 C559 1.419 1_554 S
C561 C562 1.362 . S
C562 H554 0.930 . S
C562 C561 1.362 . S
C562 C565 1.409 1_554 S
C563 H555 0.930 1_556 S
C563 C564 1.355 . S
C563 C565 1.415 . S
C564 C563 1.355 . S
C564 C566 1.419 . S
C565 C560 1.425 . S
C565 C562 1.409 1_556 S
C565 C563 1.415 . S
C566 H556 0.930 . S
C566 C564 1.419 . S
C566 C567 1.362 . S
C567 H557 0.930 . S
C567 C560 1.409 . S
C567 C566 1.362 . S
H568 C574 0.930 . S
H569 C577 0.930 . S
H570 C578 0.930 . S
H571 C579 0.930 . S
H572 C582 0.930 . S
H573 C583 0.930 . S
C574 H568 0.930 . S
C574 C575 1.355 . S
C574 C576 1.415 . S
C575 C574 1.355 . S
C575 C577 1.419 . S
C576 C574 1.415 . S
C576 C581 1.425 . S
C576 C583 1.409 . S
C577 H569 0.930 . S
C577 C575 1.419 . S
C577 C578 1.362 . S
C578 H570 0.930 . S
C578 C577 1.362 . S
C578 C581 1.409 . S
C579 H571 0.930 . S
C579 C580 1.355 . S
C579 C581 1.415 . S
C580 C579 1.355 . S
C580 C582 1.419 . S
C581 C576 1.425 . S
C581 C578 1.409 . S
C581 C579 1.415 . S
C582 H572 0.930 . S
C582 C580 1.419 . S
C582 C583 1.362 . S
C583 H573 0.930 . S
C583 C576 1.409 . S
C583 C582 1.362 . S
H584 C590 0.930 . S
H585 C593 0.930 . S
H586 C594 0.930 . S
H587 C595 0.930 . S
H588 C598 0.930 . S
H589 C599 0.930 . S
C590 H584 0.930 . S
C590 C591 1.355 1_455 S
C590 C592 1.415 . S
C591 C590 1.355 1_655 S
C591 C593 1.419 . S
C592 C590 1.415 . S
C592 C597 1.425 1_455 S
C592 C599 1.409 . S
C593 H585 0.930 . S
C593 C591 1.419 . S
C593 C594 1.362 . S
C594 H586 0.930 . S
C594 C593 1.362 . S
C594 C597 1.409 . S
C595 H587 0.930 . S
C595 C596 1.355 . S
C595 C597 1.415 . S
C596 C595 1.355 . S
C596 C598 1.419 1_655 S
C597 C592 1.425 1_655 S
C597 C594 1.409 . S
C597 C595 1.415 . S
C598 H588 0.930 . S
C598 C596 1.419 1_455 S
C598 C599 1.362 . S
C599 H589 0.930 . S
C599 C592 1.409 . S
C599 C598 1.362 . S
H600 C606 0.930 . S
H601 C609 0.930 . S
H602 C610 0.930 . S
H603 C611 0.930 . S
H604 C614 0.930 . S
H605 C615 0.930 . S
C606 H600 0.930 . S
C606 C607 1.372 . S
C606 C608 1.415 . S
C607 C606 1.372 . S
C607 C609 1.400 1_565 S
C608 C606 1.415 . S
C608 C613 1.425 1_565 S
C608 C615 1.409 . S
C609 H601 0.930 . S
C609 C607 1.400 1_545 S
C609 C610 1.362 . S
C610 H602 0.930 . S
C610 C609 1.362 . S
C610 C613 1.409 . S
C611 H603 0.930 . S
C611 C612 1.355 1_545 S
C611 C613 1.415 . S
C612 C611 1.355 1_565 S
C612 C614 1.419 . S
C613 C608 1.425 1_545 S
C613 C610 1.409 . S
C613 C611 1.415 . S
C614 H604 0.930 . S
C614 C612 1.419 . S
C614 C615 1.362 . S
C615 H605 0.930 . S
C615 C608 1.409 . S
C615 C614 1.362 . S
H616 C622 0.930 . S
H617 C625 0.930 . S
H618 C626 0.930 . S
H619 C627 0.930 . S
H620 C630 0.930 . S
H621 C631 0.930 . S
C622 H616 0.930 . S
C622 C623 1.355 . S
C622 C624 1.415 . S
C623 C622 1.355 . S
C623 C625 1.419 . S
C624 C622 1.415 . S
C624 C629 1.425 . S
C624 C631 1.409 . S
C625 H617 0.930 . S
C625 C623 1.419 . S
C625 C626 1.362 . S
C626 H618 0.930 . S
C626 C625 1.362 . S
C626 C629 1.409 . S
C627 H619 0.930 . S
C627 C628 1.355 . S
C627 C629 1.415 . S
C628 C627 1.355 . S
C628 C630 1.419 . S
C629 C624 1.425 . S
C629 C626 1.409 . S
C629 C627 1.415 . S
C630 H620 0.930 . S
C630 C628 1.419 . S
C630 C631 1.362 . S
C631 H621 0.930 . S
C631 C624 1.409 . S
C631 C630 1.362 . S
H632 C638 0.930 . S
H633 C641 0.930 . S
H634 C642 0.930 . S
H635 C643 0.930 . S
H636 C646 0.930 . S
H637 C647 0.930 . S
C638 H632 0.930 . S
C638 C639 1.355 . S
C638 C640 1.415 . S
C639 C638 1.355 . S
C639 C641 1.419 . S
C640 C638 1.415 . S
C640 C645 1.425 . S
C640 C647 1.409 . S
C641 H633 0.930 . S
C641 C639 1.419 . S
C641 C642 1.362 . S
C642 H634 0.930 . S
C642 C641 1.362 . S
C642 C645 1.409 . S
C643 H635 0.930 . S
C643 C644 1.355 . S
C643 C645 1.415 . S
C644 C643 1.355 . S
C644 C646 1.419 . S
C645 C640 1.425 . S
C645 C642 1.409 . S
C645 C643 1.415 . S
C646 H636 0.930 . S
C646 C644 1.419 . S
C646 C647 1.362 . S
C647 H637 0.930 . S
C647 C640 1.409 . S
C647 C646 1.362 . S
C271 N80 1.953 1_545 S
C276 C114 2.025 1_545 S
C292 C154 2.052 . S
C287 N93 1.942 . S
C308 C194 2.042 . S
C303 N54 1.948 . S
C324 C234 2.032 . S
C319 N67 1.934 1_455 S
C340 C123 2.031 1_564 S
C335 N28 1.889 . S
C351 N41 1.963 . S
C356 C163 2.050 1_554 S
C367 N2 1.913 . S
C372 C203 2.046 1_554 S
C383 N15 1.965 . S
C388 C243 2.038 1_654 S
C404 C120 0.700 . S
C399 N70 0.666 1_455 S
C420 C160 0.601 . S
C415 N83 0.568 1_545 S
C436 C200 0.644 . S
C431 N96 0.600 . S
C447 N57 0.667 . S
C452 C240 0.706 . S
C463 N18 0.665 . S
C468 C111 0.694 . S
C484 C151 0.646 . S
C479 N31 0.635 . S
C500 C191 0.655 . S
C495 N44 0.639 . S
C511 N5 0.540 . S
C516 C231 0.530 . S
C527 N66 2.258 1_455 S
C532 C115 2.383 . S
C543 N79 2.227 1_545 S
C548 C155 2.355 . S
C564 C195 2.324 . S
C559 N92 2.200 . S
C580 C235 2.340 . S
C575 N53 2.258 . S
C591 N14 2.261 . S
C596 C106 2.358 . S
C612 C146 2.354 . S
C607 N27 2.223 . S
C628 C186 2.318 . S
C623 N40 2.246 . S
C639 N1 2.220 . S
C644 C226 2.352 . S
