# Generated by pormake.
# Topology pyr, (3,6)-cn, num edge types: 1
# Building blocks:
#     Node 0, Type 0, BuildingBlock: MIDCAF_clean_linker_0, # of connection points: 3
#     Node 1, Type 0, BuildingBlock: MIDCAF_clean_linker_0, # of connection points: 3
#     Node 2, Type 0, BuildingBlock: MIDCAF_clean_linker_0, # of connection points: 3
#     Node 3, Type 0, BuildingBlock: MIDCAF_clean_linker_0, # of connection points: 3
#     Node 4, Type 0, BuildingBlock: MIDCAF_clean_linker_0, # of connection points: 3
#     Node 5, Type 0, BuildingBlock: MIDCAF_clean_linker_0, # of connection points: 3
#     Node 6, Type 0, BuildingBlock: MIDCAF_clean_linker_0, # of connection points: 3
#     Node 7, Type 0, BuildingBlock: MIDCAF_clean_linker_0, # of connection points: 3
#     Node 8, Type 1, BuildingBlock: JUFBIX_clean_sbu_0, # of connection points: 6
#     Node 9, Type 1, BuildingBlock: JUFBIX_clean_sbu_0, # of connection points: 6
#     Node 10, Type 1, BuildingBlock: JUFBIX_clean_sbu_0, # of connection points: 6
#     Node 11, Type 1, BuildingBlock: JUFBIX_clean_sbu_0, # of connection points: 6
#     Edge 12, Type (0, 1), None
#     Edge 13, Type (0, 1), None
#     Edge 14, Type (0, 1), None
#     Edge 15, Type (0, 1), None
#     Edge 16, Type (0, 1), None
#     Edge 17, Type (0, 1), None
#     Edge 18, Type (0, 1), None
#     Edge 19, Type (0, 1), None
#     Edge 20, Type (0, 1), None
#     Edge 21, Type (0, 1), None
#     Edge 22, Type (0, 1), None
#     Edge 23, Type (0, 1), None
#     Edge 24, Type (0, 1), None
#     Edge 25, Type (0, 1), None
#     Edge 26, Type (0, 1), None
#     Edge 27, Type (0, 1), None
#     Edge 28, Type (0, 1), None
#     Edge 29, Type (0, 1), None
#     Edge 30, Type (0, 1), None
#     Edge 31, Type (0, 1), None
#     Edge 32, Type (0, 1), None
#     Edge 33, Type (0, 1), None
#     Edge 34, Type (0, 1), None
#     Edge 35, Type (0, 1), None
# Relax obj value: 0.115
# Max RMSD: 0.115
# Mean RMSD: 0.044
data_MOF--net-pyr--node1-JUFBIX_clean_sbu_0--node2-MIDCAF_clean_linker_0--edge1-none
_symmetry_space_group_name_H-M    P1
_symmetry_Int_Tables_number       1
_symmetry_cell_setting            triclinic
loop_
_symmetry_equiv_pos_as_xyz
'x, y, z'
_cell_length_a     24.87098
_cell_length_b     23.435358
_cell_length_c     24.989296
_cell_angle_alpha  81.115393
_cell_angle_beta   89.789189
_cell_angle_gamma 91.047522
loop_
_atom_site_label
_atom_site_type_symbol
_atom_site_fract_x
_atom_site_fract_y
_atom_site_fract_z
_atom_type_partial_charge
C0 C 0.08179 0.0814 0.34136 0.0
C1 C 0.11183 0.05947 0.38717 0.0
C2 C 0.16806 0.0551 0.38079 0.0
C3 C 0.19342 0.07323 0.33013 0.0
H4 H 0.34067 0.07296 0.2153 0.0
H5 H 0.42295 0.04076 0.17581 0.0
H6 H 0.36565 0.10536 1.0156 0.0
H7 H 0.28415 0.13921 0.05511 0.0
H8 H 0.20834 0.26649 0.05757 0.0
H9 H 0.16277 0.35489 1.0172 0.0
H10 H 0.04578 0.3287 0.14712 0.0
H11 H 0.09004 0.24152 0.18673 0.0
H12 H 0.08214 0.11784 0.25753 0.0
H13 H 0.03858 0.08524 0.34428 0.0
H14 H 0.1926 0.03804 0.41508 0.0
H15 H 0.2367 0.07051 0.32691 0.0
N16 N 0.23531 0.10476 0.21213 0.0
N17 N 0.22836 0.17562 0.13411 0.0
N18 N 0.16324 0.16868 0.20272 0.0
C19 C 0.25517 0.13024 0.16252 0.0
C20 C 0.18245 0.19537 0.15429 0.0
C21 C 0.1886 0.12371 0.23208 0.0
C22 C 0.30537 0.10891 0.13867 0.0
C23 C 0.3455 0.08039 0.17167 0.0
C24 C 0.39296 0.06212 0.14889 0.0
C25 C 0.40134 0.07043 0.09227 0.0
C26 C 0.36086 0.09812 0.05923 0.0
C27 C 0.31402 0.11768 0.08207 0.0
C28 C 0.1535 0.24674 0.12587 0.0
C29 C 0.17253 0.27927 0.0771 0.0
C30 C 0.14627 0.32985 0.05382 0.0
C31 C 0.10068 0.34913 0.07903 0.0
C32 C 0.08086 0.31551 0.12663 0.0
C33 C 0.10661 0.26519 0.14949 0.0
C34 C 0.16323 0.09701 0.28486 0.0
C35 C 0.10702 0.10014 0.29134 0.0
C36 C 0.3317 0.02442 0.58724 0.0
C37 C 0.28949 0.98852 0.57453 0.0
C38 C 0.30128 0.93974 0.55057 0.0
C39 C 0.35445 0.92361 0.54509 0.0
H40 H 0.41938 0.76833 0.57058 0.0
H41 H 0.42876 0.66793 0.55654 0.0
H42 H 0.60051 0.68258 0.57742 0.0
H43 H 0.59093 0.7824 0.59331 0.0
H44 H 0.5228 0.84573 0.73933 0.0
H45 H 0.5043 0.87603 0.82676 0.0
H46 H 0.52336 0.05434 0.75483 0.0
H47 H 0.54056 0.02467 0.66636 0.0
H48 H 0.41643 0.03529 0.59504 0.0
H49 H 0.32358 0.06339 0.60391 0.0
H50 H 0.26942 0.91165 0.53979 0.0
H51 H 0.36193 0.88309 0.53086 0.0
N52 N 0.45854 0.8752 0.56637 0.0
N53 N 0.527 0.86349 0.63151 0.0
N54 N 0.47861 0.94906 0.61624 0.0
C55 C 0.4985 0.84308 0.59184 0.0
C56 C 0.5174 0.9171 0.64341 0.0
C57 C 0.44862 0.92862 0.57811 0.0
C58 C 0.50461 0.78303 0.58258 0.0
C59 C 0.45913 0.75 0.57213 0.0
C60 C 0.46433 0.69255 0.56457 0.0
C61 C 0.51526 0.66782 0.56585 0.0
C62 C 0.56076 0.7009 0.57606 0.0
C63 C 0.55537 0.75782 0.58518 0.0
C64 C 0.5328 0.93292 0.69602 0.0
C65 C 0.52576 0.89127 0.74246 0.0
C66 C 0.51412 0.90846 0.79217 0.0
C67 C 0.51096 0.96727 0.79627 0.0
C68 C 0.52498 0.00881 0.75177 0.0
C69 C 0.53557 0.99175 0.70167 0.0
C70 C 0.39657 0.95595 0.56379 0.0
C71 C 0.38485 0.00861 0.58141 0.0
C72 C 0.64347 0.19004 1.00683 0.0
C73 C 0.60132 0.16666 0.979 0.0
C74 C 0.58462 0.19714 0.9293 0.0
C75 C 0.60986 0.24918 0.9074 0.0
H76 H 0.57974 0.40193 0.81005 0.0
H77 H 0.53676 0.43374 0.72387 0.0
H78 H 0.68998 0.49761 0.65527 0.0
H79 H 0.73351 0.4653 0.74262 0.0
H80 H 0.839 0.45603 0.85163 0.0
H81 H 0.92237 0.48594 0.89233 0.0
H82 H 0.86309 0.41196 0.05088 0.0
H83 H 0.78055 0.38061 1.01013 0.0
H84 H 0.70207 0.25858 1.00651 0.0
H85 H 0.6574 0.16744 0.04523 0.0
H86 H 0.55227 0.18051 0.90684 0.0
H87 H 0.5959 0.27077 0.86862 0.0
N88 N 0.66112 0.35483 0.86169 0.0
N89 N 0.73256 0.42238 0.85491 0.0
N90 N 0.72644 0.34667 0.92921 0.0
C91 C 0.68589 0.40264 0.8346 0.0
C92 C 0.75271 0.3947 0.90295 0.0
C93 C 0.6808 0.32623 0.90841 0.0
C94 C 0.66038 0.43068 0.7834 0.0
C95 C 0.60449 0.42324 0.77684 0.0
C96 C 0.5796 0.44152 0.72723 0.0
C97 C 0.60976 0.46767 0.68223 0.0
C98 C 0.66544 0.47724 0.68903 0.0
C99 C 0.69046 0.45918 0.73918 0.0
C100 C 0.80284 0.4158 0.92739 0.0
C101 C 0.84363 0.44626 0.89514 0.0
C102 C 0.89162 0.46311 0.91856 0.0
C103 C 0.89967 0.45124 0.97505 0.0
C104 C 0.85843 0.42184 1.00737 0.0
C105 C 0.81105 0.40378 0.98384 0.0
C106 C 0.65294 0.27218 0.93431 0.0
C107 C 0.66921 0.24218 0.98458 0.0
C108 C 0.80879 0.62861 0.51863 0.0
C109 C 0.78644 0.57623 0.50792 0.0
C110 C 0.8189 0.52762 0.51099 0.0
C111 C 0.87439 0.53331 0.51759 0.0
H112 H 1.00499 0.48423 0.41721 0.0
H113 H 0.99194 0.44809 0.332 0.0
H114 H 1.0221 0.61982 0.24476 0.0
H115 H 0.03626 0.65564 0.33035 0.0
H116 H 0.06067 0.70732 0.5741 0.0
H117 H 0.07216 0.80783 0.58988 0.0
H118 H 1.02979 0.86769 0.42369 0.0
H119 H 1.02117 0.76754 0.40721 0.0
H120 H 0.88051 0.67648 0.52967 0.0
H121 H 0.7839 0.66615 0.51792 0.0
H122 H 0.80202 0.48664 0.50365 0.0
H123 H 0.89946 0.49669 0.51417 0.0
N124 N 0.97195 0.5738 0.46322 0.0
N125 N 0.03723 0.64685 0.43988 0.0
N126 N 0.97898 0.64925 0.51384 0.0
C127 C 1.0134 0.59636 0.43108 0.0
C128 C 1.02149 0.67196 0.48295 0.0
C129 C 0.95377 0.60019 0.50398 0.0
C130 C 1.02164 0.57273 0.38037 0.0
C131 C 1.01028 0.5139 0.37968 0.0
C132 C 1.00184 0.4934 0.33084 0.0
C133 C 1.00435 0.53131 0.28148 0.0
C134 C 1.01966 0.58941 0.28199 0.0
C135 C 1.02839 0.60992 0.33102 0.0
C136 C 0.04086 0.73011 0.4893 0.0
C137 C 0.056 0.74213 0.54056 0.0
C138 C 0.06231 0.79934 0.54962 0.0
C139 C 0.05141 0.845 0.50804 0.0
C140 C 0.03831 0.83294 0.45629 0.0
C141 C 1.03392 0.77587 0.44675 0.0
C142 C 0.89772 0.58758 0.52185 0.0
C143 C 0.86398 0.63408 0.52638 0.0
C144 C 0.68669 0.95469 0.92063 0.0
C145 C 0.6783 0.94626 0.97725 0.0
C146 C 0.7188 0.91856 1.01026 0.0
C147 C 0.76566 0.89909 0.98739 0.0
H148 H 0.87145 0.75047 1.01175 0.0
H149 H 0.91699 0.66202 0.05203 0.0
H150 H 1.03374 0.68808 0.9219 0.0
H151 H 0.98951 0.77531 0.88237 0.0
H152 H 0.9976 0.89946 0.81198 0.0
H153 H 0.0412 0.93214 0.72525 0.0
H154 H 0.88717 0.97917 0.65437 0.0
H155 H 0.84303 0.94662 0.74251 0.0
H156 H 0.739 0.94402 0.85419 0.0
H157 H 0.65669 0.97607 0.89374 0.0
H158 H 0.714 0.91124 0.05389 0.0
H159 H 0.79554 0.87753 1.01432 0.0
N160 N 0.85133 0.84129 0.93522 0.0
N161 N 0.91647 0.84838 0.86663 0.0
N162 N 0.8444 0.9123 0.85732 0.0
C163 C 0.89724 0.82159 0.91502 0.0
C164 C 0.89113 0.8934 0.83735 0.0
C165 C 0.82453 0.88672 0.90689 0.0
C166 C 0.92617 0.77017 0.94335 0.0
C167 C 0.90719 0.73765 0.99215 0.0
C168 C 0.93344 0.68704 1.01538 0.0
C169 C 0.97895 0.66771 0.99009 0.0
C170 C 0.99872 0.70131 0.94245 0.0
C171 C 0.97299 0.75166 0.91964 0.0
C172 C 0.91651 0.9202 0.7846 0.0
C173 C 0.97273 0.91715 0.77815 0.0
C174 C 0.99798 0.93594 0.72815 0.0
C175 C 0.96794 0.95784 0.68232 0.0
C176 C 0.9117 0.96214 0.68867 0.0
C177 C 0.88632 0.94396 0.73932 0.0
C178 C 0.77432 0.90797 0.93078 0.0
C179 C 0.73418 0.93651 0.89782 0.0
C180 C 0.55508 1.00688 0.31809 0.0
C181 C 0.56859 0.04857 0.27355 0.0
C182 C 0.56496 0.10733 0.2777 0.0
C183 C 0.55334 0.12436 0.32749 0.0
H184 H 0.48864 0.23363 0.47607 0.0
H185 H 0.47914 0.33356 0.49164 0.0
H186 H 0.65087 0.34803 0.51279 0.0
H187 H 0.66017 0.24753 0.49906 0.0
H188 H 0.71738 0.13292 0.53937 0.0
H189 H 0.81001 0.10486 0.53023 0.0
H190 H 0.75643 0.95315 0.46571 0.0
H191 H 0.66347 0.98077 0.47477 0.0
H192 H 0.53988 0.99081 0.40355 0.0
H193 H 0.55707 0.96138 0.31499 0.0
H194 H 0.57439 0.13986 0.24308 0.0
H195 H 0.55594 0.16993 0.33061 0.0
N196 N 0.55254 0.15224 0.4383 0.0
N197 N 0.62096 0.14072 0.50349 0.0
N198 N 0.60097 0.0667 0.45379 0.0
C199 C 0.58101 0.17278 0.47792 0.0
C200 C 0.63091 0.08726 0.49188 0.0
C201 C 0.56218 0.09859 0.42652 0.0
C202 C 0.57494 0.2329 0.48696 0.0
C203 C 0.52421 0.2582 0.48418 0.0
C204 C 0.51887 0.31518 0.49311 0.0
C205 C 0.56439 0.34824 0.50332 0.0
C206 C 0.61529 0.32343 0.50476 0.0
C207 C 0.62044 0.26592 0.49738 0.0
C208 C 0.68303 0.06007 0.50621 0.0
C209 C 0.72503 0.09251 0.52499 0.0
C210 C 0.77826 0.07666 0.5194 0.0
C211 C 0.79023 0.02807 0.49525 0.0
C212 C 0.74817 0.99201 0.48251 0.0
C213 C 0.69495 0.00754 0.48845 0.0
C214 C 0.54682 0.08263 0.37394 0.0
C215 C 0.5445 0.0238 0.36825 0.0
C216 C 0.188 0.55355 0.15056 0.0
C217 C 0.17996 0.5655 0.09408 0.0
C218 C 0.22121 0.59488 0.06178 0.0
C219 C 0.26862 0.61285 0.08532 0.0
H220 H 0.37769 0.75793 0.06281 0.0
H221 H 0.42232 0.84912 1.0242 0.0
H222 H 0.52727 0.83606 0.16274 0.0
H223 H 0.48365 0.74574 0.20085 0.0
H224 H 0.49998 0.61417 0.25905 0.0
H225 H 0.54296 0.58226 0.34521 0.0
H226 H 0.38969 0.51861 0.41384 0.0
H227 H 0.34616 0.55102 0.32652 0.0
H228 H 0.24064 0.56049 0.21751 0.0
H229 H 0.15724 0.53072 0.17677 0.0
H230 H 0.21656 0.60481 1.01827 0.0
H231 H 0.29914 0.63602 0.05906 0.0
N232 N 0.35324 0.66984 0.14005 0.0
N233 N 0.41858 0.66153 0.20755 0.0
N234 N 0.34712 0.59401 0.21423 0.0
C235 C 0.39889 0.69023 0.16088 0.0
C236 C 0.39381 0.61369 0.23457 0.0
C237 C 0.32697 0.62178 0.16623 0.0
C238 C 0.42673 0.74432 0.13507 0.0
C239 C 0.4105 0.77435 0.08479 0.0
C240 C 0.43622 0.82651 0.06261 0.0
C241 C 0.47831 0.8499 0.09051 0.0
C242 C 0.49496 0.81942 0.14022 0.0
C243 C 0.46974 0.76734 0.16207 0.0
C244 C 0.41931 0.58555 0.28572 0.0
C245 C 0.47522 0.59288 0.29226 0.0
C246 C 0.50011 0.57455 0.34186 0.0
C247 C 0.46993 0.54844 0.38686 0.0
C248 C 0.41423 0.53895 0.38007 0.0
C249 C 0.38921 0.55707 0.32994 0.0
C250 C 0.27683 0.60075 0.14177 0.0
C251 C 0.23601 0.57031 0.174 0.0
C252 C 0.04181 0.18458 0.61294 0.0
C253 C 1.02835 0.17237 0.56134 0.0
C254 C 1.01698 0.2179 0.5198 0.0
C255 C 1.02319 0.27517 0.52871 0.0
H256 H 0.04269 0.36207 0.73829 0.0
H257 H 0.05686 0.39763 0.82398 0.0
H258 H 0.08848 0.56922 0.73707 0.0
H259 H 0.07543 0.53333 0.65174 0.0
H260 H 0.18046 0.52052 0.55478 0.0
H261 H 0.27793 0.53011 0.56544 0.0
H262 H 0.29537 0.3506 0.55078 0.0
H263 H 0.19873 0.34075 0.5389 0.0
H264 H 0.05912 0.25016 0.66177 0.0
H265 H 0.05068 0.14993 0.64552 0.0
H266 H 1.00684 0.20929 0.47964 0.0
H267 H 1.01817 0.3099 0.49518 0.0
N268 N 0.04231 0.3708 0.62897 0.0
N269 N 0.10766 0.44374 0.6055 0.0
N270 N 0.10049 0.3682 0.55499 0.0
C271 C 0.06621 0.42128 0.63769 0.0
C272 C 0.12577 0.41725 0.56477 0.0
C273 C 0.05797 0.34559 0.58594 0.0
C274 C 0.05806 0.44492 0.68841 0.0
C275 C 0.0509 0.40773 0.7377 0.0
C276 C 0.05963 0.42808 0.7868 0.0
C277 C 0.07533 0.48604 0.78744 0.0
C278 C 0.07826 0.524 0.73813 0.0
C279 C 0.06982 0.50365 0.68922 0.0
C280 C 0.18186 0.42967 0.54693 0.0
C281 C 0.20539 0.48382 0.55131 0.0
C282 C 0.2609 0.48923 0.55799 0.0
C283 C 0.29317 0.44048 0.561 0.0
C284 C 0.27063 0.38824 0.55014 0.0
C285 C 0.21542 0.38304 0.54232 0.0
C286 C 0.03868 0.28736 0.57982 0.0
C287 C 0.04609 0.2417 0.62236 0.0
Co288 Co 1.00098 0.0125 0.51444 0.0
C289 C 0.04845 0.90455 0.51937 0.0
Co290 Co 0.0788 1.00482 0.55506 0.0
C291 C 0.88917 0.03025 0.50737 0.0
C292 C 0.91708 0.98993 0.44141 0.0
N293 N 0.93403 0.01339 0.48449 0.0
N294 N 0.84464 0.01726 0.48113 0.0
C295 C 0.86184 0.99222 0.43925 0.0
H296 H 0.88905 0.04921 0.54422 0.0
H297 H 0.94298 0.97044 0.41471 0.0
C298 C 1.03131 0.11277 0.55009 0.0
N299 N 0.14575 1.0039 0.585 0.0
C300 C 0.19057 0.98681 0.56222 0.0
C301 C 0.16276 0.02742 0.62803 0.0
N302 N 0.23512 0.99968 0.5885 0.0
C303 C 0.21798 0.02491 0.63027 0.0
C304 C 0.08431 0.04165 0.44088 0.0
O305 O 0.99417 0.0909 0.52465 0.0
O306 O 0.0718 0.08277 0.56604 0.0
O307 O 0.11138 0.03015 0.48416 0.0
O308 O 1.03325 0.03765 0.44441 0.0
O309 O 0.08559 0.9264 0.54486 0.0
H310 H 0.1369 0.04705 0.65466 0.0
H311 H 0.19065 0.96773 0.52543 0.0
O312 O 1.00799 0.93458 0.50342 0.0
O313 O 0.96841 0.98714 0.58533 0.0
O314 O 0.04653 0.97969 0.62509 0.0
C315 C 0.99547 0.97566 0.62862 0.0
H316 H 0.83636 0.97639 0.40951 0.0
H317 H 0.24349 0.04069 0.66002 0.0
Co318 Co 0.51986 0.00832 0.99574 0.0
C319 C 0.50315 0.907 0.06955 0.0
Co320 Co 0.55976 0.00827 0.07382 0.0
C321 C 0.51817 1.00653 0.8821 0.0
C322 C 0.44213 0.98019 0.9195 0.0
N323 N 0.49055 1.00327 0.9291 0.0
N324 N 0.48967 0.9844 0.8444 0.0
C325 C 0.44173 0.96792 0.86741 0.0
H326 H 0.56017 0.01926 0.87725 0.0
H327 H 0.41126 0.96785 0.94992 0.0
C328 C 0.57647 0.10958 1.0 0.0
N329 N 0.58904 0.01328 0.14047 0.0
C330 C 0.56142 0.00977 0.18749 0.0
C331 C 0.63744 0.03633 0.15017 0.0
N332 N 0.5899 0.03169 0.22531 0.0
C333 C 0.63782 0.04833 0.20235 0.0
C334 C 0.62789 0.96685 1.00115 0.0
O335 O 0.54649 0.08391 0.96979 0.0
O336 O 0.58671 0.08443 0.0475 0.0
O337 O 0.6258 0.97647 0.04993 0.0
O338 O 0.58622 0.97682 0.97209 0.0
O339 O 0.53313 0.93266 0.09976 0.0
H340 H 0.66831 0.04881 0.11979 0.0
H341 H 0.51942 0.99698 0.19229 0.0
O342 O 0.49292 0.93217 1.02206 0.0
O343 O 0.45382 0.04012 1.01963 0.0
O344 O 0.4934 0.03978 0.09748 0.0
C345 C 0.45174 0.04976 0.06841 0.0
H346 H 0.41042 0.94472 0.84921 0.0
H347 H 0.66912 0.07145 0.22067 0.0
Co348 Co 0.5795 0.52108 0.51681 0.0
C349 C 0.49625 0.53302 0.44068 0.0
Co350 Co 0.50019 0.49502 0.55228 0.0
C351 C 0.69406 0.53401 0.50876 0.0
C352 C 0.65332 0.59899 0.45483 0.0
N353 N 0.64506 0.54904 0.48894 0.0
N354 N 0.73197 0.57377 0.48998 0.0
C355 C 0.70681 0.61447 0.45562 0.0
H356 H 0.70113 0.49744 0.53992 0.0
H357 H 0.62182 0.62496 0.43435 0.0
C358 C 0.58344 0.48307 0.62841 0.0
N359 N 0.43462 0.46709 0.58012 0.0
C360 C 0.38566 0.48237 0.56036 0.0
C361 C 0.42625 0.41704 0.61404 0.0
N362 N 0.34765 0.44266 0.57897 0.0
C363 C 0.37271 0.40174 0.61318 0.0
C364 C 0.55795 0.4076 0.51427 0.0
O365 O 0.61142 0.5023 0.5868 0.0
O366 O 0.53295 0.47604 0.62278 0.0
O367 O 0.51493 0.42056 0.53653 0.0
O368 O 0.59447 0.44604 0.50172 0.0
O369 O 0.46826 0.51381 0.48229 0.0
H370 H 0.45769 0.39089 0.63442 0.0
H371 H 0.37868 0.51909 0.52933 0.0
O372 O 0.54674 0.54002 0.4463 0.0
O373 O 0.56474 0.59556 0.53254 0.0
O374 O 0.48524 0.57003 0.56739 0.0
C375 C 0.52172 0.60849 0.55483 0.0
H376 H 0.72537 0.65385 0.43467 0.0
H377 H 0.35405 0.36234 0.63397 0.0
Co378 Co 0.05967 0.51109 0.99484 0.0
C379 C 0.95063 0.46993 0.99961 0.0
Co380 Co 1.01995 0.50574 0.07426 0.0
C381 C 0.07063 0.48434 0.88752 0.0
C382 C 0.11732 0.55943 0.89789 0.0
N383 N 0.08648 0.51663 0.92513 0.0
N384 N 0.08897 0.50606 0.83756 0.0
C385 C 0.11903 0.553 0.84407 0.0
H386 H 0.04331 0.4476 0.89606 0.0
H387 H 0.13493 0.59478 0.91543 0.0
C388 C 0.12899 0.54688 0.06949 0.0
N389 N 0.99316 0.50026 0.14397 0.0
C390 C 1.00889 0.53277 0.18144 0.0
C391 C 0.96254 0.45735 0.17135 0.0
N392 N 0.99071 0.51108 0.23146 0.0
C393 C 0.96087 0.46393 0.22514 0.0
C394 C 0.07617 0.40608 0.05944 0.0
O395 O 0.12648 0.54092 1.01977 0.0
O396 O 0.08723 0.53495 0.09881 0.0
O397 O 0.04663 0.42929 0.09144 0.0
O398 O 0.08677 0.43405 1.01265 0.0
O399 O 0.95314 0.4759 0.04934 0.0
H400 H 0.9451 0.42183 0.15395 0.0
H401 H 0.03604 0.56964 0.17276 0.0
O402 O 0.99238 0.48188 0.97029 0.0
O403 O 1.03299 0.58754 0.97766 0.0
O404 O 0.99285 0.58278 0.05644 0.0
C405 C 1.00346 0.61075 1.00966 0.0
H406 H 0.13964 0.58167 0.81211 0.0
H407 H 0.94045 0.43523 0.25721 0.0
loop_
_geom_bond_atom_site_label_1
_geom_bond_atom_site_label_2
_geom_bond_distance
_geom_bond_site_symmetry_2
_ccdc_geom_bond_type
C0 C1 1.384 . S
C0 H13 0.947 1_455 S
C0 C35 1.382 . S
C1 C0 1.384 . S
C1 C2 1.378 . S
C2 C1 1.378 . S
C2 C3 1.378 . S
C2 H14 0.952 1_545 S
C3 C2 1.378 . S
C3 H15 0.950 . S
C3 C34 1.383 . S
H4 C23 0.947 . S
H5 C24 0.946 1_565 S
H6 C26 0.953 1_556 S
H7 C27 0.945 . S
H8 C29 0.952 . S
H9 C30 0.949 1_556 S
H10 C32 0.950 . S
H11 C33 0.948 . S
H12 C35 0.951 . S
H13 C0 0.947 1_655 S
H14 C2 0.952 1_565 S
H15 C3 0.950 . S
N16 C19 1.382 . S
N16 C21 1.363 . S
N17 C19 1.371 . S
N17 C20 1.372 . S
N18 C20 1.361 . S
N18 C21 1.377 . S
C19 N16 1.382 . S
C19 N17 1.371 . S
C19 C22 1.480 . S
C20 N17 1.372 . S
C20 N18 1.361 . S
C20 C28 1.457 . S
C21 N16 1.363 . S
C21 N18 1.377 . S
C21 C34 1.479 . S
C22 C19 1.480 . S
C22 C23 1.383 . S
C22 C27 1.385 . S
C23 H4 0.947 . S
C23 C22 1.383 . S
C23 C24 1.388 . S
C24 H5 0.946 1_545 S
C24 C23 1.388 . S
C24 C25 1.384 . S
C25 C24 1.384 . S
C25 C26 1.377 . S
C26 H6 0.953 1_554 S
C26 C25 1.377 . S
C26 C27 1.369 . S
C27 H7 0.945 . S
C27 C22 1.385 . S
C27 C26 1.369 . S
C28 C20 1.457 . S
C28 C29 1.372 . S
C28 C33 1.364 . S
C29 H8 0.952 . S
C29 C28 1.372 . S
C29 C30 1.389 . S
C30 H9 0.949 1_554 S
C30 C29 1.389 . S
C30 C31 1.387 . S
C31 C30 1.387 . S
C31 C32 1.372 . S
C32 H10 0.950 . S
C32 C31 1.372 . S
C32 C33 1.379 . S
C33 H11 0.948 . S
C33 C28 1.364 . S
C33 C32 1.379 . S
C34 C3 1.383 . S
C34 C21 1.479 . S
C34 C35 1.398 . S
C35 C0 1.382 . S
C35 H12 0.951 . S
C35 C34 1.398 . S
C36 C37 1.384 . S
C36 H49 0.947 . S
C36 C71 1.382 . S
C37 C36 1.384 . S
C37 C38 1.378 . S
C38 C37 1.378 . S
C38 C39 1.378 . S
C38 H50 0.952 . S
C39 C38 1.378 . S
C39 H51 0.950 . S
C39 C70 1.383 . S
H40 C59 0.947 . S
H41 C60 0.946 . S
H42 C62 0.953 . S
H43 C63 0.945 . S
H44 C65 0.952 . S
H45 C66 0.949 . S
H46 C68 0.950 . S
H47 C69 0.948 . S
H48 C71 0.951 . S
H49 C36 0.947 . S
H50 C38 0.952 . S
H51 C39 0.950 . S
N52 C55 1.382 . S
N52 C57 1.363 . S
N53 C55 1.371 . S
N53 C56 1.372 . S
N54 C56 1.361 . S
N54 C57 1.377 . S
C55 N52 1.382 . S
C55 N53 1.371 . S
C55 C58 1.480 . S
C56 N53 1.372 . S
C56 N54 1.361 . S
C56 C64 1.457 . S
C57 N52 1.363 . S
C57 N54 1.377 . S
C57 C70 1.479 . S
C58 C55 1.480 . S
C58 C59 1.383 . S
C58 C63 1.385 . S
C59 H40 0.947 . S
C59 C58 1.383 . S
C59 C60 1.388 . S
C60 H41 0.946 . S
C60 C59 1.388 . S
C60 C61 1.384 . S
C61 C60 1.384 . S
C61 C62 1.377 . S
C62 H42 0.953 . S
C62 C61 1.377 . S
C62 C63 1.369 . S
C63 H43 0.945 . S
C63 C58 1.385 . S
C63 C62 1.369 . S
C64 C56 1.457 . S
C64 C65 1.372 . S
C64 C69 1.364 . S
C65 H44 0.952 . S
C65 C64 1.372 . S
C65 C66 1.389 . S
C66 H45 0.949 . S
C66 C65 1.389 . S
C66 C67 1.387 . S
C67 C66 1.387 . S
C67 C68 1.372 . S
C68 H46 0.950 . S
C68 C67 1.372 . S
C68 C69 1.379 . S
C69 H47 0.948 . S
C69 C64 1.364 . S
C69 C68 1.379 . S
C70 C39 1.383 . S
C70 C57 1.479 . S
C70 C71 1.398 . S
C71 C36 1.382 . S
C71 H48 0.951 . S
C71 C70 1.398 . S
C72 C73 1.384 . S
C72 H85 0.947 1_556 S
C72 C107 1.382 . S
C73 C72 1.384 . S
C73 C74 1.378 . S
C74 C73 1.378 . S
C74 C75 1.378 . S
C74 H86 0.952 . S
C75 C74 1.378 . S
C75 H87 0.950 . S
C75 C106 1.383 . S
H76 C95 0.947 . S
H77 C96 0.946 . S
H78 C98 0.953 . S
H79 C99 0.945 . S
H80 C101 0.952 . S
H81 C102 0.949 . S
H82 C104 0.950 1_554 S
H83 C105 0.948 . S
H84 C107 0.951 . S
H85 C72 0.947 1_554 S
H86 C74 0.952 . S
H87 C75 0.950 . S
N88 C91 1.382 . S
N88 C93 1.363 . S
N89 C91 1.371 . S
N89 C92 1.372 . S
N90 C92 1.361 . S
N90 C93 1.377 . S
C91 N88 1.382 . S
C91 N89 1.371 . S
C91 C94 1.480 . S
C92 N89 1.372 . S
C92 N90 1.361 . S
C92 C100 1.457 . S
C93 N88 1.363 . S
C93 N90 1.377 . S
C93 C106 1.479 . S
C94 C91 1.480 . S
C94 C95 1.383 . S
C94 C99 1.385 . S
C95 H76 0.947 . S
C95 C94 1.383 . S
C95 C96 1.388 . S
C96 H77 0.946 . S
C96 C95 1.388 . S
C96 C97 1.384 . S
C97 C96 1.384 . S
C97 C98 1.377 . S
C98 H78 0.953 . S
C98 C97 1.377 . S
C98 C99 1.369 . S
C99 H79 0.945 . S
C99 C94 1.385 . S
C99 C98 1.369 . S
C100 C92 1.457 . S
C100 C101 1.372 . S
C100 C105 1.364 . S
C101 H80 0.952 . S
C101 C100 1.372 . S
C101 C102 1.389 . S
C102 H81 0.949 . S
C102 C101 1.389 . S
C102 C103 1.387 . S
C103 C102 1.387 . S
C103 C104 1.372 . S
C104 H82 0.950 1_556 S
C104 C103 1.372 . S
C104 C105 1.379 . S
C105 H83 0.948 . S
C105 C100 1.364 . S
C105 C104 1.379 . S
C106 C75 1.383 . S
C106 C93 1.479 . S
C106 C107 1.398 . S
C107 C72 1.382 . S
C107 H84 0.951 . S
C107 C106 1.398 . S
C108 C109 1.384 . S
C108 H121 0.947 . S
C108 C143 1.382 . S
C109 C108 1.384 . S
C109 C110 1.378 . S
C110 C109 1.378 . S
C110 C111 1.378 . S
C110 H122 0.952 . S
C111 C110 1.378 . S
C111 H123 0.950 . S
C111 C142 1.383 . S
H112 C131 0.947 . S
H113 C132 0.946 . S
H114 C134 0.953 . S
H115 C135 0.945 . S
H116 C137 0.952 . S
H117 C138 0.949 . S
H118 C140 0.950 . S
H119 C141 0.948 . S
H120 C143 0.951 . S
H121 C108 0.947 . S
H122 C110 0.952 . S
H123 C111 0.950 . S
N124 C127 1.382 . S
N124 C129 1.363 . S
N125 C127 1.371 . S
N125 C128 1.372 . S
N126 C128 1.361 . S
N126 C129 1.377 . S
C127 N124 1.382 . S
C127 N125 1.371 . S
C127 C130 1.480 . S
C128 N125 1.372 . S
C128 N126 1.361 . S
C128 C136 1.457 . S
C129 N124 1.363 . S
C129 N126 1.377 . S
C129 C142 1.479 . S
C130 C127 1.480 . S
C130 C131 1.383 . S
C130 C135 1.385 1_655 S
C131 H112 0.947 . S
C131 C130 1.383 . S
C131 C132 1.388 . S
C132 H113 0.946 . S
C132 C131 1.388 . S
C132 C133 1.384 1_655 S
C133 C132 1.384 1_455 S
C133 C134 1.377 . S
C134 H114 0.953 . S
C134 C133 1.377 . S
C134 C135 1.369 . S
C135 H115 0.945 . S
C135 C130 1.385 1_455 S
C135 C134 1.369 . S
C136 C128 1.457 . S
C136 C137 1.372 1_655 S
C136 C141 1.364 . S
C137 H116 0.952 . S
C137 C136 1.372 1_455 S
C137 C138 1.389 . S
C138 H117 0.949 . S
C138 C137 1.389 . S
C138 C139 1.387 . S
C139 C138 1.387 . S
C139 C140 1.372 1_455 S
C140 H118 0.950 . S
C140 C139 1.372 1_655 S
C140 C141 1.379 . S
C141 H119 0.948 . S
C141 C136 1.364 . S
C141 C140 1.379 . S
C142 C111 1.383 . S
C142 C129 1.479 . S
C142 C143 1.398 . S
C143 C108 1.382 . S
C143 H120 0.951 . S
C143 C142 1.398 . S
C144 C145 1.384 . S
C144 H157 0.947 1_565 S
C144 C179 1.382 . S
C145 C144 1.384 . S
C145 C146 1.378 . S
C146 C145 1.378 . S
C146 C147 1.378 . S
C146 H158 0.952 1_556 S
C147 C146 1.378 . S
C147 H159 0.950 . S
C147 C178 1.383 . S
H148 C167 0.947 . S
H149 C168 0.946 1_554 S
H150 C170 0.953 1_455 S
H151 C171 0.945 . S
H152 C173 0.952 . S
H153 C174 0.949 1_455 S
H154 C176 0.950 . S
H155 C177 0.948 1_545 S
H156 C179 0.951 . S
H157 C144 0.947 1_545 S
H158 C146 0.952 1_554 S
H159 C147 0.950 . S
N160 C163 1.382 . S
N160 C165 1.363 . S
N161 C163 1.371 . S
N161 C164 1.372 . S
N162 C164 1.361 . S
N162 C165 1.377 . S
C163 N160 1.382 . S
C163 N161 1.371 . S
C163 C166 1.480 . S
C164 N161 1.372 . S
C164 N162 1.361 . S
C164 C172 1.457 . S
C165 N160 1.363 . S
C165 N162 1.377 . S
C165 C178 1.479 . S
C166 C163 1.480 . S
C166 C167 1.383 . S
C166 C171 1.385 . S
C167 H148 0.947 . S
C167 C166 1.383 . S
C167 C168 1.388 . S
C168 H149 0.946 1_556 S
C168 C167 1.388 . S
C168 C169 1.384 . S
C169 C168 1.384 . S
C169 C170 1.377 . S
C170 H150 0.953 1_655 S
C170 C169 1.377 . S
C170 C171 1.369 . S
C171 H151 0.945 . S
C171 C166 1.385 . S
C171 C170 1.369 . S
C172 C164 1.457 . S
C172 C173 1.372 . S
C172 C177 1.364 . S
C173 H152 0.952 . S
C173 C172 1.372 . S
C173 C174 1.389 . S
C174 H153 0.949 1_655 S
C174 C173 1.389 . S
C174 C175 1.387 . S
C175 C174 1.387 . S
C175 C176 1.372 1_565 S
C176 H154 0.950 . S
C176 C175 1.372 1_545 S
C176 C177 1.379 1_545 S
C177 H155 0.948 1_565 S
C177 C172 1.364 . S
C177 C176 1.379 1_565 S
C178 C147 1.383 . S
C178 C165 1.479 . S
C178 C179 1.398 . S
C179 C144 1.382 . S
C179 H156 0.951 . S
C179 C178 1.398 . S
C180 C181 1.384 . S
C180 H193 0.947 . S
C180 C215 1.382 . S
C181 C180 1.384 . S
C181 C182 1.378 . S
C182 C181 1.378 . S
C182 C183 1.378 . S
C182 H194 0.952 . S
C183 C182 1.378 . S
C183 H195 0.950 . S
C183 C214 1.383 . S
H184 C203 0.947 . S
H185 C204 0.946 . S
H186 C206 0.953 . S
H187 C207 0.945 . S
H188 C209 0.952 . S
H189 C210 0.949 . S
H190 C212 0.950 . S
H191 C213 0.948 . S
H192 C215 0.951 . S
H193 C180 0.947 . S
H194 C182 0.952 . S
H195 C183 0.950 . S
N196 C199 1.382 . S
N196 C201 1.363 . S
N197 C199 1.371 . S
N197 C200 1.372 . S
N198 C200 1.361 . S
N198 C201 1.377 . S
C199 N196 1.382 . S
C199 N197 1.371 . S
C199 C202 1.480 . S
C200 N197 1.372 . S
C200 N198 1.361 . S
C200 C208 1.457 . S
C201 N196 1.363 . S
C201 N198 1.377 . S
C201 C214 1.479 . S
C202 C199 1.480 . S
C202 C203 1.383 . S
C202 C207 1.385 . S
C203 H184 0.947 . S
C203 C202 1.383 . S
C203 C204 1.388 . S
C204 H185 0.946 . S
C204 C203 1.388 . S
C204 C205 1.384 . S
C205 C204 1.384 . S
C205 C206 1.377 . S
C206 H186 0.953 . S
C206 C205 1.377 . S
C206 C207 1.369 . S
C207 H187 0.945 . S
C207 C202 1.385 . S
C207 C206 1.369 . S
C208 C200 1.457 . S
C208 C209 1.372 . S
C208 C213 1.364 . S
C209 H188 0.952 . S
C209 C208 1.372 . S
C209 C210 1.389 . S
C210 H189 0.949 . S
C210 C209 1.389 . S
C210 C211 1.387 . S
C211 C210 1.387 . S
C211 C212 1.372 . S
C212 H190 0.950 . S
C212 C211 1.372 . S
C212 C213 1.379 . S
C213 H191 0.948 . S
C213 C208 1.364 . S
C213 C212 1.379 . S
C214 C183 1.383 . S
C214 C201 1.479 . S
C214 C215 1.398 . S
C215 C180 1.382 . S
C215 H192 0.951 . S
C215 C214 1.398 . S
C216 C217 1.384 . S
C216 H229 0.947 . S
C216 C251 1.382 . S
C217 C216 1.384 . S
C217 C218 1.378 . S
C218 C217 1.378 . S
C218 C219 1.378 . S
C218 H230 0.952 1_554 S
C219 C218 1.378 . S
C219 H231 0.950 . S
C219 C250 1.383 . S
H220 C239 0.947 . S
H221 C240 0.946 1_556 S
H222 C242 0.953 . S
H223 C243 0.945 . S
H224 C245 0.952 . S
H225 C246 0.949 . S
H226 C248 0.950 . S
H227 C249 0.948 . S
H228 C251 0.951 . S
H229 C216 0.947 . S
H230 C218 0.952 1_556 S
H231 C219 0.950 . S
N232 C235 1.382 . S
N232 C237 1.363 . S
N233 C235 1.371 . S
N233 C236 1.372 . S
N234 C236 1.361 . S
N234 C237 1.377 . S
C235 N232 1.382 . S
C235 N233 1.371 . S
C235 C238 1.480 . S
C236 N233 1.372 . S
C236 N234 1.361 . S
C236 C244 1.457 . S
C237 N232 1.363 . S
C237 N234 1.377 . S
C237 C250 1.479 . S
C238 C235 1.480 . S
C238 C239 1.383 . S
C238 C243 1.385 . S
C239 H220 0.947 . S
C239 C238 1.383 . S
C239 C240 1.388 . S
C240 H221 0.946 1_554 S
C240 C239 1.388 . S
C240 C241 1.384 . S
C241 C240 1.384 . S
C241 C242 1.377 . S
C242 H222 0.953 . S
C242 C241 1.377 . S
C242 C243 1.369 . S
C243 H223 0.945 . S
C243 C238 1.385 . S
C243 C242 1.369 . S
C244 C236 1.457 . S
C244 C245 1.372 . S
C244 C249 1.364 . S
C245 H224 0.952 . S
C245 C244 1.372 . S
C245 C246 1.389 . S
C246 H225 0.949 . S
C246 C245 1.389 . S
C246 C247 1.387 . S
C247 C246 1.387 . S
C247 C248 1.372 . S
C248 H226 0.950 . S
C248 C247 1.372 . S
C248 C249 1.379 . S
C249 H227 0.948 . S
C249 C244 1.364 . S
C249 C248 1.379 . S
C250 C219 1.383 . S
C250 C237 1.479 . S
C250 C251 1.398 . S
C251 C216 1.382 . S
C251 H228 0.951 . S
C251 C250 1.398 . S
C252 C253 1.384 1_455 S
C252 H265 0.947 . S
C252 C287 1.382 . S
C253 C252 1.384 1_655 S
C253 C254 1.378 . S
C254 C253 1.378 . S
C254 C255 1.378 . S
C254 H266 0.952 . S
C255 C254 1.378 . S
C255 H267 0.950 . S
C255 C286 1.383 1_655 S
H256 C275 0.947 1_655 S
H257 C276 0.946 . S
H258 C278 0.953 . S
H259 C279 0.945 . S
H260 C281 0.952 . S
H261 C282 0.949 . S
H262 C284 0.950 . S
H263 C285 0.948 . S
H264 C287 0.951 . S
H265 C252 0.947 . S
H266 C254 0.952 . S
H267 C255 0.950 . S
N268 C271 1.382 . S
N268 C273 1.363 . S
N269 C271 1.371 . S
N269 C272 1.372 . S
N270 C272 1.361 . S
N270 C273 1.377 . S
C271 N268 1.382 . S
C271 N269 1.371 . S
C271 C274 1.480 . S
C272 N269 1.372 . S
C272 N270 1.361 . S
C272 C280 1.457 . S
C273 N268 1.363 . S
C273 N270 1.377 . S
C273 C286 1.479 . S
C274 C271 1.480 . S
C274 C275 1.383 . S
C274 C279 1.385 . S
C275 H256 0.947 1_455 S
C275 C274 1.383 . S
C275 C276 1.388 1_455 S
C276 H257 0.946 . S
C276 C275 1.388 1_655 S
C276 C277 1.384 1_655 S
C277 C276 1.384 1_455 S
C277 C278 1.377 . S
C278 H258 0.953 . S
C278 C277 1.377 . S
C278 C279 1.369 . S
C279 H259 0.945 . S
C279 C274 1.385 . S
C279 C278 1.369 . S
C280 C272 1.457 . S
C280 C281 1.372 . S
C280 C285 1.364 . S
C281 H260 0.952 . S
C281 C280 1.372 . S
C281 C282 1.389 . S
C282 H261 0.949 . S
C282 C281 1.389 . S
C282 C283 1.387 . S
C283 C282 1.387 . S
C283 C284 1.372 . S
C284 H262 0.950 . S
C284 C283 1.372 . S
C284 C285 1.379 . S
C285 H263 0.948 . S
C285 C280 1.364 . S
C285 C284 1.379 . S
C286 C255 1.383 1_455 S
C286 C273 1.479 . S
C286 C287 1.398 . S
C287 C252 1.382 . S
C287 H264 0.951 . S
C287 C286 1.398 . S
Co288 N293 2.057 . S
Co288 O305 2.021 . S
Co288 O308 2.062 . S
Co288 O312 2.117 1_545 S
Co288 O313 2.020 1_545 S
C289 O309 1.259 1_655 S
C289 O312 1.258 . S
Co290 N299 2.057 . S
Co290 O306 2.117 1_565 S
Co290 O307 2.020 1_565 S
Co290 O309 2.021 . S
Co290 O314 2.062 . S
C291 N293 1.316 . S
C291 N294 1.347 . S
C291 H296 0.931 . S
C292 N293 1.375 1_565 S
C292 C295 1.350 1_565 S
C292 H297 0.930 . S
N293 Co288 2.057 . S
N293 C291 1.316 . S
N293 C292 1.375 1_545 S
N294 C291 1.347 . S
N294 C295 1.373 . S
C295 C292 1.350 1_545 S
C295 N294 1.373 . S
C295 H316 0.931 1_545 S
H296 C291 0.931 . S
H297 C292 0.930 . S
C298 O305 1.259 1_455 S
C298 O306 1.258 . S
N299 Co290 2.057 . S
N299 C300 1.316 . S
N299 C301 1.375 1_565 S
C300 N299 1.316 . S
C300 N302 1.347 . S
C300 H311 0.931 . S
C301 N299 1.375 1_545 S
C301 C303 1.350 1_545 S
C301 H310 0.930 . S
N302 C300 1.347 . S
N302 C303 1.373 . S
C303 C301 1.350 1_565 S
C303 N302 1.373 . S
C303 H317 0.931 1_565 S
C304 O307 1.256 . S
C304 O308 1.255 1_455 S
O305 Co288 2.021 . S
O305 C298 1.259 1_655 S
O306 Co290 2.117 1_545 S
O306 C298 1.258 . S
O307 Co290 2.020 1_545 S
O307 C304 1.256 . S
O308 Co288 2.062 . S
O308 C304 1.255 1_655 S
O309 C289 1.259 1_455 S
O309 Co290 2.021 . S
H310 C301 0.930 . S
H311 C300 0.931 . S
O312 Co288 2.117 1_565 S
O312 C289 1.258 . S
O313 Co288 2.020 1_565 S
O313 C315 1.256 . S
O314 Co290 2.062 . S
O314 C315 1.255 1_455 S
C315 O313 1.256 . S
C315 O314 1.255 1_655 S
H316 C295 0.931 1_565 S
H317 C303 0.931 1_545 S
Co318 N323 2.057 . S
Co318 O335 2.021 1_565 S
Co318 O338 2.062 . S
Co318 O342 2.117 . S
Co318 O343 2.020 1_565 S
C319 O339 1.259 . S
C319 O342 1.258 1_554 S
Co320 N329 2.057 . S
Co320 O336 2.117 . S
Co320 O337 2.020 1_545 S
Co320 O339 2.021 1_545 S
Co320 O344 2.062 . S
C321 N323 1.316 . S
C321 N324 1.347 . S
C321 H326 0.931 1_565 S
C322 N323 1.375 . S
C322 C325 1.350 . S
C322 H327 0.930 . S
N323 Co318 2.057 . S
N323 C321 1.316 . S
N323 C322 1.375 . S
N324 C321 1.347 . S
N324 C325 1.373 . S
C325 C322 1.350 . S
C325 N324 1.373 . S
C325 H346 0.931 . S
H326 C321 0.931 1_545 S
H327 C322 0.930 . S
C328 O335 1.259 . S
C328 O336 1.258 1_556 S
N329 Co320 2.057 . S
N329 C330 1.316 . S
N329 C331 1.375 . S
C330 N329 1.316 . S
C330 N332 1.347 . S
C330 H341 0.931 1_545 S
C331 N329 1.375 . S
C331 C333 1.350 . S
C331 H340 0.930 . S
N332 C330 1.347 . S
N332 C333 1.373 . S
C333 C331 1.350 . S
C333 N332 1.373 . S
C333 H347 0.931 . S
C334 O337 1.256 1_556 S
C334 O338 1.255 . S
O335 Co318 2.021 1_545 S
O335 C328 1.259 . S
O336 Co320 2.117 . S
O336 C328 1.258 1_554 S
O337 Co320 2.020 1_565 S
O337 C334 1.256 1_554 S
O338 Co318 2.062 . S
O338 C334 1.255 . S
O339 C319 1.259 . S
O339 Co320 2.021 1_565 S
H340 C331 0.930 . S
H341 C330 0.931 1_565 S
O342 Co318 2.117 . S
O342 C319 1.258 1_556 S
O343 Co318 2.020 1_545 S
O343 C345 1.256 1_556 S
O344 Co320 2.062 . S
O344 C345 1.255 . S
C345 O343 1.256 1_554 S
C345 O344 1.255 . S
H346 C325 0.931 . S
H347 C333 0.931 . S
Co348 N353 2.057 . S
Co348 O365 2.021 . S
Co348 O368 2.062 . S
Co348 O372 2.117 . S
Co348 O373 2.020 . S
C349 O369 1.259 . S
C349 O372 1.258 . S
Co350 N359 2.057 . S
Co350 O366 2.117 . S
Co350 O367 2.020 . S
Co350 O369 2.021 . S
Co350 O374 2.062 . S
C351 N353 1.316 . S
C351 N354 1.347 . S
C351 H356 0.931 . S
C352 N353 1.375 . S
C352 C355 1.350 . S
C352 H357 0.930 . S
N353 Co348 2.057 . S
N353 C351 1.316 . S
N353 C352 1.375 . S
N354 C351 1.347 . S
N354 C355 1.373 . S
C355 C352 1.350 . S
C355 N354 1.373 . S
C355 H376 0.931 . S
H356 C351 0.931 . S
H357 C352 0.930 . S
C358 O365 1.259 . S
C358 O366 1.258 . S
N359 Co350 2.057 . S
N359 C360 1.316 . S
N359 C361 1.375 . S
C360 N359 1.316 . S
C360 N362 1.347 . S
C360 H371 0.931 . S
C361 N359 1.375 . S
C361 C363 1.350 . S
C361 H370 0.930 . S
N362 C360 1.347 . S
N362 C363 1.373 . S
C363 C361 1.350 . S
C363 N362 1.373 . S
C363 H377 0.931 . S
C364 O367 1.256 . S
C364 O368 1.255 . S
O365 Co348 2.021 . S
O365 C358 1.259 . S
O366 Co350 2.117 . S
O366 C358 1.258 . S
O367 Co350 2.020 . S
O367 C364 1.256 . S
O368 Co348 2.062 . S
O368 C364 1.255 . S
O369 C349 1.259 . S
O369 Co350 2.021 . S
H370 C361 0.930 . S
H371 C360 0.931 . S
O372 Co348 2.117 . S
O372 C349 1.258 . S
O373 Co348 2.020 . S
O373 C375 1.256 . S
O374 Co350 2.062 . S
O374 C375 1.255 . S
C375 O373 1.256 . S
C375 O374 1.255 . S
H376 C355 0.931 . S
H377 C363 0.931 . S
Co378 N383 2.057 . S
Co378 O395 2.021 . S
Co378 O398 2.062 . S
Co378 O402 2.117 1_455 S
Co378 O403 2.020 1_455 S
C379 O399 1.259 1_556 S
C379 O402 1.258 . S
Co380 N389 2.057 . S
Co380 O396 2.117 1_655 S
Co380 O397 2.020 1_655 S
Co380 O399 2.021 . S
Co380 O404 2.062 . S
C381 N383 1.316 . S
C381 N384 1.347 . S
C381 H386 0.931 . S
C382 N383 1.375 1_655 S
C382 C385 1.350 1_655 S
C382 H387 0.930 . S
N383 Co378 2.057 . S
N383 C381 1.316 . S
N383 C382 1.375 1_455 S
N384 C381 1.347 . S
N384 C385 1.373 . S
C385 C382 1.350 1_455 S
C385 N384 1.373 . S
C385 H406 0.931 1_455 S
H386 C381 0.931 . S
H387 C382 0.930 . S
C388 O395 1.259 1_554 S
C388 O396 1.258 . S
N389 Co380 2.057 . S
N389 C390 1.316 . S
N389 C391 1.375 1_655 S
C390 N389 1.316 . S
C390 N392 1.347 . S
C390 H401 0.931 . S
C391 N389 1.375 1_455 S
C391 C393 1.350 1_455 S
C391 H400 0.930 . S
N392 C390 1.347 . S
N392 C393 1.373 . S
C393 C391 1.350 1_655 S
C393 N392 1.373 . S
C393 H407 0.931 1_655 S
C394 O397 1.256 . S
C394 O398 1.255 1_554 S
O395 Co378 2.021 . S
O395 C388 1.259 1_556 S
O396 Co380 2.117 1_455 S
O396 C388 1.258 . S
O397 Co380 2.020 1_455 S
O397 C394 1.256 . S
O398 Co378 2.062 . S
O398 C394 1.255 1_556 S
O399 C379 1.259 1_554 S
O399 Co380 2.021 . S
H400 C391 0.930 . S
H401 C390 0.931 . S
O402 Co378 2.117 1_655 S
O402 C379 1.258 . S
O403 Co378 2.020 1_655 S
O403 C405 1.256 . S
O404 Co380 2.062 . S
O404 C405 1.255 1_554 S
C405 O403 1.256 . S
C405 O404 1.255 1_556 S
H406 C385 0.931 1_655 S
H407 C393 0.931 1_455 S
C1 C304 2.894 . S
C67 N324 1.465 . S
C358 C97 2.631 . S
C133 N392 1.994 1_455 S
C345 C25 3.086 . S
N302 C37 1.623 . S
C379 C103 2.713 . S
N354 C109 1.760 . S
C31 C394 2.240 . S
C328 C73 2.169 . S
C139 C289 2.083 1_455 S
C61 C375 1.725 . S
C315 C175 2.998 . S
C181 N332 1.546 . S
C247 C349 2.765 . S
C277 N384 1.921 . S
C145 C334 3.170 . S
N294 C211 1.573 . S
C388 C217 2.766 . S
N362 C283 1.804 . S
C169 C405 2.337 . S
C319 C241 2.265 . S
C298 C253 2.056 1_455 S
C205 C364 1.715 . S
