# Generated by pormake.
# Topology nom, (4,4)-cn, num edge types: 1
# Building blocks:
#     Node 0, Type 0, BuildingBlock: NAHDIM_clean_linker_0, # of connection points: 4
#     Node 1, Type 0, BuildingBlock: NAHDIM_clean_linker_0, # of connection points: 4
#     Node 2, Type 0, BuildingBlock: NAHDIM_clean_linker_0, # of connection points: 4
#     Node 3, Type 0, BuildingBlock: NAHDIM_clean_linker_0, # of connection points: 4
#     Node 4, Type 0, BuildingBlock: NAHDIM_clean_linker_0, # of connection points: 4
#     Node 5, Type 0, BuildingBlock: NAHDIM_clean_linker_0, # of connection points: 4
#     Node 6, Type 1, BuildingBlock: NAHDIM_clean_sbu_0, # of connection points: 4
#     Node 7, Type 1, BuildingBlock: NAHDIM_clean_sbu_0, # of connection points: 4
#     Node 8, Type 1, BuildingBlock: NAHDIM_clean_sbu_0, # of connection points: 4
#     Node 9, Type 1, BuildingBlock: NAHDIM_clean_sbu_0, # of connection points: 4
#     Node 10, Type 1, BuildingBlock: NAHDIM_clean_sbu_0, # of connection points: 4
#     Node 11, Type 1, BuildingBlock: NAHDIM_clean_sbu_0, # of connection points: 4
#     Edge 12, Type (0, 1), BuildingBlock: UVAHIK_clean_linker_0, # of connection points: 2
#     Edge 13, Type (0, 1), BuildingBlock: UVAHIK_clean_linker_0, # of connection points: 2
#     Edge 14, Type (0, 1), BuildingBlock: UVAHIK_clean_linker_0, # of connection points: 2
#     Edge 15, Type (0, 1), BuildingBlock: UVAHIK_clean_linker_0, # of connection points: 2
#     Edge 16, Type (0, 1), BuildingBlock: UVAHIK_clean_linker_0, # of connection points: 2
#     Edge 17, Type (0, 1), BuildingBlock: UVAHIK_clean_linker_0, # of connection points: 2
#     Edge 18, Type (0, 1), BuildingBlock: UVAHIK_clean_linker_0, # of connection points: 2
#     Edge 19, Type (0, 1), BuildingBlock: UVAHIK_clean_linker_0, # of connection points: 2
#     Edge 20, Type (0, 1), BuildingBlock: UVAHIK_clean_linker_0, # of connection points: 2
#     Edge 21, Type (0, 1), BuildingBlock: UVAHIK_clean_linker_0, # of connection points: 2
#     Edge 22, Type (0, 1), BuildingBlock: UVAHIK_clean_linker_0, # of connection points: 2
#     Edge 23, Type (0, 1), BuildingBlock: UVAHIK_clean_linker_0, # of connection points: 2
#     Edge 24, Type (0, 1), BuildingBlock: UVAHIK_clean_linker_0, # of connection points: 2
#     Edge 25, Type (0, 1), BuildingBlock: UVAHIK_clean_linker_0, # of connection points: 2
#     Edge 26, Type (0, 1), BuildingBlock: UVAHIK_clean_linker_0, # of connection points: 2
#     Edge 27, Type (0, 1), BuildingBlock: UVAHIK_clean_linker_0, # of connection points: 2
#     Edge 28, Type (0, 1), BuildingBlock: UVAHIK_clean_linker_0, # of connection points: 2
#     Edge 29, Type (0, 1), BuildingBlock: UVAHIK_clean_linker_0, # of connection points: 2
#     Edge 30, Type (0, 1), BuildingBlock: UVAHIK_clean_linker_0, # of connection points: 2
#     Edge 31, Type (0, 1), BuildingBlock: UVAHIK_clean_linker_0, # of connection points: 2
#     Edge 32, Type (0, 1), BuildingBlock: UVAHIK_clean_linker_0, # of connection points: 2
#     Edge 33, Type (0, 1), BuildingBlock: UVAHIK_clean_linker_0, # of connection points: 2
#     Edge 34, Type (0, 1), BuildingBlock: UVAHIK_clean_linker_0, # of connection points: 2
#     Edge 35, Type (0, 1), BuildingBlock: UVAHIK_clean_linker_0, # of connection points: 2
# Relax obj value: 0.063
# Max RMSD: 0.129
# Mean RMSD: 0.123
data_MOF--net-nom--node1-NAHDIM_clean_sbu_0--node2-NAHDIM_clean_linker_0--edge1-UVAHIK_clean_linker_0
_symmetry_space_group_name_H-M    P1
_symmetry_Int_Tables_number       1
_symmetry_cell_setting            triclinic
loop_
_symmetry_equiv_pos_as_xyz
'x, y, z'
_cell_length_a     68.608144
_cell_length_b     70.685244
_cell_length_c     84.714141
_cell_angle_alpha  90.089533
_cell_angle_beta   90.595399
_cell_angle_gamma 120.99938
loop_
_atom_site_label
_atom_site_type_symbol
_atom_site_fract_x
_atom_site_fract_y
_atom_site_fract_z
_atom_type_partial_charge
C0 C 0.11623 0.59879 0.24312 0.0
C1 C 0.12931 0.59713 0.2573 0.0
C2 C 0.10044 0.58345 0.27736 0.0
C3 C 0.09683 0.56245 0.2806 0.0
C4 C 0.07573 0.54561 0.28608 0.0
C5 C 0.05789 0.54987 0.28815 0.0
C6 C 0.06177 0.57128 0.28531 0.0
C7 C 0.08322 0.58794 0.28021 0.0
C8 C 0.07238 0.52315 0.28937 0.0
C9 C 0.04308 0.57638 0.28714 0.0
C10 C 0.98424 0.44641 0.20686 0.0
C11 C 0.97106 0.45684 0.21312 0.0
C12 C 0.96894 0.45958 0.24145 0.0
C13 C 0.96946 0.47955 0.24307 0.0
C14 C 0.97812 0.49229 0.25691 0.0
C15 C 0.98676 0.48501 0.26921 0.0
C16 C 0.9855 0.46442 0.26776 0.0
C17 C 0.97612 0.45174 0.25396 0.0
C18 C 0.97866 0.51386 0.25817 0.0
C19 C 0.99495 0.45627 0.28044 0.0
C20 C 0.89333 0.4369 0.35098 0.0
C21 C 0.89818 0.4576 0.34547 0.0
C22 C 0.92076 0.47491 0.34377 0.0
C23 C 0.93877 0.47134 0.3475 0.0
C24 C 0.93389 0.45082 0.35374 0.0
C25 C 0.91116 0.43393 0.35558 0.0
C26 C 0.92537 0.49686 0.33765 0.0
C27 C 0.95267 0.44651 0.358 0.0
C28 C 0.09564 0.6105 0.39576 0.0
C29 C 0.08266 0.58587 0.39957 0.0
C30 C 0.04377 0.56272 0.38993 0.0
C31 C 0.02708 0.56613 0.38337 0.0
C32 C 0.01168 0.55155 0.37194 0.0
C33 C 0.01275 0.53285 0.36734 0.0
C34 C 0.02853 0.52846 0.37485 0.0
C35 C 0.044 0.54355 0.38602 0.0
C36 C 0.99492 0.55659 0.36431 0.0
C37 C 0.02956 0.50824 0.37068 0.0
C38 C 0.03478 0.53159 0.29221 0.0
C39 C 0.02144 0.51719 0.28008 0.0
C40 C 0.99927 0.49992 0.28275 0.0
C41 C 0.98986 0.49704 0.29795 0.0
C42 C 0.96737 0.48033 0.30097 0.0
C43 C 0.95841 0.47747 0.31604 0.0
C44 C 0.97157 0.49132 0.32867 0.0
C45 C 0.9626 0.4886 0.34403 0.0
C46 C 0.97632 0.50234 0.35637 0.0
C47 C 0.99883 0.519 0.35376 0.0
C48 C 0.00793 0.5223 0.33841 0.0
C49 C 0.03035 0.53923 0.33531 0.0
C50 C 0.03922 0.54225 0.32022 0.0
C51 C 0.02599 0.52855 0.30762 0.0
C52 C 0.00338 0.5113 0.31047 0.0
C53 C 0.99428 0.50831 0.32586 0.0
C54 C 0.84127 0.39108 0.33681 0.0
C55 C 0.85385 0.41537 0.34185 0.0
O56 O 0.12026 0.5995 0.2712 0.0
O57 O 0.05957 0.5783 0.39983 0.0
O58 O 0.87172 0.41946 0.35188 0.0
O59 O 0.96218 0.44793 0.22773 0.0
H60 H 0.12779 0.58068 0.2569 0.0
H61 H 0.0981 0.58537 0.24354 0.0
H62 H 0.11708 0.61493 0.24323 0.0
H63 H 0.12342 0.59706 0.2319 0.0
H64 H 0.11048 0.55924 0.27884 0.0
H65 H 0.08636 0.60432 0.27777 0.0
H66 H 0.06088 0.51125 0.28022 0.0
H67 H 0.08867 0.52334 0.28931 0.0
H68 H 0.06419 0.51709 0.30099 0.0
H69 H 0.04838 0.59336 0.28328 0.0
H70 H 0.02784 0.56442 0.28015 0.0
H71 H 0.03805 0.57465 0.2997 0.0
H72 H 0.98345 0.47493 0.21421 0.0
H73 H 0.99161 0.4534 0.19517 0.0
H74 H 0.99837 0.44993 0.21517 0.0
H75 H 0.97296 0.42822 0.20567 0.0
H76 H 0.96334 0.48526 0.23343 0.0
H77 H 0.97542 0.43616 0.25256 0.0
H78 H 0.9964 0.52774 0.25675 0.0
H79 H 0.96783 0.51529 0.24898 0.0
H80 H 0.97286 0.51557 0.26999 0.0
H81 H 0.99433 0.44083 0.27689 0.0
H82 H 0.01287 0.46908 0.28323 0.0
H83 H 0.98504 0.45306 0.29139 0.0
H84 H 0.8604 0.42509 0.33081 0.0
H85 H 0.88439 0.46023 0.34245 0.0
H86 H 0.90719 0.41799 0.36007 0.0
H87 H 0.93235 0.49939 0.32556 0.0
H88 H 0.90974 0.49788 0.33719 0.0
H89 H 0.93829 0.5105 0.34523 0.0
H90 H 0.94601 0.42944 0.3623 0.0
H91 H 0.96342 0.44925 0.34754 0.0
H92 H 0.96374 0.45831 0.36735 0.0
H93 H 0.0866 0.57756 0.39 0.0
H94 H 0.11422 0.61696 0.39544 0.0
H95 H 0.09014 0.61313 0.384 0.0
H96 H 0.0923 0.61996 0.40472 0.0
H97 H 0.02684 0.58081 0.38671 0.0
H98 H 0.05639 0.54049 0.3916 0.0
H99 H 0.9978 0.55855 0.35138 0.0
H100 H 0.97733 0.54259 0.3661 0.0
H101 H 0.99632 0.57186 0.36916 0.0
H102 H 0.04047 0.50559 0.37907 0.0
H103 H 0.0122 0.49335 0.37057 0.0
H104 H 0.03655 0.51009 0.35865 0.0
H105 H 0.02846 0.51946 0.26833 0.0
H106 H 0.95644 0.46926 0.2917 0.0
H107 H 0.94103 0.46423 0.31766 0.0
H108 H 0.96941 0.50003 0.36815 0.0
H109 H 0.04134 0.5504 0.34451 0.0
H110 H 0.05661 0.55548 0.31855 0.0
H111 H 0.83462 0.38013 0.34725 0.0
H112 H 0.82686 0.38739 0.32872 0.0
H113 H 0.85306 0.38741 0.33049 0.0
C114 C 0.44084 0.89435 0.55169 0.0
C115 C 0.42994 0.88625 0.53529 0.0
C116 C 0.4374 0.92116 0.52349 0.0
C117 C 0.46057 0.92972 0.52041 0.0
C118 C 0.47445 0.95149 0.51526 0.0
C119 C 0.4651 0.96512 0.51331 0.0
C120 C 0.44172 0.95646 0.51605 0.0
C121 C 0.42813 0.93449 0.52096 0.0
C122 C 0.49926 0.96009 0.51216 0.0
C123 C 0.43123 0.97055 0.51406 0.0
C124 C 0.55545 0.08389 0.60191 0.0
C125 C 0.55079 0.06945 0.58787 0.0
C126 C 0.53817 0.06557 0.56056 0.0
C127 C 0.52241 0.06795 0.55157 0.0
C128 C 0.51236 0.0551 0.53793 0.0
C129 C 0.51909 0.04023 0.53284 0.0
C130 C 0.53588 0.03855 0.54151 0.0
C131 C 0.54504 0.05105 0.55538 0.0
C132 C 0.49417 0.05707 0.52923 0.0
C133 C 0.54392 0.02329 0.53631 0.0
C134 C 0.57646 0.12466 0.44934 0.0
C135 C 0.5543 0.11862 0.45362 0.0
C136 C 0.53729 0.09632 0.45497 0.0
C137 C 0.54272 0.07979 0.45229 0.0
C138 C 0.56476 0.08584 0.44719 0.0
C139 C 0.58129 0.10827 0.44556 0.0
C140 C 0.51369 0.09048 0.45972 0.0
C141 C 0.57109 0.06867 0.44407 0.0
C142 C 0.40431 0.92317 0.40347 0.0
C143 C 0.43027 0.9354 0.40298 0.0
C144 C 0.4542 0.9739 0.41061 0.0
C145 C 0.45056 0.99071 0.41542 0.0
C146 C 0.46489 0.00643 0.42671 0.0
C147 C 0.4837 0.0056 0.43288 0.0
C148 C 0.48853 0.9897 0.427 0.0
C149 C 0.47351 0.97379 0.41605 0.0
C150 C 0.45938 0.02332 0.43253 0.0
C151 C 0.50903 0.98898 0.43272 0.0
C152 C 0.48022 0.98874 0.50933 0.0
C153 C 0.49167 0.00351 0.52176 0.0
C154 C 0.5078 0.02564 0.51894 0.0
C155 C 0.5129 0.03332 0.50326 0.0
C156 C 0.52997 0.05513 0.49994 0.0
C157 C 0.53448 0.06264 0.48448 0.0
C158 C 0.52199 0.04869 0.47173 0.0
C159 C 0.52592 0.05641 0.456 0.0
C160 C 0.51345 0.04199 0.44358 0.0
C161 C 0.49696 0.01996 0.44645 0.0
C162 C 0.49267 0.01199 0.46212 0.0
C163 C 0.47609 0.98995 0.46546 0.0
C164 C 0.47217 0.98221 0.48088 0.0
C165 C 0.48421 0.99636 0.49361 0.0
C166 C 0.50072 0.01872 0.49056 0.0
C167 C 0.50517 0.02646 0.47479 0.0
C168 C 0.62118 0.17569 0.465 0.0
C169 C 0.59628 0.16224 0.45962 0.0
O170 O 0.42349 0.90039 0.52905 0.0
O171 O 0.43856 0.95773 0.401 0.0
O172 O 0.5936 0.14607 0.44904 0.0
O173 O 0.54624 0.07733 0.5742 0.0
H174 H 0.44232 0.88549 0.52734 0.0
H175 H 0.45645 0.9109 0.55093 0.0
H176 H 0.42881 0.89548 0.55977 0.0
H177 H 0.44571 0.88285 0.55679 0.0
H178 H 0.46811 0.91969 0.5221 0.0
H179 H 0.41023 0.92776 0.52325 0.0
H180 H 0.5099 0.97327 0.52087 0.0
H181 H 0.50355 0.94696 0.513 0.0
H182 H 0.50378 0.9675 0.50023 0.0
H183 H 0.41272 0.96131 0.51651 0.0
H184 H 0.43981 0.98502 0.52216 0.0
H185 H 0.43384 0.97694 0.50182 0.0
H186 H 0.5632 0.06393 0.58626 0.0
H187 H 0.52806 0.06463 0.61674 0.0
H188 H 0.57359 0.08977 0.60541 0.0
H189 H 0.55935 0.10043 0.59732 0.0
H190 H 0.51735 0.07933 0.55563 0.0
H191 H 0.55771 0.04953 0.56202 0.0
H192 H 0.50073 0.06501 0.51766 0.0
H193 H 0.47905 0.04045 0.52693 0.0
H194 H 0.48874 0.06708 0.53591 0.0
H195 H 0.5601 0.02725 0.54229 0.0
H196 H 0.53081 0.00607 0.53927 0.0
H197 H 0.5464 0.02414 0.52334 0.0
H198 H 0.58628 0.1545 0.47048 0.0
H199 H 0.55033 0.13131 0.45604 0.0
H200 H 0.59837 0.11315 0.44201 0.0
H201 H 0.51084 0.08493 0.47218 0.0
H202 H 0.5112 0.10476 0.45868 0.0
H203 H 0.50068 0.07668 0.4523 0.0
H204 H 0.58917 0.07614 0.44065 0.0
H205 H 0.56808 0.05853 0.45479 0.0
H206 H 0.56014 0.05741 0.43445 0.0
H207 H 0.43612 0.93241 0.41455 0.0
H208 H 0.39722 0.90521 0.40521 0.0
H209 H 0.39888 0.92952 0.41345 0.0
H210 H 0.39722 0.92562 0.39232 0.0
H211 H 0.43577 0.99079 0.4109 0.0
H212 H 0.47668 0.96114 0.41186 0.0
H213 H 0.45726 0.02209 0.44554 0.0
H214 H 0.4737 0.04016 0.42991 0.0
H215 H 0.44363 0.0212 0.42697 0.0
H216 H 0.51267 0.97847 0.42501 0.0
H217 H 0.52426 0.00588 0.43323 0.0
H218 H 0.50596 0.98217 0.44484 0.0
H219 H 0.48822 0.9976 0.53381 0.0
H220 H 0.54004 0.06664 0.50928 0.0
H221 H 0.54783 0.0796 0.48269 0.0
H222 H 0.51647 0.04804 0.43156 0.0
H223 H 0.46598 0.97834 0.45619 0.0
H224 H 0.45937 0.96506 0.48272 0.0
H225 H 0.63256 0.18341 0.45478 0.0
H226 H 0.62374 0.18883 0.47346 0.0
H227 H 0.62603 0.16473 0.47102 0.0
C228 C 0.56526 0.45672 0.71505 0.0
C229 C 0.56762 0.4482 0.69894 0.0
C230 C 0.54559 0.4599 0.6832 0.0
C231 C 0.56317 0.48144 0.67976 0.0
C232 C 0.55826 0.49741 0.67461 0.0
C233 C 0.53534 0.49184 0.67312 0.0
C234 C 0.5176 0.46999 0.67617 0.0
C235 C 0.52302 0.45419 0.68088 0.0
C236 C 0.57762 0.52038 0.67106 0.0
C237 C 0.49295 0.4635 0.67498 0.0
C238 C 0.57448 0.59595 0.75771 0.0
C239 C 0.55138 0.5847 0.74918 0.0
C240 C 0.54609 0.58187 0.72068 0.0
C241 C 0.52504 0.56203 0.71986 0.0
C242 C 0.51821 0.54903 0.70608 0.0
C243 C 0.53289 0.55591 0.69297 0.0
C244 C 0.55366 0.57645 0.69356 0.0
C245 C 0.55976 0.58937 0.70736 0.0
C246 C 0.49568 0.52755 0.70573 0.0
C247 C 0.56996 0.58423 0.67994 0.0
C248 C 0.47718 0.59831 0.6133 0.0
C249 C 0.46176 0.5775 0.61951 0.0
C250 C 0.46772 0.56134 0.6211 0.0
C251 C 0.48965 0.56624 0.61658 0.0
C252 C 0.50489 0.58693 0.60979 0.0
C253 C 0.49829 0.6026 0.60805 0.0
C254 C 0.45071 0.53915 0.62783 0.0
C255 C 0.52834 0.59267 0.60476 0.0
C256 C 0.49923 0.43189 0.5679 0.0
C257 C 0.51519 0.45582 0.56297 0.0
C258 C 0.50258 0.48043 0.57138 0.0
C259 C 0.48196 0.47599 0.57773 0.0
C260 C 0.48143 0.48946 0.58971 0.0
C261 C 0.50203 0.50811 0.59503 0.0
C262 C 0.52277 0.51349 0.58778 0.0
C263 C 0.52283 0.49941 0.57612 0.0
C264 C 0.45902 0.4833 0.59709 0.0
C265 C 0.54495 0.53374 0.59267 0.0
C266 C 0.53002 0.50927 0.66956 0.0
C267 C 0.53256 0.52362 0.68182 0.0
C268 C 0.52794 0.5405 0.67954 0.0
C269 C 0.51987 0.54284 0.66468 0.0
C270 C 0.51409 0.559 0.66214 0.0
C271 C 0.50651 0.56138 0.64737 0.0
C272 C 0.50449 0.54771 0.63458 0.0
C273 C 0.4969 0.55003 0.6195 0.0
C274 C 0.49608 0.53683 0.60689 0.0
C275 C 0.50222 0.52095 0.60898 0.0
C276 C 0.50889 0.51772 0.62413 0.0
C277 C 0.51428 0.50127 0.62678 0.0
C278 C 0.52121 0.49847 0.64163 0.0
C279 C 0.52295 0.51195 0.65442 0.0
C280 C 0.51763 0.52866 0.65203 0.0
C281 C 0.51029 0.53134 0.63691 0.0
C282 C 0.47072 0.6426 0.62668 0.0
C283 C 0.45887 0.618 0.62263 0.0
O284 O 0.54968 0.44434 0.68903 0.0
O285 O 0.50266 0.46601 0.56088 0.0
O286 O 0.4723 0.61461 0.61226 0.0
O287 O 0.55396 0.59374 0.73429 0.0
H288 H 0.58401 0.46064 0.69361 0.0
H289 H 0.56599 0.47269 0.71369 0.0
H290 H 0.54879 0.44467 0.72048 0.0
H291 H 0.57937 0.45949 0.72313 0.0
H292 H 0.58074 0.48596 0.68106 0.0
H293 H 0.5096 0.43748 0.68343 0.0
H294 H 0.57898 0.53186 0.68056 0.0
H295 H 0.59417 0.52113 0.67032 0.0
H296 H 0.57436 0.52628 0.65976 0.0
H297 H 0.48129 0.44635 0.679 0.0
H298 H 0.49003 0.47493 0.68218 0.0
H299 H 0.48858 0.46483 0.66254 0.0
H300 H 0.54594 0.5669 0.74823 0.0
H301 H 0.57271 0.58916 0.76978 0.0
H302 H 0.58649 0.59288 0.75109 0.0
H303 H 0.58183 0.61407 0.75857 0.0
H304 H 0.5141 0.55656 0.73004 0.0
H305 H 0.57584 0.60487 0.7081 0.0
H306 H 0.4987 0.51361 0.70673 0.0
H307 H 0.4846 0.52646 0.71559 0.0
H308 H 0.48661 0.52562 0.69436 0.0
H309 H 0.58604 0.59991 0.68269 0.0
H310 H 0.57412 0.57145 0.6768 0.0
H311 H 0.56187 0.58682 0.66942 0.0
H312 H 0.45725 0.60937 0.63398 0.0
H313 H 0.44506 0.57383 0.62309 0.0
H314 H 0.50992 0.61861 0.60306 0.0
H315 H 0.45657 0.53748 0.63973 0.0
H316 H 0.43354 0.53696 0.6289 0.0
H317 H 0.44943 0.52569 0.62026 0.0
H318 H 0.5386 0.6099 0.60047 0.0
H319 H 0.53751 0.5905 0.61481 0.0
H320 H 0.52689 0.58128 0.59516 0.0
H321 H 0.52808 0.46409 0.57263 0.0
H322 H 0.50893 0.42344 0.56985 0.0
H323 H 0.49075 0.43149 0.5791 0.0
H324 H 0.48593 0.42276 0.55868 0.0
H325 H 0.46639 0.46138 0.57377 0.0
H326 H 0.53867 0.50305 0.57078 0.0
H327 H 0.4599 0.4811 0.61001 0.0
H328 H 0.45554 0.49686 0.59537 0.0
H329 H 0.44463 0.46787 0.59196 0.0
H330 H 0.55871 0.53761 0.58416 0.0
H331 H 0.54284 0.54824 0.59373 0.0
H332 H 0.55032 0.53095 0.60442 0.0
H333 H 0.53853 0.52178 0.6933 0.0
H334 H 0.51534 0.56997 0.67155 0.0
H335 H 0.50241 0.57417 0.6461 0.0
H336 H 0.49069 0.539 0.59529 0.0
H337 H 0.51318 0.49032 0.61741 0.0
H338 H 0.52526 0.48564 0.64295 0.0
H339 H 0.46034 0.64574 0.63508 0.0
H340 H 0.48752 0.64811 0.63232 0.0
H341 H 0.47346 0.65251 0.61586 0.0
C342 C 0.11578 0.52312 0.90163 0.0
C343 C 0.12508 0.53063 0.885 0.0
C344 C 0.09361 0.51092 0.86629 0.0
C345 C 0.09287 0.52864 0.85948 0.0
C346 C 0.07281 0.5254 0.85236 0.0
C347 C 0.05327 0.50398 0.85189 0.0
C348 C 0.05442 0.48589 0.85785 0.0
C349 C 0.07472 0.4896 0.86487 0.0
C350 C 0.07228 0.54493 0.84573 0.0
C351 C 0.03398 0.46278 0.85727 0.0
C352 C 0.98155 0.53828 0.93104 0.0
C353 C 0.96906 0.51578 0.92272 0.0
C354 C 0.96732 0.51259 0.89427 0.0
C355 C 0.96534 0.49201 0.8922 0.0
C356 C 0.97352 0.48734 0.87853 0.0
C357 C 0.98431 0.50382 0.86689 0.0
C358 C 0.98547 0.52431 0.86872 0.0
C359 C 0.97646 0.52823 0.88229 0.0
C360 C 0.97147 0.46513 0.87686 0.0
C361 C 0.99726 0.54248 0.85677 0.0
C362 C 0.89997 0.47338 0.78005 0.0
C363 C 0.90136 0.4558 0.78645 0.0
C364 C 0.92252 0.45773 0.78911 0.0
C365 C 0.94269 0.47788 0.7857 0.0
C366 C 0.94127 0.49526 0.77861 0.0
C367 C 0.91984 0.49261 0.77564 0.0
C368 C 0.92332 0.43845 0.79597 0.0
C369 C 0.96239 0.51689 0.77468 0.0
C370 C 0.09299 0.4775 0.74104 0.0
C371 C 0.08177 0.49129 0.73927 0.0
C372 C 0.04362 0.47907 0.74868 0.0
C373 C 0.02477 0.45977 0.7542 0.0
C374 C 0.01 0.46064 0.76512 0.0
C375 C 0.01396 0.48139 0.77028 0.0
C376 C 0.03216 0.501 0.76389 0.0
C377 C 0.04691 0.49963 0.75321 0.0
C378 C 0.99064 0.43941 0.77155 0.0
C379 C 0.03633 0.52339 0.76863 0.0
C380 C 0.03115 0.50085 0.84656 0.0
C381 C 0.01791 0.50318 0.85789 0.0
C382 C 0.99688 0.50065 0.85398 0.0
C383 C 0.98868 0.49561 0.83823 0.0
C384 C 0.9675 0.49272 0.83387 0.0
C385 C 0.95984 0.48822 0.81827 0.0
C386 C 0.97288 0.48605 0.80647 0.0
C387 C 0.96513 0.48129 0.79059 0.0
C388 C 0.97878 0.47978 0.7791 0.0
C389 C -1e-05 0.48267 0.78305 0.0
C390 C 0.00777 0.48688 0.79894 0.0
C391 C 0.02874 0.48926 0.80341 0.0
C392 C 0.03642 0.49376 0.81901 0.0
C393 C 0.02341 0.49603 0.83073 0.0
C394 C 0.0021 0.49345 0.82654 0.0
C395 C 0.99422 0.48876 0.81064 0.0
C396 C 0.84997 0.47513 0.78978 0.0
C397 C 0.86139 0.46152 0.78809 0.0
O398 O 0.11224 0.5138 0.87424 0.0
O399 O 0.05834 0.47729 0.7391 0.0
O400 O 0.87982 0.47244 0.77817 0.0
O401 O 0.96144 0.51804 0.90802 0.0
H402 H 0.12393 0.54546 0.88251 0.0
H403 H 0.09817 0.51993 0.90219 0.0
H404 H 0.11539 0.50769 0.90479 0.0
H405 H 0.12643 0.53619 0.91044 0.0
H406 H 0.10786 0.54501 0.85971 0.0
H407 H 0.07567 0.47598 0.86985 0.0
H408 H 0.06025 0.54771 0.85258 0.0
H409 H 0.08928 0.56029 0.84612 0.0
H410 H 0.06604 0.54149 0.8333 0.0
H411 H 0.03805 0.45032 0.86149 0.0
H412 H 0.02036 0.46195 0.86475 0.0
H413 H 0.02718 0.45849 0.84501 0.0
H414 H 0.98176 0.51051 0.92143 0.0
H415 H 0.98774 0.53682 0.94289 0.0
H416 H 0.99648 0.55004 0.92398 0.0
H417 H 0.97024 0.54509 0.93239 0.0
H418 H 0.95777 0.47979 0.90142 0.0
H419 H 0.97771 0.54401 0.88403 0.0
H420 H 0.96636 0.4587 0.86461 0.0
H421 H 0.98826 0.46693 0.87938 0.0
H422 H 0.95893 0.45286 0.88517 0.0
H423 H 0.99817 0.55798 0.86055 0.0
H424 H 0.0148 0.546 0.85483 0.0
H425 H 0.98799 0.53713 0.8453 0.0
H426 H 0.86739 0.46039 0.80015 0.0
H427 H 0.88596 0.4406 0.78943 0.0
H428 H 0.91852 0.50594 0.77048 0.0
H429 H 0.92865 0.44192 0.80857 0.0
H430 H 0.9065 0.42291 0.79528 0.0
H431 H 0.936 0.43598 0.78971 0.0
H432 H 0.95836 0.52917 0.76997 0.0
H433 H 0.97333 0.52393 0.78539 0.0
H434 H 0.97234 0.51405 0.76574 0.0
H435 H 0.08734 0.50256 0.74972 0.0
H436 H 0.11181 0.48835 0.7413 0.0
H437 H 0.08765 0.4682 0.75228 0.0
H438 H 0.08794 0.46549 0.73113 0.0
H439 H 0.02219 0.44399 0.75038 0.0
H440 H 0.06101 0.5146 0.74845 0.0
H441 H 0.99212 0.43934 0.78461 0.0
H442 H 0.97423 0.43824 0.76865 0.0
H443 H 0.99026 0.42463 0.76667 0.0
H444 H 0.04912 0.53673 0.76104 0.0
H445 H 0.02022 0.52352 0.76798 0.0
H446 H 0.04259 0.52702 0.78104 0.0
H447 H 0.02416 0.50713 0.86999 0.0
H448 H 0.95669 0.49404 0.84247 0.0
H449 H 0.94352 0.48647 0.81561 0.0
H450 H 0.97284 0.47635 0.76692 0.0
H451 H 0.0395 0.48768 0.79491 0.0
H452 H 0.05272 0.49551 0.82176 0.0
H453 H 0.84401 0.47749 0.77811 0.0
H454 H 0.83523 0.46677 0.79782 0.0
H455 H 0.86229 0.49162 0.79486 0.0
C456 C 0.46013 0.90892 0.91036 0.0
C457 C 0.45547 0.8966 0.92605 0.0
C458 C 0.47374 0.9285 0.94393 0.0
C459 C 0.45486 0.93061 0.94702 0.0
C460 C 0.45774 0.95031 0.95324 0.0
C461 C 0.47993 0.96837 0.95622 0.0
C462 C 0.49896 0.96613 0.95346 0.0
C463 C 0.49555 0.94604 0.9476 0.0
C464 C 0.43703 0.95192 0.95645 0.0
C465 C 0.52289 0.9851 0.95636 0.0
C466 C 0.45307 0.0829 0.90117 0.0
C467 C 0.47062 0.07758 0.89489 0.0
C468 C 0.48512 0.06622 0.91748 0.0
C469 C 0.5051 0.07129 0.92553 0.0
C470 C 0.50527 0.05723 0.9371 0.0
C471 C 0.48458 0.03803 0.94124 0.0
C472 C 0.46422 0.03272 0.9331 0.0
C473 C 0.46476 0.0467 0.92112 0.0
C474 C 0.5276 0.06306 0.94489 0.0
C475 C 0.44184 0.01238 0.93711 0.0
C476 C 0.51191 0.11644 0.02845 0.0
C477 C 0.52903 0.1142 0.02138 0.0
C478 C 0.526 0.09327 0.01865 0.0
C479 C 0.50517 0.07419 0.02272 0.0
C480 C 0.48827 0.07644 0.03043 0.0
C481 C 0.49204 0.09762 0.03341 0.0
C482 C 0.54488 0.09159 0.01106 0.0
C483 C 0.46595 0.05649 0.03504 0.0
C484 C 0.51547 0.93221 0.06352 0.0
C485 C 0.50097 0.94217 0.06769 0.0
C486 C 0.51068 0.97863 0.05848 0.0
C487 C 0.5293 0.9971 0.05189 0.0
C488 C 0.52622 0.01072 0.04141 0.0
C489 C 0.50393 0.00593 0.0378 0.0
C490 C 0.4851 0.98813 0.04533 0.0
C491 C 0.48867 0.97457 0.05556 0.0
C492 C 0.5467 0.02974 0.03376 0.0
C493 C 0.4612 0.9831 0.0422 0.0
C494 C 0.48313 0.98983 0.96153 0.0
C495 C 0.48234 0.0036 0.95004 0.0
C496 C 0.48433 0.02368 0.95414 0.0
C497 C 0.48703 0.03023 0.97019 0.0
C498 C 0.48805 0.04983 0.97484 0.0
C499 C 0.49207 0.05679 0.99051 0.0
C500 C 0.49519 0.04441 0.00218 0.0
C501 C 0.50062 0.05201 0.01799 0.0
C502 C 0.50298 0.03899 0.02937 0.0
C503 C 0.50027 0.01857 0.02535 0.0
C504 C 0.49525 0.01089 0.00954 0.0
C505 C 0.49274 0.99056 0.00503 0.0
C506 C 0.48831 0.9834 0.98938 0.0
C507 C 0.4867 0.99649 0.97757 0.0
C508 C 0.4888 0.01686 0.98188 0.0
C509 C 0.49294 0.02399 0.9979 0.0
C510 C 0.51251 0.16653 0.01931 0.0
C511 C 0.52554 0.15437 0.02061 0.0
O512 O 0.47162 0.90998 0.9373 0.0
O513 O 0.51454 0.96499 0.06747 0.0
O514 O 0.51389 0.13643 0.03049 0.0
O515 O 0.48634 0.08087 0.90659 0.0
H516 H 0.43819 0.89186 0.93007 0.0
H517 H 0.45891 0.92388 0.91188 0.0
H518 H 0.47744 0.91404 0.90615 0.0
H519 H 0.44741 0.89824 0.90124 0.0
H520 H 0.43782 0.91697 0.94474 0.0
H521 H 0.51 0.94418 0.94531 0.0
H522 H 0.43642 0.9636 0.94801 0.0
H523 H 0.42097 0.93572 0.95522 0.0
H524 H 0.43809 0.95848 0.96855 0.0
H525 H 0.53588 0.98113 0.95268 0.0
H526 H 0.52566 0.99988 0.94983 0.0
H527 H 0.52544 0.98945 0.96911 0.0
H528 H 0.46162 0.06009 0.89075 0.0
H529 H 0.44088 0.08079 0.89161 0.0
H530 H 0.44327 0.07165 0.91092 0.0
H531 H 0.46151 0.10011 0.90575 0.0
H532 H 0.52074 0.08632 0.92257 0.0
H533 H 0.44916 0.04244 0.91492 0.0
H534 H 0.52888 0.04814 0.94645 0.0
H535 H 0.54237 0.07534 0.93794 0.0
H536 H 0.52875 0.0703 0.95674 0.0
H537 H 0.42715 0.01252 0.9316 0.0
H538 H 0.44181 0.99754 0.9328 0.0
H539 H 0.43952 0.0109 0.9501 0.0
H540 H 0.52595 0.14853 0.00845 0.0
H541 H 0.54476 0.12875 0.01794 0.0
H542 H 0.47908 0.09957 0.03907 0.0
H543 H 0.54032 0.08645 0.99853 0.0
H544 H 0.56128 0.1076 0.01139 0.0
H545 H 0.54724 0.07894 0.01706 0.0
H546 H 0.45413 0.06105 0.04026 0.0
H547 H 0.45761 0.0458 0.02453 0.0
H548 H 0.4691 0.04663 0.04378 0.0
H549 H 0.48729 0.93618 0.05849 0.0
H550 H 0.50495 0.91389 0.06359 0.0
H551 H 0.52254 0.93752 0.05152 0.0
H552 H 0.52983 0.93774 0.07206 0.0
H553 H 0.54624 0.00029 0.05448 0.0
H554 H 0.47429 0.96077 0.06121 0.0
H555 H 0.54509 0.02777 0.02072 0.0
H556 H 0.54756 0.04545 0.03676 0.0
H557 H 0.56286 0.03099 0.0376 0.0
H558 H 0.44875 0.97043 0.05035 0.0
H559 H 0.46045 0.99837 0.04342 0.0
H560 H 0.45608 0.97697 0.0299 0.0
H561 H 0.48021 0.99863 0.93772 0.0
H562 H 0.48597 0.06014 0.96637 0.0
H563 H 0.49291 0.07214 0.99334 0.0
H564 H 0.50736 0.045 0.04144 0.0
H565 H 0.49424 0.97995 0.01353 0.0
H566 H 0.48653 0.96762 0.98662 0.0
H567 H 0.51068 0.17232 0.03109 0.0
H568 H 0.52152 0.18096 0.01138 0.0
H569 H 0.49526 0.15526 0.01428 0.0
C570 C 0.57597 0.47172 0.07378 0.0
C571 C 0.57925 0.46409 0.09001 0.0
C572 C 0.56902 0.48598 0.10677 0.0
C573 C 0.54529 0.4717 0.10621 0.0
C574 C 0.53071 0.47876 0.11143 0.0
C575 C 0.53999 0.50064 0.11704 0.0
C576 C 0.56387 0.51498 0.1178 0.0
C577 C 0.57807 0.50727 0.11292 0.0
C578 C 0.50533 0.4629 0.11072 0.0
C579 C 0.57441 0.53858 0.1234 0.0
C580 C 0.47767 0.57984 0.03842 0.0
C581 C 0.48613 0.57709 0.05395 0.0
C582 C 0.48376 0.54816 0.07106 0.0
C583 C 0.49928 0.5627 0.08251 0.0
C584 C 0.50495 0.55467 0.09582 0.0
C585 C 0.4942 0.53159 0.0981 0.0
C586 C 0.478 0.51691 0.08687 0.0
C587 C 0.47321 0.52543 0.0734 0.0
C588 C 0.52281 0.57095 0.10726 0.0
C589 C 0.46599 0.49224 0.08896 0.0
C590 C 0.43642 0.55811 0.18156 0.0
C591 C 0.45966 0.57242 0.17876 0.0
C592 C 0.47433 0.56423 0.17724 0.0
C593 C 0.46549 0.54125 0.17846 0.0
C594 C 0.44234 0.52698 0.18222 0.0
C595 C 0.42812 0.53568 0.1839 0.0
C596 C 0.49911 0.58005 0.17384 0.0
C597 C 0.43248 0.50246 0.18386 0.0
C598 C 0.58849 0.50438 0.22414 0.0
C599 C 0.5645 0.4945 0.23066 0.0
C600 C 0.54495 0.51272 0.22069 0.0
C601 C 0.55174 0.53358 0.21474 0.0
C602 C 0.5387 0.53636 0.20316 0.0
C603 C 0.51807 0.51781 0.19778 0.0
C604 C 0.51037 0.49687 0.20455 0.0
C605 C 0.52397 0.49452 0.21594 0.0
C606 C 0.54729 0.55899 0.19635 0.0
C607 C 0.4881 0.47693 0.19944 0.0
C608 C 0.52463 0.50882 0.12121 0.0
C609 C 0.5157 0.51523 0.10885 0.0
C610 C 0.50097 0.52295 0.11172 0.0
C611 C 0.49456 0.52398 0.12736 0.0
C612 C 0.47898 0.5307 0.13063 0.0
C613 C 0.47381 0.53289 0.14611 0.0
C614 C 0.48417 0.5286 0.15892 0.0
C615 C 0.48008 0.53205 0.17471 0.0
C616 C 0.49082 0.5278 0.18714 0.0
C617 C 0.50559 0.52011 0.18424 0.0
C618 C 0.50964 0.51627 0.16855 0.0
C619 C 0.52419 0.50827 0.16523 0.0
C620 C 0.52862 0.5052 0.14974 0.0
C621 C 0.51923 0.51065 0.13698 0.0
C622 C 0.5042 0.51835 0.14005 0.0
C623 C 0.49917 0.52089 0.15585 0.0
C624 C 0.39948 0.56994 0.162 0.0
C625 C 0.42189 0.58069 0.17139 0.0
O626 O 0.58373 0.48004 0.10137 0.0
O627 O 0.55888 0.51073 0.23113 0.0
O628 O 0.42159 0.5654 0.18177 0.0
O629 O 0.4788 0.55532 0.05758 0.0
H630 H 0.56364 0.44832 0.09308 0.0
H631 H 0.56121 0.47413 0.0739 0.0
H632 H 0.59139 0.48759 0.07056 0.0
H633 H 0.57261 0.45913 0.06458 0.0
H634 H 0.53794 0.45503 0.10176 0.0
H635 H 0.59638 0.51812 0.11339 0.0
H636 H 0.49774 0.4682 0.10136 0.0
H637 H 0.5009 0.44573 0.10806 0.0
H638 H 0.49753 0.46308 0.1221 0.0
H639 H 0.59314 0.54816 0.12185 0.0
H640 H 0.56684 0.5469 0.11685 0.0
H641 H 0.57078 0.53887 0.1361 0.0
H642 H 0.50475 0.58853 0.05591 0.0
H643 H 0.49335 0.58959 0.03109 0.0
H644 H 0.47146 0.56396 0.03164 0.0
H645 H 0.45642 0.59175 0.04438 0.0
H646 H 0.5074 0.58035 0.08105 0.0
H647 H 0.46117 0.51432 0.06457 0.0
H648 H 0.51455 0.57138 0.11833 0.0
H649 H 0.53524 0.56588 0.11031 0.0
H650 H 0.53221 0.58793 0.10243 0.0
H651 H 0.45118 0.48332 0.08077 0.0
H652 H 0.47807 0.48657 0.0866 0.0
H653 H 0.46005 0.48774 0.10128 0.0
H654 H 0.43544 0.58562 0.16244 0.0
H655 H 0.46627 0.58996 0.17761 0.0
H656 H 0.41022 0.52486 0.18635 0.0
H657 H 0.50271 0.57753 0.16152 0.0
H658 H 0.50389 0.59755 0.17529 0.0
H659 H 0.51001 0.57679 0.18178 0.0
H660 H 0.41414 0.49359 0.18683 0.0
H661 H 0.43458 0.49558 0.17265 0.0
H662 H 0.44185 0.49931 0.19324 0.0
H663 H 0.55278 0.4807 0.22262 0.0
H664 H 0.59335 0.49163 0.22356 0.0
H665 H 0.5891 0.51063 0.21202 0.0
H666 H 0.60104 0.51832 0.2317 0.0
H667 H 0.56777 0.54757 0.21878 0.0
H668 H 0.51822 0.47851 0.22111 0.0
H669 H 0.54926 0.5585 0.18338 0.0
H670 H 0.5347 0.56409 0.19842 0.0
H671 H 0.56388 0.57164 0.20162 0.0
H672 H 0.48334 0.4624 0.20701 0.0
H673 H 0.47431 0.48077 0.19976 0.0
H674 H 0.4894 0.47254 0.18707 0.0
H675 H 0.52059 0.51453 0.09682 0.0
H676 H 0.47074 0.5345 0.12124 0.0
H677 H 0.46184 0.53832 0.1479 0.0
H678 H 0.48804 0.53098 0.1992 0.0
H679 H 0.53237 0.5043 0.17455 0.0
H680 H 0.53989 0.49895 0.1479 0.0
H681 H 0.38467 0.56337 0.16998 0.0
H682 H 0.39913 0.58211 0.15389 0.0
H683 H 0.39781 0.55601 0.15481 0.0
C684 C 0.5826 0.34674 0.40823 0.0
O685 O 0.57151 0.35425 0.41606 0.0
O686 O 0.64387 0.40814 0.3951 0.0
Zn687 Zn 0.61007 0.39229 0.39837 0.0
O688 O 0.6022 0.40176 0.41861 0.0
C689 C 0.59596 0.41663 0.37939 0.0
O690 O 0.60495 0.43043 0.39136 0.0
O691 O 0.59905 0.35985 0.39954 0.0
C692 C 0.61431 0.42037 0.42542 0.0
O693 O 0.63383 0.43504 0.41927 0.0
C694 C 0.65627 0.4039 0.40386 0.0
O695 O 0.64692 0.39024 0.41569 0.0
O696 O 0.59571 0.39853 0.37977 0.0
C697 C 0.24942 0.66082 0.55682 0.0
O698 O 0.24307 0.64728 0.54466 0.0
O699 O 0.24528 0.60845 0.57219 0.0
Zn700 Zn 0.22345 0.61971 0.5724 0.0
O701 O 0.2013 0.60798 0.55399 0.0
C702 C 0.18737 0.59265 0.59344 0.0
O703 O 0.18039 0.57967 0.58094 0.0
O704 O 0.24268 0.65289 0.57051 0.0
C705 C 0.20259 0.5975 0.54224 0.0
O706 O 0.21912 0.59327 0.54179 0.0
C707 C 0.24735 0.59804 0.58369 0.0
O708 O 0.23383 0.59303 0.59582 0.0
O709 O 0.20573 0.61128 0.59269 0.0
C710 C 0.58776 0.25802 0.72815 0.0
O711 O 0.57184 0.23767 0.7246 0.0
O712 O 0.64819 0.25434 0.74226 0.0
Zn713 Zn 0.61483 0.23851 0.73683 0.0
O714 O 0.60781 0.22034 0.71709 0.0
C715 C 0.59859 0.22533 0.76857 0.0
O716 O 0.6128 0.24633 0.77172 0.0
O717 O 0.60676 0.26177 0.73358 0.0
C718 C 0.60884 0.20292 0.71755 0.0
O719 O 0.61544 0.19796 0.73072 0.0
C720 C 0.66201 0.26845 0.73255 0.0
O721 O 0.65411 0.27086 0.71898 0.0
O722 O 0.59662 0.21839 0.75447 0.0
C723 C 0.43954 0.68844 0.89597 0.0
O724 O 0.45357 0.68294 0.90213 0.0
O725 O 0.37765 0.62506 0.88534 0.0
Zn726 Zn 0.4118 0.64171 0.88783 0.0
O727 O 0.42122 0.63377 0.9082 0.0
C728 C 0.41677 0.61768 0.86209 0.0
O729 O 0.39703 0.6017 0.86706 0.0
O730 O 0.42145 0.67377 0.88906 0.0
C731 C 0.42228 0.61653 0.91039 0.0
O732 O 0.41705 0.60234 0.89876 0.0
C733 C 0.36385 0.60616 0.89096 0.0
O734 O 0.37173 0.59554 0.89893 0.0
O735 O 0.42631 0.63627 0.86915 0.0
C736 C 0.75609 0.41214 0.07652 0.0
O737 O 0.77562 0.4232 0.08413 0.0
O738 O 0.75207 0.3507 0.06174 0.0
Zn739 Zn 0.77252 0.38337 0.06521 0.0
O740 O 0.79284 0.3898 0.08435 0.0
C741 C 0.80527 0.39054 0.0417 0.0
O742 O 0.80653 0.37556 0.05008 0.0
O743 O 0.7519 0.39555 0.06808 0.0
C744 C 0.81138 0.40827 0.08541 0.0
O745 O 0.81679 0.42264 0.074 0.0
C746 C 0.73659 0.33956 0.07168 0.0
O747 O 0.73555 0.34944 0.08452 0.0
O748 O 0.79159 0.39663 0.04589 0.0
C749 C 0.42637 0.77587 0.22013 0.0
O750 O 0.42232 0.78553 0.20839 0.0
O751 O 0.37587 0.77879 0.2412 0.0
Zn752 Zn 0.40952 0.79908 0.23779 0.0
O753 O 0.41405 0.81794 0.21878 0.0
C754 C 0.42876 0.81336 0.26951 0.0
O755 O 0.42656 0.79381 0.27047 0.0
O756 O 0.4233 0.78003 0.23419 0.0
C757 C 0.43237 0.83639 0.21718 0.0
O758 O 0.44821 0.84318 0.22822 0.0
C759 C 0.36468 0.76201 0.23228 0.0
O760 O 0.3752 0.75859 0.22077 0.0
O761 O 0.42297 0.81882 0.25682 0.0
C762 C 0.16879 0.61046 0.24738 0.0
C763 C 0.15422 0.61472 0.2562 0.0
C764 C 0.19141 0.62697 0.24514 0.0
C765 C 0.23791 0.67887 0.26138 0.0
H766 H 0.26137 0.68809 0.21886 0.0
C767 C 0.32805 0.75063 0.24603 0.0
C768 C 0.34032 0.74605 0.23506 0.0
C769 C 0.30508 0.73529 0.24869 0.0
C770 C 0.25522 0.68557 0.23084 0.0
H771 H 0.15181 0.63988 0.26924 0.0
H772 H 0.19163 0.66863 0.26566 0.0
H773 H 0.22201 0.65968 0.22367 0.0
H774 H 0.3382 0.72171 0.21839 0.0
H775 H 0.29851 0.69484 0.22329 0.0
H776 H 0.27124 0.70437 0.26865 0.0
C777 C 0.18551 0.65238 0.26064 0.0
C778 C 0.23264 0.66934 0.23357 0.0
C779 C 0.16276 0.63593 0.26272 0.0
C780 C 0.32919 0.72584 0.22683 0.0
C781 C 0.30634 0.71046 0.22958 0.0
C782 C 0.26061 0.69499 0.25868 0.0
C783 C 0.19997 0.64811 0.2517 0.0
C784 C 0.2238 0.66573 0.24887 0.0
C785 C 0.29395 0.71498 0.24051 0.0
C786 C 0.26959 0.69844 0.24338 0.0
H787 H 0.16253 0.5944 0.242 0.0
H788 H 0.20224 0.62321 0.23826 0.0
H789 H 0.23153 0.67631 0.2733 0.0
H790 H 0.33613 0.7661 0.25252 0.0
H791 H 0.296 0.73946 0.25704 0.0
C792 C 0.57414 0.18183 0.46017 0.0
C793 C 0.58895 0.17707 0.45215 0.0
C794 C 0.56897 0.1971 0.45407 0.0
C795 C 0.5734 0.22949 0.41815 0.0
H796 H 0.57394 0.27052 0.44884 0.0
C797 C 0.58989 0.3161 0.40267 0.0
C798 C 0.57784 0.32406 0.41091 0.0
C799 C 0.5873 0.29569 0.40644 0.0
C800 C 0.57334 0.259 0.44012 0.0
H801 H 0.60946 0.18405 0.43129 0.0
H802 H 0.60099 0.21123 0.42081 0.0
H803 H 0.57676 0.23939 0.45781 0.0
H804 H 0.55277 0.31631 0.42905 0.0
H805 H 0.54829 0.2807 0.43564 0.0
H806 H 0.57084 0.24978 0.40044 0.0
C807 C 0.59296 0.20286 0.43164 0.0
C808 C 0.57493 0.24108 0.44527 0.0
C809 C 0.59796 0.18741 0.43768 0.0
C810 C 0.5624 0.31073 0.42253 0.0
C811 C 0.55991 0.29037 0.42636 0.0
C812 C 0.57196 0.24753 0.413 0.0
C813 C 0.57871 0.20819 0.43992 0.0
C814 C 0.57524 0.22623 0.43435 0.0
C815 C 0.57269 0.28285 0.41859 0.0
C816 C 0.57217 0.26261 0.42393 0.0
H817 H 0.56689 0.17403 0.47132 0.0
H818 H 0.55758 0.20047 0.46061 0.0
H819 H 0.57323 0.21819 0.40943 0.0
H820 H 0.60187 0.32592 0.39361 0.0
H821 H 0.59751 0.29044 0.40032 0.0
C822 C 0.41615 0.59897 0.62482 0.0
C823 C 0.4356 0.61013 0.61546 0.0
C824 C 0.39489 0.59384 0.6189 0.0
C825 C 0.36962 0.61356 0.5898 0.0
H826 H 0.31351 0.56016 0.60071 0.0
C827 C 0.28263 0.60153 0.57219 0.0
C828 C 0.26659 0.59414 0.58435 0.0
C829 C 0.30222 0.60021 0.57374 0.0
C830 C 0.32903 0.57519 0.5976 0.0
H831 H 0.44804 0.62444 0.59248 0.0
H832 H 0.41079 0.61533 0.58202 0.0
H833 H 0.34997 0.56379 0.60752 0.0
H834 H 0.25803 0.57854 0.60731 0.0
H835 H 0.29221 0.5765 0.61008 0.0
H836 H 0.34881 0.62529 0.58033 0.0
C837 C 0.412 0.61058 0.59398 0.0
C838 C 0.34991 0.57726 0.6015 0.0
C839 C 0.43327 0.61566 0.5999 0.0
C840 C 0.27005 0.58445 0.59773 0.0
C841 C 0.28962 0.58314 0.59928 0.0
C842 C 0.34876 0.61151 0.58593 0.0
C843 C 0.39261 0.59994 0.6035 0.0
C844 C 0.37045 0.59664 0.5979 0.0
C845 C 0.30619 0.59146 0.58746 0.0
C846 C 0.32821 0.59247 0.59004 0.0
H847 H 0.41752 0.59476 0.63691 0.0
H848 H 0.38039 0.58594 0.62663 0.0
H849 H 0.38509 0.62885 0.58706 0.0
H850 H 0.28042 0.60895 0.56167 0.0
H851 H 0.31447 0.60644 0.5643 0.0
C852 C 0.83761 0.43551 0.7658 0.0
C853 C 0.84454 0.43871 0.78174 0.0
C854 C 0.8205 0.41478 0.76036 0.0
C855 C 0.77101 0.36394 0.77496 0.0
H856 H 0.77051 0.34143 0.73309 0.0
C857 C 0.6939 0.28296 0.75245 0.0
C858 C 0.68592 0.28405 0.73733 0.0
C859 C 0.71546 0.29945 0.75772 0.0
C860 C 0.77039 0.34753 0.7448 0.0
H861 H 0.83934 0.42274 0.80438 0.0
H862 H 0.80971 0.38642 0.79485 0.0
H863 H 0.8044 0.37503 0.74267 0.0
H864 H 0.69486 0.30263 0.71555 0.0
H865 H 0.73228 0.33146 0.72478 0.0
H866 H 0.73691 0.33688 0.77699 0.0
C867 C 0.81732 0.39995 0.78659 0.0
C868 C 0.78978 0.36678 0.75028 0.0
C869 C 0.83437 0.42069 0.79203 0.0
C870 C 0.70044 0.30132 0.72729 0.0
C871 C 0.72199 0.31781 0.73255 0.0
C872 C 0.75168 0.34473 0.76949 0.0
C873 C 0.8099 0.39683 0.77075 0.0
C874 C 0.79018 0.37539 0.76534 0.0
C875 C 0.7295 0.31738 0.74798 0.0
C876 C 0.75099 0.33647 0.75426 0.0
H877 H 0.84503 0.44922 0.75767 0.0
H878 H 0.81498 0.41303 0.74814 0.0
H879 H 0.77056 0.37029 0.78651 0.0
H880 H 0.68321 0.26977 0.76045 0.0
H881 H 0.72091 0.29843 0.76957 0.0
C882 C 0.43606 0.85661 0.91785 0.0
C883 C 0.45576 0.87552 0.9236 0.0
C884 C 0.43618 0.83734 0.9145 0.0
C885 C 0.46466 0.80708 0.92383 0.0
H886 H 0.4383 0.77712 0.88401 0.0
C887 C 0.46383 0.72772 0.90531 0.0
C888 C 0.44376 0.71107 0.89799 0.0
C889 C 0.46717 0.74877 0.90783 0.0
C890 C 0.44551 0.78512 0.89526 0.0
H891 H 0.49133 0.8892 0.92988 0.0
H892 H 0.49132 0.85517 0.92442 0.0
H893 H 0.44025 0.81178 0.88997 0.0
H894 H 0.41151 0.70353 0.88752 0.0
H895 H 0.41707 0.73987 0.89219 0.0
H896 H 0.46928 0.7801 0.92937 0.0
C897 C 0.47574 0.85533 0.92267 0.0
C898 C 0.44668 0.80502 0.89863 0.0
C899 C 0.47571 0.87476 0.92582 0.0
C900 C 0.42724 0.71599 0.8931 0.0
C901 C 0.4305 0.73693 0.8957 0.0
C902 C 0.46327 0.78702 0.92053 0.0
C903 C 0.45601 0.83651 0.91685 0.0
C904 C 0.45602 0.81606 0.91301 0.0
C905 C 0.45046 0.75359 0.90314 0.0
C906 C 0.45341 0.77565 0.90627 0.0
H907 H 0.42058 0.85685 0.91578 0.0
H908 H 0.4207 0.82303 0.91011 0.0
H909 H 0.47181 0.81521 0.93506 0.0
H910 H 0.47692 0.72447 0.90919 0.0
H911 H 0.48286 0.76127 0.91342 0.0
C912 C 0.62099 0.4759 0.0937 0.0
C913 C 0.59861 0.45967 0.08936 0.0
C914 C 0.63868 0.47163 0.09245 0.0
C915 C 0.65557 0.43777 0.07074 0.0
H916 H 0.69665 0.44896 0.10605 0.0
C917 C 0.71705 0.40531 0.07116 0.0
C918 C 0.73881 0.41861 0.0779 0.0
C919 C 0.70058 0.41118 0.07252 0.0
C920 C 0.68557 0.44606 0.09599 0.0
H921 H 0.57746 0.42671 0.0797 0.0
H922 H 0.60844 0.41936 0.07733 0.0
H923 H 0.66685 0.45793 0.10843 0.0
H924 H 0.76038 0.4486 0.09134 0.0
H925 H 0.73176 0.45912 0.09343 0.0
H926 H 0.67432 0.42622 0.05817 0.0
C927 C 0.61218 0.43521 0.08192 0.0
C928 C 0.66848 0.45114 0.09738 0.0
C929 C 0.59446 0.43935 0.08338 0.0
C930 C 0.74375 0.43796 0.08603 0.0
C931 C 0.72729 0.44393 0.08731 0.0
C932 C 0.67278 0.43291 0.06928 0.0
C933 C 0.63444 0.45128 0.08648 0.0
C934 C 0.65317 0.44681 0.08483 0.0
C935 C 0.7055 0.4306 0.08057 0.0
C936 C 0.68785 0.43675 0.08194 0.0
H937 H 0.62488 0.49193 0.09799 0.0
H938 H 0.65576 0.48439 0.09586 0.0
H939 H 0.64421 0.43459 0.0608 0.0
H940 H 0.7126 0.39019 0.06491 0.0
H941 H 0.68387 0.40029 0.06744 0.0
C942 C 0.41211 0.84488 0.53448 0.0
C943 C 0.40947 0.86315 0.53652 0.0
C944 C 0.39374 0.82346 0.53643 0.0
C945 C 0.33727 0.7918 0.55499 0.0
H946 H 0.33078 0.74532 0.52709 0.0
C947 C 0.27611 0.69892 0.56755 0.0
C948 C 0.26534 0.68474 0.55458 0.0
C949 C 0.29245 0.72117 0.56522 0.0
C950 C 0.33213 0.75811 0.53489 0.0
H951 H 0.38566 0.87332 0.54284 0.0
H952 H 0.35329 0.83582 0.54581 0.0
H953 H 0.36128 0.78309 0.52286 0.0
H954 H 0.26254 0.68301 0.52902 0.0
H955 H 0.29055 0.72178 0.52498 0.0
H956 H 0.30777 0.76679 0.56681 0.0
C957 C 0.36963 0.83806 0.54273 0.0
C958 C 0.34986 0.77976 0.53259 0.0
C959 C 0.38808 0.85954 0.54085 0.0
C960 C 0.27069 0.69343 0.53927 0.0
C961 C 0.28687 0.71566 0.53695 0.0
C962 C 0.31945 0.77011 0.55725 0.0
C963 C 0.37224 0.81976 0.54053 0.0
C964 C 0.35278 0.79687 0.54268 0.0
C965 C 0.29826 0.72973 0.54987 0.0
C966 C 0.31673 0.75297 0.54727 0.0
H967 H 0.42854 0.84721 0.53154 0.0
H968 H 0.39652 0.8098 0.53501 0.0
H969 H 0.33914 0.80452 0.56308 0.0
H970 H 0.2724 0.69271 0.5795 0.0
H971 H 0.30103 0.73147 0.57544 0.0
C972 C 0.54818 0.40628 0.70054 0.0
C973 C 0.56817 0.42722 0.70116 0.0
C974 C 0.54901 0.38724 0.70348 0.0
C975 C 0.58273 0.36838 0.72443 0.0
H976 H 0.5542 0.31804 0.69589 0.0
C977 C 0.6018 0.29842 0.72836 0.0
C978 C 0.58403 0.27663 0.72554 0.0
C979 C 0.59861 0.31612 0.72569 0.0
C980 C 0.56195 0.3318 0.70412 0.0
H981 H 0.60442 0.44464 0.70595 0.0
H982 H 0.60584 0.4114 0.71122 0.0
H983 H 0.55076 0.35019 0.69062 0.0
H984 H 0.54889 0.25633 0.71777 0.0
H985 H 0.54319 0.2873 0.71336 0.0
H986 H 0.59377 0.35011 0.73804 0.0
C987 C 0.58963 0.40972 0.70824 0.0
C988 C 0.56003 0.35022 0.70106 0.0
C989 C 0.58885 0.4287 0.70511 0.0
C990 C 0.56294 0.27293 0.72004 0.0
C991 C 0.55971 0.29069 0.71742 0.0
C992 C 0.58449 0.34994 0.72757 0.0
C993 C 0.56973 0.38881 0.70747 0.0
C994 C 0.57067 0.3688 0.71107 0.0
C995 C 0.57754 0.31251 0.72022 0.0
C996 C 0.57441 0.33154 0.71734 0.0
H997 H 0.53188 0.40462 0.69792 0.0
H998 H 0.53338 0.37132 0.70299 0.0
H999 H 0.59077 0.38233 0.7325 0.0
H1000 H 0.61832 0.30189 0.73251 0.0
H1001 H 0.61285 0.3327 0.7277 0.0
C1002 C 0.15587 0.52095 0.88669 0.0
C1003 C 0.14967 0.53683 0.88416 0.0
C1004 C 0.17871 0.52694 0.88641 0.0
C1005 C 0.23447 0.56879 0.87146 0.0
H1006 H 0.25878 0.5518 0.90657 0.0
C1007 C 0.33063 0.60949 0.8828 0.0
C1008 C 0.33909 0.5966 0.8889 0.0
C1009 C 0.30726 0.60083 0.88133 0.0
C1010 C 0.25223 0.55636 0.89652 0.0
H1011 H 0.16243 0.57125 0.87892 0.0
H1012 H 0.20231 0.58164 0.87824 0.0
H1013 H 0.21828 0.53891 0.90539 0.0
H1014 H 0.32964 0.56432 0.89793 0.0
H1015 H 0.28878 0.54898 0.89501 0.0
H1016 H 0.26827 0.58612 0.86249 0.0
C1017 C 0.1895 0.5646 0.88049 0.0
C1018 C 0.22904 0.54902 0.89589 0.0
C1019 C 0.16671 0.55868 0.88096 0.0
C1020 C 0.32365 0.57472 0.89327 0.0
C1021 C 0.30022 0.56597 0.89168 0.0
C1022 C 0.25761 0.57595 0.872 0.0
C1023 C 0.19573 0.54883 0.88334 0.0
C1024 C 0.22001 0.55542 0.88347 0.0
C1025 C 0.29174 0.57898 0.88579 0.0
C1026 C 0.26685 0.5701 0.88466 0.0
H1027 H 0.14304 0.50394 0.88901 0.0
H1028 H 0.18306 0.51442 0.88849 0.0
H1029 H 0.22787 0.5737 0.86164 0.0
H1030 H 0.34207 0.62646 0.87941 0.0
H1031 H 0.30137 0.61147 0.87703 0.0
C1032 C 0.56791 0.17813 0.01644 0.0
C1033 C 0.54946 0.16979 0.02677 0.0
C1034 C 0.58981 0.19372 0.02169 0.0
C1035 C 0.62512 0.22008 0.05779 0.0
H1036 H 0.65995 0.26896 0.0295 0.0
C1037 C 0.69979 0.30522 0.07803 0.0
C1038 C 0.71818 0.31678 0.06778 0.0
C1039 C 0.68095 0.28495 0.07345 0.0
C1040 C 0.65066 0.25526 0.03746 0.0
H1041 H 0.53944 0.17099 0.05072 0.0
H1042 H 0.57764 0.19866 0.05989 0.0
H1043 H 0.62365 0.23798 0.02067 0.0
H1044 H 0.7318 0.31546 0.04507 0.0
H1045 H 0.69898 0.28004 0.03714 0.0
H1046 H 0.65199 0.23789 0.07476 0.0
C1047 C 0.57532 0.1928 0.0478 0.0
C1048 C 0.6298 0.23745 0.03238 0.0
C1049 C 0.55342 0.17707 0.04256 0.0
C1050 C 0.71784 0.30708 0.0532 0.0
C1051 C 0.69899 0.28683 0.04861 0.0
C1052 C 0.64599 0.23799 0.0629 0.0
C1053 C 0.59374 0.20156 0.03736 0.0
C1054 C 0.61664 0.21973 0.04253 0.0
C1055 C 0.68009 0.27582 0.05852 0.0
C1056 C 0.65887 0.25589 0.05283 0.0
H1057 H 0.56532 0.1728 0.00421 0.0
H1058 H 0.60364 0.19983 0.0134 0.0
H1059 H 0.61558 0.20655 0.06583 0.0
H1060 H 0.69953 0.31219 0.08936 0.0
H1061 H 0.66661 0.27697 0.08131 0.0
C1062 C 0.44402 0.62189 0.17657 0.0
C1063 C 0.42565 0.60089 0.18032 0.0
C1064 C 0.44629 0.64082 0.18362 0.0
C1065 C 0.45075 0.67742 0.20608 0.0
H1066 H 0.3967 0.68128 0.20051 0.0
C1067 C 0.43713 0.74844 0.22892 0.0
C1068 C 0.43045 0.75764 0.21684 0.0
C1069 C 0.43857 0.72969 0.22594 0.0
C1070 C 0.41185 0.68033 0.20223 0.0
H1071 H 0.3961 0.58314 0.19513 0.0
H1072 H 0.39968 0.61635 0.20713 0.0
H1073 H 0.39541 0.64705 0.19366 0.0
H1074 H 0.42064 0.75473 0.19209 0.0
H1075 H 0.42263 0.72182 0.1871 0.0
H1076 H 0.46715 0.71091 0.21459 0.0
C1077 C 0.41227 0.61809 0.19871 0.0
C1078 C 0.41108 0.66075 0.19843 0.0
C1079 C 0.41021 0.59914 0.19184 0.0
C1080 C 0.42588 0.74811 0.20166 0.0
C1081 C 0.42689 0.72921 0.19879 0.0
C1082 C 0.45139 0.69694 0.21019 0.0
C1083 C 0.43009 0.63911 0.19443 0.0
C1084 C 0.4306 0.65921 0.20006 0.0
C1085 C 0.43291 0.71966 0.21094 0.0
C1086 C 0.43204 0.69864 0.20799 0.0
H1087 H 0.45626 0.62372 0.16782 0.0
H1088 H 0.4601 0.65685 0.18006 0.0
H1089 H 0.46601 0.6766 0.20745 0.0
H1090 H 0.4408 0.75545 0.24072 0.0
H1091 H 0.44325 0.72254 0.23548 0.0
C1092 C 0.82885 0.43197 0.3417 0.0
C1093 C 0.83774 0.4208 0.34994 0.0
C1094 C 0.81208 0.43491 0.34843 0.0
C1095 C 0.78294 0.43134 0.3861 0.0
H1096 H 0.73221 0.41816 0.35824 0.0
C1097 C 0.69315 0.40521 0.40815 0.0
C1098 C 0.68013 0.41189 0.39952 0.0
C1099 C 0.71461 0.41044 0.40293 0.0
C1100 C 0.74639 0.4223 0.36615 0.0
H1101 H 0.83634 0.40423 0.37175 0.0
H1102 H 0.80681 0.40906 0.38347 0.0
H1103 H 0.76575 0.41977 0.34756 0.0
H1104 H 0.68004 0.43042 0.37915 0.0
H1105 H 0.71755 0.43967 0.37014 0.0
H1106 H 0.76314 0.43322 0.40477 0.0
C1107 C 0.81309 0.41597 0.37194 0.0
C1108 C 0.76567 0.42323 0.36001 0.0
C1109 C 0.82993 0.4131 0.36522 0.0
C1110 C 0.68953 0.42485 0.386 0.0
C1111 C 0.71099 0.43006 0.38079 0.0
C1112 C 0.76359 0.43036 0.39225 0.0
C1113 C 0.80366 0.42655 0.3635 0.0
C1114 C 0.78406 0.42747 0.36993 0.0
C1115 C 0.72354 0.42246 0.38898 0.0
C1116 C 0.74497 0.42554 0.38237 0.0
H1117 H 0.83452 0.43799 0.32989 0.0
H1118 H 0.80542 0.44341 0.3417 0.0
H1119 H 0.79694 0.43495 0.39403 0.0
H1120 H 0.68644 0.39525 0.41863 0.0
H1121 H 0.72374 0.40417 0.40945 0.0
C1122 C 0.10648 0.57512 0.41585 0.0
C1123 C 0.09059 0.582 0.41531 0.0
C1124 C 0.11574 0.57373 0.43026 0.0
C1125 C 0.12787 0.59753 0.47024 0.0
H1126 H 0.14106 0.55152 0.47954 0.0
C1127 C 0.16883 0.59605 0.52939 0.0
C1128 C 0.18673 0.59186 0.52866 0.0
C1129 C 0.15488 0.59239 0.51622 0.0
C1130 C 0.13761 0.56456 0.47706 0.0
H1131 H 0.07181 0.5927 0.4294 0.0
H1132 H 0.08775 0.59002 0.45465 0.0
H1133 H 0.12032 0.54935 0.45531 0.0
H1134 H 0.20354 0.57984 0.51366 0.0
H1135 H 0.17936 0.57371 0.49058 0.0
H1136 H 0.14548 0.613 0.49176 0.0
C1137 C 0.09313 0.58577 0.44392 0.0
C1138 C 0.12572 0.5633 0.4632 0.0
C1139 C 0.08385 0.58713 0.42951 0.0
C1140 C 0.1899 0.58324 0.51461 0.0
C1141 C 0.17596 0.57961 0.5014 0.0
C1142 C 0.13975 0.5988 0.48406 0.0
C1143 C 0.10944 0.57938 0.44445 0.0
C1144 C 0.12086 0.57987 0.45958 0.0
C1145 C 0.15852 0.58449 0.50198 0.0
C1146 C 0.14491 0.58242 0.4876 0.0
H1147 H 0.1122 0.57137 0.40506 0.0
H1148 H 0.1285 0.56905 0.43022 0.0
H1149 H 0.12479 0.61079 0.46768 0.0
H1150 H 0.16577 0.60252 0.54007 0.0
H1151 H 0.14134 0.59593 0.51715 0.0
C1152 C 0.51738 0.07202 0.59784 0.0
C1153 C 0.53099 0.05509 0.59621 0.0
C1154 C 0.52848 0.09211 0.61364 0.0
C1155 C 0.57849 0.11531 0.64782 0.0
H1156 H 0.54505 0.14273 0.6617 0.0
C1157 C 0.60223 0.16833 0.70442 0.0
C1158 C 0.60129 0.18771 0.70382 0.0
C1159 C 0.59411 0.1534 0.69178 0.0
C1160 C 0.5547 0.1354 0.65781 0.0
H1161 H 0.55105 0.03865 0.61241 0.0
H1162 H 0.56598 0.07052 0.63779 0.0
H1163 H 0.52924 0.11489 0.64077 0.0
H1164 H 0.59136 0.20677 0.68937 0.0
H1165 H 0.57726 0.18069 0.66725 0.0
H1166 H 0.6038 0.1356 0.66505 0.0
C1167 C 0.55532 0.07086 0.62846 0.0
C1168 C 0.54567 0.11946 0.64579 0.0
C1169 C 0.54514 0.05015 0.61316 0.0
C1170 C 0.5923 0.19197 0.69021 0.0
C1171 C 0.58409 0.17698 0.67759 0.0
C1172 C 0.58746 0.13115 0.65988 0.0
C1173 C 0.5478 0.09195 0.62832 0.0
C1174 C 0.55741 0.10915 0.64076 0.0
C1175 C 0.58481 0.15749 0.67827 0.0
C1176 C 0.57561 0.14126 0.66507 0.0
H1177 H 0.50738 0.07307 0.5883 0.0
H1178 H 0.52384 0.10457 0.61404 0.0
H1179 H 0.5883 0.10816 0.64395 0.0
H1180 H 0.60899 0.16451 0.71474 0.0
H1181 H 0.59466 0.1384 0.69272 0.0
C1182 C 0.51557 0.56884 0.76528 0.0
C1183 C 0.5342 0.58732 0.75847 0.0
C1184 C 0.50058 0.57133 0.77486 0.0
C1185 C 0.48362 0.61154 0.7871 0.0
H1186 H 0.46338 0.57544 0.82468 0.0
C1187 C 0.44748 0.63151 0.84189 0.0
C1188 C 0.42814 0.61382 0.8488 0.0
C1189 C 0.45859 0.62773 0.82966 0.0
C1190 C 0.46867 0.58546 0.81414 0.0
H1191 H 0.55134 0.62279 0.75586 0.0
H1192 H 0.52574 0.62734 0.77307 0.0
H1193 H 0.48602 0.56982 0.80543 0.0
H1194 H 0.40513 0.57832 0.84815 0.0
H1195 H 0.42477 0.57173 0.82693 0.0
H1196 H 0.46685 0.6277 0.79626 0.0
C1197 C 0.52235 0.61083 0.7708 0.0
C1198 C 0.48159 0.5822 0.80305 0.0
C1199 C 0.53717 0.60829 0.76105 0.0
C1200 C 0.42 0.5923 0.8431 0.0
C1201 C 0.43128 0.5885 0.83099 0.0
C1202 C 0.4709 0.61497 0.7983 0.0
C1203 C 0.50405 0.59241 0.77803 0.0
C1204 C 0.48934 0.59526 0.78941 0.0
C1205 C 0.45075 0.60616 0.82422 0.0
C1206 C 0.46341 0.60202 0.81197 0.0
H1207 H 0.51276 0.55246 0.76337 0.0
H1208 H 0.4864 0.55671 0.77992 0.0
H1209 H 0.48895 0.62166 0.77662 0.0
H1210 H 0.45412 0.64829 0.84599 0.0
H1211 H 0.47369 0.64162 0.82473 0.0
C1212 C 0.95082 0.48248 0.94048 0.0
C1213 C 0.94938 0.49914 0.93254 0.0
C1214 C 0.93378 0.46841 0.95082 0.0
C1215 C 0.87472 0.44943 0.96335 0.0
H1216 H 0.89555 0.4379 0.0029 0.0
C1217 C 0.81853 0.41643 0.01875 0.0
C1218 C 0.82015 0.40073 0.02793 0.0
C1219 C 0.83316 0.42662 0.0061 0.0
C1220 C 0.8894 0.44069 0.99184 0.0
H1221 H 0.92874 0.51385 0.92888 0.0
H1222 H 0.89911 0.48956 0.9472 0.0
H1223 H 0.92291 0.45869 0.98247 0.0
H1224 H 0.83812 0.3831 0.03081 0.0
H1225 H 0.86359 0.40087 0.00874 0.0
H1226 H 0.84121 0.43177 0.97296 0.0
C1227 C 0.91321 0.48707 0.94524 0.0
C1228 C 0.90509 0.45259 0.98009 0.0
C1229 C 0.93021 0.50107 0.93481 0.0
C1230 C 0.83647 0.39519 0.02403 0.0
C1231 C 0.85115 0.40544 0.01142 0.0
C1232 C 0.85901 0.43758 0.97514 0.0
C1233 C 0.91499 0.47081 0.95359 0.0
C1234 C 0.89799 0.45722 0.96573 0.0
C1235 C 0.84979 0.42141 0.00239 0.0
C1236 C 0.86621 0.43318 0.98955 0.0
H1237 H 0.96539 0.4806 0.93893 0.0
H1238 H 0.9355 0.45581 0.95682 0.0
H1239 H 0.86863 0.45244 0.95235 0.0
H1240 H 0.80613 0.42106 0.02143 0.0
H1241 H 0.83183 0.43901 0.99948 0.0
C1242 C 0.46804 0.91697 0.08509 0.0
C1243 C 0.49062 0.93446 0.08379 0.0
C1244 C 0.45913 0.90805 0.09983 0.0
C1245 C 0.4692 0.91775 0.14304 0.0
H1246 H 0.43627 0.85382 0.14471 0.0
C1247 C 0.45696 0.86939 0.20057 0.0
C1248 C 0.43636 0.84939 0.20263 0.0
C1249 C 0.46134 0.88096 0.18642 0.0
C1250 C 0.44507 0.87167 0.14445 0.0
H1251 H 0.52154 0.95647 0.09686 0.0
H1252 H 0.50607 0.94082 0.12263 0.0
H1253 H 0.44778 0.8721 0.11933 0.0
H1254 H 0.40385 0.82624 0.19165 0.0
H1255 H 0.41144 0.84652 0.16703 0.0
H1256 H 0.46689 0.91723 0.16825 0.0
C1257 C 0.49507 0.93426 0.11231 0.0
C1258 C 0.45167 0.88217 0.12988 0.0
C1259 C 0.50398 0.94319 0.09757 0.0
C1260 C 0.41996 0.84153 0.19041 0.0
C1261 C 0.42434 0.8531 0.17627 0.0
C1262 C 0.46259 0.90723 0.15764 0.0
C1263 C 0.47267 0.91632 0.11358 0.0
C1264 C 0.46407 0.90533 0.12901 0.0
C1265 C 0.44522 0.87278 0.17402 0.0
C1266 C 0.45071 0.88406 0.15852 0.0
H1267 H 0.45744 0.90984 0.07465 0.0
H1268 H 0.44173 0.89441 0.10043 0.0
H1269 H 0.47846 0.93561 0.14274 0.0
H1270 H 0.46995 0.87593 0.20975 0.0
H1271 H 0.47769 0.89594 0.18502 0.0
C1272 C 0.5702 0.49944 0.26035 0.0
C1273 C 0.56341 0.48551 0.24702 0.0
C1274 C 0.57081 0.49138 0.27527 0.0
C1275 C 0.55148 0.43968 0.29777 0.0
H1276 H 0.60344 0.47782 0.32455 0.0
C1277 C 0.57996 0.40917 0.35178 0.0
C1278 C 0.58803 0.423 0.36518 0.0
C1279 C 0.57435 0.41615 0.33794 0.0
C1280 C 0.58865 0.46707 0.31732 0.0
H1281 H 0.55252 0.45247 0.23877 0.0
H1282 H 0.55398 0.43844 0.26479 0.0
H1283 H 0.59868 0.49134 0.29931 0.0
H1284 H 0.5955 0.45458 0.37478 0.0
H1285 H 0.58565 0.46667 0.35068 0.0
H1286 H 0.54188 0.41522 0.31574 0.0
C1287 C 0.55812 0.45539 0.26382 0.0
C1288 C 0.58589 0.47483 0.30284 0.0
C1289 C 0.55737 0.46342 0.24891 0.0
C1290 C 0.58954 0.44359 0.36463 0.0
C1291 C 0.58399 0.45057 0.35081 0.0
C1292 C 0.55433 0.43187 0.31225 0.0
C1293 C 0.56504 0.46933 0.27717 0.0
C1294 C 0.56733 0.46122 0.29285 0.0
C1295 C 0.57674 0.43712 0.33723 0.0
C1296 C 0.573 0.44548 0.32215 0.0
H1297 H 0.57535 0.51665 0.25922 0.0
H1298 H 0.57598 0.50251 0.28531 0.0
H1299 H 0.53683 0.42887 0.29046 0.0
H1300 H 0.57855 0.39318 0.35184 0.0
H1301 H 0.56894 0.40548 0.32763 0.0
C1302 C 0.44308 0.91001 0.3928 0.0
C1303 C 0.43784 0.92642 0.38971 0.0
C1304 C 0.44744 0.89966 0.38043 0.0
C1305 C 0.46065 0.90361 0.33782 0.0
H1306 H 0.42709 0.83966 0.33945 0.0
C1307 C 0.43724 0.8487 0.28243 0.0
C1308 C 0.43602 0.82826 0.28343 0.0
C1309 C 0.44202 0.86198 0.29582 0.0
C1310 C 0.43698 0.85751 0.33891 0.0
H1311 H 0.43309 0.94494 0.37128 0.0
H1312 H 0.44072 0.92691 0.34962 0.0
H1313 H 0.42741 0.86083 0.36222 0.0
H1314 H 0.43996 0.80625 0.29917 0.0
H1315 H 0.44856 0.82959 0.32257 0.0
H1316 H 0.4698 0.90023 0.31434 0.0
C1317 C 0.44191 0.92232 0.36163 0.0
C1318 C 0.43714 0.86966 0.35197 0.0
C1319 C 0.43749 0.93261 0.37401 0.0
C1320 C 0.44061 0.82182 0.29802 0.0
C1321 C 0.44543 0.83515 0.31144 0.0
C1322 C 0.46057 0.89145 0.32476 0.0
C1323 C 0.44652 0.90544 0.36469 0.0
C1324 C 0.44858 0.89282 0.35145 0.0
C1325 C 0.44577 0.85519 0.31055 0.0
C1326 C 0.44831 0.86823 0.32503 0.0
H1327 H 0.44323 0.90477 0.40479 0.0
H1328 H 0.45111 0.88684 0.38317 0.0
H1329 H 0.4699 0.92145 0.33716 0.0
H1330 H 0.43386 0.85422 0.27137 0.0
H1331 H 0.44186 0.87715 0.29472 0.0
C1332 C 0.51704 0.45432 0.53307 0.0
C1333 C 0.52728 0.45651 0.54795 0.0
C1334 C 0.52745 0.45289 0.51939 0.0
C1335 C 0.58203 0.46116 0.50403 0.0
H1336 H 0.54249 0.41864 0.47235 0.0
C1337 C 0.616 0.44754 0.44531 0.0
C1338 C 0.60566 0.42574 0.43961 0.0
C1339 C 0.60699 0.45264 0.45826 0.0
C1340 C 0.55382 0.43046 0.48113 0.0
H1341 H 0.55612 0.45847 0.5602 0.0
H1342 H 0.5741 0.45555 0.53641 0.0
H1343 H 0.52601 0.42539 0.49533 0.0
H1344 H 0.57816 0.3921 0.44332 0.0
H1345 H 0.56287 0.40084 0.46608 0.0
H1346 H 0.60988 0.46547 0.49012 0.0
C1347 C 0.55843 0.45566 0.5352 0.0
C1348 C 0.54433 0.4346 0.49422 0.0
C1349 C 0.5481 0.45724 0.54885 0.0
C1350 C 0.58643 0.4091 0.44732 0.0
C1351 C 0.57755 0.41415 0.46032 0.0
C1352 C 0.59154 0.4569 0.49097 0.0
C1353 C 0.54813 0.45323 0.5203 0.0
C1354 C 0.55831 0.44987 0.50591 0.0
C1355 C 0.58754 0.43601 0.46586 0.0
C1356 C 0.57754 0.44132 0.47944 0.0
H1357 H 0.50079 0.45332 0.53202 0.0
H1358 H 0.51915 0.45129 0.5081 0.0
H1359 H 0.59331 0.47324 0.5127 0.0
H1360 H 0.63079 0.46076 0.43958 0.0
H1361 H 0.615 0.46968 0.46211 0.0
C1362 C 0.08091 0.49446 0.70947 0.0
C1363 C 0.08954 0.5046 0.72424 0.0
C1364 C 0.08998 0.50621 0.69555 0.0
C1365 C 0.14284 0.55318 0.68047 0.0
H1366 H 0.10594 0.54526 0.64325 0.0
C1367 C 0.1828 0.59806 0.62218 0.0
C1368 C 0.1747 0.58503 0.6084 0.0
C1369 C 0.17141 0.59022 0.63646 0.0
C1370 C 0.11648 0.54755 0.65353 0.0
H1371 H 0.11425 0.53496 0.73603 0.0
H1372 H 0.12991 0.55563 0.71173 0.0
H1373 H 0.08755 0.52799 0.66802 0.0
H1374 H 0.14795 0.55374 0.59875 0.0
H1375 H 0.1283 0.54001 0.62362 0.0
H1376 H 0.17177 0.57233 0.66595 0.0
C1377 C 0.11622 0.53857 0.71089 0.0
C1378 C 0.10594 0.53767 0.66771 0.0
C1379 C 0.10715 0.52682 0.72481 0.0
C1380 C 0.15468 0.56422 0.60913 0.0
C1381 C 0.14329 0.55639 0.62339 0.0
C1382 C 0.15337 0.56305 0.6663 0.0
C1383 C 0.10799 0.52831 0.69609 0.0
C1384 C 0.11901 0.54013 0.6813 0.0
C1385 C 0.15165 0.56918 0.63726 0.0
C1386 C 0.14033 0.56011 0.6526 0.0
H1387 H 0.0676 0.47724 0.7087 0.0
H1388 H 0.08347 0.49771 0.68435 0.0
H1389 H 0.15343 0.55514 0.69064 0.0
H1390 H 0.19813 0.61421 0.622 0.0
H1391 H 0.17813 0.60059 0.64689 0.0
C1392 C 0.48 0.08415 0.86575 0.0
C1393 C 0.48329 0.09253 0.88123 0.0
C1394 C 0.49225 0.09803 0.85327 0.0
C1395 C 0.54439 0.15156 0.84521 0.0
H1396 H 0.51522 0.14669 0.80472 0.0
C1397 C 0.58723 0.21734 0.79691 0.0
C1398 C 0.58519 0.20983 0.78128 0.0
C1399 C 0.57471 0.20263 0.80891 0.0
C1400 C 0.52367 0.1481 0.81591 0.0
H1401 H 0.50153 0.12203 0.89573 0.0
H1402 H 0.52256 0.14631 0.87398 0.0
H1403 H 0.49337 0.12159 0.82596 0.0
H1404 H 0.56837 0.18095 0.76597 0.0
H1405 H 0.54666 0.15532 0.78693 0.0
H1406 H 0.57464 0.17812 0.83522 0.0
C1407 C 0.51093 0.12896 0.87149 0.0
C1408 C 0.51116 0.13371 0.82807 0.0
C1409 C 0.49876 0.11511 0.88393 0.0
C1410 C 0.57029 0.18731 0.77789 0.0
C1411 C 0.55775 0.17261 0.78989 0.0
C1412 C 0.55687 0.16596 0.83308 0.0
C1413 C 0.50796 0.12057 0.85603 0.0
C1414 C 0.52134 0.13538 0.8429 0.0
C1415 C 0.55985 0.1801 0.80554 0.0
C1416 C 0.54663 0.16448 0.81832 0.0
H1417 H 0.46815 0.06683 0.86333 0.0
H1418 H 0.4897 0.09101 0.84152 0.0
H1419 H 0.55289 0.15301 0.85639 0.0
H1420 H 0.59849 0.23459 0.79992 0.0
H1421 H 0.57647 0.20897 0.82082 0.0
C1422 C 0.48718 0.6123 0.05166 0.0
C1423 C 0.47164 0.58393 0.05979 0.0
C1424 C 0.48027 0.6144 0.03145 0.0
C1425 C 0.43015 0.58057 0.99801 0.0
H1426 H 0.4792 0.62439 0.97244 0.0
C1427 C 0.422 0.59059 0.93061 0.0
C1428 C 0.42839 0.61215 0.92615 0.0
C1429 C 0.42685 0.58641 0.94585 0.0
C1430 C 0.46535 0.61212 0.97948 0.0
H1431 H 0.43375 0.54605 0.05758 0.0
H1432 H 0.42369 0.55194 0.02543 0.0
H1433 H 0.48695 0.61871 0.99956 0.0
H1434 H 0.44534 0.64631 0.93395 0.0
H1435 H 0.45427 0.63905 0.96041 0.0
H1436 H 0.40872 0.57371 0.97758 0.0
C1437 C 0.43803 0.56545 0.03154 0.0
C1438 C 0.4697 0.60898 0.99509 0.0
C1439 C 0.44358 0.56182 0.05181 0.0
C1440 C 0.44014 0.62951 0.93708 0.0
C1441 C 0.44535 0.6254 0.95218 0.0
C1442 C 0.42587 0.58349 0.9823 0.0
C1443 C 0.45662 0.59107 0.02139 0.0
C1444 C 0.45209 0.59344 0.00462 0.0
C1445 C 0.43857 0.6038 0.95675 0.0
C1446 C 0.44338 0.59953 0.97298 0.0
H1447 H 0.50236 0.62547 0.05731 0.0
H1448 H 0.49041 0.62988 0.02542 0.0
H1449 H 0.41607 0.56867 0.00501 0.0
H1450 H 0.41285 0.57688 0.92245 0.0
H1451 H 0.42154 0.56963 0.94911 0.0
C1452 C 0.93225 0.43207 0.20042 0.0
C1453 C 0.95227 0.45287 0.20163 0.0
C1454 C 0.91599 0.4279 0.18869 0.0
C1455 C 0.91117 0.44706 0.14935 0.0
H1456 H 0.84627 0.4126 0.1567 0.0
C1457 C 0.84608 0.43484 0.10099 0.0
C1458 C 0.82661 0.41372 0.09934 0.0
C1459 C 0.8607 0.44004 0.11398 0.0
C1460 C 0.86434 0.42206 0.15442 0.0
H1461 H 0.97093 0.4856 0.1916 0.0
H1462 H 0.94244 0.47846 0.17125 0.0
H1463 H 0.87292 0.42111 0.1787 0.0
H1464 H 0.80712 0.3815 0.11014 0.0
H1465 H 0.83289 0.39046 0.13271 0.0
H1466 H 0.90274 0.44782 0.12509 0.0
C1467 C 0.93935 0.46533 0.1793 0.0
C1468 C 0.87959 0.42696 0.16703 0.0
C1469 C 0.95556 0.46949 0.19102 0.0
C1470 C 0.82197 0.39794 0.11107 0.0
C1471 C 0.83666 0.40312 0.12406 0.0
C1472 C 0.89596 0.44213 0.13676 0.0
C1473 C 0.91953 0.44439 0.17785 0.0
C1474 C 0.90318 0.43952 0.16462 0.0
C1475 C 0.85628 0.4242 0.12562 0.0
C1476 C 0.87236 0.42957 0.13913 0.0
H1477 H 0.92947 0.41887 0.2083 0.0
H1478 H 0.90104 0.41153 0.18777 0.0
H1479 H 0.92923 0.45641 0.14703 0.0
H1480 H 0.85007 0.44745 0.09223 0.0
H1481 H 0.87544 0.45654 0.11494 0.0
loop_
_geom_bond_atom_site_label_1
_geom_bond_atom_site_label_2
_geom_bond_distance
_geom_bond_site_symmetry_2
_ccdc_geom_bond_type
C0 C1 1.560 . S
C0 H61 0.959 . S
C0 H62 0.959 . S
C0 H63 0.960 . S
C1 C0 1.560 . S
C1 O56 1.426 . S
C1 H60 0.980 . S
C2 C3 1.407 . S
C2 C7 1.418 . S
C2 O56 1.334 . S
C3 C2 1.407 . S
C3 C4 1.360 . S
C3 H64 0.929 . S
C4 C3 1.360 . S
C4 C5 1.401 . S
C4 C8 1.527 . S
C5 C4 1.401 . S
C5 C6 1.405 . S
C5 C38 1.587 . S
C6 C5 1.405 . S
C6 C7 1.332 . S
C6 C9 1.496 . S
C7 C2 1.418 . S
C7 C6 1.332 . S
C7 H65 0.929 . S
C8 C4 1.527 . S
C8 H66 0.959 . S
C8 H67 0.961 . S
C8 H68 0.961 . S
C9 C6 1.496 . S
C9 H69 0.960 . S
C9 H70 0.960 . S
C9 H71 0.961 . S
C10 C11 1.517 . S
C10 H73 0.961 . S
C10 H74 0.960 . S
C10 H75 0.959 . S
C11 C10 1.517 . S
C11 O59 1.468 . S
C11 H72 0.980 . S
C12 C13 1.349 . S
C12 C17 1.367 . S
C12 O59 1.408 . S
C13 C12 1.349 . S
C13 C14 1.407 . S
C13 H76 0.930 . S
C14 C13 1.407 . S
C14 C15 1.449 . S
C14 C18 1.535 . S
C15 C14 1.449 . S
C15 C16 1.384 . S
C15 C40 1.553 1_655 S
C16 C15 1.384 . S
C16 C17 1.364 . S
C16 C19 1.450 . S
C17 C12 1.367 . S
C17 C16 1.364 . S
C17 H77 0.931 . S
C18 C14 1.535 . S
C18 H78 0.959 1_655 S
C18 H79 0.961 . S
C18 H80 0.959 . S
C19 C16 1.450 . S
C19 H81 0.960 . S
C19 H82 0.960 1_655 S
C19 H83 0.960 . S
C20 C21 1.309 . S
C20 C25 1.304 . S
C20 O58 1.435 . S
C21 C20 1.309 . S
C21 C22 1.476 . S
C21 H85 0.930 . S
C22 C21 1.476 . S
C22 C23 1.400 . S
C22 C26 1.567 . S
C23 C22 1.400 . S
C23 C24 1.373 . S
C23 C45 1.432 . S
C24 C23 1.373 . S
C24 C25 1.339 . S
C24 C27 1.530 . S
C25 C20 1.304 . S
C25 C24 1.339 . S
C25 H86 0.930 . S
C26 C22 1.567 . S
C26 H87 0.961 . S
C26 H88 0.960 . S
C26 H89 0.958 . S
C27 C24 1.530 . S
C27 H90 0.961 . S
C27 H91 0.960 . S
C27 H92 0.960 . S
C28 C29 1.530 . S
C28 H94 0.961 . S
C28 H95 0.961 . S
C28 H96 0.959 . S
C29 C28 1.530 . S
C29 O57 1.412 . S
C29 H93 0.980 . S
C30 C31 1.288 . S
C30 C35 1.377 . S
C30 O57 1.393 . S
C31 C30 1.288 . S
C31 C32 1.369 . S
C31 H97 0.932 . S
C32 C31 1.369 . S
C32 C33 1.398 . S
C32 C36 1.527 . S
C33 C32 1.398 . S
C33 C34 1.380 . S
C33 C47 1.497 . S
C34 C33 1.380 . S
C34 C35 1.383 . S
C34 C37 1.603 . S
C35 C30 1.377 . S
C35 C34 1.383 . S
C35 H98 0.929 . S
C36 C32 1.527 . S
C36 H99 0.961 . S
C36 H100 0.959 1_455 S
C36 H101 0.959 . S
C37 C34 1.603 . S
C37 H102 0.960 . S
C37 H103 0.962 . S
C37 H104 0.961 . S
C38 C5 1.587 . S
C38 C39 1.360 . S
C38 C51 1.412 . S
C39 C38 1.360 . S
C39 C40 1.365 . S
C39 H105 0.929 . S
C40 C15 1.553 1_455 S
C40 C39 1.365 . S
C40 C41 1.404 1_455 S
C41 C40 1.404 1_655 S
C41 C42 1.395 . S
C41 C52 1.451 1_655 S
C42 C41 1.395 . S
C42 C43 1.322 . S
C42 H106 0.930 . S
C43 C42 1.322 . S
C43 C44 1.459 . S
C43 H107 0.929 . S
C44 C43 1.459 . S
C44 C45 1.445 . S
C44 C53 1.395 1_655 S
C45 C23 1.432 . S
C45 C44 1.445 . S
C45 C46 1.370 . S
C46 C45 1.370 . S
C46 C47 1.438 1_655 S
C46 H108 0.930 . S
C47 C33 1.497 . S
C47 C46 1.438 1_455 S
C47 C48 1.360 . S
C48 C47 1.360 . S
C48 C49 1.401 . S
C48 C53 1.446 . S
C49 C48 1.401 . S
C49 C50 1.347 . S
C49 H109 0.929 . S
C50 C49 1.347 . S
C50 C51 1.455 . S
C50 H110 0.930 . S
C51 C38 1.412 . S
C51 C50 1.455 . S
C51 C52 1.331 . S
C52 C41 1.451 1_455 S
C52 C51 1.331 . S
C52 C53 1.497 . S
C53 C44 1.395 1_455 S
C53 C48 1.446 . S
C53 C52 1.497 . S
C54 C55 1.582 . S
C54 H111 0.962 . S
C54 H112 0.959 . S
C54 H113 0.958 . S
C55 C54 1.582 . S
C55 O58 1.458 . S
C55 H84 0.980 . S
O56 C1 1.426 . S
O56 C2 1.334 . S
O57 C29 1.412 . S
O57 C30 1.393 . S
O58 C20 1.435 . S
O58 C55 1.458 . S
O59 C11 1.468 . S
O59 C12 1.408 . S
H60 C1 0.980 . S
H61 C0 0.959 . S
H62 C0 0.959 . S
H63 C0 0.960 . S
H64 C3 0.929 . S
H65 C7 0.929 . S
H66 C8 0.959 . S
H67 C8 0.961 . S
H68 C8 0.961 . S
H69 C9 0.960 . S
H70 C9 0.960 . S
H71 C9 0.961 . S
H72 C11 0.980 . S
H73 C10 0.961 . S
H74 C10 0.960 . S
H75 C10 0.959 . S
H76 C13 0.930 . S
H77 C17 0.931 . S
H78 C18 0.959 1_455 S
H79 C18 0.961 . S
H80 C18 0.959 . S
H81 C19 0.960 . S
H82 C19 0.960 1_455 S
H83 C19 0.960 . S
H84 C55 0.980 . S
H85 C21 0.930 . S
H86 C25 0.930 . S
H87 C26 0.961 . S
H88 C26 0.960 . S
H89 C26 0.958 . S
H90 C27 0.961 . S
H91 C27 0.960 . S
H92 C27 0.960 . S
H93 C29 0.980 . S
H94 C28 0.961 . S
H95 C28 0.961 . S
H96 C28 0.959 . S
H97 C31 0.932 . S
H98 C35 0.929 . S
H99 C36 0.961 . S
H100 C36 0.959 1_655 S
H101 C36 0.959 . S
H102 C37 0.960 . S
H103 C37 0.962 . S
H104 C37 0.961 . S
H105 C39 0.929 . S
H106 C42 0.930 . S
H107 C43 0.929 . S
H108 C46 0.930 . S
H109 C49 0.929 . S
H110 C50 0.930 . S
H111 C54 0.962 . S
H112 C54 0.959 . S
H113 C54 0.958 . S
C114 C115 1.560 . S
C114 H175 0.959 . S
C114 H176 0.959 . S
C114 H177 0.960 . S
C115 C114 1.560 . S
C115 O170 1.426 . S
C115 H174 0.980 . S
C116 C117 1.407 . S
C116 C121 1.418 . S
C116 O170 1.334 . S
C117 C116 1.407 . S
C117 C118 1.360 . S
C117 H178 0.929 . S
C118 C117 1.360 . S
C118 C119 1.401 . S
C118 C122 1.527 . S
C119 C118 1.401 . S
C119 C120 1.405 . S
C119 C152 1.587 . S
C120 C119 1.405 . S
C120 C121 1.332 . S
C120 C123 1.496 . S
C121 C116 1.418 . S
C121 C120 1.332 . S
C121 H179 0.929 . S
C122 C118 1.527 . S
C122 H180 0.959 . S
C122 H181 0.961 . S
C122 H182 0.961 . S
C123 C120 1.496 . S
C123 H183 0.960 . S
C123 H184 0.960 . S
C123 H185 0.961 . S
C124 C125 1.517 . S
C124 H187 0.961 . S
C124 H188 0.960 . S
C124 H189 0.959 . S
C125 C124 1.517 . S
C125 O173 1.468 . S
C125 H186 0.980 . S
C126 C127 1.349 . S
C126 C131 1.367 . S
C126 O173 1.408 . S
C127 C126 1.349 . S
C127 C128 1.407 . S
C127 H190 0.930 . S
C128 C127 1.407 . S
C128 C129 1.449 . S
C128 C132 1.535 . S
C129 C128 1.449 . S
C129 C130 1.384 . S
C129 C154 1.553 . S
C130 C129 1.384 . S
C130 C131 1.364 . S
C130 C133 1.450 . S
C131 C126 1.367 . S
C131 C130 1.364 . S
C131 H191 0.931 . S
C132 C128 1.535 . S
C132 H192 0.959 . S
C132 H193 0.961 . S
C132 H194 0.959 . S
C133 C130 1.450 . S
C133 H195 0.960 . S
C133 H196 0.960 . S
C133 H197 0.960 . S
C134 C135 1.309 . S
C134 C139 1.304 . S
C134 O172 1.435 . S
C135 C134 1.309 . S
C135 C136 1.476 . S
C135 H199 0.930 . S
C136 C135 1.476 . S
C136 C137 1.400 . S
C136 C140 1.567 . S
C137 C136 1.400 . S
C137 C138 1.373 . S
C137 C159 1.432 . S
C138 C137 1.373 . S
C138 C139 1.339 . S
C138 C141 1.530 . S
C139 C134 1.304 . S
C139 C138 1.339 . S
C139 H200 0.930 . S
C140 C136 1.567 . S
C140 H201 0.961 . S
C140 H202 0.960 . S
C140 H203 0.958 . S
C141 C138 1.530 . S
C141 H204 0.961 . S
C141 H205 0.960 . S
C141 H206 0.960 . S
C142 C143 1.530 . S
C142 H208 0.961 . S
C142 H209 0.961 . S
C142 H210 0.959 . S
C143 C142 1.530 . S
C143 O171 1.412 . S
C143 H207 0.980 . S
C144 C145 1.288 . S
C144 C149 1.377 . S
C144 O171 1.393 . S
C145 C144 1.288 . S
C145 C146 1.369 . S
C145 H211 0.932 . S
C146 C145 1.369 . S
C146 C147 1.398 1_565 S
C146 C150 1.527 1_565 S
C147 C146 1.398 1_545 S
C147 C148 1.380 1_545 S
C147 C161 1.497 . S
C148 C147 1.380 1_565 S
C148 C149 1.383 . S
C148 C151 1.603 . S
C149 C144 1.377 . S
C149 C148 1.383 . S
C149 H212 0.929 . S
C150 C146 1.527 1_545 S
C150 H213 0.961 . S
C150 H214 0.959 . S
C150 H215 0.959 . S
C151 C148 1.603 . S
C151 H216 0.960 . S
C151 H217 0.962 1_565 S
C151 H218 0.961 . S
C152 C119 1.587 . S
C152 C153 1.360 . S
C152 C165 1.412 . S
C153 C152 1.360 . S
C153 C154 1.365 1_565 S
C153 H219 0.929 . S
C154 C129 1.553 . S
C154 C153 1.365 1_545 S
C154 C155 1.404 . S
C155 C154 1.404 . S
C155 C156 1.395 . S
C155 C166 1.451 . S
C156 C155 1.395 . S
C156 C157 1.322 . S
C156 H220 0.930 . S
C157 C156 1.322 . S
C157 C158 1.459 . S
C157 H221 0.929 . S
C158 C157 1.459 . S
C158 C159 1.445 . S
C158 C167 1.395 . S
C159 C137 1.432 . S
C159 C158 1.445 . S
C159 C160 1.370 . S
C160 C159 1.370 . S
C160 C161 1.438 . S
C160 H222 0.930 . S
C161 C147 1.497 . S
C161 C160 1.438 . S
C161 C162 1.360 . S
C162 C161 1.360 . S
C162 C163 1.401 1_545 S
C162 C167 1.446 . S
C163 C162 1.401 1_565 S
C163 C164 1.347 . S
C163 H223 0.929 . S
C164 C163 1.347 . S
C164 C165 1.455 . S
C164 H224 0.930 . S
C165 C152 1.412 . S
C165 C164 1.455 . S
C165 C166 1.331 1_565 S
C166 C155 1.451 . S
C166 C165 1.331 1_545 S
C166 C167 1.497 . S
C167 C158 1.395 . S
C167 C162 1.446 . S
C167 C166 1.497 . S
C168 C169 1.582 . S
C168 H225 0.962 . S
C168 H226 0.959 . S
C168 H227 0.958 . S
C169 C168 1.582 . S
C169 O172 1.458 . S
C169 H198 0.980 . S
O170 C115 1.426 . S
O170 C116 1.334 . S
O171 C143 1.412 . S
O171 C144 1.393 . S
O172 C134 1.435 . S
O172 C169 1.458 . S
O173 C125 1.468 . S
O173 C126 1.408 . S
H174 C115 0.980 . S
H175 C114 0.959 . S
H176 C114 0.959 . S
H177 C114 0.960 . S
H178 C117 0.929 . S
H179 C121 0.929 . S
H180 C122 0.959 . S
H181 C122 0.961 . S
H182 C122 0.961 . S
H183 C123 0.960 . S
H184 C123 0.960 . S
H185 C123 0.961 . S
H186 C125 0.980 . S
H187 C124 0.961 . S
H188 C124 0.960 . S
H189 C124 0.959 . S
H190 C127 0.930 . S
H191 C131 0.931 . S
H192 C132 0.959 . S
H193 C132 0.961 . S
H194 C132 0.959 . S
H195 C133 0.960 . S
H196 C133 0.960 . S
H197 C133 0.960 . S
H198 C169 0.980 . S
H199 C135 0.930 . S
H200 C139 0.930 . S
H201 C140 0.961 . S
H202 C140 0.960 . S
H203 C140 0.958 . S
H204 C141 0.961 . S
H205 C141 0.960 . S
H206 C141 0.960 . S
H207 C143 0.980 . S
H208 C142 0.961 . S
H209 C142 0.961 . S
H210 C142 0.959 . S
H211 C145 0.932 . S
H212 C149 0.929 . S
H213 C150 0.961 . S
H214 C150 0.959 . S
H215 C150 0.959 . S
H216 C151 0.960 . S
H217 C151 0.962 1_545 S
H218 C151 0.961 . S
H219 C153 0.929 . S
H220 C156 0.930 . S
H221 C157 0.929 . S
H222 C160 0.930 . S
H223 C163 0.929 . S
H224 C164 0.930 . S
H225 C168 0.962 . S
H226 C168 0.959 . S
H227 C168 0.958 . S
C228 C229 1.560 . S
C228 H289 0.959 . S
C228 H290 0.959 . S
C228 H291 0.960 . S
C229 C228 1.560 . S
C229 O284 1.426 . S
C229 H288 0.980 . S
C230 C231 1.407 . S
C230 C235 1.418 . S
C230 O284 1.334 . S
C231 C230 1.407 . S
C231 C232 1.360 . S
C231 H292 0.929 . S
C232 C231 1.360 . S
C232 C233 1.401 . S
C232 C236 1.527 . S
C233 C232 1.401 . S
C233 C234 1.405 . S
C233 C266 1.587 . S
C234 C233 1.405 . S
C234 C235 1.332 . S
C234 C237 1.496 . S
C235 C230 1.418 . S
C235 C234 1.332 . S
C235 H293 0.929 . S
C236 C232 1.527 . S
C236 H294 0.959 . S
C236 H295 0.961 . S
C236 H296 0.961 . S
C237 C234 1.496 . S
C237 H297 0.960 . S
C237 H298 0.960 . S
C237 H299 0.961 . S
C238 C239 1.517 . S
C238 H301 0.961 . S
C238 H302 0.960 . S
C238 H303 0.959 . S
C239 C238 1.517 . S
C239 O287 1.468 . S
C239 H300 0.980 . S
C240 C241 1.349 . S
C240 C245 1.367 . S
C240 O287 1.408 . S
C241 C240 1.349 . S
C241 C242 1.407 . S
C241 H304 0.930 . S
C242 C241 1.407 . S
C242 C243 1.449 . S
C242 C246 1.535 . S
C243 C242 1.449 . S
C243 C244 1.384 . S
C243 C268 1.553 . S
C244 C243 1.384 . S
C244 C245 1.364 . S
C244 C247 1.450 . S
C245 C240 1.367 . S
C245 C244 1.364 . S
C245 H305 0.931 . S
C246 C242 1.535 . S
C246 H306 0.959 . S
C246 H307 0.961 . S
C246 H308 0.959 . S
C247 C244 1.450 . S
C247 H309 0.960 . S
C247 H310 0.960 . S
C247 H311 0.960 . S
C248 C249 1.309 . S
C248 C253 1.304 . S
C248 O286 1.435 . S
C249 C248 1.309 . S
C249 C250 1.476 . S
C249 H313 0.930 . S
C250 C249 1.476 . S
C250 C251 1.400 . S
C250 C254 1.567 . S
C251 C250 1.400 . S
C251 C252 1.373 . S
C251 C273 1.432 . S
C252 C251 1.373 . S
C252 C253 1.339 . S
C252 C255 1.530 . S
C253 C248 1.304 . S
C253 C252 1.339 . S
C253 H314 0.930 . S
C254 C250 1.567 . S
C254 H315 0.961 . S
C254 H316 0.960 . S
C254 H317 0.958 . S
C255 C252 1.530 . S
C255 H318 0.961 . S
C255 H319 0.960 . S
C255 H320 0.960 . S
C256 C257 1.530 . S
C256 H322 0.961 . S
C256 H323 0.961 . S
C256 H324 0.959 . S
C257 C256 1.530 . S
C257 O285 1.412 . S
C257 H321 0.980 . S
C258 C259 1.288 . S
C258 C263 1.377 . S
C258 O285 1.393 . S
C259 C258 1.288 . S
C259 C260 1.369 . S
C259 H325 0.932 . S
C260 C259 1.369 . S
C260 C261 1.398 . S
C260 C264 1.527 . S
C261 C260 1.398 . S
C261 C262 1.380 . S
C261 C275 1.497 . S
C262 C261 1.380 . S
C262 C263 1.383 . S
C262 C265 1.603 . S
C263 C258 1.377 . S
C263 C262 1.383 . S
C263 H326 0.929 . S
C264 C260 1.527 . S
C264 H327 0.961 . S
C264 H328 0.959 . S
C264 H329 0.959 . S
C265 C262 1.603 . S
C265 H330 0.960 . S
C265 H331 0.962 . S
C265 H332 0.961 . S
C266 C233 1.587 . S
C266 C267 1.360 . S
C266 C279 1.412 . S
C267 C266 1.360 . S
C267 C268 1.365 . S
C267 H333 0.929 . S
C268 C243 1.553 . S
C268 C267 1.365 . S
C268 C269 1.404 . S
C269 C268 1.404 . S
C269 C270 1.395 . S
C269 C280 1.451 . S
C270 C269 1.395 . S
C270 C271 1.322 . S
C270 H334 0.930 . S
C271 C270 1.322 . S
C271 C272 1.459 . S
C271 H335 0.929 . S
C272 C271 1.459 . S
C272 C273 1.445 . S
C272 C281 1.395 . S
C273 C251 1.432 . S
C273 C272 1.445 . S
C273 C274 1.370 . S
C274 C273 1.370 . S
C274 C275 1.438 . S
C274 H336 0.930 . S
C275 C261 1.497 . S
C275 C274 1.438 . S
C275 C276 1.360 . S
C276 C275 1.360 . S
C276 C277 1.401 . S
C276 C281 1.446 . S
C277 C276 1.401 . S
C277 C278 1.347 . S
C277 H337 0.929 . S
C278 C277 1.347 . S
C278 C279 1.455 . S
C278 H338 0.930 . S
C279 C266 1.412 . S
C279 C278 1.455 . S
C279 C280 1.331 . S
C280 C269 1.451 . S
C280 C279 1.331 . S
C280 C281 1.497 . S
C281 C272 1.395 . S
C281 C276 1.446 . S
C281 C280 1.497 . S
C282 C283 1.582 . S
C282 H339 0.962 . S
C282 H340 0.959 . S
C282 H341 0.958 . S
C283 C282 1.582 . S
C283 O286 1.458 . S
C283 H312 0.980 . S
O284 C229 1.426 . S
O284 C230 1.334 . S
O285 C257 1.412 . S
O285 C258 1.393 . S
O286 C248 1.435 . S
O286 C283 1.458 . S
O287 C239 1.468 . S
O287 C240 1.408 . S
H288 C229 0.980 . S
H289 C228 0.959 . S
H290 C228 0.959 . S
H291 C228 0.960 . S
H292 C231 0.929 . S
H293 C235 0.929 . S
H294 C236 0.959 . S
H295 C236 0.961 . S
H296 C236 0.961 . S
H297 C237 0.960 . S
H298 C237 0.960 . S
H299 C237 0.961 . S
H300 C239 0.980 . S
H301 C238 0.961 . S
H302 C238 0.960 . S
H303 C238 0.959 . S
H304 C241 0.930 . S
H305 C245 0.931 . S
H306 C246 0.959 . S
H307 C246 0.961 . S
H308 C246 0.959 . S
H309 C247 0.960 . S
H310 C247 0.960 . S
H311 C247 0.960 . S
H312 C283 0.980 . S
H313 C249 0.930 . S
H314 C253 0.930 . S
H315 C254 0.961 . S
H316 C254 0.960 . S
H317 C254 0.958 . S
H318 C255 0.961 . S
H319 C255 0.960 . S
H320 C255 0.960 . S
H321 C257 0.980 . S
H322 C256 0.961 . S
H323 C256 0.961 . S
H324 C256 0.959 . S
H325 C259 0.932 . S
H326 C263 0.929 . S
H327 C264 0.961 . S
H328 C264 0.959 . S
H329 C264 0.959 . S
H330 C265 0.960 . S
H331 C265 0.962 . S
H332 C265 0.961 . S
H333 C267 0.929 . S
H334 C270 0.930 . S
H335 C271 0.929 . S
H336 C274 0.930 . S
H337 C277 0.929 . S
H338 C278 0.930 . S
H339 C282 0.962 . S
H340 C282 0.959 . S
H341 C282 0.958 . S
C342 C343 1.560 . S
C342 H403 0.959 . S
C342 H404 0.959 . S
C342 H405 0.960 . S
C343 C342 1.560 . S
C343 O398 1.426 . S
C343 H402 0.980 . S
C344 C345 1.407 . S
C344 C349 1.418 . S
C344 O398 1.334 . S
C345 C344 1.407 . S
C345 C346 1.360 . S
C345 H406 0.929 . S
C346 C345 1.360 . S
C346 C347 1.401 . S
C346 C350 1.527 . S
C347 C346 1.401 . S
C347 C348 1.405 . S
C347 C380 1.587 . S
C348 C347 1.405 . S
C348 C349 1.332 . S
C348 C351 1.496 . S
C349 C344 1.418 . S
C349 C348 1.332 . S
C349 H407 0.929 . S
C350 C346 1.527 . S
C350 H408 0.959 . S
C350 H409 0.961 . S
C350 H410 0.961 . S
C351 C348 1.496 . S
C351 H411 0.960 . S
C351 H412 0.960 . S
C351 H413 0.961 . S
C352 C353 1.517 . S
C352 H415 0.961 . S
C352 H416 0.960 . S
C352 H417 0.959 . S
C353 C352 1.517 . S
C353 O401 1.468 . S
C353 H414 0.980 . S
C354 C355 1.349 . S
C354 C359 1.367 . S
C354 O401 1.408 . S
C355 C354 1.349 . S
C355 C356 1.407 . S
C355 H418 0.930 . S
C356 C355 1.407 . S
C356 C357 1.449 . S
C356 C360 1.535 . S
C357 C356 1.449 . S
C357 C358 1.384 . S
C357 C382 1.553 1_655 S
C358 C357 1.384 . S
C358 C359 1.364 . S
C358 C361 1.450 . S
C359 C354 1.367 . S
C359 C358 1.364 . S
C359 H419 0.931 . S
C360 C356 1.535 . S
C360 H420 0.959 1_655 S
C360 H421 0.969 . S
C360 H422 0.959 . S
C361 C358 1.450 . S
C361 H423 0.960 . S
C361 H424 0.960 1_655 S
C361 H425 0.960 . S
C362 C363 1.309 . S
C362 C367 1.304 . S
C362 O400 1.435 . S
C363 C362 1.309 . S
C363 C364 1.476 . S
C363 H427 0.930 . S
C364 C363 1.476 . S
C364 C365 1.400 . S
C364 C368 1.567 . S
C365 C364 1.400 . S
C365 C366 1.373 . S
C365 C387 1.432 . S
C366 C365 1.373 . S
C366 C367 1.339 . S
C366 C369 1.530 . S
C367 C362 1.304 . S
C367 C366 1.339 . S
C367 H428 0.930 . S
C368 C364 1.567 . S
C368 H429 0.961 . S
C368 H430 0.960 . S
C368 H431 0.958 . S
C369 C366 1.530 . S
C369 H432 0.961 . S
C369 H433 0.960 . S
C369 H434 0.960 . S
C370 C371 1.530 . S
C370 H436 0.961 . S
C370 H437 0.961 . S
C370 H438 0.959 . S
C371 C370 1.530 . S
C371 O399 1.412 . S
C371 H435 0.980 . S
C372 C373 1.288 . S
C372 C377 1.377 . S
C372 O399 1.393 . S
C373 C372 1.288 . S
C373 C374 1.369 . S
C373 H439 0.932 . S
C374 C373 1.369 . S
C374 C375 1.398 . S
C374 C378 1.527 . S
C375 C374 1.398 . S
C375 C376 1.380 . S
C375 C389 1.497 . S
C376 C375 1.380 . S
C376 C377 1.383 . S
C376 C379 1.603 . S
C377 C372 1.377 . S
C377 C376 1.383 . S
C377 H440 0.929 . S
C378 C374 1.527 . S
C378 H441 0.961 . S
C378 H442 0.959 1_455 S
C378 H443 0.959 . S
C379 C376 1.603 . S
C379 H444 0.960 . S
C379 H445 0.962 . S
C379 H446 0.961 . S
C380 C347 1.587 . S
C380 C381 1.360 . S
C380 C393 1.412 . S
C381 C380 1.360 . S
C381 C382 1.365 . S
C381 H447 0.929 . S
C382 C357 1.553 1_455 S
C382 C381 1.365 . S
C382 C383 1.404 1_455 S
C383 C382 1.404 1_655 S
C383 C384 1.395 . S
C383 C394 1.451 1_655 S
C384 C383 1.395 . S
C384 C385 1.322 . S
C384 H448 0.930 . S
C385 C384 1.322 . S
C385 C386 1.459 . S
C385 H449 0.929 . S
C386 C385 1.459 . S
C386 C387 1.445 . S
C386 C395 1.395 1_655 S
C387 C365 1.432 . S
C387 C386 1.445 . S
C387 C388 1.370 . S
C388 C387 1.370 . S
C388 C389 1.438 1_655 S
C388 H450 0.930 . S
C389 C375 1.497 . S
C389 C388 1.438 1_455 S
C389 C390 1.360 . S
C390 C389 1.360 . S
C390 C391 1.401 . S
C390 C395 1.446 . S
C391 C390 1.401 . S
C391 C392 1.347 . S
C391 H451 0.929 . S
C392 C391 1.347 . S
C392 C393 1.455 . S
C392 H452 0.930 . S
C393 C380 1.412 . S
C393 C392 1.455 . S
C393 C394 1.331 . S
C394 C383 1.451 1_455 S
C394 C393 1.331 . S
C394 C395 1.497 . S
C395 C386 1.395 1_455 S
C395 C390 1.446 . S
C395 C394 1.497 . S
C396 C397 1.582 . S
C396 H453 0.962 . S
C396 H454 0.959 . S
C396 H455 0.958 . S
C397 C396 1.582 . S
C397 O400 1.458 . S
C397 H426 0.980 . S
O398 C343 1.426 . S
O398 C344 1.334 . S
O399 C371 1.412 . S
O399 C372 1.393 . S
O400 C362 1.435 . S
O400 C397 1.458 . S
O401 C353 1.468 . S
O401 C354 1.408 . S
H402 C343 0.980 . S
H403 C342 0.959 . S
H404 C342 0.959 . S
H405 C342 0.960 . S
H406 C345 0.929 . S
H407 C349 0.929 . S
H408 C350 0.959 . S
H409 C350 0.961 . S
H410 C350 0.961 . S
H411 C351 0.960 . S
H412 C351 0.960 . S
H413 C351 0.961 . S
H414 C353 0.980 . S
H415 C352 0.961 . S
H416 C352 0.960 . S
H417 C352 0.959 . S
H418 C355 0.930 . S
H419 C359 0.931 . S
H420 C360 0.959 1_455 S
H421 C360 0.969 . S
H422 C360 0.959 . S
H423 C361 0.960 . S
H424 C361 0.960 1_455 S
H425 C361 0.960 . S
H426 C397 0.980 . S
H427 C363 0.930 . S
H428 C367 0.930 . S
H429 C368 0.961 . S
H430 C368 0.960 . S
H431 C368 0.958 . S
H432 C369 0.961 . S
H433 C369 0.960 . S
H434 C369 0.960 . S
H435 C371 0.980 . S
H436 C370 0.961 . S
H437 C370 0.961 . S
H438 C370 0.959 . S
H439 C373 0.932 . S
H440 C377 0.929 . S
H441 C378 0.961 . S
H442 C378 0.959 1_655 S
H443 C378 0.959 . S
H444 C379 0.960 . S
H445 C379 0.962 . S
H446 C379 0.961 . S
H447 C381 0.929 . S
H448 C384 0.930 . S
H449 C385 0.929 . S
H450 C388 0.930 . S
H451 C391 0.929 . S
H452 C392 0.930 . S
H453 C396 0.962 . S
H454 C396 0.959 . S
H455 C396 0.958 . S
C456 C457 1.560 . S
C456 H517 0.959 . S
C456 H518 0.959 . S
C456 H519 0.960 . S
C457 C456 1.560 . S
C457 O512 1.426 . S
C457 H516 0.980 . S
C458 C459 1.407 . S
C458 C463 1.418 . S
C458 O512 1.334 . S
C459 C458 1.407 . S
C459 C460 1.360 . S
C459 H520 0.929 . S
C460 C459 1.360 . S
C460 C461 1.401 . S
C460 C464 1.527 . S
C461 C460 1.401 . S
C461 C462 1.405 . S
C461 C494 1.587 . S
C462 C461 1.405 . S
C462 C463 1.332 . S
C462 C465 1.496 . S
C463 C458 1.418 . S
C463 C462 1.332 . S
C463 H521 0.929 . S
C464 C460 1.527 . S
C464 H522 0.959 . S
C464 H523 0.961 . S
C464 H524 0.961 . S
C465 C462 1.496 . S
C465 H525 0.960 . S
C465 H526 0.960 . S
C465 H527 0.961 . S
C466 C467 1.517 . S
C466 H529 0.961 . S
C466 H530 0.960 . S
C466 H531 0.959 . S
C467 C466 1.517 . S
C467 O515 1.468 . S
C467 H528 0.980 . S
C468 C469 1.349 . S
C468 C473 1.367 . S
C468 O515 1.408 . S
C469 C468 1.349 . S
C469 C470 1.407 . S
C469 H532 0.930 . S
C470 C469 1.407 . S
C470 C471 1.449 . S
C470 C474 1.535 . S
C471 C470 1.449 . S
C471 C472 1.384 . S
C471 C496 1.553 . S
C472 C471 1.384 . S
C472 C473 1.364 . S
C472 C475 1.450 . S
C473 C468 1.367 . S
C473 C472 1.364 . S
C473 H533 0.931 . S
C474 C470 1.535 . S
C474 H534 0.959 . S
C474 H535 0.961 . S
C474 H536 0.959 . S
C475 C472 1.450 . S
C475 H537 0.960 . S
C475 H538 0.960 . S
C475 H539 0.960 . S
C476 C477 1.309 . S
C476 C481 1.304 . S
C476 O514 1.435 . S
C477 C476 1.309 . S
C477 C478 1.476 . S
C477 H541 0.930 . S
C478 C477 1.476 . S
C478 C479 1.400 . S
C478 C482 1.567 . S
C479 C478 1.400 . S
C479 C480 1.373 . S
C479 C501 1.432 . S
C480 C479 1.373 . S
C480 C481 1.339 . S
C480 C483 1.530 . S
C481 C476 1.304 . S
C481 C480 1.339 . S
C481 H542 0.930 . S
C482 C478 1.567 . S
C482 H543 0.961 . S
C482 H544 0.960 . S
C482 H545 0.958 . S
C483 C480 1.530 . S
C483 H546 0.961 . S
C483 H547 0.960 . S
C483 H548 0.960 . S
C484 C485 1.530 . S
C484 H550 0.961 . S
C484 H551 0.961 . S
C484 H552 0.959 . S
C485 C484 1.530 . S
C485 O513 1.412 . S
C485 H549 0.980 . S
C486 C487 1.288 . S
C486 C491 1.377 . S
C486 O513 1.393 . S
C487 C486 1.288 . S
C487 C488 1.390 . S
C487 H553 0.932 . S
C488 C487 1.390 . S
C488 C489 1.381 1_565 S
C488 C492 1.524 1_565 S
C489 C488 1.381 1_545 S
C489 C490 1.380 1_545 S
C489 C503 1.495 . S
C490 C489 1.380 1_565 S
C490 C491 1.383 . S
C490 C493 1.603 . S
C491 C486 1.377 . S
C491 C490 1.383 . S
C491 H554 0.929 . S
C492 C488 1.524 1_545 S
C492 H555 0.961 . S
C492 H556 0.959 . S
C492 H557 0.959 . S
C493 C490 1.603 . S
C493 H558 0.960 . S
C493 H559 0.929 1_565 S
C493 H560 0.961 . S
C494 C461 1.587 . S
C494 C495 1.360 . S
C494 C507 1.412 . S
C495 C494 1.360 . S
C495 C496 1.365 1_565 S
C495 H561 0.929 . S
C496 C471 1.553 . S
C496 C495 1.365 1_545 S
C496 C497 1.404 . S
C497 C496 1.404 . S
C497 C498 1.395 . S
C497 C508 1.451 . S
C498 C497 1.395 . S
C498 C499 1.322 . S
C498 H562 0.930 . S
C499 C498 1.322 . S
C499 C500 1.459 . S
C499 H563 0.929 . S
C500 C499 1.459 . S
C500 C501 1.445 1_556 S
C500 C509 1.395 . S
C501 C479 1.432 . S
C501 C500 1.445 1_554 S
C501 C502 1.370 . S
C502 C501 1.370 . S
C502 C503 1.438 . S
C502 H564 0.930 . S
C503 C489 1.495 . S
C503 C502 1.438 . S
C503 C504 1.360 . S
C504 C503 1.360 . S
C504 C505 1.401 1_545 S
C504 C509 1.446 1_554 S
C505 C504 1.401 1_565 S
C505 C506 1.347 1_554 S
C505 H565 0.929 . S
C506 C505 1.347 1_556 S
C506 C507 1.455 . S
C506 H566 0.930 . S
C507 C494 1.412 . S
C507 C506 1.455 . S
C507 C508 1.331 1_565 S
C508 C497 1.451 . S
C508 C507 1.331 1_545 S
C508 C509 1.497 . S
C509 C500 1.395 . S
C509 C504 1.446 1_556 S
C509 C508 1.497 . S
C510 C511 1.582 . S
C510 H567 0.962 . S
C510 H568 0.959 . S
C510 H569 0.958 . S
C511 C510 1.582 . S
C511 O514 1.458 . S
C511 H540 0.980 . S
O512 C457 1.426 . S
O512 C458 1.334 . S
O513 C485 1.412 . S
O513 C486 1.393 . S
O514 C476 1.435 . S
O514 C511 1.458 . S
O515 C467 1.468 . S
O515 C468 1.408 . S
H516 C457 0.980 . S
H517 C456 0.959 . S
H518 C456 0.959 . S
H519 C456 0.960 . S
H520 C459 0.929 . S
H521 C463 0.929 . S
H522 C464 0.959 . S
H523 C464 0.961 . S
H524 C464 0.961 . S
H525 C465 0.960 . S
H526 C465 0.960 . S
H527 C465 0.961 . S
H528 C467 0.980 . S
H529 C466 0.961 . S
H530 C466 0.960 . S
H531 C466 0.959 . S
H532 C469 0.930 . S
H533 C473 0.931 . S
H534 C474 0.959 . S
H535 C474 0.961 . S
H536 C474 0.959 . S
H537 C475 0.960 . S
H538 C475 0.960 . S
H539 C475 0.960 . S
H540 C511 0.980 . S
H541 C477 0.930 . S
H542 C481 0.930 . S
H543 C482 0.961 . S
H544 C482 0.960 . S
H545 C482 0.958 . S
H546 C483 0.961 . S
H547 C483 0.960 . S
H548 C483 0.960 . S
H549 C485 0.980 . S
H550 C484 0.961 . S
H551 C484 0.961 . S
H552 C484 0.959 . S
H553 C487 0.932 . S
H554 C491 0.929 . S
H555 C492 0.961 . S
H556 C492 0.959 . S
H557 C492 0.959 . S
H558 C493 0.960 . S
H559 C493 0.929 1_545 S
H560 C493 0.961 . S
H561 C495 0.929 . S
H562 C498 0.930 . S
H563 C499 0.929 . S
H564 C502 0.930 . S
H565 C505 0.929 . S
H566 C506 0.930 . S
H567 C510 0.962 . S
H568 C510 0.959 . S
H569 C510 0.958 . S
C570 C571 1.560 . S
C570 H631 0.959 . S
C570 H632 0.959 . S
C570 H633 0.960 . S
C571 C570 1.560 . S
C571 O626 1.426 . S
C571 H630 0.980 . S
C572 C573 1.407 . S
C572 C577 1.418 . S
C572 O626 1.334 . S
C573 C572 1.407 . S
C573 C574 1.360 . S
C573 H634 0.929 . S
C574 C573 1.360 . S
C574 C575 1.401 . S
C574 C578 1.527 . S
C575 C574 1.401 . S
C575 C576 1.405 . S
C575 C608 1.587 . S
C576 C575 1.405 . S
C576 C577 1.332 . S
C576 C579 1.496 . S
C577 C572 1.418 . S
C577 C576 1.332 . S
C577 H635 0.929 . S
C578 C574 1.527 . S
C578 H636 0.959 . S
C578 H637 0.961 . S
C578 H638 0.961 . S
C579 C576 1.496 . S
C579 H639 0.960 . S
C579 H640 0.960 . S
C579 H641 0.961 . S
C580 C581 1.517 . S
C580 H643 0.961 . S
C580 H644 0.960 . S
C580 H645 0.959 . S
C581 C580 1.517 . S
C581 O629 1.468 . S
C581 H642 0.980 . S
C582 C583 1.349 . S
C582 C587 1.367 . S
C582 O629 1.408 . S
C583 C582 1.349 . S
C583 C584 1.407 . S
C583 H646 0.930 . S
C584 C583 1.407 . S
C584 C585 1.449 . S
C584 C588 1.535 . S
C585 C584 1.449 . S
C585 C586 1.384 . S
C585 C610 1.553 . S
C586 C585 1.384 . S
C586 C587 1.364 . S
C586 C589 1.450 . S
C587 C582 1.367 . S
C587 C586 1.364 . S
C587 H647 0.931 . S
C588 C584 1.535 . S
C588 H648 0.959 . S
C588 H649 0.961 . S
C588 H650 0.959 . S
C589 C586 1.450 . S
C589 H651 0.960 . S
C589 H652 0.960 . S
C589 H653 0.960 . S
C590 C591 1.309 . S
C590 C595 1.304 . S
C590 O628 1.435 . S
C591 C590 1.309 . S
C591 C592 1.476 . S
C591 H655 0.930 . S
C592 C591 1.476 . S
C592 C593 1.400 . S
C592 C596 1.567 . S
C593 C592 1.400 . S
C593 C594 1.373 . S
C593 C615 1.432 . S
C594 C593 1.373 . S
C594 C595 1.339 . S
C594 C597 1.530 . S
C595 C590 1.304 . S
C595 C594 1.339 . S
C595 H656 0.930 . S
C596 C592 1.567 . S
C596 H657 0.961 . S
C596 H658 0.960 . S
C596 H659 0.958 . S
C597 C594 1.530 . S
C597 H660 0.961 . S
C597 H661 0.960 . S
C597 H662 0.960 . S
C598 C599 1.530 . S
C598 H664 0.961 . S
C598 H665 0.961 . S
C598 H666 0.959 . S
C599 C598 1.530 . S
C599 O627 1.412 . S
C599 H663 0.980 . S
C600 C601 1.288 . S
C600 C605 1.377 . S
C600 O627 1.393 . S
C601 C600 1.288 . S
C601 C602 1.369 . S
C601 H667 0.932 . S
C602 C601 1.369 . S
C602 C603 1.398 . S
C602 C606 1.527 . S
C603 C602 1.398 . S
C603 C604 1.380 . S
C603 C617 1.497 . S
C604 C603 1.380 . S
C604 C605 1.383 . S
C604 C607 1.603 . S
C605 C600 1.377 . S
C605 C604 1.383 . S
C605 H668 0.929 . S
C606 C602 1.527 . S
C606 H669 0.961 . S
C606 H670 0.959 . S
C606 H671 0.959 . S
C607 C604 1.603 . S
C607 H672 0.960 . S
C607 H673 0.962 . S
C607 H674 0.961 . S
C608 C575 1.587 . S
C608 C609 1.360 . S
C608 C621 1.412 . S
C609 C608 1.360 . S
C609 C610 1.365 . S
C609 H675 0.929 . S
C610 C585 1.553 . S
C610 C609 1.365 . S
C610 C611 1.404 . S
C611 C610 1.404 . S
C611 C612 1.395 . S
C611 C622 1.451 . S
C612 C611 1.395 . S
C612 C613 1.322 . S
C612 H676 0.930 . S
C613 C612 1.322 . S
C613 C614 1.459 . S
C613 H677 0.929 . S
C614 C613 1.459 . S
C614 C615 1.445 . S
C614 C623 1.395 . S
C615 C593 1.432 . S
C615 C614 1.445 . S
C615 C616 1.370 . S
C616 C615 1.370 . S
C616 C617 1.438 . S
C616 H678 0.930 . S
C617 C603 1.497 . S
C617 C616 1.438 . S
C617 C618 1.360 . S
C618 C617 1.360 . S
C618 C619 1.401 . S
C618 C623 1.446 . S
C619 C618 1.401 . S
C619 C620 1.347 . S
C619 H679 0.929 . S
C620 C619 1.347 . S
C620 C621 1.455 . S
C620 H680 0.930 . S
C621 C608 1.412 . S
C621 C620 1.455 . S
C621 C622 1.331 . S
C622 C611 1.451 . S
C622 C621 1.331 . S
C622 C623 1.497 . S
C623 C614 1.395 . S
C623 C618 1.446 . S
C623 C622 1.497 . S
C624 C625 1.582 . S
C624 H681 0.962 . S
C624 H682 0.959 . S
C624 H683 0.958 . S
C625 C624 1.582 . S
C625 O628 1.458 . S
C625 H654 0.980 . S
O626 C571 1.426 . S
O626 C572 1.334 . S
O627 C599 1.412 . S
O627 C600 1.393 . S
O628 C590 1.435 . S
O628 C625 1.458 . S
O629 C581 1.468 . S
O629 C582 1.408 . S
H630 C571 0.980 . S
H631 C570 0.959 . S
H632 C570 0.959 . S
H633 C570 0.960 . S
H634 C573 0.929 . S
H635 C577 0.929 . S
H636 C578 0.959 . S
H637 C578 0.961 . S
H638 C578 0.961 . S
H639 C579 0.960 . S
H640 C579 0.960 . S
H641 C579 0.961 . S
H642 C581 0.980 . S
H643 C580 0.961 . S
H644 C580 0.960 . S
H645 C580 0.959 . S
H646 C583 0.930 . S
H647 C587 0.931 . S
H648 C588 0.959 . S
H649 C588 0.961 . S
H650 C588 0.959 . S
H651 C589 0.960 . S
H652 C589 0.960 . S
H653 C589 0.960 . S
H654 C625 0.980 . S
H655 C591 0.930 . S
H656 C595 0.930 . S
H657 C596 0.961 . S
H658 C596 0.960 . S
H659 C596 0.958 . S
H660 C597 0.961 . S
H661 C597 0.960 . S
H662 C597 0.960 . S
H663 C599 0.980 . S
H664 C598 0.961 . S
H665 C598 0.961 . S
H666 C598 0.959 . S
H667 C601 0.932 . S
H668 C605 0.929 . S
H669 C606 0.961 . S
H670 C606 0.959 . S
H671 C606 0.959 . S
H672 C607 0.960 . S
H673 C607 0.962 . S
H674 C607 0.961 . S
H675 C609 0.929 . S
H676 C612 0.930 . S
H677 C613 0.929 . S
H678 C616 0.930 . S
H679 C619 0.929 . S
H680 C620 0.930 . S
H681 C624 0.962 . S
H682 C624 0.959 . S
H683 C624 0.958 . S
C684 O685 1.160 . S
C684 O691 1.185 . S
O685 C684 1.160 . S
O686 Zn687 1.899 . S
O686 C694 1.284 . S
Zn687 O686 1.899 . S
Zn687 O688 2.032 . S
Zn687 O691 2.086 . S
Zn687 O696 1.977 . S
O688 Zn687 2.032 . S
O688 C692 1.278 . S
C689 O690 1.203 . S
C689 O696 1.267 . S
O690 C689 1.203 . S
O691 C684 1.185 . S
O691 Zn687 2.086 . S
C692 O688 1.278 . S
C692 O693 1.211 . S
O693 C692 1.211 . S
C694 O686 1.284 . S
C694 O695 1.273 . S
O695 C694 1.273 . S
O696 Zn687 1.977 . S
O696 C689 1.267 . S
C697 O698 1.160 . S
C697 O704 1.185 . S
O698 C697 1.160 . S
O699 Zn700 1.899 . S
O699 C707 1.284 . S
Zn700 O699 1.899 . S
Zn700 O701 2.032 . S
Zn700 O704 2.086 . S
Zn700 O709 1.977 . S
O701 Zn700 2.032 . S
O701 C705 1.278 . S
C702 O703 1.203 . S
C702 O709 1.267 . S
O703 C702 1.203 . S
O704 C697 1.185 . S
O704 Zn700 2.086 . S
C705 O701 1.278 . S
C705 O706 1.211 . S
O706 C705 1.211 . S
C707 O699 1.284 . S
C707 O708 1.273 . S
O708 C707 1.273 . S
O709 Zn700 1.977 . S
O709 C702 1.267 . S
C710 O711 1.160 . S
C710 O717 1.185 . S
O711 C710 1.160 . S
O712 Zn713 1.899 . S
O712 C720 1.284 . S
Zn713 O712 1.899 . S
Zn713 O714 2.032 . S
Zn713 O717 2.086 . S
Zn713 O722 1.977 . S
O714 Zn713 2.032 . S
O714 C718 1.278 . S
C715 O716 1.203 . S
C715 O722 1.267 . S
O716 C715 1.203 . S
O717 C710 1.185 . S
O717 Zn713 2.086 . S
C718 O714 1.278 . S
C718 O719 1.211 . S
O719 C718 1.211 . S
C720 O712 1.284 . S
C720 O721 1.273 . S
O721 C720 1.273 . S
O722 Zn713 1.977 . S
O722 C715 1.267 . S
C723 O724 1.160 . S
C723 O730 1.185 . S
O724 C723 1.160 . S
O725 Zn726 1.899 . S
O725 C733 1.284 . S
Zn726 O725 1.899 . S
Zn726 O727 2.032 . S
Zn726 O730 2.086 . S
Zn726 O735 1.977 . S
O727 Zn726 2.032 . S
O727 C731 1.278 . S
C728 O729 1.203 . S
C728 O735 1.267 . S
O729 C728 1.203 . S
O730 C723 1.185 . S
O730 Zn726 2.086 . S
C731 O727 1.278 . S
C731 O732 1.211 . S
O732 C731 1.211 . S
C733 O725 1.284 . S
C733 O734 1.273 . S
O734 C733 1.273 . S
O735 Zn726 1.977 . S
O735 C728 1.267 . S
C736 O737 1.160 . S
C736 O743 1.185 . S
O737 C736 1.160 . S
O738 Zn739 1.899 . S
O738 C746 1.284 . S
Zn739 O738 1.899 . S
Zn739 O740 2.032 . S
Zn739 O743 2.086 . S
Zn739 O748 1.977 . S
O740 Zn739 2.032 . S
O740 C744 1.278 . S
C741 O742 1.203 . S
C741 O748 1.267 . S
O742 C741 1.203 . S
O743 C736 1.185 . S
O743 Zn739 2.086 . S
C744 O740 1.278 . S
C744 O745 1.211 . S
O745 C744 1.211 . S
C746 O738 1.284 . S
C746 O747 1.273 . S
O747 C746 1.273 . S
O748 Zn739 1.977 . S
O748 C741 1.267 . S
C749 O750 1.160 . S
C749 O756 1.185 . S
O750 C749 1.160 . S
O751 Zn752 1.899 . S
O751 C759 1.284 . S
Zn752 O751 1.899 . S
Zn752 O753 2.032 . S
Zn752 O756 2.086 . S
Zn752 O761 1.977 . S
O753 Zn752 2.032 . S
O753 C757 1.278 . S
C754 O755 1.203 . S
C754 O761 1.267 . S
O755 C754 1.203 . S
O756 C749 1.185 . S
O756 Zn752 2.086 . S
C757 O753 1.278 . S
C757 O758 1.211 . S
O758 C757 1.211 . S
C759 O751 1.284 . S
C759 O760 1.273 . S
O760 C759 1.273 . S
O761 Zn752 1.977 . S
O761 C754 1.267 . S
C762 C763 1.349 . S
C762 C764 1.327 . S
C762 H787 0.950 . S
C763 C762 1.349 . S
C763 C779 1.349 . S
C764 C762 1.327 . S
C764 C783 1.429 . S
C764 H788 0.950 . S
C765 C782 1.574 . S
C765 C784 1.368 . S
C765 H789 0.949 . S
H766 C770 0.949 . S
C767 C768 1.349 . S
C767 C769 1.327 . S
C767 H790 0.950 . S
C768 C767 1.349 . S
C768 C780 1.349 . S
C769 C767 1.327 . S
C769 C785 1.429 . S
C769 H791 0.950 . S
C770 H766 0.949 . S
C770 C778 1.574 . S
C770 C786 1.368 . S
H771 C779 0.950 . S
H772 C777 0.950 . S
H773 C778 0.949 . S
H774 C780 0.950 . S
H775 C781 0.950 . S
H776 C782 0.949 . S
C777 H772 0.950 . S
C777 C779 1.327 . S
C777 C783 1.429 . S
C778 C770 1.574 . S
C778 H773 0.949 . S
C778 C784 1.368 . S
C779 C763 1.349 . S
C779 H771 0.950 . S
C779 C777 1.327 . S
C780 C768 1.349 . S
C780 H774 0.950 . S
C780 C781 1.327 . S
C781 H775 0.950 . S
C781 C780 1.327 . S
C781 C785 1.429 . S
C782 C765 1.574 . S
C782 H776 0.949 . S
C782 C786 1.368 . S
C783 C764 1.429 . S
C783 C777 1.429 . S
C783 C784 1.523 . S
C784 C765 1.368 . S
C784 C778 1.368 . S
C784 C783 1.523 . S
C785 C769 1.429 . S
C785 C781 1.429 . S
C785 C786 1.523 . S
C786 C770 1.368 . S
C786 C782 1.368 . S
C786 C785 1.523 . S
H787 C762 0.950 . S
H788 C764 0.950 . S
H789 C765 0.949 . S
H790 C767 0.950 . S
H791 C769 0.950 . S
C792 C793 1.349 . S
C792 C794 1.327 . S
C792 H817 0.950 . S
C793 C792 1.349 . S
C793 C809 1.349 . S
C794 C792 1.327 . S
C794 C813 1.429 . S
C794 H818 0.950 . S
C795 C812 1.574 . S
C795 C814 1.368 . S
C795 H819 0.949 . S
H796 C800 0.949 . S
C797 C798 1.349 . S
C797 C799 1.327 . S
C797 H820 0.950 . S
C798 C797 1.349 . S
C798 C810 1.349 . S
C799 C797 1.327 . S
C799 C815 1.429 . S
C799 H821 0.950 . S
C800 H796 0.949 . S
C800 C808 1.574 . S
C800 C816 1.368 . S
H801 C809 0.950 . S
H802 C807 0.950 . S
H803 C808 0.949 . S
H804 C810 0.950 . S
H805 C811 0.950 . S
H806 C812 0.949 . S
C807 H802 0.950 . S
C807 C809 1.327 . S
C807 C813 1.429 . S
C808 C800 1.574 . S
C808 H803 0.949 . S
C808 C814 1.368 . S
C809 C793 1.349 . S
C809 H801 0.950 . S
C809 C807 1.327 . S
C810 C798 1.349 . S
C810 H804 0.950 . S
C810 C811 1.327 . S
C811 H805 0.950 . S
C811 C810 1.327 . S
C811 C815 1.429 . S
C812 C795 1.574 . S
C812 H806 0.949 . S
C812 C816 1.368 . S
C813 C794 1.429 . S
C813 C807 1.429 . S
C813 C814 1.523 . S
C814 C795 1.368 . S
C814 C808 1.368 . S
C814 C813 1.523 . S
C815 C799 1.429 . S
C815 C811 1.429 . S
C815 C816 1.523 . S
C816 C800 1.368 . S
C816 C812 1.368 . S
C816 C815 1.523 . S
H817 C792 0.950 . S
H818 C794 0.950 . S
H819 C795 0.949 . S
H820 C797 0.950 . S
H821 C799 0.950 . S
C822 C823 1.349 . S
C822 C824 1.327 . S
C822 H847 0.950 . S
C823 C822 1.349 . S
C823 C839 1.349 . S
C824 C822 1.327 . S
C824 C843 1.429 . S
C824 H848 0.950 . S
C825 C842 1.574 . S
C825 C844 1.368 . S
C825 H849 0.949 . S
H826 C830 0.949 . S
C827 C828 1.349 . S
C827 C829 1.327 . S
C827 H850 0.950 . S
C828 C827 1.349 . S
C828 C840 1.349 . S
C829 C827 1.327 . S
C829 C845 1.429 . S
C829 H851 0.950 . S
C830 H826 0.949 . S
C830 C838 1.574 . S
C830 C846 1.368 . S
H831 C839 0.950 . S
H832 C837 0.950 . S
H833 C838 0.949 . S
H834 C840 0.950 . S
H835 C841 0.950 . S
H836 C842 0.949 . S
C837 H832 0.950 . S
C837 C839 1.327 . S
C837 C843 1.429 . S
C838 C830 1.574 . S
C838 H833 0.949 . S
C838 C844 1.368 . S
C839 C823 1.349 . S
C839 H831 0.950 . S
C839 C837 1.327 . S
C840 C828 1.349 . S
C840 H834 0.950 . S
C840 C841 1.327 . S
C841 H835 0.950 . S
C841 C840 1.327 . S
C841 C845 1.429 . S
C842 C825 1.574 . S
C842 H836 0.949 . S
C842 C846 1.368 . S
C843 C824 1.429 . S
C843 C837 1.429 . S
C843 C844 1.523 . S
C844 C825 1.368 . S
C844 C838 1.368 . S
C844 C843 1.523 . S
C845 C829 1.429 . S
C845 C841 1.429 . S
C845 C846 1.523 . S
C846 C830 1.368 . S
C846 C842 1.368 . S
C846 C845 1.523 . S
H847 C822 0.950 . S
H848 C824 0.950 . S
H849 C825 0.949 . S
H850 C827 0.950 . S
H851 C829 0.950 . S
C852 C853 1.349 . S
C852 C854 1.327 . S
C852 H877 0.950 . S
C853 C852 1.349 . S
C853 C869 1.349 . S
C854 C852 1.327 . S
C854 C873 1.429 . S
C854 H878 0.950 . S
C855 C872 1.574 . S
C855 C874 1.368 . S
C855 H879 0.949 . S
H856 C860 0.949 . S
C857 C858 1.349 . S
C857 C859 1.327 . S
C857 H880 0.950 . S
C858 C857 1.349 . S
C858 C870 1.349 . S
C859 C857 1.327 . S
C859 C875 1.429 . S
C859 H881 0.950 . S
C860 H856 0.949 . S
C860 C868 1.574 . S
C860 C876 1.368 . S
H861 C869 0.950 . S
H862 C867 0.950 . S
H863 C868 0.949 . S
H864 C870 0.950 . S
H865 C871 0.950 . S
H866 C872 0.949 . S
C867 H862 0.950 . S
C867 C869 1.327 . S
C867 C873 1.429 . S
C868 C860 1.574 . S
C868 H863 0.949 . S
C868 C874 1.368 . S
C869 C853 1.349 . S
C869 H861 0.950 . S
C869 C867 1.327 . S
C870 C858 1.349 . S
C870 H864 0.950 . S
C870 C871 1.327 . S
C871 H865 0.950 . S
C871 C870 1.327 . S
C871 C875 1.429 . S
C872 C855 1.574 . S
C872 H866 0.949 . S
C872 C876 1.368 . S
C873 C854 1.429 . S
C873 C867 1.429 . S
C873 C874 1.523 . S
C874 C855 1.368 . S
C874 C868 1.368 . S
C874 C873 1.523 . S
C875 C859 1.429 . S
C875 C871 1.429 . S
C875 C876 1.523 . S
C876 C860 1.368 . S
C876 C872 1.368 . S
C876 C875 1.523 . S
H877 C852 0.950 . S
H878 C854 0.950 . S
H879 C855 0.949 . S
H880 C857 0.950 . S
H881 C859 0.950 . S
C882 C883 1.349 . S
C882 C884 1.327 . S
C882 H907 0.950 . S
C883 C882 1.349 . S
C883 C899 1.349 . S
C884 C882 1.327 . S
C884 C903 1.429 . S
C884 H908 0.950 . S
C885 C902 1.574 . S
C885 C904 1.368 . S
C885 H909 0.949 . S
H886 C890 0.949 . S
C887 C888 1.349 . S
C887 C889 1.327 . S
C887 H910 0.950 . S
C888 C887 1.349 . S
C888 C900 1.349 . S
C889 C887 1.327 . S
C889 C905 1.429 . S
C889 H911 0.950 . S
C890 H886 0.949 . S
C890 C898 1.574 . S
C890 C906 1.368 . S
H891 C899 0.950 . S
H892 C897 0.950 . S
H893 C898 0.949 . S
H894 C900 0.950 . S
H895 C901 0.950 . S
H896 C902 0.949 . S
C897 H892 0.950 . S
C897 C899 1.327 . S
C897 C903 1.429 . S
C898 C890 1.574 . S
C898 H893 0.949 . S
C898 C904 1.368 . S
C899 C883 1.349 . S
C899 H891 0.950 . S
C899 C897 1.327 . S
C900 C888 1.349 . S
C900 H894 0.950 . S
C900 C901 1.327 . S
C901 H895 0.950 . S
C901 C900 1.327 . S
C901 C905 1.429 . S
C902 C885 1.574 . S
C902 H896 0.949 . S
C902 C906 1.368 . S
C903 C884 1.429 . S
C903 C897 1.429 . S
C903 C904 1.523 . S
C904 C885 1.368 . S
C904 C898 1.368 . S
C904 C903 1.523 . S
C905 C889 1.429 . S
C905 C901 1.429 . S
C905 C906 1.523 . S
C906 C890 1.368 . S
C906 C902 1.368 . S
C906 C905 1.523 . S
H907 C882 0.950 . S
H908 C884 0.950 . S
H909 C885 0.949 . S
H910 C887 0.950 . S
H911 C889 0.950 . S
C912 C913 1.349 . S
C912 C914 1.327 . S
C912 H937 0.950 . S
C913 C912 1.349 . S
C913 C929 1.349 . S
C914 C912 1.327 . S
C914 C933 1.429 . S
C914 H938 0.950 . S
C915 C932 1.574 . S
C915 C934 1.368 . S
C915 H939 0.949 . S
H916 C920 0.949 . S
C917 C918 1.349 . S
C917 C919 1.327 . S
C917 H940 0.950 . S
C918 C917 1.349 . S
C918 C930 1.349 . S
C919 C917 1.327 . S
C919 C935 1.429 . S
C919 H941 0.950 . S
C920 H916 0.949 . S
C920 C928 1.574 . S
C920 C936 1.368 . S
H921 C929 0.950 . S
H922 C927 0.950 . S
H923 C928 0.949 . S
H924 C930 0.950 . S
H925 C931 0.950 . S
H926 C932 0.949 . S
C927 H922 0.950 . S
C927 C929 1.327 . S
C927 C933 1.429 . S
C928 C920 1.574 . S
C928 H923 0.949 . S
C928 C934 1.368 . S
C929 C913 1.349 . S
C929 H921 0.950 . S
C929 C927 1.327 . S
C930 C918 1.349 . S
C930 H924 0.950 . S
C930 C931 1.327 . S
C931 H925 0.950 . S
C931 C930 1.327 . S
C931 C935 1.429 . S
C932 C915 1.574 . S
C932 H926 0.949 . S
C932 C936 1.368 . S
C933 C914 1.429 . S
C933 C927 1.429 . S
C933 C934 1.523 . S
C934 C915 1.368 . S
C934 C928 1.368 . S
C934 C933 1.523 . S
C935 C919 1.429 . S
C935 C931 1.429 . S
C935 C936 1.523 . S
C936 C920 1.368 . S
C936 C932 1.368 . S
C936 C935 1.523 . S
H937 C912 0.950 . S
H938 C914 0.950 . S
H939 C915 0.949 . S
H940 C917 0.950 . S
H941 C919 0.950 . S
C942 C943 1.349 . S
C942 C944 1.327 . S
C942 H967 0.950 . S
C943 C942 1.349 . S
C943 C959 1.349 . S
C944 C942 1.327 . S
C944 C963 1.429 . S
C944 H968 0.950 . S
C945 C962 1.574 . S
C945 C964 1.368 . S
C945 H969 0.949 . S
H946 C950 0.949 . S
C947 C948 1.349 . S
C947 C949 1.327 . S
C947 H970 0.950 . S
C948 C947 1.349 . S
C948 C960 1.349 . S
C949 C947 1.327 . S
C949 C965 1.429 . S
C949 H971 0.950 . S
C950 H946 0.949 . S
C950 C958 1.574 . S
C950 C966 1.368 . S
H951 C959 0.950 . S
H952 C957 0.950 . S
H953 C958 0.949 . S
H954 C960 0.950 . S
H955 C961 0.950 . S
H956 C962 0.949 . S
C957 H952 0.950 . S
C957 C959 1.327 . S
C957 C963 1.429 . S
C958 C950 1.574 . S
C958 H953 0.949 . S
C958 C964 1.368 . S
C959 C943 1.349 . S
C959 H951 0.950 . S
C959 C957 1.327 . S
C960 C948 1.349 . S
C960 H954 0.950 . S
C960 C961 1.327 . S
C961 H955 0.950 . S
C961 C960 1.327 . S
C961 C965 1.429 . S
C962 C945 1.574 . S
C962 H956 0.949 . S
C962 C966 1.368 . S
C963 C944 1.429 . S
C963 C957 1.429 . S
C963 C964 1.523 . S
C964 C945 1.368 . S
C964 C958 1.368 . S
C964 C963 1.523 . S
C965 C949 1.429 . S
C965 C961 1.429 . S
C965 C966 1.523 . S
C966 C950 1.368 . S
C966 C962 1.368 . S
C966 C965 1.523 . S
H967 C942 0.950 . S
H968 C944 0.950 . S
H969 C945 0.949 . S
H970 C947 0.950 . S
H971 C949 0.950 . S
C972 C973 1.349 . S
C972 C974 1.327 . S
C972 H997 0.950 . S
C973 C972 1.349 . S
C973 C989 1.349 . S
C974 C972 1.327 . S
C974 C993 1.429 . S
C974 H998 0.950 . S
C975 C992 1.574 . S
C975 C994 1.368 . S
C975 H999 0.949 . S
H976 C980 0.949 . S
C977 C978 1.349 . S
C977 C979 1.327 . S
C977 H1000 0.950 . S
C978 C977 1.349 . S
C978 C990 1.349 . S
C979 C977 1.327 . S
C979 C995 1.429 . S
C979 H1001 0.950 . S
C980 H976 0.949 . S
C980 C988 1.574 . S
C980 C996 1.368 . S
H981 C989 0.950 . S
H982 C987 0.950 . S
H983 C988 0.949 . S
H984 C990 0.950 . S
H985 C991 0.950 . S
H986 C992 0.949 . S
C987 H982 0.950 . S
C987 C989 1.327 . S
C987 C993 1.429 . S
C988 C980 1.574 . S
C988 H983 0.949 . S
C988 C994 1.368 . S
C989 C973 1.349 . S
C989 H981 0.950 . S
C989 C987 1.327 . S
C990 C978 1.349 . S
C990 H984 0.950 . S
C990 C991 1.327 . S
C991 H985 0.950 . S
C991 C990 1.327 . S
C991 C995 1.429 . S
C992 C975 1.574 . S
C992 H986 0.949 . S
C992 C996 1.368 . S
C993 C974 1.429 . S
C993 C987 1.429 . S
C993 C994 1.523 . S
C994 C975 1.368 . S
C994 C988 1.368 . S
C994 C993 1.523 . S
C995 C979 1.429 . S
C995 C991 1.429 . S
C995 C996 1.523 . S
C996 C980 1.368 . S
C996 C992 1.368 . S
C996 C995 1.523 . S
H997 C972 0.950 . S
H998 C974 0.950 . S
H999 C975 0.949 . S
H1000 C977 0.950 . S
H1001 C979 0.950 . S
C1002 C1003 1.349 . S
C1002 C1004 1.327 . S
C1002 H1027 0.950 . S
C1003 C1002 1.349 . S
C1003 C1019 1.349 . S
C1004 C1002 1.327 . S
C1004 C1023 1.429 . S
C1004 H1028 0.950 . S
C1005 C1022 1.574 . S
C1005 C1024 1.368 . S
C1005 H1029 0.949 . S
H1006 C1010 0.949 . S
C1007 C1008 1.349 . S
C1007 C1009 1.327 . S
C1007 H1030 0.950 . S
C1008 C1007 1.349 . S
C1008 C1020 1.349 . S
C1009 C1007 1.327 . S
C1009 C1025 1.429 . S
C1009 H1031 0.950 . S
C1010 H1006 0.949 . S
C1010 C1018 1.574 . S
C1010 C1026 1.368 . S
H1011 C1019 0.950 . S
H1012 C1017 0.950 . S
H1013 C1018 0.949 . S
H1014 C1020 0.950 . S
H1015 C1021 0.950 . S
H1016 C1022 0.949 . S
C1017 H1012 0.950 . S
C1017 C1019 1.327 . S
C1017 C1023 1.429 . S
C1018 C1010 1.574 . S
C1018 H1013 0.949 . S
C1018 C1024 1.368 . S
C1019 C1003 1.349 . S
C1019 H1011 0.950 . S
C1019 C1017 1.327 . S
C1020 C1008 1.349 . S
C1020 H1014 0.950 . S
C1020 C1021 1.327 . S
C1021 H1015 0.950 . S
C1021 C1020 1.327 . S
C1021 C1025 1.429 . S
C1022 C1005 1.574 . S
C1022 H1016 0.949 . S
C1022 C1026 1.368 . S
C1023 C1004 1.429 . S
C1023 C1017 1.429 . S
C1023 C1024 1.523 . S
C1024 C1005 1.368 . S
C1024 C1018 1.368 . S
C1024 C1023 1.523 . S
C1025 C1009 1.429 . S
C1025 C1021 1.429 . S
C1025 C1026 1.523 . S
C1026 C1010 1.368 . S
C1026 C1022 1.368 . S
C1026 C1025 1.523 . S
H1027 C1002 0.950 . S
H1028 C1004 0.950 . S
H1029 C1005 0.949 . S
H1030 C1007 0.950 . S
H1031 C1009 0.950 . S
C1032 C1033 1.349 . S
C1032 C1034 1.327 . S
C1032 H1057 0.950 . S
C1033 C1032 1.349 . S
C1033 C1049 1.349 . S
C1034 C1032 1.327 . S
C1034 C1053 1.429 . S
C1034 H1058 0.950 . S
C1035 C1052 1.574 . S
C1035 C1054 1.368 . S
C1035 H1059 0.949 . S
H1036 C1040 0.949 . S
C1037 C1038 1.349 . S
C1037 C1039 1.327 . S
C1037 H1060 0.950 . S
C1038 C1037 1.349 . S
C1038 C1050 1.349 . S
C1039 C1037 1.327 . S
C1039 C1055 1.429 . S
C1039 H1061 0.950 . S
C1040 H1036 0.949 . S
C1040 C1048 1.574 . S
C1040 C1056 1.368 . S
H1041 C1049 0.950 . S
H1042 C1047 0.950 . S
H1043 C1048 0.949 . S
H1044 C1050 0.950 . S
H1045 C1051 0.950 . S
H1046 C1052 0.949 . S
C1047 H1042 0.950 . S
C1047 C1049 1.327 . S
C1047 C1053 1.429 . S
C1048 C1040 1.574 . S
C1048 H1043 0.949 . S
C1048 C1054 1.368 . S
C1049 C1033 1.349 . S
C1049 H1041 0.950 . S
C1049 C1047 1.327 . S
C1050 C1038 1.349 . S
C1050 H1044 0.950 . S
C1050 C1051 1.327 . S
C1051 H1045 0.950 . S
C1051 C1050 1.327 . S
C1051 C1055 1.429 . S
C1052 C1035 1.574 . S
C1052 H1046 0.949 . S
C1052 C1056 1.368 . S
C1053 C1034 1.429 . S
C1053 C1047 1.429 . S
C1053 C1054 1.523 . S
C1054 C1035 1.368 . S
C1054 C1048 1.368 . S
C1054 C1053 1.523 . S
C1055 C1039 1.429 . S
C1055 C1051 1.429 . S
C1055 C1056 1.523 . S
C1056 C1040 1.368 . S
C1056 C1052 1.368 . S
C1056 C1055 1.523 . S
H1057 C1032 0.950 . S
H1058 C1034 0.950 . S
H1059 C1035 0.949 . S
H1060 C1037 0.950 . S
H1061 C1039 0.950 . S
C1062 C1063 1.349 . S
C1062 C1064 1.327 . S
C1062 H1087 0.950 . S
C1063 C1062 1.349 . S
C1063 C1079 1.349 . S
C1064 C1062 1.327 . S
C1064 C1083 1.429 . S
C1064 H1088 0.950 . S
C1065 C1082 1.574 . S
C1065 C1084 1.368 . S
C1065 H1089 0.949 . S
H1066 C1070 0.949 . S
C1067 C1068 1.349 . S
C1067 C1069 1.327 . S
C1067 H1090 0.950 . S
C1068 C1067 1.349 . S
C1068 C1080 1.349 . S
C1069 C1067 1.327 . S
C1069 C1085 1.429 . S
C1069 H1091 0.950 . S
C1070 H1066 0.949 . S
C1070 C1078 1.574 . S
C1070 C1086 1.368 . S
H1071 C1079 0.950 . S
H1072 C1077 0.950 . S
H1073 C1078 0.949 . S
H1074 C1080 0.950 . S
H1075 C1081 0.950 . S
H1076 C1082 0.949 . S
C1077 H1072 0.950 . S
C1077 C1079 1.327 . S
C1077 C1083 1.429 . S
C1078 C1070 1.574 . S
C1078 H1073 0.949 . S
C1078 C1084 1.368 . S
C1079 C1063 1.349 . S
C1079 H1071 0.950 . S
C1079 C1077 1.327 . S
C1080 C1068 1.349 . S
C1080 H1074 0.950 . S
C1080 C1081 1.327 . S
C1081 H1075 0.950 . S
C1081 C1080 1.327 . S
C1081 C1085 1.429 . S
C1082 C1065 1.574 . S
C1082 H1076 0.949 . S
C1082 C1086 1.368 . S
C1083 C1064 1.429 . S
C1083 C1077 1.429 . S
C1083 C1084 1.523 . S
C1084 C1065 1.368 . S
C1084 C1078 1.368 . S
C1084 C1083 1.523 . S
C1085 C1069 1.429 . S
C1085 C1081 1.429 . S
C1085 C1086 1.523 . S
C1086 C1070 1.368 . S
C1086 C1082 1.368 . S
C1086 C1085 1.523 . S
H1087 C1062 0.950 . S
H1088 C1064 0.950 . S
H1089 C1065 0.949 . S
H1090 C1067 0.950 . S
H1091 C1069 0.950 . S
C1092 C1093 1.349 . S
C1092 C1094 1.327 . S
C1092 H1117 0.950 . S
C1093 C1092 1.349 . S
C1093 C1109 1.349 . S
C1094 C1092 1.327 . S
C1094 C1113 1.429 . S
C1094 H1118 0.950 . S
C1095 C1112 1.574 . S
C1095 C1114 1.368 . S
C1095 H1119 0.949 . S
H1096 C1100 0.949 . S
C1097 C1098 1.349 . S
C1097 C1099 1.327 . S
C1097 H1120 0.950 . S
C1098 C1097 1.349 . S
C1098 C1110 1.349 . S
C1099 C1097 1.327 . S
C1099 C1115 1.429 . S
C1099 H1121 0.950 . S
C1100 H1096 0.949 . S
C1100 C1108 1.574 . S
C1100 C1116 1.368 . S
H1101 C1109 0.950 . S
H1102 C1107 0.950 . S
H1103 C1108 0.949 . S
H1104 C1110 0.950 . S
H1105 C1111 0.950 . S
H1106 C1112 0.949 . S
C1107 H1102 0.950 . S
C1107 C1109 1.327 . S
C1107 C1113 1.429 . S
C1108 C1100 1.574 . S
C1108 H1103 0.949 . S
C1108 C1114 1.368 . S
C1109 C1093 1.349 . S
C1109 H1101 0.950 . S
C1109 C1107 1.327 . S
C1110 C1098 1.349 . S
C1110 H1104 0.950 . S
C1110 C1111 1.327 . S
C1111 H1105 0.950 . S
C1111 C1110 1.327 . S
C1111 C1115 1.429 . S
C1112 C1095 1.574 . S
C1112 H1106 0.949 . S
C1112 C1116 1.368 . S
C1113 C1094 1.429 . S
C1113 C1107 1.429 . S
C1113 C1114 1.523 . S
C1114 C1095 1.368 . S
C1114 C1108 1.368 . S
C1114 C1113 1.523 . S
C1115 C1099 1.429 . S
C1115 C1111 1.429 . S
C1115 C1116 1.523 . S
C1116 C1100 1.368 . S
C1116 C1112 1.368 . S
C1116 C1115 1.523 . S
H1117 C1092 0.950 . S
H1118 C1094 0.950 . S
H1119 C1095 0.949 . S
H1120 C1097 0.950 . S
H1121 C1099 0.950 . S
C1122 C1123 1.349 . S
C1122 C1124 1.327 . S
C1122 H1147 0.950 . S
C1123 C1122 1.349 . S
C1123 C1139 1.349 . S
C1124 C1122 1.327 . S
C1124 C1143 1.429 . S
C1124 H1148 0.950 . S
C1125 C1142 1.574 . S
C1125 C1144 1.368 . S
C1125 H1149 0.949 . S
H1126 C1130 0.949 . S
C1127 C1128 1.349 . S
C1127 C1129 1.327 . S
C1127 H1150 0.950 . S
C1128 C1127 1.349 . S
C1128 C1140 1.349 . S
C1129 C1127 1.327 . S
C1129 C1145 1.429 . S
C1129 H1151 0.950 . S
C1130 H1126 0.949 . S
C1130 C1138 1.574 . S
C1130 C1146 1.368 . S
H1131 C1139 0.950 . S
H1132 C1137 0.950 . S
H1133 C1138 0.949 . S
H1134 C1140 0.950 . S
H1135 C1141 0.950 . S
H1136 C1142 0.949 . S
C1137 H1132 0.950 . S
C1137 C1139 1.327 . S
C1137 C1143 1.429 . S
C1138 C1130 1.574 . S
C1138 H1133 0.949 . S
C1138 C1144 1.368 . S
C1139 C1123 1.349 . S
C1139 H1131 0.950 . S
C1139 C1137 1.327 . S
C1140 C1128 1.349 . S
C1140 H1134 0.950 . S
C1140 C1141 1.327 . S
C1141 H1135 0.950 . S
C1141 C1140 1.327 . S
C1141 C1145 1.429 . S
C1142 C1125 1.574 . S
C1142 H1136 0.949 . S
C1142 C1146 1.368 . S
C1143 C1124 1.429 . S
C1143 C1137 1.429 . S
C1143 C1144 1.523 . S
C1144 C1125 1.368 . S
C1144 C1138 1.368 . S
C1144 C1143 1.523 . S
C1145 C1129 1.429 . S
C1145 C1141 1.429 . S
C1145 C1146 1.523 . S
C1146 C1130 1.368 . S
C1146 C1142 1.368 . S
C1146 C1145 1.523 . S
H1147 C1122 0.950 . S
H1148 C1124 0.950 . S
H1149 C1125 0.949 . S
H1150 C1127 0.950 . S
H1151 C1129 0.950 . S
C1152 C1153 1.349 . S
C1152 C1154 1.327 . S
C1152 H1177 0.950 . S
C1153 C1152 1.349 . S
C1153 C1169 1.349 . S
C1154 C1152 1.327 . S
C1154 C1173 1.429 . S
C1154 H1178 0.950 . S
C1155 C1172 1.574 . S
C1155 C1174 1.368 . S
C1155 H1179 0.949 . S
H1156 C1160 0.949 . S
C1157 C1158 1.349 . S
C1157 C1159 1.327 . S
C1157 H1180 0.950 . S
C1158 C1157 1.349 . S
C1158 C1170 1.349 . S
C1159 C1157 1.327 . S
C1159 C1175 1.429 . S
C1159 H1181 0.950 . S
C1160 H1156 0.949 . S
C1160 C1168 1.574 . S
C1160 C1176 1.368 . S
H1161 C1169 0.950 . S
H1162 C1167 0.950 . S
H1163 C1168 0.949 . S
H1164 C1170 0.950 . S
H1165 C1171 0.950 . S
H1166 C1172 0.949 . S
C1167 H1162 0.950 . S
C1167 C1169 1.327 . S
C1167 C1173 1.429 . S
C1168 C1160 1.574 . S
C1168 H1163 0.949 . S
C1168 C1174 1.368 . S
C1169 C1153 1.349 . S
C1169 H1161 0.950 . S
C1169 C1167 1.327 . S
C1170 C1158 1.349 . S
C1170 H1164 0.950 . S
C1170 C1171 1.327 . S
C1171 H1165 0.950 . S
C1171 C1170 1.327 . S
C1171 C1175 1.429 . S
C1172 C1155 1.574 . S
C1172 H1166 0.949 . S
C1172 C1176 1.368 . S
C1173 C1154 1.429 . S
C1173 C1167 1.429 . S
C1173 C1174 1.523 . S
C1174 C1155 1.368 . S
C1174 C1168 1.368 . S
C1174 C1173 1.523 . S
C1175 C1159 1.429 . S
C1175 C1171 1.429 . S
C1175 C1176 1.523 . S
C1176 C1160 1.368 . S
C1176 C1172 1.368 . S
C1176 C1175 1.523 . S
H1177 C1152 0.950 . S
H1178 C1154 0.950 . S
H1179 C1155 0.949 . S
H1180 C1157 0.950 . S
H1181 C1159 0.950 . S
C1182 C1183 1.349 . S
C1182 C1184 1.327 . S
C1182 H1207 0.950 . S
C1183 C1182 1.349 . S
C1183 C1199 1.349 . S
C1184 C1182 1.327 . S
C1184 C1203 1.429 . S
C1184 H1208 0.950 . S
C1185 C1202 1.574 . S
C1185 C1204 1.368 . S
C1185 H1209 0.949 . S
H1186 C1190 0.949 . S
C1187 C1188 1.349 . S
C1187 C1189 1.327 . S
C1187 H1210 0.950 . S
C1188 C1187 1.349 . S
C1188 C1200 1.349 . S
C1189 C1187 1.327 . S
C1189 C1205 1.429 . S
C1189 H1211 0.950 . S
C1190 H1186 0.949 . S
C1190 C1198 1.574 . S
C1190 C1206 1.368 . S
H1191 C1199 0.950 . S
H1192 C1197 0.950 . S
H1193 C1198 0.949 . S
H1194 C1200 0.950 . S
H1195 C1201 0.950 . S
H1196 C1202 0.949 . S
C1197 H1192 0.950 . S
C1197 C1199 1.327 . S
C1197 C1203 1.429 . S
C1198 C1190 1.574 . S
C1198 H1193 0.949 . S
C1198 C1204 1.368 . S
C1199 C1183 1.349 . S
C1199 H1191 0.950 . S
C1199 C1197 1.327 . S
C1200 C1188 1.349 . S
C1200 H1194 0.950 . S
C1200 C1201 1.327 . S
C1201 H1195 0.950 . S
C1201 C1200 1.327 . S
C1201 C1205 1.429 . S
C1202 C1185 1.574 . S
C1202 H1196 0.949 . S
C1202 C1206 1.368 . S
C1203 C1184 1.429 . S
C1203 C1197 1.429 . S
C1203 C1204 1.523 . S
C1204 C1185 1.368 . S
C1204 C1198 1.368 . S
C1204 C1203 1.523 . S
C1205 C1189 1.429 . S
C1205 C1201 1.429 . S
C1205 C1206 1.523 . S
C1206 C1190 1.368 . S
C1206 C1202 1.368 . S
C1206 C1205 1.523 . S
H1207 C1182 0.950 . S
H1208 C1184 0.950 . S
H1209 C1185 0.949 . S
H1210 C1187 0.950 . S
H1211 C1189 0.950 . S
C1212 C1213 1.349 . S
C1212 C1214 1.327 . S
C1212 H1237 0.950 . S
C1213 C1212 1.349 . S
C1213 C1229 1.349 . S
C1214 C1212 1.327 . S
C1214 C1233 1.429 . S
C1214 H1238 0.950 . S
C1215 C1232 1.574 . S
C1215 C1234 1.368 . S
C1215 H1239 0.949 . S
H1216 C1220 0.949 . S
C1217 C1218 1.349 . S
C1217 C1219 1.320 1_554 S
C1217 H1240 0.950 . S
C1218 C1217 1.349 . S
C1218 C1230 1.349 . S
C1219 C1217 1.320 1_556 S
C1219 C1235 1.426 . S
C1219 H1241 0.956 . S
C1220 H1216 0.949 . S
C1220 C1228 1.574 . S
C1220 C1236 1.368 . S
H1221 C1229 0.950 . S
H1222 C1227 0.950 . S
H1223 C1228 0.949 . S
H1224 C1230 0.950 . S
H1225 C1231 0.950 . S
H1226 C1232 0.949 . S
C1227 H1222 0.950 . S
C1227 C1229 1.327 . S
C1227 C1233 1.429 . S
C1228 C1220 1.574 . S
C1228 H1223 0.949 . S
C1228 C1234 1.368 . S
C1229 C1213 1.349 . S
C1229 H1221 0.950 . S
C1229 C1227 1.327 . S
C1230 C1218 1.349 . S
C1230 H1224 0.950 . S
C1230 C1231 1.327 . S
C1231 H1225 0.950 . S
C1231 C1230 1.327 . S
C1231 C1235 1.366 1_554 S
C1232 C1215 1.574 . S
C1232 H1226 0.949 . S
C1232 C1236 1.368 . S
C1233 C1214 1.429 . S
C1233 C1227 1.429 . S
C1233 C1234 1.523 . S
C1234 C1215 1.368 . S
C1234 C1228 1.368 . S
C1234 C1233 1.523 . S
C1235 C1219 1.426 . S
C1235 C1231 1.366 1_556 S
C1235 C1236 1.585 . S
C1236 C1220 1.368 . S
C1236 C1232 1.368 . S
C1236 C1235 1.585 . S
H1237 C1212 0.950 . S
H1238 C1214 0.950 . S
H1239 C1215 0.949 . S
H1240 C1217 0.950 . S
H1241 C1219 0.956 . S
C1242 C1243 1.349 . S
C1242 C1244 1.327 . S
C1242 H1267 0.950 . S
C1243 C1242 1.349 . S
C1243 C1259 1.349 . S
C1244 C1242 1.327 . S
C1244 C1263 1.429 . S
C1244 H1268 0.950 . S
C1245 C1262 1.574 . S
C1245 C1264 1.368 . S
C1245 H1269 0.949 . S
H1246 C1250 0.949 . S
C1247 C1248 1.349 . S
C1247 C1249 1.327 . S
C1247 H1270 0.950 . S
C1248 C1247 1.349 . S
C1248 C1260 1.349 . S
C1249 C1247 1.327 . S
C1249 C1265 1.429 . S
C1249 H1271 0.950 . S
C1250 H1246 0.949 . S
C1250 C1258 1.574 . S
C1250 C1266 1.368 . S
H1251 C1259 0.950 . S
H1252 C1257 0.950 . S
H1253 C1258 0.949 . S
H1254 C1260 0.950 . S
H1255 C1261 0.950 . S
H1256 C1262 0.949 . S
C1257 H1252 0.950 . S
C1257 C1259 1.327 . S
C1257 C1263 1.429 . S
C1258 C1250 1.574 . S
C1258 H1253 0.949 . S
C1258 C1264 1.368 . S
C1259 C1243 1.349 . S
C1259 H1251 0.950 . S
C1259 C1257 1.327 . S
C1260 C1248 1.349 . S
C1260 H1254 0.950 . S
C1260 C1261 1.327 . S
C1261 H1255 0.950 . S
C1261 C1260 1.327 . S
C1261 C1265 1.429 . S
C1262 C1245 1.574 . S
C1262 H1256 0.949 . S
C1262 C1266 1.368 . S
C1263 C1244 1.429 . S
C1263 C1257 1.429 . S
C1263 C1264 1.523 . S
C1264 C1245 1.368 . S
C1264 C1258 1.368 . S
C1264 C1263 1.523 . S
C1265 C1249 1.429 . S
C1265 C1261 1.429 . S
C1265 C1266 1.523 . S
C1266 C1250 1.368 . S
C1266 C1262 1.368 . S
C1266 C1265 1.523 . S
H1267 C1242 0.950 . S
H1268 C1244 0.950 . S
H1269 C1245 0.949 . S
H1270 C1247 0.950 . S
H1271 C1249 0.950 . S
C1272 C1273 1.349 . S
C1272 C1274 1.327 . S
C1272 H1297 0.950 . S
C1273 C1272 1.349 . S
C1273 C1289 1.349 . S
C1274 C1272 1.327 . S
C1274 C1293 1.429 . S
C1274 H1298 0.950 . S
C1275 C1292 1.574 . S
C1275 C1294 1.368 . S
C1275 H1299 0.949 . S
H1276 C1280 0.949 . S
C1277 C1278 1.349 . S
C1277 C1279 1.327 . S
C1277 H1300 0.950 . S
C1278 C1277 1.349 . S
C1278 C1290 1.349 . S
C1279 C1277 1.327 . S
C1279 C1295 1.429 . S
C1279 H1301 0.950 . S
C1280 H1276 0.949 . S
C1280 C1288 1.574 . S
C1280 C1296 1.368 . S
H1281 C1289 0.950 . S
H1282 C1287 0.950 . S
H1283 C1288 0.949 . S
H1284 C1290 0.950 . S
H1285 C1291 0.950 . S
H1286 C1292 0.949 . S
C1287 H1282 0.950 . S
C1287 C1289 1.327 . S
C1287 C1293 1.429 . S
C1288 C1280 1.574 . S
C1288 H1283 0.949 . S
C1288 C1294 1.368 . S
C1289 C1273 1.349 . S
C1289 H1281 0.950 . S
C1289 C1287 1.327 . S
C1290 C1278 1.349 . S
C1290 H1284 0.950 . S
C1290 C1291 1.327 . S
C1291 H1285 0.950 . S
C1291 C1290 1.327 . S
C1291 C1295 1.429 . S
C1292 C1275 1.574 . S
C1292 H1286 0.949 . S
C1292 C1296 1.368 . S
C1293 C1274 1.429 . S
C1293 C1287 1.429 . S
C1293 C1294 1.523 . S
C1294 C1275 1.368 . S
C1294 C1288 1.368 . S
C1294 C1293 1.523 . S
C1295 C1279 1.429 . S
C1295 C1291 1.429 . S
C1295 C1296 1.523 . S
C1296 C1280 1.368 . S
C1296 C1292 1.368 . S
C1296 C1295 1.523 . S
H1297 C1272 0.950 . S
H1298 C1274 0.950 . S
H1299 C1275 0.949 . S
H1300 C1277 0.950 . S
H1301 C1279 0.950 . S
C1302 C1303 1.349 . S
C1302 C1304 1.327 . S
C1302 H1327 0.950 . S
C1303 C1302 1.349 . S
C1303 C1319 1.349 . S
C1304 C1302 1.327 . S
C1304 C1323 1.429 . S
C1304 H1328 0.950 . S
C1305 C1322 1.574 . S
C1305 C1324 1.368 . S
C1305 H1329 0.949 . S
H1306 C1310 0.949 . S
C1307 C1308 1.349 . S
C1307 C1309 1.327 . S
C1307 H1330 0.950 . S
C1308 C1307 1.349 . S
C1308 C1320 1.349 . S
C1309 C1307 1.327 . S
C1309 C1325 1.429 . S
C1309 H1331 0.950 . S
C1310 H1306 0.949 . S
C1310 C1318 1.574 . S
C1310 C1326 1.368 . S
H1311 C1319 0.950 . S
H1312 C1317 0.950 . S
H1313 C1318 0.949 . S
H1314 C1320 0.950 . S
H1315 C1321 0.950 . S
H1316 C1322 0.949 . S
C1317 H1312 0.950 . S
C1317 C1319 1.327 . S
C1317 C1323 1.429 . S
C1318 C1310 1.574 . S
C1318 H1313 0.949 . S
C1318 C1324 1.368 . S
C1319 C1303 1.349 . S
C1319 H1311 0.950 . S
C1319 C1317 1.327 . S
C1320 C1308 1.349 . S
C1320 H1314 0.950 . S
C1320 C1321 1.327 . S
C1321 H1315 0.950 . S
C1321 C1320 1.327 . S
C1321 C1325 1.429 . S
C1322 C1305 1.574 . S
C1322 H1316 0.949 . S
C1322 C1326 1.368 . S
C1323 C1304 1.429 . S
C1323 C1317 1.429 . S
C1323 C1324 1.523 . S
C1324 C1305 1.368 . S
C1324 C1318 1.368 . S
C1324 C1323 1.523 . S
C1325 C1309 1.429 . S
C1325 C1321 1.429 . S
C1325 C1326 1.523 . S
C1326 C1310 1.368 . S
C1326 C1322 1.368 . S
C1326 C1325 1.523 . S
H1327 C1302 0.950 . S
H1328 C1304 0.950 . S
H1329 C1305 0.949 . S
H1330 C1307 0.950 . S
H1331 C1309 0.950 . S
C1332 C1333 1.349 . S
C1332 C1334 1.327 . S
C1332 H1357 0.950 . S
C1333 C1332 1.349 . S
C1333 C1349 1.349 . S
C1334 C1332 1.327 . S
C1334 C1353 1.429 . S
C1334 H1358 0.950 . S
C1335 C1352 1.574 . S
C1335 C1354 1.368 . S
C1335 H1359 0.949 . S
H1336 C1340 0.949 . S
C1337 C1338 1.349 . S
C1337 C1339 1.327 . S
C1337 H1360 0.950 . S
C1338 C1337 1.349 . S
C1338 C1350 1.349 . S
C1339 C1337 1.327 . S
C1339 C1355 1.429 . S
C1339 H1361 0.950 . S
C1340 H1336 0.949 . S
C1340 C1348 1.574 . S
C1340 C1356 1.368 . S
H1341 C1349 0.950 . S
H1342 C1347 0.950 . S
H1343 C1348 0.949 . S
H1344 C1350 0.950 . S
H1345 C1351 0.950 . S
H1346 C1352 0.949 . S
C1347 H1342 0.950 . S
C1347 C1349 1.327 . S
C1347 C1353 1.429 . S
C1348 C1340 1.574 . S
C1348 H1343 0.949 . S
C1348 C1354 1.368 . S
C1349 C1333 1.349 . S
C1349 H1341 0.950 . S
C1349 C1347 1.327 . S
C1350 C1338 1.349 . S
C1350 H1344 0.950 . S
C1350 C1351 1.327 . S
C1351 H1345 0.950 . S
C1351 C1350 1.327 . S
C1351 C1355 1.429 . S
C1352 C1335 1.574 . S
C1352 H1346 0.949 . S
C1352 C1356 1.368 . S
C1353 C1334 1.429 . S
C1353 C1347 1.429 . S
C1353 C1354 1.523 . S
C1354 C1335 1.368 . S
C1354 C1348 1.368 . S
C1354 C1353 1.523 . S
C1355 C1339 1.429 . S
C1355 C1351 1.429 . S
C1355 C1356 1.523 . S
C1356 C1340 1.368 . S
C1356 C1352 1.368 . S
C1356 C1355 1.523 . S
H1357 C1332 0.950 . S
H1358 C1334 0.950 . S
H1359 C1335 0.949 . S
H1360 C1337 0.950 . S
H1361 C1339 0.950 . S
C1362 C1363 1.349 . S
C1362 C1364 1.327 . S
C1362 H1387 0.950 . S
C1363 C1362 1.349 . S
C1363 C1379 1.349 . S
C1364 C1362 1.327 . S
C1364 C1383 1.429 . S
C1364 H1388 0.950 . S
C1365 C1382 1.574 . S
C1365 C1384 1.368 . S
C1365 H1389 0.949 . S
H1366 C1370 0.949 . S
C1367 C1368 1.349 . S
C1367 C1369 1.327 . S
C1367 H1390 0.950 . S
C1368 C1367 1.349 . S
C1368 C1380 1.349 . S
C1369 C1367 1.327 . S
C1369 C1385 1.429 . S
C1369 H1391 0.950 . S
C1370 H1366 0.949 . S
C1370 C1378 1.574 . S
C1370 C1386 1.368 . S
H1371 C1379 0.950 . S
H1372 C1377 0.950 . S
H1373 C1378 0.949 . S
H1374 C1380 0.950 . S
H1375 C1381 0.950 . S
H1376 C1382 0.949 . S
C1377 H1372 0.950 . S
C1377 C1379 1.327 . S
C1377 C1383 1.429 . S
C1378 C1370 1.574 . S
C1378 H1373 0.949 . S
C1378 C1384 1.368 . S
C1379 C1363 1.349 . S
C1379 H1371 0.950 . S
C1379 C1377 1.327 . S
C1380 C1368 1.349 . S
C1380 H1374 0.950 . S
C1380 C1381 1.327 . S
C1381 H1375 0.950 . S
C1381 C1380 1.327 . S
C1381 C1385 1.429 . S
C1382 C1365 1.574 . S
C1382 H1376 0.949 . S
C1382 C1386 1.368 . S
C1383 C1364 1.429 . S
C1383 C1377 1.429 . S
C1383 C1384 1.523 . S
C1384 C1365 1.368 . S
C1384 C1378 1.368 . S
C1384 C1383 1.523 . S
C1385 C1369 1.429 . S
C1385 C1381 1.429 . S
C1385 C1386 1.523 . S
C1386 C1370 1.368 . S
C1386 C1382 1.368 . S
C1386 C1385 1.523 . S
H1387 C1362 0.950 . S
H1388 C1364 0.950 . S
H1389 C1365 0.949 . S
H1390 C1367 0.950 . S
H1391 C1369 0.950 . S
C1392 C1393 1.349 . S
C1392 C1394 1.327 . S
C1392 H1417 0.950 . S
C1393 C1392 1.349 . S
C1393 C1409 1.349 . S
C1394 C1392 1.327 . S
C1394 C1413 1.429 . S
C1394 H1418 0.950 . S
C1395 C1412 1.574 . S
C1395 C1414 1.368 . S
C1395 H1419 0.949 . S
H1396 C1400 0.949 . S
C1397 C1398 1.349 . S
C1397 C1399 1.327 . S
C1397 H1420 0.950 . S
C1398 C1397 1.349 . S
C1398 C1410 1.349 . S
C1399 C1397 1.327 . S
C1399 C1415 1.429 . S
C1399 H1421 0.950 . S
C1400 H1396 0.949 . S
C1400 C1408 1.574 . S
C1400 C1416 1.368 . S
H1401 C1409 0.950 . S
H1402 C1407 0.950 . S
H1403 C1408 0.949 . S
H1404 C1410 0.950 . S
H1405 C1411 0.950 . S
H1406 C1412 0.949 . S
C1407 H1402 0.950 . S
C1407 C1409 1.327 . S
C1407 C1413 1.429 . S
C1408 C1400 1.574 . S
C1408 H1403 0.949 . S
C1408 C1414 1.368 . S
C1409 C1393 1.349 . S
C1409 H1401 0.950 . S
C1409 C1407 1.327 . S
C1410 C1398 1.349 . S
C1410 H1404 0.950 . S
C1410 C1411 1.327 . S
C1411 H1405 0.950 . S
C1411 C1410 1.327 . S
C1411 C1415 1.429 . S
C1412 C1395 1.574 . S
C1412 H1406 0.949 . S
C1412 C1416 1.368 . S
C1413 C1394 1.429 . S
C1413 C1407 1.429 . S
C1413 C1414 1.523 . S
C1414 C1395 1.368 . S
C1414 C1408 1.368 . S
C1414 C1413 1.523 . S
C1415 C1399 1.429 . S
C1415 C1411 1.429 . S
C1415 C1416 1.523 . S
C1416 C1400 1.368 . S
C1416 C1412 1.368 . S
C1416 C1415 1.523 . S
H1417 C1392 0.950 . S
H1418 C1394 0.950 . S
H1419 C1395 0.949 . S
H1420 C1397 0.950 . S
H1421 C1399 0.950 . S
C1422 C1423 1.349 . S
C1422 C1424 1.327 . S
C1422 H1447 0.950 . S
C1423 C1422 1.349 . S
C1423 C1439 1.349 . S
C1424 C1422 1.327 . S
C1424 C1443 1.429 . S
C1424 H1448 0.950 . S
C1425 C1442 1.574 1_554 S
C1425 C1444 1.368 . S
C1425 H1449 0.949 . S
H1426 C1430 0.949 . S
C1427 C1428 1.349 . S
C1427 C1429 1.327 . S
C1427 H1450 0.950 . S
C1428 C1427 1.349 . S
C1428 C1440 1.349 . S
C1429 C1427 1.327 . S
C1429 C1445 1.429 . S
C1429 H1451 0.950 . S
C1430 H1426 0.949 . S
C1430 C1438 1.574 . S
C1430 C1446 1.368 . S
H1431 C1439 0.950 . S
H1432 C1437 0.950 . S
H1433 C1438 0.949 1_554 S
H1434 C1440 0.950 . S
H1435 C1441 0.950 . S
H1436 C1442 0.949 . S
C1437 H1432 0.950 . S
C1437 C1439 1.327 . S
C1437 C1443 1.429 . S
C1438 C1430 1.574 . S
C1438 H1433 0.949 1_556 S
C1438 C1444 1.368 1_556 S
C1439 C1423 1.349 . S
C1439 H1431 0.950 . S
C1439 C1437 1.327 . S
C1440 C1428 1.349 . S
C1440 H1434 0.950 . S
C1440 C1441 1.327 . S
C1441 H1435 0.950 . S
C1441 C1440 1.327 . S
C1441 C1445 1.429 . S
C1442 C1425 1.574 1_556 S
C1442 H1436 0.949 . S
C1442 C1446 1.368 . S
C1443 C1424 1.429 . S
C1443 C1437 1.429 . S
C1443 C1444 1.523 . S
C1444 C1425 1.368 . S
C1444 C1438 1.368 1_554 S
C1444 C1443 1.523 . S
C1445 C1429 1.429 . S
C1445 C1441 1.429 . S
C1445 C1446 1.523 . S
C1446 C1430 1.368 . S
C1446 C1442 1.368 . S
C1446 C1445 1.523 . S
H1447 C1422 0.950 . S
H1448 C1424 0.950 . S
H1449 C1425 0.949 . S
H1450 C1427 0.950 . S
H1451 C1429 0.950 . S
C1452 C1453 1.349 . S
C1452 C1454 1.327 . S
C1452 H1477 0.950 . S
C1453 C1452 1.349 . S
C1453 C1469 1.349 . S
C1454 C1452 1.327 . S
C1454 C1473 1.429 . S
C1454 H1478 0.950 . S
C1455 C1472 1.574 . S
C1455 C1474 1.368 . S
C1455 H1479 0.949 . S
H1456 C1460 0.949 . S
C1457 C1458 1.349 . S
C1457 C1459 1.327 . S
C1457 H1480 0.950 . S
C1458 C1457 1.349 . S
C1458 C1470 1.349 . S
C1459 C1457 1.327 . S
C1459 C1475 1.429 . S
C1459 H1481 0.950 . S
C1460 H1456 0.949 . S
C1460 C1468 1.574 . S
C1460 C1476 1.368 . S
H1461 C1469 0.950 . S
H1462 C1467 0.950 . S
H1463 C1468 0.949 . S
H1464 C1470 0.950 . S
H1465 C1471 0.950 . S
H1466 C1472 0.949 . S
C1467 H1462 0.950 . S
C1467 C1469 1.327 . S
C1467 C1473 1.429 . S
C1468 C1460 1.574 . S
C1468 H1463 0.949 . S
C1468 C1474 1.368 . S
C1469 C1453 1.349 . S
C1469 H1461 0.950 . S
C1469 C1467 1.327 . S
C1470 C1458 1.349 . S
C1470 H1464 0.950 . S
C1470 C1471 1.327 . S
C1471 H1465 0.950 . S
C1471 C1470 1.327 . S
C1471 C1475 1.429 . S
C1472 C1455 1.574 . S
C1472 H1466 0.949 . S
C1472 C1476 1.368 . S
C1473 C1454 1.429 . S
C1473 C1467 1.429 . S
C1473 C1474 1.523 . S
C1474 C1455 1.368 . S
C1474 C1468 1.368 . S
C1474 C1473 1.523 . S
C1475 C1459 1.429 . S
C1475 C1471 1.429 . S
C1475 C1476 1.523 . S
C1476 C1460 1.368 . S
C1476 C1472 1.368 . S
C1476 C1475 1.523 . S
H1477 C1452 0.950 . S
H1478 C1454 0.950 . S
H1479 C1455 0.949 . S
H1480 C1457 0.950 . S
H1481 C1459 0.950 . S
C768 C759 1.666 . S
C763 C1 1.219 . S
C793 C169 1.420 . S
C798 C684 1.615 . S
C823 C283 1.528 . S
C828 C707 1.827 . S
C853 C397 1.071 . S
C858 C720 1.352 . S
C888 C723 1.439 . S
C883 C457 1.097 . S
C913 C571 0.982 . S
C918 C736 1.254 . S
C943 C115 1.079 . S
C948 C697 1.385 . S
C973 C229 1.115 . S
C978 C710 1.472 . S
C1003 C343 0.941 . S
C1008 C733 1.205 . S
C1038 C746 1.684 . S
C1033 C511 1.401 . S
C1068 C749 1.573 . S
C1063 C625 1.380 . S
C1098 C694 1.821 . S
C1093 C55 1.523 . S
C1123 C29 1.086 . S
C1128 C705 1.334 . S
C1153 C125 0.904 . S
C1158 C718 1.441 . S
C1188 C728 1.405 . S
C1183 C239 0.913 . S
C1213 C353 0.841 . S
C1218 C741 1.333 . S
C1248 C757 1.332 . S
C1243 C485 1.065 . S
C1278 C689 1.321 . S
C1273 C599 1.090 . S
C1308 C754 1.326 . S
C1303 C143 1.102 . S
C1333 C257 1.118 . S
C1338 C692 1.397 . S
C1368 C702 1.240 . S
C1363 C371 1.060 . S
C1393 C467 0.921 . S
C1398 C715 1.401 . S
C1423 C581 0.866 . S
C1428 C731 1.373 . S
C1453 C11 0.912 . S
C1458 C744 1.441 . S
