# Generated by pormake.
# Topology apo, (3,6)-cn, num edge types: 1
# Building blocks:
#     Node 0, Type 0, BuildingBlock: BETDIP_clean_linker_0, # of connection points: 3
#     Node 1, Type 0, BuildingBlock: BETDIP_clean_linker_0, # of connection points: 3
#     Node 2, Type 0, BuildingBlock: BETDIP_clean_linker_0, # of connection points: 3
#     Node 3, Type 0, BuildingBlock: BETDIP_clean_linker_0, # of connection points: 3
#     Node 4, Type 0, BuildingBlock: BETDIP_clean_linker_0, # of connection points: 3
#     Node 5, Type 0, BuildingBlock: BETDIP_clean_linker_0, # of connection points: 3
#     Node 6, Type 0, BuildingBlock: BETDIP_clean_linker_0, # of connection points: 3
#     Node 7, Type 0, BuildingBlock: BETDIP_clean_linker_0, # of connection points: 3
#     Node 8, Type 1, BuildingBlock: MIDCAF_clean_sbu_0, # of connection points: 6
#     Node 9, Type 1, BuildingBlock: MIDCAF_clean_sbu_0, # of connection points: 6
#     Node 10, Type 1, BuildingBlock: MIDCAF_clean_sbu_0, # of connection points: 6
#     Node 11, Type 1, BuildingBlock: MIDCAF_clean_sbu_0, # of connection points: 6
#     Edge 12, Type (0, 1), BuildingBlock: CIFDUS_clean_linker_0, # of connection points: 2
#     Edge 13, Type (0, 1), BuildingBlock: CIFDUS_clean_linker_0, # of connection points: 2
#     Edge 14, Type (0, 1), BuildingBlock: CIFDUS_clean_linker_0, # of connection points: 2
#     Edge 15, Type (0, 1), BuildingBlock: CIFDUS_clean_linker_0, # of connection points: 2
#     Edge 16, Type (0, 1), BuildingBlock: CIFDUS_clean_linker_0, # of connection points: 2
#     Edge 17, Type (0, 1), BuildingBlock: CIFDUS_clean_linker_0, # of connection points: 2
#     Edge 18, Type (0, 1), BuildingBlock: CIFDUS_clean_linker_0, # of connection points: 2
#     Edge 19, Type (0, 1), BuildingBlock: CIFDUS_clean_linker_0, # of connection points: 2
#     Edge 20, Type (0, 1), BuildingBlock: CIFDUS_clean_linker_0, # of connection points: 2
#     Edge 21, Type (0, 1), BuildingBlock: CIFDUS_clean_linker_0, # of connection points: 2
#     Edge 22, Type (0, 1), BuildingBlock: CIFDUS_clean_linker_0, # of connection points: 2
#     Edge 23, Type (0, 1), BuildingBlock: CIFDUS_clean_linker_0, # of connection points: 2
#     Edge 24, Type (0, 1), BuildingBlock: CIFDUS_clean_linker_0, # of connection points: 2
#     Edge 25, Type (0, 1), BuildingBlock: CIFDUS_clean_linker_0, # of connection points: 2
#     Edge 26, Type (0, 1), BuildingBlock: CIFDUS_clean_linker_0, # of connection points: 2
#     Edge 27, Type (0, 1), BuildingBlock: CIFDUS_clean_linker_0, # of connection points: 2
#     Edge 28, Type (0, 1), BuildingBlock: CIFDUS_clean_linker_0, # of connection points: 2
#     Edge 29, Type (0, 1), BuildingBlock: CIFDUS_clean_linker_0, # of connection points: 2
#     Edge 30, Type (0, 1), BuildingBlock: CIFDUS_clean_linker_0, # of connection points: 2
#     Edge 31, Type (0, 1), BuildingBlock: CIFDUS_clean_linker_0, # of connection points: 2
#     Edge 32, Type (0, 1), BuildingBlock: CIFDUS_clean_linker_0, # of connection points: 2
#     Edge 33, Type (0, 1), BuildingBlock: CIFDUS_clean_linker_0, # of connection points: 2
#     Edge 34, Type (0, 1), BuildingBlock: CIFDUS_clean_linker_0, # of connection points: 2
#     Edge 35, Type (0, 1), BuildingBlock: CIFDUS_clean_linker_0, # of connection points: 2
# Relax obj value: 0.011
# Max RMSD: 0.061
# Mean RMSD: 0.052
data_MOF--net-apo--node1-MIDCAF_clean_sbu_0--node2-BETDIP_clean_linker_0--edge1-CIFDUS_clean_linker_0
_symmetry_space_group_name_H-M    P1
_symmetry_Int_Tables_number       1
_symmetry_cell_setting            triclinic
loop_
_symmetry_equiv_pos_as_xyz
'x, y, z'
_cell_length_a     32.388464
_cell_length_b     36.215013
_cell_length_c     30.454098
_cell_angle_alpha  90.101758
_cell_angle_beta   89.925756
_cell_angle_gamma 89.849535
loop_
_atom_site_label
_atom_site_type_symbol
_atom_site_fract_x
_atom_site_fract_y
_atom_site_fract_z
_atom_type_partial_charge
H0 H 0.30033 0.29062 0.44455 0.0
H1 H 0.348 0.34097 0.32703 0.0
H2 H 0.38957 0.37777 0.45387 0.0
H3 H 0.27712 0.33184 0.30757 0.0
C4 C 0.2747 0.30314 0.3176 0.0
C5 C 0.32051 0.31044 0.42883 0.0
C6 C 0.34514 0.33383 0.45451 0.0
C7 C 0.32031 0.3139 0.38286 0.0
C8 C 0.34688 0.33938 0.3625 0.0
C9 C 0.37269 0.36217 0.38778 0.0
C10 C 0.37097 0.35952 0.43379 0.0
N11 N 0.29302 0.29159 0.35779 0.0
H12 H 0.2003 0.1904 0.94672 0.0
H13 H 0.17833 0.14995 0.81558 0.0
H14 H 0.11598 0.10045 0.92451 0.0
H15 H 0.24695 0.16499 0.80986 0.0
C16 C 0.24638 0.19235 0.82455 0.0
C17 C 0.18405 0.17211 0.92451 0.0
C18 C 0.15689 0.14533 0.9413 0.0
C19 C 0.19258 0.17353 0.8792 0.0
C20 C 0.17236 0.14905 0.85055 0.0
C21 C 0.14461 0.12286 0.86677 0.0
C22 C 0.13663 0.12147 0.91193 0.0
N23 N 0.22258 0.19879 0.86323 0.0
H24 H 0.82077 0.21734 0.56483 0.0
H25 H 0.82284 0.15959 0.68861 0.0
H26 H 0.88149 0.11194 0.57557 0.0
H27 H 0.77141 0.19743 0.70696 0.0
C28 C 0.77262 0.22195 0.68662 0.0
C29 C 0.83024 0.19381 0.58438 0.0
C30 C 0.85212 0.16468 0.56459 0.0
C31 C 0.81887 0.19219 0.62889 0.0
C32 C 0.83078 0.16139 0.65419 0.0
C33 C 0.85389 0.13272 0.63504 0.0
C34 C 0.86429 0.13448 0.5904 0.0
N35 N 0.79524 0.22193 0.64646 0.0
H36 H 0.70293 0.29772 0.05451 0.0
H37 H 0.6752 0.33707 0.18503 0.0
H38 H 0.60161 0.37221 0.07538 0.0
H39 H 0.71941 0.29119 0.20724 0.0
C40 C 0.74091 0.28797 0.18012 0.0
C41 C 0.68323 0.31318 0.07676 0.0
C42 C 0.65064 0.33427 0.05996 0.0
C43 C 0.69212 0.31349 0.1219 0.0
C44 C 0.66774 0.33518 0.15048 0.0
C45 C 0.63438 0.35591 0.13394 0.0
C46 C 0.62602 0.35501 0.08873 0.0
N47 N 0.72805 0.29435 0.1361 0.0
H48 H 0.70035 0.69418 0.56167 0.0
H49 H 0.65299 0.66008 0.6874 0.0
H50 H 0.60656 0.61127 0.56847 0.0
H51 H 0.69029 0.70981 0.71414 0.0
C52 C 0.71674 0.70813 0.69228 0.0
C53 C 0.67883 0.67798 0.5809 0.0
C54 C 0.65236 0.65318 0.55984 0.0
C55 C 0.6796 0.68032 0.62691 0.0
C56 C 0.65232 0.65859 0.65196 0.0
C57 C 0.62522 0.63375 0.63122 0.0
C58 C 0.62582 0.6313 0.58512 0.0
N59 N 0.71134 0.70159 0.6466 0.0
H60 H 0.81606 0.79994 0.07618 0.0
H61 H 0.83619 0.83442 0.20991 0.0
H62 H 0.90267 0.88647 0.1053 0.0
H63 H 0.81365 0.77431 0.22451 0.0
C64 C 0.78808 0.77352 0.20148 0.0
C65 C 0.83264 0.81671 0.09977 0.0
C66 C 0.86068 0.84356 0.08508 0.0
C67 C 0.82438 0.81251 0.14484 0.0
C68 C 0.84404 0.83581 0.17539 0.0
C69 C 0.87249 0.8624 0.16121 0.0
C70 C 0.88124 0.86545 0.11627 0.0
N71 N 0.79329 0.78719 0.15803 0.0
H72 H 0.18656 0.77829 0.44141 0.0
H73 H 0.17706 0.84968 0.32931 0.0
H74 H 0.07712 0.8428 0.4228 0.0
H75 H 0.21749 0.79761 0.29736 0.0
C76 C 0.23872 0.79431 0.32467 0.0
C77 C 0.16864 0.79735 0.42167 0.0
C78 C 0.12983 0.80904 0.43625 0.0
C79 C 0.1845 0.81007 0.38161 0.0
C80 C 0.1628 0.83732 0.35787 0.0
C81 C 0.1245 0.85071 0.37349 0.0
C82 C 0.10724 0.83417 0.41103 0.0
N83 N 0.22415 0.79741 0.36858 0.0
H84 H 0.30411 0.70962 0.94389 0.0
H85 H 0.34263 0.66665 0.81831 0.0
H86 H 0.41294 0.64303 0.93515 0.0
H87 H 0.29459 0.70931 0.79135 0.0
C88 C 0.27106 0.70883 0.81677 0.0
C89 C 0.32629 0.69455 0.92402 0.0
C90 C 0.36024 0.67782 0.94402 0.0
C91 C 0.31966 0.69066 0.87878 0.0
C92 C 0.34799 0.67023 0.8531 0.0
C93 C 0.38248 0.65318 0.87295 0.0
C94 C 0.38793 0.65722 0.91858 0.0
N95 N 0.28212 0.70484 0.86164 0.0
Zn96 Zn 0.05004 0.12854 0.34035 0.0
Zn97 Zn 0.98215 0.1116 0.19874 0.0
Zn98 Zn 0.01612 0.1212 0.26674 0.0
C99 C 0.05924 0.13088 0.17407 0.0
C100 C 0.97384 0.04572 0.23432 0.0
O101 O 0.9731 0.15233 0.31156 0.0
O102 O 0.01239 0.16357 0.36934 0.0
C103 C 0.10669 0.15582 0.28181 0.0
O104 O 0.05776 0.1428 0.21398 0.0
O105 O 0.03118 0.10987 0.16006 0.0
O106 O 0.95212 0.06495 0.20877 0.0
O107 O 0.00341 0.06098 0.25606 0.0
O108 O 0.10389 0.14682 0.32162 0.0
O109 O 0.07627 0.15014 0.2554 0.0
O110 O 0.02775 0.06485 0.29376 0.0
O111 O 0.049 0.07704 0.36108 0.0
C112 C 0.03988 0.05377 0.33185 0.0
O113 O 0.9577 0.15452 0.26802 0.0
O114 O 0.94894 0.15703 0.19647 0.0
C115 C 0.97825 0.16689 0.34993 0.0
C116 C 0.93909 0.16816 0.23431 0.0
Zn117 Zn 0.51868 0.3805 0.67471 0.0
Zn118 Zn 0.4648 0.39826 0.83235 0.0
Zn119 Zn 0.49028 0.38361 0.75325 0.0
C120 C 0.47012 0.46561 0.79775 0.0
C121 C 0.40388 0.35535 0.78939 0.0
O122 O 0.55095 0.35424 0.75686 0.0
O123 O 0.5741 0.36166 0.68918 0.0
C124 C 0.50752 0.45332 0.68712 0.0
O125 O 0.47894 0.44398 0.76532 0.0
O126 O 0.46473 0.45256 0.83561 0.0
O127 O 0.41087 0.37358 0.82397 0.0
O128 O 0.4307 0.35461 0.75812 0.0
O129 O 0.51426 0.43241 0.65477 0.0
O130 O 0.4996 0.43952 0.72519 0.0
O131 O 0.44443 0.35159 0.71374 0.0
O132 O 0.47863 0.34483 0.65136 0.0
C133 C 0.4472 0.33832 0.67452 0.0
O134 O 0.53551 0.35821 0.7999 0.0
O135 O 0.50782 0.37151 0.86458 0.0
C136 C 0.57955 0.34992 0.72773 0.0
C137 C 0.53596 0.35642 0.8422 0.0
Zn138 Zn 0.03004 0.87536 0.81736 0.0
Zn139 Zn 0.94893 0.86904 0.68646 0.0
Zn140 Zn 0.99094 0.8713 0.75401 0.0
C141 C 0.94556 0.94158 0.71059 0.0
C142 C 0.91099 0.82101 0.7429 0.0
O143 O 0.04904 0.83877 0.74372 0.0
O144 O 0.05878 0.82727 0.81384 0.0
C145 C 0.03864 0.94248 0.78481 0.0
O146 O 0.97454 0.92913 0.73553 0.0
O147 O 0.92515 0.91959 0.68697 0.0
O148 O 0.91288 0.82816 0.7025 0.0
O149 O 0.93547 0.83728 0.77 0.0
O150 O 0.06261 0.92032 0.80401 0.0
O151 O 0.00503 0.93027 0.76755 0.0
O152 O 0.9535 0.84797 0.80923 0.0
O153 O 0.9847 0.88011 0.8608 0.0
C154 C 0.95501 0.85992 0.84911 0.0
O155 O 0.03069 0.8451 0.70268 0.0
O156 O 0.99251 0.85612 0.64397 0.0
C157 C 0.06777 0.82071 0.7743 0.0
C158 C 0.02549 0.84404 0.66071 0.0
Zn159 Zn 0.53364 0.6111 0.18019 0.0
Zn160 Zn 0.47886 0.61421 0.32175 0.0
Zn161 Zn 0.50652 0.61595 0.24989 0.0
C162 C 0.55893 0.63466 0.33316 0.0
C163 C 0.465 0.5452 0.29402 0.0
O164 O 0.45949 0.63802 0.204 0.0
O165 O 0.48039 0.60261 0.14941 0.0
C166 C 0.5739 0.66909 0.21408 0.0
O167 O 0.55334 0.64304 0.29253 0.0
O168 O 0.53207 0.61602 0.35325 0.0
O169 O 0.44864 0.56687 0.32141 0.0
O170 O 0.49232 0.55732 0.26682 0.0
O171 O 0.55791 0.66123 0.17749 0.0
O172 O 0.56313 0.65058 0.24831 0.0
O173 O 0.52354 0.55703 0.23743 0.0
O174 O 0.57246 0.56916 0.18942 0.0
C175 C 0.55552 0.54671 0.21531 0.0
O176 O 0.44867 0.64922 0.24683 0.0
O177 O 0.446 0.66033 0.3178 0.0
C178 C 0.45342 0.62372 0.16581 0.0
C179 C 0.43323 0.66719 0.27952 0.0
H180 H 0.0836 0.90389 0.41909 0.0
H181 H 0.12287 0.87623 0.28743 0.0
H182 H 0.0963 0.93575 0.26131 0.0
H183 H 0.06703 -0.00194 0.27808 0.0
H184 H 0.02587 0.02166 0.40996 0.0
H185 H 0.04656 0.9602 0.4334 0.0
C186 C 0.08518 0.90977 0.38426 0.0
C187 C 0.1051 0.88502 0.35538 0.0
C188 C 0.06933 0.94343 0.36948 0.0
C189 C 0.10818 0.89469 0.31071 0.0
C190 C 0.09274 0.92868 0.29567 0.0
C191 C 0.06133 0.98913 0.31147 0.0
C192 C 0.04489 0.01426 0.34226 0.0
C193 C 0.07386 0.95359 0.32499 0.0
C194 C 0.03865 0.00284 0.38577 0.0
C195 C 0.05062 0.96777 0.39924 0.0
H196 H 0.36312 0.60553 0.80573 0.0
H197 H 0.46589 0.64339 0.88391 0.0
H198 H 0.5063 0.58986 0.86139 0.0
H199 H 0.50647 0.52627 0.83201 0.0
H200 H 0.40655 0.4907 0.74923 0.0
H201 H 0.37159 0.5501 0.7596 0.0
C202 C 0.39484 0.60302 0.81663 0.0
C203 C 0.41056 0.62768 0.84829 0.0
C204 C 0.41839 0.57238 0.80291 0.0
C205 C 0.45212 0.62391 0.86127 0.0
C206 C 0.47546 0.59337 0.84821 0.0
C207 C 0.47791 0.53227 0.81483 0.0
C208 C 0.45871 0.50437 0.79037 0.0
C209 C 0.45804 0.5664 0.82104 0.0
C210 C 0.4218 0.51207 0.7681 0.0
C211 C 0.4016 0.54584 0.77448 0.0
H212 H 0.54825 0.60814 0.6113 0.0
H213 H 0.64422 0.59918 0.70913 0.0
H214 H 0.609 0.54674 0.74194 0.0
H215 H 0.55922 0.49596 0.73365 0.0
H216 H 0.47186 0.49856 0.62722 0.0
H217 H 0.49527 0.56043 0.6067 0.0
C218 C 0.56154 0.59483 0.63986 0.0
C219 C 0.59948 0.60728 0.65687 0.0
C220 C 0.54274 0.56303 0.65671 0.0
C221 C 0.61513 0.5905 0.69509 0.0
C222 C 0.59522 0.56008 0.71368 0.0
C223 C 0.54461 0.51071 0.70682 0.0
C224 C 0.51396 0.49316 0.68188 0.0
C225 C 0.56018 0.54506 0.69348 0.0
C226 C 0.4955 0.51187 0.64674 0.0
C227 C 0.50906 0.54704 0.63492 0.0
H228 H 0.95232 0.88382 0.17246 0.0
H229 H 0.82813 0.90583 0.21661 0.0
H230 H 0.8509 0.96303 0.25144 0.0
H231 H 0.90319 0.01196 0.25648 0.0
H232 H 0.02694 0.99111 0.21094 0.0
H233 H 0.00786 0.92798 0.19047 0.0
C234 C 0.9306 0.9007 0.19082 0.0
C235 C 0.88857 0.89095 0.1916 0.0
C236 C 0.94384 0.93386 0.2102 0.0
C237 C 0.86064 0.91275 0.21569 0.0
C238 C 0.87358 0.94563 0.23527 0.0
C239 C 0.92623 0.993 0.24359 0.0
C240 C 0.96639 0.00575 0.23546 0.0
C241 C 0.91466 0.95723 0.23095 0.0
C242 C 0.99609 0.98144 0.21831 0.0
C243 C 0.98497 0.94558 0.20599 0.0
H244 H 0.93067 0.10791 0.65564 0.0
H245 H 0.80141 0.08253 0.66937 0.0
H246 H 0.81871 0.02157 0.69883 0.0
H247 H 0.87047 0.97312 0.7118 0.0
H248 H 0.99993 -0.00153 0.70097 0.0
H249 H 0.98303 0.0622 0.68017 0.0
C250 C 0.90648 0.08919 0.66605 0.0
C251 C 0.86487 0.09929 0.66023 0.0
C252 C 0.91674 0.05431 0.68319 0.0
C253 C 0.83358 0.07516 0.67379 0.0
C254 C 0.84348 0.04033 0.69035 0.0
C255 C 0.89491 0.99292 0.70576 0.0
C256 C 0.9363 0.98133 0.70748 0.0
C257 C 0.88489 0.02925 0.69391 0.0
C258 C 0.96787 0.00701 0.70001 0.0
C259 C 0.95817 0.04328 0.68775 0.0
H260 H 0.66667 0.40899 0.18588 0.0
H261 H 0.55084 0.36389 0.14216 0.0
H262 H 0.51393 0.41726 0.17252 0.0
H263 H 0.5165 0.48177 0.19933 0.0
H264 H 0.63375 0.52862 0.23542 0.0
H265 H 0.6681 0.46961 0.22154 0.0
C266 C 0.63323 0.41029 0.18439 0.0
C267 C 0.61148 0.38273 0.16175 0.0
C268 C 0.61252 0.44174 0.20023 0.0
C269 C 0.56818 0.38497 0.15934 0.0
C270 C 0.54713 0.41554 0.17649 0.0
C271 C 0.54929 0.47848 0.20549 0.0
C272 C 0.57273 0.50919 0.21836 0.0
C273 C 0.56916 0.44489 0.19525 0.0
C274 C 0.61528 0.50512 0.22557 0.0
C275 C 0.63493 0.47149 0.21736 0.0
H276 H 0.35638 0.406 0.31688 0.0
H277 H 0.4515 0.3806 0.4114 0.0
H278 H 0.49252 0.43244 0.38514 0.0
H279 H 0.49665 0.49009 0.34254 0.0
H280 H 0.4016 0.51577 0.24878 0.0
H281 H 0.36594 0.45803 0.26621 0.0
C282 C 0.38655 0.41114 0.33099 0.0
C283 C 0.40031 0.38989 0.3668 0.0
C284 C 0.41008 0.44105 0.3157 0.0
C285 C 0.43952 0.39717 0.38469 0.0
C286 C 0.46318 0.42668 0.36951 0.0
C287 C 0.46898 0.48217 0.32487 0.0
C288 C 0.45181 0.50655 0.29417 0.0
C289 C 0.44814 0.44955 0.33607 0.0
C290 C 0.41551 0.49684 0.27201 0.0
C291 C 0.39493 0.46412 0.28239 0.0
H292 H 0.06451 0.10229 0.8546 0.0
H293 H 0.18935 0.07703 0.81518 0.0
H294 H 0.16594 0.02064 0.77907 0.0
H295 H 0.11198 0.97406 0.7695 0.0
H296 H 0.98671 -0.00125 0.80718 0.0
H297 H 0.00782 0.06031 0.83221 0.0
C298 C 0.08626 0.08475 0.83719 0.0
C299 C 0.12857 0.09338 0.83784 0.0
C300 C 0.07254 0.05232 0.81645 0.0
C301 C 0.15664 0.07084 0.81496 0.0
C302 C 0.14332 0.03853 0.79456 0.0
C303 C 0.08918 0.99344 0.78199 0.0
C304 C 0.0481 0.98209 0.78709 0.0
C305 C 0.10165 0.02836 0.79658 0.0
C306 C 0.01854 0.00717 0.80297 0.0
C307 C 0.03071 0.04213 0.81768 0.0
H308 H 0.13893 0.19637 1.00576 0.0
H309 H 0.16372 0.08056 0.9847 0.0
H310 H 0.14306 0.06683 0.05975 0.0
H311 H 0.10691 0.08595 0.12636 0.0
H312 H 0.08041 0.20085 0.14925 0.0
H313 H 0.11382 0.21705 0.07938 0.0
C314 C 0.14067 0.16834 0.01806 0.0
C315 C 0.15167 0.13936 0.98932 0.0
C316 C 0.12834 0.16049 0.06156 0.0
C317 C 0.15421 0.10317 1.00579 0.0
C318 C 0.14257 0.09529 0.04877 0.0
C319 C 0.10991 0.11467 0.11675 0.0
C320 C 0.09134 0.14218 0.14257 0.0
C321 C 0.12798 0.12345 0.07626 0.0
C322 C 0.095 0.17929 0.12995 0.0
C323 C 0.11353 0.18843 0.08969 0.0
H324 H 0.37218 0.27853 0.50742 0.0
H325 H 0.31863 0.38746 0.50982 0.0
H326 H 0.33486 0.39349 0.58788 0.0
H327 H 0.37903 0.37394 0.64896 0.0
H328 H 0.4401 0.26846 0.64343 0.0
H329 H 0.40485 0.25386 0.57462 0.0
C330 C 0.36275 0.30291 0.52562 0.0
C331 C 0.34451 0.33261 0.50314 0.0
C332 C 0.37377 0.30675 0.57015 0.0
C333 C 0.33282 0.36435 0.52666 0.0
C334 C 0.34225 0.36784 0.57121 0.0
C335 C 0.38263 0.34692 0.63392 0.0
C336 C 0.41184 0.32221 0.65119 0.0
C337 C 0.36471 0.34006 0.59265 0.0
C338 C 0.41725 0.28765 0.63095 0.0
C339 C 0.39775 0.27968 0.59108 0.0
H340 H 0.61792 0.28459 1.00248 0.0
H341 H 0.66858 0.39418 0.01147 0.0
H342 H 0.64626 0.40752 0.9365 0.0
H343 H 0.60059 0.39228 0.87516 0.0
H344 H 0.54399 0.28516 0.86837 0.0
H345 H 0.58132 0.26579 0.93447 0.0
C346 C 0.625 0.31091 0.98732 0.0
C347 C 0.64454 0.33853 0.01216 0.0
C348 C 0.61092 0.31872 0.94455 0.0
C349 C 0.6534 0.3727 0.99271 0.0
C350 C 0.64058 0.38031 0.94997 0.0
C351 C 0.59818 0.36412 0.88703 0.0
C352 C 0.57025 0.33994 0.86685 0.0
C353 C 0.61779 0.35413 0.92634 0.0
C354 C 0.56612 0.30388 0.88301 0.0
C355 C 0.58687 0.2931 0.92125 0.0
H356 H 0.88977 0.21921 0.5179 0.0
H357 H 0.8372 0.11054 0.5048 0.0
H358 H 0.86327 0.10605 0.42966 0.0
H359 H 0.91147 0.12823 0.37338 0.0
H360 H 0.97057 0.2336 0.38987 0.0
H361 H 0.93035 0.24511 0.45664 0.0
C362 C 0.88323 0.19499 0.49811 0.0
C363 C 0.86219 0.16502 0.51699 0.0
C364 C 0.89942 0.19216 0.45529 0.0
C365 C 0.85399 0.13368 0.49115 0.0
C366 C 0.86877 0.13115 0.44815 0.0
C367 C 0.91395 0.15442 0.39053 0.0
C368 C 0.94339 0.18028 0.3766 0.0
C369 C 0.89292 0.15958 0.43051 0.0
C370 C 0.94749 0.21364 0.39972 0.0
C371 C 0.92502 0.2199 0.4383 0.0
H372 H 0.87376 0.79414 0.01754 0.0
H373 H 0.86083 0.91051 0.04546 0.0
H374 H 0.88262 0.92555 0.9712 0.0
H375 H 0.91525 0.90633 0.90264 0.0
H376 H 0.92852 0.79083 0.87219 0.0
H377 H 0.89558 0.77458 0.94236 0.0
C378 C 0.8749 0.8227 0.00698 0.0
C379 C 0.867 0.85121 0.0375 0.0
C380 C 0.88757 0.83129 0.9638 0.0
C381 C 0.86812 0.88809 0.02314 0.0
C382 C 0.88034 0.89676 0.98057 0.0
C383 C 0.90969 0.87761 0.91084 0.0
C384 C 0.92435 0.84979 0.88275 0.0
C385 C 0.89164 0.8687 0.95126 0.0
C386 C 0.91712 0.81267 0.89338 0.0
C387 C 0.89879 0.80344 0.93372 0.0
H388 H 0.63656 0.70406 0.49595 0.0
H389 H 0.66903 0.58988 0.51623 0.0
H390 H 0.65314 0.57583 0.43973 0.0
H391 H 0.61503 0.59306 0.37373 0.0
H392 H 0.57765 0.70582 0.35382 0.0
H393 H 0.6117 0.72396 0.42244 0.0
C394 C 0.64143 0.67647 0.48302 0.0
C395 C 0.65318 0.64784 0.51161 0.0
C396 C 0.63108 0.66838 0.4391 0.0
C397 C 0.65943 0.61214 0.49478 0.0
C398 C 0.6503 0.60411 0.45111 0.0
C399 C 0.61625 0.6219 0.38342 0.0
C400 C 0.59398 0.6481 0.35916 0.0
C401 C 0.634 0.63155 0.42376 0.0
C402 C 0.59509 0.68532 0.37192 0.0
C403 C 0.61389 0.6955 0.41158 0.0
H404 H 0.34378 0.62375 1.00151 0.0
H405 H 0.39166 0.73421 0.99259 0.0
H406 H 0.41716 0.73029 0.06832 0.0
H407 H 0.43754 0.69053 0.13064 0.0
H408 H 0.39408 0.57838 0.13584 0.0
H409 H 0.35374 0.58796 0.06905 0.0
C410 C 0.35864 0.64728 0.01687 0.0
C411 C 0.3661 0.67914 0.99201 0.0
C412 C 0.37402 0.64436 0.05976 0.0
C413 C 0.38559 0.70952 0.01155 0.0
C414 C 0.40033 0.70715 0.05465 0.0
C415 C 0.41765 0.66888 0.1181 0.0
C416 C 0.4183 0.63393 0.13797 0.0
C417 C 0.39633 0.67409 0.07835 0.0
C418 C 0.39344 0.60561 0.12113 0.0
C419 C 0.37088 0.61095 0.08267 0.0
H420 H 0.15906 0.83305 0.51404 0.0
H421 H 0.06373 0.76638 0.45583 0.0
H422 H 0.02615 0.76543 0.5256 0.0
H423 H 0.01444 0.79335 0.5979 0.0
H424 H 0.10581 0.86558 0.65371 0.0
H425 H 0.15163 0.85405 0.59098 0.0
C426 C 0.13086 0.81719 0.51736 0.0
C427 C 0.11413 0.79953 0.4803 0.0
C428 C 0.10862 0.81822 0.55705 0.0
C429 C 0.07715 0.77977 0.48425 0.0
C430 C 0.05558 0.77955 0.52396 0.0
C431 C 0.04502 0.80552 0.59687 0.0
C432 C 0.05724 0.82971 0.63051 0.0
C433 C 0.0701 0.80008 0.55986 0.0
C434 C 0.09644 0.84595 0.62878 0.0
C435 C 0.12227 0.83982 0.59255 0.0
H436 H 0.27469 0.22848 0.31185 0.0
H437 H 0.2057 0.32523 0.27444 0.0
H438 H 0.1486 0.28639 0.24899 0.0
H439 H 0.11415 0.22536 0.25012 0.0
H440 H 0.18385 0.12932 0.28856 0.0
H441 H 0.24542 0.16698 0.299 0.0
C442 C 0.24739 0.24093 0.29745 0.0
C443 C 0.24368 0.27949 0.29597 0.0
C444 C 0.21499 0.21846 0.28268 0.0
C445 C 0.20877 0.29548 0.27634 0.0
C446 C 0.17618 0.2733 0.26182 0.0
C447 C 0.1434 0.2126 0.25864 0.0
C448 C 0.14472 0.17477 0.26856 0.0
C449 C 0.17832 0.23478 0.26634 0.0
C450 C 0.18244 0.15843 0.28044 0.0
C451 C 0.21743 0.18004 0.28711 0.0
H452 H 0.24747 0.26592 0.84278 0.0
H453 H 0.30948 0.1815 0.76746 0.0
H454 H 0.36127 0.22631 0.74332 0.0
H455 H 0.39305 0.28804 0.75072 0.0
H456 H 0.33069 0.3715 0.82747 0.0
H457 H 0.27443 0.32894 0.84295 0.0
C458 C 0.27219 0.2574 0.82091 0.0
C459 C 0.27531 0.22041 0.80761 0.0
C460 C 0.30169 0.28325 0.8072 0.0
C461 C 0.3069 0.20987 0.7785 0.0
C462 C 0.33644 0.23545 0.76467 0.0
C463 C 0.36655 0.29712 0.76973 0.0
C464 C 0.36615 0.33265 0.7883 0.0
C465 C 0.33472 0.27207 0.77965 0.0
C466 C 0.33179 0.34409 0.81315 0.0
C467 C 0.29973 0.31973 0.82228 0.0
H468 H 0.71197 0.22435 0.74846 0.0
H469 H 0.77031 0.28975 0.64766 0.0
H470 H 0.71875 0.33806 0.6575 0.0
H471 H 0.65279 0.35821 0.68764 0.0
H472 H 0.59118 0.29269 0.78577 0.0
H473 H 0.64887 0.24861 0.78531 0.0
C474 C 0.71361 0.24946 0.72918 0.0
C475 C 0.74444 0.25313 0.6968 0.0
C476 C 0.68332 0.27711 0.73459 0.0
C477 C 0.74653 0.28587 0.67224 0.0
C478 C 0.71709 0.31361 0.67792 0.0
C479 C 0.65232 0.33463 0.70958 0.0
C480 C 0.61764 0.32849 0.73639 0.0
C481 C 0.6847 0.30898 0.70793 0.0
C482 C 0.61765 0.29815 0.76505 0.0
C483 C 0.6504 0.2727 0.76432 0.0
H484 H 0.76915 0.25238 0.25337 0.0
H485 H 0.80658 0.28927 0.12459 0.0
H486 H 0.87332 0.25955 0.13358 0.0
H487 H 0.91842 0.21848 0.17409 0.0
H488 H 0.88225 0.17762 0.30121 0.0
H489 H 0.8183 0.21425 0.29755 0.0
C490 C 0.79219 0.25412 0.22759 0.0
C491 C 0.78261 0.27243 0.18806 0.0
C492 C 0.83073 0.23634 0.23272 0.0
C493 C 0.81275 0.27478 0.15497 0.0
C494 C 0.85108 0.25791 0.16013 0.0
C495 C 0.89681 0.2179 0.20135 0.0
C496 C 0.90484 0.19516 0.2377 0.0
C497 C 0.85995 0.23791 0.19828 0.0
C498 C 0.87689 0.19512 0.273 0.0
C499 C 0.84012 0.21573 0.27061 0.0
H500 H 0.7368 0.75444 0.75969 0.0
H501 H 0.7896 0.68346 0.66039 0.0
H502 H 0.85839 0.70614 0.67754 0.0
H503 H 0.90094 0.75397 0.70999 0.0
H504 H 0.84909 0.8303 0.80352 0.0
H505 H 0.78301 0.79704 0.80112 0.0
C506 C 0.7636 0.74356 0.7426 0.0
C507 C 0.75827 0.71806 0.70816 0.0
C508 C 0.80318 0.75769 0.75173 0.0
C509 C 0.79299 0.70379 0.68628 0.0
C510 C 0.83233 0.71659 0.69621 0.0
C511 C 0.87557 0.76235 0.73116 0.0
C512 C 0.87942 0.79441 0.75664 0.0
C513 C 0.83748 0.74464 0.72739 0.0
C514 C 0.84668 0.8054 0.78392 0.0
C515 C 0.80876 0.78678 0.78187 0.0
H516 H 0.71307 0.7801 0.16301 0.0
H517 H 0.77638 0.72543 0.26899 0.0
H518 H 0.7134 0.69097 0.287 0.0
H519 H 0.6419 0.67234 0.26751 0.0
H520 H 0.58032 0.72809 0.16085 0.0
H521 H 0.64061 0.76671 0.14888 0.0
C522 C 0.71309 0.7607 0.19011 0.0
C523 C 0.74941 0.75461 0.21406 0.0
C524 C 0.67692 0.74133 0.20031 0.0
C525 C 0.74874 0.73013 0.24978 0.0
C526 C 0.71278 0.7105 0.26009 0.0
C527 C 0.64145 0.69358 0.24245 0.0
C528 C 0.60692 0.69712 0.2148 0.0
C529 C 0.67682 0.71534 0.23499 0.0
C530 C 0.60674 0.72462 0.18227 0.0
C531 C 0.64126 0.74662 0.17522 0.0
H532 H 0.26609 0.7548 0.25387 0.0
H533 H 0.3047 0.79877 0.37901 0.0
H534 H 0.37057 0.76672 0.37256 0.0
H535 H 0.41389 0.72148 0.33592 0.0
H536 H 0.37603 0.67368 0.21267 0.0
H537 H 0.31365 0.71246 0.21317 0.0
C538 C 0.2893 0.75768 0.27927 0.0
C539 C 0.28038 0.77863 0.31717 0.0
C540 C 0.32706 0.73838 0.27579 0.0
C541 C 0.31057 0.78233 0.3499 0.0
C542 C 0.34829 0.76406 0.34622 0.0
C543 C 0.39223 0.71972 0.30884 0.0
C544 C 0.39928 0.69436 0.27461 0.0
C545 C 0.3563 0.74121 0.31003 0.0
C546 C 0.37131 0.69297 0.23942 0.0
C547 C 0.3355 0.71494 0.23992 0.0
H548 H 0.24345 0.75096 0.74859 0.0
H549 H 0.20237 0.69049 0.86241 0.0
H550 H 0.13286 0.71507 0.85356 0.0
H551 H 0.08671 0.76022 0.82051 0.0
H552 H 0.12763 0.82524 0.71074 0.0
H553 H 0.19354 0.79181 0.70972 0.0
C554 C 0.21897 0.74275 0.77081 0.0
C555 C 0.22807 0.71955 0.80655 0.0
C556 C 0.17904 0.75784 0.76619 0.0
C557 C 0.19624 0.7089 0.83517 0.0
C558 C 0.15645 0.72286 0.83008 0.0
C559 C 0.10972 0.76645 0.79567 0.0
C560 C 0.10238 0.79506 0.7656 0.0
C561 C 0.14794 0.74835 0.79677 0.0
C562 C 0.13226 0.80284 0.73354 0.0
C563 C 0.17023 0.78411 0.73354 0.0
loop_
_geom_bond_atom_site_label_1
_geom_bond_atom_site_label_2
_geom_bond_distance
_geom_bond_site_symmetry_2
_ccdc_geom_bond_type
H0 C5 0.930 . S
H1 C8 0.930 . S
H2 C10 0.930 . S
H3 C4 1.016 . S
C4 H3 1.016 . S
C4 N11 1.286 . S
C5 H0 0.930 . S
C5 C6 1.397 . S
C5 C7 1.361 . S
C6 C5 1.397 . S
C6 C10 1.390 . S
C7 C5 1.361 . S
C7 C8 1.393 . S
C7 N11 1.413 . S
C8 H1 0.930 . S
C8 C7 1.393 . S
C8 C9 1.399 . S
C9 C8 1.399 . S
C9 C10 1.381 . S
C10 H2 0.930 . S
C10 C6 1.390 . S
C10 C9 1.381 . S
N11 C4 1.286 . S
N11 C7 1.413 . S
H12 C17 0.930 . S
H13 C20 0.930 . S
H14 C22 0.930 . S
H15 C16 1.016 . S
C16 H15 1.016 . S
C16 N23 1.286 . S
C17 H12 0.930 . S
C17 C18 1.397 . S
C17 C19 1.361 . S
C18 C17 1.397 . S
C18 C22 1.390 . S
C19 C17 1.361 . S
C19 C20 1.393 . S
C19 N23 1.413 . S
C20 H13 0.930 . S
C20 C19 1.393 . S
C20 C21 1.399 . S
C21 C20 1.399 . S
C21 C22 1.381 . S
C22 H14 0.930 . S
C22 C18 1.390 . S
C22 C21 1.381 . S
N23 C16 1.286 . S
N23 C19 1.413 . S
H24 C29 0.930 . S
H25 C32 0.930 . S
H26 C34 0.930 . S
H27 C28 1.016 . S
C28 H27 1.016 . S
C28 N35 1.286 . S
C29 H24 0.930 . S
C29 C30 1.397 . S
C29 C31 1.361 . S
C30 C29 1.397 . S
C30 C34 1.390 . S
C31 C29 1.361 . S
C31 C32 1.393 . S
C31 N35 1.413 . S
C32 H25 0.930 . S
C32 C31 1.393 . S
C32 C33 1.399 . S
C33 C32 1.399 . S
C33 C34 1.381 . S
C34 H26 0.930 . S
C34 C30 1.390 . S
C34 C33 1.381 . S
N35 C28 1.286 . S
N35 C31 1.413 . S
H36 C41 0.930 . S
H37 C44 0.930 . S
H38 C46 0.930 . S
H39 C40 1.016 . S
C40 H39 1.016 . S
C40 N47 1.286 . S
C41 H36 0.930 . S
C41 C42 1.397 . S
C41 C43 1.361 . S
C42 C41 1.397 . S
C42 C46 1.390 . S
C43 C41 1.361 . S
C43 C44 1.393 . S
C43 N47 1.413 . S
C44 H37 0.930 . S
C44 C43 1.393 . S
C44 C45 1.399 . S
C45 C44 1.399 . S
C45 C46 1.381 . S
C46 H38 0.930 . S
C46 C42 1.390 . S
C46 C45 1.381 . S
N47 C40 1.286 . S
N47 C43 1.413 . S
H48 C53 0.930 . S
H49 C56 0.930 . S
H50 C58 0.930 . S
H51 C52 1.016 . S
C52 H51 1.016 . S
C52 N59 1.286 . S
C53 H48 0.930 . S
C53 C54 1.397 . S
C53 C55 1.361 . S
C54 C53 1.397 . S
C54 C58 1.390 . S
C55 C53 1.361 . S
C55 C56 1.393 . S
C55 N59 1.413 . S
C56 H49 0.930 . S
C56 C55 1.393 . S
C56 C57 1.399 . S
C57 C56 1.399 . S
C57 C58 1.381 . S
C58 H50 0.930 . S
C58 C54 1.390 . S
C58 C57 1.381 . S
N59 C52 1.286 . S
N59 C55 1.413 . S
H60 C65 0.930 . S
H61 C68 0.930 . S
H62 C70 0.930 . S
H63 C64 1.016 . S
C64 H63 1.016 . S
C64 N71 1.286 . S
C65 H60 0.930 . S
C65 C66 1.397 . S
C65 C67 1.361 . S
C66 C65 1.397 . S
C66 C70 1.390 . S
C67 C65 1.361 . S
C67 C68 1.393 . S
C67 N71 1.413 . S
C68 H61 0.930 . S
C68 C67 1.393 . S
C68 C69 1.399 . S
C69 C68 1.399 . S
C69 C70 1.381 . S
C70 H62 0.930 . S
C70 C66 1.390 . S
C70 C69 1.381 . S
N71 C64 1.286 . S
N71 C67 1.413 . S
H72 C77 0.930 . S
H73 C80 0.930 . S
H74 C82 0.930 . S
H75 C76 1.016 . S
C76 H75 1.016 . S
C76 N83 1.286 . S
C77 H72 0.930 . S
C77 C78 1.397 . S
C77 C79 1.361 . S
C78 C77 1.397 . S
C78 C82 1.390 . S
C79 C77 1.361 . S
C79 C80 1.393 . S
C79 N83 1.413 . S
C80 H73 0.930 . S
C80 C79 1.393 . S
C80 C81 1.399 . S
C81 C80 1.399 . S
C81 C82 1.381 . S
C82 H74 0.930 . S
C82 C78 1.390 . S
C82 C81 1.381 . S
N83 C76 1.286 . S
N83 C79 1.413 . S
H84 C89 0.930 . S
H85 C92 0.930 . S
H86 C94 0.930 . S
H87 C88 1.016 . S
C88 H87 1.016 . S
C88 N95 1.286 . S
C89 H84 0.930 . S
C89 C90 1.397 . S
C89 C91 1.361 . S
C90 C89 1.397 . S
C90 C94 1.390 . S
C91 C89 1.361 . S
C91 C92 1.393 . S
C91 N95 1.413 . S
C92 H85 0.930 . S
C92 C91 1.393 . S
C92 C93 1.399 . S
C93 C92 1.399 . S
C93 C94 1.381 . S
C94 H86 0.930 . S
C94 C90 1.390 . S
C94 C93 1.381 . S
N95 C88 1.286 . S
N95 C91 1.413 . S
Zn96 O102 1.920 1_455 S
Zn96 O108 1.898 . S
Zn96 O111 1.905 . S
Zn97 O105 1.905 1_655 S
Zn97 O106 1.898 . S
Zn97 O114 1.920 . S
Zn98 O101 2.080 1_455 S
Zn98 O104 2.114 . S
Zn98 O107 2.120 1_455 S
Zn98 O109 2.120 . S
Zn98 O110 2.114 . S
Zn98 O113 2.080 1_455 S
C99 O104 1.166 . S
C99 O105 1.182 . S
C100 O106 1.167 . S
C100 O107 1.299 . S
O101 Zn98 2.080 1_655 S
O101 C115 1.305 . S
O102 Zn96 1.920 1_655 S
O102 C115 1.234 . S
C103 O108 1.167 . S
C103 O109 1.299 . S
O104 Zn98 2.114 . S
O104 C99 1.166 . S
O105 Zn97 1.905 1_455 S
O105 C99 1.182 . S
O106 Zn97 1.898 . S
O106 C100 1.167 . S
O107 Zn98 2.120 1_655 S
O107 C100 1.299 . S
O108 Zn96 1.898 . S
O108 C103 1.167 . S
O109 Zn98 2.120 . S
O109 C103 1.299 . S
O110 Zn98 2.114 . S
O110 C112 1.166 . S
O111 Zn96 1.905 . S
O111 C112 1.182 . S
C112 O110 1.166 . S
C112 O111 1.182 . S
O113 Zn98 2.080 1_655 S
O113 C116 1.305 . S
O114 Zn97 1.920 . S
O114 C116 1.234 . S
C115 O101 1.305 . S
C115 O102 1.234 . S
C116 O113 1.305 . S
C116 O114 1.234 . S
Zn117 O123 1.920 . S
Zn117 O129 1.898 . S
Zn117 O132 1.905 . S
Zn118 O126 1.905 . S
Zn118 O127 1.898 . S
Zn118 O135 1.920 . S
Zn119 O122 2.080 . S
Zn119 O125 2.114 . S
Zn119 O128 2.120 . S
Zn119 O130 2.120 . S
Zn119 O131 2.114 . S
Zn119 O134 2.080 . S
C120 O125 1.166 . S
C120 O126 1.182 . S
C121 O127 1.167 . S
C121 O128 1.299 . S
O122 Zn119 2.080 . S
O122 C136 1.305 . S
O123 Zn117 1.920 . S
O123 C136 1.234 . S
C124 O129 1.167 . S
C124 O130 1.299 . S
O125 Zn119 2.114 . S
O125 C120 1.166 . S
O126 Zn118 1.905 . S
O126 C120 1.182 . S
O127 Zn118 1.898 . S
O127 C121 1.167 . S
O128 Zn119 2.120 . S
O128 C121 1.299 . S
O129 Zn117 1.898 . S
O129 C124 1.167 . S
O130 Zn119 2.120 . S
O130 C124 1.299 . S
O131 Zn119 2.114 . S
O131 C133 1.166 . S
O132 Zn117 1.905 . S
O132 C133 1.182 . S
C133 O131 1.166 . S
C133 O132 1.182 . S
O134 Zn119 2.080 . S
O134 C137 1.305 . S
O135 Zn118 1.920 . S
O135 C137 1.234 . S
C136 O122 1.305 . S
C136 O123 1.234 . S
C137 O134 1.305 . S
C137 O135 1.234 . S
Zn138 O144 1.920 . S
Zn138 O150 1.898 . S
Zn138 O153 1.905 1_455 S
Zn139 O147 1.905 . S
Zn139 O148 1.898 . S
Zn139 O156 1.920 1_655 S
Zn140 O143 2.080 . S
Zn140 O146 2.114 1_455 S
Zn140 O149 2.120 1_455 S
Zn140 O151 2.120 . S
Zn140 O152 2.114 1_455 S
Zn140 O155 2.080 . S
C141 O146 1.166 . S
C141 O147 1.182 . S
C142 O148 1.167 . S
C142 O149 1.299 . S
O143 Zn140 2.080 . S
O143 C157 1.305 . S
O144 Zn138 1.920 . S
O144 C157 1.234 . S
C145 O150 1.167 . S
C145 O151 1.299 . S
O146 Zn140 2.114 1_655 S
O146 C141 1.166 . S
O147 Zn139 1.905 . S
O147 C141 1.182 . S
O148 Zn139 1.898 . S
O148 C142 1.167 . S
O149 Zn140 2.120 1_655 S
O149 C142 1.299 . S
O150 Zn138 1.898 . S
O150 C145 1.167 . S
O151 Zn140 2.120 . S
O151 C145 1.299 . S
O152 Zn140 2.114 1_655 S
O152 C154 1.166 . S
O153 Zn138 1.905 1_655 S
O153 C154 1.182 . S
C154 O152 1.166 . S
C154 O153 1.182 . S
O155 Zn140 2.080 . S
O155 C158 1.305 . S
O156 Zn139 1.920 1_455 S
O156 C158 1.234 . S
C157 O143 1.305 . S
C157 O144 1.234 . S
C158 O155 1.305 . S
C158 O156 1.234 . S
Zn159 O165 1.920 . S
Zn159 O171 1.898 . S
Zn159 O174 1.905 . S
Zn160 O168 1.905 . S
Zn160 O169 1.898 . S
Zn160 O177 1.920 . S
Zn161 O164 2.080 . S
Zn161 O167 2.114 . S
Zn161 O170 2.120 . S
Zn161 O172 2.120 . S
Zn161 O173 2.114 . S
Zn161 O176 2.080 . S
C162 O167 1.166 . S
C162 O168 1.182 . S
C163 O169 1.167 . S
C163 O170 1.299 . S
O164 Zn161 2.080 . S
O164 C178 1.305 . S
O165 Zn159 1.920 . S
O165 C178 1.234 . S
C166 O171 1.167 . S
C166 O172 1.299 . S
O167 Zn161 2.114 . S
O167 C162 1.166 . S
O168 Zn160 1.905 . S
O168 C162 1.182 . S
O169 Zn160 1.898 . S
O169 C163 1.167 . S
O170 Zn161 2.120 . S
O170 C163 1.299 . S
O171 Zn159 1.898 . S
O171 C166 1.167 . S
O172 Zn161 2.120 . S
O172 C166 1.299 . S
O173 Zn161 2.114 . S
O173 C175 1.166 . S
O174 Zn159 1.905 . S
O174 C175 1.182 . S
C175 O173 1.166 . S
C175 O174 1.182 . S
O176 Zn161 2.080 . S
O176 C179 1.305 . S
O177 Zn160 1.920 . S
O177 C179 1.234 . S
C178 O164 1.305 . S
C178 O165 1.234 . S
C179 O176 1.305 . S
C179 O177 1.234 . S
H180 C186 0.930 . S
H181 C189 0.930 . S
H182 C190 0.930 . S
H183 C191 0.930 . S
H184 C194 0.930 . S
H185 C195 0.930 . S
C186 H180 0.930 . S
C186 C187 1.355 . S
C186 C188 1.415 . S
C187 C186 1.355 . S
C187 C189 1.419 . S
C188 C186 1.415 . S
C188 C193 1.425 . S
C188 C195 1.409 . S
C189 H181 0.930 . S
C189 C187 1.419 . S
C189 C190 1.362 . S
C190 H182 0.930 . S
C190 C189 1.362 . S
C190 C193 1.409 . S
C191 H183 0.930 . S
C191 C192 1.355 1_565 S
C191 C193 1.415 . S
C192 C191 1.355 1_545 S
C192 C194 1.419 . S
C193 C188 1.425 . S
C193 C190 1.409 . S
C193 C191 1.415 . S
C194 H184 0.930 . S
C194 C192 1.419 . S
C194 C195 1.362 1_545 S
C195 H185 0.930 . S
C195 C188 1.409 . S
C195 C194 1.362 1_565 S
H196 C202 0.930 . S
H197 C205 0.930 . S
H198 C206 0.930 . S
H199 C207 0.930 . S
H200 C210 0.930 . S
H201 C211 0.930 . S
C202 H196 0.930 . S
C202 C203 1.355 . S
C202 C204 1.415 . S
C203 C202 1.355 . S
C203 C205 1.419 . S
C204 C202 1.415 . S
C204 C209 1.425 . S
C204 C211 1.409 . S
C205 H197 0.930 . S
C205 C203 1.419 . S
C205 C206 1.362 . S
C206 H198 0.930 . S
C206 C205 1.362 . S
C206 C209 1.409 . S
C207 H199 0.930 . S
C207 C208 1.355 . S
C207 C209 1.415 . S
C208 C207 1.355 . S
C208 C210 1.419 . S
C209 C204 1.425 . S
C209 C206 1.409 . S
C209 C207 1.415 . S
C210 H200 0.930 . S
C210 C208 1.419 . S
C210 C211 1.362 . S
C211 H201 0.930 . S
C211 C204 1.409 . S
C211 C210 1.362 . S
H212 C218 0.930 . S
H213 C221 0.930 . S
H214 C222 0.930 . S
H215 C223 0.930 . S
H216 C226 0.930 . S
H217 C227 0.930 . S
C218 H212 0.930 . S
C218 C219 1.355 . S
C218 C220 1.415 . S
C219 C218 1.355 . S
C219 C221 1.419 . S
C220 C218 1.415 . S
C220 C225 1.425 . S
C220 C227 1.409 . S
C221 H213 0.930 . S
C221 C219 1.419 . S
C221 C222 1.362 . S
C222 H214 0.930 . S
C222 C221 1.362 . S
C222 C225 1.409 . S
C223 H215 0.930 . S
C223 C224 1.355 . S
C223 C225 1.415 . S
C224 C223 1.355 . S
C224 C226 1.419 . S
C225 C220 1.425 . S
C225 C222 1.409 . S
C225 C223 1.415 . S
C226 H216 0.930 . S
C226 C224 1.419 . S
C226 C227 1.362 . S
C227 H217 0.930 . S
C227 C220 1.409 . S
C227 C226 1.362 . S
H228 C234 0.930 . S
H229 C237 0.930 . S
H230 C238 0.930 . S
H231 C239 0.930 . S
H232 C242 0.918 1_545 S
H233 C243 0.930 . S
C234 H228 0.930 . S
C234 C235 1.355 . S
C234 C236 1.415 . S
C235 C234 1.355 . S
C235 C237 1.419 . S
C236 C234 1.415 . S
C236 C241 1.425 . S
C236 C243 1.409 . S
C237 H229 0.930 . S
C237 C235 1.419 . S
C237 C238 1.362 . S
C238 H230 0.930 . S
C238 C237 1.362 . S
C238 C241 1.409 . S
C239 H231 0.930 . S
C239 C240 1.355 1_565 S
C239 C241 1.415 . S
C240 C239 1.355 1_545 S
C240 C242 1.413 1_545 S
C241 C236 1.425 . S
C241 C238 1.409 . S
C241 C239 1.415 . S
C242 H232 0.918 1_565 S
C242 C240 1.413 1_565 S
C242 C243 1.380 . S
C243 H233 0.930 . S
C243 C236 1.409 . S
C243 C242 1.380 . S
H244 C250 0.930 . S
H245 C253 0.930 . S
H246 C254 0.930 . S
H247 C255 0.930 1_565 S
H248 C258 0.930 1_565 S
H249 C259 0.930 . S
C250 H244 0.930 . S
C250 C251 1.355 . S
C250 C252 1.415 . S
C251 C250 1.355 . S
C251 C253 1.419 . S
C252 C250 1.415 . S
C252 C257 1.425 . S
C252 C259 1.409 . S
C253 H245 0.930 . S
C253 C251 1.419 . S
C253 C254 1.362 . S
C254 H246 0.930 . S
C254 C253 1.362 . S
C254 C257 1.409 . S
C255 H247 0.930 1_545 S
C255 C256 1.355 1_545 S
C255 C257 1.415 . S
C256 C255 1.355 1_565 S
C256 C258 1.419 1_565 S
C257 C252 1.425 . S
C257 C254 1.409 . S
C257 C255 1.415 . S
C258 H248 0.930 1_545 S
C258 C256 1.419 1_545 S
C258 C259 1.362 . S
C259 H249 0.930 . S
C259 C252 1.409 . S
C259 C258 1.362 . S
H260 C266 0.930 . S
H261 C269 0.930 . S
H262 C270 0.930 . S
H263 C271 0.930 . S
H264 C274 0.930 . S
H265 C275 0.930 . S
C266 H260 0.930 . S
C266 C267 1.355 . S
C266 C268 1.415 . S
C267 C266 1.355 . S
C267 C269 1.419 . S
C268 C266 1.415 . S
C268 C273 1.425 . S
C268 C275 1.409 . S
C269 H261 0.930 . S
C269 C267 1.419 . S
C269 C270 1.362 . S
C270 H262 0.930 . S
C270 C269 1.362 . S
C270 C273 1.409 . S
C271 H263 0.930 . S
C271 C272 1.355 . S
C271 C273 1.415 . S
C272 C271 1.355 . S
C272 C274 1.419 . S
C273 C268 1.425 . S
C273 C270 1.409 . S
C273 C271 1.415 . S
C274 H264 0.930 . S
C274 C272 1.419 . S
C274 C275 1.362 . S
C275 H265 0.930 . S
C275 C268 1.409 . S
C275 C274 1.362 . S
H276 C282 0.930 . S
H277 C285 0.930 . S
H278 C286 0.930 . S
H279 C287 0.930 . S
H280 C290 0.930 . S
H281 C291 0.930 . S
C282 H276 0.930 . S
C282 C283 1.355 . S
C282 C284 1.415 . S
C283 C282 1.355 . S
C283 C285 1.419 . S
C284 C282 1.415 . S
C284 C289 1.425 . S
C284 C291 1.409 . S
C285 H277 0.930 . S
C285 C283 1.419 . S
C285 C286 1.362 . S
C286 H278 0.930 . S
C286 C285 1.362 . S
C286 C289 1.409 . S
C287 H279 0.930 . S
C287 C288 1.355 . S
C287 C289 1.415 . S
C288 C287 1.355 . S
C288 C290 1.419 . S
C289 C284 1.425 . S
C289 C286 1.409 . S
C289 C287 1.415 . S
C290 H280 0.930 . S
C290 C288 1.419 . S
C290 C291 1.362 . S
C291 H281 0.930 . S
C291 C284 1.409 . S
C291 C290 1.362 . S
H292 C298 0.930 . S
H293 C301 0.930 . S
H294 C302 0.930 . S
H295 C303 0.928 1_565 S
H296 C306 0.930 1_565 S
H297 C307 0.930 . S
C298 H292 0.930 . S
C298 C299 1.355 . S
C298 C300 1.415 . S
C299 C298 1.355 . S
C299 C301 1.419 . S
C300 C298 1.415 . S
C300 C305 1.425 . S
C300 C307 1.409 . S
C301 H293 0.930 . S
C301 C299 1.419 . S
C301 C302 1.362 . S
C302 H294 0.930 . S
C302 C301 1.362 . S
C302 C305 1.409 . S
C303 H295 0.928 1_545 S
C303 C304 1.355 1_545 S
C303 C305 1.415 . S
C304 C303 1.355 1_565 S
C304 C306 1.419 1_565 S
C305 C300 1.425 . S
C305 C302 1.409 . S
C305 C303 1.415 . S
C306 H296 0.930 1_545 S
C306 C304 1.419 1_545 S
C306 C307 1.362 . S
C307 H297 0.930 . S
C307 C300 1.409 . S
C307 C306 1.362 . S
H308 C314 0.946 . S
H309 C317 0.930 . S
H310 C318 0.930 . S
H311 C319 0.930 . S
H312 C322 0.930 . S
H313 C323 0.930 . S
C314 H308 0.946 . S
C314 C315 1.360 . S
C314 C316 1.394 1_556 S
C315 C314 1.360 . S
C315 C317 1.419 1_556 S
C316 C314 1.394 1_554 S
C316 C321 1.425 . S
C316 C323 1.409 . S
C317 H309 0.930 . S
C317 C315 1.419 1_554 S
C317 C318 1.362 . S
C318 H310 0.930 . S
C318 C317 1.362 . S
C318 C321 1.409 . S
C319 H311 0.930 . S
C319 C320 1.355 . S
C319 C321 1.415 . S
C320 C319 1.355 . S
C320 C322 1.419 . S
C321 C316 1.425 . S
C321 C318 1.409 . S
C321 C319 1.415 . S
C322 H312 0.930 . S
C322 C320 1.419 . S
C322 C323 1.362 . S
C323 H313 0.930 . S
C323 C316 1.409 . S
C323 C322 1.362 . S
H324 C330 0.930 . S
H325 C333 0.930 . S
H326 C334 0.930 . S
H327 C335 0.930 . S
H328 C338 0.930 . S
H329 C339 0.930 . S
C330 H324 0.930 . S
C330 C331 1.355 . S
C330 C332 1.415 . S
C331 C330 1.355 . S
C331 C333 1.419 . S
C332 C330 1.415 . S
C332 C337 1.425 . S
C332 C339 1.409 . S
C333 H325 0.930 . S
C333 C331 1.419 . S
C333 C334 1.362 . S
C334 H326 0.930 . S
C334 C333 1.362 . S
C334 C337 1.409 . S
C335 H327 0.930 . S
C335 C336 1.355 . S
C335 C337 1.415 . S
C336 C335 1.355 . S
C336 C338 1.419 . S
C337 C332 1.425 . S
C337 C334 1.409 . S
C337 C335 1.415 . S
C338 H328 0.930 . S
C338 C336 1.419 . S
C338 C339 1.362 . S
C339 H329 0.930 . S
C339 C332 1.409 . S
C339 C338 1.362 . S
H340 C346 0.930 . S
H341 C349 0.930 . S
H342 C350 0.930 . S
H343 C351 0.930 . S
H344 C354 0.930 . S
H345 C355 0.930 . S
C346 H340 0.930 . S
C346 C347 1.355 . S
C346 C348 1.415 1_554 S
C347 C346 1.355 . S
C347 C349 1.419 1_554 S
C348 C346 1.415 1_556 S
C348 C353 1.425 . S
C348 C355 1.409 . S
C349 H341 0.930 . S
C349 C347 1.419 1_556 S
C349 C350 1.362 . S
C350 H342 0.930 . S
C350 C349 1.362 . S
C350 C353 1.409 . S
C351 H343 0.930 . S
C351 C352 1.355 . S
C351 C353 1.415 . S
C352 C351 1.355 . S
C352 C354 1.419 . S
C353 C348 1.425 . S
C353 C350 1.409 . S
C353 C351 1.415 . S
C354 H344 0.930 . S
C354 C352 1.419 . S
C354 C355 1.362 . S
C355 H345 0.930 . S
C355 C348 1.409 . S
C355 C354 1.362 . S
H356 C362 0.930 . S
H357 C365 0.930 . S
H358 C366 0.930 . S
H359 C367 0.930 . S
H360 C370 0.930 . S
H361 C371 0.930 . S
C362 H356 0.930 . S
C362 C363 1.355 . S
C362 C364 1.415 . S
C363 C362 1.355 . S
C363 C365 1.419 . S
C364 C362 1.415 . S
C364 C369 1.425 . S
C364 C371 1.409 . S
C365 H357 0.930 . S
C365 C363 1.419 . S
C365 C366 1.362 . S
C366 H358 0.930 . S
C366 C365 1.362 . S
C366 C369 1.409 . S
C367 H359 0.930 . S
C367 C368 1.355 . S
C367 C369 1.415 . S
C368 C367 1.355 . S
C368 C370 1.419 . S
C369 C364 1.425 . S
C369 C366 1.409 . S
C369 C367 1.415 . S
C370 H360 0.930 . S
C370 C368 1.419 . S
C370 C371 1.362 . S
C371 H361 0.930 . S
C371 C364 1.409 . S
C371 C370 1.362 . S
H372 C378 0.930 . S
H373 C381 0.930 . S
H374 C382 0.930 . S
H375 C383 0.930 . S
H376 C386 0.930 . S
H377 C387 0.930 . S
C378 H372 0.930 . S
C378 C379 1.355 1_556 S
C378 C380 1.415 . S
C379 C378 1.355 1_554 S
C379 C381 1.419 . S
C380 C378 1.415 . S
C380 C385 1.425 . S
C380 C387 1.409 . S
C381 H373 0.930 . S
C381 C379 1.419 . S
C381 C382 1.362 1_554 S
C382 H374 0.930 . S
C382 C381 1.362 1_556 S
C382 C385 1.409 . S
C383 H375 0.930 . S
C383 C384 1.355 . S
C383 C385 1.415 . S
C384 C383 1.355 . S
C384 C386 1.419 . S
C385 C380 1.425 . S
C385 C382 1.409 . S
C385 C383 1.415 . S
C386 H376 0.930 . S
C386 C384 1.419 . S
C386 C387 1.362 . S
C387 H377 0.930 . S
C387 C380 1.409 . S
C387 C386 1.362 . S
H388 C394 0.930 . S
H389 C397 0.930 . S
H390 C398 0.930 . S
H391 C399 0.930 . S
H392 C402 0.930 . S
H393 C403 0.930 . S
C394 H388 0.930 . S
C394 C395 1.355 . S
C394 C396 1.415 . S
C395 C394 1.355 . S
C395 C397 1.419 . S
C396 C394 1.415 . S
C396 C401 1.425 . S
C396 C403 1.409 . S
C397 H389 0.930 . S
C397 C395 1.419 . S
C397 C398 1.362 . S
C398 H390 0.930 . S
C398 C397 1.362 . S
C398 C401 1.409 . S
C399 H391 0.930 . S
C399 C400 1.355 . S
C399 C401 1.415 . S
C400 C399 1.355 . S
C400 C402 1.419 . S
C401 C396 1.425 . S
C401 C398 1.409 . S
C401 C399 1.415 . S
C402 H392 0.930 . S
C402 C400 1.419 . S
C402 C403 1.362 . S
C403 H393 0.930 . S
C403 C396 1.409 . S
C403 C402 1.362 . S
H404 C410 0.930 1_556 S
H405 C413 0.930 1_556 S
H406 C414 0.930 . S
H407 C415 0.930 . S
H408 C418 0.930 . S
H409 C419 0.930 . S
C410 H404 0.930 1_554 S
C410 C411 1.355 1_554 S
C410 C412 1.415 . S
C411 C410 1.355 1_556 S
C411 C413 1.419 1_556 S
C412 C410 1.415 . S
C412 C417 1.425 . S
C412 C419 1.409 . S
C413 H405 0.930 1_554 S
C413 C411 1.419 1_554 S
C413 C414 1.362 . S
C414 H406 0.930 . S
C414 C413 1.362 . S
C414 C417 1.409 . S
C415 H407 0.930 . S
C415 C416 1.355 . S
C415 C417 1.415 . S
C416 C415 1.355 . S
C416 C418 1.419 . S
C417 C412 1.425 . S
C417 C414 1.409 . S
C417 C415 1.415 . S
C418 H408 0.930 . S
C418 C416 1.419 . S
C418 C419 1.362 . S
C419 H409 0.930 . S
C419 C412 1.409 . S
C419 C418 1.362 . S
H420 C426 0.930 . S
H421 C429 0.930 . S
H422 C430 0.930 . S
H423 C431 0.930 . S
H424 C434 0.930 . S
H425 C435 0.930 . S
C426 H420 0.930 . S
C426 C427 1.355 . S
C426 C428 1.415 . S
C427 C426 1.355 . S
C427 C429 1.419 . S
C428 C426 1.415 . S
C428 C433 1.425 . S
C428 C435 1.409 . S
C429 H421 0.930 . S
C429 C427 1.419 . S
C429 C430 1.362 . S
C430 H422 0.930 . S
C430 C429 1.362 . S
C430 C433 1.409 . S
C431 H423 0.930 . S
C431 C432 1.355 . S
C431 C433 1.415 . S
C432 C431 1.355 . S
C432 C434 1.419 . S
C433 C428 1.425 . S
C433 C430 1.409 . S
C433 C431 1.415 . S
C434 H424 0.930 . S
C434 C432 1.419 . S
C434 C435 1.362 . S
C435 H425 0.930 . S
C435 C428 1.409 . S
C435 C434 1.362 . S
H436 C442 0.930 . S
H437 C445 0.930 . S
H438 C446 0.930 . S
H439 C447 0.930 . S
H440 C450 0.930 . S
H441 C451 0.930 . S
C442 H436 0.930 . S
C442 C443 1.355 . S
C442 C444 1.415 . S
C443 C442 1.355 . S
C443 C445 1.419 . S
C444 C442 1.415 . S
C444 C449 1.425 . S
C444 C451 1.409 . S
C445 H437 0.930 . S
C445 C443 1.419 . S
C445 C446 1.362 . S
C446 H438 0.930 . S
C446 C445 1.362 . S
C446 C449 1.409 . S
C447 H439 0.930 . S
C447 C448 1.355 . S
C447 C449 1.415 . S
C448 C447 1.355 . S
C448 C450 1.419 . S
C449 C444 1.425 . S
C449 C446 1.409 . S
C449 C447 1.415 . S
C450 H440 0.930 . S
C450 C448 1.419 . S
C450 C451 1.362 . S
C451 H441 0.930 . S
C451 C444 1.409 . S
C451 C450 1.362 . S
H452 C458 0.930 . S
H453 C461 0.930 . S
H454 C462 0.930 . S
H455 C463 0.930 . S
H456 C466 0.930 . S
H457 C467 0.930 . S
C458 H452 0.930 . S
C458 C459 1.355 . S
C458 C460 1.415 . S
C459 C458 1.355 . S
C459 C461 1.419 . S
C460 C458 1.415 . S
C460 C465 1.425 . S
C460 C467 1.409 . S
C461 H453 0.930 . S
C461 C459 1.419 . S
C461 C462 1.362 . S
C462 H454 0.930 . S
C462 C461 1.362 . S
C462 C465 1.409 . S
C463 H455 0.930 . S
C463 C464 1.355 . S
C463 C465 1.415 . S
C464 C463 1.355 . S
C464 C466 1.419 . S
C465 C460 1.425 . S
C465 C462 1.409 . S
C465 C463 1.415 . S
C466 H456 0.930 . S
C466 C464 1.419 . S
C466 C467 1.362 . S
C467 H457 0.930 . S
C467 C460 1.409 . S
C467 C466 1.362 . S
H468 C474 0.930 . S
H469 C477 0.930 . S
H470 C478 0.930 . S
H471 C479 0.930 . S
H472 C482 0.930 . S
H473 C483 0.930 . S
C474 H468 0.930 . S
C474 C475 1.355 . S
C474 C476 1.415 . S
C475 C474 1.355 . S
C475 C477 1.419 . S
C476 C474 1.415 . S
C476 C481 1.425 . S
C476 C483 1.409 . S
C477 H469 0.930 . S
C477 C475 1.419 . S
C477 C478 1.362 . S
C478 H470 0.930 . S
C478 C477 1.362 . S
C478 C481 1.409 . S
C479 H471 0.930 . S
C479 C480 1.355 . S
C479 C481 1.415 . S
C480 C479 1.355 . S
C480 C482 1.419 . S
C481 C476 1.425 . S
C481 C478 1.409 . S
C481 C479 1.415 . S
C482 H472 0.930 . S
C482 C480 1.419 . S
C482 C483 1.362 . S
C483 H473 0.930 . S
C483 C476 1.409 . S
C483 C482 1.362 . S
H484 C490 0.930 . S
H485 C493 0.930 . S
H486 C494 0.930 . S
H487 C495 0.930 . S
H488 C498 0.930 . S
H489 C499 0.930 . S
C490 H484 0.930 . S
C490 C491 1.355 . S
C490 C492 1.415 . S
C491 C490 1.355 . S
C491 C493 1.419 . S
C492 C490 1.415 . S
C492 C497 1.425 . S
C492 C499 1.409 . S
C493 H485 0.930 . S
C493 C491 1.419 . S
C493 C494 1.362 . S
C494 H486 0.930 . S
C494 C493 1.362 . S
C494 C497 1.409 . S
C495 H487 0.930 . S
C495 C496 1.355 . S
C495 C497 1.415 . S
C496 C495 1.355 . S
C496 C498 1.419 . S
C497 C492 1.425 . S
C497 C494 1.409 . S
C497 C495 1.415 . S
C498 H488 0.930 . S
C498 C496 1.419 . S
C498 C499 1.362 . S
C499 H489 0.930 . S
C499 C492 1.409 . S
C499 C498 1.362 . S
H500 C506 0.930 . S
H501 C509 0.930 . S
H502 C510 0.930 . S
H503 C511 0.930 . S
H504 C514 0.930 . S
H505 C515 0.930 . S
C506 H500 0.930 . S
C506 C507 1.355 . S
C506 C508 1.415 . S
C507 C506 1.355 . S
C507 C509 1.419 . S
C508 C506 1.415 . S
C508 C513 1.425 . S
C508 C515 1.409 . S
C509 H501 0.930 . S
C509 C507 1.419 . S
C509 C510 1.362 . S
C510 H502 0.930 . S
C510 C509 1.362 . S
C510 C513 1.409 . S
C511 H503 0.930 . S
C511 C512 1.355 . S
C511 C513 1.415 . S
C512 C511 1.355 . S
C512 C514 1.419 . S
C513 C508 1.425 . S
C513 C510 1.409 . S
C513 C511 1.415 . S
C514 H504 0.930 . S
C514 C512 1.419 . S
C514 C515 1.362 . S
C515 H505 0.930 . S
C515 C508 1.409 . S
C515 C514 1.362 . S
H516 C522 0.930 . S
H517 C525 0.930 . S
H518 C526 0.930 . S
H519 C527 0.930 . S
H520 C530 0.930 . S
H521 C531 0.930 . S
C522 H516 0.930 . S
C522 C523 1.355 . S
C522 C524 1.415 . S
C523 C522 1.355 . S
C523 C525 1.419 . S
C524 C522 1.415 . S
C524 C529 1.425 . S
C524 C531 1.409 . S
C525 H517 0.930 . S
C525 C523 1.419 . S
C525 C526 1.362 . S
C526 H518 0.930 . S
C526 C525 1.362 . S
C526 C529 1.409 . S
C527 H519 0.930 . S
C527 C528 1.355 . S
C527 C529 1.415 . S
C528 C527 1.355 . S
C528 C530 1.419 . S
C529 C524 1.425 . S
C529 C526 1.409 . S
C529 C527 1.415 . S
C530 H520 0.930 . S
C530 C528 1.419 . S
C530 C531 1.362 . S
C531 H521 0.930 . S
C531 C524 1.409 . S
C531 C530 1.362 . S
H532 C538 0.930 . S
H533 C541 0.930 . S
H534 C542 0.930 . S
H535 C543 0.930 . S
H536 C546 0.930 . S
H537 C547 0.930 . S
C538 H532 0.930 . S
C538 C539 1.355 . S
C538 C540 1.415 . S
C539 C538 1.355 . S
C539 C541 1.419 . S
C540 C538 1.415 . S
C540 C545 1.425 . S
C540 C547 1.409 . S
C541 H533 0.930 . S
C541 C539 1.419 . S
C541 C542 1.362 . S
C542 H534 0.930 . S
C542 C541 1.362 . S
C542 C545 1.409 . S
C543 H535 0.930 . S
C543 C544 1.355 . S
C543 C545 1.415 . S
C544 C543 1.355 . S
C544 C546 1.419 . S
C545 C540 1.425 . S
C545 C542 1.409 . S
C545 C543 1.415 . S
C546 H536 0.930 . S
C546 C544 1.419 . S
C546 C547 1.362 . S
C547 H537 0.930 . S
C547 C540 1.409 . S
C547 C546 1.362 . S
H548 C554 0.930 . S
H549 C557 0.930 . S
H550 C558 0.930 . S
H551 C559 0.930 . S
H552 C562 0.930 . S
H553 C563 0.930 . S
C554 H548 0.930 . S
C554 C555 1.355 . S
C554 C556 1.415 . S
C555 C554 1.355 . S
C555 C557 1.419 . S
C556 C554 1.415 . S
C556 C561 1.425 . S
C556 C563 1.409 . S
C557 H549 0.930 . S
C557 C555 1.419 . S
C557 C558 1.362 . S
C558 H550 0.930 . S
C558 C557 1.362 . S
C558 C561 1.409 . S
C559 H551 0.930 . S
C559 C560 1.355 . S
C559 C561 1.415 . S
C560 C559 1.355 . S
C560 C562 1.419 . S
C561 C556 1.425 . S
C561 C558 1.409 . S
C561 C559 1.415 . S
C562 H552 0.930 . S
C562 C560 1.419 . S
C562 C563 1.362 . S
C563 H553 0.930 . S
C563 C556 1.409 . S
C563 C562 1.362 . S
C187 C81 1.442 . S
C192 C112 1.307 . S
C208 C120 1.354 . S
C203 C93 1.397 . S
C224 C124 1.311 . S
C219 C57 1.446 . S
C235 C69 1.385 . S
C240 C100 1.386 . S
C256 C141 1.379 . S
C251 C33 1.389 . S
C272 C175 1.374 . S
C267 C45 1.390 . S
C283 C9 1.412 . S
C288 C163 1.318 . S
C299 C21 1.442 . S
C304 C145 1.348 . S
C320 C99 1.287 . S
C315 C18 1.491 . S
C336 C133 1.362 . S
C331 C6 1.469 . S
C352 C137 1.281 . S
C347 C42 1.490 . S
C368 C115 1.300 . S
C363 C30 1.491 . S
C384 C154 1.400 . S
C379 C66 1.475 . S
C395 C54 1.468 . S
C400 C162 1.398 . S
C416 C178 1.307 . S
C411 C90 1.488 . S
C427 C78 1.480 . S
C432 C158 1.391 . S
C448 C103 1.302 . S
C443 C4 1.504 . S
C464 C121 1.298 . S
C459 C16 1.493 . S
C475 C28 1.518 . S
C480 C136 1.377 . S
C496 C116 1.355 . S
C491 C40 1.495 . S
C512 C142 1.408 . S
C507 C52 1.522 . S
C523 C64 1.505 . S
C528 C166 1.306 . S
C539 C76 1.504 . S
C544 C179 1.348 . S
C555 C88 1.505 . S
C560 C157 1.353 . S
