# Generated by pormake.
# Topology ctn, (3,4)-cn, num edge types: 1
# Building blocks:
#     Node 0, Type 0, BuildingBlock: QEWDON_clean_linker_0, # of connection points: 3
#     Node 1, Type 0, BuildingBlock: QEWDON_clean_linker_0, # of connection points: 3
#     Node 2, Type 0, BuildingBlock: QEWDON_clean_linker_0, # of connection points: 3
#     Node 3, Type 0, BuildingBlock: QEWDON_clean_linker_0, # of connection points: 3
#     Node 4, Type 0, BuildingBlock: QEWDON_clean_linker_0, # of connection points: 3
#     Node 5, Type 0, BuildingBlock: QEWDON_clean_linker_0, # of connection points: 3
#     Node 6, Type 0, BuildingBlock: QEWDON_clean_linker_0, # of connection points: 3
#     Node 7, Type 0, BuildingBlock: QEWDON_clean_linker_0, # of connection points: 3
#     Node 8, Type 0, BuildingBlock: QEWDON_clean_linker_0, # of connection points: 3
#     Node 9, Type 0, BuildingBlock: QEWDON_clean_linker_0, # of connection points: 3
#     Node 10, Type 0, BuildingBlock: QEWDON_clean_linker_0, # of connection points: 3
#     Node 11, Type 0, BuildingBlock: QEWDON_clean_linker_0, # of connection points: 3
#     Node 12, Type 0, BuildingBlock: QEWDON_clean_linker_0, # of connection points: 3
#     Node 13, Type 0, BuildingBlock: QEWDON_clean_linker_0, # of connection points: 3
#     Node 14, Type 0, BuildingBlock: QEWDON_clean_linker_0, # of connection points: 3
#     Node 15, Type 0, BuildingBlock: QEWDON_clean_linker_0, # of connection points: 3
#     Node 16, Type 1, BuildingBlock: TATPOV_clean_sbu_0, # of connection points: 4
#     Node 17, Type 1, BuildingBlock: TATPOV_clean_sbu_0, # of connection points: 4
#     Node 18, Type 1, BuildingBlock: TATPOV_clean_sbu_0, # of connection points: 4
#     Node 19, Type 1, BuildingBlock: TATPOV_clean_sbu_0, # of connection points: 4
#     Node 20, Type 1, BuildingBlock: TATPOV_clean_sbu_0, # of connection points: 4
#     Node 21, Type 1, BuildingBlock: TATPOV_clean_sbu_0, # of connection points: 4
#     Node 22, Type 1, BuildingBlock: TATPOV_clean_sbu_0, # of connection points: 4
#     Node 23, Type 1, BuildingBlock: TATPOV_clean_sbu_0, # of connection points: 4
#     Node 24, Type 1, BuildingBlock: TATPOV_clean_sbu_0, # of connection points: 4
#     Node 25, Type 1, BuildingBlock: TATPOV_clean_sbu_0, # of connection points: 4
#     Node 26, Type 1, BuildingBlock: TATPOV_clean_sbu_0, # of connection points: 4
#     Node 27, Type 1, BuildingBlock: TATPOV_clean_sbu_0, # of connection points: 4
#     Edge 28, Type (0, 1), BuildingBlock: TEMPAE_clean_linker_10, # of connection points: 2
#     Edge 29, Type (0, 1), BuildingBlock: TEMPAE_clean_linker_10, # of connection points: 2
#     Edge 30, Type (0, 1), BuildingBlock: TEMPAE_clean_linker_10, # of connection points: 2
#     Edge 31, Type (0, 1), BuildingBlock: TEMPAE_clean_linker_10, # of connection points: 2
#     Edge 32, Type (0, 1), BuildingBlock: TEMPAE_clean_linker_10, # of connection points: 2
#     Edge 33, Type (0, 1), BuildingBlock: TEMPAE_clean_linker_10, # of connection points: 2
#     Edge 34, Type (0, 1), BuildingBlock: TEMPAE_clean_linker_10, # of connection points: 2
#     Edge 35, Type (0, 1), BuildingBlock: TEMPAE_clean_linker_10, # of connection points: 2
#     Edge 36, Type (0, 1), BuildingBlock: TEMPAE_clean_linker_10, # of connection points: 2
#     Edge 37, Type (0, 1), BuildingBlock: TEMPAE_clean_linker_10, # of connection points: 2
#     Edge 38, Type (0, 1), BuildingBlock: TEMPAE_clean_linker_10, # of connection points: 2
#     Edge 39, Type (0, 1), BuildingBlock: TEMPAE_clean_linker_10, # of connection points: 2
#     Edge 40, Type (0, 1), BuildingBlock: TEMPAE_clean_linker_10, # of connection points: 2
#     Edge 41, Type (0, 1), BuildingBlock: TEMPAE_clean_linker_10, # of connection points: 2
#     Edge 42, Type (0, 1), BuildingBlock: TEMPAE_clean_linker_10, # of connection points: 2
#     Edge 43, Type (0, 1), BuildingBlock: TEMPAE_clean_linker_10, # of connection points: 2
#     Edge 44, Type (0, 1), BuildingBlock: TEMPAE_clean_linker_10, # of connection points: 2
#     Edge 45, Type (0, 1), BuildingBlock: TEMPAE_clean_linker_10, # of connection points: 2
#     Edge 46, Type (0, 1), BuildingBlock: TEMPAE_clean_linker_10, # of connection points: 2
#     Edge 47, Type (0, 1), BuildingBlock: TEMPAE_clean_linker_10, # of connection points: 2
#     Edge 48, Type (0, 1), BuildingBlock: TEMPAE_clean_linker_10, # of connection points: 2
#     Edge 49, Type (0, 1), BuildingBlock: TEMPAE_clean_linker_10, # of connection points: 2
#     Edge 50, Type (0, 1), BuildingBlock: TEMPAE_clean_linker_10, # of connection points: 2
#     Edge 51, Type (0, 1), BuildingBlock: TEMPAE_clean_linker_10, # of connection points: 2
#     Edge 52, Type (0, 1), BuildingBlock: TEMPAE_clean_linker_10, # of connection points: 2
#     Edge 53, Type (0, 1), BuildingBlock: TEMPAE_clean_linker_10, # of connection points: 2
#     Edge 54, Type (0, 1), BuildingBlock: TEMPAE_clean_linker_10, # of connection points: 2
#     Edge 55, Type (0, 1), BuildingBlock: TEMPAE_clean_linker_10, # of connection points: 2
#     Edge 56, Type (0, 1), BuildingBlock: TEMPAE_clean_linker_10, # of connection points: 2
#     Edge 57, Type (0, 1), BuildingBlock: TEMPAE_clean_linker_10, # of connection points: 2
#     Edge 58, Type (0, 1), BuildingBlock: TEMPAE_clean_linker_10, # of connection points: 2
#     Edge 59, Type (0, 1), BuildingBlock: TEMPAE_clean_linker_10, # of connection points: 2
#     Edge 60, Type (0, 1), BuildingBlock: TEMPAE_clean_linker_10, # of connection points: 2
#     Edge 61, Type (0, 1), BuildingBlock: TEMPAE_clean_linker_10, # of connection points: 2
#     Edge 62, Type (0, 1), BuildingBlock: TEMPAE_clean_linker_10, # of connection points: 2
#     Edge 63, Type (0, 1), BuildingBlock: TEMPAE_clean_linker_10, # of connection points: 2
#     Edge 64, Type (0, 1), BuildingBlock: TEMPAE_clean_linker_10, # of connection points: 2
#     Edge 65, Type (0, 1), BuildingBlock: TEMPAE_clean_linker_10, # of connection points: 2
#     Edge 66, Type (0, 1), BuildingBlock: TEMPAE_clean_linker_10, # of connection points: 2
#     Edge 67, Type (0, 1), BuildingBlock: TEMPAE_clean_linker_10, # of connection points: 2
#     Edge 68, Type (0, 1), BuildingBlock: TEMPAE_clean_linker_10, # of connection points: 2
#     Edge 69, Type (0, 1), BuildingBlock: TEMPAE_clean_linker_10, # of connection points: 2
#     Edge 70, Type (0, 1), BuildingBlock: TEMPAE_clean_linker_10, # of connection points: 2
#     Edge 71, Type (0, 1), BuildingBlock: TEMPAE_clean_linker_10, # of connection points: 2
#     Edge 72, Type (0, 1), BuildingBlock: TEMPAE_clean_linker_10, # of connection points: 2
#     Edge 73, Type (0, 1), BuildingBlock: TEMPAE_clean_linker_10, # of connection points: 2
#     Edge 74, Type (0, 1), BuildingBlock: TEMPAE_clean_linker_10, # of connection points: 2
#     Edge 75, Type (0, 1), BuildingBlock: TEMPAE_clean_linker_10, # of connection points: 2
# Relax obj value: 0.113
# Max RMSD: 0.278
# Mean RMSD: 0.152
data_MOF--net-ctn--node1-TATPOV_clean_sbu_0--node2-QEWDON_clean_linker_0--edge1-TEMPAE_clean_linker_10
_symmetry_space_group_name_H-M    P1
_symmetry_Int_Tables_number       1
_symmetry_cell_setting            triclinic
loop_
_symmetry_equiv_pos_as_xyz
'x, y, z'
_cell_length_a     52.980924
_cell_length_b     55.441661
_cell_length_c     59.076706
_cell_angle_alpha  99.56781
_cell_angle_beta   92.936368
_cell_angle_gamma 97.317707
loop_
_atom_site_label
_atom_site_type_symbol
_atom_site_fract_x
_atom_site_fract_y
_atom_site_fract_z
_atom_type_partial_charge
H0 H 0.11302 0.02195 0.04366 0.0
C1 C 0.09814 0.02071 0.05552 0.0
C2 C 0.09281 0.99921 0.06516 0.0
C3 C 0.08575 0.04138 0.06227 0.0
H4 H 0.07017 0.98211 0.08904 0.0
C5 C 0.07454 0.99866 0.08167 0.0
C6 C 0.06206 0.01934 0.0889 0.0
C7 C 0.06773 0.04058 0.07885 0.0
C8 C 0.09554 0.06526 0.05564 0.0
H9 H 0.05936 0.0571 0.08493 0.0
C10 C 0.08332 0.07469 0.03785 0.0
C11 C 0.09339 0.09772 0.03232 0.0
C12 C 0.1178 0.07877 0.06762 0.0
H13 H 0.12744 0.07177 0.08128 0.0
C14 C 0.12782 0.10137 0.06217 0.0
H15 H 0.0661 0.06431 0.02857 0.0
C16 C 0.11577 0.1108 0.0447 0.0
H17 H 0.12424 0.12826 0.04065 0.0
H18 H 0.14505 0.11162 0.07148 0.0
H19 H 0.34796 0.74094 0.25799 0.0
C20 C 0.33397 0.72455 0.25626 0.0
C21 C 0.34081 0.70304 0.26323 0.0
C22 C 0.30904 0.72522 0.24728 0.0
H23 H 0.32703 0.6659 0.26741 0.0
C24 C 0.32224 0.68217 0.26114 0.0
C25 C 0.29711 0.68262 0.25247 0.0
C26 C 0.29071 0.7042 0.24533 0.0
C27 C 0.30151 0.74883 0.24267 0.0
H28 H 0.27132 0.70494 0.23895 0.0
C29 C 0.29611 0.75282 0.22007 0.0
C30 C 0.29009 0.77599 0.2162 0.0
C31 C 0.30029 0.76783 0.26132 0.0
H32 H 0.30436 0.76505 0.2788 0.0
C33 C 0.29368 0.79047 0.25763 0.0
H34 H 0.2975 0.73831 0.20562 0.0
C35 C 0.28867 0.79459 0.23528 0.0
H36 H 0.2837 0.81241 0.23291 0.0
H37 H 0.29262 0.80497 0.27214 0.0
H38 H 0.06166 0.47093 0.05008 0.0
C39 C 0.04662 0.482 0.04765 0.0
C40 C 0.03225 0.49015 0.06612 0.0
C41 C 0.04252 0.48874 0.02609 0.0
H42 H 1.00164 0.51126 0.07628 0.0
C43 C 0.01329 0.50512 0.06249 0.0
C44 C 0.00951 0.51247 0.04104 0.0
C45 C 0.02427 0.5043 0.02301 0.0
C46 C 0.0571 0.47922 0.00665 0.0
H47 H 0.02097 0.50946 0.0063 0.0
C48 C 0.05786 0.4537 1.00058 0.0
C49 C 0.07063 0.44435 0.98142 0.0
C50 C 0.06966 0.49548 0.99371 0.0
H51 H 0.06934 0.5152 0.99813 0.0
C52 C 0.08283 0.4864 0.975 0.0
H53 H 0.04806 0.44114 0.01053 0.0
C54 C 0.08325 0.46104 0.96879 0.0
H55 H 0.09288 0.45449 0.95371 0.0
H56 H 0.09244 0.49903 0.96506 0.0
H57 H 0.81172 0.77684 0.24441 0.0
C58 C 0.81284 0.76853 0.22659 0.0
C59 C 0.81909 0.78359 0.21016 0.0
C60 C 0.80864 0.74272 0.2202 0.0
H61 H 0.82606 0.78403 0.1746 0.0
C62 C 0.82057 0.77252 0.18717 0.0
C63 C 0.81643 0.7467 0.18053 0.0
C64 C 0.81054 0.73194 0.19724 0.0
C65 C 0.8034 0.7268 0.23762 0.0
H66 H 0.80719 0.712 0.1924 0.0
C67 C 0.78075 0.72677 0.249 0.0
C68 C 0.77568 0.71119 0.26528 0.0
C69 C 0.82101 0.71119 0.2426 0.0
H70 H 0.83852 0.71089 0.23391 0.0
C71 C 0.81626 0.69602 0.25899 0.0
H72 H 0.76705 0.73873 0.24508 0.0
C73 C 0.79377 0.69602 0.27032 0.0
H74 H 0.7903 0.68385 0.28273 0.0
H75 H 0.83 0.68411 0.26282 0.0
H76 H 0.12161 0.96298 0.4683 0.0
C77 C 0.10855 0.96734 0.45533 0.0
C78 C 0.11319 0.98994 0.44739 0.0
C79 C 0.08788 0.94964 0.44569 0.0
H80 H 0.09919 0.01252 0.42452 0.0
C81 C 0.09587 0.99506 0.43051 0.0
C82 C 0.07499 0.97751 0.42059 0.0
C83 C 0.07138 0.95465 0.42824 0.0
C84 C 0.08583 0.92459 0.45143 0.0
H85 H 0.05627 0.9403 0.42016 0.0
C86 C 0.0756 0.91932 0.47189 0.0
C87 C 0.07414 0.89522 0.47707 0.0
C88 C 0.09475 0.90586 0.43626 0.0
H89 H 0.10274 0.90969 0.4205 0.0
C90 C 0.09379 0.88218 0.44146 0.0
H91 H 0.0684 0.93379 0.48338 0.0
C92 C 0.08369 0.87688 0.4617 0.0
H93 H 0.08356 0.85837 0.46537 0.0
H94 H 0.10099 0.86788 0.42979 0.0
H95 H 0.28343 0.70851 0.75276 0.0
C96 C 0.27884 0.71555 0.77008 0.0
C97 C 0.28837 0.70567 0.78867 0.0
C98 C 0.2637 0.73469 0.77355 0.0
H99 H 0.29033 0.70853 0.82571 0.0
C100 C 0.28305 0.71581 0.81113 0.0
C101 C 0.26778 0.73493 0.8149 0.0
C102 C 0.25777 0.74395 0.79595 0.0
C103 C 0.25561 0.74587 0.75373 0.0
H104 H 0.24645 0.75901 0.79873 0.0
C105 C 0.22973 0.74758 0.74844 0.0
C106 C 0.22234 0.75681 0.72861 0.0
C107 C 0.27405 0.75418 0.73948 0.0
H108 H 0.29407 0.7532 0.74332 0.0
C109 C 0.26687 0.76389 0.72022 0.0
H110 H 0.21537 0.74084 0.75916 0.0
C111 C 0.24122 0.76511 0.71472 0.0
H112 H 0.23612 0.77263 0.69959 0.0
H113 H 0.28124 0.77033 0.7094 0.0
H114 H 0.96504 0.60432 0.47499 0.0
C115 C 0.95417 0.58755 0.47841 0.0
C116 C 0.94616 0.58628 0.50054 0.0
C117 C 0.94798 0.56753 0.46033 0.0
H118 H 0.92486 0.56338 0.5211 0.0
C119 C 0.93216 0.5642 0.50441 0.0
C120 C 0.92628 0.5436 0.48656 0.0
C121 C 0.93456 0.54543 0.46452 0.0
C122 C 0.95336 0.57096 0.43669 0.0
H123 H 0.93 0.52998 0.45044 0.0
C124 C 0.9698 0.55699 0.42384 0.0
C125 C 0.9755 0.56146 0.40171 0.0
C126 C 0.94241 0.58916 0.42723 0.0
H127 H 0.92972 0.60011 0.43689 0.0
C128 C 0.9477 0.59341 0.40526 0.0
H129 H 0.9783 0.54298 0.43116 0.0
C130 C 0.96419 0.57976 0.3926 0.0
H131 H 0.96848 0.5839 0.37581 0.0
H132 H 0.93922 0.60752 0.39813 0.0
H133 H 0.86478 0.85651 0.82265 0.0
C134 C 0.86235 0.84042 0.83091 0.0
C135 C 0.87393 0.81946 0.82266 0.0
C136 C 0.84826 0.84126 0.85042 0.0
H137 H 0.87889 0.78258 0.82807 0.0
C138 C 0.87101 0.79927 0.83448 0.0
C139 C 0.85731 0.80006 0.8543 0.0
C140 C 0.84596 0.82115 0.86212 0.0
C141 C 0.8365 0.86353 0.85898 0.0
H142 H 0.83541 0.82199 0.87742 0.0
C143 C 0.81858 0.87198 0.84483 0.0
C144 C 0.80699 0.89291 0.85321 0.0
C145 C 0.84306 0.87627 0.8815 0.0
H146 H 0.85686 0.87007 0.89262 0.0
C147 C 0.83216 0.89733 0.88971 0.0
H148 H 0.81308 0.86173 0.82764 0.0
C149 C 0.8143 0.90563 0.87573 0.0
H150 H 0.80625 0.9221 0.88256 0.0
H151 H 0.83753 0.90723 0.90702 0.0
H152 H 0.37319 0.35048 0.31191 0.0
C153 C 0.3718 0.33558 0.32176 0.0
C154 C 0.38336 0.31438 0.31453 0.0
C155 C 0.35865 0.33784 0.34183 0.0
H156 H 0.3897 0.27867 0.32208 0.0
C157 C 0.38099 0.29514 0.32749 0.0
C158 C 0.36733 0.29698 0.34738 0.0
C159 C 0.35646 0.31854 0.35453 0.0
C160 C 0.34796 0.36077 0.35013 0.0
H161 H 0.34634 0.32039 0.37009 0.0
C162 C 0.32855 0.36839 0.33696 0.0
C163 C 0.31783 0.38982 0.34544 0.0
C164 C 0.35695 0.37488 0.37165 0.0
H165 H 0.3719 0.36929 0.38201 0.0
C166 C 0.34691 0.39645 0.37986 0.0
H167 H 0.32123 0.35714 0.32058 0.0
C168 C 0.32749 0.4039 0.36691 0.0
H169 H 0.32005 0.42073 0.37371 0.0
H170 H 0.3541 0.40737 0.39639 0.0
H171 H 0.56418 0.97253 0.5415 0.0
C172 C 0.54876 0.9832 0.53924 0.0
C173 C 0.53501 0.99176 0.55805 0.0
C174 C 0.54345 0.98903 0.51748 0.0
H175 H 0.50434 0.01263 0.5686 0.0
C176 C 0.5155 0.00619 0.55453 0.0
C177 C 0.51047 0.01259 0.53284 0.0
C178 C 0.52458 0.00394 0.51448 0.0
C179 C 0.55729 0.97923 0.49765 0.0
H180 H 0.52031 0.00822 0.49755 0.0
C181 C 0.55784 0.95368 0.49166 0.0
C182 C 0.56899 0.94412 0.47162 0.0
C183 C 0.56875 0.99524 0.48387 0.0
H184 H 0.56856 0.01498 0.48824 0.0
C185 C 0.58047 0.98587 0.46432 0.0
H186 H 0.54851 0.94118 0.50193 0.0
C187 C 0.58045 0.96046 0.4581 0.0
H188 H 0.58933 0.95352 0.44266 0.0
H189 H 0.5893 0.9983 0.45379 0.0
H190 H 0.30773 0.2824 0.74254 0.0
C191 C 0.30861 0.27229 0.7253 0.0
C192 C 0.31577 0.28503 0.70738 0.0
C193 C 0.30318 0.24642 0.72119 0.0
H194 H 0.32274 0.28105 0.67133 0.0
C195 C 0.31698 0.27149 0.68521 0.0
C196 C 0.31133 0.24562 0.68088 0.0
C197 C 0.30448 0.23321 0.69899 0.0
C198 C 0.29817 0.23294 0.74041 0.0
H199 H 0.30076 0.2132 0.69596 0.0
C200 C 0.27493 0.23292 0.75089 0.0
C201 C 0.2704 0.21986 0.76915 0.0
C202 C 0.31682 0.2198 0.7482 0.0
H203 H 0.33479 0.21955 0.74024 0.0
C204 C 0.31253 0.20707 0.76643 0.0
H205 H 0.26047 0.24301 0.74485 0.0
C206 C 0.28951 0.20712 0.77692 0.0
H207 H 0.28645 0.19688 0.79087 0.0
H208 H 0.32705 0.19705 0.77241 0.0
H209 H 0.84775 0.24373 0.75563 0.0
C210 C 0.83388 0.22727 0.75094 0.0
C211 C 0.83943 0.20457 0.75632 0.0
C212 C 0.81007 0.22923 0.74022 0.0
H213 H 0.82424 0.16626 0.75485 0.0
C214 C 0.82049 0.18387 0.75081 0.0
C215 C 0.79619 0.1858 0.74116 0.0
C216 C 0.79125 0.20847 0.73547 0.0
C217 C 0.80403 0.25366 0.73633 0.0
H218 H 0.7725 0.21021 0.72819 0.0
C219 C 0.79825 0.25827 0.714 0.0
C220 C 0.79357 0.28203 0.71067 0.0
C221 C 0.8045 0.27271 0.7553 0.0
H222 H 0.80881 0.2695 0.77259 0.0
C223 C 0.79917 0.29596 0.75217 0.0
H224 H 0.79837 0.24372 0.6993 0.0
C225 C 0.7938 0.30064 0.73008 0.0
H226 H 0.78983 0.31892 0.72817 0.0
H227 H 0.79937 0.31048 0.76692 0.0
H228 H 0.60936 0.52183 0.54254 0.0
C229 C 0.59437 0.52024 0.55425 0.0
C230 C 0.58964 0.4988 0.56408 0.0
C231 C 0.5812 0.54041 0.5606 0.0
H232 H 0.56802 0.48168 0.58861 0.0
C233 C 0.57129 0.49787 0.58055 0.0
C234 C 0.55777 0.51801 0.58716 0.0
C235 C 0.56279 0.53909 0.57675 0.0
C236 C 0.59032 0.56445 0.55401 0.0
H237 H 0.553 0.55495 0.58172 0.0
C238 C 0.57912 0.57258 0.53493 0.0
C239 C 0.58832 0.59594 0.52963 0.0
C240 C 0.61076 0.57953 0.56748 0.0
H241 H 0.61957 0.57354 0.58217 0.0
C242 C 0.61999 0.60244 0.56221 0.0
H243 H 0.56326 0.56099 0.52454 0.0
C244 C 0.60892 0.61061 0.54349 0.0
H245 H 0.61673 0.62839 0.53966 0.0
H246 H 0.63584 0.61391 0.57268 0.0
H247 H 0.62483 0.45589 0.95277 0.0
C248 C 0.60975 0.46223 0.94319 0.0
C249 C 0.61392 0.48526 0.93585 0.0
C250 C 0.58674 0.44642 0.93672 0.0
H251 H 0.59717 0.51005 0.91674 0.0
C252 C 0.59429 0.49241 0.92247 0.0
C253 C 0.57138 0.47655 0.9155 0.0
C254 C 0.56772 0.45368 0.92295 0.0
C255 C 0.58349 0.42101 0.94174 0.0
H256 H 0.55015 0.4412 0.91777 0.0
C257 C 0.58137 0.41635 0.96434 0.0
C258 C 0.57632 0.39183 0.96843 0.0
C259 C 0.58124 0.40115 0.92331 0.0
H260 H 0.5828 0.40441 0.90582 0.0
C261 C 0.57672 0.37696 0.92722 0.0
H262 H 0.58314 0.43176 0.97852 0.0
C263 C 0.57404 0.37229 0.94949 0.0
H264 H 0.56945 0.35327 0.95171 0.0
H265 H 0.5748 0.36175 0.91287 0.0
H266 H 0.78626 0.20329 0.25165 0.0
C267 C 0.78156 0.21118 0.26871 0.0
C268 C 0.79066 0.20209 0.28794 0.0
C269 C 0.76678 0.23062 0.2712 0.0
H270 H 0.79222 0.20661 0.32509 0.0
C271 C 0.78522 0.21328 0.31004 0.0
C272 C 0.77023 0.23268 0.31282 0.0
C273 C 0.76069 0.24095 0.29325 0.0
C274 C 0.75927 0.241 0.2507 0.0
H275 H 0.74963 0.25623 0.29525 0.0
C276 C 0.73356 0.2429 0.24487 0.0
C277 C 0.72672 0.25128 0.22444 0.0
C278 C 0.77809 0.2483 0.23636 0.0
H279 H 0.798 0.24717 0.2406 0.0
C280 C 0.77146 0.2572 0.21647 0.0
H281 H 0.7189 0.23693 0.25567 0.0
C282 C 0.74597 0.25858 0.21045 0.0
H283 H 0.74128 0.26543 0.19484 0.0
H284 H 0.78611 0.26286 0.20558 0.0
H285 H 0.46463 0.08886 0.9674 0.0
C286 C 0.45303 0.07378 0.97311 0.0
C287 C 0.44795 0.07529 0.99646 0.0
C288 C 0.44218 0.05333 0.95677 0.0
H289 H 0.42763 0.0567 0.02092 0.0
C290 C 0.43258 0.0554 0.00323 0.0
C291 C 0.42225 0.03441 0.98707 0.0
C292 C 0.42725 0.03364 0.96386 0.0
C293 C 0.44383 0.0535 0.93191 0.0
H294 H 0.41937 0.01774 0.95107 0.0
C295 C 0.46719 0.05304 0.92166 0.0
C296 C 0.46796 0.05166 0.89761 0.0
C297 C 0.42135 0.05327 0.91821 0.0
H298 H 0.40321 0.05365 0.92586 0.0
C299 C 0.42203 0.05245 0.89458 0.0
H300 H 0.48451 0.05324 0.93231 0.0
C301 C 0.44505 0.05145 0.8843 0.0
H302 H 0.44469 0.04977 0.86576 0.0
H303 H 0.40457 0.05212 0.88412 0.0
Zn304 Zn 0.30154 0.82942 0.01624 0.0
Zn305 Zn 0.26154 0.85365 0.02244 0.0
O306 O 0.26337 0.83552 0.05097 0.0
O307 O 0.29786 0.8175 0.04619 0.0
O308 O 0.2328 0.87484 0.02819 0.0
O309 O 0.3246 0.86098 0.01458 0.0
O310 O 0.29185 0.88094 0.02203 0.0
C311 C 0.27929 0.82234 0.05798 0.0
C312 C 0.26342 0.81427 0.97884 0.0
O313 O 0.25257 0.83154 0.98979 0.0
O314 O 0.28397 0.80883 0.98723 0.0
C315 C 0.20892 0.86784 0.02785 0.0
O316 O 0.20035 0.84412 0.02314 0.0
C317 C 0.31533 0.8811 0.0182 0.0
Zn318 Zn 0.1111 0.44501 0.26203 0.0
Zn319 Zn 0.13844 0.49004 0.26217 0.0
O320 O 0.11461 0.49786 0.288 0.0
O321 O 0.0939 0.46112 0.28944 0.0
O322 O 0.15911 0.52264 0.25989 0.0
O323 O 0.14449 0.4314 0.26738 0.0
O324 O 0.16558 0.46868 0.26973 0.0
C325 C 0.0982 0.48416 0.29699 0.0
C326 C 0.10303 0.46316 0.21992 0.0
O327 O 0.11974 0.48067 0.23011 0.0
O328 O 0.09541 0.44531 0.22988 0.0
C329 C 0.17666 0.53366 0.27491 0.0
O330 O 0.18121 0.524 0.29332 0.0
C331 C 0.16537 0.44591 0.2709 0.0
Zn332 Zn 0.83792 0.59984 0.93751 0.0
Zn333 Zn 0.82956 0.62812 0.97738 0.0
O334 O 0.86024 0.61123 0.98616 0.0
O335 O 0.86846 0.58934 0.95345 0.0
O336 O 0.82323 0.64825 0.00764 0.0
O337 O 0.8413 0.63073 0.9228 0.0
O338 O 0.8363 0.65372 0.95598 0.0
C339 C 0.87357 0.59648 0.97489 0.0
C340 C 0.78866 0.5859 0.95354 0.0
O341 O 0.79592 0.60452 0.96931 0.0
O342 O 0.80329 0.5796 0.93796 0.0
C343 C 0.83964 0.66582 0.01808 0.0
O344 O 0.86098 0.6714 0.00852 0.0
C345 C 0.84017 0.65179 0.93467 0.0
Zn346 Zn 0.89115 0.00825 0.29482 0.0
Zn347 Zn 0.91648 0.01242 0.25771 0.0
O348 O 0.89673 0.0436 0.26227 0.0
O349 O 0.87475 0.03802 0.29206 0.0
O350 O 0.93561 0.0139 0.22856 0.0
O351 O 0.92408 0.01173 0.31428 0.0
O352 O 0.94512 0.01197 0.28304 0.0
C353 C 0.88066 0.05058 0.27663 0.0
C354 C 0.87823 0.96569 0.26014 0.0
O355 O 0.894 0.97815 0.2494 0.0
O356 O 0.87335 0.97459 0.28033 0.0
C357 C 0.95473 0.02985 0.22709 0.0
O358 O 0.96244 0.04719 0.24498 0.0
C359 C 0.94488 0.01215 0.30466 0.0
Zn360 Zn 0.33301 0.10104 0.43603 0.0
Zn361 Zn 0.3299 0.13131 0.47642 0.0
O362 O 0.35957 0.11258 0.48345 0.0
O363 O 0.36168 0.08674 0.45127 0.0
O364 O 0.32693 0.1533 0.50674 0.0
O365 O 0.34047 0.13119 0.4209 0.0
O366 O 0.33714 0.1556 0.45374 0.0
C367 C 0.36966 0.0952 0.47202 0.0
C368 C 0.28425 0.09279 0.45486 0.0
O369 O 0.29488 0.1096 0.47114 0.0
O370 O 0.29628 0.08607 0.43743 0.0
C371 C 0.32896 0.1446 0.52526 0.0
O372 O 0.33311 0.12158 0.52414 0.0
C373 C 0.34095 0.15273 0.43236 0.0
Zn374 Zn 0.38165 0.50767 0.78897 0.0
Zn375 Zn 0.41233 0.51468 0.75659 0.0
O376 O 0.39257 0.5459 0.7598 0.0
O377 O 0.36773 0.53894 0.78744 0.0
O378 O 0.43709 0.51796 0.73131 0.0
O379 O 0.41075 0.50703 0.8117 0.0
O380 O 0.43695 0.51379 0.78504 0.0
C381 C 0.37546 0.55244 0.77323 0.0
C382 C 0.37206 0.46761 0.7522 0.0
O383 O 0.39062 0.4802 0.74453 0.0
O384 O 0.36364 0.47593 0.77115 0.0
C385 C 0.43046 0.51937 0.71058 0.0
O386 O 0.40629 0.51995 0.7048 0.0
C387 C 0.43326 0.51023 0.8055 0.0
Zn388 Zn 0.80386 0.33615 0.51084 0.0
Zn389 Zn 0.76383 0.36017 0.51683 0.0
O390 O 0.76646 0.34273 0.54578 0.0
O391 O 0.801 0.32478 0.54108 0.0
O392 O 0.73464 0.38085 0.52287 0.0
O393 O 0.82666 0.36752 0.50824 0.0
O394 O 0.79387 0.38757 0.51517 0.0
C395 C 0.78252 0.32977 0.55293 0.0
C396 C 0.76527 0.31974 0.47399 0.0
O397 O 0.75437 0.33715 0.48465 0.0
O398 O 0.78608 0.3148 0.48234 0.0
C399 C 0.7113 0.37297 0.52471 0.0
O400 O 0.70404 0.34905 0.52209 0.0
C401 C 0.81731 0.38762 0.51116 0.0
Zn402 Zn 0.60902 0.95144 0.75696 0.0
Zn403 Zn 0.63745 0.99587 0.75734 0.0
O404 O 0.6135 0.00504 0.78278 0.0
O405 O 0.59016 0.96904 0.78239 0.0
O406 O 0.6583 0.02793 0.75389 0.0
O407 O 0.64185 0.9379 0.76489 0.0
O408 O 0.66399 0.97463 0.76657 0.0
C409 C 0.59548 0.99191 0.79048 0.0
C410 C 0.60329 0.96786 0.71418 0.0
O411 O 0.61937 0.98563 0.72492 0.0
O412 O 0.59527 0.95003 0.724 0.0
C413 C 0.67689 0.03905 0.76772 0.0
O414 O 0.68286 0.0299 0.7861 0.0
C415 C 0.66297 0.95203 0.76872 0.0
Zn416 Zn 0.05489 0.24901 0.84087 0.0
Zn417 Zn 0.05865 0.22088 0.87135 0.0
O418 O 0.09128 0.21801 0.85263 0.0
O419 O 0.08876 0.24491 0.82936 0.0
O420 O 0.06269 0.19762 0.8945 0.0
O421 O 0.05227 0.27777 0.86552 0.0
O422 O 0.05964 0.25538 0.89195 0.0
C423 C 0.1008 0.22955 0.83733 0.0
C424 C 0.01214 0.21312 0.8352 0.0
O425 O 0.0226 0.20858 0.85374 0.0
O426 O 0.02328 0.22903 0.82476 0.0
C427 C 0.04458 0.18783 0.90482 0.0
O428 O 0.02128 0.19245 0.90045 0.0
C429 C 0.05595 0.27607 0.8865 0.0
Zn430 Zn 0.56735 0.75337 0.34263 0.0
Zn431 Zn 0.56486 0.71921 0.36864 0.0
O432 O 0.59818 0.71589 0.35099 0.0
O433 O 0.59966 0.74532 0.33003 0.0
O434 O 0.56589 0.6934 0.38957 0.0
O435 O 0.5697 0.78012 0.36999 0.0
O436 O 0.56674 0.75186 0.39233 0.0
C437 C 0.60943 0.72791 0.33681 0.0
C438 C 0.52092 0.72003 0.33233 0.0
O439 O 0.52995 0.71035 0.34866 0.0
O440 O 0.53373 0.7384 0.3262 0.0
C441 C 0.54689 0.68282 0.39826 0.0
O442 O 0.52391 0.68776 0.39304 0.0
C443 C 0.56898 0.77443 0.38981 0.0
Zn444 Zn 0.95935 0.7947 0.62487 0.0
Zn445 Zn 0.00563 0.79055 0.64407 0.0
O446 O 0.01379 0.81623 0.62298 0.0
O447 O 0.97615 0.82143 0.6085 0.0
O448 O 0.04015 0.78816 0.65923 0.0
O449 O 0.94614 0.80218 0.65624 0.0
O450 O 0.9843 0.8 0.67191 0.0
C451 C 1.00025 0.82664 0.61005 0.0
C452 C 0.97407 0.74602 0.61282 0.0
O453 O 0.99434 0.75567 0.62532 0.0
O454 O 0.95632 0.75877 0.60995 0.0
C455 C 0.04327 0.77074 0.67021 0.0
O456 O 0.02364 0.75413 0.67162 0.0
C457 C 0.9611 0.8034 0.67392 0.0
Zn458 Zn 0.46603 0.28651 0.11549 0.0
Zn459 Zn 0.51215 0.28363 0.13446 0.0
O460 O 0.52019 0.30991 0.11374 0.0
O461 O 0.48254 0.31043 0.09637 0.0
O462 O 0.54653 0.28168 0.15004 0.0
O463 O 0.45348 0.29807 0.14658 0.0
O464 O 0.49041 0.29242 0.16211 0.0
C465 C 0.50632 0.31778 0.09904 0.0
C466 C 0.48087 0.23801 0.10444 0.0
O467 O 0.50173 0.24866 0.11546 0.0
O468 O 0.46213 0.24989 0.10286 0.0
C469 C 0.54916 0.265 0.16206 0.0
O470 O 0.5292 0.24903 0.16411 0.0
C471 C 0.4679 0.29795 0.16431 0.0
C472 C 0.28411 0.75591 0.85465 0.0
C473 C 0.26332 0.74633 0.8387 0.0
C474 C 0.28046 0.76734 0.87708 0.0
C475 C 0.25535 0.7687 0.88398 0.0
C476 C 0.23425 0.75888 0.86794 0.0
C477 C 0.2385 0.7481 0.84538 0.0
C478 C 0.30355 0.77798 0.89341 0.0
C479 C 0.20723 0.75936 0.87474 0.0
C480 C 0.25411 0.77649 0.94891 0.0
C481 C 0.25441 0.80205 0.95512 0.0
C482 C 0.25222 0.76507 0.9257 0.0
C483 C 0.25154 0.77971 0.90823 0.0
C484 C 0.25031 0.80536 0.91441 0.0
C485 C 0.25146 0.8162 0.93784 0.0
C486 C 0.25279 0.73759 0.91996 0.0
C487 C 0.25005 0.82175 0.89643 0.0
H488 H 0.30331 0.75481 0.84941 0.0
H489 H 0.22241 0.74063 0.83304 0.0
H490 H 0.30258 0.79767 0.90041 0.0
H491 H 0.30385 0.76801 0.9082 0.0
H492 H 0.32172 0.77669 0.88499 0.0
H493 H 0.19291 0.75128 0.86018 0.0
H494 H 0.20399 0.74886 0.88901 0.0
H495 H 0.20404 0.77861 0.88118 0.0
H496 H 0.25656 0.76557 0.96229 0.0
H497 H 0.25218 0.83604 0.94262 0.0
H498 H 0.27173 0.73408 0.91401 0.0
H499 H 0.23824 0.72899 0.90578 0.0
H500 H 0.24932 0.72839 0.93507 0.0
H501 H 0.269 0.82358 0.88922 0.0
H502 H 0.24584 0.8405 0.90365 0.0
H503 H 0.23572 0.81348 0.88199 0.0
C504 C 0.01714 0.54438 0.39869 0.0
C505 C 0.99382 0.54788 0.38823 0.0
C506 C 0.03549 0.53353 0.38561 0.0
C507 C 0.03038 0.52605 0.36152 0.0
C508 C 0.0066 0.52895 0.35099 0.0
C509 C 0.98862 0.53974 0.36447 0.0
C510 C 0.06057 0.5306 0.39745 0.0
C511 C 1.00032 0.52107 0.32538 0.0
C512 C 0.08369 0.5208 0.32111 0.0
C513 C 0.0829 0.49512 0.31537 0.0
C514 C 0.06734 0.53119 0.3368 0.0
C515 C 0.04989 0.51552 0.34709 0.0
C516 C 0.0498 0.48966 0.34216 0.0
C517 C 0.06625 0.47977 0.32633 0.0
C518 C 0.06798 0.55888 0.34162 0.0
C519 C 0.03164 0.47234 0.35292 0.0
H520 H 0.02138 0.55085 0.417 0.0
H521 H 0.97047 0.54204 0.35634 0.0
H522 H 0.06419 0.51113 0.39341 0.0
H523 H 0.07639 0.54208 0.39098 0.0
H524 H 0.06107 0.53615 0.41644 0.0
H525 H 0.98081 0.52425 0.31994 0.0
H526 H 0.01425 0.53147 0.3159 0.0
H527 H 0.00188 0.50118 0.32022 0.0
H528 H 0.09651 0.53282 0.31278 0.0
H529 H 0.06562 0.4599 0.32218 0.0
H530 H 0.06994 0.5658 0.36044 0.0
H531 H 0.04974 0.56377 0.33482 0.0
H532 H 0.08391 0.56858 0.33361 0.0
H533 H 0.03294 0.47814 0.37189 0.0
H534 H 0.03551 0.45292 0.34889 0.0
H535 H 0.01174 0.47308 0.34652 0.0
C536 C 0.87647 0.76803 0.87227 0.0
C537 C 0.8549 0.77883 0.86685 0.0
C538 C 0.87452 0.74794 0.88408 0.0
C539 C 0.85035 0.73819 0.89035 0.0
C540 C 0.82852 0.74907 0.88495 0.0
C541 C 0.83109 0.76936 0.8734 0.0
C542 C 0.8983 0.73709 0.88976 0.0
C543 C 0.80238 0.73901 0.89103 0.0
C544 C 0.84151 0.67139 0.8994 0.0
C545 C 0.84294 0.67401 0.9235 0.0
C546 C 0.84372 0.6921 0.88844 0.0
C547 C 0.8478 0.7161 0.90187 0.0
C548 C 0.84945 0.71891 0.9262 0.0
C549 C 0.84682 0.69784 0.93673 0.0
C550 C 0.84153 0.68829 0.86246 0.0
C551 C 0.85411 0.74418 0.94111 0.0
H552 H 0.89496 0.7755 0.86747 0.0
H553 H 0.81435 0.77753 0.86906 0.0
H554 H 0.90064 0.73715 0.90855 0.0
H555 H 0.89654 0.71758 0.88098 0.0
H556 H 0.91576 0.7474 0.88448 0.0
H557 H 0.78739 0.74981 0.88596 0.0
H558 H 0.79728 0.71953 0.8823 0.0
H559 H 0.80241 0.73914 0.90983 0.0
H560 H 0.83837 0.65308 0.889 0.0
H561 H 0.84804 0.70005 0.95535 0.0
H562 H 0.85933 0.69679 0.85618 0.0
H563 H 0.82573 0.69756 0.85643 0.0
H564 H 0.83794 0.66843 0.85452 0.0
H565 H 0.87219 0.7545 0.93706 0.0
H566 H 0.85524 0.74323 0.95977 0.0
H567 H 0.83856 0.75492 0.93743 0.0
C568 C 0.03155 0.9734 0.39962 0.0
C569 C 0.05764 0.98276 0.40171 0.0
C570 C 0.015 0.97843 0.38219 0.0
C571 C 0.02448 0.99392 0.36685 0.0
C572 C 0.05071 0.00342 0.36875 0.0
C573 C 0.06702 0.99735 0.38581 0.0
C574 C 0.98723 0.96743 0.38041 0.0
C575 C 0.06146 0.02046 0.35308 0.0
C576 C 0.98322 0.99192 0.3117 0.0
C577 C 0.96822 0.01048 0.31866 0.0
C578 C 0.00216 0.98666 0.327 0.0
C579 C 0.00663 1.00087 0.34947 0.0
C580 C 0.99266 0.02076 0.35591 0.0
C581 C 0.97326 0.02499 0.34058 0.0
C582 C 0.01611 0.96488 0.31967 0.0
C583 C 0.99743 0.03692 0.37937 0.0
H584 H 0.02385 0.96241 0.41186 0.0
H585 H 0.08719 0.00414 0.38662 0.0
H586 H 0.97521 0.98233 0.3845 0.0
H587 H 0.98128 0.95784 0.36255 0.0
H588 H 0.98334 0.95408 0.39231 0.0
H589 H 0.0823 0.02636 0.35682 0.0
H590 H 0.05791 0.01121 0.33485 0.0
H591 H 0.05168 0.03716 0.35501 0.0
H592 H 0.97896 0.98043 0.29486 0.0
H593 H 0.96157 0.03931 0.34593 0.0
H594 H 0.01028 0.95022 0.32981 0.0
H595 H 0.037 0.97025 0.3232 0.0
H596 H 0.01201 0.95703 0.30109 0.0
H597 H 0.99097 0.02612 0.39273 0.0
H598 H 0.98719 0.05332 0.38065 0.0
H599 H 0.01815 0.0433 0.3833 0.0
C600 C 0.29383 0.21306 0.64723 0.0
C601 C 0.31352 0.23149 0.65762 0.0
C602 C 0.29584 0.19933 0.62534 0.0
C603 C 0.31823 0.20394 0.61375 0.0
C604 C 0.33816 0.22258 0.62417 0.0
C605 C 0.3355 0.23623 0.64594 0.0
C606 C 0.27405 0.17984 0.61466 0.0
C607 C 0.36247 0.2278 0.61251 0.0
C608 C 0.33391 0.15222 0.56824 0.0
C609 C 0.32644 0.16001 0.54781 0.0
C610 C 0.33153 0.16645 0.5898 0.0
C611 C 0.32109 0.18885 0.59097 0.0
C612 C 0.31343 0.1968 0.57043 0.0
C613 C 0.31637 0.18236 0.54907 0.0
C614 C 0.34023 0.15753 0.61132 0.0
C615 C 0.30196 0.22045 0.57101 0.0
H616 H 0.27675 0.20953 0.65619 0.0
H617 H 0.35086 0.2503 0.65407 0.0
H618 H 0.26745 0.18349 0.59757 0.0
H619 H 0.28061 0.16142 0.61184 0.0
H620 H 0.2576 0.17913 0.62557 0.0
H621 H 0.37602 0.24311 0.62281 0.0
H622 H 0.37204 0.21098 0.60957 0.0
H623 H 0.35806 0.23266 0.59541 0.0
H624 H 0.34184 0.13504 0.56741 0.0
H625 H 0.31045 0.18843 0.53335 0.0
H626 H 0.32395 0.15473 0.62212 0.0
H627 H 0.35489 0.17169 0.6217 0.0
H628 H 0.34837 0.13992 0.60743 0.0
H629 H 0.2846 0.2197 0.58075 0.0
H630 H 0.29675 0.22392 0.5535 0.0
H631 H 0.31565 0.23633 0.58011 0.0
C632 C 0.53826 0.53916 0.62186 0.0
C633 C 0.53944 0.51771 0.6057 0.0
C634 C 0.52085 0.53948 0.63908 0.0
C635 C 0.5043 0.51771 0.64056 0.0
C636 C 0.50566 0.49585 0.62461 0.0
C637 C 0.52308 0.49613 0.60736 0.0
C638 C 0.52006 0.56322 0.65563 0.0
C639 C 0.48854 0.47218 0.62565 0.0
C640 C 0.47426 0.51386 0.69756 0.0
C641 C 0.44955 0.51932 0.69286 0.0
C642 C 0.49214 0.513 0.68068 0.0
C643 C 0.48534 0.518 0.65857 0.0
C644 C 0.46051 0.5237 0.65379 0.0
C645 C 0.44293 0.52416 0.67089 0.0
C646 C 0.51829 0.50662 0.68648 0.0
C647 C 0.45252 0.52946 0.63059 0.0
H648 H 0.55114 0.55582 0.62123 0.0
H649 H 0.52358 0.47949 0.59494 0.0
H650 H 0.50069 0.56874 0.65448 0.0
H651 H 0.52408 0.56045 0.67356 0.0
H652 H 0.53408 0.5786 0.65214 0.0
H653 H 0.49253 0.45655 0.61257 0.0
H654 H 0.49099 0.46717 0.64297 0.0
H655 H 0.46828 0.47481 0.62285 0.0
H656 H 0.47957 0.50994 0.7144 0.0
H657 H 0.42395 0.52844 0.66703 0.0
H658 H 0.53312 0.52205 0.68461 0.0
H659 H 0.52192 0.49014 0.67429 0.0
H660 H 0.52049 0.50279 0.7043 0.0
H661 H 0.46537 0.54558 0.62696 0.0
H662 H 0.43257 0.5336 0.62957 0.0
H663 H 0.45427 0.5136 0.61686 0.0
C664 C 0.77338 0.27198 0.66998 0.0
C665 C 0.78953 0.28802 0.68716 0.0
C666 C 0.76944 0.2779 0.64789 0.0
C667 C 0.78214 0.30024 0.6428 0.0
C668 C 0.79835 0.31651 0.66013 0.0
C669 C 0.80182 0.31021 0.68201 0.0
C670 C 0.75195 0.26011 0.62992 0.0
C671 C 0.81256 0.34035 0.65541 0.0
C672 C 0.79798 0.3056 0.58174 0.0
C673 C 0.78057 0.32083 0.5753 0.0
C674 C 0.79804 0.29812 0.60328 0.0
C675 C 0.7802 0.30593 0.61896 0.0
C676 C 0.76196 0.32059 0.61236 0.0
C677 C 0.76236 0.3279 0.59061 0.0
C678 C 0.81788 0.28256 0.60954 0.0
C679 C 0.74253 0.32918 0.62857 0.0
H680 H 0.76362 0.25493 0.67389 0.0
H681 H 0.81464 0.32254 0.69505 0.0
H682 H 0.73719 0.2698 0.62269 0.0
H683 H 0.76303 0.25286 0.61548 0.0
H684 H 0.74232 0.24426 0.63695 0.0
H685 H 0.82348 0.35152 0.67103 0.0
H686 H 0.82608 0.33625 0.642 0.0
H687 H 0.79901 0.35161 0.64869 0.0
H688 H 0.81205 0.29981 0.57006 0.0
H689 H 0.74878 0.33957 0.58581 0.0
H690 H 0.80861 0.26575 0.61529 0.0
H691 H 0.83094 0.29315 0.6241 0.0
H692 H 0.82943 0.27682 0.59492 0.0
H693 H 0.73233 0.31328 0.63509 0.0
H694 H 0.7283 0.33862 0.62021 0.0
H695 H 0.75236 0.34219 0.64368 0.0
C696 C 0.55073 0.96392 0.58368 0.0
C697 C 0.54192 0.98632 0.58134 0.0
C698 C 0.56014 0.95968 0.60509 0.0
C699 C 0.5599 0.97788 0.6249 0.0
C700 C 0.54976 0.99994 0.62296 0.0
C701 C 0.54124 0.00405 0.6012 0.0
C702 C 0.57117 0.93608 0.60637 0.0
C703 C 0.54855 0.01952 0.6438 0.0
C704 C 0.56739 0.95893 0.68361 0.0
C705 C 0.59272 0.96901 0.69081 0.0
C706 C 0.55637 0.96178 0.66225 0.0
C707 C 0.5713 0.97435 0.64748 0.0
C708 C 0.59715 0.98387 0.65439 0.0
C709 C 0.60743 0.98143 0.67614 0.0
C710 C 0.52856 0.95201 0.65579 0.0
C711 C 0.61392 0.99675 0.63887 0.0
H712 H 0.55072 0.94975 0.56865 0.0
H713 H 0.53479 0.02153 0.59973 0.0
H714 H 0.59162 0.94052 0.61261 0.0
H715 H 0.56132 0.92604 0.61886 0.0
H716 H 0.56957 0.92361 0.58942 0.0
H717 H 0.53783 0.03443 0.63976 0.0
H718 H 0.53932 0.01117 0.65765 0.0
H719 H 0.56815 0.02791 0.65066 0.0
H720 H 0.55589 0.94959 0.69506 0.0
H721 H 0.62704 0.98917 0.68166 0.0
H722 H 0.52642 0.93886 0.63925 0.0
H723 H 0.51792 0.96747 0.65327 0.0
H724 H 0.51963 0.94253 0.66913 0.0
H725 H 0.61377 0.98466 0.62187 0.0
H726 H 0.63397 0.00184 0.64627 0.0
H727 H 0.60638 0.0138 0.63582 0.0
C728 C 0.88693 0.21714 0.76484 0.0
C729 C 0.86433 0.20264 0.76867 0.0
C730 C 0.9102 0.21609 0.77691 0.0
C731 C 0.91125 0.19952 0.79269 0.0
C732 C 0.88879 0.18434 0.79622 0.0
C733 C 0.86558 0.18644 0.78459 0.0
C734 C 0.93365 0.23302 0.77299 0.0
C735 C 0.88921 0.16598 0.81243 0.0
C736 C 0.97883 0.18765 0.80697 0.0
C737 C 0.98525 0.20397 0.8278 0.0
C738 C 0.95406 0.18449 0.79617 0.0
C739 C 0.93577 0.19885 0.80601 0.0
C740 C 0.94192 0.21444 0.82766 0.0
C741 C 0.96655 0.21659 0.83842 0.0
C742 C 0.94801 0.16699 0.77354 0.0
C743 C 0.9233 0.23054 0.83851 0.0
H744 H 0.88652 0.22937 0.75236 0.0
H745 H 0.84835 0.17555 0.78833 0.0
H746 H 0.94177 0.24456 0.78957 0.0
H747 H 0.94849 0.22198 0.76617 0.0
H748 H 0.92947 0.24541 0.76072 0.0
H749 H 0.87061 0.15399 0.81171 0.0
H750 H 0.90425 0.15409 0.80817 0.0
H751 H 0.89391 0.17588 0.83035 0.0
H752 H 0.99351 0.17831 0.79858 0.0
H753 H 0.97184 0.22973 0.85423 0.0
H754 H 0.94719 0.1777 0.75931 0.0
H755 H 0.92907 0.15575 0.77328 0.0
H756 H 0.96263 0.1544 0.77017 0.0
H757 H 0.92034 0.24479 0.82785 0.0
H758 H 0.93019 0.24 0.85624 0.0
H759 H 0.90448 0.21946 0.83917 0.0
C760 C 0.55843 0.90659 0.44143 0.0
C761 C 0.56756 0.91712 0.46402 0.0
C762 C 0.55804 0.88133 0.43332 0.0
C763 C 0.56734 0.86625 0.44809 0.0
C764 C 0.5758 0.87661 0.4712 0.0
C765 C 0.57565 0.90199 0.47897 0.0
C766 C 0.54849 0.87099 0.40864 0.0
C767 C 0.58602 0.86118 0.48738 0.0
C768 C 0.55051 0.79822 0.42296 0.0
C769 C 0.57121 0.79465 0.4096 0.0
C770 C 0.54977 0.82103 0.43732 0.0
C771 C 0.57033 0.84034 0.43833 0.0
C772 C 0.5923 0.83577 0.42654 0.0
C773 C 0.59231 0.81306 0.41206 0.0
C774 C 0.526 0.82516 0.44959 0.0
C775 C 0.61484 0.85563 0.42743 0.0
H776 H 0.55174 0.91823 0.43001 0.0
H777 H 0.58269 0.91018 0.49647 0.0
H778 H 0.56452 0.86497 0.39877 0.0
H779 H 0.53393 0.85455 0.40786 0.0
H780 H 0.53997 0.88473 0.40004 0.0
H781 H 0.58876 0.87117 0.50545 0.0
H782 H 0.57295 0.84373 0.48671 0.0
H783 H 0.60468 0.85612 0.48196 0.0
H784 H 0.53409 0.78399 0.42077 0.0
H785 H 0.60826 0.81017 0.4016 0.0
H786 H 0.51444 0.83606 0.44003 0.0
H787 H 0.53089 0.83586 0.46721 0.0
H788 H 0.5141 0.80745 0.45072 0.0
H789 H 0.60968 0.86961 0.41722 0.0
H790 H 0.63178 0.84804 0.42032 0.0
H791 H 0.62012 0.86524 0.44538 0.0
C792 C 0.24535 0.22454 0.80405 0.0
C793 C 0.24576 0.21924 0.78003 0.0
C794 C 0.22216 0.22445 0.81457 0.0
C795 C 0.19884 0.21852 0.80075 0.0
C796 C 0.19918 0.21239 0.77651 0.0
C797 C 0.22265 0.21306 0.76643 0.0
C798 C 0.22265 0.23162 0.84041 0.0
C799 C 0.17475 0.20567 0.76118 0.0
C800 C 0.13642 0.20412 0.82854 0.0
C801 C 0.1264 0.22642 0.82931 0.0
C802 C 0.16011 0.20118 0.81936 0.0
C803 C 0.1742 0.2212 0.81134 0.0
C804 C 0.16447 0.24397 0.81288 0.0
C805 C 0.14065 0.24619 0.8216 0.0
C806 C 0.16974 0.17653 0.81767 0.0
C807 C 0.17907 0.26597 0.80503 0.0
H808 H 0.26322 0.22941 0.81458 0.0
H809 H 0.22295 0.2086 0.74788 0.0
H810 H 0.21463 0.24921 0.84481 0.0
H811 H 0.21054 0.2174 0.84769 0.0
H812 H 0.24227 0.23405 0.84881 0.0
H813 H 0.17826 0.19912 0.74295 0.0
H814 H 0.16197 0.19102 0.76729 0.0
H815 H 0.16452 0.22201 0.76195 0.0
H816 H 0.12542 0.1888 0.83442 0.0
H817 H 0.13316 0.26361 0.82244 0.0
H818 H 0.18908 0.17885 0.82655 0.0
H819 H 0.17139 0.16874 0.79933 0.0
H820 H 0.15694 0.16306 0.82529 0.0
H821 H 0.19853 0.27021 0.81383 0.0
H822 H 0.16944 0.28273 0.80854 0.0
H823 H 0.18122 0.26166 0.78627 0.0
C824 C 0.57277 0.63021 0.51245 0.0
C825 C 0.57717 0.60548 0.50973 0.0
C826 C 0.56589 0.64087 0.49349 0.0
C827 C 0.56317 0.62649 0.47112 0.0
C828 C 0.56627 0.60114 0.46835 0.0
C829 C 0.57322 0.59092 0.48771 0.0
C830 C 0.56261 0.66788 0.49735 0.0
C831 C 0.56335 0.58511 0.44484 0.0
C832 C 0.53005 0.65468 0.42503 0.0
C833 C 0.55089 0.66651 0.41543 0.0
C834 C 0.53369 0.6407 0.44248 0.0
C835 C 0.55877 0.63859 0.45069 0.0
C836 C 0.57985 0.64981 0.44055 0.0
C837 C 0.57567 0.66355 0.42305 0.0
C838 C 0.51069 0.62889 0.45267 0.0
C839 C 0.60691 0.64811 0.44879 0.0
H840 H 0.57539 0.64147 0.52947 0.0
H841 H 0.57669 0.57185 0.48545 0.0
H842 H 0.57759 0.67829 0.48889 0.0
H843 H 0.54387 0.67034 0.48945 0.0
H844 H 0.56391 0.67612 0.51592 0.0
H845 H 0.56372 0.56531 0.44579 0.0
H846 H 0.54519 0.587 0.43552 0.0
H847 H 0.5791 0.59124 0.43453 0.0
H848 H 0.51082 0.65669 0.41921 0.0
H849 H 0.59192 0.67251 0.41576 0.0
H850 H 0.51003 0.63808 0.47076 0.0
H851 H 0.51208 0.60914 0.4529 0.0
H852 H 0.49254 0.63023 0.44297 0.0
H853 H 0.61082 0.65772 0.46691 0.0
H854 H 0.62116 0.65651 0.43819 0.0
H855 H 0.60958 0.62853 0.4484 0.0
C856 C 0.88228 0.831 0.78385 0.0
C857 C 0.8889 0.81861 0.80175 0.0
C858 C 0.89595 0.83013 0.76406 0.0
C859 C 0.91612 0.81567 0.76151 0.0
C860 C 0.92304 0.80317 0.77941 0.0
C861 C 0.90973 0.80521 0.79946 0.0
C862 C 0.88837 0.84426 0.74561 0.0
C863 C 0.94395 0.78697 0.77709 0.0
C864 C 0.92807 0.79139 0.69965 0.0
C865 C 0.9506 0.80632 0.69667 0.0
C866 C 0.9172 0.79372 0.7209 0.0
C867 C 0.9286 0.81214 0.73938 0.0
C868 C 0.95138 0.8274 0.73642 0.0
C869 C 0.96243 0.82395 0.71515 0.0
C870 C 0.89346 0.77648 0.72353 0.0
C871 C 0.96358 0.8478 0.75544 0.0
H872 H 0.86602 0.84105 0.78496 0.0
H873 H 0.91565 0.79608 0.81328 0.0
H874 H 0.90545 0.85517 0.74038 0.0
H875 H 0.87961 0.83115 0.73013 0.0
H876 H 0.87449 0.85699 0.7514 0.0
H877 H 0.94733 0.77882 0.79274 0.0
H878 H 0.9388 0.77174 0.76219 0.0
H879 H 0.96204 0.79773 0.77367 0.0
H880 H 0.91911 0.77758 0.68535 0.0
H881 H 0.97981 0.83555 0.71271 0.0
H882 H 0.87723 0.7871 0.72668 0.0
H883 H 0.8964 0.76735 0.73863 0.0
H884 H 0.88812 0.76199 0.70804 0.0
H885 H 0.94995 0.86115 0.76003 0.0
H886 H 0.98134 0.8579 0.75046 0.0
H887 H 0.96817 0.84017 0.77112 0.0
C888 C 0.04766 0.86578 0.49726 0.0
C889 C 0.06261 0.88879 0.49821 0.0
C890 C 0.03809 0.85841 0.5171 0.0
C891 C 0.04308 0.87459 0.53852 0.0
C892 C 0.05737 0.89821 0.53956 0.0
C893 C 0.06708 0.90499 0.51941 0.0
C894 C 0.02298 0.83303 0.51516 0.0
C895 C 0.06276 0.91612 0.56201 0.0
C896 C 0.99819 0.8568 0.58294 0.0
C897 C 0.0126 0.84255 0.5947 0.0
C898 C 0.00849 0.86883 0.56566 0.0
C899 C 0.03368 0.86624 0.55971 0.0
C900 C 0.04879 0.85306 0.57241 0.0
C901 C 0.03814 0.84154 0.58986 0.0
C902 C 0.9919 0.88313 0.55289 0.0
C903 C 0.07566 0.84965 0.56652 0.0
H904 H 0.0435 0.85335 0.48091 0.0
H905 H 0.07871 0.92274 0.5204 0.0
H906 H 0.03254 0.82215 0.52633 0.0
H907 H 0.00368 0.8346 0.52121 0.0
H908 H 0.02085 0.82264 0.49724 0.0
H909 H 0.07257 0.93438 0.55967 0.0
H910 H 0.0447 0.91882 0.57019 0.0
H911 H 0.07494 0.90846 0.57409 0.0
H912 H 0.97851 0.8579 0.5867 0.0
H913 H 0.04944 0.83057 0.59882 0.0
H914 H 0.98629 0.87269 0.53527 0.0
H915 H 0.00256 0.90121 0.55113 0.0
H916 H 0.97427 0.88639 0.56166 0.0
H917 H 0.07507 0.83755 0.54948 0.0
H918 H 0.08576 0.84116 0.57945 0.0
H919 H 0.08685 0.86762 0.56523 0.0
C920 C 0.17875 0.76722 0.73771 0.0
C921 C 0.19505 0.7573 0.72179 0.0
C922 C 0.15343 0.76934 0.7308 0.0
C923 C 0.14419 0.76109 0.70749 0.0
C924 C 0.16038 0.75036 0.69154 0.0
C925 C 0.18559 0.74867 0.69887 0.0
C926 C 0.13678 0.78099 0.74827 0.0
C927 C 0.15122 0.74104 0.66661 0.0
C928 C 0.07296 0.7479 0.69021 0.0
C929 C 0.06881 0.76882 0.68078 0.0
C930 C 0.09726 0.74538 0.69946 0.0
C931 C 0.11789 0.7643 0.69944 0.0
C932 C 0.1137 0.78573 0.69047 0.0
C933 C 0.08925 0.78769 0.68118 0.0
C934 C 0.10099 0.72217 0.70871 0.0
C935 C 0.13517 0.80639 0.69025 0.0
H936 H 0.18605 0.77402 0.75541 0.0
H937 H 0.19803 0.74064 0.68658 0.0
H938 H 0.13148 0.79824 0.74333 0.0
H939 H 0.11881 0.76841 0.74859 0.0
H940 H 0.14644 0.78548 0.76589 0.0
H941 H 0.16587 0.73226 0.65663 0.0
H942 H 0.13377 0.72738 0.66538 0.0
H943 H 0.14612 0.75659 0.65847 0.0
H944 H 0.05729 0.73323 0.69001 0.0
H945 H 0.08622 0.80399 0.67406 0.0
H946 H 0.10982 0.72693 0.7266 0.0
H947 H 0.11424 0.71193 0.69817 0.0
H948 H 0.08276 0.70976 0.70856 0.0
H949 H 0.14458 0.81275 0.70782 0.0
H950 H 0.12847 0.82243 0.68392 0.0
H951 H 0.14983 0.79957 0.67902 0.0
C952 C 0.95059 0.63216 0.51372 0.0
C953 C 0.95132 0.6085 0.51909 0.0
C954 C 0.95575 0.65336 0.5307 0.0
C955 C 0.96102 0.65095 0.55388 0.0
C956 C 0.96149 0.6272 0.5596 0.0
C957 C 0.95689 0.60626 0.5421 0.0
C958 C 0.95529 0.67837 0.52382 0.0
C959 C 0.96652 0.62391 0.5842 0.0
C960 C 0.9927 0.70983 0.59258 0.0
C961 C 0.97137 0.72023 0.60059 0.0
C962 C 0.98978 0.68667 0.5781 0.0
C963 C 0.965 0.67344 0.57203 0.0
C964 C 0.94361 0.68316 0.58142 0.0
C965 C 0.94702 0.70659 0.59532 0.0
C966 C 0.01301 0.67715 0.5681 0.0
C967 C 0.91695 0.66938 0.57587 0.0
H968 H 0.94562 0.6342 0.49619 0.0
H969 H 0.95779 0.58815 0.54646 0.0
H970 H 0.93956 0.68728 0.53184 0.0
H971 H 0.97339 0.69059 0.53013 0.0
H972 H 0.95259 0.67715 0.50487 0.0
H973 H 0.96633 0.6042 0.58579 0.0
H974 H 0.9853 0.63427 0.59138 0.0
H975 H 0.95184 0.63161 0.5949 0.0
H976 H 0.01154 0.7204 0.59658 0.0
H977 H 0.93052 0.71448 0.60174 0.0
H978 H 0.01226 0.67772 0.54939 0.0
H979 H 0.01329 0.65763 0.57006 0.0
H980 H 0.03106 0.68828 0.57634 0.0
H981 H 0.91083 0.66931 0.55762 0.0
H982 H 0.90292 0.67788 0.58688 0.0
H983 H 0.91652 0.64986 0.5781 0.0
C984 C 0.84327 0.82065 0.23584 0.0
C985 C 0.82561 0.81077 0.21709 0.0
C986 C 0.85098 0.84622 0.2417 0.0
C987 C 0.84052 0.86233 0.22868 0.0
C988 C 0.82234 0.85248 0.20996 0.0
C989 C 0.81524 0.82678 0.20428 0.0
C990 C 0.87061 0.85596 0.26164 0.0
C991 C 0.81042 0.86906 0.19593 0.0
C992 C 0.84542 0.92884 0.25918 0.0
C993 C 0.86688 0.94008 0.25001 0.0
C994 C 0.83601 0.9038 0.2517 0.0
C995 C 0.84858 0.88949 0.23486 0.0
C996 C 0.86974 0.90091 0.22495 0.0
C997 C 0.87852 0.92614 0.23252 0.0
C998 C 0.81312 0.89246 0.2624 0.0
C999 C 0.88379 0.88622 0.2071 0.0
H1000 H 0.85159 0.80829 0.24556 0.0
H1001 H 0.80148 0.81917 0.18985 0.0
H1002 H 0.88745 0.86649 0.25564 0.0
H1003 H 0.86257 0.86887 0.27487 0.0
H1004 H 0.87709 0.84096 0.26984 0.0
H1005 H 0.79622 0.85852 0.18219 0.0
H1006 H 0.80084 0.88254 0.20729 0.0
H1007 H 0.82544 0.87981 0.18783 0.0
H1008 H 0.83618 0.93955 0.27258 0.0
H1009 H 0.89518 0.93466 0.22543 0.0
H1010 H 0.81896 0.87884 0.27271 0.0
H1011 H 0.79855 0.88239 0.24879 0.0
H1012 H 0.80422 0.90651 0.27379 0.0
H1013 H 0.89272 0.87216 0.21484 0.0
H1014 H 0.89893 0.89808 0.20013 0.0
H1015 H 0.87028 0.8762 0.19262 0.0
C1016 C 0.82759 0.18085 0.29907 0.0
C1017 C 0.80568 0.18089 0.28469 0.0
C1018 C 0.84155 0.16072 0.29624 0.0
C1019 C 0.83335 0.14001 0.27872 0.0
C1020 C 0.81157 0.1402 0.26384 0.0
C1021 C 0.79804 0.16057 0.26702 0.0
C1022 C 0.86467 0.1613 0.31245 0.0
C1023 C 0.80196 0.11845 0.24511 0.0
C1024 C 0.87732 0.09103 0.26279 0.0
C1025 C 0.86855 0.07333 0.27605 0.0
C1026 C 0.86616 0.11294 0.26346 0.0
C1027 C 0.84571 0.1171 0.27758 0.0
C1028 C 0.83665 0.09913 0.2907 0.0
C1029 C 0.84813 0.07762 0.2898 0.0
C1030 C 0.87636 0.13172 0.24924 0.0
C1031 C 0.81477 0.1026 0.30584 0.0
H1032 H 0.83387 0.19661 0.31253 0.0
H1033 H 0.78098 0.16028 0.25597 0.0
H1034 H 0.86084 0.14701 0.32341 0.0
H1035 H 0.88125 0.1569 0.30257 0.0
H1036 H 0.86989 0.17954 0.32382 0.0
H1037 H 0.78618 0.12235 0.23373 0.0
H1038 H 0.81768 0.11325 0.23442 0.0
H1039 H 0.79494 0.10226 0.25298 0.0
H1040 H 0.89309 0.08795 0.25218 0.0
H1041 H 0.84099 0.06407 0.30004 0.0
H1042 H 0.8833 0.1496 0.26064 0.0
H1043 H 0.86087 0.13503 0.23725 0.0
H1044 H 0.89223 0.12574 0.23908 0.0
H1045 H 0.81971 0.11962 0.31894 0.0
H1046 H 0.80989 0.08677 0.31487 0.0
H1047 H 0.79757 0.10492 0.29534 0.0
C1048 C 0.38422 1.00135 0.97977 0.0
C1049 C 0.40555 0.01359 0.99413 0.0
C1050 C 0.36933 0.98063 0.98525 0.0
C1051 C 0.3755 0.97216 0.00589 0.0
C1052 C 0.39631 0.98501 0.02099 0.0
C1053 C 0.41121 0.00544 0.01485 0.0
C1054 C 0.34742 0.96736 0.96859 0.0
C1055 C 0.40323 0.97677 0.04333 0.0
C1056 C 0.32359 0.92744 0.0249 0.0
C1057 C 0.33151 0.90458 0.01668 0.0
C1058 C 0.33822 0.94969 0.02233 0.0
C1059 C 0.36103 0.94903 0.01087 0.0
C1060 C 0.36932 0.92603 0.00292 0.0
C1061 C 0.35459 0.90413 0.0061 0.0
C1062 C 0.32902 0.97388 0.03144 0.0
C1063 C 0.39332 0.92449 0.9903 0.0
H1064 H 0.37921 0.00786 0.96404 0.0
H1065 H 0.4277 0.01464 0.02602 0.0
H1066 H 0.35088 0.94816 0.96226 0.0
H1067 H 0.32943 0.96624 0.97739 0.0
H1068 H 0.34477 0.97664 0.95352 0.0
H1069 H 0.4184 0.99003 0.05412 0.0
H1070 H 0.38617 0.97455 0.05333 0.0
H1071 H 0.41004 0.95851 0.03968 0.0
H1072 H 0.30586 0.92795 0.03324 0.0
H1073 H 0.36082 0.88657 0.99961 0.0
H1074 H 0.32392 0.98311 0.0169 0.0
H1075 H 0.34446 0.98646 0.0425 0.0
H1076 H 0.31207 0.97134 0.04156 0.0
H1077 H 0.39128 0.93208 0.97417 0.0
H1078 H 0.39758 0.90523 0.98587 0.0
H1079 H 0.40986 0.93582 1.00094 0.0
C1080 C 0.27565 0.40564 0.34423 0.0
C1081 C 0.29606 0.39719 0.33247 0.0
C1082 C 0.25511 0.41313 0.33255 0.0
C1083 C 0.25479 0.41202 0.30843 0.0
C1084 C 0.27516 0.40326 0.29635 0.0
C1085 C 0.29557 0.39595 0.30852 0.0
C1086 C 0.23374 0.42226 0.34609 0.0
C1087 C 0.27546 0.40179 0.27062 0.0
C1088 C 0.18914 0.41166 0.27926 0.0
C1089 C 0.18919 0.43673 0.27797 0.0
C1090 C 0.21078 0.40315 0.28816 0.0
C1091 C 0.23301 0.42011 0.29606 0.0
C1092 C 0.23357 0.44522 0.2939 0.0
C1093 C 0.21168 0.45323 0.28485 0.0
C1094 C 0.20947 0.37619 0.29003 0.0
C1095 C 0.2569 0.46389 0.30212 0.0
H1096 H 0.27561 0.40621 0.36265 0.0
H1097 H 0.31135 0.38962 0.29933 0.0
H1098 H 0.23176 0.44139 0.34374 0.0
H1099 H 0.21539 0.41057 0.33961 0.0
H1100 H 0.23694 0.42209 0.36479 0.0
H1101 H 0.29247 0.39416 0.26373 0.0
H1102 H 0.25804 0.39 0.26188 0.0
H1103 H 0.27529 0.42044 0.26619 0.0
H1104 H 0.17194 0.39872 0.27386 0.0
H1105 H 0.21198 0.47261 0.28388 0.0
H1106 H 0.21022 0.37424 0.30843 0.0
H1107 H 0.22612 0.36849 0.28251 0.0
H1108 H 0.19172 0.36501 0.2812 0.0
H1109 H 0.25999 0.46622 0.32112 0.0
H1110 H 0.25507 0.48221 0.29743 0.0
H1111 H 0.27412 0.45726 0.29474 0.0
C1112 C 0.16059 0.99732 0.4568 0.0
C1113 C 0.1375 0.00696 0.4545 0.0
C1114 C 0.18409 0.01273 0.45992 0.0
C1115 C 0.18466 0.03838 0.46027 0.0
C1116 C 0.16147 0.04845 0.45923 0.0
C1117 C 0.13818 0.03266 0.45661 0.0
C1118 C 0.20839 1.0013 0.4614 0.0
C1119 C 0.16125 0.07568 0.45941 0.0
C1120 C 0.24797 0.07987 0.47784 0.0
C1121 C 0.25807 0.08047 0.45641 0.0
C1122 C 0.22387 0.06657 0.47944 0.0
C1123 C 0.20942 0.05402 0.45911 0.0
C1124 C 0.21917 0.05537 0.43741 0.0
C1125 C 0.24345 0.06835 0.43634 0.0
C1126 C 0.2143 0.06521 0.50289 0.0
C1127 C 0.20416 0.04265 0.41528 0.0
H1128 H 0.16048 0.97754 0.45494 0.0
H1129 H 0.12048 0.0404 0.4554 0.0
H1130 H 0.21812 1.0018 0.44526 0.0
H1131 H 0.22167 0.01195 0.47577 0.0
H1132 H 0.2047 0.98179 0.46396 0.0
H1133 H 0.14181 0.081 0.46103 0.0
H1134 H 0.17417 0.08683 0.47378 0.0
H1135 H 0.16837 0.08049 0.44316 0.0
H1136 H 0.25925 0.08911 0.49341 0.0
H1137 H 0.25106 0.06895 0.41972 0.0
H1138 H 0.21296 0.0459 0.50599 0.0
H1139 H 0.19486 0.07057 0.50372 0.0
H1140 H 0.22703 0.07731 0.51691 0.0
H1141 H 0.20165 0.02236 0.41458 0.0
H1142 H 0.2137 0.04686 0.3998 0.0
H1143 H 0.18485 0.04836 0.41459 0.0
C1144 C 0.77984 0.1406 0.73154 0.0
C1145 C 0.77544 0.16479 0.73985 0.0
C1146 C 0.76231 0.12024 0.73421 0.0
C1147 C 0.73989 0.12418 0.74554 0.0
C1148 C 0.73464 0.14858 0.75275 0.0
C1149 C 0.75248 0.16861 0.74978 0.0
C1150 C 0.76846 0.09451 0.72602 0.0
C1151 C 0.71094 0.15356 0.76486 0.0
C1152 C 0.68718 0.06994 0.74181 0.0
C1153 C 0.69236 0.06142 0.76244 0.0
C1154 C 0.70231 0.09048 0.73614 0.0
C1155 C 0.72306 0.10286 0.75149 0.0
C1156 C 0.72816 0.09459 0.77249 0.0
C1157 C 0.71278 0.07396 0.77769 0.0
C1158 C 0.69631 0.09871 0.71359 0.0
C1159 C 0.75008 0.10737 0.78937 0.0
H1160 H 0.79748 0.1376 0.72367 0.0
H1161 H 0.74912 0.18727 0.75647 0.0
H1162 H 0.77238 0.08561 0.74108 0.0
H1163 H 0.75193 0.08299 0.71551 0.0
H1164 H 0.78536 0.09458 0.71563 0.0
H1165 H 0.70836 0.17337 0.76724 0.0
H1166 H 0.69376 0.14242 0.75504 0.0
H1167 H 0.71221 0.14801 0.78204 0.0
H1168 H 0.67145 0.06037 0.72989 0.0
H1169 H 0.71691 0.06756 0.79366 0.0
H1170 H 0.71273 0.09729 0.70275 0.0
H1171 H 0.69325 0.11838 0.71673 0.0
H1172 H 0.67909 0.08751 0.70382 0.0
H1173 H 0.76837 0.1064 0.78114 0.0
H1174 H 0.75111 0.09902 0.80517 0.0
H1175 H 0.74812 0.1272 0.79441 0.0
C1176 C 0.46521 0.02116 0.53435 0.0
C1177 C 0.49021 0.02785 0.52873 0.0
C1178 C 0.44521 0.03331 0.52735 0.0
C1179 C 0.45046 0.05269 0.51463 0.0
C1180 C 0.47594 0.06041 0.51013 0.0
C1181 C 0.49547 0.04783 0.51715 0.0
C1182 C 0.41829 0.02449 0.53243 0.0
C1183 C 0.48243 0.08117 0.49689 0.0
C1184 C 0.39944 0.06351 0.47139 0.0
C1185 C 0.39028 0.08441 0.48312 0.0
C1186 C 0.41868 0.05283 0.48165 0.0
C1187 C 0.42923 0.06336 0.50417 0.0
C1188 C 0.42006 0.0844 0.51617 0.0
C1189 C 0.40064 0.09464 0.50553 0.0
C1190 C 0.42784 0.03031 0.46829 0.0
C1191 C 0.43096 0.09624 0.54013 0.0
H1192 H 0.4611 0.00563 0.54319 0.0
H1193 H 0.51487 0.05318 0.51302 0.0
H1194 H 0.40876 0.04032 0.53998 0.0
H1195 H 0.40711 0.01551 0.51614 0.0
H1196 H 0.4177 0.01102 0.54444 0.0
H1197 H 0.50336 0.08651 0.49681 0.0
H1198 H 0.47435 0.0754 0.47881 0.0
H1199 H 0.47382 0.09765 0.50437 0.0
H1200 H 0.39149 0.05537 0.45413 0.0
H1201 H 0.39367 0.11076 0.51477 0.0
H1202 H 0.42587 0.01497 0.47826 0.0
H1203 H 0.44838 0.03452 0.46554 0.0
H1204 H 0.4171 0.02391 0.45125 0.0
H1205 H 0.42921 0.08246 0.55179 0.0
H1206 H 0.42127 0.11211 0.54739 0.0
H1207 H 0.4516 0.10282 0.53985 0.0
C1208 C 0.61051 0.47048 0.53522 0.0
C1209 C 0.60528 0.47831 0.55815 0.0
C1210 C 0.62684 0.45262 0.52949 0.0
C1211 C 0.63845 0.44232 0.5471 0.0
C1212 C 0.63283 0.44974 0.57023 0.0
C1213 C 0.61629 0.46755 0.57546 0.0
C1214 C 0.63204 0.44511 0.5046 0.0
C1215 C 0.64487 0.43937 0.58956 0.0
C1216 C 0.66654 0.38216 0.53081 0.0
C1217 C 0.6926 0.39069 0.53027 0.0
C1218 C 0.64873 0.39869 0.53622 0.0
C1219 C 0.65711 0.42444 0.54139 0.0
C1220 C 0.68339 0.43316 0.54092 0.0
C1221 C 0.70074 0.41625 0.53531 0.0
C1222 C 0.62091 0.38858 0.53636 0.0
C1223 C 0.69321 0.46043 0.54639 0.0
H1224 H 0.6019 0.4785 0.52171 0.0
H1225 H 0.61266 0.47368 0.59324 0.0
H1226 H 0.65258 0.45026 0.50237 0.0
H1227 H 0.62763 0.42477 0.49938 0.0
H1228 H 0.62065 0.45399 0.49285 0.0
H1229 H 0.63777 0.44625 0.60648 0.0
H1230 H 0.64094 0.41891 0.58609 0.0
H1231 H 0.66589 0.4445 0.59065 0.0
H1232 H 0.65997 0.3625 0.52693 0.0
H1233 H 0.7208 0.4231 0.53503 0.0
H1234 H 0.60933 0.39634 0.52389 0.0
H1235 H 0.61407 0.39428 0.55362 0.0
H1236 H 0.61742 0.36811 0.5319 0.0
H1237 H 0.68385 0.47025 0.53412 0.0
H1238 H 0.7142 0.46424 0.54554 0.0
H1239 H 0.68834 0.46825 0.5639 0.0
C1240 C 0.78621 0.25481 0.35232 0.0
C1241 C 0.76558 0.24517 0.33622 0.0
C1242 C 0.7824 0.26733 0.37432 0.0
C1243 C 0.75726 0.26978 0.38063 0.0
C1244 C 0.7363 0.25989 0.36446 0.0
C1245 C 0.74074 0.24798 0.34233 0.0
C1246 C 0.80536 0.27798 0.3908 0.0
C1247 C 0.70923 0.26154 0.37066 0.0
C1248 C 0.75479 0.28093 0.44554 0.0
C1249 C 0.75596 0.30666 0.45062 0.0
C1250 C 0.75295 0.26842 0.42267 0.0
C1251 C 0.75323 0.2821 0.40443 0.0
C1252 C 0.75285 0.30798 0.40947 0.0
C1253 C 0.75393 0.31994 0.43256 0.0
C1254 C 0.75261 0.24077 0.41815 0.0
C1255 C 0.75362 0.32336 0.39064 0.0
H1256 H 0.80544 0.25292 0.34753 0.0
H1257 H 0.72475 0.24046 0.32988 0.0
H1258 H 0.80496 0.29796 0.39692 0.0
H1259 H 0.80487 0.26882 0.40613 0.0
H1260 H 0.82364 0.27566 0.38283 0.0
H1261 H 0.69505 0.25316 0.35607 0.0
H1262 H 0.70527 0.25196 0.38543 0.0
H1263 H 0.70656 0.28112 0.37615 0.0
H1264 H 0.75658 0.27068 0.45953 0.0
H1265 H 0.75537 0.3399 0.43649 0.0
H1266 H 0.7715 0.23634 0.4128 0.0
H1267 H 0.73818 0.23196 0.40393 0.0
H1268 H 0.74838 0.23251 0.43367 0.0
H1269 H 0.77274 0.32424 0.38373 0.0
H1270 H 0.7499 0.34251 0.39696 0.0
H1271 H 0.73941 0.31483 0.37617 0.0
C1272 C 0.50869 0.03304 0.89281 0.0
C1273 C 0.49192 0.04857 0.88589 0.0
C1274 C 0.52884 0.02662 0.87951 0.0
C1275 C 0.53198 0.03551 0.85855 0.0
C1276 C 0.51627 0.05252 0.85232 0.0
C1277 C 0.49669 0.05909 0.86622 0.0
C1278 C 0.54562 0.00894 0.88707 0.0
C1279 C 0.51877 0.06229 0.83003 0.0
C1280 C 0.58938 0.02499 0.82361 0.0
C1281 C 0.5798 0.00323 0.80827 0.0
C1282 C 0.57431 0.03551 0.84053 0.0
C1283 C 0.54893 0.02433 0.84163 0.0
C1284 C 0.53918 0.00247 0.82604 0.0
C1285 C 0.55482 0.99206 0.80977 0.0
C1286 C 0.58554 0.05846 0.85725 0.0
C1287 C 0.51205 0.99021 0.82627 0.0
H1288 H 0.50525 0.02472 0.90791 0.0
H1289 H 0.48435 0.07169 0.86107 0.0
H1290 H 0.54014 0.99038 0.87639 0.0
H1291 H 0.56593 0.01501 0.88463 0.0
H1292 H 0.5438 0.00725 0.90542 0.0
H1293 H 0.50712 0.07742 0.82895 0.0
H1294 H 0.53896 0.0692 0.82803 0.0
H1295 H 0.51238 0.04708 0.81535 0.0
H1296 H 0.60875 0.03358 0.8226 0.0
H1297 H 0.54723 0.97535 0.79784 0.0
H1298 H 0.58413 0.05511 0.87517 0.0
H1299 H 0.57454 0.07382 0.85533 0.0
H1300 H 0.60586 0.06436 0.85465 0.0
H1301 H 0.50898 0.98467 0.84322 0.0
H1302 H 0.50729 0.97357 0.81267 0.0
H1303 H 0.49854 0.00344 0.8237 0.0
C1304 C 0.33997 0.26804 0.36728 0.0
C1305 C 0.36412 0.27636 0.36061 0.0
C1306 C 0.33643 0.2484 0.37954 0.0
C1307 C 0.35762 0.23692 0.38552 0.0
C1308 C 0.38214 0.24546 0.3791 0.0
C1309 C 0.38506 0.26497 0.36659 0.0
C1310 C 0.30993 0.23964 0.38575 0.0
C1311 C 0.40524 0.23389 0.38536 0.0
C1312 C 0.35078 0.19849 0.43324 0.0
C1313 C 0.3456 0.17441 0.42059 0.0
C1314 C 0.35511 0.21901 0.42208 0.0
C1315 C 0.35391 0.21539 0.39772 0.0
C1316 C 0.34866 0.19115 0.38489 0.0
C1317 C 0.34473 0.17099 0.39646 0.0
C1318 C 0.36092 0.24457 0.43636 0.0
C1319 C 0.34691 0.1865 0.35889 0.0
H1320 H 0.32369 0.27664 0.36249 0.0
H1321 H 0.40381 0.27153 0.36168 0.0
H1322 H 0.30411 0.22007 0.37755 0.0
H1323 H 0.30975 0.24047 0.40463 0.0
H1324 H 0.29556 0.25083 0.38021 0.0
H1325 H 0.42311 0.24329 0.37989 0.0
H1326 H 0.40733 0.23455 0.40425 0.0
H1327 H 0.40275 0.21415 0.37714 0.0
H1328 H 0.3516 0.20131 0.45187 0.0
H1329 H 0.34064 0.15249 0.38651 0.0
H1330 H 0.34601 0.25589 0.43235 0.0
H1331 H 0.37938 0.25391 0.43202 0.0
H1332 H 0.36191 0.24422 0.45513 0.0
H1333 H 0.33168 0.1961 0.3523 0.0
H1334 H 0.3427 0.16653 0.35145 0.0
H1335 H 0.36509 0.19414 0.35261 0.0
C1336 C 0.53991 0.46524 0.88098 0.0
C1337 C 0.55206 0.48316 0.8992 0.0
C1338 C 0.5217 0.47102 0.86539 0.0
C1339 C 0.51565 0.49542 0.86786 0.0
C1340 C 0.52819 0.51375 0.88589 0.0
C1341 C 0.54614 0.50738 0.90142 0.0
C1342 C 0.50862 0.45088 0.8465 0.0
C1343 C 0.52232 0.53999 0.88901 0.0
C1344 C 0.4802 0.51188 0.81602 0.0
C1345 C 0.45484 0.50837 0.8219 0.0
C1346 C 0.50037 0.50849 0.83111 0.0
C1347 C 0.49498 0.50122 0.85244 0.0
C1348 C 0.46949 0.49822 0.85866 0.0
C1349 C 0.44981 0.50193 0.84341 0.0
C1350 C 0.52737 0.51214 0.82403 0.0
C1351 C 0.46288 0.4903 0.88116 0.0
H1352 H 0.54477 0.44663 0.87877 0.0
H1353 H 0.55527 0.52131 0.91552 0.0
H1354 H 0.4878 0.44809 0.84855 0.0
H1355 H 0.51123 0.45637 0.82946 0.0
H1356 H 0.51601 0.43302 0.84656 0.0
H1357 H 0.53502 0.55243 0.90284 0.0
H1358 H 0.52434 0.54728 0.87271 0.0
H1359 H 0.50226 0.54047 0.8934 0.0
H1360 H 0.48429 0.51694 0.7995 0.0
H1361 H 0.43031 0.49919 0.8482 0.0
H1362 H 0.5351 0.49428 0.82182 0.0
H1363 H 0.53977 0.52507 0.8377 0.0
H1364 H 0.52857 0.51947 0.80767 0.0
H1365 H 0.46827 0.47167 0.88156 0.0
H1366 H 0.44221 0.48969 0.88381 0.0
H1367 H 0.47384 0.50313 0.8958 0.0
C1368 C 0.83193 0.71447 0.15161 0.0
C1369 C 0.81911 0.73518 0.15633 0.0
C1370 C 0.83492 0.70358 0.12889 0.0
C1371 C 0.82494 0.71368 0.11041 0.0
C1372 C 0.81198 0.73457 0.11503 0.0
C1373 C 0.80919 0.74505 0.13794 0.0
C1374 C 0.84888 0.68132 0.12467 0.0
C1375 C 0.80105 0.74583 0.09577 0.0
C1376 C 0.85337 0.6983 0.05286 0.0
C1377 C 0.83528 0.67893 0.04124 0.0
C1378 C 0.85001 0.71009 0.07523 0.0
C1379 C 0.82808 0.70229 0.08626 0.0
C1380 C 0.80954 0.68306 0.07447 0.0
C1381 C 0.81334 0.67164 0.0521 0.0
C1382 C 0.87015 0.73062 0.08722 0.0
C1383 C 0.78591 0.67422 0.08567 0.0
H1384 H 0.84 0.70698 0.16573 0.0
H1385 H 0.79901 0.76087 0.14145 0.0
H1386 H 0.83632 0.66555 0.11397 0.0
H1387 H 0.86582 0.68544 0.11497 0.0
H1388 H 0.85527 0.67558 0.14092 0.0
H1389 H 0.79166 0.76217 0.10227 0.0
H1390 H 0.81641 0.75155 0.0849 0.0
H1391 H 0.78686 0.73193 0.08455 0.0
H1392 H 0.87034 0.70411 0.04459 0.0
H1393 H 0.79923 0.65672 0.04326 0.0
H1394 H 0.87875 0.72522 0.10283 0.0
H1395 H 0.86138 0.74753 0.09296 0.0
H1396 H 0.8856 0.73514 0.07596 0.0
H1397 H 0.79143 0.6667 0.1012 0.0
H1398 H 0.77289 0.65965 0.07389 0.0
H1399 H 0.77532 0.68989 0.09141 0.0
C1400 C 0.05062 0.0089 0.1274 0.0
C1401 C 0.04464 0.01952 0.10814 0.0
C1402 C 0.03521 0.00998 0.14615 0.0
C1403 C 0.01325 0.02212 0.14585 0.0
C1404 C 0.00688 0.03259 0.12637 0.0
C1405 C 0.02258 0.03114 0.10778 0.0
C1406 C 0.04274 0.99854 0.16653 0.0
C1407 C 0.98367 0.04569 0.12529 0.0
C1408 C 0.96269 0.00832 0.18756 0.0
C1409 C 0.96894 0.0283 0.20583 0.0
C1410 C 0.97672 0.00619 0.16787 0.0
C1411 C 0.99748 0.02452 0.16626 0.0
C1412 C 0.00361 0.04492 0.18447 0.0
C1413 C 0.98935 0.04653 0.20399 0.0
C1414 C 0.96958 0.9841 0.14892 0.0
C1415 C 0.02548 0.06495 0.18347 0.0
H1416 H 0.0678 1.00026 0.12816 0.0
H1417 H 0.01756 0.03915 0.09293 0.0
H1418 H 0.04711 0.01309 0.18207 0.0
H1419 H 0.02666 0.98519 0.17018 0.0
H1420 H 0.05969 0.98881 0.1637 0.0
H1421 H 0.98092 0.05227 0.10869 0.0
H1422 H 0.96632 0.03315 0.12767 0.0
H1423 H 0.98552 0.06179 0.1395 0.0
H1424 H 0.94702 0.99409 0.18876 0.0
H1425 H 0.99435 0.06208 0.21792 0.0
H1426 H 0.98577 0.97324 0.14681 0.0
H1427 H 0.96566 0.99027 0.13232 0.0
H1428 H 0.95253 0.97181 0.15245 0.0
H1429 H 0.04363 0.05696 0.18248 0.0
H1430 H 0.02735 0.07997 0.19871 0.0
H1431 H 0.02277 0.07308 0.16772 0.0
C1432 C 0.27085 0.76482 0.17525 0.0
C1433 C 0.28628 0.78147 0.1925 0.0
C1434 C 0.2669 0.77038 0.15302 0.0
C1435 C 0.27893 0.79297 0.14786 0.0
C1436 C 0.29449 0.8098 0.16525 0.0
C1437 C 0.29793 0.80388 0.18728 0.0
C1438 C 0.25007 0.75201 0.135 0.0
C1439 C 0.30803 0.8339 0.16046 0.0
C1440 C 0.29506 0.7985 0.08692 0.0
C1441 C 0.27725 0.81322 0.08025 0.0
C1442 C 0.29518 0.7911 0.10849 0.0
C1443 C 0.27693 0.79841 0.12395 0.0
C1444 C 0.25823 0.81246 0.11708 0.0
C1445 C 0.25863 0.81976 0.09532 0.0
C1446 C 0.31555 0.77625 0.11508 0.0
C1447 C 0.23833 0.82045 0.13301 0.0
H1448 H 0.2616 0.74759 0.17923 0.0
H1449 H 0.31017 0.81669 0.20042 0.0
H1450 H 0.23493 0.7611 0.12757 0.0
H1451 H 0.26152 0.74511 0.12071 0.0
H1452 H 0.24094 0.73597 0.14207 0.0
H1453 H 0.31864 0.8454 0.17608 0.0
H1454 H 0.32173 0.83016 0.14714 0.0
H1455 H 0.29408 0.84469 0.15359 0.0
H1456 H 0.30947 0.79313 0.07545 0.0
H1457 H 0.24473 0.83102 0.09034 0.0
H1458 H 0.30675 0.7593 0.12089 0.0
H1459 H 0.32826 0.78726 0.12968 0.0
H1460 H 0.3274 0.77079 0.10061 0.0
H1461 H 0.22862 0.80436 0.1396 0.0
H1462 H 0.22374 0.82928 0.1244 0.0
H1463 H 0.24765 0.83383 0.1481 0.0
C1464 C 0.04628 0.46107 0.09118 0.0
C1465 C 0.03818 0.48388 0.08925 0.0
C1466 C 0.05558 0.45626 0.1124 0.0
C1467 C 0.05598 0.47433 0.13241 0.0
C1468 C 0.04622 0.49667 0.13093 0.0
C1469 C 0.03775 0.50132 0.10935 0.0
C1470 C 0.06614 0.43233 0.11318 0.0
C1471 C 0.04567 0.51612 0.15201 0.0
C1472 C 0.06578 0.45492 0.1907 0.0
C1473 C 0.09141 0.46461 0.197 0.0
C1474 C 0.05388 0.45808 0.16979 0.0
C1475 C 0.06819 0.47056 0.15458 0.0
C1476 C 0.0943 0.4797 0.16059 0.0
C1477 C 0.10548 0.47696 0.1819 0.0
C1478 C 0.02584 0.4487 0.16429 0.0
C1479 C 0.11041 0.49251 0.14456 0.0
H1480 H 0.046 0.44712 0.07593 0.0
H1481 H 0.03176 0.51907 0.10818 0.0
H1482 H 0.08687 0.43632 0.11844 0.0
H1483 H 0.0569 0.42262 0.12619 0.0
H1484 H 0.0634 0.41974 0.09627 0.0
H1485 H 0.03474 0.53107 0.14842 0.0
H1486 H 0.03704 0.50769 0.16607 0.0
H1487 H 0.06544 0.5245 0.15831 0.0
H1488 H 0.05477 0.44564 0.2025 0.0
H1489 H 0.12532 0.48438 0.18672 0.0
H1490 H 0.02287 0.4357 0.14766 0.0
H1491 H 0.01527 0.46438 0.16239 0.0
H1492 H 0.01748 0.43918 0.17785 0.0
H1493 H 0.10949 0.48046 0.12746 0.0
H1494 H 0.13072 0.49737 0.15128 0.0
H1495 H 0.10286 0.50968 0.14193 0.0
C1496 C 0.37965 0.682 0.26797 0.0
C1497 C 0.36692 0.70265 0.27375 0.0
C1498 C 0.4043 0.68147 0.27772 0.0
C1499 C 0.41658 0.70211 0.29362 0.0
C1500 C 0.40362 0.72278 0.29988 0.0
C1501 C 0.37899 0.7228 0.28988 0.0
C1502 C 0.41749 0.65913 0.27053 0.0
C1503 C 0.416 0.74517 0.31678 0.0
C1504 C 0.47565 0.69965 0.33251 0.0
C1505 C 0.49488 0.71149 0.32114 0.0
C1506 C 0.45007 0.69547 0.32332 0.0
C1507 C 0.44373 0.70316 0.30225 0.0
C1508 C 0.46335 0.71374 0.29011 0.0
C1509 C 0.48859 0.71779 0.29969 0.0
C1510 C 0.42968 0.684 0.33671 0.0
C1511 C 0.45757 0.722 0.2675 0.0
H1512 H 0.37052 0.6664 0.25542 0.0
H1513 H 0.36911 0.73861 0.29482 0.0
H1514 H 0.43413 0.66427 0.2608 0.0
H1515 H 0.42485 0.65239 0.2859 0.0
H1516 H 0.4046 0.6438 0.25953 0.0
H1517 H 0.40285 0.75913 0.32082 0.0
H1518 H 0.42255 0.73959 0.33303 0.0
H1519 H 0.43306 0.75396 0.30958 0.0
H1520 H 0.48035 0.6948 0.3491 0.0
H1521 H 0.50338 0.72669 0.29065 0.0
H1522 H 0.417 0.66887 0.32531 0.0
H1523 H 0.41765 0.6981 0.34359 0.0
H1524 H 0.43791 0.67654 0.35134 0.0
H1525 H 0.44591 0.70681 0.2553 0.0
H1526 H 0.47517 0.72805 0.25935 0.0
H1527 H 0.44627 0.73762 0.27039 0.0
C1528 C 0.09077 0.40741 0.9647 0.0
C1529 C 0.06947 0.41725 0.97358 0.0
C1530 C 0.08887 0.38262 0.95399 0.0
C1531 C 0.06513 0.36723 0.95228 0.0
C1532 C 0.04411 0.3765 0.96283 0.0
C1533 C 0.04648 0.40145 0.97324 0.0
C1534 C 0.11176 0.37348 0.94299 0.0
C1535 C 0.01855 0.36064 0.96159 0.0
C1536 C 0.05145 0.32061 0.89715 0.0
C1537 C 0.05675 0.29865 0.90412 0.0
C1538 C 0.05366 0.34278 0.9128 0.0
C1539 C 0.06123 0.34317 0.93617 0.0
C1540 C 0.06586 0.321 0.9436 0.0
C1541 C 0.06362 0.29893 0.92743 0.0
C1542 C 0.04847 0.36597 0.9041 0.0
C1543 C 0.07368 0.32072 0.96846 0.0
H1544 H 0.10877 0.41935 0.96538 0.0
H1545 H 0.02986 0.40884 0.97994 0.0
H1546 H 0.11453 0.35525 0.94736 0.0
H1547 H 0.10852 0.37103 0.92399 0.0
H1548 H 0.12954 0.38656 0.94843 0.0
H1549 H 0.00569 0.36901 0.97399 0.0
H1550 H 0.00918 0.35832 0.94399 0.0
H1551 H 0.0209 0.34198 0.9651 0.0
H1552 H 0.04593 0.32064 0.87923 0.0
H1553 H 0.06767 0.28206 0.93298 0.0
H1554 H 0.06597 0.37974 0.907 0.0
H1555 H 0.03343 0.37438 0.91375 0.0
H1556 H 0.04225 0.36239 0.88546 0.0
H1557 H 0.09278 0.3317 0.97322 0.0
H1558 H 0.07447 0.3017 0.97183 0.0
H1559 H 0.06014 0.32945 0.97985 0.0
C1560 C 0.75157 0.71257 0.30077 0.0
C1561 C 0.75141 0.71048 0.27677 0.0
C1562 C 0.72878 0.71292 0.31191 0.0
C1563 C 0.70528 0.71078 0.29868 0.0
C1564 C 0.70497 0.70761 0.27436 0.0
C1565 C 0.72807 0.70773 0.26372 0.0
C1566 C 0.72999 0.71678 0.33786 0.0
C1567 C 0.68031 0.70496 0.25961 0.0
C1568 C 0.64178 0.6993 0.32557 0.0
C1569 C 0.63462 0.72304 0.32886 0.0
C1570 C 0.66499 0.69492 0.31605 0.0
C1571 C 0.68146 0.71486 0.31022 0.0
C1572 C 0.6747 0.73898 0.3145 0.0
C1573 C 0.65133 0.7427 0.32353 0.0
C1574 C 0.67146 0.66892 0.31146 0.0
C1575 C 0.69189 0.76087 0.30903 0.0
H1576 H 0.76962 0.71476 0.31089 0.0
H1577 H 0.72789 0.7057 0.24514 0.0
H1578 H 0.72469 0.73521 0.34462 0.0
H1579 H 0.71611 0.70282 0.34372 0.0
H1580 H 0.74934 0.71571 0.34549 0.0
H1581 H 0.68304 0.69997 0.24098 0.0
H1582 H 0.66608 0.69062 0.26451 0.0
H1583 H 0.67223 0.72263 0.26246 0.0
H1584 H 0.62887 0.68408 0.32964 0.0
H1585 H 0.64605 0.76117 0.32636 0.0
H1586 H 0.69076 0.66828 0.31935 0.0
H1587 H 0.6718 0.66272 0.29264 0.0
H1588 H 0.65747 0.65573 0.31825 0.0
H1589 H 0.71132 0.76191 0.31739 0.0
H1590 H 0.68458 0.77863 0.31481 0.0
H1591 H 0.69366 0.75867 0.29019 0.0
C1592 C 0.0789 0.13371 0.01719 0.0
C1593 C 0.0814 0.10847 0.01357 0.0
C1594 C 0.07117 0.14524 0.99907 0.0
C1595 C 0.06568 0.13125 0.97663 0.0
C1596 C 0.06699 0.1055 0.97303 0.0
C1597 C 0.07479 0.09439 0.99156 0.0
C1598 C 0.06984 0.17265 0.00382 0.0
C1599 C 0.06117 0.08988 0.94943 0.0
C1600 C 0.02982 0.16142 0.93368 0.0
C1601 C 0.0498 0.17208 0.92222 0.0
C1602 C 0.03457 0.14743 0.95088 0.0
C1603 C 0.05993 0.14399 0.95689 0.0
C1604 C 0.08011 0.15419 0.945 0.0
C1605 C 0.07481 0.16806 0.92785 0.0
C1606 C 0.0125 0.13685 0.96305 0.0
C1607 C 0.10743 0.15103 0.95085 0.0
H1608 H 0.08362 0.14463 0.03423 0.0
H1609 H 0.07682 0.07493 0.98859 0.0
H1610 H 0.08429 0.18232 0.99428 0.0
H1611 H 0.05085 0.17643 0.99764 0.0
H1612 H 0.07332 0.18062 0.02242 0.0
H1613 H 0.06087 0.06988 0.94983 0.0
H1614 H 0.04244 0.0928 0.94185 0.0
H1615 H 0.07583 0.09551 0.93786 0.0
H1616 H 0.0104 0.16427 0.92944 0.0
H1617 H 0.0904 0.1761 0.9191 0.0
H1618 H 0.01439 0.14574 0.98143 0.0
H1619 H 0.01271 0.11679 0.96252 0.0
H1620 H 0.99377 0.13966 0.95531 0.0
H1621 H 0.11339 0.16024 0.96881 0.0
H1622 H 0.12077 0.15893 0.93922 0.0
H1623 H 0.1092 0.13115 0.94977 0.0
C1624 C 0.39509 0.29017 0.27765 0.0
C1625 C 0.3978 0.31238 0.29346 0.0
C1626 C 0.40798 0.28829 0.25737 0.0
C1627 C 0.42391 0.30914 0.2527 0.0
C1628 C 0.42708 0.33149 0.26876 0.0
C1629 C 0.41404 0.33283 0.28894 0.0
C1630 C 0.40407 0.26411 0.24068 0.0
C1631 C 0.44389 0.35413 0.26442 0.0
C1632 C 0.47123 0.29798 0.20692 0.0
C1633 C 0.4578 0.30271 0.18739 0.0
C1634 C 0.46067 0.30041 0.22842 0.0
C1635 C 0.43616 0.30786 0.23045 0.0
C1636 C 0.42287 0.31337 0.21096 0.0
C1637 C 0.43381 0.31069 0.18971 0.0
C1638 C 0.47542 0.29435 0.24881 0.0
C1639 C 0.39679 0.32157 0.21243 0.0
H1640 H 0.38239 0.27437 0.28086 0.0
H1641 H 0.41659 0.34994 0.30125 0.0
H1642 H 0.39467 0.26665 0.22418 0.0
H1643 H 0.42276 0.25796 0.23684 0.0
H1644 H 0.39215 0.24929 0.2474 0.0
H1645 H 0.44516 0.36979 0.27904 0.0
H1646 H 0.46342 0.34976 0.26133 0.0
H1647 H 0.4363 0.36009 0.2487 0.0
H1648 H 0.48975 0.29175 0.20531 0.0
H1649 H 0.4233 0.31452 0.17478 0.0
H1650 H 0.46479 0.27825 0.25471 0.0
H1651 H 0.47745 0.31009 0.26338 0.0
H1652 H 0.49473 0.28998 0.24467 0.0
H1653 H 0.38306 0.30672 0.21718 0.0
H1654 H 0.38944 0.32612 0.19592 0.0
H1655 H 0.39747 0.33805 0.22608 0.0
C1656 C 0.55776 0.40082 0.00697 0.0
C1657 C 0.57166 0.38619 0.99187 0.0
C1658 C 0.54969 0.39329 0.02735 0.0
C1659 C 0.55504 0.3703 0.03246 0.0
C1660 C 0.57047 0.3563 0.01812 0.0
C1661 C 0.57894 0.36463 0.99829 0.0
C1662 C 0.53407 0.40922 0.04264 0.0
C1663 C 0.57644 0.33154 0.02269 0.0
C1664 C 0.54207 0.34774 0.08891 0.0
C1665 C 0.51809 0.33341 0.08323 0.0
C1666 C 0.55386 0.36103 0.07302 0.0
C1667 C 0.54175 0.35919 0.05072 0.0
C1668 C 0.51734 0.3451 0.04513 0.0
C1669 C 0.50569 0.33273 0.06153 0.0
C1670 C 0.57946 0.37655 0.07992 0.0
C1671 C 0.50394 0.34213 0.02142 0.0
H1672 H 0.55197 0.41752 0.00234 0.0
H1673 H 0.59041 0.35358 0.98723 0.0
H1674 H 0.51368 0.40107 0.03992 0.0
H1675 H 0.54012 0.41005 0.06105 0.0
H1676 H 0.53574 0.42831 0.03888 0.0
H1677 H 0.59024 0.32383 0.01092 0.0
H1678 H 0.58436 0.33309 0.04069 0.0
H1679 H 0.55858 0.31826 0.02042 0.0
H1680 H 0.55167 0.34847 0.10571 0.0
H1681 H 0.48724 0.32156 0.05693 0.0
H1682 H 0.57954 0.39503 0.075 0.0
H1683 H 0.59449 0.36764 0.0707 0.0
H1684 H 0.58452 0.37897 0.09872 0.0
H1685 H 0.50141 0.36046 0.01718 0.0
H1686 H 0.48491 0.33072 0.01992 0.0
H1687 H 0.51578 0.33326 0.00836 0.0
C1688 C 0.69038 0.24229 0.19427 0.0
C1689 C 0.69961 0.2519 0.21708 0.0
C1690 C 0.66536 0.244 0.18639 0.0
C1691 C 0.64915 0.25577 0.20166 0.0
C1692 C 0.65816 0.26504 0.22488 0.0
C1693 C 0.68328 0.26287 0.23236 0.0
C1694 C 0.65643 0.23357 0.1616 0.0
C1695 C 0.64149 0.27783 0.24163 0.0
C1696 C 0.59521 0.28164 0.173 0.0
C1697 C 0.57446 0.26324 0.17318 0.0
C1698 C 0.61943 0.2798 0.18285 0.0
C1699 C 0.62309 0.25895 0.19298 0.0
C1700 C 0.60214 0.24053 0.19358 0.0
C1701 C 0.57807 0.24293 0.18376 0.0
C1702 C 0.64125 0.29993 0.18199 0.0
C1703 C 0.6053 0.21794 0.20406 0.0
H1704 H 0.70285 0.23346 0.18249 0.0
H1705 H 0.69042 0.27043 0.24997 0.0
H1706 H 0.63877 0.22024 0.16072 0.0
H1707 H 0.65175 0.24864 0.15258 0.0
H1708 H 0.67104 0.22407 0.15222 0.0
H1709 H 0.65095 0.28308 0.25931 0.0
H1710 H 0.63658 0.29475 0.23574 0.0
H1711 H 0.62331 0.26566 0.24227 0.0
H1712 H 0.59258 0.29747 0.165 0.0
H1713 H 0.56216 0.22862 0.18401 0.0
H1714 H 0.65593 0.29232 0.17125 0.0
H1715 H 0.6505 0.30703 0.19953 0.0
H1716 H 0.63495 0.31562 0.17475 0.0
H1717 H 0.61851 0.20699 0.19417 0.0
H1718 H 0.58688 0.20591 0.20421 0.0
H1719 H 0.61392 0.22348 0.22198 0.0
C1720 C 0.45697 0.12155 0.00681 0.0
C1721 C 0.45685 0.09835 0.01341 0.0
C1722 C 0.46346 0.14346 0.02282 0.0
C1723 C 0.46942 0.14226 0.0462 0.0
C1724 C 0.46996 0.119 0.05296 0.0
C1725 C 0.46391 0.09734 0.03646 0.0
C1726 C 0.46297 0.16792 0.01482 0.0
C1727 C 0.47595 0.11696 0.07777 0.0
C1728 C 0.50017 0.20233 0.08388 0.0
C1729 C 0.47865 0.21223 0.09213 0.0
C1730 C 0.49764 0.17911 0.06949 0.0
C1731 C 0.47308 0.16535 0.06366 0.0
C1732 C 0.45151 0.17468 0.0731 0.0
C1733 C 0.45453 0.1981 0.087 0.0
C1734 C 0.52104 0.16996 0.0595 0.0
C1735 C 0.42505 0.16038 0.06774 0.0
H1736 H 0.45111 0.12271 0.98923 0.0
H1737 H 0.46435 0.07958 0.04172 0.0
H1738 H 0.44708 0.17701 0.0223 0.0
H1739 H 0.48095 0.18042 0.02087 0.0
H1740 H 0.4604 0.16576 0.99577 0.0
H1741 H 0.47732 0.09765 0.07998 0.0
H1742 H 0.49418 0.12866 0.08461 0.0
H1743 H 0.46079 0.12384 0.08835 0.0
H1744 H 0.51885 0.21324 0.08772 0.0
H1745 H 0.43787 0.20558 0.09354 0.0
H1746 H 0.52004 0.17009 0.04072 0.0
H1747 H 0.52187 0.15062 0.06183 0.0
H1748 H 0.53895 0.18157 0.06748 0.0
H1749 H 0.41907 0.15932 0.04929 0.0
H1750 H 0.41072 0.16906 0.07824 0.0
H1751 H 0.42498 0.14118 0.07086 0.0
C1752 C 0.31491 0.32684 0.69641 0.0
C1753 C 0.32316 0.3123 0.71189 0.0
C1754 C 0.32229 0.35253 0.70024 0.0
C1755 C 0.33833 0.36397 0.72001 0.0
C1756 C 0.34686 0.34936 0.73561 0.0
C1757 C 0.33916 0.32374 0.73138 0.0
C1758 C 0.31266 0.36748 0.6833 0.0
C1759 C 0.36401 0.36083 0.7569 0.0
C1760 C 0.37599 0.42818 0.72548 0.0
C1761 C 0.36165 0.44222 0.74057 0.0
C1762 C 0.36808 0.40279 0.71775 0.0
C1763 C 0.34525 0.39132 0.72518 0.0
C1764 C 0.32995 0.40578 0.73921 0.0
C1765 C 0.33835 0.43099 0.74676 0.0
C1766 C 0.38485 0.38799 0.70271 0.0
C1767 C 0.30535 0.39438 0.74733 0.0
H1768 H 0.30238 0.31814 0.68141 0.0
H1769 H 0.34598 0.31259 0.74319 0.0
H1770 H 0.30063 0.38067 0.69196 0.0
H1771 H 0.32894 0.37853 0.67701 0.0
H1772 H 0.30124 0.35568 0.66826 0.0
H1773 H 0.3696 0.34682 0.76691 0.0
H1774 H 0.38157 0.37132 0.75204 0.0
H1775 H 0.35415 0.37411 0.7682 0.0
H1776 H 0.39403 0.4367 0.72067 0.0
H1777 H 0.32701 0.44176 0.75823 0.0
H1778 H 0.37339 0.37637 0.68765 0.0
H1779 H 0.39349 0.37538 0.71262 0.0
H1780 H 0.40046 0.39997 0.69645 0.0
H1781 H 0.29301 0.38322 0.73256 0.0
H1782 H 0.29452 0.40851 0.75636 0.0
H1783 H 0.30962 0.38175 0.75931 0.0
C1784 C 0.29615 0.6651 0.76595 0.0
C1785 C 0.30359 0.68466 0.7844 0.0
C1786 C 0.30962 0.64472 0.76205 0.0
C1787 C 0.33106 0.64369 0.77701 0.0
C1788 C 0.33917 0.66371 0.79523 0.0
C1789 C 0.32534 0.68391 0.79873 0.0
C1790 C 0.30014 0.62374 0.74253 0.0
C1791 C 0.36192 0.66337 0.81158 0.0
C1792 C 0.34351 0.5801 0.78643 0.0
C1793 C 0.36423 0.57575 0.77308 0.0
C1794 C 0.33273 0.60203 0.78776 0.0
C1795 C 0.34278 0.62038 0.77543 0.0
C1796 C 0.36355 0.61619 0.7617 0.0
C1797 C 0.37403 0.59387 0.76065 0.0
C1798 C 0.31053 0.60554 0.80251 0.0
C1799 C 0.37475 0.63534 0.74829 0.0
H1800 H 0.27924 0.66532 0.7549 0.0
H1801 H 0.33151 0.69909 0.81278 0.0
H1802 H 0.31611 0.61849 0.73218 0.0
H1803 H 0.29222 0.60729 0.74963 0.0
H1804 H 0.28504 0.62851 0.73097 0.0
H1805 H 0.36737 0.68134 0.82335 0.0
H1806 H 0.35745 0.6488 0.82213 0.0
H1807 H 0.37855 0.65883 0.80185 0.0
H1808 H 0.33557 0.56628 0.79606 0.0
H1809 H 0.39003 0.59075 0.75034 0.0
H1810 H 0.29375 0.60854 0.79184 0.0
H1811 H 0.31553 0.62218 0.81603 0.0
H1812 H 0.30493 0.58943 0.811 0.0
H1813 H 0.35977 0.63944 0.73622 0.0
H1814 H 0.39072 0.62928 0.73832 0.0
H1815 H 0.38185 0.65283 0.76023 0.0
C1816 C 0.8915 0.50775 0.47401 0.0
C1817 C 0.9104 0.52073 0.4907 0.0
C1818 C 0.87623 0.48636 0.47777 0.0
C1819 C 0.87964 0.47783 0.49886 0.0
C1820 C 0.89848 0.49092 0.51589 0.0
C1821 C 0.91373 0.51208 0.51155 0.0
C1822 C 0.85649 0.47281 0.45909 0.0
C1823 C 0.90262 0.4825 0.53866 0.0
C1824 C 0.82501 0.43389 0.5152 0.0
C1825 C 0.83351 0.41091 0.50893 0.0
C1826 C 0.84001 0.45588 0.51241 0.0
C1827 C 0.86392 0.45484 0.50284 0.0
C1828 C 0.87264 0.43173 0.4966 0.0
C1829 C 0.85743 0.4101 0.49985 0.0
C1830 C 0.83021 0.48021 0.51954 0.0
C1831 C 0.89787 0.42979 0.4861 0.0
H1832 H 0.88836 0.51449 0.45804 0.0
H1833 H 0.92846 0.52174 0.52446 0.0
H1834 H 0.86028 0.45351 0.45388 0.0
H1835 H 0.83723 0.47196 0.46569 0.0
H1836 H 0.85632 0.48176 0.44361 0.0
H1837 H 0.91738 0.49524 0.55042 0.0
H1838 H 0.8845 0.4811 0.54727 0.0
H1839 H 0.90859 0.46383 0.53577 0.0
H1840 H 0.80662 0.43471 0.5223 0.0
H1841 H 0.86415 0.39246 0.49483 0.0
H1842 H 0.82775 0.48929 0.50435 0.0
H1843 H 0.84431 0.49281 0.53206 0.0
H1844 H 0.81167 0.47796 0.52745 0.0
H1845 H 0.89778 0.43725 0.4698 0.0
H1846 H 0.90203 0.41044 0.48241 0.0
H1847 H 0.91359 0.44104 0.49787 0.0
C1848 C 0.76534 0.90935 0.84907 0.0
C1849 C 0.7868 0.90113 0.83891 0.0
C1850 C 0.7462 0.91746 0.83611 0.0
C1851 C 0.74832 0.91715 0.81228 0.0
C1852 C 0.76977 0.90867 0.80181 0.0
C1853 C 0.78879 0.90082 0.81525 0.0
C1854 C 0.72364 0.92634 0.84798 0.0
C1855 C 0.77263 0.90796 0.77642 0.0
C1856 C 0.68544 0.91749 0.77846 0.0
C1857 C 0.68602 0.94266 0.77737 0.0
C1858 C 0.70611 0.90875 0.78881 0.0
C1859 C 0.72785 0.92557 0.79849 0.0
C1860 C 0.729 0.95082 0.79661 0.0
C1861 C 0.70813 0.95905 0.78601 0.0
C1862 C 0.70422 0.88164 0.79024 0.0
C1863 C 0.75179 0.96938 0.80676 0.0
H1864 H 0.76332 0.9092 0.8672 0.0
H1865 H 0.80539 0.89474 0.80728 0.0
H1866 H 0.72212 0.94556 0.84562 0.0
H1867 H 0.70574 0.91469 0.84013 0.0
H1868 H 0.72508 0.92583 0.86671 0.0
H1869 H 0.79027 0.90057 0.77083 0.0
H1870 H 0.75595 0.89629 0.76626 0.0
H1871 H 0.7731 0.9268 0.7723 0.0
H1872 H 0.66855 0.90463 0.7717 0.0
H1873 H 0.70881 0.97852 0.78525 0.0
H1874 H 0.70314 0.87922 0.80845 0.0
H1875 H 0.72151 0.87411 0.78399 0.0
H1876 H 0.68716 0.87063 0.78004 0.0
H1877 H 0.753 0.97125 0.82579 0.0
H1878 H 0.75069 0.98788 0.80219 0.0
H1879 H 0.76967 0.96293 0.80074 0.0
C1880 C 0.64916 0.51407 0.92368 0.0
C1881 C 0.63932 0.50101 0.94047 0.0
C1882 C 0.6731 0.52869 0.92739 0.0
C1883 C 0.68812 0.52971 0.9481 0.0
C1884 C 0.67852 0.51653 0.96512 0.0
C1885 C 0.65412 0.50257 0.96122 0.0
C1886 C 0.68248 0.54271 0.9089 0.0
C1887 C 0.69422 0.51679 0.98724 0.0
C1888 C 0.75907 0.54635 0.94317 0.0
C1889 C 0.76322 0.57135 0.9534 0.0
C1890 C 0.73495 0.53232 0.9423 0.0
C1891 C 0.71431 0.54373 0.95131 0.0
C1892 C 0.71845 0.56892 0.96192 0.0
C1893 C 0.74298 0.58236 0.96311 0.0
C1894 C 0.73148 0.50537 0.93133 0.0
C1895 C 0.69679 0.58189 0.97122 0.0
H1896 H 0.63841 0.51255 0.90729 0.0
H1897 H 0.64669 0.49282 0.97443 0.0
H1898 H 0.68854 0.56246 0.91635 0.0
H1899 H 0.69938 0.53523 0.90168 0.0
H1900 H 0.66767 0.54152 0.89461 0.0
H1901 H 0.6839 0.5058 0.99886 0.0
H1902 H 0.7122 0.50919 0.98331 0.0
H1903 H 0.69958 0.53603 0.99648 0.0
H1904 H 0.77476 0.53769 0.93591 0.0
H1905 H 0.74612 0.60171 0.97097 0.0
H1906 H 0.71879 0.50242 0.9153 0.0
H1907 H 0.72217 0.49387 0.94306 0.0
H1908 H 0.74987 0.49878 0.92699 0.0
H1909 H 0.68252 0.58224 0.9569 0.0
H1910 H 0.70339 0.60117 0.97993 0.0
H1911 H 0.68693 0.57168 0.9836 0.0
C1912 C 0.25392 0.66463 0.26203 0.0
C1913 C 0.27732 0.66112 0.25279 0.0
C1914 C 0.23623 0.64441 0.26487 0.0
C1915 C 0.24206 0.62012 0.25823 0.0
C1916 C 0.26524 0.61646 0.24811 0.0
C1917 C 0.2826 0.637 0.24556 0.0
C1918 C 0.21175 0.64908 0.27576 0.0
C1919 C 0.27206 0.59085 0.2406 0.0
C1920 C 0.21184 0.5688 0.28768 0.0
C1921 C 0.19263 0.55642 0.27105 0.0
C1922 C 0.22778 0.58976 0.28385 0.0
C1923 C 0.22452 0.59854 0.26285 0.0
C1924 C 0.20495 0.58635 0.24612 0.0
C1925 C 0.18922 0.56547 0.25043 0.0
C1926 C 0.24837 0.60233 0.30217 0.0
C1927 C 0.20091 0.59512 0.2235 0.0
H1928 H 0.24987 0.68323 0.26793 0.0
H1929 H 0.30055 0.63421 0.23819 0.0
H1930 H 0.19511 0.6384 0.26476 0.0
H1931 H 0.21159 0.64268 0.29259 0.0
H1932 H 0.20934 0.66894 0.27861 0.0
H1933 H 0.29014 0.59113 0.23186 0.0
H1934 H 0.27412 0.58171 0.2558 0.0
H1935 H 0.25655 0.57941 0.22871 0.0
H1936 H 0.21461 0.56199 0.30367 0.0
H1937 H 0.17444 0.55604 0.23746 0.0
H1938 H 0.24621 0.62211 0.30716 0.0
H1939 H 0.2674 0.60155 0.29528 0.0
H1940 H 0.24792 0.59366 0.31783 0.0
H1941 H 0.19772 0.61475 0.22664 0.0
H1942 H 0.18439 0.58402 0.21257 0.0
H1943 H 0.21826 0.59403 0.21384 0.0
C1944 C 0.99661 0.55015 0.02846 0.0
C1945 C 0.9898 0.5282 0.03682 0.0
C1946 C 0.97792 0.56349 0.02105 0.0
C1947 C 0.9518 0.55432 0.02156 0.0
C1948 C 0.94487 0.53274 0.03103 0.0
C1949 C 0.96402 0.52001 0.03874 0.0
C1950 C 0.98615 0.58664 0.01149 0.0
C1951 C 0.91725 0.5222 0.03164 0.0
C1952 C 0.90095 0.59469 0.01051 0.0
C1953 C 0.89422 0.58656 0.98691 0.0
C1954 C 0.91976 0.58451 0.02208 0.0
C1955 C 0.93195 0.56563 0.0098 0.0
C1956 C 0.92533 0.55748 0.98599 0.0
C1957 C 0.90667 0.56809 0.97485 0.0
C1958 C 0.92653 0.59386 0.04742 0.0
C1959 C 0.9378 0.53733 0.97226 0.0
H1960 H 0.01661 0.55649 0.0271 0.0
H1961 H 0.95881 0.50291 0.04505 0.0
H1962 H 0.98165 0.58306 0.99259 0.0
H1963 H 0.97557 0.60174 0.01893 0.0
H1964 H 0.00694 0.593 0.01503 0.0
H1965 H 0.915 0.50684 0.04161 0.0
H1966 H 0.90614 0.53676 0.03931 0.0
H1967 H 0.90887 0.51512 0.01381 0.0
H1968 H 0.89146 0.60895 0.01999 0.0
H1969 H 0.90161 0.56159 0.95665 0.0
H1970 H 0.94723 0.60072 0.05045 0.0
H1971 H 0.92256 0.57853 0.05721 0.0
H1972 H 0.91568 0.60897 0.05438 0.0
H1973 H 0.9587 0.54305 0.9729 0.0
H1974 H 0.93025 0.53287 0.95393 0.0
H1975 H 0.9347 0.5203 0.97988 0.0
C1976 C 0.11741 0.9665 0.07649 0.0
C1977 C 0.1078 0.97819 0.0592 0.0
C1978 C 0.13304 0.94788 0.07141 0.0
C1979 C 0.13927 0.94064 0.04845 0.0
C1980 C 0.12918 0.95198 0.03084 0.0
C1981 C 0.11365 0.97059 0.03642 0.0
C1982 C 0.14342 0.93638 0.09073 0.0
C1983 C 0.13518 0.94475 0.00612 0.0
C1984 C 0.20029 0.91171 0.0387 0.0
C1985 C 0.191 0.88641 0.03295 0.0
C1986 C 0.1837 0.92947 0.04374 0.0
C1987 C 0.15706 0.92187 0.04299 0.0
C1988 C 0.14752 0.89639 0.03714 0.0
C1989 C 0.16457 0.879 0.03222 0.0
C1990 C 0.19473 0.95641 0.04993 0.0
C1991 C 0.11928 0.88749 0.0361 0.0
H1992 H 0.11337 0.97244 0.0942 0.0
H1993 H 0.10611 0.97929 0.0229 0.0
H1994 H 0.13849 0.916 0.08674 0.0
H1995 H 0.16454 0.94054 0.09255 0.0
H1996 H 0.13591 0.94324 0.10747 0.0
H1997 H 0.12506 0.9546 0.99432 0.0
H1998 H 0.15601 0.94894 0.00465 0.0
H1999 H 0.12979 0.92457 1.00036 0.0
H2000 H 0.22064 0.91771 0.03935 0.0
H2001 H 0.15712 0.85955 0.0278 0.0
H2002 H 0.18951 0.96416 0.06733 0.0
H2003 H 0.18657 0.96699 0.03766 0.0
H2004 H 0.21585 0.95932 0.04974 0.0
H2005 H 0.11185 0.89311 0.05312 0.0
H2006 H 0.11486 0.8671 0.0311 0.0
H2007 H 0.10892 0.89618 0.02351 0.0
loop_
_geom_bond_atom_site_label_1
_geom_bond_atom_site_label_2
_geom_bond_distance
_geom_bond_site_symmetry_2
_ccdc_geom_bond_type
H0 C1 0.949 . S
C1 H0 0.949 . S
C1 C2 1.395 . S
C1 C3 1.391 . S
C2 C1 1.395 . S
C2 C5 1.390 . S
C3 C1 1.391 . S
C3 C7 1.387 . S
C3 C8 1.491 . S
H4 C5 0.950 1_565 S
C5 C2 1.390 . S
C5 H4 0.950 1_545 S
C5 C6 1.378 . S
C6 C5 1.378 . S
C6 C7 1.409 . S
C7 C3 1.387 . S
C7 C6 1.409 . S
C7 H9 0.951 . S
C8 C3 1.491 . S
C8 C10 1.382 . S
C8 C12 1.404 . S
H9 C7 0.951 . S
C10 C8 1.382 . S
C10 C11 1.391 . S
C10 H15 0.949 . S
C11 C10 1.391 . S
C11 C16 1.400 . S
C12 C8 1.404 . S
C12 H13 0.950 . S
C12 C14 1.375 . S
H13 C12 0.950 . S
C14 C12 1.375 . S
C14 C16 1.382 . S
C14 H18 0.950 . S
H15 C10 0.949 . S
C16 C11 1.400 . S
C16 C14 1.382 . S
C16 H17 0.952 . S
H17 C16 0.952 . S
H18 C14 0.950 . S
H19 C20 0.949 . S
C20 H19 0.949 . S
C20 C21 1.395 . S
C20 C22 1.391 . S
C21 C20 1.395 . S
C21 C24 1.390 . S
C22 C20 1.391 . S
C22 C26 1.387 . S
C22 C27 1.491 . S
H23 C24 0.950 . S
C24 C21 1.390 . S
C24 H23 0.950 . S
C24 C25 1.378 . S
C25 C24 1.378 . S
C25 C26 1.409 . S
C26 C22 1.387 . S
C26 C25 1.409 . S
C26 H28 0.951 . S
C27 C22 1.491 . S
C27 C29 1.382 . S
C27 C31 1.404 . S
H28 C26 0.951 . S
C29 C27 1.382 . S
C29 C30 1.390 . S
C29 H34 0.949 . S
C30 C29 1.390 . S
C30 C35 1.399 . S
C31 C27 1.404 . S
C31 H32 0.950 . S
C31 C33 1.375 . S
H32 C31 0.950 . S
C33 C31 1.375 . S
C33 C35 1.382 . S
C33 H37 0.950 . S
H34 C29 0.949 . S
C35 C30 1.399 . S
C35 C33 1.382 . S
C35 H36 0.952 . S
H36 C35 0.952 . S
H37 C33 0.950 . S
H38 C39 0.949 1_455 S
C39 H38 0.949 1_655 S
C39 C40 1.395 . S
C39 C41 1.391 . S
C40 C39 1.395 . S
C40 C43 1.390 . S
C41 C39 1.391 . S
C41 C45 1.387 . S
C41 C46 1.491 . S
H42 C43 0.950 . S
C43 C40 1.390 . S
C43 H42 0.950 . S
C43 C44 1.378 . S
C44 C43 1.378 . S
C44 C45 1.409 . S
C45 C41 1.387 . S
C45 C44 1.409 . S
C45 H47 0.951 . S
C46 C41 1.491 . S
C46 C48 1.382 . S
C46 C50 1.404 1_554 S
H47 C45 0.951 . S
C48 C46 1.382 . S
C48 C49 1.390 1_554 S
C48 H53 0.949 . S
C49 C48 1.390 1_556 S
C49 C54 1.399 . S
C50 C46 1.404 1_556 S
C50 H51 0.950 . S
C50 C52 1.375 . S
H51 C50 0.950 . S
C52 C50 1.375 . S
C52 C54 1.382 . S
C52 H56 0.950 . S
H53 C48 0.949 . S
C54 C49 1.399 . S
C54 C52 1.382 . S
C54 H55 0.952 . S
H55 C54 0.952 . S
H56 C52 0.950 . S
H57 C58 0.949 . S
C58 H57 0.949 . S
C58 C59 1.395 . S
C58 C60 1.391 . S
C59 C58 1.395 . S
C59 C62 1.390 . S
C60 C58 1.391 . S
C60 C64 1.387 . S
C60 C65 1.491 . S
H61 C62 0.950 . S
C62 C59 1.390 . S
C62 H61 0.950 . S
C62 C63 1.378 . S
C63 C62 1.378 . S
C63 C64 1.409 . S
C64 C60 1.387 . S
C64 C63 1.409 . S
C64 H66 0.951 . S
C65 C60 1.491 . S
C65 C67 1.382 . S
C65 C69 1.404 . S
H66 C64 0.951 . S
C67 C65 1.382 . S
C67 C68 1.390 . S
C67 H72 0.949 . S
C68 C67 1.390 . S
C68 C73 1.399 . S
C69 C65 1.404 . S
C69 H70 0.950 . S
C69 C71 1.375 . S
H70 C69 0.950 . S
C71 C69 1.375 . S
C71 C73 1.382 . S
C71 H75 0.950 . S
H72 C67 0.949 . S
C73 C68 1.399 . S
C73 C71 1.382 . S
C73 H74 0.952 . S
H74 C73 0.952 . S
H75 C71 0.950 . S
H76 C77 0.949 . S
C77 H76 0.949 . S
C77 C78 1.395 . S
C77 C79 1.391 . S
C78 C77 1.395 . S
C78 C81 1.390 . S
C79 C77 1.391 . S
C79 C83 1.387 . S
C79 C84 1.491 . S
H80 C81 0.950 . S
C81 C78 1.390 . S
C81 H80 0.950 . S
C81 C82 1.378 . S
C82 C81 1.378 . S
C82 C83 1.409 . S
C83 C79 1.387 . S
C83 C82 1.409 . S
C83 H85 0.951 . S
C84 C79 1.491 . S
C84 C86 1.382 . S
C84 C88 1.404 . S
H85 C83 0.951 . S
C86 C84 1.382 . S
C86 C87 1.390 . S
C86 H91 0.949 . S
C87 C86 1.390 . S
C87 C92 1.399 . S
C88 C84 1.404 . S
C88 H89 0.950 . S
C88 C90 1.375 . S
H89 C88 0.950 . S
C90 C88 1.375 . S
C90 C92 1.382 . S
C90 H94 0.950 . S
H91 C86 0.949 . S
C92 C87 1.399 . S
C92 C90 1.382 . S
C92 H93 0.952 . S
H93 C92 0.952 . S
H94 C90 0.950 . S
H95 C96 0.949 . S
C96 H95 0.949 . S
C96 C97 1.395 . S
C96 C98 1.391 . S
C97 C96 1.395 . S
C97 C100 1.390 . S
C98 C96 1.391 . S
C98 C102 1.387 . S
C98 C103 1.491 . S
H99 C100 0.950 . S
C100 C97 1.390 . S
C100 H99 0.950 . S
C100 C101 1.378 . S
C101 C100 1.378 . S
C101 C102 1.409 . S
C102 C98 1.387 . S
C102 C101 1.409 . S
C102 H104 0.951 . S
C103 C98 1.491 . S
C103 C105 1.382 . S
C103 C107 1.404 . S
H104 C102 0.951 . S
C105 C103 1.382 . S
C105 C106 1.390 . S
C105 H110 0.949 . S
C106 C105 1.390 . S
C106 C111 1.399 . S
C107 C103 1.404 . S
C107 H108 0.950 . S
C107 C109 1.375 . S
H108 C107 0.950 . S
C109 C107 1.375 . S
C109 C111 1.382 . S
C109 H113 0.950 . S
H110 C105 0.949 . S
C111 C106 1.399 . S
C111 C109 1.382 . S
C111 H112 0.952 . S
H112 C111 0.952 . S
H113 C109 0.950 . S
H114 C115 0.949 . S
C115 H114 0.949 . S
C115 C116 1.395 . S
C115 C117 1.391 . S
C116 C115 1.395 . S
C116 C119 1.390 . S
C117 C115 1.391 . S
C117 C121 1.387 . S
C117 C122 1.491 . S
H118 C119 0.950 . S
C119 C116 1.390 . S
C119 H118 0.950 . S
C119 C120 1.378 . S
C120 C119 1.378 . S
C120 C121 1.409 . S
C121 C117 1.387 . S
C121 C120 1.409 . S
C121 H123 0.951 . S
C122 C117 1.491 . S
C122 C124 1.382 . S
C122 C126 1.404 . S
H123 C121 0.951 . S
C124 C122 1.382 . S
C124 C125 1.390 1_655 S
C124 H129 0.949 1_655 S
C125 C124 1.390 1_455 S
C125 C130 1.399 1_455 S
C126 C122 1.404 . S
C126 H127 0.950 . S
C126 C128 1.375 . S
H127 C126 0.950 . S
C128 C126 1.375 . S
C128 C130 1.382 . S
C128 H132 0.950 . S
H129 C124 0.949 1_455 S
C130 C125 1.399 1_655 S
C130 C128 1.382 . S
C130 H131 0.952 . S
H131 C130 0.952 . S
H132 C128 0.950 . S
H133 C134 0.949 . S
C134 H133 0.949 . S
C134 C135 1.395 . S
C134 C136 1.391 . S
C135 C134 1.395 . S
C135 C138 1.390 . S
C136 C134 1.391 . S
C136 C140 1.387 . S
C136 C141 1.491 . S
H137 C138 0.950 . S
C138 C135 1.390 . S
C138 H137 0.950 . S
C138 C139 1.378 . S
C139 C138 1.378 . S
C139 C140 1.409 . S
C140 C136 1.387 . S
C140 C139 1.409 . S
C140 H142 0.951 . S
C141 C136 1.491 . S
C141 C143 1.382 . S
C141 C145 1.404 . S
H142 C140 0.951 . S
C143 C141 1.382 . S
C143 C144 1.390 . S
C143 H148 0.949 . S
C144 C143 1.390 . S
C144 C149 1.399 . S
C145 C141 1.404 . S
C145 H146 0.950 . S
C145 C147 1.375 . S
H146 C145 0.950 . S
C147 C145 1.375 . S
C147 C149 1.382 . S
C147 H151 0.950 . S
H148 C143 0.949 . S
C149 C144 1.399 . S
C149 C147 1.382 . S
C149 H150 0.952 . S
H150 C149 0.952 . S
H151 C147 0.950 . S
H152 C153 0.949 . S
C153 H152 0.949 . S
C153 C154 1.395 . S
C153 C155 1.391 . S
C154 C153 1.395 . S
C154 C157 1.390 . S
C155 C153 1.391 . S
C155 C159 1.387 . S
C155 C160 1.491 . S
H156 C157 0.950 . S
C157 C154 1.390 . S
C157 H156 0.950 . S
C157 C158 1.378 . S
C158 C157 1.378 . S
C158 C159 1.409 . S
C159 C155 1.387 . S
C159 C158 1.409 . S
C159 H161 0.951 . S
C160 C155 1.491 . S
C160 C162 1.382 . S
C160 C164 1.404 . S
H161 C159 0.951 . S
C162 C160 1.382 . S
C162 C163 1.390 . S
C162 H167 0.949 . S
C163 C162 1.390 . S
C163 C168 1.399 . S
C164 C160 1.404 . S
C164 H165 0.950 . S
C164 C166 1.375 . S
H165 C164 0.950 . S
C166 C164 1.375 . S
C166 C168 1.382 . S
C166 H170 0.950 . S
H167 C162 0.949 . S
C168 C163 1.399 . S
C168 C166 1.382 . S
C168 H169 0.952 . S
H169 C168 0.952 . S
H170 C166 0.950 . S
H171 C172 0.949 . S
C172 H171 0.949 . S
C172 C173 1.395 . S
C172 C174 1.391 . S
C173 C172 1.395 . S
C173 C176 1.390 . S
C174 C172 1.391 . S
C174 C178 1.387 . S
C174 C179 1.491 . S
H175 C176 0.950 . S
C176 C173 1.390 . S
C176 H175 0.950 . S
C176 C177 1.378 . S
C177 C176 1.378 . S
C177 C178 1.409 . S
C178 C174 1.387 . S
C178 C177 1.409 . S
C178 H180 0.951 . S
C179 C174 1.491 . S
C179 C181 1.382 . S
C179 C183 1.404 . S
H180 C178 0.951 . S
C181 C179 1.382 . S
C181 C182 1.390 . S
C181 H186 0.949 . S
C182 C181 1.390 . S
C182 C187 1.399 . S
C183 C179 1.404 . S
C183 H184 0.950 . S
C183 C185 1.375 . S
H184 C183 0.950 . S
C185 C183 1.375 . S
C185 C187 1.382 . S
C185 H189 0.950 . S
H186 C181 0.949 . S
C187 C182 1.399 . S
C187 C185 1.382 . S
C187 H188 0.952 . S
H188 C187 0.952 . S
H189 C185 0.950 . S
H190 C191 0.949 . S
C191 H190 0.949 . S
C191 C192 1.395 . S
C191 C193 1.391 . S
C192 C191 1.395 . S
C192 C195 1.390 . S
C193 C191 1.391 . S
C193 C197 1.387 . S
C193 C198 1.491 . S
H194 C195 0.950 . S
C195 C192 1.390 . S
C195 H194 0.950 . S
C195 C196 1.378 . S
C196 C195 1.378 . S
C196 C197 1.409 . S
C197 C193 1.387 . S
C197 C196 1.409 . S
C197 H199 0.951 . S
C198 C193 1.491 . S
C198 C200 1.382 . S
C198 C202 1.404 . S
H199 C197 0.951 . S
C200 C198 1.382 . S
C200 C201 1.390 . S
C200 H205 0.949 . S
C201 C200 1.390 . S
C201 C206 1.399 . S
C202 C198 1.404 . S
C202 H203 0.950 . S
C202 C204 1.375 . S
H203 C202 0.950 . S
C204 C202 1.375 . S
C204 C206 1.382 . S
C204 H208 0.950 . S
H205 C200 0.949 . S
C206 C201 1.399 . S
C206 C204 1.382 . S
C206 H207 0.952 . S
H207 C206 0.952 . S
H208 C204 0.950 . S
H209 C210 0.949 . S
C210 H209 0.949 . S
C210 C211 1.395 . S
C210 C212 1.391 . S
C211 C210 1.395 . S
C211 C214 1.390 . S
C212 C210 1.391 . S
C212 C216 1.387 . S
C212 C217 1.491 . S
H213 C214 0.950 . S
C214 C211 1.390 . S
C214 H213 0.950 . S
C214 C215 1.378 . S
C215 C214 1.378 . S
C215 C216 1.409 . S
C216 C212 1.387 . S
C216 C215 1.409 . S
C216 H218 0.951 . S
C217 C212 1.491 . S
C217 C219 1.382 . S
C217 C221 1.404 . S
H218 C216 0.951 . S
C219 C217 1.382 . S
C219 C220 1.390 . S
C219 H224 0.949 . S
C220 C219 1.390 . S
C220 C225 1.399 . S
C221 C217 1.404 . S
C221 H222 0.950 . S
C221 C223 1.375 . S
H222 C221 0.950 . S
C223 C221 1.375 . S
C223 C225 1.382 . S
C223 H227 0.950 . S
H224 C219 0.949 . S
C225 C220 1.399 . S
C225 C223 1.382 . S
C225 H226 0.952 . S
H226 C225 0.952 . S
H227 C223 0.950 . S
H228 C229 0.949 . S
C229 H228 0.949 . S
C229 C230 1.395 . S
C229 C231 1.391 . S
C230 C229 1.395 . S
C230 C233 1.390 . S
C231 C229 1.391 . S
C231 C235 1.387 . S
C231 C236 1.491 . S
H232 C233 0.950 . S
C233 C230 1.390 . S
C233 H232 0.950 . S
C233 C234 1.378 . S
C234 C233 1.378 . S
C234 C235 1.409 . S
C235 C231 1.387 . S
C235 C234 1.409 . S
C235 H237 0.951 . S
C236 C231 1.491 . S
C236 C238 1.382 . S
C236 C240 1.404 . S
H237 C235 0.951 . S
C238 C236 1.382 . S
C238 C239 1.390 . S
C238 H243 0.949 . S
C239 C238 1.390 . S
C239 C244 1.399 . S
C240 C236 1.404 . S
C240 H241 0.950 . S
C240 C242 1.375 . S
H241 C240 0.950 . S
C242 C240 1.375 . S
C242 C244 1.382 . S
C242 H246 0.950 . S
H243 C238 0.949 . S
C244 C239 1.399 . S
C244 C242 1.382 . S
C244 H245 0.952 . S
H245 C244 0.952 . S
H246 C242 0.950 . S
H247 C248 0.949 . S
C248 H247 0.949 . S
C248 C249 1.395 . S
C248 C250 1.391 . S
C249 C248 1.395 . S
C249 C252 1.390 . S
C250 C248 1.391 . S
C250 C254 1.387 . S
C250 C255 1.491 . S
H251 C252 0.950 . S
C252 C249 1.390 . S
C252 H251 0.950 . S
C252 C253 1.378 . S
C253 C252 1.378 . S
C253 C254 1.409 . S
C254 C250 1.387 . S
C254 C253 1.409 . S
C254 H256 0.951 . S
C255 C250 1.491 . S
C255 C257 1.382 1_556 S
C255 C259 1.404 . S
H256 C254 0.951 . S
C257 C255 1.382 1_554 S
C257 C258 1.390 . S
C257 H262 0.949 . S
C258 C257 1.390 . S
C258 C263 1.399 1_554 S
C259 C255 1.404 . S
C259 H260 0.950 . S
C259 C261 1.375 . S
H260 C259 0.950 . S
C261 C259 1.375 . S
C261 C263 1.382 . S
C261 H265 0.950 . S
H262 C257 0.949 . S
C263 C258 1.399 1_556 S
C263 C261 1.382 . S
C263 H264 0.952 1_556 S
H264 C263 0.952 1_554 S
H265 C261 0.950 . S
H266 C267 0.949 . S
C267 H266 0.949 . S
C267 C268 1.395 . S
C267 C269 1.391 . S
C268 C267 1.395 . S
C268 C271 1.390 . S
C269 C267 1.391 . S
C269 C273 1.387 . S
C269 C274 1.491 . S
H270 C271 0.950 . S
C271 C268 1.390 . S
C271 H270 0.950 . S
C271 C272 1.378 . S
C272 C271 1.378 . S
C272 C273 1.409 . S
C273 C269 1.387 . S
C273 C272 1.409 . S
C273 H275 0.951 . S
C274 C269 1.491 . S
C274 C276 1.382 . S
C274 C278 1.404 . S
H275 C273 0.951 . S
C276 C274 1.382 . S
C276 C277 1.390 . S
C276 H281 0.949 . S
C277 C276 1.390 . S
C277 C282 1.399 . S
C278 C274 1.404 . S
C278 H279 0.950 . S
C278 C280 1.375 . S
H279 C278 0.950 . S
C280 C278 1.375 . S
C280 C282 1.382 . S
C280 H284 0.950 . S
H281 C276 0.949 . S
C282 C277 1.399 . S
C282 C280 1.382 . S
C282 H283 0.952 . S
H283 C282 0.952 . S
H284 C280 0.950 . S
H285 C286 0.949 . S
C286 H285 0.949 . S
C286 C287 1.395 . S
C286 C288 1.391 . S
C287 C286 1.395 . S
C287 C290 1.390 . S
C288 C286 1.391 . S
C288 C292 1.387 . S
C288 C293 1.491 . S
H289 C290 0.950 . S
C290 C287 1.390 . S
C290 H289 0.950 . S
C290 C291 1.378 . S
C291 C290 1.378 . S
C291 C292 1.409 . S
C292 C288 1.387 . S
C292 C291 1.409 . S
C292 H294 0.951 . S
C293 C288 1.491 . S
C293 C295 1.382 . S
C293 C297 1.404 . S
H294 C292 0.951 . S
C295 C293 1.382 . S
C295 C296 1.390 . S
C295 H300 0.949 . S
C296 C295 1.390 . S
C296 C301 1.399 . S
C297 C293 1.404 . S
C297 H298 0.950 . S
C297 C299 1.375 . S
H298 C297 0.950 . S
C299 C297 1.375 . S
C299 C301 1.382 . S
C299 H303 0.950 . S
H300 C295 0.949 . S
C301 C296 1.399 . S
C301 C299 1.382 . S
C301 H302 0.952 . S
H302 C301 0.952 . S
H303 C299 0.950 . S
Zn304 O307 2.031 . S
Zn304 O309 2.049 . S
Zn304 O314 2.067 . S
Zn305 O306 1.962 . S
Zn305 O308 1.986 . S
Zn305 O310 1.996 . S
Zn305 O313 1.943 . S
O306 Zn305 1.962 . S
O306 C311 1.254 . S
O307 Zn304 2.031 . S
O307 C311 1.269 . S
O308 Zn305 1.986 . S
O308 C315 1.262 . S
O309 Zn304 2.049 . S
O309 C317 1.260 . S
O310 Zn305 1.996 . S
O310 C317 1.257 . S
C311 O306 1.254 . S
C311 O307 1.269 . S
C312 O313 1.249 . S
C312 O314 1.270 . S
O313 Zn305 1.943 . S
O313 C312 1.249 . S
O314 Zn304 2.067 . S
O314 C312 1.270 . S
C315 O308 1.262 . S
C315 O316 1.232 . S
O316 C315 1.232 . S
C317 O309 1.260 . S
C317 O310 1.257 . S
Zn318 O321 2.031 . S
Zn318 O323 2.049 . S
Zn318 O328 2.067 . S
Zn319 O320 1.962 . S
Zn319 O322 1.986 . S
Zn319 O324 1.996 . S
Zn319 O327 1.943 . S
O320 Zn319 1.962 . S
O320 C325 1.254 . S
O321 Zn318 2.031 . S
O321 C325 1.269 . S
O322 Zn319 1.986 . S
O322 C329 1.262 . S
O323 Zn318 2.049 . S
O323 C331 1.260 . S
O324 Zn319 1.996 . S
O324 C331 1.257 . S
C325 O320 1.254 . S
C325 O321 1.269 . S
C326 O327 1.249 . S
C326 O328 1.270 . S
O327 Zn319 1.943 . S
O327 C326 1.249 . S
O328 Zn318 2.067 . S
O328 C326 1.270 . S
C329 O322 1.262 . S
C329 O330 1.232 . S
O330 C329 1.232 . S
C331 O323 1.260 . S
C331 O324 1.257 . S
Zn332 O335 2.031 . S
Zn332 O337 2.049 . S
Zn332 O342 2.067 . S
Zn333 O334 1.962 . S
Zn333 O336 1.986 . S
Zn333 O338 1.996 1_554 S
Zn333 O341 1.943 . S
O334 Zn333 1.962 . S
O334 C339 1.254 . S
O335 Zn332 2.031 . S
O335 C339 1.269 1_556 S
O336 Zn333 1.986 . S
O336 C343 1.262 . S
O337 Zn332 2.049 . S
O337 C345 1.260 . S
O338 Zn333 1.996 1_556 S
O338 C345 1.257 . S
C339 O334 1.254 . S
C339 O335 1.269 1_554 S
C340 O341 1.249 1_556 S
C340 O342 1.270 . S
O341 Zn333 1.943 . S
O341 C340 1.249 1_554 S
O342 Zn332 2.067 . S
O342 C340 1.270 . S
C343 O336 1.262 . S
C343 O344 1.232 . S
O344 C343 1.232 . S
C345 O337 1.260 . S
C345 O338 1.257 . S
Zn346 O349 2.031 . S
Zn346 O351 2.049 . S
Zn346 O356 2.067 1_545 S
Zn347 O348 1.962 . S
Zn347 O350 1.986 . S
Zn347 O352 1.996 . S
Zn347 O355 1.943 1_545 S
O348 Zn347 1.962 . S
O348 C353 1.254 . S
O349 Zn346 2.031 . S
O349 C353 1.269 . S
O350 Zn347 1.986 . S
O350 C357 1.262 . S
O351 Zn346 2.049 . S
O351 C359 1.260 . S
O352 Zn347 1.996 . S
O352 C359 1.257 . S
C353 O348 1.254 . S
C353 O349 1.269 . S
C354 O355 1.249 . S
C354 O356 1.270 . S
O355 Zn347 1.943 1_565 S
O355 C354 1.249 . S
O356 Zn346 2.067 1_565 S
O356 C354 1.270 . S
C357 O350 1.262 . S
C357 O358 1.232 . S
O358 C357 1.232 . S
C359 O351 1.260 . S
C359 O352 1.257 . S
Zn360 O363 2.031 . S
Zn360 O365 2.049 . S
Zn360 O370 2.067 . S
Zn361 O362 1.962 . S
Zn361 O364 1.986 . S
Zn361 O366 1.996 . S
Zn361 O369 1.943 . S
O362 Zn361 1.962 . S
O362 C367 1.254 . S
O363 Zn360 2.031 . S
O363 C367 1.269 . S
O364 Zn361 1.986 . S
O364 C371 1.262 . S
O365 Zn360 2.049 . S
O365 C373 1.260 . S
O366 Zn361 1.996 . S
O366 C373 1.257 . S
C367 O362 1.254 . S
C367 O363 1.269 . S
C368 O369 1.249 . S
C368 O370 1.270 . S
O369 Zn361 1.943 . S
O369 C368 1.249 . S
O370 Zn360 2.067 . S
O370 C368 1.270 . S
C371 O364 1.262 . S
C371 O372 1.232 . S
O372 C371 1.232 . S
C373 O365 1.260 . S
C373 O366 1.257 . S
Zn374 O377 2.031 . S
Zn374 O379 2.049 . S
Zn374 O384 2.067 . S
Zn375 O376 1.962 . S
Zn375 O378 1.986 . S
Zn375 O380 1.996 . S
Zn375 O383 1.943 . S
O376 Zn375 1.962 . S
O376 C381 1.254 . S
O377 Zn374 2.031 . S
O377 C381 1.269 . S
O378 Zn375 1.986 . S
O378 C385 1.262 . S
O379 Zn374 2.049 . S
O379 C387 1.260 . S
O380 Zn375 1.996 . S
O380 C387 1.257 . S
C381 O376 1.254 . S
C381 O377 1.269 . S
C382 O383 1.249 . S
C382 O384 1.270 . S
O383 Zn375 1.943 . S
O383 C382 1.249 . S
O384 Zn374 2.067 . S
O384 C382 1.270 . S
C385 O378 1.262 . S
C385 O386 1.232 . S
O386 C385 1.232 . S
C387 O379 1.260 . S
C387 O380 1.257 . S
Zn388 O391 2.031 . S
Zn388 O393 2.049 . S
Zn388 O398 2.067 . S
Zn389 O390 1.962 . S
Zn389 O392 1.986 . S
Zn389 O394 1.996 . S
Zn389 O397 1.943 . S
O390 Zn389 1.962 . S
O390 C395 1.254 . S
O391 Zn388 2.031 . S
O391 C395 1.269 . S
O392 Zn389 1.986 . S
O392 C399 1.262 . S
O393 Zn388 2.049 . S
O393 C401 1.260 . S
O394 Zn389 1.996 . S
O394 C401 1.257 . S
C395 O390 1.254 . S
C395 O391 1.269 . S
C396 O397 1.249 . S
C396 O398 1.270 . S
O397 Zn389 1.943 . S
O397 C396 1.249 . S
O398 Zn388 2.067 . S
O398 C396 1.270 . S
C399 O392 1.262 . S
C399 O400 1.232 . S
O400 C399 1.232 . S
C401 O393 1.260 . S
C401 O394 1.257 . S
Zn402 O405 2.031 1_565 S
Zn402 O407 2.049 . S
Zn402 O412 2.067 . S
Zn403 O404 1.962 . S
Zn403 O406 1.986 . S
Zn403 O408 1.996 1_545 S
Zn403 O411 1.943 . S
O404 Zn403 1.962 . S
O404 C409 1.254 . S
O405 Zn402 2.031 1_545 S
O405 C409 1.269 . S
O406 Zn403 1.986 . S
O406 C413 1.262 . S
O407 Zn402 2.049 . S
O407 C415 1.260 . S
O408 Zn403 1.996 1_565 S
O408 C415 1.257 . S
C409 O404 1.254 . S
C409 O405 1.269 . S
C410 O411 1.257 . S
C410 O412 1.258 1_545 S
O411 Zn403 1.943 . S
O411 C410 1.257 . S
O412 Zn402 2.067 . S
O412 C410 1.258 1_565 S
C413 O406 1.262 . S
C413 O414 1.232 . S
O414 C413 1.232 . S
C415 O407 1.260 . S
C415 O408 1.257 . S
Zn416 O419 2.031 . S
Zn416 O421 2.049 . S
Zn416 O426 2.067 1_455 S
Zn417 O418 1.962 . S
Zn417 O420 1.986 . S
Zn417 O422 1.996 . S
Zn417 O425 1.943 1_455 S
O418 Zn417 1.962 . S
O418 C423 1.254 . S
O419 Zn416 2.031 . S
O419 C423 1.269 . S
O420 Zn417 1.986 . S
O420 C427 1.262 . S
O421 Zn416 2.049 . S
O421 C429 1.260 . S
O422 Zn417 1.996 . S
O422 C429 1.257 . S
C423 O418 1.254 . S
C423 O419 1.269 . S
C424 O425 1.249 . S
C424 O426 1.270 . S
O425 Zn417 1.943 1_655 S
O425 C424 1.249 . S
O426 Zn416 2.067 1_655 S
O426 C424 1.270 . S
C427 O420 1.262 . S
C427 O428 1.232 . S
O428 C427 1.232 . S
C429 O421 1.260 . S
C429 O422 1.257 . S
Zn430 O433 2.031 . S
Zn430 O435 2.049 . S
Zn430 O440 2.067 . S
Zn431 O432 1.962 . S
Zn431 O434 1.986 . S
Zn431 O436 1.996 . S
Zn431 O439 1.943 . S
O432 Zn431 1.962 . S
O432 C437 1.254 . S
O433 Zn430 2.031 . S
O433 C437 1.269 . S
O434 Zn431 1.986 . S
O434 C441 1.262 . S
O435 Zn430 2.049 . S
O435 C443 1.260 . S
O436 Zn431 1.996 . S
O436 C443 1.257 . S
C437 O432 1.254 . S
C437 O433 1.269 . S
C438 O439 1.249 . S
C438 O440 1.270 . S
O439 Zn431 1.943 . S
O439 C438 1.249 . S
O440 Zn430 2.067 . S
O440 C438 1.270 . S
C441 O434 1.262 . S
C441 O442 1.232 . S
O442 C441 1.232 . S
C443 O435 1.260 . S
C443 O436 1.257 . S
Zn444 O447 2.031 1_655 S
Zn444 O449 2.049 . S
Zn444 O454 2.067 . S
Zn445 O446 1.962 . S
Zn445 O448 1.986 . S
Zn445 O450 1.996 1_455 S
Zn445 O453 1.943 . S
O446 Zn445 1.962 . S
O446 C451 1.254 . S
O447 Zn444 2.031 1_455 S
O447 C451 1.269 . S
O448 Zn445 1.986 . S
O448 C455 1.262 . S
O449 Zn444 2.049 . S
O449 C457 1.260 . S
O450 Zn445 1.996 1_655 S
O450 C457 1.257 . S
C451 O446 1.254 . S
C451 O447 1.269 . S
C452 O453 1.244 1_655 S
C452 O454 1.276 . S
O453 Zn445 1.943 . S
O453 C452 1.244 1_455 S
O454 Zn444 2.067 . S
O454 C452 1.276 . S
C455 O448 1.262 . S
C455 O456 1.232 . S
O456 C455 1.232 . S
C457 O449 1.260 . S
C457 O450 1.257 . S
Zn458 O461 2.031 . S
Zn458 O463 2.049 . S
Zn458 O468 2.067 . S
Zn459 O460 1.962 . S
Zn459 O462 1.986 . S
Zn459 O464 1.996 . S
Zn459 O467 1.943 . S
O460 Zn459 1.962 . S
O460 C465 1.254 . S
O461 Zn458 2.031 . S
O461 C465 1.269 . S
O462 Zn459 1.986 . S
O462 C469 1.262 . S
O463 Zn458 2.049 . S
O463 C471 1.260 . S
O464 Zn459 1.996 . S
O464 C471 1.257 . S
C465 O460 1.254 . S
C465 O461 1.269 . S
C466 O467 1.249 . S
C466 O468 1.270 . S
O467 Zn459 1.943 . S
O467 C466 1.249 . S
O468 Zn458 2.067 . S
O468 C466 1.270 . S
C469 O462 1.262 . S
C469 O470 1.232 . S
O470 C469 1.232 . S
C471 O463 1.260 . S
C471 O464 1.257 . S
C472 C473 1.391 . S
C472 C474 1.394 . S
C472 H488 0.931 . S
C473 C472 1.391 . S
C473 C477 1.376 . S
C474 C472 1.394 . S
C474 C475 1.369 . S
C474 C478 1.531 . S
C475 C474 1.369 . S
C475 C476 1.410 . S
C475 C483 1.503 . S
C476 C475 1.410 . S
C476 C477 1.392 . S
C476 C479 1.511 . S
C477 C473 1.376 . S
C477 C476 1.392 . S
C477 H489 0.929 . S
C478 C474 1.531 . S
C478 H490 0.960 . S
C478 H491 0.962 . S
C478 H492 0.960 . S
C479 C476 1.511 . S
C479 H493 0.961 . S
C479 H494 0.961 . S
C479 H495 0.961 . S
C480 C481 1.370 . S
C480 C482 1.363 . S
C480 H496 0.931 . S
C481 C480 1.370 . S
C481 C485 1.408 . S
C482 C480 1.363 . S
C482 C483 1.370 . S
C482 C486 1.524 . S
C483 C475 1.503 . S
C483 C482 1.370 . S
C483 C484 1.403 . S
C484 C483 1.403 . S
C484 C485 1.404 . S
C484 C487 1.539 . S
C485 C481 1.408 . S
C485 C484 1.404 . S
C485 H497 0.930 . S
C486 C482 1.524 . S
C486 H498 0.956 . S
C486 H499 0.961 . S
C486 H500 0.961 . S
C487 C484 1.539 . S
C487 H501 0.958 . S
C487 H502 0.961 . S
C487 H503 0.960 . S
H488 C472 0.931 . S
H489 C477 0.929 . S
H490 C478 0.960 . S
H491 C478 0.962 . S
H492 C478 0.960 . S
H493 C479 0.961 . S
H494 C479 0.961 . S
H495 C479 0.961 . S
H496 C480 0.931 . S
H497 C485 0.930 . S
H498 C486 0.956 . S
H499 C486 0.961 . S
H500 C486 0.961 . S
H501 C487 0.958 . S
H502 C487 0.961 . S
H503 C487 0.960 . S
C504 C505 1.391 . S
C504 C506 1.394 . S
C504 H520 0.931 . S
C505 C504 1.391 . S
C505 C509 1.376 . S
C506 C504 1.394 . S
C506 C507 1.369 . S
C506 C510 1.531 . S
C507 C506 1.369 . S
C507 C508 1.410 . S
C507 C515 1.503 . S
C508 C507 1.410 . S
C508 C509 1.392 . S
C508 C511 1.511 . S
C509 C505 1.376 . S
C509 C508 1.392 . S
C509 H521 0.929 . S
C510 C506 1.531 . S
C510 H522 0.960 . S
C510 H523 0.962 . S
C510 H524 0.960 . S
C511 C508 1.511 . S
C511 H525 0.961 . S
C511 H526 0.961 . S
C511 H527 0.961 . S
C512 C513 1.370 . S
C512 C514 1.363 . S
C512 H528 0.931 . S
C513 C512 1.370 . S
C513 C517 1.408 . S
C514 C512 1.363 . S
C514 C515 1.370 . S
C514 C518 1.524 . S
C515 C507 1.503 . S
C515 C514 1.370 . S
C515 C516 1.403 . S
C516 C515 1.403 . S
C516 C517 1.404 . S
C516 C519 1.539 . S
C517 C513 1.408 . S
C517 C516 1.404 . S
C517 H529 0.930 . S
C518 C514 1.524 . S
C518 H530 0.956 . S
C518 H531 0.961 . S
C518 H532 0.961 . S
C519 C516 1.539 . S
C519 H533 0.958 . S
C519 H534 0.961 . S
C519 H535 0.960 . S
H520 C504 0.931 . S
H521 C509 0.929 . S
H522 C510 0.960 . S
H523 C510 0.962 . S
H524 C510 0.960 . S
H525 C511 0.961 . S
H526 C511 0.961 . S
H527 C511 0.961 . S
H528 C512 0.931 . S
H529 C517 0.930 . S
H530 C518 0.956 . S
H531 C518 0.961 . S
H532 C518 0.961 . S
H533 C519 0.958 . S
H534 C519 0.961 . S
H535 C519 0.960 . S
C536 C537 1.391 . S
C536 C538 1.394 . S
C536 H552 0.931 . S
C537 C536 1.391 . S
C537 C541 1.376 . S
C538 C536 1.394 . S
C538 C539 1.369 . S
C538 C542 1.531 . S
C539 C538 1.369 . S
C539 C540 1.410 . S
C539 C547 1.503 . S
C540 C539 1.410 . S
C540 C541 1.392 . S
C540 C543 1.511 . S
C541 C537 1.376 . S
C541 C540 1.392 . S
C541 H553 0.929 . S
C542 C538 1.531 . S
C542 H554 0.960 . S
C542 H555 0.962 . S
C542 H556 0.960 . S
C543 C540 1.511 . S
C543 H557 0.961 . S
C543 H558 0.961 . S
C543 H559 0.961 . S
C544 C545 1.370 . S
C544 C546 1.363 . S
C544 H560 0.931 . S
C545 C544 1.370 . S
C545 C549 1.408 . S
C546 C544 1.363 . S
C546 C547 1.370 . S
C546 C550 1.524 . S
C547 C539 1.503 . S
C547 C546 1.370 . S
C547 C548 1.403 . S
C548 C547 1.403 . S
C548 C549 1.404 . S
C548 C551 1.539 . S
C549 C545 1.408 . S
C549 C548 1.404 . S
C549 H561 0.930 . S
C550 C546 1.524 . S
C550 H562 0.956 . S
C550 H563 0.961 . S
C550 H564 0.961 . S
C551 C548 1.539 . S
C551 H565 0.958 . S
C551 H566 0.961 . S
C551 H567 0.960 . S
H552 C536 0.931 . S
H553 C541 0.929 . S
H554 C542 0.960 . S
H555 C542 0.962 . S
H556 C542 0.960 . S
H557 C543 0.961 . S
H558 C543 0.961 . S
H559 C543 0.961 . S
H560 C544 0.931 . S
H561 C549 0.930 . S
H562 C550 0.956 . S
H563 C550 0.961 . S
H564 C550 0.961 . S
H565 C551 0.958 . S
H566 C551 0.961 . S
H567 C551 0.960 . S
C568 C569 1.391 . S
C568 C570 1.394 . S
C568 H584 0.931 . S
C569 C568 1.391 . S
C569 C573 1.376 . S
C570 C568 1.394 . S
C570 C571 1.369 . S
C570 C574 1.531 . S
C571 C570 1.369 . S
C571 C572 1.410 . S
C571 C579 1.503 . S
C572 C571 1.410 . S
C572 C573 1.392 . S
C572 C575 1.507 1_565 S
C573 C569 1.376 . S
C573 C572 1.392 . S
C573 H585 0.929 . S
C574 C570 1.531 . S
C574 H586 0.928 1_565 S
C574 H587 0.962 . S
C574 H588 0.960 . S
C575 C572 1.507 1_545 S
C575 H589 0.954 1_545 S
C575 H590 0.961 1_545 S
C575 H591 0.972 . S
C576 C577 1.370 1_565 S
C576 C578 1.363 . S
C576 H592 0.931 . S
C577 C576 1.370 1_545 S
C577 C581 1.408 . S
C578 C576 1.363 . S
C578 C579 1.370 . S
C578 C582 1.524 . S
C579 C571 1.503 . S
C579 C578 1.370 . S
C579 C580 1.403 1_565 S
C580 C579 1.403 1_545 S
C580 C581 1.404 . S
C580 C583 1.539 . S
C581 C577 1.408 . S
C581 C580 1.404 . S
C581 H593 0.930 . S
C582 C578 1.524 . S
C582 H594 0.956 . S
C582 H595 0.961 . S
C582 H596 0.961 . S
C583 C580 1.539 . S
C583 H597 0.958 . S
C583 H598 0.961 . S
C583 H599 0.960 . S
H584 C568 0.931 . S
H585 C573 0.929 . S
H586 C574 0.928 1_545 S
H587 C574 0.962 . S
H588 C574 0.960 . S
H589 C575 0.954 1_565 S
H590 C575 0.961 1_565 S
H591 C575 0.972 . S
H592 C576 0.931 . S
H593 C581 0.930 . S
H594 C582 0.956 . S
H595 C582 0.961 . S
H596 C582 0.961 . S
H597 C583 0.958 . S
H598 C583 0.961 . S
H599 C583 0.960 . S
C600 C601 1.391 . S
C600 C602 1.394 . S
C600 H616 0.931 . S
C601 C600 1.391 . S
C601 C605 1.376 . S
C602 C600 1.394 . S
C602 C603 1.369 . S
C602 C606 1.531 . S
C603 C602 1.369 . S
C603 C604 1.410 . S
C603 C611 1.503 . S
C604 C603 1.410 . S
C604 C605 1.392 . S
C604 C607 1.511 . S
C605 C601 1.376 . S
C605 C604 1.392 . S
C605 H617 0.929 . S
C606 C602 1.531 . S
C606 H618 0.960 . S
C606 H619 0.962 . S
C606 H620 0.960 . S
C607 C604 1.511 . S
C607 H621 0.961 . S
C607 H622 0.961 . S
C607 H623 0.961 . S
C608 C609 1.370 . S
C608 C610 1.363 . S
C608 H624 0.931 . S
C609 C608 1.370 . S
C609 C613 1.408 . S
C610 C608 1.363 . S
C610 C611 1.370 . S
C610 C614 1.524 . S
C611 C603 1.503 . S
C611 C610 1.370 . S
C611 C612 1.403 . S
C612 C611 1.403 . S
C612 C613 1.404 . S
C612 C615 1.539 . S
C613 C609 1.408 . S
C613 C612 1.404 . S
C613 H625 0.930 . S
C614 C610 1.524 . S
C614 H626 0.956 . S
C614 H627 0.961 . S
C614 H628 0.961 . S
C615 C612 1.539 . S
C615 H629 0.958 . S
C615 H630 0.961 . S
C615 H631 0.960 . S
H616 C600 0.931 . S
H617 C605 0.929 . S
H618 C606 0.960 . S
H619 C606 0.962 . S
H620 C606 0.960 . S
H621 C607 0.961 . S
H622 C607 0.961 . S
H623 C607 0.961 . S
H624 C608 0.931 . S
H625 C613 0.930 . S
H626 C614 0.956 . S
H627 C614 0.961 . S
H628 C614 0.961 . S
H629 C615 0.958 . S
H630 C615 0.961 . S
H631 C615 0.960 . S
C632 C633 1.391 . S
C632 C634 1.394 . S
C632 H648 0.931 . S
C633 C632 1.391 . S
C633 C637 1.376 . S
C634 C632 1.394 . S
C634 C635 1.369 . S
C634 C638 1.531 . S
C635 C634 1.369 . S
C635 C636 1.410 . S
C635 C643 1.503 . S
C636 C635 1.410 . S
C636 C637 1.392 . S
C636 C639 1.511 . S
C637 C633 1.376 . S
C637 C636 1.392 . S
C637 H649 0.929 . S
C638 C634 1.531 . S
C638 H650 0.960 . S
C638 H651 0.962 . S
C638 H652 0.960 . S
C639 C636 1.511 . S
C639 H653 0.961 . S
C639 H654 0.961 . S
C639 H655 0.961 . S
C640 C641 1.370 . S
C640 C642 1.363 . S
C640 H656 0.931 . S
C641 C640 1.370 . S
C641 C645 1.408 . S
C642 C640 1.363 . S
C642 C643 1.370 . S
C642 C646 1.524 . S
C643 C635 1.503 . S
C643 C642 1.370 . S
C643 C644 1.403 . S
C644 C643 1.403 . S
C644 C645 1.404 . S
C644 C647 1.539 . S
C645 C641 1.408 . S
C645 C644 1.404 . S
C645 H657 0.930 . S
C646 C642 1.524 . S
C646 H658 0.956 . S
C646 H659 0.961 . S
C646 H660 0.961 . S
C647 C644 1.539 . S
C647 H661 0.958 . S
C647 H662 0.961 . S
C647 H663 0.960 . S
H648 C632 0.931 . S
H649 C637 0.929 . S
H650 C638 0.960 . S
H651 C638 0.962 . S
H652 C638 0.960 . S
H653 C639 0.961 . S
H654 C639 0.961 . S
H655 C639 0.961 . S
H656 C640 0.931 . S
H657 C645 0.930 . S
H658 C646 0.956 . S
H659 C646 0.961 . S
H660 C646 0.961 . S
H661 C647 0.958 . S
H662 C647 0.961 . S
H663 C647 0.960 . S
C664 C665 1.391 . S
C664 C666 1.394 . S
C664 H680 0.931 . S
C665 C664 1.391 . S
C665 C669 1.376 . S
C666 C664 1.394 . S
C666 C667 1.369 . S
C666 C670 1.531 . S
C667 C666 1.369 . S
C667 C668 1.410 . S
C667 C675 1.503 . S
C668 C667 1.410 . S
C668 C669 1.392 . S
C668 C671 1.511 . S
C669 C665 1.376 . S
C669 C668 1.392 . S
C669 H681 0.929 . S
C670 C666 1.531 . S
C670 H682 0.960 . S
C670 H683 0.962 . S
C670 H684 0.960 . S
C671 C668 1.511 . S
C671 H685 0.961 . S
C671 H686 0.961 . S
C671 H687 0.961 . S
C672 C673 1.370 . S
C672 C674 1.363 . S
C672 H688 0.931 . S
C673 C672 1.370 . S
C673 C677 1.408 . S
C674 C672 1.363 . S
C674 C675 1.370 . S
C674 C678 1.524 . S
C675 C667 1.503 . S
C675 C674 1.370 . S
C675 C676 1.403 . S
C676 C675 1.403 . S
C676 C677 1.404 . S
C676 C679 1.539 . S
C677 C673 1.408 . S
C677 C676 1.404 . S
C677 H689 0.930 . S
C678 C674 1.524 . S
C678 H690 0.956 . S
C678 H691 0.961 . S
C678 H692 0.961 . S
C679 C676 1.539 . S
C679 H693 0.958 . S
C679 H694 0.961 . S
C679 H695 0.960 . S
H680 C664 0.931 . S
H681 C669 0.929 . S
H682 C670 0.960 . S
H683 C670 0.962 . S
H684 C670 0.960 . S
H685 C671 0.961 . S
H686 C671 0.961 . S
H687 C671 0.961 . S
H688 C672 0.931 . S
H689 C677 0.930 . S
H690 C678 0.956 . S
H691 C678 0.961 . S
H692 C678 0.961 . S
H693 C679 0.958 . S
H694 C679 0.961 . S
H695 C679 0.960 . S
C696 C697 1.391 . S
C696 C698 1.394 . S
C696 H712 0.931 . S
C697 C696 1.391 . S
C697 C701 1.376 . S
C698 C696 1.394 . S
C698 C699 1.369 . S
C698 C702 1.531 . S
C699 C698 1.369 . S
C699 C700 1.410 1_565 S
C699 C707 1.503 . S
C700 C699 1.410 1_545 S
C700 C701 1.392 1_545 S
C700 C703 1.511 . S
C701 C697 1.376 . S
C701 C700 1.392 1_565 S
C701 H713 0.929 1_565 S
C702 C698 1.531 . S
C702 H714 0.960 . S
C702 H715 0.962 . S
C702 H716 0.960 . S
C703 C700 1.511 . S
C703 H717 0.961 . S
C703 H718 0.961 . S
C703 H719 0.961 . S
C704 C705 1.370 . S
C704 C706 1.363 . S
C704 H720 0.931 . S
C705 C704 1.370 . S
C705 C709 1.408 1_565 S
C706 C704 1.363 . S
C706 C707 1.370 . S
C706 C710 1.524 . S
C707 C699 1.503 . S
C707 C706 1.370 . S
C707 C708 1.403 1_565 S
C708 C707 1.403 1_545 S
C708 C709 1.404 . S
C708 C711 1.539 . S
C709 C705 1.408 1_545 S
C709 C708 1.404 . S
C709 H721 0.930 . S
C710 C706 1.524 . S
C710 H722 0.956 . S
C710 H723 0.961 . S
C710 H724 0.961 . S
C711 C708 1.539 . S
C711 H725 0.958 1_545 S
C711 H726 0.961 . S
C711 H727 0.960 . S
H712 C696 0.931 . S
H713 C701 0.929 1_545 S
H714 C702 0.960 . S
H715 C702 0.962 . S
H716 C702 0.960 . S
H717 C703 0.961 . S
H718 C703 0.961 . S
H719 C703 0.961 . S
H720 C704 0.931 . S
H721 C709 0.930 . S
H722 C710 0.956 . S
H723 C710 0.961 . S
H724 C710 0.961 . S
H725 C711 0.958 1_565 S
H726 C711 0.961 . S
H727 C711 0.960 . S
C728 C729 1.391 . S
C728 C730 1.394 . S
C728 H744 0.931 . S
C729 C728 1.391 . S
C729 C733 1.376 . S
C730 C728 1.394 . S
C730 C731 1.369 . S
C730 C734 1.531 . S
C731 C730 1.369 . S
C731 C732 1.410 . S
C731 C739 1.503 . S
C732 C731 1.410 . S
C732 C733 1.392 . S
C732 C735 1.511 . S
C733 C729 1.376 . S
C733 C732 1.392 . S
C733 H745 0.929 . S
C734 C730 1.531 . S
C734 H746 0.960 . S
C734 H747 0.962 . S
C734 H748 0.960 . S
C735 C732 1.511 . S
C735 H749 0.961 . S
C735 H750 0.961 . S
C735 H751 0.961 . S
C736 C737 1.370 . S
C736 C738 1.363 . S
C736 H752 0.931 . S
C737 C736 1.370 . S
C737 C741 1.408 . S
C738 C736 1.363 . S
C738 C739 1.370 . S
C738 C742 1.524 . S
C739 C731 1.503 . S
C739 C738 1.370 . S
C739 C740 1.403 . S
C740 C739 1.403 . S
C740 C741 1.404 . S
C740 C743 1.539 . S
C741 C737 1.408 . S
C741 C740 1.404 . S
C741 H753 0.930 . S
C742 C738 1.524 . S
C742 H754 0.956 . S
C742 H755 0.961 . S
C742 H756 0.961 . S
C743 C740 1.539 . S
C743 H757 0.958 . S
C743 H758 0.961 . S
C743 H759 0.960 . S
H744 C728 0.931 . S
H745 C733 0.929 . S
H746 C734 0.960 . S
H747 C734 0.962 . S
H748 C734 0.960 . S
H749 C735 0.961 . S
H750 C735 0.961 . S
H751 C735 0.961 . S
H752 C736 0.931 . S
H753 C741 0.930 . S
H754 C742 0.956 . S
H755 C742 0.961 . S
H756 C742 0.961 . S
H757 C743 0.958 . S
H758 C743 0.961 . S
H759 C743 0.960 . S
C760 C761 1.391 . S
C760 C762 1.394 . S
C760 H776 0.931 . S
C761 C760 1.391 . S
C761 C765 1.376 . S
C762 C760 1.394 . S
C762 C763 1.369 . S
C762 C766 1.531 . S
C763 C762 1.369 . S
C763 C764 1.410 . S
C763 C771 1.503 . S
C764 C763 1.410 . S
C764 C765 1.392 . S
C764 C767 1.511 . S
C765 C761 1.376 . S
C765 C764 1.392 . S
C765 H777 0.929 . S
C766 C762 1.531 . S
C766 H778 0.960 . S
C766 H779 0.962 . S
C766 H780 0.960 . S
C767 C764 1.511 . S
C767 H781 0.961 . S
C767 H782 0.961 . S
C767 H783 0.961 . S
C768 C769 1.370 . S
C768 C770 1.363 . S
C768 H784 0.931 . S
C769 C768 1.370 . S
C769 C773 1.408 . S
C770 C768 1.363 . S
C770 C771 1.370 . S
C770 C774 1.524 . S
C771 C763 1.503 . S
C771 C770 1.370 . S
C771 C772 1.403 . S
C772 C771 1.403 . S
C772 C773 1.404 . S
C772 C775 1.539 . S
C773 C769 1.408 . S
C773 C772 1.404 . S
C773 H785 0.930 . S
C774 C770 1.524 . S
C774 H786 0.956 . S
C774 H787 0.961 . S
C774 H788 0.961 . S
C775 C772 1.539 . S
C775 H789 0.958 . S
C775 H790 0.961 . S
C775 H791 0.960 . S
H776 C760 0.931 . S
H777 C765 0.929 . S
H778 C766 0.960 . S
H779 C766 0.962 . S
H780 C766 0.960 . S
H781 C767 0.961 . S
H782 C767 0.961 . S
H783 C767 0.961 . S
H784 C768 0.931 . S
H785 C773 0.930 . S
H786 C774 0.956 . S
H787 C774 0.961 . S
H788 C774 0.961 . S
H789 C775 0.958 . S
H790 C775 0.961 . S
H791 C775 0.960 . S
C792 C793 1.391 . S
C792 C794 1.394 . S
C792 H808 0.931 . S
C793 C792 1.391 . S
C793 C797 1.376 . S
C794 C792 1.394 . S
C794 C795 1.369 . S
C794 C798 1.531 . S
C795 C794 1.369 . S
C795 C796 1.410 . S
C795 C803 1.503 . S
C796 C795 1.410 . S
C796 C797 1.392 . S
C796 C799 1.511 . S
C797 C793 1.376 . S
C797 C796 1.392 . S
C797 H809 0.929 . S
C798 C794 1.531 . S
C798 H810 0.960 . S
C798 H811 0.962 . S
C798 H812 0.960 . S
C799 C796 1.511 . S
C799 H813 0.961 . S
C799 H814 0.961 . S
C799 H815 0.961 . S
C800 C801 1.370 . S
C800 C802 1.363 . S
C800 H816 0.931 . S
C801 C800 1.370 . S
C801 C805 1.408 . S
C802 C800 1.363 . S
C802 C803 1.370 . S
C802 C806 1.524 . S
C803 C795 1.503 . S
C803 C802 1.370 . S
C803 C804 1.403 . S
C804 C803 1.403 . S
C804 C805 1.404 . S
C804 C807 1.539 . S
C805 C801 1.408 . S
C805 C804 1.404 . S
C805 H817 0.930 . S
C806 C802 1.524 . S
C806 H818 0.956 . S
C806 H819 0.961 . S
C806 H820 0.961 . S
C807 C804 1.539 . S
C807 H821 0.958 . S
C807 H822 0.961 . S
C807 H823 0.960 . S
H808 C792 0.931 . S
H809 C797 0.929 . S
H810 C798 0.960 . S
H811 C798 0.962 . S
H812 C798 0.960 . S
H813 C799 0.961 . S
H814 C799 0.961 . S
H815 C799 0.961 . S
H816 C800 0.931 . S
H817 C805 0.930 . S
H818 C806 0.956 . S
H819 C806 0.961 . S
H820 C806 0.961 . S
H821 C807 0.958 . S
H822 C807 0.961 . S
H823 C807 0.960 . S
C824 C825 1.391 . S
C824 C826 1.394 . S
C824 H840 0.931 . S
C825 C824 1.391 . S
C825 C829 1.376 . S
C826 C824 1.394 . S
C826 C827 1.369 . S
C826 C830 1.531 . S
C827 C826 1.369 . S
C827 C828 1.410 . S
C827 C835 1.503 . S
C828 C827 1.410 . S
C828 C829 1.392 . S
C828 C831 1.511 . S
C829 C825 1.376 . S
C829 C828 1.392 . S
C829 H841 0.929 . S
C830 C826 1.531 . S
C830 H842 0.960 . S
C830 H843 0.962 . S
C830 H844 0.960 . S
C831 C828 1.511 . S
C831 H845 0.961 . S
C831 H846 0.961 . S
C831 H847 0.961 . S
C832 C833 1.370 . S
C832 C834 1.363 . S
C832 H848 0.931 . S
C833 C832 1.370 . S
C833 C837 1.408 . S
C834 C832 1.363 . S
C834 C835 1.370 . S
C834 C838 1.524 . S
C835 C827 1.503 . S
C835 C834 1.370 . S
C835 C836 1.403 . S
C836 C835 1.403 . S
C836 C837 1.404 . S
C836 C839 1.539 . S
C837 C833 1.408 . S
C837 C836 1.404 . S
C837 H849 0.930 . S
C838 C834 1.524 . S
C838 H850 0.956 . S
C838 H851 0.961 . S
C838 H852 0.961 . S
C839 C836 1.539 . S
C839 H853 0.958 . S
C839 H854 0.961 . S
C839 H855 0.960 . S
H840 C824 0.931 . S
H841 C829 0.929 . S
H842 C830 0.960 . S
H843 C830 0.962 . S
H844 C830 0.960 . S
H845 C831 0.961 . S
H846 C831 0.961 . S
H847 C831 0.961 . S
H848 C832 0.931 . S
H849 C837 0.930 . S
H850 C838 0.956 . S
H851 C838 0.961 . S
H852 C838 0.961 . S
H853 C839 0.958 . S
H854 C839 0.961 . S
H855 C839 0.960 . S
C856 C857 1.391 . S
C856 C858 1.394 . S
C856 H872 0.931 . S
C857 C856 1.391 . S
C857 C861 1.376 . S
C858 C856 1.394 . S
C858 C859 1.369 . S
C858 C862 1.531 . S
C859 C858 1.369 . S
C859 C860 1.410 . S
C859 C867 1.503 . S
C860 C859 1.410 . S
C860 C861 1.392 . S
C860 C863 1.511 . S
C861 C857 1.376 . S
C861 C860 1.392 . S
C861 H873 0.929 . S
C862 C858 1.531 . S
C862 H874 0.960 . S
C862 H875 0.962 . S
C862 H876 0.960 . S
C863 C860 1.511 . S
C863 H877 0.961 . S
C863 H878 0.961 . S
C863 H879 0.961 . S
C864 C865 1.370 . S
C864 C866 1.363 . S
C864 H880 0.931 . S
C865 C864 1.370 . S
C865 C869 1.408 . S
C866 C864 1.363 . S
C866 C867 1.370 . S
C866 C870 1.524 . S
C867 C859 1.503 . S
C867 C866 1.370 . S
C867 C868 1.403 . S
C868 C867 1.403 . S
C868 C869 1.404 . S
C868 C871 1.539 . S
C869 C865 1.408 . S
C869 C868 1.404 . S
C869 H881 0.930 . S
C870 C866 1.524 . S
C870 H882 0.956 . S
C870 H883 0.961 . S
C870 H884 0.961 . S
C871 C868 1.539 . S
C871 H885 0.958 . S
C871 H886 0.961 . S
C871 H887 0.960 . S
H872 C856 0.931 . S
H873 C861 0.929 . S
H874 C862 0.960 . S
H875 C862 0.962 . S
H876 C862 0.960 . S
H877 C863 0.961 . S
H878 C863 0.961 . S
H879 C863 0.961 . S
H880 C864 0.931 . S
H881 C869 0.930 . S
H882 C870 0.956 . S
H883 C870 0.961 . S
H884 C870 0.961 . S
H885 C871 0.958 . S
H886 C871 0.961 . S
H887 C871 0.960 . S
C888 C889 1.391 . S
C888 C890 1.394 . S
C888 H904 0.931 . S
C889 C888 1.391 . S
C889 C893 1.376 . S
C890 C888 1.394 . S
C890 C891 1.369 . S
C890 C894 1.531 . S
C891 C890 1.369 . S
C891 C892 1.410 . S
C891 C899 1.503 . S
C892 C891 1.410 . S
C892 C893 1.392 . S
C892 C895 1.511 . S
C893 C889 1.376 . S
C893 C892 1.392 . S
C893 H905 0.929 . S
C894 C890 1.531 . S
C894 H906 0.960 . S
C894 H907 0.962 . S
C894 H908 0.960 . S
C895 C892 1.511 . S
C895 H909 0.961 . S
C895 H910 0.961 . S
C895 H911 0.961 . S
C896 C897 1.370 . S
C896 C898 1.363 . S
C896 H912 0.931 . S
C897 C896 1.370 . S
C897 C901 1.408 . S
C898 C896 1.363 . S
C898 C899 1.370 . S
C898 C902 1.524 . S
C899 C891 1.503 . S
C899 C898 1.370 . S
C899 C900 1.403 . S
C900 C899 1.403 . S
C900 C901 1.404 . S
C900 C903 1.539 . S
C901 C897 1.408 . S
C901 C900 1.404 . S
C901 H913 0.930 . S
C902 C898 1.524 . S
C902 H914 0.956 . S
C902 H915 0.961 . S
C902 H916 0.961 . S
C903 C900 1.539 . S
C903 H917 0.958 . S
C903 H918 0.961 . S
C903 H919 0.960 . S
H904 C888 0.931 . S
H905 C893 0.929 . S
H906 C894 0.960 . S
H907 C894 0.962 . S
H908 C894 0.960 . S
H909 C895 0.961 . S
H910 C895 0.961 . S
H911 C895 0.961 . S
H912 C896 0.931 . S
H913 C901 0.930 . S
H914 C902 0.956 . S
H915 C902 0.961 . S
H916 C902 0.961 . S
H917 C903 0.958 . S
H918 C903 0.961 . S
H919 C903 0.960 . S
C920 C921 1.391 . S
C920 C922 1.394 . S
C920 H936 0.931 . S
C921 C920 1.391 . S
C921 C925 1.376 . S
C922 C920 1.394 . S
C922 C923 1.369 . S
C922 C926 1.531 . S
C923 C922 1.369 . S
C923 C924 1.410 . S
C923 C931 1.503 . S
C924 C923 1.410 . S
C924 C925 1.392 . S
C924 C927 1.511 . S
C925 C921 1.376 . S
C925 C924 1.392 . S
C925 H937 0.929 . S
C926 C922 1.531 . S
C926 H938 0.960 . S
C926 H939 0.962 . S
C926 H940 0.960 . S
C927 C924 1.511 . S
C927 H941 0.961 . S
C927 H942 0.961 . S
C927 H943 0.961 . S
C928 C929 1.370 . S
C928 C930 1.363 . S
C928 H944 0.931 . S
C929 C928 1.370 . S
C929 C933 1.408 . S
C930 C928 1.363 . S
C930 C931 1.370 . S
C930 C934 1.524 . S
C931 C923 1.503 . S
C931 C930 1.370 . S
C931 C932 1.403 . S
C932 C931 1.403 . S
C932 C933 1.404 . S
C932 C935 1.539 . S
C933 C929 1.408 . S
C933 C932 1.404 . S
C933 H945 0.930 . S
C934 C930 1.524 . S
C934 H946 0.956 . S
C934 H947 0.961 . S
C934 H948 0.961 . S
C935 C932 1.539 . S
C935 H949 0.958 . S
C935 H950 0.961 . S
C935 H951 0.960 . S
H936 C920 0.931 . S
H937 C925 0.929 . S
H938 C926 0.960 . S
H939 C926 0.962 . S
H940 C926 0.960 . S
H941 C927 0.961 . S
H942 C927 0.961 . S
H943 C927 0.961 . S
H944 C928 0.931 . S
H945 C933 0.930 . S
H946 C934 0.956 . S
H947 C934 0.961 . S
H948 C934 0.961 . S
H949 C935 0.958 . S
H950 C935 0.961 . S
H951 C935 0.960 . S
C952 C953 1.391 . S
C952 C954 1.394 . S
C952 H968 0.931 . S
C953 C952 1.391 . S
C953 C957 1.376 . S
C954 C952 1.394 . S
C954 C955 1.369 . S
C954 C958 1.531 . S
C955 C954 1.369 . S
C955 C956 1.410 . S
C955 C963 1.503 . S
C956 C955 1.410 . S
C956 C957 1.392 . S
C956 C959 1.511 . S
C957 C953 1.376 . S
C957 C956 1.392 . S
C957 H969 0.929 . S
C958 C954 1.531 . S
C958 H970 0.960 . S
C958 H971 0.962 . S
C958 H972 0.960 . S
C959 C956 1.511 . S
C959 H973 0.961 . S
C959 H974 0.961 . S
C959 H975 0.961 . S
C960 C961 1.339 1_455 S
C960 C962 1.363 . S
C960 H976 0.931 . S
C961 C960 1.339 1_655 S
C961 C965 1.446 . S
C962 C960 1.363 . S
C962 C963 1.370 1_455 S
C962 C966 1.524 . S
C963 C955 1.503 . S
C963 C962 1.370 1_655 S
C963 C964 1.403 . S
C964 C963 1.403 . S
C964 C965 1.404 . S
C964 C967 1.539 . S
C965 C961 1.446 . S
C965 C964 1.404 . S
C965 H977 0.930 . S
C966 C962 1.524 . S
C966 H978 0.956 . S
C966 H979 0.961 . S
C966 H980 0.961 . S
C967 C964 1.539 . S
C967 H981 0.958 . S
C967 H982 0.961 . S
C967 H983 0.960 . S
H968 C952 0.931 . S
H969 C957 0.929 . S
H970 C958 0.960 . S
H971 C958 0.962 . S
H972 C958 0.960 . S
H973 C959 0.961 . S
H974 C959 0.961 . S
H975 C959 0.961 . S
H976 C960 0.931 . S
H977 C965 0.930 . S
H978 C966 0.956 . S
H979 C966 0.961 . S
H980 C966 0.961 . S
H981 C967 0.958 . S
H982 C967 0.961 . S
H983 C967 0.960 . S
C984 C985 1.391 . S
C984 C986 1.394 . S
C984 H1000 0.931 . S
C985 C984 1.391 . S
C985 C989 1.376 . S
C986 C984 1.394 . S
C986 C987 1.369 . S
C986 C990 1.531 . S
C987 C986 1.369 . S
C987 C988 1.410 . S
C987 C995 1.503 . S
C988 C987 1.410 . S
C988 C989 1.392 . S
C988 C991 1.511 . S
C989 C985 1.376 . S
C989 C988 1.392 . S
C989 H1001 0.929 . S
C990 C986 1.531 . S
C990 H1002 0.960 . S
C990 H1003 0.962 . S
C990 H1004 0.960 . S
C991 C988 1.511 . S
C991 H1005 0.961 . S
C991 H1006 0.961 . S
C991 H1007 0.961 . S
C992 C993 1.370 . S
C992 C994 1.363 . S
C992 H1008 0.931 . S
C993 C992 1.370 . S
C993 C997 1.408 . S
C994 C992 1.363 . S
C994 C995 1.370 . S
C994 C998 1.524 . S
C995 C987 1.503 . S
C995 C994 1.370 . S
C995 C996 1.403 . S
C996 C995 1.403 . S
C996 C997 1.404 . S
C996 C999 1.539 . S
C997 C993 1.408 . S
C997 C996 1.404 . S
C997 H1009 0.930 . S
C998 C994 1.524 . S
C998 H1010 0.956 . S
C998 H1011 0.961 . S
C998 H1012 0.961 . S
C999 C996 1.539 . S
C999 H1013 0.958 . S
C999 H1014 0.961 . S
C999 H1015 0.960 . S
H1000 C984 0.931 . S
H1001 C989 0.929 . S
H1002 C990 0.960 . S
H1003 C990 0.962 . S
H1004 C990 0.960 . S
H1005 C991 0.961 . S
H1006 C991 0.961 . S
H1007 C991 0.961 . S
H1008 C992 0.931 . S
H1009 C997 0.930 . S
H1010 C998 0.956 . S
H1011 C998 0.961 . S
H1012 C998 0.961 . S
H1013 C999 0.958 . S
H1014 C999 0.961 . S
H1015 C999 0.960 . S
C1016 C1017 1.391 . S
C1016 C1018 1.394 . S
C1016 H1032 0.931 . S
C1017 C1016 1.391 . S
C1017 C1021 1.376 . S
C1018 C1016 1.394 . S
C1018 C1019 1.369 . S
C1018 C1022 1.531 . S
C1019 C1018 1.369 . S
C1019 C1020 1.410 . S
C1019 C1027 1.503 . S
C1020 C1019 1.410 . S
C1020 C1021 1.392 . S
C1020 C1023 1.511 . S
C1021 C1017 1.376 . S
C1021 C1020 1.392 . S
C1021 H1033 0.929 . S
C1022 C1018 1.531 . S
C1022 H1034 0.960 . S
C1022 H1035 0.962 . S
C1022 H1036 0.960 . S
C1023 C1020 1.511 . S
C1023 H1037 0.961 . S
C1023 H1038 0.961 . S
C1023 H1039 0.961 . S
C1024 C1025 1.370 . S
C1024 C1026 1.363 . S
C1024 H1040 0.931 . S
C1025 C1024 1.370 . S
C1025 C1029 1.408 . S
C1026 C1024 1.363 . S
C1026 C1027 1.370 . S
C1026 C1030 1.524 . S
C1027 C1019 1.503 . S
C1027 C1026 1.370 . S
C1027 C1028 1.403 . S
C1028 C1027 1.403 . S
C1028 C1029 1.404 . S
C1028 C1031 1.539 . S
C1029 C1025 1.408 . S
C1029 C1028 1.404 . S
C1029 H1041 0.930 . S
C1030 C1026 1.524 . S
C1030 H1042 0.956 . S
C1030 H1043 0.961 . S
C1030 H1044 0.961 . S
C1031 C1028 1.539 . S
C1031 H1045 0.958 . S
C1031 H1046 0.961 . S
C1031 H1047 0.960 . S
H1032 C1016 0.931 . S
H1033 C1021 0.929 . S
H1034 C1022 0.960 . S
H1035 C1022 0.962 . S
H1036 C1022 0.960 . S
H1037 C1023 0.961 . S
H1038 C1023 0.961 . S
H1039 C1023 0.961 . S
H1040 C1024 0.931 . S
H1041 C1029 0.930 . S
H1042 C1030 0.956 . S
H1043 C1030 0.961 . S
H1044 C1030 0.961 . S
H1045 C1031 0.958 . S
H1046 C1031 0.961 . S
H1047 C1031 0.960 . S
C1048 C1049 1.391 . S
C1048 C1050 1.411 . S
C1048 H1064 0.931 . S
C1049 C1048 1.391 . S
C1049 C1053 1.376 . S
C1050 C1048 1.411 . S
C1050 C1051 1.358 1_545 S
C1050 C1054 1.525 1_545 S
C1051 C1050 1.358 1_565 S
C1051 C1052 1.410 1_565 S
C1051 C1059 1.503 . S
C1052 C1051 1.410 1_545 S
C1052 C1053 1.392 . S
C1052 C1055 1.511 1_546 S
C1053 C1049 1.376 . S
C1053 C1052 1.392 . S
C1053 H1065 0.929 . S
C1054 C1050 1.525 1_565 S
C1054 H1066 0.960 . S
C1054 H1067 0.962 . S
C1054 H1068 0.960 . S
C1055 C1052 1.511 1_564 S
C1055 H1069 0.961 1_565 S
C1055 H1070 0.961 . S
C1055 H1071 0.961 . S
C1056 C1057 1.370 . S
C1056 C1058 1.363 . S
C1056 H1072 0.931 . S
C1057 C1056 1.370 . S
C1057 C1061 1.390 1_554 S
C1058 C1056 1.363 . S
C1058 C1059 1.370 1_554 S
C1058 C1062 1.524 1_565 S
C1059 C1051 1.503 . S
C1059 C1058 1.370 1_556 S
C1059 C1060 1.403 . S
C1060 C1059 1.403 . S
C1060 C1061 1.421 . S
C1060 C1063 1.539 . S
C1061 C1057 1.390 1_556 S
C1061 C1060 1.421 . S
C1061 H1073 0.932 . S
C1062 C1058 1.524 1_545 S
C1062 H1074 0.956 . S
C1062 H1075 0.961 . S
C1062 H1076 0.961 . S
C1063 C1060 1.539 . S
C1063 H1077 0.958 . S
C1063 H1078 0.961 . S
C1063 H1079 0.960 . S
H1064 C1048 0.931 . S
H1065 C1053 0.929 . S
H1066 C1054 0.960 . S
H1067 C1054 0.962 . S
H1068 C1054 0.960 . S
H1069 C1055 0.961 1_545 S
H1070 C1055 0.961 . S
H1071 C1055 0.961 . S
H1072 C1056 0.931 . S
H1073 C1061 0.932 . S
H1074 C1062 0.956 . S
H1075 C1062 0.961 . S
H1076 C1062 0.961 . S
H1077 C1063 0.958 . S
H1078 C1063 0.961 . S
H1079 C1063 0.960 . S
C1080 C1081 1.391 . S
C1080 C1082 1.394 . S
C1080 H1096 0.931 . S
C1081 C1080 1.391 . S
C1081 C1085 1.376 . S
C1082 C1080 1.394 . S
C1082 C1083 1.369 . S
C1082 C1086 1.531 . S
C1083 C1082 1.369 . S
C1083 C1084 1.410 . S
C1083 C1091 1.503 . S
C1084 C1083 1.410 . S
C1084 C1085 1.392 . S
C1084 C1087 1.511 . S
C1085 C1081 1.376 . S
C1085 C1084 1.392 . S
C1085 H1097 0.929 . S
C1086 C1082 1.531 . S
C1086 H1098 0.960 . S
C1086 H1099 0.962 . S
C1086 H1100 0.960 . S
C1087 C1084 1.511 . S
C1087 H1101 0.961 . S
C1087 H1102 0.961 . S
C1087 H1103 0.961 . S
C1088 C1089 1.370 . S
C1088 C1090 1.363 . S
C1088 H1104 0.931 . S
C1089 C1088 1.370 . S
C1089 C1093 1.408 . S
C1090 C1088 1.363 . S
C1090 C1091 1.370 . S
C1090 C1094 1.524 . S
C1091 C1083 1.503 . S
C1091 C1090 1.370 . S
C1091 C1092 1.403 . S
C1092 C1091 1.403 . S
C1092 C1093 1.404 . S
C1092 C1095 1.539 . S
C1093 C1089 1.408 . S
C1093 C1092 1.404 . S
C1093 H1105 0.930 . S
C1094 C1090 1.524 . S
C1094 H1106 0.956 . S
C1094 H1107 0.961 . S
C1094 H1108 0.961 . S
C1095 C1092 1.539 . S
C1095 H1109 0.958 . S
C1095 H1110 0.961 . S
C1095 H1111 0.960 . S
H1096 C1080 0.931 . S
H1097 C1085 0.929 . S
H1098 C1086 0.960 . S
H1099 C1086 0.962 . S
H1100 C1086 0.960 . S
H1101 C1087 0.961 . S
H1102 C1087 0.961 . S
H1103 C1087 0.961 . S
H1104 C1088 0.931 . S
H1105 C1093 0.930 . S
H1106 C1094 0.956 . S
H1107 C1094 0.961 . S
H1108 C1094 0.961 . S
H1109 C1095 0.958 . S
H1110 C1095 0.961 . S
H1111 C1095 0.960 . S
C1112 C1113 1.390 1_565 S
C1112 C1114 1.394 1_565 S
C1112 H1128 0.931 . S
C1113 C1112 1.390 1_545 S
C1113 C1117 1.384 . S
C1114 C1112 1.394 1_545 S
C1114 C1115 1.369 . S
C1114 C1118 1.531 . S
C1115 C1114 1.369 . S
C1115 C1116 1.410 . S
C1115 C1123 1.503 . S
C1116 C1115 1.410 . S
C1116 C1117 1.392 . S
C1116 C1119 1.511 . S
C1117 C1113 1.384 . S
C1117 C1116 1.392 . S
C1117 H1129 0.929 . S
C1118 C1114 1.531 . S
C1118 H1130 0.960 . S
C1118 H1131 0.962 . S
C1118 H1132 0.960 . S
C1119 C1116 1.511 . S
C1119 H1133 0.961 . S
C1119 H1134 0.961 . S
C1119 H1135 0.961 . S
C1120 C1121 1.370 . S
C1120 C1122 1.363 . S
C1120 H1136 0.931 . S
C1121 C1120 1.370 . S
C1121 C1125 1.408 . S
C1122 C1120 1.363 . S
C1122 C1123 1.370 . S
C1122 C1126 1.524 . S
C1123 C1115 1.503 . S
C1123 C1122 1.370 . S
C1123 C1124 1.403 . S
C1124 C1123 1.403 . S
C1124 C1125 1.404 . S
C1124 C1127 1.539 . S
C1125 C1121 1.408 . S
C1125 C1124 1.404 . S
C1125 H1137 0.930 . S
C1126 C1122 1.524 . S
C1126 H1138 0.956 . S
C1126 H1139 0.961 . S
C1126 H1140 0.961 . S
C1127 C1124 1.539 . S
C1127 H1141 0.958 . S
C1127 H1142 0.961 . S
C1127 H1143 0.960 . S
H1128 C1112 0.931 . S
H1129 C1117 0.929 . S
H1130 C1118 0.960 . S
H1131 C1118 0.962 . S
H1132 C1118 0.960 . S
H1133 C1119 0.961 . S
H1134 C1119 0.961 . S
H1135 C1119 0.961 . S
H1136 C1120 0.931 . S
H1137 C1125 0.930 . S
H1138 C1126 0.956 . S
H1139 C1126 0.961 . S
H1140 C1126 0.961 . S
H1141 C1127 0.958 . S
H1142 C1127 0.961 . S
H1143 C1127 0.960 . S
C1144 C1145 1.391 . S
C1144 C1146 1.394 . S
C1144 H1160 0.931 . S
C1145 C1144 1.391 . S
C1145 C1149 1.376 . S
C1146 C1144 1.394 . S
C1146 C1147 1.369 . S
C1146 C1150 1.531 . S
C1147 C1146 1.369 . S
C1147 C1148 1.410 . S
C1147 C1155 1.503 . S
C1148 C1147 1.410 . S
C1148 C1149 1.392 . S
C1148 C1151 1.511 . S
C1149 C1145 1.376 . S
C1149 C1148 1.392 . S
C1149 H1161 0.929 . S
C1150 C1146 1.531 . S
C1150 H1162 0.960 . S
C1150 H1163 0.962 . S
C1150 H1164 0.960 . S
C1151 C1148 1.511 . S
C1151 H1165 0.961 . S
C1151 H1166 0.961 . S
C1151 H1167 0.961 . S
C1152 C1153 1.370 . S
C1152 C1154 1.363 . S
C1152 H1168 0.931 . S
C1153 C1152 1.370 . S
C1153 C1157 1.408 . S
C1154 C1152 1.363 . S
C1154 C1155 1.370 . S
C1154 C1158 1.524 . S
C1155 C1147 1.503 . S
C1155 C1154 1.370 . S
C1155 C1156 1.403 . S
C1156 C1155 1.403 . S
C1156 C1157 1.404 . S
C1156 C1159 1.539 . S
C1157 C1153 1.408 . S
C1157 C1156 1.404 . S
C1157 H1169 0.930 . S
C1158 C1154 1.524 . S
C1158 H1170 0.956 . S
C1158 H1171 0.961 . S
C1158 H1172 0.961 . S
C1159 C1156 1.539 . S
C1159 H1173 0.958 . S
C1159 H1174 0.961 . S
C1159 H1175 0.960 . S
H1160 C1144 0.931 . S
H1161 C1149 0.929 . S
H1162 C1150 0.960 . S
H1163 C1150 0.962 . S
H1164 C1150 0.960 . S
H1165 C1151 0.961 . S
H1166 C1151 0.961 . S
H1167 C1151 0.961 . S
H1168 C1152 0.931 . S
H1169 C1157 0.930 . S
H1170 C1158 0.956 . S
H1171 C1158 0.961 . S
H1172 C1158 0.961 . S
H1173 C1159 0.958 . S
H1174 C1159 0.961 . S
H1175 C1159 0.960 . S
C1176 C1177 1.391 . S
C1176 C1178 1.394 . S
C1176 H1192 0.931 . S
C1177 C1176 1.391 . S
C1177 C1181 1.376 . S
C1178 C1176 1.394 . S
C1178 C1179 1.369 . S
C1178 C1182 1.531 . S
C1179 C1178 1.369 . S
C1179 C1180 1.410 . S
C1179 C1187 1.503 . S
C1180 C1179 1.410 . S
C1180 C1181 1.392 . S
C1180 C1183 1.511 . S
C1181 C1177 1.376 . S
C1181 C1180 1.392 . S
C1181 H1193 0.929 . S
C1182 C1178 1.531 . S
C1182 H1194 0.960 . S
C1182 H1195 0.962 . S
C1182 H1196 0.960 . S
C1183 C1180 1.511 . S
C1183 H1197 0.961 . S
C1183 H1198 0.961 . S
C1183 H1199 0.961 . S
C1184 C1185 1.370 . S
C1184 C1186 1.363 . S
C1184 H1200 0.931 . S
C1185 C1184 1.370 . S
C1185 C1189 1.408 . S
C1186 C1184 1.363 . S
C1186 C1187 1.370 . S
C1186 C1190 1.524 . S
C1187 C1179 1.503 . S
C1187 C1186 1.370 . S
C1187 C1188 1.403 . S
C1188 C1187 1.403 . S
C1188 C1189 1.404 . S
C1188 C1191 1.539 . S
C1189 C1185 1.408 . S
C1189 C1188 1.404 . S
C1189 H1201 0.930 . S
C1190 C1186 1.524 . S
C1190 H1202 0.956 . S
C1190 H1203 0.961 . S
C1190 H1204 0.961 . S
C1191 C1188 1.539 . S
C1191 H1205 0.958 . S
C1191 H1206 0.961 . S
C1191 H1207 0.960 . S
H1192 C1176 0.931 . S
H1193 C1181 0.929 . S
H1194 C1182 0.960 . S
H1195 C1182 0.962 . S
H1196 C1182 0.960 . S
H1197 C1183 0.961 . S
H1198 C1183 0.961 . S
H1199 C1183 0.961 . S
H1200 C1184 0.931 . S
H1201 C1189 0.930 . S
H1202 C1190 0.956 . S
H1203 C1190 0.961 . S
H1204 C1190 0.961 . S
H1205 C1191 0.958 . S
H1206 C1191 0.961 . S
H1207 C1191 0.960 . S
C1208 C1209 1.391 . S
C1208 C1210 1.394 . S
C1208 H1224 0.931 . S
C1209 C1208 1.391 . S
C1209 C1213 1.376 . S
C1210 C1208 1.394 . S
C1210 C1211 1.369 . S
C1210 C1214 1.531 . S
C1211 C1210 1.369 . S
C1211 C1212 1.410 . S
C1211 C1219 1.503 . S
C1212 C1211 1.410 . S
C1212 C1213 1.392 . S
C1212 C1215 1.511 . S
C1213 C1209 1.376 . S
C1213 C1212 1.392 . S
C1213 H1225 0.929 . S
C1214 C1210 1.531 . S
C1214 H1226 0.960 . S
C1214 H1227 0.962 . S
C1214 H1228 0.960 . S
C1215 C1212 1.511 . S
C1215 H1229 0.961 . S
C1215 H1230 0.961 . S
C1215 H1231 0.961 . S
C1216 C1217 1.370 . S
C1216 C1218 1.363 . S
C1216 H1232 0.931 . S
C1217 C1216 1.370 . S
C1217 C1221 1.408 . S
C1218 C1216 1.363 . S
C1218 C1219 1.370 . S
C1218 C1222 1.524 . S
C1219 C1211 1.503 . S
C1219 C1218 1.370 . S
C1219 C1220 1.403 . S
C1220 C1219 1.403 . S
C1220 C1221 1.404 . S
C1220 C1223 1.539 . S
C1221 C1217 1.408 . S
C1221 C1220 1.404 . S
C1221 H1233 0.930 . S
C1222 C1218 1.524 . S
C1222 H1234 0.956 . S
C1222 H1235 0.961 . S
C1222 H1236 0.961 . S
C1223 C1220 1.539 . S
C1223 H1237 0.958 . S
C1223 H1238 0.961 . S
C1223 H1239 0.960 . S
H1224 C1208 0.931 . S
H1225 C1213 0.929 . S
H1226 C1214 0.960 . S
H1227 C1214 0.962 . S
H1228 C1214 0.960 . S
H1229 C1215 0.961 . S
H1230 C1215 0.961 . S
H1231 C1215 0.961 . S
H1232 C1216 0.931 . S
H1233 C1221 0.930 . S
H1234 C1222 0.956 . S
H1235 C1222 0.961 . S
H1236 C1222 0.961 . S
H1237 C1223 0.958 . S
H1238 C1223 0.961 . S
H1239 C1223 0.960 . S
C1240 C1241 1.391 . S
C1240 C1242 1.394 . S
C1240 H1256 0.931 . S
C1241 C1240 1.391 . S
C1241 C1245 1.376 . S
C1242 C1240 1.394 . S
C1242 C1243 1.369 . S
C1242 C1246 1.531 . S
C1243 C1242 1.369 . S
C1243 C1244 1.410 . S
C1243 C1251 1.503 . S
C1244 C1243 1.410 . S
C1244 C1245 1.392 . S
C1244 C1247 1.511 . S
C1245 C1241 1.376 . S
C1245 C1244 1.392 . S
C1245 H1257 0.929 . S
C1246 C1242 1.531 . S
C1246 H1258 0.960 . S
C1246 H1259 0.962 . S
C1246 H1260 0.960 . S
C1247 C1244 1.511 . S
C1247 H1261 0.961 . S
C1247 H1262 0.961 . S
C1247 H1263 0.961 . S
C1248 C1249 1.370 . S
C1248 C1250 1.363 . S
C1248 H1264 0.931 . S
C1249 C1248 1.370 . S
C1249 C1253 1.408 . S
C1250 C1248 1.363 . S
C1250 C1251 1.370 . S
C1250 C1254 1.524 . S
C1251 C1243 1.503 . S
C1251 C1250 1.370 . S
C1251 C1252 1.403 . S
C1252 C1251 1.403 . S
C1252 C1253 1.404 . S
C1252 C1255 1.539 . S
C1253 C1249 1.408 . S
C1253 C1252 1.404 . S
C1253 H1265 0.930 . S
C1254 C1250 1.524 . S
C1254 H1266 0.956 . S
C1254 H1267 0.961 . S
C1254 H1268 0.961 . S
C1255 C1252 1.539 . S
C1255 H1269 0.958 . S
C1255 H1270 0.961 . S
C1255 H1271 0.960 . S
H1256 C1240 0.931 . S
H1257 C1245 0.929 . S
H1258 C1246 0.960 . S
H1259 C1246 0.962 . S
H1260 C1246 0.960 . S
H1261 C1247 0.961 . S
H1262 C1247 0.961 . S
H1263 C1247 0.961 . S
H1264 C1248 0.931 . S
H1265 C1253 0.930 . S
H1266 C1254 0.956 . S
H1267 C1254 0.961 . S
H1268 C1254 0.961 . S
H1269 C1255 0.958 . S
H1270 C1255 0.961 . S
H1271 C1255 0.960 . S
C1272 C1273 1.391 . S
C1272 C1274 1.394 . S
C1272 H1288 0.931 . S
C1273 C1272 1.391 . S
C1273 C1277 1.376 . S
C1274 C1272 1.394 . S
C1274 C1275 1.369 . S
C1274 C1278 1.531 . S
C1275 C1274 1.369 . S
C1275 C1276 1.410 . S
C1275 C1283 1.503 . S
C1276 C1275 1.410 . S
C1276 C1277 1.392 . S
C1276 C1279 1.511 . S
C1277 C1273 1.376 . S
C1277 C1276 1.392 . S
C1277 H1289 0.929 . S
C1278 C1274 1.531 . S
C1278 H1290 0.960 . S
C1278 H1291 0.962 . S
C1278 H1292 0.960 . S
C1279 C1276 1.511 . S
C1279 H1293 0.961 . S
C1279 H1294 0.961 . S
C1279 H1295 0.961 . S
C1280 C1281 1.370 . S
C1280 C1282 1.363 . S
C1280 H1296 0.931 . S
C1281 C1280 1.370 . S
C1281 C1285 1.408 . S
C1282 C1280 1.363 . S
C1282 C1283 1.370 . S
C1282 C1286 1.524 . S
C1283 C1275 1.503 . S
C1283 C1282 1.370 . S
C1283 C1284 1.403 . S
C1284 C1283 1.403 . S
C1284 C1285 1.404 . S
C1284 C1287 1.539 1_545 S
C1285 C1281 1.408 . S
C1285 C1284 1.404 . S
C1285 H1297 0.930 1_545 S
C1286 C1282 1.524 . S
C1286 H1298 0.956 . S
C1286 H1299 0.961 . S
C1286 H1300 0.961 . S
C1287 C1284 1.539 1_565 S
C1287 H1301 0.958 . S
C1287 H1302 0.961 . S
C1287 H1303 0.960 . S
H1288 C1272 0.931 . S
H1289 C1277 0.929 . S
H1290 C1278 0.960 . S
H1291 C1278 0.962 . S
H1292 C1278 0.960 . S
H1293 C1279 0.961 . S
H1294 C1279 0.961 . S
H1295 C1279 0.961 . S
H1296 C1280 0.931 . S
H1297 C1285 0.930 1_565 S
H1298 C1286 0.956 . S
H1299 C1286 0.961 . S
H1300 C1286 0.961 . S
H1301 C1287 0.958 . S
H1302 C1287 0.961 . S
H1303 C1287 0.960 . S
C1304 C1305 1.391 . S
C1304 C1306 1.394 . S
C1304 H1320 0.931 . S
C1305 C1304 1.391 . S
C1305 C1309 1.376 . S
C1306 C1304 1.394 . S
C1306 C1307 1.369 . S
C1306 C1310 1.531 . S
C1307 C1306 1.369 . S
C1307 C1308 1.410 . S
C1307 C1315 1.503 . S
C1308 C1307 1.410 . S
C1308 C1309 1.392 . S
C1308 C1311 1.511 . S
C1309 C1305 1.376 . S
C1309 C1308 1.392 . S
C1309 H1321 0.929 . S
C1310 C1306 1.531 . S
C1310 H1322 0.960 . S
C1310 H1323 0.962 . S
C1310 H1324 0.960 . S
C1311 C1308 1.511 . S
C1311 H1325 0.961 . S
C1311 H1326 0.961 . S
C1311 H1327 0.961 . S
C1312 C1313 1.370 . S
C1312 C1314 1.363 . S
C1312 H1328 0.931 . S
C1313 C1312 1.370 . S
C1313 C1317 1.408 . S
C1314 C1312 1.363 . S
C1314 C1315 1.370 . S
C1314 C1318 1.524 . S
C1315 C1307 1.503 . S
C1315 C1314 1.370 . S
C1315 C1316 1.403 . S
C1316 C1315 1.403 . S
C1316 C1317 1.404 . S
C1316 C1319 1.539 . S
C1317 C1313 1.408 . S
C1317 C1316 1.404 . S
C1317 H1329 0.930 . S
C1318 C1314 1.524 . S
C1318 H1330 0.956 . S
C1318 H1331 0.961 . S
C1318 H1332 0.961 . S
C1319 C1316 1.539 . S
C1319 H1333 0.958 . S
C1319 H1334 0.961 . S
C1319 H1335 0.960 . S
H1320 C1304 0.931 . S
H1321 C1309 0.929 . S
H1322 C1310 0.960 . S
H1323 C1310 0.962 . S
H1324 C1310 0.960 . S
H1325 C1311 0.961 . S
H1326 C1311 0.961 . S
H1327 C1311 0.961 . S
H1328 C1312 0.931 . S
H1329 C1317 0.930 . S
H1330 C1318 0.956 . S
H1331 C1318 0.961 . S
H1332 C1318 0.961 . S
H1333 C1319 0.958 . S
H1334 C1319 0.961 . S
H1335 C1319 0.960 . S
C1336 C1337 1.391 . S
C1336 C1338 1.394 . S
C1336 H1352 0.931 . S
C1337 C1336 1.391 . S
C1337 C1341 1.376 . S
C1338 C1336 1.394 . S
C1338 C1339 1.369 . S
C1338 C1342 1.531 . S
C1339 C1338 1.369 . S
C1339 C1340 1.410 . S
C1339 C1347 1.503 . S
C1340 C1339 1.410 . S
C1340 C1341 1.392 . S
C1340 C1343 1.511 . S
C1341 C1337 1.376 . S
C1341 C1340 1.392 . S
C1341 H1353 0.929 . S
C1342 C1338 1.531 . S
C1342 H1354 0.960 . S
C1342 H1355 0.962 . S
C1342 H1356 0.960 . S
C1343 C1340 1.511 . S
C1343 H1357 0.961 . S
C1343 H1358 0.961 . S
C1343 H1359 0.961 . S
C1344 C1345 1.370 . S
C1344 C1346 1.363 . S
C1344 H1360 0.931 . S
C1345 C1344 1.370 . S
C1345 C1349 1.408 . S
C1346 C1344 1.363 . S
C1346 C1347 1.370 . S
C1346 C1350 1.524 . S
C1347 C1339 1.503 . S
C1347 C1346 1.370 . S
C1347 C1348 1.403 . S
C1348 C1347 1.403 . S
C1348 C1349 1.404 . S
C1348 C1351 1.539 . S
C1349 C1345 1.408 . S
C1349 C1348 1.404 . S
C1349 H1361 0.930 . S
C1350 C1346 1.524 . S
C1350 H1362 0.956 . S
C1350 H1363 0.961 . S
C1350 H1364 0.961 . S
C1351 C1348 1.539 . S
C1351 H1365 0.958 . S
C1351 H1366 0.961 . S
C1351 H1367 0.960 . S
H1352 C1336 0.931 . S
H1353 C1341 0.929 . S
H1354 C1342 0.960 . S
H1355 C1342 0.962 . S
H1356 C1342 0.960 . S
H1357 C1343 0.961 . S
H1358 C1343 0.961 . S
H1359 C1343 0.961 . S
H1360 C1344 0.931 . S
H1361 C1349 0.930 . S
H1362 C1350 0.956 . S
H1363 C1350 0.961 . S
H1364 C1350 0.961 . S
H1365 C1351 0.958 . S
H1366 C1351 0.961 . S
H1367 C1351 0.960 . S
C1368 C1369 1.391 . S
C1368 C1370 1.394 . S
C1368 H1384 0.931 . S
C1369 C1368 1.391 . S
C1369 C1373 1.376 . S
C1370 C1368 1.394 . S
C1370 C1371 1.369 . S
C1370 C1374 1.531 . S
C1371 C1370 1.369 . S
C1371 C1372 1.410 . S
C1371 C1379 1.503 . S
C1372 C1371 1.410 . S
C1372 C1373 1.392 . S
C1372 C1375 1.511 . S
C1373 C1369 1.376 . S
C1373 C1372 1.392 . S
C1373 H1385 0.929 . S
C1374 C1370 1.531 . S
C1374 H1386 0.960 . S
C1374 H1387 0.962 . S
C1374 H1388 0.960 . S
C1375 C1372 1.511 . S
C1375 H1389 0.961 . S
C1375 H1390 0.961 . S
C1375 H1391 0.961 . S
C1376 C1377 1.370 . S
C1376 C1378 1.363 . S
C1376 H1392 0.931 . S
C1377 C1376 1.370 . S
C1377 C1381 1.408 . S
C1378 C1376 1.363 . S
C1378 C1379 1.370 . S
C1378 C1382 1.524 . S
C1379 C1371 1.503 . S
C1379 C1378 1.370 . S
C1379 C1380 1.403 . S
C1380 C1379 1.403 . S
C1380 C1381 1.404 . S
C1380 C1383 1.539 . S
C1381 C1377 1.408 . S
C1381 C1380 1.404 . S
C1381 H1393 0.930 . S
C1382 C1378 1.524 . S
C1382 H1394 0.956 . S
C1382 H1395 0.961 . S
C1382 H1396 0.961 . S
C1383 C1380 1.539 . S
C1383 H1397 0.958 . S
C1383 H1398 0.961 . S
C1383 H1399 0.960 . S
H1384 C1368 0.931 . S
H1385 C1373 0.929 . S
H1386 C1374 0.960 . S
H1387 C1374 0.962 . S
H1388 C1374 0.960 . S
H1389 C1375 0.961 . S
H1390 C1375 0.961 . S
H1391 C1375 0.961 . S
H1392 C1376 0.931 . S
H1393 C1381 0.930 . S
H1394 C1382 0.956 . S
H1395 C1382 0.961 . S
H1396 C1382 0.961 . S
H1397 C1383 0.958 . S
H1398 C1383 0.961 . S
H1399 C1383 0.960 . S
C1400 C1401 1.391 . S
C1400 C1402 1.394 . S
C1400 H1416 0.931 . S
C1401 C1400 1.391 . S
C1401 C1405 1.376 . S
C1402 C1400 1.394 . S
C1402 C1403 1.369 . S
C1402 C1406 1.531 . S
C1403 C1402 1.369 . S
C1403 C1404 1.410 . S
C1403 C1411 1.503 . S
C1404 C1403 1.410 . S
C1404 C1405 1.392 . S
C1404 C1407 1.511 1_455 S
C1405 C1401 1.376 . S
C1405 C1404 1.392 . S
C1405 H1417 0.929 . S
C1406 C1402 1.531 . S
C1406 H1418 0.960 . S
C1406 H1419 0.962 . S
C1406 H1420 0.960 . S
C1407 C1404 1.511 1_655 S
C1407 H1421 0.961 1_545 S
C1407 H1422 0.952 1_545 S
C1407 H1423 0.961 . S
C1408 C1409 1.370 . S
C1408 C1410 1.363 . S
C1408 H1424 0.931 1_545 S
C1409 C1408 1.370 . S
C1409 C1413 1.400 1_455 S
C1410 C1408 1.363 . S
C1410 C1411 1.370 . S
C1410 C1414 1.524 1_545 S
C1411 C1403 1.503 . S
C1411 C1410 1.370 . S
C1411 C1412 1.403 . S
C1412 C1411 1.403 . S
C1412 C1413 1.389 1_455 S
C1412 C1415 1.539 . S
C1413 C1409 1.400 1_655 S
C1413 C1412 1.389 1_655 S
C1413 H1425 0.954 . S
C1414 C1410 1.524 1_565 S
C1414 H1426 0.956 . S
C1414 H1427 0.961 . S
C1414 H1428 0.961 . S
C1415 C1412 1.539 . S
C1415 H1429 0.958 . S
C1415 H1430 0.961 1_455 S
C1415 H1431 0.959 . S
H1416 C1400 0.931 . S
H1417 C1405 0.929 . S
H1418 C1406 0.960 . S
H1419 C1406 0.962 . S
H1420 C1406 0.960 . S
H1421 C1407 0.961 1_565 S
H1422 C1407 0.952 1_565 S
H1423 C1407 0.961 . S
H1424 C1408 0.931 1_565 S
H1425 C1413 0.954 . S
H1426 C1414 0.956 . S
H1427 C1414 0.961 . S
H1428 C1414 0.961 . S
H1429 C1415 0.958 . S
H1430 C1415 0.961 1_655 S
H1431 C1415 0.959 . S
C1432 C1433 1.391 . S
C1432 C1434 1.394 . S
C1432 H1448 0.931 . S
C1433 C1432 1.391 . S
C1433 C1437 1.376 . S
C1434 C1432 1.394 . S
C1434 C1435 1.369 . S
C1434 C1438 1.531 . S
C1435 C1434 1.369 . S
C1435 C1436 1.410 . S
C1435 C1443 1.503 . S
C1436 C1435 1.410 . S
C1436 C1437 1.392 . S
C1436 C1439 1.511 . S
C1437 C1433 1.376 . S
C1437 C1436 1.392 . S
C1437 H1449 0.929 . S
C1438 C1434 1.531 . S
C1438 H1450 0.960 . S
C1438 H1451 0.962 . S
C1438 H1452 0.960 . S
C1439 C1436 1.511 . S
C1439 H1453 0.961 . S
C1439 H1454 0.961 . S
C1439 H1455 0.961 . S
C1440 C1441 1.370 . S
C1440 C1442 1.363 . S
C1440 H1456 0.931 . S
C1441 C1440 1.370 . S
C1441 C1445 1.408 . S
C1442 C1440 1.363 . S
C1442 C1443 1.370 . S
C1442 C1446 1.524 . S
C1443 C1435 1.503 . S
C1443 C1442 1.370 . S
C1443 C1444 1.403 . S
C1444 C1443 1.403 . S
C1444 C1445 1.404 . S
C1444 C1447 1.539 . S
C1445 C1441 1.408 . S
C1445 C1444 1.404 . S
C1445 H1457 0.930 . S
C1446 C1442 1.524 . S
C1446 H1458 0.956 . S
C1446 H1459 0.961 . S
C1446 H1460 0.961 . S
C1447 C1444 1.539 . S
C1447 H1461 0.958 . S
C1447 H1462 0.961 . S
C1447 H1463 0.960 . S
H1448 C1432 0.931 . S
H1449 C1437 0.929 . S
H1450 C1438 0.960 . S
H1451 C1438 0.962 . S
H1452 C1438 0.960 . S
H1453 C1439 0.961 . S
H1454 C1439 0.961 . S
H1455 C1439 0.961 . S
H1456 C1440 0.931 . S
H1457 C1445 0.930 . S
H1458 C1446 0.956 . S
H1459 C1446 0.961 . S
H1460 C1446 0.961 . S
H1461 C1447 0.958 . S
H1462 C1447 0.961 . S
H1463 C1447 0.960 . S
C1464 C1465 1.391 . S
C1464 C1466 1.394 . S
C1464 H1480 0.931 . S
C1465 C1464 1.391 . S
C1465 C1469 1.376 . S
C1466 C1464 1.394 . S
C1466 C1467 1.369 . S
C1466 C1470 1.531 . S
C1467 C1466 1.369 . S
C1467 C1468 1.410 . S
C1467 C1475 1.503 . S
C1468 C1467 1.410 . S
C1468 C1469 1.392 . S
C1468 C1471 1.511 . S
C1469 C1465 1.376 . S
C1469 C1468 1.392 . S
C1469 H1481 0.929 . S
C1470 C1466 1.531 . S
C1470 H1482 0.960 . S
C1470 H1483 0.962 . S
C1470 H1484 0.960 . S
C1471 C1468 1.511 . S
C1471 H1485 0.961 . S
C1471 H1486 0.961 . S
C1471 H1487 0.961 . S
C1472 C1473 1.370 . S
C1472 C1474 1.363 . S
C1472 H1488 0.931 . S
C1473 C1472 1.370 . S
C1473 C1477 1.408 . S
C1474 C1472 1.363 . S
C1474 C1475 1.370 . S
C1474 C1478 1.524 . S
C1475 C1467 1.503 . S
C1475 C1474 1.370 . S
C1475 C1476 1.403 . S
C1476 C1475 1.403 . S
C1476 C1477 1.404 . S
C1476 C1479 1.539 . S
C1477 C1473 1.408 . S
C1477 C1476 1.404 . S
C1477 H1489 0.930 . S
C1478 C1474 1.524 . S
C1478 H1490 0.956 . S
C1478 H1491 0.961 . S
C1478 H1492 0.961 . S
C1479 C1476 1.539 . S
C1479 H1493 0.958 . S
C1479 H1494 0.961 . S
C1479 H1495 0.960 . S
H1480 C1464 0.931 . S
H1481 C1469 0.929 . S
H1482 C1470 0.960 . S
H1483 C1470 0.962 . S
H1484 C1470 0.960 . S
H1485 C1471 0.961 . S
H1486 C1471 0.961 . S
H1487 C1471 0.961 . S
H1488 C1472 0.931 . S
H1489 C1477 0.930 . S
H1490 C1478 0.956 . S
H1491 C1478 0.961 . S
H1492 C1478 0.961 . S
H1493 C1479 0.958 . S
H1494 C1479 0.961 . S
H1495 C1479 0.960 . S
C1496 C1497 1.391 . S
C1496 C1498 1.394 . S
C1496 H1512 0.931 . S
C1497 C1496 1.391 . S
C1497 C1501 1.376 . S
C1498 C1496 1.394 . S
C1498 C1499 1.369 . S
C1498 C1502 1.531 . S
C1499 C1498 1.369 . S
C1499 C1500 1.410 . S
C1499 C1507 1.503 . S
C1500 C1499 1.410 . S
C1500 C1501 1.392 . S
C1500 C1503 1.511 . S
C1501 C1497 1.376 . S
C1501 C1500 1.392 . S
C1501 H1513 0.929 . S
C1502 C1498 1.531 . S
C1502 H1514 0.960 . S
C1502 H1515 0.962 . S
C1502 H1516 0.960 . S
C1503 C1500 1.511 . S
C1503 H1517 0.961 . S
C1503 H1518 0.961 . S
C1503 H1519 0.961 . S
C1504 C1505 1.370 . S
C1504 C1506 1.363 . S
C1504 H1520 0.931 . S
C1505 C1504 1.370 . S
C1505 C1509 1.408 . S
C1506 C1504 1.363 . S
C1506 C1507 1.370 . S
C1506 C1510 1.524 . S
C1507 C1499 1.503 . S
C1507 C1506 1.370 . S
C1507 C1508 1.403 . S
C1508 C1507 1.403 . S
C1508 C1509 1.404 . S
C1508 C1511 1.539 . S
C1509 C1505 1.408 . S
C1509 C1508 1.404 . S
C1509 H1521 0.930 . S
C1510 C1506 1.524 . S
C1510 H1522 0.956 . S
C1510 H1523 0.961 . S
C1510 H1524 0.961 . S
C1511 C1508 1.539 . S
C1511 H1525 0.958 . S
C1511 H1526 0.961 . S
C1511 H1527 0.960 . S
H1512 C1496 0.931 . S
H1513 C1501 0.929 . S
H1514 C1502 0.960 . S
H1515 C1502 0.962 . S
H1516 C1502 0.960 . S
H1517 C1503 0.961 . S
H1518 C1503 0.961 . S
H1519 C1503 0.961 . S
H1520 C1504 0.931 . S
H1521 C1509 0.930 . S
H1522 C1510 0.956 . S
H1523 C1510 0.961 . S
H1524 C1510 0.961 . S
H1525 C1511 0.958 . S
H1526 C1511 0.961 . S
H1527 C1511 0.960 . S
C1528 C1529 1.391 . S
C1528 C1530 1.394 . S
C1528 H1544 0.931 . S
C1529 C1528 1.391 . S
C1529 C1533 1.376 . S
C1530 C1528 1.394 . S
C1530 C1531 1.369 . S
C1530 C1534 1.531 . S
C1531 C1530 1.369 . S
C1531 C1532 1.410 . S
C1531 C1539 1.504 1_655 S
C1532 C1531 1.410 . S
C1532 C1533 1.392 . S
C1532 C1535 1.514 . S
C1533 C1529 1.376 . S
C1533 C1532 1.392 . S
C1533 H1545 0.929 1_556 S
C1534 C1530 1.531 . S
C1534 H1546 0.960 1_655 S
C1534 H1547 0.962 . S
C1534 H1548 0.960 1_655 S
C1535 C1532 1.514 . S
C1535 H1549 0.968 . S
C1535 H1550 0.964 . S
C1535 H1551 0.948 1_655 S
C1536 C1537 1.370 1_655 S
C1536 C1538 1.363 . S
C1536 H1552 0.931 . S
C1537 C1536 1.370 1_455 S
C1537 C1541 1.408 . S
C1538 C1536 1.363 . S
C1538 C1539 1.373 1_655 S
C1538 C1542 1.524 . S
C1539 C1531 1.504 1_455 S
C1539 C1538 1.373 1_455 S
C1539 C1540 1.400 . S
C1540 C1539 1.400 . S
C1540 C1541 1.404 . S
C1540 C1543 1.539 . S
C1541 C1537 1.408 . S
C1541 C1540 1.404 . S
C1541 H1553 0.930 . S
C1542 C1538 1.524 . S
C1542 H1554 0.956 . S
C1542 H1555 0.961 . S
C1542 H1556 0.961 . S
C1543 C1540 1.539 . S
C1543 H1557 0.958 . S
C1543 H1558 0.961 . S
C1543 H1559 0.960 . S
H1544 C1528 0.931 . S
H1545 C1533 0.929 1_554 S
H1546 C1534 0.960 1_455 S
H1547 C1534 0.962 . S
H1548 C1534 0.960 1_455 S
H1549 C1535 0.968 . S
H1550 C1535 0.964 . S
H1551 C1535 0.948 1_455 S
H1552 C1536 0.931 . S
H1553 C1541 0.930 . S
H1554 C1542 0.956 . S
H1555 C1542 0.961 . S
H1556 C1542 0.961 . S
H1557 C1543 0.958 . S
H1558 C1543 0.961 . S
H1559 C1543 0.960 . S
C1560 C1561 1.391 . S
C1560 C1562 1.394 . S
C1560 H1576 0.931 . S
C1561 C1560 1.391 . S
C1561 C1565 1.376 . S
C1562 C1560 1.394 . S
C1562 C1563 1.369 . S
C1562 C1566 1.531 . S
C1563 C1562 1.369 . S
C1563 C1564 1.410 . S
C1563 C1571 1.503 . S
C1564 C1563 1.410 . S
C1564 C1565 1.392 . S
C1564 C1567 1.511 . S
C1565 C1561 1.376 . S
C1565 C1564 1.392 . S
C1565 H1577 0.929 . S
C1566 C1562 1.531 . S
C1566 H1578 0.960 . S
C1566 H1579 0.962 . S
C1566 H1580 0.960 . S
C1567 C1564 1.511 . S
C1567 H1581 0.961 . S
C1567 H1582 0.961 . S
C1567 H1583 0.961 . S
C1568 C1569 1.370 . S
C1568 C1570 1.363 . S
C1568 H1584 0.931 . S
C1569 C1568 1.370 . S
C1569 C1573 1.408 . S
C1570 C1568 1.363 . S
C1570 C1571 1.370 . S
C1570 C1574 1.524 . S
C1571 C1563 1.503 . S
C1571 C1570 1.370 . S
C1571 C1572 1.403 . S
C1572 C1571 1.403 . S
C1572 C1573 1.404 . S
C1572 C1575 1.539 . S
C1573 C1569 1.408 . S
C1573 C1572 1.404 . S
C1573 H1585 0.930 . S
C1574 C1570 1.524 . S
C1574 H1586 0.956 . S
C1574 H1587 0.961 . S
C1574 H1588 0.961 . S
C1575 C1572 1.539 . S
C1575 H1589 0.958 . S
C1575 H1590 0.961 . S
C1575 H1591 0.960 . S
H1576 C1560 0.931 . S
H1577 C1565 0.929 . S
H1578 C1566 0.960 . S
H1579 C1566 0.962 . S
H1580 C1566 0.960 . S
H1581 C1567 0.961 . S
H1582 C1567 0.961 . S
H1583 C1567 0.961 . S
H1584 C1568 0.931 . S
H1585 C1573 0.930 . S
H1586 C1574 0.956 . S
H1587 C1574 0.961 . S
H1588 C1574 0.961 . S
H1589 C1575 0.958 . S
H1590 C1575 0.961 . S
H1591 C1575 0.960 . S
C1592 C1593 1.391 . S
C1592 C1594 1.394 . S
C1592 H1608 0.931 . S
C1593 C1592 1.391 . S
C1593 C1597 1.376 . S
C1594 C1592 1.394 . S
C1594 C1595 1.369 . S
C1594 C1598 1.531 . S
C1595 C1594 1.369 . S
C1595 C1596 1.410 . S
C1595 C1603 1.503 . S
C1596 C1595 1.410 . S
C1596 C1597 1.392 . S
C1596 C1599 1.511 . S
C1597 C1593 1.376 . S
C1597 C1596 1.392 . S
C1597 H1609 0.929 . S
C1598 C1594 1.531 . S
C1598 H1610 0.960 . S
C1598 H1611 0.962 1_455 S
C1598 H1612 0.960 . S
C1599 C1596 1.511 . S
C1599 H1613 0.961 . S
C1599 H1614 0.961 . S
C1599 H1615 0.961 . S
C1600 C1601 1.370 . S
C1600 C1602 1.363 . S
C1600 H1616 0.931 . S
C1601 C1600 1.370 . S
C1601 C1605 1.408 . S
C1602 C1600 1.363 . S
C1602 C1603 1.370 . S
C1602 C1606 1.524 . S
C1603 C1595 1.503 . S
C1603 C1602 1.370 . S
C1603 C1604 1.403 . S
C1604 C1603 1.403 . S
C1604 C1605 1.404 . S
C1604 C1607 1.539 . S
C1605 C1601 1.408 . S
C1605 C1604 1.404 . S
C1605 H1617 0.930 . S
C1606 C1602 1.524 . S
C1606 H1618 0.939 1_455 S
C1606 H1619 0.961 . S
C1606 H1620 0.961 . S
C1607 C1604 1.539 . S
C1607 H1621 0.958 . S
C1607 H1622 0.961 . S
C1607 H1623 0.960 . S
H1608 C1592 0.931 . S
H1609 C1597 0.929 . S
H1610 C1598 0.960 . S
H1611 C1598 0.962 1_655 S
H1612 C1598 0.960 . S
H1613 C1599 0.961 . S
H1614 C1599 0.961 . S
H1615 C1599 0.961 . S
H1616 C1600 0.931 . S
H1617 C1605 0.930 . S
H1618 C1606 0.939 1_655 S
H1619 C1606 0.961 . S
H1620 C1606 0.961 . S
H1621 C1607 0.958 . S
H1622 C1607 0.961 . S
H1623 C1607 0.960 . S
C1624 C1625 1.391 . S
C1624 C1626 1.394 . S
C1624 H1640 0.931 . S
C1625 C1624 1.391 . S
C1625 C1629 1.376 . S
C1626 C1624 1.394 . S
C1626 C1627 1.369 . S
C1626 C1630 1.531 . S
C1627 C1626 1.369 . S
C1627 C1628 1.410 . S
C1627 C1635 1.503 . S
C1628 C1627 1.410 . S
C1628 C1629 1.392 . S
C1628 C1631 1.511 . S
C1629 C1625 1.376 . S
C1629 C1628 1.392 . S
C1629 H1641 0.929 . S
C1630 C1626 1.531 . S
C1630 H1642 0.960 . S
C1630 H1643 0.962 . S
C1630 H1644 0.960 . S
C1631 C1628 1.511 . S
C1631 H1645 0.961 . S
C1631 H1646 0.961 . S
C1631 H1647 0.961 . S
C1632 C1633 1.370 . S
C1632 C1634 1.363 . S
C1632 H1648 0.931 . S
C1633 C1632 1.370 . S
C1633 C1637 1.408 . S
C1634 C1632 1.363 . S
C1634 C1635 1.370 . S
C1634 C1638 1.524 . S
C1635 C1627 1.503 . S
C1635 C1634 1.370 . S
C1635 C1636 1.403 . S
C1636 C1635 1.403 . S
C1636 C1637 1.404 . S
C1636 C1639 1.539 . S
C1637 C1633 1.408 . S
C1637 C1636 1.404 . S
C1637 H1649 0.930 . S
C1638 C1634 1.524 . S
C1638 H1650 0.956 . S
C1638 H1651 0.961 . S
C1638 H1652 0.961 . S
C1639 C1636 1.539 . S
C1639 H1653 0.958 . S
C1639 H1654 0.961 . S
C1639 H1655 0.960 . S
H1640 C1624 0.931 . S
H1641 C1629 0.929 . S
H1642 C1630 0.960 . S
H1643 C1630 0.962 . S
H1644 C1630 0.960 . S
H1645 C1631 0.961 . S
H1646 C1631 0.961 . S
H1647 C1631 0.961 . S
H1648 C1632 0.931 . S
H1649 C1637 0.930 . S
H1650 C1638 0.956 . S
H1651 C1638 0.961 . S
H1652 C1638 0.961 . S
H1653 C1639 0.958 . S
H1654 C1639 0.961 . S
H1655 C1639 0.960 . S
C1656 C1657 1.391 . S
C1656 C1658 1.394 . S
C1656 H1672 0.931 . S
C1657 C1656 1.391 . S
C1657 C1661 1.376 . S
C1658 C1656 1.394 . S
C1658 C1659 1.369 . S
C1658 C1662 1.531 . S
C1659 C1658 1.369 . S
C1659 C1660 1.410 . S
C1659 C1667 1.503 . S
C1660 C1659 1.410 . S
C1660 C1661 1.392 . S
C1660 C1663 1.511 . S
C1661 C1657 1.376 . S
C1661 C1660 1.392 . S
C1661 H1673 0.929 . S
C1662 C1658 1.531 . S
C1662 H1674 0.960 . S
C1662 H1675 0.962 . S
C1662 H1676 0.960 . S
C1663 C1660 1.511 . S
C1663 H1677 0.961 . S
C1663 H1678 0.961 . S
C1663 H1679 0.961 . S
C1664 C1665 1.370 . S
C1664 C1666 1.363 . S
C1664 H1680 0.931 . S
C1665 C1664 1.370 . S
C1665 C1669 1.408 . S
C1666 C1664 1.363 . S
C1666 C1667 1.370 . S
C1666 C1670 1.524 . S
C1667 C1659 1.503 . S
C1667 C1666 1.370 . S
C1667 C1668 1.403 . S
C1668 C1667 1.403 . S
C1668 C1669 1.404 . S
C1668 C1671 1.539 . S
C1669 C1665 1.408 . S
C1669 C1668 1.404 . S
C1669 H1681 0.930 . S
C1670 C1666 1.524 . S
C1670 H1682 0.956 . S
C1670 H1683 0.961 . S
C1670 H1684 0.961 . S
C1671 C1668 1.539 . S
C1671 H1685 0.958 . S
C1671 H1686 0.961 . S
C1671 H1687 0.960 . S
H1672 C1656 0.931 . S
H1673 C1661 0.929 . S
H1674 C1662 0.960 . S
H1675 C1662 0.962 . S
H1676 C1662 0.960 . S
H1677 C1663 0.961 . S
H1678 C1663 0.961 . S
H1679 C1663 0.961 . S
H1680 C1664 0.931 . S
H1681 C1669 0.930 . S
H1682 C1670 0.956 . S
H1683 C1670 0.961 . S
H1684 C1670 0.961 . S
H1685 C1671 0.958 . S
H1686 C1671 0.961 . S
H1687 C1671 0.960 . S
C1688 C1689 1.391 . S
C1688 C1690 1.394 . S
C1688 H1704 0.931 . S
C1689 C1688 1.391 . S
C1689 C1693 1.376 . S
C1690 C1688 1.394 . S
C1690 C1691 1.369 . S
C1690 C1694 1.531 . S
C1691 C1690 1.369 . S
C1691 C1692 1.410 . S
C1691 C1699 1.503 . S
C1692 C1691 1.410 . S
C1692 C1693 1.392 . S
C1692 C1695 1.511 . S
C1693 C1689 1.376 . S
C1693 C1692 1.392 . S
C1693 H1705 0.929 . S
C1694 C1690 1.531 . S
C1694 H1706 0.960 . S
C1694 H1707 0.962 . S
C1694 H1708 0.960 . S
C1695 C1692 1.511 . S
C1695 H1709 0.961 . S
C1695 H1710 0.961 . S
C1695 H1711 0.961 . S
C1696 C1697 1.370 . S
C1696 C1698 1.363 . S
C1696 H1712 0.931 . S
C1697 C1696 1.370 . S
C1697 C1701 1.408 . S
C1698 C1696 1.363 . S
C1698 C1699 1.370 . S
C1698 C1702 1.524 . S
C1699 C1691 1.503 . S
C1699 C1698 1.370 . S
C1699 C1700 1.403 . S
C1700 C1699 1.403 . S
C1700 C1701 1.404 . S
C1700 C1703 1.539 . S
C1701 C1697 1.408 . S
C1701 C1700 1.404 . S
C1701 H1713 0.930 . S
C1702 C1698 1.524 . S
C1702 H1714 0.956 . S
C1702 H1715 0.961 . S
C1702 H1716 0.961 . S
C1703 C1700 1.539 . S
C1703 H1717 0.958 . S
C1703 H1718 0.961 . S
C1703 H1719 0.960 . S
H1704 C1688 0.931 . S
H1705 C1693 0.929 . S
H1706 C1694 0.960 . S
H1707 C1694 0.962 . S
H1708 C1694 0.960 . S
H1709 C1695 0.961 . S
H1710 C1695 0.961 . S
H1711 C1695 0.961 . S
H1712 C1696 0.931 . S
H1713 C1701 0.930 . S
H1714 C1702 0.956 . S
H1715 C1702 0.961 . S
H1716 C1702 0.961 . S
H1717 C1703 0.958 . S
H1718 C1703 0.961 . S
H1719 C1703 0.960 . S
C1720 C1721 1.391 . S
C1720 C1722 1.394 1_556 S
C1720 H1736 0.931 . S
C1721 C1720 1.391 . S
C1721 C1725 1.382 . S
C1722 C1720 1.394 1_554 S
C1722 C1723 1.369 . S
C1722 C1726 1.531 . S
C1723 C1722 1.369 . S
C1723 C1724 1.410 . S
C1723 C1731 1.503 . S
C1724 C1723 1.410 . S
C1724 C1725 1.386 1_554 S
C1724 C1727 1.511 . S
C1725 C1721 1.382 . S
C1725 C1724 1.386 1_556 S
C1725 H1737 0.929 . S
C1726 C1722 1.531 . S
C1726 H1738 0.960 . S
C1726 H1739 0.962 . S
C1726 H1740 0.960 . S
C1727 C1724 1.511 . S
C1727 H1741 0.961 . S
C1727 H1742 0.961 . S
C1727 H1743 0.961 . S
C1728 C1729 1.370 . S
C1728 C1730 1.363 . S
C1728 H1744 0.931 . S
C1729 C1728 1.370 . S
C1729 C1733 1.408 . S
C1730 C1728 1.363 . S
C1730 C1731 1.370 . S
C1730 C1734 1.524 . S
C1731 C1723 1.503 . S
C1731 C1730 1.370 . S
C1731 C1732 1.403 . S
C1732 C1731 1.403 . S
C1732 C1733 1.404 . S
C1732 C1735 1.539 . S
C1733 C1729 1.408 . S
C1733 C1732 1.404 . S
C1733 H1745 0.930 . S
C1734 C1730 1.524 . S
C1734 H1746 0.956 . S
C1734 H1747 0.961 . S
C1734 H1748 0.961 . S
C1735 C1732 1.539 . S
C1735 H1749 0.958 . S
C1735 H1750 0.961 . S
C1735 H1751 0.960 . S
H1736 C1720 0.931 . S
H1737 C1725 0.929 . S
H1738 C1726 0.960 . S
H1739 C1726 0.962 . S
H1740 C1726 0.960 . S
H1741 C1727 0.961 . S
H1742 C1727 0.961 . S
H1743 C1727 0.961 . S
H1744 C1728 0.931 . S
H1745 C1733 0.930 . S
H1746 C1734 0.956 . S
H1747 C1734 0.961 . S
H1748 C1734 0.961 . S
H1749 C1735 0.958 . S
H1750 C1735 0.961 . S
H1751 C1735 0.960 . S
C1752 C1753 1.391 . S
C1752 C1754 1.394 . S
C1752 H1768 0.931 . S
C1753 C1752 1.391 . S
C1753 C1757 1.376 . S
C1754 C1752 1.394 . S
C1754 C1755 1.369 . S
C1754 C1758 1.531 . S
C1755 C1754 1.369 . S
C1755 C1756 1.410 . S
C1755 C1763 1.503 . S
C1756 C1755 1.410 . S
C1756 C1757 1.392 . S
C1756 C1759 1.511 . S
C1757 C1753 1.376 . S
C1757 C1756 1.392 . S
C1757 H1769 0.929 . S
C1758 C1754 1.531 . S
C1758 H1770 0.960 . S
C1758 H1771 0.962 . S
C1758 H1772 0.960 . S
C1759 C1756 1.511 . S
C1759 H1773 0.961 . S
C1759 H1774 0.961 . S
C1759 H1775 0.961 . S
C1760 C1761 1.370 . S
C1760 C1762 1.363 . S
C1760 H1776 0.931 . S
C1761 C1760 1.370 . S
C1761 C1765 1.408 . S
C1762 C1760 1.363 . S
C1762 C1763 1.370 . S
C1762 C1766 1.524 . S
C1763 C1755 1.503 . S
C1763 C1762 1.370 . S
C1763 C1764 1.403 . S
C1764 C1763 1.403 . S
C1764 C1765 1.404 . S
C1764 C1767 1.539 . S
C1765 C1761 1.408 . S
C1765 C1764 1.404 . S
C1765 H1777 0.930 . S
C1766 C1762 1.524 . S
C1766 H1778 0.956 . S
C1766 H1779 0.961 . S
C1766 H1780 0.961 . S
C1767 C1764 1.539 . S
C1767 H1781 0.958 . S
C1767 H1782 0.961 . S
C1767 H1783 0.960 . S
H1768 C1752 0.931 . S
H1769 C1757 0.929 . S
H1770 C1758 0.960 . S
H1771 C1758 0.962 . S
H1772 C1758 0.960 . S
H1773 C1759 0.961 . S
H1774 C1759 0.961 . S
H1775 C1759 0.961 . S
H1776 C1760 0.931 . S
H1777 C1765 0.930 . S
H1778 C1766 0.956 . S
H1779 C1766 0.961 . S
H1780 C1766 0.961 . S
H1781 C1767 0.958 . S
H1782 C1767 0.961 . S
H1783 C1767 0.960 . S
C1784 C1785 1.391 . S
C1784 C1786 1.394 . S
C1784 H1800 0.931 . S
C1785 C1784 1.391 . S
C1785 C1789 1.376 . S
C1786 C1784 1.394 . S
C1786 C1787 1.369 . S
C1786 C1790 1.531 . S
C1787 C1786 1.369 . S
C1787 C1788 1.410 . S
C1787 C1795 1.503 . S
C1788 C1787 1.410 . S
C1788 C1789 1.392 . S
C1788 C1791 1.511 . S
C1789 C1785 1.376 . S
C1789 C1788 1.392 . S
C1789 H1801 0.929 . S
C1790 C1786 1.531 . S
C1790 H1802 0.960 . S
C1790 H1803 0.962 . S
C1790 H1804 0.960 . S
C1791 C1788 1.511 . S
C1791 H1805 0.961 . S
C1791 H1806 0.961 . S
C1791 H1807 0.961 . S
C1792 C1793 1.370 . S
C1792 C1794 1.363 . S
C1792 H1808 0.931 . S
C1793 C1792 1.370 . S
C1793 C1797 1.408 . S
C1794 C1792 1.363 . S
C1794 C1795 1.370 . S
C1794 C1798 1.524 . S
C1795 C1787 1.503 . S
C1795 C1794 1.370 . S
C1795 C1796 1.403 . S
C1796 C1795 1.403 . S
C1796 C1797 1.404 . S
C1796 C1799 1.539 . S
C1797 C1793 1.408 . S
C1797 C1796 1.404 . S
C1797 H1809 0.930 . S
C1798 C1794 1.524 . S
C1798 H1810 0.956 . S
C1798 H1811 0.961 . S
C1798 H1812 0.961 . S
C1799 C1796 1.539 . S
C1799 H1813 0.958 . S
C1799 H1814 0.961 . S
C1799 H1815 0.960 . S
H1800 C1784 0.931 . S
H1801 C1789 0.929 . S
H1802 C1790 0.960 . S
H1803 C1790 0.962 . S
H1804 C1790 0.960 . S
H1805 C1791 0.961 . S
H1806 C1791 0.961 . S
H1807 C1791 0.961 . S
H1808 C1792 0.931 . S
H1809 C1797 0.930 . S
H1810 C1798 0.956 . S
H1811 C1798 0.961 . S
H1812 C1798 0.961 . S
H1813 C1799 0.958 . S
H1814 C1799 0.961 . S
H1815 C1799 0.960 . S
C1816 C1817 1.391 . S
C1816 C1818 1.394 . S
C1816 H1832 0.931 . S
C1817 C1816 1.391 . S
C1817 C1821 1.376 . S
C1818 C1816 1.394 . S
C1818 C1819 1.369 . S
C1818 C1822 1.531 . S
C1819 C1818 1.369 . S
C1819 C1820 1.410 . S
C1819 C1827 1.503 . S
C1820 C1819 1.410 . S
C1820 C1821 1.392 . S
C1820 C1823 1.511 . S
C1821 C1817 1.376 . S
C1821 C1820 1.392 . S
C1821 H1833 0.929 . S
C1822 C1818 1.531 . S
C1822 H1834 0.960 . S
C1822 H1835 0.962 . S
C1822 H1836 0.960 . S
C1823 C1820 1.511 . S
C1823 H1837 0.961 . S
C1823 H1838 0.961 . S
C1823 H1839 0.961 . S
C1824 C1825 1.370 . S
C1824 C1826 1.363 . S
C1824 H1840 0.931 . S
C1825 C1824 1.370 . S
C1825 C1829 1.408 . S
C1826 C1824 1.363 . S
C1826 C1827 1.370 . S
C1826 C1830 1.524 . S
C1827 C1819 1.503 . S
C1827 C1826 1.370 . S
C1827 C1828 1.403 . S
C1828 C1827 1.403 . S
C1828 C1829 1.404 . S
C1828 C1831 1.539 . S
C1829 C1825 1.408 . S
C1829 C1828 1.404 . S
C1829 H1841 0.930 . S
C1830 C1826 1.524 . S
C1830 H1842 0.956 . S
C1830 H1843 0.961 . S
C1830 H1844 0.961 . S
C1831 C1828 1.539 . S
C1831 H1845 0.958 . S
C1831 H1846 0.961 . S
C1831 H1847 0.960 . S
H1832 C1816 0.931 . S
H1833 C1821 0.929 . S
H1834 C1822 0.960 . S
H1835 C1822 0.962 . S
H1836 C1822 0.960 . S
H1837 C1823 0.961 . S
H1838 C1823 0.961 . S
H1839 C1823 0.961 . S
H1840 C1824 0.931 . S
H1841 C1829 0.930 . S
H1842 C1830 0.956 . S
H1843 C1830 0.961 . S
H1844 C1830 0.961 . S
H1845 C1831 0.958 . S
H1846 C1831 0.961 . S
H1847 C1831 0.960 . S
C1848 C1849 1.391 . S
C1848 C1850 1.394 . S
C1848 H1864 0.931 . S
C1849 C1848 1.391 . S
C1849 C1853 1.376 . S
C1850 C1848 1.394 . S
C1850 C1851 1.369 . S
C1850 C1854 1.531 . S
C1851 C1850 1.369 . S
C1851 C1852 1.410 . S
C1851 C1859 1.503 . S
C1852 C1851 1.410 . S
C1852 C1853 1.392 . S
C1852 C1855 1.511 . S
C1853 C1849 1.376 . S
C1853 C1852 1.392 . S
C1853 H1865 0.929 . S
C1854 C1850 1.531 . S
C1854 H1866 0.960 . S
C1854 H1867 0.962 . S
C1854 H1868 0.960 . S
C1855 C1852 1.511 . S
C1855 H1869 0.961 . S
C1855 H1870 0.961 . S
C1855 H1871 0.961 . S
C1856 C1857 1.370 . S
C1856 C1858 1.363 . S
C1856 H1872 0.931 . S
C1857 C1856 1.370 . S
C1857 C1861 1.408 . S
C1858 C1856 1.363 . S
C1858 C1859 1.370 . S
C1858 C1862 1.524 . S
C1859 C1851 1.503 . S
C1859 C1858 1.370 . S
C1859 C1860 1.403 . S
C1860 C1859 1.403 . S
C1860 C1861 1.404 . S
C1860 C1863 1.539 . S
C1861 C1857 1.408 . S
C1861 C1860 1.404 . S
C1861 H1873 0.930 . S
C1862 C1858 1.524 . S
C1862 H1874 0.956 . S
C1862 H1875 0.961 . S
C1862 H1876 0.961 . S
C1863 C1860 1.539 . S
C1863 H1877 0.958 . S
C1863 H1878 0.961 . S
C1863 H1879 0.960 . S
H1864 C1848 0.931 . S
H1865 C1853 0.929 . S
H1866 C1854 0.960 . S
H1867 C1854 0.962 . S
H1868 C1854 0.960 . S
H1869 C1855 0.961 . S
H1870 C1855 0.961 . S
H1871 C1855 0.961 . S
H1872 C1856 0.931 . S
H1873 C1861 0.930 . S
H1874 C1862 0.956 . S
H1875 C1862 0.961 . S
H1876 C1862 0.961 . S
H1877 C1863 0.958 . S
H1878 C1863 0.961 . S
H1879 C1863 0.960 . S
C1880 C1881 1.391 . S
C1880 C1882 1.394 . S
C1880 H1896 0.931 . S
C1881 C1880 1.391 . S
C1881 C1885 1.376 1_556 S
C1882 C1880 1.394 . S
C1882 C1883 1.369 . S
C1882 C1886 1.531 . S
C1883 C1882 1.369 . S
C1883 C1884 1.410 1_556 S
C1883 C1891 1.503 . S
C1884 C1883 1.410 1_554 S
C1884 C1885 1.392 . S
C1884 C1887 1.511 . S
C1885 C1881 1.376 1_554 S
C1885 C1884 1.392 . S
C1885 H1897 0.929 . S
C1886 C1882 1.531 . S
C1886 H1898 0.960 . S
C1886 H1899 0.962 . S
C1886 H1900 0.960 . S
C1887 C1884 1.511 . S
C1887 H1901 0.961 . S
C1887 H1902 0.961 . S
C1887 H1903 0.961 . S
C1888 C1889 1.370 . S
C1888 C1890 1.363 . S
C1888 H1904 0.931 . S
C1889 C1888 1.370 . S
C1889 C1893 1.408 . S
C1890 C1888 1.363 . S
C1890 C1891 1.370 . S
C1890 C1894 1.524 . S
C1891 C1883 1.503 . S
C1891 C1890 1.370 . S
C1891 C1892 1.403 . S
C1892 C1891 1.403 . S
C1892 C1893 1.404 . S
C1892 C1895 1.539 1_556 S
C1893 C1889 1.408 . S
C1893 C1892 1.404 . S
C1893 H1905 0.929 1_556 S
C1894 C1890 1.524 . S
C1894 H1906 0.956 . S
C1894 H1907 0.961 . S
C1894 H1908 0.961 . S
C1895 C1892 1.539 1_554 S
C1895 H1909 0.958 1_554 S
C1895 H1910 0.961 . S
C1895 H1911 0.960 . S
H1896 C1880 0.931 . S
H1897 C1885 0.929 . S
H1898 C1886 0.960 . S
H1899 C1886 0.962 . S
H1900 C1886 0.960 . S
H1901 C1887 0.961 . S
H1902 C1887 0.961 . S
H1903 C1887 0.961 . S
H1904 C1888 0.931 . S
H1905 C1893 0.929 1_554 S
H1906 C1894 0.956 . S
H1907 C1894 0.961 . S
H1908 C1894 0.961 . S
H1909 C1895 0.958 1_556 S
H1910 C1895 0.961 . S
H1911 C1895 0.960 . S
C1912 C1913 1.391 . S
C1912 C1914 1.394 . S
C1912 H1928 0.931 . S
C1913 C1912 1.391 . S
C1913 C1917 1.376 . S
C1914 C1912 1.394 . S
C1914 C1915 1.369 . S
C1914 C1918 1.531 . S
C1915 C1914 1.369 . S
C1915 C1916 1.410 . S
C1915 C1923 1.503 . S
C1916 C1915 1.410 . S
C1916 C1917 1.392 . S
C1916 C1919 1.511 . S
C1917 C1913 1.376 . S
C1917 C1916 1.392 . S
C1917 H1929 0.929 . S
C1918 C1914 1.531 . S
C1918 H1930 0.960 . S
C1918 H1931 0.962 . S
C1918 H1932 0.960 . S
C1919 C1916 1.511 . S
C1919 H1933 0.961 . S
C1919 H1934 0.961 . S
C1919 H1935 0.961 . S
C1920 C1921 1.370 . S
C1920 C1922 1.363 . S
C1920 H1936 0.931 . S
C1921 C1920 1.370 . S
C1921 C1925 1.408 . S
C1922 C1920 1.363 . S
C1922 C1923 1.370 . S
C1922 C1926 1.524 . S
C1923 C1915 1.503 . S
C1923 C1922 1.370 . S
C1923 C1924 1.403 . S
C1924 C1923 1.403 . S
C1924 C1925 1.404 . S
C1924 C1927 1.539 . S
C1925 C1921 1.408 . S
C1925 C1924 1.404 . S
C1925 H1937 0.930 . S
C1926 C1922 1.524 . S
C1926 H1938 0.956 . S
C1926 H1939 0.961 . S
C1926 H1940 0.961 . S
C1927 C1924 1.539 . S
C1927 H1941 0.958 . S
C1927 H1942 0.961 . S
C1927 H1943 0.960 . S
H1928 C1912 0.931 . S
H1929 C1917 0.929 . S
H1930 C1918 0.960 . S
H1931 C1918 0.962 . S
H1932 C1918 0.960 . S
H1933 C1919 0.961 . S
H1934 C1919 0.961 . S
H1935 C1919 0.961 . S
H1936 C1920 0.931 . S
H1937 C1925 0.930 . S
H1938 C1926 0.956 . S
H1939 C1926 0.961 . S
H1940 C1926 0.961 . S
H1941 C1927 0.958 . S
H1942 C1927 0.961 . S
H1943 C1927 0.960 . S
C1944 C1945 1.391 . S
C1944 C1946 1.394 . S
C1944 H1960 0.931 . S
C1945 C1944 1.391 . S
C1945 C1949 1.376 . S
C1946 C1944 1.394 . S
C1946 C1947 1.369 . S
C1946 C1950 1.531 . S
C1947 C1946 1.369 . S
C1947 C1948 1.410 . S
C1947 C1955 1.503 . S
C1948 C1947 1.410 . S
C1948 C1949 1.392 . S
C1948 C1951 1.511 . S
C1949 C1945 1.376 . S
C1949 C1948 1.392 . S
C1949 H1961 0.929 . S
C1950 C1946 1.531 . S
C1950 H1962 0.960 1_554 S
C1950 H1963 0.962 . S
C1950 H1964 0.960 1_554 S
C1951 C1948 1.511 . S
C1951 H1965 0.961 . S
C1951 H1966 0.961 . S
C1951 H1967 0.961 . S
C1952 C1953 1.370 . S
C1952 C1954 1.363 . S
C1952 H1968 0.931 . S
C1953 C1952 1.370 . S
C1953 C1957 1.408 1_554 S
C1954 C1952 1.363 . S
C1954 C1955 1.370 . S
C1954 C1958 1.524 . S
C1955 C1947 1.503 . S
C1955 C1954 1.370 . S
C1955 C1956 1.403 1_554 S
C1956 C1955 1.403 1_556 S
C1956 C1957 1.404 . S
C1956 C1959 1.539 . S
C1957 C1953 1.408 1_556 S
C1957 C1956 1.404 . S
C1957 H1969 0.930 . S
C1958 C1954 1.524 . S
C1958 H1970 0.956 . S
C1958 H1971 0.961 . S
C1958 H1972 0.961 . S
C1959 C1956 1.539 . S
C1959 H1973 0.958 . S
C1959 H1974 0.961 . S
C1959 H1975 0.960 . S
H1960 C1944 0.931 . S
H1961 C1949 0.929 . S
H1962 C1950 0.960 1_556 S
H1963 C1950 0.962 . S
H1964 C1950 0.960 1_556 S
H1965 C1951 0.961 . S
H1966 C1951 0.961 . S
H1967 C1951 0.961 . S
H1968 C1952 0.931 . S
H1969 C1957 0.930 . S
H1970 C1958 0.956 . S
H1971 C1958 0.961 . S
H1972 C1958 0.961 . S
H1973 C1959 0.958 . S
H1974 C1959 0.961 . S
H1975 C1959 0.960 . S
C1976 C1977 1.391 1_545 S
C1976 C1978 1.394 1_545 S
C1976 H1992 0.931 . S
C1977 C1976 1.391 1_565 S
C1977 C1981 1.376 . S
C1978 C1976 1.394 1_565 S
C1978 C1979 1.369 . S
C1978 C1982 1.531 1_565 S
C1979 C1978 1.369 . S
C1979 C1980 1.410 . S
C1979 C1987 1.503 . S
C1980 C1979 1.410 . S
C1980 C1981 1.392 . S
C1980 C1983 1.511 . S
C1981 C1977 1.376 . S
C1981 C1980 1.392 . S
C1981 H1993 0.929 . S
C1982 C1978 1.531 1_545 S
C1982 H1994 0.960 1_545 S
C1982 H1995 0.962 . S
C1982 H1996 0.960 . S
C1983 C1980 1.511 . S
C1983 H1997 0.961 . S
C1983 H1998 0.961 . S
C1983 H1999 0.961 . S
C1984 C1985 1.370 . S
C1984 C1986 1.363 . S
C1984 H2000 0.931 . S
C1985 C1984 1.370 . S
C1985 C1989 1.408 . S
C1986 C1984 1.363 . S
C1986 C1987 1.370 . S
C1986 C1990 1.524 . S
C1987 C1979 1.503 . S
C1987 C1986 1.370 . S
C1987 C1988 1.403 . S
C1988 C1987 1.403 . S
C1988 C1989 1.404 . S
C1988 C1991 1.539 . S
C1989 C1985 1.408 . S
C1989 C1988 1.404 . S
C1989 H2001 0.930 . S
C1990 C1986 1.524 . S
C1990 H2002 0.945 1_565 S
C1990 H2003 0.961 . S
C1990 H2004 0.961 . S
C1991 C1988 1.539 . S
C1991 H2005 0.958 . S
C1991 H2006 0.961 . S
C1991 H2007 0.960 . S
H1992 C1976 0.931 . S
H1993 C1981 0.929 . S
H1994 C1982 0.960 1_565 S
H1995 C1982 0.962 . S
H1996 C1982 0.960 . S
H1997 C1983 0.961 . S
H1998 C1983 0.961 . S
H1999 C1983 0.961 . S
H2000 C1984 0.931 . S
H2001 C1989 0.930 . S
H2002 C1990 0.945 1_545 S
H2003 C1990 0.961 . S
H2004 C1990 0.961 . S
H2005 C1991 0.958 . S
H2006 C1991 0.961 . S
H2007 C1991 0.960 . S
C481 C312 1.899 1_556 S
C473 C101 1.909 . S
C513 C325 1.129 . S
C505 C125 1.098 . S
C537 C139 2.113 . S
C545 C345 1.994 . S
C577 C359 1.557 1_455 S
C569 C82 1.684 . S
C609 C371 1.643 . S
C601 C196 1.652 . S
C641 C385 1.754 . S
C633 C234 1.766 . S
C665 C220 0.732 . S
C673 C395 0.847 . S
C705 C410 1.683 1_565 S
C697 C173 1.687 . S
C729 C211 1.093 . S
C737 C424 1.042 . S
C769 C443 0.944 . S
C761 C182 0.884 . S
C793 C201 1.351 . S
C801 C423 1.424 . S
C833 C441 1.277 . S
C825 C239 1.166 . S
C857 C135 1.795 . S
C865 C457 1.719 . S
C889 C87 1.772 . S
C897 C451 1.937 . S
C921 C106 1.119 . S
C929 C455 1.333 . S
C953 C116 1.251 . S
C961 C452 1.271 . S
C985 C59 1.859 . S
C993 C354 1.862 . S
C1017 C268 2.143 . S
C1025 C353 2.144 . S
C1057 C317 1.187 . S
C1049 C291 1.220 . S
C1089 C331 1.498 . S
C1081 C163 1.428 . S
C1113 C78 1.998 1_545 S
C1121 C368 2.037 . S
C1153 C413 1.220 . S
C1145 C215 1.216 . S
C1185 C367 1.556 . S
C1177 C177 1.553 1_545 S
C1217 C399 1.758 . S
C1209 C230 1.734 . S
C1249 C396 1.890 . S
C1241 C272 1.912 . S
C1273 C296 1.049 . S
C1281 C409 1.129 . S
C1305 C158 2.115 . S
C1313 C373 1.983 . S
C1345 C387 1.540 . S
C1337 C253 1.685 . S
C1369 C63 1.651 . S
C1377 C343 1.639 . S
C1409 C357 1.758 1_455 S
C1401 C6 1.757 . S
C1441 C311 0.852 . S
C1433 C30 0.724 . S
C1473 C326 1.677 . S
C1465 C40 1.690 1_455 S
C1497 C21 1.123 . S
C1505 C438 1.048 . S
C1529 C49 0.953 . S
C1537 C429 0.967 . S
C1561 C68 1.336 . S
C1569 C437 1.427 . S
C1593 C11 1.159 1_556 S
C1601 C427 1.277 . S
C1633 C471 1.709 . S
C1625 C154 1.803 . S
C1665 C465 1.934 . S
C1657 C258 1.749 . S
C1697 C469 1.340 . S
C1689 C277 1.239 . S
C1721 C287 1.242 . S
C1729 C466 1.271 . S
C1753 C192 1.883 . S
C1761 C382 1.856 . S
C1793 C381 2.152 . S
C1785 C97 2.140 . S
C1825 C401 1.190 . S
C1817 C120 1.230 . S
C1857 C415 1.500 . S
C1849 C144 1.430 . S
C1881 C249 2.015 . S
C1889 C340 2.042 . S
C1921 C329 1.224 . S
C1913 C25 1.219 . S
C1945 C44 1.551 . S
C1953 C339 1.542 . S
C1985 C315 1.754 . S
C1977 C2 1.728 1_565 S
