# Generated by pormake.
# Topology wbl, (4,4)-cn, num edge types: 1
# Building blocks:
#     Node 0, Type 0, BuildingBlock: NAWXER_clean_linker_0, # of connection points: 4
#     Node 1, Type 0, BuildingBlock: NAWXER_clean_linker_0, # of connection points: 4
#     Node 2, Type 0, BuildingBlock: NAWXER_clean_linker_0, # of connection points: 4
#     Node 3, Type 0, BuildingBlock: NAWXER_clean_linker_0, # of connection points: 4
#     Node 4, Type 0, BuildingBlock: NAWXER_clean_linker_0, # of connection points: 4
#     Node 5, Type 0, BuildingBlock: NAWXER_clean_linker_0, # of connection points: 4
#     Node 6, Type 0, BuildingBlock: NAWXER_clean_linker_0, # of connection points: 4
#     Node 7, Type 0, BuildingBlock: NAWXER_clean_linker_0, # of connection points: 4
#     Node 8, Type 1, BuildingBlock: TATPOV_clean_sbu_0, # of connection points: 4
#     Node 9, Type 1, BuildingBlock: TATPOV_clean_sbu_0, # of connection points: 4
#     Node 10, Type 1, BuildingBlock: TATPOV_clean_sbu_0, # of connection points: 4
#     Node 11, Type 1, BuildingBlock: TATPOV_clean_sbu_0, # of connection points: 4
#     Node 12, Type 1, BuildingBlock: TATPOV_clean_sbu_0, # of connection points: 4
#     Node 13, Type 1, BuildingBlock: TATPOV_clean_sbu_0, # of connection points: 4
#     Node 14, Type 1, BuildingBlock: TATPOV_clean_sbu_0, # of connection points: 4
#     Node 15, Type 1, BuildingBlock: TATPOV_clean_sbu_0, # of connection points: 4
#     Edge 16, Type (0, 1), BuildingBlock: KIFKEQ_clean_linker_1, # of connection points: 2
#     Edge 17, Type (0, 1), BuildingBlock: KIFKEQ_clean_linker_1, # of connection points: 2
#     Edge 18, Type (0, 1), BuildingBlock: KIFKEQ_clean_linker_1, # of connection points: 2
#     Edge 19, Type (0, 1), BuildingBlock: KIFKEQ_clean_linker_1, # of connection points: 2
#     Edge 20, Type (0, 1), BuildingBlock: KIFKEQ_clean_linker_1, # of connection points: 2
#     Edge 21, Type (0, 1), BuildingBlock: KIFKEQ_clean_linker_1, # of connection points: 2
#     Edge 22, Type (0, 1), BuildingBlock: KIFKEQ_clean_linker_1, # of connection points: 2
#     Edge 23, Type (0, 1), BuildingBlock: KIFKEQ_clean_linker_1, # of connection points: 2
#     Edge 24, Type (0, 1), BuildingBlock: KIFKEQ_clean_linker_1, # of connection points: 2
#     Edge 25, Type (0, 1), BuildingBlock: KIFKEQ_clean_linker_1, # of connection points: 2
#     Edge 26, Type (0, 1), BuildingBlock: KIFKEQ_clean_linker_1, # of connection points: 2
#     Edge 27, Type (0, 1), BuildingBlock: KIFKEQ_clean_linker_1, # of connection points: 2
#     Edge 28, Type (0, 1), BuildingBlock: KIFKEQ_clean_linker_1, # of connection points: 2
#     Edge 29, Type (0, 1), BuildingBlock: KIFKEQ_clean_linker_1, # of connection points: 2
#     Edge 30, Type (0, 1), BuildingBlock: KIFKEQ_clean_linker_1, # of connection points: 2
#     Edge 31, Type (0, 1), BuildingBlock: KIFKEQ_clean_linker_1, # of connection points: 2
#     Edge 32, Type (0, 1), BuildingBlock: KIFKEQ_clean_linker_1, # of connection points: 2
#     Edge 33, Type (0, 1), BuildingBlock: KIFKEQ_clean_linker_1, # of connection points: 2
#     Edge 34, Type (0, 1), BuildingBlock: KIFKEQ_clean_linker_1, # of connection points: 2
#     Edge 35, Type (0, 1), BuildingBlock: KIFKEQ_clean_linker_1, # of connection points: 2
#     Edge 36, Type (0, 1), BuildingBlock: KIFKEQ_clean_linker_1, # of connection points: 2
#     Edge 37, Type (0, 1), BuildingBlock: KIFKEQ_clean_linker_1, # of connection points: 2
#     Edge 38, Type (0, 1), BuildingBlock: KIFKEQ_clean_linker_1, # of connection points: 2
#     Edge 39, Type (0, 1), BuildingBlock: KIFKEQ_clean_linker_1, # of connection points: 2
#     Edge 40, Type (0, 1), BuildingBlock: KIFKEQ_clean_linker_1, # of connection points: 2
#     Edge 41, Type (0, 1), BuildingBlock: KIFKEQ_clean_linker_1, # of connection points: 2
#     Edge 42, Type (0, 1), BuildingBlock: KIFKEQ_clean_linker_1, # of connection points: 2
#     Edge 43, Type (0, 1), BuildingBlock: KIFKEQ_clean_linker_1, # of connection points: 2
#     Edge 44, Type (0, 1), BuildingBlock: KIFKEQ_clean_linker_1, # of connection points: 2
#     Edge 45, Type (0, 1), BuildingBlock: KIFKEQ_clean_linker_1, # of connection points: 2
#     Edge 46, Type (0, 1), BuildingBlock: KIFKEQ_clean_linker_1, # of connection points: 2
#     Edge 47, Type (0, 1), BuildingBlock: KIFKEQ_clean_linker_1, # of connection points: 2
# Relax obj value: 0.173
# Max RMSD: 0.171
# Mean RMSD: 0.138
data_MOF--net-wbl--node1-TATPOV_clean_sbu_0--node2-NAWXER_clean_linker_0--edge1-KIFKEQ_clean_linker_1
_symmetry_space_group_name_H-M    P1
_symmetry_Int_Tables_number       1
_symmetry_cell_setting            triclinic
loop_
_symmetry_equiv_pos_as_xyz
'x, y, z'
_cell_length_a     45.354347
_cell_length_b     45.363633
_cell_length_c     77.581929
_cell_angle_alpha  91.39538
_cell_angle_beta   91.410351
_cell_angle_gamma 90.023745
loop_
_atom_site_label
_atom_site_type_symbol
_atom_site_fract_x
_atom_site_fract_y
_atom_site_fract_z
_atom_type_partial_charge
C0 C 0.11689 0.95846 0.38694 0.0
C1 C 0.13938 0.96773 0.39869 0.0
C2 C 0.10279 0.97865 0.37622 0.0
C3 C 0.11075 0.00854 0.37709 0.0
C4 C 0.14748 0.99773 0.39932 0.0
C5 C 0.13303 0.01797 0.38877 0.0
C6 C 0.09455 0.03022 0.36661 0.0
C7 C 0.15116 0.97658 0.33211 0.0
C8 C 0.13561 0.95939 0.31961 0.0
C9 C 0.13706 -0.0007 0.34112 0.0
C10 C 0.10692 0.00487 0.33812 0.0
C11 C 0.10588 0.96596 0.31593 0.0
C12 C 0.09166 0.98853 0.32512 0.0
C13 C 0.09128 0.02759 0.34848 0.0
C14 C 0.01763 0.1359 0.33259 0.0
C15 C 0.99603 0.12288 0.32154 0.0
C16 C 0.03862 0.11842 0.34099 0.0
C17 C 0.03817 0.08761 0.33861 0.0
C18 C 0.99672 0.0922 0.31847 0.0
C19 C 0.01766 0.07477 0.32688 0.0
C20 C 0.0581 0.06842 0.34871 0.0
C21 C 0.99689 0.11068 0.38698 0.0
C22 C 0.01098 0.12775 0.40014 0.0
C23 C 0.01327 0.09261 0.37598 0.0
C24 C 0.04416 0.09167 0.37765 0.0
C25 C 0.04193 0.12674 0.40179 0.0
C26 C 0.05831 0.10877 0.3907 0.0
C27 C 0.06156 0.07107 0.36686 0.0
H28 H 0.10957 0.93573 0.3863 0.0
H29 H 0.08517 0.97104 0.36754 0.0
H30 H 0.16502 0.00567 0.40794 0.0
H31 H 0.13937 0.041 0.38965 0.0
H32 H 0.17428 0.97243 0.33492 0.0
H33 H 0.14973 0.01235 0.35053 0.0
H34 H 0.09341 0.95307 0.30634 0.0
H35 H 0.0685 0.99266 0.32241 0.0
H36 H 0.0177 0.15946 0.33521 0.0
H37 H 0.05473 0.1289 0.34967 0.0
H38 H 0.98079 0.08159 0.30973 0.0
H39 H 0.01714 0.0511 0.32467 0.0
H40 H 0.97313 0.11107 0.38525 0.0
H41 H 0.0017 0.07894 0.36638 0.0
H42 H 0.05346 0.13919 0.41196 0.0
H43 H 0.08208 0.108 0.39242 0.0
N44 N 0.07979 0.05195 0.37507 0.0
N45 N 0.07298 0.04667 0.34023 0.0
C46 C 0.92056 0.50288 0.6309 0.0
C47 C 0.93076 0.48769 0.64546 0.0
C48 C 0.94022 0.51882 0.62104 0.0
C49 C 0.97053 0.51936 0.62537 0.0
C50 C 0.96106 0.48814 0.64968 0.0
C51 C 0.98067 0.50382 0.63978 0.0
C52 C 0.99169 0.53767 0.61597 0.0
C53 C 0.959 0.4706 0.57694 0.0
C54 C 0.9412 0.4823 0.5637 0.0
C55 C 0.97541 0.48917 0.58807 0.0
C56 C 0.97426 0.51982 0.58623 0.0
C57 C 0.94018 0.51301 0.56178 0.0
C58 C 0.95689 0.53164 0.57287 0.0
C59 C 0.99226 0.53927 0.59779 0.0
C60 C 0.10724 0.60084 0.58685 0.0
C61 C 0.09926 0.62211 0.57472 0.0
C62 C 0.08563 0.58468 0.59501 0.0
C63 C 0.05558 0.58958 0.59129 0.0
C64 C 0.06916 0.62643 0.57069 0.0
C65 C 0.04754 0.61013 0.57882 0.0
C66 C 0.03261 0.57302 0.60024 0.0
C67 C 0.07538 0.63341 0.64056 0.0
C68 C 0.09065 0.61827 0.65365 0.0
C69 C 0.0565 0.61823 0.62893 0.0
C70 C 0.05268 0.58765 0.63013 0.0
C71 C 0.0867 0.58764 0.65476 0.0
C72 C 0.06774 0.57255 0.6432 0.0
C73 C 0.03209 0.57129 0.61837 0.0
H74 H 0.89727 0.50322 0.62747 0.0
H75 H 0.93157 0.53134 0.61034 0.0
H76 H 0.96965 0.47636 0.6607 0.0
H77 H 0.00388 0.50391 0.64346 0.0
H78 H 0.95998 0.44704 0.57884 0.0
H79 H 0.98915 0.47955 0.59807 0.0
H80 H 0.92676 0.52255 0.55161 0.0
H81 H 0.95603 0.55525 0.57113 0.0
H82 H 0.13019 0.59707 0.5903 0.0
H83 H 0.0924 0.56841 0.6043 0.0
H84 H 0.06234 0.64234 0.56121 0.0
H85 H 0.0245 0.61398 0.57559 0.0
H86 H 0.07753 0.65707 0.63952 0.0
H87 H 0.04453 0.63044 0.61919 0.0
H88 H 0.09845 0.57522 0.6645 0.0
H89 H 0.06502 0.54895 0.64437 0.0
N90 N 0.01176 0.55368 0.62549 0.0
N91 N 0.01255 0.55705 0.59061 0.0
C92 C 0.55529 0.38823 0.87843 0.0
C93 C 0.57402 0.39865 0.89197 0.0
C94 C 0.53883 0.40803 0.8685 0.0
C95 C 0.54084 0.43851 0.87201 0.0
C96 C 0.57581 0.42916 0.89542 0.0
C97 C 0.55927 0.44882 0.88563 0.0
C98 C 0.52293 0.46005 0.86232 0.0
C99 C 0.58714 0.42047 0.82535 0.0
C100 C 0.57435 0.40761 0.8103 0.0
C101 C 0.57039 0.43823 0.8363 0.0
C102 C 0.54026 0.44282 0.83269 0.0
C103 C 0.54452 0.41306 0.80631 0.0
C104 C 0.52761 0.4305 0.81744 0.0
C105 C 0.52228 0.46187 0.84412 0.0
C106 C 0.4649 0.58013 0.8352 0.0
C107 C 0.44221 0.57418 0.82294 0.0
C108 C 0.48135 0.55714 0.8422 0.0
C109 C 0.47523 0.52777 0.83721 0.0
C110 C 0.43723 0.54483 0.81729 0.0
C111 C 0.45375 0.52182 0.8243 0.0
C112 C 0.49005 0.50331 0.84617 0.0
C113 C 0.42842 0.54835 0.88223 0.0
C114 C 0.44187 0.56052 0.89733 0.0
C115 C 0.44358 0.52831 0.87177 0.0
C116 C 0.47297 0.52082 0.87578 0.0
C117 C 0.47078 0.55168 0.90177 0.0
C118 C 0.48616 0.53216 0.89108 0.0
C119 C 0.49007 0.50095 0.8643 0.0
H120 H 0.55348 0.36482 0.8755 0.0
H121 H 0.52432 0.39957 0.85824 0.0
H122 H 0.58962 0.43784 0.90596 0.0
H123 H 0.56094 0.47221 0.88868 0.0
H124 H 0.61029 0.41717 0.82851 0.0
H125 H 0.58115 0.44862 0.84748 0.0
H126 H 0.53419 0.40346 0.79475 0.0
H127 H 0.50455 0.43418 0.8142 0.0
H128 H 0.46923 0.60244 0.83987 0.0
H129 H 0.49821 0.56221 0.85196 0.0
H130 H 0.42026 0.53963 0.80762 0.0
H131 H 0.44895 0.49931 0.82016 0.0
H132 H 0.4063 0.55461 0.87825 0.0
H133 H 0.43234 0.51894 0.86045 0.0
H134 H 0.48164 0.55976 0.91354 0.0
H135 H 0.5086 0.52627 0.89467 0.0
N136 N 0.5068 0.47965 0.87164 0.0
N137 N 0.50576 0.48345 0.83675 0.0
C138 C 0.48362 0.91085 0.08537 0.0
C139 C 0.46628 0.92267 0.07196 0.0
C140 C 0.50615 0.92753 0.09337 0.0
C141 C 0.51136 0.95658 0.08836 0.0
C142 C 0.47216 0.95139 0.06657 0.0
C143 C 0.49455 0.96817 0.0747 0.0
C144 C 0.53455 0.97481 0.0971 0.0
C145 C 0.46699 0.95681 0.13719 0.0
C146 C 0.47792 0.941 0.15135 0.0
C147 C 0.4863 0.96866 0.12539 0.0
C148 C 0.51689 0.96452 0.12735 0.0
C149 C 0.50858 0.93724 0.15338 0.0
C150 C 0.52785 0.949 0.14156 0.0
C151 C 0.53776 0.9775 0.11523 0.0
C152 C 0.62747 0.07401 0.12596 0.0
C153 C 0.64232 0.06327 0.14068 0.0
C154 C 0.60729 0.05629 0.11658 0.0
C155 C 0.60234 0.02703 0.12129 0.0
C156 C 0.63688 0.03408 0.14549 0.0
C157 C 0.61722 0.0162 0.13587 0.0
C158 C 0.57995 0.00825 0.11214 0.0
C159 C 0.64539 0.03626 0.0736 0.0
C160 C 0.63299 0.05269 0.06007 0.0
C161 C 0.6274 0.01987 0.08421 0.0
C162 C 0.59658 0.02024 0.08184 0.0
C163 C 0.60231 0.05108 0.05695 0.0
C164 C 0.58434 0.03511 0.06773 0.0
C165 C 0.57674 0.00562 0.09396 0.0
H166 H 0.48003 0.88852 0.08951 0.0
H167 H 0.5195 0.9177 0.10346 0.0
H168 H 0.45912 0.96104 0.05628 0.0
H169 H 0.4984 0.99044 0.07051 0.0
H170 H 0.44354 0.96056 0.13542 0.0
H171 H 0.47731 0.98136 0.11485 0.0
H172 H 0.51772 0.92495 0.16405 0.0
H173 H 0.55136 0.94574 0.14343 0.0
H174 H 0.6312 0.09622 0.12171 0.0
H175 H 0.5953 0.06566 0.10579 0.0
H176 H 0.64718 0.02515 0.15696 0.0
H177 H 0.61334 0.99389 0.13999 0.0
H178 H 0.66886 0.03688 0.07645 0.0
H179 H 0.63756 0.00763 0.0946 0.0
H180 H 0.59201 0.06265 0.04635 0.0
H181 H 0.56071 0.03519 0.06535 0.0
N182 N 0.55401 0.98915 0.08719 0.0
N183 N 0.56044 0.9939 0.12199 0.0
C184 C 0.04868 0.63365 0.88932 0.0
C185 C 0.06585 0.62336 0.87556 0.0
C186 C 0.03145 0.61403 0.89847 0.0
C187 C 0.0311 0.58381 0.894 0.0
C188 C 0.06521 0.59315 0.87108 0.0
C189 C 0.04791 0.57367 0.88013 0.0
C190 C 0.01262 0.56254 0.90314 0.0
C191 C 0.08198 0.59317 0.9415 0.0
C192 C 0.07074 0.61053 0.95508 0.0
C193 C 0.06305 0.57693 0.9305 0.0
C194 C 0.0325 0.57783 0.93279 0.0
C195 C 0.04012 0.61124 0.95746 0.0
C196 C 0.02115 0.59472 0.94649 0.0
C197 C 0.01262 0.56027 0.92126 0.0
C198 C 0.95515 0.4425 0.9298 0.0
C199 C 0.93621 0.44827 0.94356 0.0
C200 C 0.96954 0.46557 0.92185 0.0
C201 C 0.96493 0.49494 0.9273 0.0
C202 C 0.93247 0.47763 0.94938 0.0
C203 C 0.94682 0.50072 0.94137 0.0
C204 C 0.97936 0.51955 0.91854 0.0
C205 C 0.9157 0.47676 0.8805 0.0
C206 C 0.92825 0.46671 0.86509 0.0
C207 C 0.93169 0.49535 0.89191 0.0
C208 C 0.96091 0.5032 0.88839 0.0
C209 C 0.95694 0.47547 0.86123 0.0
C210 C 0.97316 0.49345 0.87281 0.0
C211 C 0.97869 0.52238 0.9004 0.0
H212 H 0.04873 0.6568 0.89307 0.0
H213 H 0.01818 0.62253 0.90888 0.0
H214 H 0.07775 0.5846 0.86036 0.0
H215 H 0.0478 0.55052 0.87634 0.0
H216 H 0.10545 0.59245 0.93924 0.0
H217 H 0.0723 0.56357 0.9202 0.0
H218 H 0.03093 0.6243 0.96789 0.0
H219 H 0.99762 0.59538 0.94856 0.0
H220 H 0.959 0.42011 0.92524 0.0
H221 H 0.98416 0.46046 0.91136 0.0
H222 H 0.9179 0.48286 0.95988 0.0
H223 H 0.94321 0.52318 0.94591 0.0
H224 H 0.89339 0.47056 0.88356 0.0
H225 H 0.92115 0.50358 0.90343 0.0
H226 H 0.96699 0.46793 0.84939 0.0
H227 H 0.99549 0.49945 0.86966 0.0
N228 N 0.9956 0.54355 0.89347 0.0
N229 N 0.996 0.5389 0.92829 0.0
C230 C 0.42264 0.52753 0.12653 0.0
C231 C 0.43267 0.54116 0.11169 0.0
C232 C 0.4426 0.51395 0.13785 0.0
C233 C 0.473 0.51432 0.13471 0.0
C234 C 0.463 0.54096 0.10841 0.0
C235 C 0.48292 0.52763 0.11977 0.0
C236 C 0.49465 0.50012 0.14647 0.0
C237 C 0.45601 0.57473 0.17628 0.0
C238 C 0.4391 0.56671 0.19037 0.0
C239 C 0.47403 0.55416 0.16809 0.0
C240 C 0.47508 0.52487 0.1735 0.0
C241 C 0.44055 0.53747 0.196 0.0
C242 C 0.45855 0.51676 0.18769 0.0
C243 C 0.49424 0.50321 0.16465 0.0
C244 C 0.60959 0.44938 0.1865 0.0
C245 C 0.60127 0.42856 0.19863 0.0
C246 C 0.58832 0.46368 0.17645 0.0
C247 C 0.55828 0.45745 0.17828 0.0
C248 C 0.57105 0.42329 0.20093 0.0
C249 C 0.54973 0.43777 0.1909 0.0
C250 C 0.53586 0.47126 0.16695 0.0
C251 C 0.58552 0.40752 0.13192 0.0
C252 C 0.60075 0.42189 0.11892 0.0
C253 C 0.5653 0.42296 0.14206 0.0
C254 C 0.56003 0.45301 0.13938 0.0
C255 C 0.59588 0.45218 0.11666 0.0
C256 C 0.57556 0.46747 0.12667 0.0
C257 C 0.53702 0.46933 0.14879 0.0
H258 H 0.39934 0.52698 0.12925 0.0
H259 H 0.43422 0.50301 0.14898 0.0
H260 H 0.47143 0.55157 0.09718 0.0
H261 H 0.50621 0.52809 0.11699 0.0
H262 H 0.45525 0.59695 0.17149 0.0
H263 H 0.48722 0.56122 0.15749 0.0
H264 H 0.42814 0.5307 0.20698 0.0
H265 H 0.4594 0.49438 0.19223 0.0
H266 H 0.63261 0.45451 0.18468 0.0
H267 H 0.59536 0.47942 0.16711 0.0
H268 H 0.56385 0.40727 0.21006 0.0
H269 H 0.52662 0.43288 0.1926 0.0
H270 H 0.58845 0.38414 0.13387 0.0
H271 H 0.55316 0.41126 0.15161 0.0
H272 H 0.60764 0.46412 0.10705 0.0
H273 H 0.57184 0.49067 0.12442 0.0
N274 N 0.5163 0.48366 0.1393 0.0
N275 N 0.51455 0.48824 0.17424 0.0
C276 C 0.5054 0.90788 0.38785 0.0
C277 C 0.49013 0.91674 0.37291 0.0
C278 C 0.52095 0.92859 0.39819 0.0
C279 C 0.52059 0.95862 0.39402 0.0
C280 C 0.48994 0.94663 0.36869 0.0
C281 C 0.50492 0.96735 0.37917 0.0
C282 C 0.53833 0.98089 0.40401 0.0
C283 C 0.4752 0.94545 0.44182 0.0
C284 C 0.48859 0.9286 0.45481 0.0
C285 C 0.49223 0.96274 0.43124 0.0
C286 C 0.52305 0.96345 0.43337 0.0
C287 C 0.51944 0.92955 0.45705 0.0
C288 C 0.5365 0.9471 0.44653 0.0
C289 C 0.54102 0.98196 0.42221 0.0
C290 C 0.6056 0.09637 0.43604 0.0
C291 C 0.62799 0.08748 0.44763 0.0
C292 C 0.58761 0.07542 0.42749 0.0
C293 C 0.59187 0.04524 0.43029 0.0
C294 C 0.63144 0.05729 0.45087 0.0
C295 C 0.6134 0.03638 0.44234 0.0
C296 C 0.57401 0.02279 0.42072 0.0
C297 C 0.63001 0.06717 0.3814 0.0
C298 C 0.61363 0.08076 0.36815 0.0
C299 C 0.61627 0.04826 0.39272 0.0
C300 C 0.5858 0.04289 0.39117 0.0
C301 C 0.58318 0.07509 0.36657 0.0
C302 C 0.56948 0.0563 0.37791 0.0
C303 C 0.57082 0.02212 0.40255 0.0
H304 H 0.50607 0.88484 0.39121 0.0
H305 H 0.5338 0.92094 0.40913 0.0
H306 H 0.47814 0.95395 0.35726 0.0
H307 H 0.50445 0.99028 0.37556 0.0
H308 H 0.45151 0.94499 0.43968 0.0
H309 H 0.48131 0.97562 0.42139 0.0
H310 H 0.53032 0.917 0.46706 0.0
H311 H 0.56023 0.94762 0.4485 0.0
H312 H 0.60246 0.11945 0.43325 0.0
H313 H 0.57061 0.08278 0.41854 0.0
H314 H 0.64815 0.04983 0.45997 0.0
H315 H 0.61675 0.01321 0.44485 0.0
H316 H 0.65347 0.07114 0.38303 0.0
H317 H 0.62955 0.03757 0.40253 0.0
H318 H 0.56997 0.08467 0.35633 0.0
H319 H 0.54602 0.05219 0.37631 0.0
N320 N 0.55314 0.00118 0.39497 0.0
N321 N 0.55906 0.00265 0.42986 0.0
C322 C 0.16445 0.00208 0.64085 0.0
C323 C 0.15474 0.98723 0.62563 0.0
C324 C 0.14409 0.01582 0.65171 0.0
C325 C 0.11371 0.01431 0.64768 0.0
C326 C 0.12438 0.98546 0.6218 0.0
C327 C 0.10413 0.99885 0.63268 0.0
C328 C 0.09164 0.03081 0.65784 0.0
C329 C 0.13222 0.96578 0.69372 0.0
C330 C 0.14555 0.978 0.7088 0.0
C331 C 0.11422 0.98297 0.68315 0.0
C332 C 0.10978 0.01297 0.68718 0.0
C333 C 0.14027 0.00771 0.7132 0.0
C334 C 0.12253 0.02505 0.70246 0.0
C335 C 0.0905 0.03131 0.67609 0.0
C336 C 0.97272 0.08897 0.6867 0.0
C337 C 0.97925 0.1123 0.69843 0.0
C338 C 0.99535 0.07228 0.67952 0.0
C339 C 0.02494 0.07873 0.6838 0.0
C340 C 0.00889 0.11779 0.70332 0.0
C341 C 0.03156 0.101 0.69612 0.0
C342 C 0.04883 0.06338 0.67463 0.0
C343 C 0.00523 0.12477 0.63714 0.0
C344 C 0.98963 0.10982 0.62367 0.0
C345 C 0.02488 0.10958 0.64786 0.0
C346 C 0.02922 0.07916 0.64535 0.0
C347 C 0.99425 0.07936 0.62116 0.0
C348 C 0.01403 0.06426 0.63181 0.0
C349 C 0.05004 0.06279 0.65649 0.0
H350 H 0.18778 0.0039 0.64402 0.0
H351 H 0.15214 0.02826 0.66295 0.0
H352 H 0.11626 0.97379 0.61029 0.0
H353 H 0.08086 0.9974 0.62925 0.0
H354 H 0.13535 0.94274 0.69024 0.0
H355 H 0.10357 0.97267 0.6719 0.0
H356 H 0.15023 0.01762 0.72478 0.0
H357 H 0.11899 0.048 0.70601 0.0
H358 H 0.95019 0.08426 0.68259 0.0
H359 H 0.98977 0.05484 0.67022 0.0
H360 H 0.01456 0.13531 0.71254 0.0
H361 H 0.05427 0.10613 0.69968 0.0
H362 H 0.00267 0.1483 0.63923 0.0
H363 H 0.03692 0.12165 0.65799 0.0
H364 H 0.98234 0.06707 0.61108 0.0
H365 H 0.01714 0.04079 0.62965 0.0
N366 N 0.07124 0.04647 0.64883 0.0
N367 N 0.0692 0.04782 0.68379 0.0
Zn368 Zn 0.29412 0.7532 0.98288 0.0
Zn369 Zn 0.30782 0.71579 0.00913 0.0
O370 O 0.26317 0.7114 0.00629 0.0
O371 O 0.251 0.74298 0.98621 0.0
O372 O 0.31894 0.68899 0.02848 0.0
O373 O 0.3143 0.78645 0.99691 0.0
O374 O 0.32352 0.75556 0.0178 0.0
C375 C 0.24363 0.72361 0.9968 0.0
C376 C 0.33194 0.70434 0.97308 0.0
O377 O 0.33032 0.69836 0.98896 0.0
O378 O 0.31815 0.72626 0.96704 0.0
C379 C 0.31755 0.66114 0.02643 0.0
O380 O 0.30757 0.64991 0.01164 0.0
C381 C 0.32515 0.78131 0.01175 0.0
Zn382 Zn 0.31038 0.75901 0.28221 0.0
Zn383 Zn 0.32751 0.79571 0.2567 0.0
O384 O 0.28596 0.81089 0.26144 0.0
O385 O 0.27135 0.7813 0.28166 0.0
O386 O 0.3427 0.8203 0.23747 0.0
O387 O 0.31798 0.72328 0.26667 0.0
O388 O 0.33208 0.75377 0.24684 0.0
C389 C 0.26654 0.80304 0.272 0.0
C390 C 0.36005 0.79631 0.29189 0.0
O391 O 0.35584 0.80573 0.2767 0.0
O392 O 0.34404 0.77583 0.2974 0.0
C393 C 0.3512 0.8468 0.23999 0.0
O394 O 0.34843 0.8592 0.25535 0.0
C395 C 0.328 0.72757 0.25184 0.0
Zn396 Zn 0.27769 0.7771 0.4901 0.0
Zn397 Zn 0.26705 0.81729 0.51582 0.0
O398 O 0.3114 0.82118 0.51225 0.0
O399 O 0.32147 0.78711 0.49259 0.0
O400 O 0.25901 0.84476 0.53586 0.0
O401 O 0.25791 0.745 0.50384 0.0
O402 O 0.25034 0.77851 0.52418 0.0
C403 C 0.32991 0.8081 0.50263 0.0
C404 C 0.24024 0.82655 0.48004 0.0
O405 O 0.24329 0.83443 0.49584 0.0
O406 O 0.25264 0.80328 0.47441 0.0
C407 C 0.26191 0.87256 0.53523 0.0
O408 O 0.27121 0.88421 0.521 0.0
C409 C 0.24759 0.75214 0.51839 0.0
Zn410 Zn 0.27782 0.76073 0.74976 0.0
Zn411 Zn 0.23942 0.75058 0.77512 0.0
O412 O 0.23658 0.79561 0.77261 0.0
O413 O 0.26975 0.80426 0.75307 0.0
O414 O 0.2131 0.74051 0.79479 0.0
O415 O 0.31076 0.74057 0.76271 0.0
O416 O 0.27894 0.73217 0.78296 0.0
C417 C 0.25018 0.8136 0.76322 0.0
C418 C 0.22722 0.72551 0.73873 0.0
O419 O 0.22007 0.72906 0.75441 0.0
O420 O 0.25097 0.73656 0.73349 0.0
C421 C 0.18509 0.74036 0.79349 0.0
O422 O 0.17227 0.74872 0.77905 0.0
C423 C 0.30478 0.72946 0.77701 0.0
Zn424 Zn 0.80083 0.25781 0.5353 0.0
Zn425 Zn 0.83837 0.24549 0.50892 0.0
O426 O 0.84185 0.29019 0.51139 0.0
O427 O 0.81134 0.30103 0.53228 0.0
O428 O 0.86414 0.23402 0.48913 0.0
O429 O 0.76722 0.23833 0.52148 0.0
O430 O 0.79847 0.22884 0.50083 0.0
C431 C 0.82984 0.30916 0.52135 0.0
C432 C 0.85069 0.22112 0.54489 0.0
O433 O 0.85737 0.22438 0.52921 0.0
O434 O 0.82742 0.23276 0.55071 0.0
C435 C 0.89212 0.23557 0.48998 0.0
O436 O 0.9051 0.24627 0.50411 0.0
C437 C 0.77262 0.2272 0.50676 0.0
Zn438 Zn 0.78863 0.2767 0.76943 0.0
Zn439 Zn 0.80084 0.31445 0.74418 0.0
O440 O 0.75563 0.31755 0.74619 0.0
O441 O 0.74528 0.28307 0.76461 0.0
O442 O 0.8115 0.34118 0.72482 0.0
O443 O 0.81132 0.24429 0.75742 0.0
O444 O 0.8194 0.27503 0.73656 0.0
C445 C 0.73681 0.30334 0.7547 0.0
C446 C 0.8229 0.32745 0.78107 0.0
O447 O 0.82213 0.33335 0.76511 0.0
O448 O 0.80975 0.30488 0.78639 0.0
C449 C 0.81141 0.36909 0.72674 0.0
O450 O 0.80254 0.38084 0.74136 0.0
C451 C 0.8226 0.24967 0.74307 0.0
Zn452 Zn 0.78249 0.27017 0.02863 0.0
Zn453 Zn 0.74264 0.28043 0.00256 0.0
O454 O 0.73854 0.23609 0.00588 0.0
O455 O 0.77141 0.22654 0.02635 0.0
O456 O 0.71584 0.28923 0.98225 0.0
O457 O 0.81519 0.28872 0.01491 0.0
O458 O 0.7819 0.29685 0.99451 0.0
C459 C 0.75107 0.21784 0.01592 0.0
C460 C 0.73336 0.30808 0.03827 0.0
O461 O 0.72513 0.30378 0.0226 0.0
O462 O 0.75711 0.29668 0.04394 0.0
C463 C 0.68786 0.28995 0.98278 0.0
O464 O 0.67491 0.28372 0.99721 0.0
C465 C 0.80831 0.29913 0.00035 0.0
Zn466 Zn 0.79379 0.24739 0.23401 0.0
Zn467 Zn 0.75917 0.22452 0.25846 0.0
O468 O 0.74127 0.26568 0.25509 0.0
O469 O 0.77172 0.28593 0.2371 0.0
O470 O 0.73648 0.20665 0.27764 0.0
O471 O 0.83072 0.23818 0.24816 0.0
O472 O 0.80154 0.22162 0.26797 0.0
C473 C 0.749 0.28762 0.24627 0.0
C474 C 0.75828 0.19721 0.22213 0.0
O475 O 0.75033 0.19708 0.23776 0.0
O476 O 0.7762 0.21655 0.21719 0.0
C477 C 0.70897 0.20131 0.27682 0.0
O478 O 0.69367 0.20853 0.26296 0.0
C479 C 0.82737 0.22696 0.26277 0.0
H480 H 0.13587 0.94513 0.28505 0.0
H481 H 0.16848 0.91669 0.33467 0.0
H482 H 0.16227 0.90429 0.27095 0.0
H483 H 0.19484 0.87629 0.32071 0.0
H484 H 0.25249 0.85561 0.25708 0.0
H485 H 0.21614 0.89147 0.26698 0.0
H486 H 0.18544 0.82953 0.30393 0.0
H487 H 0.22176 0.79373 0.29418 0.0
C488 C 0.14845 0.92999 0.29292 0.0
C489 C 0.15033 0.93413 0.31093 0.0
C490 C 0.16362 0.90676 0.28486 0.0
C491 C 0.18048 0.88702 0.29473 0.0
C492 C 0.18171 0.89086 0.31276 0.0
C493 C 0.1669 0.91419 0.32076 0.0
C494 C 0.2375 0.84933 0.26701 0.0
C495 C 0.24041 0.82195 0.27503 0.0
C496 C 0.21663 0.86989 0.27266 0.0
C497 C 0.19834 0.86347 0.28644 0.0
C498 C 0.19965 0.83527 0.2935 0.0
C499 C 0.2204 0.81471 0.28783 0.0
H500 H 0.15213 0.60369 0.56188 0.0
H501 H 0.09842 0.68135 0.56928 0.0
H502 H 0.19038 0.63379 0.54925 0.0
H503 H 0.13622 0.71124 0.5563 0.0
H504 H 0.22083 0.76129 0.54922 0.0
H505 H 0.18649 0.7289 0.56319 0.0
H506 H 0.19846 0.66271 0.52303 0.0
H507 H 0.23319 0.69504 0.50905 0.0
C508 C 0.14851 0.62718 0.56082 0.0
C509 C 0.12224 0.64014 0.56658 0.0
C510 C 0.17031 0.64436 0.55346 0.0
C511 C 0.1664 0.67491 0.55185 0.0
C512 C 0.14009 0.68782 0.55757 0.0
C513 C 0.11826 0.67064 0.56482 0.0
C514 C 0.21647 0.7397 0.54344 0.0
C515 C 0.22966 0.73087 0.52792 0.0
C516 C 0.19658 0.72122 0.5514 0.0
C517 C 0.18944 0.6934 0.5441 0.0
C518 C 0.20359 0.68398 0.52901 0.0
C519 C 0.22345 0.70255 0.52098 0.0
H520 H 0.45851 0.62967 0.81369 0.0
H521 H 0.38234 0.57348 0.81839 0.0
H522 H 0.42645 0.66988 0.80449 0.0
H523 H 0.35046 0.61326 0.80865 0.0
H524 H 0.29798 0.6974 0.80611 0.0
H525 H 0.33221 0.66151 0.81823 0.0
H526 H 0.39539 0.68227 0.77955 0.0
H527 H 0.36151 0.71847 0.76763 0.0
C528 C 0.43494 0.62591 0.81275 0.0
C529 C 0.42297 0.59836 0.81671 0.0
C530 C 0.4166 0.64887 0.80737 0.0
C531 C 0.38591 0.6448 0.80591 0.0
C532 C 0.37397 0.61725 0.80988 0.0
C533 C 0.39229 0.5943 0.81521 0.0
C534 C 0.31935 0.69465 0.80035 0.0
C535 C 0.3269 0.71068 0.78582 0.0
C536 C 0.33886 0.67391 0.80721 0.0
C537 C 0.36637 0.66879 0.79972 0.0
C538 C 0.37446 0.68579 0.78569 0.0
C539 C 0.35495 0.70649 0.77882 0.0
H540 H 0.45399 0.91552 0.03748 0.0
H541 H 0.42474 0.88961 0.08745 0.0
H542 H 0.41672 0.88363 0.02357 0.0
H543 H 0.38706 0.85811 0.0736 0.0
H544 H 0.35443 0.77622 0.04266 0.0
H545 H 0.38591 0.81248 0.05745 0.0
H546 H 0.36465 0.87563 0.01823 0.0
H547 H 0.33365 0.8389 0.00308 0.0
C548 C 0.43924 0.90336 0.04547 0.0
C549 C 0.4424 0.90483 0.06353 0.0
C550 C 0.41781 0.88516 0.03752 0.0
C551 C 0.39896 0.86819 0.04747 0.0
C552 C 0.40157 0.87045 0.06555 0.0
C553 C 0.42312 0.88849 0.07349 0.0
C554 C 0.35618 0.79791 0.03725 0.0
C555 C 0.34166 0.80457 0.02161 0.0
C556 C 0.37414 0.81881 0.04581 0.0
C557 C 0.37791 0.84696 0.03901 0.0
C558 C 0.36257 0.85399 0.02368 0.0
C559 C 0.34465 0.83301 0.01505 0.0
H560 H 0.06542 0.66839 0.9653 0.0
H561 H 0.12226 0.59257 0.97012 0.0
H562 H 0.10264 0.69904 0.98048 0.0
H563 H 0.1596 0.62309 0.98482 0.0
H564 H 0.22099 0.67873 0.01542 0.0
H565 H 0.1742 0.65331 0.00999 0.0
H566 H 0.15066 0.71663 0.97131 0.0
H567 H 0.19701 0.74238 0.97694 0.0
C568 C 0.08561 0.65819 0.96991 0.0
C569 C 0.09117 0.62822 0.96635 0.0
C570 C 0.10697 0.67574 0.97849 0.0
C571 C 0.13414 0.66355 0.98377 0.0
C572 C 0.13882 0.63316 0.98112 0.0
C573 C 0.11759 0.61571 0.97249 0.0
C574 C 0.20551 0.68769 0.00608 0.0
C575 C 0.213 0.71225 0.99636 0.0
C576 C 0.17876 0.67303 0.00292 0.0
C577 C 0.15897 0.68264 0.99 0.0
C578 C 0.16533 0.7087 0.98139 0.0
C579 C 0.19206 0.72337 0.98455 0.0
H580 H 0.45296 0.62414 0.1981 0.0
H581 H 0.38331 0.55999 0.2028 0.0
H582 H 0.42223 0.66162 0.21149 0.0
H583 H 0.35257 0.59772 0.21656 0.0
H584 H 0.32757 0.66883 0.25946 0.0
H585 H 0.35208 0.62873 0.24389 0.0
H586 H 0.37643 0.68911 0.20448 0.0
H587 H 0.3523 0.72922 0.22002 0.0
C588 C 0.43096 0.61807 0.20185 0.0
C589 C 0.4205 0.5891 0.19921 0.0
C590 C 0.41334 0.63959 0.20952 0.0
C591 C 0.38485 0.6327 0.21487 0.0
C592 C 0.37448 0.60363 0.21259 0.0
C593 C 0.39212 0.58204 0.20478 0.0
C594 C 0.33771 0.67346 0.24732 0.0
C595 C 0.3383 0.70234 0.24111 0.0
C596 C 0.35168 0.65045 0.2384 0.0
C597 C 0.36657 0.65591 0.22313 0.0
C598 C 0.36563 0.68439 0.21641 0.0
C599 C 0.35164 0.70733 0.22528 0.0
H600 H 0.49807 0.87133 0.46395 0.0
H601 H 0.43743 0.94388 0.47041 0.0
H602 H 0.46502 0.83953 0.47972 0.0
H603 H 0.40426 0.91217 0.48575 0.0
H604 H 0.35375 0.85625 0.5198 0.0
H605 H 0.39707 0.88407 0.51178 0.0
H606 H 0.41639 0.81764 0.47287 0.0
H607 H 0.37344 0.78954 0.48104 0.0
C608 C 0.47791 0.88058 0.46896 0.0
C609 C 0.47018 0.91001 0.46581 0.0
C610 C 0.45892 0.86234 0.47789 0.0
C611 C 0.43199 0.87328 0.48398 0.0
C612 C 0.42497 0.90309 0.48145 0.0
C613 C 0.44381 0.92119 0.47245 0.0
C614 C 0.36767 0.84713 0.50986 0.0
C615 C 0.35978 0.82088 0.50086 0.0
C616 C 0.3924 0.86321 0.50518 0.0
C617 C 0.40982 0.85339 0.49145 0.0
C618 C 0.40348 0.82584 0.48352 0.0
C619 C 0.37873 0.80974 0.48819 0.0
H620 H 0.14446 0.97191 0.74385 0.0
H621 H 0.19 0.94221 0.69842 0.0
H622 H 0.17375 0.93774 0.76134 0.0
H623 H 0.21884 0.90809 0.71568 0.0
H624 H 0.2789 0.85932 0.7488 0.0
H625 H 0.25681 0.90489 0.73874 0.0
H626 H 0.17541 0.88271 0.76309 0.0
H627 H 0.19764 0.83726 0.77343 0.0
C628 C 0.16103 0.9584 0.73768 0.0
C629 C 0.16485 0.95949 0.71978 0.0
C630 C 0.17765 0.93879 0.74766 0.0
C631 C 0.19867 0.9203 0.73991 0.0
C632 C 0.20317 0.92232 0.72211 0.0
C633 C 0.18641 0.94161 0.71217 0.0
C634 C 0.25656 0.86455 0.75245 0.0
C635 C 0.23983 0.84439 0.76162 0.0
C636 C 0.24387 0.8906 0.74661 0.0
C637 C 0.21416 0.897 0.74975 0.0
C638 C 0.19836 0.87838 0.76044 0.0
C639 C 0.21111 0.85229 0.76637 0.0
H640 H 0.58002 0.41046 0.77529 0.0
H641 H 0.60947 0.36209 0.81973 0.0
H642 H 0.61351 0.38152 0.75714 0.0
H643 H 0.64279 0.33346 0.8018 0.0
H644 H 0.71437 0.3568 0.7452 0.0
H645 H 0.66903 0.37918 0.75559 0.0
H646 H 0.64448 0.29656 0.77773 0.0
H647 H 0.68987 0.27425 0.76755 0.0
C648 C 0.59331 0.39333 0.78109 0.0
C649 C 0.59238 0.38859 0.79891 0.0
C650 C 0.6125 0.3769 0.77074 0.0
C651 C 0.63066 0.35513 0.77802 0.0
C652 C 0.62877 0.34973 0.79573 0.0
C653 C 0.60995 0.36634 0.80606 0.0
C654 C 0.69882 0.3431 0.75173 0.0
C655 C 0.70603 0.31393 0.75589 0.0
C656 C 0.6728 0.35595 0.7577 0.0
C657 C 0.65359 0.33979 0.76784 0.0
C658 C 0.65924 0.30972 0.77028 0.0
C659 C 0.68519 0.29692 0.76437 0.0
H660 H 0.69022 0.04474 0.04949 0.0
H661 H 0.61814 0.10709 0.04813 0.0
H662 H 0.72147 0.08034 0.03533 0.0
H663 H 0.64894 0.14187 0.03363 0.0
H664 H 0.70256 0.1944 0.99896 0.0
H665 H 0.67547 0.15031 0.00646 0.0
H666 H 0.7432 0.12962 0.04432 0.0
H667 H 0.7705 0.17358 0.03678 0.0
C668 C 0.68092 0.06586 0.0461 0.0
C669 C 0.65155 0.07293 0.05001 0.0
C670 C 0.69881 0.08616 0.0379 0.0
C671 C 0.68761 0.11381 0.03326 0.0
C672 C 0.65807 0.12051 0.0367 0.0
C673 C 0.64035 0.10045 0.04503 0.0
C674 C 0.71212 0.18009 0.00857 0.0
C675 C 0.7385 0.18784 0.01747 0.0
C676 C 0.69647 0.15491 0.01293 0.0
C677 C 0.70694 0.13681 0.02619 0.0
C678 C 0.73457 0.1431 0.03403 0.0
C679 C 0.75017 0.16839 0.02973 0.0
H680 H 0.0001 0.17733 0.30705 0.0
H681 H 0.93759 0.10925 0.31879 0.0
H682 H 0.9601 0.20662 0.29446 0.0
H683 H 0.89803 0.13785 0.30574 0.0
H684 H 0.82815 0.20442 0.2951 0.0
H685 H 0.86976 0.1825 0.31049 0.0
H686 H 0.92692 0.20475 0.26901 0.0
H687 H 0.8854 0.2273 0.25374 0.0
C688 C 0.97784 0.16867 0.30698 0.0
C689 C 0.97203 0.1409 0.31381 0.0
C690 C 0.95499 0.18533 0.29966 0.0
C691 C 0.92587 0.17461 0.29915 0.0
C692 C 0.92012 0.14696 0.30614 0.0
C693 C 0.94289 0.13035 0.3134 0.0
C694 C 0.84966 0.20504 0.28935 0.0
C695 C 0.85336 0.21734 0.2731 0.0
C696 C 0.87348 0.1923 0.29813 0.0
C697 C 0.90155 0.19147 0.29085 0.0
C698 C 0.90561 0.20515 0.27501 0.0
C699 C 0.88177 0.21798 0.26623 0.0
H700 H 0.88297 0.48724 0.55417 0.0
H701 H 0.95945 0.43186 0.54759 0.0
H702 H 0.85236 0.45018 0.5388 0.0
H703 H 0.92902 0.39468 0.5327 0.0
H704 H 0.87332 0.33329 0.50226 0.0
H705 H 0.89802 0.38044 0.50779 0.0
H706 H 0.83598 0.40151 0.54762 0.0
H707 H 0.81096 0.35482 0.54189 0.0
C708 C 0.8933 0.46743 0.54913 0.0
C709 C 0.92347 0.46219 0.55225 0.0
C710 C 0.87578 0.44615 0.54044 0.0
C711 C 0.8882 0.41941 0.53462 0.0
C712 C 0.91875 0.41513 0.53682 0.0
C713 C 0.93616 0.43626 0.54555 0.0
C714 C 0.86446 0.34831 0.51188 0.0
C715 C 0.84053 0.34002 0.52188 0.0
C716 C 0.87871 0.37528 0.5151 0.0
C717 C 0.86929 0.39447 0.52835 0.0
C718 C 0.84376 0.38732 0.53727 0.0
C719 C 0.82951 0.36039 0.53406 0.0
H720 H 0.68766 0.08346 0.45183 0.0
H721 H 0.61415 0.1413 0.46206 0.0
H722 H 0.72125 0.11933 0.46549 0.0
H723 H 0.648 0.17772 0.47531 0.0
H724 H 0.71606 0.21562 0.51627 0.0
H725 H 0.68019 0.18327 0.5014 0.0
H726 H 0.74111 0.16841 0.46016 0.0
H727 H 0.77712 0.2003 0.47507 0.0
C728 C 0.67868 0.10383 0.45705 0.0
C729 C 0.64826 0.10951 0.45595 0.0
C730 C 0.69796 0.12455 0.46467 0.0
C731 C 0.68729 0.15143 0.47138 0.0
C732 C 0.65685 0.15713 0.47033 0.0
C733 C 0.63752 0.13641 0.46263 0.0
C734 C 0.72168 0.20571 0.50394 0.0
C735 C 0.74957 0.21034 0.49694 0.0
C736 C 0.70108 0.18727 0.4954 0.0
C737 C 0.70797 0.17307 0.47971 0.0
C738 C 0.73538 0.17863 0.4724 0.0
C739 C 0.75594 0.19705 0.4809 0.0
H740 H 0.92469 0.09587 0.70918 0.0
H741 H 0.97945 0.17234 0.70199 0.0
H742 H 0.88449 0.12788 0.71837 0.0
H743 H 0.93968 0.20423 0.71176 0.0
H744 H 0.8543 0.25523 0.71374 0.0
H745 H 0.89086 0.22107 0.7023 0.0
H746 H 0.87227 0.16033 0.74267 0.0
H747 H 0.83537 0.19412 0.75393 0.0
C748 C 0.92816 0.11951 0.70959 0.0
C749 C 0.95528 0.13157 0.70489 0.0
C750 C 0.90521 0.13782 0.71498 0.0
C751 C 0.90885 0.1686 0.71572 0.0
C752 C 0.93602 0.18063 0.71109 0.0
C753 C 0.95897 0.16233 0.70574 0.0
C754 C 0.85769 0.23441 0.72003 0.0
C755 C 0.84201 0.22751 0.73481 0.0
C756 C 0.87883 0.21495 0.71356 0.0
C757 C 0.88471 0.18815 0.7217 0.0
C758 C 0.86815 0.18071 0.73604 0.0
C759 C 0.84705 0.20016 0.74252 0.0
H760 H 0.92682 0.44014 0.97788 0.0
H761 H 0.90881 0.4011 0.92737 0.0
H762 H 0.89812 0.40137 0.99085 0.0
H763 H 0.88094 0.36178 0.9404 0.0
H764 H 0.80105 0.32342 0.96862 0.0
H765 H 0.83396 0.35727 0.95467 0.0
H766 H 0.89773 0.34847 0.99649 0.0
H767 H 0.86455 0.31487 0.01067 0.0
C768 C 0.91684 0.42322 0.96955 0.0
C769 C 0.92 0.42381 0.95158 0.0
C770 C 0.90069 0.40078 0.97701 0.0
C771 C 0.88724 0.37844 0.96666 0.0
C772 C 0.89081 0.37878 0.94872 0.0
C773 C 0.90702 0.40117 0.94127 0.0
C774 C 0.82223 0.32837 0.97477 0.0
C775 C 0.83004 0.31653 0.99084 0.0
C776 C 0.84119 0.34771 0.96671 0.0
C777 C 0.86841 0.35576 0.97452 0.0
C778 C 0.87672 0.34306 0.99027 0.0
C779 C 0.85779 0.32361 0.99832 0.0
H780 H 0.6018 0.412 0.23256 0.0
H781 H 0.65226 0.40568 0.18609 0.0
H782 H 0.63876 0.38191 0.24747 0.0
H783 H 0.68898 0.37612 0.20092 0.0
H784 H 0.76187 0.34068 0.23244 0.0
H785 H 0.72702 0.3785 0.22356 0.0
H786 H 0.65626 0.33035 0.24635 0.0
H787 H 0.69128 0.29272 0.25559 0.0
C788 C 0.62076 0.40427 0.22554 0.0
C789 C 0.62412 0.4114 0.20814 0.0
C790 C 0.64194 0.38712 0.2341 0.0
C791 C 0.66696 0.37686 0.22545 0.0
C792 C 0.67037 0.38426 0.20812 0.0
C793 C 0.64925 0.40124 0.19958 0.0
C794 C 0.739 0.33846 0.23591 0.0
C795 C 0.72928 0.31344 0.24449 0.0
C796 C 0.71899 0.36006 0.23072 0.0
C797 C 0.68877 0.35709 0.2339 0.0
C798 C 0.6794 0.33332 0.24371 0.0
C799 C 0.69949 0.31171 0.24899 0.0
H800 H 0.1529 0.90952 0.39211 0.0
H801 H 0.15842 0.9773 0.43222 0.0
H802 H 0.17457 0.87431 0.41179 0.0
H803 H 0.1824 0.94283 0.45138 0.0
H804 H 0.19991 0.86913 0.48797 0.0
H805 H 0.17427 0.90197 0.46831 0.0
H806 H 0.21884 0.8608 0.42535 0.0
H807 H 0.24318 0.82702 0.44495 0.0
C808 C 0.15876 0.917 0.4051 0.0
C809 C 0.15378 0.94636 0.41051 0.0
C810 C 0.17166 0.89685 0.41635 0.0
C811 C 0.18033 0.9056 0.43324 0.0
C812 C 0.17559 0.93504 0.43859 0.0
C813 C 0.16229 0.95506 0.42744 0.0
C814 C 0.204 0.86696 0.4743 0.0
C815 C 0.22354 0.84548 0.46802 0.0
C816 C 0.18949 0.88597 0.46301 0.0
C817 C 0.19459 0.88431 0.44518 0.0
C818 C 0.21393 0.86251 0.43892 0.0
C819 C 0.22803 0.84319 0.45018 0.0
H820 H 0.12891 0.66335 0.64747 0.0
H821 H 0.09707 0.60954 0.68831 0.0
H822 H 0.16125 0.68958 0.66815 0.0
H823 H 0.13056 0.6346 0.70877 0.0
H824 H 0.17116 0.70622 0.74409 0.0
H825 H 0.13785 0.68104 0.72352 0.0
H826 H 0.20534 0.68207 0.68516 0.0
H827 H 0.23833 0.70807 0.70555 0.0
C828 C 0.12878 0.65713 0.66085 0.0
C829 C 0.11041 0.63431 0.66621 0.0
C830 C 0.14761 0.67191 0.67268 0.0
C831 C 0.14861 0.66412 0.69012 0.0
C832 C 0.13015 0.64138 0.69548 0.0
C833 C 0.11122 0.62673 0.68369 0.0
C834 C 0.17892 0.70101 0.73128 0.0
C835 C 0.20739 0.70918 0.72646 0.0
C836 C 0.15986 0.68645 0.7195 0.0
C837 C 0.16889 0.67956 0.70267 0.0
C838 C 0.19749 0.68749 0.69792 0.0
C839 C 0.21648 0.70221 0.70966 0.0
H840 H 0.38244 0.56322 0.90373 0.0
H841 H 0.46502 0.60784 0.91594 0.0
H842 H 0.35656 0.59982 0.92122 0.0
H843 H 0.43903 0.64309 0.93428 0.0
H844 H 0.37823 0.66914 0.98201 0.0
H845 H 0.40548 0.63524 0.96324 0.0
H846 H 0.35115 0.6608 0.9197 0.0
H847 H 0.32431 0.69539 0.93832 0.0
C848 C 0.39514 0.5808 0.91 0.0
C849 C 0.42596 0.58242 0.90832 0.0
C850 C 0.38026 0.60163 0.92009 0.0
C851 C 0.39591 0.62411 0.92902 0.0
C852 C 0.42659 0.62575 0.92756 0.0
C853 C 0.44144 0.60534 0.91717 0.0
C854 C 0.37226 0.6677 0.9684 0.0
C855 C 0.3492 0.68491 0.9616 0.0
C856 C 0.38788 0.64841 0.95771 0.0
C857 C 0.38025 0.64551 0.94011 0.0
C858 C 0.35728 0.66269 0.93326 0.0
C859 C 0.34209 0.68252 0.94388 0.0
H860 H 0.48449 0.94144 0.18649 0.0
H861 H 0.42516 0.9128 0.14499 0.0
H862 H 0.45203 0.91986 0.20733 0.0
H863 H 0.39211 0.89204 0.16593 0.0
H864 H 0.36236 0.82679 0.20722 0.0
H865 H 0.39142 0.85082 0.18559 0.0
H866 H 0.40379 0.9264 0.21996 0.0
H867 H 0.37516 0.90218 0.24174 0.0
C868 C 0.46449 0.93055 0.18181 0.0
C869 C 0.45751 0.92871 0.16406 0.0
C870 C 0.44568 0.9185 0.19378 0.0
C871 C 0.41942 0.90426 0.18831 0.0
C872 C 0.41228 0.90264 0.17056 0.0
C873 C 0.43108 0.91478 0.15858 0.0
C874 C 0.37106 0.84864 0.21013 0.0
C875 C 0.36656 0.86248 0.22627 0.0
C876 C 0.38761 0.86248 0.19767 0.0
C877 C 0.40009 0.89047 0.20107 0.0
C878 C 0.39488 0.90464 0.21703 0.0
C879 C 0.37829 0.89083 0.22948 0.0
H880 H 0.12224 0.61516 0.86492 0.0
H881 H 0.05061 0.67782 0.86359 0.0
H882 H 0.15077 0.64654 0.84652 0.0
H883 H 0.07957 0.70976 0.84548 0.0
H884 H 0.12512 0.73363 0.7942 0.0
H885 H 0.09669 0.70827 0.81564 0.0
H886 H 0.17646 0.69365 0.84577 0.0
H887 H 0.20498 0.71857 0.82424 0.0
C888 C 0.11267 0.63577 0.86078 0.0
C889 C 0.08408 0.64389 0.86561 0.0
C890 C 0.12916 0.65393 0.85038 0.0
C891 C 0.11745 0.68067 0.8445 0.0
C892 C 0.08911 0.68917 0.84967 0.0
C893 C 0.07264 0.67102 0.86017 0.0
C894 C 0.13657 0.7253 0.80549 0.0
C895 C 0.16738 0.72791 0.8074 0.0
C896 C 0.12023 0.71089 0.81784 0.0
C897 C 0.13433 0.69872 0.83236 0.0
C898 C 0.16498 0.70236 0.83459 0.0
C899 C 0.18131 0.7168 0.82228 0.0
H900 H 0.43109 0.53742 0.07653 0.0
H901 H 0.38726 0.57827 0.11974 0.0
H902 H 0.39963 0.56481 0.05667 0.0
H903 H 0.35521 0.60524 0.09981 0.0
H904 H 0.3384 0.6772 0.05866 0.0
H905 H 0.36273 0.64599 0.07979 0.0
H906 H 0.34827 0.56997 0.04604 0.0
H907 H 0.32419 0.60122 0.02476 0.0
C908 C 0.41456 0.55211 0.08177 0.0
C909 C 0.41179 0.5559 0.09968 0.0
C910 C 0.39632 0.56755 0.07039 0.0
C911 C 0.37496 0.58722 0.07668 0.0
C912 C 0.37164 0.59042 0.0946 0.0
C913 C 0.3898 0.57481 0.10599 0.0
C914 C 0.34012 0.65378 0.05581 0.0
C915 C 0.32958 0.64174 0.03996 0.0
C916 C 0.3539 0.63587 0.06797 0.0
C917 C 0.35756 0.60555 0.06454 0.0
C918 C 0.3461 0.59333 0.04895 0.0
C919 C 0.33219 0.61122 0.0368 0.0
H920 H 0.4981 0.90755 0.3387 0.0
H921 H 0.44775 0.87734 0.38129 0.0
H922 H 0.47023 0.8748 0.31899 0.0
H923 H 0.41862 0.84549 0.36152 0.0
H924 H 0.38131 0.77779 0.3232 0.0
H925 H 0.41618 0.80345 0.34278 0.0
H926 H 0.42283 0.87378 0.30642 0.0
H927 H 0.38926 0.84764 0.2867 0.0
C928 C 0.48098 0.8938 0.34379 0.0
C929 C 0.47481 0.89502 0.36141 0.0
C930 C 0.46487 0.87518 0.33252 0.0
C931 C 0.44181 0.85778 0.33858 0.0
C932 C 0.43639 0.85829 0.35639 0.0
C933 C 0.45291 0.87661 0.36772 0.0
C934 C 0.39053 0.79858 0.31935 0.0
C935 C 0.3825 0.81068 0.3034 0.0
C936 C 0.41037 0.81339 0.33062 0.0
C937 C 0.42236 0.84075 0.32624 0.0
C938 C 0.4146 0.85251 0.31014 0.0
C939 C 0.39511 0.83758 0.29883 0.0
H940 H 0.20169 0.95113 0.63268 0.0
H941 H 0.15525 0.99373 0.59093 0.0
H942 H 0.23318 0.9257 0.61181 0.0
H943 H 0.18618 0.96819 0.57016 0.0
H944 H 0.25758 0.93275 0.53662 0.0
H945 H 0.23688 0.96339 0.55963 0.0
H946 H 0.22362 0.88589 0.58976 0.0
H947 H 0.24454 0.85531 0.56691 0.0
C948 C 0.19854 0.95535 0.61908 0.0
C949 C 0.17589 0.97412 0.61338 0.0
C950 C 0.21638 0.94069 0.60714 0.0
C951 C 0.21208 0.94488 0.58934 0.0
C952 C 0.19027 0.9647 0.58377 0.0
C953 C 0.17234 0.97909 0.59565 0.0
C954 C 0.25063 0.9223 0.54825 0.0
C955 C 0.25239 0.89156 0.54985 0.0
C956 C 0.23869 0.93984 0.5614 0.0
C957 C 0.22845 0.92702 0.57645 0.0
C958 C 0.23156 0.89647 0.57839 0.0
C959 C 0.24334 0.87892 0.56522 0.0
H960 H 0.55523 0.34758 0.90636 0.0
H961 H 0.63163 0.40359 0.90239 0.0
H962 H 0.58252 0.3167 0.92669 0.0
H963 H 0.65854 0.37341 0.92295 0.0
H964 H 0.70796 0.30346 0.95101 0.0
H965 H 0.68041 0.32524 0.9272 0.0
H966 H 0.60092 0.32256 0.95668 0.0
H967 H 0.62838 0.30021 0.98043 0.0
C968 C 0.57796 0.35304 0.90965 0.0
C969 C 0.59125 0.3781 0.90288 0.0
C970 C 0.59348 0.33555 0.92141 0.0
C971 C 0.62266 0.34266 0.9265 0.0
C972 C 0.63622 0.3671 0.91919 0.0
C973 C 0.62071 0.38459 0.90753 0.0
C974 C 0.68454 0.30719 0.95237 0.0
C975 C 0.67044 0.30038 0.96772 0.0
C976 C 0.66877 0.31979 0.93873 0.0
C977 C 0.63853 0.32592 0.9401 0.0
C978 C 0.62414 0.31791 0.95515 0.0
C979 C 0.63993 0.30525 0.96881 0.0
H980 H 0.63725 0.12286 0.14725 0.0
H981 H 0.69282 0.04794 0.15877 0.0
H982 H 0.66877 0.15413 0.16579 0.0
H983 H 0.72309 0.07924 0.17818 0.0
H984 H 0.73341 0.14381 0.22841 0.0
H985 H 0.70816 0.11047 0.20758 0.0
H986 H 0.72705 0.16978 0.16664 0.0
H987 H 0.75294 0.20284 0.1873 0.0
C988 C 0.65631 0.11302 0.1535 0.0
C989 C 0.66234 0.0827 0.15144 0.0
C990 C 0.67422 0.13099 0.16422 0.0
C991 C 0.69818 0.11897 0.17338 0.0
C992 C 0.70453 0.08887 0.17131 0.0
C993 C 0.68701 0.07098 0.16029 0.0
C994 C 0.73249 0.14954 0.21493 0.0
C995 C 0.7451 0.17592 0.20947 0.0
C996 C 0.71818 0.13044 0.20305 0.0
C997 C 0.71571 0.13773 0.18559 0.0
C998 C 0.72868 0.16381 0.18006 0.0
C999 C 0.74356 0.18259 0.19187 0.0
H1000 H 0.95913 0.11247 0.4148 0.0
H1001 H 0.0231 0.18301 0.41378 0.0
H1002 H 0.93062 0.14079 0.43552 0.0
H1003 H 0.99456 0.21129 0.43477 0.0
H1004 H 0.9523 0.23305 0.48791 0.0
H1005 H 0.98102 0.20869 0.46549 0.0
H1006 H 0.90055 0.18568 0.4374 0.0
H1007 H 0.87183 0.20963 0.45983 0.0
C1008 C 0.96693 0.1342 0.41881 0.0
C1009 C 0.99336 0.1455 0.41254 0.0
C1010 C 0.95057 0.15043 0.43072 0.0
C1011 C 0.96027 0.17834 0.43674 0.0
C1012 C 0.98668 0.18972 0.4305 0.0
C1013 C 0.00302 0.1735 0.4185 0.0
C1014 C 0.94075 0.22301 0.47688 0.0
C1015 C 0.90976 0.2231 0.47574 0.0
C1016 C 0.95722 0.20917 0.464 0.0
C1017 C 0.94304 0.19506 0.44974 0.0
C1018 C 0.9121 0.19595 0.44836 0.0
C1019 C 0.89566 0.20983 0.46119 0.0
H1020 H 0.9294 0.48951 0.68056 0.0
H1021 H 0.8852 0.45071 0.63558 0.0
H1022 H 0.89733 0.46209 0.69914 0.0
H1023 H 0.85256 0.42351 0.65427 0.0
H1024 H 0.83195 0.35202 0.69511 0.0
H1025 H 0.85778 0.38223 0.67469 0.0
H1026 H 0.84559 0.45894 0.7078 0.0
H1027 H 0.82004 0.42877 0.72831 0.0
C1028 C 0.91274 0.47515 0.67465 0.0
C1029 C 0.90998 0.47207 0.65661 0.0
C1030 C 0.89413 0.45969 0.68529 0.0
C1031 C 0.87236 0.44064 0.67818 0.0
C1032 C 0.86926 0.43787 0.66012 0.0
C1033 C 0.88778 0.45358 0.64944 0.0
C1034 C 0.83448 0.3754 0.69795 0.0
C1035 C 0.82416 0.38791 0.71344 0.0
C1036 C 0.84915 0.39273 0.68619 0.0
C1037 C 0.85395 0.42293 0.68969 0.0
C1038 C 0.84262 0.43564 0.70485 0.0
C1039 C 0.82784 0.41836 0.71657 0.0
H1040 H 0.66733 0.0729 0.35327 0.0
H1041 H 0.59293 0.13231 0.35464 0.0
H1042 H 0.69029 0.10342 0.33193 0.0
H1043 H 0.61582 0.16266 0.33314 0.0
H1044 H 0.65063 0.18703 0.27966 0.0
H1045 H 0.62793 0.15908 0.30234 0.0
H1046 H 0.71252 0.15234 0.32875 0.0
H1047 H 0.7353 0.17995 0.30603 0.0
C1048 C 0.65603 0.09267 0.3492 0.0
C1049 C 0.62823 0.10009 0.35567 0.0
C1050 C 0.66918 0.11015 0.33693 0.0
C1051 C 0.65484 0.13543 0.3308 0.0
C1052 C 0.62723 0.14307 0.33741 0.0
C1053 C 0.61411 0.12566 0.34972 0.0
C1054 C 0.66436 0.17972 0.29034 0.0
C1055 C 0.6948 0.18565 0.29099 0.0
C1056 C 0.65132 0.16382 0.30339 0.0
C1057 C 0.66844 0.15341 0.31732 0.0
C1058 C 0.69879 0.15972 0.31808 0.0
C1059 C 0.7118 0.1757 0.30509 0.0
H1060 H 0.98102 0.10212 0.58879 0.0
H1061 H 0.95122 0.15407 0.63243 0.0
H1062 H 0.94655 0.12784 0.56999 0.0
H1063 H 0.91799 0.18108 0.61342 0.0
H1064 H 0.84033 0.20313 0.57762 0.0
H1065 H 0.87337 0.1757 0.59658 0.0
H1066 H 0.93946 0.17462 0.55736 0.0
H1067 H 0.90611 0.2011 0.53823 0.0
C1068 C 0.96709 0.11901 0.59439 0.0
C1069 C 0.96887 0.12594 0.61215 0.0
C1070 C 0.94759 0.13407 0.58355 0.0
C1071 C 0.92953 0.15663 0.59015 0.0
C1072 C 0.93131 0.1636 0.60791 0.0
C1073 C 0.95069 0.14839 0.61879 0.0
C1074 C 0.86188 0.19695 0.57304 0.0
C1075 C 0.87055 0.20424 0.5564 0.0
C1076 C 0.88091 0.18138 0.58395 0.0
C1077 C 0.90911 0.17295 0.57852 0.0
C1078 C 0.91773 0.1803 0.56187 0.0
C1079 C 0.89864 0.19564 0.55092 0.0
H1080 H 0.90489 0.41326 0.87186 0.0
H1081 H 0.91473 0.47562 0.83134 0.0
H1082 H 0.88008 0.37899 0.85159 0.0
H1083 H 0.88831 0.44241 0.81117 0.0
H1084 H 0.86749 0.36569 0.77472 0.0
H1085 H 0.89294 0.39894 0.79518 0.0
H1086 H 0.83715 0.36905 0.83573 0.0
H1087 H 0.81311 0.33457 0.81542 0.0
C1088 C 0.90122 0.41972 0.85862 0.0
C1089 C 0.91165 0.44688 0.85306 0.0
C1090 C 0.88688 0.40022 0.847 0.0
C1091 C 0.88214 0.40779 0.82964 0.0
C1092 C 0.89211 0.43542 0.82428 0.0
C1093 C 0.90701 0.45461 0.83583 0.0
C1094 C 0.86083 0.36618 0.78804 0.0
C1095 C 0.83844 0.34748 0.7935 0.0
C1096 C 0.87522 0.38544 0.79977 0.0
C1097 C 0.8671 0.38691 0.81718 0.0
C1098 C 0.8445 0.36822 0.82256 0.0
C1099 C 0.83055 0.34852 0.81089 0.0
H1100 H 0.63967 0.37765 0.12709 0.0
H1101 H 0.60692 0.42841 0.08426 0.0
H1102 H 0.67155 0.35003 0.10765 0.0
H1103 H 0.6399 0.40214 0.06512 0.0
H1104 H 0.67749 0.32821 0.03194 0.0
H1105 H 0.64571 0.35505 0.05162 0.0
H1106 H 0.71501 0.35489 0.09088 0.0
H1107 H 0.74651 0.32712 0.07134 0.0
C1108 C 0.6393 0.38297 0.11356 0.0
C1109 C 0.62075 0.40531 0.10728 0.0
C1110 C 0.65786 0.3674 0.10244 0.0
C1111 C 0.65834 0.37386 0.0848 0.0
C1112 C 0.63987 0.39628 0.07857 0.0
C1113 C 0.62123 0.41169 0.08963 0.0
C1114 C 0.68602 0.33397 0.04475 0.0
C1115 C 0.71457 0.32554 0.05005 0.0
C1116 C 0.66782 0.3495 0.05603 0.0
C1117 C 0.67779 0.35721 0.07286 0.0
C1118 C 0.70644 0.34894 0.07812 0.0
C1119 C 0.72459 0.33321 0.06686 0.0
loop_
_geom_bond_atom_site_label_1
_geom_bond_atom_site_label_2
_geom_bond_distance
_geom_bond_site_symmetry_2
_ccdc_geom_bond_type
C0 C1 1.384 . S
C0 C2 1.384 . S
C0 H28 0.931 . S
C1 C0 1.384 . S
C1 C4 1.382 . S
C2 C0 1.384 . S
C2 C3 1.381 . S
C2 H29 0.930 . S
C3 C2 1.381 . S
C3 C5 1.381 1_565 S
C3 C6 1.487 1_565 S
C4 C1 1.382 . S
C4 C5 1.387 1_565 S
C4 H30 0.930 1_565 S
C5 C3 1.381 1_545 S
C5 C4 1.387 1_545 S
C5 H31 0.931 . S
C6 C3 1.487 1_545 S
C6 C13 1.399 . S
C6 N44 1.343 . S
C7 C8 1.384 . S
C7 C9 1.384 . S
C7 H32 0.931 . S
C8 C7 1.384 . S
C8 C11 1.382 . S
C9 C7 1.384 . S
C9 C10 1.381 . S
C9 H33 0.930 1_565 S
C10 C9 1.381 . S
C10 C12 1.381 . S
C10 C13 1.487 1_565 S
C11 C8 1.382 . S
C11 C12 1.387 . S
C11 H34 0.930 . S
C12 C10 1.381 . S
C12 C11 1.387 . S
C12 H35 0.931 . S
C13 C6 1.399 . S
C13 C10 1.487 1_545 S
C13 N45 1.343 . S
C14 C15 1.384 1_455 S
C14 C16 1.384 . S
C14 H36 0.931 . S
C15 C14 1.384 1_655 S
C15 C18 1.382 . S
C16 C14 1.384 . S
C16 C17 1.381 . S
C16 H37 0.930 . S
C17 C16 1.381 . S
C17 C19 1.381 . S
C17 C20 1.487 . S
C18 C15 1.382 . S
C18 C19 1.387 1_655 S
C18 H38 0.930 . S
C19 C17 1.381 . S
C19 C18 1.387 1_455 S
C19 H39 0.931 . S
C20 C17 1.487 . S
C20 C27 1.399 . S
C20 N45 1.343 . S
C21 C22 1.384 . S
C21 C23 1.384 1_655 S
C21 H40 0.931 . S
C22 C21 1.384 . S
C22 C25 1.382 1_655 S
C23 C21 1.384 1_455 S
C23 C24 1.381 . S
C23 H41 0.930 1_455 S
C24 C23 1.381 . S
C24 C26 1.381 . S
C24 C27 1.487 . S
C25 C22 1.382 1_455 S
C25 C26 1.387 . S
C25 H42 0.930 . S
C26 C24 1.381 . S
C26 C25 1.387 . S
C26 H43 0.931 . S
C27 C20 1.399 . S
C27 C24 1.487 . S
C27 N44 1.343 . S
H28 C0 0.931 . S
H29 C2 0.930 . S
H30 C4 0.930 1_545 S
H31 C5 0.931 . S
H32 C7 0.931 . S
H33 C9 0.930 1_545 S
H34 C11 0.930 . S
H35 C12 0.931 . S
H36 C14 0.931 . S
H37 C16 0.930 . S
H38 C18 0.930 . S
H39 C19 0.931 . S
H40 C21 0.931 . S
H41 C23 0.930 1_655 S
H42 C25 0.930 . S
H43 C26 0.931 . S
N44 C6 1.343 . S
N44 C27 1.343 . S
N45 C13 1.343 . S
N45 C20 1.343 . S
C46 C47 1.384 . S
C46 C48 1.384 . S
C46 H74 0.931 . S
C47 C46 1.384 . S
C47 C50 1.382 . S
C48 C46 1.384 . S
C48 C49 1.381 . S
C48 H75 0.930 . S
C49 C48 1.381 . S
C49 C51 1.381 . S
C49 C52 1.487 . S
C50 C47 1.382 . S
C50 C51 1.387 . S
C50 H76 0.930 . S
C51 C49 1.381 . S
C51 C50 1.387 . S
C51 H77 0.931 1_655 S
C52 C49 1.487 . S
C52 C59 1.399 . S
C52 N90 1.343 1_655 S
C53 C54 1.384 . S
C53 C55 1.384 . S
C53 H78 0.931 . S
C54 C53 1.384 . S
C54 C57 1.382 . S
C55 C53 1.384 . S
C55 C56 1.381 . S
C55 H79 0.930 . S
C56 C55 1.381 . S
C56 C58 1.381 . S
C56 C59 1.487 . S
C57 C54 1.382 . S
C57 C58 1.387 . S
C57 H80 0.930 . S
C58 C56 1.381 . S
C58 C57 1.387 . S
C58 H81 0.931 . S
C59 C52 1.399 . S
C59 C56 1.487 . S
C59 N91 1.343 1_655 S
C60 C61 1.384 . S
C60 C62 1.384 . S
C60 H82 0.931 . S
C61 C60 1.384 . S
C61 C64 1.382 . S
C62 C60 1.384 . S
C62 C63 1.381 . S
C62 H83 0.930 . S
C63 C62 1.381 . S
C63 C65 1.381 . S
C63 C66 1.487 . S
C64 C61 1.382 . S
C64 C65 1.387 . S
C64 H84 0.930 . S
C65 C63 1.381 . S
C65 C64 1.387 . S
C65 H85 0.931 . S
C66 C63 1.487 . S
C66 C73 1.399 . S
C66 N91 1.343 . S
C67 C68 1.384 . S
C67 C69 1.384 . S
C67 H86 0.931 . S
C68 C67 1.384 . S
C68 C71 1.382 . S
C69 C67 1.384 . S
C69 C70 1.381 . S
C69 H87 0.930 . S
C70 C69 1.381 . S
C70 C72 1.381 . S
C70 C73 1.487 . S
C71 C68 1.382 . S
C71 C72 1.387 . S
C71 H88 0.930 . S
C72 C70 1.381 . S
C72 C71 1.387 . S
C72 H89 0.931 . S
C73 C66 1.399 . S
C73 C70 1.487 . S
C73 N90 1.343 . S
H74 C46 0.931 . S
H75 C48 0.930 . S
H76 C50 0.930 . S
H77 C51 0.931 1_455 S
H78 C53 0.931 . S
H79 C55 0.930 . S
H80 C57 0.930 . S
H81 C58 0.931 . S
H82 C60 0.931 . S
H83 C62 0.930 . S
H84 C64 0.930 . S
H85 C65 0.931 . S
H86 C67 0.931 . S
H87 C69 0.930 . S
H88 C71 0.930 . S
H89 C72 0.931 . S
N90 C52 1.343 1_455 S
N90 C73 1.343 . S
N91 C59 1.343 1_455 S
N91 C66 1.343 . S
C92 C93 1.384 . S
C92 C94 1.384 . S
C92 H120 0.931 . S
C93 C92 1.384 . S
C93 C96 1.382 . S
C94 C92 1.384 . S
C94 C95 1.381 . S
C94 H121 0.930 . S
C95 C94 1.381 . S
C95 C97 1.381 . S
C95 C98 1.487 . S
C96 C93 1.382 . S
C96 C97 1.387 . S
C96 H122 0.930 . S
C97 C95 1.381 . S
C97 C96 1.387 . S
C97 H123 0.931 . S
C98 C95 1.487 . S
C98 C105 1.399 . S
C98 N136 1.343 . S
C99 C100 1.384 . S
C99 C101 1.384 . S
C99 H124 0.931 . S
C100 C99 1.384 . S
C100 C103 1.382 . S
C101 C99 1.384 . S
C101 C102 1.381 . S
C101 H125 0.930 . S
C102 C101 1.381 . S
C102 C104 1.381 . S
C102 C105 1.487 . S
C103 C100 1.382 . S
C103 C104 1.387 . S
C103 H126 0.930 . S
C104 C102 1.381 . S
C104 C103 1.387 . S
C104 H127 0.931 . S
C105 C98 1.399 . S
C105 C102 1.487 . S
C105 N137 1.343 . S
C106 C107 1.384 . S
C106 C108 1.384 . S
C106 H128 0.931 . S
C107 C106 1.384 . S
C107 C110 1.382 . S
C108 C106 1.384 . S
C108 C109 1.381 . S
C108 H129 0.930 . S
C109 C108 1.381 . S
C109 C111 1.381 . S
C109 C112 1.487 . S
C110 C107 1.382 . S
C110 C111 1.387 . S
C110 H130 0.930 . S
C111 C109 1.381 . S
C111 C110 1.387 . S
C111 H131 0.931 . S
C112 C109 1.487 . S
C112 C119 1.399 . S
C112 N137 1.343 . S
C113 C114 1.384 . S
C113 C115 1.384 . S
C113 H132 0.931 . S
C114 C113 1.384 . S
C114 C117 1.382 . S
C115 C113 1.384 . S
C115 C116 1.381 . S
C115 H133 0.930 . S
C116 C115 1.381 . S
C116 C118 1.381 . S
C116 C119 1.487 . S
C117 C114 1.382 . S
C117 C118 1.387 . S
C117 H134 0.930 . S
C118 C116 1.381 . S
C118 C117 1.387 . S
C118 H135 0.931 . S
C119 C112 1.399 . S
C119 C116 1.487 . S
C119 N136 1.343 . S
H120 C92 0.931 . S
H121 C94 0.930 . S
H122 C96 0.930 . S
H123 C97 0.931 . S
H124 C99 0.931 . S
H125 C101 0.930 . S
H126 C103 0.930 . S
H127 C104 0.931 . S
H128 C106 0.931 . S
H129 C108 0.930 . S
H130 C110 0.930 . S
H131 C111 0.931 . S
H132 C113 0.931 . S
H133 C115 0.930 . S
H134 C117 0.930 . S
H135 C118 0.931 . S
N136 C98 1.343 . S
N136 C119 1.343 . S
N137 C105 1.343 . S
N137 C112 1.343 . S
C138 C139 1.384 . S
C138 C140 1.384 . S
C138 H166 0.931 . S
C139 C138 1.384 . S
C139 C142 1.382 . S
C140 C138 1.384 . S
C140 C141 1.381 . S
C140 H167 0.930 . S
C141 C140 1.381 . S
C141 C143 1.381 . S
C141 C144 1.487 . S
C142 C139 1.382 . S
C142 C143 1.387 . S
C142 H168 0.930 . S
C143 C141 1.381 . S
C143 C142 1.387 . S
C143 H169 0.931 . S
C144 C141 1.487 . S
C144 C151 1.399 . S
C144 N182 1.343 1_565 S
C145 C146 1.384 . S
C145 C147 1.384 . S
C145 H170 0.931 . S
C146 C145 1.384 . S
C146 C149 1.382 . S
C147 C145 1.384 . S
C147 C148 1.381 . S
C147 H171 0.930 . S
C148 C147 1.381 . S
C148 C150 1.381 . S
C148 C151 1.487 . S
C149 C146 1.382 . S
C149 C150 1.387 . S
C149 H172 0.930 . S
C150 C148 1.381 . S
C150 C149 1.387 . S
C150 H173 0.931 . S
C151 C144 1.399 . S
C151 C148 1.487 . S
C151 N183 1.343 . S
C152 C153 1.384 . S
C152 C154 1.384 . S
C152 H174 0.931 . S
C153 C152 1.384 . S
C153 C156 1.382 . S
C154 C152 1.384 . S
C154 C155 1.381 . S
C154 H175 0.930 . S
C155 C154 1.381 . S
C155 C157 1.381 . S
C155 C158 1.487 . S
C156 C153 1.382 . S
C156 C157 1.387 . S
C156 H176 0.930 . S
C157 C155 1.381 . S
C157 C156 1.387 . S
C157 H177 0.931 . S
C158 C155 1.487 . S
C158 C165 1.399 . S
C158 N183 1.343 1_545 S
C159 C160 1.384 . S
C159 C161 1.384 . S
C159 H178 0.931 . S
C160 C159 1.384 . S
C160 C163 1.382 . S
C161 C159 1.384 . S
C161 C162 1.381 . S
C161 H179 0.930 . S
C162 C161 1.381 . S
C162 C164 1.381 . S
C162 C165 1.487 . S
C163 C160 1.382 . S
C163 C164 1.387 . S
C163 H180 0.930 . S
C164 C162 1.381 . S
C164 C163 1.387 . S
C164 H181 0.931 . S
C165 C158 1.399 . S
C165 C162 1.487 . S
C165 N182 1.343 . S
H166 C138 0.931 . S
H167 C140 0.930 . S
H168 C142 0.930 . S
H169 C143 0.931 . S
H170 C145 0.931 . S
H171 C147 0.930 . S
H172 C149 0.930 . S
H173 C150 0.931 . S
H174 C152 0.931 . S
H175 C154 0.930 . S
H176 C156 0.930 . S
H177 C157 0.931 . S
H178 C159 0.931 . S
H179 C161 0.930 . S
H180 C163 0.930 . S
H181 C164 0.931 . S
N182 C144 1.343 1_545 S
N182 C165 1.343 . S
N183 C151 1.343 . S
N183 C158 1.343 1_565 S
C184 C185 1.384 . S
C184 C186 1.384 . S
C184 H212 0.931 . S
C185 C184 1.384 . S
C185 C188 1.382 . S
C186 C184 1.384 . S
C186 C187 1.381 . S
C186 H213 0.930 . S
C187 C186 1.381 . S
C187 C189 1.381 . S
C187 C190 1.487 . S
C188 C185 1.382 . S
C188 C189 1.387 . S
C188 H214 0.930 . S
C189 C187 1.381 . S
C189 C188 1.387 . S
C189 H215 0.931 . S
C190 C187 1.487 . S
C190 C197 1.399 . S
C190 N228 1.343 . S
C191 C192 1.384 . S
C191 C193 1.384 . S
C191 H216 0.931 . S
C192 C191 1.384 . S
C192 C195 1.382 . S
C193 C191 1.384 . S
C193 C194 1.381 . S
C193 H217 0.930 . S
C194 C193 1.381 . S
C194 C196 1.381 . S
C194 C197 1.487 . S
C195 C192 1.382 . S
C195 C196 1.387 . S
C195 H218 0.930 . S
C196 C194 1.381 . S
C196 C195 1.387 . S
C196 H219 0.931 . S
C197 C190 1.399 . S
C197 C194 1.487 . S
C197 N229 1.341 1_455 S
C198 C199 1.384 . S
C198 C200 1.384 . S
C198 H220 0.931 . S
C199 C198 1.384 . S
C199 C202 1.382 . S
C200 C198 1.384 . S
C200 C201 1.381 . S
C200 H221 0.930 . S
C201 C200 1.381 . S
C201 C203 1.381 . S
C201 C204 1.487 . S
C202 C199 1.382 . S
C202 C203 1.387 . S
C202 H222 0.930 . S
C203 C201 1.381 . S
C203 C202 1.387 . S
C203 H223 0.931 . S
C204 C201 1.487 . S
C204 C211 1.399 . S
C204 N229 1.345 . S
C205 C206 1.384 . S
C205 C207 1.384 . S
C205 H224 0.931 . S
C206 C205 1.384 . S
C206 C209 1.382 . S
C207 C205 1.384 . S
C207 C208 1.381 . S
C207 H225 0.930 . S
C208 C207 1.381 . S
C208 C210 1.381 . S
C208 C211 1.487 . S
C209 C206 1.382 . S
C209 C210 1.387 . S
C209 H226 0.930 . S
C210 C208 1.381 . S
C210 C209 1.387 . S
C210 H227 0.931 . S
C211 C204 1.399 . S
C211 C208 1.487 . S
C211 N228 1.343 1_655 S
H212 C184 0.931 . S
H213 C186 0.930 . S
H214 C188 0.930 . S
H215 C189 0.931 . S
H216 C191 0.931 . S
H217 C193 0.930 . S
H218 C195 0.930 . S
H219 C196 0.931 . S
H220 C198 0.931 . S
H221 C200 0.930 . S
H222 C202 0.930 . S
H223 C203 0.931 . S
H224 C205 0.931 . S
H225 C207 0.930 . S
H226 C209 0.930 . S
H227 C210 0.931 . S
N228 C190 1.343 . S
N228 C211 1.343 1_455 S
N229 C197 1.341 1_655 S
N229 C204 1.345 . S
C230 C231 1.384 . S
C230 C232 1.384 . S
C230 H258 0.931 . S
C231 C230 1.384 . S
C231 C234 1.382 . S
C232 C230 1.384 . S
C232 C233 1.381 . S
C232 H259 0.930 . S
C233 C232 1.381 . S
C233 C235 1.381 . S
C233 C236 1.487 . S
C234 C231 1.382 . S
C234 C235 1.387 . S
C234 H260 0.930 . S
C235 C233 1.381 . S
C235 C234 1.387 . S
C235 H261 0.931 . S
C236 C233 1.487 . S
C236 C243 1.399 . S
C236 N274 1.343 . S
C237 C238 1.384 . S
C237 C239 1.384 . S
C237 H262 0.931 . S
C238 C237 1.384 . S
C238 C241 1.382 . S
C239 C237 1.384 . S
C239 C240 1.381 . S
C239 H263 0.930 . S
C240 C239 1.381 . S
C240 C242 1.381 . S
C240 C243 1.487 . S
C241 C238 1.382 . S
C241 C242 1.387 . S
C241 H264 0.930 . S
C242 C240 1.381 . S
C242 C241 1.387 . S
C242 H265 0.931 . S
C243 C236 1.399 . S
C243 C240 1.487 . S
C243 N275 1.343 . S
C244 C245 1.384 . S
C244 C246 1.384 . S
C244 H266 0.931 . S
C245 C244 1.384 . S
C245 C248 1.382 . S
C246 C244 1.384 . S
C246 C247 1.381 . S
C246 H267 0.930 . S
C247 C246 1.381 . S
C247 C249 1.381 . S
C247 C250 1.487 . S
C248 C245 1.382 . S
C248 C249 1.387 . S
C248 H268 0.930 . S
C249 C247 1.381 . S
C249 C248 1.387 . S
C249 H269 0.931 . S
C250 C247 1.487 . S
C250 C257 1.399 . S
C250 N275 1.343 . S
C251 C252 1.384 . S
C251 C253 1.384 . S
C251 H270 0.931 . S
C252 C251 1.384 . S
C252 C255 1.382 . S
C253 C251 1.384 . S
C253 C254 1.381 . S
C253 H271 0.930 . S
C254 C253 1.381 . S
C254 C256 1.381 . S
C254 C257 1.487 . S
C255 C252 1.382 . S
C255 C256 1.387 . S
C255 H272 0.930 . S
C256 C254 1.381 . S
C256 C255 1.387 . S
C256 H273 0.931 . S
C257 C250 1.399 . S
C257 C254 1.487 . S
C257 N274 1.343 . S
H258 C230 0.931 . S
H259 C232 0.930 . S
H260 C234 0.930 . S
H261 C235 0.931 . S
H262 C237 0.931 . S
H263 C239 0.930 . S
H264 C241 0.930 . S
H265 C242 0.931 . S
H266 C244 0.931 . S
H267 C246 0.930 . S
H268 C248 0.930 . S
H269 C249 0.931 . S
H270 C251 0.931 . S
H271 C253 0.930 . S
H272 C255 0.930 . S
H273 C256 0.931 . S
N274 C236 1.343 . S
N274 C257 1.343 . S
N275 C243 1.343 . S
N275 C250 1.343 . S
C276 C277 1.384 . S
C276 C278 1.384 . S
C276 H304 0.931 . S
C277 C276 1.384 . S
C277 C280 1.382 . S
C278 C276 1.384 . S
C278 C279 1.381 . S
C278 H305 0.930 . S
C279 C278 1.381 . S
C279 C281 1.381 . S
C279 C282 1.487 . S
C280 C277 1.382 . S
C280 C281 1.387 . S
C280 H306 0.930 . S
C281 C279 1.381 . S
C281 C280 1.387 . S
C281 H307 0.931 1_565 S
C282 C279 1.487 . S
C282 C289 1.399 . S
C282 N320 1.343 1_565 S
C283 C284 1.384 . S
C283 C285 1.384 . S
C283 H308 0.931 . S
C284 C283 1.384 . S
C284 C287 1.382 . S
C285 C283 1.384 . S
C285 C286 1.381 . S
C285 H309 0.930 . S
C286 C285 1.381 . S
C286 C288 1.381 . S
C286 C289 1.487 . S
C287 C284 1.382 . S
C287 C288 1.387 . S
C287 H310 0.930 . S
C288 C286 1.381 . S
C288 C287 1.387 . S
C288 H311 0.931 . S
C289 C282 1.399 . S
C289 C286 1.487 . S
C289 N321 1.343 1_565 S
C290 C291 1.384 . S
C290 C292 1.384 . S
C290 H312 0.931 . S
C291 C290 1.384 . S
C291 C294 1.382 . S
C292 C290 1.384 . S
C292 C293 1.381 . S
C292 H313 0.930 . S
C293 C292 1.381 . S
C293 C295 1.381 . S
C293 C296 1.487 . S
C294 C291 1.382 . S
C294 C295 1.387 . S
C294 H314 0.930 . S
C295 C293 1.381 . S
C295 C294 1.387 . S
C295 H315 0.931 . S
C296 C293 1.487 . S
C296 C303 1.399 . S
C296 N321 1.343 . S
C297 C298 1.384 . S
C297 C299 1.384 . S
C297 H316 0.931 . S
C298 C297 1.384 . S
C298 C301 1.382 . S
C299 C297 1.384 . S
C299 C300 1.381 . S
C299 H317 0.930 . S
C300 C299 1.381 . S
C300 C302 1.381 . S
C300 C303 1.487 . S
C301 C298 1.382 . S
C301 C302 1.387 . S
C301 H318 0.930 . S
C302 C300 1.381 . S
C302 C301 1.387 . S
C302 H319 0.931 . S
C303 C296 1.399 . S
C303 C300 1.487 . S
C303 N320 1.343 . S
H304 C276 0.931 . S
H305 C278 0.930 . S
H306 C280 0.930 . S
H307 C281 0.931 1_545 S
H308 C283 0.931 . S
H309 C285 0.930 . S
H310 C287 0.930 . S
H311 C288 0.931 . S
H312 C290 0.931 . S
H313 C292 0.930 . S
H314 C294 0.930 . S
H315 C295 0.931 . S
H316 C297 0.931 . S
H317 C299 0.930 . S
H318 C301 0.930 . S
H319 C302 0.931 . S
N320 C282 1.343 1_545 S
N320 C303 1.343 . S
N321 C289 1.343 1_545 S
N321 C296 1.343 . S
C322 C323 1.384 . S
C322 C324 1.384 1_565 S
C322 H350 0.931 . S
C323 C322 1.384 . S
C323 C326 1.382 . S
C324 C322 1.384 1_545 S
C324 C325 1.381 . S
C324 H351 0.930 . S
C325 C324 1.381 . S
C325 C327 1.381 1_545 S
C325 C328 1.487 . S
C326 C323 1.382 . S
C326 C327 1.387 . S
C326 H352 0.930 . S
C327 C325 1.381 1_565 S
C327 C326 1.387 . S
C327 H353 0.931 1_565 S
C328 C325 1.487 . S
C328 C335 1.399 . S
C328 N366 1.343 . S
C329 C330 1.384 . S
C329 C331 1.384 . S
C329 H354 0.931 . S
C330 C329 1.384 . S
C330 C333 1.382 1_565 S
C331 C329 1.384 . S
C331 C332 1.381 1_565 S
C331 H355 0.930 . S
C332 C331 1.381 1_545 S
C332 C334 1.381 . S
C332 C335 1.487 . S
C333 C330 1.382 1_545 S
C333 C334 1.387 . S
C333 H356 0.930 . S
C334 C332 1.381 . S
C334 C333 1.387 . S
C334 H357 0.931 . S
C335 C328 1.399 . S
C335 C332 1.487 . S
C335 N367 1.343 . S
C336 C337 1.384 . S
C336 C338 1.384 . S
C336 H358 0.931 . S
C337 C336 1.384 . S
C337 C340 1.382 1_655 S
C338 C336 1.384 . S
C338 C339 1.381 1_655 S
C338 H359 0.930 . S
C339 C338 1.381 1_455 S
C339 C341 1.381 . S
C339 C342 1.487 . S
C340 C337 1.382 1_455 S
C340 C341 1.387 . S
C340 H360 0.930 . S
C341 C339 1.381 . S
C341 C340 1.387 . S
C341 H361 0.931 . S
C342 C339 1.487 . S
C342 C349 1.399 . S
C342 N367 1.343 . S
C343 C344 1.384 1_455 S
C343 C345 1.384 . S
C343 H362 0.931 . S
C344 C343 1.384 1_655 S
C344 C347 1.382 . S
C345 C343 1.384 . S
C345 C346 1.381 . S
C345 H363 0.930 . S
C346 C345 1.381 . S
C346 C348 1.381 . S
C346 C349 1.487 . S
C347 C344 1.382 . S
C347 C348 1.387 1_655 S
C347 H364 0.930 . S
C348 C346 1.381 . S
C348 C347 1.387 1_455 S
C348 H365 0.931 . S
C349 C342 1.399 . S
C349 C346 1.487 . S
C349 N366 1.343 . S
H350 C322 0.931 . S
H351 C324 0.930 . S
H352 C326 0.930 . S
H353 C327 0.931 1_545 S
H354 C329 0.931 . S
H355 C331 0.930 . S
H356 C333 0.930 . S
H357 C334 0.931 . S
H358 C336 0.931 . S
H359 C338 0.930 . S
H360 C340 0.930 . S
H361 C341 0.931 . S
H362 C343 0.931 . S
H363 C345 0.930 . S
H364 C347 0.930 . S
H365 C348 0.931 . S
N366 C328 1.343 . S
N366 C349 1.343 . S
N367 C335 1.343 . S
N367 C342 1.343 . S
Zn368 O371 2.031 . S
Zn368 O373 2.032 1_556 S
Zn368 O378 2.067 . S
Zn369 O370 1.962 . S
Zn369 O372 1.986 . S
Zn369 O374 1.996 . S
Zn369 O377 1.943 . S
O370 Zn369 1.962 . S
O370 C375 1.254 . S
O371 Zn368 2.031 . S
O371 C375 1.269 1_556 S
O372 Zn369 1.986 . S
O372 C379 1.262 . S
O373 Zn368 2.032 1_554 S
O373 C381 1.306 . S
O374 Zn369 1.996 . S
O374 C381 1.257 . S
C375 O370 1.254 . S
C375 O371 1.269 1_554 S
C376 O377 1.249 1_556 S
C376 O378 1.270 . S
O377 Zn369 1.943 . S
O377 C376 1.249 1_554 S
O378 Zn368 2.067 . S
O378 C376 1.270 . S
C379 O372 1.262 . S
C379 O380 1.232 . S
O380 C379 1.232 . S
C381 O373 1.306 . S
C381 O374 1.257 . S
Zn382 O385 2.031 . S
Zn382 O387 2.049 . S
Zn382 O392 2.067 . S
Zn383 O384 1.962 . S
Zn383 O386 1.986 . S
Zn383 O388 1.996 . S
Zn383 O391 1.943 . S
O384 Zn383 1.962 . S
O384 C389 1.254 . S
O385 Zn382 2.031 . S
O385 C389 1.269 . S
O386 Zn383 1.986 . S
O386 C393 1.262 . S
O387 Zn382 2.049 . S
O387 C395 1.260 . S
O388 Zn383 1.996 . S
O388 C395 1.257 . S
C389 O384 1.254 . S
C389 O385 1.269 . S
C390 O391 1.249 . S
C390 O392 1.270 . S
O391 Zn383 1.943 . S
O391 C390 1.249 . S
O392 Zn382 2.067 . S
O392 C390 1.270 . S
C393 O386 1.262 . S
C393 O394 1.232 . S
O394 C393 1.232 . S
C395 O387 1.260 . S
C395 O388 1.257 . S
Zn396 O399 2.031 . S
Zn396 O401 2.049 . S
Zn396 O406 2.067 . S
Zn397 O398 1.962 . S
Zn397 O400 1.986 . S
Zn397 O402 1.996 . S
Zn397 O405 1.943 . S
O398 Zn397 1.962 . S
O398 C403 1.254 . S
O399 Zn396 2.031 . S
O399 C403 1.269 . S
O400 Zn397 1.986 . S
O400 C407 1.262 . S
O401 Zn396 2.049 . S
O401 C409 1.260 . S
O402 Zn397 1.996 . S
O402 C409 1.257 . S
C403 O398 1.254 . S
C403 O399 1.269 . S
C404 O405 1.249 . S
C404 O406 1.270 . S
O405 Zn397 1.943 . S
O405 C404 1.249 . S
O406 Zn396 2.067 . S
O406 C404 1.270 . S
C407 O400 1.262 . S
C407 O408 1.232 . S
O408 C407 1.232 . S
C409 O401 1.260 . S
C409 O402 1.257 . S
Zn410 O413 2.031 . S
Zn410 O415 2.049 . S
Zn410 O420 2.067 . S
Zn411 O412 1.962 . S
Zn411 O414 1.986 . S
Zn411 O416 1.996 . S
Zn411 O419 1.943 . S
O412 Zn411 1.962 . S
O412 C417 1.254 . S
O413 Zn410 2.031 . S
O413 C417 1.269 . S
O414 Zn411 1.986 . S
O414 C421 1.262 . S
O415 Zn410 2.049 . S
O415 C423 1.260 . S
O416 Zn411 1.996 . S
O416 C423 1.257 . S
C417 O412 1.254 . S
C417 O413 1.269 . S
C418 O419 1.249 . S
C418 O420 1.270 . S
O419 Zn411 1.943 . S
O419 C418 1.249 . S
O420 Zn410 2.067 . S
O420 C418 1.270 . S
C421 O414 1.262 . S
C421 O422 1.232 . S
O422 C421 1.232 . S
C423 O415 1.260 . S
C423 O416 1.257 . S
Zn424 O427 2.031 . S
Zn424 O429 2.049 . S
Zn424 O434 2.067 . S
Zn425 O426 1.962 . S
Zn425 O428 1.986 . S
Zn425 O430 1.996 . S
Zn425 O433 1.943 . S
O426 Zn425 1.962 . S
O426 C431 1.254 . S
O427 Zn424 2.031 . S
O427 C431 1.269 . S
O428 Zn425 1.986 . S
O428 C435 1.262 . S
O429 Zn424 2.049 . S
O429 C437 1.260 . S
O430 Zn425 1.996 . S
O430 C437 1.257 . S
C431 O426 1.254 . S
C431 O427 1.269 . S
C432 O433 1.249 . S
C432 O434 1.270 . S
O433 Zn425 1.943 . S
O433 C432 1.249 . S
O434 Zn424 2.067 . S
O434 C432 1.270 . S
C435 O428 1.262 . S
C435 O436 1.232 . S
O436 C435 1.232 . S
C437 O429 1.260 . S
C437 O430 1.257 . S
Zn438 O441 2.031 . S
Zn438 O443 2.049 . S
Zn438 O448 2.067 . S
Zn439 O440 1.962 . S
Zn439 O442 1.986 . S
Zn439 O444 1.996 . S
Zn439 O447 1.943 . S
O440 Zn439 1.962 . S
O440 C445 1.254 . S
O441 Zn438 2.031 . S
O441 C445 1.269 . S
O442 Zn439 1.986 . S
O442 C449 1.262 . S
O443 Zn438 2.049 . S
O443 C451 1.260 . S
O444 Zn439 1.996 . S
O444 C451 1.257 . S
C445 O440 1.254 . S
C445 O441 1.269 . S
C446 O447 1.249 . S
C446 O448 1.270 . S
O447 Zn439 1.943 . S
O447 C446 1.249 . S
O448 Zn438 2.067 . S
O448 C446 1.270 . S
C449 O442 1.262 . S
C449 O450 1.232 . S
O450 C449 1.232 . S
C451 O443 1.260 . S
C451 O444 1.257 . S
Zn452 O455 2.031 . S
Zn452 O457 2.049 . S
Zn452 O462 2.067 . S
Zn453 O454 1.962 . S
Zn453 O456 1.986 . S
Zn453 O458 1.996 . S
Zn453 O461 1.943 1_556 S
O454 Zn453 1.962 . S
O454 C459 1.254 1_556 S
O455 Zn452 2.031 . S
O455 C459 1.269 . S
O456 Zn453 1.986 . S
O456 C463 1.262 . S
O457 Zn452 2.049 . S
O457 C465 1.276 . S
O458 Zn453 1.996 . S
O458 C465 1.252 1_556 S
C459 O454 1.254 1_554 S
C459 O455 1.269 . S
C460 O461 1.249 . S
C460 O462 1.270 . S
O461 Zn453 1.943 1_554 S
O461 C460 1.249 . S
O462 Zn452 2.067 . S
O462 C460 1.270 . S
C463 O456 1.262 . S
C463 O464 1.232 . S
O464 C463 1.232 . S
C465 O457 1.276 . S
C465 O458 1.252 1_554 S
Zn466 O469 2.031 . S
Zn466 O471 2.049 . S
Zn466 O476 2.067 . S
Zn467 O468 1.962 . S
Zn467 O470 1.986 . S
Zn467 O472 1.996 . S
Zn467 O475 1.943 . S
O468 Zn467 1.962 . S
O468 C473 1.254 . S
O469 Zn466 2.031 . S
O469 C473 1.269 . S
O470 Zn467 1.986 . S
O470 C477 1.262 . S
O471 Zn466 2.049 . S
O471 C479 1.260 . S
O472 Zn467 1.996 . S
O472 C479 1.257 . S
C473 O468 1.254 . S
C473 O469 1.269 . S
C474 O475 1.249 . S
C474 O476 1.270 . S
O475 Zn467 1.943 . S
O475 C474 1.249 . S
O476 Zn466 2.067 . S
O476 C474 1.270 . S
C477 O470 1.262 . S
C477 O478 1.232 . S
O478 C477 1.232 . S
C479 O471 1.260 . S
C479 O472 1.257 . S
H480 C488 0.950 . S
H481 C493 0.950 . S
H482 C490 0.950 . S
H483 C492 0.950 . S
H484 C494 0.950 . S
H485 C496 0.950 . S
H486 C498 0.950 . S
H487 C499 0.950 . S
C488 H480 0.950 . S
C488 C489 1.386 . S
C488 C490 1.391 . S
C489 C488 1.386 . S
C489 C493 1.393 . S
C490 H482 0.950 . S
C490 C488 1.391 . S
C490 C491 1.400 . S
C491 C490 1.400 . S
C491 C492 1.398 . S
C491 C497 1.491 . S
C492 H483 0.950 . S
C492 C491 1.398 . S
C492 C493 1.391 . S
C493 H481 0.950 . S
C493 C489 1.393 . S
C493 C492 1.391 . S
C494 H484 0.950 . S
C494 C495 1.386 . S
C494 C496 1.391 . S
C495 C494 1.386 . S
C495 C499 1.393 . S
C496 H485 0.950 . S
C496 C494 1.391 . S
C496 C497 1.400 . S
C497 C491 1.491 . S
C497 C496 1.400 . S
C497 C498 1.398 . S
C498 H486 0.950 . S
C498 C497 1.398 . S
C498 C499 1.391 . S
C499 H487 0.950 . S
C499 C495 1.393 . S
C499 C498 1.391 . S
H500 C508 0.950 . S
H501 C513 0.950 . S
H502 C510 0.950 . S
H503 C512 0.950 . S
H504 C514 0.950 . S
H505 C516 0.950 . S
H506 C518 0.950 . S
H507 C519 0.950 . S
C508 H500 0.950 . S
C508 C509 1.386 . S
C508 C510 1.391 . S
C509 C508 1.386 . S
C509 C513 1.393 . S
C510 H502 0.950 . S
C510 C508 1.391 . S
C510 C511 1.400 . S
C511 C510 1.400 . S
C511 C512 1.398 . S
C511 C517 1.491 . S
C512 H503 0.950 . S
C512 C511 1.398 . S
C512 C513 1.391 . S
C513 H501 0.950 . S
C513 C509 1.393 . S
C513 C512 1.391 . S
C514 H504 0.950 . S
C514 C515 1.386 . S
C514 C516 1.391 . S
C515 C514 1.386 . S
C515 C519 1.393 . S
C516 H505 0.950 . S
C516 C514 1.391 . S
C516 C517 1.400 . S
C517 C511 1.491 . S
C517 C516 1.400 . S
C517 C518 1.398 . S
C518 H506 0.950 . S
C518 C517 1.398 . S
C518 C519 1.391 . S
C519 H507 0.950 . S
C519 C515 1.393 . S
C519 C518 1.391 . S
H520 C528 0.950 . S
H521 C533 0.950 . S
H522 C530 0.950 . S
H523 C532 0.950 . S
H524 C534 0.950 . S
H525 C536 0.950 . S
H526 C538 0.950 . S
H527 C539 0.950 . S
C528 H520 0.950 . S
C528 C529 1.386 . S
C528 C530 1.391 . S
C529 C528 1.386 . S
C529 C533 1.393 . S
C530 H522 0.950 . S
C530 C528 1.391 . S
C530 C531 1.400 . S
C531 C530 1.400 . S
C531 C532 1.398 . S
C531 C537 1.491 . S
C532 H523 0.950 . S
C532 C531 1.398 . S
C532 C533 1.391 . S
C533 H521 0.950 . S
C533 C529 1.393 . S
C533 C532 1.391 . S
C534 H524 0.950 . S
C534 C535 1.386 . S
C534 C536 1.391 . S
C535 C534 1.386 . S
C535 C539 1.393 . S
C536 H525 0.950 . S
C536 C534 1.391 . S
C536 C537 1.400 . S
C537 C531 1.491 . S
C537 C536 1.400 . S
C537 C538 1.398 . S
C538 H526 0.950 . S
C538 C537 1.398 . S
C538 C539 1.391 . S
C539 H527 0.950 . S
C539 C535 1.393 . S
C539 C538 1.391 . S
H540 C548 0.950 . S
H541 C553 0.950 . S
H542 C550 0.950 . S
H543 C552 0.950 . S
H544 C554 0.950 . S
H545 C556 0.950 . S
H546 C558 0.950 . S
H547 C559 0.950 . S
C548 H540 0.950 . S
C548 C549 1.386 . S
C548 C550 1.391 . S
C549 C548 1.386 . S
C549 C553 1.393 . S
C550 H542 0.950 . S
C550 C548 1.391 . S
C550 C551 1.400 . S
C551 C550 1.400 . S
C551 C552 1.398 . S
C551 C557 1.491 . S
C552 H543 0.950 . S
C552 C551 1.398 . S
C552 C553 1.391 . S
C553 H541 0.950 . S
C553 C549 1.393 . S
C553 C552 1.391 . S
C554 H544 0.950 . S
C554 C555 1.386 . S
C554 C556 1.391 . S
C555 C554 1.386 . S
C555 C559 1.393 . S
C556 H545 0.950 . S
C556 C554 1.391 . S
C556 C557 1.400 . S
C557 C551 1.491 . S
C557 C556 1.400 . S
C557 C558 1.398 . S
C558 H546 0.950 . S
C558 C557 1.398 . S
C558 C559 1.391 . S
C559 H547 0.950 . S
C559 C555 1.393 . S
C559 C558 1.391 . S
H560 C568 0.950 . S
H561 C573 0.945 1_554 S
H562 C570 0.950 . S
H563 C572 0.950 . S
H564 C574 0.950 . S
H565 C576 0.950 . S
H566 C578 0.950 . S
H567 C579 0.950 . S
C568 H560 0.950 . S
C568 C569 1.386 . S
C568 C570 1.391 . S
C569 C568 1.386 . S
C569 C573 1.399 . S
C570 H562 0.950 . S
C570 C568 1.391 . S
C570 C571 1.400 . S
C571 C570 1.400 . S
C571 C572 1.398 1_556 S
C571 C577 1.491 . S
C572 H563 0.950 . S
C572 C571 1.398 1_554 S
C572 C573 1.389 1_554 S
C573 H561 0.945 1_556 S
C573 C569 1.399 . S
C573 C572 1.389 1_556 S
C574 H564 0.950 . S
C574 C575 1.386 . S
C574 C576 1.391 . S
C575 C574 1.386 . S
C575 C579 1.393 1_554 S
C576 H565 0.950 . S
C576 C574 1.391 . S
C576 C577 1.400 1_554 S
C577 C571 1.491 . S
C577 C576 1.400 1_556 S
C577 C578 1.398 . S
C578 H566 0.950 . S
C578 C577 1.398 . S
C578 C579 1.391 . S
C579 H567 0.950 . S
C579 C575 1.393 1_556 S
C579 C578 1.391 . S
H580 C588 0.950 . S
H581 C593 0.950 . S
H582 C590 0.950 . S
H583 C592 0.950 . S
H584 C594 0.950 . S
H585 C596 0.950 . S
H586 C598 0.950 . S
H587 C599 0.950 . S
C588 H580 0.950 . S
C588 C589 1.386 . S
C588 C590 1.391 . S
C589 C588 1.386 . S
C589 C593 1.393 . S
C590 H582 0.950 . S
C590 C588 1.391 . S
C590 C591 1.400 . S
C591 C590 1.400 . S
C591 C592 1.398 . S
C591 C597 1.491 . S
C592 H583 0.950 . S
C592 C591 1.398 . S
C592 C593 1.391 . S
C593 H581 0.950 . S
C593 C589 1.393 . S
C593 C592 1.391 . S
C594 H584 0.950 . S
C594 C595 1.386 . S
C594 C596 1.391 . S
C595 C594 1.386 . S
C595 C599 1.393 . S
C596 H585 0.950 . S
C596 C594 1.391 . S
C596 C597 1.400 . S
C597 C591 1.491 . S
C597 C596 1.400 . S
C597 C598 1.398 . S
C598 H586 0.950 . S
C598 C597 1.398 . S
C598 C599 1.391 . S
C599 H587 0.950 . S
C599 C595 1.393 . S
C599 C598 1.391 . S
H600 C608 0.950 . S
H601 C613 0.950 . S
H602 C610 0.950 . S
H603 C612 0.950 . S
H604 C614 0.950 . S
H605 C616 0.950 . S
H606 C618 0.950 . S
H607 C619 0.950 . S
C608 H600 0.950 . S
C608 C609 1.386 . S
C608 C610 1.391 . S
C609 C608 1.386 . S
C609 C613 1.393 . S
C610 H602 0.950 . S
C610 C608 1.391 . S
C610 C611 1.400 . S
C611 C610 1.400 . S
C611 C612 1.398 . S
C611 C617 1.491 . S
C612 H603 0.950 . S
C612 C611 1.398 . S
C612 C613 1.391 . S
C613 H601 0.950 . S
C613 C609 1.393 . S
C613 C612 1.391 . S
C614 H604 0.950 . S
C614 C615 1.386 . S
C614 C616 1.391 . S
C615 C614 1.386 . S
C615 C619 1.393 . S
C616 H605 0.950 . S
C616 C614 1.391 . S
C616 C617 1.400 . S
C617 C611 1.491 . S
C617 C616 1.400 . S
C617 C618 1.398 . S
C618 H606 0.950 . S
C618 C617 1.398 . S
C618 C619 1.391 . S
C619 H607 0.950 . S
C619 C615 1.393 . S
C619 C618 1.391 . S
H620 C628 0.950 . S
H621 C633 0.950 . S
H622 C630 0.950 . S
H623 C632 0.950 . S
H624 C634 0.950 . S
H625 C636 0.950 . S
H626 C638 0.950 . S
H627 C639 0.950 . S
C628 H620 0.950 . S
C628 C629 1.386 . S
C628 C630 1.391 . S
C629 C628 1.386 . S
C629 C633 1.393 . S
C630 H622 0.950 . S
C630 C628 1.391 . S
C630 C631 1.400 . S
C631 C630 1.400 . S
C631 C632 1.398 . S
C631 C637 1.491 . S
C632 H623 0.950 . S
C632 C631 1.398 . S
C632 C633 1.391 . S
C633 H621 0.950 . S
C633 C629 1.393 . S
C633 C632 1.391 . S
C634 H624 0.950 . S
C634 C635 1.386 . S
C634 C636 1.391 . S
C635 C634 1.386 . S
C635 C639 1.393 . S
C636 H625 0.950 . S
C636 C634 1.391 . S
C636 C637 1.400 . S
C637 C631 1.491 . S
C637 C636 1.400 . S
C637 C638 1.398 . S
C638 H626 0.950 . S
C638 C637 1.398 . S
C638 C639 1.391 . S
C639 H627 0.950 . S
C639 C635 1.393 . S
C639 C638 1.391 . S
H640 C648 0.950 . S
H641 C653 0.950 . S
H642 C650 0.950 . S
H643 C652 0.950 . S
H644 C654 0.950 . S
H645 C656 0.950 . S
H646 C658 0.950 . S
H647 C659 0.950 . S
C648 H640 0.950 . S
C648 C649 1.386 . S
C648 C650 1.391 . S
C649 C648 1.386 . S
C649 C653 1.393 . S
C650 H642 0.950 . S
C650 C648 1.391 . S
C650 C651 1.400 . S
C651 C650 1.400 . S
C651 C652 1.398 . S
C651 C657 1.491 . S
C652 H643 0.950 . S
C652 C651 1.398 . S
C652 C653 1.391 . S
C653 H641 0.950 . S
C653 C649 1.393 . S
C653 C652 1.391 . S
C654 H644 0.950 . S
C654 C655 1.386 . S
C654 C656 1.391 . S
C655 C654 1.386 . S
C655 C659 1.393 . S
C656 H645 0.950 . S
C656 C654 1.391 . S
C656 C657 1.400 . S
C657 C651 1.491 . S
C657 C656 1.400 . S
C657 C658 1.398 . S
C658 H646 0.950 . S
C658 C657 1.398 . S
C658 C659 1.391 . S
C659 H647 0.950 . S
C659 C655 1.393 . S
C659 C658 1.391 . S
H660 C668 0.950 . S
H661 C673 0.950 . S
H662 C670 0.950 . S
H663 C672 0.950 . S
H664 C674 0.950 . S
H665 C676 0.950 . S
H666 C678 0.950 . S
H667 C679 0.950 . S
C668 H660 0.950 . S
C668 C669 1.386 . S
C668 C670 1.391 . S
C669 C668 1.386 . S
C669 C673 1.393 . S
C670 H662 0.950 . S
C670 C668 1.391 . S
C670 C671 1.400 . S
C671 C670 1.400 . S
C671 C672 1.398 . S
C671 C677 1.491 . S
C672 H663 0.950 . S
C672 C671 1.398 . S
C672 C673 1.391 . S
C673 H661 0.950 . S
C673 C669 1.393 . S
C673 C672 1.391 . S
C674 H664 0.950 . S
C674 C675 1.386 . S
C674 C676 1.391 . S
C675 C674 1.386 . S
C675 C679 1.393 . S
C676 H665 0.950 . S
C676 C674 1.391 . S
C676 C677 1.400 . S
C677 C671 1.491 . S
C677 C676 1.400 . S
C677 C678 1.398 . S
C678 H666 0.950 . S
C678 C677 1.398 . S
C678 C679 1.391 . S
C679 H667 0.950 . S
C679 C675 1.393 . S
C679 C678 1.391 . S
H680 C688 0.950 . S
H681 C693 0.950 . S
H682 C690 0.950 . S
H683 C692 0.950 . S
H684 C694 0.950 . S
H685 C696 0.950 . S
H686 C698 0.950 . S
H687 C699 0.950 . S
C688 H680 0.950 . S
C688 C689 1.386 . S
C688 C690 1.391 . S
C689 C688 1.386 . S
C689 C693 1.393 . S
C690 H682 0.950 . S
C690 C688 1.391 . S
C690 C691 1.400 . S
C691 C690 1.400 . S
C691 C692 1.398 . S
C691 C697 1.491 . S
C692 H683 0.950 . S
C692 C691 1.398 . S
C692 C693 1.391 . S
C693 H681 0.950 . S
C693 C689 1.393 . S
C693 C692 1.391 . S
C694 H684 0.950 . S
C694 C695 1.386 . S
C694 C696 1.391 . S
C695 C694 1.386 . S
C695 C699 1.393 . S
C696 H685 0.950 . S
C696 C694 1.391 . S
C696 C697 1.400 . S
C697 C691 1.491 . S
C697 C696 1.400 . S
C697 C698 1.398 . S
C698 H686 0.950 . S
C698 C697 1.398 . S
C698 C699 1.391 . S
C699 H687 0.950 . S
C699 C695 1.393 . S
C699 C698 1.391 . S
H700 C708 0.950 . S
H701 C713 0.950 . S
H702 C710 0.950 . S
H703 C712 0.950 . S
H704 C714 0.950 . S
H705 C716 0.950 . S
H706 C718 0.950 . S
H707 C719 0.950 . S
C708 H700 0.950 . S
C708 C709 1.386 . S
C708 C710 1.391 . S
C709 C708 1.386 . S
C709 C713 1.393 . S
C710 H702 0.950 . S
C710 C708 1.391 . S
C710 C711 1.400 . S
C711 C710 1.400 . S
C711 C712 1.398 . S
C711 C717 1.491 . S
C712 H703 0.950 . S
C712 C711 1.398 . S
C712 C713 1.391 . S
C713 H701 0.950 . S
C713 C709 1.393 . S
C713 C712 1.391 . S
C714 H704 0.950 . S
C714 C715 1.386 . S
C714 C716 1.391 . S
C715 C714 1.386 . S
C715 C719 1.393 . S
C716 H705 0.950 . S
C716 C714 1.391 . S
C716 C717 1.400 . S
C717 C711 1.491 . S
C717 C716 1.400 . S
C717 C718 1.398 . S
C718 H706 0.950 . S
C718 C717 1.398 . S
C718 C719 1.391 . S
C719 H707 0.950 . S
C719 C715 1.393 . S
C719 C718 1.391 . S
H720 C728 0.950 . S
H721 C733 0.950 . S
H722 C730 0.950 . S
H723 C732 0.950 . S
H724 C734 0.950 . S
H725 C736 0.950 . S
H726 C738 0.950 . S
H727 C739 0.950 . S
C728 H720 0.950 . S
C728 C729 1.386 . S
C728 C730 1.391 . S
C729 C728 1.386 . S
C729 C733 1.393 . S
C730 H722 0.950 . S
C730 C728 1.391 . S
C730 C731 1.400 . S
C731 C730 1.400 . S
C731 C732 1.398 . S
C731 C737 1.491 . S
C732 H723 0.950 . S
C732 C731 1.398 . S
C732 C733 1.391 . S
C733 H721 0.950 . S
C733 C729 1.393 . S
C733 C732 1.391 . S
C734 H724 0.950 . S
C734 C735 1.386 . S
C734 C736 1.391 . S
C735 C734 1.386 . S
C735 C739 1.393 . S
C736 H725 0.950 . S
C736 C734 1.391 . S
C736 C737 1.400 . S
C737 C731 1.491 . S
C737 C736 1.400 . S
C737 C738 1.398 . S
C738 H726 0.950 . S
C738 C737 1.398 . S
C738 C739 1.391 . S
C739 H727 0.950 . S
C739 C735 1.393 . S
C739 C738 1.391 . S
H740 C748 0.950 . S
H741 C753 0.950 . S
H742 C750 0.950 . S
H743 C752 0.950 . S
H744 C754 0.950 . S
H745 C756 0.950 . S
H746 C758 0.950 . S
H747 C759 0.950 . S
C748 H740 0.950 . S
C748 C749 1.386 . S
C748 C750 1.391 . S
C749 C748 1.386 . S
C749 C753 1.393 . S
C750 H742 0.950 . S
C750 C748 1.391 . S
C750 C751 1.400 . S
C751 C750 1.400 . S
C751 C752 1.398 . S
C751 C757 1.491 . S
C752 H743 0.950 . S
C752 C751 1.398 . S
C752 C753 1.391 . S
C753 H741 0.950 . S
C753 C749 1.393 . S
C753 C752 1.391 . S
C754 H744 0.950 . S
C754 C755 1.386 . S
C754 C756 1.391 . S
C755 C754 1.386 . S
C755 C759 1.393 . S
C756 H745 0.950 . S
C756 C754 1.391 . S
C756 C757 1.400 . S
C757 C751 1.491 . S
C757 C756 1.400 . S
C757 C758 1.398 . S
C758 H746 0.950 . S
C758 C757 1.398 . S
C758 C759 1.391 . S
C759 H747 0.950 . S
C759 C755 1.393 . S
C759 C758 1.391 . S
H760 C768 0.950 . S
H761 C773 0.950 . S
H762 C770 0.950 . S
H763 C772 0.950 . S
H764 C774 0.950 1_554 S
H765 C776 0.950 . S
H766 C778 0.950 . S
H767 C779 0.950 . S
C768 H760 0.950 . S
C768 C769 1.386 . S
C768 C770 1.391 . S
C769 C768 1.386 . S
C769 C773 1.393 . S
C770 H762 0.950 . S
C770 C768 1.391 . S
C770 C771 1.400 . S
C771 C770 1.400 . S
C771 C772 1.398 . S
C771 C777 1.491 . S
C772 H763 0.950 . S
C772 C771 1.398 . S
C772 C773 1.391 . S
C773 H761 0.950 . S
C773 C769 1.393 . S
C773 C772 1.391 . S
C774 H764 0.950 1_556 S
C774 C775 1.386 . S
C774 C776 1.391 . S
C775 C774 1.386 . S
C775 C779 1.393 . S
C776 H765 0.950 . S
C776 C774 1.391 . S
C776 C777 1.400 . S
C777 C771 1.491 . S
C777 C776 1.400 . S
C777 C778 1.398 . S
C778 H766 0.950 . S
C778 C777 1.398 . S
C778 C779 1.391 . S
C779 H767 0.950 . S
C779 C775 1.393 . S
C779 C778 1.391 . S
H780 C788 0.950 . S
H781 C793 0.950 . S
H782 C790 0.950 . S
H783 C792 0.950 . S
H784 C794 0.950 . S
H785 C796 0.950 . S
H786 C798 0.950 . S
H787 C799 0.950 . S
C788 H780 0.950 . S
C788 C789 1.386 . S
C788 C790 1.391 . S
C789 C788 1.386 . S
C789 C793 1.393 . S
C790 H782 0.950 . S
C790 C788 1.391 . S
C790 C791 1.400 . S
C791 C790 1.400 . S
C791 C792 1.398 . S
C791 C797 1.491 . S
C792 H783 0.950 . S
C792 C791 1.398 . S
C792 C793 1.391 . S
C793 H781 0.950 . S
C793 C789 1.393 . S
C793 C792 1.391 . S
C794 H784 0.950 . S
C794 C795 1.386 . S
C794 C796 1.391 . S
C795 C794 1.386 . S
C795 C799 1.393 . S
C796 H785 0.950 . S
C796 C794 1.391 . S
C796 C797 1.400 . S
C797 C791 1.491 . S
C797 C796 1.400 . S
C797 C798 1.398 . S
C798 H786 0.950 . S
C798 C797 1.398 . S
C798 C799 1.391 . S
C799 H787 0.950 . S
C799 C795 1.393 . S
C799 C798 1.391 . S
H800 C808 0.950 . S
H801 C813 0.950 . S
H802 C810 0.950 . S
H803 C812 0.950 . S
H804 C814 0.950 . S
H805 C816 0.950 . S
H806 C818 0.950 . S
H807 C819 0.950 . S
C808 H800 0.950 . S
C808 C809 1.386 . S
C808 C810 1.391 . S
C809 C808 1.386 . S
C809 C813 1.393 . S
C810 H802 0.950 . S
C810 C808 1.391 . S
C810 C811 1.400 . S
C811 C810 1.400 . S
C811 C812 1.398 . S
C811 C817 1.491 . S
C812 H803 0.950 . S
C812 C811 1.398 . S
C812 C813 1.391 . S
C813 H801 0.950 . S
C813 C809 1.393 . S
C813 C812 1.391 . S
C814 H804 0.950 . S
C814 C815 1.386 . S
C814 C816 1.391 . S
C815 C814 1.386 . S
C815 C819 1.393 . S
C816 H805 0.950 . S
C816 C814 1.391 . S
C816 C817 1.400 . S
C817 C811 1.491 . S
C817 C816 1.400 . S
C817 C818 1.398 . S
C818 H806 0.950 . S
C818 C817 1.398 . S
C818 C819 1.391 . S
C819 H807 0.950 . S
C819 C815 1.393 . S
C819 C818 1.391 . S
H820 C828 0.950 . S
H821 C833 0.950 . S
H822 C830 0.950 . S
H823 C832 0.950 . S
H824 C834 0.950 . S
H825 C836 0.950 . S
H826 C838 0.950 . S
H827 C839 0.950 . S
C828 H820 0.950 . S
C828 C829 1.386 . S
C828 C830 1.391 . S
C829 C828 1.386 . S
C829 C833 1.393 . S
C830 H822 0.950 . S
C830 C828 1.391 . S
C830 C831 1.400 . S
C831 C830 1.400 . S
C831 C832 1.398 . S
C831 C837 1.491 . S
C832 H823 0.950 . S
C832 C831 1.398 . S
C832 C833 1.391 . S
C833 H821 0.950 . S
C833 C829 1.393 . S
C833 C832 1.391 . S
C834 H824 0.950 . S
C834 C835 1.386 . S
C834 C836 1.391 . S
C835 C834 1.386 . S
C835 C839 1.393 . S
C836 H825 0.950 . S
C836 C834 1.391 . S
C836 C837 1.400 . S
C837 C831 1.491 . S
C837 C836 1.400 . S
C837 C838 1.398 . S
C838 H826 0.950 . S
C838 C837 1.398 . S
C838 C839 1.391 . S
C839 H827 0.950 . S
C839 C835 1.393 . S
C839 C838 1.391 . S
H840 C848 0.950 . S
H841 C853 0.950 . S
H842 C850 0.950 . S
H843 C852 0.950 . S
H844 C854 0.950 . S
H845 C856 0.950 . S
H846 C858 0.950 . S
H847 C859 0.950 . S
C848 H840 0.950 . S
C848 C849 1.386 . S
C848 C850 1.391 . S
C849 C848 1.386 . S
C849 C853 1.393 . S
C850 H842 0.950 . S
C850 C848 1.391 . S
C850 C851 1.400 . S
C851 C850 1.400 . S
C851 C852 1.398 . S
C851 C857 1.491 . S
C852 H843 0.950 . S
C852 C851 1.398 . S
C852 C853 1.391 . S
C853 H841 0.950 . S
C853 C849 1.393 . S
C853 C852 1.391 . S
C854 H844 0.950 . S
C854 C855 1.386 . S
C854 C856 1.391 . S
C855 C854 1.386 . S
C855 C859 1.393 . S
C856 H845 0.950 . S
C856 C854 1.391 . S
C856 C857 1.400 . S
C857 C851 1.491 . S
C857 C856 1.400 . S
C857 C858 1.398 . S
C858 H846 0.950 . S
C858 C857 1.398 . S
C858 C859 1.391 . S
C859 H847 0.950 . S
C859 C855 1.393 . S
C859 C858 1.391 . S
H860 C868 0.950 . S
H861 C873 0.950 . S
H862 C870 0.950 . S
H863 C872 0.950 . S
H864 C874 0.950 . S
H865 C876 0.950 . S
H866 C878 0.950 . S
H867 C879 0.950 . S
C868 H860 0.950 . S
C868 C869 1.386 . S
C868 C870 1.391 . S
C869 C868 1.386 . S
C869 C873 1.393 . S
C870 H862 0.950 . S
C870 C868 1.391 . S
C870 C871 1.400 . S
C871 C870 1.400 . S
C871 C872 1.398 . S
C871 C877 1.491 . S
C872 H863 0.950 . S
C872 C871 1.398 . S
C872 C873 1.391 . S
C873 H861 0.950 . S
C873 C869 1.393 . S
C873 C872 1.391 . S
C874 H864 0.950 . S
C874 C875 1.386 . S
C874 C876 1.391 . S
C875 C874 1.386 . S
C875 C879 1.393 . S
C876 H865 0.950 . S
C876 C874 1.391 . S
C876 C877 1.400 . S
C877 C871 1.491 . S
C877 C876 1.400 . S
C877 C878 1.398 . S
C878 H866 0.950 . S
C878 C877 1.398 . S
C878 C879 1.391 . S
C879 H867 0.950 . S
C879 C875 1.393 . S
C879 C878 1.391 . S
H880 C888 0.950 . S
H881 C893 0.950 . S
H882 C890 0.950 . S
H883 C892 0.950 . S
H884 C894 0.950 . S
H885 C896 0.950 . S
H886 C898 0.950 . S
H887 C899 0.950 . S
C888 H880 0.950 . S
C888 C889 1.386 . S
C888 C890 1.391 . S
C889 C888 1.386 . S
C889 C893 1.393 . S
C890 H882 0.950 . S
C890 C888 1.391 . S
C890 C891 1.400 . S
C891 C890 1.400 . S
C891 C892 1.398 . S
C891 C897 1.491 . S
C892 H883 0.950 . S
C892 C891 1.398 . S
C892 C893 1.391 . S
C893 H881 0.950 . S
C893 C889 1.393 . S
C893 C892 1.391 . S
C894 H884 0.950 . S
C894 C895 1.386 . S
C894 C896 1.391 . S
C895 C894 1.386 . S
C895 C899 1.393 . S
C896 H885 0.950 . S
C896 C894 1.391 . S
C896 C897 1.400 . S
C897 C891 1.491 . S
C897 C896 1.400 . S
C897 C898 1.398 . S
C898 H886 0.950 . S
C898 C897 1.398 . S
C898 C899 1.391 . S
C899 H887 0.950 . S
C899 C895 1.393 . S
C899 C898 1.391 . S
H900 C908 0.950 . S
H901 C913 0.950 . S
H902 C910 0.950 . S
H903 C912 0.950 . S
H904 C914 0.950 . S
H905 C916 0.950 . S
H906 C918 0.950 . S
H907 C919 0.950 . S
C908 H900 0.950 . S
C908 C909 1.386 . S
C908 C910 1.391 . S
C909 C908 1.386 . S
C909 C913 1.393 . S
C910 H902 0.950 . S
C910 C908 1.391 . S
C910 C911 1.400 . S
C911 C910 1.400 . S
C911 C912 1.398 . S
C911 C917 1.491 . S
C912 H903 0.950 . S
C912 C911 1.398 . S
C912 C913 1.391 . S
C913 H901 0.950 . S
C913 C909 1.393 . S
C913 C912 1.391 . S
C914 H904 0.950 . S
C914 C915 1.386 . S
C914 C916 1.391 . S
C915 C914 1.386 . S
C915 C919 1.393 . S
C916 H905 0.950 . S
C916 C914 1.391 . S
C916 C917 1.400 . S
C917 C911 1.491 . S
C917 C916 1.400 . S
C917 C918 1.398 . S
C918 H906 0.950 . S
C918 C917 1.398 . S
C918 C919 1.391 . S
C919 H907 0.950 . S
C919 C915 1.393 . S
C919 C918 1.391 . S
H920 C928 0.950 . S
H921 C933 0.950 . S
H922 C930 0.950 . S
H923 C932 0.950 . S
H924 C934 0.950 . S
H925 C936 0.950 . S
H926 C938 0.950 . S
H927 C939 0.950 . S
C928 H920 0.950 . S
C928 C929 1.386 . S
C928 C930 1.391 . S
C929 C928 1.386 . S
C929 C933 1.393 . S
C930 H922 0.950 . S
C930 C928 1.391 . S
C930 C931 1.400 . S
C931 C930 1.400 . S
C931 C932 1.398 . S
C931 C937 1.491 . S
C932 H923 0.950 . S
C932 C931 1.398 . S
C932 C933 1.391 . S
C933 H921 0.950 . S
C933 C929 1.393 . S
C933 C932 1.391 . S
C934 H924 0.950 . S
C934 C935 1.386 . S
C934 C936 1.391 . S
C935 C934 1.386 . S
C935 C939 1.393 . S
C936 H925 0.950 . S
C936 C934 1.391 . S
C936 C937 1.400 . S
C937 C931 1.491 . S
C937 C936 1.400 . S
C937 C938 1.398 . S
C938 H926 0.950 . S
C938 C937 1.398 . S
C938 C939 1.391 . S
C939 H927 0.950 . S
C939 C935 1.393 . S
C939 C938 1.391 . S
H940 C948 0.950 . S
H941 C953 0.950 . S
H942 C950 0.950 . S
H943 C952 0.950 . S
H944 C954 0.950 . S
H945 C956 0.950 . S
H946 C958 0.950 . S
H947 C959 0.950 . S
C948 H940 0.950 . S
C948 C949 1.386 . S
C948 C950 1.391 . S
C949 C948 1.386 . S
C949 C953 1.393 . S
C950 H942 0.950 . S
C950 C948 1.391 . S
C950 C951 1.400 . S
C951 C950 1.400 . S
C951 C952 1.398 . S
C951 C957 1.491 . S
C952 H943 0.950 . S
C952 C951 1.398 . S
C952 C953 1.391 . S
C953 H941 0.950 . S
C953 C949 1.393 . S
C953 C952 1.391 . S
C954 H944 0.950 . S
C954 C955 1.386 . S
C954 C956 1.391 . S
C955 C954 1.386 . S
C955 C959 1.393 . S
C956 H945 0.950 . S
C956 C954 1.391 . S
C956 C957 1.400 . S
C957 C951 1.491 . S
C957 C956 1.400 . S
C957 C958 1.398 . S
C958 H946 0.950 . S
C958 C957 1.398 . S
C958 C959 1.391 . S
C959 H947 0.950 . S
C959 C955 1.393 . S
C959 C958 1.391 . S
H960 C968 0.950 . S
H961 C973 0.950 . S
H962 C970 0.950 . S
H963 C972 0.950 . S
H964 C974 0.950 . S
H965 C976 0.950 . S
H966 C978 0.950 . S
H967 C979 0.950 . S
C968 H960 0.950 . S
C968 C969 1.386 . S
C968 C970 1.391 . S
C969 C968 1.386 . S
C969 C973 1.393 . S
C970 H962 0.950 . S
C970 C968 1.391 . S
C970 C971 1.400 . S
C971 C970 1.400 . S
C971 C972 1.398 . S
C971 C977 1.491 . S
C972 H963 0.950 . S
C972 C971 1.398 . S
C972 C973 1.391 . S
C973 H961 0.950 . S
C973 C969 1.393 . S
C973 C972 1.391 . S
C974 H964 0.950 . S
C974 C975 1.386 . S
C974 C976 1.391 . S
C975 C974 1.386 . S
C975 C979 1.393 . S
C976 H965 0.950 . S
C976 C974 1.391 . S
C976 C977 1.400 . S
C977 C971 1.491 . S
C977 C976 1.400 . S
C977 C978 1.398 . S
C978 H966 0.950 . S
C978 C977 1.398 . S
C978 C979 1.391 . S
C979 H967 0.950 . S
C979 C975 1.393 . S
C979 C978 1.391 . S
H980 C988 0.950 . S
H981 C993 0.950 . S
H982 C990 0.950 . S
H983 C992 0.950 . S
H984 C994 0.950 . S
H985 C996 0.950 . S
H986 C998 0.950 . S
H987 C999 0.950 . S
C988 H980 0.950 . S
C988 C989 1.386 . S
C988 C990 1.391 . S
C989 C988 1.386 . S
C989 C993 1.393 . S
C990 H982 0.950 . S
C990 C988 1.391 . S
C990 C991 1.400 . S
C991 C990 1.400 . S
C991 C992 1.398 . S
C991 C997 1.491 . S
C992 H983 0.950 . S
C992 C991 1.398 . S
C992 C993 1.391 . S
C993 H981 0.950 . S
C993 C989 1.393 . S
C993 C992 1.391 . S
C994 H984 0.950 . S
C994 C995 1.386 . S
C994 C996 1.391 . S
C995 C994 1.386 . S
C995 C999 1.393 . S
C996 H985 0.950 . S
C996 C994 1.391 . S
C996 C997 1.400 . S
C997 C991 1.491 . S
C997 C996 1.400 . S
C997 C998 1.398 . S
C998 H986 0.950 . S
C998 C997 1.398 . S
C998 C999 1.391 . S
C999 H987 0.950 . S
C999 C995 1.393 . S
C999 C998 1.391 . S
H1000 C1008 0.950 . S
H1001 C1013 0.950 1_455 S
H1002 C1010 0.950 . S
H1003 C1012 0.950 . S
H1004 C1014 0.950 . S
H1005 C1016 0.950 . S
H1006 C1018 0.950 . S
H1007 C1019 0.950 . S
C1008 H1000 0.950 . S
C1008 C1009 1.386 . S
C1008 C1010 1.391 . S
C1009 C1008 1.386 . S
C1009 C1013 1.393 . S
C1010 H1002 0.950 . S
C1010 C1008 1.391 . S
C1010 C1011 1.400 . S
C1011 C1010 1.400 . S
C1011 C1012 1.398 . S
C1011 C1017 1.491 . S
C1012 H1003 0.950 . S
C1012 C1011 1.398 . S
C1012 C1013 1.391 . S
C1013 H1001 0.950 1_655 S
C1013 C1009 1.393 . S
C1013 C1012 1.391 . S
C1014 H1004 0.950 . S
C1014 C1015 1.386 . S
C1014 C1016 1.391 . S
C1015 C1014 1.386 . S
C1015 C1019 1.393 . S
C1016 H1005 0.950 . S
C1016 C1014 1.391 . S
C1016 C1017 1.400 . S
C1017 C1011 1.491 . S
C1017 C1016 1.400 . S
C1017 C1018 1.398 . S
C1018 H1006 0.950 . S
C1018 C1017 1.398 . S
C1018 C1019 1.391 . S
C1019 H1007 0.950 . S
C1019 C1015 1.393 . S
C1019 C1018 1.391 . S
H1020 C1028 0.950 . S
H1021 C1033 0.950 . S
H1022 C1030 0.950 . S
H1023 C1032 0.950 . S
H1024 C1034 0.950 . S
H1025 C1036 0.950 . S
H1026 C1038 0.950 . S
H1027 C1039 0.950 . S
C1028 H1020 0.950 . S
C1028 C1029 1.386 . S
C1028 C1030 1.391 . S
C1029 C1028 1.386 . S
C1029 C1033 1.393 . S
C1030 H1022 0.950 . S
C1030 C1028 1.391 . S
C1030 C1031 1.400 . S
C1031 C1030 1.400 . S
C1031 C1032 1.398 . S
C1031 C1037 1.491 . S
C1032 H1023 0.950 . S
C1032 C1031 1.398 . S
C1032 C1033 1.391 . S
C1033 H1021 0.950 . S
C1033 C1029 1.393 . S
C1033 C1032 1.391 . S
C1034 H1024 0.950 . S
C1034 C1035 1.386 . S
C1034 C1036 1.391 . S
C1035 C1034 1.386 . S
C1035 C1039 1.393 . S
C1036 H1025 0.950 . S
C1036 C1034 1.391 . S
C1036 C1037 1.400 . S
C1037 C1031 1.491 . S
C1037 C1036 1.400 . S
C1037 C1038 1.398 . S
C1038 H1026 0.950 . S
C1038 C1037 1.398 . S
C1038 C1039 1.391 . S
C1039 H1027 0.950 . S
C1039 C1035 1.393 . S
C1039 C1038 1.391 . S
H1040 C1048 0.950 . S
H1041 C1053 0.950 . S
H1042 C1050 0.950 . S
H1043 C1052 0.950 . S
H1044 C1054 0.950 . S
H1045 C1056 0.950 . S
H1046 C1058 0.950 . S
H1047 C1059 0.950 . S
C1048 H1040 0.950 . S
C1048 C1049 1.386 . S
C1048 C1050 1.391 . S
C1049 C1048 1.386 . S
C1049 C1053 1.393 . S
C1050 H1042 0.950 . S
C1050 C1048 1.391 . S
C1050 C1051 1.400 . S
C1051 C1050 1.400 . S
C1051 C1052 1.398 . S
C1051 C1057 1.491 . S
C1052 H1043 0.950 . S
C1052 C1051 1.398 . S
C1052 C1053 1.391 . S
C1053 H1041 0.950 . S
C1053 C1049 1.393 . S
C1053 C1052 1.391 . S
C1054 H1044 0.950 . S
C1054 C1055 1.386 . S
C1054 C1056 1.391 . S
C1055 C1054 1.386 . S
C1055 C1059 1.393 . S
C1056 H1045 0.950 . S
C1056 C1054 1.391 . S
C1056 C1057 1.400 . S
C1057 C1051 1.491 . S
C1057 C1056 1.400 . S
C1057 C1058 1.398 . S
C1058 H1046 0.950 . S
C1058 C1057 1.398 . S
C1058 C1059 1.391 . S
C1059 H1047 0.950 . S
C1059 C1055 1.393 . S
C1059 C1058 1.391 . S
H1060 C1068 0.950 1_455 S
H1061 C1073 0.950 . S
H1062 C1070 0.950 . S
H1063 C1072 0.950 . S
H1064 C1074 0.950 . S
H1065 C1076 0.950 . S
H1066 C1078 0.950 . S
H1067 C1079 0.950 . S
C1068 H1060 0.950 1_655 S
C1068 C1069 1.386 . S
C1068 C1070 1.391 . S
C1069 C1068 1.386 . S
C1069 C1073 1.393 . S
C1070 H1062 0.950 . S
C1070 C1068 1.391 . S
C1070 C1071 1.400 . S
C1071 C1070 1.400 . S
C1071 C1072 1.398 . S
C1071 C1077 1.491 . S
C1072 H1063 0.950 . S
C1072 C1071 1.398 . S
C1072 C1073 1.391 . S
C1073 H1061 0.950 . S
C1073 C1069 1.393 . S
C1073 C1072 1.391 . S
C1074 H1064 0.950 . S
C1074 C1075 1.386 . S
C1074 C1076 1.391 . S
C1075 C1074 1.386 . S
C1075 C1079 1.393 . S
C1076 H1065 0.950 . S
C1076 C1074 1.391 . S
C1076 C1077 1.400 . S
C1077 C1071 1.491 . S
C1077 C1076 1.400 . S
C1077 C1078 1.398 . S
C1078 H1066 0.950 . S
C1078 C1077 1.398 . S
C1078 C1079 1.391 . S
C1079 H1067 0.950 . S
C1079 C1075 1.393 . S
C1079 C1078 1.391 . S
H1080 C1088 0.950 . S
H1081 C1093 0.950 . S
H1082 C1090 0.950 . S
H1083 C1092 0.950 . S
H1084 C1094 0.950 . S
H1085 C1096 0.950 . S
H1086 C1098 0.950 . S
H1087 C1099 0.950 . S
C1088 H1080 0.950 . S
C1088 C1089 1.386 . S
C1088 C1090 1.391 . S
C1089 C1088 1.386 . S
C1089 C1093 1.393 . S
C1090 H1082 0.950 . S
C1090 C1088 1.391 . S
C1090 C1091 1.400 . S
C1091 C1090 1.400 . S
C1091 C1092 1.398 . S
C1091 C1097 1.491 . S
C1092 H1083 0.950 . S
C1092 C1091 1.398 . S
C1092 C1093 1.391 . S
C1093 H1081 0.950 . S
C1093 C1089 1.393 . S
C1093 C1092 1.391 . S
C1094 H1084 0.950 . S
C1094 C1095 1.386 . S
C1094 C1096 1.391 . S
C1095 C1094 1.386 . S
C1095 C1099 1.393 . S
C1096 H1085 0.950 . S
C1096 C1094 1.391 . S
C1096 C1097 1.400 . S
C1097 C1091 1.491 . S
C1097 C1096 1.400 . S
C1097 C1098 1.398 . S
C1098 H1086 0.950 . S
C1098 C1097 1.398 . S
C1098 C1099 1.391 . S
C1099 H1087 0.950 . S
C1099 C1095 1.393 . S
C1099 C1098 1.391 . S
H1100 C1108 0.950 . S
H1101 C1113 0.950 . S
H1102 C1110 0.950 . S
H1103 C1112 0.950 . S
H1104 C1114 0.950 . S
H1105 C1116 0.950 . S
H1106 C1118 0.950 . S
H1107 C1119 0.950 . S
C1108 H1100 0.950 . S
C1108 C1109 1.386 . S
C1108 C1110 1.391 . S
C1109 C1108 1.386 . S
C1109 C1113 1.393 . S
C1110 H1102 0.950 . S
C1110 C1108 1.391 . S
C1110 C1111 1.400 . S
C1111 C1110 1.400 . S
C1111 C1112 1.398 . S
C1111 C1117 1.491 . S
C1112 H1103 0.950 . S
C1112 C1111 1.398 . S
C1112 C1113 1.391 . S
C1113 H1101 0.950 . S
C1113 C1109 1.393 . S
C1113 C1112 1.391 . S
C1114 H1104 0.950 . S
C1114 C1115 1.386 . S
C1114 C1116 1.391 . S
C1115 C1114 1.386 . S
C1115 C1119 1.393 . S
C1116 H1105 0.950 . S
C1116 C1114 1.391 . S
C1116 C1117 1.400 . S
C1117 C1111 1.491 . S
C1117 C1116 1.400 . S
C1117 C1118 1.398 . S
C1118 H1106 0.950 . S
C1118 C1117 1.398 . S
C1118 C1119 1.391 . S
C1119 H1107 0.950 . S
C1119 C1115 1.393 . S
C1119 C1118 1.391 . S
C495 C389 1.335 . S
C489 C8 1.309 . S
C515 C409 1.388 . S
C509 C61 1.392 . S
C535 C423 1.405 . S
C529 C107 1.411 . S
C549 C139 1.387 . S
C555 C381 1.385 . S
C569 C192 1.409 . S
C575 C375 1.448 . S
C589 C238 1.367 . S
C595 C395 1.374 . S
C615 C403 1.308 . S
C609 C284 1.300 . S
C635 C417 1.396 . S
C629 C330 1.350 . S
C649 C100 1.357 . S
C655 C445 1.400 . S
C675 C459 1.312 . S
C669 C160 1.300 . S
C689 C15 1.380 . S
C695 C479 1.388 . S
C715 C431 1.448 . S
C709 C54 1.402 . S
C729 C291 1.396 . S
C735 C437 1.394 . S
C749 C337 1.405 . S
C755 C451 1.397 . S
C775 C465 1.381 1_556 S
C769 C199 1.393 . S
C789 C245 1.303 . S
C795 C473 1.336 . S
C815 C404 1.724 . S
C809 C1 1.714 . S
C835 C418 1.743 . S
C829 C68 1.716 . S
C849 C114 1.634 . S
C855 C376 1.662 . S
C869 C146 1.484 . S
C875 C393 1.497 . S
C889 C185 1.363 . S
C895 C421 1.375 . S
C915 C379 1.344 . S
C909 C231 1.342 . S
C935 C390 1.560 . S
C929 C277 1.550 . S
C955 C407 1.437 . S
C949 C323 1.429 . S
C975 C463 1.434 . S
C969 C93 1.435 . S
C995 C474 1.556 . S
C989 C153 1.543 . S
C1009 C22 1.333 . S
C1015 C435 1.348 . S
C1035 C449 1.370 . S
C1029 C47 1.370 . S
C1055 C477 1.498 . S
C1049 C298 1.471 . S
C1069 C344 1.629 . S
C1075 C432 1.664 . S
C1095 C446 1.738 . S
C1089 C206 1.714 . S
C1115 C460 1.729 . S
C1109 C252 1.707 . S
