# Generated by pormake.
# Topology pyr, (3,6)-cn, num edge types: 1
# Building blocks:
#     Node 0, Type 0, BuildingBlock: BETDAH_clean_linker_0, # of connection points: 3
#     Node 1, Type 0, BuildingBlock: BETDAH_clean_linker_0, # of connection points: 3
#     Node 2, Type 0, BuildingBlock: BETDAH_clean_linker_0, # of connection points: 3
#     Node 3, Type 0, BuildingBlock: BETDAH_clean_linker_0, # of connection points: 3
#     Node 4, Type 0, BuildingBlock: BETDAH_clean_linker_0, # of connection points: 3
#     Node 5, Type 0, BuildingBlock: BETDAH_clean_linker_0, # of connection points: 3
#     Node 6, Type 0, BuildingBlock: BETDAH_clean_linker_0, # of connection points: 3
#     Node 7, Type 0, BuildingBlock: BETDAH_clean_linker_0, # of connection points: 3
#     Node 8, Type 1, BuildingBlock: FUNLAD_clean_sbu_0, # of connection points: 6
#     Node 9, Type 1, BuildingBlock: FUNLAD_clean_sbu_0, # of connection points: 6
#     Node 10, Type 1, BuildingBlock: FUNLAD_clean_sbu_0, # of connection points: 6
#     Node 11, Type 1, BuildingBlock: FUNLAD_clean_sbu_0, # of connection points: 6
#     Edge 12, Type (0, 1), BuildingBlock: KIFKEQ_clean_linker_1, # of connection points: 2
#     Edge 13, Type (0, 1), BuildingBlock: KIFKEQ_clean_linker_1, # of connection points: 2
#     Edge 14, Type (0, 1), BuildingBlock: KIFKEQ_clean_linker_1, # of connection points: 2
#     Edge 15, Type (0, 1), BuildingBlock: KIFKEQ_clean_linker_1, # of connection points: 2
#     Edge 16, Type (0, 1), BuildingBlock: KIFKEQ_clean_linker_1, # of connection points: 2
#     Edge 17, Type (0, 1), BuildingBlock: KIFKEQ_clean_linker_1, # of connection points: 2
#     Edge 18, Type (0, 1), BuildingBlock: KIFKEQ_clean_linker_1, # of connection points: 2
#     Edge 19, Type (0, 1), BuildingBlock: KIFKEQ_clean_linker_1, # of connection points: 2
#     Edge 20, Type (0, 1), BuildingBlock: KIFKEQ_clean_linker_1, # of connection points: 2
#     Edge 21, Type (0, 1), BuildingBlock: KIFKEQ_clean_linker_1, # of connection points: 2
#     Edge 22, Type (0, 1), BuildingBlock: KIFKEQ_clean_linker_1, # of connection points: 2
#     Edge 23, Type (0, 1), BuildingBlock: KIFKEQ_clean_linker_1, # of connection points: 2
#     Edge 24, Type (0, 1), BuildingBlock: KIFKEQ_clean_linker_1, # of connection points: 2
#     Edge 25, Type (0, 1), BuildingBlock: KIFKEQ_clean_linker_1, # of connection points: 2
#     Edge 26, Type (0, 1), BuildingBlock: KIFKEQ_clean_linker_1, # of connection points: 2
#     Edge 27, Type (0, 1), BuildingBlock: KIFKEQ_clean_linker_1, # of connection points: 2
#     Edge 28, Type (0, 1), BuildingBlock: KIFKEQ_clean_linker_1, # of connection points: 2
#     Edge 29, Type (0, 1), BuildingBlock: KIFKEQ_clean_linker_1, # of connection points: 2
#     Edge 30, Type (0, 1), BuildingBlock: KIFKEQ_clean_linker_1, # of connection points: 2
#     Edge 31, Type (0, 1), BuildingBlock: KIFKEQ_clean_linker_1, # of connection points: 2
#     Edge 32, Type (0, 1), BuildingBlock: KIFKEQ_clean_linker_1, # of connection points: 2
#     Edge 33, Type (0, 1), BuildingBlock: KIFKEQ_clean_linker_1, # of connection points: 2
#     Edge 34, Type (0, 1), BuildingBlock: KIFKEQ_clean_linker_1, # of connection points: 2
#     Edge 35, Type (0, 1), BuildingBlock: KIFKEQ_clean_linker_1, # of connection points: 2
# Relax obj value: 0.199
# Max RMSD: 0.208
# Mean RMSD: 0.131
data_MOF--net-pry--node1-FUNLAD_clean_sbu_0--node2-BETDAH_clean_linker_0--edge1-KIFKEQ_clean_linker_1
_symmetry_space_group_name_H-M    P1
_symmetry_Int_Tables_number       1
_symmetry_cell_setting            triclinic
loop_
_symmetry_equiv_pos_as_xyz
'x, y, z'
_cell_length_a     34.590382
_cell_length_b     37.419994
_cell_length_c     39.219231
_cell_angle_alpha  90.169704
_cell_angle_beta   90.479933
_cell_angle_gamma 87.875484
loop_
_atom_site_label
_atom_site_type_symbol
_atom_site_fract_x
_atom_site_fract_y
_atom_site_fract_z
_atom_type_partial_charge
H0 H 0.20593 0.1606 0.2452 0.0
H1 H 0.18712 0.24189 0.16777 0.0
H2 H 0.1042 0.22953 0.24736 0.0
C3 C 0.18912 0.18289 0.23449 0.0
C4 C 0.1541 0.19341 0.25029 0.0
C5 C 0.20154 0.1997 0.20434 0.0
C6 C 0.17817 0.22823 0.19051 0.0
C7 C 0.14295 0.23892 0.2061 0.0
C8 C 0.13127 0.22113 0.23553 0.0
N9 N 0.11733 0.26652 0.1931 0.0
C10 C 0.12393 0.29205 0.16805 0.0
H11 H 0.44816 0.87353 0.78078 0.0
H12 H 0.39462 0.9784 0.76934 0.0
H13 H 0.38571 0.90262 0.68808 0.0
C14 C 0.43111 0.89257 0.76565 0.0
C15 C 0.41829 0.88316 0.73237 0.0
C16 C 0.42247 0.92696 0.77922 0.0
C17 C 0.40089 0.95173 0.75944 0.0
C18 C 0.38656 0.94262 0.72729 0.0
C19 C 0.3952 0.90849 0.7138 0.0
N20 N 0.36638 0.96961 0.70813 0.0
C21 C 0.33437 0.96436 0.68718 0.0
H22 H 0.66989 0.45626 1.02514 0.0
H23 H 0.63793 0.56842 1.01731 0.0
H24 H 0.5501 0.49124 1.02468 0.0
C25 C 0.64805 0.47778 1.02437 0.0
C26 C 0.60883 0.46957 1.02571 0.0
C27 C 0.65915 0.51345 1.02192 0.0
C28 C 0.63028 0.54091 1.02117 0.0
C29 C 0.5911 0.5329 1.02263 0.0
C30 C 0.5805 0.49732 1.0253 0.0
N31 N 0.56268 0.55946 1.01404 0.0
C32 C 0.55364 0.56304 0.97975 0.0
H33 H 0.88942 0.68213 0.51802 0.0
H34 H 0.966 0.63738 0.44239 0.0
H35 H 0.87375 0.57527 0.48022 0.0
C36 C 0.89878 0.6596 0.50231 0.0
C37 C 0.87753 0.6283 0.50208 0.0
C38 C 0.93043 0.66307 0.48064 0.0
C39 C 0.94181 0.63451 0.45943 0.0
C40 C 0.92179 0.60253 0.45979 0.0
C41 C 0.89017 0.59935 0.4815 0.0
N42 N 0.93104 0.57452 0.43648 0.0
C43 C 0.94521 0.58189 0.40434 0.0
H44 H 0.95294 0.88427 0.82581 0.0
H45 H 0.85577 0.88595 0.89499 0.0
H46 H 0.85681 0.95934 0.81198 0.0
C47 C 0.92505 0.89515 0.83388 0.0
C48 C 0.90764 0.92416 0.81547 0.0
C49 C 0.90694 0.88094 0.86314 0.0
C50 C 0.87103 0.8967 0.87357 0.0
C51 C 0.85341 0.92513 0.8552 0.0
C52 C 0.87151 0.93807 0.8263 0.0
N53 N 0.81634 0.94036 0.86343 0.0
C54 C 0.79903 0.94138 0.89539 0.0
H55 H 0.70787 0.15918 0.35688 0.0
H56 H 0.68686 0.23372 0.43985 0.0
H57 H 0.60215 0.2229 0.36057 0.0
C58 C 0.68997 0.17964 0.3692 0.0
C59 C 0.6543 0.19014 0.35393 0.0
C60 C 0.70237 0.19485 0.40039 0.0
C61 C 0.67829 0.22159 0.41599 0.0
C62 C 0.64218 0.23167 0.40143 0.0
C63 C 0.63052 0.21564 0.37087 0.0
N64 N 0.61465 0.25454 0.41842 0.0
C65 C 0.62171 0.28569 0.43677 0.0
H66 H 0.38025 0.67744 0.08113 0.0
H67 H 0.37562 0.56794 0.1138 0.0
H68 H 0.46116 0.6363 0.15586 0.0
C69 C 0.39143 0.65527 0.09647 0.0
C70 C 0.4222 0.66082 0.11908 0.0
C71 C 0.37326 0.62239 0.09507 0.0
C72 C 0.38941 0.59346 0.11387 0.0
C73 C 0.4213 0.59823 0.13558 0.0
C74 C 0.43755 0.63206 0.13818 0.0
N75 N 0.4344 0.56958 0.1568 0.0
C76 C 0.44781 0.57563 0.18973 0.0
H77 H 0.17578 0.45346 0.58836 0.0
H78 H 0.14858 0.56687 0.58518 0.0
H79 H 0.05734 0.49277 0.58903 0.0
C80 C 0.1548 0.4757 0.58817 0.0
C81 C 0.11515 0.46886 0.58857 0.0
C82 C 0.16742 0.51098 0.58665 0.0
C83 C 0.13967 0.53942 0.5852 0.0
C84 C 0.10019 0.5328 0.58615 0.0
C85 C 0.088 0.4976 0.58772 0.0
N86 N 0.07302 0.56172 0.58933 0.0
C87 C 0.05239 0.565 0.61935 0.0
C88 C 0.05463 0.08736 0.4705 0.0
N89 N 0.03711 0.13909 0.56461 0.0
C90 C 0.07177 0.15291 0.55683 0.0
C91 C 0.07886 0.18846 0.56409 0.0
C92 C 0.05019 0.20997 0.57982 0.0
C93 C 1.01557 0.19467 0.58961 0.0
C94 C 1.00945 0.15885 0.58146 0.0
Zn95 Zn 0.02683 0.08999 0.54462 0.0
C96 C 0.95001 0.08948 0.50844 0.0
N97 N 1.00951 0.98911 0.49838 0.0
C98 C 0.03971 0.97032 0.48409 0.0
C99 C 0.97436 0.97453 0.50201 0.0
C100 C 0.96894 0.9392 0.49224 0.0
C101 C 1.00017 0.91866 0.47911 0.0
C102 C 0.03573 0.93472 0.47446 0.0
Zn103 Zn 0.01836 0.03803 0.51903 0.0
O104 O 0.0513 0.10727 0.49677 0.0
C105 C 0.09474 0.03948 0.55593 0.0
O106 O 0.04317 0.05551 0.47219 0.0
H107 H 0.95091 0.98984 0.51378 0.0
H108 H 0.09338 0.1368 0.54346 0.0
H109 H 0.06735 0.98253 0.48133 0.0
O110 O 0.08194 0.07106 0.56203 0.0
O111 O 0.0744 1.01911 0.53765 0.0
H112 H 0.98204 0.14733 0.58722 0.0
O113 O 0.99388 1.0204 0.56636 0.0
O114 O 1.00315 0.0715 0.59206 0.0
O115 O 0.96246 0.05801 0.50082 0.0
O116 O 0.97084 0.1088 0.52736 0.0
C117 C 0.99208 0.03939 0.59336 0.0
H118 H 0.10603 0.1994 0.55645 0.0
H119 H 0.99281 0.21069 0.60169 0.0
H120 H 0.94121 0.92753 0.49657 0.0
H121 H 0.06036 0.91964 0.46426 0.0
C122 C 0.58791 0.0365 0.04672 0.0
N123 N 0.53354 0.13824 0.03814 0.0
C124 C 0.56868 0.15113 0.04635 0.0
C125 C 0.57626 0.18683 0.04059 0.0
C126 C 0.54754 0.20941 1.02597 0.0
C127 C 0.51249 0.19501 1.01545 0.0
C128 C 0.50591 0.15902 1.02206 0.0
Zn129 Zn 0.52176 0.08949 0.05759 0.0
C130 C 0.48507 0.04004 1.00883 0.0
N131 N 0.50112 0.98971 0.10353 0.0
C132 C 0.53039 0.9684 0.11646 0.0
C133 C 0.46467 0.97778 0.10009 0.0
C134 C 0.4569 0.94263 0.1082 0.0
C135 C 0.48712 0.91916 0.11915 0.0
C136 C 0.52403 0.93272 0.12435 0.0
Zn137 Zn 0.5121 0.0382 0.08342 0.0
O138 O 0.5767 0.06859 0.04056 0.0
C139 C 0.55063 0.08622 0.13182 0.0
O140 O 0.56662 1.01722 0.06479 0.0
H141 H 0.44188 0.99506 0.08956 0.0
H142 H 0.5902 0.13422 0.05919 0.0
H143 H 0.55914 0.97852 0.1191 0.0
O144 O 0.54693 0.10602 0.10557 0.0
O145 O 0.53863 0.05453 0.13022 0.0
H146 H 0.4781 0.14822 1.01599 0.0
O147 O 0.45734 0.06024 0.10176 0.0
O148 O 0.46625 0.11021 0.07454 0.0
O149 O 0.48634 1.02147 0.03601 0.0
O150 O 0.49715 0.07182 1.00995 0.0
C151 C 0.4454 0.09177 0.09386 0.0
H152 H 0.60377 0.19705 0.04871 0.0
H153 H 0.48968 0.21183 1.00417 0.0
H154 H 0.42775 0.93361 0.10467 0.0
H155 H 0.5482 0.9156 0.13264 0.0
C156 C 0.54886 0.51949 0.55487 0.0
N157 N 0.54498 0.55999 0.65523 0.0
C158 C 0.52813 0.53142 0.66953 0.0
C159 C 0.53136 0.52551 0.70463 0.0
C160 C 0.55237 0.54908 0.72492 0.0
C161 C 0.57095 0.57725 0.70916 0.0
C162 C 0.56672 0.58232 0.67419 0.0
Zn163 Zn 0.53273 0.57502 0.6064 0.0
C164 C 0.60181 0.60671 0.57319 0.0
N165 N 0.50722 0.61278 0.50602 0.0
C166 C 0.48479 0.58955 0.48878 0.0
C167 C 0.52241 0.64122 0.48994 0.0
C168 C 0.51558 0.64665 0.45497 0.0
C169 C 0.49241 0.62289 0.43689 0.0
C170 C 0.47669 0.59434 0.45434 0.0
Zn171 Zn 0.52015 0.5986 0.55544 0.0
O172 O 0.54845 0.52275 0.58718 0.0
C173 C 0.45103 0.56627 0.58743 0.0
O174 O 0.53856 0.54639 0.53669 0.0
H175 H 0.54062 0.6591 0.50395 0.0
H176 H 0.51088 0.51409 0.65397 0.0
H177 H 0.47408 0.56633 0.50138 0.0
O178 O 0.47412 0.55987 0.61222 0.0
O179 O 0.46331 0.58189 0.56127 0.0
H180 H 0.57928 0.60524 0.66248 0.0
O181 O 0.50233 0.65067 0.57532 0.0
O182 O 0.517 0.6275 0.62525 0.0
O183 O 0.57702 0.61502 0.55022 0.0
O184 O 0.5912 0.58999 0.5995 0.0
C185 C 0.50487 0.65419 0.60763 0.0
H186 H 0.51687 0.50331 0.71588 0.0
H187 H 0.58692 0.59634 0.72393 0.0
H188 H 0.52842 0.66885 0.44218 0.0
H189 H 0.45948 0.57493 0.44113 0.0
C190 C 0.9988 0.6534 0.98938 0.0
N191 N 1.00432 0.6127 0.09058 0.0
C192 C 0.02202 0.64055 0.10583 0.0
C193 C 0.01695 0.64721 0.14074 0.0
C194 C 0.99287 0.62538 0.1596 0.0
C195 C 0.97451 0.59743 0.14303 0.0
C196 C 0.981 0.59127 0.10858 0.0
Zn197 Zn 1.01432 0.59751 0.04112 0.0
C198 C 0.9426 0.5676 1.01084 0.0
N199 N 0.03281 0.55809 0.94072 0.0
C200 C 0.05223 0.58142 0.9213 0.0
C201 C 1.01455 0.53004 0.92642 0.0
C202 C 1.01337 0.52608 0.89091 0.0
C203 C 0.03073 0.55153 0.8704 0.0
C204 C 0.05147 0.57867 0.88596 0.0
Zn205 Zn 0.02408 0.57312 0.9901 0.0
O206 O 0.99919 0.65055 1.02178 0.0
C207 C 0.09574 0.60231 1.02211 0.0
O208 O 1.00783 0.62589 0.97161 0.0
H209 H 0.99901 0.51202 0.94236 0.0
H210 H 0.04078 0.65703 0.09118 0.0
H211 H 0.06626 0.6037 0.93309 0.0
O212 O 0.07198 0.61065 0.04555 0.0
O213 O 0.08364 0.58694 0.99529 0.0
H214 H 0.96816 0.56854 0.09651 0.0
O215 O 0.04007 0.52074 1.00904 0.0
O216 O 0.03032 0.54435 0.05958 0.0
O217 O 0.96471 0.55898 0.9862 0.0
O218 O 0.95636 0.584 0.03622 0.0
C219 C 0.04036 0.51737 0.04136 0.0
H220 H 0.03175 0.66891 0.15289 0.0
H221 H 0.95641 0.57956 0.15692 0.0
H222 H 0.99715 0.50478 0.87963 0.0
H223 H 0.06563 0.59848 0.87087 0.0
H224 H 0.08291 0.16695 0.26355 0.0
H225 H 0.19539 0.17975 0.30929 0.0
H226 H 0.06034 0.14022 0.31635 0.0
H227 H 0.17264 0.15337 0.36238 0.0
H228 H 0.09764 0.14687 0.46189 0.0
H229 H 0.12306 0.17065 0.40881 0.0
H230 H 0.07333 0.08413 0.35261 0.0
H231 H 0.04847 0.05994 0.40572 0.0
C232 C 0.10285 0.16402 0.28489 0.0
C233 C 0.14098 0.17554 0.28214 0.0
C234 C 0.08996 0.14851 0.31512 0.0
C235 C 0.11461 0.14467 0.34371 0.0
C236 C 0.15281 0.15611 0.34096 0.0
C237 C 0.16594 0.17099 0.31046 0.0
C238 C 0.09226 0.13278 0.43825 0.0
C239 C 0.07094 0.10143 0.4382 0.0
C240 C 0.10702 0.14635 0.40782 0.0
C241 C 0.10024 0.12936 0.37636 0.0
C242 C 0.0789 0.09803 0.3763 0.0
C243 C 0.06479 0.08407 0.40682 0.0
H244 H 0.47577 0.97642 0.79421 0.0
H245 H 0.39734 0.90541 0.84167 0.0
H246 H 0.4905 1.0028 0.8496 0.0
H247 H 0.41045 0.93269 0.89721 0.0
H248 H 0.46541 0.97065 0.99725 0.0
H249 H 0.45289 0.9413 0.94304 0.0
H250 H 0.46497 0.04178 0.89087 0.0
H251 H 0.47898 0.07077 0.94513 0.0
C252 C 0.46207 0.96616 0.81672 0.0
C253 C 0.4359 0.93847 0.81369 0.0
C254 C 0.46997 0.98169 0.84852 0.0
C255 C 0.45136 0.97048 0.8783 0.0
C256 C 0.42584 0.94198 0.87523 0.0
C257 C 0.41832 0.92615 0.84336 0.0
C258 C 0.46515 0.98663 0.97426 0.0
C259 C 0.47329 1.02323 0.97579 0.0
C260 C 0.45779 0.9697 0.94296 0.0
C261 C 0.45812 0.98882 0.91206 0.0
C262 C 0.46527 0.02571 0.91378 0.0
C263 C 0.47288 0.04258 0.94508 0.0
H264 H 0.60496 0.52728 0.9416 0.0
H265 H 0.4989 0.59141 0.93659 0.0
H266 H 0.60411 0.52035 0.87968 0.0
H267 H 0.49809 0.58512 0.87416 0.0
H268 H 0.49132 0.53744 0.76664 0.0
H269 H 0.49061 0.53924 0.82893 0.0
H270 H 0.61302 0.55843 0.83019 0.0
H271 H 0.61393 0.55561 0.76812 0.0
C272 C 0.58156 0.54001 0.92699 0.0
C273 C 0.55214 0.56004 0.94329 0.0
C274 C 0.5811 0.53615 0.89165 0.0
C275 C 0.55112 0.5523 0.87206 0.0
C276 C 0.52135 0.5721 0.88866 0.0
C277 C 0.52188 0.57597 0.92417 0.0
C278 C 0.5182 0.54131 0.7803 0.0
C279 C 0.55271 0.54635 0.76257 0.0
C280 C 0.51767 0.54284 0.8159 0.0
C281 C 0.55169 0.54922 0.8344 0.0
C282 C 0.58639 0.55322 0.81665 0.0
C283 C 0.58688 0.55183 0.78113 0.0
H284 H 1.00151 0.55322 0.36412 0.0
H285 H 0.91296 0.6371 0.37016 0.0
H286 H 0.01623 0.57154 0.30573 0.0
H287 H 0.92757 0.65573 0.31199 0.0
H288 H 0.92561 0.63174 0.19451 0.0
H289 H 0.91715 0.62646 0.25593 0.0
H290 H 0.04123 0.62158 0.27009 0.0
H291 H 0.04958 0.62677 0.20826 0.0
C292 C 0.9856 0.57582 0.35293 0.0
C293 C 0.95597 0.59367 0.371 0.0
C294 C 0.99415 0.5865 0.31976 0.0
C295 C 0.97297 0.61504 0.3043 0.0
C296 C 0.9441 0.63348 0.32312 0.0
C297 C 0.93575 0.62289 0.35627 0.0
C298 C 0.95101 0.63038 0.21088 0.0
C299 C 0.98821 0.62959 0.19681 0.0
C300 C 0.94622 0.62746 0.24601 0.0
C301 C 0.97855 0.62335 0.26777 0.0
C302 C 0.01583 0.62439 0.25384 0.0
C303 C 0.02062 0.62773 0.21861 0.0
H304 H 0.26937 0.17344 0.23413 0.0
H305 H 0.21773 0.19554 0.13534 0.0
H306 H 0.32654 0.14725 0.20661 0.0
H307 H 0.27588 0.17041 0.10792 0.0
H308 H 0.40566 0.15378 0.0751 0.0
H309 H 0.34725 0.18086 0.10075 0.0
H310 H 0.34378 0.09298 0.1715 0.0
H311 H 0.40187 0.06576 0.14576 0.0
C312 C 0.26993 0.17267 0.20654 0.0
C313 C 0.23823 0.18642 0.18717 0.0
C314 C 0.30297 0.15766 0.19074 0.0
C315 C 0.30581 0.15634 0.155 0.0
C316 C 0.27482 0.17111 0.13551 0.0
C317 C 0.24145 0.18574 0.15133 0.0
C318 C 0.39232 0.14008 0.09599 0.0
C319 C 0.40863 0.1075 0.1083 0.0
C320 C 0.35871 0.15559 0.11063 0.0
C321 C 0.34081 0.13926 0.13836 0.0
C322 C 0.35698 0.10655 0.15046 0.0
C323 C 0.39021 0.09079 0.13552 0.0
H324 H 0.32319 0.94992 0.61979 0.0
H325 H 0.26581 0.98782 0.71082 0.0
H326 H 0.26463 0.96546 0.58601 0.0
H327 H 0.20761 1.00338 0.67746 0.0
H328 H 0.1384 0.07412 0.60276 0.0
H329 H 0.19538 0.05152 0.63357 0.0
H330 H 0.19177 0.95198 0.578 0.0
H331 H 0.13398 0.9746 0.54692 0.0
C332 C 0.29771 0.96081 0.63258 0.0
C333 C 0.29864 0.96757 0.66778 0.0
C334 C 0.2643 0.96973 0.61333 0.0
C335 C 0.23166 0.98604 0.62902 0.0
C336 C 0.23242 0.99133 0.66455 0.0
C337 C 0.26556 0.98217 0.6837 0.0
C338 C 0.14971 0.04747 0.59682 0.0
C339 C 0.13141 0.02616 0.57237 0.0
C340 C 0.1823 0.03441 0.61472 0.0
C341 C 0.19782 0.99979 0.60855 0.0
C342 C 0.18044 0.97877 0.58332 0.0
C343 C 0.14736 0.99172 0.56557 0.0
H344 H 0.69689 0.56922 0.05051 0.0
H345 H 0.71522 0.47698 0.98524 0.0
H346 H 0.76472 0.58299 0.04518 0.0
H347 H 0.78364 0.48959 0.98154 0.0
H348 H 0.89841 0.54272 0.95779 0.0
H349 H 0.82935 0.53049 0.95871 0.0
H350 H 0.82542 0.55939 0.06546 0.0
H351 H 0.89339 0.57253 0.06427 0.0
C352 C 0.71537 0.55187 0.03501 0.0
C353 C 0.70061 0.52184 1.01855 0.0
C354 C 0.75441 0.55952 0.03226 0.0
C355 C 0.77977 0.53718 1.0132 0.0
C356 C 0.76491 0.50748 0.99624 0.0
C357 C 0.72576 0.49995 0.99882 0.0
C358 C 0.88266 0.54644 0.98137 0.0
C359 C 0.90128 0.55884 1.01085 0.0
C360 C 0.84318 0.53932 0.98197 0.0
C361 C 0.82173 0.5443 1.0121 0.0
C362 C 0.84072 0.55609 0.04161 0.0
C363 C 0.87988 0.5634 0.04096 0.0
H364 H 0.8456 0.57282 0.53665 0.0
H365 H 0.82273 0.6825 0.50595 0.0
H366 H 0.77958 0.57038 0.55808 0.0
H367 H 0.75792 0.68053 0.52875 0.0
H368 H 0.63281 0.64402 0.52124 0.0
H369 H 0.70077 0.65106 0.509 0.0
H370 H 0.73255 0.59321 0.60084 0.0
H371 H 0.6641 0.58558 0.61293 0.0
C372 C 0.82677 0.59654 0.53496 0.0
C373 C 0.83951 0.62778 0.51947 0.0
C374 C 0.7891 0.59527 0.54756 0.0
C375 C 0.76345 0.6252 0.54485 0.0
C376 C 0.77681 0.65687 0.53081 0.0
C377 C 0.81425 0.65811 0.51815 0.0
C378 C 0.6542 0.63311 0.53908 0.0
C379 C 0.64303 0.61413 0.56799 0.0
C380 C 0.69322 0.63733 0.53215 0.0
C381 C 0.72208 0.62269 0.55397 0.0
C382 C 0.71096 0.60448 0.5834 0.0
C383 C 0.67178 0.60034 0.59041 0.0
H384 H 0.08916 0.29501 0.10591 0.0
H385 H 0.14674 0.35912 0.18071 0.0
H386 H 0.07048 0.34902 0.07363 0.0
H387 H 0.12882 0.41322 0.14842 0.0
H388 H 0.0468 0.50321 0.10969 0.0
H389 H 0.07083 0.44871 0.13755 0.0
H390 H 0.08996 0.39915 0.03928 0.0
H391 H 0.06527 0.45386 1.01124 0.0
C392 C 0.0988 0.32064 0.11486 0.0
C393 C 0.11987 0.32289 0.14551 0.0
C394 C 0.08801 0.35169 0.09644 0.0
C395 C 0.0977 0.38581 0.10845 0.0
C396 C 0.12018 0.38764 0.13856 0.0
C397 C 0.13099 0.35659 0.15688 0.0
C398 C 0.05601 0.48074 0.09388 0.0
C399 C 0.05395 0.48315 0.05808 0.0
C400 C 0.07022 0.44942 0.10995 0.0
C401 C 0.08283 0.41933 0.09082 0.0
C402 C 0.08036 0.42156 0.05497 0.0
C403 C 0.06624 0.45305 0.03883 0.0
H404 H 0.6332 0.41737 0.98164 0.0
H405 H 0.55825 0.43736 0.06763 0.0
H406 H 0.61465 0.35489 0.98032 0.0
H407 H 0.53984 0.37474 0.06644 0.0
H408 H 0.56744 0.25181 0.07869 0.0
H409 H 0.57923 0.31572 0.07769 0.0
H410 H 0.55225 0.3186 0.97 0.0
H411 H 0.54 0.25429 0.97113 0.0
C412 C 0.61284 0.40829 1.00029 0.0
C413 C 0.59738 0.43193 1.02496 0.0
C414 C 0.60195 0.37275 0.99929 0.0
C415 C 0.57582 0.36017 1.02324 0.0
C416 C 0.56014 0.38387 0.04777 0.0
C417 C 0.57058 0.41957 0.04843 0.0
C418 C 0.56395 0.26617 0.05484 0.0
C419 C 0.55314 0.24829 1.02491 0.0
C420 C 0.57038 0.30268 0.05433 0.0
C421 C 0.56662 0.32194 1.02379 0.0
C422 C 0.55547 0.30418 0.99383 0.0
C423 C 0.54835 0.26761 0.99447 0.0
H424 H 0.9419 0.70071 0.42267 0.0
H425 H 0.95887 0.7042 0.5318 0.0
H426 H 0.96458 0.76173 0.41812 0.0
H427 H 0.98182 0.76509 0.52724 0.0
H428 H 0.04784 0.86469 0.50261 0.0
H429 H 0.03708 0.80046 0.49996 0.0
H430 H 0.93283 0.82129 0.44087 0.0
H431 H 0.94346 0.88554 0.4437 0.0
C432 C 0.95129 0.71431 0.44555 0.0
C433 C 0.9487 0.69795 0.47761 0.0
C434 C 0.96399 0.74917 0.44296 0.0
C435 C 0.97486 0.76796 0.47232 0.0
C436 C 0.97391 0.75099 0.5042 0.0
C437 C 0.96062 0.71635 0.50685 0.0
C438 C 0.0231 0.85542 0.48845 0.0
C439 C 0.9964 0.87992 0.47339 0.0
C440 C 0.01685 0.8188 0.48714 0.0
C441 C 0.98413 0.80609 0.47029 0.0
C442 C 0.95845 0.83046 0.45379 0.0
C443 C 0.96437 0.86712 0.45555 0.0
H444 H 0.48801 0.84513 0.73836 0.0
H445 H 0.37651 0.84131 0.68828 0.0
H446 H 0.50921 0.79079 0.70826 0.0
H447 H 0.39819 0.78759 0.65764 0.0
H448 H 0.46483 0.71351 0.58173 0.0
H449 H 0.44397 0.76803 0.61232 0.0
H450 H 0.49751 0.7265 0.70452 0.0
H451 H 0.5183 0.67236 0.67415 0.0
C452 C 0.46774 0.8326 0.72134 0.0
C453 C 0.43045 0.8481 0.7159 0.0
C454 C 0.48006 0.80141 0.70384 0.0
C455 C 0.45561 0.78482 0.68014 0.0
C456 C 0.41815 0.79993 0.6751 0.0
C457 C 0.40571 0.83088 0.6928 0.0
C458 C 0.47231 0.7161 0.60847 0.0
C459 C 0.49328 0.68838 0.62535 0.0
C460 C 0.46011 0.74729 0.62612 0.0
C461 C 0.46895 0.75181 0.66103 0.0
C462 C 0.49043 0.72427 0.67766 0.0
C463 C 0.50222 0.69303 0.66018 0.0
H464 H 0.94503 0.89077 0.76108 0.0
H465 H 0.91098 0.9952 0.7997 0.0
H466 H 0.96719 0.91824 0.70841 0.0
H467 H 0.93099 1.02234 0.74698 0.0
H468 H 0.9963 0.06757 0.65815 0.0
H469 H 0.9809 0.03926 0.712 0.0
H470 H 0.94463 0.94567 0.65737 0.0
H471 H 0.9614 0.9736 0.60366 0.0
C472 C 0.94258 0.91957 0.75854 0.0
C473 C 0.9258 0.94058 0.78473 0.0
C474 C 0.95477 0.9354 0.72803 0.0
C475 C 0.95065 0.97274 0.72283 0.0
C476 C 0.93516 0.99368 0.74968 0.0
C477 C 0.92319 0.97794 0.78002 0.0
C478 C 0.98482 0.04103 0.65756 0.0
C479 C 0.97996 1.0231 0.62632 0.0
C480 C 0.97584 0.02467 0.68861 0.0
C481 C 0.96137 0.98988 0.68952 0.0
C482 C 0.95629 0.97211 0.65814 0.0
C483 C 0.96553 0.98838 0.62712 0.0
H484 H 0.61577 0.22393 0.30092 0.0
H485 H 0.66283 0.12024 0.33125 0.0
H486 H 0.59168 0.19832 0.24821 0.0
H487 H 0.64033 0.09485 0.27754 0.0
H488 H 0.55738 0.05368 0.19455 0.0
H489 H 0.58341 0.0781 0.24741 0.0
H490 H 0.61029 0.17506 0.19448 0.0
H491 H 0.58332 0.15104 0.14203 0.0
C492 C 0.6211 0.19562 0.29639 0.0
C493 C 0.6412 0.17426 0.32071 0.0
C494 C 0.60766 0.18094 0.26577 0.0
C495 C 0.61398 0.14437 0.25825 0.0
C496 C 0.63442 0.12301 0.28242 0.0
C497 C 0.64784 0.13772 0.31315 0.0
C498 C 0.56892 0.08018 0.19417 0.0
C499 C 0.568 0.10038 0.16393 0.0
C500 C 0.58413 0.09417 0.22453 0.0
C501 C 0.59896 0.12876 0.22556 0.0
C502 C 0.59855 0.14865 0.19508 0.0
C503 C 0.58325 0.13473 0.16481 0.0
H504 H 0.49684 0.62534 0.2122 0.0
H505 H 0.41906 0.5452 0.2452 0.0
H506 H 0.50798 0.64288 0.27179 0.0
H507 H 0.43042 0.562 0.30458 0.0
H508 H 0.42398 0.62142 0.40262 0.0
H509 H 0.41437 0.61287 0.34155 0.0
H510 H 0.53734 0.61997 0.3259 0.0
H511 H 0.54678 0.62906 0.38726 0.0
C512 C 0.48256 0.61128 0.23236 0.0
C513 C 0.45728 0.58394 0.22458 0.0
C514 C 0.48888 0.62125 0.26634 0.0
C515 C 0.46972 0.60413 0.29287 0.0
C516 C 0.445 0.57623 0.28473 0.0
C517 C 0.43879 0.56631 0.25086 0.0
C518 C 0.44883 0.62184 0.386 0.0
C519 C 0.48614 0.62558 0.3996 0.0
C520 C 0.44341 0.61666 0.3511 0.0
C521 C 0.4752 0.6149 0.32902 0.0
C522 C 0.51227 0.62118 0.34228 0.0
C523 C 0.51769 0.62652 0.37734 0.0
H524 H 0.05888 0.61751 0.66524 0.0
H525 H 0.01635 0.51174 0.65038 0.0
H526 H 0.04673 0.6134 0.72622 0.0
H527 H 1.00289 0.50761 0.7115 0.0
H528 H 0.04444 0.49699 0.82496 0.0
H529 H 0.04168 0.50071 0.76267 0.0
H530 H 0.99976 0.61076 0.77009 0.0
H531 H 1.00386 0.60717 0.83201 0.0
C532 C 0.0457 0.59387 0.67508 0.0
C533 C 0.038 0.56514 0.65355 0.0
C534 C 0.03866 0.59142 0.70995 0.0
C535 C 0.02386 0.5601 0.72381 0.0
C536 C 1.01469 0.53191 0.70171 0.0
C537 C 0.02189 0.53438 0.66678 0.0
C538 C 0.03423 0.52173 0.81309 0.0
C539 C 0.02504 0.55196 0.83305 0.0
C540 C 0.0324 0.52388 0.77749 0.0
C541 C 0.0209 0.55621 0.76137 0.0
C542 C 1.0096 0.58574 0.78162 0.0
C543 C 1.01186 0.58369 0.81705 0.0
H544 H 0.80736 0.99512 0.94037 0.0
H545 H 0.73501 0.90764 0.91446 0.0
H546 H 0.75981 1.01666 0.98232 0.0
H547 H 0.68697 0.92921 0.95596 0.0
H548 H 0.61515 0.96657 0.0468 0.0
H549 H 0.67031 0.94065 1.01554 0.0
H550 H 0.69606 0.04547 0.97809 0.0
H551 H 0.64144 0.07135 1.00954 0.0
C552 C 0.78164 0.98003 0.94436 0.0
C553 C 0.77491 0.94955 0.92464 0.0
C554 C 0.75417 0.99255 0.96806 0.0
C555 C 0.71927 0.97491 0.97239 0.0
C556 C 0.7136 0.9433 0.95365 0.0
C557 C 0.74109 0.93087 0.92989 0.0
C558 C 0.63292 0.98416 0.03227 0.0
C559 C 0.62371 1.02109 0.03066 0.0
C560 C 0.66442 0.96924 1.01415 0.0
C561 C 0.68771 0.99088 0.99415 0.0
C562 C 0.6792 0.02796 0.99352 0.0
C563 C 0.64763 0.04283 1.01145 0.0
H564 H 0.71883 0.18652 0.4691 0.0
H565 H 0.77077 0.17227 0.36987 0.0
H566 H 0.77786 0.16167 0.49577 0.0
H567 H 0.8289 0.14606 0.39665 0.0
H568 H 0.9071 0.06345 0.45532 0.0
H569 H 0.84789 0.08982 0.42985 0.0
H570 H 0.84891 0.17556 0.50361 0.0
H571 H 0.90836 0.14948 0.52888 0.0
C572 C 0.74279 0.17853 0.45286 0.0
C573 C 0.73948 0.18143 0.4171 0.0
C574 C 0.77665 0.164 0.46826 0.0
C575 C 0.80802 0.15149 0.44836 0.0
C576 C 0.80504 0.1548 0.41273 0.0
C577 C 0.77148 0.16979 0.39736 0.0
C578 C 0.89462 0.08781 0.46626 0.0
C579 C 0.91261 0.10429 0.49419 0.0
C580 C 0.86079 0.10307 0.45149 0.0
C581 C 0.84367 0.13491 0.46458 0.0
C582 C 0.86117 0.15095 0.49299 0.0
C583 C 0.89535 0.13602 0.50741 0.0
H584 H 0.34194 0.56594 0.05981 0.0
H585 H 0.31597 0.67443 0.09323 0.0
H586 H 0.27551 0.56236 0.0381 0.0
H587 H 0.25167 0.67158 0.06966 0.0
H588 H 0.12837 0.63681 0.07536 0.0
H589 H 0.19633 0.64135 0.08877 0.0
H590 H 0.22629 0.58527 0.99564 0.0
H591 H 0.1573 0.5798 0.98242 0.0
C592 C 0.32245 0.58913 0.06207 0.0
C593 C 0.33459 0.62046 0.07825 0.0
C594 C 0.28458 0.58722 0.04927 0.0
C595 C 0.25825 0.61661 0.05245 0.0
C596 C 0.271 0.64828 0.06726 0.0
C597 C 0.30834 0.65005 0.08031 0.0
C598 C 0.14928 0.62568 0.05746 0.0
C599 C 0.13737 0.608 1.02776 0.0
C600 C 0.18839 0.62845 0.06509 0.0
C601 C 0.21678 0.61386 0.04316 0.0
C602 C 0.20505 0.59657 1.01312 0.0
C603 C 0.16561 0.59375 1.00543 0.0
H604 H 0.20506 0.5615 0.55071 0.0
H605 H 0.22487 0.47706 0.62446 0.0
H606 H 0.27333 0.57442 0.55279 0.0
H607 H 0.29378 0.48863 0.62501 0.0
H608 H 0.40889 0.54531 0.64254 0.0
H609 H 0.34024 0.53155 0.64318 0.0
H610 H 0.33341 0.54893 0.53434 0.0
H611 H 0.401 0.56372 0.53394 0.0
C612 C 0.22398 0.54565 0.56736 0.0
C613 C 0.20941 0.5182 0.58736 0.0
C614 C 0.26328 0.55275 0.56823 0.0
C615 C 0.28917 0.53238 0.58888 0.0
C616 C 0.27463 0.50501 0.60902 0.0
C617 C 0.23519 0.49805 0.60831 0.0
C618 C 0.39261 0.54609 0.61882 0.0
C619 C 0.41023 0.55595 0.58829 0.0
C620 C 0.35337 0.53807 0.61912 0.0
C621 C 0.33117 0.53952 0.58884 0.0
C622 C 0.34928 0.54842 0.55826 0.0
C623 C 0.3882 0.5567 0.55801 0.0
H624 H 0.9509 0.82317 0.8385 0.0
H625 H 0.90306 0.86599 0.93212 0.0
H626 H 0.97589 0.77084 0.86916 0.0
H627 H 0.92499 0.81241 0.96209 0.0
H628 H 0.99151 0.72171 1.01633 0.0
H629 H 0.9734 0.7772 0.98658 0.0
H630 H 0.95971 0.71767 0.89286 0.0
H631 H 0.97976 0.66305 0.9222 0.0
C632 C 0.94567 0.82166 0.86562 0.0
C633 C 0.92439 0.84921 0.88241 0.0
C634 C 0.95951 0.79104 0.88329 0.0
C635 C 0.95223 0.78651 0.91838 0.0
C636 C 0.93174 0.81448 0.93529 0.0
C637 C 0.9184 0.84529 0.91775 0.0
C638 C 0.98477 0.72058 0.98935 0.0
C639 C 0.98725 0.68774 0.9718 0.0
C640 C 0.97406 0.75251 0.97215 0.0
C641 C 0.96491 0.75256 0.93692 0.0
C642 C 0.96726 0.71946 0.91962 0.0
C643 C 0.9785 0.68778 0.93666 0.0
H644 H 0.37612 0.71986 0.12903 0.0
H645 H 0.49638 0.68483 0.12364 0.0
H646 H 0.39494 0.78173 0.13252 0.0
H647 H 0.5153 0.74751 0.12781 0.0
H648 H 0.51748 0.87128 0.1666 0.0
H649 H 0.50537 0.80713 0.17048 0.0
H650 H 0.43005 0.81575 0.08243 0.0
H651 H 0.44295 0.87877 0.07755 0.0
C652 C 0.40663 0.72543 0.1287 0.0
C653 C 0.4348 0.69769 0.12507 0.0
C654 C 0.41734 0.76077 0.13095 0.0
C655 C 0.45644 0.76916 0.12998 0.0
C656 C 0.48494 0.74147 0.12862 0.0
C657 C 0.47415 0.70581 0.12615 0.0
C658 C 0.49866 0.85935 0.1479 0.0
C659 C 0.48056 0.88034 0.12217 0.0
C660 C 0.4918 0.82277 0.15018 0.0
C661 C 0.46648 0.80692 0.12699 0.0
C662 C 0.44918 0.82764 0.10095 0.0
C663 C 0.45632 0.86382 0.09841 0.0
H664 H 0.14024 0.41524 0.63135 0.0
H665 H 0.06041 0.43896 0.54853 0.0
H666 H 0.12027 0.35306 0.63142 0.0
H667 H 0.04052 0.37693 0.54862 0.0
H668 H 0.06683 0.2553 0.52907 0.0
H669 H 0.07903 0.31897 0.53329 0.0
H670 H 0.05827 0.31584 0.64165 0.0
H671 H 0.04555 0.25169 0.63726 0.0
C672 C 0.11836 0.40712 0.61329 0.0
C673 C 0.10201 0.43172 0.58978 0.0
C674 C 0.10669 0.37176 0.61357 0.0
C675 C 0.07891 0.36035 0.59002 0.0
C676 C 0.0621 0.38511 0.56694 0.0
C677 C 0.07336 0.42053 0.56697 0.0
C678 C 0.06469 0.2683 0.55375 0.0
C679 C 0.05549 0.24878 0.58289 0.0
C680 C 0.07141 0.30469 0.55612 0.0
C681 C 0.06954 0.3222 0.58778 0.0
C682 C 0.05999 0.3028 0.61699 0.0
C683 C 0.05258 0.26634 0.61449 0.0
H684 H 0.64946 0.30668 0.49899 0.0
H685 H 0.5815 0.34231 0.41223 0.0
H686 H 0.63453 0.36378 0.52806 0.0
H687 H 0.56522 0.39842 0.44116 0.0
H688 H 0.56473 0.50818 0.48749 0.0
H689 H 0.58684 0.45329 0.45951 0.0
H690 H 0.58442 0.39763 0.55581 0.0
H691 H 0.56372 0.45336 0.58413 0.0
C692 C 0.63172 0.32697 0.48604 0.0
C693 C 0.61712 0.32048 0.45321 0.0
C694 C 0.62269 0.35954 0.5028 0.0
C695 C 0.59857 0.38614 0.48713 0.0
C696 C 0.58449 0.37929 0.454 0.0
C697 C 0.59372 0.34699 0.43732 0.0
C698 C 0.56889 0.48428 0.5028 0.0
C699 C 0.56212 0.48531 0.53812 0.0
C700 C 0.58146 0.45254 0.48664 0.0
C701 C 0.58724 0.42052 0.50513 0.0
C702 C 0.58083 0.42163 0.54061 0.0
C703 C 0.56859 0.45361 0.55689 0.0
loop_
_geom_bond_atom_site_label_1
_geom_bond_atom_site_label_2
_geom_bond_distance
_geom_bond_site_symmetry_2
_ccdc_geom_bond_type
H0 C3 0.929 . S
H1 C6 0.929 . S
H2 C8 0.930 . S
C3 H0 0.929 . S
C3 C4 1.398 . S
C3 C5 1.396 . S
C4 C3 1.398 . S
C4 C8 1.407 . S
C5 C3 1.396 . S
C5 C6 1.394 . S
C6 H1 0.929 . S
C6 C5 1.394 . S
C6 C7 1.382 . S
C7 C6 1.382 . S
C7 C8 1.392 . S
C7 N9 1.420 . S
C8 H2 0.930 . S
C8 C4 1.407 . S
C8 C7 1.392 . S
N9 C7 1.420 . S
N9 C10 1.244 . S
C10 N9 1.244 . S
H11 C14 0.929 . S
H12 C17 0.929 . S
H13 C19 0.930 . S
C14 H11 0.929 . S
C14 C15 1.398 . S
C14 C16 1.396 . S
C15 C14 1.398 . S
C15 C19 1.407 . S
C16 C14 1.396 . S
C16 C17 1.394 . S
C17 H12 0.929 . S
C17 C16 1.394 . S
C17 C18 1.382 . S
C18 C17 1.382 . S
C18 C19 1.392 . S
C18 N20 1.420 . S
C19 H13 0.930 . S
C19 C15 1.407 . S
C19 C18 1.392 . S
N20 C18 1.420 . S
N20 C21 1.244 . S
C21 N20 1.244 . S
H22 C25 0.929 . S
H23 C28 0.929 . S
H24 C30 0.930 . S
C25 H22 0.929 . S
C25 C26 1.398 . S
C25 C27 1.396 . S
C26 C25 1.398 . S
C26 C30 1.407 . S
C27 C25 1.396 . S
C27 C28 1.394 . S
C28 H23 0.929 . S
C28 C27 1.394 . S
C28 C29 1.382 . S
C29 C28 1.382 . S
C29 C30 1.392 . S
C29 N31 1.420 . S
C30 H24 0.930 . S
C30 C26 1.407 . S
C30 C29 1.392 . S
N31 C29 1.420 . S
N31 C32 1.244 . S
C32 N31 1.244 . S
H33 C36 0.929 . S
H34 C39 0.929 . S
H35 C41 0.930 . S
C36 H33 0.929 . S
C36 C37 1.398 . S
C36 C38 1.396 . S
C37 C36 1.398 . S
C37 C41 1.407 . S
C38 C36 1.396 . S
C38 C39 1.394 . S
C39 H34 0.929 . S
C39 C38 1.394 . S
C39 C40 1.382 . S
C40 C39 1.382 . S
C40 C41 1.392 . S
C40 N42 1.420 . S
C41 H35 0.930 . S
C41 C37 1.407 . S
C41 C40 1.392 . S
N42 C40 1.420 . S
N42 C43 1.244 . S
C43 N42 1.244 . S
H44 C47 0.929 . S
H45 C50 0.929 . S
H46 C52 0.930 . S
C47 H44 0.929 . S
C47 C48 1.398 . S
C47 C49 1.396 . S
C48 C47 1.398 . S
C48 C52 1.407 . S
C49 C47 1.396 . S
C49 C50 1.394 . S
C50 H45 0.929 . S
C50 C49 1.394 . S
C50 C51 1.382 . S
C51 C50 1.382 . S
C51 C52 1.392 . S
C51 N53 1.420 . S
C52 H46 0.930 . S
C52 C48 1.407 . S
C52 C51 1.392 . S
N53 C51 1.420 . S
N53 C54 1.244 . S
C54 N53 1.244 . S
H55 C58 0.929 . S
H56 C61 0.929 . S
H57 C63 0.930 . S
C58 H55 0.929 . S
C58 C59 1.398 . S
C58 C60 1.396 . S
C59 C58 1.398 . S
C59 C63 1.407 . S
C60 C58 1.396 . S
C60 C61 1.394 . S
C61 H56 0.929 . S
C61 C60 1.394 . S
C61 C62 1.382 . S
C62 C61 1.382 . S
C62 C63 1.392 . S
C62 N64 1.420 . S
C63 H57 0.930 . S
C63 C59 1.407 . S
C63 C62 1.392 . S
N64 C62 1.420 . S
N64 C65 1.244 . S
C65 N64 1.244 . S
H66 C69 0.929 . S
H67 C72 0.929 . S
H68 C74 0.930 . S
C69 H66 0.929 . S
C69 C70 1.398 . S
C69 C71 1.396 . S
C70 C69 1.398 . S
C70 C74 1.407 . S
C71 C69 1.396 . S
C71 C72 1.394 . S
C72 H67 0.929 . S
C72 C71 1.394 . S
C72 C73 1.382 . S
C73 C72 1.382 . S
C73 C74 1.392 . S
C73 N75 1.420 . S
C74 H68 0.930 . S
C74 C70 1.407 . S
C74 C73 1.392 . S
N75 C73 1.420 . S
N75 C76 1.244 . S
C76 N75 1.244 . S
H77 C80 0.929 . S
H78 C83 0.929 . S
H79 C85 0.930 . S
C80 H77 0.929 . S
C80 C81 1.398 . S
C80 C82 1.396 . S
C81 C80 1.398 . S
C81 C85 1.407 . S
C82 C80 1.396 . S
C82 C83 1.394 . S
C83 H78 0.929 . S
C83 C82 1.394 . S
C83 C84 1.382 . S
C84 C83 1.382 . S
C84 C85 1.392 . S
C84 N86 1.420 . S
C85 H79 0.930 . S
C85 C81 1.407 . S
C85 C84 1.392 . S
N86 C84 1.420 . S
N86 C87 1.244 . S
C87 N86 1.244 . S
C88 O104 1.251 . S
C88 O106 1.254 . S
N89 C90 1.333 . S
N89 C94 1.307 . S
N89 Zn95 2.020 . S
C90 N89 1.333 . S
C90 C91 1.379 . S
C90 H108 0.952 . S
C91 C90 1.379 . S
C91 C92 1.390 . S
C91 H118 0.949 . S
C92 C91 1.390 . S
C92 C93 1.357 . S
C93 C92 1.357 . S
C93 C94 1.370 . S
C93 H119 0.950 . S
C94 N89 1.307 . S
C94 C93 1.370 . S
C94 H112 0.948 1_455 S
Zn95 N89 2.020 . S
Zn95 O104 2.039 . S
Zn95 O110 2.034 . S
Zn95 O114 2.025 1_455 S
Zn95 O116 2.024 1_455 S
C96 O115 1.246 . S
C96 O116 1.249 . S
N97 C98 1.307 . S
N97 C99 1.333 . S
N97 Zn103 2.020 1_565 S
C98 N97 1.307 . S
C98 C102 1.370 . S
C98 H109 0.948 1_655 S
C99 N97 1.333 . S
C99 C100 1.379 . S
C99 H107 0.952 . S
C100 C99 1.379 . S
C100 C101 1.390 . S
C100 H120 0.949 . S
C101 C100 1.390 . S
C101 C102 1.357 . S
C102 C98 1.370 . S
C102 C101 1.357 . S
C102 H121 0.950 . S
Zn103 N97 2.020 1_545 S
Zn103 O106 2.025 1_655 S
Zn103 O111 2.024 1_645 S
Zn103 O113 2.039 1_545 S
Zn103 O115 2.034 . S
O104 C88 1.251 . S
O104 Zn95 2.039 . S
C105 O110 1.246 . S
C105 O111 1.249 1_545 S
O106 C88 1.254 . S
O106 Zn103 2.025 1_455 S
H107 C99 0.952 . S
H108 C90 0.952 . S
H109 C98 0.948 1_455 S
O110 Zn95 2.034 . S
O110 C105 1.246 . S
O111 Zn103 2.024 1_465 S
O111 C105 1.249 1_565 S
H112 C94 0.948 1_655 S
O113 Zn103 2.039 1_565 S
O113 C117 1.253 1_565 S
O114 Zn95 2.025 1_655 S
O114 C117 1.254 . S
O115 C96 1.246 . S
O115 Zn103 2.034 . S
O116 Zn95 2.024 1_655 S
O116 C96 1.249 . S
C117 O113 1.253 1_545 S
C117 O114 1.254 . S
H118 C91 0.949 . S
H119 C93 0.950 . S
H120 C100 0.949 . S
H121 C102 0.950 . S
C122 O138 1.251 . S
C122 O140 1.253 1_545 S
N123 C124 1.333 . S
N123 C128 1.307 1_554 S
N123 Zn129 2.020 . S
C124 N123 1.333 . S
C124 C125 1.379 1_554 S
C124 H142 0.952 . S
C125 C124 1.379 1_556 S
C125 C126 1.390 . S
C125 H152 0.949 . S
C126 C125 1.390 . S
C126 C127 1.357 . S
C127 C126 1.357 . S
C127 C128 1.370 . S
C127 H153 0.950 . S
C128 N123 1.307 1_556 S
C128 C127 1.370 . S
C128 H146 0.948 . S
Zn129 N123 2.020 . S
Zn129 O138 2.039 . S
Zn129 O144 2.034 . S
Zn129 O148 2.025 . S
Zn129 O150 2.024 1_554 S
C130 O149 1.246 . S
C130 O150 1.249 . S
N131 C132 1.307 . S
N131 C133 1.333 . S
N131 Zn137 2.020 1_565 S
C132 N131 1.307 . S
C132 C136 1.370 . S
C132 H143 0.948 . S
C133 N131 1.333 . S
C133 C134 1.379 . S
C133 H141 0.952 . S
C134 C133 1.379 . S
C134 C135 1.390 . S
C134 H154 0.949 . S
C135 C134 1.390 . S
C135 C136 1.357 . S
C136 C132 1.370 . S
C136 C135 1.357 . S
C136 H155 0.950 . S
Zn137 N131 2.020 1_545 S
Zn137 O140 2.025 1_545 S
Zn137 O145 2.024 . S
Zn137 O147 2.039 . S
Zn137 O149 2.034 1_554 S
O138 C122 1.251 . S
O138 Zn129 2.039 . S
C139 O144 1.246 . S
C139 O145 1.249 . S
O140 C122 1.253 1_565 S
O140 Zn137 2.025 1_565 S
H141 C133 0.952 . S
H142 C124 0.952 . S
H143 C132 0.948 . S
O144 Zn129 2.034 . S
O144 C139 1.246 . S
O145 Zn137 2.024 . S
O145 C139 1.249 . S
H146 C128 0.948 . S
O147 Zn137 2.039 . S
O147 C151 1.251 . S
O148 Zn129 2.025 . S
O148 C151 1.254 . S
O149 C130 1.246 . S
O149 Zn137 2.034 1_556 S
O150 Zn129 2.024 1_556 S
O150 C130 1.249 . S
C151 O147 1.251 . S
C151 O148 1.254 . S
H152 C125 0.949 . S
H153 C127 0.950 . S
H154 C134 0.949 . S
H155 C136 0.950 . S
C156 O172 1.251 . S
C156 O174 1.254 . S
N157 C158 1.333 . S
N157 C162 1.307 . S
N157 Zn163 2.020 . S
C158 N157 1.333 . S
C158 C159 1.379 . S
C158 H176 0.952 . S
C159 C158 1.379 . S
C159 C160 1.390 . S
C159 H186 0.949 . S
C160 C159 1.390 . S
C160 C161 1.357 . S
C161 C160 1.357 . S
C161 C162 1.370 . S
C161 H187 0.950 . S
C162 N157 1.307 . S
C162 C161 1.370 . S
C162 H180 0.948 . S
Zn163 N157 2.020 . S
Zn163 O172 2.039 . S
Zn163 O178 2.034 . S
Zn163 O182 2.025 . S
Zn163 O184 2.024 . S
C164 O183 1.246 . S
C164 O184 1.249 . S
N165 C166 1.307 . S
N165 C167 1.333 . S
N165 Zn171 2.020 . S
C166 N165 1.307 . S
C166 C170 1.370 . S
C166 H177 0.948 . S
C167 N165 1.333 . S
C167 C168 1.379 . S
C167 H175 0.952 . S
C168 C167 1.379 . S
C168 C169 1.390 . S
C168 H188 0.949 . S
C169 C168 1.390 . S
C169 C170 1.357 . S
C170 C166 1.370 . S
C170 C169 1.357 . S
C170 H189 0.950 . S
Zn171 N165 2.020 . S
Zn171 O174 2.025 . S
Zn171 O179 2.024 . S
Zn171 O181 2.039 . S
Zn171 O183 2.034 . S
O172 C156 1.251 . S
O172 Zn163 2.039 . S
C173 O178 1.246 . S
C173 O179 1.249 . S
O174 C156 1.254 . S
O174 Zn171 2.025 . S
H175 C167 0.952 . S
H176 C158 0.952 . S
H177 C166 0.948 . S
O178 Zn163 2.034 . S
O178 C173 1.246 . S
O179 Zn171 2.024 . S
O179 C173 1.249 . S
H180 C162 0.948 . S
O181 Zn171 2.039 . S
O181 C185 1.251 . S
O182 Zn163 2.025 . S
O182 C185 1.254 . S
O183 C164 1.246 . S
O183 Zn171 2.034 . S
O184 Zn163 2.024 . S
O184 C164 1.249 . S
C185 O181 1.251 . S
C185 O182 1.254 . S
H186 C159 0.949 . S
H187 C161 0.950 . S
H188 C168 0.949 . S
H189 C170 0.950 . S
C190 O206 1.251 1_556 S
C190 O208 1.254 1_655 S
N191 C192 1.333 . S
N191 C196 1.307 . S
N191 Zn197 2.020 . S
C192 N191 1.333 . S
C192 C193 1.379 . S
C192 H210 0.952 . S
C193 C192 1.379 . S
C193 C194 1.390 . S
C193 H220 0.949 . S
C194 C193 1.390 . S
C194 C195 1.357 . S
C195 C194 1.357 . S
C195 C196 1.370 . S
C195 H221 0.950 . S
C196 N191 1.307 . S
C196 C195 1.370 . S
C196 H214 0.948 . S
Zn197 N191 2.020 . S
Zn197 O206 2.039 . S
Zn197 O212 2.034 1_655 S
Zn197 O216 2.025 1_655 S
Zn197 O218 2.024 . S
C198 O217 1.246 . S
C198 O218 1.249 1_556 S
N199 C200 1.307 . S
N199 C201 1.333 . S
N199 Zn205 2.020 . S
C200 N199 1.307 . S
C200 C204 1.370 . S
C200 H211 0.948 . S
C201 N199 1.333 . S
C201 C202 1.379 . S
C201 H209 0.952 . S
C202 C201 1.379 . S
C202 C203 1.390 . S
C202 H222 0.949 . S
C203 C202 1.390 . S
C203 C204 1.357 . S
C204 C200 1.370 . S
C204 C203 1.357 . S
C204 H223 0.950 . S
Zn205 N199 2.020 . S
Zn205 O208 2.025 . S
Zn205 O213 2.024 . S
Zn205 O215 2.039 . S
Zn205 O217 2.034 1_455 S
O206 C190 1.251 1_554 S
O206 Zn197 2.039 . S
C207 O212 1.246 . S
C207 O213 1.249 1_554 S
O208 C190 1.254 1_455 S
O208 Zn205 2.025 . S
H209 C201 0.952 . S
H210 C192 0.952 . S
H211 C200 0.948 . S
O212 Zn197 2.034 1_455 S
O212 C207 1.246 . S
O213 Zn205 2.024 . S
O213 C207 1.249 1_556 S
H214 C196 0.948 . S
O215 Zn205 2.039 . S
O215 C219 1.251 1_556 S
O216 Zn197 2.025 1_455 S
O216 C219 1.254 . S
O217 C198 1.246 . S
O217 Zn205 2.034 1_655 S
O218 Zn197 2.024 . S
O218 C198 1.249 1_554 S
C219 O215 1.251 1_554 S
C219 O216 1.254 . S
H220 C193 0.949 . S
H221 C195 0.950 . S
H222 C202 0.949 . S
H223 C204 0.950 . S
H224 C232 0.950 . S
H225 C237 0.950 . S
H226 C234 0.950 . S
H227 C236 0.950 . S
H228 C238 0.950 . S
H229 C240 0.950 . S
H230 C242 0.950 . S
H231 C243 0.950 1_655 S
C232 H224 0.950 . S
C232 C233 1.386 . S
C232 C234 1.391 . S
C233 C232 1.386 . S
C233 C237 1.393 . S
C234 H226 0.950 . S
C234 C232 1.391 . S
C234 C235 1.400 . S
C235 C234 1.400 . S
C235 C236 1.398 . S
C235 C241 1.491 . S
C236 H227 0.950 . S
C236 C235 1.398 . S
C236 C237 1.391 . S
C237 H225 0.950 . S
C237 C233 1.393 . S
C237 C236 1.391 . S
C238 H228 0.950 . S
C238 C239 1.386 . S
C238 C240 1.391 . S
C239 C238 1.386 . S
C239 C243 1.393 . S
C240 H229 0.950 . S
C240 C238 1.391 . S
C240 C241 1.400 . S
C241 C235 1.491 . S
C241 C240 1.400 . S
C241 C242 1.398 . S
C242 H230 0.950 . S
C242 C241 1.398 . S
C242 C243 1.391 . S
C243 H231 0.950 1_455 S
C243 C239 1.393 . S
C243 C242 1.391 . S
H244 C252 0.950 . S
H245 C257 0.950 . S
H246 C254 0.950 . S
H247 C256 0.950 . S
H248 C258 0.950 . S
H249 C260 0.950 . S
H250 C262 0.950 . S
H251 C263 0.950 . S
C252 H244 0.950 . S
C252 C253 1.386 . S
C252 C254 1.391 . S
C253 C252 1.386 . S
C253 C257 1.393 . S
C254 H246 0.950 . S
C254 C252 1.391 . S
C254 C255 1.400 . S
C255 C254 1.400 . S
C255 C256 1.398 . S
C255 C261 1.491 . S
C256 H247 0.950 . S
C256 C255 1.398 . S
C256 C257 1.391 . S
C257 H245 0.950 . S
C257 C253 1.393 . S
C257 C256 1.391 . S
C258 H248 0.950 . S
C258 C259 1.386 . S
C258 C260 1.391 1_545 S
C259 C258 1.386 . S
C259 C263 1.393 1_545 S
C260 H249 0.950 . S
C260 C258 1.391 1_565 S
C260 C261 1.400 . S
C261 C255 1.491 . S
C261 C260 1.400 . S
C261 C262 1.398 . S
C262 H250 0.950 . S
C262 C261 1.398 . S
C262 C263 1.391 . S
C263 H251 0.950 . S
C263 C259 1.393 1_565 S
C263 C262 1.391 . S
H264 C272 0.950 . S
H265 C277 0.950 . S
H266 C274 0.950 . S
H267 C276 0.950 . S
H268 C278 0.950 . S
H269 C280 0.950 . S
H270 C282 0.950 . S
H271 C283 0.950 . S
C272 H264 0.950 . S
C272 C273 1.386 . S
C272 C274 1.391 . S
C273 C272 1.386 . S
C273 C277 1.393 . S
C274 H266 0.950 . S
C274 C272 1.391 . S
C274 C275 1.400 . S
C275 C274 1.400 . S
C275 C276 1.398 . S
C275 C281 1.491 . S
C276 H267 0.950 . S
C276 C275 1.398 . S
C276 C277 1.391 . S
C277 H265 0.950 . S
C277 C273 1.393 . S
C277 C276 1.391 . S
C278 H268 0.950 . S
C278 C279 1.386 . S
C278 C280 1.391 . S
C279 C278 1.386 . S
C279 C283 1.393 . S
C280 H269 0.950 . S
C280 C278 1.391 . S
C280 C281 1.400 . S
C281 C275 1.491 . S
C281 C280 1.400 . S
C281 C282 1.398 . S
C282 H270 0.950 . S
C282 C281 1.398 . S
C282 C283 1.391 . S
C283 H271 0.950 . S
C283 C279 1.393 . S
C283 C282 1.391 . S
H284 C292 0.950 . S
H285 C297 0.950 . S
H286 C294 0.950 . S
H287 C296 0.950 . S
H288 C298 0.950 . S
H289 C300 0.950 . S
H290 C302 0.950 . S
H291 C303 0.950 . S
C292 H284 0.950 . S
C292 C293 1.386 . S
C292 C294 1.391 . S
C293 C292 1.386 . S
C293 C297 1.393 . S
C294 H286 0.950 . S
C294 C292 1.391 . S
C294 C295 1.400 . S
C295 C294 1.400 . S
C295 C296 1.398 . S
C295 C301 1.491 . S
C296 H287 0.950 . S
C296 C295 1.398 . S
C296 C297 1.391 . S
C297 H285 0.950 . S
C297 C293 1.393 . S
C297 C296 1.391 . S
C298 H288 0.950 . S
C298 C299 1.386 . S
C298 C300 1.391 . S
C299 C298 1.386 . S
C299 C303 1.393 . S
C300 H289 0.950 . S
C300 C298 1.391 . S
C300 C301 1.400 . S
C301 C295 1.491 . S
C301 C300 1.400 . S
C301 C302 1.398 . S
C302 H290 0.950 . S
C302 C301 1.398 . S
C302 C303 1.391 . S
C303 H291 0.950 . S
C303 C299 1.393 . S
C303 C302 1.391 . S
H304 C312 0.950 . S
H305 C317 0.950 . S
H306 C314 0.950 . S
H307 C316 0.950 . S
H308 C318 0.950 . S
H309 C320 0.950 . S
H310 C322 0.950 . S
H311 C323 0.950 . S
C312 H304 0.950 . S
C312 C313 1.386 . S
C312 C314 1.391 . S
C313 C312 1.386 . S
C313 C317 1.393 . S
C314 H306 0.950 . S
C314 C312 1.391 . S
C314 C315 1.400 . S
C315 C314 1.400 . S
C315 C316 1.398 . S
C315 C321 1.491 . S
C316 H307 0.950 . S
C316 C315 1.398 . S
C316 C317 1.391 . S
C317 H305 0.950 . S
C317 C313 1.393 . S
C317 C316 1.391 . S
C318 H308 0.950 . S
C318 C319 1.386 . S
C318 C320 1.391 . S
C319 C318 1.386 . S
C319 C323 1.393 . S
C320 H309 0.950 . S
C320 C318 1.391 . S
C320 C321 1.400 . S
C321 C315 1.491 . S
C321 C320 1.400 . S
C321 C322 1.398 . S
C322 H310 0.950 . S
C322 C321 1.398 . S
C322 C323 1.391 . S
C323 H311 0.950 . S
C323 C319 1.393 . S
C323 C322 1.391 . S
H324 C332 0.950 . S
H325 C337 0.948 . S
H326 C334 0.950 . S
H327 C336 0.950 1_545 S
H328 C338 0.950 . S
H329 C340 0.950 . S
H330 C342 0.950 . S
H331 C343 0.950 . S
C332 H324 0.950 . S
C332 C333 1.386 . S
C332 C334 1.391 . S
C333 C332 1.386 . S
C333 C337 1.393 . S
C334 H326 0.950 . S
C334 C332 1.391 . S
C334 C335 1.400 . S
C335 C334 1.400 . S
C335 C336 1.398 . S
C335 C341 1.491 . S
C336 H327 0.950 1_565 S
C336 C335 1.398 . S
C336 C337 1.391 . S
C337 H325 0.948 . S
C337 C333 1.393 . S
C337 C336 1.391 . S
C338 H328 0.950 . S
C338 C339 1.386 . S
C338 C340 1.391 . S
C339 C338 1.386 . S
C339 C343 1.393 1_545 S
C340 H329 0.950 . S
C340 C338 1.391 . S
C340 C341 1.400 1_545 S
C341 C335 1.491 . S
C341 C340 1.400 1_565 S
C341 C342 1.398 . S
C342 H330 0.950 . S
C342 C341 1.398 . S
C342 C343 1.391 . S
C343 H331 0.950 . S
C343 C339 1.393 1_565 S
C343 C342 1.391 . S
H344 C352 0.950 . S
H345 C357 0.950 . S
H346 C354 0.950 . S
H347 C356 0.950 . S
H348 C358 0.950 . S
H349 C360 0.950 . S
H350 C362 0.946 1_554 S
H351 C363 0.950 1_554 S
C352 H344 0.950 . S
C352 C353 1.386 . S
C352 C354 1.391 . S
C353 C352 1.386 . S
C353 C357 1.393 . S
C354 H346 0.950 . S
C354 C352 1.391 . S
C354 C355 1.400 . S
C355 C354 1.400 . S
C355 C356 1.398 . S
C355 C361 1.491 . S
C356 H347 0.950 . S
C356 C355 1.398 . S
C356 C357 1.391 . S
C357 H345 0.950 . S
C357 C353 1.393 . S
C357 C356 1.391 . S
C358 H348 0.950 . S
C358 C359 1.386 . S
C358 C360 1.391 . S
C359 C358 1.386 . S
C359 C363 1.393 . S
C360 H349 0.950 . S
C360 C358 1.391 . S
C360 C361 1.400 . S
C361 C355 1.491 . S
C361 C360 1.400 . S
C361 C362 1.398 . S
C362 H350 0.946 1_556 S
C362 C361 1.398 . S
C362 C363 1.391 . S
C363 H351 0.950 1_556 S
C363 C359 1.393 . S
C363 C362 1.391 . S
H364 C372 0.950 . S
H365 C377 0.950 . S
H366 C374 0.950 . S
H367 C376 0.950 . S
H368 C378 0.950 . S
H369 C380 0.950 . S
H370 C382 0.950 . S
H371 C383 0.950 . S
C372 H364 0.950 . S
C372 C373 1.386 . S
C372 C374 1.391 . S
C373 C372 1.386 . S
C373 C377 1.393 . S
C374 H366 0.950 . S
C374 C372 1.391 . S
C374 C375 1.400 . S
C375 C374 1.400 . S
C375 C376 1.398 . S
C375 C381 1.491 . S
C376 H367 0.950 . S
C376 C375 1.398 . S
C376 C377 1.391 . S
C377 H365 0.950 . S
C377 C373 1.393 . S
C377 C376 1.391 . S
C378 H368 0.950 . S
C378 C379 1.386 . S
C378 C380 1.391 . S
C379 C378 1.386 . S
C379 C383 1.393 . S
C380 H369 0.950 . S
C380 C378 1.391 . S
C380 C381 1.400 . S
C381 C375 1.491 . S
C381 C380 1.400 . S
C381 C382 1.398 . S
C382 H370 0.950 . S
C382 C381 1.398 . S
C382 C383 1.391 . S
C383 H371 0.950 . S
C383 C379 1.393 . S
C383 C382 1.391 . S
H384 C392 0.950 . S
H385 C397 0.950 . S
H386 C394 0.950 . S
H387 C396 0.950 . S
H388 C398 0.950 . S
H389 C400 0.950 . S
H390 C402 0.950 . S
H391 C403 0.950 1_655 S
C392 H384 0.950 . S
C392 C393 1.386 . S
C392 C394 1.391 . S
C393 C392 1.386 . S
C393 C397 1.393 . S
C394 H386 0.950 . S
C394 C392 1.391 . S
C394 C395 1.400 . S
C395 C394 1.400 . S
C395 C396 1.398 . S
C395 C401 1.491 . S
C396 H387 0.950 . S
C396 C395 1.398 . S
C396 C397 1.391 . S
C397 H385 0.950 . S
C397 C393 1.393 . S
C397 C396 1.391 . S
C398 H388 0.950 . S
C398 C399 1.386 . S
C398 C400 1.391 . S
C399 C398 1.386 . S
C399 C403 1.393 . S
C400 H389 0.950 . S
C400 C398 1.391 . S
C400 C401 1.400 . S
C401 C395 1.491 . S
C401 C400 1.400 . S
C401 C402 1.398 . S
C402 H390 0.950 . S
C402 C401 1.398 . S
C402 C403 1.391 . S
C403 H391 0.950 1_455 S
C403 C399 1.393 . S
C403 C402 1.391 . S
H404 C412 0.950 . S
H405 C417 0.950 . S
H406 C414 0.950 . S
H407 C416 0.950 . S
H408 C418 0.950 . S
H409 C420 0.950 . S
H410 C422 0.950 . S
H411 C423 0.950 . S
C412 H404 0.950 . S
C412 C413 1.386 . S
C412 C414 1.391 . S
C413 C412 1.386 . S
C413 C417 1.393 . S
C414 H406 0.950 . S
C414 C412 1.391 . S
C414 C415 1.400 . S
C415 C414 1.400 . S
C415 C416 1.398 . S
C415 C421 1.491 . S
C416 H407 0.950 . S
C416 C415 1.398 . S
C416 C417 1.391 . S
C417 H405 0.950 . S
C417 C413 1.393 . S
C417 C416 1.391 . S
C418 H408 0.950 . S
C418 C419 1.386 . S
C418 C420 1.391 . S
C419 C418 1.386 . S
C419 C423 1.393 . S
C420 H409 0.950 . S
C420 C418 1.391 . S
C420 C421 1.400 . S
C421 C415 1.491 . S
C421 C420 1.400 . S
C421 C422 1.398 . S
C422 H410 0.950 . S
C422 C421 1.398 . S
C422 C423 1.391 . S
C423 H411 0.950 . S
C423 C419 1.393 . S
C423 C422 1.391 . S
H424 C432 0.950 . S
H425 C437 0.950 . S
H426 C434 0.950 . S
H427 C436 0.950 . S
H428 C438 0.950 . S
H429 C440 0.950 . S
H430 C442 0.950 . S
H431 C443 0.950 . S
C432 H424 0.950 . S
C432 C433 1.386 . S
C432 C434 1.391 . S
C433 C432 1.386 . S
C433 C437 1.393 . S
C434 H426 0.950 . S
C434 C432 1.391 . S
C434 C435 1.400 . S
C435 C434 1.400 . S
C435 C436 1.398 . S
C435 C441 1.491 . S
C436 H427 0.950 . S
C436 C435 1.398 . S
C436 C437 1.391 . S
C437 H425 0.950 . S
C437 C433 1.393 . S
C437 C436 1.391 . S
C438 H428 0.950 . S
C438 C439 1.386 . S
C438 C440 1.391 . S
C439 C438 1.386 . S
C439 C443 1.393 . S
C440 H429 0.950 . S
C440 C438 1.391 . S
C440 C441 1.400 . S
C441 C435 1.491 . S
C441 C440 1.400 . S
C441 C442 1.398 . S
C442 H430 0.950 . S
C442 C441 1.398 . S
C442 C443 1.391 . S
C443 H431 0.950 . S
C443 C439 1.393 . S
C443 C442 1.391 . S
H444 C452 0.950 . S
H445 C457 0.950 . S
H446 C454 0.950 . S
H447 C456 0.950 . S
H448 C458 0.950 . S
H449 C460 0.950 . S
H450 C462 0.950 . S
H451 C463 0.950 . S
C452 H444 0.950 . S
C452 C453 1.386 . S
C452 C454 1.391 . S
C453 C452 1.386 . S
C453 C457 1.393 . S
C454 H446 0.950 . S
C454 C452 1.391 . S
C454 C455 1.400 . S
C455 C454 1.400 . S
C455 C456 1.398 . S
C455 C461 1.491 . S
C456 H447 0.950 . S
C456 C455 1.398 . S
C456 C457 1.391 . S
C457 H445 0.950 . S
C457 C453 1.393 . S
C457 C456 1.391 . S
C458 H448 0.950 . S
C458 C459 1.386 . S
C458 C460 1.391 . S
C459 C458 1.386 . S
C459 C463 1.393 . S
C460 H449 0.950 . S
C460 C458 1.391 . S
C460 C461 1.400 . S
C461 C455 1.491 . S
C461 C460 1.400 . S
C461 C462 1.398 . S
C462 H450 0.950 . S
C462 C461 1.398 . S
C462 C463 1.391 . S
C463 H451 0.950 . S
C463 C459 1.393 . S
C463 C462 1.391 . S
H464 C472 0.950 . S
H465 C477 0.950 . S
H466 C474 0.950 . S
H467 C476 0.950 1_545 S
H468 C478 0.950 . S
H469 C480 0.950 . S
H470 C482 0.950 . S
H471 C483 0.950 . S
C472 H464 0.950 . S
C472 C473 1.386 . S
C472 C474 1.391 . S
C473 C472 1.386 . S
C473 C477 1.393 . S
C474 H466 0.950 . S
C474 C472 1.391 . S
C474 C475 1.400 . S
C475 C474 1.400 . S
C475 C476 1.398 . S
C475 C481 1.491 . S
C476 H467 0.950 1_565 S
C476 C475 1.398 . S
C476 C477 1.391 . S
C477 H465 0.950 . S
C477 C473 1.393 . S
C477 C476 1.391 . S
C478 H468 0.950 . S
C478 C479 1.386 . S
C478 C480 1.391 . S
C479 C478 1.386 . S
C479 C483 1.393 1_545 S
C480 H469 0.950 . S
C480 C478 1.391 . S
C480 C481 1.400 1_545 S
C481 C475 1.491 . S
C481 C480 1.400 1_565 S
C481 C482 1.398 . S
C482 H470 0.950 . S
C482 C481 1.398 . S
C482 C483 1.391 . S
C483 H471 0.950 . S
C483 C479 1.393 1_565 S
C483 C482 1.391 . S
H484 C492 0.950 . S
H485 C497 0.950 . S
H486 C494 0.950 . S
H487 C496 0.950 . S
H488 C498 0.950 . S
H489 C500 0.950 . S
H490 C502 0.950 . S
H491 C503 0.950 . S
C492 H484 0.950 . S
C492 C493 1.386 . S
C492 C494 1.391 . S
C493 C492 1.386 . S
C493 C497 1.393 . S
C494 H486 0.950 . S
C494 C492 1.391 . S
C494 C495 1.400 . S
C495 C494 1.400 . S
C495 C496 1.398 . S
C495 C501 1.491 . S
C496 H487 0.950 . S
C496 C495 1.398 . S
C496 C497 1.391 . S
C497 H485 0.950 . S
C497 C493 1.393 . S
C497 C496 1.391 . S
C498 H488 0.950 . S
C498 C499 1.386 . S
C498 C500 1.391 . S
C499 C498 1.386 . S
C499 C503 1.393 . S
C500 H489 0.950 . S
C500 C498 1.391 . S
C500 C501 1.400 . S
C501 C495 1.491 . S
C501 C500 1.400 . S
C501 C502 1.398 . S
C502 H490 0.950 . S
C502 C501 1.398 . S
C502 C503 1.391 . S
C503 H491 0.950 . S
C503 C499 1.393 . S
C503 C502 1.391 . S
H504 C512 0.950 . S
H505 C517 0.950 . S
H506 C514 0.950 . S
H507 C516 0.950 . S
H508 C518 0.950 . S
H509 C520 0.950 . S
H510 C522 0.950 . S
H511 C523 0.950 . S
C512 H504 0.950 . S
C512 C513 1.386 . S
C512 C514 1.391 . S
C513 C512 1.386 . S
C513 C517 1.393 . S
C514 H506 0.950 . S
C514 C512 1.391 . S
C514 C515 1.400 . S
C515 C514 1.400 . S
C515 C516 1.398 . S
C515 C521 1.491 . S
C516 H507 0.950 . S
C516 C515 1.398 . S
C516 C517 1.391 . S
C517 H505 0.950 . S
C517 C513 1.393 . S
C517 C516 1.391 . S
C518 H508 0.950 . S
C518 C519 1.386 . S
C518 C520 1.391 . S
C519 C518 1.386 . S
C519 C523 1.393 . S
C520 H509 0.950 . S
C520 C518 1.391 . S
C520 C521 1.400 . S
C521 C515 1.491 . S
C521 C520 1.400 . S
C521 C522 1.398 . S
C522 H510 0.950 . S
C522 C521 1.398 . S
C522 C523 1.391 . S
C523 H511 0.950 . S
C523 C519 1.393 . S
C523 C522 1.391 . S
H524 C532 0.950 . S
H525 C537 0.950 . S
H526 C534 0.950 . S
H527 C536 0.950 . S
H528 C538 0.950 . S
H529 C540 0.950 . S
H530 C542 0.950 . S
H531 C543 0.950 . S
C532 H524 0.950 . S
C532 C533 1.386 . S
C532 C534 1.391 . S
C533 C532 1.386 . S
C533 C537 1.393 . S
C534 H526 0.950 . S
C534 C532 1.391 . S
C534 C535 1.400 . S
C535 C534 1.400 . S
C535 C536 1.398 . S
C535 C541 1.491 . S
C536 H527 0.950 . S
C536 C535 1.398 . S
C536 C537 1.391 . S
C537 H525 0.950 . S
C537 C533 1.393 . S
C537 C536 1.391 . S
C538 H528 0.950 . S
C538 C539 1.386 . S
C538 C540 1.391 . S
C539 C538 1.386 . S
C539 C543 1.393 . S
C540 H529 0.950 . S
C540 C538 1.391 . S
C540 C541 1.400 . S
C541 C535 1.491 . S
C541 C540 1.400 . S
C541 C542 1.398 . S
C542 H530 0.950 . S
C542 C541 1.398 . S
C542 C543 1.391 . S
C543 H531 0.950 . S
C543 C539 1.393 . S
C543 C542 1.391 . S
H544 C552 0.971 . S
H545 C557 0.950 . S
H546 C554 0.950 . S
H547 C556 0.950 . S
H548 C558 0.950 . S
H549 C560 0.950 . S
H550 C562 0.950 . S
H551 C563 0.943 1_554 S
C552 H544 0.971 . S
C552 C553 1.355 1_545 S
C552 C554 1.401 . S
C553 C552 1.355 1_565 S
C553 C557 1.393 . S
C554 H546 0.950 . S
C554 C552 1.401 . S
C554 C555 1.400 1_545 S
C555 C554 1.400 1_565 S
C555 C556 1.398 . S
C555 C561 1.491 . S
C556 H547 0.950 . S
C556 C555 1.398 . S
C556 C557 1.391 . S
C557 H545 0.950 . S
C557 C553 1.393 . S
C557 C556 1.391 . S
C558 H548 0.950 . S
C558 C559 1.390 1_565 S
C558 C560 1.391 . S
C559 C558 1.390 1_545 S
C559 C563 1.395 . S
C560 H549 0.950 . S
C560 C558 1.391 . S
C560 C561 1.400 . S
C561 C555 1.491 . S
C561 C560 1.400 . S
C561 C562 1.398 1_565 S
C562 H550 0.950 . S
C562 C561 1.398 1_545 S
C562 C563 1.391 . S
C563 H551 0.943 1_556 S
C563 C559 1.395 . S
C563 C562 1.391 . S
H564 C572 0.950 . S
H565 C577 0.950 . S
H566 C574 0.950 . S
H567 C576 0.950 . S
H568 C578 0.950 . S
H569 C580 0.950 . S
H570 C582 0.950 . S
H571 C583 0.950 . S
C572 H564 0.950 . S
C572 C573 1.386 . S
C572 C574 1.391 . S
C573 C572 1.386 . S
C573 C577 1.393 . S
C574 H566 0.950 . S
C574 C572 1.391 . S
C574 C575 1.400 . S
C575 C574 1.400 . S
C575 C576 1.398 . S
C575 C581 1.491 . S
C576 H567 0.950 . S
C576 C575 1.398 . S
C576 C577 1.391 . S
C577 H565 0.950 . S
C577 C573 1.393 . S
C577 C576 1.391 . S
C578 H568 0.950 . S
C578 C579 1.386 . S
C578 C580 1.391 . S
C579 C578 1.386 . S
C579 C583 1.393 . S
C580 H569 0.950 . S
C580 C578 1.391 . S
C580 C581 1.400 . S
C581 C575 1.491 . S
C581 C580 1.400 . S
C581 C582 1.398 . S
C582 H570 0.950 . S
C582 C581 1.398 . S
C582 C583 1.391 . S
C583 H571 0.950 . S
C583 C579 1.393 . S
C583 C582 1.391 . S
H584 C592 0.950 . S
H585 C597 0.950 . S
H586 C594 0.950 . S
H587 C596 0.950 . S
H588 C598 0.950 . S
H589 C600 0.950 . S
H590 C602 0.950 . S
H591 C603 0.950 1_556 S
C592 H584 0.950 . S
C592 C593 1.386 . S
C592 C594 1.391 . S
C593 C592 1.386 . S
C593 C597 1.393 . S
C594 H586 0.950 . S
C594 C592 1.391 . S
C594 C595 1.400 . S
C595 C594 1.400 . S
C595 C596 1.398 . S
C595 C601 1.491 . S
C596 H587 0.950 . S
C596 C595 1.398 . S
C596 C597 1.391 . S
C597 H585 0.950 . S
C597 C593 1.393 . S
C597 C596 1.391 . S
C598 H588 0.950 . S
C598 C599 1.386 . S
C598 C600 1.391 . S
C599 C598 1.386 . S
C599 C603 1.393 . S
C600 H589 0.950 . S
C600 C598 1.391 . S
C600 C601 1.400 . S
C601 C595 1.491 . S
C601 C600 1.400 . S
C601 C602 1.398 . S
C602 H590 0.950 . S
C602 C601 1.398 . S
C602 C603 1.391 . S
C603 H591 0.950 1_554 S
C603 C599 1.393 . S
C603 C602 1.391 . S
H604 C612 0.950 . S
H605 C617 0.950 . S
H606 C614 0.950 . S
H607 C616 0.950 . S
H608 C618 0.950 . S
H609 C620 0.950 . S
H610 C622 0.950 . S
H611 C623 0.950 . S
C612 H604 0.950 . S
C612 C613 1.386 . S
C612 C614 1.391 . S
C613 C612 1.386 . S
C613 C617 1.393 . S
C614 H606 0.950 . S
C614 C612 1.391 . S
C614 C615 1.400 . S
C615 C614 1.400 . S
C615 C616 1.398 . S
C615 C621 1.491 . S
C616 H607 0.950 . S
C616 C615 1.398 . S
C616 C617 1.391 . S
C617 H605 0.950 . S
C617 C613 1.393 . S
C617 C616 1.391 . S
C618 H608 0.950 . S
C618 C619 1.386 . S
C618 C620 1.391 . S
C619 C618 1.386 . S
C619 C623 1.393 . S
C620 H609 0.950 . S
C620 C618 1.391 . S
C620 C621 1.400 . S
C621 C615 1.491 . S
C621 C620 1.400 . S
C621 C622 1.398 . S
C622 H610 0.950 . S
C622 C621 1.398 . S
C622 C623 1.391 . S
C623 H611 0.950 . S
C623 C619 1.393 . S
C623 C622 1.391 . S
H624 C632 0.950 . S
H625 C637 0.950 . S
H626 C634 0.950 . S
H627 C636 0.950 . S
H628 C638 0.950 1_554 S
H629 C640 0.950 . S
H630 C642 0.950 . S
H631 C643 0.950 . S
C632 H624 0.950 . S
C632 C633 1.386 . S
C632 C634 1.391 . S
C633 C632 1.386 . S
C633 C637 1.393 . S
C634 H626 0.950 . S
C634 C632 1.391 . S
C634 C635 1.400 . S
C635 C634 1.400 . S
C635 C636 1.398 . S
C635 C641 1.491 . S
C636 H627 0.950 . S
C636 C635 1.398 . S
C636 C637 1.391 . S
C637 H625 0.950 . S
C637 C633 1.393 . S
C637 C636 1.391 . S
C638 H628 0.950 1_556 S
C638 C639 1.386 . S
C638 C640 1.391 . S
C639 C638 1.386 . S
C639 C643 1.393 . S
C640 H629 0.950 . S
C640 C638 1.391 . S
C640 C641 1.400 . S
C641 C635 1.491 . S
C641 C640 1.400 . S
C641 C642 1.398 . S
C642 H630 0.950 . S
C642 C641 1.398 . S
C642 C643 1.391 . S
C643 H631 0.950 . S
C643 C639 1.393 . S
C643 C642 1.391 . S
H644 C652 0.950 . S
H645 C657 0.950 . S
H646 C654 0.950 . S
H647 C656 0.950 . S
H648 C658 0.950 . S
H649 C660 0.950 . S
H650 C662 0.950 . S
H651 C663 0.950 . S
C652 H644 0.950 . S
C652 C653 1.386 . S
C652 C654 1.391 . S
C653 C652 1.386 . S
C653 C657 1.393 . S
C654 H646 0.950 . S
C654 C652 1.391 . S
C654 C655 1.400 . S
C655 C654 1.400 . S
C655 C656 1.398 . S
C655 C661 1.491 . S
C656 H647 0.950 . S
C656 C655 1.398 . S
C656 C657 1.391 . S
C657 H645 0.950 . S
C657 C653 1.393 . S
C657 C656 1.391 . S
C658 H648 0.950 . S
C658 C659 1.386 . S
C658 C660 1.391 . S
C659 C658 1.386 . S
C659 C663 1.393 . S
C660 H649 0.950 . S
C660 C658 1.391 . S
C660 C661 1.400 . S
C661 C655 1.491 . S
C661 C660 1.400 . S
C661 C662 1.398 . S
C662 H650 0.950 . S
C662 C661 1.398 . S
C662 C663 1.391 . S
C663 H651 0.950 . S
C663 C659 1.393 . S
C663 C662 1.391 . S
H664 C672 0.950 . S
H665 C677 0.950 . S
H666 C674 0.950 . S
H667 C676 0.950 . S
H668 C678 0.950 . S
H669 C680 0.950 . S
H670 C682 0.950 . S
H671 C683 0.950 . S
C672 H664 0.950 . S
C672 C673 1.386 . S
C672 C674 1.391 . S
C673 C672 1.386 . S
C673 C677 1.393 . S
C674 H666 0.950 . S
C674 C672 1.391 . S
C674 C675 1.400 . S
C675 C674 1.400 . S
C675 C676 1.398 . S
C675 C681 1.491 . S
C676 H667 0.950 . S
C676 C675 1.398 . S
C676 C677 1.391 . S
C677 H665 0.950 . S
C677 C673 1.393 . S
C677 C676 1.391 . S
C678 H668 0.950 . S
C678 C679 1.386 . S
C678 C680 1.391 . S
C679 C678 1.386 . S
C679 C683 1.393 . S
C680 H669 0.950 . S
C680 C678 1.391 . S
C680 C681 1.400 . S
C681 C675 1.491 . S
C681 C680 1.400 . S
C681 C682 1.398 . S
C682 H670 0.950 . S
C682 C681 1.398 . S
C682 C683 1.391 . S
C683 H671 0.950 . S
C683 C679 1.393 . S
C683 C682 1.391 . S
H684 C692 0.950 . S
H685 C697 0.950 . S
H686 C694 0.950 . S
H687 C696 0.950 . S
H688 C698 0.950 . S
H689 C700 0.950 . S
H690 C702 0.950 . S
H691 C703 0.950 . S
C692 H684 0.950 . S
C692 C693 1.386 . S
C692 C694 1.391 . S
C693 C692 1.386 . S
C693 C697 1.393 . S
C694 H686 0.950 . S
C694 C692 1.391 . S
C694 C695 1.400 . S
C695 C694 1.400 . S
C695 C696 1.398 . S
C695 C701 1.491 . S
C696 H687 0.950 . S
C696 C695 1.398 . S
C696 C697 1.391 . S
C697 H685 0.950 . S
C697 C693 1.393 . S
C697 C696 1.391 . S
C698 H688 0.950 . S
C698 C699 1.386 . S
C698 C700 1.391 . S
C699 C698 1.386 . S
C699 C703 1.393 . S
C700 H689 0.950 . S
C700 C698 1.391 . S
C700 C701 1.400 . S
C701 C695 1.491 . S
C701 C700 1.400 . S
C701 C702 1.398 . S
C702 H690 0.950 . S
C702 C701 1.398 . S
C702 C703 1.391 . S
C703 H691 0.950 . S
C703 C699 1.393 . S
C703 C702 1.391 . S
C233 C4 2.518 . S
C239 C88 2.522 . S
C253 C16 2.613 . S
C259 C130 2.620 . S
C279 C160 0.618 . S
C273 C32 0.619 . S
C293 C43 0.899 . S
C299 C194 0.903 . S
C319 C151 2.272 . S
C313 C5 2.265 . S
C339 C105 1.661 . S
C333 C21 1.644 . S
C359 C198 1.136 . S
C353 C27 1.117 . S
C379 C164 1.172 . S
C373 C37 1.154 . S
C393 C10 2.204 . S
C399 C219 2.223 . S
C419 C126 1.190 . S
C413 C26 1.181 . S
C433 C38 0.917 . S
C439 C101 0.929 . S
C453 C15 2.348 . S
C459 C185 2.358 . S
C479 C117 2.638 . S
C473 C48 2.630 . S
C493 C59 2.388 . S
C499 C139 2.409 . S
C513 C76 0.851 . S
C519 C169 0.855 . S
C533 C87 0.744 . S
C539 C203 0.738 . S
C553 C54 1.689 . S
C559 C122 1.703 1_556 S
C579 C96 2.225 . S
C573 C60 2.212 . S
C599 C207 1.089 . S
C593 C71 1.083 . S
C619 C173 1.154 . S
C613 C82 1.156 . S
C633 C49 2.492 . S
C639 C190 2.495 . S
C659 C135 0.875 . S
C653 C70 0.870 . S
C679 C92 1.152 . S
C673 C81 1.137 . S
C693 C65 2.150 . S
C699 C156 2.163 . S
