# Generated by pormake.
# Topology pyr, (3,6)-cn, num edge types: 1
# Building blocks:
#     Node 0, Type 0, BuildingBlock: PAMTOO_clean_linker_0, # of connection points: 3
#     Node 1, Type 0, BuildingBlock: PAMTOO_clean_linker_0, # of connection points: 3
#     Node 2, Type 0, BuildingBlock: PAMTOO_clean_linker_0, # of connection points: 3
#     Node 3, Type 0, BuildingBlock: PAMTOO_clean_linker_0, # of connection points: 3
#     Node 4, Type 0, BuildingBlock: PAMTOO_clean_linker_0, # of connection points: 3
#     Node 5, Type 0, BuildingBlock: PAMTOO_clean_linker_0, # of connection points: 3
#     Node 6, Type 0, BuildingBlock: PAMTOO_clean_linker_0, # of connection points: 3
#     Node 7, Type 0, BuildingBlock: PAMTOO_clean_linker_0, # of connection points: 3
#     Node 8, Type 1, BuildingBlock: GEDQOX_clean_sbu_0, # of connection points: 6
#     Node 9, Type 1, BuildingBlock: GEDQOX_clean_sbu_0, # of connection points: 6
#     Node 10, Type 1, BuildingBlock: GEDQOX_clean_sbu_0, # of connection points: 6
#     Node 11, Type 1, BuildingBlock: GEDQOX_clean_sbu_0, # of connection points: 6
#     Edge 12, Type (0, 1), BuildingBlock: XUDNAN_clean_linker_2, # of connection points: 2
#     Edge 13, Type (0, 1), BuildingBlock: XUDNAN_clean_linker_2, # of connection points: 2
#     Edge 14, Type (0, 1), BuildingBlock: XUDNAN_clean_linker_2, # of connection points: 2
#     Edge 15, Type (0, 1), BuildingBlock: XUDNAN_clean_linker_2, # of connection points: 2
#     Edge 16, Type (0, 1), BuildingBlock: XUDNAN_clean_linker_2, # of connection points: 2
#     Edge 17, Type (0, 1), BuildingBlock: XUDNAN_clean_linker_2, # of connection points: 2
#     Edge 18, Type (0, 1), BuildingBlock: XUDNAN_clean_linker_2, # of connection points: 2
#     Edge 19, Type (0, 1), BuildingBlock: XUDNAN_clean_linker_2, # of connection points: 2
#     Edge 20, Type (0, 1), BuildingBlock: XUDNAN_clean_linker_2, # of connection points: 2
#     Edge 21, Type (0, 1), BuildingBlock: XUDNAN_clean_linker_2, # of connection points: 2
#     Edge 22, Type (0, 1), BuildingBlock: XUDNAN_clean_linker_2, # of connection points: 2
#     Edge 23, Type (0, 1), BuildingBlock: XUDNAN_clean_linker_2, # of connection points: 2
#     Edge 24, Type (0, 1), BuildingBlock: XUDNAN_clean_linker_2, # of connection points: 2
#     Edge 25, Type (0, 1), BuildingBlock: XUDNAN_clean_linker_2, # of connection points: 2
#     Edge 26, Type (0, 1), BuildingBlock: XUDNAN_clean_linker_2, # of connection points: 2
#     Edge 27, Type (0, 1), BuildingBlock: XUDNAN_clean_linker_2, # of connection points: 2
#     Edge 28, Type (0, 1), BuildingBlock: XUDNAN_clean_linker_2, # of connection points: 2
#     Edge 29, Type (0, 1), BuildingBlock: XUDNAN_clean_linker_2, # of connection points: 2
#     Edge 30, Type (0, 1), BuildingBlock: XUDNAN_clean_linker_2, # of connection points: 2
#     Edge 31, Type (0, 1), BuildingBlock: XUDNAN_clean_linker_2, # of connection points: 2
#     Edge 32, Type (0, 1), BuildingBlock: XUDNAN_clean_linker_2, # of connection points: 2
#     Edge 33, Type (0, 1), BuildingBlock: XUDNAN_clean_linker_2, # of connection points: 2
#     Edge 34, Type (0, 1), BuildingBlock: XUDNAN_clean_linker_2, # of connection points: 2
#     Edge 35, Type (0, 1), BuildingBlock: XUDNAN_clean_linker_2, # of connection points: 2
# Relax obj value: 0.170
# Max RMSD: 0.233
# Mean RMSD: 0.151
data_MOF--net-pyr--node1-GEDQOX_clean_sbu_0--node2-PAMTOO_clean_linker_0--edge1-XUDNAN_clean_linker_2
_symmetry_space_group_name_H-M    P1
_symmetry_Int_Tables_number       1
_symmetry_cell_setting            triclinic
loop_
_symmetry_equiv_pos_as_xyz
'x, y, z'
_cell_length_a     39.583628
_cell_length_b     40.220957
_cell_length_c     35.522598
_cell_angle_alpha  89.368343
_cell_angle_beta   94.790653
_cell_angle_gamma 92.891358
loop_
_atom_site_label
_atom_site_type_symbol
_atom_site_fract_x
_atom_site_fract_y
_atom_site_fract_z
_atom_type_partial_charge
H0 H 0.17584 0.21674 0.23053 0.0
H1 H 0.25598 0.14762 0.22902 0.0
H2 H 0.2512 0.22899 0.14827 0.0
H3 H 0.28795 0.16132 0.11812 0.0
C4 C 0.29962 0.153 0.14592 0.0
O5 O 0.29049 0.17669 0.17394 0.0
H6 H 0.28623 0.12883 0.15185 0.0
C7 C 0.19777 0.20839 0.21789 0.0
C8 C 0.21005 0.22754 0.1861 0.0
C9 C 0.21269 0.17882 0.23431 0.0
C10 C 0.24284 0.16866 0.21704 0.0
C11 C 0.25782 0.18561 0.18558 0.0
C12 C 0.24056 0.21524 0.1712 0.0
H13 H 0.38064 0.8673 0.75624 0.0
H14 H 0.39869 0.78415 0.6867 0.0
H15 H 0.48117 0.83108 0.75605 0.0
H16 H 0.45224 0.74636 0.74591 0.0
C17 C 0.4716 0.75399 0.72602 0.0
O18 O 0.46374 0.7834 0.70761 0.0
H19 H 0.49634 0.75788 0.743 0.0
C20 C 0.39783 0.84978 0.74641 0.0
C21 C 0.43233 0.85233 0.75946 0.0
C22 C 0.38535 0.82531 0.72023 0.0
C23 C 0.40782 0.80298 0.70716 0.0
C24 C 0.44219 0.80481 0.72057 0.0
C25 C 0.45441 0.82945 0.74657 0.0
H26 H 0.83564 0.36728 0.8629 0.0
H27 H 0.75522 0.3781 0.77478 0.0
H28 H 0.82913 0.45804 0.79769 0.0
H29 H 0.76738 0.48944 0.76617 0.0
C30 C 0.75395 0.46508 0.77121 0.0
O31 O 0.77297 0.43999 0.75905 0.0
H32 H 0.75137 0.46317 0.80221 0.0
C33 C 0.82387 0.38161 0.83982 0.0
C34 C 0.83607 0.41438 0.83321 0.0
C35 C 0.79509 0.36793 0.81845 0.0
C36 C 0.77804 0.38771 0.79082 0.0
C37 C 0.79046 0.42012 0.78368 0.0
C38 C 0.81995 0.43289 0.80383 0.0
H39 H 0.85341 0.84063 0.39584 0.0
H40 H 0.8348 0.7598 0.31732 0.0
H41 H 0.9011 0.84283 0.29095 0.0
H42 H 0.8613 0.80564 0.216 0.0
C43 C 0.85215 0.78581 0.23527 0.0
O44 O 0.87394 0.78519 0.26768 0.0
H45 H 0.82601 0.79157 0.24172 0.0
C46 C 0.85734 0.82946 0.369 0.0
C47 C 0.87943 0.84551 0.34478 0.0
C48 C 0.84104 0.79862 0.3593 0.0
C49 C 0.84687 0.78383 0.325 0.0
C50 C 0.86783 0.80016 0.3001 0.0
C51 C 0.88395 0.83101 0.30984 0.0
H52 H 0.86662 0.9325 0.83152 0.0
H53 H 0.86066 0.85945 0.92275 0.0
H54 H 0.93964 0.85591 0.84627 0.0
H55 H 0.91489 0.78464 0.87461 0.0
C56 C 0.91495 0.79078 0.90502 0.0
O57 O 0.91842 0.82686 0.90818 0.0
H58 H 0.88913 0.78314 0.91296 0.0
C59 C 0.87567 0.91079 0.84661 0.0
C60 C 0.90515 0.89597 0.83277 0.0
C61 C 0.85769 0.89844 0.87906 0.0
C62 C 0.87226 0.86929 0.89818 0.0
C63 C 0.90174 0.85268 0.88632 0.0
C64 C 0.91699 0.86712 0.85405 0.0
H65 H 0.75211 0.19393 0.31094 0.0
H66 H 0.65642 0.23324 0.26991 0.0
H67 H 0.7144 0.27876 0.36417 0.0
H68 H 0.64802 0.30865 0.27316 0.0
C69 C 0.65894 0.31112 0.30293 0.0
O70 O 0.65874 0.2802 0.32007 0.0
H71 H 0.68536 0.32204 0.30257 0.0
C72 C 0.733 0.21212 0.31237 0.0
C73 C 0.73698 0.2364 0.34087 0.0
C74 C 0.70413 0.21062 0.28632 0.0
C75 C 0.67936 0.23422 0.28884 0.0
C76 C 0.68333 0.25864 0.31679 0.0
C77 C 0.71193 0.2597 0.34265 0.0
H78 H 0.29209 0.6961 0.14666 0.0
H79 H 0.31988 0.64201 0.24996 0.0
H80 H 0.38187 0.72524 0.217 0.0
H81 H 0.42548 0.6766 0.2498 0.0
C82 C 0.4048 0.65865 0.25741 0.0
O83 O 0.37678 0.67596 0.26436 0.0
H84 H 0.39905 0.64144 0.23304 0.0
C85 C 0.30811 0.69272 0.1725 0.0
C86 C 0.33687 0.71421 0.17966 0.0
C87 C 0.30139 0.6661 0.19752 0.0
C88 C 0.32409 0.66184 0.2298 0.0
C89 C 0.35312 0.6828 0.23622 0.0
C90 C 0.35909 0.70927 0.21173 0.0
H91 H 0.19646 0.23844 0.76376 0.0
H92 H 0.29924 0.2797 0.77868 0.0
H93 H 0.28051 0.17692 0.75069 0.0
H94 H 0.36185 0.20286 0.79907 0.0
C95 C 0.35228 0.22777 0.79146 0.0
O96 O 0.32691 0.22456 0.76242 0.0
H97 H 0.34292 0.2385 0.81722 0.0
C98 C 0.22359 0.2357 0.76436 0.0
C99 C 0.23572 0.2047 0.75571 0.0
C100 C 0.24643 0.26277 0.77427 0.0
C101 C 0.28138 0.25868 0.77355 0.0
C102 C 0.29358 0.22758 0.76618 0.0
C103 C 0.27081 0.20052 0.75803 0.0
Nd104 Nd 0.07954 1.00526 0.53154 0.0
Nd105 Nd 0.04371 0.06479 0.53702 0.0
C106 C 0.11165 0.95181 0.51485 0.0
C107 C 0.13311 0.92749 0.53562 0.0
C108 C 0.12038 0.90563 0.56278 0.0
C109 C 0.14224 0.88528 0.58454 0.0
C110 C 0.17729 0.88663 0.57988 0.0
C111 C 0.18957 0.90769 0.55165 0.0
C112 C 0.1677 0.92762 0.52965 0.0
C113 C 0.10623 0.04378 0.59103 0.0
C114 C 0.02632 1.00093 0.60052 0.0
C115 C 1.01303 0.11895 0.55438 0.0
C116 C 0.9909 0.14211 0.53335 0.0
C117 C 0.98189 0.17117 0.55052 0.0
C118 C 0.95716 0.19086 0.53247 0.0
C119 C 0.94089 0.18155 0.4971 0.0
C120 C 0.95129 0.15311 0.47936 0.0
C121 C 0.97614 0.13368 0.49726 0.0
C122 C 1.01515 0.02369 0.48035 0.0
C123 C 0.09518 0.06752 0.46589 0.0
O124 O 0.07923 0.95096 0.51989 0.0
O125 O 0.12495 0.98213 0.51361 0.0
O126 O 0.10345 1.01165 0.59192 0.0
O127 O 0.09706 0.05493 0.55865 0.0
O128 O 0.04402 0.98332 0.57794 0.0
O129 O 1.02516 0.03376 0.59253 0.0
O130 O 0.04468 0.11951 0.5464 0.0
O131 O 0.99987 0.08875 0.55757 0.0
O132 O 1.01796 0.05573 0.47708 0.0
O133 O 0.02568 1.01453 0.51295 0.0
O134 O 0.07766 0.08632 0.48751 0.0
O135 O 0.09625 0.03522 0.47581 0.0
H136 H 0.09376 0.90478 0.56789 0.0
H137 H 0.13172 0.86895 0.6055 0.0
H138 H 0.21637 0.91 0.54749 0.0
H139 H 0.17815 0.94415 0.50879 0.0
H140 H 0.99313 0.17804 0.57838 0.0
H141 H 0.95016 0.21288 0.54666 0.0
H142 H 0.93906 0.14478 0.45247 0.0
H143 H 0.98273 0.11123 0.48363 0.0
Nd144 Nd 0.57885 1.01024 0.03818 0.0
Nd145 Nd 0.58664 0.05073 0.99753 0.0
C146 C 0.56619 0.95261 0.07264 0.0
C147 C 0.53528 0.93273 0.07924 0.0
C148 C 0.53722 0.90489 0.10305 0.0
C149 C 0.50837 0.88425 0.10715 0.0
C150 C 0.47718 0.89105 0.08725 0.0
C151 C 0.47516 0.91959 0.06418 0.0
C152 C 0.50407 0.94031 0.06019 0.0
C153 C 0.52626 0.05523 0.0574 0.0
C154 C 0.53647 1.00013 0.95992 0.0
C155 C 0.59665 0.10815 0.96149 0.0
C156 C 0.62268 0.12939 0.94461 0.0
C157 C 0.62331 0.16371 0.9509 0.0
C158 C 0.64661 0.18503 0.93418 0.0
C159 C 0.66966 0.17245 0.91056 0.0
C160 C 0.66949 0.13787 0.90488 0.0
C161 C 0.64614 0.11644 0.92181 0.0
C162 C 0.63941 1.00572 0.97844 0.0
C163 C 0.62754 0.06125 0.07689 0.0
O164 O 0.57273 0.95532 0.03746 0.0
O165 O 0.57091 0.98077 0.09041 0.0
O166 O 0.55012 0.0427 0.07964 0.0
O167 O 0.5332 0.04659 0.0238 0.0
O168 O 0.55642 0.98394 0.98371 0.0
O169 O 0.53808 0.0322 0.96361 0.0
O170 O 0.59948 0.10513 0.9981 0.0
O171 O 0.58654 0.08044 0.94456 0.0
O172 O 0.61595 0.01888 0.9562 0.0
O173 O 0.63228 1.01427 1.012 0.0
O174 O 0.60789 0.07717 0.05239 0.0
O175 O 0.62634 0.02911 0.07362 0.0
H176 H 0.56114 0.89883 0.11799 0.0
H177 H 0.51054 0.86284 0.12581 0.0
H178 H 0.45154 0.92539 0.04844 0.0
H179 H 0.50228 0.96182 0.0416 0.0
H180 H 0.60553 0.1741 0.96862 0.0
H181 H 0.64659 0.21144 0.93986 0.0
H182 H 0.68688 0.12746 0.88676 0.0
H183 H 0.64617 0.08993 0.91676 0.0
Nd184 Nd 0.50847 0.49396 0.52933 0.0
Nd185 Nd 0.57691 0.53051 0.52363 0.0
C186 C 0.45161 0.45685 0.52804 0.0
C187 C 0.43639 0.437 0.55775 0.0
C188 C 0.42336 0.4047 0.54916 0.0
C189 C 0.41807 0.38176 0.57808 0.0
C190 C 0.42556 0.39089 0.61604 0.0
C191 C 0.43595 0.424 0.62471 0.0
C192 C 0.44161 0.44688 0.59572 0.0
C193 C 0.5545 0.48646 0.59109 0.0
C194 C 0.51926 0.56601 0.56572 0.0
C195 C 0.6411 0.55207 0.52429 0.0
C196 C 0.66199 0.58223 0.51598 0.0
C197 C 0.68298 0.58121 0.48618 0.0
C198 C 0.70198 0.60946 0.47598 0.0
C199 C 0.70096 0.63944 0.49578 0.0
C200 C 0.6804 0.64029 0.52625 0.0
C201 C 0.66099 0.61194 0.53622 0.0
C202 C 0.52625 0.55436 0.47459 0.0
C203 C 0.56054 0.4628 0.47509 0.0
O204 O 0.45235 0.48937 0.53093 0.0
O205 O 0.48033 0.44584 0.51905 0.0
O206 O 0.52246 0.4892 0.59354 0.0
O207 O 0.561 0.48605 0.55721 0.0
O208 O 0.49716 0.54673 0.54507 0.0
O209 O 0.55209 0.56032 0.56837 0.0
O210 O 0.62397 0.53812 0.49503 0.0
O211 O 0.62423 0.55147 0.5546 0.0
O212 O 0.55127 0.57297 0.48985 0.0
O213 O 0.53016 0.52428 0.48279 0.0
O214 O 0.58479 0.48197 0.49258 0.0
O215 O 0.52843 0.46602 0.48078 0.0
H216 H 0.4196 0.39651 0.52007 0.0
H217 H 0.40962 0.35644 0.57077 0.0
H218 H 0.44192 0.43156 0.65379 0.0
H219 H 0.45219 0.47156 0.60302 0.0
H220 H 0.68421 0.55857 0.47017 0.0
H221 H 0.71681 0.6079 0.45186 0.0
H222 H 0.67927 0.66283 0.54238 0.0
H223 H 0.64507 0.61339 0.55945 0.0
Nd224 Nd 0.03927 0.50718 0.06762 0.0
Nd225 Nd 0.0972 0.51993 0.02471 0.0
C226 C 0.97808 0.50206 0.09222 0.0
C227 C 0.9565 0.52839 0.10313 0.0
C228 C 0.92176 0.52203 0.10644 0.0
C229 C 0.9018 0.54748 0.1174 0.0
C230 C 0.9164 0.57962 0.12521 0.0
C231 C 0.95123 0.58576 0.12125 0.0
C232 C 0.97098 0.56048 0.11016 0.0
C233 C 0.09291 0.53875 0.10849 0.0
C234 C 0.04167 0.58162 0.0178 0.0
C235 C 0.15579 0.52417 0.99416 0.0
C236 C 0.16777 0.4995 0.96891 0.0
C237 C 0.19887 0.50405 0.95286 0.0
C238 C 0.20762 0.48156 0.92578 0.0
C239 C 0.185 0.45482 0.91417 0.0
C240 C 0.15439 0.44998 0.93115 0.0
C241 C 0.14596 0.47198 0.9584 0.0
C242 C 0.04355 0.48821 0.98339 0.0
C243 C 0.09587 0.44655 0.07703 0.0
O244 O 0.98324 0.50132 0.05636 0.0
O245 O 1.00593 0.49887 0.11417 0.0
O246 O 0.07475 0.51433 0.12163 0.0
O247 O 0.08248 0.54631 0.07525 0.0
O248 O 1.02266 0.55867 0.03542 0.0
O249 O 0.07395 0.57397 1.0144 0.0
O250 O 0.15304 0.51432 0.02903 0.0
O251 O 0.12897 0.53892 0.98 0.0
O252 O 0.0625 0.51196 0.97049 0.0
O253 O 0.05379 0.4811 0.01682 0.0
O254 O 0.1147 0.46941 0.05891 0.0
O255 O 0.06353 0.45404 0.0804 0.0
H256 H 0.91014 0.49744 0.10076 0.0
H257 H 0.875 0.54198 0.11976 0.0
H258 H 0.96359 0.60989 0.1277 0.0
H259 H 0.99781 0.56589 0.10764 0.0
H260 H 0.21589 0.52526 0.96059 0.0
H261 H 0.23143 0.4856 0.91305 0.0
H262 H 0.1368 0.42927 0.92306 0.0
H263 H 0.12184 0.46806 0.97057 0.0
H264 H 0.16677 0.19614 0.29307 0.0
H265 H 0.22006 0.11186 0.25721 0.0
H266 H 0.19771 0.07824 0.30842 0.0
H267 H 0.17851 0.17799 0.3961 0.0
H268 H 0.13701 0.19001 0.40635 0.0
H269 H 0.15697 0.20857 0.36684 0.0
H270 H 0.1049 0.19019 0.32228 0.0
H271 H 0.08479 0.17158 0.36166 0.0
H272 H 0.09054 0.14693 0.32082 0.0
H273 H 0.16763 0.05034 0.36651 0.0
H274 H 0.13628 0.0338 0.42127 0.0
H275 H 0.09982 0.13339 0.42556 0.0
C276 C 0.17402 0.1706 0.2955 0.0
C277 C 0.19678 0.15816 0.26886 0.0
C278 C 0.20416 0.12396 0.27561 0.0
C279 C 0.19096 0.10393 0.30536 0.0
C280 C 0.16931 0.11693 0.33052 0.0
C281 C 0.16087 0.14974 0.32594 0.0
C282 C 0.13698 0.1573 0.35751 0.0
C283 C 0.15332 0.18515 0.38322 0.0
C284 C 0.10224 0.16711 0.3395 0.0
C285 C 0.13326 0.12397 0.38037 0.0
C286 C 0.15228 0.10107 0.36382 0.0
C287 C 0.15295 0.06859 0.37912 0.0
C288 C 0.13454 0.05918 0.4111 0.0
C289 C 0.11444 0.08129 0.43003 0.0
C290 C 0.11433 0.11478 0.41336 0.0
H291 H 0.47583 0.84812 0.82376 0.0
H292 H 0.41746 0.91791 0.75442 0.0
H293 H 0.43634 0.96294 0.79913 0.0
H294 H 0.45949 0.88143 0.91356 0.0
H295 H 0.50148 0.87505 0.93529 0.0
H296 H 0.48358 0.84814 0.89778 0.0
H297 H 0.53556 0.86219 0.85964 0.0
H298 H 0.55374 0.88892 0.89717 0.0
H299 H 0.54723 0.90512 0.84975 0.0
H300 H 0.46164 1.00048 0.8511 0.0
H301 H 0.4929 0.02819 0.90622 0.0
H302 H 0.53453 0.93403 0.94194 0.0
C303 C 0.46728 0.87295 0.81786 0.0
C304 C 0.44503 0.87949 0.78573 0.0
C305 C 0.43413 0.91224 0.77915 0.0
C306 C 0.4448 0.938 0.80429 0.0
C307 C 0.46636 0.93065 0.83594 0.0
C308 C 0.47757 0.89897 0.84279 0.0
C309 C 0.50069 0.89778 0.87894 0.0
C310 C 0.48538 0.8742 0.90811 0.0
C311 C 0.53642 0.88793 0.87088 0.0
C312 C 0.50082 0.93375 0.89118 0.0
C313 C 0.48082 0.95228 0.86602 0.0
C314 C 0.47735 0.98622 0.87106 0.0
C315 C 0.49513 1.00173 0.90245 0.0
C316 C 0.51605 0.98326 0.92835 0.0
C317 C 0.5186 0.94878 0.92272 0.0
H318 H 0.7395 0.47336 0.69516 0.0
H319 H 0.69156 0.45572 0.79938 0.0
H320 H 0.63501 0.45837 0.76442 0.0
H321 H 0.68198 0.53156 0.655 0.0
H322 H 0.68215 0.51668 0.60735 0.0
H323 H 0.71876 0.51217 0.6403 0.0
H324 H 0.71583 0.44853 0.62847 0.0
H325 H 0.67932 0.45294 0.59529 0.0
H326 H 0.67696 0.42454 0.6347 0.0
H327 H 0.58407 0.46618 0.71872 0.0
H328 H 0.54194 0.47536 0.6646 0.0
H329 H 0.62323 0.48605 0.58999 0.0
C330 C 0.717 0.46969 0.71039 0.0
C331 C 0.71964 0.4643 0.74978 0.0
C332 C 0.68988 0.45981 0.76911 0.0
C333 C 0.65775 0.46131 0.74954 0.0
C334 C 0.65597 0.46711 0.7107 0.0
C335 C 0.68478 0.47094 0.69126 0.0
C336 C 0.67588 0.47724 0.64962 0.0
C337 C 0.69057 0.51145 0.63737 0.0
C338 C 0.68769 0.44913 0.62561 0.0
C339 C 0.6376 0.47667 0.64875 0.0
C340 C 0.62661 0.47092 0.68428 0.0
C341 C 0.59233 0.47039 0.69071 0.0
C342 C 0.56865 0.4757 0.6599 0.0
C343 C 0.57947 0.48121 0.62329 0.0
C344 C 0.61433 0.48166 0.61771 0.0
H345 H 0.8857 0.767 0.17474 0.0
H346 H 0.818 0.72889 0.25655 0.0
H347 H 0.82175 0.67188 0.23217 0.0
H348 H 0.85419 0.70805 0.09717 0.0
H349 H 0.89619 0.70477 0.08195 0.0
H350 H 0.88466 0.74287 0.10265 0.0
H351 H 0.93609 0.73973 0.15257 0.0
H352 H 0.94759 0.70166 0.13207 0.0
H353 H 0.94052 0.70284 0.18151 0.0
H354 H 0.83858 0.61873 0.20427 0.0
H355 H 0.86681 0.57353 0.17492 0.0
H356 H 0.92109 0.64657 0.10855 0.0
C357 C 0.87094 0.74672 0.1867 0.0
C358 C 0.85109 0.75219 0.21702 0.0
C359 C 0.83289 0.72507 0.23288 0.0
C360 C 0.83484 0.69271 0.21918 0.0
C361 C 0.85491 0.68803 0.18943 0.0
C362 C 0.87237 0.71434 0.1731 0.0
C363 C 0.89399 0.70234 0.14327 0.0
C364 C 0.88149 0.71528 0.10393 0.0
C365 C 0.93178 0.71222 0.15296 0.0
C366 C 0.88713 0.6651 0.14654 0.0
C367 C 0.86422 0.65734 0.17297 0.0
C368 C 0.85599 0.62449 0.18292 0.0
C369 C 0.87205 0.59894 0.16592 0.0
C370 C 0.89617 0.60637 0.1393 0.0
C371 C 0.90298 0.63995 0.12893 0.0
H372 H 0.33028 0.1328 0.07839 0.0
H373 H 0.36043 0.14717 0.19711 0.0
H374 H 0.41691 0.12591 0.18694 0.0
H375 H 0.37437 0.05583 0.06761 0.0
H376 H 0.38669 0.06516 0.02079 0.0
H377 H 0.34939 0.08271 0.03674 0.0
H378 H 0.37329 0.14162 0.02175 0.0
H379 H 0.41062 0.12423 1.00563 0.0
H380 H 0.41484 0.15531 0.04211 0.0
H381 H 0.47412 0.09945 0.16237 0.0
H382 H 0.51942 0.07482 0.13026 0.0
H383 H 0.45625 0.07569 0.0247 0.0
C384 C 0.34889 0.13245 0.10248 0.0
C385 C 0.33915 0.14396 0.13903 0.0
C386 C 0.36547 0.14055 0.16875 0.0
C387 C 0.39835 0.12785 0.16297 0.0
C388 C 0.40671 0.11726 0.12693 0.0
C389 C 0.38234 0.11961 0.097 0.0
C390 C 0.39744 0.10591 0.06104 0.0
C391 C 0.37566 0.07561 0.0456 0.0
C392 C 0.39912 0.13339 0.03081 0.0
C393 C 0.43406 0.09542 0.07478 0.0
C394 C 0.43859 0.10225 0.11317 0.0
C395 C 0.46987 0.0945 0.13242 0.0
C396 C 0.49627 0.08005 0.11329 0.0
C397 C 0.49388 0.07227 0.07375 0.0
C398 C 0.46105 0.08069 0.05457 0.0
H399 H 0.35932 0.82345 0.64637 0.0
H400 H 0.33008 0.82738 0.76109 0.0
H401 H 0.27076 0.83544 0.73673 0.0
H402 H 0.31191 0.88693 0.61132 0.0
H403 H 0.29963 0.8693 0.56549 0.0
H404 H 0.33825 0.85758 0.59132 0.0
H405 H 0.31784 0.79541 0.58704 0.0
H406 H 0.27916 0.80691 0.56079 0.0
H407 H 0.27732 0.7823 0.60336 0.0
H408 H 0.21747 0.85193 0.70074 0.0
H409 H 0.17393 0.87509 0.6559 0.0
H410 H 0.23647 0.85819 0.56375 0.0
C411 C 0.34014 0.82476 0.66626 0.0
C412 C 0.34914 0.8246 0.70557 0.0
C413 C 0.32362 0.82745 0.73085 0.0
C414 C 0.28986 0.83185 0.71728 0.0
C415 C 0.28198 0.83307 0.67834 0.0
C416 C 0.3063 0.82926 0.65314 0.0
C417 C 0.29192 0.83506 0.61285 0.0
C418 C 0.31159 0.86393 0.59418 0.0
C419 C 0.29153 0.80301 0.58964 0.0
C420 C 0.25624 0.8442 0.61952 0.0
C421 C 0.25087 0.84239 0.65741 0.0
C422 C 0.22102 0.85262 0.67086 0.0
C423 C 0.19627 0.86561 0.64502 0.0
C424 C 0.20146 0.86838 0.60606 0.0
C425 C 0.2316 0.85661 0.59327 0.0
H426 H 0.89395 0.38646 0.86574 0.0
H427 H 0.84018 0.47822 0.85942 0.0
H428 H 0.886 0.50556 0.90063 0.0
H429 H 0.92553 0.39549 0.96581 0.0
H430 H 0.96555 0.37796 0.95888 0.0
H431 H 0.92796 0.36488 0.92957 0.0
H432 H 0.95839 0.3809 0.86965 0.0
H433 H 0.99603 0.39397 0.89872 0.0
H434 H 0.97674 0.42253 0.86493 0.0
H435 H 0.939 0.5245 0.93703 0.0
H436 H 0.99615 0.53337 0.96962 0.0
H437 H 1.01403 0.42867 0.9585 0.0
C438 C 0.89157 0.41216 0.87343 0.0
C439 C 0.86365 0.4303 0.85876 0.0
C440 C 0.86171 0.464 0.86933 0.0
C441 C 0.88741 0.47969 0.89314 0.0
C442 C 0.91461 0.46121 0.90677 0.0
C443 C 0.91682 0.42814 0.89768 0.0
C444 C 0.94932 0.41435 0.91568 0.0
C445 C 0.94162 0.38652 0.94418 0.0
C446 C 0.97142 0.40224 0.88544 0.0
C447 C 0.96536 0.44514 0.93545 0.0
C448 C 0.94476 0.47184 0.92987 0.0
C449 C 0.95504 0.50368 0.94243 0.0
C450 C 0.98744 0.50848 0.96091 0.0
C451 C 1.00875 0.4815 0.96723 0.0
C452 C 0.99756 0.44936 0.95483 0.0
H453 H 0.84336 0.73458 0.3851 0.0
H454 H 0.78781 0.82421 0.39162 0.0
H455 H 0.74812 0.79458 0.43242 0.0
H456 H 0.77361 0.6775 0.37879 0.0
H457 H 0.79391 0.64595 0.40773 0.0
H458 H 0.81911 0.675 0.3816 0.0
H459 H 0.85477 0.69235 0.44346 0.0
H460 H 0.82964 0.66328 0.46982 0.0
H461 H 0.83369 0.70655 0.48293 0.0
H462 H 0.71144 0.75327 0.46708 0.0
H463 H 0.68164 0.70433 0.49397 0.0
H464 H 0.76396 0.64306 0.46842 0.0
C465 C 0.82296 0.74797 0.39539 0.0
C466 C 0.81842 0.78154 0.38525 0.0
C467 C 0.79168 0.79847 0.39936 0.0
C468 C 0.76909 0.78187 0.42248 0.0
C469 C 0.77405 0.74858 0.43168 0.0
C470 C 0.80058 0.73196 0.4189 0.0
C471 C 0.79986 0.69603 0.43189 0.0
C472 C 0.7964 0.67223 0.39798 0.0
C473 C 0.83136 0.68916 0.45862 0.0
C474 C 0.76806 0.69466 0.4528 0.0
C475 C 0.75362 0.72521 0.45261 0.0
C476 C 0.72287 0.72936 0.46803 0.0
C477 C 0.70621 0.70141 0.48347 0.0
C478 C 0.72037 0.66971 0.48342 0.0
C479 C 0.75215 0.66675 0.46863 0.0
H480 H 0.22941 0.29097 0.14522 0.0
H481 H 0.14063 0.23902 0.18576 0.0
H482 H 0.10629 0.28563 0.16487 0.0
H483 H 0.20615 0.37641 0.1692 0.0
H484 H 0.22052 0.39637 0.12734 0.0
H485 H 0.23973 0.35911 0.14555 0.0
H486 H 0.22581 0.33085 0.08108 0.0
H487 H 0.20658 0.36805 0.06269 0.0
H488 H 0.18264 0.32869 0.06026 0.0
H489 H 0.07795 0.3409 0.13899 0.0
H490 H 0.06089 0.39456 0.11148 0.0
H491 H 0.1641 0.41639 0.08313 0.0
C492 C 0.20272 0.28898 0.14988 0.0
C493 C 0.18938 0.25924 0.16921 0.0
C494 C 0.15362 0.26006 0.17315 0.0
C495 C 0.13308 0.28713 0.16062 0.0
C496 C 0.14693 0.3155 0.14278 0.0
C497 C 0.18114 0.31664 0.13713 0.0
C498 C 0.18903 0.35062 0.11664 0.0
C499 C 0.21546 0.37189 0.14113 0.0
C500 C 0.20181 0.34418 0.07786 0.0
C501 C 0.15436 0.36817 0.11182 0.0
C502 C 0.13055 0.34701 0.12736 0.0
C503 C 0.09689 0.35712 0.12688 0.0
C504 C 0.08716 0.38852 0.11075 0.0
C505 C 0.11004 0.41187 0.09399 0.0
C506 C 0.14478 0.4005 0.095 0.0
H507 H 0.72905 0.34695 0.8255 0.0
H508 H 0.83135 0.31215 0.83161 0.0
H509 H 0.80976 0.25637 0.85109 0.0
H510 H 0.70406 0.30556 0.90568 0.0
H511 H 0.66104 0.29568 0.88696 0.0
H512 H 0.68397 0.33167 0.86974 0.0
H513 H 0.67309 0.30982 0.80119 0.0
H514 H 0.64988 0.27379 0.81818 0.0
H515 H 0.68529 0.26864 0.79037 0.0
H516 H 0.7775 0.20585 0.87492 0.0
H517 H 0.73717 0.1649 0.90169 0.0
H518 H 0.65609 0.23276 0.87799 0.0
C519 C 0.74679 0.32737 0.82996 0.0
C520 C 0.78183 0.33378 0.82689 0.0
C521 C 0.80439 0.30775 0.83401 0.0
C522 C 0.79235 0.27598 0.84484 0.0
C523 C 0.75769 0.27065 0.8482 0.0
C524 C 0.73522 0.29559 0.84078 0.0
C525 C 0.69955 0.28415 0.8488 0.0
C526 C 0.68641 0.30553 0.87963 0.0
C527 C 0.67554 0.28409 0.81246 0.0
C528 C 0.70559 0.24914 0.86276 0.0
C529 C 0.73918 0.24164 0.86189 0.0
C530 C 0.75102 0.21127 0.87524 0.0
C531 C 0.72793 0.18813 0.89027 0.0
C532 C 0.69352 0.19565 0.89199 0.0
C533 C 0.68229 0.22637 0.8774 0.0
H534 H 0.91515 0.85593 0.41281 0.0
H535 H 0.8891 0.90371 0.30499 0.0
H536 H 0.92228 0.95478 0.32715 0.0
H537 H 0.90991 0.92696 0.47072 0.0
H538 H 0.9454 0.9166 0.5031 0.0
H539 H 0.92009 0.88408 0.47822 0.0
H540 H 0.97413 0.86275 0.45188 0.0
H541 H 0.9996 0.89527 0.47662 0.0
H542 H 1.00081 0.89102 0.42629 0.0
H543 H 0.9567 1.0014 0.36283 0.0
H544 H 0.99093 0.03872 0.40802 0.0
H545 H 0.99508 0.95885 0.49107 0.0
C546 C 0.91626 0.87722 0.39392 0.0
C547 C 0.89937 0.87611 0.35734 0.0
C548 C 0.90195 0.90416 0.33313 0.0
C549 C 0.92063 0.93321 0.3455 0.0
C550 C 0.93681 0.93352 0.38194 0.0
C551 C 0.93496 0.90613 0.40565 0.0
C552 C 0.95465 0.91256 0.44339 0.0
C553 C 0.9311 0.9099 0.47576 0.0
C554 C 0.98404 0.889 0.44991 0.0
C555 C 0.96762 0.94803 0.43749 0.0
C556 C 0.95708 0.95981 0.40194 0.0
C557 C 0.96527 0.99235 0.39063 0.0
C558 C 0.98463 1.01334 0.41642 0.0
C559 C 0.99561 1.00156 0.45286 0.0
C560 C 0.98716 0.96845 0.46328 0.0
H561 H 0.52702 0.71934 0.70913 0.0
H562 H 0.41918 0.72695 0.67967 0.0
H563 H 0.42017 0.68102 0.63406 0.0
H564 H 0.55 0.69964 0.61495 0.0
H565 H 0.58109 0.67061 0.63197 0.0
H566 H 0.57224 0.70503 0.66104 0.0
H567 H 0.55864 0.66398 0.71508 0.0
H568 H 0.56738 0.62945 0.68616 0.0
H569 H 0.52698 0.63059 0.70595 0.0
H570 H 0.43237 0.63353 0.59363 0.0
H571 H 0.45459 0.58711 0.56039 0.0
H572 H 0.55498 0.60939 0.61616 0.0
C573 C 0.50372 0.71142 0.69283 0.0
C574 C 0.47297 0.72667 0.69762 0.0
C575 C 0.44293 0.71562 0.67609 0.0
C576 C 0.44329 0.68959 0.65023 0.0
C577 C 0.47393 0.67489 0.64632 0.0
C578 C 0.50363 0.68536 0.66695 0.0
C579 C 0.5329 0.66462 0.65801 0.0
C580 C 0.5607 0.68627 0.64044 0.0
C581 C 0.54731 0.64606 0.69341 0.0
C582 C 0.51494 0.6407 0.62935 0.0
C583 C 0.48097 0.64721 0.623 0.0
C584 C 0.45893 0.62824 0.59827 0.0
C585 C 0.47187 0.60182 0.57957 0.0
C586 C 0.50658 0.59447 0.58564 0.0
C587 C 0.52837 0.61438 0.6108 0.0
H588 H 0.91425 0.96236 0.79423 0.0
H589 H 0.93973 0.85949 0.78274 0.0
H590 H 0.97088 0.87503 0.72804 0.0
H591 H 0.90382 0.9804 0.69036 0.0
H592 H 0.92252 0.02217 0.69357 0.0
H593 H 0.90182 1.00408 0.73284 0.0
H594 H 0.95621 0.01581 0.77656 0.0
H595 H 0.97707 0.03391 0.73741 0.0
H596 H 0.99571 1.00018 0.76425 0.0
H597 H 1.00179 0.90142 0.67089 0.0
H598 H 0.0267 0.93432 0.62055 0.0
H599 H 0.98421 0.02297 0.66163 0.0
C600 C 0.92622 0.94278 0.78044 0.0
C601 C 0.92379 0.90881 0.79585 0.0
C602 C 0.94071 0.88549 0.77469 0.0
C603 C 0.95878 0.89423 0.74234 0.0
C604 C 0.96099 0.92721 0.72875 0.0
C605 C 0.945 0.95132 0.74714 0.0
C606 C 0.95174 0.98505 0.72575 0.0
C607 C 0.91796 0.99876 0.70969 0.0
C608 C 0.97133 1.01026 0.7526 0.0
C609 C 0.97378 0.97619 0.69289 0.0
C610 C 0.97857 0.94239 0.6956 0.0
C611 C 0.9978 0.92783 0.66912 0.0
C612 C 1.01224 0.94728 0.63982 0.0
C613 C 1.00859 0.98232 0.63486 0.0
C614 C 0.98845 0.99661 0.66291 0.0
H615 H 0.67638 0.21503 0.21282 0.0
H616 H 0.71966 0.14492 0.29494 0.0
H617 H 0.7095 0.1 0.24812 0.0
H618 H 0.60914 0.1603 0.17635 0.0
H619 H 0.60987 0.17531 0.12841 0.0
H620 H 0.62371 0.20256 0.16711 0.0
H621 H 0.68156 0.21367 0.13884 0.0
H622 H 0.66791 0.1863 0.1001 0.0
H623 H 0.70656 0.17905 0.1289 0.0
H624 H 0.69143 0.06184 0.19357 0.0
H625 H 0.66495 0.03333 0.13637 0.0
H626 H 0.63179 0.12803 0.09104 0.0
C627 C 0.68382 0.19027 0.22104 0.0
C628 C 0.69914 0.18372 0.25759 0.0
C629 C 0.70861 0.15089 0.26693 0.0
C630 C 0.70278 0.12509 0.24056 0.0
C631 C 0.68738 0.13243 0.20496 0.0
C632 C 0.67796 0.16421 0.19521 0.0
C633 C 0.65998 0.16515 0.15591 0.0
C634 C 0.62352 0.17649 0.15704 0.0
C635 C 0.68022 0.18736 0.12937 0.0
C636 C 0.66027 0.12883 0.14532 0.0
C637 C 0.6765 0.1104 0.1738 0.0
C638 C 0.67888 0.07606 0.17095 0.0
C639 C 0.66381 0.06009 0.13837 0.0
C640 C 0.64641 0.07847 0.10926 0.0
C641 C 0.64512 0.11333 0.1127 0.0
H642 H 0.45424 0.67603 0.31331 0.0
H643 H 0.3799 0.59724 0.27842 0.0
H644 H 0.40008 0.56312 0.33355 0.0
H645 H 0.52075 0.62464 0.34214 0.0
H646 H 0.53702 0.6497 0.382 0.0
H647 H 0.51472 0.66878 0.34185 0.0
H648 H 0.47252 0.69242 0.38549 0.0
H649 H 0.49475 0.6734 0.42584 0.0
H650 H 0.44984 0.66451 0.4157 0.0
H651 H 0.43169 0.53611 0.38893 0.0
H652 H 0.47174 0.51838 0.44167 0.0
H653 H 0.52461 0.61549 0.44085 0.0
C654 C 0.44209 0.65171 0.31762 0.0
C655 C 0.41596 0.63883 0.29168 0.0
C656 C 0.40028 0.60713 0.29803 0.0
C657 C 0.41146 0.58775 0.32921 0.0
C658 C 0.43794 0.6008 0.35387 0.0
C659 C 0.45289 0.63214 0.34859 0.0
C660 C 0.48188 0.63977 0.37819 0.0
C661 C 0.51557 0.64607 0.35994 0.0
C662 C 0.47428 0.66927 0.40276 0.0
C663 C 0.48146 0.60751 0.40041 0.0
C664 C 0.4558 0.58542 0.38611 0.0
C665 C 0.45159 0.55332 0.4007 0.0
C666 C 0.47445 0.54346 0.4305 0.0
C667 C 0.50104 0.56567 0.44519 0.0
C668 C 0.50424 0.59819 0.43032 0.0
H669 H 0.27456 0.30329 0.83116 0.0
H670 H 0.19034 0.29506 0.74471 0.0
H671 H 0.16853 0.34697 0.76758 0.0
H672 H 0.22962 0.33121 0.90323 0.0
H673 H 0.26285 0.35967 0.92309 0.0
H674 H 0.27346 0.32372 0.89771 0.0
H675 H 0.30688 0.36164 0.85277 0.0
H676 H 0.29642 0.3978 0.87812 0.0
H677 H 0.28603 0.39517 0.82783 0.0
H678 H 0.15314 0.3964 0.80347 0.0
H679 H 0.1451 0.43991 0.85006 0.0
H680 H 0.24054 0.41731 0.91146 0.0
C681 C 0.25199 0.31279 0.81636 0.0
C682 C 0.23418 0.29507 0.78608 0.0
C683 C 0.20422 0.30796 0.76822 0.0
C684 C 0.19183 0.3376 0.78077 0.0
C685 C 0.20987 0.3542 0.81092 0.0
C686 C 0.23942 0.34237 0.82834 0.0
C687 C 0.25293 0.36378 0.86161 0.0
C688 C 0.2548 0.34337 0.89858 0.0
C689 C 0.28762 0.3806 0.85465 0.0
C690 C 0.22574 0.38895 0.86098 0.0
C691 C 0.20131 0.38316 0.83127 0.0
C692 C 0.17237 0.40154 0.82643 0.0
C693 C 0.16797 0.42608 0.85301 0.0
C694 C 0.19239 0.43201 0.88395 0.0
C695 C 0.22194 0.41368 0.88753 0.0
H696 H 0.82304 0.903 0.95164 0.0
H697 H 0.81011 0.93499 0.83452 0.0
H698 H 0.7592 0.96329 0.84795 0.0
H699 H 0.73014 0.89004 0.96433 0.0
H700 H 0.73263 0.90576 1.01185 0.0
H701 H 0.76892 0.88742 0.99442 0.0
H702 H 0.80539 0.9408 1.01102 0.0
H703 H 0.7692 0.95929 0.02847 0.0
H704 H 0.7918 0.98025 0.99236 0.0
H705 H 0.70518 0.98981 0.87328 0.0
H706 H 0.65838 1.01041 0.90603 0.0
H707 H 0.69959 0.96551 1.01036 0.0
C708 C 0.80979 0.91588 0.92841 0.0
C709 C 0.82359 0.91589 0.89108 0.0
C710 C 0.80317 0.9339 0.8633 0.0
C711 C 0.77299 0.95039 0.87079 0.0
C712 C 0.76083 0.95011 0.90704 0.0
C713 C 0.77873 0.93323 0.93569 0.0
C714 C 0.75937 0.93739 0.97226 0.0
C715 C 0.74705 0.9031 0.98661 0.0
C716 C 0.78284 0.95549 1.00288 0.0
C717 C 0.72814 0.95897 0.95988 0.0
C718 C 0.7299 0.96565 0.92174 0.0
C719 C 0.70434 0.98441 0.90311 0.0
C720 C 0.67701 0.99638 0.92263 0.0
C721 C 0.67299 0.99103 0.96203 0.0
C722 C 0.7002 0.97143 0.98064 0.0
H723 H 0.80352 0.22482 0.33059 0.0
H724 H 0.73661 0.24669 0.41696 0.0
H725 H 0.78422 0.24254 0.46581 0.0
H726 H 0.84576 0.16285 0.38141 0.0
H727 H 0.88678 0.17312 0.36466 0.0
H728 H 0.84885 0.18265 0.33596 0.0
H729 H 0.87005 0.24458 0.33278 0.0
H730 H 0.90812 0.23522 0.36157 0.0
H731 H 0.88154 0.26707 0.37596 0.0
H732 H 0.83682 0.22948 0.5058 0.0
H733 H 0.89008 0.20733 0.53401 0.0
H734 H 0.9234 0.19455 0.42186 0.0
C735 C 0.79893 0.22909 0.35973 0.0
C736 C 0.76632 0.23632 0.36984 0.0
C737 C 0.76147 0.24179 0.40835 0.0
C738 C 0.78836 0.23939 0.43636 0.0
C739 C 0.82001 0.23168 0.42545 0.0
C740 C 0.82546 0.22672 0.38805 0.0
C741 C 0.86113 0.21603 0.38415 0.0
C742 C 0.86058 0.18162 0.36546 0.0
C743 C 0.88141 0.2423 0.36232 0.0
C744 C 0.87445 0.21459 0.42531 0.0
C745 C 0.85052 0.22417 0.44864 0.0
C746 C 0.85605 0.22255 0.48783 0.0
C747 C 0.88656 0.21011 0.50361 0.0
C748 C 0.91116 0.19933 0.48024 0.0
C749 C 0.90517 0.20248 0.44057 0.0
H750 H 0.23936 0.67733 0.15854 0.0
H751 H 0.29638 0.59924 0.21623 0.0
H752 H 0.24753 0.55993 0.20389 0.0
H753 H 0.15631 0.65179 0.18368 0.0
H754 H 0.13582 0.66041 0.13762 0.0
H755 H 0.17402 0.68387 0.15426 0.0
H756 H 0.20276 0.6673 0.0947 0.0
H757 H 0.16456 0.64401 0.07777 0.0
H758 H 0.20436 0.62388 0.08324 0.0
H759 H 0.19222 0.52896 0.18636 0.0
H760 H 0.13689 0.50665 0.15707 0.0
H761 H 0.11958 0.60217 0.10299 0.0
C762 C 0.24198 0.65199 0.16842 0.0
C763 C 0.27186 0.64199 0.18929 0.0
C764 C 0.27356 0.60833 0.20163 0.0
C765 C 0.24597 0.58552 0.19442 0.0
C766 C 0.21708 0.59636 0.17397 0.0
C767 C 0.21514 0.62857 0.16044 0.0
C768 C 0.18219 0.6331 0.13652 0.0
C769 C 0.16083 0.65882 0.15409 0.0
C770 C 0.18888 0.64263 0.09563 0.0
C771 C 0.16596 0.59836 0.13882 0.0
C772 C 0.18621 0.57774 0.16122 0.0
C773 C 0.17622 0.54476 0.16853 0.0
C774 C 0.1448 0.53238 0.15199 0.0
C775 C 0.12439 0.55279 0.12786 0.0
C776 C 0.13502 0.58614 0.12123 0.0
H777 H 0.35635 0.2957 0.79164 0.0
H778 H 0.40671 0.21014 0.75504 0.0
H779 H 0.43916 0.24628 0.7129 0.0
H780 H 0.33917 0.3266 0.70605 0.0
H781 H 0.34486 0.37032 0.71684 0.0
H782 H 0.33386 0.3411 0.75294 0.0
H783 H 0.38671 0.36101 0.79608 0.0
H784 H 0.39763 0.39111 0.76053 0.0
H785 H 0.4281 0.36174 0.77833 0.0
H786 H 0.455 0.28749 0.66488 0.0
H787 H 0.45671 0.33226 0.61695 0.0
H788 H 0.39432 0.39143 0.68215 0.0
C789 C 0.37548 0.285 0.77614 0.0
C790 C 0.37968 0.25036 0.77706 0.0
C791 C 0.40398 0.23679 0.75546 0.0
C792 C 0.42234 0.25713 0.73133 0.0
C793 C 0.41596 0.29091 0.72913 0.0
C794 C 0.39351 0.30494 0.75143 0.0
C795 C 0.38698 0.34047 0.73932 0.0
C796 C 0.34898 0.34484 0.72812 0.0
C797 C 0.40069 0.36504 0.77042 0.0
C798 C 0.40768 0.34356 0.70539 0.0
C799 C 0.42468 0.3149 0.70049 0.0
C800 C 0.44254 0.31036 0.66894 0.0
C801 C 0.44303 0.33571 0.64168 0.0
C802 C 0.42564 0.36514 0.64602 0.0
C803 C 0.40825 0.36933 0.67859 0.0
H804 H 0.90306 0.72918 0.94691 0.0
H805 H 0.98785 0.79007 0.91117 0.0
H806 H 0.02671 0.74644 0.935 0.0
H807 H 0.94849 0.69362 0.03443 0.0
H808 H 0.92715 0.65311 0.02902 0.0
H809 H 0.90634 0.68956 1.01095 0.0
H810 H 0.89739 0.66307 0.94499 0.0
H811 H 0.91832 0.62661 0.96277 0.0
H812 H 0.93343 0.64909 0.92282 0.0
H813 H 0.05853 0.69056 0.96196 0.0
H814 H 0.07686 0.63655 0.98797 0.0
H815 H 0.97296 0.60893 1.00905 0.0
C816 C 0.92997 0.73419 0.94497 0.0
C817 C 0.94133 0.76557 0.92767 0.0
C818 C 0.9772 0.76832 0.92497 0.0
C819 C 0.99986 0.7428 0.9384 0.0
C820 C 0.98769 0.71275 0.95507 0.0
C821 C 0.95323 0.70861 0.95865 0.0
C822 C 0.94635 0.6737 0.97712 0.0
C823 C 0.93116 0.67772 0.01513 0.0
C824 C 0.92243 0.65182 0.95034 0.0
C825 C 0.9819 0.65848 0.98329 0.0
C826 C 1.00541 0.6816 0.97017 0.0
C827 C 0.03971 0.67304 0.9722 0.0
C828 C 0.05018 0.64144 0.98741 0.0
C829 C 0.02743 0.61646 1.00173 0.0
C830 C 0.99221 0.62618 0.99919 0.0
H831 H 0.39225 0.71856 0.14047 0.0
H832 H 0.30249 0.77013 0.1616 0.0
H833 H 0.32518 0.82038 0.12917 0.0
H834 H 0.44839 0.7804 0.16338 0.0
H835 H 0.47757 0.77349 0.12825 0.0
H836 H 0.4509 0.73953 0.14374 0.0
H837 H 0.4265 0.72832 0.07482 0.0
H838 H 0.45367 0.76198 0.05883 0.0
H839 H 0.40851 0.7617 0.0468 0.0
H840 H 0.36308 0.86759 0.10725 0.0
H841 H 0.41132 0.90667 0.09518 0.0
H842 H 0.47561 0.82328 0.08721 0.0
C843 C 0.37683 0.74004 0.13668 0.0
C844 C 0.34565 0.74076 0.15291 0.0
C845 C 0.32623 0.76925 0.1486 0.0
C846 C 0.33895 0.79778 0.13032 0.0
C847 C 0.37076 0.79691 0.11614 0.0
C848 C 0.38911 0.76845 0.11847 0.0
C849 C 0.4243 0.77487 0.10565 0.0
C850 C 0.45187 0.7666 0.13714 0.0
C851 C 0.42848 0.75558 0.06936 0.0
C852 C 0.42377 0.81183 0.09804 0.0
C853 C 0.39254 0.82409 0.10347 0.0
C854 C 0.38733 0.85814 0.10189 0.0
C855 C 0.41486 0.88015 0.09506 0.0
C856 C 0.44718 0.86796 0.09036 0.0
C857 C 0.45124 0.83333 0.09089 0.0
H858 H 0.19051 0.2065 0.69379 0.0
H859 H 0.23004 0.14121 0.78294 0.0
H860 H 0.19651 0.09356 0.75286 0.0
H861 H 0.10457 0.16412 0.67686 0.0
H862 H 0.10392 0.17036 0.62649 0.0
H863 H 0.12664 0.20009 0.65808 0.0
H864 H 0.18127 0.19263 0.62431 0.0
H865 H 0.15889 0.16268 0.59291 0.0
H866 H 0.19694 0.15156 0.62064 0.0
H867 H 0.16329 0.05271 0.71062 0.0
H868 H 0.13321 0.02051 0.65833 0.0
H869 H 0.11696 0.11183 0.59462 0.0
C870 C 0.19112 0.18233 0.70752 0.0
C871 C 0.21221 0.17738 0.74095 0.0
C872 C 0.2136 0.14533 0.75755 0.0
C873 C 0.19466 0.11826 0.74071 0.0
C874 C 0.17471 0.12374 0.70719 0.0
C875 C 0.17274 0.15497 0.69075 0.0
C876 C 0.15211 0.15349 0.65281 0.0
C877 C 0.1199 0.17318 0.65363 0.0
C878 C 0.1736 0.16581 0.6208 0.0
C879 C 0.14354 0.11643 0.65005 0.0
C880 C 0.15639 0.09987 0.68201 0.0
C881 C 0.15285 0.06541 0.68561 0.0
C882 C 0.13584 0.04735 0.6557 0.0
C883 C 0.12294 0.06372 0.62245 0.0
C884 C 0.12659 0.09873 0.61976 0.0
H885 H 0.6811 0.35743 0.35715 0.0
H886 H 0.5899 0.31333 0.29787 0.0
H887 H 0.55474 0.34721 0.33565 0.0
H888 H 0.64899 0.36077 0.44807 0.0
H889 H 0.67039 0.4002 0.46067 0.0
H890 H 0.68835 0.37307 0.42849 0.0
H891 H 0.6893 0.42042 0.37847 0.0
H892 H 0.67152 0.44776 0.41058 0.0
H893 H 0.65066 0.44069 0.36408 0.0
H894 H 0.52985 0.38465 0.38061 0.0
H895 H 0.51629 0.42461 0.42848 0.0
H896 H 0.62396 0.44528 0.45821 0.0
C897 C 0.65373 0.35533 0.35188 0.0
C898 C 0.63801 0.33339 0.32421 0.0
C899 C 0.6022 0.33054 0.31855 0.0
C900 C 0.58215 0.34954 0.33992 0.0
C901 C 0.59839 0.37111 0.36688 0.0
C902 C 0.63336 0.37424 0.37285 0.0
C903 C 0.64438 0.3991 0.40377 0.0
C904 C 0.6642 0.38227 0.43723 0.0
C905 C 0.66519 0.42875 0.38829 0.0
C906 C 0.61014 0.4094 0.41432 0.0
C907 C 0.58399 0.39285 0.39277 0.0
C908 C 0.5501 0.39786 0.39757 0.0
C909 C 0.54268 0.4206 0.42494 0.0
C910 C 0.56905 0.43818 0.44713 0.0
C911 C 0.60322 0.43234 0.44168 0.0
loop_
_geom_bond_atom_site_label_1
_geom_bond_atom_site_label_2
_geom_bond_distance
_geom_bond_site_symmetry_2
_ccdc_geom_bond_type
H0 C7 0.929 . S
H1 C10 0.930 . S
H2 C12 0.929 . S
H3 C4 0.969 . S
C4 H3 0.969 . S
C4 O5 1.550 . S
C4 H6 0.973 . S
O5 C4 1.550 . S
O5 C11 1.412 . S
H6 C4 0.973 . S
C7 H0 0.929 . S
C7 C8 1.400 . S
C7 C9 1.364 . S
C8 C7 1.400 . S
C8 C12 1.377 . S
C9 C7 1.364 . S
C9 C10 1.374 . S
C10 H1 0.930 . S
C10 C9 1.374 . S
C10 C11 1.383 . S
C11 O5 1.412 . S
C11 C10 1.383 . S
C11 C12 1.394 . S
C12 H2 0.929 . S
C12 C8 1.377 . S
C12 C11 1.394 . S
H13 C20 0.929 . S
H14 C23 0.930 . S
H15 C25 0.929 . S
H16 C17 0.969 . S
C17 H16 0.969 . S
C17 O18 1.550 . S
C17 H19 0.973 . S
O18 C17 1.550 . S
O18 C24 1.412 . S
H19 C17 0.973 . S
C20 H13 0.929 . S
C20 C21 1.400 . S
C20 C22 1.364 . S
C21 C20 1.400 . S
C21 C25 1.377 . S
C22 C20 1.364 . S
C22 C23 1.374 . S
C23 H14 0.930 . S
C23 C22 1.374 . S
C23 C24 1.383 . S
C24 O18 1.412 . S
C24 C23 1.383 . S
C24 C25 1.394 . S
C25 H15 0.929 . S
C25 C21 1.377 . S
C25 C24 1.394 . S
H26 C33 0.929 . S
H27 C36 0.930 . S
H28 C38 0.929 . S
H29 C30 0.969 . S
C30 H29 0.969 . S
C30 O31 1.550 . S
C30 H32 0.973 . S
O31 C30 1.550 . S
O31 C37 1.412 . S
H32 C30 0.973 . S
C33 H26 0.929 . S
C33 C34 1.400 . S
C33 C35 1.364 . S
C34 C33 1.400 . S
C34 C38 1.377 . S
C35 C33 1.364 . S
C35 C36 1.374 . S
C36 H27 0.930 . S
C36 C35 1.374 . S
C36 C37 1.383 . S
C37 O31 1.412 . S
C37 C36 1.383 . S
C37 C38 1.394 . S
C38 H28 0.929 . S
C38 C34 1.377 . S
C38 C37 1.394 . S
H39 C46 0.929 . S
H40 C49 0.930 . S
H41 C51 0.929 . S
H42 C43 0.969 . S
C43 H42 0.969 . S
C43 O44 1.550 . S
C43 H45 0.973 . S
O44 C43 1.550 . S
O44 C50 1.412 . S
H45 C43 0.973 . S
C46 H39 0.929 . S
C46 C47 1.400 . S
C46 C48 1.364 . S
C47 C46 1.400 . S
C47 C51 1.377 . S
C48 C46 1.364 . S
C48 C49 1.374 . S
C49 H40 0.930 . S
C49 C48 1.374 . S
C49 C50 1.383 . S
C50 O44 1.412 . S
C50 C49 1.383 . S
C50 C51 1.394 . S
C51 H41 0.929 . S
C51 C47 1.377 . S
C51 C50 1.394 . S
H52 C59 0.929 . S
H53 C62 0.930 . S
H54 C64 0.929 . S
H55 C56 0.969 . S
C56 H55 0.969 . S
C56 O57 1.550 . S
C56 H58 0.973 . S
O57 C56 1.550 . S
O57 C63 1.412 . S
H58 C56 0.973 . S
C59 H52 0.929 . S
C59 C60 1.400 . S
C59 C61 1.364 . S
C60 C59 1.400 . S
C60 C64 1.377 . S
C61 C59 1.364 . S
C61 C62 1.374 . S
C62 H53 0.930 . S
C62 C61 1.374 . S
C62 C63 1.383 . S
C63 O57 1.412 . S
C63 C62 1.383 . S
C63 C64 1.394 . S
C64 H54 0.929 . S
C64 C60 1.377 . S
C64 C63 1.394 . S
H65 C72 0.929 . S
H66 C75 0.930 . S
H67 C77 0.929 . S
H68 C69 0.969 . S
C69 H68 0.969 . S
C69 O70 1.550 . S
C69 H71 0.973 . S
O70 C69 1.550 . S
O70 C76 1.412 . S
H71 C69 0.973 . S
C72 H65 0.929 . S
C72 C73 1.400 . S
C72 C74 1.364 . S
C73 C72 1.400 . S
C73 C77 1.377 . S
C74 C72 1.364 . S
C74 C75 1.374 . S
C75 H66 0.930 . S
C75 C74 1.374 . S
C75 C76 1.383 . S
C76 O70 1.412 . S
C76 C75 1.383 . S
C76 C77 1.394 . S
C77 H67 0.929 . S
C77 C73 1.377 . S
C77 C76 1.394 . S
H78 C85 0.929 . S
H79 C88 0.930 . S
H80 C90 0.929 . S
H81 C82 0.969 . S
C82 H81 0.969 . S
C82 O83 1.550 . S
C82 H84 0.973 . S
O83 C82 1.550 . S
O83 C89 1.412 . S
H84 C82 0.973 . S
C85 H78 0.929 . S
C85 C86 1.400 . S
C85 C87 1.364 . S
C86 C85 1.400 . S
C86 C90 1.377 . S
C87 C85 1.364 . S
C87 C88 1.374 . S
C88 H79 0.930 . S
C88 C87 1.374 . S
C88 C89 1.383 . S
C89 O83 1.412 . S
C89 C88 1.383 . S
C89 C90 1.394 . S
C90 H80 0.929 . S
C90 C86 1.377 . S
C90 C89 1.394 . S
H91 C98 0.929 . S
H92 C101 0.930 . S
H93 C103 0.929 . S
H94 C95 0.969 . S
C95 H94 0.969 . S
C95 O96 1.550 . S
C95 H97 0.973 . S
O96 C95 1.550 . S
O96 C102 1.412 . S
H97 C95 0.973 . S
C98 H91 0.929 . S
C98 C99 1.400 . S
C98 C100 1.364 . S
C99 C98 1.400 . S
C99 C103 1.377 . S
C100 C98 1.364 . S
C100 C101 1.374 . S
C101 H92 0.930 . S
C101 C100 1.374 . S
C101 C102 1.383 . S
C102 O96 1.412 . S
C102 C101 1.383 . S
C102 C103 1.394 . S
C103 H93 0.929 . S
C103 C99 1.377 . S
C103 C102 1.394 . S
Nd104 C106 2.829 1_545 S
Nd104 O124 2.491 1_545 S
Nd104 O125 2.488 1_545 S
Nd104 O126 2.494 . S
Nd104 O127 2.690 . S
Nd104 O128 2.409 1_545 S
Nd104 O133 2.413 1_545 S
Nd104 O135 2.429 . S
Nd105 C115 2.836 . S
Nd105 O127 2.414 1_655 S
Nd105 O129 2.424 . S
Nd105 O130 2.500 . S
Nd105 O131 2.492 . S
Nd105 O132 2.487 1_545 S
Nd105 O133 2.682 1_645 S
Nd105 O134 2.410 1_655 S
C106 Nd104 2.829 1_565 S
C106 C107 1.498 . S
C106 O124 1.258 . S
C106 O125 1.239 . S
C107 C106 1.498 . S
C107 C108 1.366 . S
C107 C112 1.407 . S
C108 C107 1.366 . S
C108 C109 1.392 . S
C108 H136 0.930 . S
C109 C108 1.392 . S
C109 C110 1.398 . S
C109 H137 0.929 . S
C110 C109 1.398 . S
C110 C111 1.352 . S
C111 C110 1.352 . S
C111 C112 1.384 . S
C111 H138 0.930 . S
C112 C107 1.407 . S
C112 C111 1.384 . S
C112 H139 0.929 . S
C113 O126 1.241 . S
C113 O127 1.273 . S
C114 O128 1.251 . S
C114 O129 1.268 1_465 S
C115 Nd105 2.836 . S
C115 C116 1.498 . S
C115 O130 1.258 . S
C115 O131 1.239 . S
C116 C115 1.498 . S
C116 C117 1.366 . S
C116 C121 1.407 . S
C117 C116 1.366 . S
C117 C118 1.392 . S
C117 H140 0.930 . S
C118 C117 1.392 . S
C118 C119 1.398 . S
C118 H141 0.929 . S
C119 C118 1.398 . S
C119 C120 1.352 . S
C120 C119 1.352 . S
C120 C121 1.384 . S
C120 H142 0.930 . S
C121 C116 1.407 . S
C121 C120 1.384 . S
C121 H143 0.929 . S
C122 O132 1.241 . S
C122 O133 1.273 1_655 S
C123 O134 1.251 . S
C123 O135 1.268 . S
O124 Nd104 2.491 1_565 S
O124 C106 1.258 . S
O125 Nd104 2.488 1_565 S
O125 C106 1.239 . S
O126 Nd104 2.494 . S
O126 C113 1.241 . S
O127 Nd104 2.690 . S
O127 Nd105 2.414 1_455 S
O127 C113 1.273 . S
O128 Nd104 2.409 1_565 S
O128 C114 1.251 . S
O129 Nd105 2.424 . S
O129 C114 1.268 1_645 S
O130 Nd105 2.500 . S
O130 C115 1.258 . S
O131 Nd105 2.492 . S
O131 C115 1.239 . S
O132 Nd105 2.487 1_565 S
O132 C122 1.241 . S
O133 Nd104 2.413 1_565 S
O133 Nd105 2.682 1_465 S
O133 C122 1.273 1_455 S
O134 Nd105 2.410 1_455 S
O134 C123 1.251 . S
O135 Nd104 2.429 . S
O135 C123 1.268 . S
H136 C108 0.930 . S
H137 C109 0.929 . S
H138 C111 0.930 . S
H139 C112 0.929 . S
H140 C117 0.930 . S
H141 C118 0.929 . S
H142 C120 0.930 . S
H143 C121 0.929 . S
Nd144 C146 2.836 . S
Nd144 O164 2.500 . S
Nd144 O165 2.492 . S
Nd144 O166 2.487 1_565 S
Nd144 O167 2.682 1_565 S
Nd144 O168 2.410 1_554 S
Nd144 O173 2.404 1_554 S
Nd144 O175 2.424 1_565 S
Nd145 C155 2.836 . S
Nd145 O167 2.414 1_556 S
Nd145 O169 2.424 1_545 S
Nd145 O170 2.500 . S
Nd145 O171 2.492 . S
Nd145 O172 2.487 . S
Nd145 O173 2.688 1_545 S
Nd145 O174 2.410 1_556 S
C146 Nd144 2.836 . S
C146 C147 1.498 . S
C146 O164 1.258 . S
C146 O165 1.239 . S
C147 C146 1.498 . S
C147 C148 1.366 . S
C147 C152 1.407 . S
C148 C147 1.366 . S
C148 C149 1.392 . S
C148 H176 0.930 . S
C149 C148 1.392 . S
C149 C150 1.398 . S
C149 H177 0.929 . S
C150 C149 1.398 . S
C150 C151 1.352 . S
C151 C150 1.352 . S
C151 C152 1.384 . S
C151 H178 0.930 . S
C152 C147 1.407 . S
C152 C151 1.384 . S
C152 H179 0.929 . S
C153 O166 1.241 . S
C153 O167 1.273 . S
C154 O168 1.251 . S
C154 O169 1.268 . S
C155 Nd145 2.836 . S
C155 C156 1.498 . S
C155 O170 1.258 . S
C155 O171 1.239 . S
C156 C155 1.498 . S
C156 C157 1.366 . S
C156 C161 1.407 . S
C157 C156 1.366 . S
C157 C158 1.392 . S
C157 H180 0.930 . S
C158 C157 1.392 . S
C158 C159 1.398 . S
C158 H181 0.929 . S
C159 C158 1.398 . S
C159 C160 1.352 . S
C160 C159 1.352 . S
C160 C161 1.384 . S
C160 H182 0.930 . S
C161 C156 1.407 . S
C161 C160 1.384 . S
C161 H183 0.929 . S
C162 O172 1.241 1_565 S
C162 O173 1.281 . S
C163 O174 1.251 . S
C163 O175 1.268 . S
O164 Nd144 2.500 . S
O164 C146 1.258 . S
O165 Nd144 2.492 . S
O165 C146 1.239 . S
O166 Nd144 2.487 1_545 S
O166 C153 1.241 . S
O167 Nd144 2.682 1_545 S
O167 Nd145 2.414 1_554 S
O167 C153 1.273 . S
O168 Nd144 2.410 1_556 S
O168 C154 1.251 . S
O169 Nd145 2.424 1_565 S
O169 C154 1.268 . S
O170 Nd145 2.500 . S
O170 C155 1.258 . S
O171 Nd145 2.492 . S
O171 C155 1.239 . S
O172 Nd145 2.487 . S
O172 C162 1.241 1_545 S
O173 Nd144 2.404 1_556 S
O173 Nd145 2.688 1_565 S
O173 C162 1.281 . S
O174 Nd145 2.410 1_554 S
O174 C163 1.251 . S
O175 Nd144 2.424 1_545 S
O175 C163 1.268 . S
H176 C148 0.930 . S
H177 C149 0.929 . S
H178 C151 0.930 . S
H179 C152 0.929 . S
H180 C157 0.930 . S
H181 C158 0.929 . S
H182 C160 0.930 . S
H183 C161 0.929 . S
Nd184 C186 2.836 . S
Nd184 O204 2.500 . S
Nd184 O205 2.492 . S
Nd184 O206 2.487 . S
Nd184 O207 2.682 . S
Nd184 O208 2.410 . S
Nd184 O213 2.414 . S
Nd184 O215 2.424 . S
Nd185 C195 2.836 . S
Nd185 O207 2.414 . S
Nd185 O209 2.424 . S
Nd185 O210 2.500 . S
Nd185 O211 2.492 . S
Nd185 O212 2.487 . S
Nd185 O213 2.682 . S
Nd185 O214 2.410 . S
C186 Nd184 2.836 . S
C186 C187 1.498 . S
C186 O204 1.258 . S
C186 O205 1.239 . S
C187 C186 1.498 . S
C187 C188 1.366 . S
C187 C192 1.407 . S
C188 C187 1.366 . S
C188 C189 1.392 . S
C188 H216 0.930 . S
C189 C188 1.392 . S
C189 C190 1.398 . S
C189 H217 0.929 . S
C190 C189 1.398 . S
C190 C191 1.352 . S
C191 C190 1.352 . S
C191 C192 1.384 . S
C191 H218 0.930 . S
C192 C187 1.407 . S
C192 C191 1.384 . S
C192 H219 0.929 . S
C193 O206 1.241 . S
C193 O207 1.273 . S
C194 O208 1.251 . S
C194 O209 1.268 . S
C195 Nd185 2.836 . S
C195 C196 1.498 . S
C195 O210 1.258 . S
C195 O211 1.239 . S
C196 C195 1.498 . S
C196 C197 1.366 . S
C196 C201 1.407 . S
C197 C196 1.366 . S
C197 C198 1.392 . S
C197 H220 0.930 . S
C198 C197 1.392 . S
C198 C199 1.398 . S
C198 H221 0.929 . S
C199 C198 1.398 . S
C199 C200 1.352 . S
C200 C199 1.352 . S
C200 C201 1.384 . S
C200 H222 0.930 . S
C201 C196 1.407 . S
C201 C200 1.384 . S
C201 H223 0.929 . S
C202 O212 1.241 . S
C202 O213 1.273 . S
C203 O214 1.251 . S
C203 O215 1.268 . S
O204 Nd184 2.500 . S
O204 C186 1.258 . S
O205 Nd184 2.492 . S
O205 C186 1.239 . S
O206 Nd184 2.487 . S
O206 C193 1.241 . S
O207 Nd184 2.682 . S
O207 Nd185 2.414 . S
O207 C193 1.273 . S
O208 Nd184 2.410 . S
O208 C194 1.251 . S
O209 Nd185 2.424 . S
O209 C194 1.268 . S
O210 Nd185 2.500 . S
O210 C195 1.258 . S
O211 Nd185 2.492 . S
O211 C195 1.239 . S
O212 Nd185 2.487 . S
O212 C202 1.241 . S
O213 Nd184 2.414 . S
O213 Nd185 2.682 . S
O213 C202 1.273 . S
O214 Nd185 2.410 . S
O214 C203 1.251 . S
O215 Nd184 2.424 . S
O215 C203 1.268 . S
H216 C188 0.930 . S
H217 C189 0.929 . S
H218 C191 0.930 . S
H219 C192 0.929 . S
H220 C197 0.930 . S
H221 C198 0.929 . S
H222 C200 0.930 . S
H223 C201 0.929 . S
Nd224 C226 2.836 1_455 S
Nd224 O244 2.500 1_455 S
Nd224 O245 2.492 . S
Nd224 O246 2.487 . S
Nd224 O247 2.682 . S
Nd224 O248 2.410 . S
Nd224 O253 2.414 1_455 S
Nd224 O255 2.424 . S
Nd225 C235 2.836 . S
Nd225 O247 2.414 1_556 S
Nd225 O249 2.424 . S
Nd225 O250 2.500 . S
Nd225 O251 2.492 . S
Nd225 O252 2.487 1_455 S
Nd225 O253 2.682 1_456 S
Nd225 O254 2.410 1_556 S
C226 Nd224 2.836 1_655 S
C226 C227 1.498 . S
C226 O244 1.258 . S
C226 O245 1.239 1_655 S
C227 C226 1.498 . S
C227 C228 1.366 . S
C227 C232 1.407 . S
C228 C227 1.366 . S
C228 C229 1.392 . S
C228 H256 0.930 . S
C229 C228 1.392 . S
C229 C230 1.398 . S
C229 H257 0.929 . S
C230 C229 1.398 . S
C230 C231 1.352 . S
C231 C230 1.352 . S
C231 C232 1.384 . S
C231 H258 0.930 . S
C232 C227 1.407 . S
C232 C231 1.384 . S
C232 H259 0.929 1_655 S
C233 O246 1.241 . S
C233 O247 1.273 . S
C234 O248 1.251 . S
C234 O249 1.268 1_554 S
C235 Nd225 2.836 . S
C235 C236 1.498 . S
C235 O250 1.258 . S
C235 O251 1.239 . S
C236 C235 1.498 . S
C236 C237 1.366 . S
C236 C241 1.407 . S
C237 C236 1.366 . S
C237 C238 1.392 . S
C237 H260 0.930 . S
C238 C237 1.392 . S
C238 C239 1.398 . S
C238 H261 0.929 . S
C239 C238 1.398 . S
C239 C240 1.352 . S
C240 C239 1.352 . S
C240 C241 1.384 . S
C240 H262 0.930 . S
C241 C236 1.407 . S
C241 C240 1.384 . S
C241 H263 0.929 . S
C242 O252 1.241 . S
C242 O253 1.273 1_556 S
C243 O254 1.251 . S
C243 O255 1.268 . S
O244 Nd224 2.500 1_655 S
O244 C226 1.258 . S
O245 Nd224 2.492 . S
O245 C226 1.239 1_455 S
O246 Nd224 2.487 . S
O246 C233 1.241 . S
O247 Nd224 2.682 . S
O247 Nd225 2.414 1_554 S
O247 C233 1.273 . S
O248 Nd224 2.410 . S
O248 C234 1.251 . S
O249 Nd225 2.424 . S
O249 C234 1.268 1_556 S
O250 Nd225 2.500 . S
O250 C235 1.258 . S
O251 Nd225 2.492 . S
O251 C235 1.239 . S
O252 Nd225 2.487 1_655 S
O252 C242 1.241 . S
O253 Nd224 2.414 1_655 S
O253 Nd225 2.682 1_654 S
O253 C242 1.273 1_554 S
O254 Nd225 2.410 1_554 S
O254 C243 1.251 . S
O255 Nd224 2.424 . S
O255 C243 1.268 . S
H256 C228 0.930 . S
H257 C229 0.929 . S
H258 C231 0.930 . S
H259 C232 0.929 1_455 S
H260 C237 0.930 . S
H261 C238 0.929 . S
H262 C240 0.930 . S
H263 C241 0.929 . S
H264 C276 0.930 . S
H265 C278 0.930 . S
H266 C279 0.930 . S
H267 C283 0.959 . S
H268 C283 0.959 . S
H269 C283 0.961 . S
H270 C284 0.960 . S
H271 C284 0.961 . S
H272 C284 0.959 . S
H273 C287 0.929 . S
H274 C288 0.931 . S
H275 C290 0.930 . S
C276 H264 0.930 . S
C276 C277 1.399 . S
C276 C281 1.399 . S
C277 C276 1.399 . S
C277 C278 1.376 . S
C278 H265 0.930 . S
C278 C277 1.376 . S
C278 C279 1.388 . S
C279 H266 0.930 . S
C279 C278 1.388 . S
C279 C280 1.390 . S
C280 C279 1.390 . S
C280 C281 1.394 . S
C280 C286 1.465 . S
C281 C276 1.399 . S
C281 C280 1.394 . S
C281 C282 1.516 . S
C282 C281 1.516 . S
C282 C283 1.502 . S
C282 C284 1.561 . S
C282 C285 1.526 . S
C283 H267 0.959 . S
C283 H268 0.959 . S
C283 H269 0.961 . S
C283 C282 1.502 . S
C284 H270 0.960 . S
C284 H271 0.961 . S
C284 H272 0.959 . S
C284 C282 1.561 . S
C285 C282 1.526 . S
C285 C286 1.396 . S
C285 C290 1.390 . S
C286 C280 1.465 . S
C286 C285 1.396 . S
C286 C287 1.399 . S
C287 H273 0.929 . S
C287 C286 1.399 . S
C287 C288 1.385 . S
C288 H274 0.931 . S
C288 C287 1.385 . S
C288 C289 1.389 . S
C289 C288 1.389 . S
C289 C290 1.387 . S
C290 H275 0.930 . S
C290 C285 1.390 . S
C290 C289 1.387 . S
H291 C303 0.930 . S
H292 C305 0.930 . S
H293 C306 0.930 . S
H294 C310 0.959 . S
H295 C310 0.959 . S
H296 C310 0.961 . S
H297 C311 0.960 . S
H298 C311 0.961 . S
H299 C311 0.959 . S
H300 C314 0.929 . S
H301 C315 0.931 . S
H302 C317 0.930 . S
C303 H291 0.930 . S
C303 C304 1.399 . S
C303 C308 1.399 . S
C304 C303 1.399 . S
C304 C305 1.376 . S
C305 H292 0.930 . S
C305 C304 1.376 . S
C305 C306 1.388 . S
C306 H293 0.930 . S
C306 C305 1.388 . S
C306 C307 1.390 . S
C307 C306 1.390 . S
C307 C308 1.394 . S
C307 C313 1.465 . S
C308 C303 1.399 . S
C308 C307 1.394 . S
C308 C309 1.516 . S
C309 C308 1.516 . S
C309 C310 1.502 . S
C309 C311 1.561 . S
C309 C312 1.526 . S
C310 H294 0.959 . S
C310 H295 0.959 . S
C310 H296 0.961 . S
C310 C309 1.502 . S
C311 H297 0.960 . S
C311 H298 0.961 . S
C311 H299 0.959 . S
C311 C309 1.561 . S
C312 C309 1.526 . S
C312 C313 1.396 . S
C312 C317 1.390 . S
C313 C307 1.465 . S
C313 C312 1.396 . S
C313 C314 1.399 . S
C314 H300 0.929 . S
C314 C313 1.399 . S
C314 C315 1.385 . S
C315 H301 0.931 . S
C315 C314 1.385 . S
C315 C316 1.389 . S
C316 C315 1.389 . S
C316 C317 1.387 . S
C317 H302 0.930 . S
C317 C312 1.390 . S
C317 C316 1.387 . S
H318 C330 0.930 . S
H319 C332 0.930 . S
H320 C333 0.930 . S
H321 C337 0.959 . S
H322 C337 0.959 . S
H323 C337 0.961 . S
H324 C338 0.960 . S
H325 C338 0.961 . S
H326 C338 0.959 . S
H327 C341 0.929 . S
H328 C342 0.931 . S
H329 C344 0.930 . S
C330 H318 0.930 . S
C330 C331 1.399 . S
C330 C335 1.399 . S
C331 C330 1.399 . S
C331 C332 1.376 . S
C332 H319 0.930 . S
C332 C331 1.376 . S
C332 C333 1.388 . S
C333 H320 0.930 . S
C333 C332 1.388 . S
C333 C334 1.390 . S
C334 C333 1.390 . S
C334 C335 1.394 . S
C334 C340 1.465 . S
C335 C330 1.399 . S
C335 C334 1.394 . S
C335 C336 1.516 . S
C336 C335 1.516 . S
C336 C337 1.502 . S
C336 C338 1.561 . S
C336 C339 1.526 . S
C337 H321 0.959 . S
C337 H322 0.959 . S
C337 H323 0.961 . S
C337 C336 1.502 . S
C338 H324 0.960 . S
C338 H325 0.961 . S
C338 H326 0.959 . S
C338 C336 1.561 . S
C339 C336 1.526 . S
C339 C340 1.396 . S
C339 C344 1.390 . S
C340 C334 1.465 . S
C340 C339 1.396 . S
C340 C341 1.399 . S
C341 H327 0.929 . S
C341 C340 1.399 . S
C341 C342 1.385 . S
C342 H328 0.931 . S
C342 C341 1.385 . S
C342 C343 1.389 . S
C343 C342 1.389 . S
C343 C344 1.387 . S
C344 H329 0.930 . S
C344 C339 1.390 . S
C344 C343 1.387 . S
H345 C357 0.930 . S
H346 C359 0.930 . S
H347 C360 0.930 . S
H348 C364 0.959 . S
H349 C364 0.959 . S
H350 C364 0.961 . S
H351 C365 0.960 . S
H352 C365 0.961 . S
H353 C365 0.959 . S
H354 C368 0.929 . S
H355 C369 0.931 . S
H356 C371 0.930 . S
C357 H345 0.930 . S
C357 C358 1.399 . S
C357 C362 1.399 . S
C358 C357 1.399 . S
C358 C359 1.376 . S
C359 H346 0.930 . S
C359 C358 1.376 . S
C359 C360 1.388 . S
C360 H347 0.930 . S
C360 C359 1.388 . S
C360 C361 1.390 . S
C361 C360 1.390 . S
C361 C362 1.394 . S
C361 C367 1.465 . S
C362 C357 1.399 . S
C362 C361 1.394 . S
C362 C363 1.516 . S
C363 C362 1.516 . S
C363 C364 1.502 . S
C363 C365 1.561 . S
C363 C366 1.526 . S
C364 H348 0.959 . S
C364 H349 0.959 . S
C364 H350 0.961 . S
C364 C363 1.502 . S
C365 H351 0.960 . S
C365 H352 0.961 . S
C365 H353 0.959 . S
C365 C363 1.561 . S
C366 C363 1.526 . S
C366 C367 1.396 . S
C366 C371 1.390 . S
C367 C361 1.465 . S
C367 C366 1.396 . S
C367 C368 1.399 . S
C368 H354 0.929 . S
C368 C367 1.399 . S
C368 C369 1.385 . S
C369 H355 0.931 . S
C369 C368 1.385 . S
C369 C370 1.389 . S
C370 C369 1.389 . S
C370 C371 1.387 . S
C371 H356 0.930 . S
C371 C366 1.390 . S
C371 C370 1.387 . S
H372 C384 0.930 . S
H373 C386 0.930 . S
H374 C387 0.930 . S
H375 C391 0.959 . S
H376 C391 0.959 . S
H377 C391 0.961 . S
H378 C392 0.960 . S
H379 C392 0.961 . S
H380 C392 0.959 . S
H381 C395 0.929 . S
H382 C396 0.931 . S
H383 C398 0.930 . S
C384 H372 0.930 . S
C384 C385 1.399 . S
C384 C389 1.399 . S
C385 C384 1.399 . S
C385 C386 1.376 . S
C386 H373 0.930 . S
C386 C385 1.376 . S
C386 C387 1.388 . S
C387 H374 0.930 . S
C387 C386 1.388 . S
C387 C388 1.390 . S
C388 C387 1.390 . S
C388 C389 1.394 . S
C388 C394 1.465 . S
C389 C384 1.399 . S
C389 C388 1.394 . S
C389 C390 1.516 . S
C390 C389 1.516 . S
C390 C391 1.502 . S
C390 C392 1.561 1_554 S
C390 C393 1.526 . S
C391 H375 0.959 . S
C391 H376 0.959 . S
C391 H377 0.961 . S
C391 C390 1.502 . S
C392 H378 0.960 . S
C392 H379 0.961 . S
C392 H380 0.959 . S
C392 C390 1.561 1_556 S
C393 C390 1.526 . S
C393 C394 1.396 . S
C393 C398 1.390 . S
C394 C388 1.465 . S
C394 C393 1.396 . S
C394 C395 1.399 . S
C395 H381 0.929 . S
C395 C394 1.399 . S
C395 C396 1.385 . S
C396 H382 0.931 . S
C396 C395 1.385 . S
C396 C397 1.389 . S
C397 C396 1.389 . S
C397 C398 1.387 . S
C398 H383 0.930 . S
C398 C393 1.390 . S
C398 C397 1.387 . S
H399 C411 0.930 . S
H400 C413 0.930 . S
H401 C414 0.930 . S
H402 C418 0.959 . S
H403 C418 0.959 . S
H404 C418 0.961 . S
H405 C419 0.960 . S
H406 C419 0.961 . S
H407 C419 0.959 . S
H408 C422 0.929 . S
H409 C423 0.931 . S
H410 C425 0.930 . S
C411 H399 0.930 . S
C411 C412 1.399 . S
C411 C416 1.399 . S
C412 C411 1.399 . S
C412 C413 1.376 . S
C413 H400 0.930 . S
C413 C412 1.376 . S
C413 C414 1.388 . S
C414 H401 0.930 . S
C414 C413 1.388 . S
C414 C415 1.390 . S
C415 C414 1.390 . S
C415 C416 1.394 . S
C415 C421 1.465 . S
C416 C411 1.399 . S
C416 C415 1.394 . S
C416 C417 1.516 . S
C417 C416 1.516 . S
C417 C418 1.502 . S
C417 C419 1.561 . S
C417 C420 1.526 . S
C418 H402 0.959 . S
C418 H403 0.959 . S
C418 H404 0.961 . S
C418 C417 1.502 . S
C419 H405 0.960 . S
C419 H406 0.961 . S
C419 H407 0.959 . S
C419 C417 1.561 . S
C420 C417 1.526 . S
C420 C421 1.396 . S
C420 C425 1.390 . S
C421 C415 1.465 . S
C421 C420 1.396 . S
C421 C422 1.399 . S
C422 H408 0.929 . S
C422 C421 1.399 . S
C422 C423 1.385 . S
C423 H409 0.931 . S
C423 C422 1.385 . S
C423 C424 1.389 . S
C424 C423 1.389 . S
C424 C425 1.387 . S
C425 H410 0.930 . S
C425 C420 1.390 . S
C425 C424 1.387 . S
H426 C438 0.930 . S
H427 C440 0.930 . S
H428 C441 0.930 . S
H429 C445 0.959 . S
H430 C445 0.959 . S
H431 C445 0.961 . S
H432 C446 0.960 . S
H433 C446 0.961 . S
H434 C446 0.959 . S
H435 C449 0.929 . S
H436 C450 0.931 1_554 S
H437 C452 0.930 . S
C438 H426 0.930 . S
C438 C439 1.399 . S
C438 C443 1.399 . S
C439 C438 1.399 . S
C439 C440 1.376 . S
C440 H427 0.930 . S
C440 C439 1.376 . S
C440 C441 1.388 . S
C441 H428 0.930 . S
C441 C440 1.388 . S
C441 C442 1.390 . S
C442 C441 1.390 . S
C442 C443 1.394 . S
C442 C448 1.465 . S
C443 C438 1.399 . S
C443 C442 1.394 . S
C443 C444 1.516 . S
C444 C443 1.516 . S
C444 C445 1.502 . S
C444 C446 1.561 . S
C444 C447 1.526 . S
C445 H429 0.959 . S
C445 H430 0.959 . S
C445 H431 0.961 . S
C445 C444 1.502 . S
C446 H432 0.960 . S
C446 H433 0.961 . S
C446 H434 0.959 . S
C446 C444 1.561 . S
C447 C444 1.526 . S
C447 C448 1.396 . S
C447 C452 1.390 . S
C448 C442 1.465 . S
C448 C447 1.396 . S
C448 C449 1.399 . S
C449 H435 0.929 . S
C449 C448 1.399 . S
C449 C450 1.385 . S
C450 H436 0.931 1_556 S
C450 C449 1.385 . S
C450 C451 1.389 . S
C451 C450 1.389 . S
C451 C452 1.387 . S
C452 H437 0.930 . S
C452 C447 1.390 . S
C452 C451 1.387 . S
H453 C465 0.930 . S
H454 C467 0.930 . S
H455 C468 0.930 . S
H456 C472 0.959 . S
H457 C472 0.959 . S
H458 C472 0.961 . S
H459 C473 0.960 . S
H460 C473 0.961 . S
H461 C473 0.959 . S
H462 C476 0.929 . S
H463 C477 0.931 . S
H464 C479 0.930 . S
C465 H453 0.930 . S
C465 C466 1.399 . S
C465 C470 1.399 . S
C466 C465 1.399 . S
C466 C467 1.376 . S
C467 H454 0.930 . S
C467 C466 1.376 . S
C467 C468 1.388 . S
C468 H455 0.930 . S
C468 C467 1.388 . S
C468 C469 1.390 . S
C469 C468 1.390 . S
C469 C470 1.394 . S
C469 C475 1.465 . S
C470 C465 1.399 . S
C470 C469 1.394 . S
C470 C471 1.516 . S
C471 C470 1.516 . S
C471 C472 1.502 . S
C471 C473 1.561 . S
C471 C474 1.526 . S
C472 H456 0.959 . S
C472 H457 0.959 . S
C472 H458 0.961 . S
C472 C471 1.502 . S
C473 H459 0.960 . S
C473 H460 0.961 . S
C473 H461 0.959 . S
C473 C471 1.561 . S
C474 C471 1.526 . S
C474 C475 1.396 . S
C474 C479 1.390 . S
C475 C469 1.465 . S
C475 C474 1.396 . S
C475 C476 1.399 . S
C476 H462 0.929 . S
C476 C475 1.399 . S
C476 C477 1.385 . S
C477 H463 0.931 . S
C477 C476 1.385 . S
C477 C478 1.389 . S
C478 C477 1.389 . S
C478 C479 1.387 . S
C479 H464 0.930 . S
C479 C474 1.390 . S
C479 C478 1.387 . S
H480 C492 0.930 . S
H481 C494 0.930 . S
H482 C495 0.930 . S
H483 C499 0.959 . S
H484 C499 0.959 . S
H485 C499 0.961 . S
H486 C500 0.960 . S
H487 C500 0.961 . S
H488 C500 0.959 . S
H489 C503 0.929 . S
H490 C504 0.931 . S
H491 C506 0.930 . S
C492 H480 0.930 . S
C492 C493 1.399 . S
C492 C497 1.399 . S
C493 C492 1.399 . S
C493 C494 1.376 . S
C494 H481 0.930 . S
C494 C493 1.376 . S
C494 C495 1.388 . S
C495 H482 0.930 . S
C495 C494 1.388 . S
C495 C496 1.390 . S
C496 C495 1.390 . S
C496 C497 1.394 . S
C496 C502 1.465 . S
C497 C492 1.399 . S
C497 C496 1.394 . S
C497 C498 1.516 . S
C498 C497 1.516 . S
C498 C499 1.502 . S
C498 C500 1.561 . S
C498 C501 1.526 . S
C499 H483 0.959 . S
C499 H484 0.959 . S
C499 H485 0.961 . S
C499 C498 1.502 . S
C500 H486 0.960 . S
C500 H487 0.961 . S
C500 H488 0.959 . S
C500 C498 1.561 . S
C501 C498 1.526 . S
C501 C502 1.396 . S
C501 C506 1.390 . S
C502 C496 1.465 . S
C502 C501 1.396 . S
C502 C503 1.399 . S
C503 H489 0.929 . S
C503 C502 1.399 . S
C503 C504 1.385 . S
C504 H490 0.931 . S
C504 C503 1.385 . S
C504 C505 1.389 . S
C505 C504 1.389 . S
C505 C506 1.387 . S
C506 H491 0.930 . S
C506 C501 1.390 . S
C506 C505 1.387 . S
H507 C519 0.930 . S
H508 C521 0.930 . S
H509 C522 0.930 . S
H510 C526 0.959 . S
H511 C526 0.959 . S
H512 C526 0.961 . S
H513 C527 0.960 . S
H514 C527 0.961 . S
H515 C527 0.959 . S
H516 C530 0.929 . S
H517 C531 0.931 . S
H518 C533 0.930 . S
C519 H507 0.930 . S
C519 C520 1.399 . S
C519 C524 1.399 . S
C520 C519 1.399 . S
C520 C521 1.376 . S
C521 H508 0.930 . S
C521 C520 1.376 . S
C521 C522 1.388 . S
C522 H509 0.930 . S
C522 C521 1.388 . S
C522 C523 1.390 . S
C523 C522 1.390 . S
C523 C524 1.394 . S
C523 C529 1.465 . S
C524 C519 1.399 . S
C524 C523 1.394 . S
C524 C525 1.516 . S
C525 C524 1.516 . S
C525 C526 1.502 . S
C525 C527 1.561 . S
C525 C528 1.526 . S
C526 H510 0.959 . S
C526 H511 0.959 . S
C526 H512 0.961 . S
C526 C525 1.502 . S
C527 H513 0.960 . S
C527 H514 0.961 . S
C527 H515 0.959 . S
C527 C525 1.561 . S
C528 C525 1.526 . S
C528 C529 1.396 . S
C528 C533 1.390 . S
C529 C523 1.465 . S
C529 C528 1.396 . S
C529 C530 1.399 . S
C530 H516 0.929 . S
C530 C529 1.399 . S
C530 C531 1.385 . S
C531 H517 0.931 . S
C531 C530 1.385 . S
C531 C532 1.389 . S
C532 C531 1.389 . S
C532 C533 1.387 . S
C533 H518 0.930 . S
C533 C528 1.390 . S
C533 C532 1.387 . S
H534 C546 0.930 . S
H535 C548 0.930 . S
H536 C549 0.930 . S
H537 C553 0.959 . S
H538 C553 0.959 . S
H539 C553 0.961 . S
H540 C554 0.960 . S
H541 C554 0.961 . S
H542 C554 0.959 . S
H543 C557 0.929 . S
H544 C558 0.931 1_455 S
H545 C560 0.930 . S
C546 H534 0.930 . S
C546 C547 1.399 . S
C546 C551 1.399 . S
C547 C546 1.399 . S
C547 C548 1.376 . S
C548 H535 0.930 . S
C548 C547 1.376 . S
C548 C549 1.388 . S
C549 H536 0.930 . S
C549 C548 1.388 . S
C549 C550 1.390 . S
C550 C549 1.390 . S
C550 C551 1.394 . S
C550 C556 1.465 . S
C551 C546 1.399 . S
C551 C550 1.394 . S
C551 C552 1.516 . S
C552 C551 1.516 . S
C552 C553 1.502 . S
C552 C554 1.561 . S
C552 C555 1.526 . S
C553 H537 0.959 . S
C553 H538 0.959 . S
C553 H539 0.961 . S
C553 C552 1.502 . S
C554 H540 0.960 . S
C554 H541 0.961 . S
C554 H542 0.959 . S
C554 C552 1.561 . S
C555 C552 1.526 . S
C555 C556 1.396 . S
C555 C560 1.390 . S
C556 C550 1.465 . S
C556 C555 1.396 . S
C556 C557 1.399 . S
C557 H543 0.929 . S
C557 C556 1.399 . S
C557 C558 1.385 . S
C558 H544 0.931 1_655 S
C558 C557 1.385 . S
C558 C559 1.389 . S
C559 C558 1.389 . S
C559 C560 1.387 . S
C560 H545 0.930 . S
C560 C555 1.390 . S
C560 C559 1.387 . S
H561 C573 0.930 . S
H562 C575 0.930 . S
H563 C576 0.930 . S
H564 C580 0.959 . S
H565 C580 0.959 . S
H566 C580 0.961 . S
H567 C581 0.960 . S
H568 C581 0.961 . S
H569 C581 0.959 . S
H570 C584 0.929 . S
H571 C585 0.931 . S
H572 C587 0.930 . S
C573 H561 0.930 . S
C573 C574 1.399 . S
C573 C578 1.399 . S
C574 C573 1.399 . S
C574 C575 1.376 . S
C575 H562 0.930 . S
C575 C574 1.376 . S
C575 C576 1.388 . S
C576 H563 0.930 . S
C576 C575 1.388 . S
C576 C577 1.390 . S
C577 C576 1.390 . S
C577 C578 1.394 . S
C577 C583 1.465 . S
C578 C573 1.399 . S
C578 C577 1.394 . S
C578 C579 1.516 . S
C579 C578 1.516 . S
C579 C580 1.502 . S
C579 C581 1.561 . S
C579 C582 1.526 . S
C580 H564 0.959 . S
C580 H565 0.959 . S
C580 H566 0.961 . S
C580 C579 1.502 . S
C581 H567 0.960 . S
C581 H568 0.961 . S
C581 H569 0.959 . S
C581 C579 1.561 . S
C582 C579 1.526 . S
C582 C583 1.396 . S
C582 C587 1.390 . S
C583 C577 1.465 . S
C583 C582 1.396 . S
C583 C584 1.399 . S
C584 H570 0.929 . S
C584 C583 1.399 . S
C584 C585 1.385 . S
C585 H571 0.931 . S
C585 C584 1.385 . S
C585 C586 1.389 . S
C586 C585 1.389 . S
C586 C587 1.387 . S
C587 H572 0.930 . S
C587 C582 1.390 . S
C587 C586 1.387 . S
H588 C600 0.930 . S
H589 C602 0.930 . S
H590 C603 0.930 . S
H591 C607 0.959 . S
H592 C607 0.959 . S
H593 C607 0.961 . S
H594 C608 0.960 . S
H595 C608 0.961 1_545 S
H596 C608 0.959 . S
H597 C611 0.929 . S
H598 C612 0.931 1_455 S
H599 C614 0.930 . S
C600 H588 0.930 . S
C600 C601 1.399 . S
C600 C605 1.399 . S
C601 C600 1.399 . S
C601 C602 1.376 . S
C602 H589 0.930 . S
C602 C601 1.376 . S
C602 C603 1.388 . S
C603 H590 0.930 . S
C603 C602 1.388 . S
C603 C604 1.390 . S
C604 C603 1.390 . S
C604 C605 1.394 . S
C604 C610 1.465 . S
C605 C600 1.399 . S
C605 C604 1.394 . S
C605 C606 1.516 . S
C606 C605 1.516 . S
C606 C607 1.502 . S
C606 C608 1.561 . S
C606 C609 1.526 . S
C607 H591 0.959 . S
C607 H592 0.959 . S
C607 H593 0.961 . S
C607 C606 1.502 . S
C608 H594 0.960 . S
C608 H595 0.961 1_565 S
C608 H596 0.959 . S
C608 C606 1.561 . S
C609 C606 1.526 . S
C609 C610 1.396 . S
C609 C614 1.390 . S
C610 C604 1.465 . S
C610 C609 1.396 . S
C610 C611 1.399 . S
C611 H597 0.929 . S
C611 C610 1.399 . S
C611 C612 1.385 . S
C612 H598 0.931 1_655 S
C612 C611 1.385 . S
C612 C613 1.389 . S
C613 C612 1.389 . S
C613 C614 1.387 . S
C614 H599 0.930 . S
C614 C609 1.390 . S
C614 C613 1.387 . S
H615 C627 0.930 . S
H616 C629 0.930 . S
H617 C630 0.930 . S
H618 C634 0.959 . S
H619 C634 0.959 . S
H620 C634 0.961 . S
H621 C635 0.960 . S
H622 C635 0.961 . S
H623 C635 0.959 . S
H624 C638 0.929 . S
H625 C639 0.931 . S
H626 C641 0.930 . S
C627 H615 0.930 . S
C627 C628 1.399 . S
C627 C632 1.399 . S
C628 C627 1.399 . S
C628 C629 1.376 . S
C629 H616 0.930 . S
C629 C628 1.376 . S
C629 C630 1.388 . S
C630 H617 0.930 . S
C630 C629 1.388 . S
C630 C631 1.390 . S
C631 C630 1.390 . S
C631 C632 1.394 . S
C631 C637 1.465 . S
C632 C627 1.399 . S
C632 C631 1.394 . S
C632 C633 1.516 . S
C633 C632 1.516 . S
C633 C634 1.502 . S
C633 C635 1.561 . S
C633 C636 1.526 . S
C634 H618 0.959 . S
C634 H619 0.959 . S
C634 H620 0.961 . S
C634 C633 1.502 . S
C635 H621 0.960 . S
C635 H622 0.961 . S
C635 H623 0.959 . S
C635 C633 1.561 . S
C636 C633 1.526 . S
C636 C637 1.396 . S
C636 C641 1.390 . S
C637 C631 1.465 . S
C637 C636 1.396 . S
C637 C638 1.399 . S
C638 H624 0.929 . S
C638 C637 1.399 . S
C638 C639 1.385 . S
C639 H625 0.931 . S
C639 C638 1.385 . S
C639 C640 1.389 . S
C640 C639 1.389 . S
C640 C641 1.387 . S
C641 H626 0.930 . S
C641 C636 1.390 . S
C641 C640 1.387 . S
H642 C654 0.930 . S
H643 C656 0.930 . S
H644 C657 0.930 . S
H645 C661 0.959 . S
H646 C661 0.959 . S
H647 C661 0.961 . S
H648 C662 0.960 . S
H649 C662 0.961 . S
H650 C662 0.959 . S
H651 C665 0.929 . S
H652 C666 0.931 . S
H653 C668 0.930 . S
C654 H642 0.930 . S
C654 C655 1.399 . S
C654 C659 1.399 . S
C655 C654 1.399 . S
C655 C656 1.376 . S
C656 H643 0.930 . S
C656 C655 1.376 . S
C656 C657 1.388 . S
C657 H644 0.930 . S
C657 C656 1.388 . S
C657 C658 1.390 . S
C658 C657 1.390 . S
C658 C659 1.394 . S
C658 C664 1.465 . S
C659 C654 1.399 . S
C659 C658 1.394 . S
C659 C660 1.516 . S
C660 C659 1.516 . S
C660 C661 1.502 . S
C660 C662 1.561 . S
C660 C663 1.526 . S
C661 H645 0.959 . S
C661 H646 0.959 . S
C661 H647 0.961 . S
C661 C660 1.502 . S
C662 H648 0.960 . S
C662 H649 0.961 . S
C662 H650 0.959 . S
C662 C660 1.561 . S
C663 C660 1.526 . S
C663 C664 1.396 . S
C663 C668 1.390 . S
C664 C658 1.465 . S
C664 C663 1.396 . S
C664 C665 1.399 . S
C665 H651 0.929 . S
C665 C664 1.399 . S
C665 C666 1.385 . S
C666 H652 0.931 . S
C666 C665 1.385 . S
C666 C667 1.389 . S
C667 C666 1.389 . S
C667 C668 1.387 . S
C668 H653 0.930 . S
C668 C663 1.390 . S
C668 C667 1.387 . S
H669 C681 0.930 . S
H670 C683 0.930 . S
H671 C684 0.930 . S
H672 C688 0.959 . S
H673 C688 0.959 . S
H674 C688 0.961 . S
H675 C689 0.960 . S
H676 C689 0.961 . S
H677 C689 0.959 . S
H678 C692 0.929 . S
H679 C693 0.931 . S
H680 C695 0.930 . S
C681 H669 0.930 . S
C681 C682 1.399 . S
C681 C686 1.399 . S
C682 C681 1.399 . S
C682 C683 1.376 . S
C683 H670 0.930 . S
C683 C682 1.376 . S
C683 C684 1.388 . S
C684 H671 0.930 . S
C684 C683 1.388 . S
C684 C685 1.390 . S
C685 C684 1.390 . S
C685 C686 1.394 . S
C685 C691 1.465 . S
C686 C681 1.399 . S
C686 C685 1.394 . S
C686 C687 1.516 . S
C687 C686 1.516 . S
C687 C688 1.502 . S
C687 C689 1.561 . S
C687 C690 1.526 . S
C688 H672 0.959 . S
C688 H673 0.959 . S
C688 H674 0.961 . S
C688 C687 1.502 . S
C689 H675 0.960 . S
C689 H676 0.961 . S
C689 H677 0.959 . S
C689 C687 1.561 . S
C690 C687 1.526 . S
C690 C691 1.396 . S
C690 C695 1.390 . S
C691 C685 1.465 . S
C691 C690 1.396 . S
C691 C692 1.399 . S
C692 H678 0.929 . S
C692 C691 1.399 . S
C692 C693 1.385 . S
C693 H679 0.931 . S
C693 C692 1.385 . S
C693 C694 1.389 . S
C694 C693 1.389 . S
C694 C695 1.387 . S
C695 H680 0.930 . S
C695 C690 1.390 . S
C695 C694 1.387 . S
H696 C708 0.930 . S
H697 C710 0.930 . S
H698 C711 0.930 . S
H699 C715 0.959 . S
H700 C715 0.959 . S
H701 C715 0.961 . S
H702 C716 0.960 . S
H703 C716 0.961 . S
H704 C716 0.959 . S
H705 C719 0.929 . S
H706 C720 0.931 . S
H707 C722 0.930 . S
C708 H696 0.930 . S
C708 C709 1.399 . S
C708 C713 1.399 . S
C709 C708 1.399 . S
C709 C710 1.376 . S
C710 H697 0.930 . S
C710 C709 1.376 . S
C710 C711 1.388 . S
C711 H698 0.930 . S
C711 C710 1.388 . S
C711 C712 1.390 . S
C712 C711 1.390 . S
C712 C713 1.394 . S
C712 C718 1.465 . S
C713 C708 1.399 . S
C713 C712 1.394 . S
C713 C714 1.516 . S
C714 C713 1.516 . S
C714 C715 1.502 . S
C714 C716 1.561 1_556 S
C714 C717 1.526 . S
C715 H699 0.959 . S
C715 H700 0.959 . S
C715 H701 0.961 . S
C715 C714 1.502 . S
C716 H702 0.960 . S
C716 H703 0.961 . S
C716 H704 0.959 . S
C716 C714 1.561 1_554 S
C717 C714 1.526 . S
C717 C718 1.396 . S
C717 C722 1.390 . S
C718 C712 1.465 . S
C718 C717 1.396 . S
C718 C719 1.399 . S
C719 H705 0.929 . S
C719 C718 1.399 . S
C719 C720 1.385 . S
C720 H706 0.931 . S
C720 C719 1.385 . S
C720 C721 1.389 . S
C721 C720 1.389 . S
C721 C722 1.387 . S
C722 H707 0.930 . S
C722 C717 1.390 . S
C722 C721 1.387 . S
H723 C735 0.930 . S
H724 C737 0.930 . S
H725 C738 0.930 . S
H726 C742 0.959 . S
H727 C742 0.959 . S
H728 C742 0.961 . S
H729 C743 0.960 . S
H730 C743 0.961 . S
H731 C743 0.959 . S
H732 C746 0.929 . S
H733 C747 0.931 . S
H734 C749 0.930 . S
C735 H723 0.930 . S
C735 C736 1.399 . S
C735 C740 1.399 . S
C736 C735 1.399 . S
C736 C737 1.376 . S
C737 H724 0.930 . S
C737 C736 1.376 . S
C737 C738 1.388 . S
C738 H725 0.930 . S
C738 C737 1.388 . S
C738 C739 1.390 . S
C739 C738 1.390 . S
C739 C740 1.394 . S
C739 C745 1.465 . S
C740 C735 1.399 . S
C740 C739 1.394 . S
C740 C741 1.516 . S
C741 C740 1.516 . S
C741 C742 1.502 . S
C741 C743 1.561 . S
C741 C744 1.526 . S
C742 H726 0.959 . S
C742 H727 0.959 . S
C742 H728 0.961 . S
C742 C741 1.502 . S
C743 H729 0.960 . S
C743 H730 0.961 . S
C743 H731 0.959 . S
C743 C741 1.561 . S
C744 C741 1.526 . S
C744 C745 1.396 . S
C744 C749 1.390 . S
C745 C739 1.465 . S
C745 C744 1.396 . S
C745 C746 1.399 . S
C746 H732 0.929 . S
C746 C745 1.399 . S
C746 C747 1.385 . S
C747 H733 0.931 . S
C747 C746 1.385 . S
C747 C748 1.389 . S
C748 C747 1.389 . S
C748 C749 1.387 . S
C749 H734 0.930 . S
C749 C744 1.390 . S
C749 C748 1.387 . S
H750 C762 0.930 . S
H751 C764 0.930 . S
H752 C765 0.930 . S
H753 C769 0.959 . S
H754 C769 0.959 . S
H755 C769 0.961 . S
H756 C770 0.960 . S
H757 C770 0.961 . S
H758 C770 0.959 . S
H759 C773 0.929 . S
H760 C774 0.931 . S
H761 C776 0.930 . S
C762 H750 0.930 . S
C762 C763 1.399 . S
C762 C767 1.399 . S
C763 C762 1.399 . S
C763 C764 1.376 . S
C764 H751 0.930 . S
C764 C763 1.376 . S
C764 C765 1.388 . S
C765 H752 0.930 . S
C765 C764 1.388 . S
C765 C766 1.390 . S
C766 C765 1.390 . S
C766 C767 1.394 . S
C766 C772 1.465 . S
C767 C762 1.399 . S
C767 C766 1.394 . S
C767 C768 1.516 . S
C768 C767 1.516 . S
C768 C769 1.502 . S
C768 C770 1.561 . S
C768 C771 1.526 . S
C769 H753 0.959 . S
C769 H754 0.959 . S
C769 H755 0.961 . S
C769 C768 1.502 . S
C770 H756 0.960 . S
C770 H757 0.961 . S
C770 H758 0.959 . S
C770 C768 1.561 . S
C771 C768 1.526 . S
C771 C772 1.396 . S
C771 C776 1.390 . S
C772 C766 1.465 . S
C772 C771 1.396 . S
C772 C773 1.399 . S
C773 H759 0.929 . S
C773 C772 1.399 . S
C773 C774 1.385 . S
C774 H760 0.931 . S
C774 C773 1.385 . S
C774 C775 1.389 . S
C775 C774 1.389 . S
C775 C776 1.387 . S
C776 H761 0.930 . S
C776 C771 1.390 . S
C776 C775 1.387 . S
H777 C789 0.930 . S
H778 C791 0.930 . S
H779 C792 0.930 . S
H780 C796 0.959 . S
H781 C796 0.959 . S
H782 C796 0.961 . S
H783 C797 0.960 . S
H784 C797 0.961 . S
H785 C797 0.959 . S
H786 C800 0.929 . S
H787 C801 0.931 . S
H788 C803 0.930 . S
C789 H777 0.930 . S
C789 C790 1.399 . S
C789 C794 1.399 . S
C790 C789 1.399 . S
C790 C791 1.376 . S
C791 H778 0.930 . S
C791 C790 1.376 . S
C791 C792 1.388 . S
C792 H779 0.930 . S
C792 C791 1.388 . S
C792 C793 1.390 . S
C793 C792 1.390 . S
C793 C794 1.394 . S
C793 C799 1.465 . S
C794 C789 1.399 . S
C794 C793 1.394 . S
C794 C795 1.516 . S
C795 C794 1.516 . S
C795 C796 1.502 . S
C795 C797 1.561 . S
C795 C798 1.526 . S
C796 H780 0.959 . S
C796 H781 0.959 . S
C796 H782 0.961 . S
C796 C795 1.502 . S
C797 H783 0.960 . S
C797 H784 0.961 . S
C797 H785 0.959 . S
C797 C795 1.561 . S
C798 C795 1.526 . S
C798 C799 1.396 . S
C798 C803 1.390 . S
C799 C793 1.465 . S
C799 C798 1.396 . S
C799 C800 1.399 . S
C800 H786 0.929 . S
C800 C799 1.399 . S
C800 C801 1.385 . S
C801 H787 0.931 . S
C801 C800 1.385 . S
C801 C802 1.389 . S
C802 C801 1.389 . S
C802 C803 1.387 . S
C803 H788 0.930 . S
C803 C798 1.390 . S
C803 C802 1.387 . S
H804 C816 0.930 . S
H805 C818 0.930 . S
H806 C819 0.930 . S
H807 C823 0.959 . S
H808 C823 0.959 . S
H809 C823 0.961 . S
H810 C824 0.960 . S
H811 C824 0.961 . S
H812 C824 0.959 . S
H813 C827 0.929 . S
H814 C828 0.931 . S
H815 C830 0.930 1_455 S
C816 H804 0.930 . S
C816 C817 1.399 . S
C816 C821 1.399 . S
C817 C816 1.399 . S
C817 C818 1.376 . S
C818 H805 0.930 . S
C818 C817 1.376 . S
C818 C819 1.388 . S
C819 H806 0.930 . S
C819 C818 1.388 . S
C819 C820 1.390 . S
C820 C819 1.390 . S
C820 C821 1.394 . S
C820 C826 1.465 . S
C821 C816 1.399 . S
C821 C820 1.394 . S
C821 C822 1.516 1_556 S
C822 C821 1.516 1_554 S
C822 C823 1.502 1_655 S
C822 C824 1.561 . S
C822 C825 1.526 1_554 S
C823 H807 0.959 . S
C823 H808 0.959 . S
C823 H809 0.961 . S
C823 C822 1.502 1_455 S
C824 H810 0.960 . S
C824 H811 0.961 . S
C824 H812 0.959 . S
C824 C822 1.561 . S
C825 C822 1.526 1_556 S
C825 C826 1.396 . S
C825 C830 1.390 1_556 S
C826 C820 1.465 . S
C826 C825 1.396 . S
C826 C827 1.399 . S
C827 H813 0.929 . S
C827 C826 1.399 . S
C827 C828 1.385 . S
C828 H814 0.931 . S
C828 C827 1.385 . S
C828 C829 1.389 . S
C829 C828 1.389 . S
C829 C830 1.387 1_556 S
C830 H815 0.930 1_655 S
C830 C825 1.390 1_554 S
C830 C829 1.387 1_554 S
H831 C843 0.930 . S
H832 C845 0.930 . S
H833 C846 0.930 . S
H834 C850 0.959 . S
H835 C850 0.959 . S
H836 C850 0.961 . S
H837 C851 0.960 . S
H838 C851 0.961 . S
H839 C851 0.959 . S
H840 C854 0.929 . S
H841 C855 0.931 . S
H842 C857 0.930 . S
C843 H831 0.930 . S
C843 C844 1.399 . S
C843 C848 1.399 . S
C844 C843 1.399 . S
C844 C845 1.376 . S
C845 H832 0.930 . S
C845 C844 1.376 . S
C845 C846 1.388 . S
C846 H833 0.930 . S
C846 C845 1.388 . S
C846 C847 1.390 . S
C847 C846 1.390 . S
C847 C848 1.394 . S
C847 C853 1.465 . S
C848 C843 1.399 . S
C848 C847 1.394 . S
C848 C849 1.516 . S
C849 C848 1.516 . S
C849 C850 1.502 . S
C849 C851 1.561 . S
C849 C852 1.526 . S
C850 H834 0.959 . S
C850 H835 0.959 . S
C850 H836 0.961 . S
C850 C849 1.502 . S
C851 H837 0.960 . S
C851 H838 0.961 . S
C851 H839 0.959 . S
C851 C849 1.561 . S
C852 C849 1.526 . S
C852 C853 1.396 . S
C852 C857 1.390 . S
C853 C847 1.465 . S
C853 C852 1.396 . S
C853 C854 1.399 . S
C854 H840 0.929 . S
C854 C853 1.399 . S
C854 C855 1.385 . S
C855 H841 0.931 . S
C855 C854 1.385 . S
C855 C856 1.389 . S
C856 C855 1.389 . S
C856 C857 1.387 . S
C857 H842 0.930 . S
C857 C852 1.390 . S
C857 C856 1.387 . S
H858 C870 0.930 . S
H859 C872 0.930 . S
H860 C873 0.930 . S
H861 C877 0.959 . S
H862 C877 0.959 . S
H863 C877 0.961 . S
H864 C878 0.960 . S
H865 C878 0.961 . S
H866 C878 0.959 . S
H867 C881 0.929 . S
H868 C882 0.931 . S
H869 C884 0.930 . S
C870 H858 0.930 . S
C870 C871 1.399 . S
C870 C875 1.399 . S
C871 C870 1.399 . S
C871 C872 1.376 . S
C872 H859 0.930 . S
C872 C871 1.376 . S
C872 C873 1.388 . S
C873 H860 0.930 . S
C873 C872 1.388 . S
C873 C874 1.390 . S
C874 C873 1.390 . S
C874 C875 1.394 . S
C874 C880 1.465 . S
C875 C870 1.399 . S
C875 C874 1.394 . S
C875 C876 1.516 . S
C876 C875 1.516 . S
C876 C877 1.502 . S
C876 C878 1.561 . S
C876 C879 1.526 . S
C877 H861 0.959 . S
C877 H862 0.959 . S
C877 H863 0.961 . S
C877 C876 1.502 . S
C878 H864 0.960 . S
C878 H865 0.961 . S
C878 H866 0.959 . S
C878 C876 1.561 . S
C879 C876 1.526 . S
C879 C880 1.396 . S
C879 C884 1.390 . S
C880 C874 1.465 . S
C880 C879 1.396 . S
C880 C881 1.399 . S
C881 H867 0.929 . S
C881 C880 1.399 . S
C881 C882 1.385 . S
C882 H868 0.931 . S
C882 C881 1.385 . S
C882 C883 1.389 . S
C883 C882 1.389 . S
C883 C884 1.387 . S
C884 H869 0.930 . S
C884 C879 1.390 . S
C884 C883 1.387 . S
H885 C897 0.930 . S
H886 C899 0.930 . S
H887 C900 0.930 . S
H888 C904 0.959 . S
H889 C904 0.959 . S
H890 C904 0.961 . S
H891 C905 0.960 . S
H892 C905 0.961 . S
H893 C905 0.959 . S
H894 C908 0.929 . S
H895 C909 0.931 . S
H896 C911 0.930 . S
C897 H885 0.930 . S
C897 C898 1.399 . S
C897 C902 1.399 . S
C898 C897 1.399 . S
C898 C899 1.376 . S
C899 H886 0.930 . S
C899 C898 1.376 . S
C899 C900 1.388 . S
C900 H887 0.930 . S
C900 C899 1.388 . S
C900 C901 1.390 . S
C901 C900 1.390 . S
C901 C902 1.394 . S
C901 C907 1.465 . S
C902 C897 1.399 . S
C902 C901 1.394 . S
C902 C903 1.516 . S
C903 C902 1.516 . S
C903 C904 1.502 . S
C903 C905 1.561 . S
C903 C906 1.526 . S
C904 H888 0.959 . S
C904 H889 0.959 . S
C904 H890 0.961 . S
C904 C903 1.502 . S
C905 H891 0.960 . S
C905 H892 0.961 . S
C905 H893 0.959 . S
C905 C903 1.561 . S
C906 C903 1.526 . S
C906 C907 1.396 . S
C906 C911 1.390 . S
C907 C901 1.465 . S
C907 C906 1.396 . S
C907 C908 1.399 . S
C908 H894 0.929 . S
C908 C907 1.399 . S
C908 C909 1.385 . S
C909 H895 0.931 . S
C909 C908 1.385 . S
C909 C910 1.389 . S
C910 C909 1.389 . S
C910 C911 1.387 . S
C911 H896 0.930 . S
C911 C906 1.390 . S
C911 C910 1.387 . S
C277 C9 3.309 . S
C289 C123 3.271 . S
C304 C21 1.994 . S
C316 C154 2.085 . S
C343 C193 0.867 . S
C331 C30 0.918 . S
C358 C43 0.669 . S
C370 C230 0.432 . S
C397 C153 2.702 . S
C385 C4 2.778 . S
C424 C110 1.790 . S
C412 C22 1.779 . S
C451 C242 1.029 . S
C439 C34 1.041 . S
C478 C199 0.858 . S
C466 C48 0.933 . S
C493 C8 2.326 . S
C505 C243 2.312 . S
C532 C159 1.425 . S
C520 C35 1.456 . S
C547 C47 0.503 . S
C559 C122 0.501 . S
C574 C17 1.945 . S
C586 C194 2.141 . S
C613 C114 2.806 1_655 S
C601 C60 2.808 . S
C628 C74 2.350 . S
C640 C163 2.445 . S
C655 C82 0.780 . S
C667 C202 0.838 . S
C682 C100 0.742 . S
C694 C239 0.691 . S
C709 C61 3.215 . S
C721 C162 3.132 . S
C748 C119 1.368 . S
C736 C73 1.345 . S
C775 C233 1.476 . S
C763 C87 1.545 . S
C802 C190 0.703 . S
C790 C95 0.823 . S
C817 C56 2.410 . S
C829 C234 2.476 1_656 S
C856 C150 1.403 . S
C844 C86 1.422 . S
C883 C113 0.411 . S
C871 C99 0.425 . S
C898 C69 2.042 . S
C910 C203 2.177 . S
