# Generated by pormake.
# Topology zzz, (3,6)-cn, num edge types: 1
# Building blocks:
#     Node 0, Type 0, BuildingBlock: BETDIP_clean_linker_0, # of connection points: 3
#     Node 1, Type 0, BuildingBlock: BETDIP_clean_linker_0, # of connection points: 3
#     Node 2, Type 0, BuildingBlock: BETDIP_clean_linker_0, # of connection points: 3
#     Node 3, Type 0, BuildingBlock: BETDIP_clean_linker_0, # of connection points: 3
#     Node 4, Type 0, BuildingBlock: BETDIP_clean_linker_0, # of connection points: 3
#     Node 5, Type 0, BuildingBlock: BETDIP_clean_linker_0, # of connection points: 3
#     Node 6, Type 0, BuildingBlock: BETDIP_clean_linker_0, # of connection points: 3
#     Node 7, Type 0, BuildingBlock: BETDIP_clean_linker_0, # of connection points: 3
#     Node 8, Type 1, BuildingBlock: NUHQIS_clean_sbu_0, # of connection points: 6
#     Node 9, Type 1, BuildingBlock: NUHQIS_clean_sbu_0, # of connection points: 6
#     Node 10, Type 1, BuildingBlock: NUHQIS_clean_sbu_0, # of connection points: 6
#     Node 11, Type 1, BuildingBlock: NUHQIS_clean_sbu_0, # of connection points: 6
#     Edge 12, Type (0, 1), BuildingBlock: KIFKEQ_clean_linker_1, # of connection points: 2
#     Edge 13, Type (0, 1), BuildingBlock: KIFKEQ_clean_linker_1, # of connection points: 2
#     Edge 14, Type (0, 1), BuildingBlock: KIFKEQ_clean_linker_1, # of connection points: 2
#     Edge 15, Type (0, 1), BuildingBlock: KIFKEQ_clean_linker_1, # of connection points: 2
#     Edge 16, Type (0, 1), BuildingBlock: KIFKEQ_clean_linker_1, # of connection points: 2
#     Edge 17, Type (0, 1), BuildingBlock: KIFKEQ_clean_linker_1, # of connection points: 2
#     Edge 18, Type (0, 1), BuildingBlock: KIFKEQ_clean_linker_1, # of connection points: 2
#     Edge 19, Type (0, 1), BuildingBlock: KIFKEQ_clean_linker_1, # of connection points: 2
#     Edge 20, Type (0, 1), BuildingBlock: KIFKEQ_clean_linker_1, # of connection points: 2
#     Edge 21, Type (0, 1), BuildingBlock: KIFKEQ_clean_linker_1, # of connection points: 2
#     Edge 22, Type (0, 1), BuildingBlock: KIFKEQ_clean_linker_1, # of connection points: 2
#     Edge 23, Type (0, 1), BuildingBlock: KIFKEQ_clean_linker_1, # of connection points: 2
#     Edge 24, Type (0, 1), BuildingBlock: KIFKEQ_clean_linker_1, # of connection points: 2
#     Edge 25, Type (0, 1), BuildingBlock: KIFKEQ_clean_linker_1, # of connection points: 2
#     Edge 26, Type (0, 1), BuildingBlock: KIFKEQ_clean_linker_1, # of connection points: 2
#     Edge 27, Type (0, 1), BuildingBlock: KIFKEQ_clean_linker_1, # of connection points: 2
#     Edge 28, Type (0, 1), BuildingBlock: KIFKEQ_clean_linker_1, # of connection points: 2
#     Edge 29, Type (0, 1), BuildingBlock: KIFKEQ_clean_linker_1, # of connection points: 2
#     Edge 30, Type (0, 1), BuildingBlock: KIFKEQ_clean_linker_1, # of connection points: 2
#     Edge 31, Type (0, 1), BuildingBlock: KIFKEQ_clean_linker_1, # of connection points: 2
#     Edge 32, Type (0, 1), BuildingBlock: KIFKEQ_clean_linker_1, # of connection points: 2
#     Edge 33, Type (0, 1), BuildingBlock: KIFKEQ_clean_linker_1, # of connection points: 2
#     Edge 34, Type (0, 1), BuildingBlock: KIFKEQ_clean_linker_1, # of connection points: 2
#     Edge 35, Type (0, 1), BuildingBlock: KIFKEQ_clean_linker_1, # of connection points: 2
# Relax obj value: 0.250
# Max RMSD: 0.155
# Mean RMSD: 0.136
data_MOF--net-zzz--node1-NUHQIS_clean_sbu_0--node2-BETDIP_clean_linker_0--edge1-KIFKEQ_clean_linker_1
_symmetry_space_group_name_H-M    P1
_symmetry_Int_Tables_number       1
_symmetry_cell_setting            triclinic
loop_
_symmetry_equiv_pos_as_xyz
'x, y, z'
_cell_length_a     53.020401
_cell_length_b     53.159325
_cell_length_c     14.099061
_cell_angle_alpha  90.093978
_cell_angle_beta   90.054524
_cell_angle_gamma 90.266698
loop_
_atom_site_label
_atom_site_type_symbol
_atom_site_fract_x
_atom_site_fract_y
_atom_site_fract_z
_atom_type_partial_charge
H0 H 0.77101 0.53209 0.51733 0.0
H1 H 0.75273 0.54478 0.22306 0.0
H2 H 0.83013 0.54275 0.31219 0.0
H3 H 0.72084 0.57429 0.35188 0.0
C4 C 0.71494 0.55467 0.35318 0.0
C5 C 0.77696 0.53594 0.44533 0.0
C6 C 0.80301 0.53792 0.42367 0.0
C7 C 0.75865 0.53914 0.37277 0.0
C8 C 0.7666 0.54341 0.27936 0.0
C9 C 0.79223 0.54463 0.25708 0.0
C10 C 0.8102 0.54235 0.32963 0.0
N11 N 0.73226 0.53677 0.39087 0.0
H12 H 0.03077 0.7651 0.46399 0.0
H13 H 0.97724 0.74681 0.24359 0.0
H14 H 0.97586 0.81943 0.37687 0.0
H15 H 0.98154 0.70529 0.36736 0.0
C16 C 0.99985 0.70592 0.33271 0.0
C17 C 1.0143 0.76994 0.4225 0.0
C18 C 1.00356 0.79419 0.43105 0.0
C19 C 1.00384 0.75215 0.35805 0.0
C20 C 0.98374 0.75941 0.29905 0.0
C21 C 0.97377 0.78372 0.30457 0.0
C22 C 0.98292 0.8003 0.37409 0.0
N23 N 1.01501 0.728 0.34449 0.0
H24 H 0.77898 1.01555 0.4684 0.0
H25 H 0.78997 0.96212 0.24133 0.0
H26 H 0.72001 0.96353 0.39304 0.0
H27 H 0.83104 0.9614 0.33198 0.0
C28 C 0.83324 0.98122 0.3145 0.0
C29 C 0.77237 0.99969 0.4268 0.0
C30 C 0.74777 0.98991 0.44158 0.0
C31 C 0.7884 0.98865 0.35775 0.0
C32 C 0.77881 0.9692 0.29986 0.0
C33 C 0.75422 0.96012 0.31207 0.0
C34 C 0.73941 0.96984 0.38553 0.0
N35 N 0.81342 0.99793 0.34152 0.0
H36 H 0.53003 0.76548 0.42124 0.0
H37 H 0.47238 0.78054 0.2124 0.0
H38 H 0.4654 0.71658 0.39419 0.0
H39 H 0.51317 0.7876 0.13102 0.0
C40 C 0.51737 0.8028 0.18042 0.0
C41 C 0.51205 0.7609 0.38889 0.0
C42 C 0.49834 0.73945 0.41962 0.0
C43 C 0.5027 0.77599 0.31388 0.0
C44 C 0.47963 0.76941 0.27061 0.0
C45 C 0.46603 0.74826 0.30033 0.0
C46 C 0.47534 0.73372 0.37507 0.0
N47 N 0.51662 0.79724 0.27955 0.0
H48 H 0.27696 0.51333 0.1004 0.0
H49 H 0.2945 0.57462 0.2915 0.0
H50 H 0.22555 0.57523 0.13331 0.0
H51 H 0.33476 0.56664 0.2024 0.0
C52 C 0.33499 0.54781 0.23248 0.0
C53 C 0.27219 0.53128 0.13189 0.0
C54 C 0.24925 0.54326 0.10715 0.0
C55 C 0.28932 0.54318 0.19551 0.0
C56 C 0.28238 0.56606 0.23843 0.0
C57 C 0.2596 0.57768 0.21546 0.0
C58 C 0.24354 0.56648 0.1488 0.0
N59 N 0.31322 0.53223 0.21822 0.0
H60 H 0.03932 0.26747 0.09448 0.0
H61 H 0.97862 0.28727 0.28437 0.0
H62 H 0.97623 0.21729 0.13349 0.0
H63 H 0.988 0.32698 0.18559 0.0
C64 C 1.00665 0.32698 0.21782 0.0
C65 C 0.02126 0.26321 0.12663 0.0
C66 C 1.00871 0.24033 0.10441 0.0
C67 C 1.00984 0.28092 0.18857 0.0
C68 C 0.98681 0.27466 0.23252 0.0
C69 C 0.97465 0.25187 0.21225 0.0
C70 C 0.9854 0.23524 0.14699 0.0
N71 N 0.0215 0.30469 0.20879 0.0
H72 H 0.27915 0.0313 0.11981 0.0
H73 H 0.2603 0.96543 0.28486 0.0
H74 H 0.32947 0.96809 0.12786 0.0
H75 H 0.21968 0.97736 0.20335 0.0
C76 C 0.22035 0.99545 0.2395 0.0
C77 C 0.28347 1.01244 0.1435 0.0
C78 C 0.30627 1.00088 0.11513 0.0
C79 C 0.26613 0.99924 0.202 0.0
C80 C 0.27258 0.97513 0.23543 0.0
C81 C 0.29523 0.96381 0.2082 0.0
C82 C 0.31157 0.97657 0.1468 0.0
N83 N 0.24274 1.01034 0.2301 0.0
H84 H 0.51655 0.27646 0.12366 0.0
H85 H 0.57697 0.25697 0.31501 0.0
H86 H 0.58012 0.3262 0.15975 0.0
H87 H 0.56579 0.21629 0.20803 0.0
C88 C 0.54796 0.2172 0.24593 0.0
C89 C 0.53471 0.28068 0.15535 0.0
C90 C 0.54753 0.3032 0.13144 0.0
C91 C 0.54591 0.26327 0.21851 0.0
C92 C 0.56902 0.26943 0.26219 0.0
C93 C 0.58138 0.29204 0.24097 0.0
C94 C 0.57086 0.30834 0.17404 0.0
N95 N 0.53382 0.23996 0.24076 0.0
Tb96 Tb 0.04081 1.01004 0.84974 0.0
Eu97 Eu 1.00477 0.02694 0.67446 0.0
C98 C 0.06522 0.02117 0.65115 0.0
C99 C 0.02899 0.06857 0.81625 0.0
C100 C 0.05328 0.96938 0.04013 0.0
C101 C 0.04292 0.9252 0.01657 0.0
C102 C 0.05841 0.94592 0.99829 0.0
C103 C 0.03431 0.97076 0.1097 0.0
C104 C 0.01873 0.95006 0.1276 0.0
C105 C 0.02207 0.92746 0.07743 0.0
C106 C 0.06211 0.99277 0.99347 0.0
O107 O 1.00215 0.99866 0.88248 0.0
O108 O 0.98218 0.03074 0.80974 0.0
O109 O 1.00416 0.98436 0.66771 0.0
O110 O 0.03677 0.975 0.76923 0.0
C111 C 0.98267 1.01365 0.87634 0.0
O112 O 0.96748 0.02561 0.60867 0.0
O113 O 0.99795 0.04608 0.54066 0.0
O114 O 0.04293 0.01774 0.61172 0.0
O115 O 0.06757 0.0239 0.74368 0.0
O116 O 0.03536 0.05039 0.87496 0.0
O117 O 0.02009 0.06377 0.73099 0.0
C118 C 0.01996 0.96818 0.70537 0.0
O119 O 0.07135 0.99018 0.90817 0.0
O120 O 0.04626 1.01145 0.99718 0.0
C121 C 0.95729 0.06308 0.52967 0.0
C122 C 0.9294 0.10697 0.49321 0.0
C123 C 0.92431 0.08459 0.44293 0.0
C124 C 0.93826 0.06283 0.46077 0.0
C125 C 0.96121 0.08473 0.5847 0.0
C126 C 0.94747 0.10651 0.56644 0.0
C127 C 0.97378 0.04124 0.54143 0.0
H128 H 0.04659 0.90771 0.97965 0.0
H129 H 0.07308 0.94401 0.94536 0.0
H130 H 0.02994 0.98848 0.14387 0.0
H131 H 1.00301 0.95238 0.17577 0.0
H132 H 0.91026 0.08416 0.38712 0.0
H133 H 0.93478 0.04611 0.41863 0.0
H134 H 0.97567 0.08514 0.63904 0.0
H135 H 0.95224 0.12338 0.60585 0.0
Tb136 Tb 0.5316 0.03106 0.83616 0.0
Eu137 Eu 0.51586 0.99905 0.6497 0.0
C138 C 0.52109 0.06029 0.64118 0.0
C139 C 0.47456 0.02052 0.79931 0.0
C140 C 0.57058 0.03638 0.03673 0.0
C141 C 0.61473 0.02442 0.03308 0.0
C142 C 0.59584 0.0419 0.01453 0.0
C143 C 0.56515 1.01435 0.08854 0.0
C144 C 0.58414 0.99698 0.10808 0.0
C145 C 0.60881 1.00135 0.0761 0.0
C146 C 0.55027 0.04926 0.98385 0.0
O147 O 0.52252 0.99328 0.88822 0.0
O148 O 0.53149 0.9711 0.75451 0.0
O149 O 0.55562 1.01227 0.62217 0.0
O150 O 0.56598 1.01375 0.77853 0.0
C151 C 0.52796 0.97194 0.8464 0.0
O152 O 0.52043 0.96536 0.56205 0.0
O153 O 0.49231 0.99315 0.52535 0.0
O154 O 0.51472 0.03917 0.59853 0.0
O155 O 0.5283 0.06106 0.73069 0.0
O156 O 0.49112 0.03763 0.82606 0.0
O157 O 0.48138 1.00151 0.74513 0.0
C158 C 0.57283 1.01336 0.68887 0.0
O159 O 0.55662 0.05687 0.89919 0.0
O160 O 0.52839 0.03793 0.9827 0.0
C161 C 0.48201 0.95082 0.49732 0.0
C162 C 0.44143 0.91806 0.45745 0.0
C163 C 0.46364 0.91727 0.40266 0.0
C164 C 0.48369 0.9337 0.42205 0.0
C165 C 0.461 0.95003 0.55755 0.0
C166 C 0.44085 0.93391 0.5376 0.0
C167 C 0.5011 0.97069 0.50863 0.0
H168 H 0.63383 0.02851 0.01039 0.0
H169 H 0.60072 0.05876 0.97536 0.0
H170 H 0.54593 1.00949 0.10732 0.0
H171 H 0.57921 0.97947 0.14277 0.0
H172 H 0.465 0.90494 0.34167 0.0
H173 H 0.49999 0.9338 0.37575 0.0
H174 H 0.45952 0.96291 0.6169 0.0
H175 H 0.42411 0.93536 0.58112 0.0
Tb176 Tb 0.50568 0.53008 0.87264 0.0
Eu177 Eu 0.546 0.51603 0.70587 0.0
C178 C 0.48716 0.52209 0.66077 0.0
C179 C 0.52257 0.47371 0.84411 0.0
C180 C 0.45342 0.56102 0.99877 0.0
C181 C 0.41817 0.58026 0.0801 0.0
C182 C 0.43425 0.55978 0.06677 0.0
C183 C 0.45509 0.58205 0.93922 0.0
C184 C 0.43935 0.60264 0.95345 0.0
C185 C 0.42139 0.60247 0.02698 0.0
C186 C 0.47294 0.54157 0.99534 0.0
O187 O 0.54282 0.53801 0.93481 0.0
O188 O 0.56712 0.51193 0.84428 0.0
O189 O 0.54606 0.55852 0.71172 0.0
O190 O 0.50846 0.56472 0.7893 0.0
C191 C 0.56397 0.52568 0.92072 0.0
O192 O 0.5843 0.51815 0.64928 0.0
O193 O 0.55524 0.49793 0.57192 0.0
O194 O 0.51005 0.5266 0.62948 0.0
O195 O 0.48314 0.51742 0.75105 0.0
O196 O 0.5172 0.49164 0.90516 0.0
O197 O 0.52941 0.47907 0.75672 0.0
C198 C 0.52753 0.57325 0.73862 0.0
O199 O 0.46979 0.52388 0.93256 0.0
O200 O 0.49604 0.54997 0.9956 0.0
C201 C 0.59613 0.48142 0.56788 0.0
C202 C 0.62415 0.43764 0.53058 0.0
C203 C 0.6293 0.46014 0.48136 0.0
C204 C 0.61528 0.48183 0.49959 0.0
C205 C 0.59217 0.45968 0.62201 0.0
C206 C 0.60598 0.43795 0.60337 0.0
C207 C 0.57928 0.50303 0.57876 0.0
H208 H 0.40418 0.57923 0.13557 0.0
H209 H 0.43246 0.5435 0.11247 0.0
H210 H 0.4696 0.58321 0.88545 0.0
H211 H 0.44272 0.61934 0.91142 0.0
H212 H 0.64342 0.46068 0.42593 0.0
H213 H 0.61875 0.49862 0.45798 0.0
H214 H 0.57755 0.45914 0.67568 0.0
H215 H 0.60116 0.42101 0.64194 0.0
Tb216 Tb 0.0213 0.50228 0.82706 0.0
Eu217 Eu 0.03688 0.54194 0.6651 0.0
C218 C 0.03378 0.48282 0.62505 0.0
C219 C 0.07918 0.5175 0.80549 0.0
C220 C 0.97506 0.47507 0.97082 0.0
C221 C 0.93253 0.46372 0.92058 0.0
C222 C 0.958 0.45755 0.93142 0.0
C223 C 0.96563 0.49769 0.0082 0.0
C224 C 0.94037 0.50388 0.99661 0.0
C225 C 0.9239 0.48748 0.94881 0.0
C226 C 1.0021 0.47346 0.94659 0.0
O227 O 1.01048 0.53987 0.87748 0.0
O228 O 0.04208 0.5615 0.80586 0.0
O229 O 0.99428 0.54482 0.67402 0.0
O230 O 0.98687 0.50663 0.7425 0.0
C231 C 0.02539 0.55969 0.87386 0.0
O232 O 0.03468 0.57995 0.60755 0.0
O233 O 0.05544 0.55117 0.53192 0.0
O234 O 0.02722 0.505 0.59237 0.0
O235 O 0.03921 0.4802 0.71536 0.0
O236 O 0.06105 0.50898 0.86101 0.0
O237 O 0.07425 0.52763 0.72215 0.0
C238 C 0.97865 0.52665 0.69779 0.0
O239 O 1.00635 0.46666 0.85925 0.0
O240 O 1.01611 0.49274 0.97062 0.0
C241 C 0.07143 0.59238 0.52745 0.0
C242 C 0.11458 0.62198 0.49291 0.0
C243 C 0.09199 0.62649 0.4432 0.0
C244 C 0.0706 0.61168 0.4601 0.0
C245 C 0.09324 0.58902 0.58209 0.0
C246 C 0.11466 0.60362 0.56482 0.0
C247 C 0.05004 0.57507 0.53783 0.0
H248 H 0.91996 0.45058 0.88529 0.0
H249 H 0.96475 0.44003 0.90167 0.0
H250 H 0.97806 0.51164 0.03953 0.0
H251 H 0.93388 0.52195 0.02229 0.0
H252 H 0.09118 0.6407 0.38834 0.0
H253 H 0.05372 0.61472 0.41831 0.0
H254 H 0.09407 0.57433 0.6352 0.0
H255 H 0.13172 0.5993 0.60367 0.0
H256 H 0.2147 0.03446 0.37014 0.0
H257 H 0.17522 0.97223 0.24011 0.0
H258 H 0.17742 0.04313 0.46891 0.0
H259 H 0.13841 0.98064 0.33761 0.0
H260 H 0.06768 1.01403 0.45877 0.0
H261 H 0.1049 1.01091 0.35878 0.0
H262 H 0.1526 0.02414 0.60218 0.0
H263 H 0.11514 0.02755 0.70288 0.0
C264 C 0.19802 0.02282 0.36194 0.0
C265 C 0.19785 1.00275 0.29676 0.0
C266 C 0.17672 0.02763 0.41901 0.0
C267 C 0.15472 1.01268 0.41118 0.0
C268 C 0.1547 0.99287 0.34491 0.0
C269 C 0.17591 0.98796 0.28906 0.0
C270 C 0.08604 1.01647 0.49137 0.0
C271 C 0.08823 0.02089 0.58952 0.0
C272 C 0.10749 1.01455 0.43377 0.0
C273 C 0.13191 0.01704 0.47216 0.0
C274 C 0.13415 0.02228 0.56981 0.0
C275 C 0.11262 0.02409 0.62775 0.0
H276 H 0.56542 0.17008 0.22486 0.0
H277 H 0.51335 0.21339 0.393 0.0
H278 H 0.55624 0.13286 0.31978 0.0
H279 H 0.50433 0.17591 0.49004 0.0
H280 H 0.52596 0.10935 0.70353 0.0
H281 H 0.52916 0.1476 0.60725 0.0
H282 H 0.52026 0.10316 0.35306 0.0
H283 H 0.51691 0.06511 0.44836 0.0
C284 C 0.55176 0.17155 0.28169 0.0
C285 C 0.53996 0.19461 0.30083 0.0
C286 C 0.54646 0.15018 0.33607 0.0
C287 C 0.52951 0.15132 0.41255 0.0
C288 C 0.51754 0.17441 0.4318 0.0
C289 C 0.52253 0.19582 0.37585 0.0
C290 C 0.52445 0.10774 0.62716 0.0
C291 C 0.52129 0.08399 0.58405 0.0
C292 C 0.52613 0.12972 0.57201 0.0
C293 C 0.52508 0.12847 0.47233 0.0
C294 C 0.52136 0.10481 0.42954 0.0
C295 C 0.51935 0.08295 0.48449 0.0
H296 H 0.37577 0.57664 0.26473 0.0
H297 H 0.34448 0.50416 0.33655 0.0
H298 H 0.41271 0.56815 0.36172 0.0
H299 H 0.38158 0.49569 0.43683 0.0
H300 H 0.43787 0.50823 0.69433 0.0
H301 H 0.40161 0.51178 0.58789 0.0
H302 H 0.45024 0.5411 0.36869 0.0
H303 H 0.48646 0.53761 0.47486 0.0
C304 C 0.377 0.55865 0.30028 0.0
C305 C 0.35737 0.54093 0.29137 0.0
C306 C 0.39823 0.55378 0.35622 0.0
C307 C 0.40036 0.53114 0.40692 0.0
C308 C 0.38058 0.51335 0.39893 0.0
C309 C 0.35936 0.51813 0.34121 0.0
C310 C 0.44092 0.51526 0.62319 0.0
C311 C 0.46523 0.52274 0.59372 0.0
C312 C 0.42008 0.51714 0.56184 0.0
C313 C 0.42287 0.52682 0.46958 0.0
C314 C 0.44726 0.5338 0.43952 0.0
C315 C 0.46812 0.5317 0.50044 0.0
H316 H 0.98233 0.37122 0.22161 0.0
H317 H 0.04781 0.33466 0.33809 0.0
H318 H 0.99124 0.40857 0.31567 0.0
H319 H 0.0571 0.37253 0.43284 0.0
H320 H 0.04443 0.43358 0.66982 0.0
H321 H 0.04074 0.39641 0.56848 0.0
H322 H 0.01928 0.44365 0.33335 0.0
H323 H 0.02253 0.48069 0.4349 0.0
C324 C 0.9989 0.37131 0.26667 0.0
C325 C 1.01439 0.34997 0.27185 0.0
C326 C 1.00412 0.39287 0.32048 0.0
C327 C 0.025 0.39384 0.38203 0.0
C328 C 0.04075 0.3725 0.38679 0.0
C329 C 0.03557 0.35083 0.33197 0.0
C330 C 0.03912 0.43611 0.59627 0.0
C331 C 0.03362 0.46028 0.56108 0.0
C332 C 0.03715 0.41471 0.53782 0.0
C333 C 0.02952 0.41681 0.44244 0.0
C334 C 0.02478 0.4411 0.40668 0.0
C335 C 0.02679 0.46247 0.465 0.0
H336 H 0.8693 0.95014 0.25131 0.0
H337 H 0.84728 0.02807 0.24157 0.0
H338 H 0.90485 0.95897 0.14836 0.0
H339 H 0.88376 0.03736 0.13951 0.0
H340 H 0.93662 0.03763 0.87459 0.0
H341 H 0.90109 0.03157 0.98295 0.0
H342 H 0.94481 0.97763 0.14157 0.0
H343 H 0.97971 0.98307 0.03188 0.0
C344 C 0.87228 0.96934 0.22792 0.0
C345 C 0.85546 0.98838 0.25508 0.0
C346 C 0.89288 0.97448 0.16906 0.0
C347 C 0.89758 0.99898 0.13547 0.0
C348 C 0.88074 0.01821 0.16301 0.0
C349 C 0.8599 1.01296 0.22216 0.0
C350 C 0.93862 0.02446 0.93261 0.0
C351 C 0.96105 1.01066 0.94359 0.0
C352 C 0.91825 0.02112 0.99544 0.0
C353 C 0.91976 1.00393 0.07129 0.0
C354 C 0.9425 0.99062 0.08319 0.0
C355 C 0.96271 0.99384 0.02024 0.0
H356 H 0.51446 0.8151 0.99651 0.0
H357 H 0.52776 0.84849 0.27104 0.0
H358 H 0.51813 0.85596 0.92213 0.0
H359 H 0.53246 0.88998 0.19573 0.0
H360 H 0.51211 0.96348 0.02995 0.0
H361 H 0.51104 0.92355 0.11594 0.0
H362 H 0.54662 0.88696 0.87743 0.0
H363 H 0.54661 0.92639 0.7908 0.0
C364 C 0.51853 0.83126 0.04101 0.0
C365 C 0.52095 0.82846 0.1396 0.0
C366 C 0.52085 0.85482 0.9981 0.0
C367 C 0.52598 0.87655 0.05211 0.0
C368 C 0.52839 0.87381 0.15146 0.0
C369 C 0.52587 0.85 0.19479 0.0
C370 C 0.51974 0.94689 0.99605 0.0
C371 C 0.52907 0.94816 0.90261 0.0
C372 C 0.51929 0.92394 0.04575 0.0
C373 C 0.52836 0.90167 1.00363 0.0
C374 C 0.53872 0.90336 0.91174 0.0
C375 C 0.53889 0.92613 0.86189 0.0
H376 H 0.69758 0.50776 0.29295 0.0
H377 H 0.67896 0.58662 0.29423 0.0
H378 H 0.66013 0.49902 0.19496 0.0
H379 H 0.64196 0.57812 0.19681 0.0
H380 H 0.56578 0.55424 0.08343 0.0
H381 H 0.60056 0.5589 0.19558 0.0
H382 H 0.64486 0.50663 0.03165 0.0
H383 H 0.60993 0.50171 0.91983 0.0
C384 C 0.68534 0.52316 0.27345 0.0
C385 C 0.69119 0.5479 0.3018 0.0
C386 C 0.66397 0.51822 0.21655 0.0
C387 C 0.64786 0.53786 0.18758 0.0
C388 C 0.65356 0.56243 0.21839 0.0
C389 C 0.6749 0.56734 0.27414 0.0
C390 C 0.58286 0.54361 0.07127 0.0
C391 C 0.58495 0.52773 0.99168 0.0
C392 C 0.60292 0.54636 0.13565 0.0
C393 C 0.62573 0.53326 0.12286 0.0
C394 C 0.62759 0.51686 0.04465 0.0
C395 C 0.60754 0.51419 0.97992 0.0
H396 H 0.98257 0.65822 0.34706 0.0
H397 H 0.03268 0.70425 0.18023 0.0
H398 H 0.99022 0.62261 0.24286 0.0
H399 H 0.03925 0.66912 0.07091 0.0
H400 H 0.05981 0.59662 0.91741 0.0
H401 H 0.05596 0.63072 0.03198 0.0
H402 H 0.98056 0.60516 0.10026 0.0
H403 H 0.98525 0.57027 0.98997 0.0
C404 C 0.99532 0.66067 0.28774 0.0
C405 C 1.00712 0.68401 0.27236 0.0
C406 C 0.99948 0.64026 0.22668 0.0
C407 C 1.01507 0.64267 0.14618 0.0
C408 C 0.02734 0.66608 0.13213 0.0
C409 C 0.02357 0.6864 0.19484 0.0
C410 C 0.04245 0.59824 0.95735 0.0
C411 C 0.02286 0.58058 0.94435 0.0
C412 C 0.04012 0.61803 0.02298 0.0
C413 C 1.01791 0.62113 0.07678 0.0
C414 C 0.99827 0.60341 0.06284 0.0
C415 C 1.00082 0.58335 0.99855 0.0
H416 H 0.92877 0.23597 0.14745 0.0
H417 H 0.97248 0.24621 0.40267 0.0
H418 H 0.90202 0.20536 0.22868 0.0
H419 H 0.94667 0.21509 0.48297 0.0
H420 H 0.91473 0.14796 0.59978 0.0
H421 H 0.91157 0.19121 0.54282 0.0
H422 H 0.91863 0.16444 0.25441 0.0
H423 H 0.92195 0.12193 0.31055 0.0
C424 C 0.93187 0.23249 0.22226 0.0
C425 C 0.95293 0.24291 0.26851 0.0
C426 C 0.91671 0.21484 0.26866 0.0
C427 C 0.92282 0.20699 0.3611 0.0
C428 C 0.94142 0.22048 0.41163 0.0
C429 C 0.95634 0.23838 0.36557 0.0
C430 C 0.91492 0.15134 0.52405 0.0
C431 C 0.91935 0.13151 0.45997 0.0
C432 C 0.91299 0.17611 0.49146 0.0
C433 C 0.91541 0.18145 0.39422 0.0
C434 C 0.91652 0.16123 0.32981 0.0
C435 C 0.91851 0.13659 0.36228 0.0
H436 H 0.31094 0.92044 0.12349 0.0
H437 H 0.3018 0.95602 0.39617 0.0
H438 H 0.34228 0.8921 0.19088 0.0
H439 H 0.3336 0.92863 0.46299 0.0
H440 H 0.40235 0.89694 0.56034 0.0
H441 H 0.35881 0.89281 0.50568 0.0
H442 H 0.38313 0.90918 0.21975 0.0
H443 H 0.42584 0.91364 0.27362 0.0
C444 C 0.31481 0.92135 0.1989 0.0
C445 C 0.30452 0.94071 0.25436 0.0
C446 C 0.33286 0.90526 0.23746 0.0
C447 C 0.34125 0.90877 0.33129 0.0
C448 C 0.32783 0.92541 0.39028 0.0
C449 C 0.30953 0.94125 0.35197 0.0
C450 C 0.39842 0.89896 0.48535 0.0
C451 C 0.41754 0.90653 0.42209 0.0
C452 C 0.37347 0.89646 0.45401 0.0
C453 C 0.36728 0.90134 0.35883 0.0
C454 C 0.38699 0.90521 0.29364 0.0
C455 C 0.41179 0.90784 0.3249 0.0
H456 H 0.58281 0.29755 0.43169 0.0
H457 H 0.62721 0.30896 0.17927 0.0
H458 H 0.60768 0.32907 0.5143 0.0
H459 H 0.65299 0.34007 0.26285 0.0
H460 H 0.63183 0.42306 0.34747 0.0
H461 H 0.63557 0.38069 0.28957 0.0
H462 H 0.64226 0.35333 0.57701 0.0
H463 H 0.63867 0.39643 0.63578 0.0
C464 C 0.59891 0.30574 0.39568 0.0
C465 C 0.60274 0.30138 0.29866 0.0
C466 C 0.61329 0.32389 0.44309 0.0
C467 C 0.63178 0.33782 0.39405 0.0
C468 C 0.63836 0.33023 0.30169 0.0
C469 C 0.62375 0.3123 0.25396 0.0
C470 C 0.63527 0.40831 0.39867 0.0
C471 C 0.63425 0.41317 0.49656 0.0
C472 C 0.63749 0.38375 0.36518 0.0
C473 C 0.63868 0.3634 0.42871 0.0
C474 C 0.64081 0.36853 0.52628 0.0
C475 C 0.63864 0.39322 0.55991 0.0
H476 H 0.25342 0.58071 0.40551 0.0
H477 H 0.24335 0.6228 0.14726 0.0
H478 H 0.22243 0.60678 0.48414 0.0
H479 H 0.21289 0.6499 0.22686 0.0
H480 H 0.12924 0.63002 0.31035 0.0
H481 H 0.1718 0.63388 0.25391 0.0
H482 H 0.19868 0.64168 0.54214 0.0
H483 H 0.15537 0.63783 0.59937 0.0
C484 C 0.24562 0.59654 0.36726 0.0
C485 C 0.25016 0.59941 0.26996 0.0
C486 C 0.22781 0.61164 0.41239 0.0
C487 C 0.21442 0.62991 0.36072 0.0
C488 C 0.22228 0.63546 0.26774 0.0
C489 C 0.23981 0.62009 0.22223 0.0
C490 C 0.14393 0.63375 0.36195 0.0
C491 C 0.1389 0.63283 0.45967 0.0
C492 C 0.16861 0.63606 0.32931 0.0
C493 C 0.18889 0.63742 0.39363 0.0
C494 C 0.18354 0.63999 0.49085 0.0
C495 C 0.15874 0.6377 0.52362 0.0
H496 H 0.98706 0.78194 0.11924 0.0
H497 H 0.9308 0.81251 0.30689 0.0
H498 H 0.98699 0.82036 0.0284 0.0
H499 H 0.93059 0.85131 0.21527 0.0
H500 H 0.99807 0.91079 0.23707 0.0
H501 H 0.97047 0.8746 0.25258 0.0
H502 H 0.97596 0.86062 0.95127 0.0
H503 H 1.00347 0.8974 0.93532 0.0
C504 C 0.97322 0.79612 0.13705 0.0
C505 C 0.96013 0.79501 0.22353 0.0
C506 C 0.97331 0.81841 0.08496 0.0
C507 C 0.95995 0.83938 0.11865 0.0
C508 C 0.94185 0.8357 0.19018 0.0
C509 C 0.94174 0.81333 0.24206 0.0
C510 C 0.99287 0.90048 0.17361 0.0
C511 C 1.00341 0.90667 0.08542 0.0
C512 C 0.97676 0.87982 0.18219 0.0
C513 C 0.97084 0.86478 0.10283 0.0
C514 C 0.98017 0.87184 0.01356 0.0
C515 C 0.99623 0.89264 1.00487 0.0
H516 H 0.72446 0.9179 0.32742 0.0
H517 H 0.75318 0.97165 0.12535 0.0
H518 H 0.68587 0.9137 0.23464 0.0
H519 H 0.71485 0.96815 0.03465 0.0
H520 H 0.64026 0.98394 0.93839 0.0
H521 H 0.67685 0.95675 0.95912 0.0
H522 H 0.65772 0.9481 0.2557 0.0
H523 H 0.62101 0.97446 0.23348 0.0
C524 C 0.72316 0.92764 0.26015 0.0
C525 C 0.74112 0.94605 0.23588 0.0
C526 C 0.70093 0.92548 0.2075 0.0
C527 C 0.6966 0.94184 0.1309 0.0
C528 C 0.71712 0.95571 0.09471 0.0
C529 C 0.73938 0.95768 0.14689 0.0
C530 C 0.64374 0.97571 1.00741 0.0
C531 C 0.62835 0.98179 0.08516 0.0
C532 C 0.66455 0.96001 0.01914 0.0
C533 C 0.67058 0.95048 0.10928 0.0
C534 C 0.65368 0.95475 0.18479 0.0
C535 C 0.63272 0.97018 0.17267 0.0
H536 H 0.4199 0.73281 0.3652 0.0
H537 H 0.46427 0.74019 0.11039 0.0
H538 H 0.39288 0.70189 0.2863 0.0
H539 H 0.43796 0.70904 0.03237 0.0
H540 H 0.40505 0.64251 0.91855 0.0
H541 H 0.40177 0.68593 0.97369 0.0
H542 H 0.40893 0.66034 0.26319 0.0
H543 H 0.41258 0.61768 0.20906 0.0
C544 C 0.42319 0.72858 0.29104 0.0
C545 C 0.44452 0.73831 0.24452 0.0
C546 C 0.40779 0.71083 0.24592 0.0
C547 C 0.41379 0.70229 0.15422 0.0
C548 C 0.43275 0.71501 0.10314 0.0
C549 C 0.44798 0.73292 0.148 0.0
C550 C 0.40521 0.64614 0.99415 0.0
C551 C 0.41005 0.62662 0.05898 0.0
C552 C 0.4032 0.67103 0.02569 0.0
C553 C 0.4058 0.67675 0.12261 0.0
C554 C 0.40681 0.6568 0.18793 0.0
C555 C 0.40897 0.63205 0.15652 0.0
H556 H 0.7757 0.51405 0.11463 0.0
H557 H 0.82834 0.57408 0.17569 0.0
H558 H 0.80036 0.50235 0.97572 0.0
H559 H 0.85332 0.56215 0.03937 0.0
H560 H 0.90833 0.53122 0.86792 0.0
H561 H 0.86648 0.5497 0.88294 0.0
H562 H 0.83926 0.4804 1.00737 0.0
H563 H 0.88072 0.46196 0.98951 0.0
C564 C 0.79189 0.5255 0.09578 0.0
C565 C 0.80074 0.54438 0.15738 0.0
C566 C 0.80607 0.51872 0.01641 0.0
C567 C 0.82931 0.53062 0.99862 0.0
C568 C 0.83567 0.55231 0.05114 0.0
C569 C 0.82151 0.55907 0.1302 0.0
C570 C 0.89305 0.51973 0.8952 0.0
C571 C 0.89775 0.49552 0.93083 0.0
C572 C 0.8691 0.53025 0.90333 0.0
C573 C 0.84976 0.51688 0.94932 0.0
C574 C 0.85368 0.49137 0.97187 0.0
C575 C 0.87756 0.48076 0.96258 0.0
H576 H 0.98837 0.22279 0.94045 0.0
H577 H 0.05068 0.21103 0.1311 0.0
H578 H 0.99642 0.18248 0.86482 0.0
H579 H 0.05949 0.17066 0.05363 0.0
H580 H 0.04188 0.08645 0.99328 0.0
H581 H 0.04156 0.12971 0.05031 0.0
H582 H 0.02033 0.15521 0.77077 0.0
H583 H 0.01985 0.11182 0.71468 0.0
C584 C 1.00454 0.21199 0.96346 0.0
C585 C 0.01909 0.22033 0.04098 0.0
C586 C 1.00915 0.18869 0.92024 0.0
C587 C 0.02849 0.17283 0.95323 0.0
C588 C 0.04413 0.18198 0.02698 0.0
C589 C 0.03946 0.20541 0.07037 0.0
C590 C 0.03732 0.10126 0.94358 0.0
C591 C 0.03073 0.09539 0.84923 0.0
C592 C 0.03733 0.12627 0.97628 0.0
C593 C 0.03085 0.14632 0.91569 0.0
C594 C 0.02501 0.14045 0.82049 0.0
C595 C 0.02488 0.11544 0.78794 0.0
H596 H 0.31355 0.99731 0.92444 0.0
H597 H 0.34545 0.02953 0.17802 0.0
H598 H 0.35293 1.0055 0.83939 0.0
H599 H 0.38515 0.03714 0.09495 0.0
H600 H 0.45301 0.05673 0.91319 0.0
H601 H 0.41045 0.05745 0.97902 0.0
H602 H 0.39353 0.98739 0.83644 0.0
H603 H 0.43572 0.98706 0.76884 0.0
C604 C 0.3287 1.00708 0.96088 0.0
C605 C 0.32614 1.01342 0.05716 0.0
C606 C 0.35154 1.0113 0.91283 0.0
C607 C 0.37264 0.02166 0.96017 0.0
C608 C 0.36945 0.02939 0.05518 0.0
C609 C 0.34656 0.02524 0.10299 0.0
C610 C 0.44015 0.04158 0.89507 0.0
C611 C 0.44802 0.02181 0.83554 0.0
C612 C 0.41566 0.04192 0.93344 0.0
C613 C 0.39824 0.02248 0.91362 0.0
C614 C 0.40603 1.00298 0.85248 0.0
C615 C 0.43046 1.00267 0.81402 0.0
H616 H 0.56865 0.32157 0.97041 0.0
H617 H 0.50426 0.33076 0.15308 0.0
H618 H 0.55945 0.36144 0.89351 0.0
H619 H 0.49441 0.37067 0.0745 0.0
H620 H 0.51058 0.45538 0.02047 0.0
H621 H 0.51211 0.41212 0.07622 0.0
H622 H 0.5342 0.38751 0.79637 0.0
H623 H 0.53334 0.43099 0.74121 0.0
C624 C 0.55188 0.33172 0.9915 0.0
C625 C 0.53708 0.3229 0.06734 0.0
C626 C 0.54659 0.35471 0.9475 0.0
C627 C 0.52633 0.36969 0.9782 0.0
C628 C 0.51046 0.35997 0.04987 0.0
C629 C 0.51577 0.33684 0.0939 0.0
C630 C 0.51562 0.44077 0.97042 0.0
C631 C 0.52199 0.44689 0.87625 0.0
C632 C 0.51627 0.41579 1.00235 0.0
C633 C 0.52327 0.39604 0.94116 0.0
C634 C 0.52903 0.40211 0.84623 0.0
C635 C 0.52842 0.42713 0.81431 0.0
H636 H 0.22101 0.50011 0.12883 0.0
H637 H 0.2319 0.56346 0.94317 0.0
H638 H 0.18129 0.49 0.04757 0.0
H639 H 0.19218 0.5542 0.86415 0.0
H640 H 0.12264 0.5294 0.70802 0.0
H641 H 0.16587 0.53028 0.76684 0.0
H642 H 0.13977 0.50571 0.04186 0.0
H643 H 0.09674 0.50394 0.98183 0.0
C644 C 0.21536 0.51134 0.06847 0.0
C645 C 0.22982 0.53238 0.04168 0.0
C646 C 0.19227 0.50591 0.0229 0.0
C647 C 0.18299 0.52145 0.94955 0.0
C648 C 0.19847 0.5415 0.91913 0.0
C649 C 0.22144 0.54684 0.9644 0.0
C650 C 0.12611 0.52393 0.78082 0.0
C651 C 0.10596 0.51668 0.83993 0.0
C652 C 0.15104 0.52457 0.81501 0.0
C653 C 0.15669 0.51822 0.90984 0.0
C654 C 0.13654 0.51038 0.96817 0.0
C655 C 0.11165 0.50955 0.93374 0.0
H656 H 0.99752 0.8054 0.62017 0.0
H657 H 0.03189 0.83243 0.36292 0.0
H658 H 1.0034 0.84713 0.6931 0.0
H659 H 0.03729 0.87404 0.43422 0.0
H660 H 1.00261 0.94957 0.53591 0.0
H661 H 1.00325 0.90614 0.47879 0.0
H662 H 0.03636 0.88219 0.74305 0.0
H663 H 0.03629 0.92591 0.79965 0.0
C664 C 1.00737 0.8199 0.58082 0.0
C665 C 1.01485 0.81539 0.48661 0.0
C666 C 1.01045 0.84392 0.62205 0.0
C667 C 0.02049 0.86409 0.56905 0.0
C668 C 0.02926 0.85908 0.47682 0.0
C669 C 0.02659 0.83508 0.43646 0.0
C670 C 1.01001 0.9351 0.5821 0.0
C671 C 0.01945 0.94137 0.67243 0.0
C672 C 1.01054 0.91017 0.54904 0.0
C673 C 0.02006 0.89061 0.60594 0.0
C674 C 0.02895 0.89673 0.69728 0.0
C675 C 0.02895 0.92183 0.72958 0.0
H676 H 0.71951 0.03157 0.40878 0.0
H677 H 0.7302 0.97162 0.60948 0.0
H678 H 0.67795 0.04015 0.47686 0.0
H679 H 0.6887 0.98 0.67795 0.0
H680 H 0.61421 1.00863 0.80632 0.0
H681 H 0.65886 1.00773 0.76203 0.0
H682 H 0.63823 1.01668 0.46779 0.0
H683 H 0.59382 0.0176 0.51182 0.0
C684 C 0.7135 0.02105 0.4706 0.0
C685 C 0.72847 1.00134 0.50523 0.0
C686 C 0.68941 0.02558 0.50846 0.0
C687 C 0.67963 1.01051 0.58218 0.0
C688 C 0.69551 0.99212 0.62179 0.0
C689 C 0.7195 0.98747 0.58327 0.0
C690 C 0.61919 1.01047 0.73216 0.0
C691 C 0.60023 1.01306 0.66273 0.0
C692 C 0.64486 1.00992 0.70671 0.0
C693 C 0.65237 1.01232 0.6112 0.0
C694 C 0.63337 1.01523 0.54217 0.0
C695 C 0.60776 1.01551 0.56744 0.0
H696 H 0.47284 0.71944 0.56926 0.0
H697 H 0.54481 0.71635 0.42811 0.0
H698 H 0.4823 0.68107 0.65351 0.0
H699 H 0.55541 0.67846 0.51787 0.0
H700 H 0.5505 0.59345 0.58188 0.0
H701 H 0.54694 0.63598 0.51991 0.0
H702 H 0.50154 0.65662 0.76241 0.0
H703 H 0.50386 0.61361 0.82031 0.0
C704 C 0.49117 0.71096 0.5588 0.0
C705 C 0.50793 0.72093 0.49103 0.0
C706 C 0.49675 0.68879 0.60781 0.0
C707 C 0.51958 0.67593 0.59232 0.0
C708 C 0.53731 0.68717 0.53033 0.0
C709 C 0.53151 0.70931 0.48005 0.0
C710 C 0.53987 0.60714 0.6222 0.0
C711 C 0.52725 0.59995 0.70566 0.0
C712 C 0.53796 0.63178 0.58696 0.0
C713 C 0.52375 0.65021 0.63504 0.0
C714 C 0.51208 0.64312 0.72108 0.0
C715 C 0.51354 0.61835 0.75508 0.0
H716 H 0.82484 0.57343 0.53802 0.0
H717 H 0.82985 0.49542 0.45853 0.0
H718 H 0.86604 0.57076 0.61648 0.0
H719 H 0.87113 0.4926 0.53512 0.0
H720 H 0.95345 0.56594 0.6134 0.0
H721 H 0.90927 0.56795 0.56564 0.0
H722 H 0.89701 0.49317 0.67579 0.0
H723 H 0.94129 0.49106 0.72258 0.0
C724 C 0.83436 0.55545 0.54042 0.0
C725 C 0.82374 0.53446 0.49431 0.0
C726 C 0.85825 0.55399 0.58383 0.0
C727 C 0.87232 0.53151 0.58166 0.0
C728 C 0.86097 0.51018 0.53965 0.0
C729 C 0.83714 0.51169 0.49613 0.0
C730 C 0.94137 0.54992 0.62782 0.0
C731 C 0.95123 0.52827 0.67141 0.0
C732 C 0.91583 0.55115 0.60105 0.0
C733 C 0.89925 0.53072 0.61649 0.0
C734 C 0.90908 0.50918 0.66126 0.0
C735 C 0.93459 0.50802 0.68861 0.0
loop_
_geom_bond_atom_site_label_1
_geom_bond_atom_site_label_2
_geom_bond_distance
_geom_bond_site_symmetry_2
_ccdc_geom_bond_type
H0 C5 0.930 . S
H1 C8 0.930 . S
H2 C10 0.930 . S
H3 C4 1.016 . S
C4 H3 1.016 . S
C4 N11 1.286 . S
C5 H0 0.930 . S
C5 C6 1.397 . S
C5 C7 1.361 . S
C6 C5 1.397 . S
C6 C10 1.390 . S
C7 C5 1.361 . S
C7 C8 1.393 . S
C7 N11 1.413 . S
C8 H1 0.930 . S
C8 C7 1.393 . S
C8 C9 1.399 . S
C9 C8 1.399 . S
C9 C10 1.381 . S
C10 H2 0.930 . S
C10 C6 1.390 . S
C10 C9 1.381 . S
N11 C4 1.286 . S
N11 C7 1.413 . S
H12 C17 0.930 . S
H13 C20 0.930 . S
H14 C22 0.930 . S
H15 C16 1.029 . S
C16 H15 1.029 . S
C16 N23 1.268 1_655 S
C17 H12 0.930 . S
C17 C18 1.397 . S
C17 C19 1.361 . S
C18 C17 1.397 . S
C18 C22 1.390 1_455 S
C19 C17 1.361 . S
C19 C20 1.393 . S
C19 N23 1.413 . S
C20 H13 0.930 . S
C20 C19 1.393 . S
C20 C21 1.402 . S
C21 C20 1.402 . S
C21 C22 1.379 1_455 S
C22 H14 0.930 . S
C22 C18 1.390 1_655 S
C22 C21 1.379 1_655 S
N23 C16 1.268 1_455 S
N23 C19 1.413 . S
H24 C29 0.930 . S
H25 C32 0.930 . S
H26 C34 0.930 . S
H27 C28 1.030 . S
C28 H27 1.030 . S
C28 N35 1.268 1_565 S
C29 H24 0.930 . S
C29 C30 1.397 . S
C29 C31 1.361 . S
C30 C29 1.397 . S
C30 C34 1.390 1_545 S
C31 C29 1.361 . S
C31 C32 1.393 . S
C31 N35 1.413 . S
C32 H25 0.930 . S
C32 C31 1.393 . S
C32 C33 1.402 . S
C33 C32 1.402 . S
C33 C34 1.379 1_545 S
C34 H26 0.930 . S
C34 C30 1.390 1_565 S
C34 C33 1.379 1_565 S
N35 C28 1.268 1_545 S
N35 C31 1.413 . S
H36 C41 0.930 . S
H37 C44 0.930 . S
H38 C46 0.930 . S
H39 C40 1.016 . S
C40 H39 1.016 . S
C40 N47 1.286 . S
C41 H36 0.930 . S
C41 C42 1.397 . S
C41 C43 1.361 . S
C42 C41 1.397 . S
C42 C46 1.390 . S
C43 C41 1.361 . S
C43 C44 1.393 . S
C43 N47 1.413 . S
C44 H37 0.930 . S
C44 C43 1.393 . S
C44 C45 1.399 . S
C45 C44 1.399 . S
C45 C46 1.381 . S
C46 H38 0.930 . S
C46 C42 1.390 . S
C46 C45 1.381 . S
N47 C40 1.286 . S
N47 C43 1.413 . S
H48 C53 0.930 . S
H49 C56 0.930 . S
H50 C58 0.930 . S
H51 C52 1.016 . S
C52 H51 1.016 . S
C52 N59 1.286 . S
C53 H48 0.930 . S
C53 C54 1.397 . S
C53 C55 1.361 1_556 S
C54 C53 1.397 . S
C54 C58 1.390 1_556 S
C55 C53 1.361 1_554 S
C55 C56 1.393 . S
C55 N59 1.413 . S
C56 H49 0.930 . S
C56 C55 1.393 . S
C56 C57 1.399 . S
C57 C56 1.399 . S
C57 C58 1.381 . S
C58 H50 0.930 . S
C58 C54 1.390 1_554 S
C58 C57 1.381 . S
N59 C52 1.286 . S
N59 C55 1.413 . S
H60 C65 0.930 . S
H61 C68 0.930 . S
H62 C70 0.930 . S
H63 C64 1.026 . S
C64 H63 1.026 . S
C64 N71 1.273 1_655 S
C65 H60 0.930 . S
C65 C66 1.397 . S
C65 C67 1.361 1_556 S
C66 C65 1.397 . S
C66 C70 1.390 1_456 S
C67 C65 1.361 1_554 S
C67 C68 1.393 . S
C67 N71 1.413 . S
C68 H61 0.930 . S
C68 C67 1.393 . S
C68 C69 1.404 . S
C69 C68 1.404 . S
C69 C70 1.378 1_455 S
C70 H62 0.930 . S
C70 C66 1.390 1_654 S
C70 C69 1.378 1_655 S
N71 C64 1.273 1_455 S
N71 C67 1.413 . S
H72 C77 0.930 . S
H73 C80 0.930 . S
H74 C82 0.930 . S
H75 C76 1.025 . S
C76 H75 1.025 . S
C76 N83 1.273 1_565 S
C77 H72 0.930 . S
C77 C78 1.397 . S
C77 C79 1.361 1_556 S
C78 C77 1.397 . S
C78 C82 1.390 1_546 S
C79 C77 1.361 1_554 S
C79 C80 1.393 . S
C79 N83 1.413 . S
C80 H73 0.930 . S
C80 C79 1.393 . S
C80 C81 1.404 . S
C81 C80 1.404 . S
C81 C82 1.378 1_545 S
C82 H74 0.930 . S
C82 C78 1.390 1_564 S
C82 C81 1.378 1_565 S
N83 C76 1.273 1_545 S
N83 C79 1.413 . S
H84 C89 0.930 . S
H85 C92 0.930 . S
H86 C94 0.930 . S
H87 C88 1.016 . S
C88 H87 1.016 . S
C88 N95 1.286 . S
C89 H84 0.930 . S
C89 C90 1.397 . S
C89 C91 1.361 1_556 S
C90 C89 1.397 . S
C90 C94 1.390 1_556 S
C91 C89 1.361 1_554 S
C91 C92 1.393 . S
C91 N95 1.413 . S
C92 H85 0.930 . S
C92 C91 1.393 . S
C92 C93 1.399 . S
C93 C92 1.399 . S
C93 C94 1.381 . S
C94 H86 0.930 . S
C94 C90 1.390 1_554 S
C94 C93 1.381 . S
N95 C88 1.286 . S
N95 C91 1.413 . S
Tb96 C106 2.825 . S
Tb96 O107 2.347 1_455 S
Tb96 O110 2.366 . S
Tb96 O115 2.418 . S
Tb96 O116 2.384 1_565 S
Tb96 O119 2.479 . S
Tb96 O120 2.471 . S
Eu97 O108 2.418 . S
Eu97 O109 2.384 1_545 S
Eu97 O112 2.479 . S
Eu97 O113 2.471 . S
Eu97 O114 2.347 1_655 S
Eu97 O117 2.366 . S
Eu97 C127 2.825 . S
C98 O114 1.259 1_565 S
C98 O115 1.265 . S
C99 O116 1.255 . S
C99 O117 1.265 1_455 S
C100 C102 1.380 . S
C100 C103 1.374 . S
C100 C106 1.507 1_554 S
C101 C102 1.384 . S
C101 C105 1.387 . S
C101 H128 0.930 . S
C102 C100 1.380 . S
C102 C101 1.384 . S
C102 H129 0.931 . S
C103 C100 1.374 . S
C103 C104 1.390 . S
C103 H130 0.930 1_455 S
C104 C103 1.390 . S
C104 C105 1.391 . S
C104 H131 0.930 1_455 S
C105 C101 1.387 . S
C105 C104 1.391 . S
C106 Tb96 2.825 . S
C106 C100 1.507 1_556 S
C106 O119 1.238 . S
C106 O120 1.247 . S
O107 Tb96 2.347 1_655 S
O107 C111 1.259 1_565 S
O108 Eu97 2.418 . S
O108 C111 1.265 . S
O109 Eu97 2.384 1_565 S
O109 C118 1.255 . S
O110 Tb96 2.366 . S
O110 C118 1.265 1_455 S
C111 O107 1.259 1_545 S
C111 O108 1.265 . S
O112 Eu97 2.479 . S
O112 C127 1.238 . S
O113 Eu97 2.471 . S
O113 C127 1.247 . S
O114 Eu97 2.347 1_455 S
O114 C98 1.259 1_545 S
O115 Tb96 2.418 . S
O115 C98 1.265 . S
O116 Tb96 2.384 1_545 S
O116 C99 1.255 . S
O117 Eu97 2.366 . S
O117 C99 1.265 1_655 S
C118 O109 1.255 . S
C118 O110 1.265 1_655 S
O119 Tb96 2.479 . S
O119 C106 1.238 . S
O120 Tb96 2.471 . S
O120 C106 1.247 . S
C121 C124 1.380 . S
C121 C125 1.374 . S
C121 C127 1.507 . S
C122 C123 1.387 . S
C122 C126 1.391 . S
C123 C122 1.387 . S
C123 C124 1.384 . S
C123 H132 0.930 . S
C124 C121 1.380 . S
C124 C123 1.384 . S
C124 H133 0.931 . S
C125 C121 1.374 . S
C125 C126 1.390 . S
C125 H134 0.930 1_655 S
C126 C122 1.391 . S
C126 C125 1.390 . S
C126 H135 0.930 1_655 S
C127 Eu97 2.825 . S
C127 O112 1.238 . S
C127 O113 1.247 . S
C127 C121 1.507 . S
H128 C101 0.930 . S
H129 C102 0.931 . S
H130 C103 0.930 1_655 S
H131 C104 0.930 1_655 S
H132 C123 0.930 . S
H133 C124 0.931 . S
H134 C125 0.930 1_455 S
H135 C126 0.930 1_455 S
Tb136 C146 2.825 . S
Tb136 O147 2.347 1_545 S
Tb136 O150 2.366 . S
Tb136 O155 2.418 . S
Tb136 O156 2.384 . S
Tb136 O159 2.479 . S
Tb136 O160 2.471 . S
Eu137 O148 2.418 . S
Eu137 O149 2.384 . S
Eu137 O152 2.479 . S
Eu137 O153 2.471 . S
Eu137 O154 2.347 1_565 S
Eu137 O157 2.366 . S
Eu137 C167 2.825 . S
C138 O154 1.259 . S
C138 O155 1.265 . S
C139 O156 1.255 . S
C139 O157 1.265 1_545 S
C140 C142 1.380 . S
C140 C143 1.374 . S
C140 C146 1.507 1_554 S
C141 C142 1.384 . S
C141 C145 1.387 . S
C141 H168 0.930 . S
C142 C140 1.380 . S
C142 C141 1.384 . S
C142 H169 0.931 . S
C143 C140 1.374 . S
C143 C144 1.390 . S
C143 H170 0.930 1_545 S
C144 C143 1.390 . S
C144 C145 1.391 . S
C144 H171 0.930 1_545 S
C145 C141 1.387 . S
C145 C144 1.391 . S
C146 Tb136 2.825 . S
C146 C140 1.507 1_556 S
C146 O159 1.238 . S
C146 O160 1.247 . S
O147 Tb136 2.347 1_565 S
O147 C151 1.259 . S
O148 Eu137 2.418 . S
O148 C151 1.265 . S
O149 Eu137 2.384 . S
O149 C158 1.255 . S
O150 Tb136 2.366 . S
O150 C158 1.265 1_545 S
C151 O147 1.259 . S
C151 O148 1.265 . S
O152 Eu137 2.479 . S
O152 C167 1.238 . S
O153 Eu137 2.471 . S
O153 C167 1.247 . S
O154 Eu137 2.347 1_545 S
O154 C138 1.259 . S
O155 Tb136 2.418 . S
O155 C138 1.265 . S
O156 Tb136 2.384 . S
O156 C139 1.255 . S
O157 Eu137 2.366 . S
O157 C139 1.265 1_565 S
C158 O149 1.255 . S
C158 O150 1.265 1_565 S
O159 Tb136 2.479 . S
O159 C146 1.238 . S
O160 Tb136 2.471 . S
O160 C146 1.247 . S
C161 C164 1.380 . S
C161 C165 1.374 . S
C161 C167 1.507 . S
C162 C163 1.387 . S
C162 C166 1.391 . S
C163 C162 1.387 . S
C163 C164 1.384 . S
C163 H172 0.930 . S
C164 C161 1.380 . S
C164 C163 1.384 . S
C164 H173 0.931 . S
C165 C161 1.374 . S
C165 C166 1.390 . S
C165 H174 0.930 1_565 S
C166 C162 1.391 . S
C166 C165 1.390 . S
C166 H175 0.930 1_565 S
C167 Eu137 2.825 . S
C167 O152 1.238 . S
C167 O153 1.247 . S
C167 C161 1.507 . S
H168 C141 0.930 . S
H169 C142 0.931 . S
H170 C143 0.930 1_565 S
H171 C144 0.930 1_565 S
H172 C163 0.930 . S
H173 C164 0.931 . S
H174 C165 0.930 1_545 S
H175 C166 0.930 1_545 S
Tb176 C186 2.825 . S
Tb176 O187 2.347 . S
Tb176 O190 2.366 . S
Tb176 O195 2.418 . S
Tb176 O196 2.384 . S
Tb176 O199 2.479 . S
Tb176 O200 2.471 . S
Eu177 O188 2.418 . S
Eu177 O189 2.384 . S
Eu177 O192 2.479 . S
Eu177 O193 2.471 . S
Eu177 O194 2.347 . S
Eu177 O197 2.366 . S
Eu177 C207 2.825 . S
C178 O194 1.259 . S
C178 O195 1.265 . S
C179 O196 1.255 . S
C179 O197 1.265 . S
C180 C182 1.380 . S
C180 C183 1.374 . S
C180 C186 1.507 1_554 S
C181 C182 1.384 . S
C181 C185 1.387 . S
C181 H208 0.930 . S
C182 C180 1.380 . S
C182 C181 1.384 . S
C182 H209 0.931 . S
C183 C180 1.374 . S
C183 C184 1.390 . S
C183 H210 0.930 . S
C184 C183 1.390 . S
C184 C185 1.391 . S
C184 H211 0.930 . S
C185 C181 1.387 . S
C185 C184 1.391 . S
C186 Tb176 2.825 . S
C186 C180 1.507 1_556 S
C186 O199 1.238 . S
C186 O200 1.247 . S
O187 Tb176 2.347 . S
O187 C191 1.259 . S
O188 Eu177 2.418 . S
O188 C191 1.265 . S
O189 Eu177 2.384 . S
O189 C198 1.255 . S
O190 Tb176 2.366 . S
O190 C198 1.265 . S
C191 O187 1.259 . S
C191 O188 1.265 . S
O192 Eu177 2.479 . S
O192 C207 1.238 . S
O193 Eu177 2.471 . S
O193 C207 1.247 . S
O194 Eu177 2.347 . S
O194 C178 1.259 . S
O195 Tb176 2.418 . S
O195 C178 1.265 . S
O196 Tb176 2.384 . S
O196 C179 1.255 . S
O197 Eu177 2.366 . S
O197 C179 1.265 . S
C198 O189 1.255 . S
C198 O190 1.265 . S
O199 Tb176 2.479 . S
O199 C186 1.238 . S
O200 Tb176 2.471 . S
O200 C186 1.247 . S
C201 C204 1.380 . S
C201 C205 1.374 . S
C201 C207 1.507 . S
C202 C203 1.387 . S
C202 C206 1.391 . S
C203 C202 1.387 . S
C203 C204 1.384 . S
C203 H212 0.930 . S
C204 C201 1.380 . S
C204 C203 1.384 . S
C204 H213 0.931 . S
C205 C201 1.374 . S
C205 C206 1.390 . S
C205 H214 0.930 . S
C206 C202 1.391 . S
C206 C205 1.390 . S
C206 H215 0.930 . S
C207 Eu177 2.825 . S
C207 O192 1.238 . S
C207 O193 1.247 . S
C207 C201 1.507 . S
H208 C181 0.930 . S
H209 C182 0.931 . S
H210 C183 0.930 . S
H211 C184 0.930 . S
H212 C203 0.930 . S
H213 C204 0.931 . S
H214 C205 0.930 . S
H215 C206 0.930 . S
Tb216 C226 2.825 . S
Tb216 O227 2.347 . S
Tb216 O230 2.366 . S
Tb216 O235 2.418 . S
Tb216 O236 2.384 1_655 S
Tb216 O239 2.479 . S
Tb216 O240 2.471 . S
Eu217 O228 2.418 . S
Eu217 O229 2.384 1_455 S
Eu217 O232 2.479 . S
Eu217 O233 2.471 . S
Eu217 O234 2.347 . S
Eu217 O237 2.366 . S
Eu217 C247 2.825 . S
C218 O234 1.259 1_655 S
C218 O235 1.265 . S
C219 O236 1.255 . S
C219 O237 1.265 . S
C220 C222 1.380 . S
C220 C223 1.374 . S
C220 C226 1.507 1_554 S
C221 C222 1.384 . S
C221 C225 1.387 . S
C221 H248 0.930 . S
C222 C220 1.380 . S
C222 C221 1.384 . S
C222 H249 0.931 . S
C223 C220 1.374 . S
C223 C224 1.390 . S
C223 H250 0.930 . S
C224 C223 1.390 . S
C224 C225 1.391 . S
C224 H251 0.930 . S
C225 C221 1.387 . S
C225 C224 1.391 . S
C226 Tb216 2.825 . S
C226 C220 1.507 1_556 S
C226 O239 1.238 . S
C226 O240 1.247 . S
O227 Tb216 2.347 . S
O227 C231 1.259 1_655 S
O228 Eu217 2.418 . S
O228 C231 1.265 . S
O229 Eu217 2.384 1_655 S
O229 C238 1.255 . S
O230 Tb216 2.366 . S
O230 C238 1.265 . S
C231 O227 1.259 1_455 S
C231 O228 1.265 . S
O232 Eu217 2.479 . S
O232 C247 1.238 . S
O233 Eu217 2.471 . S
O233 C247 1.247 . S
O234 Eu217 2.347 . S
O234 C218 1.259 1_455 S
O235 Tb216 2.418 . S
O235 C218 1.265 . S
O236 Tb216 2.384 1_455 S
O236 C219 1.255 . S
O237 Eu217 2.366 . S
O237 C219 1.265 . S
C238 O229 1.255 . S
C238 O230 1.265 . S
O239 Tb216 2.479 . S
O239 C226 1.238 . S
O240 Tb216 2.471 . S
O240 C226 1.247 . S
C241 C244 1.380 . S
C241 C245 1.374 . S
C241 C247 1.507 . S
C242 C243 1.387 . S
C242 C246 1.391 . S
C243 C242 1.387 . S
C243 C244 1.384 . S
C243 H252 0.930 . S
C244 C241 1.380 . S
C244 C243 1.384 . S
C244 H253 0.931 . S
C245 C241 1.374 . S
C245 C246 1.390 . S
C245 H254 0.930 . S
C246 C242 1.391 . S
C246 C245 1.390 . S
C246 H255 0.930 . S
C247 Eu217 2.825 . S
C247 O232 1.238 . S
C247 O233 1.247 . S
C247 C241 1.507 . S
H248 C221 0.930 . S
H249 C222 0.931 . S
H250 C223 0.930 . S
H251 C224 0.930 . S
H252 C243 0.930 . S
H253 C244 0.931 . S
H254 C245 0.930 . S
H255 C246 0.930 . S
H256 C264 0.949 . S
H257 C269 0.950 . S
H258 C266 0.950 . S
H259 C268 0.950 . S
H260 C270 0.951 . S
H261 C272 0.952 . S
H262 C274 0.950 . S
H263 C275 0.950 . S
C264 H256 0.949 . S
C264 C265 1.386 1_565 S
C264 C266 1.391 . S
C265 C264 1.386 1_545 S
C265 C269 1.393 . S
C266 H258 0.950 . S
C266 C264 1.391 . S
C266 C267 1.399 1_565 S
C267 C266 1.399 1_545 S
C267 C268 1.401 . S
C267 C273 1.490 1_545 S
C268 H259 0.950 . S
C268 C267 1.401 . S
C268 C269 1.391 . S
C269 H257 0.950 . S
C269 C265 1.393 . S
C269 C268 1.391 . S
C270 H260 0.951 . S
C270 C271 1.385 1_545 S
C270 C272 1.391 . S
C271 C270 1.385 1_565 S
C271 C275 1.394 . S
C272 H261 0.952 . S
C272 C270 1.391 . S
C272 C273 1.399 1_545 S
C273 C267 1.490 1_565 S
C273 C272 1.399 1_565 S
C273 C274 1.399 . S
C274 H262 0.950 . S
C274 C273 1.399 . S
C274 C275 1.391 . S
C275 H263 0.950 . S
C275 C271 1.394 . S
C275 C274 1.391 . S
H276 C284 0.950 . S
H277 C289 0.950 . S
H278 C286 0.950 . S
H279 C288 0.950 . S
H280 C290 0.950 . S
H281 C292 0.950 . S
H282 C294 0.950 . S
H283 C295 0.950 . S
C284 H276 0.950 . S
C284 C285 1.386 . S
C284 C286 1.391 . S
C285 C284 1.386 . S
C285 C289 1.393 . S
C286 H278 0.950 . S
C286 C284 1.391 . S
C286 C287 1.400 . S
C287 C286 1.400 . S
C287 C288 1.398 . S
C287 C293 1.491 . S
C288 H279 0.950 . S
C288 C287 1.398 . S
C288 C289 1.391 . S
C289 H277 0.950 . S
C289 C285 1.393 . S
C289 C288 1.391 . S
C290 H280 0.950 . S
C290 C291 1.386 . S
C290 C292 1.391 . S
C291 C290 1.386 . S
C291 C295 1.393 . S
C292 H281 0.950 . S
C292 C290 1.391 . S
C292 C293 1.400 . S
C293 C287 1.491 . S
C293 C292 1.400 . S
C293 C294 1.398 . S
C294 H282 0.950 . S
C294 C293 1.398 . S
C294 C295 1.391 . S
C295 H283 0.950 . S
C295 C291 1.393 . S
C295 C294 1.391 . S
H296 C304 0.950 . S
H297 C309 0.950 . S
H298 C306 0.950 . S
H299 C308 0.950 . S
H300 C310 0.950 . S
H301 C312 0.950 . S
H302 C314 0.950 . S
H303 C315 0.950 . S
C304 H296 0.950 . S
C304 C305 1.386 . S
C304 C306 1.391 . S
C305 C304 1.386 . S
C305 C309 1.393 . S
C306 H298 0.950 . S
C306 C304 1.391 . S
C306 C307 1.400 . S
C307 C306 1.400 . S
C307 C308 1.398 . S
C307 C313 1.491 . S
C308 H299 0.950 . S
C308 C307 1.398 . S
C308 C309 1.391 . S
C309 H297 0.950 . S
C309 C305 1.393 . S
C309 C308 1.391 . S
C310 H300 0.950 . S
C310 C311 1.386 . S
C310 C312 1.391 . S
C311 C310 1.386 . S
C311 C315 1.393 . S
C312 H301 0.950 . S
C312 C310 1.391 . S
C312 C313 1.400 . S
C313 C307 1.491 . S
C313 C312 1.400 . S
C313 C314 1.398 . S
C314 H302 0.950 . S
C314 C313 1.398 . S
C314 C315 1.391 . S
C315 H303 0.950 . S
C315 C311 1.393 . S
C315 C314 1.391 . S
H316 C324 0.950 . S
H317 C329 0.950 . S
H318 C326 0.950 . S
H319 C328 0.950 . S
H320 C330 0.950 . S
H321 C332 0.950 . S
H322 C334 0.950 . S
H323 C335 0.950 . S
C324 H316 0.950 . S
C324 C325 1.393 . S
C324 C326 1.391 . S
C325 C324 1.393 . S
C325 C329 1.386 1_655 S
C326 H318 0.950 . S
C326 C324 1.391 . S
C326 C327 1.401 1_655 S
C327 C326 1.401 1_455 S
C327 C328 1.398 . S
C327 C333 1.491 . S
C328 H319 0.950 . S
C328 C327 1.398 . S
C328 C329 1.391 . S
C329 H317 0.950 . S
C329 C325 1.386 1_455 S
C329 C328 1.391 . S
C330 H320 0.950 . S
C330 C331 1.386 . S
C330 C332 1.391 . S
C331 C330 1.386 . S
C331 C335 1.393 1_455 S
C332 H321 0.950 . S
C332 C330 1.391 . S
C332 C333 1.400 . S
C333 C327 1.491 . S
C333 C332 1.400 . S
C333 C334 1.398 1_455 S
C334 H322 0.950 . S
C334 C333 1.398 1_655 S
C334 C335 1.391 . S
C335 H323 0.950 . S
C335 C331 1.393 1_655 S
C335 C334 1.391 . S
H336 C344 0.953 . S
H337 C349 0.950 . S
H338 C346 0.950 . S
H339 C348 0.950 . S
H340 C350 0.954 . S
H341 C352 0.950 . S
H342 C354 0.950 . S
H343 C355 0.950 . S
C344 H336 0.953 . S
C344 C345 1.382 1_545 S
C344 C346 1.392 . S
C345 C344 1.382 1_565 S
C345 C349 1.397 . S
C346 H338 0.950 . S
C346 C344 1.392 . S
C346 C347 1.399 1_545 S
C347 C346 1.399 1_565 S
C347 C348 1.401 . S
C347 C353 1.490 1_565 S
C348 H339 0.950 . S
C348 C347 1.401 . S
C348 C349 1.391 . S
C349 H337 0.950 . S
C349 C345 1.397 . S
C349 C348 1.391 . S
C350 H340 0.954 . S
C350 C351 1.382 1_565 S
C350 C352 1.392 . S
C351 C350 1.382 1_545 S
C351 C355 1.396 1_556 S
C352 H341 0.950 . S
C352 C350 1.392 . S
C352 C353 1.399 1_566 S
C353 C347 1.490 1_545 S
C353 C352 1.399 1_544 S
C353 C354 1.400 . S
C354 H342 0.950 . S
C354 C353 1.400 . S
C354 C355 1.391 . S
C355 H343 0.950 . S
C355 C351 1.396 1_554 S
C355 C354 1.391 . S
H356 C364 0.950 . S
H357 C369 0.950 . S
H358 C366 0.950 . S
H359 C368 0.950 . S
H360 C370 0.950 . S
H361 C372 0.950 . S
H362 C374 0.950 . S
H363 C375 0.950 . S
C364 H356 0.950 . S
C364 C365 1.386 . S
C364 C366 1.391 . S
C365 C364 1.386 . S
C365 C369 1.393 . S
C366 H358 0.950 . S
C366 C364 1.391 . S
C366 C367 1.400 . S
C367 C366 1.400 . S
C367 C368 1.398 . S
C367 C373 1.491 . S
C368 H359 0.950 . S
C368 C367 1.398 . S
C368 C369 1.391 . S
C369 H357 0.950 . S
C369 C365 1.393 . S
C369 C368 1.391 . S
C370 H360 0.950 . S
C370 C371 1.386 1_554 S
C370 C372 1.391 . S
C371 C370 1.386 1_556 S
C371 C375 1.393 . S
C372 H361 0.950 . S
C372 C370 1.391 . S
C372 C373 1.400 . S
C373 C367 1.491 . S
C373 C372 1.400 . S
C373 C374 1.398 1_554 S
C374 H362 0.950 . S
C374 C373 1.398 1_556 S
C374 C375 1.391 . S
C375 H363 0.950 . S
C375 C371 1.393 . S
C375 C374 1.391 . S
H376 C384 0.950 . S
H377 C389 0.950 . S
H378 C386 0.950 . S
H379 C388 0.950 . S
H380 C390 0.950 . S
H381 C392 0.950 . S
H382 C394 0.949 1_556 S
H383 C395 0.950 . S
C384 H376 0.950 . S
C384 C385 1.386 . S
C384 C386 1.391 . S
C385 C384 1.386 . S
C385 C389 1.393 . S
C386 H378 0.950 . S
C386 C384 1.391 . S
C386 C387 1.400 . S
C387 C386 1.400 . S
C387 C388 1.398 . S
C387 C393 1.491 . S
C388 H379 0.950 . S
C388 C387 1.398 . S
C388 C389 1.391 . S
C389 H377 0.950 . S
C389 C385 1.393 . S
C389 C388 1.391 . S
C390 H380 0.950 . S
C390 C391 1.386 1_554 S
C390 C392 1.391 . S
C391 C390 1.386 1_556 S
C391 C395 1.393 . S
C392 H381 0.950 . S
C392 C390 1.391 . S
C392 C393 1.400 . S
C393 C387 1.491 . S
C393 C392 1.400 . S
C393 C394 1.406 . S
C394 H382 0.949 1_554 S
C394 C393 1.406 . S
C394 C395 1.384 1_554 S
C395 H383 0.950 . S
C395 C391 1.393 . S
C395 C394 1.384 1_556 S
H396 C404 0.950 . S
H397 C409 0.950 . S
H398 C406 0.950 . S
H399 C408 0.950 . S
H400 C410 0.950 . S
H401 C412 0.950 . S
H402 C414 0.950 . S
H403 C415 0.950 . S
C404 H396 0.950 . S
C404 C405 1.359 1_455 S
C404 C406 1.391 . S
C405 C404 1.359 1_655 S
C405 C409 1.421 . S
C406 H398 0.950 . S
C406 C404 1.391 . S
C406 C407 1.377 1_455 S
C407 C406 1.377 1_655 S
C407 C408 1.424 . S
C407 C413 1.490 . S
C408 H399 0.950 . S
C408 C407 1.424 . S
C408 C409 1.391 . S
C409 H397 0.950 . S
C409 C405 1.421 . S
C409 C408 1.391 . S
C410 H400 0.950 . S
C410 C411 1.388 . S
C410 C412 1.391 1_556 S
C411 C410 1.388 . S
C411 C415 1.390 1_656 S
C412 H401 0.950 . S
C412 C410 1.391 1_554 S
C412 C413 1.405 . S
C413 C407 1.490 . S
C413 C412 1.405 . S
C413 C414 1.393 1_655 S
C414 H402 0.950 . S
C414 C413 1.393 1_455 S
C414 C415 1.391 . S
C415 H403 0.950 . S
C415 C411 1.390 1_454 S
C415 C414 1.391 . S
H416 C424 0.950 . S
H417 C429 0.950 . S
H418 C426 0.950 . S
H419 C428 0.950 . S
H420 C430 0.950 . S
H421 C432 0.950 1_455 S
H422 C434 0.950 . S
H423 C435 0.950 . S
C424 H416 0.950 . S
C424 C425 1.386 1_655 S
C424 C426 1.391 . S
C425 C424 1.386 1_455 S
C425 C429 1.393 . S
C426 H418 0.950 . S
C426 C424 1.391 . S
C426 C427 1.400 . S
C427 C426 1.400 . S
C427 C428 1.398 1_655 S
C427 C433 1.491 . S
C428 H419 0.950 . S
C428 C427 1.398 1_455 S
C428 C429 1.391 . S
C429 H417 0.950 . S
C429 C425 1.393 . S
C429 C428 1.391 . S
C430 H420 0.950 . S
C430 C431 1.386 . S
C430 C432 1.391 . S
C431 C430 1.386 . S
C431 C435 1.393 . S
C432 H421 0.950 1_655 S
C432 C430 1.391 . S
C432 C433 1.400 . S
C433 C427 1.491 . S
C433 C432 1.400 . S
C433 C434 1.398 . S
C434 H422 0.950 . S
C434 C433 1.398 . S
C434 C435 1.391 . S
C435 H423 0.950 . S
C435 C431 1.393 . S
C435 C434 1.391 . S
H436 C444 0.950 . S
H437 C449 0.950 . S
H438 C446 0.950 . S
H439 C448 0.950 . S
H440 C450 0.950 . S
H441 C452 0.950 . S
H442 C454 0.950 . S
H443 C455 0.950 . S
C444 H436 0.950 . S
C444 C445 1.386 1_565 S
C444 C446 1.391 . S
C445 C444 1.386 1_545 S
C445 C449 1.393 . S
C446 H438 0.950 . S
C446 C444 1.391 . S
C446 C447 1.400 . S
C447 C446 1.400 . S
C447 C448 1.398 1_565 S
C447 C453 1.491 . S
C448 H439 0.950 . S
C448 C447 1.398 1_545 S
C448 C449 1.391 . S
C449 H437 0.950 . S
C449 C445 1.393 . S
C449 C448 1.391 . S
C450 H440 0.950 . S
C450 C451 1.386 . S
C450 C452 1.391 . S
C451 C450 1.386 . S
C451 C455 1.393 . S
C452 H441 0.950 . S
C452 C450 1.391 . S
C452 C453 1.400 . S
C453 C447 1.491 . S
C453 C452 1.400 . S
C453 C454 1.398 . S
C454 H442 0.950 . S
C454 C453 1.398 . S
C454 C455 1.391 . S
C455 H443 0.950 . S
C455 C451 1.393 . S
C455 C454 1.391 . S
H456 C464 0.950 . S
H457 C469 0.950 . S
H458 C466 0.950 . S
H459 C468 0.950 . S
H460 C470 0.950 . S
H461 C472 0.950 . S
H462 C474 0.950 . S
H463 C475 0.950 . S
C464 H456 0.950 . S
C464 C465 1.386 . S
C464 C466 1.391 . S
C465 C464 1.386 . S
C465 C469 1.393 . S
C466 H458 0.950 . S
C466 C464 1.391 . S
C466 C467 1.400 . S
C467 C466 1.400 . S
C467 C468 1.398 . S
C467 C473 1.491 . S
C468 H459 0.950 . S
C468 C467 1.398 . S
C468 C469 1.391 . S
C469 H457 0.950 . S
C469 C465 1.393 . S
C469 C468 1.391 . S
C470 H460 0.950 . S
C470 C471 1.386 . S
C470 C472 1.391 . S
C471 C470 1.386 . S
C471 C475 1.393 . S
C472 H461 0.950 . S
C472 C470 1.391 . S
C472 C473 1.400 . S
C473 C467 1.491 . S
C473 C472 1.400 . S
C473 C474 1.398 . S
C474 H462 0.950 . S
C474 C473 1.398 . S
C474 C475 1.391 . S
C475 H463 0.950 . S
C475 C471 1.393 . S
C475 C474 1.391 . S
H476 C484 0.950 . S
H477 C489 0.950 . S
H478 C486 0.950 . S
H479 C488 0.950 . S
H480 C490 0.950 . S
H481 C492 0.950 . S
H482 C494 0.950 . S
H483 C495 0.950 . S
C484 H476 0.950 . S
C484 C485 1.386 . S
C484 C486 1.391 . S
C485 C484 1.386 . S
C485 C489 1.393 . S
C486 H478 0.950 . S
C486 C484 1.391 . S
C486 C487 1.400 . S
C487 C486 1.400 . S
C487 C488 1.398 . S
C487 C493 1.491 . S
C488 H479 0.950 . S
C488 C487 1.398 . S
C488 C489 1.391 . S
C489 H477 0.950 . S
C489 C485 1.393 . S
C489 C488 1.391 . S
C490 H480 0.950 . S
C490 C491 1.386 . S
C490 C492 1.391 . S
C491 C490 1.386 . S
C491 C495 1.393 . S
C492 H481 0.950 . S
C492 C490 1.391 . S
C492 C493 1.400 . S
C493 C487 1.491 . S
C493 C492 1.400 . S
C493 C494 1.398 . S
C494 H482 0.950 . S
C494 C493 1.398 . S
C494 C495 1.391 . S
C495 H483 0.950 . S
C495 C491 1.393 . S
C495 C494 1.391 . S
H496 C504 0.950 . S
H497 C509 0.950 . S
H498 C506 0.950 . S
H499 C508 0.950 . S
H500 C510 0.950 . S
H501 C512 0.950 1_655 S
H502 C514 0.950 . S
H503 C515 0.950 . S
C504 H496 0.950 . S
C504 C505 1.386 1_455 S
C504 C506 1.391 . S
C505 C504 1.386 1_655 S
C505 C509 1.393 . S
C506 H498 0.950 . S
C506 C504 1.391 . S
C506 C507 1.400 . S
C507 C506 1.400 . S
C507 C508 1.398 1_455 S
C507 C513 1.491 . S
C508 H499 0.950 . S
C508 C507 1.398 1_655 S
C508 C509 1.391 . S
C509 H497 0.950 . S
C509 C505 1.393 . S
C509 C508 1.391 . S
C510 H500 0.950 . S
C510 C511 1.386 . S
C510 C512 1.391 . S
C511 C510 1.386 . S
C511 C515 1.393 . S
C512 H501 0.950 1_455 S
C512 C510 1.391 . S
C512 C513 1.400 . S
C513 C507 1.491 . S
C513 C512 1.400 . S
C513 C514 1.398 . S
C514 H502 0.950 . S
C514 C513 1.398 . S
C514 C515 1.391 . S
C515 H503 0.950 . S
C515 C511 1.393 . S
C515 C514 1.391 . S
H516 C524 0.950 . S
H517 C529 0.950 . S
H518 C526 0.950 . S
H519 C528 0.950 . S
H520 C530 0.950 . S
H521 C532 0.950 . S
H522 C534 0.950 1_565 S
H523 C535 0.950 . S
C524 H516 0.950 . S
C524 C525 1.399 . S
C524 C526 1.391 . S
C525 C524 1.399 . S
C525 C529 1.374 1_565 S
C526 H518 0.950 . S
C526 C524 1.391 . S
C526 C527 1.400 1_565 S
C527 C526 1.400 1_545 S
C527 C528 1.398 . S
C527 C533 1.491 . S
C528 H519 0.950 . S
C528 C527 1.398 . S
C528 C529 1.391 . S
C529 H517 0.950 . S
C529 C525 1.374 1_545 S
C529 C528 1.391 . S
C530 H520 0.950 . S
C530 C531 1.386 . S
C530 C532 1.391 . S
C531 C530 1.386 . S
C531 C535 1.393 . S
C532 H521 0.950 . S
C532 C530 1.391 . S
C532 C533 1.400 . S
C533 C527 1.491 . S
C533 C532 1.400 . S
C533 C534 1.398 . S
C534 H522 0.950 1_545 S
C534 C533 1.398 . S
C534 C535 1.391 . S
C535 H523 0.950 . S
C535 C531 1.393 . S
C535 C534 1.391 . S
H536 C544 0.950 . S
H537 C549 0.950 . S
H538 C546 0.950 . S
H539 C548 0.950 . S
H540 C550 0.950 . S
H541 C552 0.950 . S
H542 C554 0.950 . S
H543 C555 0.950 . S
C544 H536 0.950 . S
C544 C545 1.386 . S
C544 C546 1.391 . S
C545 C544 1.386 . S
C545 C549 1.393 . S
C546 H538 0.950 . S
C546 C544 1.391 . S
C546 C547 1.400 . S
C547 C546 1.400 . S
C547 C548 1.398 . S
C547 C553 1.491 . S
C548 H539 0.950 . S
C548 C547 1.398 . S
C548 C549 1.391 . S
C549 H537 0.950 . S
C549 C545 1.393 . S
C549 C548 1.391 . S
C550 H540 0.950 . S
C550 C551 1.386 . S
C550 C552 1.391 . S
C551 C550 1.386 . S
C551 C555 1.393 . S
C552 H541 0.950 . S
C552 C550 1.391 . S
C552 C553 1.400 . S
C553 C547 1.491 . S
C553 C552 1.400 . S
C553 C554 1.398 . S
C554 H542 0.950 . S
C554 C553 1.398 . S
C554 C555 1.391 . S
C555 H543 0.950 . S
C555 C551 1.393 . S
C555 C554 1.391 . S
H556 C564 0.950 . S
H557 C569 0.950 . S
H558 C566 0.950 . S
H559 C568 0.950 . S
H560 C570 0.950 . S
H561 C572 0.950 . S
H562 C574 0.950 . S
H563 C575 0.950 . S
C564 H556 0.950 . S
C564 C565 1.386 . S
C564 C566 1.391 . S
C565 C564 1.386 . S
C565 C569 1.393 . S
C566 H558 0.950 . S
C566 C564 1.391 . S
C566 C567 1.400 . S
C567 C566 1.400 . S
C567 C568 1.398 . S
C567 C573 1.491 . S
C568 H559 0.950 . S
C568 C567 1.398 . S
C568 C569 1.391 . S
C569 H557 0.950 . S
C569 C565 1.393 . S
C569 C568 1.391 . S
C570 H560 0.950 . S
C570 C571 1.386 . S
C570 C572 1.391 . S
C571 C570 1.386 . S
C571 C575 1.393 . S
C572 H561 0.950 . S
C572 C570 1.391 . S
C572 C573 1.400 . S
C573 C567 1.491 . S
C573 C572 1.400 . S
C573 C574 1.398 . S
C574 H562 0.950 . S
C574 C573 1.398 . S
C574 C575 1.391 . S
C575 H563 0.950 . S
C575 C571 1.393 . S
C575 C574 1.391 . S
H576 C584 0.950 . S
H577 C589 0.950 . S
H578 C586 0.950 . S
H579 C588 0.950 . S
H580 C590 0.950 . S
H581 C592 0.950 . S
H582 C594 0.950 . S
H583 C595 0.950 . S
C584 H576 0.950 . S
C584 C585 1.386 1_655 S
C584 C586 1.391 . S
C585 C584 1.386 1_455 S
C585 C589 1.393 . S
C586 H578 0.950 . S
C586 C584 1.391 . S
C586 C587 1.400 1_655 S
C587 C586 1.400 1_455 S
C587 C588 1.398 . S
C587 C593 1.491 . S
C588 H579 0.950 . S
C588 C587 1.398 . S
C588 C589 1.391 . S
C589 H577 0.950 . S
C589 C585 1.393 . S
C589 C588 1.391 . S
C590 H580 0.950 . S
C590 C591 1.386 . S
C590 C592 1.391 . S
C591 C590 1.386 . S
C591 C595 1.393 1_455 S
C592 H581 0.950 . S
C592 C590 1.391 . S
C592 C593 1.400 . S
C593 C587 1.491 . S
C593 C592 1.400 . S
C593 C594 1.398 1_455 S
C594 H582 0.950 . S
C594 C593 1.398 1_655 S
C594 C595 1.391 . S
C595 H583 0.950 . S
C595 C591 1.393 1_655 S
C595 C594 1.391 . S
H596 C604 0.950 . S
H597 C609 0.950 . S
H598 C606 0.950 . S
H599 C608 0.950 . S
H600 C610 0.950 . S
H601 C612 0.950 . S
H602 C614 0.950 . S
H603 C615 0.950 . S
C604 H596 0.950 . S
C604 C605 1.386 1_565 S
C604 C606 1.391 . S
C605 C604 1.386 1_545 S
C605 C609 1.393 . S
C606 H598 0.950 . S
C606 C604 1.391 . S
C606 C607 1.400 1_565 S
C607 C606 1.400 1_545 S
C607 C608 1.398 . S
C607 C613 1.491 . S
C608 H599 0.950 . S
C608 C607 1.398 . S
C608 C609 1.391 . S
C609 H597 0.950 . S
C609 C605 1.393 . S
C609 C608 1.391 . S
C610 H600 0.950 . S
C610 C611 1.386 . S
C610 C612 1.391 . S
C611 C610 1.386 . S
C611 C615 1.393 1_545 S
C612 H601 0.950 . S
C612 C610 1.391 . S
C612 C613 1.400 . S
C613 C607 1.491 . S
C613 C612 1.400 . S
C613 C614 1.398 1_545 S
C614 H602 0.950 . S
C614 C613 1.398 1_565 S
C614 C615 1.391 . S
C615 H603 0.950 . S
C615 C611 1.393 1_565 S
C615 C614 1.391 . S
H616 C624 0.950 . S
H617 C629 0.950 1_554 S
H618 C626 0.950 . S
H619 C628 0.950 . S
H620 C630 0.950 . S
H621 C632 0.950 . S
H622 C634 0.950 . S
H623 C635 0.950 . S
C624 H616 0.950 . S
C624 C625 1.386 . S
C624 C626 1.391 . S
C625 C624 1.386 . S
C625 C629 1.393 . S
C626 H618 0.950 . S
C626 C624 1.391 . S
C626 C627 1.400 . S
C627 C626 1.400 . S
C627 C628 1.398 . S
C627 C633 1.491 . S
C628 H619 0.950 . S
C628 C627 1.398 . S
C628 C629 1.391 . S
C629 H617 0.950 1_556 S
C629 C625 1.393 . S
C629 C628 1.391 . S
C630 H620 0.950 . S
C630 C631 1.386 . S
C630 C632 1.391 . S
C631 C630 1.386 . S
C631 C635 1.393 . S
C632 H621 0.950 . S
C632 C630 1.391 . S
C632 C633 1.400 . S
C633 C627 1.491 . S
C633 C632 1.400 . S
C633 C634 1.398 . S
C634 H622 0.950 . S
C634 C633 1.398 . S
C634 C635 1.391 . S
C635 H623 0.950 . S
C635 C631 1.393 . S
C635 C634 1.391 . S
H636 C644 0.950 . S
H637 C649 0.950 . S
H638 C646 0.950 . S
H639 C648 0.950 . S
H640 C650 0.950 . S
H641 C652 0.950 . S
H642 C654 0.950 . S
H643 C655 0.950 . S
C644 H636 0.950 . S
C644 C645 1.386 . S
C644 C646 1.391 . S
C645 C644 1.386 . S
C645 C649 1.393 . S
C646 H638 0.950 . S
C646 C644 1.391 . S
C646 C647 1.400 . S
C647 C646 1.400 . S
C647 C648 1.398 . S
C647 C653 1.491 . S
C648 H639 0.950 . S
C648 C647 1.398 . S
C648 C649 1.391 . S
C649 H637 0.950 . S
C649 C645 1.393 . S
C649 C648 1.391 . S
C650 H640 0.950 . S
C650 C651 1.386 . S
C650 C652 1.391 . S
C651 C650 1.386 . S
C651 C655 1.393 . S
C652 H641 0.950 . S
C652 C650 1.391 . S
C652 C653 1.400 . S
C653 C647 1.491 . S
C653 C652 1.400 . S
C653 C654 1.398 . S
C654 H642 0.950 . S
C654 C653 1.398 . S
C654 C655 1.391 . S
C655 H643 0.950 . S
C655 C651 1.393 . S
C655 C654 1.391 . S
H656 C664 0.950 . S
H657 C669 0.950 . S
H658 C666 0.950 . S
H659 C668 0.950 . S
H660 C670 0.950 . S
H661 C672 0.950 . S
H662 C674 0.950 . S
H663 C675 0.950 . S
C664 H656 0.950 . S
C664 C665 1.406 . S
C664 C666 1.391 . S
C665 C664 1.406 . S
C665 C669 1.374 1_655 S
C666 H658 0.950 . S
C666 C664 1.391 . S
C666 C667 1.400 . S
C667 C666 1.400 . S
C667 C668 1.398 1_655 S
C667 C673 1.491 . S
C668 H659 0.950 . S
C668 C667 1.398 1_455 S
C668 C669 1.391 . S
C669 H657 0.950 . S
C669 C665 1.374 1_455 S
C669 C668 1.391 . S
C670 H660 0.950 . S
C670 C671 1.386 1_455 S
C670 C672 1.391 . S
C671 C670 1.386 1_655 S
C671 C675 1.393 . S
C672 H661 0.950 . S
C672 C670 1.391 . S
C672 C673 1.400 1_455 S
C673 C667 1.491 . S
C673 C672 1.400 1_655 S
C673 C674 1.398 . S
C674 H662 0.950 . S
C674 C673 1.398 . S
C674 C675 1.391 . S
C675 H663 0.950 . S
C675 C671 1.393 . S
C675 C674 1.391 . S
H676 C684 0.950 . S
H677 C689 0.950 . S
H678 C686 0.950 . S
H679 C688 0.950 . S
H680 C690 0.950 . S
H681 C692 0.950 . S
H682 C694 0.942 1_545 S
H683 C695 0.949 1_545 S
C684 H676 0.950 . S
C684 C685 1.386 1_545 S
C684 C686 1.391 . S
C685 C684 1.386 1_565 S
C685 C689 1.393 . S
C686 H678 0.950 . S
C686 C684 1.391 . S
C686 C687 1.400 1_545 S
C687 C686 1.400 1_565 S
C687 C688 1.398 . S
C687 C693 1.491 . S
C688 H679 0.950 . S
C688 C687 1.398 . S
C688 C689 1.391 . S
C689 H677 0.950 . S
C689 C685 1.393 . S
C689 C688 1.391 . S
C690 H680 0.950 . S
C690 C691 1.386 . S
C690 C692 1.391 . S
C691 C690 1.386 . S
C691 C695 1.393 . S
C692 H681 0.950 . S
C692 C690 1.391 . S
C692 C693 1.400 . S
C693 C687 1.491 . S
C693 C692 1.400 . S
C693 C694 1.405 . S
C694 H682 0.942 1_565 S
C694 C693 1.405 . S
C694 C695 1.393 . S
C695 H683 0.949 1_565 S
C695 C691 1.393 . S
C695 C694 1.393 . S
H696 C704 0.950 . S
H697 C709 0.950 . S
H698 C706 0.950 . S
H699 C708 0.950 . S
H700 C710 0.950 . S
H701 C712 0.950 . S
H702 C714 0.950 . S
H703 C715 0.950 . S
C704 H696 0.950 . S
C704 C705 1.386 . S
C704 C706 1.391 . S
C705 C704 1.386 . S
C705 C709 1.393 . S
C706 H698 0.950 . S
C706 C704 1.391 . S
C706 C707 1.400 . S
C707 C706 1.400 . S
C707 C708 1.398 . S
C707 C713 1.491 . S
C708 H699 0.950 . S
C708 C707 1.398 . S
C708 C709 1.391 . S
C709 H697 0.950 . S
C709 C705 1.393 . S
C709 C708 1.391 . S
C710 H700 0.950 . S
C710 C711 1.386 . S
C710 C712 1.391 . S
C711 C710 1.386 . S
C711 C715 1.393 . S
C712 H701 0.950 . S
C712 C710 1.391 . S
C712 C713 1.400 . S
C713 C707 1.491 . S
C713 C712 1.400 . S
C713 C714 1.398 . S
C714 H702 0.950 . S
C714 C713 1.398 . S
C714 C715 1.391 . S
C715 H703 0.950 . S
C715 C711 1.393 . S
C715 C714 1.391 . S
H716 C724 0.950 . S
H717 C729 0.950 . S
H718 C726 0.950 . S
H719 C728 0.950 . S
H720 C730 0.950 . S
H721 C732 0.950 . S
H722 C734 0.950 . S
H723 C735 0.950 . S
C724 H716 0.950 . S
C724 C725 1.386 . S
C724 C726 1.391 . S
C725 C724 1.386 . S
C725 C729 1.393 . S
C726 H718 0.950 . S
C726 C724 1.391 . S
C726 C727 1.400 . S
C727 C726 1.400 . S
C727 C728 1.398 . S
C727 C733 1.491 . S
C728 H719 0.950 . S
C728 C727 1.398 . S
C728 C729 1.391 . S
C729 H717 0.950 . S
C729 C725 1.393 . S
C729 C728 1.391 . S
C730 H720 0.950 . S
C730 C731 1.386 . S
C730 C732 1.391 . S
C731 C730 1.386 . S
C731 C735 1.393 . S
C732 H721 0.950 . S
C732 C730 1.391 . S
C732 C733 1.400 . S
C733 C727 1.491 . S
C733 C732 1.400 . S
C733 C734 1.398 . S
C734 H722 0.950 . S
C734 C733 1.398 . S
C734 C735 1.391 . S
C735 H723 0.950 . S
C735 C731 1.393 . S
C735 C734 1.391 . S
C265 C76 1.820 1_545 S
C271 C98 1.971 . S
C291 C138 1.990 . S
C285 C88 1.821 . S
C311 C178 1.996 . S
C305 C52 1.830 . S
C331 C218 1.986 1_455 S
C325 C64 1.819 . S
C351 C111 1.975 . S
C345 C28 1.822 . S
C365 C40 1.837 . S
C371 C151 1.992 . S
C385 C4 1.846 . S
C391 C191 1.995 . S
C405 C16 1.835 . S
C411 C231 1.981 1_655 S
C431 C122 0.468 . S
C425 C69 0.476 . S
C451 C162 0.478 . S
C445 C81 0.497 . S
C471 C202 0.442 . S
C465 C93 0.487 . S
C485 C57 0.478 . S
C491 C242 0.424 . S
C505 C21 0.512 1_655 S
C511 C105 0.460 . S
C531 C145 0.442 . S
C525 C33 0.455 1_565 S
C551 C185 0.443 . S
C545 C45 0.498 . S
C565 C9 0.508 . S
C571 C225 0.443 . S
C585 C66 2.069 . S
C591 C99 2.299 . S
C605 C78 2.041 . S
C611 C139 2.279 . S
C631 C179 2.260 . S
C625 C90 2.015 . S
C651 C219 2.289 . S
C645 C54 2.022 . S
C665 C18 2.064 1_655 S
C671 C118 2.312 . S
C691 C158 2.272 . S
C685 C30 2.031 1_565 S
C711 C198 2.259 . S
C705 C42 2.004 . S
C725 C6 2.046 . S
C731 C238 2.298 . S
