# Generated by pormake.
# Topology pts, (4,4)-cn, num edge types: 1
# Building blocks:
#     Node 0, Type 0, BuildingBlock: MIFKUJ_clean_linker_1, # of connection points: 4
#     Node 1, Type 0, BuildingBlock: MIFKUJ_clean_linker_1, # of connection points: 4
#     Node 2, Type 1, BuildingBlock: UXUYUI_clean_sbu_0, # of connection points: 4
#     Node 3, Type 1, BuildingBlock: UXUYUI_clean_sbu_0, # of connection points: 4
#     Edge 4, Type (0, 1), BuildingBlock: ZUJKAS_clean_linker_0, # of connection points: 2
#     Edge 5, Type (0, 1), BuildingBlock: ZUJKAS_clean_linker_0, # of connection points: 2
#     Edge 6, Type (0, 1), BuildingBlock: ZUJKAS_clean_linker_0, # of connection points: 2
#     Edge 7, Type (0, 1), BuildingBlock: ZUJKAS_clean_linker_0, # of connection points: 2
#     Edge 8, Type (0, 1), BuildingBlock: ZUJKAS_clean_linker_0, # of connection points: 2
#     Edge 9, Type (0, 1), BuildingBlock: ZUJKAS_clean_linker_0, # of connection points: 2
#     Edge 10, Type (0, 1), BuildingBlock: ZUJKAS_clean_linker_0, # of connection points: 2
#     Edge 11, Type (0, 1), BuildingBlock: ZUJKAS_clean_linker_0, # of connection points: 2
# Relax obj value: 0.001
# Max RMSD: 0.016
# Mean RMSD: 0.014
data_MOF--net-pts--node1-UXUYUI_clean_sbu_0--node2-MIFKUJ_clean_linker_1--edge1-ZUJKAS_clean_linker_0
_symmetry_space_group_name_H-M    P1
_symmetry_Int_Tables_number       1
_symmetry_cell_setting            triclinic
loop_
_symmetry_equiv_pos_as_xyz
'x, y, z'
_cell_length_a     43.390785
_cell_length_b     43.386992
_cell_length_c     59.575815
_cell_angle_alpha  90.011431
_cell_angle_beta   90.06345
_cell_angle_gamma 89.988493
loop_
_atom_site_label
_atom_site_type_symbol
_atom_site_fract_x
_atom_site_fract_y
_atom_site_fract_z
_atom_type_partial_charge
H0 H 0.55724 0.96561 0.04546 0.0
H1 H 0.60433 0.96598 0.06808 0.0
H2 H 0.63067 0.05269 0.03803 0.0
H3 H 0.5832 0.0525 0.0158 0.0
H4 H 0.50975 0.00616 0.04516 0.0
H5 H 0.58513 0.96929 0.99289 0.0
H6 H 0.63285 0.97012 0.9712 0.0
H7 H 0.60265 0.05346 0.93802 0.0
H8 H 0.55567 0.05325 0.96054 0.0
H9 H 0.46396 0.05272 0.96002 0.0
H10 H 0.41674 0.05284 0.93756 0.0
H11 H 0.38681 0.96964 0.97083 0.0
H12 H 0.43427 0.96932 0.99301 0.0
H13 H 0.50979 0.01355 0.96209 0.0
H14 H 0.43558 0.05189 0.01497 0.0
H15 H 0.38824 0.05223 0.03721 0.0
H16 H 0.4155 0.96648 0.06837 0.0
H17 H 0.46282 0.96637 0.04614 0.0
C18 C 0.56683 0.0089 0.02883 0.0
C19 C 0.57317 0.9847 0.04376 0.0
C20 C 0.60018 0.98483 0.05655 0.0
C21 C 0.62126 0.00933 0.05479 0.0
C22 C 0.61478 0.03362 0.03988 0.0
C23 C 0.5878 0.03341 0.02704 0.0
C24 C 0.53793 0.00878 0.0155 0.0
C25 C 0.50973 0.00737 0.02696 0.0
C26 C 0.53798 0.01115 0.99181 0.0
C27 C 0.56697 0.01145 0.97858 0.0
C28 C 0.58899 0.98798 0.98117 0.0
C29 C 0.61612 0.98828 0.96854 0.0
C30 C 0.62165 0.01189 0.95286 0.0
C31 C 0.59941 0.03521 0.95019 0.0
C32 C 0.57238 0.03497 0.9629 0.0
C33 C 0.45256 0.01121 0.9784 0.0
C34 C 0.44728 0.03444 0.96244 0.0
C35 C 0.42032 0.03447 0.9496 0.0
C36 C 0.39805 0.0113 0.95249 0.0
C37 C 0.40335 0.98805 0.96847 0.0
C38 C 0.43045 0.98787 0.98117 0.0
C39 C 0.48152 0.01109 0.99173 0.0
C40 C 0.50976 0.0124 0.98028 0.0
C41 C 0.48153 0.00879 0.01545 0.0
C42 C 0.45262 0.00896 0.02875 0.0
C43 C 0.43122 0.03304 0.02645 0.0
C44 C 0.40415 0.03317 0.03916 0.0
C45 C 0.39808 0.00936 0.05455 0.0
C46 C 0.41965 0.98536 0.05687 0.0
C47 C 0.44666 0.98521 0.04413 0.0
H48 H 0.05667 0.46141 0.46378 0.0
H49 H 0.05811 0.41403 0.44159 0.0
H50 H 0.96885 0.3884 0.46783 0.0
H51 H 0.9679 0.43555 0.49025 0.0
H52 H 0.01556 0.50893 0.46224 0.0
H53 H 0.05165 0.43643 0.51769 0.0
H54 H 0.05113 0.38944 0.54028 0.0
H55 H 0.96095 0.41373 0.56556 0.0
H56 H 0.96205 0.46103 0.5433 0.0
H57 H 0.96451 0.55539 0.54621 0.0
H58 H 0.96433 0.6022 0.56896 0.0
H59 H 0.0482 0.6321 0.53644 0.0
H60 H 0.04913 0.58448 0.5147 0.0
H61 H 1.003 0.50927 0.545 0.0
H62 H 0.96665 0.58197 0.49022 0.0
H63 H 0.96652 0.62895 0.4676 0.0
H64 H 0.0556 0.60427 0.44056 0.0
H65 H 0.05523 0.55706 0.46292 0.0
C66 C 0.01232 0.45188 0.47879 0.0
C67 C 0.03746 0.44552 0.46476 0.0
C68 C 0.03817 0.41849 0.45201 0.0
C69 C 0.01357 0.39737 0.45289 0.0
C70 C 0.98841 0.40386 0.46701 0.0
C71 C 0.98778 0.43085 0.4798 0.0
C72 C 0.01137 0.48091 0.49191 0.0
C73 C 0.01323 0.50904 0.48037 0.0
C74 C 0.00745 0.48103 0.51547 0.0
C75 C 0.00681 0.45212 0.52874 0.0
C76 C 0.0317 0.43149 0.528 0.0
C77 C 0.0313 0.40457 0.54087 0.0
C78 C 0.00598 0.39773 0.55476 0.0
C79 C 0.98103 0.41846 0.55535 0.0
C80 C 0.98153 0.44545 0.54256 0.0
C81 C 0.00663 0.5665 0.52855 0.0
C82 C 0.9829 0.572 0.54404 0.0
C83 C 0.98268 0.59896 0.55688 0.0
C84 C 0.00619 0.62106 0.5545 0.0
C85 C 0.02991 0.61548 0.53892 0.0
C86 C 0.03024 0.5884 0.52623 0.0
C87 C 0.0072 0.53744 0.51535 0.0
C88 C 0.00526 0.50926 0.52686 0.0
C89 C 0.01087 0.53729 0.49173 0.0
C90 C 0.01103 0.56611 0.47835 0.0
C91 C 0.98622 0.58681 0.47952 0.0
C92 C 0.98624 0.61372 0.46662 0.0
C93 C 0.01107 0.62044 0.45224 0.0
C94 C 0.0359 0.59962 0.45117 0.0
C95 C 0.0358 0.57268 0.46401 0.0
Li96 Li 0.01132 0.03738 0.2684 0.0
Li97 Li 0.00984 0.98088 0.26875 0.0
Li98 Li 0.03857 0.01046 0.23888 0.0
Li99 Li 0.98202 0.00825 0.23838 0.0
C100 C 0.06448 0.02059 0.28827 0.0
N101 N 0.09993 0.04636 0.32196 0.0
C102 C 0.06589 0.00666 0.3094 0.0
C103 C 0.08147 0.04736 0.28418 0.0
C104 C 0.08386 0.0201 0.32623 0.0
C105 C 0.09913 0.06013 0.30146 0.0
C106 C 0.95122 0.99946 0.28453 0.0
C107 C 0.90625 0.96754 0.28971 0.0
N108 N 0.90365 0.97804 0.31114 0.0
C109 C 0.94778 0.01029 0.30649 0.0
C110 C 0.93003 0.97822 0.27598 0.0
C111 C 0.92373 0.99903 0.31972 0.0
C112 C 0.00766 0.10126 0.27741 0.0
N113 N 0.01093 0.07309 0.28709 0.0
C114 C 0.01394 0.09598 0.32353 0.0
C115 C 0.01377 0.07001 0.30971 0.0
C116 C 0.01078 0.12547 0.31403 0.0
C117 C 0.00752 0.12787 0.29061 0.0
H118 H 0.00498 0.10307 0.25942 0.0
H119 H 0.01603 0.04734 0.31703 0.0
C120 C 0.01993 0.9179 0.2788 0.0
N121 N 0.01 0.94513 0.28746 0.0
C122 C 0.02006 0.8913 0.292 0.0
C123 C 1.0009 0.92148 0.32309 0.0
C124 C 1.00092 0.94742 0.30923 0.0
C125 C 0.01039 0.89289 0.31446 0.0
H126 H 0.02791 0.91682 0.26164 0.0
H127 H 0.99411 0.96949 0.31597 0.0
C128 C 0.02083 0.06249 0.21843 0.0
N129 N 0.0457 0.09638 0.18361 0.0
C130 C 0.00794 0.06078 0.19695 0.0
C131 C 0.04606 0.0818 0.22226 0.0
C132 C 0.02091 0.07801 0.17955 0.0
C133 C 0.0584 0.09863 0.20443 0.0
C134 C 1.00071 0.94919 0.22352 0.0
C135 C 0.01327 0.94226 0.20252 0.0
C136 C 0.97703 0.93084 0.2321 0.0
C137 C 1.00144 0.91749 0.19024 0.0
C138 C 0.96584 0.90626 0.21933 0.0
N139 N 0.97814 0.90018 0.19882 0.0
C140 C 0.1026 0.0111 0.22939 0.0
C141 C 0.07022 0.01042 0.19735 0.0
C142 C 0.12882 0.01158 0.21581 0.0
N143 N 0.07405 0.01072 0.22 0.0
C144 C 0.09577 0.01093 0.18314 0.0
C145 C 0.1256 0.01153 0.19233 0.0
H146 H 0.10506 0.01081 0.24743 0.0
H147 H 0.04727 0.00984 0.1903 0.0
C148 C 0.92005 0.02148 0.22769 0.0
N149 N 0.94622 0.00817 0.21975 0.0
C150 C 0.89332 0.02196 0.21459 0.0
C151 C 0.92113 0.9955 0.18521 0.0
C152 C 0.94731 0.99564 0.19884 0.0
C153 C 0.89362 0.00872 0.19306 0.0
H154 H 0.91993 0.03171 0.24424 0.0
H155 H 0.96863 0.9862 0.19256 0.0
O156 O 0.04672 0.00793 0.27165 0.0
O157 O 0.97467 0.0103 0.27134 0.0
O158 O 0.00868 0.04546 0.23561 0.0
O159 O 0.01189 0.97354 0.23568 0.0
H160 H 0.05319 0.98576 0.3128 0.0
H161 H 0.08092 0.05825 0.26789 0.0
H162 H 0.08502 0.00966 0.3427 0.0
H163 H 0.11221 0.08097 0.29856 0.0
H164 H 0.88977 0.95103 0.2833 0.0
H165 H 0.96365 0.02704 0.31332 0.0
H166 H 0.93161 0.97035 0.25882 0.0
H167 H 0.92099 0.00703 0.3368 0.0
H168 H 0.01688 0.09295 0.34145 0.0
H169 H 0.00446 0.15004 0.28256 0.0
H170 H 0.02813 0.86984 0.28481 0.0
H171 H 0.99327 0.92373 0.34032 0.0
H172 H 0.98829 0.04615 0.1937 0.0
H173 H 0.05605 0.08374 0.23882 0.0
H174 H 0.0113 0.07674 0.16282 0.0
H175 H 0.07806 0.11351 0.20714 0.0
H176 H 0.03187 0.95591 0.19571 0.0
H177 H 0.9677 0.93523 0.24858 0.0
H178 H 0.01082 0.91202 0.1739 0.0
H179 H 0.94747 0.89193 0.22578 0.0
H180 H 0.15136 0.0115 0.22363 0.0
H181 H 0.09215 0.01118 0.16516 0.0
H182 H 0.87258 0.03228 0.22134 0.0
H183 H 0.92257 0.98564 0.16854 0.0
Li184 Li 0.98038 0.01043 0.76779 0.0
Li185 Li 0.03675 0.00821 0.76946 0.0
Li186 Li 0.00853 0.0379 0.73932 0.0
Li187 Li 0.00982 0.98129 0.73835 0.0
C188 C 0.99665 0.06073 0.78967 0.0
N189 N 0.96889 0.09075 0.82519 0.0
C190 C 0.00852 0.05759 0.81137 0.0
C191 C 0.97089 0.0794 0.78599 0.0
C192 C 0.99411 0.07291 0.82912 0.0
C193 C 0.95711 0.0943 0.80418 0.0
C194 C 0.0171 0.94691 0.78123 0.0
C195 C 0.04983 0.90196 0.78132 0.0
N196 N 0.03745 0.89316 0.80127 0.0
C197 C 0.00443 0.93721 0.80161 0.0
C198 C 0.03977 0.92898 0.77089 0.0
C199 C 0.01514 0.91006 0.81153 0.0
C200 C 0.91618 0.01406 0.7765 0.0
N201 N 0.94436 0.01027 0.78608 0.0
C202 C 0.92172 0.00704 0.82256 0.0
C203 C 0.94755 0.0066 0.80862 0.0
C204 C 0.89226 0.01117 0.8132 0.0
C205 C 0.8897 0.01464 0.7898 0.0
H206 H 0.91424 0.01673 0.75853 0.0
H207 H 0.97023 0.00349 0.81579 0.0
C208 C 0.09656 0.0256 0.78231 0.0
N209 N 0.07205 0.00809 0.78853 0.0
C210 C 0.12315 0.02633 0.79553 0.0
C211 C 0.09859 0.99139 0.82154 0.0
C212 C 0.07245 0.99144 0.80785 0.0
C213 C 0.12449 0.00894 0.81542 0.0
H214 H 0.09542 0.039 0.76702 0.0
H215 H 0.05245 0.97832 0.81276 0.0
C216 C 0.95776 0.02105 0.71713 0.0
N217 N 0.92708 0.04651 0.68095 0.0
C218 C 0.95911 0.00683 0.6961 0.0
C219 C 0.94054 0.04804 0.71982 0.0
C220 C 0.94348 0.0201 0.678 0.0
C221 C 0.92529 0.06061 0.7013 0.0
C222 C 0.07117 1.00179 0.72555 0.0
C223 C 0.07806 0.01438 0.70454 0.0
C224 C 0.0916 0.98081 0.73535 0.0
C225 C 0.10491 0.00523 0.69347 0.0
C226 C 0.11824 0.97227 0.72376 0.0
N227 N 0.12427 0.98451 0.70322 0.0
C228 C 0.01023 0.10207 0.73072 0.0
C229 C 0.00982 0.0707 0.69817 0.0
C230 C 0.0105 0.12872 0.71756 0.0
N231 N 0.00971 0.07382 0.72087 0.0
C232 C 0.00984 0.09668 0.68437 0.0
C233 C 0.01017 0.12626 0.69401 0.0
H234 H 0.01052 0.10392 0.74881 0.0
H235 H 0.0096 0.04797 0.69075 0.0
C236 C 0.99176 0.92151 0.72595 0.0
N237 N 0.00967 0.94567 0.71958 0.0
C238 C 0.99071 0.89473 0.71296 0.0
C239 C 0.0263 0.91832 0.68694 0.0
C240 C 0.02651 0.94469 0.70036 0.0
C241 C 0.00828 0.89286 0.69321 0.0
H242 H 0.97836 0.92304 0.74122 0.0
H243 H 0.03984 0.96445 0.69527 0.0
O244 O 0.01011 0.04545 0.77215 0.0
O245 O 0.00684 0.97349 0.77134 0.0
O246 O 0.97316 0.00856 0.73499 0.0
O247 O 0.04497 0.01064 0.73662 0.0
H248 H 0.02847 0.04327 0.8145 0.0
H249 H 0.96149 0.08214 0.76929 0.0
H250 H 1.00292 0.07056 0.84602 0.0
H251 H 0.93701 0.10864 0.80161 0.0
H252 H 0.06739 0.8879 0.77349 0.0
H253 H 0.9866 0.95054 0.80974 0.0
H254 H 0.04919 0.93556 0.75484 0.0
H255 H 0.00567 0.90241 0.82736 0.0
H256 H 0.92479 0.00383 0.84045 0.0
H257 H 0.86751 0.01819 0.78187 0.0
H258 H 0.14228 0.04067 0.79034 0.0
H259 H 0.09858 0.97746 0.83661 0.0
H260 H 0.97221 0.98588 0.69374 0.0
H261 H 0.93925 0.05933 0.73597 0.0
H262 H 0.94444 0.00943 0.66161 0.0
H263 H 0.91208 0.08161 0.7031 0.0
H264 H 0.06278 0.03092 0.69679 0.0
H265 H 0.08726 0.97151 0.75184 0.0
H266 H 0.11039 0.01464 0.67714 0.0
H267 H 0.1342 0.95601 0.73115 0.0
H268 H 0.01131 0.15097 0.72576 0.0
H269 H 0.00917 0.09357 0.66635 0.0
H270 H 0.97663 0.87556 0.71846 0.0
H271 H 0.03972 0.91804 0.67162 0.0
H272 H 0.392 0.99518 0.09908 0.0
H273 H 0.34493 0.99532 0.12161 0.0
H274 H 0.29258 0.02471 0.0639 0.0
H275 H 0.33955 0.02445 0.04116 0.0
H276 H 0.27942 0.0582 0.10288 0.0
H277 H 0.27468 0.93221 0.11859 0.0
H278 H 0.31074 0.94974 0.1261 0.0
H279 H 0.29885 0.94901 0.09719 0.0
C280 C 0.37042 1.00133 0.0911 0.0
C281 C 0.3695 0.00963 0.06828 0.0
C282 C 0.34355 1.0014 0.10401 0.0
C283 C 0.31522 0.00957 0.09433 0.0
C284 C 0.31423 0.01824 0.07165 0.0
H285 H 0.13482 0.97893 0.15353 0.0
H286 H 0.1801 0.97963 0.12914 0.0
C287 C 0.3411 0.0182 0.05872 0.0
C288 C 0.2867 0.00961 0.108 0.0
H289 H 0.24019 0.96343 0.13965 0.0
C290 C 0.27074 0.03748 0.11086 0.0
C291 C 0.27525 0.98246 0.11814 0.0
C292 C 0.29056 0.95158 0.11472 0.0
C293 C 0.24392 0.03904 0.12398 0.0
C294 C 0.2331 0.01209 0.13477 0.0
C295 C 0.24872 0.98411 0.13154 0.0
C296 C 0.20548 0.01235 0.14939 0.0
C297 C 0.2272 0.06941 0.12593 0.0
C298 C 0.20484 0.03033 0.16896 0.0
C299 C 0.17891 0.03016 0.18286 0.0
C300 C 0.15317 0.01185 0.17752 0.0
C301 C 0.15402 0.99368 0.15796 0.0
C302 C 0.17996 0.99387 0.14408 0.0
H303 H 0.23358 0.08545 0.11216 0.0
H304 H 0.20184 0.066 0.12567 0.0
H305 H 0.23346 0.08051 0.14209 0.0
H306 H 0.22451 0.04433 0.17359 0.0
H307 H 0.17893 0.04459 0.1977 0.0
H308 H 0.02716 0.34005 0.5437 0.0
H309 H 0.02778 0.29386 0.56728 0.0
H310 H 0.9846 0.34458 0.62091 0.0
H311 H 0.98463 0.39112 0.59779 0.0
H312 H 0.05596 0.28902 0.61283 0.0
H313 H 0.92998 0.26531 0.61066 0.0
H314 H 0.949 0.2887 0.58976 0.0
H315 H 0.9413 0.30421 0.61711 0.0
C316 C 0.01801 0.34151 0.56057 0.0
C317 C 0.00579 0.36936 0.56881 0.0
C318 C 0.01823 0.31503 0.57395 0.0
C319 C 0.00595 0.31581 0.5957 0.0
C320 C 0.99374 0.34345 0.60402 0.0
H321 H 0.97969 0.1808 0.70113 0.0
H322 H 0.98007 0.22691 0.67759 0.0
C323 C 0.99368 0.36999 0.59073 0.0
C324 C 0.00655 0.28789 0.60993 0.0
H325 H 0.96018 0.23438 0.6348 0.0
C326 C 0.03508 0.27693 0.6176 0.0
C327 C 0.97922 0.27244 0.61616 0.0
C328 C 0.94808 0.28302 0.60792 0.0
C329 C 0.03699 0.25111 0.63173 0.0
C330 C 0.00965 0.23541 0.63784 0.0
C331 C 0.98111 0.24642 0.6301 0.0
C332 C 0.01008 0.20753 0.65227 0.0
C333 C 0.0682 0.24146 0.64047 0.0
C334 C 0.02662 0.18121 0.64577 0.0
C335 C 0.02684 0.15496 0.65937 0.0
C336 C 0.01015 0.15432 0.67961 0.0
C337 C 0.99326 0.18063 0.68589 0.0
C338 C 0.99323 0.20694 0.67235 0.0
H339 H 0.08507 0.2607 0.63971 0.0
H340 H 0.06671 0.23323 0.65808 0.0
H341 H 0.07721 0.22238 0.62995 0.0
H342 H 0.03924 0.18087 0.63011 0.0
H343 H 0.04032 0.13526 0.65407 0.0
H344 H 0.66064 0.96146 0.06333 0.0
H345 H 0.70681 0.96188 0.08703 0.0
H346 H 0.6927 0.05837 0.10096 0.0
H347 H 0.64619 0.05804 0.07765 0.0
H348 H 0.76063 1.00047 0.08237 0.0
H349 H 0.70058 0.01761 0.16381 0.0
H350 H 0.68086 0.00452 0.13886 0.0
H351 H 0.69064 0.0445 0.14202 0.0
C352 C 0.66723 0.9827 0.0716 0.0
C353 C 0.64969 0.00969 0.06871 0.0
C354 C 0.69368 0.98293 0.08501 0.0
C355 C 0.70289 0.01005 0.09594 0.0
C356 C 0.68569 0.03711 0.0929 0.0
H357 H 0.85267 0.05597 0.18675 0.0
H358 H 0.8068 0.05632 0.16279 0.0
C359 C 0.65931 0.03694 0.07942 0.0
C360 C 0.73075 0.01008 0.11031 0.0
H361 H 0.75506 0.01952 0.16439 0.0
C362 C 0.75947 0.00453 0.10031 0.0
C363 C 0.72906 0.01551 0.13368 0.0
C364 C 0.69864 0.02064 0.14534 0.0
C365 C 0.78672 0.00472 0.11304 0.0
C366 C 0.78504 0.00993 0.13647 0.0
C367 C 0.75628 0.01554 0.14644 0.0
C368 C 0.81284 0.00955 0.15097 0.0
C369 C 0.81709 1.00005 0.1012 0.0
C370 C 0.83117 0.98298 0.15253 0.0
C371 C 0.85737 0.98271 0.16619 0.0
C372 C 0.86556 0.00892 0.17875 0.0
C373 C 0.84684 0.03533 0.17744 0.0
C374 C 0.82071 0.03561 0.16369 0.0
H375 H 0.81524 0.00498 0.08295 0.0
H376 H 0.8353 0.01502 0.10848 0.0
H377 H 0.82441 0.97569 0.10316 0.0
H378 H 0.82507 0.96233 0.14332 0.0
H379 H 0.87099 0.96183 0.16716 0.0
H380 H 0.9567 0.65656 0.567 0.0
H381 H 0.95691 0.70273 0.59061 0.0
H382 H 0.0557 0.69676 0.59677 0.0
H383 H 0.05575 0.65007 0.5738 0.0
H384 H 0.98472 0.7072 0.63695 0.0
H385 H 0.03523 0.78721 0.57392 0.0
H386 H 0.01596 0.75189 0.56607 0.0
H387 H 0.05415 0.75063 0.5776 0.0
C388 C 0.97847 0.66485 0.57353 0.0
C389 C 0.00623 0.64955 0.56844 0.0
C390 C 0.97854 0.69134 0.58689 0.0
C391 C 0.00633 0.70321 0.59521 0.0
C392 C 0.03406 0.68813 0.59021 0.0
H393 H 0.05714 0.86346 0.67375 0.0
H394 H 0.05622 0.81696 0.6505 0.0
C395 C 0.03402 0.66153 0.57699 0.0
C396 C 0.00633 0.73106 0.60951 0.0
H397 H 0.02797 0.80664 0.61055 0.0
C398 C 0.99404 0.72902 0.63121 0.0
C399 C 0.01871 0.7593 0.60193 0.0
C400 C 0.03162 0.76268 0.57856 0.0
C401 C 0.99429 0.75448 0.64577 0.0
C402 C 0.00641 0.7829 0.63814 0.0
C403 C 0.01866 0.78487 0.61637 0.0
C404 C 0.00679 0.81087 0.65247 0.0
C405 C 0.98234 0.75041 0.66937 0.0
C406 C 0.97927 0.82309 0.6611 0.0
C407 C 0.97976 0.84956 0.67447 0.0
C408 C 0.00774 0.86459 0.67918 0.0
C409 C 0.03521 0.85253 0.67027 0.0
C410 C 0.03472 0.82593 0.65705 0.0
H411 H 0.98234 0.72578 0.67449 0.0
H412 H 0.99638 0.7637 0.6816 0.0
H413 H 0.95825 0.75889 0.67023 0.0
H414 H 0.95736 0.81235 0.65729 0.0
H415 H 0.95818 0.85861 0.68078 0.0
H416 H 0.39295 0.02096 0.90732 0.0
H417 H 0.34591 0.02076 0.88452 0.0
H418 H 0.29194 1.00077 0.94346 0.0
H419 H 0.33886 1.00118 0.96644 0.0
H420 H 0.3009 0.96905 0.88151 0.0
H421 H 0.2512 0.07897 0.9133 0.0
H422 H 0.29172 0.06992 0.91568 0.0
H423 H 0.26442 0.05179 0.934 0.0
C424 C 0.37103 0.0168 0.91545 0.0
C425 C 0.36955 0.0112 0.93868 0.0
C426 C 0.34425 0.01653 0.9024 0.0
C427 C 0.31552 0.01103 0.91238 0.0
C428 C 0.31392 0.00536 0.93552 0.0
H429 H 0.12806 0.00907 0.86141 0.0
H430 H 0.17439 0.00819 0.88475 0.0
C431 C 0.34072 0.00538 0.94857 0.0
C432 C 0.28729 0.01067 0.89845 0.0
H433 H 0.22072 0.0501 0.8881 0.0
C434 C 0.28334 0.98676 0.88288 0.0
C435 C 0.26448 0.03375 0.90044 0.0
C436 C 0.26807 0.06024 0.91663 0.0
C437 C 0.25688 0.98507 0.86936 0.0
C438 C 0.23418 0.00841 0.87109 0.0
C439 C 0.23814 0.03227 0.88676 0.0
C440 C 0.20617 0.00854 0.85678 0.0
C441 C 0.25317 0.95791 0.85375 0.0
C442 C 0.20862 0.00939 0.8333 0.0
C443 C 0.18217 0.00947 0.81989 0.0
C444 C 0.15268 0.00909 0.8297 0.0
C445 C 0.15035 0.00879 0.85326 0.0
C446 C 0.17682 0.00854 0.86665 0.0
H447 H 0.26759 0.93806 0.85911 0.0
H448 H 0.22877 0.9503 0.85288 0.0
H449 H 0.26061 0.96467 0.83663 0.0
H450 H 0.23102 0.01011 0.82532 0.0
H451 H 0.18488 0.00947 0.80183 0.0
H452 H 0.99409 0.33932 0.46439 0.0
H453 H 0.99384 0.293 0.44092 0.0
H454 H 0.03385 0.34457 0.38642 0.0
H455 H 0.03359 0.39115 0.40951 0.0
H456 H 0.9642 0.28602 0.3972 0.0
H457 H 0.09099 0.26789 0.39434 0.0
H458 H 0.07264 0.29155 0.41541 0.0
H459 H 0.07793 0.30608 0.38746 0.0
C460 C 1.00265 0.3409 0.44737 0.0
C461 C 0.01395 0.36898 0.43887 0.0
C462 C 1.00264 0.31437 0.43404 0.0
C463 C 0.01417 0.31534 0.41207 0.0
C464 C 0.02537 0.34326 0.40349 0.0
H465 H 0.03737 0.18156 0.30536 0.0
H466 H 0.03682 0.22766 0.32895 0.0
C467 C 0.02528 0.36982 0.41675 0.0
C468 C 0.01376 0.28733 0.39789 0.0
H469 H 0.0605 0.23601 0.37097 0.0
C470 C 0.98521 0.27495 0.39152 0.0
C471 C 0.04124 0.27315 0.39047 0.0
C472 C 0.0725 0.28512 0.39736 0.0
C473 C 0.98338 0.24898 0.37751 0.0
C474 C 0.01089 0.23462 0.37017 0.0
C475 C 0.03945 0.24704 0.37661 0.0
C476 C 0.01059 0.20672 0.35578 0.0
C477 C 0.95202 0.2377 0.37024 0.0
C478 C 0.99627 0.17954 0.36312 0.0
C479 C 0.99619 0.15326 0.34955 0.0
C480 C 0.01077 0.15349 0.32846 0.0
C481 C 0.02545 0.18069 0.32131 0.0
C482 C 0.02538 0.207 0.33485 0.0
H483 H 0.93423 0.25598 0.37191 0.0
H484 H 0.95237 0.22963 0.35256 0.0
H485 H 0.94505 0.21809 0.38106 0.0
H486 H 0.98529 0.17857 0.37942 0.0
H487 H 0.98443 0.13284 0.35554 0.0
H488 H 0.65093 0.96259 0.93348 0.0
H489 H 0.69772 0.96305 0.91063 0.0
H490 H 0.70359 0.06175 0.9177 0.0
H491 H 0.65719 0.06153 0.94099 0.0
H492 H 0.70948 0.0388 0.87247 0.0
H493 H 0.7874 0.97946 0.93268 0.0
H494 H 0.75134 0.96038 0.92735 0.0
H495 H 0.75158 0.99717 0.94117 0.0
C496 C 0.6624 0.98437 0.93049 0.0
C497 C 0.65031 0.01203 0.93915 0.0
C498 C 0.68909 0.98457 0.91738 0.0
C499 C 0.70422 0.01239 0.91269 0.0
C500 C 0.69222 0.04004 0.92117 0.0
H501 H 0.88568 0.03855 0.85437 0.0
H502 H 0.83994 0.03919 0.87834 0.0
C503 C 0.66561 0.03986 0.93437 0.0
C504 C 0.73215 0.01275 0.89844 0.0
H505 H 0.80674 0.98794 0.89598 0.0
C506 C 0.73079 0.02776 0.8776 0.0
C507 C 0.75993 0.99857 0.90532 0.0
C508 C 0.76291 0.98317 0.92792 0.0
C509 C 0.75642 0.02852 0.86325 0.0
C510 C 0.78397 0.01365 0.86988 0.0
C511 C 0.78548 0.99911 0.89089 0.0
C512 C 0.81157 0.01311 0.85529 0.0
C513 C 0.75395 0.04554 0.84124 0.0
C514 C 0.81084 0.99791 0.83451 0.0
C515 C 0.83699 0.99731 0.82083 0.0
C516 C 0.86442 0.01181 0.82773 0.0
C517 C 0.86507 0.02684 0.84866 0.0
C518 C 0.83893 0.02738 0.86234 0.0
H519 H 0.73402 0.06163 0.84102 0.0
H520 H 0.77531 0.05881 0.83779 0.0
H521 H 0.75076 0.02864 0.82745 0.0
H522 H 0.79011 0.98625 0.82897 0.0
H523 H 0.83584 0.98506 0.80502 0.0
H524 H 0.99125 0.67832 0.46394 0.0
H525 H 0.99046 0.7247 0.44056 0.0
H526 H 0.03031 0.67359 0.38576 0.0
H527 H 0.03056 0.62692 0.40875 0.0
H528 H 0.0593 0.7325 0.39605 0.0
H529 H 0.93211 0.74026 0.38565 0.0
H530 H 0.94586 0.736 0.41398 0.0
H531 H 0.95126 0.70521 0.39425 0.0
C532 C 0.9995 0.67681 0.44683 0.0
C533 C 0.01089 0.64882 0.43822 0.0
C534 C 0.9991 0.70336 0.43353 0.0
C535 C 0.01007 0.70243 0.41141 0.0
C536 C 0.02175 0.67472 0.40281 0.0
H537 H 0.99054 0.83499 0.30354 0.0
H538 H 0.99106 0.78881 0.32721 0.0
C539 C 0.02203 0.64813 0.41604 0.0
C540 C 0.00976 0.73046 0.39726 0.0
H541 H 0.96172 0.7815 0.37115 0.0
C542 C 0.038 0.74326 0.3906 0.0
C543 C 0.9819 0.74418 0.39005 0.0
C544 C 0.95099 0.73067 0.39615 0.0
C545 C 0.03911 0.76973 0.37708 0.0
C546 C 0.01125 0.78375 0.37019 0.0
C547 C 0.98301 0.77075 0.37662 0.0
C548 C 0.01098 0.81174 0.35601 0.0
C549 C 0.07002 0.78228 0.36997 0.0
C550 C 0.02176 0.83991 0.36449 0.0
C551 C 0.02148 0.8663 0.35104 0.0
C552 C 0.01046 0.86494 0.32884 0.0
C553 C 0.99952 0.83667 0.32046 0.0
C554 C 0.99963 0.81034 0.33398 0.0
H555 H 0.08891 0.76547 0.37292 0.0
H556 H 0.06974 0.78859 0.35191 0.0
H557 H 0.07514 0.80344 0.37976 0.0
H558 H 0.03032 0.84148 0.38154 0.0
H559 H 0.03026 0.88768 0.35791 0.0
loop_
_geom_bond_atom_site_label_1
_geom_bond_atom_site_label_2
_geom_bond_distance
_geom_bond_site_symmetry_2
_ccdc_geom_bond_type
H0 C19 0.949 . S
H1 C20 0.950 . S
H2 C22 0.950 . S
H3 C23 0.950 . S
H4 C25 0.950 1_565 S
H5 C28 0.950 . S
H6 C29 0.950 . S
H7 C31 0.951 . S
H8 C32 0.949 . S
H9 C34 0.949 . S
H10 C35 0.950 . S
H11 C37 0.950 . S
H12 C38 0.950 . S
H13 C40 0.950 . S
H14 C43 0.950 . S
H15 C44 0.950 . S
H16 C46 0.951 . S
H17 C47 0.949 . S
C18 C19 1.376 1_545 S
C18 C23 1.386 . S
C18 C24 1.483 . S
C19 H0 0.949 . S
C19 C18 1.376 1_565 S
C19 C20 1.397 . S
C20 H1 0.950 . S
C20 C19 1.397 . S
C20 C21 1.391 1_565 S
C21 C20 1.391 1_545 S
C21 C22 1.405 . S
C22 H2 0.950 . S
C22 C21 1.405 . S
C22 C23 1.367 . S
C23 H3 0.950 . S
C23 C18 1.386 . S
C23 C22 1.367 . S
C24 C18 1.483 . S
C24 C25 1.382 . S
C24 C26 1.403 1_554 S
C25 H4 0.950 1_545 S
C25 C24 1.382 . S
C25 C41 1.411 . S
C26 C24 1.403 1_556 S
C26 C27 1.489 . S
C26 C40 1.411 . S
C27 C26 1.489 . S
C27 C28 1.383 1_545 S
C27 C32 1.382 . S
C28 H5 0.950 . S
C28 C27 1.383 1_565 S
C28 C29 1.395 . S
C29 H6 0.950 . S
C29 C28 1.395 . S
C29 C30 1.288 1_565 S
C30 C29 1.288 1_545 S
C30 C31 1.392 . S
C31 H7 0.951 . S
C31 C30 1.392 . S
C31 C32 1.392 . S
C32 H8 0.949 . S
C32 C27 1.382 . S
C32 C31 1.392 . S
C33 C34 1.376 . S
C33 C38 1.386 1_545 S
C33 C39 1.483 . S
C34 H9 0.949 . S
C34 C33 1.376 . S
C34 C35 1.397 . S
C35 H10 0.950 . S
C35 C34 1.397 . S
C35 C36 1.391 . S
C36 C35 1.391 . S
C36 C37 1.405 1_545 S
C37 H11 0.950 . S
C37 C36 1.405 1_565 S
C37 C38 1.367 . S
C38 H12 0.950 . S
C38 C33 1.386 1_565 S
C38 C37 1.367 . S
C39 C33 1.483 . S
C39 C40 1.382 . S
C39 C41 1.403 1_556 S
C40 H13 0.950 . S
C40 C26 1.411 . S
C40 C39 1.382 . S
C41 C25 1.411 . S
C41 C39 1.403 1_554 S
C41 C42 1.489 . S
C42 C41 1.489 . S
C42 C43 1.383 . S
C42 C47 1.382 1_545 S
C43 H14 0.950 . S
C43 C42 1.383 . S
C43 C44 1.395 . S
C44 H15 0.950 . S
C44 C43 1.395 . S
C44 C45 1.288 . S
C45 C44 1.288 . S
C45 C46 1.392 1_545 S
C46 H16 0.951 . S
C46 C45 1.392 1_565 S
C46 C47 1.392 . S
C47 H17 0.949 . S
C47 C42 1.382 1_565 S
C47 C46 1.392 . S
H48 C67 0.949 . S
H49 C68 0.950 . S
H50 C70 0.950 . S
H51 C71 0.950 . S
H52 C73 0.950 . S
H53 C76 0.950 . S
H54 C77 0.950 . S
H55 C79 0.951 . S
H56 C80 0.949 . S
H57 C82 0.949 . S
H58 C83 0.950 . S
H59 C85 0.950 . S
H60 C86 0.950 . S
H61 C88 0.950 1_655 S
H62 C91 0.950 . S
H63 C92 0.950 . S
H64 C94 0.951 . S
H65 C95 0.949 . S
C66 C67 1.376 . S
C66 C71 1.386 1_455 S
C66 C72 1.483 . S
C67 H48 0.949 . S
C67 C66 1.376 . S
C67 C68 1.397 . S
C68 H49 0.950 . S
C68 C67 1.397 . S
C68 C69 1.391 . S
C69 C68 1.391 . S
C69 C70 1.405 1_455 S
C70 H50 0.950 . S
C70 C69 1.405 1_655 S
C70 C71 1.367 . S
C71 H51 0.950 . S
C71 C66 1.386 1_655 S
C71 C70 1.367 . S
C72 C66 1.483 . S
C72 C73 1.382 . S
C72 C74 1.403 . S
C73 H52 0.950 . S
C73 C72 1.382 . S
C73 C89 1.411 . S
C74 C72 1.403 . S
C74 C75 1.489 . S
C74 C88 1.411 . S
C75 C74 1.489 . S
C75 C76 1.383 . S
C75 C80 1.382 1_455 S
C76 H53 0.950 . S
C76 C75 1.383 . S
C76 C77 1.395 . S
C77 H54 0.950 . S
C77 C76 1.395 . S
C77 C78 1.288 . S
C78 C77 1.288 . S
C78 C79 1.392 1_455 S
C79 H55 0.951 . S
C79 C78 1.392 1_655 S
C79 C80 1.392 . S
C80 H56 0.949 . S
C80 C75 1.382 1_655 S
C80 C79 1.392 . S
C81 C82 1.376 1_455 S
C81 C86 1.386 . S
C81 C87 1.483 . S
C82 H57 0.949 . S
C82 C81 1.376 1_655 S
C82 C83 1.397 . S
C83 H58 0.950 . S
C83 C82 1.397 . S
C83 C84 1.391 1_655 S
C84 C83 1.391 1_455 S
C84 C85 1.405 . S
C85 H59 0.950 . S
C85 C84 1.405 . S
C85 C86 1.367 . S
C86 H60 0.950 . S
C86 C81 1.386 . S
C86 C85 1.367 . S
C87 C81 1.483 . S
C87 C88 1.382 . S
C87 C89 1.403 . S
C88 H61 0.950 1_455 S
C88 C74 1.411 . S
C88 C87 1.382 . S
C89 C73 1.411 . S
C89 C87 1.403 . S
C89 C90 1.489 . S
C90 C89 1.489 . S
C90 C91 1.383 1_455 S
C90 C95 1.382 . S
C91 H62 0.950 . S
C91 C90 1.383 1_655 S
C91 C92 1.395 . S
C92 H63 0.950 . S
C92 C91 1.395 . S
C92 C93 1.288 1_655 S
C93 C92 1.288 1_455 S
C93 C94 1.392 . S
C94 H64 0.951 . S
C94 C93 1.392 . S
C94 C95 1.392 . S
C95 H65 0.949 . S
C95 C90 1.382 . S
C95 C94 1.392 . S
Li96 N113 1.990 . S
Li96 O156 1.956 . S
Li96 O157 1.970 1_455 S
Li96 O158 1.961 . S
Li97 N121 1.990 . S
Li97 O156 1.970 1_565 S
Li97 O157 1.956 1_465 S
Li97 O159 1.961 . S
Li98 N143 1.990 . S
Li98 O156 1.961 . S
Li98 O158 1.956 . S
Li98 O159 1.970 1_545 S
Li99 N149 1.990 . S
Li99 O157 1.961 . S
Li99 O158 1.970 1_655 S
Li99 O159 1.956 1_645 S
C100 C102 1.348 1_545 S
C100 C103 1.356 . S
C100 O156 1.325 . S
N101 C104 1.314 1_545 S
N101 C105 1.279 . S
C102 C100 1.348 1_565 S
C102 C104 1.353 . S
C102 H160 0.929 . S
C103 C100 1.356 . S
C103 C105 1.358 . S
C103 H161 0.930 . S
C104 N101 1.314 1_565 S
C104 C102 1.353 . S
C104 H162 0.930 . S
C105 N101 1.279 . S
C105 C103 1.358 . S
C105 H163 0.930 . S
C106 C109 1.348 . S
C106 C110 1.356 1_545 S
C106 O157 1.325 . S
C107 N108 1.279 1_565 S
C107 C110 1.358 . S
C107 H164 0.930 . S
N108 C107 1.279 1_545 S
N108 C111 1.314 . S
C109 C106 1.348 . S
C109 C111 1.353 . S
C109 H165 0.929 . S
C110 C106 1.356 1_565 S
C110 C107 1.358 . S
C110 H166 0.930 . S
C111 N108 1.314 . S
C111 C109 1.353 . S
C111 H167 0.930 . S
C112 N113 1.314 1_655 S
C112 C117 1.353 . S
C112 H118 0.930 . S
N113 Li96 1.990 . S
N113 C112 1.314 1_455 S
N113 C115 1.279 . S
C114 C115 1.358 . S
C114 C116 1.356 . S
C114 H168 0.930 . S
C115 N113 1.279 . S
C115 C114 1.358 . S
C115 H119 0.930 . S
C116 C114 1.356 . S
C116 C117 1.348 1_455 S
C117 C112 1.353 . S
C117 C116 1.348 1_655 S
C117 H169 0.929 . S
H118 C112 0.930 . S
H119 C115 0.930 . S
C120 N121 1.314 . S
C120 C122 1.353 . S
C120 H126 0.930 . S
N121 Li97 1.990 . S
N121 C120 1.314 . S
N121 C124 1.279 1_455 S
C122 C120 1.353 . S
C122 C125 1.348 . S
C122 H170 0.929 . S
C123 C124 1.358 . S
C123 C125 1.356 1_655 S
C123 H171 0.930 . S
C124 N121 1.279 1_655 S
C124 C123 1.358 . S
C124 H127 0.930 . S
C125 C122 1.348 . S
C125 C123 1.356 1_455 S
H126 C120 0.930 . S
H127 C124 0.930 . S
C128 C130 1.348 1_455 S
C128 C131 1.356 . S
C128 O158 1.325 . S
N129 C132 1.314 1_455 S
N129 C133 1.279 . S
C130 C128 1.348 1_655 S
C130 C132 1.353 . S
C130 H172 0.929 . S
C131 C128 1.356 . S
C131 C133 1.358 . S
C131 H173 0.930 . S
C132 N129 1.314 1_655 S
C132 C130 1.353 . S
C132 H174 0.930 . S
C133 N129 1.279 . S
C133 C131 1.358 . S
C133 H175 0.930 . S
C134 C135 1.348 . S
C134 C136 1.356 1_455 S
C134 O159 1.325 . S
C135 C134 1.348 . S
C135 C137 1.353 . S
C135 H176 0.929 . S
C136 C134 1.356 1_655 S
C136 C138 1.358 . S
C136 H177 0.930 . S
C137 C135 1.353 . S
C137 N139 1.314 . S
C137 H178 0.930 . S
C138 C136 1.358 . S
C138 N139 1.279 1_655 S
C138 H179 0.930 . S
N139 C137 1.314 . S
N139 C138 1.279 1_455 S
C140 C142 1.353 . S
C140 N143 1.314 1_565 S
C140 H146 0.930 . S
C141 N143 1.279 . S
C141 C144 1.358 . S
C141 H147 0.930 . S
C142 C140 1.353 . S
C142 C145 1.348 1_565 S
C142 H180 0.929 . S
N143 Li98 1.990 . S
N143 C140 1.314 1_545 S
N143 C141 1.279 . S
C144 C141 1.358 . S
C144 C145 1.356 . S
C144 H181 0.930 . S
C145 C142 1.348 1_545 S
C145 C144 1.356 . S
H146 C140 0.930 . S
H147 C141 0.930 . S
C148 N149 1.314 . S
C148 C150 1.353 . S
C148 H154 0.930 . S
N149 Li99 1.990 . S
N149 C148 1.314 . S
N149 C152 1.279 1_545 S
C150 C148 1.353 . S
C150 C153 1.348 . S
C150 H182 0.929 . S
C151 C152 1.358 . S
C151 C153 1.356 1_565 S
C151 H183 0.930 . S
C152 N149 1.279 1_565 S
C152 C151 1.358 . S
C152 H155 0.930 . S
C153 C150 1.348 . S
C153 C151 1.356 1_545 S
H154 C148 0.930 . S
H155 C152 0.930 . S
O156 Li96 1.956 . S
O156 Li97 1.970 1_545 S
O156 Li98 1.961 . S
O156 C100 1.325 . S
O157 Li96 1.970 1_655 S
O157 Li97 1.956 1_645 S
O157 Li99 1.961 . S
O157 C106 1.325 . S
O158 Li96 1.961 . S
O158 Li98 1.956 . S
O158 Li99 1.970 1_455 S
O158 C128 1.325 . S
O159 Li97 1.961 . S
O159 Li98 1.970 1_565 S
O159 Li99 1.956 1_465 S
O159 C134 1.325 . S
H160 C102 0.929 . S
H161 C103 0.930 . S
H162 C104 0.930 . S
H163 C105 0.930 . S
H164 C107 0.930 . S
H165 C109 0.929 . S
H166 C110 0.930 . S
H167 C111 0.930 . S
H168 C114 0.930 . S
H169 C117 0.929 . S
H170 C122 0.929 . S
H171 C123 0.930 . S
H172 C130 0.929 . S
H173 C131 0.930 . S
H174 C132 0.930 . S
H175 C133 0.930 . S
H176 C135 0.929 . S
H177 C136 0.930 . S
H178 C137 0.930 . S
H179 C138 0.930 . S
H180 C142 0.929 . S
H181 C144 0.930 . S
H182 C150 0.929 . S
H183 C151 0.930 . S
Li184 N201 1.990 . S
Li184 O244 1.956 1_655 S
Li184 O245 1.970 1_645 S
Li184 O246 1.961 . S
Li185 N209 1.990 . S
Li185 O244 1.970 . S
Li185 O245 1.956 1_545 S
Li185 O247 1.961 . S
Li186 N231 1.990 . S
Li186 O244 1.961 . S
Li186 O246 1.956 1_455 S
Li186 O247 1.970 . S
Li187 N237 1.990 . S
Li187 O245 1.961 . S
Li187 O246 1.970 1_465 S
Li187 O247 1.956 1_565 S
C188 C190 1.348 . S
C188 C191 1.356 1_455 S
C188 O244 1.325 . S
N189 C192 1.314 . S
N189 C193 1.279 1_455 S
C190 C188 1.348 . S
C190 C192 1.353 . S
C190 H248 0.929 . S
C191 C188 1.356 1_655 S
C191 C193 1.358 . S
C191 H249 0.930 . S
C192 N189 1.314 . S
C192 C190 1.353 . S
C192 H250 0.930 . S
C193 N189 1.279 1_655 S
C193 C191 1.358 . S
C193 H251 0.930 . S
C194 C197 1.348 1_455 S
C194 C198 1.356 . S
C194 O245 1.325 . S
C195 N196 1.279 . S
C195 C198 1.358 . S
C195 H252 0.930 . S
N196 C195 1.279 . S
N196 C199 1.314 1_455 S
C197 C194 1.348 1_655 S
C197 C199 1.353 . S
C197 H253 0.929 . S
C198 C194 1.356 . S
C198 C195 1.358 . S
C198 H254 0.930 . S
C199 N196 1.314 1_655 S
C199 C197 1.353 . S
C199 H255 0.930 . S
C200 N201 1.314 1_565 S
C200 C205 1.353 . S
C200 H206 0.930 . S
N201 Li184 1.990 . S
N201 C200 1.314 1_545 S
N201 C203 1.279 . S
C202 C203 1.358 . S
C202 C204 1.356 . S
C202 H256 0.930 . S
C203 N201 1.279 . S
C203 C202 1.358 . S
C203 H207 0.930 . S
C204 C202 1.356 . S
C204 C205 1.348 1_545 S
C205 C200 1.353 . S
C205 C204 1.348 1_565 S
C205 H257 0.929 . S
H206 C200 0.930 . S
H207 C203 0.930 . S
C208 N209 1.314 . S
C208 C210 1.353 . S
C208 H214 0.930 . S
N209 Li185 1.990 . S
N209 C208 1.314 . S
N209 C212 1.279 1_545 S
C210 C208 1.353 . S
C210 C213 1.348 . S
C210 H258 0.929 . S
C211 C212 1.358 . S
C211 C213 1.356 1_565 S
C211 H259 0.930 . S
C212 N209 1.279 1_565 S
C212 C211 1.358 . S
C212 H215 0.930 . S
C213 C210 1.348 . S
C213 C211 1.356 1_545 S
H214 C208 0.930 . S
H215 C212 0.930 . S
C216 C218 1.348 1_545 S
C216 C219 1.356 . S
C216 O246 1.325 . S
N217 C220 1.314 1_545 S
N217 C221 1.279 . S
C218 C216 1.348 1_565 S
C218 C220 1.353 . S
C218 H260 0.929 . S
C219 C216 1.356 . S
C219 C221 1.358 . S
C219 H261 0.930 . S
C220 N217 1.314 1_565 S
C220 C218 1.353 . S
C220 H262 0.930 . S
C221 N217 1.279 . S
C221 C219 1.358 . S
C221 H263 0.930 . S
C222 C223 1.348 . S
C222 C224 1.356 1_545 S
C222 O247 1.325 . S
C223 C222 1.348 . S
C223 C225 1.353 . S
C223 H264 0.929 . S
C224 C222 1.356 1_565 S
C224 C226 1.358 . S
C224 H265 0.930 . S
C225 C223 1.353 . S
C225 N227 1.314 . S
C225 H266 0.930 . S
C226 C224 1.358 . S
C226 N227 1.279 1_565 S
C226 H267 0.930 . S
N227 C225 1.314 . S
N227 C226 1.279 1_545 S
C228 C230 1.353 . S
C228 N231 1.314 . S
C228 H234 0.930 . S
C229 N231 1.279 1_655 S
C229 C232 1.358 . S
C229 H235 0.930 . S
C230 C228 1.353 . S
C230 C233 1.348 . S
C230 H268 0.929 . S
N231 Li186 1.990 . S
N231 C228 1.314 . S
N231 C229 1.279 1_455 S
C232 C229 1.358 . S
C232 C233 1.356 1_655 S
C232 H269 0.930 . S
C233 C230 1.348 . S
C233 C232 1.356 1_455 S
H234 C228 0.930 . S
H235 C229 0.930 . S
C236 N237 1.314 1_655 S
C236 C238 1.353 . S
C236 H242 0.930 . S
N237 Li187 1.990 . S
N237 C236 1.314 1_455 S
N237 C240 1.279 . S
C238 C236 1.353 . S
C238 C241 1.348 1_655 S
C238 H270 0.929 . S
C239 C240 1.358 . S
C239 C241 1.356 . S
C239 H271 0.930 . S
C240 N237 1.279 . S
C240 C239 1.358 . S
C240 H243 0.930 . S
C241 C238 1.348 1_455 S
C241 C239 1.356 . S
H242 C236 0.930 . S
H243 C240 0.930 . S
O244 Li184 1.956 1_455 S
O244 Li185 1.970 . S
O244 Li186 1.961 . S
O244 C188 1.325 . S
O245 Li184 1.970 1_465 S
O245 Li185 1.956 1_565 S
O245 Li187 1.961 . S
O245 C194 1.325 . S
O246 Li184 1.961 . S
O246 Li186 1.956 1_655 S
O246 Li187 1.970 1_645 S
O246 C216 1.325 . S
O247 Li185 1.961 . S
O247 Li186 1.970 . S
O247 Li187 1.956 1_545 S
O247 C222 1.325 . S
H248 C190 0.929 . S
H249 C191 0.930 . S
H250 C192 0.930 . S
H251 C193 0.930 . S
H252 C195 0.930 . S
H253 C197 0.929 . S
H254 C198 0.930 . S
H255 C199 0.930 . S
H256 C202 0.930 . S
H257 C205 0.929 . S
H258 C210 0.929 . S
H259 C211 0.930 . S
H260 C218 0.929 . S
H261 C219 0.930 . S
H262 C220 0.930 . S
H263 C221 0.930 . S
H264 C223 0.929 . S
H265 C224 0.930 . S
H266 C225 0.930 . S
H267 C226 0.930 . S
H268 C230 0.929 . S
H269 C232 0.930 . S
H270 C238 0.929 . S
H271 C239 0.930 . S
H272 C280 0.929 . S
H273 C282 0.930 . S
H274 C284 0.930 . S
H275 C287 0.929 . S
H276 C290 0.930 . S
H277 C292 0.960 . S
H278 C292 0.960 . S
H279 C292 0.960 . S
C280 H272 0.929 . S
C280 C281 1.377 . S
C280 C282 1.384 . S
C281 C280 1.377 . S
C281 C287 1.390 1_545 S
C282 H273 0.930 . S
C282 C280 1.384 . S
C282 C283 1.372 . S
C283 C282 1.372 . S
C283 C284 1.400 1_545 S
C283 C288 1.490 . S
C284 H274 0.930 . S
C284 C283 1.400 1_565 S
C284 C287 1.386 . S
H285 C301 0.930 . S
H286 C302 0.936 . S
C287 H275 0.929 . S
C287 C281 1.390 1_565 S
C287 C284 1.386 . S
C288 C283 1.490 . S
C288 C290 1.395 . S
C288 C291 1.403 1_545 S
H289 C295 0.930 . S
C290 H276 0.930 . S
C290 C288 1.395 . S
C290 C293 1.403 . S
C291 C288 1.403 1_565 S
C291 C292 1.524 . S
C291 C295 1.400 . S
C292 H277 0.960 . S
C292 H278 0.960 . S
C292 H279 0.960 . S
C292 C291 1.524 . S
C293 C290 1.403 . S
C293 C294 1.392 . S
C293 C297 1.495 . S
C294 C293 1.392 . S
C294 C295 1.385 1_545 S
C294 C296 1.478 . S
C295 H289 0.930 . S
C295 C291 1.400 . S
C295 C294 1.385 1_565 S
C296 C294 1.478 . S
C296 C298 1.381 . S
C296 C302 1.377 1_545 S
C297 C293 1.495 . S
C297 H303 0.959 . S
C297 H304 0.961 . S
C297 H305 0.960 . S
C298 C296 1.381 . S
C298 C299 1.394 . S
C298 H306 0.930 . S
C299 C298 1.394 . S
C299 C300 1.383 . S
C299 H307 0.929 . S
C300 C299 1.383 . S
C300 C301 1.377 1_545 S
C301 H285 0.930 . S
C301 C300 1.377 1_565 S
C301 C302 1.381 . S
C302 H286 0.936 . S
C302 C296 1.377 1_565 S
C302 C301 1.381 . S
H303 C297 0.959 . S
H304 C297 0.961 . S
H305 C297 0.960 . S
H306 C298 0.930 . S
H307 C299 0.929 . S
H308 C316 0.929 . S
H309 C318 0.930 . S
H310 C320 0.930 . S
H311 C323 0.929 . S
H312 C326 0.930 . S
H313 C328 0.960 . S
H314 C328 0.960 . S
H315 C328 0.960 . S
C316 H308 0.929 . S
C316 C317 1.377 . S
C316 C318 1.384 . S
C317 C316 1.377 . S
C317 C323 1.390 1_455 S
C318 H309 0.930 . S
C318 C316 1.384 . S
C318 C319 1.372 . S
C319 C318 1.372 . S
C319 C320 1.400 1_455 S
C319 C324 1.490 . S
C320 H310 0.930 . S
C320 C319 1.400 1_655 S
C320 C323 1.386 . S
H321 C337 0.930 1_655 S
H322 C338 0.931 1_655 S
C323 H311 0.929 . S
C323 C317 1.390 1_655 S
C323 C320 1.386 . S
C324 C319 1.490 . S
C324 C326 1.395 . S
C324 C327 1.403 1_455 S
H325 C331 0.930 . S
C326 H312 0.930 . S
C326 C324 1.395 . S
C326 C329 1.403 . S
C327 C324 1.403 1_655 S
C327 C328 1.524 . S
C327 C331 1.400 . S
C328 H313 0.960 . S
C328 H314 0.960 . S
C328 H315 0.960 . S
C328 C327 1.524 . S
C329 C326 1.403 . S
C329 C330 1.392 . S
C329 C333 1.495 . S
C330 C329 1.392 . S
C330 C331 1.385 1_455 S
C330 C332 1.478 . S
C331 H325 0.930 . S
C331 C327 1.400 . S
C331 C330 1.385 1_655 S
C332 C330 1.478 . S
C332 C334 1.381 . S
C332 C338 1.383 . S
C333 C329 1.495 . S
C333 H339 0.959 . S
C333 H340 0.961 . S
C333 H341 0.960 . S
C334 C332 1.381 . S
C334 C335 1.394 . S
C334 H342 0.930 . S
C335 C334 1.394 . S
C335 C336 1.383 . S
C335 H343 0.929 . S
C336 C335 1.383 . S
C336 C337 1.377 . S
C337 H321 0.930 1_455 S
C337 C336 1.377 . S
C337 C338 1.379 . S
C338 H322 0.931 1_455 S
C338 C332 1.383 . S
C338 C337 1.379 . S
H339 C333 0.959 . S
H340 C333 0.961 . S
H341 C333 0.960 . S
H342 C334 0.930 . S
H343 C335 0.929 . S
H344 C352 0.929 . S
H345 C354 0.930 . S
H346 C356 0.930 . S
H347 C359 0.929 . S
H348 C362 0.930 . S
H349 C364 0.960 . S
H350 C364 0.960 . S
H351 C364 0.960 . S
C352 H344 0.929 . S
C352 C353 1.377 1_565 S
C352 C354 1.384 . S
C353 C352 1.377 1_545 S
C353 C359 1.390 . S
C354 H345 0.930 . S
C354 C352 1.384 . S
C354 C355 1.372 1_565 S
C355 C354 1.372 1_545 S
C355 C356 1.400 . S
C355 C360 1.490 . S
C356 H346 0.930 . S
C356 C355 1.400 . S
C356 C359 1.386 . S
H357 C373 0.930 . S
H358 C374 0.931 . S
C359 H347 0.929 . S
C359 C353 1.390 . S
C359 C356 1.386 . S
C360 C355 1.490 . S
C360 C362 1.395 1_545 S
C360 C363 1.403 . S
H361 C367 0.930 . S
C362 H348 0.930 . S
C362 C360 1.395 1_565 S
C362 C365 1.403 . S
C363 C360 1.403 . S
C363 C364 1.524 . S
C363 C367 1.400 . S
C364 H349 0.960 . S
C364 H350 0.960 . S
C364 H351 0.960 . S
C364 C363 1.524 . S
C365 C362 1.403 . S
C365 C366 1.392 1_565 S
C365 C369 1.495 . S
C366 C365 1.392 1_545 S
C366 C367 1.385 . S
C366 C368 1.478 . S
C367 H361 0.930 . S
C367 C363 1.400 . S
C367 C366 1.385 . S
C368 C366 1.478 . S
C368 C370 1.381 1_545 S
C368 C374 1.383 . S
C369 C365 1.495 . S
C369 H375 0.959 . S
C369 H376 0.961 1_565 S
C369 H377 0.960 . S
C370 C368 1.381 1_565 S
C370 C371 1.394 . S
C370 H378 0.930 . S
C371 C370 1.394 . S
C371 C372 1.383 1_565 S
C371 H379 0.929 . S
C372 C371 1.383 1_545 S
C372 C373 1.377 . S
C373 H357 0.930 . S
C373 C372 1.377 . S
C373 C374 1.379 . S
C374 H358 0.931 . S
C374 C368 1.383 . S
C374 C373 1.379 . S
H375 C369 0.959 . S
H376 C369 0.961 1_545 S
H377 C369 0.960 . S
H378 C370 0.930 . S
H379 C371 0.929 . S
H380 C388 0.929 . S
H381 C390 0.930 . S
H382 C392 0.930 . S
H383 C395 0.929 . S
H384 C398 0.930 . S
H385 C400 0.960 . S
H386 C400 0.960 . S
H387 C400 0.960 . S
C388 H380 0.929 . S
C388 C389 1.377 1_655 S
C388 C390 1.384 . S
C389 C388 1.377 1_455 S
C389 C395 1.390 . S
C390 H381 0.930 . S
C390 C388 1.384 . S
C390 C391 1.372 1_655 S
C391 C390 1.372 1_455 S
C391 C392 1.400 . S
C391 C396 1.490 . S
C392 H382 0.930 . S
C392 C391 1.400 . S
C392 C395 1.386 . S
H393 C409 0.930 . S
H394 C410 0.931 . S
C395 H383 0.929 . S
C395 C389 1.390 . S
C395 C392 1.386 . S
C396 C391 1.490 . S
C396 C398 1.395 1_455 S
C396 C399 1.403 . S
H397 C403 0.930 . S
C398 H384 0.930 . S
C398 C396 1.395 1_655 S
C398 C401 1.403 . S
C399 C396 1.403 . S
C399 C400 1.524 . S
C399 C403 1.400 . S
C400 H385 0.960 . S
C400 H386 0.960 . S
C400 H387 0.960 . S
C400 C399 1.524 . S
C401 C398 1.403 . S
C401 C402 1.392 1_655 S
C401 C405 1.495 . S
C402 C401 1.392 1_455 S
C402 C403 1.385 . S
C402 C404 1.478 . S
C403 H397 0.930 . S
C403 C399 1.400 . S
C403 C402 1.385 . S
C404 C402 1.478 . S
C404 C406 1.381 1_455 S
C404 C410 1.383 . S
C405 C401 1.495 . S
C405 H411 0.959 . S
C405 H412 0.961 . S
C405 H413 0.960 . S
C406 C404 1.381 1_655 S
C406 C407 1.394 . S
C406 H414 0.930 . S
C407 C406 1.394 . S
C407 C408 1.383 1_655 S
C407 H415 0.929 . S
C408 C407 1.383 1_455 S
C408 C409 1.377 . S
C409 H393 0.930 . S
C409 C408 1.377 . S
C409 C410 1.379 . S
C410 H394 0.931 . S
C410 C404 1.383 . S
C410 C409 1.379 . S
H411 C405 0.959 . S
H412 C405 0.961 . S
H413 C405 0.960 . S
H414 C406 0.930 . S
H415 C407 0.929 . S
H416 C424 0.929 . S
H417 C426 0.930 . S
H418 C428 0.930 . S
H419 C431 0.929 . S
H420 C434 0.930 . S
H421 C436 0.960 . S
H422 C436 0.960 . S
H423 C436 0.960 . S
C424 H416 0.929 . S
C424 C425 1.377 1_565 S
C424 C426 1.384 . S
C425 C424 1.377 1_545 S
C425 C431 1.390 . S
C426 H417 0.930 . S
C426 C424 1.384 . S
C426 C427 1.372 1_565 S
C427 C426 1.372 1_545 S
C427 C428 1.400 . S
C427 C432 1.490 . S
C428 H418 0.930 . S
C428 C427 1.400 . S
C428 C431 1.386 . S
H429 C445 0.930 . S
H430 C446 0.931 . S
C431 H419 0.929 . S
C431 C425 1.390 . S
C431 C428 1.386 . S
C432 C427 1.490 . S
C432 C434 1.395 1_545 S
C432 C435 1.403 . S
H433 C439 0.930 . S
C434 H420 0.930 . S
C434 C432 1.395 1_565 S
C434 C437 1.403 . S
C435 C432 1.403 . S
C435 C436 1.524 . S
C435 C439 1.400 . S
C436 H421 0.960 . S
C436 H422 0.960 . S
C436 H423 0.960 . S
C436 C435 1.524 . S
C437 C434 1.403 . S
C437 C438 1.366 1_565 S
C437 C441 1.495 . S
C438 C437 1.366 1_545 S
C438 C439 1.413 . S
C438 C440 1.478 . S
C439 H433 0.930 . S
C439 C435 1.400 . S
C439 C438 1.413 . S
C440 C438 1.478 . S
C440 C442 1.379 1_545 S
C440 C446 1.387 . S
C441 C437 1.495 . S
C441 H447 0.959 . S
C441 H448 0.961 . S
C441 H449 0.960 . S
C442 C440 1.379 1_565 S
C442 C443 1.394 . S
C442 H450 0.930 . S
C443 C442 1.394 . S
C443 C444 1.383 1_565 S
C443 H451 0.929 . S
C444 C443 1.383 1_545 S
C444 C445 1.377 . S
C445 H429 0.930 . S
C445 C444 1.377 . S
C445 C446 1.379 . S
C446 H430 0.931 . S
C446 C440 1.387 . S
C446 C445 1.379 . S
H447 C441 0.959 . S
H448 C441 0.961 . S
H449 C441 0.960 . S
H450 C442 0.930 . S
H451 C443 0.929 . S
H452 C460 0.929 . S
H453 C462 0.930 . S
H454 C464 0.930 . S
H455 C467 0.929 . S
H456 C470 0.930 . S
H457 C472 0.960 . S
H458 C472 0.960 . S
H459 C472 0.960 . S
C460 H452 0.929 . S
C460 C461 1.377 1_655 S
C460 C462 1.384 . S
C461 C460 1.377 1_455 S
C461 C467 1.390 . S
C462 H453 0.930 . S
C462 C460 1.384 . S
C462 C463 1.372 1_655 S
C463 C462 1.372 1_455 S
C463 C464 1.400 . S
C463 C468 1.490 . S
C464 H454 0.930 . S
C464 C463 1.400 . S
C464 C467 1.386 . S
H465 C481 0.930 . S
H466 C482 0.931 . S
C467 H455 0.929 . S
C467 C461 1.390 . S
C467 C464 1.386 . S
C468 C463 1.490 . S
C468 C470 1.395 1_455 S
C468 C471 1.403 . S
H469 C475 0.930 . S
C470 H456 0.930 . S
C470 C468 1.395 1_655 S
C470 C473 1.403 . S
C471 C468 1.403 . S
C471 C472 1.524 . S
C471 C475 1.400 . S
C472 H457 0.960 . S
C472 H458 0.960 . S
C472 H459 0.960 . S
C472 C471 1.524 . S
C473 C470 1.403 . S
C473 C474 1.405 . S
C473 C477 1.495 . S
C474 C473 1.405 . S
C474 C475 1.371 1_655 S
C474 C476 1.478 . S
C475 H469 0.930 . S
C475 C471 1.400 . S
C475 C474 1.371 1_455 S
C476 C474 1.478 . S
C476 C478 1.390 . S
C476 C482 1.373 1_655 S
C477 C473 1.495 . S
C477 H483 0.959 . S
C477 H484 0.961 . S
C477 H485 0.960 . S
C478 C476 1.390 . S
C478 C479 1.394 . S
C478 H486 0.930 . S
C479 C478 1.394 . S
C479 C480 1.383 1_655 S
C479 H487 0.929 . S
C480 C479 1.383 1_455 S
C480 C481 1.377 . S
C481 H465 0.930 . S
C481 C480 1.377 . S
C481 C482 1.379 . S
C482 H466 0.931 . S
C482 C476 1.373 1_455 S
C482 C481 1.379 . S
H483 C477 0.959 . S
H484 C477 0.961 . S
H485 C477 0.960 . S
H486 C478 0.930 . S
H487 C479 0.929 . S
H488 C496 0.929 . S
H489 C498 0.930 . S
H490 C500 0.930 . S
H491 C503 0.929 . S
H492 C506 0.930 . S
H493 C508 0.960 . S
H494 C508 0.960 . S
H495 C508 0.960 . S
C496 H488 0.929 . S
C496 C497 1.377 1_565 S
C496 C498 1.384 . S
C497 C496 1.377 1_545 S
C497 C503 1.390 . S
C498 H489 0.930 . S
C498 C496 1.384 . S
C498 C499 1.372 1_565 S
C499 C498 1.372 1_545 S
C499 C500 1.400 . S
C499 C504 1.490 . S
C500 H490 0.930 . S
C500 C499 1.400 . S
C500 C503 1.386 . S
H501 C517 0.930 . S
H502 C518 0.931 . S
C503 H491 0.929 . S
C503 C497 1.390 . S
C503 C500 1.386 . S
C504 C499 1.490 . S
C504 C506 1.395 . S
C504 C507 1.403 1_545 S
H505 C511 0.930 . S
C506 H492 0.930 . S
C506 C504 1.395 . S
C506 C509 1.403 . S
C507 C504 1.403 1_565 S
C507 C508 1.524 . S
C507 C511 1.400 . S
C508 H493 0.960 . S
C508 H494 0.960 . S
C508 H495 0.960 . S
C508 C507 1.524 . S
C509 C506 1.403 . S
C509 C510 1.392 . S
C509 C513 1.495 . S
C510 C509 1.392 . S
C510 C511 1.385 1_545 S
C510 C512 1.478 . S
C511 H505 0.930 . S
C511 C507 1.400 . S
C511 C510 1.385 1_565 S
C512 C510 1.478 . S
C512 C514 1.381 1_545 S
C512 C518 1.383 . S
C513 C509 1.495 . S
C513 H519 0.959 . S
C513 H520 0.961 . S
C513 H521 0.960 . S
C514 C512 1.381 1_565 S
C514 C515 1.394 . S
C514 H522 0.930 . S
C515 C514 1.394 . S
C515 C516 1.383 1_565 S
C515 H523 0.929 . S
C516 C515 1.383 1_545 S
C516 C517 1.377 . S
C517 H501 0.930 . S
C517 C516 1.377 . S
C517 C518 1.379 . S
C518 H502 0.931 . S
C518 C512 1.383 . S
C518 C517 1.379 . S
H519 C513 0.959 . S
H520 C513 0.961 . S
H521 C513 0.960 . S
H522 C514 0.930 . S
H523 C515 0.929 . S
H524 C532 0.929 . S
H525 C534 0.930 . S
H526 C536 0.930 . S
H527 C539 0.929 . S
H528 C542 0.930 . S
H529 C544 0.960 . S
H530 C544 0.960 . S
H531 C544 0.960 . S
C532 H524 0.929 . S
C532 C533 1.377 . S
C532 C534 1.384 . S
C533 C532 1.377 . S
C533 C539 1.390 1_455 S
C534 H525 0.930 . S
C534 C532 1.384 . S
C534 C535 1.372 . S
C535 C534 1.372 . S
C535 C536 1.400 1_455 S
C535 C540 1.490 . S
C536 H526 0.930 . S
C536 C535 1.400 1_655 S
C536 C539 1.386 . S
H537 C553 0.930 . S
H538 C554 0.932 1_655 S
C539 H527 0.929 . S
C539 C533 1.390 1_655 S
C539 C536 1.386 . S
C540 C535 1.490 . S
C540 C542 1.395 . S
C540 C543 1.403 1_455 S
H541 C547 0.930 . S
C542 H528 0.930 . S
C542 C540 1.395 . S
C542 C545 1.403 . S
C543 C540 1.403 1_655 S
C543 C544 1.524 . S
C543 C547 1.400 . S
C544 H529 0.960 . S
C544 H530 0.960 . S
C544 H531 0.960 . S
C544 C543 1.524 . S
C545 C542 1.403 . S
C545 C546 1.392 . S
C545 C549 1.495 . S
C546 C545 1.392 . S
C546 C547 1.385 1_455 S
C546 C548 1.478 . S
C547 H541 0.930 . S
C547 C543 1.400 . S
C547 C546 1.385 1_655 S
C548 C546 1.478 . S
C548 C550 1.381 . S
C548 C554 1.382 . S
C549 C545 1.495 . S
C549 H555 0.959 . S
C549 H556 0.961 . S
C549 H557 0.960 . S
C550 C548 1.381 . S
C550 C551 1.394 . S
C550 H558 0.930 . S
C551 C550 1.394 . S
C551 C552 1.383 . S
C551 H559 0.929 . S
C552 C551 1.383 . S
C552 C553 1.377 1_455 S
C553 H537 0.930 . S
C553 C552 1.377 1_655 S
C553 C554 1.380 1_655 S
C554 H538 0.932 1_455 S
C554 C548 1.382 . S
C554 C553 1.380 1_455 S
H555 C549 0.959 . S
H556 C549 0.961 . S
H557 C549 0.960 . S
H558 C550 0.930 . S
H559 C551 0.929 . S
C300 C145 1.513 . S
C281 C45 1.512 . S
C336 C233 1.517 . S
C317 C78 1.513 . S
C372 C153 1.515 . S
C353 C21 1.517 . S
C408 C241 1.515 . S
C389 C84 1.516 . S
C444 C213 1.512 . S
C425 C36 1.517 . S
C480 C116 1.516 . S
C461 C69 1.515 . S
C516 C204 1.512 . S
C497 C30 1.515 . S
C533 C93 1.514 . S
C552 C125 1.516 . S
