# Generated by pormake.
# Topology zzz, (3,6)-cn, num edge types: 1
# Building blocks:
#     Node 0, Type 0, BuildingBlock: BETDAH_clean_linker_0, # of connection points: 3
#     Node 1, Type 0, BuildingBlock: BETDAH_clean_linker_0, # of connection points: 3
#     Node 2, Type 0, BuildingBlock: BETDAH_clean_linker_0, # of connection points: 3
#     Node 3, Type 0, BuildingBlock: BETDAH_clean_linker_0, # of connection points: 3
#     Node 4, Type 0, BuildingBlock: BETDAH_clean_linker_0, # of connection points: 3
#     Node 5, Type 0, BuildingBlock: BETDAH_clean_linker_0, # of connection points: 3
#     Node 6, Type 0, BuildingBlock: BETDAH_clean_linker_0, # of connection points: 3
#     Node 7, Type 0, BuildingBlock: BETDAH_clean_linker_0, # of connection points: 3
#     Node 8, Type 1, BuildingBlock: INOVEN_clean_sbu_0, # of connection points: 6
#     Node 9, Type 1, BuildingBlock: INOVEN_clean_sbu_0, # of connection points: 6
#     Node 10, Type 1, BuildingBlock: INOVEN_clean_sbu_0, # of connection points: 6
#     Node 11, Type 1, BuildingBlock: INOVEN_clean_sbu_0, # of connection points: 6
#     Edge 12, Type (0, 1), BuildingBlock: XUDNAN_clean_linker_2, # of connection points: 2
#     Edge 13, Type (0, 1), BuildingBlock: XUDNAN_clean_linker_2, # of connection points: 2
#     Edge 14, Type (0, 1), BuildingBlock: XUDNAN_clean_linker_2, # of connection points: 2
#     Edge 15, Type (0, 1), BuildingBlock: XUDNAN_clean_linker_2, # of connection points: 2
#     Edge 16, Type (0, 1), BuildingBlock: XUDNAN_clean_linker_2, # of connection points: 2
#     Edge 17, Type (0, 1), BuildingBlock: XUDNAN_clean_linker_2, # of connection points: 2
#     Edge 18, Type (0, 1), BuildingBlock: XUDNAN_clean_linker_2, # of connection points: 2
#     Edge 19, Type (0, 1), BuildingBlock: XUDNAN_clean_linker_2, # of connection points: 2
#     Edge 20, Type (0, 1), BuildingBlock: XUDNAN_clean_linker_2, # of connection points: 2
#     Edge 21, Type (0, 1), BuildingBlock: XUDNAN_clean_linker_2, # of connection points: 2
#     Edge 22, Type (0, 1), BuildingBlock: XUDNAN_clean_linker_2, # of connection points: 2
#     Edge 23, Type (0, 1), BuildingBlock: XUDNAN_clean_linker_2, # of connection points: 2
#     Edge 24, Type (0, 1), BuildingBlock: XUDNAN_clean_linker_2, # of connection points: 2
#     Edge 25, Type (0, 1), BuildingBlock: XUDNAN_clean_linker_2, # of connection points: 2
#     Edge 26, Type (0, 1), BuildingBlock: XUDNAN_clean_linker_2, # of connection points: 2
#     Edge 27, Type (0, 1), BuildingBlock: XUDNAN_clean_linker_2, # of connection points: 2
#     Edge 28, Type (0, 1), BuildingBlock: XUDNAN_clean_linker_2, # of connection points: 2
#     Edge 29, Type (0, 1), BuildingBlock: XUDNAN_clean_linker_2, # of connection points: 2
#     Edge 30, Type (0, 1), BuildingBlock: XUDNAN_clean_linker_2, # of connection points: 2
#     Edge 31, Type (0, 1), BuildingBlock: XUDNAN_clean_linker_2, # of connection points: 2
#     Edge 32, Type (0, 1), BuildingBlock: XUDNAN_clean_linker_2, # of connection points: 2
#     Edge 33, Type (0, 1), BuildingBlock: XUDNAN_clean_linker_2, # of connection points: 2
#     Edge 34, Type (0, 1), BuildingBlock: XUDNAN_clean_linker_2, # of connection points: 2
#     Edge 35, Type (0, 1), BuildingBlock: XUDNAN_clean_linker_2, # of connection points: 2
# Relax obj value: 0.264
# Max RMSD: 0.186
# Mean RMSD: 0.161
data_MOF--net-zzz--node1-INOVEN_clean_sbu_0--node2-BETDAH_clean_linker_0--edge1-XUDNAN_clean_linker_2
_symmetry_space_group_name_H-M    P1
_symmetry_Int_Tables_number       1
_symmetry_cell_setting            triclinic
loop_
_symmetry_equiv_pos_as_xyz
'x, y, z'
_cell_length_a     52.376807
_cell_length_b     52.480017
_cell_length_c     13.463714
_cell_angle_alpha  90.081184
_cell_angle_beta   89.935268
_cell_angle_gamma 90.143574
loop_
_atom_site_label
_atom_site_type_symbol
_atom_site_fract_x
_atom_site_fract_y
_atom_site_fract_z
_atom_type_partial_charge
H0 H 0.81221 0.49832 0.27372 0.0
H1 H 0.73218 0.50477 0.21476 0.0
H2 H 0.76305 0.53171 0.49394 0.0
C3 C 0.79345 0.50469 0.29737 0.0
C4 C 0.79053 0.51587 0.39073 0.0
C5 C 0.77253 0.50062 0.23482 0.0
C6 C 0.7481 0.50798 0.26455 0.0
C7 C 0.74449 0.51959 0.35794 0.0
C8 C 0.76578 0.52316 0.42143 0.0
N9 N 0.71983 0.52779 0.38943 0.0
C10 C 0.69769 0.52514 0.33235 0.0
H11 H 0.98647 0.80821 0.30455 0.0
H12 H 0.99691 0.73151 0.20572 0.0
H13 H 0.02472 0.75494 0.49443 0.0
C14 C 0.99309 0.78909 0.31935 0.0
C15 C 1.00615 0.78445 0.40797 0.0
C16 C 0.98993 0.77029 0.24622 0.0
C17 C 0.99881 0.74565 0.26391 0.0
C18 C 1.01095 0.73962 0.35415 0.0
C19 C 1.01467 0.75921 0.42623 0.0
N20 N 0.0204 0.71442 0.37137 0.0
C21 C 0.01656 0.69387 0.30593 0.0
H22 H 0.72012 0.04456 0.38033 0.0
H23 H 0.79185 0.02951 0.2374 0.0
H24 H 0.75865 0.97384 0.43481 0.0
C25 C 0.73686 0.03259 0.37217 0.0
C26 C 0.73712 1.00862 0.41751 0.0
C27 C 0.75635 0.0401 0.30678 0.0
C28 C 0.77721 0.02391 0.28996 0.0
C29 C 0.7785 1.00019 0.33851 0.0
C30 C 0.7582 0.99254 0.40087 0.0
N31 N 0.79922 0.98308 0.32352 0.0
C32 C 0.82006 0.98706 0.26053 0.0
H33 H 0.54091 0.72093 0.31298 0.0
H34 H 0.53736 0.80048 0.25262 0.0
H35 H 0.519 0.77287 0.54662 0.0
C36 C 0.53807 0.73999 0.34179 0.0
C37 C 0.53054 0.74365 0.44089 0.0
C38 C 0.54108 0.76039 0.27579 0.0
C39 C 0.5355 0.78513 0.30583 0.0
C40 C 0.52727 0.78984 0.40352 0.0
C41 C 0.52501 0.76907 0.47112 0.0
N42 N 0.521 0.81515 0.43465 0.0
C43 C 0.52199 0.83666 0.37273 0.0
H44 H 0.22237 0.55688 0.12896 0.0
H45 H 0.29574 0.54372 0.25884 0.0
H46 H 0.26703 0.49269 0.03332 0.0
C47 C 0.24011 0.54625 0.12913 0.0
C48 C 0.24231 0.52434 0.07034 0.0
C49 C 0.25924 0.5533 0.19654 0.0
C50 C 0.28145 0.53861 0.20423 0.0
C51 C 0.28458 0.51689 0.14378 0.0
C52 C 0.26486 0.50978 0.07775 0.0
N53 N 0.30673 0.50124 0.15032 0.0
C54 C 0.32795 0.50637 0.20988 0.0
H55 H 0.99014 0.21978 0.16721 0.0
H56 H 1.00043 0.29818 0.24238 0.0
H57 H 0.01939 0.27169 0.94669 0.0
C58 C 0.99587 0.23876 0.14415 0.0
C59 C 1.00547 0.24264 0.0482 0.0
C60 C 0.99425 0.25865 0.21325 0.0
C61 C 1.00142 0.28326 0.1869 0.0
C62 C 1.01021 0.28838 0.0902 0.0
C63 C 1.01207 0.26796 0.02052 0.0
N64 N 0.01782 0.31365 0.06326 0.0
C65 C 0.02093 0.33356 0.13213 0.0
H66 H 0.30808 0.98592 0.15978 0.0
H67 H 0.23127 0.99714 0.2638 0.0
H68 H 0.2667 0.05204 0.06843 0.0
C69 C 0.2903 0.99643 0.15781 0.0
C70 C 0.28966 0.01922 0.10441 0.0
C71 C 0.26943 0.98815 0.2152 0.0
C72 C 0.24727 1.00319 0.21856 0.0
C73 C 0.24611 0.02623 0.16486 0.0
C74 C 0.26742 0.03414 0.10836 0.0
N75 N 0.22416 0.04216 0.16731 0.0
C76 C 0.20283 0.03862 0.22804 0.0
H77 H 0.54024 0.3113 0.17971 0.0
H78 H 0.53189 0.23397 0.27796 0.0
H79 H 0.49209 0.25997 0.01578 0.0
C80 C 0.53203 0.29248 0.16926 0.0
C81 C 0.51524 0.2884 0.09015 0.0
C82 C 0.53835 0.27297 0.2359 0.0
C83 C 0.52729 0.24879 0.22505 0.0
C84 C 0.51066 0.24381 0.14514 0.0
C85 C 0.50496 0.26367 0.07707 0.0
N86 N 0.49941 0.21922 0.13139 0.0
C87 C 0.50122 0.19866 0.19753 0.0
Gd88 Gd 0.02371 1.00747 0.82762 0.0
Gd89 Gd 0.99642 0.01702 0.64579 0.0
C90 C 1.01107 0.95847 0.69577 0.0
C91 C 0.0365 0.99849 0.00776 0.0
C92 C 0.02983 0.97455 0.05914 0.0
C93 C 0.04859 0.95575 0.07077 0.0
C94 C 1.00401 0.96748 0.06682 0.0
C95 C 0.01585 0.92281 0.06363 0.0
C96 C 0.99707 0.94186 0.06713 0.0
C97 C 0.04164 0.93005 0.07355 0.0
C98 C 0.05534 0.01506 0.67079 0.0
C99 C 1.00923 0.06653 0.77534 0.0
C100 C 0.98108 0.02584 0.46854 0.0
C101 C 0.98283 0.05133 0.42435 0.0
C102 C 0.96069 0.06362 0.39158 0.0
C103 C 1.00462 0.06592 0.44521 0.0
C104 C 0.98032 0.10494 0.426 0.0
C105 C 1.00327 0.09228 0.44827 0.0
C106 C 0.95957 0.09025 0.39076 0.0
C107 C 0.96522 1.00965 0.80456 0.0
O108 O 1.0141 0.96657 0.78798 0.0
O109 O 1.00686 0.97515 0.6242 0.0
O110 O 0.05243 0.99566 0.93362 0.0
O111 O 0.01732 1.01338 0.98516 0.0
O112 O 0.05914 0.99817 0.73911 0.0
O113 O 0.0355 0.02771 0.69016 0.0
O114 O 1.00432 0.05818 0.68474 0.0
O115 O 1.01524 0.05009 0.84616 0.0
O116 O 0.96538 0.02468 0.5439 0.0
O117 O 1.00287 1.01456 0.48668 0.0
O118 O 0.96166 0.02698 0.73789 0.0
O119 O 0.98473 0.99674 0.78318 0.0
H120 H 0.06867 0.96071 0.06712 0.0
H121 H 0.98901 0.98155 0.0612 0.0
H122 H 0.97699 0.93726 0.06139 0.0
H123 H 0.05663 0.91591 0.07679 0.0
H124 H 0.94362 0.05272 0.37483 0.0
H125 H 0.02202 0.05702 0.47048 0.0
H126 H 0.01985 0.1022 0.4764 0.0
H127 H 0.94195 0.09908 0.36732 0.0
Gd128 Gd 0.52653 0.03318 0.83916 0.0
Gd129 Gd 0.50244 0.99654 0.68656 0.0
C130 C 0.56396 1.00322 0.6928 0.0
C131 C 0.5445 0.0596 0.98484 0.0
C132 C 0.5684 0.07397 0.99509 0.0
C133 C 0.57624 0.08276 0.08835 0.0
C134 C 0.58447 0.0772 0.91258 0.0
C135 C 0.61726 0.09561 0.01849 0.0
C136 C 0.60866 0.08802 0.92406 0.0
C137 C 0.60048 0.09355 0.10006 0.0
C138 C 0.52099 0.05311 0.65393 0.0
C139 C 0.46486 0.02266 0.8459 0.0
C140 C 0.4784 0.97801 0.53598 0.0
C141 C 0.45262 0.96674 0.52907 0.0
C142 C 0.44901 0.94268 0.48541 0.0
C143 C 0.43157 0.97938 0.57073 0.0
C144 C 0.4035 0.94443 0.52321 0.0
C145 C 0.40735 0.96847 0.56705 0.0
C146 C 0.42464 0.9316 0.4824 0.0
C147 C 0.5115 0.96955 0.85665 0.0
O148 O 0.56186 1.01416 0.78089 0.0
O149 O 0.54376 0.99766 0.63761 0.0
O150 O 0.5282 0.06874 0.92055 0.0
O151 O 0.54725 0.03484 0.97794 0.0
O152 O 0.54047 0.05713 0.71101 0.0
O153 O 0.50526 0.03875 0.69862 0.0
O154 O 0.46672 1.00763 0.7675 0.0
O155 O 0.48501 0.03377 0.88707 0.0
O156 O 0.49508 0.96485 0.58651 0.0
O157 O 0.4795 1.00247 0.55521 0.0
O158 O 0.50118 0.96025 0.77724 0.0
O159 O 0.51624 0.99287 0.8415 0.0
H160 H 0.56407 0.08028 0.15276 0.0
H161 H 0.57871 0.07044 0.83993 0.0
H162 H 0.62103 0.08946 0.85977 0.0
H163 H 0.60661 0.09879 0.17414 0.0
H164 H 0.46504 0.93247 0.45375 0.0
H165 H 0.43368 0.99787 0.6056 0.0
H166 H 0.39145 0.97938 0.59571 0.0
H167 H 0.4223 0.91311 0.44769 0.0
Gd168 Gd 0.49861 0.51977 0.84517 0.0
Gd169 Gd 0.53187 0.51042 0.67558 0.0
C170 C 0.51979 0.56788 0.71251 0.0
C171 C 0.48397 0.54104 0.00606 0.0
C172 C 0.49645 0.56467 0.03947 0.0
C173 C 0.48195 0.58619 0.06325 0.0
C174 C 0.52273 0.56753 0.02138 0.0
C175 C 0.51911 0.61346 0.03366 0.0
C176 C 0.53378 0.59155 0.01633 0.0
C177 C 0.4933 0.61037 0.06217 0.0
C178 C 0.47182 0.51014 0.67787 0.0
C179 C 0.50956 0.46155 0.80598 0.0
C180 C 0.55482 0.49081 0.52495 0.0
C181 C 0.56834 0.46639 0.52256 0.0
C182 C 0.57621 0.45526 0.6123 0.0
C183 C 0.57022 0.45251 0.43416 0.0
C184 C 0.58503 0.41551 0.52696 0.0
C185 C 0.57858 0.42724 0.43623 0.0
C186 C 0.58452 0.43004 0.61448 0.0
C187 C 0.55786 0.51963 0.84648 0.0
O188 O 0.51379 0.55923 0.80191 0.0
O189 O 0.52455 0.55162 0.64013 0.0
O190 O 0.47113 0.54343 0.92333 0.0
O191 O 0.49848 0.52078 0.00639 0.0
O192 O 0.46506 0.5024 0.76581 0.0
O193 O 0.4919 0.52356 0.6831 0.0
O194 O 0.52084 0.46996 0.72399 0.0
O195 O 0.50005 0.47765 0.87145 0.0
O196 O 0.56522 0.50839 0.5807 0.0
O197 O 0.53014 0.48885 0.53834 0.0
O198 O 0.56462 0.52834 0.76054 0.0
O199 O 0.53818 0.50602 0.83694 0.0
H200 H 0.46163 0.58448 0.07678 0.0
H201 H 0.53441 0.55135 1.00163 0.0
H202 H 0.55352 0.59275 0.99304 0.0
H203 H 0.48151 0.62661 0.08049 0.0
H204 H 0.57468 0.46565 0.68166 0.0
H205 H 0.56396 0.46073 0.36456 0.0
H206 H 0.57832 0.41643 0.36764 0.0
H207 H 0.58944 0.42158 0.68524 0.0
Gd208 Gd 1.01173 0.49316 0.81038 0.0
Gd209 Gd 0.02249 0.52722 0.65834 0.0
C210 C 0.96515 0.51119 0.66724 0.0
C211 C 0.99039 0.46648 0.94873 0.0
C212 C 0.96503 0.45456 0.95034 0.0
C213 C 0.95316 0.44756 0.86062 0.0
C214 C 0.95104 0.4539 0.03893 0.0
C215 C 0.91285 0.44271 0.94643 0.0
C216 C 0.92506 0.4479 0.03704 0.0
C217 C 0.92715 0.44173 0.85869 0.0
C218 C 0.02783 0.46851 0.6437 0.0
C219 C 0.06861 0.5088 0.80607 0.0
C220 C 0.04343 0.55324 0.51671 0.0
C221 C 0.06759 0.56735 0.51018 0.0
C222 C 0.07706 0.57461 0.41731 0.0
C223 C 0.08203 0.57236 0.59592 0.0
C224 C 0.11592 0.59058 0.49479 0.0
C225 C 0.10611 0.58376 0.58821 0.0
C226 C 0.10095 0.58634 0.40958 0.0
C227 C 1.00669 0.552 0.82486 0.0
O228 O 0.9721 0.50351 0.75635 0.0
O229 O 0.98272 0.51869 0.60363 0.0
O230 O 1.00658 0.45697 0.88515 0.0
O231 O 0.99022 0.49137 0.94802 0.0
O232 O 0.03627 0.46445 0.73238 0.0
O233 O 1.01164 0.48642 0.6452 0.0
O234 O 0.06238 0.51794 0.71796 0.0
O235 O 0.05087 0.50049 0.86667 0.0
O236 O 0.02644 0.56264 0.5773 0.0
O237 O 0.0456 0.52854 0.52472 0.0
O238 O 0.99823 0.55626 0.73632 0.0
O239 O 0.02278 0.53401 0.82298 0.0
H240 H 0.96354 0.44837 0.79101 0.0
H241 H 0.95973 0.45972 0.10832 0.0
H242 H 0.91407 0.44928 0.10509 0.0
H243 H 0.91786 0.43838 0.78799 0.0
H244 H 0.06632 0.57045 0.35062 0.0
H245 H 0.07497 0.56688 0.66847 0.0
H246 H 0.11727 0.58679 0.65483 0.0
H247 H 0.10826 0.59091 0.33641 0.0
H248 H 0.18403 1.00117 0.34997 0.0
H249 H 0.16924 0.07693 0.23667 0.0
H250 H 0.12931 0.0789 0.33494 0.0
H251 H 0.11778 0.97977 0.35173 0.0
H252 H 0.121 0.96187 0.46516 0.0
H253 H 0.14819 0.96619 0.38477 0.0
H254 H 0.17386 0.98556 0.53102 0.0
H255 H 0.14676 0.98127 0.61183 0.0
H256 H 0.16098 1.01238 0.59807 0.0
H257 H 0.09157 0.07313 0.4483 0.0
H258 H 0.05862 0.06001 0.56955 0.0
H259 H 0.09699 0.9876 0.60844 0.0
C260 C 0.17226 0.01807 0.34601 0.0
C261 C 0.1795 0.03895 0.2861 0.0
C262 C 0.16384 0.0608 0.28237 0.0
C263 C 0.14117 0.06206 0.33779 0.0
C264 C 0.13442 0.04124 0.39649 0.0
C265 C 0.14945 0.01962 0.40103 0.0
C266 C 0.13785 1.00007 0.47098 0.0
C267 C 0.13079 0.97552 0.41478 0.0
C268 C 0.15594 0.9945 0.55814 0.0
C269 C 0.11414 1.01416 0.50557 0.0
C270 C 0.1125 0.03784 0.46132 0.0
C271 C 0.09252 0.05452 0.48259 0.0
C272 C 0.07375 0.04683 0.55089 0.0
C273 C 0.07495 0.02264 0.59688 0.0
C274 C 0.09548 1.00616 0.57387 0.0
H275 H 0.53941 0.17699 0.30913 0.0
H276 H 0.46013 0.1686 0.2237 0.0
H277 H 0.45695 0.12914 0.32383 0.0
H278 H 0.55478 0.10918 0.30666 0.0
H279 H 0.57554 0.11103 0.41307 0.0
H280 H 0.57181 0.13828 0.33314 0.0
H281 H 0.55824 0.16582 0.48407 0.0
H282 H 0.56211 0.13871 0.56444 0.0
H283 H 0.53208 0.15539 0.56123 0.0
H284 H 0.46224 0.09063 0.43611 0.0
H285 H 0.47504 0.0575 0.5569 0.0
H286 H 0.55095 0.09054 0.57033 0.0
C287 C 0.52143 0.16677 0.31177 0.0
C288 C 0.49994 0.17579 0.25898 0.0
C289 C 0.47675 0.16199 0.26389 0.0
C290 C 0.47481 0.13951 0.32033 0.0
C291 C 0.4963 0.13096 0.37154 0.0
C292 C 0.51918 0.1442 0.36802 0.0
C293 C 0.53922 0.13109 0.43154 0.0
C294 C 0.56167 0.12185 0.36726 0.0
C295 C 0.54845 0.14881 0.51529 0.0
C296 C 0.52396 0.10872 0.47244 0.0
C297 C 0.4993 0.10886 0.43618 0.0
C298 C 0.48154 0.09032 0.46464 0.0
C299 C 0.489 0.07147 0.53309 0.0
C300 C 0.514 0.07126 0.57305 0.0
C301 C 0.53172 0.09003 0.54089 0.0
H302 H 0.33837 0.48938 0.39648 0.0
H303 H 0.37009 0.53154 0.14892 0.0
H304 H 0.41097 0.5364 0.23996 0.0
H305 H 0.36882 0.52631 0.59151 0.0
H306 H 0.37419 0.4991 0.67026 0.0
H307 H 0.34756 0.49927 0.58572 0.0
H308 H 0.36351 0.45701 0.50799 0.0
H309 H 0.39029 0.45682 0.59183 0.0
H310 H 0.39557 0.45523 0.45965 0.0
H311 H 0.44865 0.53609 0.35803 0.0
H312 H 0.47955 0.5322 0.49612 0.0
H313 H 0.42334 0.49014 0.66727 0.0
C314 C 0.35393 0.49977 0.36212 0.0
C315 C 0.35125 0.51025 0.26621 0.0
C316 C 0.3719 0.52355 0.22274 0.0
C317 C 0.39515 0.52631 0.27376 0.0
C318 C 0.39739 0.51561 0.36821 0.0
C319 C 0.37729 0.5027 0.41223 0.0
C320 C 0.38467 0.49305 0.51445 0.0
C321 C 0.36781 0.50516 0.59525 0.0
C322 C 0.38344 0.46379 0.51868 0.0
C323 C 0.41201 0.50254 0.52118 0.0
C324 C 0.41902 0.51545 0.43594 0.0
C325 C 0.44333 0.52604 0.42511 0.0
C326 C 0.46079 0.5237 0.50384 0.0
C327 C 0.45389 0.51089 0.59247 0.0
C328 C 0.42922 0.49999 0.60041 0.0
H329 H 0.99195 0.37544 0.18388 0.0
H330 H 0.06194 0.33515 0.25095 0.0
H331 H 0.07209 0.36688 0.38122 0.0
H332 H 0.01754 0.4401 0.22454 0.0
H333 H 0.98839 0.45172 0.2794 0.0
H334 H 0.98735 0.42633 0.18904 0.0
H335 H 0.96253 0.39835 0.31501 0.0
H336 H 0.96401 0.42355 0.40577 0.0
H337 H 0.97619 0.3924 0.43563 0.0
H338 H 0.0742 0.40162 0.50711 0.0
H339 H 0.06789 0.43683 0.62551 0.0
H340 H 0.99664 0.45639 0.48071 0.0
C341 C 1.00945 0.37349 0.22589 0.0
C342 C 0.02632 0.35291 0.20735 0.0
C343 C 0.04891 0.35081 0.26388 0.0
C344 C 0.05482 0.36878 0.3379 0.0
C345 C 0.03794 0.38888 0.35467 0.0
C346 C 1.01569 0.39142 0.30057 0.0
C347 C 1.00071 0.41464 0.33593 0.0
C348 C 0.99836 0.43439 0.25227 0.0
C349 C 0.97429 0.40676 0.37544 0.0
C350 C 0.0178 0.42446 0.41935 0.0
C351 C 0.03924 0.40927 0.42789 0.0
C352 C 0.05758 0.41371 0.50071 0.0
C353 C 0.05381 0.43383 0.56774 0.0
C354 C 0.03191 0.44956 0.56238 0.0
C355 C 1.01379 0.445 0.4859 0.0
H356 H 0.83834 0.02446 0.13655 0.0
H357 H 0.85338 0.94862 0.24862 0.0
H358 H 0.89262 0.94636 0.14641 0.0
H359 H 0.85975 1.01305 0.88611 0.0
H360 H 0.87413 0.04405 0.87091 0.0
H361 H 0.84752 0.03999 0.95429 0.0
H362 H 0.87424 0.05917 0.09803 0.0
H363 H 0.90094 0.06327 0.01502 0.0
H364 H 0.90475 0.04536 0.12815 0.0
H365 H 0.9297 0.95185 0.02979 0.0
H366 H 0.96229 0.96486 0.90665 0.0
H367 H 0.92395 0.03736 0.86976 0.0
C368 C 0.85002 1.00748 0.1394 0.0
C369 C 0.84302 0.98666 0.20014 0.0
C370 C 0.85857 0.96471 0.20234 0.0
C371 C 0.88086 0.96327 0.14466 0.0
C372 C 0.88736 0.98402 0.08515 0.0
C373 C 0.87246 1.00575 0.08205 0.0
C374 C 0.88377 0.0252 0.01091 0.0
C375 C 0.86519 0.0309 0.92549 0.0
C376 C 0.89138 0.0497 0.06636 0.0
C377 C 0.90716 1.01093 0.97404 0.0
C378 C 0.90889 0.98724 0.01817 0.0
C379 C 0.92865 0.97043 0.99533 0.0
C380 C 0.94712 0.97802 0.92563 0.0
C381 C 0.94584 1.0022 0.87964 0.0
C382 C 0.92551 0.01881 0.90417 0.0
H383 H 0.50522 0.84186 0.182 0.0
H384 H 0.54072 0.88305 0.42418 0.0
H385 H 0.54215 0.92217 0.32067 0.0
H386 H 0.54069 0.87154 0.98356 0.0
H387 H 0.51395 0.87227 0.89948 0.0
H388 H 0.5158 0.84788 0.99316 0.0
H389 H 0.47127 0.86103 0.05941 0.0
H390 H 0.46932 0.88547 0.96598 0.0
H391 H 0.46573 0.89366 0.09529 0.0
H392 H 0.53947 0.95741 0.18633 0.0
H393 H 0.533 0.98436 0.03651 0.0
H394 H 0.49933 0.91967 0.88452 0.0
C395 C 0.51331 0.85915 0.21295 0.0
C396 C 0.52292 0.85952 0.31092 0.0
C397 C 0.53331 0.88243 0.34914 0.0
C398 C 0.53417 0.90473 0.29081 0.0
C399 C 0.52453 0.90385 0.19411 0.0
C400 C 0.51428 0.88157 0.15564 0.0
C401 C 0.50512 0.88555 0.04994 0.0
C402 C 0.51977 0.86829 0.97726 0.0
C403 C 0.47614 0.88117 0.04225 0.0
C404 C 0.51189 0.91342 0.03449 0.0
C405 C 0.52303 0.92379 0.11826 0.0
C406 C 0.53077 0.94937 0.12047 0.0
C407 C 0.52704 0.9646 0.0351 0.0
C408 C 0.5157 0.95423 0.94859 0.0
C409 C 0.50809 0.92828 0.94925 0.0
H410 H 0.68706 0.54521 0.15069 0.0
H411 H 0.65588 0.49829 0.38598 0.0
H412 H 0.61583 0.4928 0.28993 0.0
H413 H 0.62762 0.57714 0.08649 0.0
H414 H 0.63439 0.57753 0.95524 0.0
H415 H 0.66022 0.57818 0.0435 0.0
H416 H 0.67992 0.53815 0.96073 0.0
H417 H 0.65418 0.53745 0.87221 0.0
H418 H 0.66075 0.50978 0.94707 0.0
H419 H 0.57942 0.49189 0.16579 0.0
H420 H 0.54993 0.49491 0.02277 0.0
H421 H 0.6047 0.54266 0.8681 0.0
C422 C 0.6717 0.53387 0.18173 0.0
C423 C 0.67434 0.52215 0.27546 0.0
C424 C 0.65405 0.50739 0.31415 0.0
C425 C 0.63128 0.50422 0.26019 0.0
C426 C 0.62914 0.51602 0.16769 0.0
C427 C 0.64881 0.53057 0.12874 0.0
C428 C 0.64179 0.54088 0.02711 0.0
C429 C 0.64096 0.57017 0.0282 0.0
C430 C 0.66025 0.53097 0.94706 0.0
C431 C 0.61527 0.52965 0.01434 0.0
C432 C 0.60825 0.51548 0.09649 0.0
C433 C 0.58473 0.50299 0.10126 0.0
C434 C 0.56808 0.50482 0.01969 0.0
C435 C 0.575 0.51899 0.93428 0.0
C436 C 0.59885 0.53171 0.93237 0.0
H437 H 0.04884 0.65669 0.23426 0.0
H438 H 0.97099 0.68422 0.22218 0.0
H439 H 0.95979 0.64949 0.10534 0.0
H440 H 0.05328 0.63864 0.97463 0.0
H441 H 0.07221 0.61062 0.99729 0.0
H442 H 0.07408 0.63735 0.08108 0.0
H443 H 0.06254 0.60786 0.2278 0.0
H444 H 0.06045 0.581 0.14458 0.0
H445 H 0.03369 0.58905 0.22283 0.0
H446 H 0.95725 0.61303 0.98522 0.0
H447 H 0.96342 0.57727 0.86838 0.0
H448 H 0.04256 0.57125 0.9589 0.0
C449 C 0.02944 0.65526 0.20701 0.0
C450 C 1.01065 0.67307 0.23731 0.0
C451 C 0.98556 0.67074 0.20001 0.0
C452 C 0.97905 0.65105 0.13369 0.0
C453 C 0.99787 0.6337 0.10519 0.0
C454 C 0.0226 0.63557 0.14033 0.0
C455 C 0.03917 0.61457 0.09594 0.0
C456 C 0.06097 0.62598 0.03352 0.0
C457 C 0.04957 0.59707 0.17765 0.0
C458 C 0.01991 0.6006 0.03065 0.0
C459 C 0.99624 0.61213 0.03714 0.0
C460 C 0.97562 0.6037 0.9805 0.0
C461 C 0.97928 0.5833 0.91445 0.0
C462 C 1.00326 0.57111 0.90581 0.0
C463 C 0.02381 0.57971 0.96585 0.0
H464 H 0.02732 0.24155 0.34454 0.0
H465 H 0.94749 0.25734 0.30167 0.0
H466 H 0.93613 0.22325 0.4186 0.0
H467 H 0.02287 0.18687 0.28328 0.0
H468 H 0.04547 0.17092 0.36257 0.0
H469 H 0.04906 0.2041 0.33931 0.0
H470 H 0.04781 0.21367 0.5277 0.0
H471 H 0.04441 0.18006 0.55269 0.0
H472 H 0.02157 0.20232 0.60218 0.0
H473 H 0.93254 0.17935 0.47457 0.0
H474 H 0.93646 0.13294 0.46488 0.0
H475 H 0.01856 0.1412 0.4301 0.0
C476 C 1.00765 0.23893 0.36735 0.0
C477 C 0.98827 0.25181 0.31617 0.0
C478 C 0.96254 0.24785 0.34242 0.0
C479 C 0.95601 0.22829 0.4084 0.0
C480 C 0.97546 0.2127 0.44489 0.0
C481 C 1.00105 0.21812 0.42652 0.0
C482 C 0.01762 0.19486 0.44248 0.0
C483 C 0.03466 0.18886 0.35146 0.0
C484 C 0.0338 0.19791 0.5369 0.0
C485 C 0.99718 0.17492 0.45733 0.0
C486 C 0.97328 0.18572 0.46634 0.0
C487 C 0.95126 0.17077 0.46943 0.0
C488 C 0.95368 0.14428 0.46083 0.0
C489 C 0.97787 0.13292 0.44417 0.0
C490 C 0.99979 0.14869 0.44505 0.0
H491 H 0.29286 0.94356 0.17016 0.0
H492 H 0.25645 0.98378 0.41191 0.0
H493 H 0.28081 0.95855 0.53178 0.0
H494 H 0.31731 0.88273 0.322 0.0
H495 H 0.34708 0.88503 0.25527 0.0
H496 H 0.31742 0.89221 0.19338 0.0
H497 H 0.3356 0.93627 0.14307 0.0
H498 H 0.36481 0.92939 0.205 0.0
H499 H 0.34709 0.95756 0.2385 0.0
H500 H 0.31864 0.94431 0.61872 0.0
H501 H 0.36436 0.94588 0.65875 0.0
H502 H 0.38268 0.92194 0.35943 0.0
C503 C 0.28915 0.94591 0.24876 0.0
C504 C 0.27329 0.96591 0.2818 0.0
C505 C 0.26845 0.96853 0.38451 0.0
C506 C 0.28244 0.95423 0.45342 0.0
C507 C 0.30135 0.93771 0.41836 0.0
C508 C 0.30453 0.93324 0.31751 0.0
C509 C 0.33057 0.92185 0.29572 0.0
C510 C 0.32793 0.89378 0.26482 0.0
C511 C 0.34535 0.93722 0.21617 0.0
C512 C 0.34278 0.92403 0.39724 0.0
C513 C 0.32505 0.93132 0.46825 0.0
C514 C 0.33249 0.93811 0.56416 0.0
C515 C 0.35858 0.93928 0.58597 0.0
C516 C 0.37703 0.93461 0.51127 0.0
C517 C 0.36896 0.92525 0.41816 0.0
H518 H 0.58505 0.29411 0.22387 0.0
H519 H 0.52811 0.2687 0.43388 0.0
H520 H 0.54699 0.29634 0.56242 0.0
H521 H 0.63817 0.31538 0.41899 0.0
H522 H 0.64482 0.34261 0.34162 0.0
H523 H 0.63648 0.31245 0.28575 0.0
H524 H 0.60012 0.33469 0.18929 0.0
H525 H 0.60776 0.36452 0.24579 0.0
H526 H 0.57588 0.35179 0.25734 0.0
H527 H 0.55965 0.33622 0.64146 0.0
H528 H 0.56445 0.38248 0.66174 0.0
H529 H 0.61196 0.38547 0.39872 0.0
C530 C 0.5778 0.29326 0.29916 0.0
C531 C 0.55533 0.27944 0.31974 0.0
C532 C 0.54561 0.2789 0.41747 0.0
C533 C 0.55624 0.29469 0.4908 0.0
C534 C 0.57657 0.31069 0.46484 0.0
C535 C 0.58767 0.30966 0.37134 0.0
C536 C 0.60429 0.33282 0.352 0.0
C537 C 0.63262 0.32537 0.34951 0.0
C538 C 0.59649 0.34675 0.25561 0.0
C539 C 0.59833 0.34846 0.44343 0.0
C540 C 0.58343 0.33487 0.51009 0.0
C541 C 0.57206 0.3467 0.59173 0.0
C542 C 0.57486 0.3731 0.60266 0.0
C543 C 0.58853 0.3875 0.53131 0.0
C544 C 0.60153 0.37478 0.45429 0.0
H545 H 0.24998 0.54576 0.38968 0.0
H546 H 0.25042 0.60359 0.16225 0.0
H547 H 0.21957 0.62889 0.25837 0.0
H548 H 0.19199 0.53925 0.4086 0.0
H549 H 0.18754 0.53512 0.54049 0.0
H550 H 0.21782 0.52823 0.48603 0.0
H551 H 0.24058 0.56028 0.60309 0.0
H552 H 0.21027 0.56614 0.66159 0.0
H553 H 0.22872 0.59239 0.61386 0.0
H554 H 0.17849 0.63775 0.33371 0.0
H555 H 0.13402 0.63109 0.38799 0.0
H556 H 0.15791 0.56751 0.56897 0.0
C557 C 0.24503 0.56473 0.3649 0.0
C558 C 0.2527 0.57304 0.27014 0.0
C559 C 0.24512 0.59731 0.2361 0.0
C560 C 0.22744 0.61171 0.29026 0.0
C561 C 0.21773 0.60162 0.3785 0.0
C562 C 0.22686 0.57894 0.4174 0.0
C563 C 0.20968 0.56925 0.49983 0.0
C564 C 0.20126 0.54136 0.48243 0.0
C565 C 0.2231 0.57222 0.60056 0.0
C566 C 0.18758 0.58768 0.49059 0.0
C567 C 0.19316 0.60698 0.42382 0.0
C568 C 0.17424 0.62342 0.38907 0.0
C569 C 0.14896 0.6194 0.41952 0.0
C570 C 0.14276 0.59902 0.48371 0.0
C571 C 0.16246 0.58381 0.52306 0.0
H572 H 0.94855 0.79811 0.19524 0.0
H573 H 0.01631 0.76324 0.0747 0.0
H574 H 0.02147 0.79866 0.95888 0.0
H575 H 0.93552 0.84552 0.95623 0.0
H576 H 0.92623 0.86964 0.04442 0.0
H577 H 0.91713 0.83686 0.06431 0.0
H578 H 0.93793 0.83878 0.23898 0.0
H579 H 0.94707 0.87106 0.21796 0.0
H580 H 0.97108 0.84799 0.24937 0.0
H581 H 0.03273 0.84246 0.92911 0.0
H582 H 0.04329 0.88741 0.95698 0.0
H583 H 0.97216 0.89719 0.11802 0.0
C584 C 0.96314 0.79727 0.13833 0.0
C585 C 0.9825 0.77876 0.14561 0.0
C586 C 1.0014 0.77749 0.07104 0.0
C587 C 1.00461 0.79785 0.00532 0.0
C588 C 0.98855 0.81891 0.01509 0.0
C589 C 0.96729 0.81838 0.07698 0.0
C590 C 0.95727 0.84512 0.09559 0.0
C591 C 0.93259 0.84954 0.03657 0.0
C592 C 0.95318 0.851 0.207 0.0
C593 C 0.97893 0.86057 0.05218 0.0
C594 C 0.99584 0.84529 1.00052 0.0
C595 C 0.01919 0.85468 0.96668 0.0
C596 C 0.02535 0.88019 0.98543 0.0
C597 C 1.0087 0.89595 0.04116 0.0
C598 C 0.98503 0.88596 0.07306 0.0
H599 H 0.74748 0.03872 0.1113 0.0
H600 H 0.75021 0.08959 0.36312 0.0
H601 H 0.72179 0.11953 0.27686 0.0
H602 H 0.73064 0.09175 0.90727 0.0
H603 H 0.70934 0.06933 0.84879 0.0
H604 H 0.73892 0.05845 0.90242 0.0
H605 H 0.71431 0.02592 0.00897 0.0
H606 H 0.68467 0.03626 0.95826 0.0
H607 H 0.6893 0.03684 0.09086 0.0
H608 H 0.6822 0.1339 0.2014 0.0
H609 H 0.63783 0.13231 0.14108 0.0
H610 H 0.65823 0.07146 0.93871 0.0
C611 C 0.74363 0.05717 0.14408 0.0
C612 C 0.7512 0.06221 0.24244 0.0
C613 C 0.74499 0.08581 0.28665 0.0
C614 C 0.72872 0.10286 0.23803 0.0
C615 C 0.71896 0.09602 0.14524 0.0
C616 C 0.72678 0.07396 0.09709 0.0
C617 C 0.70921 0.06758 0.01107 0.0
C618 C 0.72285 0.07204 0.91149 0.0
C619 C 0.69875 0.04007 0.01796 0.0
C620 C 0.68849 0.08721 0.02715 0.0
C621 C 0.69505 0.10426 0.10142 0.0
C622 C 0.67723 0.12127 0.14079 0.0
C623 C 0.65196 0.12008 0.10683 0.0
C624 C 0.64462 0.10178 0.03504 0.0
C625 C 0.66346 0.08613 0.99147 0.0
H626 H 0.50918 0.75436 0.12305 0.0
H627 H 0.58832 0.74955 0.20745 0.0
H628 H 0.59478 0.71462 0.08938 0.0
H629 H 0.49461 0.70113 0.15068 0.0
H630 H 0.47402 0.69295 0.04818 0.0
H631 H 0.47785 0.72555 0.08254 0.0
H632 H 0.49352 0.73783 0.90647 0.0
H633 H 0.48774 0.70524 0.87026 0.0
H634 H 0.51856 0.71962 0.84825 0.0
H635 H 0.58725 0.67088 0.05246 0.0
H636 H 0.56942 0.62807 0.06009 0.0
H637 H 0.49501 0.65784 0.97897 0.0
C638 C 0.52825 0.74731 0.10883 0.0
C639 C 0.54822 0.75424 0.17315 0.0
C640 C 0.57294 0.74452 0.15729 0.0
C641 C 0.57664 0.72444 0.0907 0.0
C642 C 0.55547 0.71475 0.04015 0.0
C643 C 0.53186 0.72675 0.04389 0.0
C644 C 0.511 0.70947 0.00365 0.0
C645 C 0.4881 0.70713 0.0757 0.0
C646 C 0.50222 0.71859 0.90095 0.0
C647 C 0.52558 0.68473 0.99512 0.0
C648 C 0.55136 0.68837 0.01262 0.0
C649 C 0.56745 0.66789 0.03257 0.0
C650 C 0.557 0.64339 0.03715 0.0
C651 C 0.53061 0.63924 0.01992 0.0
C652 C 0.51515 0.6602 0.99388 0.0
H653 H 0.79653 0.52186 0.08191 0.0
H654 H 0.76298 0.45141 0.1834 0.0
H655 H 0.79066 0.42725 0.0688 0.0
H656 H 0.81735 0.50088 0.82307 0.0
H657 H 0.84779 0.51702 0.83522 0.0
H658 H 0.81949 0.53026 0.89102 0.0
H659 H 0.8397 0.53147 0.06319 0.0
H660 H 0.8689 0.51947 0.01314 0.0
H661 H 0.85355 0.50295 0.11437 0.0
H662 H 0.83102 0.41105 0.99983 0.0
H663 H 0.87739 0.40474 0.97202 0.0
H664 H 0.88659 0.48544 0.92103 0.0
C665 C 0.79379 0.5015 0.07358 0.0
C666 C 0.77753 0.48839 0.13888 0.0
C667 C 0.77493 0.46169 0.13129 0.0
C668 C 0.79082 0.44786 0.06704 0.0
C669 C 0.80909 0.46116 0.01176 0.0
C670 C 0.81032 0.48756 0.01348 0.0
C671 C 0.83499 0.4973 0.96936 0.0
C672 C 0.82966 0.51222 0.87377 0.0
C673 C 0.85014 0.5137 0.04452 0.0
C674 C 0.84829 0.47233 0.94855 0.0
C675 C 0.83291 0.45162 0.97135 0.0
C676 C 0.84287 0.42695 0.97734 0.0
C677 C 0.86916 0.42348 0.96214 0.0
C678 C 0.88496 0.4446 0.94156 0.0
C679 C 0.87434 0.46902 0.93201 0.0
H680 H 0.02341 0.19502 0.09902 0.0
H681 H 0.9938 0.23728 0.84796 0.0
H682 H 0.99289 0.19731 0.74903 0.0
H683 H 0.06247 0.14963 0.96093 0.0
H684 H 0.05481 0.12362 0.04316 0.0
H685 H 0.05521 0.15583 0.08965 0.0
H686 H 1.00891 0.15036 0.15294 0.0
H687 H 1.00819 0.11822 0.10615 0.0
H688 H 0.98427 0.14072 0.06731 0.0
H689 H 0.9928 0.15124 0.68099 0.0
H690 H 0.99402 0.1049 0.6501 0.0
H691 H 0.02258 0.09259 0.94832 0.0
C692 C 0.01689 0.19605 0.02289 0.0
C693 C 1.00855 0.21959 0.98181 0.0
C694 C 1.00057 0.21979 0.88125 0.0
C695 C 0.99985 0.19705 0.82465 0.0
C696 C 1.00737 0.17412 0.86902 0.0
C697 C 0.01589 0.17358 0.96596 0.0
C698 C 0.02184 0.14647 0.99858 0.0
C699 C 0.05028 0.14374 0.02459 0.0
C700 C 1.00479 0.13848 0.08642 0.0
C701 C 1.01518 0.1316 0.90512 0.0
C702 C 1.00699 0.1479 0.83097 0.0
C703 C 0.99939 0.13848 0.73857 0.0
C704 C 1.00023 0.11197 0.72152 0.0
C705 C 1.00863 0.09477 0.79603 0.0
C706 C 0.01615 0.10499 0.88923 0.0
H707 H 0.31939 0.99126 0.97794 0.0
H708 H 0.31455 0.06516 0.12054 0.0
H709 H 0.35865 0.075 0.06507 0.0
H710 H 0.38186 0.97814 0.04725 0.0
H711 H 0.39074 0.96223 0.93365 0.0
H712 H 0.35793 0.96226 0.97347 0.0
H713 H 0.34408 0.98196 0.80578 0.0
H714 H 0.37687 0.98165 0.76536 0.0
H715 H 0.35905 1.01097 0.7633 0.0
H716 H 0.40553 0.07405 0.01242 0.0
H717 H 0.44895 0.06483 0.94912 0.0
H718 H 0.42237 0.99196 0.8367 0.0
C719 C 0.32736 1.00982 0.99504 0.0
C720 C 0.31346 0.02757 0.05287 0.0
C721 C 0.32466 0.05149 0.07487 0.0
C722 C 0.3498 0.05711 0.04448 0.0
C723 C 0.36336 0.03869 0.99121 0.0
C724 C 0.35229 0.01572 0.96505 0.0
C725 C 0.37115 0.99865 0.91156 0.0
C726 C 0.37568 0.97387 0.96999 0.0
C727 C 0.36222 0.993 0.80513 0.0
C728 C 0.3947 0.01546 0.91204 0.0
C729 C 0.38994 0.0384 0.95916 0.0
C730 C 0.40929 0.05633 0.97394 0.0
C731 C 0.43395 0.05085 0.93831 0.0
C732 C 0.43904 0.02778 0.8873 0.0
C733 C 0.41904 1.00993 0.87421 0.0
H734 H 0.50071 0.3365 0.14575 0.0
H735 H 0.51806 0.29108 0.88548 0.0
H736 H 0.51649 0.33012 0.78146 0.0
H737 H 0.45763 0.38241 0.02371 0.0
H738 H 0.46921 0.40862 0.09782 0.0
H739 H 0.46915 0.37679 0.14787 0.0
H740 H 0.51753 0.38078 0.18458 0.0
H741 H 0.51784 0.41247 0.13364 0.0
H742 H 0.53919 0.38861 0.08502 0.0
H743 H 0.51755 0.37571 0.70964 0.0
H744 H 0.51826 0.42204 0.67529 0.0
H745 H 0.49929 0.43722 0.98343 0.0
C746 C 0.5036 0.33464 0.0664 0.0
C747 C 0.50935 0.31058 0.02372 0.0
C748 C 0.51321 0.30912 0.91972 0.0
C749 C 0.51256 0.33129 0.86027 0.0
C750 C 0.50772 0.35482 0.90562 0.0
C751 C 0.50293 0.35649 0.00634 0.0
C752 C 0.49929 0.384 0.0385 0.0
C753 C 0.47221 0.3882 0.07937 0.0
C754 C 0.51967 0.39192 0.11493 0.0
C755 C 0.50311 0.39777 0.94053 0.0
C756 C 0.50801 0.38067 0.86461 0.0
C757 C 0.51342 0.38914 0.76854 0.0
C758 C 0.5138 0.41558 0.7497 0.0
C759 C 0.50851 0.43348 0.82614 0.0
C760 C 0.503 0.4242 0.92268 0.0
H761 H 0.20874 0.55384 0.96222 0.0
H762 H 0.22343 0.47566 0.04962 0.0
H763 H 0.18179 0.46279 0.97956 0.0
H764 H 0.14411 0.55339 0.03326 0.0
H765 H 0.13338 0.57372 0.93401 0.0
H766 H 0.16564 0.57632 0.9789 0.0
H767 H 0.18259 0.56897 0.80179 0.0
H768 H 0.15051 0.56611 0.75554 0.0
H769 H 0.17308 0.54085 0.73344 0.0
H770 H 0.13602 0.45955 0.92261 0.0
H771 H 0.09135 0.46544 0.86756 0.0
H772 H 0.10637 0.54541 0.81284 0.0
C773 C 0.20346 0.5339 0.96515 0.0
C774 C 0.2196 0.51575 0.01143 0.0
C775 C 0.2118 0.48988 0.01322 0.0
C776 C 0.188 0.48242 0.97438 0.0
C777 C 0.17218 0.501 0.93331 0.0
C778 C 0.17972 0.52618 0.92735 0.0
C779 C 0.15849 0.5427 0.88581 0.0
C780 C 0.1499 0.5627 0.96258 0.0
C781 C 0.16668 0.55537 0.7882 0.0
C782 C 0.13783 0.5229 0.86864 0.0
C783 C 0.14604 0.499 0.89778 0.0
C784 C 0.12962 0.47805 0.8976 0.0
C785 C 0.10429 0.48158 0.86663 0.0
C786 C 0.09567 0.50574 0.8346 0.0
C787 C 0.11273 0.52662 0.83472 0.0
H788 H 0.02161 0.83287 0.35579 0.0
H789 H 1.00053 0.78775 0.61288 0.0
H790 H 1.001 0.82704 0.7163 0.0
H791 H 0.06233 0.87939 0.48425 0.0
H792 H 0.05166 0.90537 0.40739 0.0
H793 H 0.05242 0.87344 0.35812 0.0
H794 H 1.00503 0.87738 0.31128 0.0
H795 H 1.00338 0.90891 0.36315 0.0
H796 H 0.98171 0.88453 0.40592 0.0
H797 H 1.00005 0.87274 0.78758 0.0
H798 H 1.00132 0.91899 0.82424 0.0
H799 H 0.02031 0.9342 0.5164 0.0
C800 C 0.01731 0.83106 0.43417 0.0
C801 C 1.01089 0.80694 0.47581 0.0
C802 C 1.00575 0.80573 0.57904 0.0
C803 C 1.00573 0.82808 0.63812 0.0
C804 C 1.01097 0.85161 0.59321 0.0
C805 C 0.01692 0.85312 0.49348 0.0
C806 C 0.0209 0.88066 0.46142 0.0
C807 C 0.04847 0.88496 0.42572 0.0
C808 C 1.00159 0.88831 0.38075 0.0
C809 C 0.01586 0.89464 0.55835 0.0
C810 C 1.0104 0.87758 0.63376 0.0
C811 C 1.00492 0.88612 0.72966 0.0
C812 C 1.00556 0.91252 0.74961 0.0
C813 C 1.01099 0.93042 0.6735 0.0
C814 C 0.01606 0.92115 0.57644 0.0
H815 H 0.70988 0.03347 0.56314 0.0
H816 H 0.71032 0.96472 0.38444 0.0
H817 H 0.66682 0.95429 0.44379 0.0
H818 H 0.67205 1.00615 0.77554 0.0
H819 H 0.65571 0.03593 0.7953 0.0
H820 H 0.68789 0.0358 0.74764 0.0
H821 H 0.67267 0.06272 0.59762 0.0
H822 H 0.64043 0.06215 0.6439 0.0
H823 H 0.64722 0.05077 0.52027 0.0
H824 H 0.62086 0.95505 0.50176 0.0
H825 H 0.57803 0.96385 0.57159 0.0
H826 H 0.60811 0.03062 0.72169 0.0
C827 C 0.70108 0.01583 0.53894 0.0
C828 C 0.71361 0.99975 0.46982 0.0
C829 C 0.70133 0.97704 0.43871 0.0
C830 C 0.67652 0.97109 0.47145 0.0
C831 C 0.66435 0.9878 0.5368 0.0
C832 C 0.67646 1.00942 0.57214 0.0
C833 C 0.65884 0.0247 0.63911 0.0
C834 C 0.66924 0.02569 0.74574 0.0
C835 C 0.65454 0.05167 0.59769 0.0
C836 C 0.63467 1.00877 0.63334 0.0
C837 C 0.63821 0.98762 0.57358 0.0
C838 C 0.61805 0.97122 0.5505 0.0
C839 C 0.59376 0.97644 0.59001 0.0
C840 C 0.58982 0.99767 0.65314 0.0
C841 C 0.61067 1.01391 0.67545 0.0
H842 H 0.557 0.69757 0.43217 0.0
H843 H 0.49761 0.73581 0.60135 0.0
H844 H 0.49037 0.69603 0.6956 0.0
H845 H 0.52148 0.64027 0.40159 0.0
H846 H 0.5492 0.62001 0.40518 0.0
H847 H 0.55202 0.65225 0.3609 0.0
H848 H 0.58734 0.66118 0.49099 0.0
H849 H 0.58461 0.62895 0.53584 0.0
H850 H 0.58098 0.65531 0.62061 0.0
H851 H 0.49035 0.65089 0.77484 0.0
H852 H 0.49269 0.60472 0.8113 0.0
H853 H 0.54712 0.59507 0.57146 0.0
C854 C 0.54225 0.69795 0.48837 0.0
C855 C 0.52781 0.72044 0.50761 0.0
C856 C 0.50939 0.71942 0.58505 0.0
C857 C 0.50507 0.69673 0.63924 0.0
C858 C 0.51918 0.67492 0.61573 0.0
C859 C 0.53716 0.67537 0.54086 0.0
C860 C 0.54814 0.64896 0.52265 0.0
C861 C 0.54236 0.63984 0.4163 0.0
C862 C 0.57698 0.64859 0.5438 0.0
C863 C 0.53354 0.63337 0.59893 0.0
C864 C 0.51737 0.64878 0.65375 0.0
C865 C 0.50271 0.63874 0.73117 0.0
C866 C 0.50423 0.61242 0.75157 0.0
C867 C 0.51982 0.59604 0.69349 0.0
C868 C 0.53474 0.60689 0.61644 0.0
H869 H 0.83794 0.53525 0.3431 0.0
H870 H 0.79585 0.49834 0.58043 0.0
H871 H 0.83617 0.49284 0.67338 0.0
H872 H 0.89216 0.49531 0.35663 0.0
H873 H 0.91523 0.5199 0.32977 0.0
H874 H 0.88311 0.52253 0.28321 0.0
H875 H 0.87831 0.56654 0.36816 0.0
H876 H 0.91052 0.56422 0.41407 0.0
H877 H 0.88452 0.56957 0.49934 0.0
H878 H 0.88022 0.49173 0.74215 0.0
H879 H 0.92606 0.49297 0.78048 0.0
H880 H 0.94095 0.52939 0.49672 0.0
C881 C 0.83707 0.52689 0.41654 0.0
C882 C 0.81355 0.51774 0.45567 0.0
C883 C 0.81336 0.50626 0.55056 0.0
C884 C 0.83616 0.5031 0.60402 0.0
C885 C 0.85894 0.51217 0.5633 0.0
C886 C 0.85962 0.52392 0.4718 0.0
C887 C 0.88696 0.53049 0.44245 0.0
C888 C 0.89482 0.51621 0.34738 0.0
C889 C 0.89027 0.55943 0.43031 0.0
C890 C 0.90153 0.52072 0.5323 0.0
C891 C 0.88486 0.51027 0.60081 0.0
C892 C 0.89346 0.5 0.68973 0.0
C893 C 0.91968 0.50064 0.71027 0.0
C894 C 0.93739 0.51105 0.64148 0.0
C895 C 0.92805 0.5212 0.55091 0.0
loop_
_geom_bond_atom_site_label_1
_geom_bond_atom_site_label_2
_geom_bond_distance
_geom_bond_site_symmetry_2
_ccdc_geom_bond_type
H0 C3 0.929 . S
H1 C6 0.929 . S
H2 C8 0.930 . S
C3 H0 0.929 . S
C3 C4 1.398 . S
C3 C5 1.396 . S
C4 C3 1.398 . S
C4 C8 1.407 . S
C5 C3 1.396 . S
C5 C6 1.394 . S
C6 H1 0.929 . S
C6 C5 1.394 . S
C6 C7 1.382 . S
C7 C6 1.382 . S
C7 C8 1.392 . S
C7 N9 1.420 . S
C8 H2 0.930 . S
C8 C4 1.407 . S
C8 C7 1.392 . S
N9 C7 1.420 . S
N9 C10 1.244 . S
C10 N9 1.244 . S
H11 C14 0.929 . S
H12 C17 0.929 . S
H13 C19 0.930 . S
C14 H11 0.929 . S
C14 C15 1.400 . S
C14 C16 1.399 . S
C15 C14 1.400 . S
C15 C19 1.405 1_655 S
C16 C14 1.399 . S
C16 C17 1.389 1_655 S
C17 H12 0.929 . S
C17 C16 1.389 1_455 S
C17 C18 1.382 . S
C18 C17 1.382 . S
C18 C19 1.392 . S
C18 N20 1.420 . S
C19 H13 0.930 . S
C19 C15 1.405 1_455 S
C19 C18 1.392 . S
N20 C18 1.420 . S
N20 C21 1.244 1_455 S
C21 N20 1.244 1_655 S
H22 C25 0.929 . S
H23 C28 0.929 . S
H24 C30 0.930 . S
C25 H22 0.929 . S
C25 C26 1.402 . S
C25 C27 1.396 . S
C26 C25 1.402 . S
C26 C30 1.402 1_565 S
C27 C25 1.396 . S
C27 C28 1.394 1_565 S
C28 H23 0.929 . S
C28 C27 1.394 1_545 S
C28 C29 1.382 . S
C29 C28 1.382 . S
C29 C30 1.392 . S
C29 N31 1.420 . S
C30 H24 0.930 . S
C30 C26 1.402 1_545 S
C30 C29 1.392 . S
N31 C29 1.420 . S
N31 C32 1.244 1_545 S
C32 N31 1.244 1_565 S
H33 C36 0.929 . S
H34 C39 0.929 . S
H35 C41 0.930 . S
C36 H33 0.929 . S
C36 C37 1.398 . S
C36 C38 1.396 . S
C37 C36 1.398 . S
C37 C41 1.407 . S
C38 C36 1.396 . S
C38 C39 1.394 . S
C39 H34 0.929 . S
C39 C38 1.394 . S
C39 C40 1.382 . S
C40 C39 1.382 . S
C40 C41 1.392 . S
C40 N42 1.420 . S
C41 H35 0.930 . S
C41 C37 1.407 . S
C41 C40 1.392 . S
N42 C40 1.420 . S
N42 C43 1.244 . S
C43 N42 1.244 . S
H44 C47 0.929 . S
H45 C50 0.929 . S
H46 C52 0.930 . S
C47 H44 0.929 . S
C47 C48 1.398 . S
C47 C49 1.396 1_556 S
C48 C47 1.398 . S
C48 C52 1.407 . S
C49 C47 1.396 1_554 S
C49 C50 1.394 . S
C50 H45 0.929 . S
C50 C49 1.394 . S
C50 C51 1.382 . S
C51 C50 1.382 . S
C51 C52 1.392 1_554 S
C51 N53 1.420 . S
C52 H46 0.930 . S
C52 C48 1.407 . S
C52 C51 1.392 1_556 S
N53 C51 1.420 . S
N53 C54 1.244 . S
C54 N53 1.244 . S
H55 C58 0.929 1_655 S
H56 C61 0.929 . S
H57 C63 0.930 . S
C58 H55 0.929 1_455 S
C58 C59 1.398 . S
C58 C60 1.396 1_556 S
C59 C58 1.398 . S
C59 C63 1.407 . S
C60 C58 1.396 1_554 S
C60 C61 1.394 . S
C61 H56 0.929 . S
C61 C60 1.394 . S
C61 C62 1.382 . S
C62 C61 1.382 . S
C62 C63 1.392 1_554 S
C62 N64 1.420 . S
C63 H57 0.930 . S
C63 C59 1.407 . S
C63 C62 1.392 1_556 S
N64 C62 1.420 . S
N64 C65 1.244 . S
C65 N64 1.244 . S
H66 C69 0.931 . S
H67 C72 0.929 . S
H68 C74 0.930 . S
C69 H66 0.931 . S
C69 C70 1.397 1_565 S
C69 C71 1.395 1_566 S
C70 C69 1.397 1_545 S
C70 C74 1.407 . S
C71 C69 1.395 1_544 S
C71 C72 1.394 . S
C72 H67 0.929 . S
C72 C71 1.394 . S
C72 C73 1.382 . S
C73 C72 1.382 . S
C73 C74 1.392 1_554 S
C73 N75 1.420 . S
C74 H68 0.930 . S
C74 C70 1.407 . S
C74 C73 1.392 1_556 S
N75 C73 1.420 . S
N75 C76 1.244 . S
C76 N75 1.244 . S
H77 C80 0.929 . S
H78 C83 0.929 . S
H79 C85 0.930 . S
C80 H77 0.929 . S
C80 C81 1.398 . S
C80 C82 1.396 1_556 S
C81 C80 1.398 . S
C81 C85 1.407 . S
C82 C80 1.396 1_554 S
C82 C83 1.394 . S
C83 H78 0.929 . S
C83 C82 1.394 . S
C83 C84 1.382 . S
C84 C83 1.382 . S
C84 C85 1.392 1_554 S
C84 N86 1.420 . S
C85 H79 0.930 . S
C85 C81 1.407 . S
C85 C84 1.392 1_556 S
N86 C84 1.420 . S
N86 C87 1.244 . S
C87 N86 1.244 . S
Gd88 C91 2.818 . S
Gd88 O108 2.377 . S
Gd88 O110 2.448 . S
Gd88 O111 2.506 . S
Gd88 O112 2.435 . S
Gd88 O113 2.717 1_565 S
Gd88 O115 2.395 1_565 S
Gd88 O119 2.327 1_455 S
Gd89 C100 2.818 . S
Gd89 O109 2.395 1_545 S
Gd89 O113 2.327 1_655 S
Gd89 O114 2.377 . S
Gd89 O116 2.448 . S
Gd89 O117 2.506 . S
Gd89 O118 2.435 . S
Gd89 O119 2.717 1_545 S
C90 O108 1.240 1_655 S
C90 O109 1.240 . S
C91 Gd88 2.818 . S
C91 C92 1.510 1_556 S
C91 O110 1.249 . S
C91 O111 1.252 . S
C92 C91 1.510 1_554 S
C92 C93 1.405 . S
C92 C94 1.352 . S
C93 C92 1.405 . S
C93 C97 1.389 . S
C93 H120 0.930 1_554 S
C94 C92 1.352 . S
C94 C96 1.374 . S
C94 H121 0.931 1_455 S
C95 C96 1.359 . S
C95 C97 1.364 . S
C96 C94 1.374 . S
C96 C95 1.359 . S
C96 H122 0.931 1_455 S
C97 C93 1.389 . S
C97 C95 1.364 . S
C97 H123 0.931 . S
C98 O112 1.277 . S
C98 O113 1.247 1_565 S
C99 O114 1.240 1_455 S
C99 O115 1.240 . S
C100 Gd89 2.818 . S
C100 C101 1.510 . S
C100 O116 1.249 . S
C100 O117 1.252 . S
C101 C100 1.510 . S
C101 C102 1.404 . S
C101 C103 1.352 . S
C102 C101 1.404 . S
C102 C106 1.389 . S
C102 H124 0.930 . S
C103 C101 1.352 . S
C103 C105 1.374 . S
C103 H125 0.931 1_655 S
C104 C105 1.359 . S
C104 C106 1.364 . S
C105 C103 1.374 . S
C105 C104 1.359 . S
C105 H126 0.931 1_655 S
C106 C102 1.389 . S
C106 C104 1.364 . S
C106 H127 0.931 . S
C107 O118 1.256 . S
C107 O119 1.257 1_545 S
O108 Gd88 2.377 . S
O108 C90 1.240 1_455 S
O109 Gd89 2.395 1_565 S
O109 C90 1.240 . S
O110 Gd88 2.448 . S
O110 C91 1.249 . S
O111 Gd88 2.506 . S
O111 C91 1.252 . S
O112 Gd88 2.435 . S
O112 C98 1.277 . S
O113 Gd88 2.717 1_545 S
O113 Gd89 2.327 1_455 S
O113 C98 1.247 1_545 S
O114 Gd89 2.377 . S
O114 C99 1.240 1_655 S
O115 Gd88 2.395 1_545 S
O115 C99 1.240 . S
O116 Gd89 2.448 . S
O116 C100 1.249 . S
O117 Gd89 2.506 . S
O117 C100 1.252 . S
O118 Gd89 2.435 . S
O118 C107 1.256 . S
O119 Gd88 2.327 1_655 S
O119 Gd89 2.717 1_565 S
O119 C107 1.257 1_565 S
H120 C93 0.930 1_556 S
H121 C94 0.931 1_655 S
H122 C96 0.931 1_655 S
H123 C97 0.931 . S
H124 C102 0.930 . S
H125 C103 0.931 1_455 S
H126 C105 0.931 1_455 S
H127 C106 0.931 . S
Gd128 C131 2.818 . S
Gd128 O148 2.377 . S
Gd128 O150 2.448 . S
Gd128 O151 2.506 . S
Gd128 O152 2.435 . S
Gd128 O153 2.717 . S
Gd128 O155 2.395 . S
Gd128 O159 2.327 1_545 S
Gd129 C140 2.818 . S
Gd129 O149 2.395 . S
Gd129 O153 2.327 1_565 S
Gd129 O154 2.377 . S
Gd129 O156 2.448 . S
Gd129 O157 2.506 . S
Gd129 O158 2.435 . S
Gd129 O159 2.717 . S
C130 O148 1.240 1_565 S
C130 O149 1.240 . S
C131 Gd128 2.818 . S
C131 C132 1.507 1_556 S
C131 O150 1.249 . S
C131 O151 1.252 . S
C132 C131 1.507 1_554 S
C132 C133 1.406 . S
C132 C134 1.354 . S
C133 C132 1.406 . S
C133 C137 1.389 . S
C133 H160 0.930 1_554 S
C134 C132 1.354 . S
C134 C136 1.374 . S
C134 H161 0.931 1_545 S
C135 C136 1.359 . S
C135 C137 1.364 . S
C136 C134 1.374 . S
C136 C135 1.359 . S
C136 H162 0.931 1_545 S
C137 C133 1.389 . S
C137 C135 1.364 . S
C137 H163 0.931 . S
C138 O152 1.256 . S
C138 O153 1.257 . S
C139 O154 1.240 1_545 S
C139 O155 1.240 . S
C140 Gd129 2.818 . S
C140 C141 1.510 . S
C140 O156 1.249 . S
C140 O157 1.252 . S
C141 C140 1.510 . S
C141 C142 1.404 . S
C141 C143 1.352 . S
C142 C141 1.404 . S
C142 C146 1.389 . S
C142 H164 0.930 . S
C143 C141 1.352 . S
C143 C145 1.374 . S
C143 H165 0.931 1_565 S
C144 C145 1.359 . S
C144 C146 1.364 . S
C145 C143 1.374 . S
C145 C144 1.359 . S
C145 H166 0.931 1_565 S
C146 C142 1.389 . S
C146 C144 1.364 . S
C146 H167 0.931 . S
C147 O158 1.256 . S
C147 O159 1.257 . S
O148 Gd128 2.377 . S
O148 C130 1.240 1_545 S
O149 Gd129 2.395 . S
O149 C130 1.240 . S
O150 Gd128 2.448 . S
O150 C131 1.249 . S
O151 Gd128 2.506 . S
O151 C131 1.252 . S
O152 Gd128 2.435 . S
O152 C138 1.256 . S
O153 Gd128 2.717 . S
O153 Gd129 2.327 1_545 S
O153 C138 1.257 . S
O154 Gd129 2.377 . S
O154 C139 1.240 1_565 S
O155 Gd128 2.395 . S
O155 C139 1.240 . S
O156 Gd129 2.448 . S
O156 C140 1.249 . S
O157 Gd129 2.506 . S
O157 C140 1.252 . S
O158 Gd129 2.435 . S
O158 C147 1.256 . S
O159 Gd128 2.327 1_565 S
O159 Gd129 2.717 . S
O159 C147 1.257 . S
H160 C133 0.930 1_556 S
H161 C134 0.931 1_565 S
H162 C136 0.931 1_565 S
H163 C137 0.931 . S
H164 C142 0.930 . S
H165 C143 0.931 1_545 S
H166 C145 0.931 1_545 S
H167 C146 0.931 . S
Gd168 C171 2.818 . S
Gd168 O188 2.377 . S
Gd168 O190 2.448 . S
Gd168 O191 2.506 . S
Gd168 O192 2.435 . S
Gd168 O193 2.717 . S
Gd168 O195 2.395 . S
Gd168 O199 2.327 . S
Gd169 C180 2.818 . S
Gd169 O189 2.395 . S
Gd169 O193 2.327 . S
Gd169 O194 2.377 . S
Gd169 O196 2.448 . S
Gd169 O197 2.506 . S
Gd169 O198 2.435 . S
Gd169 O199 2.717 . S
C170 O188 1.240 . S
C170 O189 1.240 . S
C171 Gd168 2.818 . S
C171 C172 1.509 1_556 S
C171 O190 1.249 . S
C171 O191 1.252 . S
C172 C171 1.509 1_554 S
C172 C173 1.405 . S
C172 C174 1.353 . S
C173 C172 1.405 . S
C173 C177 1.389 . S
C173 H200 0.930 1_554 S
C174 C172 1.353 . S
C174 C176 1.374 . S
C174 H201 0.931 . S
C175 C176 1.359 . S
C175 C177 1.364 . S
C176 C174 1.374 . S
C176 C175 1.359 . S
C176 H202 0.931 . S
C177 C173 1.389 . S
C177 C175 1.364 . S
C177 H203 0.931 . S
C178 O192 1.256 . S
C178 O193 1.257 . S
C179 O194 1.240 . S
C179 O195 1.240 . S
C180 Gd169 2.818 . S
C180 C181 1.510 . S
C180 O196 1.249 . S
C180 O197 1.252 . S
C181 C180 1.510 . S
C181 C182 1.404 . S
C181 C183 1.352 . S
C182 C181 1.404 . S
C182 C186 1.389 . S
C182 H204 0.930 . S
C183 C181 1.352 . S
C183 C185 1.374 . S
C183 H205 0.931 . S
C184 C185 1.359 . S
C184 C186 1.364 . S
C185 C183 1.374 . S
C185 C184 1.359 . S
C185 H206 0.931 . S
C186 C182 1.389 . S
C186 C184 1.364 . S
C186 H207 0.931 . S
C187 O198 1.256 . S
C187 O199 1.257 . S
O188 Gd168 2.377 . S
O188 C170 1.240 . S
O189 Gd169 2.395 . S
O189 C170 1.240 . S
O190 Gd168 2.448 . S
O190 C171 1.249 . S
O191 Gd168 2.506 . S
O191 C171 1.252 . S
O192 Gd168 2.435 . S
O192 C178 1.256 . S
O193 Gd168 2.717 . S
O193 Gd169 2.327 . S
O193 C178 1.257 . S
O194 Gd169 2.377 . S
O194 C179 1.240 . S
O195 Gd168 2.395 . S
O195 C179 1.240 . S
O196 Gd169 2.448 . S
O196 C180 1.249 . S
O197 Gd169 2.506 . S
O197 C180 1.252 . S
O198 Gd169 2.435 . S
O198 C187 1.256 . S
O199 Gd168 2.327 . S
O199 Gd169 2.717 . S
O199 C187 1.257 . S
H200 C173 0.930 1_556 S
H201 C174 0.931 . S
H202 C176 0.931 . S
H203 C177 0.931 . S
H204 C182 0.930 . S
H205 C183 0.931 . S
H206 C185 0.931 . S
H207 C186 0.931 . S
Gd208 C211 2.818 . S
Gd208 O228 2.377 . S
Gd208 O230 2.448 . S
Gd208 O231 2.506 . S
Gd208 O232 2.435 . S
Gd208 O233 2.717 1_655 S
Gd208 O235 2.395 1_655 S
Gd208 O239 2.327 . S
Gd209 C220 2.818 . S
Gd209 O229 2.395 1_455 S
Gd209 O233 2.327 . S
Gd209 O234 2.377 . S
Gd209 O236 2.448 . S
Gd209 O237 2.506 . S
Gd209 O238 2.435 . S
Gd209 O239 2.717 1_455 S
C210 O228 1.240 . S
C210 O229 1.240 . S
C211 Gd208 2.818 . S
C211 C212 1.511 1_556 S
C211 O230 1.249 . S
C211 O231 1.252 . S
C212 C211 1.511 1_554 S
C212 C213 1.404 . S
C212 C214 1.351 . S
C213 C212 1.404 . S
C213 C217 1.389 . S
C213 H240 0.930 1_554 S
C214 C212 1.351 . S
C214 C216 1.374 . S
C214 H241 0.931 . S
C215 C216 1.359 . S
C215 C217 1.364 . S
C216 C214 1.374 . S
C216 C215 1.359 . S
C216 H242 0.931 . S
C217 C213 1.389 . S
C217 C215 1.364 . S
C217 H243 0.931 . S
C218 O232 1.268 . S
C218 O233 1.251 1_655 S
C219 O234 1.240 . S
C219 O235 1.240 . S
C220 Gd209 2.818 . S
C220 C221 1.510 . S
C220 O236 1.249 . S
C220 O237 1.252 . S
C221 C220 1.510 . S
C221 C222 1.404 . S
C221 C223 1.352 . S
C222 C221 1.404 . S
C222 C226 1.389 . S
C222 H244 0.930 . S
C223 C221 1.352 . S
C223 C225 1.374 . S
C223 H245 0.931 . S
C224 C225 1.359 . S
C224 C226 1.364 . S
C225 C223 1.374 . S
C225 C224 1.359 . S
C225 H246 0.931 . S
C226 C222 1.389 . S
C226 C224 1.364 . S
C226 H247 0.931 . S
C227 O238 1.256 . S
C227 O239 1.257 1_455 S
O228 Gd208 2.377 . S
O228 C210 1.240 . S
O229 Gd209 2.395 1_655 S
O229 C210 1.240 . S
O230 Gd208 2.448 . S
O230 C211 1.249 . S
O231 Gd208 2.506 . S
O231 C211 1.252 . S
O232 Gd208 2.435 . S
O232 C218 1.268 . S
O233 Gd208 2.717 1_455 S
O233 Gd209 2.327 . S
O233 C218 1.251 1_455 S
O234 Gd209 2.377 . S
O234 C219 1.240 . S
O235 Gd208 2.395 1_455 S
O235 C219 1.240 . S
O236 Gd209 2.448 . S
O236 C220 1.249 . S
O237 Gd209 2.506 . S
O237 C220 1.252 . S
O238 Gd209 2.435 . S
O238 C227 1.256 . S
O239 Gd208 2.327 . S
O239 Gd209 2.717 1_655 S
O239 C227 1.257 1_655 S
H240 C213 0.930 1_556 S
H241 C214 0.931 . S
H242 C216 0.931 . S
H243 C217 0.931 . S
H244 C222 0.930 . S
H245 C223 0.931 . S
H246 C225 0.931 . S
H247 C226 0.931 . S
H248 C260 0.930 . S
H249 C262 0.930 . S
H250 C263 0.930 . S
H251 C267 0.959 . S
H252 C267 0.959 . S
H253 C267 0.961 . S
H254 C268 0.960 . S
H255 C268 0.961 . S
H256 C268 0.959 . S
H257 C271 0.929 . S
H258 C272 0.931 . S
H259 C274 0.930 . S
C260 H248 0.930 . S
C260 C261 1.399 1_565 S
C260 C265 1.399 . S
C261 C260 1.399 1_545 S
C261 C262 1.376 . S
C262 H249 0.930 . S
C262 C261 1.376 . S
C262 C263 1.388 . S
C263 H250 0.930 . S
C263 C262 1.388 . S
C263 C264 1.390 . S
C264 C263 1.390 . S
C264 C265 1.394 1_545 S
C264 C270 1.465 . S
C265 C260 1.399 . S
C265 C264 1.394 1_565 S
C265 C266 1.516 . S
C266 C265 1.516 . S
C266 C267 1.502 . S
C266 C268 1.561 . S
C266 C269 1.526 . S
C267 H251 0.959 . S
C267 H252 0.959 . S
C267 H253 0.961 . S
C267 C266 1.502 . S
C268 H254 0.960 . S
C268 H255 0.961 . S
C268 H256 0.959 . S
C268 C266 1.561 . S
C269 C266 1.526 . S
C269 C270 1.396 1_565 S
C269 C274 1.390 . S
C270 C264 1.465 . S
C270 C269 1.396 1_545 S
C270 C271 1.399 . S
C271 H257 0.929 . S
C271 C270 1.399 . S
C271 C272 1.385 . S
C272 H258 0.931 . S
C272 C271 1.385 . S
C272 C273 1.389 . S
C273 C272 1.389 . S
C273 C274 1.387 1_545 S
C274 H259 0.930 . S
C274 C269 1.390 . S
C274 C273 1.387 1_565 S
H275 C287 0.930 . S
H276 C289 0.930 . S
H277 C290 0.930 . S
H278 C294 0.959 . S
H279 C294 0.959 . S
H280 C294 0.961 . S
H281 C295 0.960 . S
H282 C295 0.961 . S
H283 C295 0.959 . S
H284 C298 0.929 . S
H285 C299 0.931 . S
H286 C301 0.930 . S
C287 H275 0.930 . S
C287 C288 1.399 . S
C287 C292 1.399 . S
C288 C287 1.399 . S
C288 C289 1.376 . S
C289 H276 0.930 . S
C289 C288 1.376 . S
C289 C290 1.388 . S
C290 H277 0.930 . S
C290 C289 1.388 . S
C290 C291 1.390 . S
C291 C290 1.390 . S
C291 C292 1.394 . S
C291 C297 1.465 . S
C292 C287 1.399 . S
C292 C291 1.394 . S
C292 C293 1.516 . S
C293 C292 1.516 . S
C293 C294 1.502 . S
C293 C295 1.561 . S
C293 C296 1.526 . S
C294 H278 0.959 . S
C294 H279 0.959 . S
C294 H280 0.961 . S
C294 C293 1.502 . S
C295 H281 0.960 . S
C295 H282 0.961 . S
C295 H283 0.959 . S
C295 C293 1.561 . S
C296 C293 1.526 . S
C296 C297 1.396 . S
C296 C301 1.390 . S
C297 C291 1.465 . S
C297 C296 1.396 . S
C297 C298 1.399 . S
C298 H284 0.929 . S
C298 C297 1.399 . S
C298 C299 1.385 . S
C299 H285 0.931 . S
C299 C298 1.385 . S
C299 C300 1.389 . S
C300 C299 1.389 . S
C300 C301 1.387 . S
C301 H286 0.930 . S
C301 C296 1.390 . S
C301 C300 1.387 . S
H302 C314 0.930 . S
H303 C316 0.930 . S
H304 C317 0.930 . S
H305 C321 0.959 . S
H306 C321 0.959 . S
H307 C321 0.961 . S
H308 C322 0.960 . S
H309 C322 0.961 . S
H310 C322 0.959 . S
H311 C325 0.929 . S
H312 C326 0.931 . S
H313 C328 0.930 . S
C314 H302 0.930 . S
C314 C315 1.399 . S
C314 C319 1.399 . S
C315 C314 1.399 . S
C315 C316 1.376 . S
C316 H303 0.930 . S
C316 C315 1.376 . S
C316 C317 1.388 . S
C317 H304 0.930 . S
C317 C316 1.388 . S
C317 C318 1.390 . S
C318 C317 1.390 . S
C318 C319 1.394 . S
C318 C324 1.465 . S
C319 C314 1.399 . S
C319 C318 1.394 . S
C319 C320 1.516 . S
C320 C319 1.516 . S
C320 C321 1.502 . S
C320 C322 1.561 . S
C320 C323 1.526 . S
C321 H305 0.959 . S
C321 H306 0.959 . S
C321 H307 0.961 . S
C321 C320 1.502 . S
C322 H308 0.960 . S
C322 H309 0.961 . S
C322 H310 0.959 . S
C322 C320 1.561 . S
C323 C320 1.526 . S
C323 C324 1.396 . S
C323 C328 1.390 . S
C324 C318 1.465 . S
C324 C323 1.396 . S
C324 C325 1.399 . S
C325 H311 0.929 . S
C325 C324 1.399 . S
C325 C326 1.385 . S
C326 H312 0.931 . S
C326 C325 1.385 . S
C326 C327 1.389 . S
C327 C326 1.389 . S
C327 C328 1.387 . S
C328 H313 0.930 . S
C328 C323 1.390 . S
C328 C327 1.387 . S
H329 C341 0.930 . S
H330 C343 0.930 . S
H331 C344 0.930 . S
H332 C348 0.959 . S
H333 C348 0.959 . S
H334 C348 0.961 . S
H335 C349 0.960 . S
H336 C349 0.961 . S
H337 C349 0.959 . S
H338 C352 0.929 . S
H339 C353 0.931 . S
H340 C355 0.930 . S
C341 H329 0.930 . S
C341 C342 1.399 1_655 S
C341 C346 1.399 . S
C342 C341 1.399 1_455 S
C342 C343 1.376 . S
C343 H330 0.930 . S
C343 C342 1.376 . S
C343 C344 1.388 . S
C344 H331 0.930 . S
C344 C343 1.388 . S
C344 C345 1.390 . S
C345 C344 1.390 . S
C345 C346 1.394 1_455 S
C345 C351 1.465 . S
C346 C341 1.399 . S
C346 C345 1.394 1_655 S
C346 C347 1.516 . S
C347 C346 1.516 . S
C347 C348 1.502 1_655 S
C347 C349 1.561 . S
C347 C350 1.526 . S
C348 H332 0.959 . S
C348 H333 0.959 . S
C348 H334 0.961 . S
C348 C347 1.502 1_455 S
C349 H335 0.960 . S
C349 H336 0.961 . S
C349 H337 0.959 . S
C349 C347 1.561 . S
C350 C347 1.526 . S
C350 C351 1.396 1_655 S
C350 C355 1.390 . S
C351 C345 1.465 . S
C351 C350 1.396 1_455 S
C351 C352 1.399 . S
C352 H338 0.929 . S
C352 C351 1.399 . S
C352 C353 1.385 . S
C353 H339 0.931 . S
C353 C352 1.385 . S
C353 C354 1.389 . S
C354 C353 1.389 . S
C354 C355 1.387 1_455 S
C355 H340 0.930 . S
C355 C350 1.390 . S
C355 C354 1.387 1_655 S
H356 C368 0.930 . S
H357 C370 0.930 . S
H358 C371 0.930 . S
H359 C375 0.959 . S
H360 C375 0.959 . S
H361 C375 0.961 . S
H362 C376 0.960 . S
H363 C376 0.961 . S
H364 C376 0.959 . S
H365 C379 0.929 . S
H366 C380 0.931 . S
H367 C382 0.930 . S
C368 H356 0.930 . S
C368 C369 1.399 1_545 S
C368 C373 1.399 . S
C369 C368 1.399 1_565 S
C369 C370 1.376 . S
C370 H357 0.930 . S
C370 C369 1.376 . S
C370 C371 1.388 . S
C371 H358 0.930 . S
C371 C370 1.388 . S
C371 C372 1.390 . S
C372 C371 1.390 . S
C372 C373 1.394 1_565 S
C372 C378 1.465 . S
C373 C368 1.399 . S
C373 C372 1.394 1_545 S
C373 C374 1.516 . S
C374 C373 1.516 . S
C374 C375 1.502 . S
C374 C376 1.561 . S
C374 C377 1.526 . S
C375 H359 0.959 . S
C375 H360 0.959 . S
C375 H361 0.961 . S
C375 C374 1.502 . S
C376 H362 0.960 . S
C376 H363 0.961 . S
C376 H364 0.959 . S
C376 C374 1.561 . S
C377 C374 1.526 . S
C377 C378 1.396 1_545 S
C377 C382 1.390 1_554 S
C378 C372 1.465 . S
C378 C377 1.396 1_565 S
C378 C379 1.399 . S
C379 H365 0.929 . S
C379 C378 1.399 . S
C379 C380 1.385 1_554 S
C380 H366 0.931 . S
C380 C379 1.385 1_556 S
C380 C381 1.389 . S
C381 C380 1.389 . S
C381 C382 1.387 1_565 S
C382 H367 0.930 . S
C382 C377 1.390 1_556 S
C382 C381 1.387 1_545 S
H383 C395 0.930 . S
H384 C397 0.930 . S
H385 C398 0.930 . S
H386 C402 0.959 . S
H387 C402 0.959 . S
H388 C402 0.961 . S
H389 C403 0.960 . S
H390 C403 0.961 . S
H391 C403 0.959 . S
H392 C406 0.929 . S
H393 C407 0.931 . S
H394 C409 0.930 . S
C395 H383 0.930 . S
C395 C396 1.399 . S
C395 C400 1.399 . S
C396 C395 1.399 . S
C396 C397 1.376 . S
C397 H384 0.930 . S
C397 C396 1.376 . S
C397 C398 1.388 . S
C398 H385 0.930 . S
C398 C397 1.388 . S
C398 C399 1.390 . S
C399 C398 1.390 . S
C399 C400 1.394 . S
C399 C405 1.465 . S
C400 C395 1.399 . S
C400 C399 1.394 . S
C400 C401 1.516 . S
C401 C400 1.516 . S
C401 C402 1.502 . S
C401 C403 1.561 . S
C401 C404 1.526 . S
C402 H386 0.959 . S
C402 H387 0.959 . S
C402 H388 0.961 . S
C402 C401 1.502 . S
C403 H389 0.960 . S
C403 H390 0.961 . S
C403 H391 0.959 . S
C403 C401 1.561 . S
C404 C401 1.526 . S
C404 C405 1.396 . S
C404 C409 1.390 . S
C405 C399 1.465 . S
C405 C404 1.396 . S
C405 C406 1.399 1_554 S
C406 H392 0.929 . S
C406 C405 1.399 1_556 S
C406 C407 1.385 . S
C407 H393 0.931 . S
C407 C406 1.385 . S
C407 C408 1.389 . S
C408 C407 1.389 . S
C408 C409 1.387 1_556 S
C409 H394 0.930 . S
C409 C404 1.390 . S
C409 C408 1.387 1_554 S
H410 C422 0.930 . S
H411 C424 0.930 . S
H412 C425 0.930 . S
H413 C429 0.959 . S
H414 C429 0.959 . S
H415 C429 0.961 . S
H416 C430 0.960 . S
H417 C430 0.961 . S
H418 C430 0.959 . S
H419 C433 0.929 . S
H420 C434 0.931 . S
H421 C436 0.930 . S
C422 H410 0.930 . S
C422 C423 1.399 . S
C422 C427 1.399 . S
C423 C422 1.399 . S
C423 C424 1.376 . S
C424 H411 0.930 . S
C424 C423 1.376 . S
C424 C425 1.388 . S
C425 H412 0.930 . S
C425 C424 1.388 . S
C425 C426 1.390 . S
C426 C425 1.390 . S
C426 C427 1.394 . S
C426 C432 1.465 . S
C427 C422 1.399 . S
C427 C426 1.394 . S
C427 C428 1.516 . S
C428 C427 1.516 . S
C428 C429 1.502 . S
C428 C430 1.561 . S
C428 C431 1.526 . S
C429 H413 0.959 . S
C429 H414 0.959 . S
C429 H415 0.961 . S
C429 C428 1.502 . S
C430 H416 0.960 . S
C430 H417 0.961 . S
C430 H418 0.959 . S
C430 C428 1.561 . S
C431 C428 1.526 . S
C431 C432 1.396 . S
C431 C436 1.390 1_554 S
C432 C426 1.465 . S
C432 C431 1.396 . S
C432 C433 1.399 1_554 S
C433 H419 0.929 . S
C433 C432 1.399 1_556 S
C433 C434 1.385 . S
C434 H420 0.931 . S
C434 C433 1.385 . S
C434 C435 1.389 . S
C435 C434 1.389 . S
C435 C436 1.387 . S
C436 H421 0.930 . S
C436 C431 1.390 1_556 S
C436 C435 1.387 . S
H437 C449 0.930 . S
H438 C451 0.930 . S
H439 C452 0.930 . S
H440 C456 0.959 . S
H441 C456 0.959 . S
H442 C456 0.961 . S
H443 C457 0.960 . S
H444 C457 0.961 . S
H445 C457 0.959 . S
H446 C460 0.929 . S
H447 C461 0.931 . S
H448 C463 0.930 . S
C449 H437 0.930 . S
C449 C450 1.399 1_455 S
C449 C454 1.399 . S
C450 C449 1.399 1_655 S
C450 C451 1.376 . S
C451 H438 0.930 . S
C451 C450 1.376 . S
C451 C452 1.388 . S
C452 H439 0.930 . S
C452 C451 1.388 . S
C452 C453 1.390 . S
C453 C452 1.390 . S
C453 C454 1.394 1_655 S
C453 C459 1.465 . S
C454 C449 1.399 . S
C454 C453 1.394 1_455 S
C454 C455 1.516 . S
C455 C454 1.516 . S
C455 C456 1.502 . S
C455 C457 1.561 1_455 S
C455 C458 1.526 . S
C456 H440 0.959 . S
C456 H441 0.959 . S
C456 H442 0.961 . S
C456 C455 1.502 . S
C457 H443 0.960 . S
C457 H444 0.961 . S
C457 H445 0.959 . S
C457 C455 1.561 1_655 S
C458 C455 1.526 . S
C458 C459 1.396 1_455 S
C458 C463 1.390 . S
C459 C453 1.465 . S
C459 C458 1.396 1_655 S
C459 C460 1.399 1_554 S
C460 H446 0.929 . S
C460 C459 1.399 1_556 S
C460 C461 1.385 . S
C461 H447 0.931 . S
C461 C460 1.385 . S
C461 C462 1.389 . S
C462 C461 1.389 . S
C462 C463 1.387 1_656 S
C463 H448 0.930 . S
C463 C458 1.390 . S
C463 C462 1.387 1_454 S
H464 C476 0.930 . S
H465 C478 0.930 . S
H466 C479 0.930 . S
H467 C483 0.959 . S
H468 C483 0.959 . S
H469 C483 0.961 . S
H470 C484 0.960 . S
H471 C484 0.961 . S
H472 C484 0.959 . S
H473 C487 0.929 . S
H474 C488 0.931 . S
H475 C490 0.929 1_455 S
C476 H464 0.930 . S
C476 C477 1.399 . S
C476 C481 1.399 . S
C477 C476 1.399 . S
C477 C478 1.376 1_455 S
C478 H465 0.930 . S
C478 C477 1.376 1_655 S
C478 C479 1.388 . S
C479 H466 0.930 . S
C479 C478 1.388 . S
C479 C480 1.390 . S
C480 C479 1.390 . S
C480 C481 1.394 1_655 S
C480 C486 1.465 . S
C481 C476 1.399 . S
C481 C480 1.394 1_455 S
C481 C482 1.516 . S
C482 C481 1.516 . S
C482 C483 1.502 . S
C482 C484 1.561 . S
C482 C485 1.526 1_455 S
C483 H467 0.959 . S
C483 H468 0.959 . S
C483 H469 0.961 . S
C483 C482 1.502 . S
C484 H470 0.960 . S
C484 H471 0.961 . S
C484 H472 0.959 . S
C484 C482 1.561 . S
C485 C482 1.526 1_655 S
C485 C486 1.396 . S
C485 C490 1.390 . S
C486 C480 1.465 . S
C486 C485 1.396 . S
C486 C487 1.399 . S
C487 H473 0.929 . S
C487 C486 1.399 . S
C487 C488 1.385 . S
C488 H474 0.931 . S
C488 C487 1.385 . S
C488 C489 1.389 . S
C489 C488 1.389 . S
C489 C490 1.387 . S
C490 H475 0.929 1_655 S
C490 C485 1.390 . S
C490 C489 1.387 . S
H491 C503 0.930 . S
H492 C505 0.930 . S
H493 C506 0.930 . S
H494 C510 0.959 . S
H495 C510 0.959 . S
H496 C510 0.961 . S
H497 C511 0.960 . S
H498 C511 0.961 . S
H499 C511 0.959 . S
H500 C514 0.929 1_545 S
H501 C515 0.931 . S
H502 C517 0.930 . S
C503 H491 0.930 . S
C503 C504 1.399 1_565 S
C503 C508 1.399 . S
C504 C503 1.399 1_545 S
C504 C505 1.376 . S
C505 H492 0.930 . S
C505 C504 1.376 . S
C505 C506 1.388 . S
C506 H493 0.930 . S
C506 C505 1.388 . S
C506 C507 1.390 1_545 S
C507 C506 1.390 1_565 S
C507 C508 1.394 . S
C507 C513 1.465 . S
C508 C503 1.399 . S
C508 C507 1.394 . S
C508 C509 1.516 . S
C509 C508 1.516 . S
C509 C510 1.502 . S
C509 C511 1.561 . S
C509 C512 1.526 . S
C510 H494 0.959 . S
C510 H495 0.959 . S
C510 H496 0.961 . S
C510 C509 1.502 . S
C511 H497 0.960 . S
C511 H498 0.961 . S
C511 H499 0.959 . S
C511 C509 1.561 . S
C512 C509 1.526 . S
C512 C513 1.396 . S
C512 C517 1.390 . S
C513 C507 1.465 . S
C513 C512 1.396 . S
C513 C514 1.399 . S
C514 H500 0.929 1_565 S
C514 C513 1.399 . S
C514 C515 1.385 . S
C515 H501 0.931 . S
C515 C514 1.385 . S
C515 C516 1.389 . S
C516 C515 1.389 . S
C516 C517 1.387 . S
C517 H502 0.930 . S
C517 C512 1.390 . S
C517 C516 1.387 . S
H518 C530 0.930 . S
H519 C532 0.930 . S
H520 C533 0.930 . S
H521 C537 0.959 . S
H522 C537 0.959 . S
H523 C537 0.961 . S
H524 C538 0.960 . S
H525 C538 0.961 . S
H526 C538 0.959 . S
H527 C541 0.929 . S
H528 C542 0.931 . S
H529 C544 0.930 . S
C530 H518 0.930 . S
C530 C531 1.399 . S
C530 C535 1.399 . S
C531 C530 1.399 . S
C531 C532 1.376 . S
C532 H519 0.930 . S
C532 C531 1.376 . S
C532 C533 1.388 . S
C533 H520 0.930 . S
C533 C532 1.388 . S
C533 C534 1.390 . S
C534 C533 1.390 . S
C534 C535 1.394 . S
C534 C540 1.465 . S
C535 C530 1.399 . S
C535 C534 1.394 . S
C535 C536 1.516 . S
C536 C535 1.516 . S
C536 C537 1.502 . S
C536 C538 1.561 . S
C536 C539 1.526 . S
C537 H521 0.959 . S
C537 H522 0.959 . S
C537 H523 0.961 . S
C537 C536 1.502 . S
C538 H524 0.960 . S
C538 H525 0.961 . S
C538 H526 0.959 . S
C538 C536 1.561 . S
C539 C536 1.526 . S
C539 C540 1.396 . S
C539 C544 1.390 . S
C540 C534 1.465 . S
C540 C539 1.396 . S
C540 C541 1.399 . S
C541 H527 0.929 . S
C541 C540 1.399 . S
C541 C542 1.385 . S
C542 H528 0.931 . S
C542 C541 1.385 . S
C542 C543 1.389 . S
C543 C542 1.389 . S
C543 C544 1.387 . S
C544 H529 0.930 . S
C544 C539 1.390 . S
C544 C543 1.387 . S
H545 C557 0.930 . S
H546 C559 0.930 . S
H547 C560 0.930 . S
H548 C564 0.959 . S
H549 C564 0.959 . S
H550 C564 0.961 . S
H551 C565 0.960 . S
H552 C565 0.961 . S
H553 C565 0.959 . S
H554 C568 0.929 . S
H555 C569 0.931 . S
H556 C571 0.930 . S
C557 H545 0.930 . S
C557 C558 1.399 . S
C557 C562 1.399 . S
C558 C557 1.399 . S
C558 C559 1.376 . S
C559 H546 0.930 . S
C559 C558 1.376 . S
C559 C560 1.388 . S
C560 H547 0.930 . S
C560 C559 1.388 . S
C560 C561 1.390 . S
C561 C560 1.390 . S
C561 C562 1.394 . S
C561 C567 1.465 . S
C562 C557 1.399 . S
C562 C561 1.394 . S
C562 C563 1.516 . S
C563 C562 1.516 . S
C563 C564 1.502 . S
C563 C565 1.561 . S
C563 C566 1.526 . S
C564 H548 0.959 . S
C564 H549 0.959 . S
C564 H550 0.961 . S
C564 C563 1.502 . S
C565 H551 0.960 . S
C565 H552 0.961 . S
C565 H553 0.959 . S
C565 C563 1.561 . S
C566 C563 1.526 . S
C566 C567 1.396 . S
C566 C571 1.390 . S
C567 C561 1.465 . S
C567 C566 1.396 . S
C567 C568 1.399 . S
C568 H554 0.929 . S
C568 C567 1.399 . S
C568 C569 1.385 . S
C569 H555 0.931 . S
C569 C568 1.385 . S
C569 C570 1.389 . S
C570 C569 1.389 . S
C570 C571 1.387 . S
C571 H556 0.930 . S
C571 C566 1.390 . S
C571 C570 1.387 . S
H572 C584 0.930 . S
H573 C586 0.930 . S
H574 C587 0.930 . S
H575 C591 0.959 . S
H576 C591 0.959 . S
H577 C591 0.961 . S
H578 C592 0.960 1_655 S
H579 C592 0.961 . S
H580 C592 0.959 . S
H581 C595 0.929 . S
H582 C596 0.931 . S
H583 C598 0.930 . S
C584 H572 0.930 . S
C584 C585 1.401 . S
C584 C589 1.399 1_655 S
C585 C584 1.401 . S
C585 C586 1.372 1_655 S
C586 H573 0.930 . S
C586 C585 1.372 1_455 S
C586 C587 1.388 . S
C587 H574 0.930 . S
C587 C586 1.388 . S
C587 C588 1.390 . S
C588 C587 1.390 . S
C588 C589 1.394 . S
C588 C594 1.465 . S
C589 C584 1.399 1_455 S
C589 C588 1.394 . S
C589 C590 1.516 1_455 S
C590 C589 1.516 1_655 S
C590 C591 1.502 . S
C590 C592 1.561 1_655 S
C590 C593 1.526 1_655 S
C591 H575 0.959 . S
C591 H576 0.959 . S
C591 H577 0.961 . S
C591 C590 1.502 . S
C592 H578 0.960 1_455 S
C592 H579 0.961 . S
C592 H580 0.959 . S
C592 C590 1.561 1_455 S
C593 C590 1.526 1_455 S
C593 C594 1.396 . S
C593 C598 1.390 . S
C594 C588 1.465 . S
C594 C593 1.396 . S
C594 C595 1.399 . S
C595 H581 0.929 . S
C595 C594 1.399 . S
C595 C596 1.385 . S
C596 H582 0.931 . S
C596 C595 1.385 . S
C596 C597 1.389 . S
C597 C596 1.389 . S
C597 C598 1.387 . S
C598 H583 0.930 . S
C598 C593 1.390 . S
C598 C597 1.387 . S
H599 C611 0.930 . S
H600 C613 0.930 . S
H601 C614 0.930 . S
H602 C618 0.959 1_565 S
H603 C618 0.959 . S
H604 C618 0.961 . S
H605 C619 0.960 . S
H606 C619 0.961 . S
H607 C619 0.959 . S
H608 C622 0.929 . S
H609 C623 0.931 1_556 S
H610 C625 0.930 . S
C611 H599 0.930 . S
C611 C612 1.399 1_545 S
C611 C616 1.399 . S
C612 C611 1.399 1_565 S
C612 C613 1.376 . S
C613 H600 0.930 . S
C613 C612 1.376 . S
C613 C614 1.388 1_565 S
C614 H601 0.930 . S
C614 C613 1.388 1_545 S
C614 C615 1.390 . S
C615 C614 1.390 . S
C615 C616 1.394 . S
C615 C621 1.465 . S
C616 C611 1.399 . S
C616 C615 1.394 . S
C616 C617 1.516 . S
C617 C616 1.516 . S
C617 C618 1.502 . S
C617 C619 1.561 . S
C617 C620 1.526 . S
C618 H602 0.959 1_545 S
C618 H603 0.959 . S
C618 H604 0.961 . S
C618 C617 1.502 . S
C619 H605 0.960 . S
C619 H606 0.961 . S
C619 H607 0.959 . S
C619 C617 1.561 . S
C620 C617 1.526 . S
C620 C621 1.396 . S
C620 C625 1.390 . S
C621 C615 1.465 . S
C621 C620 1.396 . S
C621 C622 1.399 . S
C622 H608 0.929 . S
C622 C621 1.399 . S
C622 C623 1.385 . S
C623 H609 0.931 1_554 S
C623 C622 1.385 . S
C623 C624 1.389 . S
C624 C623 1.389 . S
C624 C625 1.387 . S
C625 H610 0.930 . S
C625 C620 1.390 . S
C625 C624 1.387 . S
H626 C638 0.930 . S
H627 C640 0.930 . S
H628 C641 0.930 . S
H629 C645 0.959 . S
H630 C645 0.959 . S
H631 C645 0.961 . S
H632 C646 0.960 . S
H633 C646 0.961 1_556 S
H634 C646 0.959 . S
H635 C649 0.929 . S
H636 C650 0.931 . S
H637 C652 0.930 . S
C638 H626 0.930 . S
C638 C639 1.399 . S
C638 C643 1.399 . S
C639 C638 1.399 . S
C639 C640 1.376 . S
C640 H627 0.930 . S
C640 C639 1.376 . S
C640 C641 1.388 . S
C641 H628 0.930 . S
C641 C640 1.388 . S
C641 C642 1.390 . S
C642 C641 1.390 . S
C642 C643 1.394 . S
C642 C648 1.465 . S
C643 C638 1.399 . S
C643 C642 1.394 . S
C643 C644 1.516 . S
C644 C643 1.516 . S
C644 C645 1.502 . S
C644 C646 1.561 . S
C644 C647 1.526 . S
C645 H629 0.959 . S
C645 H630 0.959 . S
C645 H631 0.961 . S
C645 C644 1.502 . S
C646 H632 0.960 . S
C646 H633 0.961 1_554 S
C646 H634 0.959 . S
C646 C644 1.561 . S
C647 C644 1.526 . S
C647 C648 1.396 . S
C647 C652 1.390 . S
C648 C642 1.465 . S
C648 C647 1.396 . S
C648 C649 1.399 . S
C649 H635 0.929 . S
C649 C648 1.399 . S
C649 C650 1.385 . S
C650 H636 0.931 . S
C650 C649 1.385 . S
C650 C651 1.389 . S
C651 C650 1.389 . S
C651 C652 1.387 . S
C652 H637 0.930 . S
C652 C647 1.390 . S
C652 C651 1.387 . S
H653 C665 0.930 . S
H654 C667 0.930 . S
H655 C668 0.930 . S
H656 C672 0.959 . S
H657 C672 0.959 1_556 S
H658 C672 0.961 . S
H659 C673 0.960 . S
H660 C673 0.961 . S
H661 C673 0.959 . S
H662 C676 0.929 . S
H663 C677 0.931 . S
H664 C679 0.930 . S
C665 H653 0.930 . S
C665 C666 1.399 . S
C665 C670 1.399 . S
C666 C665 1.399 . S
C666 C667 1.376 . S
C667 H654 0.930 . S
C667 C666 1.376 . S
C667 C668 1.388 . S
C668 H655 0.930 . S
C668 C667 1.388 . S
C668 C669 1.390 . S
C669 C668 1.390 . S
C669 C670 1.394 . S
C669 C675 1.465 . S
C670 C665 1.399 . S
C670 C669 1.394 . S
C670 C671 1.516 . S
C671 C670 1.516 . S
C671 C672 1.502 . S
C671 C673 1.561 . S
C671 C674 1.526 . S
C672 H656 0.959 . S
C672 H657 0.959 1_554 S
C672 H658 0.961 . S
C672 C671 1.502 . S
C673 H659 0.960 . S
C673 H660 0.961 . S
C673 H661 0.959 . S
C673 C671 1.561 . S
C674 C671 1.526 . S
C674 C675 1.396 . S
C674 C679 1.390 . S
C675 C669 1.465 . S
C675 C674 1.396 . S
C675 C676 1.399 . S
C676 H662 0.929 . S
C676 C675 1.399 . S
C676 C677 1.385 . S
C677 H663 0.931 . S
C677 C676 1.385 . S
C677 C678 1.389 . S
C678 C677 1.389 . S
C678 C679 1.387 . S
C679 H664 0.930 . S
C679 C674 1.390 . S
C679 C678 1.387 . S
H680 C692 0.930 . S
H681 C694 0.930 . S
H682 C695 0.930 . S
H683 C699 0.959 . S
H684 C699 0.959 1_554 S
H685 C699 0.961 1_554 S
H686 C700 0.960 . S
H687 C700 0.969 . S
H688 C700 0.959 . S
H689 C703 0.929 . S
H690 C704 0.923 1_655 S
H691 C706 0.930 . S
C692 H680 0.930 . S
C692 C693 1.399 . S
C692 C697 1.399 . S
C693 C692 1.399 . S
C693 C694 1.376 1_455 S
C694 H681 0.930 . S
C694 C693 1.376 1_655 S
C694 C695 1.388 . S
C695 H682 0.930 . S
C695 C694 1.388 . S
C695 C696 1.391 . S
C696 C695 1.391 . S
C696 C697 1.392 1_655 S
C696 C702 1.465 1_655 S
C697 C692 1.399 . S
C697 C696 1.392 1_455 S
C697 C698 1.516 . S
C698 C697 1.516 . S
C698 C699 1.502 . S
C698 C700 1.561 1_456 S
C698 C701 1.526 . S
C699 H683 0.959 . S
C699 H684 0.959 1_556 S
C699 H685 0.961 1_556 S
C699 C698 1.502 . S
C700 H686 0.960 . S
C700 H687 0.969 . S
C700 H688 0.959 . S
C700 C698 1.561 1_654 S
C701 C698 1.526 . S
C701 C702 1.396 . S
C701 C706 1.390 . S
C702 C696 1.465 1_455 S
C702 C701 1.396 . S
C702 C703 1.399 1_455 S
C703 H689 0.929 . S
C703 C702 1.399 1_655 S
C703 C704 1.378 1_655 S
C704 H690 0.923 1_455 S
C704 C703 1.378 1_455 S
C704 C705 1.406 . S
C705 C704 1.406 . S
C705 C706 1.387 . S
C706 H691 0.930 . S
C706 C701 1.390 . S
C706 C705 1.387 . S
H707 C719 0.930 . S
H708 C721 0.930 . S
H709 C722 0.930 . S
H710 C726 0.959 . S
H711 C726 0.959 . S
H712 C726 0.961 . S
H713 C727 0.960 . S
H714 C727 0.961 . S
H715 C727 0.959 . S
H716 C730 0.929 . S
H717 C731 0.931 . S
H718 C733 0.930 . S
C719 H707 0.930 . S
C719 C720 1.399 1_565 S
C719 C724 1.399 . S
C720 C719 1.399 1_545 S
C720 C721 1.376 . S
C721 H708 0.930 . S
C721 C720 1.376 . S
C721 C722 1.388 . S
C722 H709 0.930 . S
C722 C721 1.388 . S
C722 C723 1.390 . S
C723 C722 1.390 . S
C723 C724 1.394 1_545 S
C723 C729 1.465 . S
C724 C719 1.399 . S
C724 C723 1.394 1_565 S
C724 C725 1.516 . S
C725 C724 1.516 . S
C725 C726 1.502 . S
C725 C727 1.561 . S
C725 C728 1.526 . S
C726 H710 0.959 . S
C726 H711 0.959 . S
C726 H712 0.961 . S
C726 C725 1.502 . S
C727 H713 0.960 . S
C727 H714 0.961 . S
C727 H715 0.959 . S
C727 C725 1.561 . S
C728 C725 1.526 . S
C728 C729 1.396 1_565 S
C728 C733 1.390 . S
C729 C723 1.465 . S
C729 C728 1.396 1_545 S
C729 C730 1.399 . S
C730 H716 0.929 . S
C730 C729 1.399 . S
C730 C731 1.385 . S
C731 H717 0.931 . S
C731 C730 1.385 . S
C731 C732 1.389 . S
C732 C731 1.389 . S
C732 C733 1.387 1_545 S
C733 H718 0.930 . S
C733 C728 1.390 . S
C733 C732 1.387 1_565 S
H734 C746 0.930 . S
H735 C748 0.930 . S
H736 C749 0.930 . S
H737 C753 0.959 . S
H738 C753 0.959 1_554 S
H739 C753 0.961 1_554 S
H740 C754 0.960 . S
H741 C754 0.961 . S
H742 C754 0.959 . S
H743 C757 0.929 . S
H744 C758 0.931 . S
H745 C760 0.930 . S
C746 H734 0.930 . S
C746 C747 1.399 . S
C746 C751 1.399 . S
C747 C746 1.399 . S
C747 C748 1.376 . S
C748 H735 0.930 . S
C748 C747 1.376 . S
C748 C749 1.388 . S
C749 H736 0.930 . S
C749 C748 1.388 . S
C749 C750 1.390 . S
C750 C749 1.390 . S
C750 C751 1.394 . S
C750 C756 1.465 . S
C751 C746 1.399 . S
C751 C750 1.394 . S
C751 C752 1.516 . S
C752 C751 1.516 . S
C752 C753 1.502 . S
C752 C754 1.561 1_556 S
C752 C755 1.526 . S
C753 H737 0.959 . S
C753 H738 0.959 1_556 S
C753 H739 0.961 1_556 S
C753 C752 1.502 . S
C754 H740 0.960 . S
C754 H741 0.961 . S
C754 H742 0.959 . S
C754 C752 1.561 1_554 S
C755 C752 1.526 . S
C755 C756 1.396 . S
C755 C760 1.390 . S
C756 C750 1.465 . S
C756 C755 1.396 . S
C756 C757 1.399 . S
C757 H743 0.929 . S
C757 C756 1.399 . S
C757 C758 1.385 . S
C758 H744 0.931 . S
C758 C757 1.385 . S
C758 C759 1.389 . S
C759 C758 1.389 . S
C759 C760 1.387 . S
C760 H745 0.930 . S
C760 C755 1.390 . S
C760 C759 1.387 . S
H761 C773 0.930 . S
H762 C775 0.930 . S
H763 C776 0.930 . S
H764 C780 0.959 . S
H765 C780 0.959 . S
H766 C780 0.961 . S
H767 C781 0.960 . S
H768 C781 0.961 . S
H769 C781 0.959 . S
H770 C784 0.929 . S
H771 C785 0.931 . S
H772 C787 0.930 . S
C773 H761 0.930 . S
C773 C774 1.399 . S
C773 C778 1.399 . S
C774 C773 1.399 . S
C774 C775 1.376 . S
C775 H762 0.930 . S
C775 C774 1.376 . S
C775 C776 1.388 . S
C776 H763 0.930 . S
C776 C775 1.388 . S
C776 C777 1.390 . S
C777 C776 1.390 . S
C777 C778 1.394 . S
C777 C783 1.465 . S
C778 C773 1.399 . S
C778 C777 1.394 . S
C778 C779 1.516 . S
C779 C778 1.516 . S
C779 C780 1.502 . S
C779 C781 1.561 . S
C779 C782 1.526 . S
C780 H764 0.959 . S
C780 H765 0.959 . S
C780 H766 0.961 . S
C780 C779 1.502 . S
C781 H767 0.960 . S
C781 H768 0.961 . S
C781 H769 0.959 . S
C781 C779 1.561 . S
C782 C779 1.526 . S
C782 C783 1.396 . S
C782 C787 1.390 . S
C783 C777 1.465 . S
C783 C782 1.396 . S
C783 C784 1.399 . S
C784 H770 0.929 . S
C784 C783 1.399 . S
C784 C785 1.385 . S
C785 H771 0.931 . S
C785 C784 1.385 . S
C785 C786 1.389 . S
C786 C785 1.389 . S
C786 C787 1.387 . S
C787 H772 0.930 . S
C787 C782 1.390 . S
C787 C786 1.387 . S
H788 C800 0.930 1_455 S
H789 C802 0.930 . S
H790 C803 0.930 . S
H791 C807 0.959 . S
H792 C807 0.959 . S
H793 C807 0.961 . S
H794 C808 0.960 . S
H795 C808 0.961 . S
H796 C808 0.959 . S
H797 C811 0.929 . S
H798 C812 0.931 . S
H799 C814 0.930 . S
C800 H788 0.930 1_655 S
C800 C801 1.399 . S
C800 C805 1.399 . S
C801 C800 1.399 . S
C801 C802 1.376 . S
C802 H789 0.930 . S
C802 C801 1.376 . S
C802 C803 1.388 . S
C803 H790 0.930 . S
C803 C802 1.388 . S
C803 C804 1.390 . S
C804 C803 1.390 . S
C804 C805 1.394 . S
C804 C810 1.465 . S
C805 C800 1.399 . S
C805 C804 1.394 . S
C805 C806 1.516 . S
C806 C805 1.516 . S
C806 C807 1.502 1_655 S
C806 C808 1.561 . S
C806 C809 1.526 . S
C807 H791 0.959 . S
C807 H792 0.959 . S
C807 H793 0.961 . S
C807 C806 1.502 1_455 S
C808 H794 0.960 . S
C808 H795 0.961 . S
C808 H796 0.959 . S
C808 C806 1.561 . S
C809 C806 1.526 . S
C809 C810 1.396 . S
C809 C814 1.390 . S
C810 C804 1.465 . S
C810 C809 1.396 . S
C810 C811 1.399 . S
C811 H797 0.929 . S
C811 C810 1.399 . S
C811 C812 1.385 . S
C812 H798 0.931 . S
C812 C811 1.385 . S
C812 C813 1.389 . S
C813 C812 1.389 . S
C813 C814 1.387 . S
C814 H799 0.930 . S
C814 C809 1.390 . S
C814 C813 1.387 . S
H815 C827 0.930 . S
H816 C829 0.930 . S
H817 C830 0.930 . S
H818 C834 0.984 . S
H819 C834 0.951 1_545 S
H820 C834 0.954 1_545 S
H821 C835 0.960 . S
H822 C835 0.961 . S
H823 C835 0.959 . S
H824 C838 0.929 . S
H825 C839 0.931 . S
H826 C841 0.930 1_545 S
C827 H815 0.930 . S
C827 C828 1.399 1_545 S
C827 C832 1.399 . S
C828 C827 1.399 1_565 S
C828 C829 1.376 . S
C829 H816 0.930 . S
C829 C828 1.376 . S
C829 C830 1.388 . S
C830 H817 0.930 . S
C830 C829 1.388 . S
C830 C831 1.390 . S
C831 C830 1.390 . S
C831 C832 1.394 1_565 S
C831 C837 1.465 . S
C832 C827 1.399 . S
C832 C831 1.394 1_545 S
C832 C833 1.516 . S
C833 C832 1.516 . S
C833 C834 1.494 1_545 S
C833 C835 1.561 . S
C833 C836 1.526 1_545 S
C834 H818 0.984 . S
C834 H819 0.951 1_565 S
C834 H820 0.954 1_565 S
C834 C833 1.494 1_565 S
C835 H821 0.960 . S
C835 H822 0.961 . S
C835 H823 0.959 . S
C835 C833 1.561 . S
C836 C833 1.526 1_565 S
C836 C837 1.396 . S
C836 C841 1.390 . S
C837 C831 1.465 . S
C837 C836 1.396 . S
C837 C838 1.399 . S
C838 H824 0.929 . S
C838 C837 1.399 . S
C838 C839 1.385 . S
C839 H825 0.931 . S
C839 C838 1.385 . S
C839 C840 1.389 . S
C840 C839 1.389 . S
C840 C841 1.387 . S
C841 H826 0.930 1_565 S
C841 C836 1.390 . S
C841 C840 1.387 . S
H842 C854 0.930 . S
H843 C856 0.930 . S
H844 C857 0.930 . S
H845 C861 0.959 . S
H846 C861 0.959 . S
H847 C861 0.961 . S
H848 C862 0.960 . S
H849 C862 0.961 . S
H850 C862 0.959 . S
H851 C865 0.929 . S
H852 C866 0.931 . S
H853 C868 0.930 . S
C854 H842 0.930 . S
C854 C855 1.399 . S
C854 C859 1.399 . S
C855 C854 1.399 . S
C855 C856 1.376 . S
C856 H843 0.930 . S
C856 C855 1.376 . S
C856 C857 1.388 . S
C857 H844 0.930 . S
C857 C856 1.388 . S
C857 C858 1.390 . S
C858 C857 1.390 . S
C858 C859 1.394 . S
C858 C864 1.465 . S
C859 C854 1.399 . S
C859 C858 1.394 . S
C859 C860 1.516 . S
C860 C859 1.516 . S
C860 C861 1.502 . S
C860 C862 1.561 . S
C860 C863 1.526 . S
C861 H845 0.959 . S
C861 H846 0.959 . S
C861 H847 0.961 . S
C861 C860 1.502 . S
C862 H848 0.960 . S
C862 H849 0.961 . S
C862 H850 0.959 . S
C862 C860 1.561 . S
C863 C860 1.526 . S
C863 C864 1.396 . S
C863 C868 1.390 . S
C864 C858 1.465 . S
C864 C863 1.396 . S
C864 C865 1.399 . S
C865 H851 0.929 . S
C865 C864 1.399 . S
C865 C866 1.385 . S
C866 H852 0.931 . S
C866 C865 1.385 . S
C866 C867 1.389 . S
C867 C866 1.389 . S
C867 C868 1.387 . S
C868 H853 0.930 . S
C868 C863 1.390 . S
C868 C867 1.387 . S
H869 C881 0.930 . S
H870 C883 0.930 . S
H871 C884 0.930 . S
H872 C888 0.959 . S
H873 C888 0.959 . S
H874 C888 0.961 . S
H875 C889 0.960 . S
H876 C889 0.961 . S
H877 C889 0.959 . S
H878 C892 0.929 . S
H879 C893 0.931 . S
H880 C895 0.930 . S
C881 H869 0.930 . S
C881 C882 1.399 . S
C881 C886 1.399 . S
C882 C881 1.399 . S
C882 C883 1.376 . S
C883 H870 0.930 . S
C883 C882 1.376 . S
C883 C884 1.388 . S
C884 H871 0.930 . S
C884 C883 1.388 . S
C884 C885 1.390 . S
C885 C884 1.390 . S
C885 C886 1.394 . S
C885 C891 1.465 . S
C886 C881 1.399 . S
C886 C885 1.394 . S
C886 C887 1.516 . S
C887 C886 1.516 . S
C887 C888 1.502 . S
C887 C889 1.561 . S
C887 C890 1.526 . S
C888 H872 0.959 . S
C888 H873 0.959 . S
C888 H874 0.961 . S
C888 C887 1.502 . S
C889 H875 0.960 . S
C889 H876 0.961 . S
C889 H877 0.959 . S
C889 C887 1.561 . S
C890 C887 1.526 . S
C890 C891 1.396 . S
C890 C895 1.390 . S
C891 C885 1.465 . S
C891 C890 1.396 . S
C891 C892 1.399 . S
C892 H878 0.929 . S
C892 C891 1.399 . S
C892 C893 1.385 . S
C893 H879 0.931 . S
C893 C892 1.385 . S
C893 C894 1.389 . S
C894 C893 1.389 . S
C894 C895 1.387 . S
C895 H880 0.930 . S
C895 C890 1.390 . S
C895 C894 1.387 . S
C261 C76 1.799 . S
C273 C98 1.962 1_545 S
C300 C138 1.972 . S
C288 C87 1.807 . S
C327 C178 1.951 . S
C315 C54 1.860 . S
C354 C218 1.955 1_455 S
C342 C65 1.784 . S
C381 C107 1.973 1_565 S
C369 C32 1.849 . S
C396 C43 1.794 . S
C408 C147 1.963 . S
C423 C10 1.798 . S
C435 C187 1.946 . S
C450 C21 1.797 . S
C462 C227 1.963 1_655 S
C489 C104 0.627 . S
C477 C60 0.560 . S
C516 C144 0.475 . S
C504 C71 0.485 . S
C543 C184 0.439 . S
C531 C82 0.561 . S
C558 C49 0.636 . S
C570 C224 0.548 . S
C585 C16 0.525 . S
C597 C95 0.618 . S
C624 C135 0.544 . S
C612 C27 0.614 . S
C651 C175 0.498 . S
C639 C38 0.536 . S
C666 C5 0.478 . S
C678 C215 0.553 . S
C693 C59 2.039 . S
C705 C99 2.244 . S
C720 C70 1.999 . S
C732 C139 2.273 . S
C759 C179 2.247 . S
C747 C81 2.036 . S
C786 C219 2.274 . S
C774 C48 1.999 . S
C801 C15 2.049 . S
C813 C90 2.265 . S
C840 C130 2.265 . S
C828 C26 1.961 . S
C867 C170 2.249 . S
C855 C37 1.978 . S
C882 C4 2.022 . S
C894 C210 2.241 . S
