# Generated by pormake.
# Topology pyr, (3,6)-cn, num edge types: 1
# Building blocks:
#     Node 0, Type 0, BuildingBlock: CUQRIR_clean_linker_1, # of connection points: 3
#     Node 1, Type 0, BuildingBlock: CUQRIR_clean_linker_1, # of connection points: 3
#     Node 2, Type 0, BuildingBlock: CUQRIR_clean_linker_1, # of connection points: 3
#     Node 3, Type 0, BuildingBlock: CUQRIR_clean_linker_1, # of connection points: 3
#     Node 4, Type 0, BuildingBlock: CUQRIR_clean_linker_1, # of connection points: 3
#     Node 5, Type 0, BuildingBlock: CUQRIR_clean_linker_1, # of connection points: 3
#     Node 6, Type 0, BuildingBlock: CUQRIR_clean_linker_1, # of connection points: 3
#     Node 7, Type 0, BuildingBlock: CUQRIR_clean_linker_1, # of connection points: 3
#     Node 8, Type 1, BuildingBlock: BETFAJ_clean_sbu_0, # of connection points: 6
#     Node 9, Type 1, BuildingBlock: BETFAJ_clean_sbu_0, # of connection points: 6
#     Node 10, Type 1, BuildingBlock: BETFAJ_clean_sbu_0, # of connection points: 6
#     Node 11, Type 1, BuildingBlock: BETFAJ_clean_sbu_0, # of connection points: 6
#     Edge 12, Type (0, 1), None
#     Edge 13, Type (0, 1), None
#     Edge 14, Type (0, 1), None
#     Edge 15, Type (0, 1), None
#     Edge 16, Type (0, 1), None
#     Edge 17, Type (0, 1), None
#     Edge 18, Type (0, 1), None
#     Edge 19, Type (0, 1), None
#     Edge 20, Type (0, 1), None
#     Edge 21, Type (0, 1), None
#     Edge 22, Type (0, 1), None
#     Edge 23, Type (0, 1), None
#     Edge 24, Type (0, 1), None
#     Edge 25, Type (0, 1), None
#     Edge 26, Type (0, 1), None
#     Edge 27, Type (0, 1), None
#     Edge 28, Type (0, 1), None
#     Edge 29, Type (0, 1), None
#     Edge 30, Type (0, 1), None
#     Edge 31, Type (0, 1), None
#     Edge 32, Type (0, 1), None
#     Edge 33, Type (0, 1), None
#     Edge 34, Type (0, 1), None
#     Edge 35, Type (0, 1), None
# Relax obj value: 0.630
# Max RMSD: 0.308
# Mean RMSD: 0.202
data_MOF--net-pyr--node1-BETFAJ_clean_sbu_0--node2-CUQRIR_clean_linker_1--edge1-none
_symmetry_space_group_name_H-M    P1
_symmetry_Int_Tables_number       1
_symmetry_cell_setting            triclinic
loop_
_symmetry_equiv_pos_as_xyz
'x, y, z'
_cell_length_a     15.238093
_cell_length_b     15.631308
_cell_length_c     13.803074
_cell_angle_alpha  89.485998
_cell_angle_beta   89.044791
_cell_angle_gamma 112.60896
loop_
_atom_site_label
_atom_site_type_symbol
_atom_site_fract_x
_atom_site_fract_y
_atom_site_fract_z
_atom_type_partial_charge
C0 C 0.42832 0.54203 0.38483 0.0
N1 N 0.46286 0.47718 0.41333 0.0
N2 N 0.45306 0.57011 0.29352 0.0
C3 C 0.3662 0.58146 0.43994 0.0
C4 C 0.52265 0.53884 0.27535 0.0
N5 N 0.5291 0.48002 0.34675 0.0
C6 C 0.60932 0.60301 0.22195 0.0
H7 H 0.2934 0.5549 0.41142 0.0
H8 H 0.39728 0.65736 0.4265 0.0
H9 H 0.35953 0.57092 0.5181 0.0
H10 H 0.62705 0.6747 0.24775 0.0
H11 H 0.59334 0.60474 0.14444 0.0
H12 H 0.67163 0.58496 0.23505 0.0
C13 C 0.28508 1.10694 0.6384 0.0
N14 N 0.25543 0.15926 0.69756 0.0
N15 N 0.26102 1.02043 0.67257 0.0
C16 C 0.33373 1.1373 0.54196 0.0
C17 C 0.19528 1.0155 0.74015 0.0
N18 N 0.20353 1.10115 0.76798 0.0
C19 C 0.1322 0.92474 0.78871 0.0
H20 H 0.36963 1.09087 0.51949 0.0
H21 H 0.38504 0.21015 0.54514 0.0
H22 H 0.27934 1.13198 0.48756 0.0
H23 H 0.0914 0.87617 0.73239 0.0
H24 H 0.08259 0.93506 0.84286 0.0
H25 H 0.17461 0.88968 0.82365 0.0
C26 C 0.63153 0.52776 0.98972 0.0
N27 N 0.69448 0.51784 1.05793 0.0
N28 N 0.66867 0.6105 0.93583 0.0
C29 C 0.52976 0.46097 0.98455 0.0
C30 C 0.7605 0.64404 0.96841 0.0
N31 N 0.77385 0.59657 1.04914 0.0
C32 C 0.83957 0.68542 0.89394 0.0
H33 H 0.49772 0.44476 1.05866 0.0
H34 H 0.52772 0.3952 0.95331 0.0
H35 H 0.48625 0.48826 0.94021 0.0
H36 H 0.84194 0.75254 0.86662 0.0
H37 H 0.82379 0.63951 0.83014 0.0
H38 H 0.90992 0.69099 0.91994 0.0
C39 C 0.84894 0.83231 0.46479 0.0
N40 N 0.94488 0.88324 0.44344 0.0
N41 N 0.82318 0.84726 0.5571 0.0
C42 C 0.7817 0.76215 0.39904 0.0
C43 C 0.90551 0.9076 0.59104 0.0
N44 N 0.97275 0.94579 0.52021 0.0
C45 C 0.92423 0.92398 0.69717 0.0
H46 H 0.80049 0.7827 0.32197 0.0
H47 H 0.70728 0.75456 0.41333 0.0
H48 H 0.78582 0.69367 0.41235 0.0
H49 H 0.90461 0.85693 0.73652 0.0
H50 H 0.88191 0.96189 0.72711 0.0
H51 H 1.00007 0.96389 0.70785 0.0
C52 C 0.69533 1.10529 1.0466 0.0
N53 N 0.7378 1.0534 1.08452 0.0
N54 N 0.60046 1.0624 1.05905 0.0
C55 C 0.74509 0.19014 0.98298 0.0
C56 C 0.58899 0.97716 1.0949 0.0
N57 N 0.67451 0.97026 1.10646 0.0
C58 C 0.4951 0.89937 1.11411 0.0
H59 H 0.75888 0.2545 1.02391 0.0
H60 H 0.69854 0.18909 0.92189 0.0
H61 H 0.8151 0.19438 0.95492 0.0
H62 H 0.43883 0.90892 1.07058 0.0
H63 H 0.47576 0.89848 0.1921 0.0
H64 H 0.50019 0.83211 1.09738 0.0
C65 C 0.7385 0.28131 0.74802 0.0
N66 N 0.78608 0.23817 0.69793 0.0
N67 N 0.65178 0.26177 0.70992 0.0
C68 C 0.78305 0.36031 0.81548 0.0
C69 C 0.64668 0.19752 0.64295 0.0
N70 N 0.73148 0.19214 0.62699 0.0
C71 C 0.5682 0.16365 0.57306 0.0
H72 H 0.83245 0.34564 0.86423 0.0
H73 H 0.72747 0.37234 0.85976 0.0
H74 H 0.82237 0.42405 0.77204 0.0
H75 H 0.59011 0.2065 0.50601 0.0
H76 H 0.50517 0.17152 0.60468 0.0
H77 H 0.55265 1.08996 0.55778 0.0
C78 C 0.35674 0.85032 0.43965 0.0
N79 N 0.44843 0.9155 0.45554 0.0
N80 N 0.31032 0.87987 0.37277 0.0
C81 C 0.29843 0.76645 0.50215 0.0
C82 C 0.36545 0.96972 0.35808 0.0
N83 N 0.45308 0.99473 0.3998 0.0
C84 C 0.32335 1.03507 0.31433 0.0
H85 H 0.28016 0.70281 0.45957 0.0
H86 H 0.22895 0.77086 0.51968 0.0
H87 H 0.32554 0.75779 0.57305 0.0
H88 H 0.34823 1.10428 0.34578 0.0
H89 H 0.24561 1.00861 0.32866 0.0
H90 H 0.33526 1.04039 0.23509 0.0
C91 C 0.11378 0.54261 0.87642 0.0
N92 N 0.17785 0.53017 0.81014 0.0
N93 N 0.15346 0.61209 0.94382 0.0
C94 C 1.01002 0.48308 0.87717 0.0
C95 C 0.24825 0.64205 0.91466 0.0
N96 N 0.26387 0.5968 0.83248 0.0
C97 C 0.32661 0.7186 0.96429 0.0
H98 H 0.96717 0.51209 0.92176 0.0
H99 H 0.99981 0.41352 0.90655 0.0
H100 H 0.98497 0.47594 0.80171 0.0
H101 H 0.38647 0.69683 0.97861 0.0
H102 H 0.30397 0.73778 1.03421 0.0
H103 H 0.3531 0.78103 0.91656 0.0
Sm104 Sm 0.06837 0.26545 0.61153 0.0
Sm105 Sm 0.04905 0.23489 0.70734 0.0
C106 C 0.10967 0.33294 0.44279 0.0
C107 C 0.2117 0.35792 0.44245 0.0
C108 C 0.25921 0.39919 0.52732 0.0
C109 C 0.35082 0.40568 0.54378 0.0
C110 C 0.40194 0.39288 0.46514 0.0
C111 C 0.34572 0.31896 0.40732 0.0
C112 C 0.25299 0.30836 0.38695 0.0
C113 C 0.22997 0.22506 0.65571 0.0
C114 C 0.1574 0.44874 0.7517 0.0
C115 C 0.99966 1.13782 0.86306 0.0
C116 C 0.92187 1.07427 0.91265 0.0
C117 C 0.95921 1.04302 1.01205 0.0
C118 C 0.81682 0.92263 1.11374 0.0
C119 C 0.70904 0.90708 1.05555 0.0
C120 C 0.7111 0.95181 0.94003 0.0
C121 C 0.80666 1.03317 0.88186 0.0
C122 C 0.87842 0.24882 0.69975 0.0
C123 C 1.02025 1.04656 0.52325 0.0
O124 O 0.07978 0.3793 0.50411 0.0
O125 O 0.06243 0.24405 0.45063 0.0
O126 O 0.20127 0.27688 0.70269 0.0
O127 O 0.18055 0.20357 0.57891 0.0
O128 O 0.09551 0.4216 0.6808 0.0
O129 O 0.16485 0.37264 0.78193 0.0
O130 O 1.03034 1.10859 0.78752 0.0
O131 O 1.00536 0.22248 0.86013 0.0
O132 O 0.9111 0.20698 0.64188 0.0
O133 O 0.94314 0.30362 0.75393 0.0
O134 O 1.00286 1.09565 0.59885 0.0
O135 O 1.0053 1.09716 0.59663 0.0
H136 H 0.22743 0.42727 0.58148 0.0
H137 H 0.3837 0.43764 0.60928 0.0
H138 H 0.37091 0.26677 0.38417 0.0
H139 H 0.21169 0.25612 0.33667 0.0
H140 H 1.0358 1.07577 1.02514 0.0
H141 H 0.8139 0.89013 0.18473 0.0
H142 H 0.69454 0.89161 0.98758 0.0
H143 H 0.79086 1.06347 0.81707 0.0
Sm144 Sm 0.62274 0.25118 0.23608 0.0
Sm145 Sm 0.50757 0.23941 0.19802 0.0
C146 C 0.80323 0.28095 0.26245 0.0
C147 C 0.84028 0.24344 0.34171 0.0
C148 C 0.88241 0.3086 0.41188 0.0
C149 C 0.84067 0.29275 0.50296 0.0
C150 C 0.77197 0.20468 0.53022 0.0
C151 C 0.75134 1.13139 0.46619 0.0
C152 C 0.78718 1.1506 0.37122 0.0
C153 C 0.52355 1.08379 0.36513 0.0
C154 C 0.53773 0.40075 0.31671 0.0
C155 C 0.35055 0.22648 1.11191 0.0
C156 C 0.26527 0.17222 1.06265 0.0
C157 C 0.26104 1.08676 1.03059 0.0
C158 C 0.24363 1.06554 0.93418 0.0
C159 C 0.21652 1.12244 0.87055 0.0
C160 C 0.20731 0.2011 0.90956 0.0
C161 C 0.22888 0.2246 1.00572 0.0
C162 C 0.67404 0.44774 1.13084 0.0
C163 C 0.54806 1.11286 1.07855 0.0
O164 O 0.76406 0.33813 0.29024 0.0
O165 O 0.75037 0.22061 0.20269 0.0
O166 O 0.50627 0.15884 0.34844 0.0
O167 O 0.58915 1.09379 0.29975 0.0
O168 O 0.61303 0.37916 0.32628 0.0
O169 O 0.47247 0.34755 0.26398 0.0
O170 O 0.35468 0.22494 0.20608 0.0
O171 O 0.42731 0.22821 1.06759 0.0
O172 O 0.62915 0.3589 1.11413 0.0
O173 O 0.63068 0.35945 1.11067 0.0
O174 O 0.48907 1.0912 0.1504 0.0
O175 O 0.59181 0.2012 1.07635 0.0
H176 H 0.9277 0.37918 0.39123 0.0
H177 H 0.86096 0.35046 0.55207 0.0
H178 H 0.70336 1.06212 0.48749 0.0
H179 H 0.76022 1.09643 0.31833 0.0
H180 H 0.29122 1.04655 1.07301 0.0
H181 H 0.261 1.00881 0.90944 0.0
H182 H 0.1871 0.24699 0.86669 0.0
H183 H 0.2317 0.29137 1.03013 0.0
Sm184 Sm 0.5271 0.70013 0.67537 0.0
Sm185 Sm 0.57128 0.78408 0.71865 0.0
C186 C 0.57979 0.57428 0.59849 0.0
C187 C 0.57899 0.4835 0.61995 0.0
C188 C 0.64095 0.45754 0.5643 0.0
C189 C 0.66413 0.38523 0.59531 0.0
C190 C 0.62398 0.33576 0.68132 0.0
C191 C 0.55769 0.35828 0.73515 0.0
C192 C 0.53603 0.43346 0.70512 0.0
C193 C 0.35059 0.62843 0.7765 0.0
C194 C 0.63001 0.65361 0.86364 0.0
C195 C 0.56389 0.93265 0.79712 0.0
C196 C 0.48173 0.95401 0.782 0.0
C197 C 0.40245 0.88545 0.74047 0.0
C198 C 0.33064 0.90767 0.70268 0.0
C199 C 0.3373 0.99825 0.70695 0.0
C200 C 0.41247 1.06503 0.75793 0.0
C201 C 0.48548 1.04312 0.79404 0.0
C202 C 0.73794 0.81707 0.61027 0.0
C203 C 0.51144 0.89632 0.52494 0.0
O204 O 0.63379 0.63763 0.6556 0.0
O205 O 0.50027 0.58306 0.57982 0.0
O206 O 0.43204 0.68401 0.80715 0.0
O207 O 0.3596 0.61338 0.68443 0.0
O208 O 0.54775 0.61696 0.8211 0.0
O209 O 0.67197 0.73802 0.82739 0.0
O210 O 0.54514 0.85613 0.84595 0.0
O211 O 0.61357 0.93715 0.71856 0.0
O212 O 0.6547 0.79307 0.57759 0.0
O213 O 0.73297 0.81862 0.70444 0.0
O214 O 0.49279 0.81265 0.57057 0.0
O215 O 0.48801 0.80982 0.56729 0.0
H216 H 0.6761 0.49684 0.49984 0.0
H217 H 0.71466 0.36831 0.55229 0.0
H218 H 0.52521 0.31944 0.80047 0.0
H219 H 0.48832 0.45396 0.74924 0.0
H220 H 0.39805 0.81542 0.73317 0.0
H221 H 0.2696 0.85489 0.67093 0.0
H222 H 0.41561 1.13472 0.76817 0.0
H223 H 0.54558 1.09578 0.82772 0.0
Sm224 Sm 0.04352 0.68706 0.23652 0.0
Sm225 Sm 0.06055 0.77365 0.18012 0.0
C226 C 0.08968 0.54866 0.28748 0.0
C227 C 0.18366 0.54969 0.24893 0.0
C228 C 0.20278 0.46931 0.23726 0.0
C229 C 0.2978 0.47635 0.22429 0.0
C230 C 0.37509 0.56325 0.23073 0.0
C231 C 0.35399 0.64218 0.22075 0.0
C232 C 0.25975 0.63524 0.22879 0.0
C233 C 1.0036 0.84805 0.38212 0.0
C234 C 0.22706 0.83133 0.32476 0.0
C235 C 0.073 0.92952 1.12243 0.0
C236 C 0.98097 0.93423 1.11819 0.0
C237 C 0.96642 1.02041 0.18299 0.0
C238 C 0.89799 1.08014 0.15557 0.0
C239 C 0.82778 1.05531 1.05554 0.0
C240 C 0.84864 0.91768 0.96181 0.0
C241 C 0.92526 0.883 1.01676 0.0
C242 C 0.10016 0.64001 1.0164 0.0
C243 C 0.85685 0.63244 1.10679 0.0
O244 O 1.0219 0.53659 0.22546 0.0
O245 O 0.09641 0.61486 0.34763 0.0
O246 O 0.97161 0.77219 0.32675 0.0
O247 O 0.96695 0.77115 0.32814 0.0
O248 O 0.16761 0.7485 0.34728 0.0
O249 O 0.20488 0.86253 0.246 0.0
O250 O 0.08788 0.87416 1.06019 0.0
O251 O 0.10336 0.92489 0.20866 0.0
O252 O 0.13496 0.69949 1.08728 0.0
O253 O 0.13946 0.69966 1.08604 0.0
O254 O 0.91594 0.7185 1.09683 0.0
O255 O 0.88742 0.58925 0.17276 0.0
H256 H 0.14592 0.40163 0.24491 0.0
H257 H 0.31187 0.41367 0.22543 0.0
H258 H 0.4107 0.71013 0.22278 0.0
H259 H 0.24865 0.69869 0.22633 0.0
H260 H 1.01152 1.04495 0.24484 0.0
H261 H 0.89395 1.13092 0.2059 0.0
H262 H 0.81684 0.88022 0.89668 0.0
H263 H 0.94962 0.83838 0.97553 0.0
loop_
_geom_bond_atom_site_label_1
_geom_bond_atom_site_label_2
_geom_bond_distance
_geom_bond_site_symmetry_2
_ccdc_geom_bond_type
C0 N1 1.317 . S
C0 N2 1.348 . S
C0 C3 1.485 . S
N1 C0 1.317 . S
N1 N5 1.370 . S
N2 C0 1.348 . S
N2 C4 1.346 . S
C3 C0 1.485 . S
C3 H7 0.960 . S
C3 H8 0.961 . S
C3 H9 0.960 . S
C4 N2 1.346 . S
C4 N5 1.307 . S
C4 C6 1.486 . S
N5 N1 1.370 . S
N5 C4 1.307 . S
C6 C4 1.486 . S
C6 H10 0.960 . S
C6 H11 0.960 . S
C6 H12 0.959 . S
H7 C3 0.960 . S
H8 C3 0.961 . S
H9 C3 0.960 . S
H10 C6 0.960 . S
H11 C6 0.960 . S
H12 C6 0.959 . S
C13 N14 1.317 . S
C13 N15 1.348 . S
C13 C16 1.485 . S
N14 C13 1.317 . S
N14 N18 1.370 . S
N15 C13 1.348 . S
N15 C17 1.346 . S
C16 C13 1.485 . S
C16 H20 0.960 1_455 S
C16 H21 0.961 . S
C16 H22 0.960 . S
C17 N15 1.346 . S
C17 N18 1.307 . S
C17 C19 1.486 . S
N18 N14 1.370 . S
N18 C17 1.307 . S
C19 C17 1.486 . S
C19 H23 0.960 . S
C19 H24 0.960 . S
C19 H25 0.959 . S
H20 C16 0.960 1_655 S
H21 C16 0.961 . S
H22 C16 0.960 . S
H23 C19 0.960 . S
H24 C19 0.960 . S
H25 C19 0.959 . S
C26 N27 1.317 . S
C26 N28 1.348 . S
C26 C29 1.485 . S
N27 C26 1.317 . S
N27 N31 1.370 . S
N28 C26 1.348 . S
N28 C30 1.346 . S
C29 C26 1.485 . S
C29 H33 0.960 . S
C29 H34 0.961 . S
C29 H35 0.960 . S
C30 N28 1.346 . S
C30 N31 1.307 . S
C30 C32 1.486 . S
N31 N27 1.370 . S
N31 C30 1.307 . S
C32 C30 1.486 . S
C32 H36 0.960 . S
C32 H37 0.960 . S
C32 H38 0.959 . S
H33 C29 0.960 . S
H34 C29 0.961 . S
H35 C29 0.960 . S
H36 C32 0.960 . S
H37 C32 0.960 . S
H38 C32 0.959 . S
C39 N40 1.317 . S
C39 N41 1.348 . S
C39 C42 1.485 . S
N40 C39 1.317 . S
N40 N44 1.370 . S
N41 C39 1.348 . S
N41 C43 1.346 . S
C42 C39 1.485 . S
C42 H46 0.960 . S
C42 H47 0.961 . S
C42 H48 0.960 . S
C43 N41 1.346 . S
C43 N44 1.307 . S
C43 C45 1.486 . S
N44 N40 1.370 . S
N44 C43 1.307 . S
C45 C43 1.486 . S
C45 H49 0.960 . S
C45 H50 0.960 . S
C45 H51 0.959 . S
H46 C42 0.960 . S
H47 C42 0.961 . S
H48 C42 0.960 . S
H49 C45 0.960 . S
H50 C45 0.960 . S
H51 C45 0.959 . S
C52 N53 1.317 . S
C52 N54 1.348 . S
C52 C55 1.485 1_556 S
N53 C52 1.317 . S
N53 N57 1.370 . S
N54 C52 1.348 . S
N54 C56 1.346 . S
C55 C52 1.485 1_554 S
C55 H59 0.960 . S
C55 H60 0.961 . S
C55 H61 0.960 . S
C56 N54 1.346 . S
C56 N57 1.307 . S
C56 C58 1.486 . S
N57 N53 1.370 . S
N57 C56 1.307 . S
C58 C56 1.486 . S
C58 H62 0.960 . S
C58 H63 0.960 . S
C58 H64 0.959 . S
H59 C55 0.960 . S
H60 C55 0.961 . S
H61 C55 0.960 . S
H62 C58 0.960 . S
H63 C58 0.960 . S
H64 C58 0.959 . S
C65 N66 1.317 . S
C65 N67 1.348 . S
C65 C68 1.485 1_655 S
N66 C65 1.317 . S
N66 N70 1.370 . S
N67 C65 1.348 . S
N67 C69 1.346 . S
C68 C65 1.485 1_455 S
C68 H72 0.960 1_455 S
C68 H73 0.961 . S
C68 H74 0.960 . S
C69 N67 1.346 . S
C69 N70 1.307 . S
C69 C71 1.486 . S
N70 N66 1.370 . S
N70 C69 1.307 . S
C71 C69 1.486 . S
C71 H75 0.960 . S
C71 H76 0.960 . S
C71 H77 0.959 . S
H72 C68 0.960 1_655 S
H73 C68 0.961 . S
H74 C68 0.960 . S
H75 C71 0.960 . S
H76 C71 0.960 . S
H77 C71 0.959 . S
C78 N79 1.317 . S
C78 N80 1.348 . S
C78 C81 1.485 . S
N79 C78 1.317 . S
N79 N83 1.370 . S
N80 C78 1.348 . S
N80 C82 1.346 . S
C81 C78 1.485 . S
C81 H85 0.960 . S
C81 H86 0.961 . S
C81 H87 0.960 . S
C82 N80 1.346 . S
C82 N83 1.307 . S
C82 C84 1.486 . S
N83 N79 1.370 . S
N83 C82 1.307 . S
C84 C82 1.486 . S
C84 H88 0.960 . S
C84 H89 0.960 . S
C84 H90 0.959 . S
H85 C81 0.960 . S
H86 C81 0.961 . S
H87 C81 0.960 . S
H88 C84 0.960 . S
H89 C84 0.960 . S
H90 C84 0.959 . S
C91 N92 1.317 . S
C91 N93 1.348 . S
C91 C94 1.485 . S
N92 C91 1.317 . S
N92 N96 1.370 . S
N93 C91 1.348 . S
N93 C95 1.346 . S
C94 C91 1.485 . S
C94 H98 0.960 1_455 S
C94 H99 0.961 . S
C94 H100 0.960 . S
C95 N93 1.346 . S
C95 N96 1.307 . S
C95 C97 1.486 . S
N96 N92 1.370 . S
N96 C95 1.307 . S
C97 C95 1.486 . S
C97 H101 0.960 . S
C97 H102 0.960 . S
C97 H103 0.959 . S
H98 C94 0.960 1_655 S
H99 C94 0.961 . S
H100 C94 0.960 . S
H101 C97 0.960 . S
H102 C97 0.960 . S
H103 C97 0.959 . S
Sm104 C106 2.846 . S
Sm104 O124 2.543 . S
Sm104 O125 2.450 . S
Sm104 O126 2.681 1_545 S
Sm104 O127 2.464 1_545 S
Sm104 O128 2.396 . S
Sm104 O132 2.386 . S
Sm104 O135 2.408 1_545 S
Sm105 C115 2.846 1_545 S
Sm105 O126 2.386 1_645 S
Sm105 O129 2.408 1_655 S
Sm105 O130 2.543 1_545 S
Sm105 O131 2.450 1_545 S
Sm105 O132 2.681 1_655 S
Sm105 O133 2.464 . S
Sm105 O134 2.396 1_545 S
C106 Sm104 2.846 . S
C106 C107 1.506 . S
C106 O124 1.261 . S
C106 O125 1.242 . S
C107 C106 1.506 . S
C107 C108 1.358 . S
C107 C112 1.382 . S
C108 C107 1.358 . S
C108 C109 1.385 . S
C108 H136 0.930 . S
C109 C108 1.385 . S
C109 C110 1.395 . S
C109 H137 0.929 . S
C110 C109 1.395 . S
C110 C111 1.335 . S
C111 C110 1.335 . S
C111 C112 1.398 . S
C111 H138 0.930 . S
C112 C107 1.382 . S
C112 C111 1.398 . S
C112 H139 0.929 . S
C113 O126 1.271 . S
C113 O127 1.251 . S
C114 O128 1.252 . S
C114 O129 1.272 . S
C115 Sm105 2.846 1_565 S
C115 C116 1.506 . S
C115 O130 1.261 . S
C115 O131 1.242 . S
C116 C115 1.506 . S
C116 C117 1.358 . S
C116 C121 1.382 . S
C117 C116 1.358 . S
C117 C118 1.385 . S
C117 H140 0.930 . S
C118 C117 1.385 . S
C118 C119 1.395 . S
C118 H141 0.929 . S
C119 C118 1.395 . S
C119 C120 1.335 . S
C120 C119 1.335 . S
C120 C121 1.398 . S
C120 H142 0.930 . S
C121 C116 1.382 . S
C121 C120 1.398 . S
C121 H143 0.929 . S
C122 O132 1.271 1_655 S
C122 O133 1.251 . S
C123 O134 1.252 . S
C123 O135 1.272 1_655 S
O124 Sm104 2.543 . S
O124 C106 1.261 . S
O125 Sm104 2.450 . S
O125 C106 1.242 . S
O126 Sm104 2.681 1_565 S
O126 Sm105 2.386 1_465 S
O126 C113 1.271 . S
O127 Sm104 2.464 1_565 S
O127 C113 1.251 . S
O128 Sm104 2.396 . S
O128 C114 1.252 . S
O129 Sm105 2.408 1_455 S
O129 C114 1.272 . S
O130 Sm105 2.543 1_565 S
O130 C115 1.261 . S
O131 Sm105 2.450 1_565 S
O131 C115 1.242 . S
O132 Sm104 2.386 . S
O132 Sm105 2.681 1_455 S
O132 C122 1.271 1_455 S
O133 Sm105 2.464 . S
O133 C122 1.251 . S
O134 Sm105 2.396 1_565 S
O134 C123 1.252 . S
O135 Sm104 2.408 1_565 S
O135 C123 1.272 1_455 S
H136 C108 0.930 . S
H137 C109 0.929 . S
H138 C111 0.930 . S
H139 C112 0.929 . S
H140 C117 0.930 . S
H141 C118 0.929 . S
H142 C120 0.930 . S
H143 C121 0.929 . S
Sm144 C146 2.846 . S
Sm144 O164 2.543 . S
Sm144 O165 2.450 . S
Sm144 O166 2.681 1_545 S
Sm144 O167 2.464 1_545 S
Sm144 O168 2.396 . S
Sm144 O172 2.386 . S
Sm144 O175 2.408 1_545 S
Sm145 C155 2.846 1_544 S
Sm145 O166 2.386 1_545 S
Sm145 O169 2.408 . S
Sm145 O170 2.543 1_544 S
Sm145 O171 2.450 1_554 S
Sm145 O172 2.681 . S
Sm145 O173 2.464 1_554 S
Sm145 O174 2.396 1_554 S
C146 Sm144 2.846 . S
C146 C147 1.506 . S
C146 O164 1.261 . S
C146 O165 1.242 . S
C147 C146 1.506 . S
C147 C148 1.358 . S
C147 C152 1.382 . S
C148 C147 1.358 . S
C148 C149 1.385 . S
C148 H176 0.930 . S
C149 C148 1.385 . S
C149 C150 1.395 . S
C149 H177 0.929 . S
C150 C149 1.395 . S
C150 C151 1.335 . S
C151 C150 1.335 . S
C151 C152 1.398 . S
C151 H178 0.930 . S
C152 C147 1.382 . S
C152 C151 1.398 . S
C152 H179 0.929 . S
C153 O166 1.271 . S
C153 O167 1.251 . S
C154 O168 1.252 . S
C154 O169 1.272 . S
C155 Sm145 2.846 1_566 S
C155 C156 1.506 . S
C155 O170 1.261 . S
C155 O171 1.242 1_565 S
C156 C155 1.506 . S
C156 C157 1.358 . S
C156 C161 1.382 . S
C157 C156 1.358 . S
C157 C158 1.385 . S
C157 H180 0.930 . S
C158 C157 1.385 . S
C158 C159 1.395 . S
C158 H181 0.929 . S
C159 C158 1.395 . S
C159 C160 1.335 . S
C160 C159 1.335 . S
C160 C161 1.398 . S
C160 H182 0.930 . S
C161 C156 1.382 . S
C161 C160 1.398 . S
C161 H183 0.929 1_565 S
C162 O172 1.271 . S
C162 O173 1.251 1_554 S
C163 O174 1.252 1_565 S
C163 O175 1.272 1_556 S
O164 Sm144 2.543 . S
O164 C146 1.261 . S
O165 Sm144 2.450 . S
O165 C146 1.242 . S
O166 Sm144 2.681 1_565 S
O166 Sm145 2.386 1_565 S
O166 C153 1.271 . S
O167 Sm144 2.464 1_565 S
O167 C153 1.251 . S
O168 Sm144 2.396 . S
O168 C154 1.252 . S
O169 Sm145 2.408 . S
O169 C154 1.272 . S
O170 Sm145 2.543 1_566 S
O170 C155 1.261 . S
O171 Sm145 2.450 1_556 S
O171 C155 1.242 1_545 S
O172 Sm144 2.386 . S
O172 Sm145 2.681 . S
O172 C162 1.271 . S
O173 Sm145 2.464 1_556 S
O173 C162 1.251 1_556 S
O174 Sm145 2.396 1_556 S
O174 C163 1.252 1_545 S
O175 Sm144 2.408 1_565 S
O175 C163 1.272 1_554 S
H176 C148 0.930 . S
H177 C149 0.929 . S
H178 C151 0.930 . S
H179 C152 0.929 . S
H180 C157 0.930 . S
H181 C158 0.929 . S
H182 C160 0.930 . S
H183 C161 0.929 1_545 S
Sm184 C186 2.846 . S
Sm184 O204 2.543 . S
Sm184 O205 2.450 . S
Sm184 O206 2.681 . S
Sm184 O207 2.464 . S
Sm184 O208 2.396 . S
Sm184 O212 2.386 . S
Sm184 O215 2.408 . S
Sm185 C195 2.846 . S
Sm185 O206 2.386 . S
Sm185 O209 2.408 . S
Sm185 O210 2.543 . S
Sm185 O211 2.450 . S
Sm185 O212 2.681 . S
Sm185 O213 2.464 . S
Sm185 O214 2.396 . S
C186 Sm184 2.846 . S
C186 C187 1.506 . S
C186 O204 1.261 . S
C186 O205 1.242 . S
C187 C186 1.506 . S
C187 C188 1.358 . S
C187 C192 1.382 . S
C188 C187 1.358 . S
C188 C189 1.385 . S
C188 H216 0.930 . S
C189 C188 1.385 . S
C189 C190 1.395 . S
C189 H217 0.929 . S
C190 C189 1.395 . S
C190 C191 1.335 . S
C191 C190 1.335 . S
C191 C192 1.398 . S
C191 H218 0.930 . S
C192 C187 1.382 . S
C192 C191 1.398 . S
C192 H219 0.929 . S
C193 O206 1.271 . S
C193 O207 1.251 . S
C194 O208 1.252 . S
C194 O209 1.272 . S
C195 Sm185 2.846 . S
C195 C196 1.506 . S
C195 O210 1.261 . S
C195 O211 1.242 . S
C196 C195 1.506 . S
C196 C197 1.358 . S
C196 C201 1.382 . S
C197 C196 1.358 . S
C197 C198 1.385 . S
C197 H220 0.930 . S
C198 C197 1.385 . S
C198 C199 1.395 . S
C198 H221 0.929 . S
C199 C198 1.395 . S
C199 C200 1.335 . S
C200 C199 1.335 . S
C200 C201 1.398 . S
C200 H222 0.930 . S
C201 C196 1.382 . S
C201 C200 1.398 . S
C201 H223 0.929 . S
C202 O212 1.271 . S
C202 O213 1.251 . S
C203 O214 1.252 . S
C203 O215 1.272 . S
O204 Sm184 2.543 . S
O204 C186 1.261 . S
O205 Sm184 2.450 . S
O205 C186 1.242 . S
O206 Sm184 2.681 . S
O206 Sm185 2.386 . S
O206 C193 1.271 . S
O207 Sm184 2.464 . S
O207 C193 1.251 . S
O208 Sm184 2.396 . S
O208 C194 1.252 . S
O209 Sm185 2.408 . S
O209 C194 1.272 . S
O210 Sm185 2.543 . S
O210 C195 1.261 . S
O211 Sm185 2.450 . S
O211 C195 1.242 . S
O212 Sm184 2.386 . S
O212 Sm185 2.681 . S
O212 C202 1.271 . S
O213 Sm185 2.464 . S
O213 C202 1.251 . S
O214 Sm185 2.396 . S
O214 C203 1.252 . S
O215 Sm184 2.408 . S
O215 C203 1.272 . S
H216 C188 0.930 . S
H217 C189 0.929 . S
H218 C191 0.930 . S
H219 C192 0.929 . S
H220 C197 0.930 . S
H221 C198 0.929 . S
H222 C200 0.930 . S
H223 C201 0.929 . S
Sm224 C226 2.846 . S
Sm224 O244 2.543 . S
Sm224 O245 2.450 . S
Sm224 O246 2.681 1_455 S
Sm224 O247 2.464 1_455 S
Sm224 O248 2.396 . S
Sm224 O252 2.386 1_554 S
Sm224 O255 2.408 1_455 S
Sm225 C235 2.846 . S
Sm225 O246 2.386 1_556 S
Sm225 O249 2.408 1_656 S
Sm225 O250 2.543 . S
Sm225 O251 2.450 . S
Sm225 O252 2.681 1_655 S
Sm225 O253 2.464 1_655 S
Sm225 O254 2.396 . S
C226 Sm224 2.846 . S
C226 C227 1.506 . S
C226 O244 1.261 . S
C226 O245 1.242 . S
C227 C226 1.506 . S
C227 C228 1.358 . S
C227 C232 1.382 . S
C228 C227 1.358 . S
C228 C229 1.385 . S
C228 H256 0.930 . S
C229 C228 1.385 . S
C229 C230 1.395 . S
C229 H257 0.929 . S
C230 C229 1.395 . S
C230 C231 1.335 . S
C231 C230 1.335 . S
C231 C232 1.398 . S
C231 H258 0.930 . S
C232 C227 1.382 . S
C232 C231 1.398 . S
C232 H259 0.929 . S
C233 O246 1.271 . S
C233 O247 1.251 . S
C234 O248 1.252 . S
C234 O249 1.272 . S
C235 Sm225 2.846 . S
C235 C236 1.506 . S
C235 O250 1.261 . S
C235 O251 1.242 . S
C236 C235 1.506 . S
C236 C237 1.358 . S
C236 C241 1.382 . S
C237 C236 1.358 . S
C237 C238 1.385 . S
C237 H260 0.930 . S
C238 C237 1.385 . S
C238 C239 1.395 . S
C238 H261 0.929 . S
C239 C238 1.395 . S
C239 C240 1.335 . S
C240 C239 1.335 . S
C240 C241 1.398 . S
C240 H262 0.930 . S
C241 C236 1.382 . S
C241 C240 1.398 . S
C241 H263 0.929 . S
C242 O252 1.271 . S
C242 O253 1.251 . S
C243 O254 1.252 . S
C243 O255 1.272 1_556 S
O244 Sm224 2.543 . S
O244 C226 1.261 . S
O245 Sm224 2.450 . S
O245 C226 1.242 . S
O246 Sm224 2.681 1_655 S
O246 Sm225 2.386 1_554 S
O246 C233 1.271 . S
O247 Sm224 2.464 1_655 S
O247 C233 1.251 . S
O248 Sm224 2.396 . S
O248 C234 1.252 . S
O249 Sm225 2.408 1_454 S
O249 C234 1.272 . S
O250 Sm225 2.543 . S
O250 C235 1.261 . S
O251 Sm225 2.450 . S
O251 C235 1.242 . S
O252 Sm224 2.386 1_556 S
O252 Sm225 2.681 1_455 S
O252 C242 1.271 . S
O253 Sm225 2.464 1_455 S
O253 C242 1.251 . S
O254 Sm225 2.396 . S
O254 C243 1.252 . S
O255 Sm224 2.408 1_655 S
O255 C243 1.272 1_554 S
H256 C228 0.930 . S
H257 C229 0.929 . S
H258 C231 0.930 . S
H259 C232 0.929 . S
H260 C237 0.930 . S
H261 C238 0.929 . S
H262 C240 0.930 . S
H263 C241 0.929 . S
N1 C110 1.405 . S
N18 C159 2.078 . S
C194 N28 3.234 . S
N40 C233 4.116 . S
C154 N5 3.181 . S
C113 N14 1.676 . S
C243 N31 2.719 . S
C202 N41 2.187 . S
N2 C230 1.589 . S
C162 N27 3.678 1_554 S
N44 C123 3.825 . S
N15 C199 1.799 . S
C119 N57 2.589 . S
N70 C150 1.425 . S
N79 C203 3.574 . S
N93 C242 3.850 . S
N54 C163 2.851 . S
C122 N66 1.413 . S
C234 N80 2.198 . S
C193 N96 2.565 . S
N53 C239 2.528 . S
C153 N83 3.334 . S
C114 N92 4.457 . S
N67 C190 2.345 . S
