# Generated by pormake.
# Topology pyr, (3,6)-cn, num edge types: 1
# Building blocks:
#     Node 0, Type 0, BuildingBlock: CUQRIR_clean_linker_1, # of connection points: 3
#     Node 1, Type 0, BuildingBlock: CUQRIR_clean_linker_1, # of connection points: 3
#     Node 2, Type 0, BuildingBlock: CUQRIR_clean_linker_1, # of connection points: 3
#     Node 3, Type 0, BuildingBlock: CUQRIR_clean_linker_1, # of connection points: 3
#     Node 4, Type 0, BuildingBlock: CUQRIR_clean_linker_1, # of connection points: 3
#     Node 5, Type 0, BuildingBlock: CUQRIR_clean_linker_1, # of connection points: 3
#     Node 6, Type 0, BuildingBlock: CUQRIR_clean_linker_1, # of connection points: 3
#     Node 7, Type 0, BuildingBlock: CUQRIR_clean_linker_1, # of connection points: 3
#     Node 8, Type 1, BuildingBlock: CIFDUS_clean_sbu_1, # of connection points: 6
#     Node 9, Type 1, BuildingBlock: CIFDUS_clean_sbu_1, # of connection points: 6
#     Node 10, Type 1, BuildingBlock: CIFDUS_clean_sbu_1, # of connection points: 6
#     Node 11, Type 1, BuildingBlock: CIFDUS_clean_sbu_1, # of connection points: 6
#     Edge 12, Type (0, 1), BuildingBlock: XUDNAN_clean_linker_2, # of connection points: 2
#     Edge 13, Type (0, 1), BuildingBlock: XUDNAN_clean_linker_2, # of connection points: 2
#     Edge 14, Type (0, 1), BuildingBlock: XUDNAN_clean_linker_2, # of connection points: 2
#     Edge 15, Type (0, 1), BuildingBlock: XUDNAN_clean_linker_2, # of connection points: 2
#     Edge 16, Type (0, 1), BuildingBlock: XUDNAN_clean_linker_2, # of connection points: 2
#     Edge 17, Type (0, 1), BuildingBlock: XUDNAN_clean_linker_2, # of connection points: 2
#     Edge 18, Type (0, 1), BuildingBlock: XUDNAN_clean_linker_2, # of connection points: 2
#     Edge 19, Type (0, 1), BuildingBlock: XUDNAN_clean_linker_2, # of connection points: 2
#     Edge 20, Type (0, 1), BuildingBlock: XUDNAN_clean_linker_2, # of connection points: 2
#     Edge 21, Type (0, 1), BuildingBlock: XUDNAN_clean_linker_2, # of connection points: 2
#     Edge 22, Type (0, 1), BuildingBlock: XUDNAN_clean_linker_2, # of connection points: 2
#     Edge 23, Type (0, 1), BuildingBlock: XUDNAN_clean_linker_2, # of connection points: 2
#     Edge 24, Type (0, 1), BuildingBlock: XUDNAN_clean_linker_2, # of connection points: 2
#     Edge 25, Type (0, 1), BuildingBlock: XUDNAN_clean_linker_2, # of connection points: 2
#     Edge 26, Type (0, 1), BuildingBlock: XUDNAN_clean_linker_2, # of connection points: 2
#     Edge 27, Type (0, 1), BuildingBlock: XUDNAN_clean_linker_2, # of connection points: 2
#     Edge 28, Type (0, 1), BuildingBlock: XUDNAN_clean_linker_2, # of connection points: 2
#     Edge 29, Type (0, 1), BuildingBlock: XUDNAN_clean_linker_2, # of connection points: 2
#     Edge 30, Type (0, 1), BuildingBlock: XUDNAN_clean_linker_2, # of connection points: 2
#     Edge 31, Type (0, 1), BuildingBlock: XUDNAN_clean_linker_2, # of connection points: 2
#     Edge 32, Type (0, 1), BuildingBlock: XUDNAN_clean_linker_2, # of connection points: 2
#     Edge 33, Type (0, 1), BuildingBlock: XUDNAN_clean_linker_2, # of connection points: 2
#     Edge 34, Type (0, 1), BuildingBlock: XUDNAN_clean_linker_2, # of connection points: 2
#     Edge 35, Type (0, 1), BuildingBlock: XUDNAN_clean_linker_2, # of connection points: 2
# Relax obj value: 0.105
# Max RMSD: 0.218
# Mean RMSD: 0.159
data_MOF--net-pry--node1-CIFDUS_clean_sbu_1--node2-CUQRIR_clean_linker_1--edge1-XUDNAN_clean_linker_2
_symmetry_space_group_name_H-M    P1
_symmetry_Int_Tables_number       1
_symmetry_cell_setting            triclinic
loop_
_symmetry_equiv_pos_as_xyz
'x, y, z'
_cell_length_a     34.366085
_cell_length_b     33.153343
_cell_length_c     32.212424
_cell_angle_alpha  90.526191
_cell_angle_beta   93.024709
_cell_angle_gamma 96.709478
loop_
_atom_site_label
_atom_site_type_symbol
_atom_site_fract_x
_atom_site_fract_y
_atom_site_fract_z
_atom_type_partial_charge
C0 C 0.15428 0.19787 0.15798 0.0
N1 N 0.18015 0.17148 0.1705 0.0
N2 N 0.16707 0.22038 0.1253 0.0
C3 C 0.11371 0.19771 0.17377 0.0
C4 C 0.20143 0.20574 0.1174 0.0
N5 N 0.20923 0.17528 0.144 0.0
C6 C 0.22964 0.22478 0.08699 0.0
H7 H 0.0927 0.20523 0.14847 0.0
H8 H 0.11423 0.22092 0.19886 0.0
H9 H 0.10301 0.16758 0.18624 0.0
H10 H 0.22719 0.25773 0.0842 0.0
H11 H 0.22246 0.21035 0.0559 0.0
H12 H 0.26037 0.22077 0.09677 0.0
C13 C 0.37866 0.88175 0.60819 0.0
N14 N 0.37238 0.91036 0.63677 0.0
N15 N 0.40659 0.85884 0.62222 0.0
C16 C 0.35474 0.87368 0.56766 0.0
C17 C 0.41776 0.87505 0.66049 0.0
N18 N 0.3968 0.90618 0.66967 0.0
C19 C 0.44798 0.85924 0.6895 0.0
H20 H 0.32408 0.86206 0.57415 0.0
H21 H 0.36696 0.85153 0.54753 0.0
H22 H 0.35411 0.90226 0.55019 0.0
H23 H 0.469 0.84361 0.67214 0.0
H24 H 0.433 0.83704 0.71069 0.0
H25 H 0.46439 0.88435 0.70854 0.0
C26 C 0.62419 0.34495 0.83856 0.0
N27 N 0.65391 0.34144 0.86701 0.0
N28 N 0.62777 0.38235 0.82189 0.0
C29 C 0.59102 0.31198 0.82707 0.0
C30 C 0.66021 0.40207 0.84235 0.0
N31 N 0.67595 0.37726 0.87049 0.0
C32 C 0.67659 0.44536 0.83441 0.0
H33 H 0.59097 0.30448 0.79342 0.0
H34 H 0.5626 0.32292 0.83311 0.0
H35 H 0.59216 0.28408 0.84539 0.0
H36 H 0.66732 0.46538 0.85886 0.0
H37 H 0.66543 0.45665 0.8044 0.0
H38 H 0.70913 0.44843 0.83547 0.0
C39 C 0.86655 0.61537 0.37789 0.0
N40 N 0.90236 0.6339 0.36899 0.0
N41 N 0.8576 0.62501 0.41669 0.0
C42 C 0.83906 0.58964 0.34761 0.0
C43 C 0.88915 0.65011 0.43128 0.0
N44 N 0.91673 0.65583 0.40247 0.0
C45 C 0.89058 0.67324 0.47189 0.0
H46 H 0.84538 0.59745 0.31502 0.0
H47 H 0.80801 0.59336 0.35279 0.0
H48 H 0.84294 0.55723 0.35242 0.0
H49 H 0.87462 0.65454 0.49541 0.0
H50 H 0.87592 0.70107 0.46716 0.0
H51 H 0.92134 0.68226 0.4836 0.0
C52 C 0.86717 0.90009 0.91192 0.0
N53 N 0.88816 0.88334 0.88277 0.0
N54 N 0.84631 0.9293 0.89561 0.0
C55 C 0.86703 0.88729 0.95661 0.0
C56 C 0.85563 0.92975 0.85514 0.0
N57 N 0.8811 0.90244 0.84719 0.0
C58 C 0.83652 0.95363 0.82182 0.0
H59 H 0.84478 0.86053 0.95954 0.0
H60 H 0.86004 0.91218 0.97717 0.0
H61 H 0.89603 0.87834 0.96707 0.0
H62 H 0.8528 0.98449 0.82054 0.0
H63 H 0.80564 0.95658 0.82852 0.0
H64 H 0.83694 0.93876 0.79087 0.0
C65 C 0.70575 0.18233 0.45007 0.0
N66 N 0.71396 0.15426 0.42157 0.0
N67 N 0.6685 0.19181 0.4436 0.0
C68 C 0.73551 0.20401 0.48105 0.0
C69 C 0.6544 0.16826 0.41028 0.0
N70 N 0.68196 0.1462 0.39613 0.0
C71 C 0.61298 0.16611 0.39179 0.0
H72 H 0.73513 0.1868 0.51043 0.0
H73 H 0.72859 0.23514 0.48791 0.0
H74 H 0.76549 0.20591 0.46947 0.0
H75 H 0.61187 0.18762 0.36569 0.0
H76 H 0.59272 0.1743 0.41538 0.0
H77 H 0.60289 0.13512 0.37932 0.0
C78 C 0.33502 0.67925 0.18495 0.0
N79 N 0.36716 0.69906 0.20577 0.0
N80 N 0.32049 0.70347 0.15571 0.0
C81 C 0.31588 0.63765 0.19537 0.0
C82 C 0.34467 0.73862 0.15961 0.0
N83 N 0.37246 0.73626 0.19049 0.0
C84 C 0.34308 0.77427 0.13106 0.0
H85 H 0.32886 0.61454 0.17711 0.0
H86 H 0.28386 0.63462 0.1874 0.0
H87 H 0.32076 0.63138 0.2289 0.0
H88 H 0.32696 0.79712 0.14596 0.0
H89 H 0.3279 0.76486 0.10067 0.0
H90 H 0.37295 0.789 0.12543 0.0
C91 C 0.11453 0.40382 0.65576 0.0
N92 N 0.13573 0.39216 0.62421 0.0
N93 N 0.13635 0.43127 0.6817 0.0
C94 C 0.07211 0.38833 0.66055 0.0
C95 C 0.17163 0.43635 0.66431 0.0
N96 N 0.17112 0.41307 0.62943 0.0
C97 C 0.20831 0.45957 0.68436 0.0
H98 H 0.05682 0.41131 0.67639 0.0
H99 H 0.07016 0.36029 0.67924 0.0
H100 H 0.05714 0.38052 0.62966 0.0
H101 H 0.20792 0.45874 0.71875 0.0
H102 H 0.21024 0.49169 0.67453 0.0
H103 H 0.23499 0.44681 0.67486 0.0
O104 O 0.9934 0.05027 0.48775 0.0
Mn105 Mn 0.04322 0.01932 0.50591 0.0
O106 O 0.9715 0.02396 0.42559 0.0
Mn107 Mn 0.01126 0.992 0.4226 0.0
O108 O 0.09236 0.98675 0.52253 0.0
O109 O 0.0631 0.07319 0.54132 0.0
Mn110 Mn 0.08027 0.04372 0.58376 0.0
O111 O 0.00948 0.99121 0.55524 0.0
O112 O 0.12462 0.02098 0.57525 0.0
O113 O 0.07809 0.04669 0.45676 0.0
O114 O 0.05499 0.01438 0.39798 0.0
O115 O 0.09212 0.09238 0.60437 0.0
O116 O 0.0429 0.01432 0.61313 0.0
C117 C 0.00839 0.93509 0.4475 0.0
C118 C 0.96872 0.04791 0.4558 0.0
C119 C 0.12275 0.99365 0.54789 0.0
C120 C 0.07722 0.10238 0.56866 0.0
C121 C 0.0139 0.99291 0.59543 0.0
C122 C 0.08009 0.03945 0.41731 0.0
O123 O 0.02192 0.96748 0.47043 0.0
O124 O 0.9969 0.94032 0.40912 0.0
O125 O 0.5002 0.03119 0.97317 0.0
Mn126 Mn 0.52732 0.03722 0.03611 0.0
O127 O 0.50434 0.96728 0.95354 0.0
Mn128 Mn 0.53636 0.95829 0.99821 0.0
O129 O 0.55346 0.04527 0.09761 0.0
O130 O 0.53664 0.09853 0.02927 0.0
Mn131 Mn 0.5126 0.1195 0.06993 0.0
O132 O 0.46868 0.03953 0.05925 0.0
O133 O 0.53878 0.10635 0.11891 0.0
O134 O 0.5861 0.03561 0.01473 0.0
O135 O 0.5887 0.97178 0.9936 0.0
O136 O 0.53344 0.16324 0.04231 0.0
O137 O 0.45975 0.10509 0.06376 0.0
C138 C 0.5157 0.93552 0.05278 0.0
C139 C 0.49223 1.00117 0.94668 0.0
C140 C 0.55574 0.07446 0.12497 0.0
C141 C 0.54837 0.13619 0.02078 0.0
C142 C 0.44622 0.06809 0.06458 0.0
C143 C 0.60545 0.00717 1.0014 0.0
O144 O 0.52017 0.975 0.04643 0.0
O145 O 0.5237 0.91169 0.02301 0.0
O146 O 0.56215 0.54815 0.49258 0.0
Mn147 Mn 0.50721 0.51892 0.50242 0.0
O148 O 0.58176 0.50802 0.4443 0.0
Mn149 Mn 0.53125 0.48722 0.42462 0.0
O150 O 0.45179 0.4915 0.51517 0.0
O151 O 0.5204 0.52314 0.56314 0.0
Mn152 Mn 0.48886 0.5516 0.58863 0.0
O153 O 0.48569 0.57696 0.50348 0.0
O154 O 0.4386 0.52499 0.57352 0.0
O155 O 0.52912 0.45987 0.50368 0.0
O156 O 0.5168 0.43531 0.43961 0.0
O157 O 0.51892 0.52876 0.6294 0.0
O158 O 0.50081 0.60242 0.56751 0.0
C159 C 0.49718 0.53076 0.40251 0.0
C160 C 0.58882 0.53672 0.47086 0.0
C161 C 0.4287 0.49937 0.54359 0.0
C162 C 0.53175 0.50995 0.59849 0.0
C163 C 0.49048 0.60722 0.52971 0.0
C164 C 0.52704 0.42982 0.47721 0.0
O165 O 0.49236 0.5149 0.43939 0.0
O166 O 0.51785 0.51194 0.37773 0.0
O167 O 0.94955 0.50602 0.00797 0.0
Mn168 Mn 1.00337 0.54292 0.00865 0.0
O169 O 0.91876 0.5232 0.94901 0.0
Mn170 Mn 0.96235 0.54642 0.92279 0.0
O171 O 0.0556 0.58121 1.007 0.0
O172 O 0.99832 0.55063 0.07234 0.0
Mn173 Mn 0.04724 0.53817 0.0857 0.0
O174 O 0.0318 0.48706 0.01932 0.0
O175 O 0.09084 0.55691 0.0574 0.0
O176 O 0.97475 0.59766 0.9963 0.0
O177 O 0.96921 0.60198 0.92657 0.0
O178 O 0.03879 0.57497 0.1244 0.0
O179 O 0.04154 0.48328 0.08809 0.0
C180 C 0.00976 0.50971 0.91684 0.0
C181 C 0.91884 0.50497 0.98341 0.0
C182 C 0.08847 0.57884 0.02602 0.0
C183 C 1.00502 0.57533 0.1048 0.0
C184 C 0.04045 0.46651 0.05246 0.0
C185 C 0.96858 0.61819 0.96248 0.0
O186 O 0.00769 0.53571 0.94663 0.0
O187 O 0.98241 0.51097 0.88789 0.0
H188 H 0.16004 0.19615 0.24669 0.0
H189 H 0.19091 0.09117 0.18037 0.0
H190 H 0.18089 0.05017 0.24377 0.0
H191 H 0.19239 0.17444 0.35267 0.0
H192 H 0.14915 0.18951 0.3749 0.0
H193 H 0.16636 0.21259 0.32777 0.0
H194 H 0.09855 0.1915 0.28998 0.0
H195 H 0.08098 0.16908 0.33716 0.0
H196 H 0.07777 0.13901 0.28993 0.0
H197 H 0.16434 0.01992 0.31438 0.0
H198 H 0.13032 0.99869 0.37746 0.0
H199 H 0.09796 0.12 0.39337 0.0
C200 C 0.16485 0.16453 0.24535 0.0
C201 C 0.17729 0.14734 0.20831 0.0
C202 C 0.18295 0.10569 0.20839 0.0
C203 C 0.17699 0.08209 0.24437 0.0
C204 C 0.16401 0.10001 0.2799 0.0
C205 C 0.15695 0.1401 0.28013 0.0
C206 C 0.1371 0.15054 0.31945 0.0
C207 C 0.1628 0.18375 0.34522 0.0
C208 C 0.09618 0.16328 0.30848 0.0
C209 C 0.13421 0.11011 0.34177 0.0
C210 C 0.15101 0.08176 0.31886 0.0
C211 C 0.15127 0.042 0.3324 0.0
C212 C 0.13223 0.03033 0.36875 0.0
C213 C 0.11224 0.05778 0.39134 0.0
C214 C 0.1142 0.09863 0.37804 0.0
H215 H 0.39223 0.88063 0.74933 0.0
H216 H 0.41402 0.98822 0.67555 0.0
H217 H 0.43416 0.02926 0.73995 0.0
H218 H 0.35628 0.92857 0.84113 0.0
H219 H 0.38068 0.89656 0.87641 0.0
H220 H 0.36403 0.87803 0.825 0.0
H221 H 0.43438 0.86231 0.81096 0.0
H222 H 0.45118 0.88067 0.86226 0.0
H223 H 0.47468 0.90221 0.8175 0.0
H224 H 0.46135 0.05632 0.81553 0.0
H225 H 0.48872 0.06434 0.88893 0.0
H226 H 0.44468 0.93891 0.91057 0.0
C227 C 0.40044 0.913 0.74685 0.0
C228 C 0.40148 0.93123 0.7074 0.0
C229 C 0.41257 0.97371 0.70549 0.0
C230 C 0.4243 0.99717 0.742 0.0
C231 C 0.42434 0.97787 0.78052 0.0
C232 C 0.41208 0.93665 0.78285 0.0
C233 C 0.41692 0.92193 0.82692 0.0
C234 C 0.3771 0.9053 0.84333 0.0
C235 C 0.44601 0.8899 0.82955 0.0
C236 C 0.43382 0.96098 0.84935 0.0
C237 C 0.43836 0.99321 0.82252 0.0
C238 C 0.45703 0.03126 0.83673 0.0
C239 C 0.47222 0.03583 0.87872 0.0
C240 C 0.46855 1.00255 0.90614 0.0
C241 C 0.44775 0.96534 0.89095 0.0
H242 H 0.6609 0.40772 0.75073 0.0
H243 H 0.54935 0.38256 0.80734 0.0
H244 H 0.51468 0.3884 0.73905 0.0
H245 H 0.6309 0.49113 0.69981 0.0
H246 H 0.65976 0.48614 0.65523 0.0
H247 H 0.67496 0.46645 0.70436 0.0
H248 H 0.67557 0.39605 0.66812 0.0
H249 H 0.65829 0.41572 0.61934 0.0
H250 H 0.63143 0.37187 0.64141 0.0
H251 H 0.49216 0.39851 0.66624 0.0
H252 H 0.47978 0.44593 0.6104 0.0
H253 H 0.60423 0.48417 0.60744 0.0
C254 C 0.62916 0.40363 0.74868 0.0
C255 C 0.60773 0.39302 0.78391 0.0
C256 C 0.56628 0.38849 0.78025 0.0
C257 C 0.54642 0.39146 0.74153 0.0
C258 C 0.56846 0.40067 0.70701 0.0
C259 C 0.60883 0.40916 0.71082 0.0
C260 C 0.62473 0.42968 0.6724 0.0
C261 C 0.64895 0.4708 0.68363 0.0
C262 C 0.64895 0.40165 0.64894 0.0
C263 C 0.58667 0.4345 0.64796 0.0
C264 C 0.55504 0.41379 0.66668 0.0
C265 C 0.5166 0.41489 0.65134 0.0
C266 C 0.50989 0.44157 0.6192 0.0
C267 C 0.54117 0.46872 0.60537 0.0
C268 C 0.58014 0.46301 0.61721 0.0
H269 H 0.92966 0.68074 0.30409 0.0
H270 H 0.92103 0.55957 0.35441 0.0
H271 H 0.9357 0.53179 0.28648 0.0
H272 H 0.89077 0.65622 0.20198 0.0
H273 H 0.92553 0.69003 0.17509 0.0
H274 H 0.91439 0.70188 0.22757 0.0
H275 H 0.98784 0.70618 0.25188 0.0
H276 H 0.99932 0.69616 0.19914 0.0
H277 H 0.01504 0.66446 0.24046 0.0
H278 H 0.9399 0.51579 0.21132 0.0
H279 H 0.96299 0.51343 0.14042 0.0
H280 H 0.98253 0.64497 0.13988 0.0
C281 C 0.93232 0.64866 0.30101 0.0
C282 C 0.92369 0.62205 0.3343 0.0
C283 C 0.92735 0.58022 0.32913 0.0
C284 C 0.93501 0.56413 0.29053 0.0
C285 C 0.94056 0.59051 0.2575 0.0
C286 C 0.94173 0.63209 0.26273 0.0
C287 C 0.95224 0.65347 0.22248 0.0
C288 C 0.91874 0.6768 0.20581 0.0
C289 C 0.99092 0.68173 0.22887 0.0
C290 C 0.95665 0.61734 0.19416 0.0
C291 C 0.94778 0.58136 0.21472 0.0
C292 C 0.94762 0.54375 0.19504 0.0
C293 C 0.95995 0.54273 0.15431 0.0
C294 C 0.97405 0.57895 0.13427 0.0
C295 C 0.97102 0.61684 0.15396 0.0
H296 H 0.23561 0.14256 0.07384 0.0
H297 H 0.25903 0.15285 0.20718 0.0
H298 H 0.31525 0.11297 0.20111 0.0
H299 H 0.26951 0.04426 0.05384 0.0
H300 H 0.29328 0.06081 1.00737 0.0
H301 H 0.25102 0.08355 0.02281 0.0
H302 H 0.29051 0.15501 0.02237 0.0
H303 H 0.33249 0.13252 1.00608 0.0
H304 H 0.33661 0.16424 0.05222 0.0
H305 H 0.37186 0.07298 0.17904 0.0
H306 H 0.4289 0.05183 0.1443 0.0
H307 H 0.37499 0.07801 0.02478 0.0
C308 C 0.25242 0.13646 0.10193 0.0
C309 C 0.24174 0.15035 0.14128 0.0
C310 C 0.26517 0.14154 0.1769 0.0
C311 C 0.29751 0.11899 0.17361 0.0
C312 C 0.30723 0.10614 0.13428 0.0
C313 C 0.28578 0.11559 0.09898 0.0
C314 C 0.30519 0.10351 0.05996 0.0
C315 C 0.27812 0.07111 0.03449 0.0
C316 C 0.31691 0.14104 0.03361 0.0
C317 C 0.34115 0.0859 0.07856 0.0
C318 C 0.34115 0.08646 0.12152 0.0
C319 C 0.37178 0.07233 0.14544 0.0
C320 C 0.40392 0.05949 0.12531 0.0
C321 C 0.40618 0.0615 0.08151 0.0
C322 C 0.37363 0.07415 0.05804 0.0
H323 H 0.34743 0.96705 0.58479 0.0
H324 H 0.31308 0.88804 0.68577 0.0
H325 H 0.24319 0.8952 0.66808 0.0
H326 H 0.26926 0.03501 0.59064 0.0
H327 H 0.26418 0.03858 0.53483 0.0
H328 H 0.31082 0.03075 0.55964 0.0
H329 H 0.31159 0.96699 0.51274 0.0
H330 H 0.26401 0.97344 0.48923 0.0
H331 H 0.272 0.92634 0.51397 0.0
H332 H 0.17684 0.9036 0.63308 0.0
H333 H 0.11935 0.92787 0.5962 0.0
H334 H 0.19637 1.00233 0.51807 0.0
C335 C 0.32517 0.95287 0.60426 0.0
C336 C 0.33557 0.92738 0.63704 0.0
C337 C 0.3057 0.90839 0.66123 0.0
C338 C 0.26594 0.91159 0.65074 0.0
C339 C 0.25652 0.93416 0.61601 0.0
C340 C 0.28532 0.95557 0.59392 0.0
C341 C 0.26737 0.97681 0.55728 0.0
C342 C 0.27855 0.02304 0.56084 0.0
C343 C 0.27948 0.95989 0.51586 0.0
C344 C 0.22392 0.96492 0.56279 0.0
C345 C 0.21839 0.93926 0.59611 0.0
C346 C 0.1809 0.92376 0.60703 0.0
C347 C 0.1483 0.93699 0.58525 0.0
C348 C 0.15323 0.96596 0.55334 0.0
C349 C 0.1916 0.97901 0.54118 0.0
H350 H 0.69806 0.44589 0.91786 0.0
H351 H 0.73562 0.33068 0.88231 0.0
H352 H 0.79572 0.34607 0.92716 0.0
H353 H 0.79039 0.49709 0.89941 0.0
H354 H 0.78867 0.53607 0.93845 0.0
H355 H 0.74388 0.51115 0.91418 0.0
H356 H 0.71962 0.49166 0.98695 0.0
H357 H 0.76501 0.51568 0.01131 0.0
H358 H 0.7488 0.46317 0.02139 0.0
H359 H 0.85476 0.37606 0.96987 0.0
H360 H 0.91393 0.42329 0.98997 0.0
H361 H 0.84431 0.52397 0.98553 0.0
C362 C 0.71883 0.42384 0.91935 0.0
C363 C 0.71123 0.38641 0.89727 0.0
C364 C 0.73948 0.35856 0.90047 0.0
C365 C 0.77397 0.3672 0.92579 0.0
C366 C 0.78074 0.40457 0.94665 0.0
C367 C 0.75451 0.43303 0.94249 0.0
C368 C 0.77244 0.47403 0.96005 0.0
C369 C 0.77396 0.50647 0.92601 0.0
C370 C 0.75013 0.48687 0.99714 0.0
C371 C 0.81316 0.4643 0.97392 0.0
C372 C 0.8167 0.42361 0.96764 0.0
C373 C 0.85227 0.40787 0.97544 0.0
C374 C 0.88567 0.4348 0.98737 0.0
C375 C 0.88336 0.47698 0.9901 0.0
C376 C 0.84642 0.49162 0.98497 0.0
H377 H 0.81915 0.56079 0.45392 0.0
H378 H 0.8092 0.68246 0.41099 0.0
H379 H 0.73975 0.67613 0.42987 0.0
H380 H 0.72998 0.51546 0.41598 0.0
H381 H 0.71895 0.48318 0.45961 0.0
H382 H 0.76912 0.49975 0.4493 0.0
H383 H 0.78114 0.52996 0.52401 0.0
H384 H 0.73078 0.51342 0.53455 0.0
H385 H 0.75014 0.56604 0.54189 0.0
H386 H 0.67071 0.65434 0.447 0.0
H387 H 0.60526 0.61695 0.45685 0.0
H388 H 0.65925 0.50828 0.48629 0.0
C389 C 0.80233 0.58623 0.44973 0.0
C390 C 0.81896 0.62231 0.4318 0.0
C391 C 0.79653 0.655 0.4255 0.0
C392 C 0.75735 0.65165 0.4362 0.0
C393 C 0.74142 0.61551 0.45362 0.0
C394 C 0.76321 0.5834 0.4606 0.0
C395 C 0.73812 0.54684 0.47662 0.0
C396 C 0.73909 0.50911 0.44867 0.0
C397 C 0.7508 0.53857 0.52195 0.0
C398 C 0.69829 0.56222 0.47408 0.0
C399 C 0.70112 0.60245 0.46241 0.0
C400 C 0.66816 0.62305 0.45681 0.0
C401 C 0.63122 0.60173 0.46254 0.0
C402 C 0.62772 0.56013 0.47259 0.0
C403 C 0.66157 0.54027 0.47898 0.0
H404 H 0.13561 0.28266 0.16253 0.0
H405 H 0.15608 0.23353 0.04177 0.0
H406 H 0.12459 0.28939 0.00788 0.0
H407 H 0.03888 0.31111 0.13351 0.0
H408 H 0.04566 0.35587 0.16648 0.0
H409 H 0.07049 0.31251 0.18009 0.0
H410 H 0.1373 0.35793 0.18307 0.0
H411 H 0.11267 0.40137 0.16954 0.0
H412 H 0.15134 0.3876 0.1385 0.0
H413 H 0.0903 0.35516 0.98744 0.0
H414 H 0.05903 0.41936 0.98455 0.0
H415 H 0.0577 0.41984 0.11915 0.0
C416 C 0.13309 0.28322 0.12894 0.0
C417 C 0.14866 0.25337 0.10503 0.0
C418 C 0.14514 0.25615 0.06102 0.0
C419 C 0.1269 0.28776 0.04144 0.0
C420 C 0.11165 0.31655 0.06606 0.0
C421 C 0.11447 0.31413 0.10899 0.0
C422 C 0.09569 0.34812 0.12896 0.0
C423 C 0.0606 0.33087 0.15372 0.0
C424 C 0.12606 0.37537 0.15664 0.0
C425 C 0.08227 0.3706 0.09087 0.0
C426 C 0.09157 0.35231 0.05463 0.0
C427 C 0.08277 0.36929 0.01588 0.0
C428 C 0.06474 0.40583 0.0144 0.0
C429 C 0.05542 0.42526 0.05143 0.0
C430 C 0.06403 0.40639 0.08988 0.0
H431 H 0.65843 0.32879 0.94934 0.0
H432 H 0.66438 0.27103 0.82965 0.0
H433 H 0.65401 0.20343 0.86158 0.0
H434 H 0.70498 0.241 0.01152 0.0
H435 H 0.67448 0.24912 0.05395 0.0
H436 H 0.69433 0.29157 0.02387 0.0
H437 H 0.62432 0.31117 0.00898 0.0
H438 H 0.60428 0.26909 0.03844 0.0
H439 H 0.58693 0.27416 0.98515 0.0
H440 H 0.61794 0.14723 0.90039 0.0
H441 H 0.57141 0.10773 0.94551 0.0
H442 H 0.60147 0.19815 0.04329 0.0
C443 C 0.65988 0.30176 0.93066 0.0
C444 C 0.66113 0.30442 0.88732 0.0
C445 C 0.66287 0.26896 0.86307 0.0
C446 C 0.65718 0.23057 0.88096 0.0
C447 C 0.65237 0.22847 0.92355 0.0
C448 C 0.65585 0.26324 0.94851 0.0
C449 C 0.64527 0.25315 0.99238 0.0
C450 C 0.68196 0.25904 0.02219 0.0
C451 C 0.61329 0.27833 1.00698 0.0
C452 C 0.63026 0.20856 0.98667 0.0
C453 C 0.63517 0.19437 0.94705 0.0
C454 C 0.61559 0.15708 0.93218 0.0
C455 C 0.58919 0.13474 0.95784 0.0
C456 C 0.58304 0.15009 0.99759 0.0
C457 C 0.60592 0.18575 0.0129 0.0
H458 H 0.89455 0.72798 0.38641 0.0
H459 H 0.99489 0.66762 0.42428 0.0
H460 H 0.03108 0.73404 0.44832 0.0
H461 H 0.94223 0.82719 0.35832 0.0
H462 H 0.90502 0.8525 0.38175 0.0
H463 H 0.893 0.80194 0.36056 0.0
H464 H 0.86718 0.77914 0.43201 0.0
H465 H 0.88125 0.82916 0.45404 0.0
H466 H 0.8998 0.78575 0.47786 0.0
H467 H 0.05495 0.81113 0.4681 0.0
H468 H 0.06325 0.88631 0.47778 0.0
H469 H 0.9404 0.88839 0.44253 0.0
C470 C 0.92493 0.72928 0.3977 0.0
C471 C 0.94262 0.69322 0.40194 0.0
C472 C 0.98151 0.69529 0.4193 0.0
C473 C 1.00183 0.73275 0.43379 0.0
C474 C 0.98214 0.76741 0.43199 0.0
C475 C 0.94435 0.76555 0.41444 0.0
C476 C 0.92724 0.80495 0.42013 0.0
C477 C 0.91626 0.82271 0.37768 0.0
C478 C 0.89178 0.79939 0.44764 0.0
C479 C 0.96166 0.83023 0.44228 0.0
C480 C 0.99345 0.8086 0.44867 0.0
C481 C 0.02986 0.82791 0.46414 0.0
C482 C 0.03424 0.87055 0.47048 0.0
C483 C 1.00212 0.89294 0.46222 0.0
C484 C 0.96506 0.87184 0.45063 0.0
H485 H 0.47488 0.83457 0.59581 0.0
H486 H 0.35212 0.79411 0.61083 0.0
H487 H 0.35902 0.72912 0.57518 0.0
H488 H 0.48319 0.78419 0.4952 0.0
H489 H 0.53117 0.76964 0.50835 0.0
H490 H 0.51631 0.81488 0.53127 0.0
H491 H 0.53058 0.78811 0.60526 0.0
H492 H 0.54661 0.7436 0.58241 0.0
H493 H 0.50846 0.73834 0.619 0.0
H494 H 0.37875 0.66892 0.53706 0.0
H495 H 0.41295 0.61088 0.51677 0.0
H496 H 0.5245 0.68622 0.53312 0.0
C497 C 0.44966 0.81181 0.59177 0.0
C498 C 0.41276 0.81946 0.60557 0.0
C499 C 0.38042 0.78891 0.59996 0.0
C500 C 0.38402 0.75212 0.57944 0.0
C501 C 0.42043 0.74585 0.5651 0.0
C502 C 0.45298 0.7743 0.57204 0.0
C503 C 0.48948 0.75804 0.55714 0.0
C504 C 0.50602 0.7832 0.52084 0.0
C505 C 0.52061 0.75693 0.5931 0.0
C506 C 0.47259 0.71555 0.54233 0.0
C507 C 0.43239 0.7099 0.54548 0.0
C508 C 0.4102 0.67306 0.53427 0.0
C509 C 0.42981 0.64037 0.52203 0.0
C510 C 0.47126 0.6443 0.52234 0.0
C511 C 0.49273 0.68279 0.53127 0.0
H512 H 0.92414 0.96789 0.81769 0.0
H513 H 0.88698 0.8409 0.7907 0.0
H514 H 0.91462 0.84885 0.72078 0.0
H515 H 0.89601 1.00198 0.71787 0.0
H516 H 0.93555 0.04277 0.71729 0.0
H517 H 0.91686 0.02535 0.76599 0.0
H518 H 0.98641 0.01161 0.79287 0.0
H519 H 1.00548 0.02993 0.74469 0.0
H520 H 0.01371 0.98003 0.76235 0.0
H521 H 0.94517 0.8747 0.64943 0.0
H522 H 0.97813 0.9125 0.59182 0.0
H523 H 0.98954 0.0226 0.66694 0.0
C524 C 0.92258 0.94147 0.7974 0.0
C525 C 0.90383 0.90359 0.81011 0.0
C526 C 0.90187 0.86998 0.78225 0.0
C527 C 0.91709 0.87451 0.74215 0.0
C528 C 0.93383 0.91299 0.72999 0.0
C529 C 0.9367 0.94574 0.75734 0.0
C530 C 0.95382 0.98449 0.73718 0.0
C531 C 0.92378 0.01547 0.73443 0.0
C532 C 0.99214 1.00256 0.76066 0.0
C533 C 0.96131 0.96872 0.69436 0.0
C534 C 0.94946 0.92751 0.69017 0.0
C535 C 0.95426 0.90699 0.65275 0.0
C536 C 0.97257 0.92879 0.61979 0.0
C537 C 0.98603 0.97078 0.62432 0.0
C538 C 0.97932 0.99066 0.66203 0.0
H539 H 0.67232 0.18244 0.32321 0.0
H540 H 0.679 0.06518 0.37837 0.0
H541 H 0.65302 0.03148 0.31138 0.0
H542 H 0.58099 0.15634 0.27637 0.0
H543 H 0.58855 0.18739 0.2312 0.0
H544 H 0.61593 0.20139 0.27928 0.0
H545 H 0.68142 0.20166 0.24298 0.0
H546 H 0.65433 0.18856 0.19436 0.0
H547 H 0.6907 0.15743 0.21379 0.0
H548 H 0.61794 0.01159 0.23763 0.0
H549 H 0.57862 0.00864 0.17013 0.0
H550 H 0.5907 0.14024 0.16923 0.0
C551 C 0.66995 0.14966 0.32048 0.0
C552 C 0.67857 0.12639 0.35556 0.0
C553 C 0.67364 0.08353 0.35152 0.0
C554 C 0.65846 0.06426 0.31364 0.0
C555 C 0.64802 0.08834 0.28022 0.0
C556 C 0.65387 0.13029 0.28361 0.0
C557 C 0.63584 0.14996 0.24622 0.0
C558 C 0.60342 0.17524 0.25904 0.0
C559 C 0.66746 0.17592 0.22296 0.0
C560 C 0.6188 0.11278 0.22091 0.0
C561 C 0.62631 0.07731 0.24036 0.0
C562 C 0.6122 0.03937 0.22232 0.0
C563 C 0.58985 0.03789 0.18391 0.0
C564 C 0.58107 0.07412 0.16431 0.0
C565 C 0.59632 0.1118 0.18331 0.0
H566 H 0.39912 0.62846 0.2059 0.0
H567 H 0.38598 0.73402 0.2815 0.0
H568 H 0.417 0.70236 0.34246 0.0
H569 H 0.37312 0.5556 0.28079 0.0
H570 H 0.40776 0.52165 0.26672 0.0
H571 H 0.38885 0.55446 0.22832 0.0
H572 H 0.45952 0.58493 0.21306 0.0
H573 H 0.47864 0.55148 0.2507 0.0
H574 H 0.49257 0.60551 0.25535 0.0
H575 H 0.44748 0.65654 0.39601 0.0
H576 H 0.47842 0.60356 0.43472 0.0
H577 H 0.46452 0.52633 0.32454 0.0
C578 C 0.40321 0.64497 0.23525 0.0
C579 C 0.39018 0.6835 0.23933 0.0
C580 C 0.39623 0.7046 0.27791 0.0
C581 C 0.41345 0.68669 0.31265 0.0
C582 C 0.42438 0.64772 0.30807 0.0
C583 C 0.41987 0.62737 0.27011 0.0
C584 C 0.43273 0.58541 0.27332 0.0
C585 C 0.39857 0.55234 0.26161 0.0
C586 C 0.46796 0.58164 0.24653 0.0
C587 C 0.44449 0.58492 0.31917 0.0
C588 C 0.43991 0.62111 0.33882 0.0
C589 C 0.45061 0.62785 0.38099 0.0
C590 C 0.4674 0.59718 0.40319 0.0
C591 C 0.47264 0.56014 0.38335 0.0
C592 C 0.4603 0.55403 0.34096 0.0
H593 H 0.09635 0.39101 0.74313 0.0
H594 H 0.15303 0.50906 0.70982 0.0
H595 H 0.14087 0.53626 0.77896 0.0
H596 H 0.01733 0.43289 0.78697 0.0
H597 H 0.01021 0.39415 0.82566 0.0
H598 H 0.03081 0.38283 0.77739 0.0
H599 H 0.09071 0.35954 0.81908 0.0
H600 H 0.07078 0.3725 0.86747 0.0
H601 H 0.11929 0.39437 0.85534 0.0
H602 H 0.12031 0.55147 0.85062 0.0
H603 H 0.07625 0.56013 0.90724 0.0
H604 H 0.02375 0.43572 0.88896 0.0
C605 C 0.10599 0.42265 0.75012 0.0
C606 C 0.12654 0.44765 0.72118 0.0
C607 C 0.13856 0.48892 0.73195 0.0
C608 C 0.13184 0.5046 0.77123 0.0
C609 C 0.11204 0.47895 0.79923 0.0
C610 C 0.09803 0.43924 0.78852 0.0
C611 C 0.07152 0.4202 0.82096 0.0
C612 C 0.03002 0.40676 0.8016 0.0
C613 C 0.08914 0.38453 0.84195 0.0
C614 C 0.07198 0.45575 0.85108 0.0
C615 C 0.09702 0.48874 0.83896 0.0
C616 C 0.10082 0.52578 0.86057 0.0
C617 C 0.07613 0.53026 0.89326 0.0
C618 C 0.04708 0.49838 0.90281 0.0
C619 C 0.04658 0.46007 0.88308 0.0
H620 H 0.78942 0.90087 0.94808 0.0
H621 H 0.83801 0.00998 0.88752 0.0
H622 H 0.78502 0.04656 0.91338 0.0
H623 H 0.69153 0.90896 0.9336 0.0
H624 H 0.67821 0.89219 0.98456 0.0
H625 H 0.72097 0.87619 0.96261 0.0
H626 H 0.76367 0.90516 0.02724 0.0
H627 H 0.72087 0.92137 0.04941 0.0
H628 H 0.76333 0.95755 0.04249 0.0
H629 H 0.71901 0.06834 0.94014 0.0
H630 H 0.65251 0.07182 0.96655 0.0
H631 H 0.6553 0.95182 0.01778 0.0
C632 C 0.7899 0.93278 0.94129 0.0
C633 C 0.81798 0.95211 0.91511 0.0
C634 C 0.81642 0.9939 0.90649 0.0
C635 C 0.78655 0.01516 0.92151 0.0
C636 C 0.75895 0.99489 0.9467 0.0
C637 C 0.76127 0.95483 0.95737 0.0
C638 C 0.72847 0.93952 0.98487 0.0
C639 C 0.70332 0.90203 0.96521 0.0
C640 C 0.74508 0.93036 0.02859 0.0
C641 C 0.7058 0.97611 0.9859 0.0
C642 C 0.72366 0.00815 0.96411 0.0
C643 C 0.70542 0.04364 0.95809 0.0
C644 C 0.66769 0.04565 0.97352 0.0
C645 C 0.64861 0.01235 0.99472 0.0
C646 C 0.66906 0.97809 1.00212 0.0
H647 H 0.75392 0.11616 0.4816 0.0
H648 H 0.75984 0.15926 0.3554 0.0
H649 H 0.82792 0.14161 0.35363 0.0
H650 H 0.8535 0.15287 0.5154 0.0
H651 H 0.86088 0.10984 0.54746 0.0
H652 H 0.81236 0.12478 0.53875 0.0
H653 H 0.78647 0.05261 0.51082 0.0
H654 H 0.8347 0.03729 0.5202 0.0
H655 H 0.81059 0.0309 0.46909 0.0
H656 H 0.89607 0.12237 0.36676 0.0
H657 H 0.95626 0.09308 0.38888 0.0
H658 H 0.90745 0.06027 0.50699 0.0
C659 C 0.76953 0.1213 0.45345 0.0
C660 C 0.75148 0.13873 0.41836 0.0
C661 C 0.77276 0.14529 0.3822 0.0
C662 C 0.81162 0.13584 0.38123 0.0
C663 C 0.82891 0.11977 0.41672 0.0
C664 C 0.80836 0.11188 0.45197 0.0
C665 C 0.83371 0.09377 0.48561 0.0
C666 C 0.8405 0.122 0.52409 0.0
C667 C 0.81527 0.0511 0.49709 0.0
C668 C 0.87165 0.0921 0.46361 0.0
C669 C 0.86825 0.10805 0.42416 0.0
C670 C 0.89894 0.10983 0.39752 0.0
C671 C 0.93324 0.09338 0.41059 0.0
C672 C 0.93704 0.07489 0.44993 0.0
C673 C 0.90601 0.07512 0.47725 0.0
H674 H 0.30207 0.63776 0.10471 0.0
H675 H 0.26143 0.74963 0.14519 0.0
H676 H 0.20282 0.73633 0.09713 0.0
H677 H 0.2587 0.63677 0.99425 0.0
H678 H 0.24497 0.58263 0.99455 0.0
H679 H 0.2881 0.60494 0.02451 0.0
H680 H 0.2613 0.57191 0.09163 0.0
H681 H 0.21908 0.54864 0.06152 0.0
H682 H 0.21281 0.58 0.10616 0.0
H683 H 0.14584 0.70791 0.05191 0.0
H684 H 0.08889 0.66028 0.02659 0.0
H685 H 0.16354 0.56436 0.01879 0.0
C686 C 0.28096 0.65956 0.10283 0.0
C687 C 0.28636 0.69508 0.12784 0.0
C688 C 0.25807 0.7228 0.12533 0.0
C689 C 0.22494 0.71561 0.09795 0.0
C690 C 0.22047 0.68043 0.07334 0.0
C691 C 0.24739 0.65248 0.07603 0.0
C692 C 0.23258 0.6141 0.0515 0.0
C693 C 0.25758 0.60935 0.01398 0.0
C694 C 0.23132 0.57648 0.07938 0.0
C695 C 0.19189 0.62359 0.03746 0.0
C696 C 0.18633 0.66287 0.04843 0.0
C697 C 0.15 0.67741 0.04232 0.0
C698 C 0.11785 0.6503 0.02743 0.0
C699 C 0.12227 0.60904 0.02026 0.0
C700 C 0.15999 0.59616 0.02297 0.0
H701 H 0.20532 0.47909 0.59355 0.0
H702 H 0.21024 0.35016 0.60645 0.0
H703 H 0.27413 0.35684 0.57313 0.0
H704 H 0.26227 0.49654 0.49703 0.0
H705 H 0.28678 0.5439 0.51814 0.0
H706 H 0.23729 0.52682 0.53137 0.0
H707 H 0.25942 0.53283 0.60953 0.0
H708 H 0.30895 0.54921 0.59675 0.0
H709 H 0.29874 0.50548 0.62899 0.0
H710 H 0.34224 0.38017 0.54769 0.0
H711 H 0.40801 0.41732 0.53754 0.0
H712 H 0.36034 0.53175 0.55039 0.0
C713 C 0.21922 0.4521 0.58762 0.0
C714 C 0.20269 0.41405 0.60159 0.0
C715 C 0.22194 0.37935 0.5948 0.0
C716 C 0.25836 0.38303 0.57617 0.0
C717 C 0.27501 0.42164 0.56487 0.0
C718 C 0.25585 0.45558 0.5704 0.0
C719 C 0.28212 0.49439 0.56274 0.0
C720 C 0.26616 0.51672 0.52507 0.0
C721 C 0.28763 0.52207 0.60182 0.0
C722 C 0.31963 0.47732 0.55337 0.0
C723 C 0.31478 0.43528 0.55341 0.0
C724 C 0.34611 0.41302 0.54708 0.0
C725 C 0.38328 0.43428 0.54125 0.0
C726 C 0.38889 0.47724 0.54302 0.0
C727 C 0.35658 0.49886 0.54863 0.0
H728 H 0.95492 0.85692 0.91969 0.0
H729 H 0.842 0.81613 0.85829 0.0
H730 H 0.84849 0.74574 0.87994 0.0
H731 H 1.00218 0.76573 0.89175 0.0
H732 H 0.03028 0.76569 0.94062 0.0
H733 H 0.01701 0.81278 0.91986 0.0
H734 H 0.98478 0.82672 0.98849 0.0
H735 H 0.99704 0.77911 0.00902 0.0
H736 H 0.94681 0.78998 1.00658 0.0
H737 H 0.86331 0.68151 0.91437 0.0
H738 H 0.89294 0.62259 0.94216 0.0
H739 H 1.0008 0.69998 0.97552 0.0
C740 C 0.93232 0.8328 0.90963 0.0
C741 C 0.89812 0.84196 0.88632 0.0
C742 C 0.86869 0.8097 0.87502 0.0
C743 C 0.87191 0.76974 0.88787 0.0
C744 C 0.90513 0.76188 0.91186 0.0
C745 C 0.93554 0.7921 0.92152 0.0
C746 C 0.96862 0.77441 0.94644 0.0
C747 C 1.00679 0.77997 0.92327 0.0
C748 C 0.97468 0.79373 0.99022 0.0
C749 C 0.95222 0.72955 0.94859 0.0
C750 C 0.91489 0.72369 0.92969 0.0
C751 C 0.89268 0.68572 0.9288 0.0
C752 C 0.90963 0.65239 0.94536 0.0
C753 C 0.94897 0.65632 0.96194 0.0
C754 C 0.97035 0.69588 0.96425 0.0
H755 H 0.44283 0.73652 0.16042 0.0
H756 H 0.37198 0.80585 0.23325 0.0
H757 H 0.41403 0.86908 0.218 0.0
H758 H 0.54183 0.80641 0.17362 0.0
H759 H 0.54988 0.79772 0.11958 0.0
H760 H 0.52463 0.75795 0.14925 0.0
H761 H 0.4667 0.75234 0.09401 0.0
H762 H 0.49087 0.7927 0.06493 0.0
H763 H 0.44246 0.79659 0.08233 0.0
H764 H 0.44903 0.92497 0.17649 0.0
H765 H 0.47768 0.96593 0.11874 0.0
H766 H 0.52634 0.85956 0.07433 0.0
C767 C 0.43855 0.76469 0.17585 0.0
C768 C 0.40525 0.76661 0.19889 0.0
C769 C 0.39831 0.80405 0.21663 0.0
C770 C 0.42182 0.84008 0.20767 0.0
C771 C 0.45231 0.83792 0.18115 0.0
C772 C 0.46134 0.80083 0.1663 0.0
C773 C 0.48942 0.80659 0.13175 0.0
C774 C 0.52879 0.79128 0.14435 0.0
C775 C 0.47125 0.78587 0.09091 0.0
C776 C 0.49364 0.85231 0.12851 0.0
C777 C 0.47236 0.87023 0.15715 0.0
C778 C 0.467 0.91149 0.15486 0.0
C779 C 0.48323 0.93459 0.12202 0.0
C780 C 0.50414 0.91601 0.09205 0.0
C781 C 0.51061 0.87493 0.09676 0.0
H782 H 0.13003 0.32143 0.66207 0.0
H783 H 0.12287 0.37483 0.54063 0.0
H784 H 0.10351 0.3057 0.50875 0.0
H785 H 0.16753 0.22955 0.6317 0.0
H786 H 0.13988 0.20018 0.66933 0.0
H787 H 0.15548 0.25325 0.67917 0.0
H788 H 0.08323 0.26522 0.68955 0.0
H789 H 0.06735 0.21231 0.67917 0.0
H790 H 0.04619 0.25048 0.64878 0.0
H791 H 0.08574 0.22469 0.49238 0.0
H792 H 0.0728 0.14881 0.49527 0.0
H793 H 0.08355 0.15785 0.62993 0.0
C794 C 0.12449 0.31847 0.62871 0.0
C795 C 0.12773 0.35297 0.60374 0.0
C796 C 0.1206 0.34835 0.56015 0.0
C797 C 0.10947 0.30928 0.54198 0.0
C798 C 0.10545 0.27557 0.56807 0.0
C799 C 0.11283 0.28047 0.61063 0.0
C800 C 0.10594 0.24114 0.63318 0.0
C801 C 0.14448 0.2304 0.65458 0.0
C802 C 0.07375 0.24238 0.66448 0.0
C803 C 0.09262 0.21284 0.59712 0.0
C804 C 0.0932 0.23217 0.55936 0.0
C805 C 0.08486 0.20967 0.52205 0.0
C806 C 0.07712 0.1666 0.52384 0.0
C807 C 0.0772 0.14698 0.56276 0.0
C808 C 0.08344 0.1712 0.59937 0.0
H809 H 0.6397 0.25078 0.39886 0.0
H810 H 0.65835 0.21102 0.525 0.0
H811 H 0.62488 0.26855 0.55083 0.0
H812 H 0.65077 0.3581 0.41853 0.0
H813 H 0.61257 0.36648 0.38016 0.0
H814 H 0.64064 0.32447 0.37398 0.0
H815 H 0.57631 0.27474 0.36879 0.0
H816 H 0.54805 0.31656 0.37513 0.0
H817 H 0.5427 0.27425 0.40994 0.0
H818 H 0.58721 0.33451 0.56085 0.0
H819 H 0.54982 0.39445 0.55275 0.0
H820 H 0.55269 0.38154 0.41881 0.0
C821 C 0.63648 0.2539 0.43193 0.0
C822 C 0.6512 0.22621 0.45985 0.0
C823 C 0.64729 0.23202 0.50305 0.0
C824 C 0.6282 0.26454 0.51788 0.0
C825 C 0.61295 0.29078 0.48905 0.0
C826 C 0.61697 0.28526 0.4469 0.0
C827 C 0.59705 0.31554 0.42138 0.0
C828 C 0.62705 0.34276 0.3971 0.0
C829 C 0.56408 0.29398 0.3921 0.0
C830 C 0.58078 0.33918 0.45538 0.0
C831 C 0.59044 0.32545 0.49447 0.0
C832 C 0.57927 0.34492 0.53015 0.0
C833 C 0.55794 0.37897 0.52536 0.0
C834 C 0.54736 0.3927 0.48518 0.0
C835 C 0.55912 0.37189 0.45019 0.0
loop_
_geom_bond_atom_site_label_1
_geom_bond_atom_site_label_2
_geom_bond_distance
_geom_bond_site_symmetry_2
_ccdc_geom_bond_type
C0 N1 1.317 . S
C0 N2 1.348 . S
C0 C3 1.485 . S
N1 C0 1.317 . S
N1 N5 1.370 . S
N2 C0 1.348 . S
N2 C4 1.346 . S
C3 C0 1.485 . S
C3 H7 0.960 . S
C3 H8 0.961 . S
C3 H9 0.960 . S
C4 N2 1.346 . S
C4 N5 1.307 . S
C4 C6 1.486 . S
N5 N1 1.370 . S
N5 C4 1.307 . S
C6 C4 1.486 . S
C6 H10 0.960 . S
C6 H11 0.960 . S
C6 H12 0.959 . S
H7 C3 0.960 . S
H8 C3 0.961 . S
H9 C3 0.960 . S
H10 C6 0.960 . S
H11 C6 0.960 . S
H12 C6 0.959 . S
C13 N14 1.317 . S
C13 N15 1.348 . S
C13 C16 1.485 . S
N14 C13 1.317 . S
N14 N18 1.370 . S
N15 C13 1.348 . S
N15 C17 1.346 . S
C16 C13 1.485 . S
C16 H20 0.960 . S
C16 H21 0.961 . S
C16 H22 0.960 . S
C17 N15 1.346 . S
C17 N18 1.307 . S
C17 C19 1.486 . S
N18 N14 1.370 . S
N18 C17 1.307 . S
C19 C17 1.486 . S
C19 H23 0.960 . S
C19 H24 0.960 . S
C19 H25 0.959 . S
H20 C16 0.960 . S
H21 C16 0.961 . S
H22 C16 0.960 . S
H23 C19 0.960 . S
H24 C19 0.960 . S
H25 C19 0.959 . S
C26 N27 1.317 . S
C26 N28 1.348 . S
C26 C29 1.485 . S
N27 C26 1.317 . S
N27 N31 1.370 . S
N28 C26 1.348 . S
N28 C30 1.346 . S
C29 C26 1.485 . S
C29 H33 0.960 . S
C29 H34 0.961 . S
C29 H35 0.960 . S
C30 N28 1.346 . S
C30 N31 1.307 . S
C30 C32 1.486 . S
N31 N27 1.370 . S
N31 C30 1.307 . S
C32 C30 1.486 . S
C32 H36 0.960 . S
C32 H37 0.960 . S
C32 H38 0.959 . S
H33 C29 0.960 . S
H34 C29 0.961 . S
H35 C29 0.960 . S
H36 C32 0.960 . S
H37 C32 0.960 . S
H38 C32 0.959 . S
C39 N40 1.317 . S
C39 N41 1.348 . S
C39 C42 1.485 . S
N40 C39 1.317 . S
N40 N44 1.370 . S
N41 C39 1.348 . S
N41 C43 1.346 . S
C42 C39 1.485 . S
C42 H46 0.960 . S
C42 H47 0.961 . S
C42 H48 0.960 . S
C43 N41 1.346 . S
C43 N44 1.307 . S
C43 C45 1.486 . S
N44 N40 1.370 . S
N44 C43 1.307 . S
C45 C43 1.486 . S
C45 H49 0.960 . S
C45 H50 0.960 . S
C45 H51 0.959 . S
H46 C42 0.960 . S
H47 C42 0.961 . S
H48 C42 0.960 . S
H49 C45 0.960 . S
H50 C45 0.960 . S
H51 C45 0.959 . S
C52 N53 1.317 . S
C52 N54 1.348 . S
C52 C55 1.485 . S
N53 C52 1.317 . S
N53 N57 1.370 . S
N54 C52 1.348 . S
N54 C56 1.346 . S
C55 C52 1.485 . S
C55 H59 0.960 . S
C55 H60 0.961 . S
C55 H61 0.960 . S
C56 N54 1.346 . S
C56 N57 1.307 . S
C56 C58 1.486 . S
N57 N53 1.370 . S
N57 C56 1.307 . S
C58 C56 1.486 . S
C58 H62 0.960 . S
C58 H63 0.960 . S
C58 H64 0.959 . S
H59 C55 0.960 . S
H60 C55 0.961 . S
H61 C55 0.960 . S
H62 C58 0.960 . S
H63 C58 0.960 . S
H64 C58 0.959 . S
C65 N66 1.317 . S
C65 N67 1.348 . S
C65 C68 1.485 . S
N66 C65 1.317 . S
N66 N70 1.370 . S
N67 C65 1.348 . S
N67 C69 1.346 . S
C68 C65 1.485 . S
C68 H72 0.960 . S
C68 H73 0.961 . S
C68 H74 0.960 . S
C69 N67 1.346 . S
C69 N70 1.307 . S
C69 C71 1.486 . S
N70 N66 1.370 . S
N70 C69 1.307 . S
C71 C69 1.486 . S
C71 H75 0.960 . S
C71 H76 0.960 . S
C71 H77 0.959 . S
H72 C68 0.960 . S
H73 C68 0.961 . S
H74 C68 0.960 . S
H75 C71 0.960 . S
H76 C71 0.960 . S
H77 C71 0.959 . S
C78 N79 1.317 . S
C78 N80 1.348 . S
C78 C81 1.485 . S
N79 C78 1.317 . S
N79 N83 1.370 . S
N80 C78 1.348 . S
N80 C82 1.346 . S
C81 C78 1.485 . S
C81 H85 0.960 . S
C81 H86 0.961 . S
C81 H87 0.960 . S
C82 N80 1.346 . S
C82 N83 1.307 . S
C82 C84 1.486 . S
N83 N79 1.370 . S
N83 C82 1.307 . S
C84 C82 1.486 . S
C84 H88 0.960 . S
C84 H89 0.960 . S
C84 H90 0.959 . S
H85 C81 0.960 . S
H86 C81 0.961 . S
H87 C81 0.960 . S
H88 C84 0.960 . S
H89 C84 0.960 . S
H90 C84 0.959 . S
C91 N92 1.317 . S
C91 N93 1.348 . S
C91 C94 1.485 . S
N92 C91 1.317 . S
N92 N96 1.370 . S
N93 C91 1.348 . S
N93 C95 1.346 . S
C94 C91 1.485 . S
C94 H98 0.960 . S
C94 H99 0.961 . S
C94 H100 0.960 . S
C95 N93 1.346 . S
C95 N96 1.307 . S
C95 C97 1.486 . S
N96 N92 1.370 . S
N96 C95 1.307 . S
C97 C95 1.486 . S
C97 H101 0.960 . S
C97 H102 0.960 . S
C97 H103 0.959 . S
H98 C94 0.960 . S
H99 C94 0.961 . S
H100 C94 0.960 . S
H101 C97 0.960 . S
H102 C97 0.960 . S
H103 C97 0.959 . S
O104 Mn105 2.174 . S
O104 C118 1.233 1_455 S
Mn105 O104 2.174 . S
Mn105 O108 2.160 1_545 S
Mn105 O109 2.221 . S
Mn105 O111 2.163 1_545 S
Mn105 O113 2.160 . S
Mn105 O123 2.221 1_545 S
O106 Mn107 2.087 1_545 S
O106 C118 1.256 . S
Mn107 O106 2.087 1_565 S
Mn107 O114 2.089 1_665 S
Mn107 O123 2.290 1_655 S
Mn107 O124 2.251 . S
O108 Mn105 2.160 1_565 S
O108 C119 1.239 . S
O109 Mn105 2.221 . S
O109 Mn110 2.290 . S
O109 C120 1.278 . S
Mn110 O109 2.290 . S
Mn110 O112 2.107 . S
Mn110 O115 2.251 . S
Mn110 O116 2.087 . S
O111 Mn105 2.163 1_565 S
O111 C121 1.244 . S
O112 Mn110 2.107 . S
O112 C119 1.247 1_545 S
O113 Mn105 2.160 . S
O113 C122 1.239 . S
O114 Mn107 2.089 1_445 S
O114 C122 1.256 . S
O115 Mn110 2.251 . S
O115 C120 1.241 . S
O116 Mn110 2.087 . S
O116 C121 1.256 1_545 S
C117 O123 1.278 . S
C117 O124 1.241 1_455 S
C118 O104 1.233 1_655 S
C118 O106 1.256 . S
C119 O108 1.239 . S
C119 O112 1.247 1_565 S
C120 O109 1.278 . S
C120 O115 1.241 . S
C121 O111 1.244 . S
C121 O116 1.256 1_565 S
C122 O113 1.239 . S
C122 O114 1.256 . S
O123 Mn105 2.221 1_565 S
O123 Mn107 2.290 1_455 S
O123 C117 1.278 . S
O124 Mn107 2.251 . S
O124 C117 1.241 1_655 S
O125 Mn126 2.163 1_556 S
O125 C139 1.225 1_545 S
Mn126 O125 2.163 1_554 S
Mn126 O129 2.160 . S
Mn126 O130 2.221 . S
Mn126 O132 2.163 . S
Mn126 O134 2.160 . S
Mn126 O144 2.221 1_545 S
O127 Mn128 2.087 . S
O127 C139 1.283 . S
Mn128 O127 2.087 . S
Mn128 O135 2.089 . S
Mn128 O144 2.290 1_556 S
Mn128 O145 2.251 1_556 S
O129 Mn126 2.160 . S
O129 C140 1.239 . S
O130 Mn126 2.221 . S
O130 Mn131 2.290 . S
O130 C141 1.272 1_554 S
Mn131 O130 2.290 . S
Mn131 O133 2.089 . S
Mn131 O136 2.251 . S
Mn131 O137 2.087 . S
O132 Mn126 2.163 . S
O132 C142 1.244 . S
O133 Mn131 2.089 . S
O133 C140 1.256 . S
O134 Mn126 2.160 . S
O134 C143 1.239 1_545 S
O135 Mn128 2.089 . S
O135 C143 1.256 1_556 S
O136 Mn131 2.251 . S
O136 C141 1.239 1_554 S
O137 Mn131 2.087 . S
O137 C142 1.256 . S
C138 O144 1.278 . S
C138 O145 1.241 . S
C139 O125 1.225 1_565 S
C139 O127 1.283 . S
C140 O129 1.239 . S
C140 O133 1.256 . S
C141 O130 1.272 1_556 S
C141 O136 1.239 1_556 S
C142 O132 1.244 . S
C142 O137 1.256 . S
C143 O134 1.239 1_565 S
C143 O135 1.256 1_554 S
O144 Mn126 2.221 1_565 S
O144 Mn128 2.290 1_554 S
O144 C138 1.278 . S
O145 Mn128 2.251 1_554 S
O145 C138 1.241 . S
O146 Mn147 2.163 . S
O146 C160 1.244 . S
Mn147 O146 2.163 . S
Mn147 O150 2.160 . S
Mn147 O151 2.221 . S
Mn147 O153 2.163 . S
Mn147 O155 2.160 . S
Mn147 O165 2.221 . S
O148 Mn149 2.087 . S
O148 C160 1.256 . S
Mn149 O148 2.087 . S
Mn149 O156 2.089 . S
Mn149 O165 2.290 . S
Mn149 O166 2.251 . S
O150 Mn147 2.160 . S
O150 C161 1.239 . S
O151 Mn147 2.221 . S
O151 Mn152 2.290 . S
O151 C162 1.278 . S
Mn152 O151 2.290 . S
Mn152 O154 2.089 . S
Mn152 O157 2.251 . S
Mn152 O158 2.087 . S
O153 Mn147 2.163 . S
O153 C163 1.244 . S
O154 Mn152 2.089 . S
O154 C161 1.256 . S
O155 Mn147 2.160 . S
O155 C164 1.239 . S
O156 Mn149 2.089 . S
O156 C164 1.256 . S
O157 Mn152 2.251 . S
O157 C162 1.241 . S
O158 Mn152 2.087 . S
O158 C163 1.256 . S
C159 O165 1.278 . S
C159 O166 1.241 . S
C160 O146 1.244 . S
C160 O148 1.256 . S
C161 O150 1.239 . S
C161 O154 1.256 . S
C162 O151 1.278 . S
C162 O157 1.241 . S
C163 O153 1.244 . S
C163 O158 1.256 . S
C164 O155 1.239 . S
C164 O156 1.256 . S
O165 Mn147 2.221 . S
O165 Mn149 2.290 . S
O165 C159 1.278 . S
O166 Mn149 2.251 . S
O166 C159 1.241 . S
O167 Mn168 2.163 1_656 S
O167 C181 1.244 . S
Mn168 O167 2.163 1_454 S
Mn168 O171 2.160 . S
Mn168 O172 2.221 1_455 S
Mn168 O174 2.163 . S
Mn168 O176 2.160 1_454 S
Mn168 O186 2.221 1_554 S
O169 Mn170 2.087 . S
O169 C181 1.256 . S
Mn170 O169 2.087 . S
Mn170 O177 2.089 . S
Mn170 O186 2.290 1_655 S
Mn170 O187 2.251 . S
O171 Mn168 2.160 . S
O171 C182 1.239 . S
O172 Mn168 2.221 1_655 S
O172 Mn173 2.290 1_655 S
O172 C183 1.278 . S
Mn173 O172 2.290 1_455 S
Mn173 O175 2.089 . S
Mn173 O178 2.251 1_455 S
Mn173 O179 2.087 . S
O174 Mn168 2.163 . S
O174 C184 1.244 . S
O175 Mn173 2.089 . S
O175 C182 1.256 . S
O176 Mn168 2.160 1_656 S
O176 C185 1.239 . S
O177 Mn170 2.089 . S
O177 C185 1.256 . S
O178 Mn173 2.251 1_655 S
O178 C183 1.241 . S
O179 Mn173 2.087 . S
O179 C184 1.256 . S
C180 O186 1.278 . S
C180 O187 1.241 1_455 S
C181 O167 1.244 . S
C181 O169 1.256 . S
C182 O171 1.239 . S
C182 O175 1.256 . S
C183 O172 1.278 . S
C183 O178 1.241 . S
C184 O174 1.244 . S
C184 O179 1.256 . S
C185 O176 1.239 . S
C185 O177 1.256 . S
O186 Mn168 2.221 1_556 S
O186 Mn170 2.290 1_455 S
O186 C180 1.278 . S
O187 Mn170 2.251 . S
O187 C180 1.241 1_655 S
H188 C200 0.930 . S
H189 C202 0.930 . S
H190 C203 0.930 . S
H191 C207 0.959 . S
H192 C207 0.959 . S
H193 C207 0.961 . S
H194 C208 0.960 . S
H195 C208 0.961 . S
H196 C208 0.959 . S
H197 C211 0.929 . S
H198 C212 0.931 . S
H199 C214 0.930 . S
C200 H188 0.930 . S
C200 C201 1.399 . S
C200 C205 1.399 . S
C201 C200 1.399 . S
C201 C202 1.376 . S
C202 H189 0.930 . S
C202 C201 1.376 . S
C202 C203 1.388 . S
C203 H190 0.930 . S
C203 C202 1.388 . S
C203 C204 1.390 . S
C204 C203 1.390 . S
C204 C205 1.394 . S
C204 C210 1.465 . S
C205 C200 1.399 . S
C205 C204 1.394 . S
C205 C206 1.516 . S
C206 C205 1.516 . S
C206 C207 1.502 . S
C206 C208 1.561 . S
C206 C209 1.526 . S
C207 H191 0.959 . S
C207 H192 0.959 . S
C207 H193 0.961 . S
C207 C206 1.502 . S
C208 H194 0.960 . S
C208 H195 0.961 . S
C208 H196 0.959 . S
C208 C206 1.561 . S
C209 C206 1.526 . S
C209 C210 1.396 . S
C209 C214 1.390 . S
C210 C204 1.465 . S
C210 C209 1.396 . S
C210 C211 1.399 . S
C211 H197 0.929 . S
C211 C210 1.399 . S
C211 C212 1.385 . S
C212 H198 0.931 . S
C212 C211 1.385 . S
C212 C213 1.389 . S
C213 C212 1.389 . S
C213 C214 1.387 . S
C214 H199 0.930 . S
C214 C209 1.390 . S
C214 C213 1.387 . S
H215 C227 0.930 . S
H216 C229 0.930 . S
H217 C230 0.930 1_545 S
H218 C234 0.959 . S
H219 C234 0.959 . S
H220 C234 0.961 . S
H221 C235 0.960 . S
H222 C235 0.961 . S
H223 C235 0.959 . S
H224 C238 0.929 . S
H225 C239 0.931 . S
H226 C241 0.930 . S
C227 H215 0.930 . S
C227 C228 1.399 . S
C227 C232 1.399 . S
C228 C227 1.399 . S
C228 C229 1.376 . S
C229 H216 0.930 . S
C229 C228 1.376 . S
C229 C230 1.388 . S
C230 H217 0.930 1_565 S
C230 C229 1.388 . S
C230 C231 1.390 . S
C231 C230 1.390 . S
C231 C232 1.394 . S
C231 C237 1.465 . S
C232 C227 1.399 . S
C232 C231 1.394 . S
C232 C233 1.516 . S
C233 C232 1.516 . S
C233 C234 1.502 . S
C233 C235 1.561 . S
C233 C236 1.526 . S
C234 H218 0.959 . S
C234 H219 0.959 . S
C234 H220 0.961 . S
C234 C233 1.502 . S
C235 H221 0.960 . S
C235 H222 0.961 . S
C235 H223 0.959 . S
C235 C233 1.561 . S
C236 C233 1.526 . S
C236 C237 1.396 . S
C236 C241 1.390 . S
C237 C231 1.465 . S
C237 C236 1.396 . S
C237 C238 1.399 1_565 S
C238 H224 0.929 . S
C238 C237 1.399 1_545 S
C238 C239 1.385 . S
C239 H225 0.931 . S
C239 C238 1.385 . S
C239 C240 1.389 1_545 S
C240 C239 1.389 1_565 S
C240 C241 1.387 . S
C241 H226 0.930 . S
C241 C236 1.390 . S
C241 C240 1.387 . S
H242 C254 0.930 . S
H243 C256 0.930 . S
H244 C257 0.930 . S
H245 C261 0.959 . S
H246 C261 0.959 . S
H247 C261 0.961 . S
H248 C262 0.960 . S
H249 C262 0.961 . S
H250 C262 0.959 . S
H251 C265 0.929 . S
H252 C266 0.931 . S
H253 C268 0.930 . S
C254 H242 0.930 . S
C254 C255 1.399 . S
C254 C259 1.399 . S
C255 C254 1.399 . S
C255 C256 1.376 . S
C256 H243 0.930 . S
C256 C255 1.376 . S
C256 C257 1.388 . S
C257 H244 0.930 . S
C257 C256 1.388 . S
C257 C258 1.390 . S
C258 C257 1.390 . S
C258 C259 1.394 . S
C258 C264 1.465 . S
C259 C254 1.399 . S
C259 C258 1.394 . S
C259 C260 1.516 . S
C260 C259 1.516 . S
C260 C261 1.502 . S
C260 C262 1.561 . S
C260 C263 1.526 . S
C261 H245 0.959 . S
C261 H246 0.959 . S
C261 H247 0.961 . S
C261 C260 1.502 . S
C262 H248 0.960 . S
C262 H249 0.961 . S
C262 H250 0.959 . S
C262 C260 1.561 . S
C263 C260 1.526 . S
C263 C264 1.396 . S
C263 C268 1.390 . S
C264 C258 1.465 . S
C264 C263 1.396 . S
C264 C265 1.399 . S
C265 H251 0.929 . S
C265 C264 1.399 . S
C265 C266 1.385 . S
C266 H252 0.931 . S
C266 C265 1.385 . S
C266 C267 1.389 . S
C267 C266 1.389 . S
C267 C268 1.387 . S
C268 H253 0.930 . S
C268 C263 1.390 . S
C268 C267 1.387 . S
H269 C281 0.930 . S
H270 C283 0.930 . S
H271 C284 0.930 . S
H272 C288 0.959 . S
H273 C288 0.959 . S
H274 C288 0.961 . S
H275 C289 0.960 . S
H276 C289 0.961 . S
H277 C289 0.959 . S
H278 C292 0.929 . S
H279 C293 0.931 . S
H280 C295 0.930 . S
C281 H269 0.930 . S
C281 C282 1.399 . S
C281 C286 1.399 . S
C282 C281 1.399 . S
C282 C283 1.376 . S
C283 H270 0.930 . S
C283 C282 1.376 . S
C283 C284 1.388 . S
C284 H271 0.930 . S
C284 C283 1.388 . S
C284 C285 1.390 . S
C285 C284 1.390 . S
C285 C286 1.394 . S
C285 C291 1.465 . S
C286 C281 1.399 . S
C286 C285 1.394 . S
C286 C287 1.516 . S
C287 C286 1.516 . S
C287 C288 1.502 . S
C287 C289 1.561 . S
C287 C290 1.526 . S
C288 H272 0.959 . S
C288 H273 0.959 . S
C288 H274 0.961 . S
C288 C287 1.502 . S
C289 H275 0.960 . S
C289 H276 0.961 . S
C289 H277 0.959 . S
C289 C287 1.561 . S
C290 C287 1.526 . S
C290 C291 1.396 . S
C290 C295 1.390 . S
C291 C285 1.465 . S
C291 C290 1.396 . S
C291 C292 1.399 . S
C292 H278 0.929 . S
C292 C291 1.399 . S
C292 C293 1.385 . S
C293 H279 0.931 . S
C293 C292 1.385 . S
C293 C294 1.389 . S
C294 C293 1.389 . S
C294 C295 1.387 . S
C295 H280 0.930 . S
C295 C290 1.390 . S
C295 C294 1.387 . S
H296 C308 0.930 . S
H297 C310 0.930 . S
H298 C311 0.930 . S
H299 C315 0.959 . S
H300 C315 0.970 . S
H301 C315 0.961 . S
H302 C316 0.960 . S
H303 C316 0.961 1_556 S
H304 C316 0.959 . S
H305 C319 0.929 . S
H306 C320 0.931 . S
H307 C322 0.930 . S
C308 H296 0.930 . S
C308 C309 1.399 . S
C308 C313 1.399 . S
C309 C308 1.399 . S
C309 C310 1.376 . S
C310 H297 0.930 . S
C310 C309 1.376 . S
C310 C311 1.388 . S
C311 H298 0.930 . S
C311 C310 1.388 . S
C311 C312 1.390 . S
C312 C311 1.390 . S
C312 C313 1.394 . S
C312 C318 1.465 . S
C313 C308 1.399 . S
C313 C312 1.394 . S
C313 C314 1.516 . S
C314 C313 1.516 . S
C314 C315 1.502 . S
C314 C316 1.561 . S
C314 C317 1.526 . S
C315 H299 0.959 . S
C315 H300 0.970 . S
C315 H301 0.961 . S
C315 C314 1.502 . S
C316 H302 0.960 . S
C316 H303 0.961 1_554 S
C316 H304 0.959 . S
C316 C314 1.561 . S
C317 C314 1.526 . S
C317 C318 1.396 . S
C317 C322 1.390 . S
C318 C312 1.465 . S
C318 C317 1.396 . S
C318 C319 1.399 . S
C319 H305 0.929 . S
C319 C318 1.399 . S
C319 C320 1.385 . S
C320 H306 0.931 . S
C320 C319 1.385 . S
C320 C321 1.389 . S
C321 C320 1.389 . S
C321 C322 1.387 . S
C322 H307 0.930 . S
C322 C317 1.390 . S
C322 C321 1.387 . S
H323 C335 0.930 . S
H324 C337 0.930 . S
H325 C338 0.930 . S
H326 C342 0.959 . S
H327 C342 0.959 . S
H328 C342 0.961 . S
H329 C343 0.960 . S
H330 C343 0.961 . S
H331 C343 0.959 . S
H332 C346 0.929 . S
H333 C347 0.931 . S
H334 C349 0.930 . S
C335 H323 0.930 . S
C335 C336 1.399 . S
C335 C340 1.399 . S
C336 C335 1.399 . S
C336 C337 1.376 . S
C337 H324 0.930 . S
C337 C336 1.376 . S
C337 C338 1.388 . S
C338 H325 0.930 . S
C338 C337 1.388 . S
C338 C339 1.390 . S
C339 C338 1.390 . S
C339 C340 1.394 . S
C339 C345 1.465 . S
C340 C335 1.399 . S
C340 C339 1.394 . S
C340 C341 1.516 . S
C341 C340 1.516 . S
C341 C342 1.502 . S
C341 C343 1.561 . S
C341 C344 1.526 . S
C342 H326 0.959 . S
C342 H327 0.959 . S
C342 H328 0.961 . S
C342 C341 1.502 . S
C343 H329 0.960 . S
C343 H330 0.961 . S
C343 H331 0.959 . S
C343 C341 1.561 . S
C344 C341 1.526 . S
C344 C345 1.396 . S
C344 C349 1.390 . S
C345 C339 1.465 . S
C345 C344 1.396 . S
C345 C346 1.399 . S
C346 H332 0.929 . S
C346 C345 1.399 . S
C346 C347 1.385 . S
C347 H333 0.931 . S
C347 C346 1.385 . S
C347 C348 1.389 . S
C348 C347 1.389 . S
C348 C349 1.387 . S
C349 H334 0.930 . S
C349 C344 1.390 . S
C349 C348 1.387 . S
H350 C362 0.930 . S
H351 C364 0.930 . S
H352 C365 0.930 . S
H353 C369 0.959 . S
H354 C369 0.959 . S
H355 C369 0.961 . S
H356 C370 0.960 . S
H357 C370 0.961 . S
H358 C370 0.959 . S
H359 C373 0.929 1_554 S
H360 C374 0.931 1_554 S
H361 C376 0.930 . S
C362 H350 0.930 . S
C362 C363 1.399 . S
C362 C367 1.399 . S
C363 C362 1.399 . S
C363 C364 1.376 . S
C364 H351 0.930 . S
C364 C363 1.376 . S
C364 C365 1.388 . S
C365 H352 0.930 . S
C365 C364 1.388 . S
C365 C366 1.390 . S
C366 C365 1.390 . S
C366 C367 1.394 . S
C366 C372 1.465 . S
C367 C362 1.399 . S
C367 C366 1.394 . S
C367 C368 1.516 . S
C368 C367 1.516 . S
C368 C369 1.502 . S
C368 C370 1.561 . S
C368 C371 1.526 . S
C369 H353 0.959 . S
C369 H354 0.959 . S
C369 H355 0.961 . S
C369 C368 1.502 . S
C370 H356 0.960 . S
C370 H357 0.961 . S
C370 H358 0.959 . S
C370 C368 1.561 . S
C371 C368 1.526 . S
C371 C372 1.396 . S
C371 C376 1.390 . S
C372 C366 1.465 . S
C372 C371 1.396 . S
C372 C373 1.399 . S
C373 H359 0.929 1_556 S
C373 C372 1.399 . S
C373 C374 1.385 . S
C374 H360 0.931 1_556 S
C374 C373 1.385 . S
C374 C375 1.389 . S
C375 C374 1.389 . S
C375 C376 1.387 . S
C376 H361 0.930 . S
C376 C371 1.390 . S
C376 C375 1.387 . S
H377 C389 0.930 . S
H378 C391 0.930 . S
H379 C392 0.930 . S
H380 C396 0.959 . S
H381 C396 0.959 . S
H382 C396 0.961 . S
H383 C397 0.960 . S
H384 C397 0.961 . S
H385 C397 0.959 . S
H386 C400 0.929 . S
H387 C401 0.931 . S
H388 C403 0.930 . S
C389 H377 0.930 . S
C389 C390 1.399 . S
C389 C394 1.399 . S
C390 C389 1.399 . S
C390 C391 1.376 . S
C391 H378 0.930 . S
C391 C390 1.376 . S
C391 C392 1.388 . S
C392 H379 0.930 . S
C392 C391 1.388 . S
C392 C393 1.390 . S
C393 C392 1.390 . S
C393 C394 1.394 . S
C393 C399 1.465 . S
C394 C389 1.399 . S
C394 C393 1.394 . S
C394 C395 1.516 . S
C395 C394 1.516 . S
C395 C396 1.502 . S
C395 C397 1.561 . S
C395 C398 1.526 . S
C396 H380 0.959 . S
C396 H381 0.959 . S
C396 H382 0.961 . S
C396 C395 1.502 . S
C397 H383 0.960 . S
C397 H384 0.961 . S
C397 H385 0.959 . S
C397 C395 1.561 . S
C398 C395 1.526 . S
C398 C399 1.396 . S
C398 C403 1.390 . S
C399 C393 1.465 . S
C399 C398 1.396 . S
C399 C400 1.399 . S
C400 H386 0.929 . S
C400 C399 1.399 . S
C400 C401 1.385 . S
C401 H387 0.931 . S
C401 C400 1.385 . S
C401 C402 1.389 . S
C402 C401 1.389 . S
C402 C403 1.387 . S
C403 H388 0.930 . S
C403 C398 1.390 . S
C403 C402 1.387 . S
H404 C416 0.930 . S
H405 C418 0.930 . S
H406 C419 0.930 1_556 S
H407 C423 0.959 . S
H408 C423 0.959 . S
H409 C423 0.961 . S
H410 C424 0.960 . S
H411 C424 0.961 . S
H412 C424 0.959 . S
H413 C427 0.929 1_556 S
H414 C428 0.940 . S
H415 C430 0.930 . S
C416 H404 0.930 . S
C416 C417 1.399 . S
C416 C421 1.399 . S
C417 C416 1.399 . S
C417 C418 1.376 . S
C418 H405 0.930 . S
C418 C417 1.376 . S
C418 C419 1.388 . S
C419 H406 0.930 1_554 S
C419 C418 1.388 . S
C419 C420 1.390 . S
C420 C419 1.390 . S
C420 C421 1.394 . S
C420 C426 1.465 . S
C421 C416 1.399 . S
C421 C420 1.394 . S
C421 C422 1.516 . S
C422 C421 1.516 . S
C422 C423 1.502 . S
C422 C424 1.561 . S
C422 C425 1.526 . S
C423 H407 0.959 . S
C423 H408 0.959 . S
C423 H409 0.961 . S
C423 C422 1.502 . S
C424 H410 0.960 . S
C424 H411 0.961 . S
C424 H412 0.959 . S
C424 C422 1.561 . S
C425 C422 1.526 . S
C425 C426 1.396 . S
C425 C430 1.390 . S
C426 C420 1.465 . S
C426 C425 1.396 . S
C426 C427 1.399 . S
C427 H413 0.929 1_554 S
C427 C426 1.399 . S
C427 C428 1.385 1_554 S
C428 H414 0.940 . S
C428 C427 1.385 1_556 S
C428 C429 1.381 1_556 S
C429 C428 1.381 1_554 S
C429 C430 1.387 . S
C430 H415 0.930 . S
C430 C425 1.390 . S
C430 C429 1.387 . S
H431 C443 0.930 . S
H432 C445 0.930 . S
H433 C446 0.930 . S
H434 C450 0.959 1_556 S
H435 C450 0.959 . S
H436 C450 0.961 . S
H437 C451 0.960 . S
H438 C451 0.961 . S
H439 C451 0.959 1_556 S
H440 C454 0.929 . S
H441 C455 0.931 . S
H442 C457 0.930 1_554 S
C443 H431 0.930 . S
C443 C444 1.399 . S
C443 C448 1.399 . S
C444 C443 1.399 . S
C444 C445 1.376 . S
C445 H432 0.930 . S
C445 C444 1.376 . S
C445 C446 1.388 . S
C446 H433 0.930 . S
C446 C445 1.388 . S
C446 C447 1.390 . S
C447 C446 1.390 . S
C447 C448 1.394 . S
C447 C453 1.465 . S
C448 C443 1.399 . S
C448 C447 1.394 . S
C448 C449 1.516 . S
C449 C448 1.516 . S
C449 C450 1.502 1_556 S
C449 C451 1.561 1_556 S
C449 C452 1.526 . S
C450 H434 0.959 1_554 S
C450 H435 0.959 . S
C450 H436 0.961 . S
C450 C449 1.502 1_554 S
C451 H437 0.960 . S
C451 H438 0.961 . S
C451 H439 0.959 1_554 S
C451 C449 1.561 1_554 S
C452 C449 1.526 . S
C452 C453 1.396 . S
C452 C457 1.390 . S
C453 C447 1.465 . S
C453 C452 1.396 . S
C453 C454 1.399 . S
C454 H440 0.929 . S
C454 C453 1.399 . S
C454 C455 1.385 . S
C455 H441 0.931 . S
C455 C454 1.385 . S
C455 C456 1.389 . S
C456 C455 1.389 . S
C456 C457 1.387 . S
C457 H442 0.930 1_556 S
C457 C452 1.390 . S
C457 C456 1.387 . S
H458 C470 0.930 . S
H459 C472 0.930 . S
H460 C473 0.930 . S
H461 C477 0.959 . S
H462 C477 0.959 . S
H463 C477 0.961 . S
H464 C478 0.960 . S
H465 C478 0.961 . S
H466 C478 0.959 . S
H467 C481 0.929 . S
H468 C482 0.931 . S
H469 C484 0.930 . S
C470 H458 0.930 . S
C470 C471 1.399 . S
C470 C475 1.399 . S
C471 C470 1.399 . S
C471 C472 1.376 . S
C472 H459 0.930 . S
C472 C471 1.376 . S
C472 C473 1.388 . S
C473 H460 0.930 . S
C473 C472 1.388 . S
C473 C474 1.390 . S
C474 C473 1.390 . S
C474 C475 1.394 . S
C474 C480 1.465 . S
C475 C470 1.399 . S
C475 C474 1.394 . S
C475 C476 1.516 . S
C476 C475 1.516 . S
C476 C477 1.502 . S
C476 C478 1.561 . S
C476 C479 1.526 . S
C477 H461 0.959 . S
C477 H462 0.959 . S
C477 H463 0.961 . S
C477 C476 1.502 . S
C478 H464 0.960 . S
C478 H465 0.961 . S
C478 H466 0.959 . S
C478 C476 1.561 . S
C479 C476 1.526 . S
C479 C480 1.396 . S
C479 C484 1.390 . S
C480 C474 1.465 . S
C480 C479 1.396 . S
C480 C481 1.399 1_655 S
C481 H467 0.929 . S
C481 C480 1.399 1_455 S
C481 C482 1.385 . S
C482 H468 0.931 . S
C482 C481 1.385 . S
C482 C483 1.389 1_455 S
C483 C482 1.389 1_655 S
C483 C484 1.387 . S
C484 H469 0.930 . S
C484 C479 1.390 . S
C484 C483 1.387 . S
H485 C497 0.930 . S
H486 C499 0.930 . S
H487 C500 0.930 . S
H488 C504 0.959 . S
H489 C504 0.959 . S
H490 C504 0.961 . S
H491 C505 0.960 . S
H492 C505 0.961 . S
H493 C505 0.959 . S
H494 C508 0.929 . S
H495 C509 0.931 . S
H496 C511 0.930 . S
C497 H485 0.930 . S
C497 C498 1.399 . S
C497 C502 1.399 . S
C498 C497 1.399 . S
C498 C499 1.376 . S
C499 H486 0.930 . S
C499 C498 1.376 . S
C499 C500 1.388 . S
C500 H487 0.930 . S
C500 C499 1.388 . S
C500 C501 1.390 . S
C501 C500 1.390 . S
C501 C502 1.394 . S
C501 C507 1.465 . S
C502 C497 1.399 . S
C502 C501 1.394 . S
C502 C503 1.516 . S
C503 C502 1.516 . S
C503 C504 1.502 . S
C503 C505 1.561 . S
C503 C506 1.526 . S
C504 H488 0.959 . S
C504 H489 0.959 . S
C504 H490 0.961 . S
C504 C503 1.502 . S
C505 H491 0.960 . S
C505 H492 0.961 . S
C505 H493 0.959 . S
C505 C503 1.561 . S
C506 C503 1.526 . S
C506 C507 1.396 . S
C506 C511 1.390 . S
C507 C501 1.465 . S
C507 C506 1.396 . S
C507 C508 1.399 . S
C508 H494 0.929 . S
C508 C507 1.399 . S
C508 C509 1.385 . S
C509 H495 0.931 . S
C509 C508 1.385 . S
C509 C510 1.389 . S
C510 C509 1.389 . S
C510 C511 1.387 . S
C511 H496 0.930 . S
C511 C506 1.390 . S
C511 C510 1.387 . S
H512 C524 0.930 . S
H513 C526 0.930 . S
H514 C527 0.930 . S
H515 C531 0.959 . S
H516 C531 0.959 1_545 S
H517 C531 0.961 1_545 S
H518 C532 0.960 . S
H519 C532 0.961 . S
H520 C532 0.959 1_455 S
H521 C535 0.929 . S
H522 C536 0.931 . S
H523 C538 0.930 1_545 S
C524 H512 0.930 . S
C524 C525 1.399 . S
C524 C529 1.399 . S
C525 C524 1.399 . S
C525 C526 1.376 . S
C526 H513 0.930 . S
C526 C525 1.376 . S
C526 C527 1.388 . S
C527 H514 0.930 . S
C527 C526 1.388 . S
C527 C528 1.390 . S
C528 C527 1.390 . S
C528 C529 1.394 . S
C528 C534 1.465 . S
C529 C524 1.399 . S
C529 C528 1.394 . S
C529 C530 1.516 . S
C530 C529 1.516 . S
C530 C531 1.502 . S
C530 C532 1.561 1_565 S
C530 C533 1.526 . S
C531 H515 0.959 . S
C531 H516 0.959 1_565 S
C531 H517 0.961 1_565 S
C531 C530 1.502 . S
C532 H518 0.960 . S
C532 H519 0.961 . S
C532 H520 0.959 1_655 S
C532 C530 1.561 1_545 S
C533 C530 1.526 . S
C533 C534 1.396 . S
C533 C538 1.390 . S
C534 C528 1.465 . S
C534 C533 1.396 . S
C534 C535 1.399 1_655 S
C535 H521 0.929 . S
C535 C534 1.399 1_455 S
C535 C536 1.385 . S
C536 H522 0.931 . S
C536 C535 1.385 . S
C536 C537 1.389 . S
C537 C536 1.389 . S
C537 C538 1.387 1_455 S
C538 H523 0.930 1_565 S
C538 C533 1.390 . S
C538 C537 1.387 1_655 S
H539 C551 0.930 . S
H540 C553 0.930 . S
H541 C554 0.930 . S
H542 C558 0.959 . S
H543 C558 0.959 . S
H544 C558 0.961 . S
H545 C559 0.960 . S
H546 C559 0.961 . S
H547 C559 0.959 . S
H548 C562 0.929 . S
H549 C563 0.931 . S
H550 C565 0.930 . S
C551 H539 0.930 . S
C551 C552 1.399 . S
C551 C556 1.399 . S
C552 C551 1.399 . S
C552 C553 1.376 . S
C553 H540 0.930 . S
C553 C552 1.376 . S
C553 C554 1.388 . S
C554 H541 0.930 . S
C554 C553 1.388 . S
C554 C555 1.390 . S
C555 C554 1.390 . S
C555 C556 1.394 . S
C555 C561 1.465 . S
C556 C551 1.399 . S
C556 C555 1.394 . S
C556 C557 1.516 . S
C557 C556 1.516 . S
C557 C558 1.502 . S
C557 C559 1.561 . S
C557 C560 1.526 . S
C558 H542 0.959 . S
C558 H543 0.959 . S
C558 H544 0.961 . S
C558 C557 1.502 . S
C559 H545 0.960 . S
C559 H546 0.961 . S
C559 H547 0.959 . S
C559 C557 1.561 . S
C560 C557 1.526 . S
C560 C561 1.396 . S
C560 C565 1.390 . S
C561 C555 1.465 . S
C561 C560 1.396 . S
C561 C562 1.399 . S
C562 H548 0.929 . S
C562 C561 1.399 . S
C562 C563 1.385 . S
C563 H549 0.931 . S
C563 C562 1.385 . S
C563 C564 1.389 . S
C564 C563 1.389 . S
C564 C565 1.387 . S
C565 H550 0.930 . S
C565 C560 1.390 . S
C565 C564 1.387 . S
H566 C578 0.930 . S
H567 C580 0.930 . S
H568 C581 0.930 . S
H569 C585 0.959 . S
H570 C585 0.959 . S
H571 C585 0.961 . S
H572 C586 0.960 . S
H573 C586 0.961 . S
H574 C586 0.959 . S
H575 C589 0.929 . S
H576 C590 0.931 . S
H577 C592 0.930 . S
C578 H566 0.930 . S
C578 C579 1.399 . S
C578 C583 1.399 . S
C579 C578 1.399 . S
C579 C580 1.376 . S
C580 H567 0.930 . S
C580 C579 1.376 . S
C580 C581 1.388 . S
C581 H568 0.930 . S
C581 C580 1.388 . S
C581 C582 1.390 . S
C582 C581 1.390 . S
C582 C583 1.394 . S
C582 C588 1.465 . S
C583 C578 1.399 . S
C583 C582 1.394 . S
C583 C584 1.516 . S
C584 C583 1.516 . S
C584 C585 1.502 . S
C584 C586 1.561 . S
C584 C587 1.526 . S
C585 H569 0.959 . S
C585 H570 0.959 . S
C585 H571 0.961 . S
C585 C584 1.502 . S
C586 H572 0.960 . S
C586 H573 0.961 . S
C586 H574 0.959 . S
C586 C584 1.561 . S
C587 C584 1.526 . S
C587 C588 1.396 . S
C587 C592 1.390 . S
C588 C582 1.465 . S
C588 C587 1.396 . S
C588 C589 1.399 . S
C589 H575 0.929 . S
C589 C588 1.399 . S
C589 C590 1.385 . S
C590 H576 0.931 . S
C590 C589 1.385 . S
C590 C591 1.389 . S
C591 C590 1.389 . S
C591 C592 1.387 . S
C592 H577 0.930 . S
C592 C587 1.390 . S
C592 C591 1.387 . S
H593 C605 0.930 . S
H594 C607 0.930 . S
H595 C608 0.930 . S
H596 C612 0.959 1_655 S
H597 C612 0.959 1_655 S
H598 C612 0.961 . S
H599 C613 0.960 . S
H600 C613 0.961 . S
H601 C613 0.959 . S
H602 C616 0.929 . S
H603 C617 0.931 . S
H604 C619 0.930 . S
C605 H593 0.930 . S
C605 C606 1.399 . S
C605 C610 1.399 . S
C606 C605 1.399 . S
C606 C607 1.376 . S
C607 H594 0.930 . S
C607 C606 1.376 . S
C607 C608 1.388 . S
C608 H595 0.930 . S
C608 C607 1.388 . S
C608 C609 1.390 . S
C609 C608 1.390 . S
C609 C610 1.394 . S
C609 C615 1.465 . S
C610 C605 1.399 . S
C610 C609 1.394 . S
C610 C611 1.516 . S
C611 C610 1.516 . S
C611 C612 1.502 . S
C611 C613 1.561 . S
C611 C614 1.526 . S
C612 H596 0.959 1_455 S
C612 H597 0.959 1_455 S
C612 H598 0.961 . S
C612 C611 1.502 . S
C613 H599 0.960 . S
C613 H600 0.961 . S
C613 H601 0.959 . S
C613 C611 1.561 . S
C614 C611 1.526 . S
C614 C615 1.396 . S
C614 C619 1.390 . S
C615 C609 1.465 . S
C615 C614 1.396 . S
C615 C616 1.399 . S
C616 H602 0.929 . S
C616 C615 1.399 . S
C616 C617 1.385 . S
C617 H603 0.931 . S
C617 C616 1.385 . S
C617 C618 1.389 . S
C618 C617 1.389 . S
C618 C619 1.387 . S
C619 H604 0.930 . S
C619 C614 1.390 . S
C619 C618 1.387 . S
H620 C632 0.930 . S
H621 C634 0.930 . S
H622 C635 0.922 1_545 S
H623 C639 0.959 1_556 S
H624 C639 0.959 . S
H625 C639 0.961 . S
H626 C640 0.960 . S
H627 C640 0.961 . S
H628 C640 0.959 1_545 S
H629 C643 0.929 . S
H630 C644 0.931 . S
H631 C646 0.930 . S
C632 H620 0.930 . S
C632 C633 1.399 . S
C632 C637 1.399 . S
C633 C632 1.399 . S
C633 C634 1.376 . S
C634 H621 0.930 . S
C634 C633 1.376 . S
C634 C635 1.388 . S
C635 H622 0.922 1_565 S
C635 C634 1.388 . S
C635 C636 1.390 . S
C636 C635 1.390 . S
C636 C637 1.394 . S
C636 C642 1.465 . S
C637 C632 1.399 . S
C637 C636 1.394 . S
C637 C638 1.516 1_556 S
C638 C637 1.516 1_554 S
C638 C639 1.502 . S
C638 C640 1.561 . S
C638 C641 1.526 1_554 S
C639 H623 0.959 1_554 S
C639 H624 0.959 . S
C639 H625 0.961 . S
C639 C638 1.502 . S
C640 H626 0.960 . S
C640 H627 0.961 . S
C640 H628 0.959 1_565 S
C640 C638 1.561 . S
C641 C638 1.526 1_556 S
C641 C642 1.396 . S
C641 C646 1.390 1_556 S
C642 C636 1.465 . S
C642 C641 1.396 . S
C642 C643 1.399 1_565 S
C643 H629 0.929 . S
C643 C642 1.399 1_545 S
C643 C644 1.385 . S
C644 H630 0.931 . S
C644 C643 1.385 . S
C644 C645 1.389 1_545 S
C645 C644 1.389 1_565 S
C645 C646 1.387 1_556 S
C646 H631 0.930 . S
C646 C641 1.390 1_554 S
C646 C645 1.387 1_554 S
H647 C659 0.930 . S
H648 C661 0.930 . S
H649 C662 0.930 . S
H650 C666 0.959 . S
H651 C666 0.959 . S
H652 C666 0.961 . S
H653 C667 0.960 . S
H654 C667 0.961 . S
H655 C667 0.959 . S
H656 C670 0.929 . S
H657 C671 0.931 . S
H658 C673 0.930 . S
C659 H647 0.930 . S
C659 C660 1.399 . S
C659 C664 1.399 . S
C660 C659 1.399 . S
C660 C661 1.376 . S
C661 H648 0.930 . S
C661 C660 1.376 . S
C661 C662 1.388 . S
C662 H649 0.930 . S
C662 C661 1.388 . S
C662 C663 1.390 . S
C663 C662 1.390 . S
C663 C664 1.394 . S
C663 C669 1.465 . S
C664 C659 1.399 . S
C664 C663 1.394 . S
C664 C665 1.516 . S
C665 C664 1.516 . S
C665 C666 1.502 . S
C665 C667 1.561 . S
C665 C668 1.526 . S
C666 H650 0.959 . S
C666 H651 0.959 . S
C666 H652 0.961 . S
C666 C665 1.502 . S
C667 H653 0.960 . S
C667 H654 0.961 . S
C667 H655 0.959 . S
C667 C665 1.561 . S
C668 C665 1.526 . S
C668 C669 1.396 . S
C668 C673 1.390 . S
C669 C663 1.465 . S
C669 C668 1.396 . S
C669 C670 1.399 . S
C670 H656 0.929 . S
C670 C669 1.399 . S
C670 C671 1.385 . S
C671 H657 0.931 . S
C671 C670 1.385 . S
C671 C672 1.389 . S
C672 C671 1.389 . S
C672 C673 1.387 . S
C673 H658 0.930 . S
C673 C668 1.390 . S
C673 C672 1.387 . S
H674 C686 0.930 . S
H675 C688 0.930 . S
H676 C689 0.930 . S
H677 C693 0.959 1_554 S
H678 C693 0.959 . S
H679 C693 0.961 . S
H680 C694 0.960 . S
H681 C694 0.961 . S
H682 C694 0.959 . S
H683 C697 0.929 . S
H684 C698 0.931 . S
H685 C700 0.930 1_556 S
C686 H674 0.930 . S
C686 C687 1.399 . S
C686 C691 1.399 . S
C687 C686 1.399 . S
C687 C688 1.376 . S
C688 H675 0.930 . S
C688 C687 1.376 . S
C688 C689 1.388 . S
C689 H676 0.930 . S
C689 C688 1.388 . S
C689 C690 1.390 . S
C690 C689 1.390 . S
C690 C691 1.394 . S
C690 C696 1.465 . S
C691 C686 1.399 . S
C691 C690 1.394 . S
C691 C692 1.516 . S
C692 C691 1.516 . S
C692 C693 1.502 1_554 S
C692 C694 1.561 . S
C692 C695 1.526 . S
C693 H677 0.959 1_556 S
C693 H678 0.959 . S
C693 H679 0.961 . S
C693 C692 1.502 1_556 S
C694 H680 0.960 . S
C694 H681 0.961 . S
C694 H682 0.959 . S
C694 C692 1.561 . S
C695 C692 1.526 . S
C695 C696 1.396 . S
C695 C700 1.390 . S
C696 C690 1.465 . S
C696 C695 1.396 . S
C696 C697 1.399 . S
C697 H683 0.929 . S
C697 C696 1.399 . S
C697 C698 1.385 . S
C698 H684 0.931 . S
C698 C697 1.385 . S
C698 C699 1.389 . S
C699 C698 1.389 . S
C699 C700 1.387 . S
C700 H685 0.930 1_554 S
C700 C695 1.390 . S
C700 C699 1.387 . S
H701 C713 0.930 . S
H702 C715 0.930 . S
H703 C716 0.930 . S
H704 C720 0.959 . S
H705 C720 0.959 . S
H706 C720 0.961 . S
H707 C721 0.960 . S
H708 C721 0.961 . S
H709 C721 0.959 . S
H710 C724 0.929 . S
H711 C725 0.931 . S
H712 C727 0.930 . S
C713 H701 0.930 . S
C713 C714 1.399 . S
C713 C718 1.399 . S
C714 C713 1.399 . S
C714 C715 1.376 . S
C715 H702 0.930 . S
C715 C714 1.376 . S
C715 C716 1.388 . S
C716 H703 0.930 . S
C716 C715 1.388 . S
C716 C717 1.390 . S
C717 C716 1.390 . S
C717 C718 1.394 . S
C717 C723 1.465 . S
C718 C713 1.399 . S
C718 C717 1.394 . S
C718 C719 1.516 . S
C719 C718 1.516 . S
C719 C720 1.502 . S
C719 C721 1.561 . S
C719 C722 1.526 . S
C720 H704 0.959 . S
C720 H705 0.959 . S
C720 H706 0.961 . S
C720 C719 1.502 . S
C721 H707 0.960 . S
C721 H708 0.961 . S
C721 H709 0.959 . S
C721 C719 1.561 . S
C722 C719 1.526 . S
C722 C723 1.396 . S
C722 C727 1.390 . S
C723 C717 1.465 . S
C723 C722 1.396 . S
C723 C724 1.399 . S
C724 H710 0.929 . S
C724 C723 1.399 . S
C724 C725 1.385 . S
C725 H711 0.931 . S
C725 C724 1.385 . S
C725 C726 1.389 . S
C726 C725 1.389 . S
C726 C727 1.387 . S
C727 H712 0.930 . S
C727 C722 1.390 . S
C727 C726 1.387 . S
H728 C740 0.930 . S
H729 C742 0.930 . S
H730 C743 0.930 . S
H731 C747 0.959 1_456 S
H732 C747 0.959 . S
H733 C747 0.961 . S
H734 C748 0.960 . S
H735 C748 0.961 . S
H736 C748 0.959 . S
H737 C751 0.929 . S
H738 C752 0.931 . S
H739 C754 0.930 1_554 S
C740 H728 0.930 . S
C740 C741 1.399 . S
C740 C745 1.399 . S
C741 C740 1.399 . S
C741 C742 1.376 . S
C742 H729 0.930 . S
C742 C741 1.376 . S
C742 C743 1.388 . S
C743 H730 0.930 . S
C743 C742 1.388 . S
C743 C744 1.390 . S
C744 C743 1.390 . S
C744 C745 1.394 . S
C744 C750 1.465 . S
C745 C740 1.399 . S
C745 C744 1.394 . S
C745 C746 1.516 . S
C746 C745 1.516 . S
C746 C747 1.502 1_556 S
C746 C748 1.561 1_556 S
C746 C749 1.526 . S
C747 H731 0.959 1_654 S
C747 H732 0.959 . S
C747 H733 0.961 . S
C747 C746 1.502 1_554 S
C748 H734 0.960 . S
C748 H735 0.961 . S
C748 H736 0.959 . S
C748 C746 1.561 1_554 S
C749 C746 1.526 . S
C749 C750 1.396 . S
C749 C754 1.390 . S
C750 C744 1.465 . S
C750 C749 1.396 . S
C750 C751 1.399 . S
C751 H737 0.929 . S
C751 C750 1.399 . S
C751 C752 1.385 . S
C752 H738 0.931 . S
C752 C751 1.385 . S
C752 C753 1.389 . S
C753 C752 1.389 . S
C753 C754 1.387 . S
C754 H739 0.930 1_556 S
C754 C749 1.390 . S
C754 C753 1.387 . S
H755 C767 0.930 . S
H756 C769 0.930 . S
H757 C770 0.930 . S
H758 C774 0.959 . S
H759 C774 0.959 . S
H760 C774 0.961 . S
H761 C775 0.960 . S
H762 C775 0.961 . S
H763 C775 0.959 . S
H764 C778 0.929 . S
H765 C779 0.931 . S
H766 C781 0.930 . S
C767 H755 0.930 . S
C767 C768 1.399 . S
C767 C772 1.399 . S
C768 C767 1.399 . S
C768 C769 1.376 . S
C769 H756 0.930 . S
C769 C768 1.376 . S
C769 C770 1.388 . S
C770 H757 0.930 . S
C770 C769 1.388 . S
C770 C771 1.390 . S
C771 C770 1.390 . S
C771 C772 1.394 . S
C771 C777 1.465 . S
C772 C767 1.399 . S
C772 C771 1.394 . S
C772 C773 1.516 . S
C773 C772 1.516 . S
C773 C774 1.502 . S
C773 C775 1.561 . S
C773 C776 1.526 . S
C774 H758 0.959 . S
C774 H759 0.959 . S
C774 H760 0.961 . S
C774 C773 1.502 . S
C775 H761 0.960 . S
C775 H762 0.961 . S
C775 H763 0.959 . S
C775 C773 1.561 . S
C776 C773 1.526 . S
C776 C777 1.396 . S
C776 C781 1.390 . S
C777 C771 1.465 . S
C777 C776 1.396 . S
C777 C778 1.399 . S
C778 H764 0.929 . S
C778 C777 1.399 . S
C778 C779 1.385 . S
C779 H765 0.931 . S
C779 C778 1.385 . S
C779 C780 1.389 . S
C780 C779 1.389 . S
C780 C781 1.387 . S
C781 H766 0.930 . S
C781 C776 1.390 . S
C781 C780 1.387 . S
H782 C794 0.930 . S
H783 C796 0.930 . S
H784 C797 0.930 . S
H785 C801 0.959 . S
H786 C801 0.959 . S
H787 C801 0.961 . S
H788 C802 0.960 . S
H789 C802 0.961 . S
H790 C802 0.959 . S
H791 C805 0.929 . S
H792 C806 0.931 . S
H793 C808 0.930 . S
C794 H782 0.930 . S
C794 C795 1.399 . S
C794 C799 1.399 . S
C795 C794 1.399 . S
C795 C796 1.376 . S
C796 H783 0.930 . S
C796 C795 1.376 . S
C796 C797 1.388 . S
C797 H784 0.930 . S
C797 C796 1.388 . S
C797 C798 1.390 . S
C798 C797 1.390 . S
C798 C799 1.394 . S
C798 C804 1.465 . S
C799 C794 1.399 . S
C799 C798 1.394 . S
C799 C800 1.516 . S
C800 C799 1.516 . S
C800 C801 1.502 . S
C800 C802 1.561 . S
C800 C803 1.526 . S
C801 H785 0.959 . S
C801 H786 0.959 . S
C801 H787 0.961 . S
C801 C800 1.502 . S
C802 H788 0.960 . S
C802 H789 0.961 . S
C802 H790 0.959 . S
C802 C800 1.561 . S
C803 C800 1.526 . S
C803 C804 1.396 . S
C803 C808 1.390 . S
C804 C798 1.465 . S
C804 C803 1.396 . S
C804 C805 1.399 . S
C805 H791 0.929 . S
C805 C804 1.399 . S
C805 C806 1.385 . S
C806 H792 0.931 . S
C806 C805 1.385 . S
C806 C807 1.389 . S
C807 C806 1.389 . S
C807 C808 1.387 . S
C808 H793 0.930 . S
C808 C803 1.390 . S
C808 C807 1.387 . S
H809 C821 0.930 . S
H810 C823 0.930 . S
H811 C824 0.930 . S
H812 C828 0.959 . S
H813 C828 0.959 . S
H814 C828 0.961 . S
H815 C829 0.960 . S
H816 C829 0.961 . S
H817 C829 0.959 . S
H818 C832 0.929 . S
H819 C833 0.931 . S
H820 C835 0.930 . S
C821 H809 0.930 . S
C821 C822 1.399 . S
C821 C826 1.399 . S
C822 C821 1.399 . S
C822 C823 1.376 . S
C823 H810 0.930 . S
C823 C822 1.376 . S
C823 C824 1.388 . S
C824 H811 0.930 . S
C824 C823 1.388 . S
C824 C825 1.390 . S
C825 C824 1.390 . S
C825 C826 1.394 . S
C825 C831 1.465 . S
C826 C821 1.399 . S
C826 C825 1.394 . S
C826 C827 1.516 . S
C827 C826 1.516 . S
C827 C828 1.502 . S
C827 C829 1.561 . S
C827 C830 1.526 . S
C828 H812 0.959 . S
C828 H813 0.959 . S
C828 H814 0.961 . S
C828 C827 1.502 . S
C829 H815 0.960 . S
C829 H816 0.961 . S
C829 H817 0.959 . S
C829 C827 1.561 . S
C830 C827 1.526 . S
C830 C831 1.396 . S
C830 C835 1.390 . S
C831 C825 1.465 . S
C831 C830 1.396 . S
C831 C832 1.399 . S
C832 H818 0.929 . S
C832 C831 1.399 . S
C832 C833 1.385 . S
C833 H819 0.931 . S
C833 C832 1.385 . S
C833 C834 1.389 . S
C834 C833 1.389 . S
C834 C835 1.387 . S
C835 H820 0.930 . S
C835 C830 1.390 . S
C835 C834 1.387 . S
C201 N1 1.542 . S
C213 C122 1.501 . S
C228 N18 1.785 . S
C240 C139 1.771 . S
C267 C162 0.798 . S
C255 N28 1.059 . S
C282 N40 1.845 . S
C294 C183 1.499 . S
C321 C142 2.011 . S
C309 N5 2.061 . S
C348 C119 1.588 . S
C336 N14 1.666 . S
C375 C181 1.325 . S
C363 N31 1.357 . S
C402 C160 1.061 . S
C390 N41 1.104 . S
C417 N2 1.587 . S
C429 C184 1.571 . S
C456 C141 1.435 . S
C444 N27 1.599 . S
C471 N44 1.720 . S
C483 C117 1.567 1_655 S
C498 N15 1.342 . S
C510 C163 1.287 . S
C537 C121 1.845 . S
C525 N57 1.904 . S
C552 N70 1.222 . S
C564 C140 1.216 . S
C579 N79 1.402 . S
C591 C159 1.273 . S
C606 N93 1.455 . S
C618 C180 1.253 . S
C633 N54 1.596 . S
C645 C143 1.556 1_556 S
C672 C118 2.069 . S
C660 N66 2.130 . S
C699 C182 0.733 . S
C687 N80 0.805 . S
C726 C161 1.456 . S
C714 N96 1.502 . S
C741 N53 1.509 . S
C753 C185 1.465 . S
C780 C138 1.263 . S
C768 N83 1.374 . S
C807 C120 1.465 . S
C795 N92 1.571 . S
C822 N67 1.419 . S
C834 C164 1.406 . S
