# Generated by pormake.
# Topology eea, (3,6)-cn, num edge types: 1
# Building blocks:
#     Node 0, Type 0, BuildingBlock: KAKCAD_clean_linker_0, # of connection points: 3
#     Node 1, Type 0, BuildingBlock: KAKCAD_clean_linker_0, # of connection points: 3
#     Node 2, Type 0, BuildingBlock: KAKCAD_clean_linker_0, # of connection points: 3
#     Node 3, Type 0, BuildingBlock: KAKCAD_clean_linker_0, # of connection points: 3
#     Node 4, Type 0, BuildingBlock: KAKCAD_clean_linker_0, # of connection points: 3
#     Node 5, Type 0, BuildingBlock: KAKCAD_clean_linker_0, # of connection points: 3
#     Node 6, Type 0, BuildingBlock: KAKCAD_clean_linker_0, # of connection points: 3
#     Node 7, Type 0, BuildingBlock: KAKCAD_clean_linker_0, # of connection points: 3
#     Node 8, Type 0, BuildingBlock: KAKCAD_clean_linker_0, # of connection points: 3
#     Node 9, Type 0, BuildingBlock: KAKCAD_clean_linker_0, # of connection points: 3
#     Node 10, Type 0, BuildingBlock: KAKCAD_clean_linker_0, # of connection points: 3
#     Node 11, Type 0, BuildingBlock: KAKCAD_clean_linker_0, # of connection points: 3
#     Node 12, Type 0, BuildingBlock: KAKCAD_clean_linker_0, # of connection points: 3
#     Node 13, Type 0, BuildingBlock: KAKCAD_clean_linker_0, # of connection points: 3
#     Node 14, Type 0, BuildingBlock: KAKCAD_clean_linker_0, # of connection points: 3
#     Node 15, Type 0, BuildingBlock: KAKCAD_clean_linker_0, # of connection points: 3
#     Node 16, Type 0, BuildingBlock: KAKCAD_clean_linker_0, # of connection points: 3
#     Node 17, Type 0, BuildingBlock: KAKCAD_clean_linker_0, # of connection points: 3
#     Node 18, Type 1, BuildingBlock: KUMBUR_clean_sbu_0, # of connection points: 6
#     Node 19, Type 1, BuildingBlock: KUMBUR_clean_sbu_0, # of connection points: 6
#     Node 20, Type 1, BuildingBlock: KUMBUR_clean_sbu_0, # of connection points: 6
#     Node 21, Type 1, BuildingBlock: KUMBUR_clean_sbu_0, # of connection points: 6
#     Node 22, Type 1, BuildingBlock: KUMBUR_clean_sbu_0, # of connection points: 6
#     Node 23, Type 1, BuildingBlock: KUMBUR_clean_sbu_0, # of connection points: 6
#     Node 24, Type 1, BuildingBlock: KUMBUR_clean_sbu_0, # of connection points: 6
#     Node 25, Type 1, BuildingBlock: KUMBUR_clean_sbu_0, # of connection points: 6
#     Node 26, Type 1, BuildingBlock: KUMBUR_clean_sbu_0, # of connection points: 6
#     Edge 27, Type (0, 1), None
#     Edge 28, Type (0, 1), None
#     Edge 29, Type (0, 1), None
#     Edge 30, Type (0, 1), None
#     Edge 31, Type (0, 1), None
#     Edge 32, Type (0, 1), None
#     Edge 33, Type (0, 1), None
#     Edge 34, Type (0, 1), None
#     Edge 35, Type (0, 1), None
#     Edge 36, Type (0, 1), None
#     Edge 37, Type (0, 1), None
#     Edge 38, Type (0, 1), None
#     Edge 39, Type (0, 1), None
#     Edge 40, Type (0, 1), None
#     Edge 41, Type (0, 1), None
#     Edge 42, Type (0, 1), None
#     Edge 43, Type (0, 1), None
#     Edge 44, Type (0, 1), None
#     Edge 45, Type (0, 1), None
#     Edge 46, Type (0, 1), None
#     Edge 47, Type (0, 1), None
#     Edge 48, Type (0, 1), None
#     Edge 49, Type (0, 1), None
#     Edge 50, Type (0, 1), None
#     Edge 51, Type (0, 1), None
#     Edge 52, Type (0, 1), None
#     Edge 53, Type (0, 1), None
#     Edge 54, Type (0, 1), None
#     Edge 55, Type (0, 1), None
#     Edge 56, Type (0, 1), None
#     Edge 57, Type (0, 1), None
#     Edge 58, Type (0, 1), None
#     Edge 59, Type (0, 1), None
#     Edge 60, Type (0, 1), None
#     Edge 61, Type (0, 1), None
#     Edge 62, Type (0, 1), None
#     Edge 63, Type (0, 1), None
#     Edge 64, Type (0, 1), None
#     Edge 65, Type (0, 1), None
#     Edge 66, Type (0, 1), None
#     Edge 67, Type (0, 1), None
#     Edge 68, Type (0, 1), None
#     Edge 69, Type (0, 1), None
#     Edge 70, Type (0, 1), None
#     Edge 71, Type (0, 1), None
#     Edge 72, Type (0, 1), None
#     Edge 73, Type (0, 1), None
#     Edge 74, Type (0, 1), None
#     Edge 75, Type (0, 1), None
#     Edge 76, Type (0, 1), None
#     Edge 77, Type (0, 1), None
#     Edge 78, Type (0, 1), None
#     Edge 79, Type (0, 1), None
#     Edge 80, Type (0, 1), None
# Relax obj value: 0.007
# Max RMSD: 0.109
# Mean RMSD: 0.092
data_MOF--net-eea--node1-KUMBUR_clean_sbu_0--node2-KAKCAD_clean_linker_0--edge1-none
_symmetry_space_group_name_H-M    P1
_symmetry_Int_Tables_number       1
_symmetry_cell_setting            triclinic
loop_
_symmetry_equiv_pos_as_xyz
'x, y, z'
_cell_length_a     33.329778
_cell_length_b     34.570043
_cell_length_c     53.7699
_cell_angle_alpha  89.961689
_cell_angle_beta   89.747041
_cell_angle_gamma 120.07257
loop_
_atom_site_label
_atom_site_type_symbol
_atom_site_fract_x
_atom_site_fract_y
_atom_site_fract_z
_atom_type_partial_charge
C0 C 0.32228 0.17569 0.51791 0.0
C1 C 0.35741 0.1649 0.52116 0.0
C2 C 0.29739 0.16542 0.49567 0.0
C3 C 0.30699 0.14399 0.47626 0.0
C4 C 0.34252 0.13378 0.47942 0.0
C5 C 0.36738 0.14406 0.5016 0.0
C6 C 0.27962 0.13144 0.45292 0.0
C7 C 0.26825 0.16108 0.4413 0.0
C8 C 0.24307 0.14938 0.41894 0.0
C9 C 0.22976 0.10766 0.40818 0.0
C10 C 0.24101 0.07771 0.41944 0.0
C11 C 0.26533 0.08968 0.442 0.0
C12 C 0.22835 0.03438 0.4074 0.0
C13 C 0.1862 0.00993 0.39457 0.0
C14 C 0.25881 0.01737 0.40843 0.0
C15 C 0.24711 0.97664 0.39737 0.0
C16 C 0.20508 0.95234 0.38461 0.0
C17 C 0.23083 0.18065 0.40667 0.0
C18 C 0.21811 0.20688 0.42097 0.0
C19 C 0.23128 0.18423 0.38055 0.0
C20 C 0.21897 0.21302 0.36907 0.0
C21 C 0.2067 0.23929 0.38343 0.0
C22 C 0.20655 0.23615 0.40946 0.0
C23 C 0.17488 0.9695 0.3831 0.0
H24 H 0.31409 0.19219 0.53253 0.0
H25 H 0.27005 0.17349 0.49386 0.0
H26 H 0.35118 0.11779 0.46471 0.0
H27 H 0.39388 0.13489 0.50356 0.0
H28 H 0.28018 0.19377 0.44933 0.0
H29 H 0.2727 0.06616 0.45132 0.0
H30 H 0.21076 0.09854 0.39088 0.0
H31 H 0.16156 0.0216 0.39369 0.0
H32 H 0.29204 0.03572 0.41759 0.0
H33 H 0.27128 0.96444 0.39862 0.0
H34 H 0.21653 0.20448 0.44107 0.0
H35 H 0.24192 0.16538 0.36892 0.0
H36 H 0.14204 0.95124 0.37352 0.0
H37 H 0.19691 0.25597 0.42095 0.0
H38 H 0.2206 0.21576 0.34905 0.0
C39 C 0.86087 0.20075 0.50181 0.0
C40 C 0.84368 0.16926 0.52132 0.0
C41 C 0.87549 0.19122 0.47935 0.0
C42 C 0.87299 0.1498 0.4757 0.0
C43 C 0.85663 0.11861 0.49538 0.0
C44 C 0.84239 0.12832 0.51796 0.0
C45 C 0.88603 0.13868 0.45122 0.0
C46 C 0.92574 0.1704 0.43825 0.0
C47 C 0.93765 0.16037 0.41494 0.0
C48 C 0.90942 0.11782 0.40462 0.0
C49 C 0.86865 0.08581 0.41693 0.0
C50 C 0.85762 0.09671 0.44029 0.0
C51 C 0.83632 0.04189 0.40506 0.0
C52 C 0.82924 0.03866 0.37914 0.0
C53 C 0.81063 0.00309 0.41963 0.0
C54 C 0.77824 0.96267 0.4087 0.0
C55 C 0.77146 0.95974 0.38289 0.0
C56 C 0.9786 0.19541 0.40111 0.0
C57 C 0.98364 0.23791 0.39793 0.0
C58 C 0.01381 0.18776 0.39217 0.0
C59 C 0.05459 0.22291 0.38169 0.0
C60 C 0.06012 0.26585 0.37946 0.0
C61 C 0.02378 0.27259 0.38719 0.0
C62 C 0.79739 0.99799 0.36821 0.0
H63 H 0.86277 0.23279 0.50386 0.0
H64 H 0.88759 0.2159 0.46458 0.0
H65 H 0.85468 0.08654 0.49328 0.0
H66 H 0.82912 0.10324 0.53254 0.0
H67 H 0.94783 0.20297 0.44642 0.0
H68 H 0.82572 0.07319 0.44965 0.0
H69 H 0.91884 0.11017 0.38674 0.0
H70 H 0.84732 0.06779 0.36728 0.0
H71 H 0.81556 0.00377 0.43955 0.0
H72 H 0.75892 0.93347 0.42041 0.0
H73 H 0.95684 0.24461 0.40432 0.0
H74 H 0.01077 0.15525 0.39439 0.0
H75 H 0.79193 0.99692 0.34839 0.0
H76 H 0.02723 0.30541 0.3858 0.0
H77 H 0.08239 0.21696 0.37636 0.0
C78 C 0.88221 0.71079 0.5153 0.0
C79 C 0.8363 0.67625 0.51955 0.0
C80 C 0.89527 0.73378 0.49235 0.0
C81 C 0.86261 0.72323 0.47319 0.0
C82 C 0.81658 0.68935 0.47779 0.0
C83 C 0.8037 0.66633 0.50051 0.0
C84 C 0.87585 0.74671 0.44838 0.0
C85 C 0.91707 0.75569 0.43603 0.0
C86 C 0.928 0.77496 0.41195 0.0
C87 C 0.89709 0.78614 0.40032 0.0
C88 C 0.85517 0.77667 0.41221 0.0
C89 C 0.84548 0.75757 0.43619 0.0
C90 C 0.81863 0.78236 0.39941 0.0
C91 C 0.82592 0.82464 0.39227 0.0
C92 C 0.77395 0.7451 0.39679 0.0
C93 C 0.73724 0.74987 0.38791 0.0
C94 C 0.74392 0.79203 0.38129 0.0
C95 C 0.96975 0.77927 0.3986 0.0
C96 C 1.00579 0.82064 0.38966 0.0
C97 C 0.9752 0.74166 0.39644 0.0
C98 C 0.01608 0.7454 0.38677 0.0
C99 C 0.05322 0.78691 0.37905 0.0
C100 C 0.0474 0.82456 0.38029 0.0
C101 C 0.78875 0.82951 0.38357 0.0
H102 H 0.90832 0.71919 0.52944 0.0
H103 H 0.93095 0.75988 0.48963 0.0
H104 H 0.79042 0.67972 0.46355 0.0
H105 H 0.76795 0.64026 0.50309 0.0
H106 H 0.94018 0.74635 0.44485 0.0
H107 H 0.81352 0.75076 0.44534 0.0
H108 H 0.90433 0.79975 0.38161 0.0
H109 H 0.85979 0.85405 0.39439 0.0
H110 H 0.76712 0.71216 0.40223 0.0
H111 H 0.70312 0.72044 0.38664 0.0
H112 H 1.00275 0.85031 0.39112 0.0
H113 H 0.94809 0.70927 0.40292 0.0
H114 H 0.79482 0.86262 0.37925 0.0
H115 H 0.07554 0.85724 0.37507 0.0
H116 H 0.0194 0.71578 0.38625 0.0
C117 C 0.17622 0.28557 0.52821 0.0
C118 C 0.17004 0.32251 0.52428 0.0
C119 C 0.16385 0.26243 0.55109 0.0
C120 C 0.14423 0.27511 0.5705 0.0
C121 C 0.13658 0.31106 0.56615 0.0
C122 C 0.1495 0.33448 0.54349 0.0
C123 C 0.13339 0.25235 0.5955 0.0
C124 C 0.16536 0.243 0.60716 0.0
C125 C 0.15714 0.2241 0.63124 0.0
C126 C 0.11516 0.21318 0.64359 0.0
C127 C 0.08286 0.22299 0.63248 0.0
C128 C 0.09246 0.24242 0.60849 0.0
C129 C 0.04083 0.21709 0.64621 0.0
C130 C 1.00485 0.17484 0.65413 0.0
C131 C 0.03479 0.25418 0.64939 0.0
C132 C 0.99348 0.24921 0.65917 0.0
C133 C 0.9565 0.20695 0.66598 0.0
C134 C 0.19478 0.21965 0.64373 0.0
C135 C 0.1879 0.17817 0.6522 0.0
C136 C 0.23953 0.25717 0.64537 0.0
C137 C 0.27666 0.25329 0.65449 0.0
C138 C 0.27043 0.21178 0.66225 0.0
C139 C 0.22551 0.17413 0.661 0.0
C140 C 0.9628 0.16971 0.66366 0.0
H141 H 0.19216 0.27556 0.51392 0.0
H142 H 0.16994 0.23471 0.55364 0.0
H143 H 0.12195 0.32214 0.5806 0.0
H144 H 0.14396 0.36258 0.54112 0.0
H145 H 0.19768 0.25181 0.59776 0.0
H146 H 0.06778 0.24995 0.59992 0.0
H147 H 0.10889 0.19953 0.66228 0.0
H148 H 0.00834 0.14556 0.65179 0.0
H149 H 0.06177 0.28714 0.6436 0.0
H150 H 0.98977 0.27854 0.66056 0.0
H151 H 0.15394 0.14856 0.65098 0.0
H152 H 0.24603 0.28959 0.63907 0.0
H153 H 0.93475 0.13657 0.66826 0.0
H154 H 0.21962 0.14142 0.6661 0.0
H155 H 0.31081 0.28283 0.65492 0.0
C156 C 0.64899 0.80119 0.54106 0.0
C157 C 0.66221 0.83294 0.52184 0.0
C158 C 0.67502 0.81148 0.56289 0.0
C159 C 0.71435 0.85392 0.56604 0.0
C160 C 0.72774 0.88551 0.54675 0.0
C161 C 0.70209 0.87505 0.52483 0.0
C162 C 0.74024 0.86603 0.5898 0.0
C163 C 0.75322 0.83728 0.60105 0.0
C164 C 0.77686 0.84847 0.62392 0.0
C165 C 0.78756 0.88907 0.63528 0.0
C166 C 0.77478 0.91813 0.6243 0.0
C167 C 0.75112 0.90629 0.60156 0.0
C168 C 0.78545 0.96048 0.63679 0.0
C169 C 0.78194 0.96217 0.66282 0.0
C170 C 0.79902 -0.00047 0.62279 0.0
C171 C 0.80862 0.0392 0.63453 0.0
C172 C 0.80562 0.04078 0.66049 0.0
C173 C 0.7892 0.81738 0.63637 0.0
C174 C 0.75885 0.77101 0.63528 0.0
C175 C 0.83067 0.83365 0.64994 0.0
C176 C 0.8414 0.8042 0.66208 0.0
C177 C 0.81128 0.75789 0.66052 0.0
C178 C 0.76993 0.74167 0.64704 0.0
C179 C 0.79225 0.00207 0.67454 0.0
H180 H 0.61864 0.76834 0.53915 0.0
H181 H 0.66376 0.78664 0.57756 0.0
H182 H 0.75806 0.91839 0.54865 0.0
H183 H 0.71295 0.90024 0.51038 0.0
H184 H 0.74547 0.80654 0.59173 0.0
H185 H 0.73978 0.92779 0.5933 0.0
H186 H 0.80553 0.89793 0.6529 0.0
H187 H 0.77048 0.93252 0.67414 0.0
H188 H 0.8028 -0.00035 0.60277 0.0
H189 H 0.81925 0.06888 0.62333 0.0
H190 H 0.72614 0.75721 0.62558 0.0
H191 H 0.85526 0.86913 0.65091 0.0
H192 H 0.78846 0.00222 0.69447 0.0
H193 H 0.74577 0.70616 0.64562 0.0
H194 H 0.87374 0.81763 0.67214 0.0
C195 C 0.12979 0.82245 0.52832 0.0
C196 C 0.17642 0.83443 0.52447 0.0
C197 C 0.11538 0.83161 0.55106 0.0
C198 C 0.14745 0.85355 0.57026 0.0
C199 C 0.19409 0.86594 0.5662 0.0
C200 C 0.20833 0.85645 0.54368 0.0
C201 C 0.13299 0.86379 0.59455 0.0
C202 C 0.09336 0.83141 0.60727 0.0
C203 C 0.08153 0.8404 0.63094 0.0
C204 C 0.10982 0.88255 0.64182 0.0
C205 C 0.15008 0.91526 0.62947 0.0
C206 C 0.16059 0.90563 0.60569 0.0
C207 C 0.18259 0.95892 0.64142 0.0
C208 C 0.16621 0.98251 0.65551 0.0
C209 C 0.23082 0.97791 0.63823 0.0
C210 C 0.26171 0.01977 0.64813 0.0
C211 C 0.24539 0.04368 0.66183 0.0
C212 C 0.04078 0.80458 0.64454 0.0
C213 C 1.00514 0.81145 0.65359 0.0
C214 C 0.03606 0.76209 0.64714 0.0
C215 C 0.99578 0.72669 0.6574 0.0
C216 C 0.95901 0.7327 0.66521 0.0
C217 C 0.96427 0.77563 0.66353 0.0
C218 C 0.19727 0.02442 0.6656 0.0
H219 H 0.10432 0.80522 0.51393 0.0
H220 H 0.07926 0.82188 0.55355 0.0
H221 H 0.21963 0.88248 0.58064 0.0
H222 H 0.24456 0.86651 0.54127 0.0
H223 H 0.07212 0.79879 0.59898 0.0
H224 H 0.19059 0.93098 0.59567 0.0
H225 H 0.10154 0.88902 0.66031 0.0
H226 H 0.12936 0.96913 0.65823 0.0
H227 H 0.24493 0.96035 0.62806 0.0
H228 H 0.29849 0.03326 0.64506 0.0
H229 H 0.00787 0.84389 0.65177 0.0
H230 H 0.06316 0.75594 0.6406 0.0
H231 H 0.18346 0.04209 0.67592 0.0
H232 H 0.9362 0.78115 0.6688 0.0
H233 H 0.99255 0.69392 0.65829 0.0
C234 C 0.98896 0.50903 0.85124 0.0
C235 C 0.02409 0.49825 0.85449 0.0
C236 C 0.96406 0.49876 0.829 0.0
C237 C 0.97366 0.47733 0.80959 0.0
C238 C 0.00919 0.46712 0.81275 0.0
C239 C 0.03406 0.47741 0.83493 0.0
C240 C 0.94629 0.46478 0.78625 0.0
C241 C 0.93492 0.49442 0.77463 0.0
C242 C 0.90974 0.48272 0.75227 0.0
C243 C 0.89643 0.44099 0.74151 0.0
C244 C 0.90769 0.41105 0.75277 0.0
C245 C 0.932 0.42302 0.77533 0.0
C246 C 0.89502 0.36772 0.74073 0.0
C247 C 0.85288 0.34327 0.7279 0.0
C248 C 0.92548 0.35071 0.74176 0.0
C249 C 0.91378 0.30998 0.7307 0.0
C250 C 0.87175 0.28568 0.71794 0.0
C251 C 0.8975 0.51399 0.74001 0.0
C252 C 0.88477 0.54022 0.7543 0.0
C253 C 0.89795 0.51756 0.71389 0.0
C254 C 0.88563 0.54636 0.7024 0.0
C255 C 0.87336 0.57263 0.71677 0.0
C256 C 0.87322 0.56949 0.7428 0.0
C257 C 0.84155 0.30283 0.71643 0.0
H258 H 0.98076 0.52554 0.86586 0.0
H259 H 0.93672 0.50682 0.82719 0.0
H260 H 0.01786 0.45113 0.79804 0.0
H261 H 0.06056 0.46824 0.83689 0.0
H262 H 0.94685 0.52711 0.78267 0.0
H263 H 0.93938 0.3995 0.78465 0.0
H264 H 0.87743 0.43188 0.72421 0.0
H265 H 0.82823 0.35493 0.72702 0.0
H266 H 0.95871 0.36905 0.75092 0.0
H267 H 0.93795 0.29778 0.73195 0.0
H268 H 0.8832 0.53782 0.7744 0.0
H269 H 0.90859 0.49872 0.70225 0.0
H270 H 0.80871 0.28458 0.70685 0.0
H271 H 0.86357 0.5893 0.75429 0.0
H272 H 0.88726 0.5491 0.68238 0.0
C273 C 0.52753 0.53408 0.83515 0.0
C274 C 0.51034 0.50259 0.85466 0.0
C275 C 0.54215 0.52455 0.81268 0.0
C276 C 0.53965 0.48313 0.80904 0.0
C277 C 0.52329 0.45194 0.82871 0.0
C278 C 0.50906 0.46165 0.8513 0.0
C279 C 0.55269 0.47201 0.78455 0.0
C280 C 0.5924 0.50373 0.77158 0.0
C281 C 0.60431 0.4937 0.74827 0.0
C282 C 0.57609 0.45115 0.73795 0.0
C283 C 0.53532 0.41914 0.75027 0.0
C284 C 0.52428 0.43004 0.77363 0.0
C285 C 0.50298 0.37522 0.73839 0.0
C286 C 0.4959 0.37199 0.71248 0.0
C287 C 0.47729 0.33642 0.75297 0.0
C288 C 0.4449 0.296 0.74204 0.0
C289 C 0.43813 0.29307 0.71623 0.0
C290 C 0.64526 0.52874 0.73445 0.0
C291 C 0.6503 0.57124 0.73127 0.0
C292 C 0.68047 0.52109 0.72551 0.0
C293 C 0.72125 0.55624 0.71503 0.0
C294 C 0.72678 0.59919 0.7128 0.0
C295 C 0.69044 0.60593 0.72053 0.0
C296 C 0.46405 0.33132 0.70155 0.0
H297 H 0.52943 0.56612 0.8372 0.0
H298 H 0.55425 0.54923 0.79791 0.0
H299 H 0.52134 0.41988 0.82661 0.0
H300 H 0.49578 0.43657 0.86587 0.0
H301 H 0.61449 0.5363 0.77975 0.0
H302 H 0.49238 0.40652 0.78298 0.0
H303 H 0.5855 0.4435 0.72007 0.0
H304 H 0.51398 0.40112 0.70061 0.0
H305 H 0.48222 0.3371 0.77288 0.0
H306 H 0.42558 0.2668 0.75375 0.0
H307 H 0.6235 0.57794 0.73765 0.0
H308 H 0.67743 0.48858 0.72773 0.0
H309 H 0.45859 0.33025 0.68172 0.0
H310 H 0.69389 0.63874 0.71914 0.0
H311 H 0.74905 0.55029 0.70969 0.0
C312 C 0.54889 0.04415 0.84864 0.0
C313 C 0.50298 0.0096 0.85288 0.0
C314 C 0.56195 0.06713 0.82569 0.0
C315 C 0.52929 0.05658 0.80653 0.0
C316 C 0.48326 0.0227 0.81113 0.0
C317 C 0.47038 -0.00032 0.83385 0.0
C318 C 0.54253 0.08006 0.78171 0.0
C319 C 0.58375 0.08904 0.76937 0.0
C320 C 0.59467 0.1083 0.74528 0.0
C321 C 0.56376 0.11948 0.73365 0.0
C322 C 0.52184 0.11001 0.74555 0.0
C323 C 0.51215 0.09092 0.76953 0.0
C324 C 0.4853 0.1157 0.73274 0.0
C325 C 0.49258 0.15797 0.7256 0.0
C326 C 0.44061 0.07844 0.73012 0.0
C327 C 0.4039 0.0832 0.72124 0.0
C328 C 0.41059 0.12536 0.71462 0.0
C329 C 0.63642 0.11262 0.73193 0.0
C330 C 0.67246 0.15398 0.723 0.0
C331 C 0.64187 0.075 0.72977 0.0
C332 C 0.68275 0.07874 0.7201 0.0
C333 C 0.71989 0.12025 0.71239 0.0
C334 C 0.71407 0.1579 0.71362 0.0
C335 C 0.45542 0.16285 0.7169 0.0
H336 H 0.575 0.05254 0.86278 0.0
H337 H 0.59763 0.09323 0.82296 0.0
H338 H 0.4571 0.01307 0.79689 0.0
H339 H 0.43463 0.97361 0.83643 0.0
H340 H 0.60686 0.0797 0.77819 0.0
H341 H 0.48019 0.0841 0.77867 0.0
H342 H 0.571 0.13309 0.71495 0.0
H343 H 0.52646 0.18739 0.72772 0.0
H344 H 0.43379 0.04549 0.73557 0.0
H345 H 0.36978 0.05377 0.71998 0.0
H346 H 0.66942 0.18365 0.72445 0.0
H347 H 0.61476 0.04261 0.73625 0.0
H348 H 0.46148 0.19595 0.71258 0.0
H349 H 0.74221 0.19058 0.7084 0.0
H350 H 0.68606 0.04912 0.71958 0.0
C351 C 0.84288 0.61892 0.86154 0.0
C352 C 0.8367 0.65585 0.85761 0.0
C353 C 0.83052 0.59578 0.88442 0.0
C354 C 0.8109 0.60846 0.90383 0.0
C355 C 0.80325 0.6444 0.89948 0.0
C356 C 0.81617 0.66783 0.87682 0.0
C357 C 0.80006 0.5857 0.92884 0.0
C358 C 0.83203 0.57636 0.94049 0.0
C359 C 0.82382 0.55745 0.96457 0.0
C360 C 0.78183 0.54654 0.97693 0.0
C361 C 0.74953 0.55634 0.96581 0.0
C362 C 0.75914 0.57577 0.94183 0.0
C363 C 0.7075 0.55044 0.97954 0.0
C364 C 0.67153 0.50819 0.98746 0.0
C365 C 0.70146 0.58753 0.98272 0.0
C366 C 0.66014 0.58255 0.9925 0.0
C367 C 0.62317 0.5403 0.99931 0.0
C368 C 0.86146 0.55301 0.97706 0.0
C369 C 0.85458 0.51153 0.98553 0.0
C370 C 0.9062 0.59052 0.97871 0.0
C371 C 0.94334 0.58665 0.98783 0.0
C372 C 0.93711 0.54514 0.99558 0.0
C373 C 0.89219 0.50749 0.99433 0.0
C374 C 0.62947 0.50306 0.99699 0.0
H375 H 0.85882 0.60891 0.84725 0.0
H376 H 0.83661 0.56806 0.88698 0.0
H377 H 0.78862 0.65549 0.91394 0.0
H378 H 0.81063 0.69593 0.87445 0.0
H379 H 0.86435 0.58516 0.93109 0.0
H380 H 0.73445 0.5833 0.93325 0.0
H381 H 0.77557 0.53288 0.99562 0.0
H382 H 0.67502 0.47891 0.98512 0.0
H383 H 0.72844 0.62049 0.97693 0.0
H384 H 0.65644 0.61188 0.9939 0.0
H385 H 0.82063 0.48192 0.98431 0.0
H386 H 0.9127 0.62295 0.97241 0.0
H387 H 0.60142 0.46991 1.0016 0.0
H388 H 0.8863 0.47478 0.99943 0.0
H389 H 0.97749 0.61619 0.98825 0.0
C390 C 0.31568 0.13453 0.87439 0.0
C391 C 0.32889 0.16628 0.85518 0.0
C392 C 0.34171 0.14482 0.89623 0.0
C393 C 0.38104 0.18726 0.89938 0.0
C394 C 0.39442 0.21885 0.88008 0.0
C395 C 0.36877 0.20839 0.85816 0.0
C396 C 0.40693 0.19937 0.92313 0.0
C397 C 0.41991 0.17063 0.93438 0.0
C398 C 0.44355 0.18182 0.95725 0.0
C399 C 0.45426 0.22242 0.96861 0.0
C400 C 0.44147 0.25148 0.95763 0.0
C401 C 0.41781 0.23964 0.93489 0.0
C402 C 0.45213 0.29383 0.97012 0.0
C403 C 0.44862 0.29552 0.99615 0.0
C404 C 0.4657 0.33288 0.95612 0.0
C405 C 0.4753 0.37254 0.96786 0.0
C406 C 0.4723 0.37412 0.99383 0.0
C407 C 0.45589 0.15073 0.9697 0.0
C408 C 0.42555 0.10436 0.96862 0.0
C409 C 0.49736 0.16701 0.98327 0.0
C410 C 0.5081 0.13755 0.99541 0.0
C411 C 0.47798 0.09124 0.99386 0.0
C412 C 0.43662 0.07502 0.98038 0.0
C413 C 0.45894 0.33541 1.00787 0.0
H414 H 0.28533 0.10168 0.87248 0.0
H415 H 0.33045 0.11998 0.91089 0.0
H416 H 0.42475 0.25173 0.88198 0.0
H417 H 0.37963 0.23358 0.84371 0.0
H418 H 0.41217 0.13988 0.92506 0.0
H419 H 0.40646 0.26113 0.92663 0.0
H420 H 0.47222 0.23128 0.98624 0.0
H421 H 0.43717 0.26586 1.00748 0.0
H422 H 0.46948 0.333 0.9361 0.0
H423 H 0.48593 0.40222 0.95666 0.0
H424 H 0.39284 0.09056 0.95892 0.0
H425 H 0.52195 0.20249 0.98424 0.0
H426 H 0.45514 0.33556 0.0278 0.0
H427 H 0.41246 0.03951 0.97896 0.0
H428 H 0.54044 0.15099 1.00548 0.0
C429 C 0.79648 0.1558 0.86165 0.0
C430 C 0.8431 0.16779 0.8578 0.0
C431 C 0.78207 0.16497 0.8844 0.0
C432 C 0.81414 0.18691 0.9036 0.0
C433 C 0.86078 0.1993 0.89953 0.0
C434 C 0.87501 0.18981 0.87701 0.0
C435 C 0.79968 0.19714 0.92788 0.0
C436 C 0.76005 0.16477 0.94061 0.0
C437 C 0.74823 0.17376 0.96427 0.0
C438 C 0.77652 0.21591 0.97516 0.0
C439 C 0.81678 0.24862 0.9628 0.0
C440 C 0.82728 0.23899 0.93902 0.0
C441 C 0.84929 0.29229 0.97475 0.0
C442 C 0.8329 0.31587 0.98884 0.0
C443 C 0.89752 0.31127 0.97156 0.0
C444 C 0.92841 0.35313 0.98146 0.0
C445 C 0.91209 0.37705 0.99516 0.0
C446 C 0.70748 0.13795 0.97788 0.0
C447 C 0.67184 0.14481 0.98692 0.0
C448 C 0.70276 0.09545 0.98047 0.0
C449 C 0.66248 0.06005 0.99074 0.0
C450 C 0.62571 0.06606 0.99855 0.0
C451 C 0.63097 0.10899 0.99686 0.0
C452 C 0.86396 0.35779 0.99893 0.0
H453 H 0.77101 0.13857 0.84727 0.0
H454 H 0.74595 0.15524 0.88689 0.0
H455 H 0.88633 0.21584 0.91397 0.0
H456 H 0.91124 0.19987 0.8746 0.0
H457 H 0.73882 0.13215 0.93232 0.0
H458 H 0.85728 0.26434 0.929 0.0
H459 H 0.76824 0.22238 0.99365 0.0
H460 H 0.79605 0.30249 0.99156 0.0
H461 H 0.91162 0.29371 0.96139 0.0
H462 H 0.96518 0.36663 0.97839 0.0
H463 H 0.67457 0.17725 0.98511 0.0
H464 H 0.72986 0.08931 0.97394 0.0
H465 H 0.85016 0.37546 1.00925 0.0
H466 H 0.60289 0.11451 1.00214 0.0
H467 H 0.65926 0.02729 0.99162 0.0
C468 C 0.65563 0.84236 0.18457 0.0
C469 C 0.69076 0.83157 0.18783 0.0
C470 C 0.63074 0.83209 0.16234 0.0
C471 C 0.64034 0.81067 0.14293 0.0
C472 C 0.67587 0.80044 0.14609 0.0
C473 C 0.70073 0.81073 0.16826 0.0
C474 C 0.61296 0.79811 0.11959 0.0
C475 C 0.6016 0.82776 0.10797 0.0
C476 C 0.57642 0.81606 0.08561 0.0
C477 C 0.56311 0.77434 0.07485 0.0
C478 C 0.57436 0.74439 0.0861 0.0
C479 C 0.59867 0.75636 0.10866 0.0
C480 C 0.5617 0.70106 0.07407 0.0
C481 C 0.51955 0.67661 0.06124 0.0
C482 C 0.59215 0.68405 0.07509 0.0
C483 C 0.58045 0.64332 0.06403 0.0
C484 C 0.53842 0.61902 0.05127 0.0
C485 C 0.56419 0.84734 0.07334 0.0
C486 C 0.55147 0.87357 0.08764 0.0
C487 C 0.56464 0.85092 0.04722 0.0
C488 C 0.55233 0.87971 0.03574 0.0
C489 C 0.54006 0.90598 0.0501 0.0
C490 C 0.53991 0.90284 0.07613 0.0
C491 C 0.50822 0.63618 0.04976 0.0
H492 H 0.64744 0.85887 0.19919 0.0
H493 H 0.6034 0.84016 0.16053 0.0
H494 H 0.68453 0.78446 0.13138 0.0
H495 H 0.72722 0.80155 0.17023 0.0
H496 H 0.61354 0.86045 0.116 0.0
H497 H 0.60605 0.73284 0.11799 0.0
H498 H 0.54411 0.76523 0.05754 0.0
H499 H 0.49491 0.68828 0.06035 0.0
H500 H 0.62538 0.70239 0.08425 0.0
H501 H 0.60462 0.63111 0.06529 0.0
H502 H 0.54989 0.87117 0.10774 0.0
H503 H 0.57528 0.83207 0.03559 0.0
H504 H 0.47539 0.61792 0.04019 0.0
H505 H 0.53027 0.92266 0.08762 0.0
H506 H 0.55396 0.88246 1.01572 0.0
C507 C 0.19422 0.86743 0.16848 0.0
C508 C 0.17703 0.83594 0.18799 0.0
C509 C 0.20885 0.85791 0.14602 0.0
C510 C 0.20635 0.81649 0.14237 0.0
C511 C 0.18999 0.78529 0.16205 0.0
C512 C 0.17574 0.795 0.18463 0.0
C513 C 0.21938 0.80537 0.11789 0.0
C514 C 0.25909 0.83709 0.10492 0.0
C515 C 0.271 0.82706 0.08161 0.0
C516 C 0.24278 0.78451 0.07129 0.0
C517 C 0.20201 0.7525 0.0836 0.0
C518 C 0.19097 0.7634 0.10696 0.0
C519 C 0.16967 0.70858 0.07173 0.0
C520 C 0.1626 0.70535 0.04581 0.0
C521 C 0.14398 0.66978 0.0863 0.0
C522 C 0.11159 0.62937 0.07537 0.0
C523 C 0.10482 0.62644 0.04956 0.0
C524 C 0.31196 0.8621 0.06778 0.0
C525 C 0.317 0.9046 0.0646 0.0
C526 C 0.34717 0.85445 0.05884 0.0
C527 C 0.38795 0.8896 0.04837 0.0
C528 C 0.39348 0.93254 0.04613 0.0
C529 C 0.35714 0.93928 0.05386 0.0
C530 C 0.13074 0.66468 0.03488 0.0
H531 H 0.19612 0.89948 0.17053 0.0
H532 H 0.22095 0.88259 0.13125 0.0
H533 H 0.18803 0.75323 0.15994 0.0
H534 H 0.16247 0.76992 0.19921 0.0
H535 H 0.28118 0.86966 0.11309 0.0
H536 H 0.15908 0.73988 0.11632 0.0
H537 H 0.2522 0.77686 0.05341 0.0
H538 H 0.18068 0.73449 0.03395 0.0
H539 H 0.14891 0.67046 0.10621 0.0
H540 H 0.09227 0.60016 0.08708 0.0
H541 H 0.2902 0.9113 0.07099 0.0
H542 H 0.34413 0.82194 0.06107 0.0
H543 H 0.12528 0.66361 1.01505 0.0
H544 H 0.36059 0.9721 0.05247 0.0
H545 H 0.41575 0.88365 0.04303 0.0
C546 C 0.21555 0.37748 0.18197 0.0
C547 C 0.16964 0.34293 0.18621 0.0
C548 C 0.22861 0.40046 0.15902 0.0
C549 C 0.19595 0.38992 0.13986 0.0
C550 C 0.14992 0.35604 0.14446 0.0
C551 C 0.13704 0.33302 0.16718 0.0
C552 C 0.20919 0.4134 0.11505 0.0
C553 C 0.25041 0.42238 0.1027 0.0
C554 C 0.26134 0.44165 0.07862 0.0
C555 C 0.23044 0.45283 0.06699 0.0
C556 C 0.18852 0.44336 0.07888 0.0
C557 C 0.17882 0.42426 0.10286 0.0
C558 C 0.15198 0.44905 0.06608 0.0
C559 C 0.15927 0.49133 0.05893 0.0
C560 C 0.10729 0.41179 0.06345 0.0
C561 C 0.07059 0.41656 0.05457 0.0
C562 C 0.07727 0.45873 0.04795 0.0
C563 C 0.30309 0.44596 0.06526 0.0
C564 C 0.33913 0.48732 0.05633 0.0
C565 C 0.30854 0.40834 0.06311 0.0
C566 C 0.34942 0.41207 0.05344 0.0
C567 C 0.38656 0.45359 0.04572 0.0
C568 C 0.38074 0.49123 0.04696 0.0
C569 C 0.1221 0.49621 0.05023 0.0
H570 H 0.24166 0.38587 0.19611 0.0
H571 H 0.26429 0.42656 0.15629 0.0
H572 H 0.12376 0.34641 0.13022 0.0
H573 H 0.10129 0.30695 0.16976 0.0
H574 H 0.27352 0.41304 0.11152 0.0
H575 H 0.14687 0.41745 0.112 0.0
H576 H 0.23768 0.46644 0.04828 0.0
H577 H 0.19314 0.52074 0.06106 0.0
H578 H 0.10047 0.37885 0.0689 0.0
H579 H 0.03647 0.38714 0.0533 0.0
H580 H 0.33609 0.51699 0.05779 0.0
H581 H 0.28144 0.37595 0.06959 0.0
H582 H 0.12817 0.52932 0.04591 0.0
H583 H 0.40888 0.52391 0.04174 0.0
H584 H 0.35274 0.38246 0.05292 0.0
C585 C 0.50956 0.95225 0.19487 0.0
C586 C 0.50338 0.98919 0.19095 0.0
C587 C 0.49719 0.92911 0.21775 0.0
C588 C 0.47757 0.94179 0.23717 0.0
C589 C 0.46992 0.97774 0.23282 0.0
C590 C 0.48284 0.00117 0.21016 0.0
C591 C 0.46673 0.91903 0.26217 0.0
C592 C 0.49869 0.90968 0.27382 0.0
C593 C 0.49048 0.89077 0.2979 0.0
C594 C 0.4485 0.87986 0.31026 0.0
C595 C 0.4162 0.88966 0.29915 0.0
C596 C 0.4258 0.9091 0.27516 0.0
C597 C 0.37417 0.88376 0.31287 0.0
C598 C 0.33819 0.84152 0.3208 0.0
C599 C 0.36813 0.92085 0.31606 0.0
C600 C 0.32681 0.91588 0.32583 0.0
C601 C 0.28984 0.87362 0.33265 0.0
C602 C 0.52812 0.88632 0.3104 0.0
C603 C 0.52124 0.84484 0.31886 0.0
C604 C 0.57287 0.92384 0.31204 0.0
C605 C 0.61 0.91996 0.32116 0.0
C606 C 0.60377 0.87845 0.32891 0.0
C607 C 0.55885 0.8408 0.32766 0.0
C608 C 0.29614 0.83638 0.33033 0.0
H609 H 0.5255 0.94224 0.18059 0.0
H610 H 0.50328 0.90139 0.22031 0.0
H611 H 0.45529 0.98882 0.24727 0.0
H612 H 0.47731 0.02926 0.20779 0.0
H613 H 0.53102 0.91848 0.26442 0.0
H614 H 0.40112 0.91663 0.26659 0.0
H615 H 0.44223 0.8662 0.32895 0.0
H616 H 0.34168 0.81223 0.31846 0.0
H617 H 0.39511 0.95381 0.31027 0.0
H618 H 0.32311 0.94521 0.32723 0.0
H619 H 0.48728 0.81523 0.31764 0.0
H620 H 0.57937 0.95627 0.30574 0.0
H621 H 0.26809 0.80324 0.33493 0.0
H622 H 0.55296 0.80808 0.33277 0.0
H623 H 0.64415 0.9495 0.32158 0.0
C624 C 0.98235 0.46787 0.20772 0.0
C625 C 0.99556 0.49962 0.18851 0.0
C626 C 0.00837 0.47816 0.22956 0.0
C627 C 0.04771 0.52059 0.23271 0.0
C628 C 0.06109 0.55218 0.21341 0.0
C629 C 0.03544 0.54173 0.19149 0.0
C630 C 0.07359 0.5327 0.25647 0.0
C631 C 0.08657 0.50395 0.26771 0.0
C632 C 0.11021 0.51514 0.29058 0.0
C633 C 0.12091 0.55574 0.30194 0.0
C634 C 0.10813 0.5848 0.29096 0.0
C635 C 0.08447 0.57297 0.26822 0.0
C636 C 0.11879 0.62715 0.30346 0.0
C637 C 0.11528 0.62884 0.32948 0.0
C638 C 0.13237 0.6662 0.28945 0.0
C639 C 0.14196 0.70587 0.30119 0.0
C640 C 0.13896 0.70745 0.32716 0.0
C641 C 0.12254 0.48405 0.30303 0.0
C642 C 0.0922 0.43768 0.30195 0.0
C643 C 0.16401 0.50032 0.3166 0.0
C644 C 0.17474 0.47086 0.32875 0.0
C645 C 0.14463 0.42456 0.32719 0.0
C646 C 0.10327 0.40834 0.31371 0.0
C647 C 0.1256 0.66873 0.34121 0.0
H648 H 0.952 0.43502 0.20581 0.0
H649 H 0.99711 0.45331 0.24422 0.0
H650 H 0.09142 0.58506 0.21531 0.0
H651 H 0.04631 0.56692 0.17704 0.0
H652 H 0.07882 0.47321 0.25839 0.0
H653 H 0.07313 0.59446 0.25996 0.0
H654 H 0.13888 0.5646 0.31957 0.0
H655 H 0.10383 0.59919 0.34081 0.0
H656 H 0.13615 0.66632 0.26943 0.0
H657 H 0.1526 0.73555 0.29 0.0
H658 H 0.05949 0.42389 0.29224 0.0
H659 H 0.1886 0.5358 0.31757 0.0
H660 H 0.12179 0.66888 0.36113 0.0
H661 H 0.07911 0.37283 0.31229 0.0
H662 H 0.20709 0.4843 0.33881 0.0
C663 C 0.46313 0.48912 0.19498 0.0
C664 C 0.50976 0.5011 0.19114 0.0
C665 C 0.44872 0.49828 0.21773 0.0
C666 C 0.48079 0.52022 0.23693 0.0
C667 C 0.52743 0.53261 0.23287 0.0
C668 C 0.54167 0.52312 0.21034 0.0
C669 C 0.46633 0.53045 0.26121 0.0
C670 C 0.4267 0.49808 0.27394 0.0
C671 C 0.41487 0.50706 0.2976 0.0
C672 C 0.44316 0.54922 0.30849 0.0
C673 C 0.48342 0.58193 0.29614 0.0
C674 C 0.49393 0.5723 0.27236 0.0
C675 C 0.51593 0.62559 0.30809 0.0
C676 C 0.49955 0.64918 0.32217 0.0
C677 C 0.56416 0.64458 0.3049 0.0
C678 C 0.59505 0.68644 0.31479 0.0
C679 C 0.57873 0.71035 0.3285 0.0
C680 C 0.37412 0.47125 0.31121 0.0
C681 C 0.33848 0.47812 0.32025 0.0
C682 C 0.3694 0.42875 0.3138 0.0
C683 C 0.32912 0.39335 0.32407 0.0
C684 C 0.29235 0.39937 0.33188 0.0
C685 C 0.29761 0.44229 0.33019 0.0
C686 C 0.53061 0.69109 0.33227 0.0
H687 H 0.43767 0.47189 0.1806 0.0
H688 H 0.4126 0.48855 0.22022 0.0
H689 H 0.55298 0.54915 0.24731 0.0
H690 H 0.5779 0.53319 0.20793 0.0
H691 H 0.40546 0.46545 0.26565 0.0
H692 H 0.52393 0.59765 0.26234 0.0
H693 H 0.43488 0.55569 0.32698 0.0
H694 H 0.4627 0.6358 0.32489 0.0
H695 H 0.57827 0.62702 0.29473 0.0
H696 H 0.63183 0.69993 0.31173 0.0
H697 H 0.34122 0.51056 0.31844 0.0
H698 H 0.3965 0.42261 0.30727 0.0
H699 H 0.5168 0.70876 0.34259 0.0
H700 H 0.26954 0.44782 0.33547 0.0
H701 H 0.32589 0.36059 0.32495 0.0
Tb702 Tb 0.49132 0.96838 0.99267 0.0
C703 C 0.58558 0.13366 0.05992 0.0
C704 C 0.66665 0.1553 0.05831 0.0
C705 C 0.64456 0.21179 0.06466 0.0
C706 C 0.61938 0.12229 0.05701 0.0
C707 C 0.59758 0.17837 0.06429 0.0
C708 C 0.67908 0.20027 0.06164 0.0
C709 C 0.51605 0.15303 0.06939 0.0
N710 N 0.54076 0.10037 0.05951 0.0
C711 C 0.50599 0.10915 0.06509 0.0
C712 C 0.56202 0.1879 0.06871 0.0
Tb713 Tb 0.52743 0.02991 0.05097 0.0
N714 N 0.60579 0.07851 0.05394 0.0
C715 C 0.63808 0.0651 0.05394 0.0
C716 C 0.69986 0.14197 0.05682 0.0
C717 C 0.68545 0.09658 0.05499 0.0
H718 H 0.47031 0.08254 0.06555 0.0
H719 H 0.71082 0.08578 0.05429 0.0
H720 H 0.71522 0.2262 0.06247 0.0
H721 H 0.48833 0.15991 0.07323 0.0
H722 H 0.62785 0.03027 0.05239 0.0
H723 H 0.30646 0.90689 0.99234 0.0
H724 H 0.73655 0.16626 0.05765 0.0
H725 H 0.54926 0.91998 0.97219 0.0
H726 H 0.3888 0.96416 0.99289 0.0
H727 H 0.53346 0.84402 0.96237 0.0
H728 H 0.65456 0.24643 0.06777 0.0
H729 H 0.28303 0.82695 0.9889 0.0
H730 H 0.3067 0.76897 0.98239 0.0
H731 H 0.56974 0.22183 0.07213 0.0
H732 H 0.36882 0.75173 0.97403 0.0
N733 N 0.41307 0.91768 0.99069 0.0
C734 C 0.37968 0.92968 0.9913 0.0
C735 C 0.3195 0.85207 0.98919 0.0
C736 C 0.35368 0.84017 0.98672 0.0
C737 C 0.33259 0.89713 0.99104 0.0
C738 C 0.40062 0.87425 0.98738 0.0
H739 H 0.45364 0.77971 0.96599 0.0
N740 N 0.47932 0.89907 0.98211 0.0
C741 C 0.50546 0.84925 0.96828 0.0
C742 C 0.43514 0.86454 0.98284 0.0
C743 C 0.51425 0.89235 0.97386 0.0
C744 C 0.4604 0.81302 0.97042 0.0
C745 C 0.42435 0.82052 0.97731 0.0
O746 O 0.52915 0.98579 0.95889 0.0
O747 O 0.54467 0.02474 1.01286 0.0
O748 O 0.52065 0.07303 0.02344 0.0
O749 O 0.46911 0.01828 0.9962 0.0
O750 O 0.56553 0.9921 0.98939 0.0
O751 O 0.46547 0.98635 0.96163 0.0
O752 O 0.48921 0.01598 0.08445 0.0
O753 O 0.47416 0.97284 0.03114 0.0
O754 O 0.50206 0.9255 1.0185 0.0
O755 O 0.54681 0.97778 0.04911 0.0
O756 O 0.45355 0.00699 0.05387 0.0
O757 O 0.55167 0.01268 0.08299 0.0
C758 C 0.58037 0.02572 1.00409 0.0
C759 C 0.48653 0.97278 0.92171 0.0
C760 C 0.48903 0.98161 0.87614 0.0
C761 C 0.50205 0.0004 0.90023 0.0
C762 C 0.46127 0.93484 0.87413 0.0
C763 C 0.45865 0.92644 0.91892 0.0
C764 C 0.44636 0.90767 0.89529 0.0
C765 C 0.49012 0.05954 1.0051 0.0
C766 C 0.49927 0.99233 0.94695 0.0
C767 C 0.37787 0.7859 0.97794 0.0
C768 C 0.34253 0.79572 0.98269 0.0
C769 C 0.43865 0.97241 0.03989 0.0
C770 C 0.52935 0.02734 0.12242 0.0
C771 C 0.5125 -0.00078 0.14368 0.0
C772 C 0.52145 0.01761 0.16794 0.0
C773 C 0.54815 0.06436 0.17039 0.0
C774 C 0.55598 0.0737 0.12561 0.0
C775 C 0.56536 0.09199 0.14945 0.0
C776 C 0.5291 0.938 0.0384 0.0
C777 C 0.51766 0.0082 0.09706 0.0
H778 H 0.52329 0.0363 0.90229 0.0
H779 H 0.45122 0.91907 0.85607 0.0
H780 H 0.44629 0.90473 0.93502 0.0
H781 H 0.42498 0.87179 0.89335 0.0
H782 H 0.49167 0.96334 0.14132 0.0
H783 H 0.55621 0.07965 0.18862 0.0
H784 H 0.5693 0.09578 0.10967 0.0
H785 H 0.58596 0.12786 0.15172 0.0
Tb786 Tb 0.04122 0.51489 0.99327 0.0
C787 C 0.86607 0.4449 0.05615 0.0
C788 C 0.84678 0.50346 0.0531 0.0
C789 C 0.78554 0.42632 0.05876 0.0
C790 C 0.87983 0.4894 0.05304 0.0
C791 C 0.81892 0.41288 0.05974 0.0
C792 C 0.79952 0.47158 0.05535 0.0
C793 C 0.84193 0.35775 0.06707 0.0
N794 N 0.89939 0.4334 0.05696 0.0
C795 C 0.88828 0.39084 0.06345 0.0
C796 C 0.807 0.36866 0.06485 0.0
Tb797 Tb 0.97396 0.48951 0.04979 0.0
N798 N 0.92582 0.51912 0.05086 0.0
C799 C 0.94124 0.56403 0.05055 0.0
C800 C 0.86227 0.54918 0.05139 0.0
C801 C 0.90976 0.57963 0.0505 0.0
H802 H 0.91508 0.38211 0.065 0.0
H803 H 0.9222 0.61514 0.04959 0.0
H804 H 0.77379 0.48188 0.055 0.0
H805 H 0.83318 0.32386 0.07152 0.0
H806 H 0.9777 0.58825 0.04957 0.0
H807 H 0.10604 0.39913 0.99593 0.0
H808 H 0.83795 0.56133 0.05127 0.0
H809 H 0.0931 0.61897 0.97175 0.0
H810 H 0.04607 0.42049 0.99383 0.0
H811 H 0.17303 0.6806 0.96446 0.0
H812 H 0.74903 0.4022 0.06116 0.0
H813 H 0.18904 0.4574 0.99629 0.0
H814 H 0.24923 0.53906 0.99331 0.0
H815 H 0.77115 0.343 0.06772 0.0
H816 H 0.26794 0.61617 0.98391 0.0
N817 N 0.09412 0.49063 0.99332 0.0
C818 C 0.08196 0.44648 0.99361 0.0
C819 C 0.16276 0.46703 0.99517 0.0
C820 C 0.17501 0.51194 0.993 0.0
C821 C 0.11598 0.43408 0.99488 0.0
C822 C 0.13943 0.52258 0.99169 0.0
H823 H 0.2395 0.66917 0.97237 0.0
N824 N 0.11399 0.57324 0.98421 0.0
C825 C 0.16703 0.64848 0.97097 0.0
C826 C 0.14982 0.56565 0.98691 0.0
C827 C 0.12173 0.61339 0.97505 0.0
C828 C 0.20446 0.64196 0.97553 0.0
C829 C 0.19606 0.59981 0.98311 0.0
O830 O 0.02795 0.53389 0.95842 0.0
O831 O 0.98046 0.50933 1.01138 0.0
O832 O 0.93057 0.43908 0.02255 0.0
O833 O 0.98847 0.44293 0.99652 0.0
O834 O 0.01506 0.56125 0.98747 0.0
O835 O 0.02733 0.4718 0.96286 0.0
O836 O 0.98224 0.46419 0.08372 0.0
O837 O 0.03531 0.49572 0.03196 0.0
O838 O 0.08413 0.56944 0.0186 0.0
O839 O 0.02973 0.56033 0.04921 0.0
O840 O 0.9987 0.44192 0.05469 0.0
O841 O 0.98775 0.52904 0.08186 0.0
C842 C 0.97911 0.5419 1.00161 0.0
C843 C 0.05 0.50747 0.92374 0.0
C844 C 0.04973 0.50783 0.87834 0.0
C845 C 0.02614 0.49984 0.90122 0.0
C846 C 0.0978 0.52402 0.87842 0.0
C847 C 0.0978 0.52324 0.92344 0.0
C848 C 0.12156 0.53163 0.90085 0.0
C849 C 0.94519 0.42192 1.00516 0.0
C850 C 0.02431 0.49898 0.94725 0.0
C851 C 0.23204 0.59024 0.98618 0.0
C852 C 0.22145 0.54633 0.99133 0.0
C853 C 0.03582 0.46249 0.04145 0.0
C854 C 0.96408 0.48987 0.12014 0.0
C855 C 0.98995 0.49948 0.14206 0.0
C856 C 0.96785 0.48909 0.16542 0.0
C857 C 0.91929 0.46891 0.16654 0.0
C858 C 0.91575 0.47022 0.12155 0.0
C859 C 0.8935 0.45978 0.1447 0.0
C860 C 0.07091 0.58348 0.03822 0.0
C861 C 0.98848 0.49898 0.0962 0.0
H862 H 0.98903 0.4869 0.90158 0.0
H863 H 0.11709 0.53106 0.86115 0.0
H864 H 0.1167 0.52894 0.94056 0.0
H865 H 0.15851 0.544 0.90072 0.0
H866 H 0.02731 0.51432 0.14089 0.0
H867 H 0.90139 0.46082 0.1843 0.0
H868 H 0.89525 0.46272 0.10488 0.0
H869 H 0.85616 0.4445 0.14571 0.0
Tb870 Tb 0.52111 0.48169 0.05186 0.0
C871 C 0.43489 0.56309 0.98437 0.0
C872 C 0.35319 0.50817 0.98294 0.0
C873 C 0.37868 0.58674 0.97629 0.0
C874 C 0.39967 0.5193 0.98634 0.0
C875 C 0.42497 0.59738 0.97908 0.0
C876 C 0.34292 0.54215 0.97803 0.0
C877 C 0.50738 0.64924 0.97718 0.0
N878 N 0.47913 0.5717 0.98632 0.0
C879 C 0.51543 0.61393 0.98197 0.0
C880 C 0.46194 0.64101 0.9759 0.0
Tb881 Tb 0.4888 0.5117 0.99416 0.0
N882 N 0.41123 0.48736 0.99026 0.0
C883 C 0.3777 0.44315 0.98991 0.0
C884 C 0.31861 0.46315 0.98379 0.0
C885 C 0.33099 0.43048 0.98713 0.0
H886 H 0.55073 0.62074 0.98282 0.0
H887 H 0.3046 0.39548 0.98743 0.0
H888 H 0.3076 0.5341 0.9748 0.0
H889 H 0.53624 0.68272 0.97431 0.0
H890 H 0.38642 0.41727 0.9923 0.0
H891 H 0.70745 0.58968 0.05431 0.0
H892 H 0.28244 0.45324 0.9814 0.0
H893 H 0.4566 0.37707 0.0718 0.0
H894 H 0.62644 0.57236 0.05273 0.0
H895 H 0.46693 0.31318 0.08177 0.0
H896 H 0.37027 0.61252 0.9721 0.0
H897 H 0.72548 0.52863 0.05799 0.0
H898 H 0.69607 0.44642 0.06443 0.0
H899 H 0.45578 0.66832 0.97189 0.0
H900 H 0.63045 0.37084 0.07179 0.0
N901 N 0.598 0.50172 0.05428 0.0
C902 C 0.6334 0.54518 0.05425 0.0
C903 C 0.68968 0.52074 0.05712 0.0
C904 C 0.6533 0.47658 0.05904 0.0
C905 C 0.67963 0.55526 0.05515 0.0
C906 C 0.60739 0.46821 0.05766 0.0
H907 H 0.54469 0.32084 0.07881 0.0
N908 N 0.52763 0.42064 0.06227 0.0
C909 C 0.49645 0.34466 0.07602 0.0
C910 C 0.57074 0.42596 0.06188 0.0
C911 C 0.49078 0.38113 0.07032 0.0
C912 C 0.54032 0.34904 0.07424 0.0
C913 C 0.57836 0.39037 0.06762 0.0
O914 O 0.48398 0.46373 0.08579 0.0
O915 O 0.46899 0.48948 0.03202 0.0
O916 O 0.4946 0.55966 0.02227 0.0
O917 O 0.54656 0.55394 0.04861 0.0
O918 O 0.44606 0.43622 0.05511 0.0
O919 O 0.54973 0.52406 0.0828 0.0
O920 O 0.52656 0.53603 0.96072 0.0
O921 O 0.54088 0.50307 1.01357 0.0
O922 O 0.50977 0.42887 0.02585 0.0
O923 O 0.46674 0.44011 0.99522 0.0
O924 O 0.56351 0.55803 0.99148 0.0
O925 O 0.46385 0.4721 0.96193 0.0
C926 C 0.43229 0.45665 0.0406 0.0
C927 C 0.52915 0.48853 0.12213 0.0
C928 C 0.52539 0.48972 0.16763 0.0
C929 C 0.51217 0.49763 0.14411 0.0
C930 C 0.55498 0.47169 0.1687 0.0
C931 C 0.55885 0.47091 0.12378 0.0
C932 C 0.57144 0.46232 0.14694 0.0
C933 C 0.52581 0.57549 0.04019 0.0
C934 C 0.51599 0.49791 0.09767 0.0
C935 C 0.6238 0.39779 0.06763 0.0
C936 C 0.66123 0.44088 0.06337 0.0
C937 C 0.57736 0.5365 1.00508 0.0
C938 C 0.48455 0.51063 0.92331 0.0
C939 C 0.5023 0.50168 0.90159 0.0
C940 C 0.49185 0.51178 0.87788 0.0
C941 C 0.46304 0.53063 0.87635 0.0
C942 C 0.45575 0.52918 0.92122 0.0
C943 C 0.4451 0.53909 0.89786 0.0
C944 C 0.48305 0.41623 1.0059 0.0
C945 C 0.49735 0.50141 0.94792 0.0
H946 H 0.48965 0.51178 0.14289 0.0
H947 H 0.5653 0.46465 0.18644 0.0
H948 H 0.57253 0.46402 0.10722 0.0
H949 H 0.59427 0.44856 0.14803 0.0
H950 H 0.52483 0.48758 0.90319 0.0
H951 H 0.4538 0.53825 0.85846 0.0
H952 H 0.44158 0.53608 0.93758 0.0
H953 H 0.42279 0.55338 0.89642 0.0
Tb954 Tb 0.15796 0.30169 0.326 0.0
C955 C 0.25222 0.46697 0.39325 0.0
C956 C 0.33329 0.48861 0.39164 0.0
C957 C 0.3112 0.5451 0.39799 0.0
C958 C 0.28602 0.4556 0.39034 0.0
C959 C 0.26422 0.51168 0.39762 0.0
C960 C 0.34572 0.53358 0.39497 0.0
C961 C 0.18269 0.48634 0.40272 0.0
N962 N 0.2074 0.43368 0.39284 0.0
C963 C 0.17263 0.44246 0.39842 0.0
C964 C 0.22866 0.52121 0.40204 0.0
Tb965 Tb 0.19407 0.36322 0.3843 0.0
N966 N 0.27244 0.41182 0.38727 0.0
C967 C 0.30472 0.39841 0.38727 0.0
C968 C 0.3665 0.47528 0.39015 0.0
C969 C 0.35209 0.42989 0.38832 0.0
H970 H 0.13695 0.41585 0.39888 0.0
H971 H 0.37746 0.41909 0.38762 0.0
H972 H 0.38186 0.55951 0.3958 0.0
H973 H 0.15497 0.49322 0.40656 0.0
H974 H 0.29449 0.36358 0.38572 0.0
H975 H 0.9731 0.2402 0.32567 0.0
H976 H 0.40319 0.49957 0.39098 0.0
H977 H 0.21589 0.25329 0.30552 0.0
H978 H 0.05545 0.29748 0.32622 0.0
H979 H 0.20009 0.17733 0.2957 0.0
H980 H 0.3212 0.57974 0.4011 0.0
H981 H 0.94967 0.16026 0.32222 0.0
H982 H 0.97334 0.10229 0.31572 0.0
H983 H 0.23638 0.55514 0.40546 0.0
H984 H 0.03545 0.08504 0.30735 0.0
N985 N 0.07971 0.251 0.32402 0.0
C986 C 0.04632 0.26299 0.32462 0.0
C987 C 0.98613 0.18539 0.32252 0.0
C988 C 0.02032 0.17349 0.32005 0.0
C989 C 0.99923 0.23045 0.32437 0.0
C990 C 0.06726 0.20756 0.3207 0.0
H991 H 0.12027 0.11302 0.29932 0.0
N992 N 0.14596 0.23238 0.31544 0.0
C993 C 0.17209 0.18256 0.30161 0.0
C994 C 0.10178 0.19786 0.31616 0.0
C995 C 0.18089 0.22566 0.30719 0.0
C996 C 0.12704 0.14633 0.30375 0.0
C997 C 0.09098 0.15383 0.31064 0.0
O998 O 0.19579 0.3191 0.29222 0.0
O999 O 0.21131 0.35805 0.34619 0.0
O1000 O 0.18729 0.40634 0.35677 0.0
O1001 O 0.13575 0.35159 0.32953 0.0
O1002 O 0.23217 0.32541 0.32272 0.0
O1003 O 0.13211 0.31967 0.29496 0.0
O1004 O 0.15585 0.34929 0.41779 0.0
O1005 O 0.1408 0.30615 0.36447 0.0
O1006 O 0.1687 0.25881 0.35183 0.0
O1007 O 0.21345 0.31109 0.38244 0.0
O1008 O 0.12019 0.3403 0.3872 0.0
O1009 O 0.21832 0.34599 0.41632 0.0
C1010 C 0.24701 0.35903 0.33742 0.0
C1011 C 0.15318 0.3061 0.25504 0.0
C1012 C 0.15568 0.31493 0.20947 0.0
C1013 C 0.1687 0.33372 0.23356 0.0
C1014 C 0.12792 0.26817 0.20746 0.0
C1015 C 0.12529 0.25976 0.25225 0.0
C1016 C 0.113 0.24099 0.22862 0.0
C1017 C 0.15676 0.39285 0.33843 0.0
C1018 C 0.16591 0.32565 0.28028 0.0
C1019 C 0.04451 0.11921 0.31126 0.0
C1020 C 0.00916 0.12903 0.31602 0.0
C1021 C 0.10529 0.30572 0.37322 0.0
C1022 C 0.196 0.36065 0.45575 0.0
C1023 C 0.17915 0.33254 0.47701 0.0
C1024 C 0.1881 0.35093 0.50127 0.0
C1025 C 0.21481 0.39768 0.50372 0.0
C1026 C 0.22263 0.40701 0.45894 0.0
C1027 C 0.23201 0.4253 0.48278 0.0
C1028 C 0.19574 0.2713 0.37173 0.0
C1029 C 0.18431 0.34151 0.43039 0.0
H1030 H 0.18994 0.36963 0.23562 0.0
H1031 H 0.11787 0.25241 0.18939 0.0
H1032 H 0.11293 0.23805 0.26835 0.0
H1033 H 0.09162 0.20512 0.22667 0.0
H1034 H 0.15832 0.29666 0.47465 0.0
H1035 H 0.22286 0.41297 0.52195 0.0
H1036 H 0.23594 0.42909 0.443 0.0
H1037 H 0.25261 0.46117 0.48505 0.0
Tb1038 Tb 0.70788 0.84819 0.32661 0.0
C1039 C 0.53272 0.7782 0.38948 0.0
C1040 C 0.51342 0.83676 0.38644 0.0
C1041 C 0.45218 0.75962 0.39209 0.0
C1042 C 0.54647 0.8227 0.38637 0.0
C1043 C 0.48557 0.74618 0.39307 0.0
C1044 C 0.46616 0.80487 0.38868 0.0
C1045 C 0.50858 0.69105 0.40041 0.0
N1046 N 0.56603 0.7667 0.3903 0.0
C1047 C 0.55492 0.72414 0.39679 0.0
C1048 C 0.47365 0.70196 0.39819 0.0
Tb1049 Tb 0.64061 0.82281 0.38313 0.0
N1050 N 0.59247 0.85242 0.38419 0.0
C1051 C 0.60788 0.89733 0.38388 0.0
C1052 C 0.52891 0.88248 0.38472 0.0
C1053 C 0.57641 0.91293 0.38383 0.0
H1054 H 0.58173 0.71542 0.39834 0.0
H1055 H 0.58884 0.94844 0.38292 0.0
H1056 H 0.44043 0.81518 0.38833 0.0
H1057 H 0.49983 0.65716 0.40485 0.0
H1058 H 0.64434 0.92155 0.38291 0.0
H1059 H 0.77266 0.73241 0.32926 0.0
H1060 H 0.50459 0.89463 0.3846 0.0
H1061 H 0.75977 0.95227 0.30509 0.0
H1062 H 0.7127 0.75378 0.32717 0.0
H1063 H 0.83971 0.01389 0.29781 0.0
H1064 H 0.41567 0.7355 0.39448 0.0
H1065 H 0.85566 0.79066 0.32963 0.0
H1066 H 0.91586 0.87232 0.32665 0.0
H1067 H 0.4378 0.6763 0.40105 0.0
H1068 H 0.93459 0.94943 0.31725 0.0
N1069 N 0.76076 0.82392 0.32666 0.0
C1070 C 0.74859 0.77976 0.32695 0.0
C1071 C 0.82938 0.80029 0.32851 0.0
C1072 C 0.84165 0.84521 0.32634 0.0
C1073 C 0.7826 0.76736 0.32822 0.0
C1074 C 0.80607 0.85586 0.32503 0.0
H1075 H 0.90616 0.00245 0.30572 0.0
N1076 N 0.78064 0.90654 0.31756 0.0
C1077 C 0.8337 0.98177 0.30431 0.0
C1078 C 0.81647 0.89893 0.32026 0.0
C1079 C 0.78839 0.94669 0.3084 0.0
C1080 C 0.87112 0.97524 0.30887 0.0
C1081 C 0.86272 0.93308 0.31645 0.0
O1082 O 0.69461 0.8672 0.29176 0.0
O1083 O 0.64711 0.84264 0.34472 0.0
O1084 O 0.59721 0.77238 0.35589 0.0
O1085 O 0.65511 0.77624 0.32985 0.0
O1086 O 0.68172 0.89455 0.32081 0.0
O1087 O 0.69397 0.80511 0.29619 0.0
O1088 O 0.64889 0.7975 0.41705 0.0
O1089 O 0.70195 0.82902 0.36529 0.0
O1090 O 0.75078 0.90274 0.35194 0.0
O1091 O 0.69638 0.89364 0.38254 0.0
O1092 O 0.66534 0.77522 0.38803 0.0
O1093 O 0.6544 0.86234 0.4152 0.0
C1094 C 0.64576 0.87521 0.33495 0.0
C1095 C 0.71666 0.84078 0.25708 0.0
C1096 C 0.7164 0.84114 0.21168 0.0
C1097 C 0.6928 0.83316 0.23456 0.0
C1098 C 0.76446 0.85732 0.21176 0.0
C1099 C 0.76445 0.85654 0.25678 0.0
C1100 C 0.78822 0.86492 0.23419 0.0
C1101 C 0.61183 0.75523 0.3385 0.0
C1102 C 0.69096 0.83229 0.28058 0.0
C1103 C 0.89868 0.9235 0.31952 0.0
C1104 C 0.88809 0.87959 0.32467 0.0
C1105 C 0.70247 0.79579 0.37479 0.0
C1106 C 0.63072 0.82318 0.45348 0.0
C1107 C 0.65659 0.8328 0.47539 0.0
C1108 C 0.63449 0.82241 0.49875 0.0
C1109 C 0.58594 0.80223 0.49988 0.0
C1110 C 0.58239 0.80353 0.45488 0.0
C1111 C 0.56015 0.79309 0.47803 0.0
C1112 C 0.73756 0.91678 0.37156 0.0
C1113 C 0.65513 0.83229 0.42954 0.0
H1114 H 0.65569 0.82022 0.23491 0.0
H1115 H 0.78376 0.86436 0.19449 0.0
H1116 H 0.78335 0.86223 0.2739 0.0
H1117 H 0.82517 0.87728 0.23407 0.0
H1118 H 0.69396 0.84764 0.47423 0.0
H1119 H 0.56803 0.79414 0.51763 0.0
H1120 H 0.5619 0.79603 0.43822 0.0
H1121 H 0.52281 0.77781 0.47905 0.0
Tb1122 Tb 0.18777 0.81501 0.3852 0.0
C1123 C 0.10156 0.89643 0.31771 0.0
C1124 C 0.01987 0.84152 0.31627 0.0
C1125 C 0.04537 0.92009 0.30962 0.0
C1126 C 0.06635 0.85264 0.31967 0.0
C1127 C 0.09166 0.93072 0.31242 0.0
C1128 C 0.0096 0.8755 0.31136 0.0
C1129 C 0.17407 0.98257 0.31052 0.0
N1130 N 0.14581 0.90503 0.31965 0.0
C1131 C 0.18211 0.94727 0.31531 0.0
C1132 C 0.12862 0.97435 0.30924 0.0
Tb1133 Tb 0.15547 0.84502 0.32749 0.0
N1134 N 0.0779 0.82069 0.3236 0.0
C1135 C 0.04437 0.77649 0.32324 0.0
C1136 C 0.98528 0.79649 0.31712 0.0
C1137 C 0.99766 0.76382 0.32046 0.0
H1138 H 0.2174 0.95407 0.31615 0.0
H1139 H 0.97127 0.72882 0.32076 0.0
H1140 H 0.97428 0.86745 0.30813 0.0
H1141 H 0.20293 0.01606 0.30765 0.0
H1142 H 0.05308 0.75061 0.32563 0.0
H1143 H 0.37411 0.92299 0.38765 0.0
H1144 H 0.94911 0.78659 0.31473 0.0
H1145 H 0.12326 0.7104 0.40513 0.0
H1146 H 0.2931 0.90568 0.38607 0.0
H1147 H 0.13358 0.6465 0.4151 0.0
H1148 H 0.03696 0.94587 0.30544 0.0
H1149 H 0.39214 0.86195 0.39133 0.0
H1150 H 0.36273 0.77973 0.39778 0.0
H1151 H 0.12248 0.00166 0.30522 0.0
H1152 H 0.29711 0.70415 0.40513 0.0
N1153 N 0.26466 0.83504 0.38762 0.0
C1154 C 0.30006 0.8785 0.38759 0.0
C1155 C 0.35634 0.85406 0.39046 0.0
C1156 C 0.31996 0.8099 0.39238 0.0
C1157 C 0.34629 0.88858 0.38849 0.0
C1158 C 0.27405 0.80153 0.391 0.0
H1159 H 0.21134 0.65416 0.41214 0.0
N1160 N 0.19428 0.75396 0.3956 0.0
C1161 C 0.1631 0.67798 0.40935 0.0
C1162 C 0.23739 0.75928 0.39521 0.0
C1163 C 0.15743 0.71445 0.40365 0.0
C1164 C 0.20698 0.68236 0.40757 0.0
C1165 C 0.24501 0.72369 0.40095 0.0
O1166 O 0.15063 0.79706 0.41912 0.0
O1167 O 0.13566 0.82281 0.36536 0.0
O1168 O 0.16126 0.89298 0.35561 0.0
O1169 O 0.21322 0.88727 0.38195 0.0
O1170 O 0.11272 0.76955 0.38845 0.0
O1171 O 0.21639 0.85738 0.41613 0.0
O1172 O 0.19324 0.86935 0.29406 0.0
O1173 O 0.20754 0.83639 0.3469 0.0
O1174 O 0.17643 0.76219 0.35918 0.0
O1175 O 0.1334 0.77344 0.32855 0.0
O1176 O 0.23018 0.89136 0.32481 0.0
O1177 O 0.13051 0.80544 0.29527 0.0
C1178 C 0.09895 0.78997 0.37393 0.0
C1179 C 0.1958 0.82186 0.45547 0.0
C1180 C 0.19205 0.82304 0.50096 0.0
C1181 C 0.17883 0.83096 0.47745 0.0
C1182 C 0.22163 0.80501 0.50204 0.0
C1183 C 0.22551 0.80423 0.45712 0.0
C1184 C 0.23809 0.79564 0.48028 0.0
C1185 C 0.19247 0.90882 0.37353 0.0
C1186 C 0.18265 0.83124 0.431 0.0
C1187 C 0.29045 0.7311 0.40097 0.0
C1188 C 0.32788 0.77419 0.39671 0.0
C1189 C 0.24402 0.86982 0.33841 0.0
C1190 C 0.15123 0.84397 0.25665 0.0
C1191 C 0.16898 0.83502 0.23492 0.0
C1192 C 0.15854 0.84513 0.21121 0.0
C1193 C 0.12973 0.86398 0.20968 0.0
C1194 C 0.12243 0.86251 0.25456 0.0
C1195 C 0.11178 0.87243 0.2312 0.0
C1196 C 0.14971 0.74955 0.33923 0.0
C1197 C 0.16402 0.83473 0.28125 0.0
H1198 H 0.15631 0.8451 0.47622 0.0
H1199 H 0.23196 0.79797 0.51977 0.0
H1200 H 0.23919 0.79734 0.44055 0.0
H1201 H 0.26092 0.78188 0.48137 0.0
H1202 H 0.1915 0.82092 0.23652 0.0
H1203 H 0.12049 0.87161 0.1918 0.0
H1204 H 0.10825 0.86941 0.27091 0.0
H1205 H 0.08948 0.88673 0.22975 0.0
Tb1206 Tb 0.82461 0.63502 0.65934 0.0
C1207 C 0.91888 0.80031 0.72658 0.0
C1208 C 0.99995 0.82195 0.72497 0.0
C1209 C 0.97786 0.87843 0.73132 0.0
C1210 C 0.95268 0.78894 0.72367 0.0
C1211 C 0.93087 0.84502 0.73095 0.0
C1212 C 0.01238 0.86691 0.7283 0.0
C1213 C 0.84934 0.81967 0.73605 0.0
N1214 N 0.87405 0.76701 0.72617 0.0
C1215 C 0.83928 0.7758 0.73175 0.0
C1216 C 0.89532 0.85454 0.73537 0.0
Tb1217 Tb 0.86073 0.69656 0.71764 0.0
N1218 N 0.93909 0.74515 0.7206 0.0
C1219 C 0.97138 0.73175 0.7206 0.0
C1220 C 0.03316 0.80861 0.72348 0.0
C1221 C 0.01875 0.76323 0.72165 0.0
H1222 H 0.8036 0.74919 0.73221 0.0
H1223 H 0.04412 0.75243 0.72096 0.0
H1224 H 0.04851 0.89284 0.72913 0.0
H1225 H 0.82163 0.82655 0.73989 0.0
H1226 H 0.96115 0.69692 0.71905 0.0
H1227 H 0.63976 0.57353 0.659 0.0
H1228 H 0.06985 0.83291 0.72431 0.0
H1229 H 0.88255 0.58662 0.63885 0.0
H1230 H 0.72211 0.63081 0.65955 0.0
H1231 H 0.86675 0.51066 0.62903 0.0
H1232 H 0.98786 0.91308 0.73443 0.0
H1233 H 0.61633 0.49359 0.65556 0.0
H1234 H 0.64 0.43562 0.64906 0.0
H1235 H 0.90303 0.88847 0.73879 0.0
H1236 H 0.70211 0.41837 0.64069 0.0
N1237 N 0.74637 0.58433 0.65736 0.0
C1238 C 0.71298 0.59632 0.65796 0.0
C1239 C 0.65279 0.51872 0.65586 0.0
C1240 C 0.68698 0.50682 0.65339 0.0
C1241 C 0.66589 0.56378 0.6577 0.0
C1242 C 0.73392 0.54089 0.65404 0.0
H1243 H 0.78693 0.44635 0.63266 0.0
N1244 N 0.81262 0.56571 0.64877 0.0
C1245 C 0.83875 0.51589 0.63494 0.0
C1246 C 0.76844 0.53119 0.6495 0.0
C1247 C 0.84755 0.55899 0.64052 0.0
C1248 C 0.79369 0.47966 0.63709 0.0
C1249 C 0.75764 0.48716 0.64397 0.0
O1250 O 0.86245 0.65243 0.62555 0.0
O1251 O 0.87797 0.69138 0.67952 0.0
O1252 O 0.85395 0.73967 0.6901 0.0
O1253 O 0.80241 0.68493 0.66286 0.0
O1254 O 0.89883 0.65874 0.65605 0.0
O1255 O 0.79877 0.65299 0.62829 0.0
O1256 O 0.82251 0.68262 0.75112 0.0
O1257 O 0.80746 0.63948 0.6978 0.0
O1258 O 0.83536 0.59215 0.68516 0.0
O1259 O 0.88011 0.64442 0.71577 0.0
O1260 O 0.78685 0.67363 0.72053 0.0
O1261 O 0.88498 0.67932 0.74965 0.0
C1262 C 0.91367 0.69236 0.67075 0.0
C1263 C 0.81983 0.63943 0.58838 0.0
C1264 C 0.82234 0.64825 0.54281 0.0
C1265 C 0.83535 0.66704 0.56689 0.0
C1266 C 0.79458 0.60148 0.54079 0.0
C1267 C 0.79195 0.59308 0.58558 0.0
C1268 C 0.77966 0.57431 0.56195 0.0
C1269 C 0.82342 0.72618 0.67176 0.0
C1270 C 0.83257 0.65898 0.61361 0.0
C1271 C 0.71116 0.45254 0.6446 0.0
C1272 C 0.67582 0.46236 0.64936 0.0
C1273 C 0.77195 0.63905 0.70655 0.0
C1274 C 0.86266 0.69399 0.78908 0.0
C1275 C 0.84581 0.66588 0.81034 0.0
C1276 C 0.85477 0.68427 0.83461 0.0
C1277 C 0.88147 0.73102 0.83705 0.0
C1278 C 0.88929 0.74035 0.79227 0.0
C1279 C 0.89867 0.75864 0.81611 0.0
C1280 C 0.8624 0.60464 0.70506 0.0
C1281 C 0.85097 0.67485 0.76372 0.0
H1282 H 0.8566 0.70295 0.56895 0.0
H1283 H 0.78453 0.58572 0.52273 0.0
H1284 H 0.77959 0.57137 0.60168 0.0
H1285 H 0.75828 0.53844 0.56001 0.0
H1286 H 0.82498 0.63 0.80799 0.0
H1287 H 0.88952 0.74631 0.85528 0.0
H1288 H 0.9026 0.76243 0.77633 0.0
H1289 H 0.91927 0.79451 0.81838 0.0
Tb1290 Tb 0.37454 0.18152 0.65994 0.0
C1291 C 0.19938 0.11153 0.72282 0.0
C1292 C 0.18008 0.17009 0.71977 0.0
C1293 C 0.11885 0.09295 0.72543 0.0
C1294 C 0.21314 0.15604 0.71971 0.0
C1295 C 0.15223 0.07951 0.72641 0.0
C1296 C 0.13283 0.1382 0.72202 0.0
C1297 C 0.17525 0.02438 0.73375 0.0
N1298 N 0.2327 0.10004 0.72364 0.0
C1299 C 0.22159 0.05747 0.73013 0.0
C1300 C 0.14032 0.03529 0.73153 0.0
Tb1301 Tb 0.30728 0.15614 0.71646 0.0
N1302 N 0.25913 0.18575 0.71753 0.0
C1303 C 0.27455 0.23066 0.71722 0.0
C1304 C 0.19557 0.21581 0.71806 0.0
C1305 C 0.24307 0.24626 0.71716 0.0
H1306 H 0.2484 0.04875 0.73167 0.0
H1307 H 0.25551 0.28177 0.71626 0.0
H1308 H 0.1071 0.14851 0.72167 0.0
H1309 H 0.16649 0.99049 0.73819 0.0
H1310 H 0.31101 0.25488 0.71624 0.0
H1311 H 0.43931 0.06573 0.66259 0.0
H1312 H 0.17126 0.22796 0.71794 0.0
H1313 H 0.42643 0.2856 0.63843 0.0
H1314 H 0.37936 0.08711 0.6605 0.0
H1315 H 0.50638 0.34722 0.63114 0.0
H1316 H 0.08234 0.06883 0.72783 0.0
H1317 H 0.52231 0.12398 0.66296 0.0
H1318 H 0.58252 0.20564 0.65998 0.0
H1319 H 0.10447 0.00963 0.73439 0.0
H1320 H 0.60126 0.28275 0.65059 0.0
N1321 N 0.42742 0.15724 0.65999 0.0
C1322 C 0.41525 0.11308 0.66028 0.0
C1323 C 0.49604 0.13361 0.66184 0.0
C1324 C 0.5083 0.17853 0.65968 0.0
C1325 C 0.44926 0.10068 0.66155 0.0
C1326 C 0.47273 0.18919 0.65836 0.0
H1327 H 0.57283 0.33577 0.63905 0.0
N1328 N 0.44731 0.23986 0.65089 0.0
C1329 C 0.50037 0.3151 0.63765 0.0
C1330 C 0.48314 0.23225 0.65359 0.0
C1331 C 0.45506 0.28001 0.64173 0.0
C1332 C 0.53779 0.30857 0.64221 0.0
C1333 C 0.52938 0.26641 0.64978 0.0
O1334 O 0.36128 0.20053 0.6251 0.0
O1335 O 0.31377 0.17597 0.67805 0.0
O1336 O 0.26387 0.10571 0.68922 0.0
O1337 O 0.32177 0.10957 0.66319 0.0
O1338 O 0.34838 0.22789 0.65414 0.0
O1339 O 0.36063 0.13844 0.62953 0.0
O1340 O 0.31556 0.13083 0.75039 0.0
O1341 O 0.36862 0.16235 0.69863 0.0
O1342 O 0.41744 0.23607 0.68528 0.0
O1343 O 0.36304 0.22697 0.71588 0.0
O1344 O 0.33201 0.10855 0.72136 0.0
O1345 O 0.32106 0.19567 0.74853 0.0
C1346 C 0.31242 0.20854 0.66828 0.0
C1347 C 0.38332 0.17411 0.59041 0.0
C1348 C 0.38305 0.17447 0.54501 0.0
C1349 C 0.35946 0.16649 0.56789 0.0
C1350 C 0.43112 0.19066 0.54509 0.0
C1351 C 0.43111 0.18987 0.59011 0.0
C1352 C 0.45488 0.19826 0.56752 0.0
C1353 C 0.27849 0.08856 0.67183 0.0
C1354 C 0.35762 0.16562 0.61392 0.0
C1355 C 0.56534 0.25682 0.65286 0.0
C1356 C 0.55474 0.21291 0.658 0.0
C1357 C 0.36913 0.12912 0.70812 0.0
C1358 C 0.2974 0.15651 0.78681 0.0
C1359 C 0.32327 0.16614 0.80873 0.0
C1360 C 0.30117 0.15574 0.83209 0.0
C1361 C 0.25262 0.13556 0.83321 0.0
C1362 C 0.24906 0.13686 0.78822 0.0
C1363 C 0.22683 0.12642 0.81137 0.0
C1364 C 0.40423 0.25011 0.70489 0.0
C1365 C 0.3218 0.16563 0.76287 0.0
H1366 H 0.32235 0.15355 0.56825 0.0
H1367 H 0.45041 0.19769 0.52782 0.0
H1368 H 0.45001 0.19557 0.60723 0.0
H1369 H 0.49182 0.21062 0.5674 0.0
H1370 H 0.36063 0.18098 0.80756 0.0
H1371 H 0.23471 0.12747 0.85097 0.0
H1372 H 0.22857 0.12935 0.77156 0.0
H1373 H 0.18948 0.11114 0.81239 0.0
Tb1374 Tb 0.85444 0.14835 0.71853 0.0
C1375 C 0.76824 0.22978 0.65104 0.0
C1376 C 0.68654 0.17487 0.6496 0.0
C1377 C 0.71205 0.25344 0.64295 0.0
C1378 C 0.73302 0.18598 0.653 0.0
C1379 C 0.75834 0.26407 0.64575 0.0
C1380 C 0.67628 0.20886 0.64469 0.0
C1381 C 0.84075 0.31591 0.64385 0.0
N1382 N 0.81248 0.23837 0.65298 0.0
C1383 C 0.84879 0.28061 0.64864 0.0
C1384 C 0.79531 0.30769 0.64257 0.0
Tb1385 Tb 0.82213 0.17836 0.66082 0.0
N1386 N 0.74457 0.15404 0.65693 0.0
C1387 C 0.71103 0.10983 0.65658 0.0
C1388 C 0.65195 0.12985 0.65046 0.0
C1389 C 0.66432 0.09717 0.65379 0.0
H1390 H 0.88408 0.28741 0.64949 0.0
H1391 H 0.63793 0.06217 0.65409 0.0
H1392 H 0.64096 0.20081 0.64147 0.0
H1393 H 0.86961 0.3494 0.64098 0.0
H1394 H 0.71974 0.08395 0.65896 0.0
H1395 H 0.04078 0.25633 0.72098 0.0
H1396 H 0.61579 0.11994 0.64806 0.0
H1397 H 0.78992 0.04373 0.73847 0.0
H1398 H 0.95977 0.23901 0.7194 0.0
H1399 H 0.80024 0.97984 0.74844 0.0
H1400 H 0.70365 0.27922 0.63876 0.0
H1401 H 0.0588 0.19528 0.72466 0.0
H1402 H 0.02939 0.11306 0.73111 0.0
H1403 H 0.78916 0.33501 0.63855 0.0
H1404 H 0.96377 0.03749 0.73846 0.0
N1405 N 0.93132 0.16838 0.72095 0.0
C1406 C 0.96672 0.21183 0.72092 0.0
C1407 C 0.02301 0.18739 0.72379 0.0
C1408 C 0.98662 0.14323 0.72571 0.0
C1409 C 0.01296 0.22191 0.72182 0.0
C1410 C 0.94071 0.13486 0.72433 0.0
H1411 H 0.878 0.98749 0.74548 0.0
N1412 N 0.86095 0.0873 0.72894 0.0
C1413 C 0.82976 0.01131 0.74269 0.0
C1414 C 0.90405 0.09262 0.72855 0.0
C1415 C 0.8241 0.04779 0.73699 0.0
C1416 C 0.87364 0.0157 0.74091 0.0
C1417 C 0.91168 0.05703 0.73429 0.0
O1418 O 0.8173 0.13039 0.75246 0.0
O1419 O 0.80232 0.15614 0.69869 0.0
O1420 O 0.82793 0.22632 0.68894 0.0
O1421 O 0.87989 0.22061 0.71528 0.0
O1422 O 0.77938 0.10289 0.72178 0.0
O1423 O 0.88306 0.19072 0.74946 0.0
O1424 O 0.8599 0.20268 0.62739 0.0
O1425 O 0.87421 0.16973 0.68023 0.0
O1426 O 0.84309 0.09553 0.69251 0.0
O1427 O 0.80006 0.10678 0.66189 0.0
O1428 O 0.89685 0.22469 0.65814 0.0
O1429 O 0.79718 0.13877 0.6286 0.0
C1430 C 0.76561 0.12331 0.70726 0.0
C1431 C 0.86248 0.1552 0.7888 0.0
C1432 C 0.85873 0.15639 0.83429 0.0
C1433 C 0.84551 0.16431 0.81078 0.0
C1434 C 0.88831 0.13836 0.83537 0.0
C1435 C 0.89218 0.13758 0.79045 0.0
C1436 C 0.90477 0.12899 0.81361 0.0
C1437 C 0.85914 0.24215 0.70686 0.0
C1438 C 0.84932 0.16458 0.76434 0.0
C1439 C 0.95711 0.06443 0.7343 0.0
C1440 C 0.99454 0.10752 0.73004 0.0
C1441 C 0.91069 0.20315 0.67174 0.0
C1442 C 0.81789 0.17729 0.58998 0.0
C1443 C 0.83564 0.16834 0.56825 0.0
C1444 C 0.82519 0.17845 0.54454 0.0
C1445 C 0.79638 0.1973 0.54302 0.0
C1446 C 0.78909 0.19584 0.58789 0.0
C1447 C 0.77843 0.20575 0.56453 0.0
C1448 C 0.81637 0.08289 0.67257 0.0
C1449 C 0.83068 0.16806 0.61458 0.0
H1450 H 0.82299 0.17845 0.80956 0.0
H1451 H 0.89864 0.13132 0.85311 0.0
H1452 H 0.90586 0.13068 0.77389 0.0
H1453 H 0.9276 0.11523 0.8147 0.0
H1454 H 0.85816 0.15424 0.56985 0.0
H1455 H 0.78714 0.20492 0.52513 0.0
H1456 H 0.77492 0.20274 0.60424 0.0
H1457 H 0.75613 0.22005 0.56308 0.0
loop_
_geom_bond_atom_site_label_1
_geom_bond_atom_site_label_2
_geom_bond_distance
_geom_bond_site_symmetry_2
_ccdc_geom_bond_type
C0 C1 1.386 . S
C0 C2 1.397 . S
C0 H24 0.931 . S
C1 C0 1.386 . S
C1 C5 1.397 . S
C2 C0 1.397 . S
C2 C3 1.384 . S
C2 H25 0.930 . S
C3 C2 1.384 . S
C3 C4 1.377 . S
C3 C6 1.481 . S
C4 C3 1.377 . S
C4 C5 1.389 . S
C4 H26 0.929 . S
C5 C1 1.397 . S
C5 C4 1.389 . S
C5 H27 0.931 . S
C6 C3 1.481 . S
C6 C7 1.387 . S
C6 C11 1.390 . S
C7 C6 1.387 . S
C7 C8 1.401 . S
C7 H28 0.930 . S
C8 C7 1.401 . S
C8 C9 1.376 . S
C8 C17 1.511 . S
C9 C8 1.376 . S
C9 C10 1.392 . S
C9 H30 0.931 . S
C10 C9 1.392 . S
C10 C11 1.361 . S
C10 C12 1.500 . S
C11 C6 1.390 . S
C11 C10 1.361 . S
C11 H29 0.931 . S
C12 C10 1.500 . S
C12 C13 1.371 . S
C12 C14 1.365 . S
C13 C12 1.371 . S
C13 C23 1.386 1_545 S
C13 H31 0.931 . S
C14 C12 1.365 . S
C14 C15 1.409 1_545 S
C14 H32 0.929 . S
C15 C14 1.409 1_565 S
C15 C16 1.380 . S
C15 H33 0.930 . S
C16 C15 1.380 . S
C16 C23 1.357 . S
C17 C8 1.511 . S
C17 C18 1.341 . S
C17 C19 1.371 . S
C18 C17 1.341 . S
C18 C22 1.394 . S
C18 H34 0.930 . S
C19 C17 1.371 . S
C19 C20 1.392 . S
C19 H35 0.931 . S
C20 C19 1.392 . S
C20 C21 1.331 . S
C20 H38 0.932 . S
C21 C20 1.331 . S
C21 C22 1.336 . S
C22 C18 1.394 . S
C22 C21 1.336 . S
C22 H37 0.929 . S
C23 C13 1.386 1_565 S
C23 C16 1.357 . S
C23 H36 0.928 . S
H24 C0 0.931 . S
H25 C2 0.930 . S
H26 C4 0.929 . S
H27 C5 0.931 . S
H28 C7 0.930 . S
H29 C11 0.931 . S
H30 C9 0.931 . S
H31 C13 0.931 . S
H32 C14 0.929 . S
H33 C15 0.930 . S
H34 C18 0.930 . S
H35 C19 0.931 . S
H36 C23 0.928 . S
H37 C22 0.929 . S
H38 C20 0.932 . S
C39 C40 1.386 . S
C39 C41 1.397 . S
C39 H63 0.931 . S
C40 C39 1.386 . S
C40 C44 1.397 . S
C41 C39 1.397 . S
C41 C42 1.384 . S
C41 H64 0.930 . S
C42 C41 1.384 . S
C42 C43 1.377 . S
C42 C45 1.481 . S
C43 C42 1.377 . S
C43 C44 1.389 . S
C43 H65 0.929 . S
C44 C40 1.397 . S
C44 C43 1.389 . S
C44 H66 0.931 . S
C45 C42 1.481 . S
C45 C46 1.387 . S
C45 C50 1.390 . S
C46 C45 1.387 . S
C46 C47 1.401 . S
C46 H67 0.930 . S
C47 C46 1.401 . S
C47 C48 1.376 . S
C47 C56 1.511 . S
C48 C47 1.376 . S
C48 C49 1.392 . S
C48 H69 0.931 . S
C49 C48 1.392 . S
C49 C50 1.361 . S
C49 C51 1.500 . S
C50 C45 1.390 . S
C50 C49 1.361 . S
C50 H68 0.931 . S
C51 C49 1.500 . S
C51 C52 1.371 . S
C51 C53 1.365 . S
C52 C51 1.371 . S
C52 C62 1.386 . S
C52 H70 0.931 . S
C53 C51 1.365 . S
C53 C54 1.409 1_545 S
C53 H71 0.929 . S
C54 C53 1.409 1_565 S
C54 C55 1.380 . S
C54 H72 0.930 . S
C55 C54 1.380 . S
C55 C62 1.357 1_565 S
C56 C47 1.511 . S
C56 C57 1.341 . S
C56 C58 1.371 . S
C57 C56 1.341 . S
C57 C61 1.394 1_655 S
C57 H73 0.930 . S
C58 C56 1.371 . S
C58 C59 1.392 1_655 S
C58 H74 0.931 . S
C59 C58 1.392 1_455 S
C59 C60 1.331 . S
C59 H77 0.932 . S
C60 C59 1.331 . S
C60 C61 1.336 . S
C61 C57 1.394 1_455 S
C61 C60 1.336 . S
C61 H76 0.929 . S
C62 C52 1.386 . S
C62 C55 1.357 1_545 S
C62 H75 0.928 . S
H63 C39 0.931 . S
H64 C41 0.930 . S
H65 C43 0.929 . S
H66 C44 0.931 . S
H67 C46 0.930 . S
H68 C50 0.931 . S
H69 C48 0.931 . S
H70 C52 0.931 . S
H71 C53 0.929 . S
H72 C54 0.930 . S
H73 C57 0.930 . S
H74 C58 0.931 . S
H75 C62 0.928 . S
H76 C61 0.929 . S
H77 C59 0.932 . S
C78 C79 1.386 . S
C78 C80 1.397 . S
C78 H102 0.931 . S
C79 C78 1.386 . S
C79 C83 1.397 . S
C80 C78 1.397 . S
C80 C81 1.384 . S
C80 H103 0.930 . S
C81 C80 1.384 . S
C81 C82 1.377 . S
C81 C84 1.481 . S
C82 C81 1.377 . S
C82 C83 1.389 . S
C82 H104 0.929 . S
C83 C79 1.397 . S
C83 C82 1.389 . S
C83 H105 0.931 . S
C84 C81 1.481 . S
C84 C85 1.387 . S
C84 C89 1.390 . S
C85 C84 1.387 . S
C85 C86 1.401 . S
C85 H106 0.930 . S
C86 C85 1.401 . S
C86 C87 1.376 . S
C86 C95 1.511 . S
C87 C86 1.376 . S
C87 C88 1.392 . S
C87 H108 0.931 . S
C88 C87 1.392 . S
C88 C89 1.361 . S
C88 C90 1.500 . S
C89 C84 1.390 . S
C89 C88 1.361 . S
C89 H107 0.931 . S
C90 C88 1.500 . S
C90 C91 1.371 . S
C90 C92 1.365 . S
C91 C90 1.371 . S
C91 C101 1.386 . S
C91 H109 0.931 . S
C92 C90 1.365 . S
C92 C93 1.409 . S
C92 H110 0.929 . S
C93 C92 1.409 . S
C93 C94 1.380 . S
C93 H111 0.930 . S
C94 C93 1.380 . S
C94 C101 1.357 . S
C95 C86 1.511 . S
C95 C96 1.341 1_655 S
C95 C97 1.371 . S
C96 C95 1.341 1_455 S
C96 C100 1.394 . S
C96 H112 0.930 . S
C97 C95 1.371 . S
C97 C98 1.392 1_655 S
C97 H113 0.931 . S
C98 C97 1.392 1_455 S
C98 C99 1.331 . S
C98 H116 0.932 . S
C99 C98 1.331 . S
C99 C100 1.336 . S
C100 C96 1.394 . S
C100 C99 1.336 . S
C100 H115 0.929 . S
C101 C91 1.386 . S
C101 C94 1.357 . S
C101 H114 0.928 . S
H102 C78 0.931 . S
H103 C80 0.930 . S
H104 C82 0.929 . S
H105 C83 0.931 . S
H106 C85 0.930 . S
H107 C89 0.931 . S
H108 C87 0.931 . S
H109 C91 0.931 . S
H110 C92 0.929 . S
H111 C93 0.930 . S
H112 C96 0.930 . S
H113 C97 0.931 . S
H114 C101 0.928 . S
H115 C100 0.929 . S
H116 C98 0.932 . S
C117 C118 1.386 . S
C117 C119 1.397 . S
C117 H141 0.931 . S
C118 C117 1.386 . S
C118 C122 1.397 . S
C119 C117 1.397 . S
C119 C120 1.384 . S
C119 H142 0.930 . S
C120 C119 1.384 . S
C120 C121 1.377 . S
C120 C123 1.481 . S
C121 C120 1.377 . S
C121 C122 1.389 . S
C121 H143 0.929 . S
C122 C118 1.397 . S
C122 C121 1.389 . S
C122 H144 0.931 . S
C123 C120 1.481 . S
C123 C124 1.387 . S
C123 C128 1.390 . S
C124 C123 1.387 . S
C124 C125 1.401 . S
C124 H145 0.930 . S
C125 C124 1.401 . S
C125 C126 1.376 . S
C125 C134 1.511 . S
C126 C125 1.376 . S
C126 C127 1.392 . S
C126 H147 0.931 . S
C127 C126 1.392 . S
C127 C128 1.361 . S
C127 C129 1.500 . S
C128 C123 1.390 . S
C128 C127 1.361 . S
C128 H146 0.931 . S
C129 C127 1.500 . S
C129 C130 1.371 . S
C129 C131 1.365 . S
C130 C129 1.371 . S
C130 C140 1.386 1_455 S
C130 H148 0.931 . S
C131 C129 1.365 . S
C131 C132 1.409 1_455 S
C131 H149 0.929 . S
C132 C131 1.409 1_655 S
C132 C133 1.380 . S
C132 H150 0.930 . S
C133 C132 1.380 . S
C133 C140 1.357 . S
C134 C125 1.511 . S
C134 C135 1.341 . S
C134 C136 1.371 . S
C135 C134 1.341 . S
C135 C139 1.394 . S
C135 H151 0.930 . S
C136 C134 1.371 . S
C136 C137 1.392 . S
C136 H152 0.931 . S
C137 C136 1.392 . S
C137 C138 1.331 . S
C137 H155 0.932 . S
C138 C137 1.331 . S
C138 C139 1.336 . S
C139 C135 1.394 . S
C139 C138 1.336 . S
C139 H154 0.929 . S
C140 C130 1.386 1_655 S
C140 C133 1.357 . S
C140 H153 0.928 . S
H141 C117 0.931 . S
H142 C119 0.930 . S
H143 C121 0.929 . S
H144 C122 0.931 . S
H145 C124 0.930 . S
H146 C128 0.931 . S
H147 C126 0.931 . S
H148 C130 0.931 . S
H149 C131 0.929 . S
H150 C132 0.930 . S
H151 C135 0.930 . S
H152 C136 0.931 . S
H153 C140 0.928 . S
H154 C139 0.929 . S
H155 C137 0.932 . S
C156 C157 1.386 . S
C156 C158 1.397 . S
C156 H180 0.931 . S
C157 C156 1.386 . S
C157 C161 1.397 . S
C158 C156 1.397 . S
C158 C159 1.384 . S
C158 H181 0.930 . S
C159 C158 1.384 . S
C159 C160 1.377 . S
C159 C162 1.481 . S
C160 C159 1.377 . S
C160 C161 1.389 . S
C160 H182 0.929 . S
C161 C157 1.397 . S
C161 C160 1.389 . S
C161 H183 0.931 . S
C162 C159 1.481 . S
C162 C163 1.387 . S
C162 C167 1.390 . S
C163 C162 1.387 . S
C163 C164 1.401 . S
C163 H184 0.930 . S
C164 C163 1.401 . S
C164 C165 1.376 . S
C164 C173 1.511 . S
C165 C164 1.376 . S
C165 C166 1.392 . S
C165 H186 0.931 . S
C166 C165 1.392 . S
C166 C167 1.361 . S
C166 C168 1.500 . S
C167 C162 1.390 . S
C167 C166 1.361 . S
C167 H185 0.931 . S
C168 C166 1.500 . S
C168 C169 1.371 . S
C168 C170 1.365 . S
C169 C168 1.371 . S
C169 C179 1.386 . S
C169 H187 0.931 . S
C170 C168 1.365 . S
C170 C171 1.409 1_565 S
C170 H188 0.929 . S
C171 C170 1.409 1_545 S
C171 C172 1.380 . S
C171 H189 0.930 . S
C172 C171 1.380 . S
C172 C179 1.357 1_545 S
C173 C164 1.511 . S
C173 C174 1.341 . S
C173 C175 1.371 . S
C174 C173 1.341 . S
C174 C178 1.394 . S
C174 H190 0.930 . S
C175 C173 1.371 . S
C175 C176 1.392 . S
C175 H191 0.931 . S
C176 C175 1.392 . S
C176 C177 1.331 . S
C176 H194 0.932 . S
C177 C176 1.331 . S
C177 C178 1.336 . S
C178 C174 1.394 . S
C178 C177 1.336 . S
C178 H193 0.929 . S
C179 C169 1.386 . S
C179 C172 1.357 1_565 S
C179 H192 0.928 . S
H180 C156 0.931 . S
H181 C158 0.930 . S
H182 C160 0.929 . S
H183 C161 0.931 . S
H184 C163 0.930 . S
H185 C167 0.931 . S
H186 C165 0.931 . S
H187 C169 0.931 . S
H188 C170 0.929 . S
H189 C171 0.930 . S
H190 C174 0.930 . S
H191 C175 0.931 . S
H192 C179 0.928 . S
H193 C178 0.929 . S
H194 C176 0.932 . S
C195 C196 1.386 . S
C195 C197 1.397 . S
C195 H219 0.931 . S
C196 C195 1.386 . S
C196 C200 1.397 . S
C197 C195 1.397 . S
C197 C198 1.384 . S
C197 H220 0.930 . S
C198 C197 1.384 . S
C198 C199 1.377 . S
C198 C201 1.481 . S
C199 C198 1.377 . S
C199 C200 1.389 . S
C199 H221 0.929 . S
C200 C196 1.397 . S
C200 C199 1.389 . S
C200 H222 0.931 . S
C201 C198 1.481 . S
C201 C202 1.387 . S
C201 C206 1.390 . S
C202 C201 1.387 . S
C202 C203 1.401 . S
C202 H223 0.930 . S
C203 C202 1.401 . S
C203 C204 1.376 . S
C203 C212 1.511 . S
C204 C203 1.376 . S
C204 C205 1.392 . S
C204 H225 0.931 . S
C205 C204 1.392 . S
C205 C206 1.361 . S
C205 C207 1.500 . S
C206 C201 1.390 . S
C206 C205 1.361 . S
C206 H224 0.931 . S
C207 C205 1.500 . S
C207 C208 1.371 . S
C207 C209 1.365 . S
C208 C207 1.371 . S
C208 C218 1.386 1_565 S
C208 H226 0.931 . S
C209 C207 1.365 . S
C209 C210 1.409 1_565 S
C209 H227 0.929 . S
C210 C209 1.409 1_545 S
C210 C211 1.380 . S
C210 H228 0.930 . S
C211 C210 1.380 . S
C211 C218 1.357 . S
C212 C203 1.511 . S
C212 C213 1.341 1_455 S
C212 C214 1.371 . S
C213 C212 1.341 1_655 S
C213 C217 1.394 . S
C213 H229 0.930 . S
C214 C212 1.371 . S
C214 C215 1.392 1_455 S
C214 H230 0.931 . S
C215 C214 1.392 1_655 S
C215 C216 1.331 . S
C215 H233 0.932 . S
C216 C215 1.331 . S
C216 C217 1.336 . S
C217 C213 1.394 . S
C217 C216 1.336 . S
C217 H232 0.929 . S
C218 C208 1.386 1_545 S
C218 C211 1.357 . S
C218 H231 0.928 . S
H219 C195 0.931 . S
H220 C197 0.930 . S
H221 C199 0.929 . S
H222 C200 0.931 . S
H223 C202 0.930 . S
H224 C206 0.931 . S
H225 C204 0.931 . S
H226 C208 0.931 . S
H227 C209 0.929 . S
H228 C210 0.930 . S
H229 C213 0.930 . S
H230 C214 0.931 . S
H231 C218 0.928 . S
H232 C217 0.929 . S
H233 C215 0.932 . S
C234 C235 1.386 . S
C234 C236 1.397 . S
C234 H258 0.931 . S
C235 C234 1.386 . S
C235 C239 1.397 . S
C236 C234 1.397 . S
C236 C237 1.384 . S
C236 H259 0.930 . S
C237 C236 1.384 . S
C237 C238 1.377 . S
C237 C240 1.481 . S
C238 C237 1.377 . S
C238 C239 1.389 . S
C238 H260 0.929 . S
C239 C235 1.397 . S
C239 C238 1.389 . S
C239 H261 0.931 1_655 S
C240 C237 1.481 . S
C240 C241 1.387 . S
C240 C245 1.390 . S
C241 C240 1.387 . S
C241 C242 1.401 . S
C241 H262 0.930 . S
C242 C241 1.401 . S
C242 C243 1.376 . S
C242 C251 1.511 . S
C243 C242 1.376 . S
C243 C244 1.392 . S
C243 H264 0.931 . S
C244 C243 1.392 . S
C244 C245 1.361 . S
C244 C246 1.500 . S
C245 C240 1.390 . S
C245 C244 1.361 . S
C245 H263 0.931 . S
C246 C244 1.500 . S
C246 C247 1.371 . S
C246 C248 1.365 . S
C247 C246 1.371 . S
C247 C257 1.386 . S
C247 H265 0.931 . S
C248 C246 1.365 . S
C248 C249 1.409 . S
C248 H266 0.929 . S
C249 C248 1.409 . S
C249 C250 1.380 . S
C249 H267 0.930 . S
C250 C249 1.380 . S
C250 C257 1.357 . S
C251 C242 1.511 . S
C251 C252 1.341 . S
C251 C253 1.371 . S
C252 C251 1.341 . S
C252 C256 1.394 . S
C252 H268 0.930 . S
C253 C251 1.371 . S
C253 C254 1.392 . S
C253 H269 0.931 . S
C254 C253 1.392 . S
C254 C255 1.331 . S
C254 H272 0.932 . S
C255 C254 1.331 . S
C255 C256 1.336 . S
C256 C252 1.394 . S
C256 C255 1.336 . S
C256 H271 0.929 . S
C257 C247 1.386 . S
C257 C250 1.357 . S
C257 H270 0.928 . S
H258 C234 0.931 . S
H259 C236 0.930 . S
H260 C238 0.929 . S
H261 C239 0.931 1_455 S
H262 C241 0.930 . S
H263 C245 0.931 . S
H264 C243 0.931 . S
H265 C247 0.931 . S
H266 C248 0.929 . S
H267 C249 0.930 . S
H268 C252 0.930 . S
H269 C253 0.931 . S
H270 C257 0.928 . S
H271 C256 0.929 . S
H272 C254 0.932 . S
C273 C274 1.386 . S
C273 C275 1.397 . S
C273 H297 0.931 . S
C274 C273 1.386 . S
C274 C278 1.397 . S
C275 C273 1.397 . S
C275 C276 1.384 . S
C275 H298 0.930 . S
C276 C275 1.384 . S
C276 C277 1.377 . S
C276 C279 1.481 . S
C277 C276 1.377 . S
C277 C278 1.389 . S
C277 H299 0.929 . S
C278 C274 1.397 . S
C278 C277 1.389 . S
C278 H300 0.931 . S
C279 C276 1.481 . S
C279 C280 1.387 . S
C279 C284 1.390 . S
C280 C279 1.387 . S
C280 C281 1.401 . S
C280 H301 0.930 . S
C281 C280 1.401 . S
C281 C282 1.376 . S
C281 C290 1.511 . S
C282 C281 1.376 . S
C282 C283 1.392 . S
C282 H303 0.931 . S
C283 C282 1.392 . S
C283 C284 1.361 . S
C283 C285 1.500 . S
C284 C279 1.390 . S
C284 C283 1.361 . S
C284 H302 0.931 . S
C285 C283 1.500 . S
C285 C286 1.371 . S
C285 C287 1.365 . S
C286 C285 1.371 . S
C286 C296 1.386 . S
C286 H304 0.931 . S
C287 C285 1.365 . S
C287 C288 1.409 . S
C287 H305 0.929 . S
C288 C287 1.409 . S
C288 C289 1.380 . S
C288 H306 0.930 . S
C289 C288 1.380 . S
C289 C296 1.357 . S
C290 C281 1.511 . S
C290 C291 1.341 . S
C290 C292 1.371 . S
C291 C290 1.341 . S
C291 C295 1.394 . S
C291 H307 0.930 . S
C292 C290 1.371 . S
C292 C293 1.392 . S
C292 H308 0.931 . S
C293 C292 1.392 . S
C293 C294 1.331 . S
C293 H311 0.932 . S
C294 C293 1.331 . S
C294 C295 1.336 . S
C295 C291 1.394 . S
C295 C294 1.336 . S
C295 H310 0.929 . S
C296 C286 1.386 . S
C296 C289 1.357 . S
C296 H309 0.928 . S
H297 C273 0.931 . S
H298 C275 0.930 . S
H299 C277 0.929 . S
H300 C278 0.931 . S
H301 C280 0.930 . S
H302 C284 0.931 . S
H303 C282 0.931 . S
H304 C286 0.931 . S
H305 C287 0.929 . S
H306 C288 0.930 . S
H307 C291 0.930 . S
H308 C292 0.931 . S
H309 C296 0.928 . S
H310 C295 0.929 . S
H311 C293 0.932 . S
C312 C313 1.386 . S
C312 C314 1.397 . S
C312 H336 0.931 . S
C313 C312 1.386 . S
C313 C317 1.397 . S
C314 C312 1.397 . S
C314 C315 1.384 . S
C314 H337 0.930 . S
C315 C314 1.384 . S
C315 C316 1.377 . S
C315 C318 1.481 . S
C316 C315 1.377 . S
C316 C317 1.389 . S
C316 H338 0.929 . S
C317 C313 1.397 . S
C317 C316 1.389 . S
C317 H339 0.931 . S
C318 C315 1.481 . S
C318 C319 1.387 . S
C318 C323 1.390 . S
C319 C318 1.387 . S
C319 C320 1.401 . S
C319 H340 0.930 . S
C320 C319 1.401 . S
C320 C321 1.376 . S
C320 C329 1.511 . S
C321 C320 1.376 . S
C321 C322 1.392 . S
C321 H342 0.931 . S
C322 C321 1.392 . S
C322 C323 1.361 . S
C322 C324 1.500 . S
C323 C318 1.390 . S
C323 C322 1.361 . S
C323 H341 0.931 . S
C324 C322 1.500 . S
C324 C325 1.371 . S
C324 C326 1.365 . S
C325 C324 1.371 . S
C325 C335 1.386 . S
C325 H343 0.931 . S
C326 C324 1.365 . S
C326 C327 1.409 . S
C326 H344 0.929 . S
C327 C326 1.409 . S
C327 C328 1.380 . S
C327 H345 0.930 . S
C328 C327 1.380 . S
C328 C335 1.357 . S
C329 C320 1.511 . S
C329 C330 1.341 . S
C329 C331 1.371 . S
C330 C329 1.341 . S
C330 C334 1.394 . S
C330 H346 0.930 . S
C331 C329 1.371 . S
C331 C332 1.392 . S
C331 H347 0.931 . S
C332 C331 1.392 . S
C332 C333 1.331 . S
C332 H350 0.932 . S
C333 C332 1.331 . S
C333 C334 1.336 . S
C334 C330 1.394 . S
C334 C333 1.336 . S
C334 H349 0.929 . S
C335 C325 1.386 . S
C335 C328 1.357 . S
C335 H348 0.928 . S
H336 C312 0.931 . S
H337 C314 0.930 . S
H338 C316 0.929 . S
H339 C317 0.931 . S
H340 C319 0.930 . S
H341 C323 0.931 . S
H342 C321 0.931 . S
H343 C325 0.931 . S
H344 C326 0.929 . S
H345 C327 0.930 . S
H346 C330 0.930 . S
H347 C331 0.931 . S
H348 C335 0.928 . S
H349 C334 0.929 . S
H350 C332 0.932 . S
C351 C352 1.386 . S
C351 C353 1.397 . S
C351 H375 0.931 . S
C352 C351 1.386 . S
C352 C356 1.397 . S
C353 C351 1.397 . S
C353 C354 1.384 . S
C353 H376 0.930 . S
C354 C353 1.384 . S
C354 C355 1.377 . S
C354 C357 1.481 . S
C355 C354 1.377 . S
C355 C356 1.389 . S
C355 H377 0.929 . S
C356 C352 1.397 . S
C356 C355 1.389 . S
C356 H378 0.931 . S
C357 C354 1.481 . S
C357 C358 1.387 . S
C357 C362 1.390 . S
C358 C357 1.387 . S
C358 C359 1.401 . S
C358 H379 0.930 . S
C359 C358 1.401 . S
C359 C360 1.376 . S
C359 C368 1.511 . S
C360 C359 1.376 . S
C360 C361 1.392 . S
C360 H381 0.931 . S
C361 C360 1.392 . S
C361 C362 1.361 . S
C361 C363 1.500 . S
C362 C357 1.390 . S
C362 C361 1.361 . S
C362 H380 0.931 . S
C363 C361 1.500 . S
C363 C364 1.371 . S
C363 C365 1.365 . S
C364 C363 1.371 . S
C364 C374 1.386 . S
C364 H382 0.931 . S
C365 C363 1.365 . S
C365 C366 1.409 . S
C365 H383 0.929 . S
C366 C365 1.409 . S
C366 C367 1.380 . S
C366 H384 0.930 . S
C367 C366 1.380 . S
C367 C374 1.357 . S
C368 C359 1.511 . S
C368 C369 1.341 . S
C368 C370 1.371 . S
C369 C368 1.341 . S
C369 C373 1.394 . S
C369 H385 0.930 . S
C370 C368 1.371 . S
C370 C371 1.392 . S
C370 H386 0.931 . S
C371 C370 1.392 . S
C371 C372 1.331 . S
C371 H389 0.932 1_556 S
C372 C371 1.331 . S
C372 C373 1.336 . S
C373 C369 1.394 . S
C373 C372 1.336 . S
C373 H388 0.929 . S
C374 C364 1.386 . S
C374 C367 1.357 . S
C374 H387 0.928 . S
H375 C351 0.931 . S
H376 C353 0.930 . S
H377 C355 0.929 . S
H378 C356 0.931 . S
H379 C358 0.930 . S
H380 C362 0.931 . S
H381 C360 0.931 . S
H382 C364 0.931 . S
H383 C365 0.929 . S
H384 C366 0.930 . S
H385 C369 0.930 . S
H386 C370 0.931 . S
H387 C374 0.928 . S
H388 C373 0.929 . S
H389 C371 0.932 1_554 S
C390 C391 1.386 . S
C390 C392 1.397 . S
C390 H414 0.931 . S
C391 C390 1.386 . S
C391 C395 1.397 . S
C392 C390 1.397 . S
C392 C393 1.384 . S
C392 H415 0.930 . S
C393 C392 1.384 . S
C393 C394 1.377 . S
C393 C396 1.481 . S
C394 C393 1.377 . S
C394 C395 1.389 . S
C394 H416 0.929 . S
C395 C391 1.397 . S
C395 C394 1.389 . S
C395 H417 0.931 . S
C396 C393 1.481 . S
C396 C397 1.387 . S
C396 C401 1.390 . S
C397 C396 1.387 . S
C397 C398 1.401 . S
C397 H418 0.930 . S
C398 C397 1.401 . S
C398 C399 1.376 . S
C398 C407 1.511 . S
C399 C398 1.376 . S
C399 C400 1.392 . S
C399 H420 0.931 . S
C400 C399 1.392 . S
C400 C401 1.361 . S
C400 C402 1.500 . S
C401 C396 1.390 . S
C401 C400 1.361 . S
C401 H419 0.931 . S
C402 C400 1.500 . S
C402 C403 1.371 . S
C402 C404 1.365 . S
C403 C402 1.371 . S
C403 C413 1.386 . S
C403 H421 0.931 . S
C404 C402 1.365 . S
C404 C405 1.409 . S
C404 H422 0.929 . S
C405 C404 1.409 . S
C405 C406 1.380 . S
C405 H423 0.930 . S
C406 C405 1.380 . S
C406 C413 1.357 . S
C407 C398 1.511 . S
C407 C408 1.341 . S
C407 C409 1.371 . S
C408 C407 1.341 . S
C408 C412 1.394 . S
C408 H424 0.930 . S
C409 C407 1.371 . S
C409 C410 1.392 . S
C409 H425 0.931 . S
C410 C409 1.392 . S
C410 C411 1.331 . S
C410 H428 0.932 1_556 S
C411 C410 1.331 . S
C411 C412 1.336 . S
C412 C408 1.394 . S
C412 C411 1.336 . S
C412 H427 0.929 . S
C413 C403 1.386 . S
C413 C406 1.357 . S
C413 H426 0.928 1_556 S
H414 C390 0.931 . S
H415 C392 0.930 . S
H416 C394 0.929 . S
H417 C395 0.931 . S
H418 C397 0.930 . S
H419 C401 0.931 . S
H420 C399 0.931 . S
H421 C403 0.931 . S
H422 C404 0.929 . S
H423 C405 0.930 . S
H424 C408 0.930 . S
H425 C409 0.931 . S
H426 C413 0.928 1_554 S
H427 C412 0.929 . S
H428 C410 0.932 1_554 S
C429 C430 1.386 . S
C429 C431 1.397 . S
C429 H453 0.931 . S
C430 C429 1.386 . S
C430 C434 1.397 . S
C431 C429 1.397 . S
C431 C432 1.384 . S
C431 H454 0.930 . S
C432 C431 1.384 . S
C432 C433 1.377 . S
C432 C435 1.481 . S
C433 C432 1.377 . S
C433 C434 1.389 . S
C433 H455 0.929 . S
C434 C430 1.397 . S
C434 C433 1.389 . S
C434 H456 0.931 . S
C435 C432 1.481 . S
C435 C436 1.387 . S
C435 C440 1.390 . S
C436 C435 1.387 . S
C436 C437 1.401 . S
C436 H457 0.930 . S
C437 C436 1.401 . S
C437 C438 1.376 . S
C437 C446 1.511 . S
C438 C437 1.376 . S
C438 C439 1.392 . S
C438 H459 0.931 . S
C439 C438 1.392 . S
C439 C440 1.361 . S
C439 C441 1.500 . S
C440 C435 1.390 . S
C440 C439 1.361 . S
C440 H458 0.931 . S
C441 C439 1.500 . S
C441 C442 1.371 . S
C441 C443 1.365 . S
C442 C441 1.371 . S
C442 C452 1.386 . S
C442 H460 0.931 . S
C443 C441 1.365 . S
C443 C444 1.409 . S
C443 H461 0.929 . S
C444 C443 1.409 . S
C444 C445 1.380 . S
C444 H462 0.930 . S
C445 C444 1.380 . S
C445 C452 1.357 . S
C446 C437 1.511 . S
C446 C447 1.341 . S
C446 C448 1.371 . S
C447 C446 1.341 . S
C447 C451 1.394 . S
C447 H463 0.930 . S
C448 C446 1.371 . S
C448 C449 1.392 . S
C448 H464 0.931 . S
C449 C448 1.392 . S
C449 C450 1.331 . S
C449 H467 0.932 1_556 S
C450 C449 1.331 . S
C450 C451 1.336 . S
C451 C447 1.394 . S
C451 C450 1.336 . S
C451 H466 0.929 . S
C452 C442 1.386 . S
C452 C445 1.357 . S
C452 H465 0.912 1_556 S
H453 C429 0.931 . S
H454 C431 0.930 . S
H455 C433 0.929 . S
H456 C434 0.931 . S
H457 C436 0.930 . S
H458 C440 0.931 . S
H459 C438 0.931 . S
H460 C442 0.931 . S
H461 C443 0.929 . S
H462 C444 0.930 . S
H463 C447 0.930 . S
H464 C448 0.931 . S
H465 C452 0.912 1_554 S
H466 C451 0.929 . S
H467 C449 0.932 1_554 S
C468 C469 1.386 . S
C468 C470 1.397 . S
C468 H492 0.931 . S
C469 C468 1.386 . S
C469 C473 1.397 . S
C470 C468 1.397 . S
C470 C471 1.384 . S
C470 H493 0.930 . S
C471 C470 1.384 . S
C471 C472 1.377 . S
C471 C474 1.481 . S
C472 C471 1.377 . S
C472 C473 1.389 . S
C472 H494 0.929 . S
C473 C469 1.397 . S
C473 C472 1.389 . S
C473 H495 0.931 . S
C474 C471 1.481 . S
C474 C475 1.387 . S
C474 C479 1.390 . S
C475 C474 1.387 . S
C475 C476 1.401 . S
C475 H496 0.930 . S
C476 C475 1.401 . S
C476 C477 1.376 . S
C476 C485 1.511 . S
C477 C476 1.376 . S
C477 C478 1.392 . S
C477 H498 0.931 . S
C478 C477 1.392 . S
C478 C479 1.361 . S
C478 C480 1.500 . S
C479 C474 1.390 . S
C479 C478 1.361 . S
C479 H497 0.931 . S
C480 C478 1.500 . S
C480 C481 1.371 . S
C480 C482 1.365 . S
C481 C480 1.371 . S
C481 C491 1.386 . S
C481 H499 0.931 . S
C482 C480 1.365 . S
C482 C483 1.409 . S
C482 H500 0.929 . S
C483 C482 1.409 . S
C483 C484 1.380 . S
C483 H501 0.930 . S
C484 C483 1.380 . S
C484 C491 1.357 . S
C485 C476 1.511 . S
C485 C486 1.341 . S
C485 C487 1.371 . S
C486 C485 1.341 . S
C486 C490 1.394 . S
C486 H502 0.930 . S
C487 C485 1.371 . S
C487 C488 1.392 . S
C487 H503 0.931 . S
C488 C487 1.392 . S
C488 C489 1.331 . S
C488 H506 0.932 1_554 S
C489 C488 1.331 . S
C489 C490 1.336 . S
C490 C486 1.394 . S
C490 C489 1.336 . S
C490 H505 0.929 . S
C491 C481 1.386 . S
C491 C484 1.357 . S
C491 H504 0.928 . S
H492 C468 0.931 . S
H493 C470 0.930 . S
H494 C472 0.929 . S
H495 C473 0.931 . S
H496 C475 0.930 . S
H497 C479 0.931 . S
H498 C477 0.931 . S
H499 C481 0.931 . S
H500 C482 0.929 . S
H501 C483 0.930 . S
H502 C486 0.930 . S
H503 C487 0.931 . S
H504 C491 0.928 . S
H505 C490 0.929 . S
H506 C488 0.932 1_556 S
C507 C508 1.386 . S
C507 C509 1.397 . S
C507 H531 0.931 . S
C508 C507 1.386 . S
C508 C512 1.397 . S
C509 C507 1.397 . S
C509 C510 1.384 . S
C509 H532 0.930 . S
C510 C509 1.384 . S
C510 C511 1.377 . S
C510 C513 1.481 . S
C511 C510 1.377 . S
C511 C512 1.389 . S
C511 H533 0.929 . S
C512 C508 1.397 . S
C512 C511 1.389 . S
C512 H534 0.931 . S
C513 C510 1.481 . S
C513 C514 1.387 . S
C513 C518 1.390 . S
C514 C513 1.387 . S
C514 C515 1.401 . S
C514 H535 0.930 . S
C515 C514 1.401 . S
C515 C516 1.376 . S
C515 C524 1.511 . S
C516 C515 1.376 . S
C516 C517 1.392 . S
C516 H537 0.931 . S
C517 C516 1.392 . S
C517 C518 1.361 . S
C517 C519 1.500 . S
C518 C513 1.390 . S
C518 C517 1.361 . S
C518 H536 0.931 . S
C519 C517 1.500 . S
C519 C520 1.371 . S
C519 C521 1.365 . S
C520 C519 1.371 . S
C520 C530 1.386 . S
C520 H538 0.931 . S
C521 C519 1.365 . S
C521 C522 1.409 . S
C521 H539 0.929 . S
C522 C521 1.409 . S
C522 C523 1.380 . S
C522 H540 0.930 . S
C523 C522 1.380 . S
C523 C530 1.357 . S
C524 C515 1.511 . S
C524 C525 1.341 . S
C524 C526 1.371 . S
C525 C524 1.341 . S
C525 C529 1.394 . S
C525 H541 0.930 . S
C526 C524 1.371 . S
C526 C527 1.392 . S
C526 H542 0.931 . S
C527 C526 1.392 . S
C527 C528 1.331 . S
C527 H545 0.932 . S
C528 C527 1.331 . S
C528 C529 1.336 . S
C529 C525 1.394 . S
C529 C528 1.336 . S
C529 H544 0.929 . S
C530 C520 1.386 . S
C530 C523 1.357 . S
C530 H543 0.928 1_554 S
H531 C507 0.931 . S
H532 C509 0.930 . S
H533 C511 0.929 . S
H534 C512 0.931 . S
H535 C514 0.930 . S
H536 C518 0.931 . S
H537 C516 0.931 . S
H538 C520 0.931 . S
H539 C521 0.929 . S
H540 C522 0.930 . S
H541 C525 0.930 . S
H542 C526 0.931 . S
H543 C530 0.928 1_556 S
H544 C529 0.929 . S
H545 C527 0.932 . S
C546 C547 1.386 . S
C546 C548 1.397 . S
C546 H570 0.931 . S
C547 C546 1.386 . S
C547 C551 1.397 . S
C548 C546 1.397 . S
C548 C549 1.384 . S
C548 H571 0.930 . S
C549 C548 1.384 . S
C549 C550 1.377 . S
C549 C552 1.481 . S
C550 C549 1.377 . S
C550 C551 1.389 . S
C550 H572 0.929 . S
C551 C547 1.397 . S
C551 C550 1.389 . S
C551 H573 0.931 . S
C552 C549 1.481 . S
C552 C553 1.387 . S
C552 C557 1.390 . S
C553 C552 1.387 . S
C553 C554 1.401 . S
C553 H574 0.930 . S
C554 C553 1.401 . S
C554 C555 1.376 . S
C554 C563 1.511 . S
C555 C554 1.376 . S
C555 C556 1.392 . S
C555 H576 0.931 . S
C556 C555 1.392 . S
C556 C557 1.361 . S
C556 C558 1.500 . S
C557 C552 1.390 . S
C557 C556 1.361 . S
C557 H575 0.931 . S
C558 C556 1.500 . S
C558 C559 1.371 . S
C558 C560 1.365 . S
C559 C558 1.371 . S
C559 C569 1.386 . S
C559 H577 0.931 . S
C560 C558 1.365 . S
C560 C561 1.409 . S
C560 H578 0.929 . S
C561 C560 1.409 . S
C561 C562 1.380 . S
C561 H579 0.930 . S
C562 C561 1.380 . S
C562 C569 1.357 . S
C563 C554 1.511 . S
C563 C564 1.341 . S
C563 C565 1.371 . S
C564 C563 1.341 . S
C564 C568 1.394 . S
C564 H580 0.930 . S
C565 C563 1.371 . S
C565 C566 1.392 . S
C565 H581 0.931 . S
C566 C565 1.392 . S
C566 C567 1.331 . S
C566 H584 0.932 1_554 S
C567 C566 1.331 . S
C567 C568 1.336 . S
C568 C564 1.394 . S
C568 C567 1.336 . S
C568 H583 0.929 . S
C569 C559 1.386 . S
C569 C562 1.357 . S
C569 H582 0.928 . S
H570 C546 0.931 . S
H571 C548 0.930 . S
H572 C550 0.929 . S
H573 C551 0.931 . S
H574 C553 0.930 . S
H575 C557 0.931 . S
H576 C555 0.931 . S
H577 C559 0.931 . S
H578 C560 0.929 . S
H579 C561 0.930 . S
H580 C564 0.930 . S
H581 C565 0.931 . S
H582 C569 0.928 . S
H583 C568 0.929 . S
H584 C566 0.932 1_556 S
C585 C586 1.386 . S
C585 C587 1.397 . S
C585 H609 0.931 . S
C586 C585 1.386 . S
C586 C590 1.397 . S
C587 C585 1.397 . S
C587 C588 1.384 . S
C587 H610 0.930 . S
C588 C587 1.384 . S
C588 C589 1.377 . S
C588 C591 1.481 . S
C589 C588 1.377 . S
C589 C590 1.389 . S
C589 H611 0.929 . S
C590 C586 1.397 . S
C590 C589 1.389 . S
C590 H612 0.931 . S
C591 C588 1.481 . S
C591 C592 1.387 . S
C591 C596 1.390 . S
C592 C591 1.387 . S
C592 C593 1.401 . S
C592 H613 0.930 . S
C593 C592 1.401 . S
C593 C594 1.376 . S
C593 C602 1.511 . S
C594 C593 1.376 . S
C594 C595 1.392 . S
C594 H615 0.931 . S
C595 C594 1.392 . S
C595 C596 1.361 . S
C595 C597 1.500 . S
C596 C591 1.390 . S
C596 C595 1.361 . S
C596 H614 0.931 . S
C597 C595 1.500 . S
C597 C598 1.371 . S
C597 C599 1.365 . S
C598 C597 1.371 . S
C598 C608 1.386 . S
C598 H616 0.931 . S
C599 C597 1.365 . S
C599 C600 1.409 . S
C599 H617 0.929 . S
C600 C599 1.409 . S
C600 C601 1.380 . S
C600 H618 0.930 . S
C601 C600 1.380 . S
C601 C608 1.357 . S
C602 C593 1.511 . S
C602 C603 1.341 . S
C602 C604 1.371 . S
C603 C602 1.341 . S
C603 C607 1.394 . S
C603 H619 0.930 . S
C604 C602 1.371 . S
C604 C605 1.392 . S
C604 H620 0.931 . S
C605 C604 1.392 . S
C605 C606 1.331 . S
C605 H623 0.932 . S
C606 C605 1.331 . S
C606 C607 1.336 . S
C607 C603 1.394 . S
C607 C606 1.336 . S
C607 H622 0.929 . S
C608 C598 1.386 . S
C608 C601 1.357 . S
C608 H621 0.928 . S
H609 C585 0.931 . S
H610 C587 0.930 . S
H611 C589 0.929 . S
H612 C590 0.931 . S
H613 C592 0.930 . S
H614 C596 0.931 . S
H615 C594 0.931 . S
H616 C598 0.931 . S
H617 C599 0.929 . S
H618 C600 0.930 . S
H619 C603 0.930 . S
H620 C604 0.931 . S
H621 C608 0.928 . S
H622 C607 0.929 . S
H623 C605 0.932 . S
C624 C625 1.386 . S
C624 C626 1.397 . S
C624 H648 0.931 1_455 S
C625 C624 1.386 . S
C625 C629 1.397 . S
C626 C624 1.397 . S
C626 C627 1.384 . S
C626 H649 0.930 . S
C627 C626 1.384 . S
C627 C628 1.377 . S
C627 C630 1.481 . S
C628 C627 1.377 . S
C628 C629 1.389 . S
C628 H650 0.929 . S
C629 C625 1.397 . S
C629 C628 1.389 . S
C629 H651 0.931 . S
C630 C627 1.481 . S
C630 C631 1.387 . S
C630 C635 1.390 . S
C631 C630 1.387 . S
C631 C632 1.401 . S
C631 H652 0.930 . S
C632 C631 1.401 . S
C632 C633 1.376 . S
C632 C641 1.511 . S
C633 C632 1.376 . S
C633 C634 1.392 . S
C633 H654 0.931 . S
C634 C633 1.392 . S
C634 C635 1.361 . S
C634 C636 1.500 . S
C635 C630 1.390 . S
C635 C634 1.361 . S
C635 H653 0.931 . S
C636 C634 1.500 . S
C636 C637 1.371 . S
C636 C638 1.365 . S
C637 C636 1.371 . S
C637 C647 1.386 . S
C637 H655 0.931 . S
C638 C636 1.365 . S
C638 C639 1.409 . S
C638 H656 0.929 . S
C639 C638 1.409 . S
C639 C640 1.380 . S
C639 H657 0.930 . S
C640 C639 1.380 . S
C640 C647 1.357 . S
C641 C632 1.511 . S
C641 C642 1.341 . S
C641 C643 1.371 . S
C642 C641 1.341 . S
C642 C646 1.394 . S
C642 H658 0.930 . S
C643 C641 1.371 . S
C643 C644 1.392 . S
C643 H659 0.931 . S
C644 C643 1.392 . S
C644 C645 1.331 . S
C644 H662 0.932 . S
C645 C644 1.331 . S
C645 C646 1.336 . S
C646 C642 1.394 . S
C646 C645 1.336 . S
C646 H661 0.929 . S
C647 C637 1.386 . S
C647 C640 1.357 . S
C647 H660 0.928 . S
H648 C624 0.931 1_655 S
H649 C626 0.930 . S
H650 C628 0.929 . S
H651 C629 0.931 . S
H652 C631 0.930 . S
H653 C635 0.931 . S
H654 C633 0.931 . S
H655 C637 0.931 . S
H656 C638 0.929 . S
H657 C639 0.930 . S
H658 C642 0.930 . S
H659 C643 0.931 . S
H660 C647 0.928 . S
H661 C646 0.929 . S
H662 C644 0.932 . S
C663 C664 1.386 . S
C663 C665 1.397 . S
C663 H687 0.931 . S
C664 C663 1.386 . S
C664 C668 1.397 . S
C665 C663 1.397 . S
C665 C666 1.384 . S
C665 H688 0.930 . S
C666 C665 1.384 . S
C666 C667 1.377 . S
C666 C669 1.481 . S
C667 C666 1.377 . S
C667 C668 1.389 . S
C667 H689 0.929 . S
C668 C664 1.397 . S
C668 C667 1.389 . S
C668 H690 0.931 . S
C669 C666 1.481 . S
C669 C670 1.387 . S
C669 C674 1.390 . S
C670 C669 1.387 . S
C670 C671 1.401 . S
C670 H691 0.930 . S
C671 C670 1.401 . S
C671 C672 1.376 . S
C671 C680 1.511 . S
C672 C671 1.376 . S
C672 C673 1.392 . S
C672 H693 0.931 . S
C673 C672 1.392 . S
C673 C674 1.361 . S
C673 C675 1.500 . S
C674 C669 1.390 . S
C674 C673 1.361 . S
C674 H692 0.931 . S
C675 C673 1.500 . S
C675 C676 1.371 . S
C675 C677 1.365 . S
C676 C675 1.371 . S
C676 C686 1.386 . S
C676 H694 0.931 . S
C677 C675 1.365 . S
C677 C678 1.409 . S
C677 H695 0.929 . S
C678 C677 1.409 . S
C678 C679 1.380 . S
C678 H696 0.930 . S
C679 C678 1.380 . S
C679 C686 1.357 . S
C680 C671 1.511 . S
C680 C681 1.341 . S
C680 C682 1.371 . S
C681 C680 1.341 . S
C681 C685 1.394 . S
C681 H697 0.930 . S
C682 C680 1.371 . S
C682 C683 1.392 . S
C682 H698 0.931 . S
C683 C682 1.392 . S
C683 C684 1.331 . S
C683 H701 0.932 . S
C684 C683 1.331 . S
C684 C685 1.336 . S
C685 C681 1.394 . S
C685 C684 1.336 . S
C685 H700 0.929 . S
C686 C676 1.386 . S
C686 C679 1.357 . S
C686 H699 0.928 . S
H687 C663 0.931 . S
H688 C665 0.930 . S
H689 C667 0.929 . S
H690 C668 0.931 . S
H691 C670 0.930 . S
H692 C674 0.931 . S
H693 C672 0.931 . S
H694 C676 0.931 . S
H695 C677 0.929 . S
H696 C678 0.930 . S
H697 C681 0.930 . S
H698 C682 0.931 . S
H699 C686 0.928 . S
H700 C685 0.929 . S
H701 C683 0.932 . S
Tb702 N733 2.660 . S
Tb702 N740 2.600 . S
Tb702 O746 2.546 . S
Tb702 O747 2.610 1_565 S
Tb702 O749 2.320 1_565 S
Tb702 O750 2.552 1_565 S
Tb702 O751 2.413 . S
Tb702 O753 2.362 1_556 S
Tb702 O754 2.421 . S
Tb702 C766 2.833 . S
C703 C706 1.432 . S
C703 C707 1.414 . S
C703 N710 1.359 . S
C704 C706 1.417 . S
C704 C708 1.432 . S
C704 C716 1.410 . S
C705 C707 1.444 . S
C705 C708 1.317 . S
C705 H728 0.929 . S
C706 C703 1.432 . S
C706 C704 1.417 . S
C706 N714 1.360 . S
C707 C703 1.414 . S
C707 C705 1.444 . S
C707 C712 1.385 . S
C708 C704 1.432 . S
C708 C705 1.317 . S
C708 H720 0.930 . S
C709 C711 1.392 . S
C709 C712 1.370 . S
C709 H721 0.931 . S
N710 C703 1.359 . S
N710 C711 1.327 . S
N710 Tb713 2.600 . S
C711 C709 1.392 . S
C711 N710 1.327 . S
C711 H718 0.930 . S
C712 C707 1.385 . S
C712 C709 1.370 . S
C712 H731 0.930 . S
Tb713 N710 2.600 . S
Tb713 N714 2.660 . S
Tb713 O747 2.362 1_554 S
Tb713 O748 2.421 . S
Tb713 O752 2.546 . S
Tb713 O753 2.610 1_545 S
Tb713 O755 2.320 1_545 S
Tb713 O756 2.552 1_545 S
Tb713 O757 2.413 . S
Tb713 C777 2.833 . S
N714 C706 1.360 . S
N714 Tb713 2.660 . S
N714 C715 1.305 . S
C715 N714 1.305 . S
C715 C717 1.407 . S
C715 H722 0.930 . S
C716 C704 1.410 . S
C716 C717 1.345 . S
C716 H724 0.930 . S
C717 C715 1.407 . S
C717 C716 1.345 . S
C717 H719 0.930 . S
H718 C711 0.930 . S
H719 C717 0.930 . S
H720 C708 0.930 . S
H721 C709 0.931 . S
H722 C715 0.930 . S
H723 C737 0.930 . S
H724 C716 0.930 . S
H725 C743 0.930 . S
H726 C734 0.930 . S
H727 C741 0.931 . S
H728 C705 0.929 . S
H729 C735 0.930 . S
H730 C768 0.930 . S
H731 C712 0.930 . S
H732 C767 0.929 . S
N733 Tb702 2.660 . S
N733 C734 1.305 . S
N733 C738 1.360 . S
C734 H726 0.930 . S
C734 N733 1.305 . S
C734 C737 1.407 . S
C735 H729 0.930 . S
C735 C736 1.410 . S
C735 C737 1.345 . S
C736 C735 1.410 . S
C736 C738 1.417 . S
C736 C768 1.432 . S
C737 H723 0.930 . S
C737 C734 1.407 . S
C737 C735 1.345 . S
C738 N733 1.360 . S
C738 C736 1.417 . S
C738 C742 1.432 . S
H739 C744 0.930 . S
N740 Tb702 2.600 . S
N740 C742 1.359 . S
N740 C743 1.327 . S
C741 H727 0.931 . S
C741 C743 1.392 . S
C741 C744 1.370 . S
C742 C738 1.432 . S
C742 N740 1.359 . S
C742 C745 1.414 . S
C743 H725 0.930 . S
C743 N740 1.327 . S
C743 C741 1.392 . S
C744 H739 0.930 . S
C744 C741 1.370 . S
C744 C745 1.385 . S
C745 C742 1.414 . S
C745 C744 1.385 . S
C745 C767 1.444 . S
O746 Tb702 2.546 . S
O746 C766 1.251 . S
O747 Tb702 2.610 1_545 S
O747 Tb713 2.362 1_556 S
O747 C758 1.283 . S
O748 Tb713 2.421 . S
O748 C765 1.262 1_554 S
O749 Tb702 2.320 1_545 S
O749 C765 1.260 . S
O750 Tb702 2.552 1_545 S
O750 C758 1.243 . S
O751 Tb702 2.413 . S
O751 C766 1.256 . S
O752 Tb713 2.546 . S
O752 C777 1.251 . S
O753 Tb702 2.362 1_554 S
O753 Tb713 2.610 1_565 S
O753 C769 1.283 . S
O754 Tb702 2.421 . S
O754 C776 1.262 1_556 S
O755 Tb713 2.320 1_565 S
O755 C776 1.260 . S
O756 Tb713 2.552 1_565 S
O756 C769 1.243 . S
O757 Tb713 2.413 . S
O757 C777 1.256 . S
C758 O747 1.283 . S
C758 O750 1.243 . S
C759 C761 1.382 1_565 S
C759 C763 1.393 . S
C759 C766 1.500 . S
C760 C761 1.400 . S
C760 C762 1.384 1_545 S
C761 C759 1.382 1_545 S
C761 C760 1.400 . S
C761 H778 0.930 . S
C762 C760 1.384 1_565 S
C762 C764 1.392 . S
C762 H779 0.931 . S
C763 C759 1.393 . S
C763 C764 1.401 . S
C763 H780 0.930 . S
C764 C762 1.392 . S
C764 C763 1.401 . S
C764 H781 0.930 . S
C765 O748 1.262 1_556 S
C765 O749 1.260 . S
C766 Tb702 2.833 . S
C766 O746 1.251 . S
C766 O751 1.256 . S
C766 C759 1.500 . S
C767 H732 0.929 . S
C767 C745 1.444 . S
C767 C768 1.317 . S
C768 H730 0.930 . S
C768 C736 1.432 . S
C768 C767 1.317 . S
C769 O753 1.283 . S
C769 O756 1.243 . S
C770 C771 1.382 1_545 S
C770 C774 1.393 . S
C770 C777 1.500 . S
C771 C770 1.382 1_565 S
C771 C772 1.400 . S
C771 H782 0.930 . S
C772 C771 1.400 . S
C772 C773 1.384 1_565 S
C773 C772 1.384 1_545 S
C773 C775 1.392 . S
C773 H783 0.931 . S
C774 C770 1.393 . S
C774 C775 1.401 . S
C774 H784 0.930 . S
C775 C773 1.392 . S
C775 C774 1.401 . S
C775 H785 0.930 . S
C776 O754 1.262 1_554 S
C776 O755 1.260 . S
C777 Tb713 2.833 . S
C777 O752 1.251 . S
C777 O757 1.256 . S
C777 C770 1.500 . S
H778 C761 0.930 . S
H779 C762 0.931 . S
H780 C763 0.930 . S
H781 C764 0.930 . S
H782 C771 0.930 . S
H783 C773 0.931 . S
H784 C774 0.930 . S
H785 C775 0.930 . S
Tb786 N817 2.660 . S
Tb786 N824 2.600 . S
Tb786 O830 2.546 . S
Tb786 O831 2.610 1_455 S
Tb786 O833 2.320 1_455 S
Tb786 O834 2.552 1_455 S
Tb786 O835 2.413 . S
Tb786 O837 2.362 1_556 S
Tb786 O838 2.421 . S
Tb786 C850 2.833 . S
C787 C790 1.432 . S
C787 C791 1.414 . S
C787 N794 1.359 . S
C788 C790 1.417 . S
C788 C792 1.432 . S
C788 C800 1.410 . S
C789 C791 1.444 . S
C789 C792 1.317 . S
C789 H812 0.929 . S
C790 C787 1.432 . S
C790 C788 1.417 . S
C790 N798 1.360 . S
C791 C787 1.414 . S
C791 C789 1.444 . S
C791 C796 1.385 . S
C792 C788 1.432 . S
C792 C789 1.317 . S
C792 H804 0.930 . S
C793 C795 1.392 . S
C793 C796 1.370 . S
C793 H805 0.931 . S
N794 C787 1.359 . S
N794 C795 1.327 . S
N794 Tb797 2.600 . S
C795 C793 1.392 . S
C795 N794 1.327 . S
C795 H802 0.930 . S
C796 C791 1.385 . S
C796 C793 1.370 . S
C796 H815 0.930 . S
Tb797 N794 2.600 . S
Tb797 N798 2.660 . S
Tb797 O831 2.362 1_554 S
Tb797 O832 2.421 . S
Tb797 O836 2.546 . S
Tb797 O837 2.610 1_655 S
Tb797 O839 2.320 1_655 S
Tb797 O840 2.552 1_655 S
Tb797 O841 2.413 . S
Tb797 C861 2.833 . S
N798 C790 1.360 . S
N798 Tb797 2.660 . S
N798 C799 1.305 . S
C799 N798 1.305 . S
C799 C801 1.407 . S
C799 H806 0.930 . S
C800 C788 1.410 . S
C800 C801 1.345 . S
C800 H808 0.930 . S
C801 C799 1.407 . S
C801 C800 1.345 . S
C801 H803 0.930 . S
H802 C795 0.930 . S
H803 C801 0.930 . S
H804 C792 0.930 . S
H805 C793 0.931 . S
H806 C799 0.930 . S
H807 C821 0.930 . S
H808 C800 0.930 . S
H809 C827 0.930 . S
H810 C818 0.930 . S
H811 C825 0.931 . S
H812 C789 0.929 . S
H813 C819 0.930 . S
H814 C852 0.930 . S
H815 C796 0.930 . S
H816 C851 0.929 . S
N817 Tb786 2.660 . S
N817 C818 1.305 . S
N817 C822 1.360 . S
C818 H810 0.930 . S
C818 N817 1.305 . S
C818 C821 1.407 . S
C819 H813 0.930 . S
C819 C820 1.410 . S
C819 C821 1.345 . S
C820 C819 1.410 . S
C820 C822 1.417 . S
C820 C852 1.432 . S
C821 H807 0.930 . S
C821 C818 1.407 . S
C821 C819 1.345 . S
C822 N817 1.360 . S
C822 C820 1.417 . S
C822 C826 1.432 . S
H823 C828 0.930 . S
N824 Tb786 2.600 . S
N824 C826 1.359 . S
N824 C827 1.327 . S
C825 H811 0.931 . S
C825 C827 1.392 . S
C825 C828 1.370 . S
C826 C822 1.432 . S
C826 N824 1.359 . S
C826 C829 1.414 . S
C827 H809 0.930 . S
C827 N824 1.327 . S
C827 C825 1.392 . S
C828 H823 0.930 . S
C828 C825 1.370 . S
C828 C829 1.385 . S
C829 C826 1.414 . S
C829 C828 1.385 . S
C829 C851 1.444 . S
O830 Tb786 2.546 . S
O830 C850 1.251 . S
O831 Tb786 2.610 1_655 S
O831 Tb797 2.362 1_556 S
O831 C842 1.283 . S
O832 Tb797 2.421 . S
O832 C849 1.262 1_554 S
O833 Tb786 2.320 1_655 S
O833 C849 1.260 . S
O834 Tb786 2.552 1_655 S
O834 C842 1.243 . S
O835 Tb786 2.413 . S
O835 C850 1.256 . S
O836 Tb797 2.546 . S
O836 C861 1.251 . S
O837 Tb786 2.362 1_554 S
O837 Tb797 2.610 1_455 S
O837 C853 1.283 . S
O838 Tb786 2.421 . S
O838 C860 1.262 1_556 S
O839 Tb797 2.320 1_455 S
O839 C860 1.260 . S
O840 Tb797 2.552 1_455 S
O840 C853 1.243 . S
O841 Tb797 2.413 . S
O841 C861 1.256 . S
C842 O831 1.283 . S
C842 O834 1.243 . S
C843 C845 1.382 1_455 S
C843 C847 1.393 . S
C843 C850 1.500 . S
C844 C845 1.400 . S
C844 C846 1.384 1_655 S
C845 C843 1.382 1_655 S
C845 C844 1.400 . S
C845 H862 0.930 . S
C846 C844 1.384 1_455 S
C846 C848 1.392 . S
C846 H863 0.931 . S
C847 C843 1.393 . S
C847 C848 1.401 . S
C847 H864 0.930 . S
C848 C846 1.392 . S
C848 C847 1.401 . S
C848 H865 0.930 . S
C849 O832 1.262 1_556 S
C849 O833 1.260 . S
C850 Tb786 2.833 . S
C850 O830 1.251 . S
C850 O835 1.256 . S
C850 C843 1.500 . S
C851 H816 0.929 . S
C851 C829 1.444 . S
C851 C852 1.317 . S
C852 H814 0.930 . S
C852 C820 1.432 . S
C852 C851 1.317 . S
C853 O837 1.283 . S
C853 O840 1.243 . S
C854 C855 1.382 1_655 S
C854 C858 1.393 . S
C854 C861 1.500 . S
C855 C854 1.382 1_455 S
C855 C856 1.400 . S
C855 H866 0.930 . S
C856 C855 1.400 . S
C856 C857 1.384 1_455 S
C857 C856 1.384 1_655 S
C857 C859 1.392 . S
C857 H867 0.931 . S
C858 C854 1.393 . S
C858 C859 1.401 . S
C858 H868 0.930 . S
C859 C857 1.392 . S
C859 C858 1.401 . S
C859 H869 0.930 . S
C860 O838 1.262 1_554 S
C860 O839 1.260 . S
C861 Tb797 2.833 . S
C861 O836 1.251 . S
C861 O841 1.256 . S
C861 C854 1.500 . S
H862 C845 0.930 . S
H863 C846 0.931 . S
H864 C847 0.930 . S
H865 C848 0.930 . S
H866 C855 0.930 . S
H867 C857 0.931 . S
H868 C858 0.930 . S
H869 C859 0.930 . S
Tb870 N901 2.660 . S
Tb870 N908 2.600 . S
Tb870 O914 2.546 . S
Tb870 O915 2.610 . S
Tb870 O917 2.320 . S
Tb870 O918 2.552 . S
Tb870 O919 2.413 . S
Tb870 O921 2.362 1_554 S
Tb870 O922 2.421 . S
Tb870 C934 2.833 . S
C871 C874 1.432 . S
C871 C875 1.414 . S
C871 N878 1.359 . S
C872 C874 1.417 . S
C872 C876 1.432 . S
C872 C884 1.410 . S
C873 C875 1.444 . S
C873 C876 1.317 . S
C873 H896 0.929 . S
C874 C871 1.432 . S
C874 C872 1.417 . S
C874 N882 1.360 . S
C875 C871 1.414 . S
C875 C873 1.444 . S
C875 C880 1.385 . S
C876 C872 1.432 . S
C876 C873 1.317 . S
C876 H888 0.930 . S
C877 C879 1.392 . S
C877 C880 1.370 . S
C877 H889 0.931 . S
N878 C871 1.359 . S
N878 C879 1.327 . S
N878 Tb881 2.600 . S
C879 C877 1.392 . S
C879 N878 1.327 . S
C879 H886 0.930 . S
C880 C875 1.385 . S
C880 C877 1.370 . S
C880 H899 0.930 . S
Tb881 N878 2.600 . S
Tb881 N882 2.660 . S
Tb881 O915 2.362 1_556 S
Tb881 O916 2.421 . S
Tb881 O920 2.546 . S
Tb881 O921 2.610 . S
Tb881 O923 2.320 . S
Tb881 O924 2.552 . S
Tb881 O925 2.413 . S
Tb881 C945 2.833 . S
N882 C874 1.360 . S
N882 Tb881 2.660 . S
N882 C883 1.305 . S
C883 N882 1.305 . S
C883 C885 1.407 . S
C883 H890 0.930 . S
C884 C872 1.410 . S
C884 C885 1.345 . S
C884 H892 0.930 . S
C885 C883 1.407 . S
C885 C884 1.345 . S
C885 H887 0.930 . S
H886 C879 0.930 . S
H887 C885 0.930 . S
H888 C876 0.930 . S
H889 C877 0.931 . S
H890 C883 0.930 . S
H891 C905 0.930 . S
H892 C884 0.930 . S
H893 C911 0.930 . S
H894 C902 0.930 . S
H895 C909 0.931 . S
H896 C873 0.929 . S
H897 C903 0.930 . S
H898 C936 0.930 . S
H899 C880 0.930 . S
H900 C935 0.929 . S
N901 Tb870 2.660 . S
N901 C902 1.305 . S
N901 C906 1.360 . S
C902 H894 0.930 . S
C902 N901 1.305 . S
C902 C905 1.407 . S
C903 H897 0.930 . S
C903 C904 1.410 . S
C903 C905 1.345 . S
C904 C903 1.410 . S
C904 C906 1.417 . S
C904 C936 1.432 . S
C905 H891 0.930 . S
C905 C902 1.407 . S
C905 C903 1.345 . S
C906 N901 1.360 . S
C906 C904 1.417 . S
C906 C910 1.432 . S
H907 C912 0.930 . S
N908 Tb870 2.600 . S
N908 C910 1.359 . S
N908 C911 1.327 . S
C909 H895 0.931 . S
C909 C911 1.392 . S
C909 C912 1.370 . S
C910 C906 1.432 . S
C910 N908 1.359 . S
C910 C913 1.414 . S
C911 H893 0.930 . S
C911 N908 1.327 . S
C911 C909 1.392 . S
C912 H907 0.930 . S
C912 C909 1.370 . S
C912 C913 1.385 . S
C913 C910 1.414 . S
C913 C912 1.385 . S
C913 C935 1.444 . S
O914 Tb870 2.546 . S
O914 C934 1.251 . S
O915 Tb870 2.610 . S
O915 Tb881 2.362 1_554 S
O915 C926 1.283 . S
O916 Tb881 2.421 . S
O916 C933 1.262 1_556 S
O917 Tb870 2.320 . S
O917 C933 1.260 . S
O918 Tb870 2.552 . S
O918 C926 1.243 . S
O919 Tb870 2.413 . S
O919 C934 1.256 . S
O920 Tb881 2.546 . S
O920 C945 1.251 . S
O921 Tb870 2.362 1_556 S
O921 Tb881 2.610 . S
O921 C937 1.283 . S
O922 Tb870 2.421 . S
O922 C944 1.262 1_554 S
O923 Tb881 2.320 . S
O923 C944 1.260 . S
O924 Tb881 2.552 . S
O924 C937 1.243 . S
O925 Tb881 2.413 . S
O925 C945 1.256 . S
C926 O915 1.283 . S
C926 O918 1.243 . S
C927 C929 1.382 . S
C927 C931 1.393 . S
C927 C934 1.500 . S
C928 C929 1.400 . S
C928 C930 1.384 . S
C929 C927 1.382 . S
C929 C928 1.400 . S
C929 H946 0.930 . S
C930 C928 1.384 . S
C930 C932 1.392 . S
C930 H947 0.931 . S
C931 C927 1.393 . S
C931 C932 1.401 . S
C931 H948 0.930 . S
C932 C930 1.392 . S
C932 C931 1.401 . S
C932 H949 0.930 . S
C933 O916 1.262 1_554 S
C933 O917 1.260 . S
C934 Tb870 2.833 . S
C934 O914 1.251 . S
C934 O919 1.256 . S
C934 C927 1.500 . S
C935 H900 0.929 . S
C935 C913 1.444 . S
C935 C936 1.317 . S
C936 H898 0.930 . S
C936 C904 1.432 . S
C936 C935 1.317 . S
C937 O921 1.283 . S
C937 O924 1.243 . S
C938 C939 1.382 . S
C938 C942 1.393 . S
C938 C945 1.500 . S
C939 C938 1.382 . S
C939 C940 1.400 . S
C939 H950 0.930 . S
C940 C939 1.400 . S
C940 C941 1.384 . S
C941 C940 1.384 . S
C941 C943 1.392 . S
C941 H951 0.931 . S
C942 C938 1.393 . S
C942 C943 1.401 . S
C942 H952 0.930 . S
C943 C941 1.392 . S
C943 C942 1.401 . S
C943 H953 0.930 . S
C944 O922 1.262 1_556 S
C944 O923 1.260 . S
C945 Tb881 2.833 . S
C945 O920 1.251 . S
C945 O925 1.256 . S
C945 C938 1.500 . S
H946 C929 0.930 . S
H947 C930 0.931 . S
H948 C931 0.930 . S
H949 C932 0.930 . S
H950 C939 0.930 . S
H951 C941 0.931 . S
H952 C942 0.930 . S
H953 C943 0.930 . S
Tb954 N985 2.660 . S
Tb954 N992 2.600 . S
Tb954 O998 2.546 . S
Tb954 O999 2.610 . S
Tb954 O1001 2.320 . S
Tb954 O1002 2.552 . S
Tb954 O1003 2.413 . S
Tb954 O1005 2.362 . S
Tb954 O1006 2.421 . S
Tb954 C1018 2.833 . S
C955 C958 1.432 . S
C955 C959 1.414 . S
C955 N962 1.359 . S
C956 C958 1.417 . S
C956 C960 1.432 . S
C956 C968 1.410 . S
C957 C959 1.444 . S
C957 C960 1.317 . S
C957 H980 0.929 . S
C958 C955 1.432 . S
C958 C956 1.417 . S
C958 N966 1.360 . S
C959 C955 1.414 . S
C959 C957 1.444 . S
C959 C964 1.385 . S
C960 C956 1.432 . S
C960 C957 1.317 . S
C960 H972 0.930 . S
C961 C963 1.392 . S
C961 C964 1.370 . S
C961 H973 0.931 . S
N962 C955 1.359 . S
N962 C963 1.327 . S
N962 Tb965 2.600 . S
C963 C961 1.392 . S
C963 N962 1.327 . S
C963 H970 0.930 . S
C964 C959 1.385 . S
C964 C961 1.370 . S
C964 H983 0.930 . S
Tb965 N962 2.600 . S
Tb965 N966 2.660 . S
Tb965 O999 2.362 . S
Tb965 O1000 2.421 . S
Tb965 O1004 2.546 . S
Tb965 O1005 2.610 . S
Tb965 O1007 2.320 . S
Tb965 O1008 2.552 . S
Tb965 O1009 2.413 . S
Tb965 C1029 2.833 . S
N966 C958 1.360 . S
N966 Tb965 2.660 . S
N966 C967 1.305 . S
C967 N966 1.305 . S
C967 C969 1.407 . S
C967 H974 0.930 . S
C968 C956 1.410 . S
C968 C969 1.345 . S
C968 H976 0.930 . S
C969 C967 1.407 . S
C969 C968 1.345 . S
C969 H971 0.930 . S
H970 C963 0.930 . S
H971 C969 0.930 . S
H972 C960 0.930 . S
H973 C961 0.931 . S
H974 C967 0.930 . S
H975 C989 0.930 . S
H976 C968 0.930 . S
H977 C995 0.930 . S
H978 C986 0.930 . S
H979 C993 0.931 . S
H980 C957 0.929 . S
H981 C987 0.930 . S
H982 C1020 0.930 . S
H983 C964 0.930 . S
H984 C1019 0.929 . S
N985 Tb954 2.660 . S
N985 C986 1.305 . S
N985 C990 1.360 . S
C986 H978 0.930 . S
C986 N985 1.305 . S
C986 C989 1.407 1_455 S
C987 H981 0.930 . S
C987 C988 1.410 . S
C987 C989 1.345 . S
C988 C987 1.410 . S
C988 C990 1.417 1_655 S
C988 C1020 1.432 . S
C989 H975 0.930 . S
C989 C986 1.407 1_655 S
C989 C987 1.345 . S
C990 N985 1.360 . S
C990 C988 1.417 1_455 S
C990 C994 1.432 . S
H991 C996 0.930 . S
N992 Tb954 2.600 . S
N992 C994 1.359 . S
N992 C995 1.327 . S
C993 H979 0.931 . S
C993 C995 1.392 . S
C993 C996 1.370 . S
C994 C990 1.432 . S
C994 N992 1.359 . S
C994 C997 1.414 . S
C995 H977 0.930 . S
C995 N992 1.327 . S
C995 C993 1.392 . S
C996 H991 0.930 . S
C996 C993 1.370 . S
C996 C997 1.385 . S
C997 C994 1.414 . S
C997 C996 1.385 . S
C997 C1019 1.444 1_455 S
O998 Tb954 2.546 . S
O998 C1018 1.251 . S
O999 Tb954 2.610 . S
O999 Tb965 2.362 . S
O999 C1010 1.283 . S
O1000 Tb965 2.421 . S
O1000 C1017 1.262 . S
O1001 Tb954 2.320 . S
O1001 C1017 1.260 . S
O1002 Tb954 2.552 . S
O1002 C1010 1.243 . S
O1003 Tb954 2.413 . S
O1003 C1018 1.256 . S
O1004 Tb965 2.546 . S
O1004 C1029 1.251 . S
O1005 Tb954 2.362 . S
O1005 Tb965 2.610 . S
O1005 C1021 1.283 . S
O1006 Tb954 2.421 . S
O1006 C1028 1.262 . S
O1007 Tb965 2.320 . S
O1007 C1028 1.260 . S
O1008 Tb965 2.552 . S
O1008 C1021 1.243 . S
O1009 Tb965 2.413 . S
O1009 C1029 1.256 . S
C1010 O999 1.283 . S
C1010 O1002 1.243 . S
C1011 C1013 1.382 . S
C1011 C1015 1.393 . S
C1011 C1018 1.500 . S
C1012 C1013 1.400 . S
C1012 C1014 1.384 . S
C1013 C1011 1.382 . S
C1013 C1012 1.400 . S
C1013 H1030 0.930 . S
C1014 C1012 1.384 . S
C1014 C1016 1.392 . S
C1014 H1031 0.931 . S
C1015 C1011 1.393 . S
C1015 C1016 1.401 . S
C1015 H1032 0.930 . S
C1016 C1014 1.392 . S
C1016 C1015 1.401 . S
C1016 H1033 0.930 . S
C1017 O1000 1.262 . S
C1017 O1001 1.260 . S
C1018 Tb954 2.833 . S
C1018 O998 1.251 . S
C1018 O1003 1.256 . S
C1018 C1011 1.500 . S
C1019 H984 0.929 . S
C1019 C997 1.444 1_655 S
C1019 C1020 1.317 . S
C1020 H982 0.930 . S
C1020 C988 1.432 . S
C1020 C1019 1.317 . S
C1021 O1005 1.283 . S
C1021 O1008 1.243 . S
C1022 C1023 1.382 . S
C1022 C1026 1.393 . S
C1022 C1029 1.500 . S
C1023 C1022 1.382 . S
C1023 C1024 1.400 . S
C1023 H1034 0.930 . S
C1024 C1023 1.400 . S
C1024 C1025 1.384 . S
C1025 C1024 1.384 . S
C1025 C1027 1.392 . S
C1025 H1035 0.931 . S
C1026 C1022 1.393 . S
C1026 C1027 1.401 . S
C1026 H1036 0.930 . S
C1027 C1025 1.392 . S
C1027 C1026 1.401 . S
C1027 H1037 0.930 . S
C1028 O1006 1.262 . S
C1028 O1007 1.260 . S
C1029 Tb965 2.833 . S
C1029 O1004 1.251 . S
C1029 O1009 1.256 . S
C1029 C1022 1.500 . S
H1030 C1013 0.930 . S
H1031 C1014 0.931 . S
H1032 C1015 0.930 . S
H1033 C1016 0.930 . S
H1034 C1023 0.930 . S
H1035 C1025 0.931 . S
H1036 C1026 0.930 . S
H1037 C1027 0.930 . S
Tb1038 N1069 2.660 . S
Tb1038 N1076 2.600 . S
Tb1038 O1082 2.546 . S
Tb1038 O1083 2.610 . S
Tb1038 O1085 2.320 . S
Tb1038 O1086 2.552 . S
Tb1038 O1087 2.413 . S
Tb1038 O1089 2.362 . S
Tb1038 O1090 2.421 . S
Tb1038 C1102 2.833 . S
C1039 C1042 1.432 . S
C1039 C1043 1.414 . S
C1039 N1046 1.359 . S
C1040 C1042 1.417 . S
C1040 C1044 1.432 . S
C1040 C1052 1.410 . S
C1041 C1043 1.444 . S
C1041 C1044 1.317 . S
C1041 H1064 0.929 . S
C1042 C1039 1.432 . S
C1042 C1040 1.417 . S
C1042 N1050 1.360 . S
C1043 C1039 1.414 . S
C1043 C1041 1.444 . S
C1043 C1048 1.385 . S
C1044 C1040 1.432 . S
C1044 C1041 1.317 . S
C1044 H1056 0.930 . S
C1045 C1047 1.392 . S
C1045 C1048 1.370 . S
C1045 H1057 0.931 . S
N1046 C1039 1.359 . S
N1046 C1047 1.327 . S
N1046 Tb1049 2.600 . S
C1047 C1045 1.392 . S
C1047 N1046 1.327 . S
C1047 H1054 0.930 . S
C1048 C1043 1.385 . S
C1048 C1045 1.370 . S
C1048 H1067 0.930 . S
Tb1049 N1046 2.600 . S
Tb1049 N1050 2.660 . S
Tb1049 O1083 2.362 . S
Tb1049 O1084 2.421 . S
Tb1049 O1088 2.546 . S
Tb1049 O1089 2.610 . S
Tb1049 O1091 2.320 . S
Tb1049 O1092 2.552 . S
Tb1049 O1093 2.413 . S
Tb1049 C1113 2.833 . S
N1050 C1042 1.360 . S
N1050 Tb1049 2.660 . S
N1050 C1051 1.305 . S
C1051 N1050 1.305 . S
C1051 C1053 1.407 . S
C1051 H1058 0.930 . S
C1052 C1040 1.410 . S
C1052 C1053 1.345 . S
C1052 H1060 0.930 . S
C1053 C1051 1.407 . S
C1053 C1052 1.345 . S
C1053 H1055 0.930 . S
H1054 C1047 0.930 . S
H1055 C1053 0.930 . S
H1056 C1044 0.930 . S
H1057 C1045 0.931 . S
H1058 C1051 0.930 . S
H1059 C1073 0.930 . S
H1060 C1052 0.930 . S
H1061 C1079 0.930 . S
H1062 C1070 0.930 . S
H1063 C1077 0.931 . S
H1064 C1041 0.929 . S
H1065 C1071 0.930 . S
H1066 C1104 0.930 . S
H1067 C1048 0.930 . S
H1068 C1103 0.929 . S
N1069 Tb1038 2.660 . S
N1069 C1070 1.305 . S
N1069 C1074 1.360 . S
C1070 H1062 0.930 . S
C1070 N1069 1.305 . S
C1070 C1073 1.407 . S
C1071 H1065 0.930 . S
C1071 C1072 1.410 . S
C1071 C1073 1.345 . S
C1072 C1071 1.410 . S
C1072 C1074 1.417 . S
C1072 C1104 1.432 . S
C1073 H1059 0.930 . S
C1073 C1070 1.407 . S
C1073 C1071 1.345 . S
C1074 N1069 1.360 . S
C1074 C1072 1.417 . S
C1074 C1078 1.432 . S
H1075 C1080 0.930 . S
N1076 Tb1038 2.600 . S
N1076 C1078 1.359 . S
N1076 C1079 1.327 . S
C1077 H1063 0.931 . S
C1077 C1079 1.392 . S
C1077 C1080 1.370 . S
C1078 C1074 1.432 . S
C1078 N1076 1.359 . S
C1078 C1081 1.414 . S
C1079 H1061 0.930 . S
C1079 N1076 1.327 . S
C1079 C1077 1.392 . S
C1080 H1075 0.930 . S
C1080 C1077 1.370 . S
C1080 C1081 1.385 . S
C1081 C1078 1.414 . S
C1081 C1080 1.385 . S
C1081 C1103 1.444 . S
O1082 Tb1038 2.546 . S
O1082 C1102 1.251 . S
O1083 Tb1038 2.610 . S
O1083 Tb1049 2.362 . S
O1083 C1094 1.283 . S
O1084 Tb1049 2.421 . S
O1084 C1101 1.262 . S
O1085 Tb1038 2.320 . S
O1085 C1101 1.260 . S
O1086 Tb1038 2.552 . S
O1086 C1094 1.243 . S
O1087 Tb1038 2.413 . S
O1087 C1102 1.256 . S
O1088 Tb1049 2.546 . S
O1088 C1113 1.251 . S
O1089 Tb1038 2.362 . S
O1089 Tb1049 2.610 . S
O1089 C1105 1.283 . S
O1090 Tb1038 2.421 . S
O1090 C1112 1.262 . S
O1091 Tb1049 2.320 . S
O1091 C1112 1.260 . S
O1092 Tb1049 2.552 . S
O1092 C1105 1.243 . S
O1093 Tb1049 2.413 . S
O1093 C1113 1.256 . S
C1094 O1083 1.283 . S
C1094 O1086 1.243 . S
C1095 C1097 1.382 . S
C1095 C1099 1.393 . S
C1095 C1102 1.500 . S
C1096 C1097 1.400 . S
C1096 C1098 1.384 . S
C1097 C1095 1.382 . S
C1097 C1096 1.400 . S
C1097 H1114 0.930 . S
C1098 C1096 1.384 . S
C1098 C1100 1.392 . S
C1098 H1115 0.931 . S
C1099 C1095 1.393 . S
C1099 C1100 1.401 . S
C1099 H1116 0.930 . S
C1100 C1098 1.392 . S
C1100 C1099 1.401 . S
C1100 H1117 0.930 . S
C1101 O1084 1.262 . S
C1101 O1085 1.260 . S
C1102 Tb1038 2.833 . S
C1102 O1082 1.251 . S
C1102 O1087 1.256 . S
C1102 C1095 1.500 . S
C1103 H1068 0.929 . S
C1103 C1081 1.444 . S
C1103 C1104 1.317 . S
C1104 H1066 0.930 . S
C1104 C1072 1.432 . S
C1104 C1103 1.317 . S
C1105 O1089 1.283 . S
C1105 O1092 1.243 . S
C1106 C1107 1.382 . S
C1106 C1110 1.393 . S
C1106 C1113 1.500 . S
C1107 C1106 1.382 . S
C1107 C1108 1.400 . S
C1107 H1118 0.930 . S
C1108 C1107 1.400 . S
C1108 C1109 1.384 . S
C1109 C1108 1.384 . S
C1109 C1111 1.392 . S
C1109 H1119 0.931 . S
C1110 C1106 1.393 . S
C1110 C1111 1.401 . S
C1110 H1120 0.930 . S
C1111 C1109 1.392 . S
C1111 C1110 1.401 . S
C1111 H1121 0.930 . S
C1112 O1090 1.262 . S
C1112 O1091 1.260 . S
C1113 Tb1049 2.833 . S
C1113 O1088 1.251 . S
C1113 O1093 1.256 . S
C1113 C1106 1.500 . S
H1114 C1097 0.930 . S
H1115 C1098 0.931 . S
H1116 C1099 0.930 . S
H1117 C1100 0.930 . S
H1118 C1107 0.930 . S
H1119 C1109 0.931 . S
H1120 C1110 0.930 . S
H1121 C1111 0.930 . S
Tb1122 N1153 2.660 . S
Tb1122 N1160 2.600 . S
Tb1122 O1166 2.546 . S
Tb1122 O1167 2.610 . S
Tb1122 O1169 2.320 . S
Tb1122 O1170 2.552 . S
Tb1122 O1171 2.413 . S
Tb1122 O1173 2.362 . S
Tb1122 O1174 2.421 . S
Tb1122 C1186 2.833 . S
C1123 C1126 1.432 . S
C1123 C1127 1.414 . S
C1123 N1130 1.359 . S
C1124 C1126 1.417 1_655 S
C1124 C1128 1.432 . S
C1124 C1136 1.410 . S
C1125 C1127 1.444 1_655 S
C1125 C1128 1.317 . S
C1125 H1148 0.929 . S
C1126 C1123 1.432 . S
C1126 C1124 1.417 1_455 S
C1126 N1134 1.360 . S
C1127 C1123 1.414 . S
C1127 C1125 1.444 1_455 S
C1127 C1132 1.385 . S
C1128 C1124 1.432 . S
C1128 C1125 1.317 . S
C1128 H1140 0.930 . S
C1129 C1131 1.392 . S
C1129 C1132 1.370 . S
C1129 H1141 0.931 . S
N1130 C1123 1.359 . S
N1130 C1131 1.327 . S
N1130 Tb1133 2.600 . S
C1131 C1129 1.392 . S
C1131 N1130 1.327 . S
C1131 H1138 0.930 . S
C1132 C1127 1.385 . S
C1132 C1129 1.370 . S
C1132 H1151 0.930 . S
Tb1133 N1130 2.600 . S
Tb1133 N1134 2.660 . S
Tb1133 O1167 2.362 . S
Tb1133 O1168 2.421 . S
Tb1133 O1172 2.546 . S
Tb1133 O1173 2.610 . S
Tb1133 O1175 2.320 . S
Tb1133 O1176 2.552 . S
Tb1133 O1177 2.413 . S
Tb1133 C1197 2.833 . S
N1134 C1126 1.360 . S
N1134 Tb1133 2.660 . S
N1134 C1135 1.305 . S
C1135 N1134 1.305 . S
C1135 C1137 1.407 1_455 S
C1135 H1142 0.930 . S
C1136 C1124 1.410 . S
C1136 C1137 1.345 . S
C1136 H1144 0.930 . S
C1137 C1135 1.407 1_655 S
C1137 C1136 1.345 . S
C1137 H1139 0.930 . S
H1138 C1131 0.930 . S
H1139 C1137 0.930 . S
H1140 C1128 0.930 . S
H1141 C1129 0.931 . S
H1142 C1135 0.930 . S
H1143 C1157 0.930 . S
H1144 C1136 0.930 . S
H1145 C1163 0.930 . S
H1146 C1154 0.930 . S
H1147 C1161 0.931 . S
H1148 C1125 0.929 . S
H1149 C1155 0.930 . S
H1150 C1188 0.930 . S
H1151 C1132 0.930 . S
H1152 C1187 0.929 . S
N1153 Tb1122 2.660 . S
N1153 C1154 1.305 . S
N1153 C1158 1.360 . S
C1154 H1146 0.930 . S
C1154 N1153 1.305 . S
C1154 C1157 1.407 . S
C1155 H1149 0.930 . S
C1155 C1156 1.410 . S
C1155 C1157 1.345 . S
C1156 C1155 1.410 . S
C1156 C1158 1.417 . S
C1156 C1188 1.432 . S
C1157 H1143 0.930 . S
C1157 C1154 1.407 . S
C1157 C1155 1.345 . S
C1158 N1153 1.360 . S
C1158 C1156 1.417 . S
C1158 C1162 1.432 . S
H1159 C1164 0.930 . S
N1160 Tb1122 2.600 . S
N1160 C1162 1.359 . S
N1160 C1163 1.327 . S
C1161 H1147 0.931 . S
C1161 C1163 1.392 . S
C1161 C1164 1.370 . S
C1162 C1158 1.432 . S
C1162 N1160 1.359 . S
C1162 C1165 1.414 . S
C1163 H1145 0.930 . S
C1163 N1160 1.327 . S
C1163 C1161 1.392 . S
C1164 H1159 0.930 . S
C1164 C1161 1.370 . S
C1164 C1165 1.385 . S
C1165 C1162 1.414 . S
C1165 C1164 1.385 . S
C1165 C1187 1.444 . S
O1166 Tb1122 2.546 . S
O1166 C1186 1.251 . S
O1167 Tb1122 2.610 . S
O1167 Tb1133 2.362 . S
O1167 C1178 1.283 . S
O1168 Tb1133 2.421 . S
O1168 C1185 1.262 . S
O1169 Tb1122 2.320 . S
O1169 C1185 1.260 . S
O1170 Tb1122 2.552 . S
O1170 C1178 1.243 . S
O1171 Tb1122 2.413 . S
O1171 C1186 1.256 . S
O1172 Tb1133 2.546 . S
O1172 C1197 1.251 . S
O1173 Tb1122 2.362 . S
O1173 Tb1133 2.610 . S
O1173 C1189 1.283 . S
O1174 Tb1122 2.421 . S
O1174 C1196 1.262 . S
O1175 Tb1133 2.320 . S
O1175 C1196 1.260 . S
O1176 Tb1133 2.552 . S
O1176 C1189 1.243 . S
O1177 Tb1133 2.413 . S
O1177 C1197 1.256 . S
C1178 O1167 1.283 . S
C1178 O1170 1.243 . S
C1179 C1181 1.382 . S
C1179 C1183 1.393 . S
C1179 C1186 1.500 . S
C1180 C1181 1.400 . S
C1180 C1182 1.384 . S
C1181 C1179 1.382 . S
C1181 C1180 1.400 . S
C1181 H1198 0.930 . S
C1182 C1180 1.384 . S
C1182 C1184 1.392 . S
C1182 H1199 0.931 . S
C1183 C1179 1.393 . S
C1183 C1184 1.401 . S
C1183 H1200 0.930 . S
C1184 C1182 1.392 . S
C1184 C1183 1.401 . S
C1184 H1201 0.930 . S
C1185 O1168 1.262 . S
C1185 O1169 1.260 . S
C1186 Tb1122 2.833 . S
C1186 O1166 1.251 . S
C1186 O1171 1.256 . S
C1186 C1179 1.500 . S
C1187 H1152 0.929 . S
C1187 C1165 1.444 . S
C1187 C1188 1.317 . S
C1188 H1150 0.930 . S
C1188 C1156 1.432 . S
C1188 C1187 1.317 . S
C1189 O1173 1.283 . S
C1189 O1176 1.243 . S
C1190 C1191 1.382 . S
C1190 C1194 1.393 . S
C1190 C1197 1.500 . S
C1191 C1190 1.382 . S
C1191 C1192 1.400 . S
C1191 H1202 0.930 . S
C1192 C1191 1.400 . S
C1192 C1193 1.384 . S
C1193 C1192 1.384 . S
C1193 C1195 1.392 . S
C1193 H1203 0.931 . S
C1194 C1190 1.393 . S
C1194 C1195 1.401 . S
C1194 H1204 0.930 . S
C1195 C1193 1.392 . S
C1195 C1194 1.401 . S
C1195 H1205 0.930 . S
C1196 O1174 1.262 . S
C1196 O1175 1.260 . S
C1197 Tb1133 2.833 . S
C1197 O1172 1.251 . S
C1197 O1177 1.256 . S
C1197 C1190 1.500 . S
H1198 C1181 0.930 . S
H1199 C1182 0.931 . S
H1200 C1183 0.930 . S
H1201 C1184 0.930 . S
H1202 C1191 0.930 . S
H1203 C1193 0.931 . S
H1204 C1194 0.930 . S
H1205 C1195 0.930 . S
Tb1206 N1237 2.660 . S
Tb1206 N1244 2.600 . S
Tb1206 O1250 2.546 . S
Tb1206 O1251 2.610 . S
Tb1206 O1253 2.320 . S
Tb1206 O1254 2.552 . S
Tb1206 O1255 2.413 . S
Tb1206 O1257 2.362 . S
Tb1206 O1258 2.421 . S
Tb1206 C1270 2.833 . S
C1207 C1210 1.432 . S
C1207 C1211 1.414 . S
C1207 N1214 1.359 . S
C1208 C1210 1.417 1_455 S
C1208 C1212 1.432 . S
C1208 C1220 1.410 . S
C1209 C1211 1.444 1_455 S
C1209 C1212 1.317 . S
C1209 H1232 0.929 . S
C1210 C1207 1.432 . S
C1210 C1208 1.417 1_655 S
C1210 N1218 1.360 . S
C1211 C1207 1.414 . S
C1211 C1209 1.444 1_655 S
C1211 C1216 1.385 . S
C1212 C1208 1.432 . S
C1212 C1209 1.317 . S
C1212 H1224 0.930 . S
C1213 C1215 1.392 . S
C1213 C1216 1.370 . S
C1213 H1225 0.931 . S
N1214 C1207 1.359 . S
N1214 C1215 1.327 . S
N1214 Tb1217 2.600 . S
C1215 C1213 1.392 . S
C1215 N1214 1.327 . S
C1215 H1222 0.930 . S
C1216 C1211 1.385 . S
C1216 C1213 1.370 . S
C1216 H1235 0.930 . S
Tb1217 N1214 2.600 . S
Tb1217 N1218 2.660 . S
Tb1217 O1251 2.362 . S
Tb1217 O1252 2.421 . S
Tb1217 O1256 2.546 . S
Tb1217 O1257 2.610 . S
Tb1217 O1259 2.320 . S
Tb1217 O1260 2.552 . S
Tb1217 O1261 2.413 . S
Tb1217 C1281 2.833 . S
N1218 C1210 1.360 . S
N1218 Tb1217 2.660 . S
N1218 C1219 1.305 . S
C1219 N1218 1.305 . S
C1219 C1221 1.407 1_655 S
C1219 H1226 0.930 . S
C1220 C1208 1.410 . S
C1220 C1221 1.345 . S
C1220 H1228 0.930 . S
C1221 C1219 1.407 1_455 S
C1221 C1220 1.345 . S
C1221 H1223 0.930 . S
H1222 C1215 0.930 . S
H1223 C1221 0.930 . S
H1224 C1212 0.930 . S
H1225 C1213 0.931 . S
H1226 C1219 0.930 . S
H1227 C1241 0.930 . S
H1228 C1220 0.930 . S
H1229 C1247 0.930 . S
H1230 C1238 0.930 . S
H1231 C1245 0.931 . S
H1232 C1209 0.929 . S
H1233 C1239 0.930 . S
H1234 C1272 0.930 . S
H1235 C1216 0.930 . S
H1236 C1271 0.929 . S
N1237 Tb1206 2.660 . S
N1237 C1238 1.305 . S
N1237 C1242 1.360 . S
C1238 H1230 0.930 . S
C1238 N1237 1.305 . S
C1238 C1241 1.407 . S
C1239 H1233 0.930 . S
C1239 C1240 1.410 . S
C1239 C1241 1.345 . S
C1240 C1239 1.410 . S
C1240 C1242 1.417 . S
C1240 C1272 1.432 . S
C1241 H1227 0.930 . S
C1241 C1238 1.407 . S
C1241 C1239 1.345 . S
C1242 N1237 1.360 . S
C1242 C1240 1.417 . S
C1242 C1246 1.432 . S
H1243 C1248 0.930 . S
N1244 Tb1206 2.600 . S
N1244 C1246 1.359 . S
N1244 C1247 1.327 . S
C1245 H1231 0.931 . S
C1245 C1247 1.392 . S
C1245 C1248 1.370 . S
C1246 C1242 1.432 . S
C1246 N1244 1.359 . S
C1246 C1249 1.414 . S
C1247 H1229 0.930 . S
C1247 N1244 1.327 . S
C1247 C1245 1.392 . S
C1248 H1243 0.930 . S
C1248 C1245 1.370 . S
C1248 C1249 1.385 . S
C1249 C1246 1.414 . S
C1249 C1248 1.385 . S
C1249 C1271 1.444 . S
O1250 Tb1206 2.546 . S
O1250 C1270 1.251 . S
O1251 Tb1206 2.610 . S
O1251 Tb1217 2.362 . S
O1251 C1262 1.283 . S
O1252 Tb1217 2.421 . S
O1252 C1269 1.262 . S
O1253 Tb1206 2.320 . S
O1253 C1269 1.260 . S
O1254 Tb1206 2.552 . S
O1254 C1262 1.243 . S
O1255 Tb1206 2.413 . S
O1255 C1270 1.256 . S
O1256 Tb1217 2.546 . S
O1256 C1281 1.251 . S
O1257 Tb1206 2.362 . S
O1257 Tb1217 2.610 . S
O1257 C1273 1.283 . S
O1258 Tb1206 2.421 . S
O1258 C1280 1.262 . S
O1259 Tb1217 2.320 . S
O1259 C1280 1.260 . S
O1260 Tb1217 2.552 . S
O1260 C1273 1.243 . S
O1261 Tb1217 2.413 . S
O1261 C1281 1.256 . S
C1262 O1251 1.283 . S
C1262 O1254 1.243 . S
C1263 C1265 1.382 . S
C1263 C1267 1.393 . S
C1263 C1270 1.500 . S
C1264 C1265 1.400 . S
C1264 C1266 1.384 . S
C1265 C1263 1.382 . S
C1265 C1264 1.400 . S
C1265 H1282 0.930 . S
C1266 C1264 1.384 . S
C1266 C1268 1.392 . S
C1266 H1283 0.931 . S
C1267 C1263 1.393 . S
C1267 C1268 1.401 . S
C1267 H1284 0.930 . S
C1268 C1266 1.392 . S
C1268 C1267 1.401 . S
C1268 H1285 0.930 . S
C1269 O1252 1.262 . S
C1269 O1253 1.260 . S
C1270 Tb1206 2.833 . S
C1270 O1250 1.251 . S
C1270 O1255 1.256 . S
C1270 C1263 1.500 . S
C1271 H1236 0.929 . S
C1271 C1249 1.444 . S
C1271 C1272 1.317 . S
C1272 H1234 0.930 . S
C1272 C1240 1.432 . S
C1272 C1271 1.317 . S
C1273 O1257 1.283 . S
C1273 O1260 1.243 . S
C1274 C1275 1.382 . S
C1274 C1278 1.393 . S
C1274 C1281 1.500 . S
C1275 C1274 1.382 . S
C1275 C1276 1.400 . S
C1275 H1286 0.930 . S
C1276 C1275 1.400 . S
C1276 C1277 1.384 . S
C1277 C1276 1.384 . S
C1277 C1279 1.392 . S
C1277 H1287 0.931 . S
C1278 C1274 1.393 . S
C1278 C1279 1.401 . S
C1278 H1288 0.930 . S
C1279 C1277 1.392 . S
C1279 C1278 1.401 . S
C1279 H1289 0.930 . S
C1280 O1258 1.262 . S
C1280 O1259 1.260 . S
C1281 Tb1217 2.833 . S
C1281 O1256 1.251 . S
C1281 O1261 1.256 . S
C1281 C1274 1.500 . S
H1282 C1265 0.930 . S
H1283 C1266 0.931 . S
H1284 C1267 0.930 . S
H1285 C1268 0.930 . S
H1286 C1275 0.930 . S
H1287 C1277 0.931 . S
H1288 C1278 0.930 . S
H1289 C1279 0.930 . S
Tb1290 N1321 2.660 . S
Tb1290 N1328 2.600 . S
Tb1290 O1334 2.546 . S
Tb1290 O1335 2.610 . S
Tb1290 O1337 2.320 . S
Tb1290 O1338 2.552 . S
Tb1290 O1339 2.413 . S
Tb1290 O1341 2.362 . S
Tb1290 O1342 2.421 . S
Tb1290 C1354 2.833 . S
C1291 C1294 1.432 . S
C1291 C1295 1.414 . S
C1291 N1298 1.359 . S
C1292 C1294 1.417 . S
C1292 C1296 1.432 . S
C1292 C1304 1.410 . S
C1293 C1295 1.444 . S
C1293 C1296 1.317 . S
C1293 H1316 0.929 . S
C1294 C1291 1.432 . S
C1294 C1292 1.417 . S
C1294 N1302 1.360 . S
C1295 C1291 1.414 . S
C1295 C1293 1.444 . S
C1295 C1300 1.385 . S
C1296 C1292 1.432 . S
C1296 C1293 1.317 . S
C1296 H1308 0.930 . S
C1297 C1299 1.392 . S
C1297 C1300 1.370 . S
C1297 H1309 0.931 . S
N1298 C1291 1.359 . S
N1298 C1299 1.327 . S
N1298 Tb1301 2.600 . S
C1299 C1297 1.392 . S
C1299 N1298 1.327 . S
C1299 H1306 0.930 . S
C1300 C1295 1.385 . S
C1300 C1297 1.370 . S
C1300 H1319 0.930 . S
Tb1301 N1298 2.600 . S
Tb1301 N1302 2.660 . S
Tb1301 O1335 2.362 . S
Tb1301 O1336 2.421 . S
Tb1301 O1340 2.546 . S
Tb1301 O1341 2.610 . S
Tb1301 O1343 2.320 . S
Tb1301 O1344 2.552 . S
Tb1301 O1345 2.413 . S
Tb1301 C1365 2.833 . S
N1302 C1294 1.360 . S
N1302 Tb1301 2.660 . S
N1302 C1303 1.305 . S
C1303 N1302 1.305 . S
C1303 C1305 1.407 . S
C1303 H1310 0.930 . S
C1304 C1292 1.410 . S
C1304 C1305 1.345 . S
C1304 H1312 0.930 . S
C1305 C1303 1.407 . S
C1305 C1304 1.345 . S
C1305 H1307 0.930 . S
H1306 C1299 0.930 . S
H1307 C1305 0.930 . S
H1308 C1296 0.930 . S
H1309 C1297 0.931 . S
H1310 C1303 0.930 . S
H1311 C1325 0.930 . S
H1312 C1304 0.930 . S
H1313 C1331 0.930 . S
H1314 C1322 0.930 . S
H1315 C1329 0.931 . S
H1316 C1293 0.929 . S
H1317 C1323 0.930 . S
H1318 C1356 0.930 . S
H1319 C1300 0.930 . S
H1320 C1355 0.929 . S
N1321 Tb1290 2.660 . S
N1321 C1322 1.305 . S
N1321 C1326 1.360 . S
C1322 H1314 0.930 . S
C1322 N1321 1.305 . S
C1322 C1325 1.407 . S
C1323 H1317 0.930 . S
C1323 C1324 1.410 . S
C1323 C1325 1.345 . S
C1324 C1323 1.410 . S
C1324 C1326 1.417 . S
C1324 C1356 1.432 . S
C1325 H1311 0.930 . S
C1325 C1322 1.407 . S
C1325 C1323 1.345 . S
C1326 N1321 1.360 . S
C1326 C1324 1.417 . S
C1326 C1330 1.432 . S
H1327 C1332 0.930 . S
N1328 Tb1290 2.600 . S
N1328 C1330 1.359 . S
N1328 C1331 1.327 . S
C1329 H1315 0.931 . S
C1329 C1331 1.392 . S
C1329 C1332 1.370 . S
C1330 C1326 1.432 . S
C1330 N1328 1.359 . S
C1330 C1333 1.414 . S
C1331 H1313 0.930 . S
C1331 N1328 1.327 . S
C1331 C1329 1.392 . S
C1332 H1327 0.930 . S
C1332 C1329 1.370 . S
C1332 C1333 1.385 . S
C1333 C1330 1.414 . S
C1333 C1332 1.385 . S
C1333 C1355 1.444 . S
O1334 Tb1290 2.546 . S
O1334 C1354 1.251 . S
O1335 Tb1290 2.610 . S
O1335 Tb1301 2.362 . S
O1335 C1346 1.283 . S
O1336 Tb1301 2.421 . S
O1336 C1353 1.262 . S
O1337 Tb1290 2.320 . S
O1337 C1353 1.260 . S
O1338 Tb1290 2.552 . S
O1338 C1346 1.243 . S
O1339 Tb1290 2.413 . S
O1339 C1354 1.256 . S
O1340 Tb1301 2.546 . S
O1340 C1365 1.251 . S
O1341 Tb1290 2.362 . S
O1341 Tb1301 2.610 . S
O1341 C1357 1.283 . S
O1342 Tb1290 2.421 . S
O1342 C1364 1.262 . S
O1343 Tb1301 2.320 . S
O1343 C1364 1.260 . S
O1344 Tb1301 2.552 . S
O1344 C1357 1.243 . S
O1345 Tb1301 2.413 . S
O1345 C1365 1.256 . S
C1346 O1335 1.283 . S
C1346 O1338 1.243 . S
C1347 C1349 1.382 . S
C1347 C1351 1.393 . S
C1347 C1354 1.500 . S
C1348 C1349 1.400 . S
C1348 C1350 1.384 . S
C1349 C1347 1.382 . S
C1349 C1348 1.400 . S
C1349 H1366 0.930 . S
C1350 C1348 1.384 . S
C1350 C1352 1.392 . S
C1350 H1367 0.931 . S
C1351 C1347 1.393 . S
C1351 C1352 1.401 . S
C1351 H1368 0.930 . S
C1352 C1350 1.392 . S
C1352 C1351 1.401 . S
C1352 H1369 0.930 . S
C1353 O1336 1.262 . S
C1353 O1337 1.260 . S
C1354 Tb1290 2.833 . S
C1354 O1334 1.251 . S
C1354 O1339 1.256 . S
C1354 C1347 1.500 . S
C1355 H1320 0.929 . S
C1355 C1333 1.444 . S
C1355 C1356 1.317 . S
C1356 H1318 0.930 . S
C1356 C1324 1.432 . S
C1356 C1355 1.317 . S
C1357 O1341 1.283 . S
C1357 O1344 1.243 . S
C1358 C1359 1.382 . S
C1358 C1362 1.393 . S
C1358 C1365 1.500 . S
C1359 C1358 1.382 . S
C1359 C1360 1.400 . S
C1359 H1370 0.930 . S
C1360 C1359 1.400 . S
C1360 C1361 1.384 . S
C1361 C1360 1.384 . S
C1361 C1363 1.392 . S
C1361 H1371 0.931 . S
C1362 C1358 1.393 . S
C1362 C1363 1.401 . S
C1362 H1372 0.930 . S
C1363 C1361 1.392 . S
C1363 C1362 1.401 . S
C1363 H1373 0.930 . S
C1364 O1342 1.262 . S
C1364 O1343 1.260 . S
C1365 Tb1301 2.833 . S
C1365 O1340 1.251 . S
C1365 O1345 1.256 . S
C1365 C1358 1.500 . S
H1366 C1349 0.930 . S
H1367 C1350 0.931 . S
H1368 C1351 0.930 . S
H1369 C1352 0.930 . S
H1370 C1359 0.930 . S
H1371 C1361 0.931 . S
H1372 C1362 0.930 . S
H1373 C1363 0.930 . S
Tb1374 N1405 2.660 . S
Tb1374 N1412 2.600 . S
Tb1374 O1418 2.546 . S
Tb1374 O1419 2.610 . S
Tb1374 O1421 2.320 . S
Tb1374 O1422 2.552 . S
Tb1374 O1423 2.413 . S
Tb1374 O1425 2.362 . S
Tb1374 O1426 2.421 . S
Tb1374 C1438 2.833 . S
C1375 C1378 1.432 . S
C1375 C1379 1.414 . S
C1375 N1382 1.359 . S
C1376 C1378 1.417 . S
C1376 C1380 1.432 . S
C1376 C1388 1.410 . S
C1377 C1379 1.444 . S
C1377 C1380 1.317 . S
C1377 H1400 0.929 . S
C1378 C1375 1.432 . S
C1378 C1376 1.417 . S
C1378 N1386 1.360 . S
C1379 C1375 1.414 . S
C1379 C1377 1.444 . S
C1379 C1384 1.385 . S
C1380 C1376 1.432 . S
C1380 C1377 1.317 . S
C1380 H1392 0.930 . S
C1381 C1383 1.392 . S
C1381 C1384 1.370 . S
C1381 H1393 0.931 . S
N1382 C1375 1.359 . S
N1382 C1383 1.327 . S
N1382 Tb1385 2.600 . S
C1383 C1381 1.392 . S
C1383 N1382 1.327 . S
C1383 H1390 0.930 . S
C1384 C1379 1.385 . S
C1384 C1381 1.370 . S
C1384 H1403 0.930 . S
Tb1385 N1382 2.600 . S
Tb1385 N1386 2.660 . S
Tb1385 O1419 2.362 . S
Tb1385 O1420 2.421 . S
Tb1385 O1424 2.546 . S
Tb1385 O1425 2.610 . S
Tb1385 O1427 2.320 . S
Tb1385 O1428 2.552 . S
Tb1385 O1429 2.413 . S
Tb1385 C1449 2.833 . S
N1386 C1378 1.360 . S
N1386 Tb1385 2.660 . S
N1386 C1387 1.305 . S
C1387 N1386 1.305 . S
C1387 C1389 1.407 . S
C1387 H1394 0.930 . S
C1388 C1376 1.410 . S
C1388 C1389 1.345 . S
C1388 H1396 0.930 . S
C1389 C1387 1.407 . S
C1389 C1388 1.345 . S
C1389 H1391 0.930 . S
H1390 C1383 0.930 . S
H1391 C1389 0.930 . S
H1392 C1380 0.930 . S
H1393 C1381 0.931 . S
H1394 C1387 0.930 . S
H1395 C1409 0.930 . S
H1396 C1388 0.930 . S
H1397 C1415 0.930 . S
H1398 C1406 0.930 . S
H1399 C1413 0.931 . S
H1400 C1377 0.929 . S
H1401 C1407 0.930 . S
H1402 C1440 0.930 . S
H1403 C1384 0.930 . S
H1404 C1439 0.929 . S
N1405 Tb1374 2.660 . S
N1405 C1406 1.305 . S
N1405 C1410 1.360 . S
C1406 H1398 0.930 . S
C1406 N1405 1.305 . S
C1406 C1409 1.407 1_655 S
C1407 H1401 0.930 . S
C1407 C1408 1.410 . S
C1407 C1409 1.345 . S
C1408 C1407 1.410 . S
C1408 C1410 1.417 1_455 S
C1408 C1440 1.432 . S
C1409 H1395 0.930 . S
C1409 C1406 1.407 1_455 S
C1409 C1407 1.345 . S
C1410 N1405 1.360 . S
C1410 C1408 1.417 1_655 S
C1410 C1414 1.432 . S
H1411 C1416 0.930 . S
N1412 Tb1374 2.600 . S
N1412 C1414 1.359 . S
N1412 C1415 1.327 . S
C1413 H1399 0.931 . S
C1413 C1415 1.392 . S
C1413 C1416 1.370 . S
C1414 C1410 1.432 . S
C1414 N1412 1.359 . S
C1414 C1417 1.414 . S
C1415 H1397 0.930 . S
C1415 N1412 1.327 . S
C1415 C1413 1.392 . S
C1416 H1411 0.930 . S
C1416 C1413 1.370 . S
C1416 C1417 1.385 . S
C1417 C1414 1.414 . S
C1417 C1416 1.385 . S
C1417 C1439 1.444 1_655 S
O1418 Tb1374 2.546 . S
O1418 C1438 1.251 . S
O1419 Tb1374 2.610 . S
O1419 Tb1385 2.362 . S
O1419 C1430 1.283 . S
O1420 Tb1385 2.421 . S
O1420 C1437 1.262 . S
O1421 Tb1374 2.320 . S
O1421 C1437 1.260 . S
O1422 Tb1374 2.552 . S
O1422 C1430 1.243 . S
O1423 Tb1374 2.413 . S
O1423 C1438 1.256 . S
O1424 Tb1385 2.546 . S
O1424 C1449 1.251 . S
O1425 Tb1374 2.362 . S
O1425 Tb1385 2.610 . S
O1425 C1441 1.283 . S
O1426 Tb1374 2.421 . S
O1426 C1448 1.262 . S
O1427 Tb1385 2.320 . S
O1427 C1448 1.260 . S
O1428 Tb1385 2.552 . S
O1428 C1441 1.243 . S
O1429 Tb1385 2.413 . S
O1429 C1449 1.256 . S
C1430 O1419 1.283 . S
C1430 O1422 1.243 . S
C1431 C1433 1.382 . S
C1431 C1435 1.393 . S
C1431 C1438 1.500 . S
C1432 C1433 1.400 . S
C1432 C1434 1.384 . S
C1433 C1431 1.382 . S
C1433 C1432 1.400 . S
C1433 H1450 0.930 . S
C1434 C1432 1.384 . S
C1434 C1436 1.392 . S
C1434 H1451 0.931 . S
C1435 C1431 1.393 . S
C1435 C1436 1.401 . S
C1435 H1452 0.930 . S
C1436 C1434 1.392 . S
C1436 C1435 1.401 . S
C1436 H1453 0.930 . S
C1437 O1420 1.262 . S
C1437 O1421 1.260 . S
C1438 Tb1374 2.833 . S
C1438 O1418 1.251 . S
C1438 O1423 1.256 . S
C1438 C1431 1.500 . S
C1439 H1404 0.929 . S
C1439 C1417 1.444 1_455 S
C1439 C1440 1.317 . S
C1440 H1402 0.930 . S
C1440 C1408 1.432 . S
C1440 C1439 1.317 . S
C1441 O1425 1.283 . S
C1441 O1428 1.243 . S
C1442 C1443 1.382 . S
C1442 C1446 1.393 . S
C1442 C1449 1.500 . S
C1443 C1442 1.382 . S
C1443 C1444 1.400 . S
C1443 H1454 0.930 . S
C1444 C1443 1.400 . S
C1444 C1445 1.384 . S
C1445 C1444 1.384 . S
C1445 C1447 1.392 . S
C1445 H1455 0.931 . S
C1446 C1442 1.393 . S
C1446 C1447 1.401 . S
C1446 H1456 0.930 . S
C1447 C1445 1.392 . S
C1447 C1446 1.401 . S
C1447 H1457 0.930 . S
C1448 O1426 1.262 . S
C1448 O1427 1.260 . S
C1449 Tb1385 2.833 . S
C1449 O1424 1.251 . S
C1449 O1429 1.256 . S
C1449 C1442 1.500 . S
H1450 C1433 0.930 . S
H1451 C1434 0.931 . S
H1452 C1435 0.930 . S
H1453 C1436 0.930 . S
H1454 C1443 0.930 . S
H1455 C1445 0.931 . S
H1456 C1446 0.930 . S
H1457 C1447 0.930 . S
C528 C769 1.559 . S
C562 C853 1.568 . S
C484 C933 1.575 . S
C445 C849 1.452 . S
C937 C367 1.461 . S
C411 C765 1.481 . S
C758 C450 1.555 . S
C842 C372 1.551 . S
C406 C944 1.568 . S
C523 C860 1.443 . S
C567 C926 1.440 . S
C776 C489 1.483 . S
C1021 C60 1.561 . S
C94 C1105 1.569 . S
C16 C1185 1.575 . S
C679 C1101 1.450 . S
C601 C1189 1.461 . S
C645 C1017 1.482 . S
C684 C1010 1.555 . S
C606 C1094 1.551 . S
C1196 C640 1.567 . S
C55 C1112 1.441 . S
C1178 C99 1.441 . S
C21 C1028 1.483 . S
C1273 C294 1.559 . S
C328 C1357 1.570 . S
C1437 C250 1.576 . S
C1353 C211 1.449 . S
C1441 C133 1.461 . S
C177 C1269 1.481 . S
C216 C1262 1.556 . S
C138 C1346 1.551 . S
C1448 C172 1.567 . S
C289 C1364 1.442 . S
C333 C1430 1.440 . S
C255 C1280 1.483 . S
C586 C772 1.609 . S
C856 C625 1.388 . S
C664 C928 1.462 . S
C235 C844 1.403 . S
C274 C940 1.446 . S
C760 C313 1.615 . S
C118 C1024 1.609 . S
C157 C1108 1.390 . S
C196 C1180 1.464 . S
C469 C1096 1.403 . S
C1192 C508 1.444 . S
C547 C1012 1.614 . S
C352 C1276 1.610 . S
C391 C1360 1.390 . S
C1432 C430 1.461 . S
C1 C1348 1.402 . S
C40 C1444 1.446 . S
C79 C1264 1.613 . S
