# Generated by pormake.
# Topology pyr, (3,6)-cn, num edge types: 1
# Building blocks:
#     Node 0, Type 0, BuildingBlock: PAMTOO_clean_linker_0, # of connection points: 3
#     Node 1, Type 0, BuildingBlock: PAMTOO_clean_linker_0, # of connection points: 3
#     Node 2, Type 0, BuildingBlock: PAMTOO_clean_linker_0, # of connection points: 3
#     Node 3, Type 0, BuildingBlock: PAMTOO_clean_linker_0, # of connection points: 3
#     Node 4, Type 0, BuildingBlock: PAMTOO_clean_linker_0, # of connection points: 3
#     Node 5, Type 0, BuildingBlock: PAMTOO_clean_linker_0, # of connection points: 3
#     Node 6, Type 0, BuildingBlock: PAMTOO_clean_linker_0, # of connection points: 3
#     Node 7, Type 0, BuildingBlock: PAMTOO_clean_linker_0, # of connection points: 3
#     Node 8, Type 1, BuildingBlock: FUNLAD_clean_sbu_0, # of connection points: 6
#     Node 9, Type 1, BuildingBlock: FUNLAD_clean_sbu_0, # of connection points: 6
#     Node 10, Type 1, BuildingBlock: FUNLAD_clean_sbu_0, # of connection points: 6
#     Node 11, Type 1, BuildingBlock: FUNLAD_clean_sbu_0, # of connection points: 6
#     Edge 12, Type (0, 1), BuildingBlock: CIFDUS_clean_linker_0, # of connection points: 2
#     Edge 13, Type (0, 1), BuildingBlock: CIFDUS_clean_linker_0, # of connection points: 2
#     Edge 14, Type (0, 1), BuildingBlock: CIFDUS_clean_linker_0, # of connection points: 2
#     Edge 15, Type (0, 1), BuildingBlock: CIFDUS_clean_linker_0, # of connection points: 2
#     Edge 16, Type (0, 1), BuildingBlock: CIFDUS_clean_linker_0, # of connection points: 2
#     Edge 17, Type (0, 1), BuildingBlock: CIFDUS_clean_linker_0, # of connection points: 2
#     Edge 18, Type (0, 1), BuildingBlock: CIFDUS_clean_linker_0, # of connection points: 2
#     Edge 19, Type (0, 1), BuildingBlock: CIFDUS_clean_linker_0, # of connection points: 2
#     Edge 20, Type (0, 1), BuildingBlock: CIFDUS_clean_linker_0, # of connection points: 2
#     Edge 21, Type (0, 1), BuildingBlock: CIFDUS_clean_linker_0, # of connection points: 2
#     Edge 22, Type (0, 1), BuildingBlock: CIFDUS_clean_linker_0, # of connection points: 2
#     Edge 23, Type (0, 1), BuildingBlock: CIFDUS_clean_linker_0, # of connection points: 2
#     Edge 24, Type (0, 1), BuildingBlock: CIFDUS_clean_linker_0, # of connection points: 2
#     Edge 25, Type (0, 1), BuildingBlock: CIFDUS_clean_linker_0, # of connection points: 2
#     Edge 26, Type (0, 1), BuildingBlock: CIFDUS_clean_linker_0, # of connection points: 2
#     Edge 27, Type (0, 1), BuildingBlock: CIFDUS_clean_linker_0, # of connection points: 2
#     Edge 28, Type (0, 1), BuildingBlock: CIFDUS_clean_linker_0, # of connection points: 2
#     Edge 29, Type (0, 1), BuildingBlock: CIFDUS_clean_linker_0, # of connection points: 2
#     Edge 30, Type (0, 1), BuildingBlock: CIFDUS_clean_linker_0, # of connection points: 2
#     Edge 31, Type (0, 1), BuildingBlock: CIFDUS_clean_linker_0, # of connection points: 2
#     Edge 32, Type (0, 1), BuildingBlock: CIFDUS_clean_linker_0, # of connection points: 2
#     Edge 33, Type (0, 1), BuildingBlock: CIFDUS_clean_linker_0, # of connection points: 2
#     Edge 34, Type (0, 1), BuildingBlock: CIFDUS_clean_linker_0, # of connection points: 2
#     Edge 35, Type (0, 1), BuildingBlock: CIFDUS_clean_linker_0, # of connection points: 2
# Relax obj value: 0.213
# Max RMSD: 0.219
# Mean RMSD: 0.138
data_MOF--net-pry--node1-FUNLAD_clean_sbu_0--node2-PAMTOO_clean_linker_0--edge1-CIFDUS_clean_linker_0
_symmetry_space_group_name_H-M    P1
_symmetry_Int_Tables_number       1
_symmetry_cell_setting            triclinic
loop_
_symmetry_equiv_pos_as_xyz
'x, y, z'
_cell_length_a     29.70892
_cell_length_b     33.196321
_cell_length_c     32.798044
_cell_angle_alpha  89.550576
_cell_angle_beta   91.470773
_cell_angle_gamma 86.830065
loop_
_atom_site_label
_atom_site_type_symbol
_atom_site_fract_x
_atom_site_fract_y
_atom_site_fract_z
_atom_type_partial_charge
H0 H 0.1339 0.24958 0.29766 0.0
H1 H 0.23652 0.15267 0.29007 0.0
H2 H 0.23136 0.24881 0.20226 0.0
H3 H 0.25013 0.16874 0.16814 0.0
C4 C 0.27116 0.15459 0.19351 0.0
O5 O 0.27403 0.18146 0.22544 0.0
H6 H 0.25419 0.12748 0.20409 0.0
C7 C 0.16286 0.23554 0.28292 0.0
C8 C 0.17952 0.25412 0.24762 0.0
C9 C 0.18271 0.1985 0.29875 0.0
C10 C 0.2198 0.18035 0.27835 0.0
C11 C 0.23692 0.19837 0.24353 0.0
C12 C 0.21687 0.23496 0.22853 0.0
H13 H 0.37263 0.9694 0.76544 0.0
H14 H 0.38847 0.87199 0.67955 0.0
H15 H 0.48716 0.88339 0.77523 0.0
H16 H 0.5245 0.84921 0.69186 0.0
C17 C 0.49178 0.83797 0.68104 0.0
O18 O 0.46178 0.83958 0.7128 0.0
H19 H 0.47836 0.85789 0.65555 0.0
C20 C 0.39189 0.94345 0.75395 0.0
C21 C 0.43234 0.92951 0.77477 0.0
C22 C 0.37499 0.92258 0.71976 0.0
C23 C 0.40009 0.88832 0.70592 0.0
C24 C 0.44031 0.87434 0.72557 0.0
C25 C 0.45624 0.8948 0.75995 0.0
H26 H 0.73658 0.40917 0.05709 0.0
H27 H 0.6037 0.43529 1.00484 0.0
H28 H 0.70755 0.51684 0.98502 0.0
H29 H 0.61851 0.55561 0.98657 0.0
C30 C 0.60012 0.5332 0.96846 0.0
O31 O 0.62598 0.49786 0.96477 0.0
H32 H 0.56817 0.52725 0.9838 0.0
C33 C 0.71246 0.42974 0.04109 0.0
C34 C 0.72692 0.46562 1.02404 0.0
C35 C 0.66795 0.41854 1.03429 0.0
C36 C 0.63733 0.44456 1.01234 0.0
C37 C 0.6518 0.47965 0.99448 0.0
C38 C 0.69635 0.49031 1.0004 0.0
H39 H 0.9046 0.65988 0.51507 0.0
H40 H 0.94291 0.53326 0.5249 0.0
H41 H 0.04499 0.61983 0.51984 0.0
H42 H 1.01575 0.49392 0.49138 0.0
C43 C 0.04158 0.51684 0.49393 0.0
O44 O 0.03027 0.54323 0.52492 0.0
H45 H 0.07377 0.50004 0.50282 0.0
C46 C 0.93063 0.63562 0.51658 0.0
C47 C 0.97618 0.64476 0.51779 0.0
C48 C 0.91831 0.59557 0.51874 0.0
C49 C 0.95199 0.56435 0.52251 0.0
C50 C 0.99763 0.57317 0.52161 0.0
C51 C 1.00965 0.61328 0.51891 0.0
H52 H 0.88174 0.97241 0.85961 0.0
H53 H 0.89927 0.88169 0.9545 0.0
H54 H 0.99116 0.88165 0.85583 0.0
H55 H 0.96898 0.79455 0.88911 0.0
C56 C 0.95716 0.80528 0.91924 0.0
O57 O 0.96969 0.84465 0.92458 0.0
H58 H 0.91972 0.80447 0.91839 0.0
C59 C 0.90022 0.94637 0.87306 0.0
C60 C 0.93882 0.93006 0.85325 0.0
C61 C 0.88474 0.92905 0.90937 0.0
C62 C 0.90905 0.89482 0.92595 0.0
C63 C 0.94671 0.87722 0.90662 0.0
C64 C 0.96138 0.89474 0.87012 0.0
H65 H 0.77288 0.11387 0.35132 0.0
H66 H 0.66238 0.20357 0.33674 0.0
H67 H 0.75376 0.20974 0.43875 0.0
H68 H 0.66122 0.2289 0.45655 0.0
C69 C 0.65103 0.24814 0.42955 0.0
O70 O 0.68473 0.24541 0.4011 0.0
H71 H 0.61957 0.2368 0.41593 0.0
C72 C 0.75351 0.13991 0.36248 0.0
C73 C 0.76852 0.15961 0.39822 0.0
C74 C 0.71521 0.15565 0.33956 0.0
C75 C 0.69143 0.19063 0.35384 0.0
C76 C 0.70541 0.20988 0.38953 0.0
C77 C 0.74344 0.1942 0.41142 0.0
H78 H 0.41387 0.64069 0.10197 0.0
H79 H 0.44413 0.51264 0.11196 0.0
H80 H 0.54465 0.59517 0.14464 0.0
H81 H 0.58462 0.53393 0.12091 0.0
C82 C 0.56957 0.51086 0.1404 0.0
O83 O 0.52373 0.51863 0.14475 0.0
H84 H 0.57551 0.48114 0.12552 0.0
C85 C 0.43779 0.61548 0.10854 0.0
C86 C 0.48178 0.62267 0.12214 0.0
C87 C 0.42382 0.57593 0.10495 0.0
C88 C 0.45491 0.54328 0.11327 0.0
C89 C 0.49834 0.55004 0.12825 0.0
C90 C 0.51132 0.58977 0.13303 0.0
H91 H 0.17212 0.41378 0.69529 0.0
H92 H 0.17345 0.5401 0.66618 0.0
H93 H 0.18774 0.45193 0.57113 0.0
H94 H 0.20871 0.57903 0.61336 0.0
C95 C 0.21329 0.55937 0.58632 0.0
O96 O 0.18293 0.52928 0.58713 0.0
H97 H 0.2045 0.57914 0.55946 0.0
C98 C 0.17562 0.43778 0.67311 0.0
C99 C 0.18035 0.42822 0.632 0.0
C100 C 0.17344 0.47792 0.68573 0.0
C101 C 0.17652 0.50888 0.6568 0.0
C102 C 0.18311 0.49951 0.61556 0.0
C103 C 0.18494 0.45907 0.60318 0.0
C104 C 0.10619 0.06612 0.49152 0.0
N105 N 0.07569 0.1272 0.59836 0.0
C106 C 0.11751 0.14001 0.59117 0.0
C107 C 0.12674 0.18024 0.59555 0.0
C108 C 0.09287 0.20822 0.60792 0.0
C109 C 0.05021 0.19417 0.61666 0.0
C110 C 0.04221 0.15322 0.61145 0.0
Zn111 Zn 0.06688 0.06984 0.57841 0.0
C112 C 0.98348 0.06279 0.52756 0.0
N113 N 0.06163 0.95258 0.52815 0.0
C114 C 0.09747 0.92887 0.5157 0.0
C115 C 1.0199 0.93799 0.5304 0.0
C116 C 1.01314 0.89796 0.52127 0.0
C117 C 0.04985 0.87201 0.51079 0.0
C118 C 0.09232 0.88813 0.50688 0.0
Zn119 Zn 0.06819 1.00944 0.54996 0.0
O120 O 0.0965 0.08848 0.52171 0.0
C121 C 0.15184 1.01661 0.60043 0.0
O122 O 0.09938 0.02863 0.49439 0.0
H123 H 0.99191 0.95695 0.54092 0.0
H124 H 0.14346 0.11946 0.57956 0.0
H125 H 0.1304 0.94107 0.51422 0.0
O126 O 0.13216 0.05119 0.6051 0.0
O127 O 0.13292 0.99138 0.5776 0.0
H128 H 1.00897 0.14261 0.6163 0.0
O129 O 0.03737 0.99092 0.60573 0.0
O130 O 0.03614 0.04993 0.63525 0.0
O131 O 1.00337 0.0283 0.52261 0.0
O132 O 1.00182 0.08776 0.55121 0.0
C133 C 0.02837 1.01242 0.63684 0.0
H134 H 0.15971 0.18949 0.5873 0.0
H135 H 0.02312 0.21465 0.62658 0.0
H136 H 0.97958 0.88713 0.52375 0.0
H137 H 0.12156 0.86914 0.49899 0.0
C138 C 0.65966 0.98904 1.03366 0.0
N139 N 0.59809 0.10666 1.03313 0.0
C140 C 0.64192 0.11555 0.03916 0.0
C141 C 0.6551 0.15463 1.03343 0.0
C142 C 0.62285 0.18523 1.02192 0.0
C143 C 0.57795 0.17531 1.01486 0.0
C144 C 0.56623 0.13541 1.02051 0.0
Zn145 Zn 0.58258 0.05073 0.0523 0.0
C146 C 0.53551 1.00103 0.99223 0.0
N147 N 0.55973 0.9346 0.09977 0.0
C148 C 0.59155 0.90587 0.11264 0.0
C149 C 0.51616 0.92541 0.09273 0.0
C150 C 0.50357 0.88589 0.09632 0.0
C151 C 0.53611 0.85518 0.10683 0.0
C152 C 0.58031 0.86559 0.11654 0.0
Zn153 Zn 0.57532 0.9908 0.08069 0.0
O154 O 0.64511 0.02539 1.02734 0.0
C155 C 0.62253 0.03946 0.14097 0.0
O156 O 0.63715 0.96672 0.05628 0.0
H157 H 0.49141 0.94831 0.08182 0.0
H158 H 0.66655 0.09274 0.05046 0.0
H159 H 0.62608 0.91373 0.11769 0.0
O160 O 0.61637 0.06345 0.11053 0.0
O161 O 0.60897 1.00382 0.13774 0.0
H162 H 0.53149 0.12778 1.0164 0.0
O163 O 0.51354 1.01562 0.10491 0.0
O164 O 0.51988 0.07511 0.07722 0.0
O165 O 0.54241 0.97819 1.02337 0.0
O166 O 0.54814 0.03711 0.99427 0.0
C167 C 0.49795 0.05174 0.09928 0.0
H168 H 0.68987 0.16118 0.03991 0.0
H169 H 0.55218 0.19822 1.00582 0.0
H170 H 0.46898 0.87917 0.08918 0.0
H171 H 0.60639 0.84262 0.12466 0.0
C172 C 0.58754 0.46349 0.53268 0.0
N173 N 0.57191 0.52674 0.64416 0.0
C174 C 0.55048 0.49719 0.66346 0.0
C175 C 0.54784 0.49712 0.70605 0.0
C176 C 0.56635 0.52842 0.72878 0.0
C177 C 0.58875 0.55799 0.70763 0.0
C178 C 0.59201 0.55602 0.66557 0.0
Zn179 Zn 0.56963 0.53548 0.58254 0.0
C180 C 0.65962 0.55582 0.55244 0.0
N181 N 0.56592 0.56439 0.45599 0.0
C182 C 0.54231 0.5392 0.43219 0.0
C183 C 0.59456 0.59024 0.43941 0.0
C184 C 0.60251 0.58948 0.39758 0.0
C185 C 0.58047 0.56206 0.37265 0.0
C186 C 0.54876 0.53782 0.39032 0.0
Zn187 Zn 0.56628 0.55442 0.5175 0.0
O188 O 0.58431 0.47281 0.57017 0.0
C189 C 0.47626 0.5336 0.54753 0.0
O190 O 0.58118 0.49122 0.50578 0.0
H191 H 0.61319 0.60992 0.45889 0.0
H192 H 0.53452 0.47429 0.6458 0.0
H193 H 0.52013 0.51852 0.44592 0.0
O194 O 0.49926 0.52661 0.58033 0.0
O195 O 0.49598 0.54545 0.51599 0.0
H196 H 0.6091 0.57924 0.64986 0.0
O197 O 0.55161 0.61778 0.53005 0.0
O198 O 0.55435 0.59824 0.59388 0.0
O199 O 0.6362 0.56301 0.52005 0.0
O200 O 0.64026 0.54412 0.58415 0.0
C201 C 0.54827 0.62647 0.56768 0.0
H202 H 0.53108 0.47303 0.72076 0.0
H203 H 0.60263 0.58342 0.72294 0.0
H204 H 0.6272 0.60876 0.38535 0.0
H205 H 0.52992 0.51709 0.37218 0.0
C206 C 0.04733 0.61091 0.05401 0.0
N207 N 0.04606 0.56513 0.17769 0.0
C208 C 0.06495 0.59598 0.1979 0.0
C209 C 0.05705 0.60189 0.23953 0.0
C210 C 0.02884 0.57625 0.25998 0.0
C211 C 1.00895 0.5456 0.23799 0.0
C212 C 1.01843 0.54026 0.19708 0.0
Zn213 Zn 0.06233 0.54803 0.11945 0.0
C214 C 0.98196 0.51321 0.07707 0.0
N215 N 0.09412 0.50298 1.00218 0.0
C216 C 0.11671 0.52976 0.98005 0.0
C217 C 0.08122 0.46787 0.98566 0.0
C218 C 0.0899 0.45927 0.94482 0.0
C219 C 0.11124 0.48748 0.92065 0.0
C220 C 0.12501 0.52293 0.93913 0.0
Zn221 Zn 0.07732 0.52055 0.05942 0.0
O222 O 0.04296 0.60875 0.09267 0.0
C223 C 0.15776 0.55481 0.10166 0.0
O224 O 0.06046 0.57916 1.03544 0.0
H225 H 0.06346 0.44692 1.0039 0.0
H226 H 0.08739 0.61506 0.18221 0.0
H227 H 0.12717 0.55733 0.99377 0.0
O228 O 0.12944 0.56506 0.1286 0.0
O229 O 0.1447 0.53588 0.07042 0.0
H230 H 1.00509 0.51486 0.1814 0.0
O231 O 0.09432 0.462 0.08378 0.0
O232 O 0.0825 0.48702 0.14436 0.0
O233 O 1.00952 0.5051 0.0489 0.0
O234 O 0.99554 0.53068 0.109 0.0
C235 C 0.09415 0.45687 0.12226 0.0
H236 H 0.07333 0.62567 0.25567 0.0
H237 H 0.98801 0.52447 0.25283 0.0
H238 H 0.07947 0.43108 0.93232 0.0
H239 H 0.1407 0.54611 0.92201 0.0
H240 H 0.17563 0.11758 0.31715 0.0
H241 H 0.15264 0.2362 0.36813 0.0
H242 H 0.12796 0.20616 0.43132 0.0
H243 H 0.11341 0.14628 0.47306 0.0
H244 H 0.1361 0.02752 0.42248 0.0
H245 H 0.16097 0.05748 0.35902 0.0
C246 C 0.16553 0.137 0.34209 0.0
C247 C 0.16611 0.17945 0.33724 0.0
C248 C 0.15148 0.11939 0.37885 0.0
C249 C 0.15205 0.20367 0.37016 0.0
C250 C 0.13821 0.18641 0.40667 0.0
C251 C 0.12397 0.12679 0.44828 0.0
C252 C 0.12294 0.08442 0.45302 0.0
C253 C 0.13786 0.14432 0.41149 0.0
C254 C 0.13653 0.06006 0.42012 0.0
C255 C 0.15073 0.07726 0.38363 0.0
H256 H 0.46303 0.89464 0.84678 0.0
H257 H 0.43904 1.01089 0.78858 0.0
H258 H 0.46851 0.04387 0.84966 0.0
H259 H 0.50292 0.0395 0.92029 0.0
H260 H 0.52307 0.92206 0.9776 0.0
H261 H 0.49384 0.89039 0.91681 0.0
C262 C 0.4644 0.92721 0.84727 0.0
C263 C 0.44906 0.95005 0.81268 0.0
C264 C 0.48093 0.94604 0.88273 0.0
C265 C 0.4504 0.99237 0.81458 0.0
C266 C 0.46747 1.0113 0.84958 0.0
C267 C 0.50082 1.00703 0.9195 0.0
C268 C 0.51559 0.98351 0.95401 0.0
C269 C 0.4831 0.98846 0.88398 0.0
C270 C 0.51213 0.94134 0.95202 0.0
C271 C 0.49539 0.92294 0.91701 0.0
H272 H 0.52981 0.51703 0.91768 0.0
H273 H 0.65353 0.57887 0.92337 0.0
H274 H 0.65372 0.58321 0.84901 0.0
H275 H 0.62509 0.56034 0.78379 0.0
H276 H 0.49836 0.50224 0.7766 0.0
H277 H 0.49414 0.50388 0.85065 0.0
C278 C 0.55567 0.53294 0.90253 0.0
C279 C 0.59118 0.54827 0.92574 0.0
C280 C 0.5561 0.53442 0.85977 0.0
C281 C 0.62535 0.56778 0.90599 0.0
C282 C 0.62585 0.5696 0.86354 0.0
C283 C 0.59559 0.54912 0.79783 0.0
C284 C 0.56236 0.53081 0.77402 0.0
C285 C 0.59231 0.55165 0.84022 0.0
C286 C 0.52532 0.51544 0.79378 0.0
C287 C 0.52244 0.5169 0.83623 0.0
H288 H 0.97493 0.53937 0.4387 0.0
H289 H 0.11867 0.54107 0.45854 0.0
H290 H 0.12708 0.56612 0.38875 0.0
H291 H 0.09408 0.57846 0.31952 0.0
H292 H 0.9501 0.57617 0.30044 0.0
H293 H 0.94095 0.56152 0.37275 0.0
C294 C 1.00795 0.54598 0.42789 0.0
C295 C 0.04624 0.53769 0.45318 0.0
C296 C 1.0124 0.5602 0.38789 0.0
C297 C 0.08885 0.54668 0.4392 0.0
C298 C 0.09361 0.56098 0.39938 0.0
C299 C 0.06065 0.57599 0.33151 0.0
C300 C 0.02285 0.57793 0.3047 0.0
C301 C 0.05574 0.56663 0.37302 0.0
C302 C 0.9797 0.57437 0.32051 0.0
C303 C 0.97447 0.5658 0.36177 0.0
H304 H 0.31324 0.0791 0.19063 0.0
H305 H 0.33192 0.20295 0.15846 0.0
H306 H 0.40332 0.18285 0.12616 0.0
H307 H 0.45968 0.1292 0.10525 0.0
H308 H 0.43935 1.00545 0.1382 0.0
H309 H 0.36975 0.02628 0.17155 0.0
C310 C 0.33319 0.10175 0.17694 0.0
C311 C 0.31743 0.14255 0.17724 0.0
C312 C 0.3739 0.08987 0.15811 0.0
C313 C 0.34354 0.17143 0.15897 0.0
C314 C 0.38423 0.15987 0.1403 0.0
C315 C 0.43998 0.1068 0.11966 0.0
C316 C 0.45502 0.06569 0.11892 0.0
C317 C 0.39962 0.11906 0.13929 0.0
C318 C 0.42895 0.03725 0.13811 0.0
C319 C 0.38897 0.04913 0.15733 0.0
H320 H 0.33802 0.99914 0.70125 0.0
H321 H 0.31077 0.87314 0.69134 0.0
H322 H 0.24181 0.89063 0.65214 0.0
H323 H 0.18869 0.94135 0.61967 0.0
H324 H 0.21237 0.06761 0.6327 0.0
H325 H 0.28243 0.05043 0.67138 0.0
C326 C 0.31679 0.97552 0.69092 0.0
C327 C 0.33055 0.93473 0.69883 0.0
C328 C 0.2763 0.98581 0.66853 0.0
C329 C 0.30216 0.90473 0.68497 0.0
C330 C 0.26234 0.91468 0.66261 0.0
C331 C 0.20931 0.96512 0.63073 0.0
C332 C 0.1953 1.00573 0.62283 0.0
C333 C 0.24922 0.95506 0.65379 0.0
C334 C 0.22224 0.03608 0.63812 0.0
C335 C 0.26239 0.02627 0.66037 0.0
H336 H 0.77871 0.47069 0.09272 0.0
H337 H 0.78255 0.48077 0.9618 0.0
H338 H 0.86258 0.49464 0.96624 0.0
H339 H 0.93146 0.50447 1.00764 0.0
H340 H 0.926 0.49843 0.13885 0.0
H341 H 0.84692 0.4822 0.13412 0.0
C342 C 0.79724 0.47591 0.06527 0.0
C343 C 0.77502 0.47484 1.02707 0.0
C344 C 0.84295 0.48448 0.06812 0.0
C345 C 0.79904 0.48188 0.99159 0.0
C346 C 0.84477 0.4896 0.9941 0.0
C347 C 0.91294 0.49936 1.0351 0.0
C348 C 0.93449 0.50247 0.07348 0.0
C349 C 0.86709 0.49103 1.03221 0.0
C350 C 0.91004 0.49631 0.10892 0.0
C351 C 0.86484 0.487 0.10628 0.0
H352 H 0.87129 0.55999 0.5776 0.0
H353 H 0.85759 0.61392 0.45771 0.0
H354 H 0.77616 0.60594 0.45727 0.0
H355 H 0.70889 0.58576 0.49185 0.0
H356 H 0.72144 0.53442 0.61322 0.0
H357 H 0.80321 0.53951 0.61244 0.0
C358 C 0.85034 0.56944 0.55129 0.0
C359 C 0.87003 0.58718 0.5176 0.0
C360 C 0.80345 0.56567 0.55174 0.0
C361 C 0.84284 0.60005 0.48385 0.0
C362 C 0.79641 0.59562 0.48367 0.0
C363 C 0.72944 0.57566 0.51818 0.0
C364 C 0.70902 0.55979 0.55256 0.0
C365 C 0.7763 0.5789 0.51763 0.0
C366 C 0.73625 0.54693 0.58641 0.0
C367 C 0.78304 0.54969 0.58595 0.0
H368 H 0.16589 0.27762 0.16749 0.0
H369 H 0.14711 0.32086 0.28988 0.0
H370 H 0.11811 0.38642 0.26273 0.0
H371 H 0.10048 0.43303 0.20372 0.0
H372 H 0.12084 0.38856 0.08183 0.0
H373 H 0.14707 0.32289 0.1093 0.0
C374 C 0.15575 0.30135 0.18842 0.0
C375 C 0.15914 0.29382 0.23092 0.0
C376 C 0.13943 0.33928 0.17257 0.0
C377 C 0.14468 0.32515 0.25712 0.0
C378 C 0.12832 0.36296 0.24155 0.0
C379 C 0.1105 0.40896 0.18314 0.0
C380 C 0.10861 0.41632 0.14052 0.0
C381 C 0.12584 0.37062 0.19926 0.0
C382 C 0.12181 0.38434 0.11463 0.0
C383 C 0.13693 0.3465 0.13035 0.0
H384 H 0.71225 0.35201 1.00712 0.0
H385 H 0.5953 0.39182 0.07405 0.0
H386 H 0.56994 0.32269 0.07517 0.0
H387 H 0.58034 0.25137 0.05491 0.0
H388 H 0.69618 0.21321 0.98534 0.0
H389 H 0.72267 0.28148 0.98711 0.0
C390 C 0.68177 0.34529 1.02279 0.0
C391 C 0.65604 0.37652 0.04119 0.0
C392 C 0.66688 0.30604 1.02211 0.0
C393 C 0.61585 0.36791 0.06024 0.0
C394 C 0.60123 0.32859 0.06054 0.0
C395 C 0.61103 0.25822 0.0397 0.0
C396 C 0.63624 0.22743 1.01991 0.0
C397 C 0.62615 0.29754 0.04098 0.0
C398 C 0.67636 0.23645 1.0009 0.0
C399 C 0.69156 0.27539 1.00198 0.0
H400 H 0.03395 0.68637 0.47195 0.0
H401 H 0.94515 0.69757 0.57376 0.0
H402 H 0.96202 0.76814 0.58154 0.0
H403 H 1.0005 0.82651 0.55912 0.0
H404 H 0.08643 0.81853 0.45512 0.0
H405 H 0.07323 0.7465 0.44905 0.0
C406 C 1.01858 0.70441 0.49583 0.0
C407 C 0.98809 0.68714 0.52204 0.0
C408 C 0.028 0.7453 0.49981 0.0
C409 C 0.96823 0.71055 0.55293 0.0
C410 C 0.97797 0.75077 0.55749 0.0
C411 C 1.0159 0.80928 0.53468 0.0
C412 C 0.04378 0.82806 0.50719 0.0
C413 C 1.0074 0.76849 0.53089 0.0
C414 C 0.06479 0.8048 0.47669 0.0
C415 C 0.05706 0.76369 0.47309 0.0
H416 H 0.4981 0.8119 0.60188 0.0
H417 H 0.5067 0.76806 0.72604 0.0
H418 H 0.52465 0.69952 0.70202 0.0
H419 H 0.53891 0.65218 0.64598 0.0
H420 H 0.53158 0.69562 0.52148 0.0
H421 H 0.51221 0.76402 0.54534 0.0
C422 C 0.50338 0.78722 0.62364 0.0
C423 C 0.49993 0.79503 0.66577 0.0
C424 C 0.51421 0.74783 0.60952 0.0
C425 C 0.50809 0.76283 0.69353 0.0
C426 C 0.51861 0.72365 0.67977 0.0
C427 C 0.53308 0.67652 0.62389 0.0
C428 C 0.53682 0.66848 0.5818 0.0
C429 C 0.5219 0.71579 0.63786 0.0
C430 C 0.52907 0.70069 0.55394 0.0
C431 C 0.51791 0.73988 0.56762 0.0
H432 H 0.96765 0.89735 0.78034 0.0
H433 H 0.94806 1.01106 0.84168 0.0
H434 H 0.97311 0.04671 0.78159 0.0
H435 H 1.00092 0.04622 0.71051 0.0
H436 H 1.01791 0.93212 0.649 0.0
H437 H 0.99392 0.89691 0.70929 0.0
C438 C 0.9691 0.9299 0.78072 0.0
C439 C 0.95575 0.9512 0.81596 0.0
C440 C 0.9831 0.95057 0.7455 0.0
C441 C 0.95758 0.99359 0.81519 0.0
C442 C 0.9721 1.01415 0.78068 0.0
C443 C 0.99925 1.01369 0.71018 0.0
C444 C 1.01146 0.99227 0.67461 0.0
C445 C 0.98485 0.99309 0.74542 0.0
C446 C 1.00883 0.94992 0.67539 0.0
C447 C 0.99511 0.92946 0.71016 0.0
H448 H 0.70141 0.07621 0.31934 0.0
H449 H 0.69795 0.1964 0.26811 0.0
H450 H 0.67099 0.1713 0.20275 0.0
H451 H 0.64553 0.11596 0.16015 0.0
H452 H 0.6462 0.99561 0.21072 0.0
H453 H 0.67697 1.01979 0.2755 0.0
C454 C 0.69513 0.09679 0.29375 0.0
C455 C 0.70154 0.13835 0.29905 0.0
C456 C 0.67881 0.0821 0.25586 0.0
C457 C 0.69287 0.16446 0.26536 0.0
C458 C 0.67749 0.15008 0.22777 0.0
C459 C 0.65261 0.09483 0.18519 0.0
C460 C 0.64338 0.05384 0.18014 0.0
C461 C 0.66982 0.10907 0.2227 0.0
C462 C 0.65278 0.02726 0.21337 0.0
C463 C 0.67043 0.04113 0.2506 0.0
H464 H 0.60362 0.57351 0.18269 0.0
H465 H 0.5793 0.44718 0.1935 0.0
H466 H 0.58702 0.4511 0.26776 0.0
H467 H 0.58724 0.49276 0.32897 0.0
H468 H 0.59816 0.62153 0.31755 0.0
H469 H 0.60827 0.61469 0.24426 0.0
C470 C 0.60036 0.54682 0.20128 0.0
C471 C 0.59022 0.51025 0.18276 0.0
C472 C 0.60127 0.55007 0.2439 0.0
C473 C 0.58749 0.47557 0.20714 0.0
C474 C 0.59116 0.47798 0.24957 0.0
C475 C 0.59163 0.51943 0.3105 0.0
C476 C 0.59093 0.55773 0.32874 0.0
C477 C 0.59565 0.5155 0.26822 0.0
C478 C 0.59845 0.59168 0.30445 0.0
C479 C 0.60408 0.58782 0.26246 0.0
H480 H 0.10579 0.45349 0.73125 0.0
H481 H 0.22567 0.52081 0.737 0.0
H482 H 0.2184 0.52789 0.81099 0.0
H483 H 0.17978 0.51205 0.8737 0.0
H484 H 0.05602 0.44939 0.86665 0.0
H485 H 0.06429 0.44164 0.79351 0.0
C486 C 0.13004 0.46998 0.74881 0.0
C487 C 0.16622 0.4866 0.72914 0.0
C488 C 0.12555 0.47389 0.79099 0.0
C489 C 0.1974 0.50812 0.75176 0.0
C490 C 0.19343 0.51181 0.79395 0.0
C491 C 0.15404 0.49729 0.85629 0.0
C492 C 0.11734 0.48128 0.87613 0.0
C493 C 0.15787 0.49443 0.81389 0.0
C494 C 0.08522 0.46126 0.85274 0.0
C495 C 0.08952 0.45728 0.81069 0.0
H496 H 0.82156 0.88957 0.95219 0.0
H497 H 0.85492 1.00912 0.91476 0.0
H498 H 0.7888 0.03789 0.94889 0.0
H499 H 0.72138 0.02957 0.99034 0.0
H500 H 0.69121 0.91025 1.03089 0.0
H501 H 0.75662 0.88149 0.99567 0.0
C502 C 0.81502 0.92201 0.95184 0.0
C503 C 0.84378 0.94684 0.93045 0.0
C504 C 0.77735 0.93866 0.97249 0.0
C505 C 0.83341 0.98882 0.93001 0.0
C506 C 0.79563 1.00549 0.94997 0.0
C507 C 0.72916 0.99727 0.99161 0.0
C508 C 0.70107 0.97223 1.01339 0.0
C509 C 0.76731 0.98074 0.97137 0.0
C510 C 0.71203 0.93043 1.01462 0.0
C511 C 0.74949 0.91385 0.99431 0.0
H512 H 0.80266 0.08246 0.41871 0.0
H513 H 0.83243 0.20784 0.42901 0.0
H514 H 0.89873 0.18954 0.47151 0.0
H515 H 0.94883 0.13834 0.50675 0.0
H516 H 0.92309 1.01253 0.49364 0.0
H517 H 0.85542 0.03049 0.45177 0.0
C518 C 0.82388 0.10573 0.42991 0.0
C519 C 0.81157 0.14664 0.42107 0.0
C520 C 0.86285 0.09495 0.45434 0.0
C521 C 0.83994 0.1762 0.43599 0.0
C522 C 0.87821 0.16578 0.4603 0.0
C523 C 0.92821 0.11484 0.49506 0.0
C524 C 0.94094 0.07414 0.50387 0.0
C525 C 0.88982 0.12533 0.4701 0.0
C526 C 0.91412 0.04414 0.48763 0.0
C527 C 0.87538 0.05439 0.46352 0.0
H528 H 0.35308 0.6098 0.1446 0.0
H529 H 0.38699 0.52555 0.04934 0.0
H530 H 0.30709 0.5124 0.03918 0.0
H531 H 0.22815 0.52409 0.05845 0.0
H532 H 0.1949 0.60629 0.15595 0.0
H533 H 0.27424 0.62123 0.16411 0.0
C534 C 0.34282 0.58894 0.12127 0.0
C535 C 0.37558 0.56896 0.09738 0.0
C536 C 0.29716 0.5811 0.1162 0.0
C537 C 0.36219 0.54128 0.06795 0.0
C538 C 0.31663 0.53382 0.06218 0.0
C539 C 0.23821 0.54541 0.0814 0.0
C540 C 0.20565 0.56414 0.10651 0.0
C541 C 0.28389 0.55341 0.08629 0.0
C542 C 0.2193 0.59141 0.1363 0.0
C543 C 0.26462 0.60001 0.14095 0.0
H544 H 0.26545 0.55118 0.51924 0.0
H545 H 0.26979 0.53341 0.64958 0.0
H546 H 0.35144 0.5192 0.64856 0.0
H547 H 0.42237 0.52011 0.61169 0.0
H548 H 0.41828 0.5417 0.48162 0.0
H549 H 0.33601 0.54608 0.48141 0.0
C550 C 0.2843 0.54347 0.54724 0.0
C551 C 0.26188 0.54358 0.58445 0.0
C552 C 0.33138 0.53664 0.54654 0.0
C553 C 0.28644 0.53345 0.62059 0.0
C554 C 0.33314 0.52565 0.62004 0.0
C555 C 0.40352 0.5252 0.58319 0.0
C556 C 0.42656 0.53104 0.54681 0.0
C557 C 0.35614 0.52844 0.58337 0.0
C558 C 0.40149 0.53749 0.51015 0.0
C559 C 0.35438 0.54002 0.50997 0.0
H560 H 0.02368 0.74488 0.91516 0.0
H561 H 0.93077 0.80015 0.99926 0.0
H562 H 0.95178 0.74721 0.05027 0.0
H563 H 0.99263 0.68087 0.06878 0.0
H564 H 0.08385 0.62695 0.98167 0.0
H565 H 0.06768 0.68299 0.93492 0.0
C566 C 1.00857 0.74579 0.94491 0.0
C567 C 0.97566 0.7766 0.95324 0.0
C568 C 1.02024 0.71483 0.97374 0.0
C569 C 0.95635 0.77697 0.99203 0.0
C570 C 0.96818 0.74645 1.02114 0.0
C571 C 1.00939 0.68172 0.03985 0.0
C572 C 0.03923 0.64902 1.02903 0.0
C573 C 0.99949 0.71453 1.01211 0.0
C574 C 0.06035 0.65101 0.99107 0.0
C575 C 0.0512 0.68329 0.96403 0.0
H576 H 0.46597 0.68378 0.0678 0.0
H577 H 0.53093 0.65533 0.18443 0.0
H578 H 0.55514 0.72438 0.18956 0.0
H579 H 0.55617 0.79367 0.16135 0.0
H580 H 0.48995 0.8211 0.045 0.0
H581 H 0.46743 0.75188 0.03963 0.0
C582 C 0.48506 0.69278 0.09453 0.0
C583 C 0.49646 0.66454 0.12568 0.0
C584 C 0.49853 0.73245 0.09742 0.0
C585 C 0.52202 0.67644 0.1598 0.0
C586 C 0.5357 0.71596 0.16286 0.0
C587 C 0.53705 0.7843 0.13479 0.0
C588 C 0.52429 0.81252 0.10388 0.0
C589 C 0.52405 0.74429 0.13187 0.0
C590 C 0.49944 0.80009 0.06959 0.0
C591 C 0.48672 0.76049 0.06636 0.0
H592 H 0.1065 0.39773 0.5981 0.0
H593 H 0.24075 0.365 0.64398 0.0
H594 H 0.22488 0.29342 0.6416 0.0
H595 H 0.17081 0.2413 0.6324 0.0
H596 H 0.03617 0.27334 0.58584 0.0
H597 H 0.05348 0.34443 0.58428 0.0
C598 C 0.13257 0.37467 0.60622 0.0
C599 C 0.17501 0.3861 0.62024 0.0
C600 C 0.12259 0.33382 0.60611 0.0
C601 C 0.20828 0.35646 0.63216 0.0
C602 C 0.19894 0.31574 0.63138 0.0
C603 C 0.14533 0.26365 0.62128 0.0
C604 C 0.10219 0.2518 0.60928 0.0
C605 C 0.15587 0.30421 0.61938 0.0
C606 C 0.06938 0.28152 0.596 0.0
C607 C 0.07945 0.32216 0.59453 0.0
H608 H 0.64082 0.2774 0.50711 0.0
H609 H 0.63735 0.31595 0.38126 0.0
H610 H 0.61739 0.38539 0.40174 0.0
H611 H 0.60004 0.43507 0.45541 0.0
H612 H 0.60274 0.39629 0.58143 0.0
H613 H 0.62373 0.32727 0.56093 0.0
C614 C 0.63617 0.30111 0.48422 0.0
C615 C 0.64154 0.29159 0.44269 0.0
C616 C 0.62424 0.34095 0.49627 0.0
C617 C 0.63433 0.32256 0.41339 0.0
C618 C 0.62268 0.36224 0.42512 0.0
C619 C 0.60516 0.41158 0.47849 0.0
C620 C 0.59966 0.42115 0.52005 0.0
C621 C 0.6174 0.3718 0.46647 0.0
C622 C 0.60659 0.39005 0.5493 0.0
C623 C 0.61869 0.35047 0.53758 0.0
loop_
_geom_bond_atom_site_label_1
_geom_bond_atom_site_label_2
_geom_bond_distance
_geom_bond_site_symmetry_2
_ccdc_geom_bond_type
H0 C7 0.929 . S
H1 C10 0.930 . S
H2 C12 0.929 . S
H3 C4 0.969 . S
C4 H3 0.969 . S
C4 O5 1.550 . S
C4 H6 0.973 . S
O5 C4 1.550 . S
O5 C11 1.412 . S
H6 C4 0.973 . S
C7 H0 0.929 . S
C7 C8 1.400 . S
C7 C9 1.364 . S
C8 C7 1.400 . S
C8 C12 1.377 . S
C9 C7 1.364 . S
C9 C10 1.374 . S
C10 H1 0.930 . S
C10 C9 1.374 . S
C10 C11 1.383 . S
C11 O5 1.412 . S
C11 C10 1.383 . S
C11 C12 1.394 . S
C12 H2 0.929 . S
C12 C8 1.377 . S
C12 C11 1.394 . S
H13 C20 0.929 . S
H14 C23 0.930 . S
H15 C25 0.929 . S
H16 C17 0.969 . S
C17 H16 0.969 . S
C17 O18 1.550 . S
C17 H19 0.973 . S
O18 C17 1.550 . S
O18 C24 1.412 . S
H19 C17 0.973 . S
C20 H13 0.929 . S
C20 C21 1.400 . S
C20 C22 1.364 . S
C21 C20 1.400 . S
C21 C25 1.377 . S
C22 C20 1.364 . S
C22 C23 1.374 . S
C23 H14 0.930 . S
C23 C22 1.374 . S
C23 C24 1.383 . S
C24 O18 1.412 . S
C24 C23 1.383 . S
C24 C25 1.394 . S
C25 H15 0.929 . S
C25 C21 1.377 . S
C25 C24 1.394 . S
H26 C33 0.927 . S
H27 C36 0.930 . S
H28 C38 0.929 . S
H29 C30 0.969 . S
C30 H29 0.969 . S
C30 O31 1.550 . S
C30 H32 0.973 . S
O31 C30 1.550 . S
O31 C37 1.412 . S
H32 C30 0.973 . S
C33 H26 0.927 . S
C33 C34 1.400 . S
C33 C35 1.364 . S
C34 C33 1.400 . S
C34 C38 1.377 . S
C35 C33 1.364 . S
C35 C36 1.374 . S
C36 H27 0.930 . S
C36 C35 1.374 . S
C36 C37 1.383 . S
C37 O31 1.412 . S
C37 C36 1.383 . S
C37 C38 1.394 . S
C38 H28 0.929 . S
C38 C34 1.377 . S
C38 C37 1.394 . S
H39 C46 0.929 . S
H40 C49 0.930 . S
H41 C51 0.929 . S
H42 C43 0.969 . S
C43 H42 0.969 . S
C43 O44 1.550 . S
C43 H45 0.973 . S
O44 C43 1.550 . S
O44 C50 1.412 . S
H45 C43 0.973 . S
C46 H39 0.929 . S
C46 C47 1.400 . S
C46 C48 1.364 . S
C47 C46 1.400 . S
C47 C51 1.377 . S
C48 C46 1.364 . S
C48 C49 1.374 . S
C49 H40 0.930 . S
C49 C48 1.374 . S
C49 C50 1.383 . S
C50 O44 1.412 . S
C50 C49 1.383 . S
C50 C51 1.394 . S
C51 H41 0.929 . S
C51 C47 1.377 . S
C51 C50 1.394 . S
H52 C59 0.929 . S
H53 C62 0.930 . S
H54 C64 0.929 . S
H55 C56 0.969 . S
C56 H55 0.969 . S
C56 O57 1.550 . S
C56 H58 0.973 . S
O57 C56 1.550 . S
O57 C63 1.412 . S
H58 C56 0.973 . S
C59 H52 0.929 . S
C59 C60 1.400 . S
C59 C61 1.364 . S
C60 C59 1.400 . S
C60 C64 1.377 . S
C61 C59 1.364 . S
C61 C62 1.374 . S
C62 H53 0.930 . S
C62 C61 1.374 . S
C62 C63 1.383 . S
C63 O57 1.412 . S
C63 C62 1.383 . S
C63 C64 1.394 . S
C64 H54 0.929 . S
C64 C60 1.377 . S
C64 C63 1.394 . S
H65 C72 0.929 . S
H66 C75 0.930 . S
H67 C77 0.929 . S
H68 C69 0.969 . S
C69 H68 0.969 . S
C69 O70 1.550 . S
C69 H71 0.973 . S
O70 C69 1.550 . S
O70 C76 1.412 . S
H71 C69 0.973 . S
C72 H65 0.929 . S
C72 C73 1.400 . S
C72 C74 1.364 . S
C73 C72 1.400 . S
C73 C77 1.377 . S
C74 C72 1.364 . S
C74 C75 1.374 . S
C75 H66 0.930 . S
C75 C74 1.374 . S
C75 C76 1.383 . S
C76 O70 1.412 . S
C76 C75 1.383 . S
C76 C77 1.394 . S
C77 H67 0.929 . S
C77 C73 1.377 . S
C77 C76 1.394 . S
H78 C85 0.929 . S
H79 C88 0.930 . S
H80 C90 0.929 . S
H81 C82 0.969 . S
C82 H81 0.969 . S
C82 O83 1.550 . S
C82 H84 0.973 . S
O83 C82 1.550 . S
O83 C89 1.412 . S
H84 C82 0.973 . S
C85 H78 0.929 . S
C85 C86 1.400 . S
C85 C87 1.364 . S
C86 C85 1.400 . S
C86 C90 1.377 . S
C87 C85 1.364 . S
C87 C88 1.374 . S
C88 H79 0.930 . S
C88 C87 1.374 . S
C88 C89 1.383 . S
C89 O83 1.412 . S
C89 C88 1.383 . S
C89 C90 1.394 . S
C90 H80 0.929 . S
C90 C86 1.377 . S
C90 C89 1.394 . S
H91 C98 0.929 . S
H92 C101 0.930 . S
H93 C103 0.929 . S
H94 C95 0.969 . S
C95 H94 0.969 . S
C95 O96 1.550 . S
C95 H97 0.973 . S
O96 C95 1.550 . S
O96 C102 1.412 . S
H97 C95 0.973 . S
C98 H91 0.929 . S
C98 C99 1.400 . S
C98 C100 1.364 . S
C99 C98 1.400 . S
C99 C103 1.377 . S
C100 C98 1.364 . S
C100 C101 1.374 . S
C101 H92 0.930 . S
C101 C100 1.374 . S
C101 C102 1.383 . S
C102 O96 1.412 . S
C102 C101 1.383 . S
C102 C103 1.394 . S
C103 H93 0.929 . S
C103 C99 1.377 . S
C103 C102 1.394 . S
C104 O120 1.251 . S
C104 O122 1.254 . S
N105 C106 1.333 . S
N105 C110 1.307 . S
N105 Zn111 2.020 . S
C106 N105 1.333 . S
C106 C107 1.379 . S
C106 H124 0.952 . S
C107 C106 1.379 . S
C107 C108 1.390 . S
C107 H134 0.949 . S
C108 C107 1.390 . S
C108 C109 1.357 . S
C109 C108 1.357 . S
C109 C110 1.370 . S
C109 H135 0.950 . S
C110 N105 1.307 . S
C110 C109 1.370 . S
C110 H128 0.948 . S
Zn111 N105 2.020 . S
Zn111 O120 2.039 . S
Zn111 O126 2.034 . S
Zn111 O130 2.025 . S
Zn111 O132 2.024 1_455 S
C112 O131 1.246 . S
C112 O132 1.249 . S
N113 C114 1.307 1_655 S
N113 C115 1.333 . S
N113 Zn119 2.020 1_655 S
C114 N113 1.307 1_455 S
C114 C118 1.370 . S
C114 H125 0.948 . S
C115 N113 1.333 . S
C115 C116 1.379 . S
C115 H123 0.952 . S
C116 C115 1.379 . S
C116 C117 1.390 . S
C116 H136 0.949 . S
C117 C116 1.390 . S
C117 C118 1.357 1_655 S
C118 C114 1.370 . S
C118 C117 1.357 1_455 S
C118 H137 0.950 . S
Zn119 N113 2.020 1_455 S
Zn119 O122 2.025 1_565 S
Zn119 O127 2.024 . S
Zn119 O129 2.039 . S
Zn119 O131 2.034 1_465 S
O120 C104 1.251 . S
O120 Zn111 2.039 . S
C121 O126 1.275 . S
C121 O127 1.229 1_545 S
O122 C104 1.254 . S
O122 Zn119 2.025 1_545 S
H123 C115 0.952 . S
H124 C106 0.952 . S
H125 C114 0.948 . S
O126 Zn111 2.034 . S
O126 C121 1.275 . S
O127 Zn119 2.024 . S
O127 C121 1.229 1_565 S
H128 C110 0.948 . S
O129 Zn119 2.039 . S
O129 C133 1.251 1_565 S
O130 Zn111 2.025 . S
O130 C133 1.254 . S
O131 C112 1.246 . S
O131 Zn119 2.034 1_645 S
O132 Zn111 2.024 1_655 S
O132 C112 1.249 . S
C133 O129 1.251 1_545 S
C133 O130 1.254 . S
H134 C107 0.949 . S
H135 C109 0.950 . S
H136 C116 0.949 . S
H137 C118 0.950 . S
C138 O154 1.251 1_564 S
C138 O156 1.254 . S
N139 C140 1.333 . S
N139 C144 1.307 . S
N139 Zn145 2.020 1_556 S
C140 N139 1.333 . S
C140 C141 1.379 . S
C140 H158 0.952 1_556 S
C141 C140 1.379 . S
C141 C142 1.390 . S
C141 H168 0.949 . S
C142 C141 1.390 . S
C142 C143 1.357 . S
C143 C142 1.357 . S
C143 C144 1.370 . S
C143 H169 0.950 . S
C144 N139 1.307 . S
C144 C143 1.370 . S
C144 H162 0.948 . S
Zn145 N139 2.020 1_554 S
Zn145 O154 2.039 1_554 S
Zn145 O160 2.034 . S
Zn145 O164 2.025 . S
Zn145 O166 2.024 1_554 S
C146 O165 1.246 . S
C146 O166 1.249 1_565 S
N147 C148 1.307 . S
N147 C149 1.333 . S
N147 Zn153 2.020 . S
C148 N147 1.307 . S
C148 C152 1.370 . S
C148 H159 0.948 . S
C149 N147 1.333 . S
C149 C150 1.379 . S
C149 H157 0.952 . S
C150 C149 1.379 . S
C150 C151 1.390 . S
C150 H170 0.949 . S
C151 C150 1.390 . S
C151 C152 1.357 . S
C152 C148 1.370 . S
C152 C151 1.357 . S
C152 H171 0.950 . S
Zn153 N147 2.020 . S
Zn153 O156 2.025 . S
Zn153 O161 2.024 . S
Zn153 O163 2.039 1_565 S
Zn153 O165 2.034 1_554 S
O154 C138 1.251 1_546 S
O154 Zn145 2.039 1_556 S
C155 O160 1.246 . S
C155 O161 1.249 1_545 S
O156 C138 1.254 . S
O156 Zn153 2.025 . S
H157 C149 0.952 . S
H158 C140 0.952 1_554 S
H159 C148 0.948 . S
O160 Zn145 2.034 . S
O160 C155 1.246 . S
O161 Zn153 2.024 . S
O161 C155 1.249 1_565 S
H162 C144 0.948 . S
O163 Zn153 2.039 1_545 S
O163 C167 1.251 . S
O164 Zn145 2.025 . S
O164 C167 1.254 . S
O165 C146 1.246 . S
O165 Zn153 2.034 1_556 S
O166 Zn145 2.024 1_556 S
O166 C146 1.249 1_545 S
C167 O163 1.251 . S
C167 O164 1.254 . S
H168 C141 0.949 . S
H169 C143 0.950 . S
H170 C150 0.949 . S
H171 C152 0.950 . S
C172 O188 1.251 . S
C172 O190 1.254 . S
N173 C174 1.333 . S
N173 C178 1.307 . S
N173 Zn179 2.020 . S
C174 N173 1.333 . S
C174 C175 1.379 . S
C174 H192 0.952 . S
C175 C174 1.379 . S
C175 C176 1.390 . S
C175 H202 0.949 . S
C176 C175 1.390 . S
C176 C177 1.357 . S
C177 C176 1.357 . S
C177 C178 1.370 . S
C177 H203 0.950 . S
C178 N173 1.307 . S
C178 C177 1.370 . S
C178 H196 0.948 . S
Zn179 N173 2.020 . S
Zn179 O188 2.039 . S
Zn179 O194 2.034 . S
Zn179 O198 2.025 . S
Zn179 O200 2.024 . S
C180 O199 1.246 . S
C180 O200 1.249 . S
N181 C182 1.307 . S
N181 C183 1.333 . S
N181 Zn187 2.020 . S
C182 N181 1.307 . S
C182 C186 1.370 . S
C182 H193 0.948 . S
C183 N181 1.333 . S
C183 C184 1.379 . S
C183 H191 0.952 . S
C184 C183 1.379 . S
C184 C185 1.390 . S
C184 H204 0.949 . S
C185 C184 1.390 . S
C185 C186 1.357 . S
C186 C182 1.370 . S
C186 C185 1.357 . S
C186 H205 0.950 . S
Zn187 N181 2.020 . S
Zn187 O190 2.025 . S
Zn187 O195 2.024 . S
Zn187 O197 2.039 . S
Zn187 O199 2.034 . S
O188 C172 1.251 . S
O188 Zn179 2.039 . S
C189 O194 1.246 . S
C189 O195 1.249 . S
O190 C172 1.254 . S
O190 Zn187 2.025 . S
H191 C183 0.952 . S
H192 C174 0.952 . S
H193 C182 0.948 . S
O194 Zn179 2.034 . S
O194 C189 1.246 . S
O195 Zn187 2.024 . S
O195 C189 1.249 . S
H196 C178 0.948 . S
O197 Zn187 2.039 . S
O197 C201 1.251 . S
O198 Zn179 2.025 . S
O198 C201 1.254 . S
O199 C180 1.246 . S
O199 Zn187 2.034 . S
O200 Zn179 2.024 . S
O200 C180 1.249 . S
C201 O197 1.251 . S
C201 O198 1.254 . S
H202 C175 0.949 . S
H203 C177 0.950 . S
H204 C184 0.949 . S
H205 C186 0.950 . S
C206 O222 1.251 . S
C206 O224 1.254 1_554 S
N207 C208 1.333 . S
N207 C212 1.307 . S
N207 Zn213 2.020 . S
C208 N207 1.333 . S
C208 C209 1.379 . S
C208 H226 0.952 . S
C209 C208 1.379 . S
C209 C210 1.390 1_455 S
C209 H236 0.949 . S
C210 C209 1.390 1_655 S
C210 C211 1.357 . S
C211 C210 1.357 . S
C211 C212 1.370 1_655 S
C211 H237 0.950 . S
C212 N207 1.307 . S
C212 C211 1.370 1_455 S
C212 H230 0.947 1_455 S
Zn213 N207 2.020 . S
Zn213 O222 2.039 . S
Zn213 O228 2.034 . S
Zn213 O232 2.025 . S
Zn213 O234 2.024 1_455 S
C214 O233 1.246 1_654 S
C214 O234 1.249 . S
N215 C216 1.307 . S
N215 C217 1.333 . S
N215 Zn221 2.020 . S
C216 N215 1.307 . S
C216 C220 1.370 . S
C216 H227 0.948 . S
C217 N215 1.333 . S
C217 C218 1.379 . S
C217 H225 0.952 . S
C218 C217 1.379 . S
C218 C219 1.390 . S
C218 H238 0.949 . S
C219 C218 1.390 . S
C219 C220 1.357 . S
C220 C216 1.370 . S
C220 C219 1.357 . S
C220 H239 0.950 . S
Zn221 N215 2.020 . S
Zn221 O224 2.025 . S
Zn221 O229 2.024 1_556 S
Zn221 O231 2.039 1_556 S
Zn221 O233 2.034 . S
O222 C206 1.251 . S
O222 Zn213 2.039 . S
C223 O228 1.246 . S
C223 O229 1.249 . S
O224 C206 1.254 1_556 S
O224 Zn221 2.025 . S
H225 C217 0.952 . S
H226 C208 0.952 . S
H227 C216 0.948 . S
O228 Zn213 2.034 . S
O228 C223 1.246 . S
O229 Zn221 2.024 1_554 S
O229 C223 1.249 . S
H230 C212 0.947 1_655 S
O231 Zn221 2.039 1_554 S
O231 C235 1.251 . S
O232 Zn213 2.025 . S
O232 C235 1.254 . S
O233 C214 1.246 1_456 S
O233 Zn221 2.034 . S
O234 Zn213 2.024 1_655 S
O234 C214 1.249 . S
C235 O231 1.251 . S
C235 O232 1.254 . S
H236 C209 0.949 . S
H237 C211 0.950 . S
H238 C218 0.949 . S
H239 C220 0.950 . S
H240 C246 0.930 . S
H241 C249 0.930 . S
H242 C250 0.930 . S
H243 C251 0.930 . S
H244 C254 0.930 . S
H245 C255 0.930 . S
C246 H240 0.930 . S
C246 C247 1.355 . S
C246 C248 1.415 . S
C247 C246 1.355 . S
C247 C249 1.419 . S
C248 C246 1.415 . S
C248 C253 1.425 . S
C248 C255 1.409 . S
C249 H241 0.930 . S
C249 C247 1.419 . S
C249 C250 1.362 . S
C250 H242 0.930 . S
C250 C249 1.362 . S
C250 C253 1.409 . S
C251 H243 0.930 . S
C251 C252 1.355 . S
C251 C253 1.415 . S
C252 C251 1.355 . S
C252 C254 1.419 . S
C253 C248 1.425 . S
C253 C250 1.409 . S
C253 C251 1.415 . S
C254 H244 0.930 . S
C254 C252 1.419 . S
C254 C255 1.362 . S
C255 H245 0.930 . S
C255 C248 1.409 . S
C255 C254 1.362 . S
H256 C262 0.930 . S
H257 C265 0.930 . S
H258 C266 0.930 . S
H259 C267 0.930 . S
H260 C270 0.930 1_545 S
H261 C271 0.930 . S
C262 H256 0.930 . S
C262 C263 1.355 . S
C262 C264 1.415 . S
C263 C262 1.355 . S
C263 C265 1.419 . S
C264 C262 1.415 . S
C264 C269 1.425 . S
C264 C271 1.409 . S
C265 H257 0.930 . S
C265 C263 1.419 . S
C265 C266 1.362 . S
C266 H258 0.930 . S
C266 C265 1.362 . S
C266 C269 1.409 . S
C267 H259 0.930 . S
C267 C268 1.355 . S
C267 C269 1.415 . S
C268 C267 1.355 . S
C268 C270 1.419 . S
C269 C264 1.425 . S
C269 C266 1.409 . S
C269 C267 1.415 . S
C270 H260 0.930 1_565 S
C270 C268 1.419 . S
C270 C271 1.362 . S
C271 H261 0.930 . S
C271 C264 1.409 . S
C271 C270 1.362 . S
H272 C278 0.930 . S
H273 C281 0.930 . S
H274 C282 0.930 . S
H275 C283 0.930 . S
H276 C286 0.930 . S
H277 C287 0.930 . S
C278 H272 0.930 . S
C278 C279 1.355 . S
C278 C280 1.415 . S
C279 C278 1.355 . S
C279 C281 1.419 . S
C280 C278 1.415 . S
C280 C285 1.425 . S
C280 C287 1.409 . S
C281 H273 0.930 . S
C281 C279 1.419 . S
C281 C282 1.362 . S
C282 H274 0.930 . S
C282 C281 1.362 . S
C282 C285 1.409 . S
C283 H275 0.930 . S
C283 C284 1.355 . S
C283 C285 1.415 . S
C284 C283 1.355 . S
C284 C286 1.419 . S
C285 C280 1.425 . S
C285 C282 1.409 . S
C285 C283 1.415 . S
C286 H276 0.930 . S
C286 C284 1.419 . S
C286 C287 1.362 . S
C287 H277 0.930 . S
C287 C280 1.409 . S
C287 C286 1.362 . S
H288 C294 0.930 . S
H289 C297 0.930 1_455 S
H290 C298 0.930 . S
H291 C299 0.930 . S
H292 C302 0.930 . S
H293 C303 0.930 . S
C294 H288 0.930 . S
C294 C295 1.355 . S
C294 C296 1.415 . S
C295 C294 1.355 . S
C295 C297 1.419 . S
C296 C294 1.415 . S
C296 C301 1.425 . S
C296 C303 1.409 . S
C297 H289 0.930 1_655 S
C297 C295 1.419 . S
C297 C298 1.362 1_655 S
C298 H290 0.930 . S
C298 C297 1.362 1_455 S
C298 C301 1.409 1_455 S
C299 H291 0.930 . S
C299 C300 1.355 1_455 S
C299 C301 1.415 1_455 S
C300 C299 1.355 1_655 S
C300 C302 1.419 . S
C301 C296 1.425 . S
C301 C298 1.409 1_655 S
C301 C299 1.415 1_655 S
C302 H292 0.930 . S
C302 C300 1.419 . S
C302 C303 1.362 . S
C303 H293 0.930 . S
C303 C296 1.409 . S
C303 C302 1.362 . S
H304 C310 0.930 . S
H305 C313 0.930 . S
H306 C314 0.930 . S
H307 C315 0.930 . S
H308 C318 0.930 . S
H309 C319 0.930 . S
C310 H304 0.930 . S
C310 C311 1.355 . S
C310 C312 1.415 . S
C311 C310 1.355 . S
C311 C313 1.419 . S
C312 C310 1.415 . S
C312 C317 1.425 . S
C312 C319 1.409 . S
C313 H305 0.930 . S
C313 C311 1.419 . S
C313 C314 1.362 . S
C314 H306 0.930 . S
C314 C313 1.362 . S
C314 C317 1.409 . S
C315 H307 0.930 . S
C315 C316 1.355 . S
C315 C317 1.415 . S
C316 C315 1.355 . S
C316 C318 1.419 . S
C317 C312 1.425 . S
C317 C314 1.409 . S
C317 C315 1.415 . S
C318 H308 0.930 . S
C318 C316 1.419 . S
C318 C319 1.362 . S
C319 H309 0.930 . S
C319 C312 1.409 . S
C319 C318 1.362 . S
H320 C326 0.930 1_545 S
H321 C329 0.930 . S
H322 C330 0.930 . S
H323 C331 0.930 . S
H324 C334 0.930 . S
H325 C335 0.930 . S
C326 H320 0.930 1_565 S
C326 C327 1.355 . S
C326 C328 1.415 . S
C327 C326 1.355 . S
C327 C329 1.419 . S
C328 C326 1.415 . S
C328 C333 1.425 . S
C328 C335 1.409 1_565 S
C329 H321 0.930 . S
C329 C327 1.419 . S
C329 C330 1.362 . S
C330 H322 0.930 . S
C330 C329 1.362 . S
C330 C333 1.409 . S
C331 H323 0.930 . S
C331 C332 1.355 . S
C331 C333 1.415 . S
C332 C331 1.355 . S
C332 C334 1.419 1_565 S
C333 C328 1.425 . S
C333 C330 1.409 . S
C333 C331 1.415 . S
C334 H324 0.930 . S
C334 C332 1.419 1_545 S
C334 C335 1.362 . S
C335 H325 0.930 . S
C335 C328 1.409 1_545 S
C335 C334 1.362 . S
H336 C342 0.930 . S
H337 C345 0.930 . S
H338 C346 0.930 . S
H339 C347 0.930 . S
H340 C350 0.930 . S
H341 C351 0.930 . S
C342 H336 0.930 . S
C342 C343 1.355 1_554 S
C342 C344 1.415 . S
C343 C342 1.355 1_556 S
C343 C345 1.419 . S
C344 C342 1.415 . S
C344 C349 1.425 1_554 S
C344 C351 1.409 . S
C345 H337 0.930 . S
C345 C343 1.419 . S
C345 C346 1.362 . S
C346 H338 0.930 . S
C346 C345 1.362 . S
C346 C349 1.409 . S
C347 H339 0.930 . S
C347 C348 1.355 1_556 S
C347 C349 1.415 . S
C348 C347 1.355 1_554 S
C348 C350 1.419 . S
C349 C344 1.425 1_556 S
C349 C346 1.409 . S
C349 C347 1.415 . S
C350 H340 0.930 . S
C350 C348 1.419 . S
C350 C351 1.362 . S
C351 H341 0.930 . S
C351 C344 1.409 . S
C351 C350 1.362 . S
H352 C358 0.930 . S
H353 C361 0.930 . S
H354 C362 0.930 . S
H355 C363 0.930 . S
H356 C366 0.930 . S
H357 C367 0.930 . S
C358 H352 0.930 . S
C358 C359 1.355 . S
C358 C360 1.415 . S
C359 C358 1.355 . S
C359 C361 1.419 . S
C360 C358 1.415 . S
C360 C365 1.425 . S
C360 C367 1.409 . S
C361 H353 0.930 . S
C361 C359 1.419 . S
C361 C362 1.362 . S
C362 H354 0.930 . S
C362 C361 1.362 . S
C362 C365 1.409 . S
C363 H355 0.930 . S
C363 C364 1.355 . S
C363 C365 1.415 . S
C364 C363 1.355 . S
C364 C366 1.419 . S
C365 C360 1.425 . S
C365 C362 1.409 . S
C365 C363 1.415 . S
C366 H356 0.930 . S
C366 C364 1.419 . S
C366 C367 1.362 . S
C367 H357 0.930 . S
C367 C360 1.409 . S
C367 C366 1.362 . S
H368 C374 0.930 . S
H369 C377 0.930 . S
H370 C378 0.930 . S
H371 C379 0.930 . S
H372 C382 0.930 . S
H373 C383 0.930 . S
C374 H368 0.930 . S
C374 C375 1.355 . S
C374 C376 1.415 . S
C375 C374 1.355 . S
C375 C377 1.419 . S
C376 C374 1.415 . S
C376 C381 1.425 . S
C376 C383 1.409 . S
C377 H369 0.930 . S
C377 C375 1.419 . S
C377 C378 1.362 . S
C378 H370 0.930 . S
C378 C377 1.362 . S
C378 C381 1.409 . S
C379 H371 0.930 . S
C379 C380 1.355 . S
C379 C381 1.415 . S
C380 C379 1.355 . S
C380 C382 1.419 . S
C381 C376 1.425 . S
C381 C378 1.409 . S
C381 C379 1.415 . S
C382 H372 0.930 . S
C382 C380 1.419 . S
C382 C383 1.362 . S
C383 H373 0.930 . S
C383 C376 1.409 . S
C383 C382 1.362 . S
H384 C390 0.930 . S
H385 C393 0.930 . S
H386 C394 0.926 1_554 S
H387 C395 0.930 . S
H388 C398 0.930 . S
H389 C399 0.930 . S
C390 H384 0.930 . S
C390 C391 1.355 . S
C390 C392 1.415 . S
C391 C390 1.355 . S
C391 C393 1.419 . S
C392 C390 1.415 . S
C392 C397 1.425 . S
C392 C399 1.409 . S
C393 H385 0.930 . S
C393 C391 1.419 . S
C393 C394 1.362 . S
C394 H386 0.926 1_556 S
C394 C393 1.362 . S
C394 C397 1.409 . S
C395 H387 0.930 . S
C395 C396 1.355 . S
C395 C397 1.415 . S
C396 C395 1.355 . S
C396 C398 1.419 . S
C397 C392 1.425 . S
C397 C394 1.409 . S
C397 C395 1.415 . S
C398 H388 0.930 . S
C398 C396 1.419 . S
C398 C399 1.362 . S
C399 H389 0.930 . S
C399 C392 1.409 . S
C399 C398 1.362 . S
H400 C406 0.930 . S
H401 C409 0.930 . S
H402 C410 0.930 . S
H403 C411 0.930 . S
H404 C414 0.930 . S
H405 C415 0.930 . S
C406 H400 0.930 . S
C406 C407 1.355 . S
C406 C408 1.415 . S
C407 C406 1.355 . S
C407 C409 1.419 . S
C408 C406 1.415 . S
C408 C413 1.425 . S
C408 C415 1.409 . S
C409 H401 0.930 . S
C409 C407 1.419 . S
C409 C410 1.362 . S
C410 H402 0.930 . S
C410 C409 1.362 . S
C410 C413 1.409 . S
C411 H403 0.930 . S
C411 C412 1.355 . S
C411 C413 1.415 . S
C412 C411 1.355 . S
C412 C414 1.419 . S
C413 C408 1.425 . S
C413 C410 1.409 . S
C413 C411 1.415 . S
C414 H404 0.930 . S
C414 C412 1.419 . S
C414 C415 1.362 . S
C415 H405 0.930 . S
C415 C408 1.409 . S
C415 C414 1.362 . S
H416 C422 0.930 . S
H417 C425 0.930 . S
H418 C426 0.930 . S
H419 C427 0.930 . S
H420 C430 0.930 . S
H421 C431 0.930 . S
C422 H416 0.930 . S
C422 C423 1.355 . S
C422 C424 1.415 . S
C423 C422 1.355 . S
C423 C425 1.419 . S
C424 C422 1.415 . S
C424 C429 1.425 . S
C424 C431 1.409 . S
C425 H417 0.930 . S
C425 C423 1.419 . S
C425 C426 1.362 . S
C426 H418 0.930 . S
C426 C425 1.362 . S
C426 C429 1.409 . S
C427 H419 0.930 . S
C427 C428 1.355 . S
C427 C429 1.415 . S
C428 C427 1.355 . S
C428 C430 1.419 . S
C429 C424 1.425 . S
C429 C426 1.409 . S
C429 C427 1.415 . S
C430 H420 0.930 . S
C430 C428 1.419 . S
C430 C431 1.362 . S
C431 H421 0.930 . S
C431 C424 1.409 . S
C431 C430 1.362 . S
H432 C438 0.930 . S
H433 C441 0.930 . S
H434 C442 0.930 1_445 S
H435 C443 0.936 1_455 S
H436 C446 0.930 . S
H437 C447 0.930 . S
C438 H432 0.930 . S
C438 C439 1.355 . S
C438 C440 1.415 . S
C439 C438 1.355 . S
C439 C441 1.419 . S
C440 C438 1.415 . S
C440 C445 1.425 . S
C440 C447 1.409 . S
C441 H433 0.930 . S
C441 C439 1.419 . S
C441 C442 1.362 . S
C442 H434 0.930 1_665 S
C442 C441 1.362 . S
C442 C445 1.409 . S
C443 H435 0.936 1_655 S
C443 C444 1.352 1_545 S
C443 C445 1.411 1_545 S
C444 C443 1.352 1_565 S
C444 C446 1.419 . S
C445 C440 1.425 . S
C445 C442 1.409 . S
C445 C443 1.411 1_565 S
C446 H436 0.930 . S
C446 C444 1.419 . S
C446 C447 1.362 . S
C447 H437 0.930 . S
C447 C440 1.409 . S
C447 C446 1.362 . S
H448 C454 0.930 . S
H449 C457 0.930 . S
H450 C458 0.930 . S
H451 C459 0.930 . S
H452 C462 0.930 . S
H453 C463 0.930 . S
C454 H448 0.930 . S
C454 C455 1.355 . S
C454 C456 1.415 . S
C455 C454 1.355 . S
C455 C457 1.419 . S
C456 C454 1.415 . S
C456 C461 1.425 . S
C456 C463 1.409 . S
C457 H449 0.930 . S
C457 C455 1.419 . S
C457 C458 1.362 . S
C458 H450 0.930 . S
C458 C457 1.362 . S
C458 C461 1.409 . S
C459 H451 0.930 . S
C459 C460 1.355 . S
C459 C461 1.415 . S
C460 C459 1.355 . S
C460 C462 1.419 . S
C461 C456 1.425 . S
C461 C458 1.409 . S
C461 C459 1.415 . S
C462 H452 0.930 . S
C462 C460 1.419 . S
C462 C463 1.362 . S
C463 H453 0.930 . S
C463 C456 1.409 . S
C463 C462 1.362 . S
H464 C470 0.930 . S
H465 C473 0.930 . S
H466 C474 0.930 . S
H467 C475 0.930 . S
H468 C478 0.930 . S
H469 C479 0.930 . S
C470 H464 0.930 . S
C470 C471 1.355 . S
C470 C472 1.415 . S
C471 C470 1.355 . S
C471 C473 1.419 . S
C472 C470 1.415 . S
C472 C477 1.425 . S
C472 C479 1.409 . S
C473 H465 0.930 . S
C473 C471 1.419 . S
C473 C474 1.362 . S
C474 H466 0.930 . S
C474 C473 1.362 . S
C474 C477 1.409 . S
C475 H467 0.930 . S
C475 C476 1.355 . S
C475 C477 1.415 . S
C476 C475 1.355 . S
C476 C478 1.419 . S
C477 C472 1.425 . S
C477 C474 1.409 . S
C477 C475 1.415 . S
C478 H468 0.930 . S
C478 C476 1.419 . S
C478 C479 1.362 . S
C479 H469 0.930 . S
C479 C472 1.409 . S
C479 C478 1.362 . S
H480 C486 0.930 . S
H481 C489 0.930 . S
H482 C490 0.930 . S
H483 C491 0.930 . S
H484 C494 0.930 . S
H485 C495 0.930 . S
C486 H480 0.930 . S
C486 C487 1.355 . S
C486 C488 1.415 . S
C487 C486 1.355 . S
C487 C489 1.419 . S
C488 C486 1.415 . S
C488 C493 1.425 . S
C488 C495 1.409 . S
C489 H481 0.930 . S
C489 C487 1.419 . S
C489 C490 1.362 . S
C490 H482 0.930 . S
C490 C489 1.362 . S
C490 C493 1.409 . S
C491 H483 0.930 . S
C491 C492 1.355 . S
C491 C493 1.415 . S
C492 C491 1.355 . S
C492 C494 1.419 . S
C493 C488 1.425 . S
C493 C490 1.409 . S
C493 C491 1.415 . S
C494 H484 0.930 . S
C494 C492 1.419 . S
C494 C495 1.362 . S
C495 H485 0.930 . S
C495 C488 1.409 . S
C495 C494 1.362 . S
H496 C502 0.930 . S
H497 C505 0.930 . S
H498 C506 0.930 . S
H499 C507 0.930 . S
H500 C510 0.930 . S
H501 C511 0.930 . S
C502 H496 0.930 . S
C502 C503 1.355 . S
C502 C504 1.415 . S
C503 C502 1.355 . S
C503 C505 1.419 . S
C504 C502 1.415 . S
C504 C509 1.425 . S
C504 C511 1.409 1_556 S
C505 H497 0.930 . S
C505 C503 1.419 . S
C505 C506 1.362 . S
C506 H498 0.930 . S
C506 C505 1.362 . S
C506 C509 1.409 . S
C507 H499 0.930 . S
C507 C508 1.355 . S
C507 C509 1.415 . S
C508 C507 1.355 . S
C508 C510 1.419 1_556 S
C509 C504 1.425 . S
C509 C506 1.409 . S
C509 C507 1.415 . S
C510 H500 0.930 . S
C510 C508 1.419 1_554 S
C510 C511 1.362 . S
C511 H501 0.930 . S
C511 C504 1.409 1_554 S
C511 C510 1.362 . S
H512 C518 0.930 . S
H513 C521 0.930 . S
H514 C522 0.930 . S
H515 C523 0.930 . S
H516 C526 0.930 . S
H517 C527 0.930 . S
C518 H512 0.930 . S
C518 C519 1.355 . S
C518 C520 1.415 . S
C519 C518 1.355 . S
C519 C521 1.419 . S
C520 C518 1.415 . S
C520 C525 1.425 . S
C520 C527 1.409 . S
C521 H513 0.930 . S
C521 C519 1.419 . S
C521 C522 1.362 . S
C522 H514 0.930 . S
C522 C521 1.362 . S
C522 C525 1.409 . S
C523 H515 0.930 . S
C523 C524 1.355 . S
C523 C525 1.415 . S
C524 C523 1.355 . S
C524 C526 1.419 . S
C525 C520 1.425 . S
C525 C522 1.409 . S
C525 C523 1.415 . S
C526 H516 0.930 . S
C526 C524 1.419 . S
C526 C527 1.362 . S
C527 H517 0.930 . S
C527 C520 1.409 . S
C527 C526 1.362 . S
H528 C534 0.930 . S
H529 C537 0.930 . S
H530 C538 0.930 . S
H531 C539 0.930 . S
H532 C542 0.930 . S
H533 C543 0.930 . S
C534 H528 0.930 . S
C534 C535 1.355 . S
C534 C536 1.415 . S
C535 C534 1.355 . S
C535 C537 1.419 . S
C536 C534 1.415 . S
C536 C541 1.425 . S
C536 C543 1.409 . S
C537 H529 0.930 . S
C537 C535 1.419 . S
C537 C538 1.362 . S
C538 H530 0.930 . S
C538 C537 1.362 . S
C538 C541 1.409 . S
C539 H531 0.930 . S
C539 C540 1.355 . S
C539 C541 1.415 . S
C540 C539 1.355 . S
C540 C542 1.419 . S
C541 C536 1.425 . S
C541 C538 1.409 . S
C541 C539 1.415 . S
C542 H532 0.930 . S
C542 C540 1.419 . S
C542 C543 1.362 . S
C543 H533 0.930 . S
C543 C536 1.409 . S
C543 C542 1.362 . S
H544 C550 0.930 . S
H545 C553 0.930 . S
H546 C554 0.930 . S
H547 C555 0.930 . S
H548 C558 0.930 . S
H549 C559 0.930 . S
C550 H544 0.930 . S
C550 C551 1.355 . S
C550 C552 1.415 . S
C551 C550 1.355 . S
C551 C553 1.419 . S
C552 C550 1.415 . S
C552 C557 1.425 . S
C552 C559 1.409 . S
C553 H545 0.930 . S
C553 C551 1.419 . S
C553 C554 1.362 . S
C554 H546 0.930 . S
C554 C553 1.362 . S
C554 C557 1.409 . S
C555 H547 0.930 . S
C555 C556 1.355 . S
C555 C557 1.415 . S
C556 C555 1.355 . S
C556 C558 1.419 . S
C557 C552 1.425 . S
C557 C554 1.409 . S
C557 C555 1.415 . S
C558 H548 0.930 . S
C558 C556 1.419 . S
C558 C559 1.362 . S
C559 H549 0.930 . S
C559 C552 1.409 . S
C559 C558 1.362 . S
H560 C566 0.930 . S
H561 C569 0.924 1_554 S
H562 C570 0.930 . S
H563 C571 0.930 . S
H564 C574 0.930 . S
H565 C575 0.930 . S
C566 H560 0.930 . S
C566 C567 1.355 . S
C566 C568 1.415 . S
C567 C566 1.355 . S
C567 C569 1.419 1_655 S
C568 C566 1.415 . S
C568 C573 1.425 1_655 S
C568 C575 1.409 . S
C569 H561 0.924 1_556 S
C569 C567 1.419 1_455 S
C569 C570 1.362 1_556 S
C570 H562 0.930 . S
C570 C569 1.362 1_554 S
C570 C573 1.409 1_554 S
C571 H563 0.930 . S
C571 C572 1.355 1_554 S
C571 C573 1.415 1_554 S
C572 C571 1.355 1_556 S
C572 C574 1.419 1_455 S
C573 C568 1.425 1_455 S
C573 C570 1.409 1_556 S
C573 C571 1.415 1_556 S
C574 H564 0.930 . S
C574 C572 1.419 1_655 S
C574 C575 1.362 . S
C575 H565 0.930 . S
C575 C568 1.409 . S
C575 C574 1.362 . S
H576 C582 0.930 . S
H577 C585 0.930 . S
H578 C586 0.930 . S
H579 C587 0.930 . S
H580 C590 0.930 . S
H581 C591 0.930 . S
C582 H576 0.930 . S
C582 C583 1.355 . S
C582 C584 1.415 . S
C583 C582 1.355 . S
C583 C585 1.419 . S
C584 C582 1.415 . S
C584 C589 1.425 . S
C584 C591 1.409 . S
C585 H577 0.930 . S
C585 C583 1.419 . S
C585 C586 1.362 . S
C586 H578 0.930 . S
C586 C585 1.362 . S
C586 C589 1.409 . S
C587 H579 0.930 . S
C587 C588 1.355 . S
C587 C589 1.415 . S
C588 C587 1.355 . S
C588 C590 1.419 . S
C589 C584 1.425 . S
C589 C586 1.409 . S
C589 C587 1.415 . S
C590 H580 0.930 . S
C590 C588 1.419 . S
C590 C591 1.362 . S
C591 H581 0.930 . S
C591 C584 1.409 . S
C591 C590 1.362 . S
H592 C598 0.930 . S
H593 C601 0.930 . S
H594 C602 0.930 . S
H595 C603 0.930 . S
H596 C606 0.930 . S
H597 C607 0.930 . S
C598 H592 0.930 . S
C598 C599 1.355 . S
C598 C600 1.415 . S
C599 C598 1.355 . S
C599 C601 1.419 . S
C600 C598 1.415 . S
C600 C605 1.425 . S
C600 C607 1.409 . S
C601 H593 0.930 . S
C601 C599 1.419 . S
C601 C602 1.362 . S
C602 H594 0.930 . S
C602 C601 1.362 . S
C602 C605 1.409 . S
C603 H595 0.930 . S
C603 C604 1.355 . S
C603 C605 1.415 . S
C604 C603 1.355 . S
C604 C606 1.419 . S
C605 C600 1.425 . S
C605 C602 1.409 . S
C605 C603 1.415 . S
C606 H596 0.930 . S
C606 C604 1.419 . S
C606 C607 1.362 . S
C607 H597 0.930 . S
C607 C600 1.409 . S
C607 C606 1.362 . S
H608 C614 0.930 . S
H609 C617 0.930 . S
H610 C618 0.930 . S
H611 C619 0.930 . S
H612 C622 0.930 . S
H613 C623 0.930 . S
C614 H608 0.930 . S
C614 C615 1.355 . S
C614 C616 1.415 . S
C615 C614 1.355 . S
C615 C617 1.419 . S
C616 C614 1.415 . S
C616 C621 1.425 . S
C616 C623 1.409 . S
C617 H609 0.930 . S
C617 C615 1.419 . S
C617 C618 1.362 . S
C618 H610 0.930 . S
C618 C617 1.362 . S
C618 C621 1.409 . S
C619 H611 0.930 . S
C619 C620 1.355 . S
C619 C621 1.415 . S
C620 C619 1.355 . S
C620 C622 1.419 . S
C621 C616 1.425 . S
C621 C618 1.409 . S
C621 C619 1.415 . S
C622 H612 0.930 . S
C622 C620 1.419 . S
C622 C623 1.362 . S
C623 H613 0.930 . S
C623 C616 1.409 . S
C623 C622 1.362 . S
C247 C9 2.710 . S
C252 C104 2.724 . S
C263 C21 2.242 . S
C268 C146 2.244 . S
C284 C176 0.775 . S
C279 C30 0.834 . S
C295 C43 0.896 . S
C300 C210 0.872 . S
C316 C167 1.750 . S
C311 C4 1.748 . S
C332 C121 2.266 1_565 S
C327 C22 2.262 . S
C348 C214 0.978 . S
C343 C34 0.964 . S
C364 C180 1.178 . S
C359 C48 1.122 . S
C375 C8 2.287 . S
C380 C235 2.299 . S
C396 C142 1.208 . S
C391 C35 1.214 . S
C407 C47 1.188 . S
C412 C117 1.186 . S
C423 C17 1.957 . S
C428 C201 1.969 . S
C444 C133 2.328 1_665 S
C439 C60 2.326 . S
C455 C74 2.524 . S
C460 C155 2.547 . S
C471 C82 0.735 . S
C476 C185 0.784 . S
C487 C100 1.280 . S
C492 C219 1.287 . S
C503 C61 2.106 . S
C508 C138 2.135 1_556 S
C524 C112 1.934 . S
C519 C73 1.904 . S
C540 C223 1.425 . S
C535 C87 1.453 . S
C556 C189 0.894 . S
C551 C95 0.816 . S
C567 C56 2.189 . S
C572 C206 2.293 1_556 S
C588 C151 1.215 . S
C583 C86 1.181 . S
C604 C108 1.076 . S
C599 C99 1.040 . S
C615 C69 2.054 . S
C620 C172 2.091 . S
