# Generated by pormake.
# Topology ssa, (4,4)-cn, num edge types: 1
# Building blocks:
#     Node 0, Type 0, BuildingBlock: ESEHIV_clean_sbu_0, # of connection points: 4
#     Node 1, Type 0, BuildingBlock: ESEHIV_clean_sbu_0, # of connection points: 4
#     Node 2, Type 0, BuildingBlock: ESEHIV_clean_sbu_0, # of connection points: 4
#     Node 3, Type 0, BuildingBlock: ESEHIV_clean_sbu_0, # of connection points: 4
#     Node 4, Type 0, BuildingBlock: ESEHIV_clean_sbu_0, # of connection points: 4
#     Node 5, Type 0, BuildingBlock: ESEHIV_clean_sbu_0, # of connection points: 4
#     Node 6, Type 1, BuildingBlock: GIZVER_clean_linker_0, # of connection points: 4
#     Node 7, Type 1, BuildingBlock: GIZVER_clean_linker_0, # of connection points: 4
#     Node 8, Type 1, BuildingBlock: GIZVER_clean_linker_0, # of connection points: 4
#     Node 9, Type 1, BuildingBlock: GIZVER_clean_linker_0, # of connection points: 4
#     Node 10, Type 1, BuildingBlock: GIZVER_clean_linker_0, # of connection points: 4
#     Node 11, Type 1, BuildingBlock: GIZVER_clean_linker_0, # of connection points: 4
#     Edge 12, Type (0, 1), BuildingBlock: XIVTED_clean_linker_0, # of connection points: 2
#     Edge 13, Type (0, 1), BuildingBlock: XIVTED_clean_linker_0, # of connection points: 2
#     Edge 14, Type (0, 1), BuildingBlock: XIVTED_clean_linker_0, # of connection points: 2
#     Edge 15, Type (0, 1), BuildingBlock: XIVTED_clean_linker_0, # of connection points: 2
#     Edge 16, Type (0, 1), BuildingBlock: XIVTED_clean_linker_0, # of connection points: 2
#     Edge 17, Type (0, 1), BuildingBlock: XIVTED_clean_linker_0, # of connection points: 2
#     Edge 18, Type (0, 1), BuildingBlock: XIVTED_clean_linker_0, # of connection points: 2
#     Edge 19, Type (0, 1), BuildingBlock: XIVTED_clean_linker_0, # of connection points: 2
#     Edge 20, Type (0, 1), BuildingBlock: XIVTED_clean_linker_0, # of connection points: 2
#     Edge 21, Type (0, 1), BuildingBlock: XIVTED_clean_linker_0, # of connection points: 2
#     Edge 22, Type (0, 1), BuildingBlock: XIVTED_clean_linker_0, # of connection points: 2
#     Edge 23, Type (0, 1), BuildingBlock: XIVTED_clean_linker_0, # of connection points: 2
#     Edge 24, Type (0, 1), BuildingBlock: XIVTED_clean_linker_0, # of connection points: 2
#     Edge 25, Type (0, 1), BuildingBlock: XIVTED_clean_linker_0, # of connection points: 2
#     Edge 26, Type (0, 1), BuildingBlock: XIVTED_clean_linker_0, # of connection points: 2
#     Edge 27, Type (0, 1), BuildingBlock: XIVTED_clean_linker_0, # of connection points: 2
#     Edge 28, Type (0, 1), BuildingBlock: XIVTED_clean_linker_0, # of connection points: 2
#     Edge 29, Type (0, 1), BuildingBlock: XIVTED_clean_linker_0, # of connection points: 2
#     Edge 30, Type (0, 1), BuildingBlock: XIVTED_clean_linker_0, # of connection points: 2
#     Edge 31, Type (0, 1), BuildingBlock: XIVTED_clean_linker_0, # of connection points: 2
#     Edge 32, Type (0, 1), BuildingBlock: XIVTED_clean_linker_0, # of connection points: 2
#     Edge 33, Type (0, 1), BuildingBlock: XIVTED_clean_linker_0, # of connection points: 2
#     Edge 34, Type (0, 1), BuildingBlock: XIVTED_clean_linker_0, # of connection points: 2
#     Edge 35, Type (0, 1), BuildingBlock: XIVTED_clean_linker_0, # of connection points: 2
# Relax obj value: 0.005
# Max RMSD: 0.107
# Mean RMSD: 0.064
data_MOF--net-ssa--node1-ESEHIV_clean_sbu_0--node2-GIZVER_clean_linker_0--edge1-XIVTED_clean_linker_0
_symmetry_space_group_name_H-M    P1
_symmetry_Int_Tables_number       1
_symmetry_cell_setting            triclinic
loop_
_symmetry_equiv_pos_as_xyz
'x, y, z'
_cell_length_a     53.574613
_cell_length_b     57.352093
_cell_length_c     30.935118
_cell_angle_alpha  88.391734
_cell_angle_beta   90.663908
_cell_angle_gamma 122.38781
loop_
_atom_site_label
_atom_site_type_symbol
_atom_site_fract_x
_atom_site_fract_y
_atom_site_fract_z
_atom_type_partial_charge
Cu0 Cu 0.04296 0.54533 -0.00366 0.0
N1 N 0.03227 0.52383 0.94764 0.0
N2 N 1.0054 0.48384 0.91389 0.0
C3 C 1.00801 0.49824 0.94906 0.0
C4 C 0.02915 0.50121 0.88897 0.0
C5 C 0.04577 0.52605 0.90995 0.0
O6 O 1.00516 0.53901 0.01538 0.0
C7 C 0.08564 0.5354 0.01845 0.0
O8 O 0.0946 0.54782 0.98036 0.0
H9 H 0.99339 0.48986 0.97683 0.0
H10 H 0.06668 0.54388 0.89938 0.0
N11 N 0.07067 0.5831 0.98706 0.0
N12 N 0.10678 0.62519 0.00673 0.0
C13 C 0.09307 0.59782 0.01457 0.0
C14 C 0.07022 0.60188 0.96045 0.0
C15 C 0.09242 0.62803 0.9729 0.0
C16 C 1.00009 0.55811 0.01991 0.0
O17 O 0.02236 0.5834 0.02634 0.0
H18 H 0.09777 0.58874 0.04213 0.0
H19 H 0.05368 0.59703 0.93594 0.0
O20 O 0.06167 0.5314 0.03414 0.0
H21 H 0.03439 0.4962 0.85827 0.0
H22 H 0.09684 0.64752 0.95943 0.0
Cu23 Cu 0.54036 0.02578 0.4962 0.0
N24 N 0.55735 0.01695 0.4522 0.0
N25 N 0.5679 0.99132 0.41225 0.0
C26 C 0.55186 0.99149 0.44549 0.0
C27 C 0.5841 0.01779 0.3975 0.0
C28 C 0.57754 0.03353 0.42217 0.0
O29 O 0.5053 0.99061 0.51421 0.0
C30 C 0.59056 0.06879 0.53303 0.0
O31 O 0.59188 0.07934 0.49427 0.0
H32 H 0.53675 0.97355 0.46523 0.0
H33 H 0.58689 0.0555 0.41843 0.0
N34 N 0.53001 0.05076 0.47666 0.0
N35 N 0.52005 0.08376 0.48086 0.0
C36 C 0.5228 0.06467 0.5028 0.0
C37 C 0.53214 0.0617 0.43671 0.0
C38 C 0.52613 0.08228 0.43928 0.0
C39 C 0.47997 0.98658 0.52207 0.0
O40 O 0.47718 1.00785 0.525 0.0
H41 H 0.52075 0.0616 0.53759 0.0
H42 H 0.53856 0.0558 0.40801 0.0
O43 O 0.56941 0.04413 0.54183 0.0
H44 H 0.59935 0.02527 0.37048 0.0
H45 H 0.52649 0.09529 0.41293 0.0
Cu46 Cu 0.49987 0.48719 0.01809 0.0
N47 N 0.49339 0.45211 0.0289 0.0
N48 N 0.49171 0.4135 0.01287 0.0
C49 C 0.50049 0.43945 4e-05 0.0
C50 C 0.47845 0.40954 0.05161 0.0
C51 C 0.47976 0.43358 0.06165 0.0
O52 O 0.53039 0.50317 0.97357 0.0
C53 C 0.43799 0.46359 0.00616 0.0
O54 O 0.43556 0.43958 0.00922 0.0
H55 H 0.51078 0.44875 0.96913 0.0
H56 H 0.47056 0.43696 0.08998 0.0
N57 N 0.51347 0.50954 0.06618 0.0
N58 N 0.52618 0.54741 0.10265 0.0
C59 C 0.50944 0.53056 0.0708 0.0
C60 C 0.53312 0.51279 0.09668 0.0
C61 C 0.54111 0.5363 0.11923 0.0
C62 C 0.55579 0.52508 0.97806 0.0
O63 O 0.56012 0.54197 0.00912 0.0
H64 H 0.49639 0.53472 0.04868 0.0
H65 H 0.54245 0.50015 0.10025 0.0
O66 O 0.46359 0.48548 0.00255 0.0
H67 H 0.46827 0.39061 0.07095 0.0
H68 H 0.55753 0.54515 0.14451 0.0
Cu69 Cu 1.00359 0.51039 0.49862 0.0
N70 N 1.01395 0.49614 0.45415 0.0
N71 N 0.04158 0.48384 0.42025 0.0
C72 C 0.04047 0.49896 0.45187 0.0
C73 C 1.01455 0.47099 0.40178 0.0
C74 C 0.99748 0.47861 0.42291 0.0
O75 O 0.03965 0.54572 0.51043 0.0
C76 C 0.97978 0.48362 0.58106 0.0
O77 O 0.98282 0.50686 0.59276 0.0
H78 H 0.05813 0.51088 0.47449 0.0
H79 H 0.97449 0.47121 0.41693 0.0
N80 N 0.97242 0.51489 0.48312 0.0
N81 N 0.93327 0.51805 0.49588 0.0
C82 C 0.94814 0.50594 0.50751 0.0
C83 C 0.97232 0.53252 0.45356 0.0
C84 C 0.9483 0.53469 0.46159 0.0
C85 C 0.04125 0.56856 0.51383 0.0
O86 O 1.01688 0.56847 0.5186 0.0
H87 H 0.94288 0.49274 0.53584 0.0
H88 H 0.98992 0.54486 0.43051 0.0
O89 O 0.98993 0.48263 0.54474 0.0
H90 H 1.0075 0.45689 0.3753 0.0
H91 H 0.94353 0.54884 0.44539 0.0
Cu92 Cu 0.52138 1.00002 0.00078 0.0
N93 N 0.50036 1.00865 0.96227 0.0
N94 N 0.4879 0.03477 0.92486 0.0
C95 C 0.50857 0.03446 0.9497 0.0
C96 C 0.46581 1.00804 0.92154 0.0
C97 C 0.47359 0.99195 0.94467 0.0
O98 O 0.55679 0.0355 0.0142 0.0
C99 C 0.47614 0.95439 0.04529 0.0
O100 O 0.47413 0.94337 0.00777 0.0
H101 H 0.52888 0.05273 0.95993 0.0
H102 H 0.4604 0.96974 0.949 0.0
N103 N 0.53176 0.97725 0.975 0.0
N104 N 0.54388 0.94572 0.97143 0.0
C105 C 0.54232 0.96368 -0.00342 0.0
C106 C 0.52614 0.96731 0.93471 0.0
C107 C 0.53344 0.94759 0.93251 0.0
C108 C 0.58227 0.03985 0.02241 0.0
O109 O 0.58522 0.01879 0.02944 0.0
H110 H 0.54694 0.96557 0.03091 0.0
H111 H 0.51609 0.97298 0.90945 0.0
O112 O 0.4959 0.97983 0.05034 0.0
H113 H 0.44549 1.00065 0.9038 0.0
H114 H 0.53058 0.93511 0.90502 0.0
Cu115 Cu 0.53832 0.5152 0.47766 0.0
N116 N 0.55834 0.54343 0.43633 0.0
N117 N 0.57481 0.58524 0.40672 0.0
C118 C 0.55476 0.56488 0.43334 0.0
C119 C 0.59154 0.57597 0.39192 0.0
C120 C 0.58137 0.55015 0.41041 0.0
O121 O 0.49883 0.50929 0.48185 0.0
C122 C 0.58606 0.54774 0.53535 0.0
O123 O 0.59518 0.56782 0.50631 0.0
H124 H 0.53893 0.56617 0.45285 0.0
H125 H 0.5911 0.53795 0.40704 0.0
N126 N 0.53559 0.48234 0.46458 0.0
N127 N 0.52587 0.43993 0.47945 0.0
C128 C 0.52377 0.46091 0.49296 0.0
C129 C 0.54597 0.47488 0.43177 0.0
C130 C 0.54008 0.44859 0.44103 0.0
C131 C 0.47624 0.48825 0.46565 0.0
O132 O 0.47877 0.46845 0.45059 0.0
H133 H 0.51451 0.46112 0.52377 0.0
H134 H 0.55747 0.48771 0.40366 0.0
O135 O 0.56072 0.52567 0.5313 0.0
H136 H 0.61024 0.58725 0.37022 0.0
H137 H 0.54585 0.43686 0.42127 0.0
H138 H 0.25358 0.51866 0.18161 0.0
H139 H 0.24759 0.50633 0.32012 0.0
H140 H 0.16894 0.476 0.24484 0.0
H141 H 0.29669 0.5463 0.22674 0.0
H142 H 0.29397 0.5426 0.28421 0.0
H143 H 0.2986 0.51032 0.18303 0.0
H144 H 0.34295 0.47531 0.24785 0.0
H145 H 0.30955 0.5154 0.3214 0.0
C146 C 0.24029 0.50953 0.2106 0.0
C147 C 0.20934 0.49596 0.20807 0.0
C148 C 0.25428 0.51288 0.25087 0.0
C149 C 0.23697 0.50247 0.28882 0.0
C150 C 0.20604 0.48852 0.28649 0.0
C151 C 0.19261 0.48489 0.24605 0.0
C152 C 0.28757 0.53076 0.25387 0.0
C153 C 0.30154 0.51386 0.25254 0.0
C154 C 0.30593 0.5053 0.21267 0.0
C155 C 0.32057 0.49108 0.21084 0.0
C156 C 0.33051 0.48521 0.24934 0.0
C157 C 0.32693 0.49412 0.28928 0.0
C158 C 0.31214 0.50822 0.29073 0.0
H159 H 0.7463 0.2325 0.73218 0.0
H160 H 0.74793 0.23514 0.87117 0.0
H161 H 0.70127 0.15712 0.80912 0.0
H162 H 0.75314 0.27339 0.77271 0.0
H163 H 0.7613 0.2761 0.82893 0.0
H164 H 0.79208 0.29091 0.7205 0.0
H165 H 0.88126 0.33054 0.7652 0.0
H166 H 0.80964 0.28393 0.855 0.0
C167 C 0.74069 0.22175 0.76333 0.0
C168 C 0.72307 0.19266 0.7656 0.0
C169 C 0.7499 0.23726 0.80122 0.0
C170 C 0.7419 0.22342 0.84182 0.0
C171 C 0.72502 0.19447 0.84456 0.0
C172 C 0.71595 0.17938 0.80651 0.0
C173 C 0.76438 0.26826 0.79822 0.0
C174 C 0.79706 0.28326 0.78812 0.0
C175 C 0.80753 0.29406 0.74604 0.0
C176 C 0.83801 0.31081 0.73778 0.0
C177 C 0.85788 0.31597 0.77131 0.0
C178 C 0.84806 0.30725 0.8139 0.0
C179 C 0.81752 0.29014 0.82201 0.0
H180 H 0.52583 0.73273 0.1747 0.0
H181 H 0.55286 0.7562 0.30647 0.0
H182 H 0.58129 0.71002 0.23918 0.0
H183 H 0.50185 0.74996 0.21787 0.0
H184 H 0.50974 0.75554 0.27416 0.0
H185 H 0.53856 0.78661 0.16327 0.0
H186 H 0.57648 0.86944 0.20653 0.0
H187 H 0.53857 0.80181 0.29904 0.0
C188 C 0.53912 0.73415 0.20238 0.0
C189 C 0.55471 0.72075 0.20195 0.0
C190 C 0.53935 0.74805 0.23953 0.0
C191 C 0.5545 0.74752 0.27676 0.0
C192 C 0.56999 0.73407 0.27649 0.0
C193 C 0.57093 0.72191 0.23847 0.0
C194 C 0.5202 0.76001 0.24161 0.0
C195 C 0.53772 0.79081 0.23238 0.0
C196 C 0.54496 0.80093 0.18941 0.0
C197 C 0.55934 0.82936 0.17999 0.0
C198 C 0.56678 0.84764 0.21396 0.0
C199 C 0.55926 0.83802 0.2569 0.0
C200 C 0.54487 0.8095 0.26603 0.0
H201 H 0.77456 0.57175 0.71649 0.0
H202 H 0.7661 0.56307 0.85551 0.0
H203 H 0.6888 0.52912 0.77593 0.0
H204 H 0.81691 0.60117 0.76418 0.0
H205 H 0.81347 0.59647 0.82151 0.0
H206 H 0.81633 0.56367 0.7195 0.0
H207 H 0.86513 0.53202 0.78055 0.0
H208 H 0.83081 0.57035 0.85687 0.0
C209 C 0.76089 0.5632 0.74525 0.0
C210 C 0.72999 0.5488 0.7414 0.0
C211 C 0.77415 0.56761 0.78639 0.0
C212 C 0.75611 0.55831 0.82371 0.0
C213 C 0.72523 0.54408 0.81992 0.0
C214 C 0.71254 0.53877 0.77878 0.0
C215 C 0.8074 0.58517 0.79065 0.0
C216 C 0.82137 0.56825 0.78856 0.0
C217 C 0.82494 0.55942 0.74847 0.0
C218 C 0.84037 0.54598 0.74535 0.0
C219 C 0.85198 0.54115 0.78311 0.0
C220 C 0.84889 0.54999 0.82354 0.0
C221 C 0.83317 0.56323 0.826 0.0
H222 H 0.31529 0.79287 0.25352 0.0
H223 H 0.30923 0.78991 0.39249 0.0
H224 H 0.36125 0.86785 0.32514 0.0
H225 H 0.30231 0.75048 0.29655 0.0
H226 H 0.29667 0.74879 0.35342 0.0
H227 H 0.26459 0.74863 0.24535 0.0
H228 H 0.17546 0.69984 0.2937 0.0
H229 H 0.24847 0.73299 0.38219 0.0
C230 C 0.32036 0.80351 0.28382 0.0
C231 C 0.33918 0.8325 0.28413 0.0
C232 C 0.3092 0.78796 0.32271 0.0
C233 C 0.31668 0.8017 0.36226 0.0
C234 C 0.33488 0.83059 0.36291 0.0
C235 C 0.34571 0.84572 0.32392 0.0
C236 C 0.29299 0.7568 0.32239 0.0
C237 C 0.26018 0.74327 0.31474 0.0
C238 C 0.24923 0.74005 0.27233 0.0
C239 C 0.21864 0.72461 0.26445 0.0
C240 C 0.19899 0.7129 0.29969 0.0
C241 C 0.20949 0.71558 0.34227 0.0
C242 C 0.24015 0.73117 0.34955 0.0
H243 H 0.46637 0.25266 0.80966 0.0
H244 H 0.46876 0.26003 0.67049 0.0
H245 H 0.50086 0.33204 0.74665 0.0
H246 H 0.4354 0.21219 0.76603 0.0
H247 H 0.43371 0.21562 0.70887 0.0
H248 H 0.46944 0.20144 0.79855 0.0
H249 H 0.51159 0.17415 0.71448 0.0
H250 H 0.46975 0.21448 0.66059 0.0
C251 C 0.47254 0.26541 0.78039 0.0
C252 C 0.48535 0.29409 0.78326 0.0
C253 C 0.46679 0.25299 0.73971 0.0
C254 C 0.47418 0.26956 0.70181 0.0
C255 C 0.48627 0.29803 0.70431 0.0
C256 C 0.49216 0.31011 0.74495 0.0
C257 C 0.44929 0.22192 0.73656 0.0
C258 C 0.46894 0.21079 0.73051 0.0
C259 C 0.47673 0.20045 0.76648 0.0
C260 C 0.49214 0.1872 0.76092 0.0
C261 C 0.50094 0.18552 0.71923 0.0
C262 C 0.49288 0.19516 0.68297 0.0
C263 C 0.47697 0.20792 0.68866 0.0
H264 H 0.14457 0.55827 0.0082 0.0
H265 H 0.15557 0.45603 0.1754 0.0
H266 H 0.06969 0.49553 0.08262 0.0
H267 H 0.22791 0.54006 0.15164 0.0
H268 H 0.12505 0.46402 0.12526 0.0
H269 H 0.17615 0.54588 0.04647 0.0
C270 C 0.13473 0.54177 0.03251 0.0
C271 C 0.10447 0.52795 0.04246 0.0
C272 C 0.14777 0.4805 0.13058 0.0
C273 C 0.14048 0.51342 0.08566 0.0
C274 C 0.16528 0.47597 0.15892 0.0
C275 C 0.19421 0.4976 0.16851 0.0
C276 C 0.15948 0.50664 0.1109 0.0
C277 C 0.2058 0.52276 0.1454 0.0
C278 C 0.1528 0.53476 0.05426 0.0
C279 C 0.09295 0.50683 0.0743 0.0
N280 N 0.18827 0.52669 0.11799 0.0
N281 N 0.111 0.50009 0.09473 0.0
H282 H 0.60313 0.05334 0.61151 0.0
H283 H 0.70215 0.20636 0.69389 0.0
H284 H 0.62762 0.12467 0.52954 0.0
H285 H 0.71039 0.14046 0.74782 0.0
H286 H 0.67247 0.17632 0.63548 0.0
H287 H 0.63905 0.08414 0.66542 0.0
C288 C 0.61606 0.0754 0.60483 0.0
C289 C 0.61236 0.08643 0.566 0.0
C290 C 0.68103 0.16855 0.65992 0.0
C291 C 0.6531 0.12164 0.62737 0.0
C292 C 0.6983 0.18582 0.69318 0.0
C293 C 0.70878 0.17602 0.72634 0.0
C294 C 0.67366 0.14108 0.66003 0.0
C295 C 0.70229 0.14883 0.72369 0.0
C296 C 0.63662 0.09292 0.63542 0.0
C297 C 0.62976 0.1152 0.55893 0.0
N298 N 0.68482 0.1322 0.69154 0.0
N299 N 0.64913 0.13178 0.58943 0.0
H300 H 0.57693 0.59394 0.12667 0.0
H301 H 0.50208 0.678 0.17214 0.0
H302 H 0.48526 0.5614 0.09767 0.0
H303 H 0.59629 0.71628 0.15929 0.0
H304 H 0.49475 0.63608 0.14051 0.0
H305 H 0.58403 0.63911 0.13855 0.0
C306 C 0.55825 0.59627 0.12316 0.0
C307 C 0.53041 0.57385 0.11154 0.0
C308 C 0.51701 0.6539 0.14356 0.0
C309 C 0.5384 0.62559 0.12452 0.0
C310 C 0.52118 0.678 0.161 0.0
C311 C 0.54985 0.70056 0.16867 0.0
C312 C 0.54171 0.65234 0.13431 0.0
C313 C 0.57382 0.69923 0.15424 0.0
C314 C 0.56237 0.62214 0.12935 0.0
C315 C 0.50708 0.57819 0.10654 0.0
N316 N 0.56925 0.67532 0.13872 0.0
N317 N 0.51151 0.60348 0.11345 0.0
H318 H 0.89244 0.47681 0.54844 0.0
H319 H 0.85841 0.5779 0.67072 0.0
H320 H 0.9252 0.56066 0.50577 0.0
H321 H 0.83758 0.49876 0.72243 0.0
H322 H 0.87448 0.56855 0.60323 0.0
H323 H 0.86372 0.48117 0.60476 0.0
C324 C 0.89325 0.49602 0.5505 0.0
C325 C 0.91166 0.51853 0.52268 0.0
C326 C 0.86608 0.5531 0.62915 0.0
C327 C 0.87882 0.52373 0.58731 0.0
C328 C 0.85671 0.55833 0.66763 0.0
C329 C 0.84683 0.53916 0.70246 0.0
C330 C 0.86552 0.52847 0.62536 0.0
C331 C 0.84546 0.5143 0.69668 0.0
C332 C 0.87686 0.49851 0.58272 0.0
C333 C 0.91137 0.54275 0.52638 0.0
N334 N 0.85488 0.50976 0.65905 0.0
N335 N 0.89556 0.54483 0.55849 0.0
H336 H 0.46232 0.97061 0.11965 0.0
H337 H 0.3615 0.81785 0.21783 0.0
H338 H 0.44244 0.89828 0.05052 0.0
H339 H 0.35427 0.88518 0.26002 0.0
H340 H 0.39351 0.8474 0.1587 0.0
H341 H 0.42625 0.94036 0.17549 0.0
C342 C 0.45049 0.94842 0.11631 0.0
C343 C 0.45537 0.93696 0.08039 0.0
C344 C 0.3847 0.85562 0.18072 0.0
C345 C 0.4143 0.90236 0.14392 0.0
C346 C 0.3661 0.83863 0.21433 0.0
C347 C 0.35515 0.84896 0.24437 0.0
C348 C 0.39283 0.88331 0.17731 0.0
C349 C 0.36261 0.87641 0.23832 0.0
C350 C 0.42979 0.9312 0.14797 0.0
C351 C 0.43932 0.90805 0.07756 0.0
N352 N 0.38125 0.8927 0.20585 0.0
N353 N 0.41967 0.89178 0.10896 0.0
H354 H 0.4773 0.41193 0.5296 0.0
H355 H 0.51811 0.30619 0.62994 0.0
H356 H 0.55209 0.41026 0.48437 0.0
H357 H 0.46139 0.32794 0.69013 0.0
H358 H 0.52506 0.3373 0.56806 0.0
H359 H 0.46469 0.37343 0.57926 0.0
C360 C 0.49096 0.40326 0.53 0.0
C361 C 0.51606 0.41458 0.50347 0.0
C362 C 0.51096 0.33505 0.59475 0.0
C363 C 0.50187 0.37046 0.56051 0.0
C364 C 0.50696 0.31733 0.62984 0.0
C365 C 0.48947 0.31488 0.6652 0.0
C366 C 0.49691 0.34989 0.59502 0.0
C367 C 0.47539 0.3296 0.66372 0.0
C368 C 0.48377 0.38128 0.55834 0.0
C369 C 0.53261 0.40213 0.50446 0.0
N370 N 0.47946 0.34645 0.62933 0.0
N371 N 0.52545 0.38089 0.53305 0.0
H372 H 0.52351 0.93704 0.41857 0.0
H373 H 0.60896 0.88838 0.27242 0.0
H374 H 0.61188 0.99164 0.36864 0.0
H375 H 0.51904 0.83368 0.31596 0.0
H376 H 0.61249 0.92495 0.31588 0.0
H377 H 0.52325 0.89788 0.38875 0.0
C378 C 0.54298 0.94083 0.40171 0.0
C379 C 0.56771 0.96783 0.39593 0.0
C380 C 0.59208 0.90487 0.31647 0.0
C381 C 0.56746 0.92293 0.36143 0.0
C382 C 0.59012 0.88394 0.29181 0.0
C383 C 0.56361 0.858 0.29035 0.0
C384 C 0.56728 0.89997 0.33974 0.0
C385 C 0.53994 0.85333 0.31631 0.0
C386 C 0.54276 0.91841 0.38454 0.0
C387 C 0.59214 0.97136 0.37331 0.0
N388 N 0.5422 0.87422 0.3395 0.0
N389 N 0.59135 0.94924 0.35683 0.0
H390 H 0.55701 0.48803 0.92553 0.0
H391 H 0.73 0.5811 0.87813 0.0
H392 H 0.61359 0.56835 0.98042 0.0
H393 H 0.67469 0.49577 0.84338 0.0
H394 H 0.68915 0.57617 0.92088 0.0
H395 H 0.60051 0.49066 0.89634 0.0
C396 C 0.57854 0.5064 0.93104 0.0
C397 C 0.58158 0.52807 0.95535 0.0
C398 C 0.68615 0.55834 0.90473 0.0
C399 C 0.63171 0.53101 0.92247 0.0
C400 C 0.70963 0.56103 0.88093 0.0
C401 C 0.7056 0.53882 0.85712 0.0
C402 C 0.65849 0.53332 0.90427 0.0
C403 C 0.67859 0.51341 0.86119 0.0
C404 C 0.60346 0.50774 0.91476 0.0
C405 C 0.61016 0.5512 0.96173 0.0
N406 N 0.65589 0.51148 0.88358 0.0
N407 N 0.63412 0.55209 0.94533 0.0
H408 H 0.04959 0.61918 0.49395 0.0
H409 H 0.21384 0.68273 0.40387 0.0
H410 H 0.0966 0.5773 0.50462 0.0
H411 H 0.15667 0.71026 0.361 0.0
H412 H 0.17564 0.65054 0.4554 0.0
H413 H 0.09332 0.659 0.46027 0.0
C414 C 0.06928 0.61853 0.49011 0.0
C415 C 0.06925 0.59466 0.50177 0.0
C416 C 0.17163 0.6639 0.43513 0.0
C417 C 0.11937 0.64023 0.46294 0.0
C418 C 0.1935 0.68244 0.40596 0.0
C419 C 0.18838 0.69914 0.37796 0.0
C420 C 0.14448 0.66216 0.4366 0.0
C421 C 0.16142 0.69758 0.3817 0.0
C422 C 0.09418 0.64124 0.47058 0.0
C423 C 0.09549 0.59513 0.49585 0.0
N424 N 0.14043 0.67931 0.41027 0.0
N425 N 0.11938 0.61743 0.47653 0.0
H426 H 0.44162 0.04057 0.90822 0.0
H427 H 0.54057 0.18558 0.7851 0.0
H428 H 0.5367 0.08395 0.9011 0.0
H429 H 0.44851 0.14993 0.81565 0.0
H430 H 0.54051 0.15026 0.83148 0.0
H431 H 0.44401 0.08128 0.87661 0.0
C432 C 0.46299 0.05864 0.89991 0.0
C433 C 0.48898 0.05878 0.90701 0.0
C434 C 0.52045 0.15045 0.82871 0.0
C435 C 0.49195 0.10557 0.87113 0.0
C436 C 0.52054 0.17067 0.8024 0.0
C437 C 0.4945 0.17061 0.79647 0.0
C438 C 0.494 0.12976 0.84867 0.0
C439 C 0.46912 0.15085 0.81957 0.0
C440 C 0.46438 0.08199 0.88227 0.0
C441 C 0.51613 0.08297 0.89639 0.0
N442 N 0.46938 0.13094 0.8441 0.0
N443 N 0.51689 0.10529 0.87863 0.0
H444 H 0.46848 0.53206 0.46272 0.0
H445 H 0.32373 0.44752 0.32017 0.0
H446 H 0.42228 0.44421 0.44404 0.0
H447 H 0.36433 0.53404 0.34545 0.0
H448 H 0.35524 0.44476 0.37509 0.0
H449 H 0.42661 0.53227 0.43025 0.0
C450 C 0.44926 0.51272 0.4528 0.0
C451 C 0.44906 0.48814 0.45552 0.0
C452 C 0.35701 0.4643 0.36925 0.0
C453 C 0.40133 0.48828 0.41782 0.0
C454 C 0.33898 0.46583 0.33791 0.0
C455 C 0.34161 0.49107 0.32808 0.0
C456 C 0.37828 0.4883 0.39049 0.0
C457 C 0.36158 0.51416 0.35217 0.0
C458 C 0.42542 0.51287 0.43402 0.0
C459 C 0.4236 0.46372 0.44199 0.0
N460 N 0.37953 0.51235 0.38175 0.0
N461 N 0.401 0.46448 0.42325 0.0
H462 H 0.94918 0.45639 0.94404 0.0
H463 H 0.904 0.31759 0.82538 0.0
H464 H 1.00976 0.44594 0.86905 0.0
H465 H 0.84166 0.33465 0.87904 0.0
H466 H 0.94435 0.35922 0.85866 0.0
H467 H 0.91127 0.40784 0.9348 0.0
C468 C 0.9546 0.44382 0.92585 0.0
C469 C 0.98272 0.45532 0.90714 0.0
C470 C 0.92178 0.35344 0.86414 0.0
C471 C 0.93919 0.39949 0.89636 0.0
C472 C 0.89871 0.32945 0.84573 0.0
C473 C 0.86948 0.32297 0.84866 0.0
C474 C 0.91546 0.37084 0.88592 0.0
C475 C 0.86384 0.33892 0.87563 0.0
C476 C 0.9329 0.41606 0.9206 0.0
C477 C 0.98828 0.43805 0.88345 0.0
N478 N 0.88668 0.36249 0.89237 0.0
N479 N 0.96666 0.411 0.8786 0.0
H480 H 0.98226 0.59496 0.01773 0.0
H481 H 0.85331 0.5061 0.8496 0.0
H482 H 0.95283 0.51125 0.98567 0.0
H483 H 0.88099 0.58887 0.88458 0.0
H484 H 0.88494 0.5053 0.90652 0.0
H485 H 0.94042 0.59058 0.97771 0.0
C486 C 0.96669 0.57545 0.00307 0.0
C487 C 0.9714 0.55358 0.00473 0.0
C488 C 0.88382 0.52352 0.90216 0.0
C489 C 0.92356 0.54859 0.95805 0.0
C490 C 0.86582 0.52402 0.86953 0.0
C491 C 0.86464 0.54768 0.86194 0.0
C492 C 0.90105 0.54694 0.92732 0.0
C493 C 0.88102 0.57012 0.88929 0.0
C494 C 0.94283 0.57301 0.97998 0.0
C495 C 0.95031 0.52877 0.98513 0.0
N496 N 0.89878 0.56932 0.92034 0.0
N497 N 0.92763 0.52711 0.96211 0.0
H498 H 0.42209 0.97166 0.5197 0.0
H499 H 0.3689 0.82469 0.42278 0.0
H500 H 0.47678 0.93752 0.51295 0.0
H501 H 0.3291 0.87155 0.39344 0.0
H502 H 0.39987 0.85849 0.47733 0.0
H503 H 0.37996 0.92785 0.49536 0.0
C504 C 0.42515 0.95479 0.51409 0.0
C505 C 0.45323 0.95852 0.51751 0.0
C506 C 0.38377 0.86094 0.45981 0.0
C507 C 0.405 0.90832 0.48952 0.0
C508 C 0.36592 0.84154 0.42907 0.0
C509 C 0.34657 0.8455 0.40371 0.0
C510 C 0.38204 0.88429 0.46519 0.0
C511 C 0.34383 0.86788 0.41244 0.0
C512 C 0.40106 0.9298 0.50004 0.0
C513 C 0.45567 0.93575 0.51012 0.0
N514 N 0.36164 0.88664 0.44211 0.0
N515 N 0.43198 0.91175 0.49585 0.0
H516 H 0.53632 0.42454 0.95914 0.0
H517 H 0.44616 0.27668 0.85133 0.0
H518 H 0.45243 0.35799 0.00868 0.0
H519 H 0.53322 0.34258 0.81077 0.0
H520 H 0.44998 0.30353 0.91425 0.0
H521 H 0.53749 0.39279 0.90961 0.0
C522 C 0.51822 0.40312 0.95975 0.0
C523 C 0.4941 0.39396 0.98772 0.0
C524 C 0.46842 0.31193 0.89192 0.0
C525 C 0.4951 0.3573 0.93072 0.0
C526 C 0.46634 0.29651 0.85616 0.0
C527 C 0.48929 0.30753 0.82546 0.0
C528 C 0.4936 0.33856 0.89694 0.0
C529 C 0.51479 0.33347 0.8332 0.0
C530 C 0.51891 0.38494 0.93154 0.0
C531 C 0.47145 0.36587 0.98767 0.0
N532 N 0.51611 0.34816 0.86779 0.0
N533 N 0.47229 0.3486 0.95915 0.0
H534 H 0.0399 0.44025 0.38441 0.0
H535 H 0.21355 0.52408 0.34932 0.0
H536 H 0.09977 0.5216 0.43353 0.0
H537 H 0.15478 0.44037 0.309 0.0
H538 H 0.17368 0.5201 0.39306 0.0
H539 H 0.08228 0.4372 0.36588 0.0
C540 C 0.06193 0.45747 0.39129 0.0
C541 C 0.06624 0.48133 0.41014 0.0
C542 C 0.16966 0.5023 0.37561 0.0
C543 C 0.11495 0.47789 0.38951 0.0
C544 C 0.19261 0.50445 0.35118 0.0
C545 C 0.18728 0.48263 0.32512 0.0
C546 C 0.14121 0.47828 0.37349 0.0
C547 C 0.15962 0.45776 0.32835 0.0
C548 C 0.08614 0.45561 0.38115 0.0
C549 C 0.09533 0.50276 0.41919 0.0
N550 N 0.13739 0.45646 0.35117 0.0
N551 N 0.11854 0.50065 0.40839 0.0
H552 H 0.64008 0.05477 0.01724 0.0
H553 H 0.69054 0.20002 0.9023 0.0
H554 H 0.58495 0.08851 0.00658 0.0
H555 H 0.7307 0.15341 0.87967 0.0
H556 H 0.66025 0.16663 0.95999 0.0
H557 H 0.68134 0.09803 0.98679 0.0
C558 C 0.63677 0.07146 0.00947 0.0
C559 C 0.60878 0.06776 0.01372 0.0
C560 C 0.67623 0.16412 0.94313 0.0
C561 C 0.65599 0.11731 0.97868 0.0
C562 C 0.69368 0.18328 0.91056 0.0
C563 C 0.71298 0.1793 0.88625 0.0
C564 C 0.6783 0.14099 0.95146 0.0
C565 C 0.71595 0.15707 0.89768 0.0
C566 C 0.66035 0.09612 -0.0081 0.0
C567 C 0.60599 0.09027 0.0033 0.0
N568 N 0.69855 0.13857 0.92915 0.0
N569 N 0.62917 0.11394 0.9857 0.0
H570 H 0.62439 0.63315 0.37872 0.0
H571 H 0.53568 0.70725 0.34698 0.0
H572 H 0.53368 0.59862 0.41722 0.0
H573 H 0.62302 0.73973 0.29556 0.0
H574 H 0.54094 0.67468 0.39237 0.0
H575 H 0.62911 0.67741 0.36348 0.0
C576 C 0.60547 0.63478 0.38405 0.0
C577 C 0.57847 0.61185 0.39882 0.0
C578 C 0.55937 0.68947 0.37214 0.0
C579 C 0.58395 0.66274 0.38228 0.0
C580 C 0.55657 0.70848 0.34683 0.0
C581 C 0.57871 0.72577 0.31683 0.0
C582 C 0.58438 0.68774 0.36708 0.0
C583 C 0.60527 0.72637 0.31787 0.0
C584 C 0.6083 0.6602 0.37582 0.0
C585 C 0.55498 0.61557 0.40609 0.0
N586 N 0.60705 0.70699 0.34154 0.0
N587 N 0.5582 0.64038 0.39739 0.0
H588 H 0.47231 0.07035 0.52824 0.0
H589 H 0.54434 0.21064 0.64105 0.0
H590 H 0.55347 0.13957 0.47685 0.0
H591 H 0.44967 0.15864 0.62992 0.0
H592 H 0.54955 0.18622 0.58123 0.0
H593 H 0.46397 0.10228 0.56734 0.0
C594 C 0.48809 0.09239 0.52483 0.0
C595 C 0.51347 0.10253 0.49939 0.0
C596 C 0.52766 0.18072 0.59102 0.0
C597 C 0.50466 0.13904 0.54458 0.0
C598 C 0.52471 0.19472 0.6249 0.0
C599 C 0.49655 0.18675 0.63995 0.0
C600 C 0.50226 0.15804 0.57324 0.0
C601 C 0.47174 0.16558 0.61877 0.0
C602 C 0.48334 0.11057 0.54689 0.0
C603 C 0.53353 0.13117 0.49599 0.0
N604 N 0.47515 0.15151 0.58713 0.0
N605 N 0.52902 0.14849 0.51909 0.0
H606 H 0.3827 0.42184 0.03235 0.0
H607 H 0.34821 0.52626 0.1416 0.0
H608 H 0.43629 0.51042 0.01328 0.0
H609 H 0.31253 0.44218 0.18568 0.0
H610 H 0.37049 0.51824 0.07946 0.0
H611 H 0.3469 0.42684 0.07242 0.0
C612 C 0.38665 0.44231 0.03563 0.0
C613 C 0.41291 0.46579 0.02008 0.0
C614 C 0.35729 0.5014 0.10228 0.0
C615 C 0.372 0.47161 0.06633 0.0
C616 C 0.3444 0.5059 0.13753 0.0
C617 C 0.32873 0.4849 0.16893 0.0
C618 C 0.35427 0.47566 0.09832 0.0
C619 C 0.32471 0.45899 0.16238 0.0
C620 C 0.36623 0.44514 0.05876 0.0
C621 C 0.41658 0.49174 0.02514 0.0
N622 N 0.33763 0.45517 0.12804 0.0
N623 N 0.3966 0.49399 0.04839 0.0
H624 H 0.93583 0.47337 0.63764 0.0
H625 H 0.87831 0.31514 0.6795 0.0
H626 H 0.97357 0.43338 0.57332 0.0
H627 H 0.82779 0.35054 0.71247 0.0
H628 H 0.91209 0.35707 0.63703 0.0
H629 H 0.89639 0.42833 0.66613 0.0
C630 C 0.93611 0.45518 0.63008 0.0
C631 C 0.95822 0.45719 0.60339 0.0
C632 C 0.89316 0.3554 0.65253 0.0
C633 C 0.91276 0.40546 0.63518 0.0
C634 C 0.87362 0.33129 0.67613 0.0
C635 C 0.85015 0.32935 0.69917 0.0
C636 C 0.88948 0.37788 0.65276 0.0
C637 C 0.84542 0.3511 0.69471 0.0
C638 C 0.91331 0.42941 0.6458 0.0
C639 C 0.95707 0.4328 0.59397 0.0
N640 N 0.8653 0.37473 0.67281 0.0
N641 N 0.9348 0.40799 0.60998 0.0
H642 H 0.51312 0.8905 0.95978 0.0
H643 H 0.60865 0.8736 0.14294 0.0
H644 H 0.59154 0.95721 0.01801 0.0
H645 H 0.51803 0.81091 0.11562 0.0
H646 H 0.6097 0.89963 0.07831 0.0
H647 H 0.5216 0.85727 -0.00132 0.0
C648 C 0.53258 0.89807 0.97975 0.0
C649 C 0.55159 0.92645 0.98622 0.0
C650 C 0.58979 0.87986 0.08584 0.0
C651 C 0.56141 0.88899 0.03046 0.0
C652 C 0.58924 0.86495 0.12257 0.0
C653 C 0.56305 0.84036 0.135 0.0
C654 C 0.5639 0.8702 0.06154 0.0
C655 C 0.53862 0.82988 0.10726 0.0
C656 C 0.53733 0.8792 0.00206 0.0
C657 C 0.57633 0.93541 0.01268 0.0
N658 N 0.53941 0.84516 0.07225 0.0
N659 N 0.5804 0.91675 0.03413 0.0
H660 H 0.57946 0.50534 0.58749 0.0
H661 H 0.74185 0.59181 0.68672 0.0
H662 H 0.64227 0.59081 0.55237 0.0
H663 H 0.68284 0.50379 0.70487 0.0
H664 H 0.70749 0.59178 0.63369 0.0
H665 H 0.61755 0.50474 0.63052 0.0
C666 C 0.60114 0.52411 0.58925 0.0
C667 C 0.60759 0.5482 0.56634 0.0
C668 C 0.70233 0.57238 0.64861 0.0
C669 C 0.6516 0.5475 0.61506 0.0
C670 C 0.72217 0.57234 0.67835 0.0
C671 C 0.71507 0.54777 0.70024 0.0
C672 C 0.67518 0.5477 0.6411 0.0
C673 C 0.68902 0.52319 0.68879 0.0
C674 C 0.62302 0.52365 0.61346 0.0
C675 C 0.63625 0.57179 0.56957 0.0
N676 N 0.6698 0.52383 0.66055 0.0
N677 N 0.65718 0.57085 0.59345 0.0
H678 H 0.15506 0.62801 0.03904 0.0
H679 H 0.17205 0.72526 0.22771 0.0
H680 H 0.10709 0.66881 0.0391 0.0
H681 H 0.23816 0.70666 0.19974 0.0
H682 H 0.1488 0.70643 0.15784 0.0
H683 H 0.18699 0.65818 0.09633 0.0
C684 C 0.15172 0.64377 0.0507 0.0
C685 C 0.12857 0.64605 0.03445 0.0
C686 C 0.1687 0.70693 0.16666 0.0
C687 C 0.16437 0.68018 0.10075 0.0
C688 C 0.18191 0.71759 0.20657 0.0
C689 C 0.20702 0.71743 0.21965 0.0
C690 C 0.18036 0.69556 0.13999 0.0
C691 C 0.21897 0.70737 0.1909 0.0
C692 C 0.16987 0.66097 0.08337 0.0
C693 C 0.12491 0.66665 0.05062 0.0
N694 N 0.20528 0.69647 0.15279 0.0
N695 N 0.1423 0.68264 0.08349 0.0
loop_
_geom_bond_atom_site_label_1
_geom_bond_atom_site_label_2
_geom_bond_distance
_geom_bond_site_symmetry_2
_ccdc_geom_bond_type
Cu0 N1 1.999 1_454 S
Cu0 O6 1.974 1_454 S
Cu0 N11 1.985 . S
Cu0 O20 1.959 . S
N1 Cu0 1.999 1_656 S
N1 C3 1.263 . S
N1 C5 1.389 1_556 S
N2 C3 1.358 . S
N2 C4 1.400 . S
C3 N1 1.263 . S
C3 N2 1.358 . S
C3 H9 0.930 . S
C4 N2 1.400 . S
C4 C5 1.351 1_556 S
C4 H21 0.932 . S
C5 N1 1.389 1_554 S
C5 C4 1.351 1_554 S
C5 H10 0.930 . S
O6 Cu0 1.974 1_656 S
O6 C16 1.282 . S
C7 O8 1.261 1_554 S
C7 O20 1.251 . S
O8 C7 1.261 1_556 S
H9 C3 0.930 . S
H10 C5 0.930 . S
N11 Cu0 1.985 . S
N11 C13 1.335 . S
N11 C14 1.390 . S
N12 C13 1.345 . S
N12 C15 1.336 . S
C13 N11 1.335 . S
C13 N12 1.345 . S
C13 H18 0.930 . S
C14 N11 1.390 . S
C14 C15 1.346 . S
C14 H19 0.930 1_554 S
C15 N12 1.336 . S
C15 C14 1.346 . S
C15 H22 0.929 . S
C16 O6 1.282 . S
C16 O17 1.216 1_655 S
O17 C16 1.216 1_455 S
H18 C13 0.930 . S
H19 C14 0.930 1_556 S
O20 Cu0 1.959 . S
O20 C7 1.251 . S
H21 C4 0.932 . S
H22 C15 0.929 . S
Cu23 N24 1.999 . S
Cu23 O29 1.974 . S
Cu23 N34 1.985 1_565 S
Cu23 O43 1.959 1_565 S
N24 Cu23 1.999 . S
N24 C26 1.263 . S
N24 C28 1.389 . S
N25 C26 1.358 . S
N25 C27 1.400 . S
C26 N24 1.263 . S
C26 N25 1.358 . S
C26 H32 0.930 . S
C27 N25 1.400 . S
C27 C28 1.351 . S
C27 H44 0.930 . S
C28 N24 1.389 . S
C28 C27 1.351 . S
C28 H33 0.930 . S
O29 Cu23 1.974 . S
O29 C39 1.282 . S
C30 O31 1.261 . S
C30 O43 1.251 . S
O31 C30 1.261 . S
H32 C26 0.930 . S
H33 C28 0.930 . S
N34 Cu23 1.985 1_545 S
N34 C36 1.335 . S
N34 C37 1.390 . S
N35 C36 1.345 . S
N35 C38 1.336 . S
C36 N34 1.335 . S
C36 N35 1.345 . S
C36 H41 0.930 . S
C37 N34 1.390 . S
C37 C38 1.346 . S
C37 H42 0.930 . S
C38 N35 1.336 . S
C38 C37 1.346 . S
C38 H45 0.929 . S
C39 O29 1.282 . S
C39 O40 1.216 . S
O40 C39 1.216 . S
H41 C36 0.930 . S
H42 C37 0.930 . S
O43 Cu23 1.959 1_545 S
O43 C30 1.251 . S
H44 C27 0.930 . S
H45 C38 0.929 . S
Cu46 N47 1.999 1_554 S
Cu46 O52 1.974 1_554 S
Cu46 N57 1.985 . S
Cu46 O66 1.959 . S
N47 Cu46 1.999 1_556 S
N47 C49 1.263 . S
N47 C51 1.389 . S
N48 C49 1.358 . S
N48 C50 1.400 . S
C49 N47 1.263 . S
C49 N48 1.358 . S
C49 H55 0.930 . S
C50 N48 1.400 . S
C50 C51 1.351 . S
C50 H67 0.930 . S
C51 N47 1.389 . S
C51 C50 1.351 . S
C51 H56 0.930 . S
O52 Cu46 1.974 1_556 S
O52 C62 1.282 . S
C53 O54 1.261 . S
C53 O66 1.251 . S
O54 C53 1.261 . S
H55 C49 0.930 . S
H56 C51 0.930 . S
N57 Cu46 1.985 . S
N57 C59 1.335 . S
N57 C60 1.390 . S
N58 C59 1.345 . S
N58 C61 1.336 . S
C59 N57 1.335 . S
C59 N58 1.345 . S
C59 H64 0.930 . S
C60 N57 1.390 . S
C60 C61 1.346 . S
C60 H65 0.930 . S
C61 N58 1.336 . S
C61 C60 1.346 . S
C61 H68 0.929 . S
C62 O52 1.282 . S
C62 O63 1.216 1_556 S
O63 C62 1.216 1_554 S
H64 C59 0.930 . S
H65 C60 0.930 . S
O66 Cu46 1.959 . S
O66 C53 1.251 . S
H67 C50 0.930 . S
H68 C61 0.929 . S
Cu69 N70 1.999 1_655 S
Cu69 O75 1.974 1_655 S
Cu69 N80 1.985 . S
Cu69 O89 1.959 . S
N70 Cu69 1.999 1_455 S
N70 C72 1.263 . S
N70 C74 1.389 1_455 S
N71 C72 1.358 . S
N71 C73 1.400 . S
C72 N70 1.263 . S
C72 N71 1.358 . S
C72 H78 0.930 . S
C73 N71 1.400 . S
C73 C74 1.351 1_455 S
C73 H90 0.930 . S
C74 N70 1.389 1_655 S
C74 C73 1.351 1_655 S
C74 H79 0.930 . S
O75 Cu69 1.974 1_455 S
O75 C85 1.282 . S
C76 O77 1.261 . S
C76 O89 1.251 . S
O77 C76 1.261 . S
H78 C72 0.930 . S
H79 C74 0.930 . S
N80 Cu69 1.985 . S
N80 C82 1.335 . S
N80 C83 1.390 . S
N81 C82 1.345 . S
N81 C84 1.336 . S
C82 N80 1.335 . S
C82 N81 1.345 . S
C82 H87 0.930 . S
C83 N80 1.390 . S
C83 C84 1.346 . S
C83 H88 0.930 1_655 S
C84 N81 1.336 . S
C84 C83 1.346 . S
C84 H91 0.929 . S
C85 O75 1.282 . S
C85 O86 1.216 . S
O86 C85 1.216 . S
H87 C82 0.930 . S
H88 C83 0.930 1_455 S
O89 Cu69 1.959 . S
O89 C76 1.251 . S
H90 C73 0.930 . S
H91 C84 0.929 . S
Cu92 N93 1.999 . S
Cu92 O98 1.974 . S
Cu92 N103 1.985 1_545 S
Cu92 O112 1.959 1_545 S
N93 Cu92 1.999 . S
N93 C95 1.263 1_554 S
N93 C97 1.389 . S
N94 C95 1.358 . S
N94 C96 1.400 1_556 S
C95 N93 1.263 1_556 S
C95 N94 1.358 . S
C95 H101 0.930 . S
C96 N94 1.400 1_554 S
C96 C97 1.351 . S
C96 H113 0.930 . S
C97 N93 1.389 . S
C97 C96 1.351 . S
C97 H102 0.930 . S
O98 Cu92 1.974 . S
O98 C108 1.282 1_554 S
C99 O100 1.261 . S
C99 O112 1.251 . S
O100 C99 1.261 . S
H101 C95 0.930 . S
H102 C97 0.930 . S
N103 Cu92 1.985 1_565 S
N103 C105 1.335 . S
N103 C106 1.390 . S
N104 C105 1.345 . S
N104 C107 1.336 . S
C105 N103 1.335 . S
C105 N104 1.345 . S
C105 H110 0.930 . S
C106 N103 1.390 . S
C106 C107 1.346 . S
C106 H111 0.930 1_565 S
C107 N104 1.336 . S
C107 C106 1.346 . S
C107 H114 0.929 . S
C108 O98 1.282 1_556 S
C108 O109 1.216 . S
O109 C108 1.216 . S
H110 C105 0.930 . S
H111 C106 0.930 1_545 S
O112 Cu92 1.959 1_565 S
O112 C99 1.251 . S
H113 C96 0.930 . S
H114 C107 0.929 . S
Cu115 N116 1.999 . S
Cu115 O121 1.974 . S
Cu115 N126 1.985 . S
Cu115 O135 1.959 . S
N116 Cu115 1.999 . S
N116 C118 1.263 . S
N116 C120 1.389 . S
N117 C118 1.358 . S
N117 C119 1.400 . S
C118 N116 1.263 . S
C118 N117 1.358 . S
C118 H124 0.930 . S
C119 N117 1.400 . S
C119 C120 1.351 . S
C119 H136 0.930 . S
C120 N116 1.389 . S
C120 C119 1.351 . S
C120 H125 0.930 . S
O121 Cu115 1.974 . S
O121 C131 1.282 . S
C122 O123 1.261 . S
C122 O135 1.251 . S
O123 C122 1.261 . S
H124 C118 0.930 . S
H125 C120 0.930 . S
N126 Cu115 1.985 . S
N126 C128 1.335 . S
N126 C129 1.390 . S
N127 C128 1.345 . S
N127 C130 1.336 . S
C128 N126 1.335 . S
C128 N127 1.345 . S
C128 H133 0.930 . S
C129 N126 1.390 . S
C129 C130 1.346 . S
C129 H134 0.930 . S
C130 N127 1.336 . S
C130 C129 1.346 . S
C130 H137 0.929 . S
C131 O121 1.282 . S
C131 O132 1.216 . S
O132 C131 1.216 . S
H133 C128 0.930 . S
H134 C129 0.930 . S
O135 Cu115 1.959 . S
O135 C122 1.251 . S
H136 C119 0.930 . S
H137 C130 0.929 . S
H138 C146 0.930 . S
H139 C149 0.930 . S
H140 C151 0.930 . S
H141 C152 0.970 . S
H142 C152 0.970 . S
H143 C154 0.930 . S
H144 C156 0.930 . S
H145 C158 0.930 . S
C146 H138 0.930 . S
C146 C147 1.382 . S
C146 C148 1.426 . S
C147 C146 1.382 . S
C147 C151 1.389 . S
C148 C146 1.426 . S
C148 C149 1.375 . S
C148 C152 1.532 . S
C149 H139 0.930 . S
C149 C148 1.375 . S
C149 C150 1.416 . S
C150 C149 1.416 . S
C150 C151 1.371 . S
C151 H140 0.930 . S
C151 C147 1.389 . S
C151 C150 1.371 . S
C152 H141 0.970 . S
C152 H142 0.970 . S
C152 C148 1.532 . S
C152 C153 1.499 . S
C153 C152 1.499 . S
C153 C154 1.370 . S
C153 C158 1.415 . S
C154 H143 0.930 . S
C154 C153 1.370 . S
C154 C155 1.407 . S
C155 C154 1.407 . S
C155 C156 1.365 . S
C156 H144 0.930 . S
C156 C155 1.365 . S
C156 C157 1.393 . S
C157 C156 1.393 . S
C157 C158 1.387 . S
C158 H145 0.930 . S
C158 C153 1.415 . S
C158 C157 1.387 . S
H159 C167 0.930 . S
H160 C170 0.930 . S
H161 C172 0.930 . S
H162 C173 0.970 . S
H163 C173 0.970 . S
H164 C175 0.930 . S
H165 C177 0.930 . S
H166 C179 0.930 . S
C167 H159 0.930 . S
C167 C168 1.382 . S
C167 C169 1.426 . S
C168 C167 1.382 . S
C168 C172 1.389 . S
C169 C167 1.426 . S
C169 C170 1.375 . S
C169 C173 1.532 . S
C170 H160 0.930 . S
C170 C169 1.375 . S
C170 C171 1.416 . S
C171 C170 1.416 . S
C171 C172 1.371 . S
C172 H161 0.930 . S
C172 C168 1.389 . S
C172 C171 1.371 . S
C173 H162 0.970 . S
C173 H163 0.970 . S
C173 C169 1.532 . S
C173 C174 1.499 . S
C174 C173 1.499 . S
C174 C175 1.370 . S
C174 C179 1.415 . S
C175 H164 0.930 . S
C175 C174 1.370 . S
C175 C176 1.407 . S
C176 C175 1.407 . S
C176 C177 1.365 . S
C177 H165 0.930 . S
C177 C176 1.365 . S
C177 C178 1.393 . S
C178 C177 1.393 . S
C178 C179 1.387 . S
C179 H166 0.930 . S
C179 C174 1.415 . S
C179 C178 1.387 . S
H180 C188 0.930 . S
H181 C191 0.930 . S
H182 C193 0.930 . S
H183 C194 0.970 . S
H184 C194 0.970 . S
H185 C196 0.930 . S
H186 C198 0.930 . S
H187 C200 0.930 . S
C188 H180 0.930 . S
C188 C189 1.382 . S
C188 C190 1.426 . S
C189 C188 1.382 . S
C189 C193 1.389 . S
C190 C188 1.426 . S
C190 C191 1.375 . S
C190 C194 1.532 . S
C191 H181 0.930 . S
C191 C190 1.375 . S
C191 C192 1.416 . S
C192 C191 1.416 . S
C192 C193 1.371 . S
C193 H182 0.930 . S
C193 C189 1.389 . S
C193 C192 1.371 . S
C194 H183 0.970 . S
C194 H184 0.970 . S
C194 C190 1.532 . S
C194 C195 1.499 . S
C195 C194 1.499 . S
C195 C196 1.370 . S
C195 C200 1.415 . S
C196 H185 0.930 . S
C196 C195 1.370 . S
C196 C197 1.407 . S
C197 C196 1.407 . S
C197 C198 1.365 . S
C198 H186 0.930 . S
C198 C197 1.365 . S
C198 C199 1.393 . S
C199 C198 1.393 . S
C199 C200 1.387 . S
C200 H187 0.930 . S
C200 C195 1.415 . S
C200 C199 1.387 . S
H201 C209 0.930 . S
H202 C212 0.930 . S
H203 C214 0.930 . S
H204 C215 0.970 . S
H205 C215 0.970 . S
H206 C217 0.930 . S
H207 C219 0.930 . S
H208 C221 0.930 . S
C209 H201 0.930 . S
C209 C210 1.382 . S
C209 C211 1.426 . S
C210 C209 1.382 . S
C210 C214 1.389 . S
C211 C209 1.426 . S
C211 C212 1.375 . S
C211 C215 1.532 . S
C212 H202 0.930 . S
C212 C211 1.375 . S
C212 C213 1.416 . S
C213 C212 1.416 . S
C213 C214 1.371 . S
C214 H203 0.930 . S
C214 C210 1.389 . S
C214 C213 1.371 . S
C215 H204 0.970 . S
C215 H205 0.970 . S
C215 C211 1.532 . S
C215 C216 1.499 . S
C216 C215 1.499 . S
C216 C217 1.370 . S
C216 C221 1.415 . S
C217 H206 0.930 . S
C217 C216 1.370 . S
C217 C218 1.407 . S
C218 C217 1.407 . S
C218 C219 1.365 . S
C219 H207 0.930 . S
C219 C218 1.365 . S
C219 C220 1.393 . S
C220 C219 1.393 . S
C220 C221 1.387 . S
C221 H208 0.930 . S
C221 C216 1.415 . S
C221 C220 1.387 . S
H222 C230 0.930 . S
H223 C233 0.930 . S
H224 C235 0.930 . S
H225 C236 0.970 . S
H226 C236 0.970 . S
H227 C238 0.930 . S
H228 C240 0.930 . S
H229 C242 0.930 . S
C230 H222 0.930 . S
C230 C231 1.382 . S
C230 C232 1.426 . S
C231 C230 1.382 . S
C231 C235 1.389 . S
C232 C230 1.426 . S
C232 C233 1.375 . S
C232 C236 1.532 . S
C233 H223 0.930 . S
C233 C232 1.375 . S
C233 C234 1.416 . S
C234 C233 1.416 . S
C234 C235 1.371 . S
C235 H224 0.930 . S
C235 C231 1.389 . S
C235 C234 1.371 . S
C236 H225 0.970 . S
C236 H226 0.970 . S
C236 C232 1.532 . S
C236 C237 1.499 . S
C237 C236 1.499 . S
C237 C238 1.370 . S
C237 C242 1.415 . S
C238 H227 0.930 . S
C238 C237 1.370 . S
C238 C239 1.407 . S
C239 C238 1.407 . S
C239 C240 1.365 . S
C240 H228 0.930 . S
C240 C239 1.365 . S
C240 C241 1.393 . S
C241 C240 1.393 . S
C241 C242 1.387 . S
C242 H229 0.930 . S
C242 C237 1.415 . S
C242 C241 1.387 . S
H243 C251 0.930 . S
H244 C254 0.930 . S
H245 C256 0.930 . S
H246 C257 0.970 . S
H247 C257 0.970 . S
H248 C259 0.930 . S
H249 C261 0.930 . S
H250 C263 0.930 . S
C251 H243 0.930 . S
C251 C252 1.382 . S
C251 C253 1.426 . S
C252 C251 1.382 . S
C252 C256 1.389 . S
C253 C251 1.426 . S
C253 C254 1.375 . S
C253 C257 1.532 . S
C254 H244 0.930 . S
C254 C253 1.375 . S
C254 C255 1.416 . S
C255 C254 1.416 . S
C255 C256 1.371 . S
C256 H245 0.930 . S
C256 C252 1.389 . S
C256 C255 1.371 . S
C257 H246 0.970 . S
C257 H247 0.970 . S
C257 C253 1.532 . S
C257 C258 1.499 . S
C258 C257 1.499 . S
C258 C259 1.370 . S
C258 C263 1.415 . S
C259 H248 0.930 . S
C259 C258 1.370 . S
C259 C260 1.407 . S
C260 C259 1.407 . S
C260 C261 1.365 . S
C261 H249 0.930 . S
C261 C260 1.365 . S
C261 C262 1.393 . S
C262 C261 1.393 . S
C262 C263 1.387 . S
C263 H250 0.930 . S
C263 C258 1.415 . S
C263 C262 1.387 . S
H264 C270 0.930 . S
H265 C274 0.930 . S
H266 C279 0.929 . S
H267 C277 0.929 . S
H268 C272 0.929 . S
H269 C278 0.929 . S
C270 H264 0.930 . S
C270 C271 1.367 . S
C270 C278 1.378 . S
C271 C270 1.367 . S
C271 C279 1.433 . S
C272 H268 0.929 . S
C272 C274 1.378 . S
C272 C276 1.350 . S
C273 C276 1.463 . S
C273 C278 1.350 . S
C273 N281 1.427 . S
C274 H265 0.930 . S
C274 C272 1.378 . S
C274 C275 1.367 . S
C275 C274 1.367 . S
C275 C277 1.433 . S
C276 C272 1.350 . S
C276 C273 1.463 . S
C276 N280 1.427 . S
C277 H267 0.929 . S
C277 C275 1.433 . S
C277 N280 1.384 . S
C278 H269 0.929 . S
C278 C270 1.378 . S
C278 C273 1.350 . S
C279 H266 0.929 . S
C279 C271 1.433 . S
C279 N281 1.384 . S
N280 C276 1.427 . S
N280 C277 1.384 . S
N281 C273 1.427 . S
N281 C279 1.384 . S
H282 C288 0.930 . S
H283 C292 0.930 . S
H284 C297 0.929 . S
H285 C295 0.929 . S
H286 C290 0.929 . S
H287 C296 0.929 . S
C288 H282 0.930 . S
C288 C289 1.367 . S
C288 C296 1.378 . S
C289 C288 1.367 . S
C289 C297 1.433 . S
C290 H286 0.929 . S
C290 C292 1.378 . S
C290 C294 1.350 . S
C291 C294 1.463 . S
C291 C296 1.350 . S
C291 N299 1.427 . S
C292 H283 0.930 . S
C292 C290 1.378 . S
C292 C293 1.367 . S
C293 C292 1.367 . S
C293 C295 1.433 . S
C294 C290 1.350 . S
C294 C291 1.463 . S
C294 N298 1.427 . S
C295 H285 0.929 . S
C295 C293 1.433 . S
C295 N298 1.384 . S
C296 H287 0.929 . S
C296 C288 1.378 . S
C296 C291 1.350 . S
C297 H284 0.929 . S
C297 C289 1.433 . S
C297 N299 1.384 . S
N298 C294 1.427 . S
N298 C295 1.384 . S
N299 C291 1.427 . S
N299 C297 1.384 . S
H300 C306 0.930 . S
H301 C310 0.930 . S
H302 C315 0.929 . S
H303 C313 0.929 . S
H304 C308 0.929 . S
H305 C314 0.929 . S
C306 H300 0.930 . S
C306 C307 1.367 . S
C306 C314 1.378 . S
C307 C306 1.367 . S
C307 C315 1.433 . S
C308 H304 0.929 . S
C308 C310 1.378 . S
C308 C312 1.350 . S
C309 C312 1.463 . S
C309 C314 1.350 . S
C309 N317 1.427 . S
C310 H301 0.930 . S
C310 C308 1.378 . S
C310 C311 1.367 . S
C311 C310 1.367 . S
C311 C313 1.433 . S
C312 C308 1.350 . S
C312 C309 1.463 . S
C312 N316 1.427 . S
C313 H303 0.929 . S
C313 C311 1.433 . S
C313 N316 1.384 . S
C314 H305 0.929 . S
C314 C306 1.378 . S
C314 C309 1.350 . S
C315 H302 0.929 . S
C315 C307 1.433 . S
C315 N317 1.384 . S
N316 C312 1.427 . S
N316 C313 1.384 . S
N317 C309 1.427 . S
N317 C315 1.384 . S
H318 C324 0.930 . S
H319 C328 0.930 . S
H320 C333 0.929 . S
H321 C331 0.929 . S
H322 C326 0.929 . S
H323 C332 0.929 . S
C324 H318 0.930 . S
C324 C325 1.367 . S
C324 C332 1.378 . S
C325 C324 1.367 . S
C325 C333 1.433 . S
C326 H322 0.929 . S
C326 C328 1.378 . S
C326 C330 1.350 . S
C327 C330 1.463 . S
C327 C332 1.350 . S
C327 N335 1.427 . S
C328 H319 0.930 . S
C328 C326 1.378 . S
C328 C329 1.367 . S
C329 C328 1.367 . S
C329 C331 1.433 . S
C330 C326 1.350 . S
C330 C327 1.463 . S
C330 N334 1.427 . S
C331 H321 0.929 . S
C331 C329 1.433 . S
C331 N334 1.384 . S
C332 H323 0.929 . S
C332 C324 1.378 . S
C332 C327 1.350 . S
C333 H320 0.929 . S
C333 C325 1.433 . S
C333 N335 1.384 . S
N334 C330 1.427 . S
N334 C331 1.384 . S
N335 C327 1.427 . S
N335 C333 1.384 . S
H336 C342 0.930 . S
H337 C346 0.930 . S
H338 C351 0.929 . S
H339 C349 0.929 . S
H340 C344 0.929 . S
H341 C350 0.929 . S
C342 H336 0.930 . S
C342 C343 1.367 . S
C342 C350 1.378 . S
C343 C342 1.367 . S
C343 C351 1.433 . S
C344 H340 0.929 . S
C344 C346 1.378 . S
C344 C348 1.350 . S
C345 C348 1.463 . S
C345 C350 1.350 . S
C345 N353 1.427 . S
C346 H337 0.930 . S
C346 C344 1.378 . S
C346 C347 1.367 . S
C347 C346 1.367 . S
C347 C349 1.433 . S
C348 C344 1.350 . S
C348 C345 1.463 . S
C348 N352 1.427 . S
C349 H339 0.929 . S
C349 C347 1.433 . S
C349 N352 1.384 . S
C350 H341 0.929 . S
C350 C342 1.378 . S
C350 C345 1.350 . S
C351 H338 0.929 . S
C351 C343 1.433 . S
C351 N353 1.384 . S
N352 C348 1.427 . S
N352 C349 1.384 . S
N353 C345 1.427 . S
N353 C351 1.384 . S
H354 C360 0.930 . S
H355 C364 0.930 . S
H356 C369 0.929 . S
H357 C367 0.929 . S
H358 C362 0.929 . S
H359 C368 0.929 . S
C360 H354 0.930 . S
C360 C361 1.367 . S
C360 C368 1.378 . S
C361 C360 1.367 . S
C361 C369 1.433 . S
C362 H358 0.929 . S
C362 C364 1.378 . S
C362 C366 1.350 . S
C363 C366 1.463 . S
C363 C368 1.350 . S
C363 N371 1.427 . S
C364 H355 0.930 . S
C364 C362 1.378 . S
C364 C365 1.367 . S
C365 C364 1.367 . S
C365 C367 1.433 . S
C366 C362 1.350 . S
C366 C363 1.463 . S
C366 N370 1.427 . S
C367 H357 0.929 . S
C367 C365 1.433 . S
C367 N370 1.384 . S
C368 H359 0.929 . S
C368 C360 1.378 . S
C368 C363 1.350 . S
C369 H356 0.929 . S
C369 C361 1.433 . S
C369 N371 1.384 . S
N370 C366 1.427 . S
N370 C367 1.384 . S
N371 C363 1.427 . S
N371 C369 1.384 . S
H372 C378 0.930 . S
H373 C382 0.930 . S
H374 C387 0.929 . S
H375 C385 0.929 . S
H376 C380 0.929 . S
H377 C386 0.929 . S
C378 H372 0.930 . S
C378 C379 1.367 . S
C378 C386 1.378 . S
C379 C378 1.367 . S
C379 C387 1.433 . S
C380 H376 0.929 . S
C380 C382 1.378 . S
C380 C384 1.350 . S
C381 C384 1.463 . S
C381 C386 1.350 . S
C381 N389 1.427 . S
C382 H373 0.930 . S
C382 C380 1.378 . S
C382 C383 1.367 . S
C383 C382 1.367 . S
C383 C385 1.433 . S
C384 C380 1.350 . S
C384 C381 1.463 . S
C384 N388 1.427 . S
C385 H375 0.929 . S
C385 C383 1.433 . S
C385 N388 1.384 . S
C386 H377 0.929 . S
C386 C378 1.378 . S
C386 C381 1.350 . S
C387 H374 0.929 . S
C387 C379 1.433 . S
C387 N389 1.384 . S
N388 C384 1.427 . S
N388 C385 1.384 . S
N389 C381 1.427 . S
N389 C387 1.384 . S
H390 C396 0.930 . S
H391 C400 0.930 . S
H392 C405 0.929 . S
H393 C403 0.929 . S
H394 C398 0.929 . S
H395 C404 0.929 . S
C396 H390 0.930 . S
C396 C397 1.367 . S
C396 C404 1.378 . S
C397 C396 1.367 . S
C397 C405 1.433 . S
C398 H394 0.929 . S
C398 C400 1.378 . S
C398 C402 1.350 . S
C399 C402 1.463 . S
C399 C404 1.350 . S
C399 N407 1.427 . S
C400 H391 0.930 . S
C400 C398 1.378 . S
C400 C401 1.367 . S
C401 C400 1.367 . S
C401 C403 1.433 . S
C402 C398 1.350 . S
C402 C399 1.463 . S
C402 N406 1.427 . S
C403 H393 0.929 . S
C403 C401 1.433 . S
C403 N406 1.384 . S
C404 H395 0.929 . S
C404 C396 1.378 . S
C404 C399 1.350 . S
C405 H392 0.929 . S
C405 C397 1.433 . S
C405 N407 1.384 . S
N406 C402 1.427 . S
N406 C403 1.384 . S
N407 C399 1.427 . S
N407 C405 1.384 . S
H408 C414 0.930 . S
H409 C418 0.930 . S
H410 C423 0.929 . S
H411 C421 0.929 . S
H412 C416 0.929 . S
H413 C422 0.929 . S
C414 H408 0.930 . S
C414 C415 1.367 . S
C414 C422 1.378 . S
C415 C414 1.367 . S
C415 C423 1.433 . S
C416 H412 0.929 . S
C416 C418 1.378 . S
C416 C420 1.350 . S
C417 C420 1.463 . S
C417 C422 1.350 . S
C417 N425 1.427 . S
C418 H409 0.930 . S
C418 C416 1.378 . S
C418 C419 1.367 . S
C419 C418 1.367 . S
C419 C421 1.433 . S
C420 C416 1.350 . S
C420 C417 1.463 . S
C420 N424 1.427 . S
C421 H411 0.929 . S
C421 C419 1.433 . S
C421 N424 1.384 . S
C422 H413 0.929 . S
C422 C414 1.378 . S
C422 C417 1.350 . S
C423 H410 0.929 . S
C423 C415 1.433 . S
C423 N425 1.384 . S
N424 C420 1.427 . S
N424 C421 1.384 . S
N425 C417 1.427 . S
N425 C423 1.384 . S
H426 C432 0.930 . S
H427 C436 0.930 . S
H428 C441 0.929 . S
H429 C439 0.929 . S
H430 C434 0.929 . S
H431 C440 0.929 . S
C432 H426 0.930 . S
C432 C433 1.367 . S
C432 C440 1.378 . S
C433 C432 1.367 . S
C433 C441 1.433 . S
C434 H430 0.929 . S
C434 C436 1.378 . S
C434 C438 1.350 . S
C435 C438 1.463 . S
C435 C440 1.350 . S
C435 N443 1.427 . S
C436 H427 0.930 . S
C436 C434 1.378 . S
C436 C437 1.367 . S
C437 C436 1.367 . S
C437 C439 1.433 . S
C438 C434 1.350 . S
C438 C435 1.463 . S
C438 N442 1.427 . S
C439 H429 0.929 . S
C439 C437 1.433 . S
C439 N442 1.384 . S
C440 H431 0.929 . S
C440 C432 1.378 . S
C440 C435 1.350 . S
C441 H428 0.929 . S
C441 C433 1.433 . S
C441 N443 1.384 . S
N442 C438 1.427 . S
N442 C439 1.384 . S
N443 C435 1.427 . S
N443 C441 1.384 . S
H444 C450 0.930 . S
H445 C454 0.930 . S
H446 C459 0.929 . S
H447 C457 0.929 . S
H448 C452 0.929 . S
H449 C458 0.929 . S
C450 H444 0.930 . S
C450 C451 1.367 . S
C450 C458 1.378 . S
C451 C450 1.367 . S
C451 C459 1.433 . S
C452 H448 0.929 . S
C452 C454 1.378 . S
C452 C456 1.350 . S
C453 C456 1.463 . S
C453 C458 1.350 . S
C453 N461 1.427 . S
C454 H445 0.930 . S
C454 C452 1.378 . S
C454 C455 1.367 . S
C455 C454 1.367 . S
C455 C457 1.433 . S
C456 C452 1.350 . S
C456 C453 1.463 . S
C456 N460 1.427 . S
C457 H447 0.929 . S
C457 C455 1.433 . S
C457 N460 1.384 . S
C458 H449 0.929 . S
C458 C450 1.378 . S
C458 C453 1.350 . S
C459 H446 0.929 . S
C459 C451 1.433 . S
C459 N461 1.384 . S
N460 C456 1.427 . S
N460 C457 1.384 . S
N461 C453 1.427 . S
N461 C459 1.384 . S
H462 C468 0.930 . S
H463 C472 0.930 . S
H464 C477 0.929 . S
H465 C475 0.929 . S
H466 C470 0.929 . S
H467 C476 0.929 . S
C468 H462 0.930 . S
C468 C469 1.367 . S
C468 C476 1.378 . S
C469 C468 1.367 . S
C469 C477 1.433 . S
C470 H466 0.929 . S
C470 C472 1.378 . S
C470 C474 1.350 . S
C471 C474 1.463 . S
C471 C476 1.350 . S
C471 N479 1.427 . S
C472 H463 0.930 . S
C472 C470 1.378 . S
C472 C473 1.367 . S
C473 C472 1.367 . S
C473 C475 1.433 . S
C474 C470 1.350 . S
C474 C471 1.463 . S
C474 N478 1.427 . S
C475 H465 0.929 . S
C475 C473 1.433 . S
C475 N478 1.384 . S
C476 H467 0.929 . S
C476 C468 1.378 . S
C476 C471 1.350 . S
C477 H464 0.929 . S
C477 C469 1.433 . S
C477 N479 1.384 . S
N478 C474 1.427 . S
N478 C475 1.384 . S
N479 C471 1.427 . S
N479 C477 1.384 . S
H480 C486 0.930 . S
H481 C490 0.930 . S
H482 C495 0.929 . S
H483 C493 0.929 . S
H484 C488 0.929 . S
H485 C494 0.929 . S
C486 H480 0.930 . S
C486 C487 1.367 . S
C486 C494 1.378 . S
C487 C486 1.367 . S
C487 C495 1.433 . S
C488 H484 0.929 . S
C488 C490 1.378 . S
C488 C492 1.350 . S
C489 C492 1.463 . S
C489 C494 1.350 . S
C489 N497 1.427 . S
C490 H481 0.930 . S
C490 C488 1.378 . S
C490 C491 1.367 . S
C491 C490 1.367 . S
C491 C493 1.433 . S
C492 C488 1.350 . S
C492 C489 1.463 . S
C492 N496 1.427 . S
C493 H483 0.929 . S
C493 C491 1.433 . S
C493 N496 1.384 . S
C494 H485 0.929 . S
C494 C486 1.378 . S
C494 C489 1.350 . S
C495 H482 0.929 . S
C495 C487 1.433 . S
C495 N497 1.384 . S
N496 C492 1.427 . S
N496 C493 1.384 . S
N497 C489 1.427 . S
N497 C495 1.384 . S
H498 C504 0.930 . S
H499 C508 0.930 . S
H500 C513 0.929 . S
H501 C511 0.929 . S
H502 C506 0.929 . S
H503 C512 0.929 . S
C504 H498 0.930 . S
C504 C505 1.367 . S
C504 C512 1.378 . S
C505 C504 1.367 . S
C505 C513 1.433 . S
C506 H502 0.929 . S
C506 C508 1.378 . S
C506 C510 1.350 . S
C507 C510 1.463 . S
C507 C512 1.350 . S
C507 N515 1.427 . S
C508 H499 0.930 . S
C508 C506 1.378 . S
C508 C509 1.367 . S
C509 C508 1.367 . S
C509 C511 1.433 . S
C510 C506 1.350 . S
C510 C507 1.463 . S
C510 N514 1.427 . S
C511 H501 0.929 . S
C511 C509 1.433 . S
C511 N514 1.384 . S
C512 H503 0.929 . S
C512 C504 1.378 . S
C512 C507 1.350 . S
C513 H500 0.929 . S
C513 C505 1.433 . S
C513 N515 1.384 . S
N514 C510 1.427 . S
N514 C511 1.384 . S
N515 C507 1.427 . S
N515 C513 1.384 . S
H516 C522 0.930 . S
H517 C526 0.930 . S
H518 C531 0.929 . S
H519 C529 0.929 . S
H520 C524 0.929 . S
H521 C530 0.929 . S
C522 H516 0.930 . S
C522 C523 1.367 . S
C522 C530 1.378 . S
C523 C522 1.367 . S
C523 C531 1.433 . S
C524 H520 0.929 . S
C524 C526 1.378 . S
C524 C528 1.350 . S
C525 C528 1.463 . S
C525 C530 1.350 . S
C525 N533 1.427 . S
C526 H517 0.930 . S
C526 C524 1.378 . S
C526 C527 1.367 . S
C527 C526 1.367 . S
C527 C529 1.433 . S
C528 C524 1.350 . S
C528 C525 1.463 . S
C528 N532 1.427 . S
C529 H519 0.929 . S
C529 C527 1.433 . S
C529 N532 1.384 . S
C530 H521 0.929 . S
C530 C522 1.378 . S
C530 C525 1.350 . S
C531 H518 0.929 . S
C531 C523 1.433 . S
C531 N533 1.384 . S
N532 C528 1.427 . S
N532 C529 1.384 . S
N533 C525 1.427 . S
N533 C531 1.384 . S
H534 C540 0.930 . S
H535 C544 0.930 . S
H536 C549 0.929 . S
H537 C547 0.929 . S
H538 C542 0.929 . S
H539 C548 0.929 . S
C540 H534 0.930 . S
C540 C541 1.367 . S
C540 C548 1.378 . S
C541 C540 1.367 . S
C541 C549 1.433 . S
C542 H538 0.929 . S
C542 C544 1.378 . S
C542 C546 1.350 . S
C543 C546 1.463 . S
C543 C548 1.350 . S
C543 N551 1.427 . S
C544 H535 0.930 . S
C544 C542 1.378 . S
C544 C545 1.367 . S
C545 C544 1.367 . S
C545 C547 1.433 . S
C546 C542 1.350 . S
C546 C543 1.463 . S
C546 N550 1.427 . S
C547 H537 0.929 . S
C547 C545 1.433 . S
C547 N550 1.384 . S
C548 H539 0.929 . S
C548 C540 1.378 . S
C548 C543 1.350 . S
C549 H536 0.929 . S
C549 C541 1.433 . S
C549 N551 1.384 . S
N550 C546 1.427 . S
N550 C547 1.384 . S
N551 C543 1.427 . S
N551 C549 1.384 . S
H552 C558 0.930 . S
H553 C562 0.930 . S
H554 C567 0.929 . S
H555 C565 0.929 . S
H556 C560 0.929 . S
H557 C566 0.929 . S
C558 H552 0.930 . S
C558 C559 1.367 . S
C558 C566 1.378 . S
C559 C558 1.367 . S
C559 C567 1.433 . S
C560 H556 0.929 . S
C560 C562 1.378 . S
C560 C564 1.350 . S
C561 C564 1.463 . S
C561 C566 1.350 . S
C561 N569 1.427 . S
C562 H553 0.930 . S
C562 C560 1.378 . S
C562 C563 1.367 . S
C563 C562 1.367 . S
C563 C565 1.433 . S
C564 C560 1.350 . S
C564 C561 1.463 . S
C564 N568 1.427 . S
C565 H555 0.929 . S
C565 C563 1.433 . S
C565 N568 1.384 . S
C566 H557 0.929 . S
C566 C558 1.378 . S
C566 C561 1.350 . S
C567 H554 0.929 . S
C567 C559 1.433 . S
C567 N569 1.384 . S
N568 C564 1.427 . S
N568 C565 1.384 . S
N569 C561 1.427 . S
N569 C567 1.384 . S
H570 C576 0.930 . S
H571 C580 0.930 . S
H572 C585 0.929 . S
H573 C583 0.929 . S
H574 C578 0.929 . S
H575 C584 0.929 . S
C576 H570 0.930 . S
C576 C577 1.367 . S
C576 C584 1.378 . S
C577 C576 1.367 . S
C577 C585 1.433 . S
C578 H574 0.929 . S
C578 C580 1.378 . S
C578 C582 1.350 . S
C579 C582 1.463 . S
C579 C584 1.350 . S
C579 N587 1.427 . S
C580 H571 0.930 . S
C580 C578 1.378 . S
C580 C581 1.367 . S
C581 C580 1.367 . S
C581 C583 1.433 . S
C582 C578 1.350 . S
C582 C579 1.463 . S
C582 N586 1.427 . S
C583 H573 0.929 . S
C583 C581 1.433 . S
C583 N586 1.384 . S
C584 H575 0.929 . S
C584 C576 1.378 . S
C584 C579 1.350 . S
C585 H572 0.929 . S
C585 C577 1.433 . S
C585 N587 1.384 . S
N586 C582 1.427 . S
N586 C583 1.384 . S
N587 C579 1.427 . S
N587 C585 1.384 . S
H588 C594 0.930 . S
H589 C598 0.930 . S
H590 C603 0.929 . S
H591 C601 0.929 . S
H592 C596 0.929 . S
H593 C602 0.929 . S
C594 H588 0.930 . S
C594 C595 1.367 . S
C594 C602 1.378 . S
C595 C594 1.367 . S
C595 C603 1.433 . S
C596 H592 0.929 . S
C596 C598 1.378 . S
C596 C600 1.350 . S
C597 C600 1.463 . S
C597 C602 1.350 . S
C597 N605 1.427 . S
C598 H589 0.930 . S
C598 C596 1.378 . S
C598 C599 1.367 . S
C599 C598 1.367 . S
C599 C601 1.433 . S
C600 C596 1.350 . S
C600 C597 1.463 . S
C600 N604 1.427 . S
C601 H591 0.929 . S
C601 C599 1.433 . S
C601 N604 1.384 . S
C602 H593 0.929 . S
C602 C594 1.378 . S
C602 C597 1.350 . S
C603 H590 0.929 . S
C603 C595 1.433 . S
C603 N605 1.384 . S
N604 C600 1.427 . S
N604 C601 1.384 . S
N605 C597 1.427 . S
N605 C603 1.384 . S
H606 C612 0.930 . S
H607 C616 0.930 . S
H608 C621 0.929 . S
H609 C619 0.929 . S
H610 C614 0.929 . S
H611 C620 0.929 . S
C612 H606 0.930 . S
C612 C613 1.367 . S
C612 C620 1.378 . S
C613 C612 1.367 . S
C613 C621 1.433 . S
C614 H610 0.929 . S
C614 C616 1.378 . S
C614 C618 1.350 . S
C615 C618 1.463 . S
C615 C620 1.350 . S
C615 N623 1.427 . S
C616 H607 0.930 . S
C616 C614 1.378 . S
C616 C617 1.367 . S
C617 C616 1.367 . S
C617 C619 1.433 . S
C618 C614 1.350 . S
C618 C615 1.463 . S
C618 N622 1.427 . S
C619 H609 0.929 . S
C619 C617 1.433 . S
C619 N622 1.384 . S
C620 H611 0.929 . S
C620 C612 1.378 . S
C620 C615 1.350 . S
C621 H608 0.929 . S
C621 C613 1.433 . S
C621 N623 1.384 . S
N622 C618 1.427 . S
N622 C619 1.384 . S
N623 C615 1.427 . S
N623 C621 1.384 . S
H624 C630 0.930 . S
H625 C634 0.930 . S
H626 C639 0.929 . S
H627 C637 0.929 . S
H628 C632 0.929 . S
H629 C638 0.929 . S
C630 H624 0.930 . S
C630 C631 1.367 . S
C630 C638 1.378 . S
C631 C630 1.367 . S
C631 C639 1.433 . S
C632 H628 0.929 . S
C632 C634 1.378 . S
C632 C636 1.350 . S
C633 C636 1.463 . S
C633 C638 1.350 . S
C633 N641 1.427 . S
C634 H625 0.930 . S
C634 C632 1.378 . S
C634 C635 1.367 . S
C635 C634 1.367 . S
C635 C637 1.433 . S
C636 C632 1.350 . S
C636 C633 1.463 . S
C636 N640 1.427 . S
C637 H627 0.929 . S
C637 C635 1.433 . S
C637 N640 1.384 . S
C638 H629 0.929 . S
C638 C630 1.378 . S
C638 C633 1.350 . S
C639 H626 0.929 . S
C639 C631 1.433 . S
C639 N641 1.384 . S
N640 C636 1.427 . S
N640 C637 1.384 . S
N641 C633 1.427 . S
N641 C639 1.384 . S
H642 C648 0.930 . S
H643 C652 0.930 . S
H644 C657 0.929 . S
H645 C655 0.929 . S
H646 C650 0.929 . S
H647 C656 0.929 . S
C648 H642 0.930 . S
C648 C649 1.367 . S
C648 C656 1.378 . S
C649 C648 1.367 . S
C649 C657 1.433 . S
C650 H646 0.929 . S
C650 C652 1.378 . S
C650 C654 1.350 . S
C651 C654 1.463 . S
C651 C656 1.350 . S
C651 N659 1.427 . S
C652 H643 0.930 . S
C652 C650 1.378 . S
C652 C653 1.367 . S
C653 C652 1.367 . S
C653 C655 1.433 . S
C654 C650 1.350 . S
C654 C651 1.463 . S
C654 N658 1.427 . S
C655 H645 0.929 . S
C655 C653 1.433 . S
C655 N658 1.384 . S
C656 H647 0.929 . S
C656 C648 1.378 . S
C656 C651 1.350 . S
C657 H644 0.929 . S
C657 C649 1.433 . S
C657 N659 1.384 . S
N658 C654 1.427 . S
N658 C655 1.384 . S
N659 C651 1.427 . S
N659 C657 1.384 . S
H660 C666 0.930 . S
H661 C670 0.930 . S
H662 C675 0.929 . S
H663 C673 0.929 . S
H664 C668 0.929 . S
H665 C674 0.929 . S
C666 H660 0.930 . S
C666 C667 1.367 . S
C666 C674 1.378 . S
C667 C666 1.367 . S
C667 C675 1.433 . S
C668 H664 0.929 . S
C668 C670 1.378 . S
C668 C672 1.350 . S
C669 C672 1.463 . S
C669 C674 1.350 . S
C669 N677 1.427 . S
C670 H661 0.930 . S
C670 C668 1.378 . S
C670 C671 1.367 . S
C671 C670 1.367 . S
C671 C673 1.433 . S
C672 C668 1.350 . S
C672 C669 1.463 . S
C672 N676 1.427 . S
C673 H663 0.929 . S
C673 C671 1.433 . S
C673 N676 1.384 . S
C674 H665 0.929 . S
C674 C666 1.378 . S
C674 C669 1.350 . S
C675 H662 0.929 . S
C675 C667 1.433 . S
C675 N677 1.384 . S
N676 C672 1.427 . S
N676 C673 1.384 . S
N677 C669 1.427 . S
N677 C675 1.384 . S
H678 C684 0.930 . S
H679 C688 0.930 . S
H680 C693 0.929 . S
H681 C691 0.929 . S
H682 C686 0.929 . S
H683 C692 0.929 . S
C684 H678 0.930 . S
C684 C685 1.367 . S
C684 C692 1.378 . S
C685 C684 1.367 . S
C685 C693 1.433 . S
C686 H682 0.929 . S
C686 C688 1.378 . S
C686 C690 1.350 . S
C687 C690 1.463 . S
C687 C692 1.350 . S
C687 N695 1.427 . S
C688 H679 0.930 . S
C688 C686 1.378 . S
C688 C689 1.367 . S
C689 C688 1.367 . S
C689 C691 1.433 . S
C690 C686 1.350 . S
C690 C687 1.463 . S
C690 N694 1.427 . S
C691 H681 0.929 . S
C691 C689 1.433 . S
C691 N694 1.384 . S
C692 H683 0.929 . S
C692 C684 1.378 . S
C692 C687 1.350 . S
C693 H680 0.929 . S
C693 C685 1.433 . S
C693 N695 1.384 . S
N694 C690 1.427 . S
N694 C691 1.384 . S
N695 C687 1.427 . S
N695 C693 1.384 . S
C271 C7 1.747 . S
C275 C147 1.604 . S
C289 C30 1.537 . S
C293 C168 1.409 . S
C311 C189 1.484 . S
C307 N58 1.595 . S
C329 C218 1.380 . S
C325 N81 1.397 . S
C347 C231 1.512 . S
C343 C99 1.632 . S
C365 C255 1.403 . S
C361 N127 1.415 . S
C379 N25 1.587 . S
C383 C199 1.499 . S
C397 C62 1.538 . S
C401 C213 1.467 . S
C419 C241 1.562 . S
C415 C85 1.689 . S
C437 C260 1.418 . S
C433 N94 1.443 . S
C451 C131 1.666 . S
C455 C157 1.573 . S
C473 C178 1.340 . S
C469 N2 1.392 . S
C491 C220 1.645 . S
C487 C16 1.729 . S
C505 C39 1.539 . S
C509 C234 1.379 . S
C527 C252 1.583 . S
C523 N48 1.628 . S
C541 N71 1.413 . S
C545 C150 1.291 . S
C559 C108 1.670 . S
C563 C171 1.501 . S
C577 N117 1.448 . S
C581 C192 1.292 . S
C595 N35 1.611 . S
C599 C262 1.583 . S
C617 C155 1.414 . S
C613 C53 1.577 . S
C631 C76 1.764 . S
C635 C176 1.587 . S
C649 N104 1.452 . S
C653 C197 1.317 . S
C667 C122 1.660 . S
C671 C210 1.590 . S
C685 N12 1.400 . S
C689 C239 1.308 . S
