# Generated by pormake.
# Topology pyr, (3,6)-cn, num edge types: 1
# Building blocks:
#     Node 0, Type 0, BuildingBlock: MIDCAF_clean_linker_0, # of connection points: 3
#     Node 1, Type 0, BuildingBlock: MIDCAF_clean_linker_0, # of connection points: 3
#     Node 2, Type 0, BuildingBlock: MIDCAF_clean_linker_0, # of connection points: 3
#     Node 3, Type 0, BuildingBlock: MIDCAF_clean_linker_0, # of connection points: 3
#     Node 4, Type 0, BuildingBlock: MIDCAF_clean_linker_0, # of connection points: 3
#     Node 5, Type 0, BuildingBlock: MIDCAF_clean_linker_0, # of connection points: 3
#     Node 6, Type 0, BuildingBlock: MIDCAF_clean_linker_0, # of connection points: 3
#     Node 7, Type 0, BuildingBlock: MIDCAF_clean_linker_0, # of connection points: 3
#     Node 8, Type 1, BuildingBlock: BETFAJ_clean_sbu_0, # of connection points: 6
#     Node 9, Type 1, BuildingBlock: BETFAJ_clean_sbu_0, # of connection points: 6
#     Node 10, Type 1, BuildingBlock: BETFAJ_clean_sbu_0, # of connection points: 6
#     Node 11, Type 1, BuildingBlock: BETFAJ_clean_sbu_0, # of connection points: 6
#     Edge 12, Type (0, 1), BuildingBlock: CIFDUS_clean_linker_0, # of connection points: 2
#     Edge 13, Type (0, 1), BuildingBlock: CIFDUS_clean_linker_0, # of connection points: 2
#     Edge 14, Type (0, 1), BuildingBlock: CIFDUS_clean_linker_0, # of connection points: 2
#     Edge 15, Type (0, 1), BuildingBlock: CIFDUS_clean_linker_0, # of connection points: 2
#     Edge 16, Type (0, 1), BuildingBlock: CIFDUS_clean_linker_0, # of connection points: 2
#     Edge 17, Type (0, 1), BuildingBlock: CIFDUS_clean_linker_0, # of connection points: 2
#     Edge 18, Type (0, 1), BuildingBlock: CIFDUS_clean_linker_0, # of connection points: 2
#     Edge 19, Type (0, 1), BuildingBlock: CIFDUS_clean_linker_0, # of connection points: 2
#     Edge 20, Type (0, 1), BuildingBlock: CIFDUS_clean_linker_0, # of connection points: 2
#     Edge 21, Type (0, 1), BuildingBlock: CIFDUS_clean_linker_0, # of connection points: 2
#     Edge 22, Type (0, 1), BuildingBlock: CIFDUS_clean_linker_0, # of connection points: 2
#     Edge 23, Type (0, 1), BuildingBlock: CIFDUS_clean_linker_0, # of connection points: 2
#     Edge 24, Type (0, 1), BuildingBlock: CIFDUS_clean_linker_0, # of connection points: 2
#     Edge 25, Type (0, 1), BuildingBlock: CIFDUS_clean_linker_0, # of connection points: 2
#     Edge 26, Type (0, 1), BuildingBlock: CIFDUS_clean_linker_0, # of connection points: 2
#     Edge 27, Type (0, 1), BuildingBlock: CIFDUS_clean_linker_0, # of connection points: 2
#     Edge 28, Type (0, 1), BuildingBlock: CIFDUS_clean_linker_0, # of connection points: 2
#     Edge 29, Type (0, 1), BuildingBlock: CIFDUS_clean_linker_0, # of connection points: 2
#     Edge 30, Type (0, 1), BuildingBlock: CIFDUS_clean_linker_0, # of connection points: 2
#     Edge 31, Type (0, 1), BuildingBlock: CIFDUS_clean_linker_0, # of connection points: 2
#     Edge 32, Type (0, 1), BuildingBlock: CIFDUS_clean_linker_0, # of connection points: 2
#     Edge 33, Type (0, 1), BuildingBlock: CIFDUS_clean_linker_0, # of connection points: 2
#     Edge 34, Type (0, 1), BuildingBlock: CIFDUS_clean_linker_0, # of connection points: 2
#     Edge 35, Type (0, 1), BuildingBlock: CIFDUS_clean_linker_0, # of connection points: 2
# Relax obj value: 0.111
# Max RMSD: 0.125
# Mean RMSD: 0.060
data_MOF--net-pyr--node1-BETFAJ_clean_sbu_0--node2-MIDCAF_clean_linker_0--edge1-CIFDUS_clean_linker_0
_symmetry_space_group_name_H-M    P1
_symmetry_Int_Tables_number       1
_symmetry_cell_setting            triclinic
loop_
_symmetry_equiv_pos_as_xyz
'x, y, z'
_cell_length_a     41.490305
_cell_length_b     44.563671
_cell_length_c     40.696981
_cell_angle_alpha  91.433724
_cell_angle_beta   88.66159
_cell_angle_gamma 100.28751
loop_
_atom_site_label
_atom_site_type_symbol
_atom_site_fract_x
_atom_site_fract_y
_atom_site_fract_z
_atom_type_partial_charge
C0 C 0.29526 0.26432 0.3448 0.0
C1 C 0.30263 0.23622 0.35411 0.0
C2 C 0.33246 0.22818 0.34345 0.0
C3 C 0.35223 0.24574 0.32029 0.0
H4 H 0.41577 0.23195 0.24864 0.0
H5 H 0.43809 0.19255 0.21796 0.0
H6 H 0.41247 0.22875 0.12693 0.0
H7 H 0.38996 0.26885 0.15752 0.0
H8 H 0.347 0.32805 0.16358 0.0
H9 H 0.31112 0.35976 0.13995 0.0
H10 H 0.27437 0.37818 0.23705 0.0
H11 H 0.30981 0.34717 0.26061 0.0
H12 H 0.30715 0.30216 0.31298 0.0
H13 H 0.27253 0.27125 0.35274 0.0
H14 H 0.33914 0.207 0.35097 0.0
H15 H 0.37358 0.23748 0.31044 0.0
N16 N 0.37546 0.26799 0.2572 0.0
N17 N 0.36865 0.29621 0.21062 0.0
N18 N 0.34308 0.30562 0.26098 0.0
C19 C 0.38228 0.27413 0.225 0.0
C20 C 0.34929 0.31243 0.22889 0.0
C21 C 0.35591 0.28353 0.27538 0.0
C22 C 0.40063 0.25359 0.20561 0.0
C23 C 0.41531 0.23212 0.22205 0.0
C24 C 0.4283 0.20951 0.20456 0.0
C25 C 0.42694 0.20773 0.17024 0.0
C26 C 0.41376 0.22982 0.1535 0.0
C27 C 0.40094 0.25274 0.17102 0.0
C28 C 0.33116 0.33458 0.21398 0.0
C29 C 0.33162 0.33921 0.1799 0.0
C30 C 0.31108 0.3574 0.16638 0.0
C31 C 0.28953 0.37108 0.18664 0.0
C32 C 0.29018 0.3675 0.22072 0.0
C33 C 0.31075 0.3497 0.2342 0.0
C34 C 0.34244 0.27161 0.30744 0.0
C35 C 0.31512 0.28199 0.32177 0.0
C36 C 0.18967 0.91515 0.6179 0.0
C37 C 0.19092 0.91589 0.58365 0.0
C38 C 0.20092 0.8924 0.56492 0.0
C39 C 0.2127 0.86944 0.58077 0.0
H40 H 0.25402 0.79343 0.56962 0.0
H41 H 0.28125 0.75938 0.53523 0.0
H42 H 0.36183 0.77198 0.60242 0.0
H43 H 0.3351 0.80557 0.63687 0.0
H44 H 0.3428 0.85863 0.68863 0.0
H45 H 0.37334 0.89058 0.73071 0.0
H46 H 0.29701 0.94501 0.73905 0.0
H47 H 0.26594 0.91286 0.69771 0.0
H48 H 0.20112 0.89274 0.66033 0.0
H49 H 0.1803 0.93261 0.63236 0.0
H50 H 0.20034 0.89231 0.53831 0.0
H51 H 0.22295 0.85274 0.56602 0.0
N52 N 0.2496 0.83229 0.61538 0.0
N53 N 0.29417 0.8398 0.65082 0.0
N54 N 0.25401 0.87004 0.65651 0.0
C55 C 0.27761 0.8242 0.62552 0.0
C56 C 0.28225 0.86276 0.66644 0.0
C57 C 0.2376 0.85507 0.63109 0.0
C58 C 0.2925 0.80217 0.60594 0.0
C59 C 0.27754 0.78888 0.57708 0.0
C60 C 0.29306 0.76971 0.55724 0.0
C61 C 0.32377 0.76404 0.56589 0.0
C62 C 0.33851 0.77697 0.59484 0.0
C63 C 0.32299 0.79584 0.61476 0.0
C64 C 0.3016 0.88263 0.69063 0.0
C65 C 0.33259 0.87746 0.69932 0.0
C66 C 0.35033 0.89607 0.7229 0.0
C67 C 0.33727 0.92003 0.73794 0.0
C68 C 0.30729 0.92643 0.7278 0.0
C69 C 0.28949 0.9078 0.70439 0.0
C70 C 0.21408 0.87011 0.61527 0.0
C71 C 0.20066 0.89203 0.6337 0.0
C72 C 0.63947 0.25492 0.91246 0.0
C73 C 0.60992 0.23833 0.90013 0.0
C74 C 0.59677 0.25087 0.87278 0.0
C75 C 0.61208 0.27891 0.85893 0.0
H76 H 0.60789 0.34876 0.78085 0.0
H77 H 0.58652 0.37599 0.73669 0.0
H78 H 0.66317 0.45341 0.75381 0.0
H79 H 0.6842 0.42653 0.79759 0.0
H80 H 0.74074 0.42674 0.85804 0.0
H81 H 0.79191 0.44756 0.88634 0.0
H82 H 0.7893 0.36094 0.93221 0.0
H83 H 0.73902 0.34032 0.90411 0.0
H84 H 0.67712 0.2946 0.90967 0.0
H85 H 0.65056 0.24678 0.93353 0.0
H86 H 0.57445 0.23895 0.8618 0.0
H87 H 0.60083 0.28744 0.83819 0.0
N88 N 0.64574 0.34072 0.83285 0.0
N89 N 0.6904 0.38193 0.83669 0.0
N90 N 0.68674 0.34035 0.87176 0.0
C91 C 0.66166 0.36868 0.82179 0.0
C92 C 0.70326 0.36787 0.86166 0.0
C93 C 0.65815 0.32636 0.85807 0.0
C94 C 0.64801 0.38508 0.7937 0.0
C95 C 0.6203 0.37162 0.77531 0.0
C96 C 0.60802 0.38735 0.74952 0.0
C97 C 0.62255 0.4175 0.74107 0.0
C98 C 0.65043 0.43067 0.75931 0.0
C99 C 0.66282 0.41493 0.78473 0.0
C100 C 0.73519 0.38161 0.87835 0.0
C101 C 0.75111 0.41207 0.87406 0.0
C102 C 0.78054 0.42414 0.89061 0.0
C103 C 0.79544 0.40611 0.91179 0.0
C104 C 0.77941 0.37571 0.91593 0.0
C105 C 0.75005 0.36382 0.89975 0.0
C106 C 0.6413 0.29572 0.87173 0.0
C107 C 0.65471 0.28286 0.89867 0.0
C108 C 0.76476 0.65245 0.43379 0.0
C109 C 0.74656 0.62568 0.42004 0.0
C110 C 0.75946 0.61267 0.39193 0.0
C111 C 0.78974 0.62631 0.3777 0.0
H112 H 0.86445 0.61274 0.31117 0.0
H113 H 0.88709 0.58653 0.26563 0.0
H114 H 0.95506 0.66865 0.2429 0.0
H115 H 0.93221 0.6954 0.28936 0.0
H116 H 0.9361 0.75668 0.35353 0.0
H117 H 0.95817 0.80578 0.38087 0.0
H118 H 0.88378 0.78692 0.45707 0.0
H119 H 0.86247 0.73862 0.43068 0.0
H120 H 0.80775 0.68702 0.43085 0.0
H121 H 0.75532 0.66318 0.45524 0.0
H122 H 0.74583 0.59216 0.38062 0.0
H123 H 0.79865 0.61577 0.35588 0.0
N124 N 0.8533 0.65713 0.34859 0.0
N125 N 0.89622 0.69989 0.34682 0.0
N126 N 0.85437 0.69693 0.38736 0.0
C127 C 0.88169 0.67189 0.33401 0.0
C128 C 0.88256 0.71256 0.3738 0.0
C129 C 0.83938 0.66943 0.37522 0.0
C130 C 0.89634 0.65651 0.30473 0.0
C131 C 0.88416 0.62561 0.29667 0.0
C132 C 0.89734 0.61032 0.27026 0.0
C133 C 0.92324 0.6251 0.25014 0.0
C134 C 0.93507 0.65629 0.25745 0.0
C135 C 0.92205 0.67165 0.28442 0.0
C136 C 0.89738 0.74305 0.38959 0.0
C137 C 0.92455 0.76296 0.37617 0.0
C138 C 0.93711 0.79136 0.39186 0.0
C139 C 0.92314 0.8007 0.42164 0.0
C140 C 0.89594 0.78076 0.43472 0.0
C141 C 0.88342 0.75275 0.41916 0.0
C142 C 0.80781 0.65357 0.39103 0.0
C143 C 0.79486 0.66617 0.41957 0.0
C144 C 0.623 0.85781 0.86496 0.0
C145 C 0.60971 0.84999 0.89628 0.0
C146 C 0.61185 0.82098 0.90824 0.0
C147 C 0.62773 0.80075 0.88969 0.0
H148 H 0.69378 0.73288 0.8997 0.0
H149 H 0.72794 0.69886 0.92155 0.0
H150 H 0.75671 0.67625 0.82248 0.0
H151 H 0.72153 0.7081 0.801 0.0
H152 H 0.73209 0.75562 0.75138 0.0
H153 H 0.76563 0.78024 0.70727 0.0
H154 H 0.70754 0.85176 0.70784 0.0
H155 H 0.6748 0.82781 0.75376 0.0
H156 H 0.64903 0.84501 0.82271 0.0
H157 H 0.62249 0.88007 0.85511 0.0
H158 H 0.60148 0.81397 0.93209 0.0
H159 H 0.62932 0.7788 0.89977 0.0
N160 N 0.67085 0.76469 0.85277 0.0
N161 N 0.69726 0.75557 0.80292 0.0
N162 N 0.66866 0.79598 0.80735 0.0
C163 C 0.6894 0.74781 0.83443 0.0
C164 C 0.68719 0.77943 0.78911 0.0
C165 C 0.66003 0.78873 0.83902 0.0
C166 C 0.70514 0.72368 0.84861 0.0
C167 C 0.70676 0.71999 0.88268 0.0
C168 C 0.72672 0.70075 0.89516 0.0
C169 C 0.74566 0.68501 0.87386 0.0
C170 C 0.74242 0.68752 0.83983 0.0
C171 C 0.7223 0.70626 0.82745 0.0
C172 C 0.70133 0.79023 0.75688 0.0
C173 C 0.72592 0.7763 0.74183 0.0
C174 C 0.74511 0.79036 0.7161 0.0
C175 C 0.73986 0.81844 0.70437 0.0
C176 C 0.71292 0.83062 0.71699 0.0
C177 C 0.69397 0.81677 0.74317 0.0
C178 C 0.6416 0.80897 0.85864 0.0
C179 C 0.63855 0.83761 0.8464 0.0
C180 C 0.73211 0.13242 0.33992 0.0
C181 C 0.70418 0.14092 0.32695 0.0
C182 C 0.69483 0.16846 0.33717 0.0
C183 C 0.71387 0.18788 0.3591 0.0
H184 H 0.71644 0.26688 0.41168 0.0
H185 H 0.67744 0.28919 0.44538 0.0
H186 H 0.73489 0.28395 0.53142 0.0
H187 H 0.77415 0.26108 0.49796 0.0
H188 H 0.82019 0.21932 0.50033 0.0
H189 H 0.84217 0.18558 0.53728 0.0
H190 H 0.84406 0.12029 0.45749 0.0
H191 H 0.82436 0.15385 0.42022 0.0
H192 H 0.7729 0.14487 0.37125 0.0
H193 H 0.73962 0.11117 0.33233 0.0
H194 H 0.67367 0.17575 0.327 0.0
H195 H 0.70621 0.20914 0.36623 0.0
N196 N 0.75118 0.22503 0.40769 0.0
N197 N 0.79003 0.23005 0.44906 0.0
N198 N 0.78672 0.19028 0.41018 0.0
C199 C 0.76537 0.24035 0.43433 0.0
C200 C 0.80095 0.20513 0.43692 0.0
C201 C 0.76188 0.20002 0.39543 0.0
C202 C 0.74795 0.26165 0.45227 0.0
C203 C 0.72114 0.27085 0.43765 0.0
C204 C 0.69861 0.28315 0.45694 0.0
C205 C 0.7028 0.28683 0.49097 0.0
C206 C 0.73104 0.28041 0.50526 0.0
C207 C 0.75358 0.26779 0.48598 0.0
C208 C 0.82033 0.18907 0.45744 0.0
C209 C 0.82582 0.19797 0.4906 0.0
C210 C 0.83742 0.17858 0.5119 0.0
C211 C 0.84277 0.15019 0.50013 0.0
C212 C 0.83842 0.14176 0.467 0.0
C213 C 0.82786 0.16125 0.44566 0.0
C214 C 0.74258 0.18006 0.37117 0.0
C215 C 0.75126 0.15189 0.36185 0.0
C216 C 0.25738 0.63006 0.18633 0.0
C217 C 0.24662 0.63963 0.15612 0.0
C218 C 0.26612 0.66551 0.14197 0.0
C219 C 0.29499 0.68082 0.15706 0.0
H220 H 0.3495 0.76494 0.16216 0.0
H221 H 0.36979 0.81353 0.13711 0.0
H222 H 0.46082 0.81999 0.18804 0.0
H223 H 0.44029 0.77037 0.21335 0.0
H224 H 0.42431 0.71914 0.28938 0.0
H225 H 0.44548 0.69663 0.33714 0.0
H226 H 0.38981 0.60877 0.31048 0.0
H227 H 0.36775 0.63132 0.26342 0.0
H228 H 0.29348 0.63683 0.22428 0.0
H229 H 0.24316 0.61089 0.19895 0.0
H230 H 0.25955 0.67379 0.11872 0.0
H231 H 0.309 0.70044 0.14492 0.0
N232 N 0.35141 0.71542 0.19142 0.0
N233 N 0.39294 0.71966 0.23066 0.0
N234 N 0.35116 0.67588 0.22852 0.0
C235 C 0.37913 0.73186 0.20473 0.0
C236 C 0.37913 0.69146 0.24285 0.0
C237 C 0.33704 0.68765 0.20279 0.0
C238 C 0.39293 0.76303 0.19031 0.0
C239 C 0.37391 0.77644 0.16838 0.0
C240 C 0.3856 0.80487 0.15393 0.0
C241 C 0.4171 0.82158 0.16036 0.0
C242 C 0.43648 0.80817 0.18206 0.0
C243 C 0.42456 0.77959 0.19691 0.0
C244 C 0.3939 0.67744 0.27189 0.0
C245 C 0.41647 0.695 0.29347 0.0
C246 C 0.42868 0.68197 0.32116 0.0
C247 C 0.41968 0.65057 0.32819 0.0
C248 C 0.39777 0.63286 0.30619 0.0
C249 C 0.38491 0.64602 0.279 0.0
C250 C 0.30595 0.67086 0.18689 0.0
C251 C 0.28647 0.64518 0.20123 0.0
C252 C 0.14713 0.26705 0.64134 0.0
C253 C 0.11463 0.25246 0.64739 0.0
C254 C 0.09453 0.26834 0.66715 0.0
C255 C 0.10688 0.29756 0.68103 0.0
H256 H 0.09885 0.35986 0.76757 0.0
H257 H 0.07583 0.38202 0.81628 0.0
H258 H 0.15292 0.46089 0.8107 0.0
H259 H 0.17523 0.43909 0.76166 0.0
H260 H 0.24152 0.43458 0.71387 0.0
H261 H 0.29375 0.45939 0.68981 0.0
H262 H 0.2755 0.4026 0.60254 0.0
H263 H 0.22324 0.3775 0.6267 0.0
H264 H 0.18443 0.30639 0.64898 0.0
H265 H 0.16339 0.25565 0.62633 0.0
H266 H 0.06944 0.25781 0.67258 0.0
H267 H 0.09077 0.30876 0.69643 0.0
N268 N 0.1399 0.35576 0.71636 0.0
N269 N 0.1823 0.39883 0.71526 0.0
N270 N 0.18176 0.35941 0.67574 0.0
C271 C 0.15402 0.3836 0.72965 0.0
C272 C 0.19632 0.38707 0.68819 0.0
C273 C 0.15371 0.34338 0.68938 0.0
C274 C 0.13922 0.39734 0.76003 0.0
C275 C 0.11095 0.38199 0.77657 0.0
C276 C 0.09776 0.3948 0.80504 0.0
C277 C 0.11216 0.42364 0.81842 0.0
C278 C 0.14035 0.43899 0.80162 0.0
C279 C 0.1535 0.4262 0.77321 0.0
C280 C 0.2278 0.40371 0.67257 0.0
C281 C 0.24836 0.42742 0.68945 0.0
C282 C 0.27856 0.44166 0.67559 0.0
C283 C 0.28927 0.43312 0.64407 0.0
C284 C 0.26824 0.41011 0.62667 0.0
C285 C 0.23822 0.3955 0.64077 0.0
C286 C 0.13955 0.31213 0.67498 0.0
C287 C 0.15921 0.29635 0.65449 0.0
Sm288 Sm 0.02864 0.04348 0.49325 0.0
Sm289 Sm 1.0058 1.01761 0.55993 0.0
C290 C 0.0497 0.07471 0.44064 0.0
C291 C 0.08084 0.09598 0.43512 0.0
C292 C 0.08079 0.12729 0.43238 0.0
C293 C 0.11026 0.14788 0.42923 0.0
C294 C 0.14029 0.13746 0.42856 0.0
C295 C 0.14036 0.10618 0.43189 0.0
C296 C 0.11098 0.08564 0.43513 0.0
C297 C 0.07344 1.0181 0.52531 0.0
C298 C 0.03982 0.08954 0.55921 0.0
C299 C 0.98776 0.98604 0.61305 0.0
C300 C 0.95545 0.96802 0.62147 0.0
C301 C 0.95299 0.94031 0.63764 0.0
C302 C 0.92219 0.92318 0.64528 0.0
C303 C 0.89352 0.93379 0.63713 0.0
C304 C 0.89598 0.96126 0.62046 0.0
C305 C 0.92667 0.97809 0.61239 0.0
C306 C 0.96032 0.0427 0.52922 0.0
C307 C 0.9918 0.97271 0.49234 0.0
O308 O 0.02926 0.08381 0.46198 0.0
O309 O 0.05181 0.04599 0.44361 0.0
O310 O 0.05531 0.03449 0.53868 0.0
O311 O 0.0691 1.01507 0.4941 0.0
O312 O 0.03424 0.08711 0.52725 0.0
O313 O 0.0363 0.06462 0.57718 0.0
O314 O 1.00383 0.97536 0.58865 0.0
O315 O 0.98882 1.01549 0.61185 0.0
O316 O 0.97881 1.0272 0.51474 0.0
O317 O 0.9637 0.04374 0.56066 0.0
O318 O 0.9959 0.97419 0.52469 0.0
O319 O 0.99759 0.99799 0.475 0.0
H320 H 0.05793 0.13585 0.43277 0.0
H321 H 0.10949 0.17184 0.42643 0.0
H322 H 0.16319 0.09756 0.43189 0.0
H323 H 0.11202 0.06171 0.43783 0.0
H324 H 0.97486 0.93203 0.64451 0.0
H325 H 0.92072 0.90209 0.65836 0.0
H326 H 0.87415 0.96971 0.61379 0.0
H327 H 0.92784 0.99911 0.59928 0.0
Sm328 Sm 0.54807 0.02947 0.04539 0.0
Sm329 Sm 0.49377 0.02956 1.02117 0.0
C330 C 0.60096 0.04223 0.08016 0.0
C331 C 0.60165 0.05741 0.11248 0.0
C332 C 0.61201 0.0891 0.11507 0.0
C333 C 0.61019 0.10407 0.14519 0.0
C334 C 0.59852 0.0874 0.17308 0.0
C335 C 0.58585 0.05626 0.17018 0.0
C336 C 0.58758 0.04125 0.14009 0.0
C337 C 0.50734 0.97566 0.06542 0.0
C338 C 0.50059 0.07133 0.08251 0.0
C339 C 0.43926 1.01469 0.98929 0.0
C340 C 0.43759 1.00162 0.95599 0.0
C341 C 0.42875 0.96993 0.95161 0.0
C342 C 0.43063 0.9567 0.92062 0.0
C343 C 0.44041 0.97513 0.8935 0.0
C344 C 0.45122 1.00648 0.89795 0.0
C345 C 0.44977 1.01973 0.92905 0.0
C346 C 0.53614 0.08139 0.99773 0.0
C347 C 0.54304 0.99122 0.98098 0.0
O348 O 0.59587 0.05893 0.05564 0.0
O349 O 0.58367 1.01485 0.07852 0.0
O350 O 0.4995 1.00219 0.06725 0.0
O351 O 0.53519 0.97751 0.05006 0.0
O352 O 0.53112 0.06936 0.07525 0.0
O353 O 0.4777 0.05245 0.06762 0.0
O354 O 0.44797 0.99716 1.01135 0.0
O355 O 0.45414 0.04294 0.99229 0.0
O356 O 0.54294 0.05466 0.99851 0.0
O357 O 0.50733 0.08132 1.01065 0.0
O358 O 0.51223 0.99343 0.98652 0.0
O359 O 0.56545 1.00752 0.99909 0.0
H360 H 0.62207 0.10221 0.09398 0.0
H361 H 0.62067 0.1281 0.14738 0.0
H362 H 0.57751 0.04304 0.19174 0.0
H363 H 0.57852 1.0169 0.13873 0.0
H364 H 0.42016 0.95539 0.97213 0.0
H365 H 0.42173 0.93245 0.91729 0.0
H366 H 0.45817 1.02102 0.87705 0.0
H367 H 0.4577 0.04415 0.9318 0.0
Sm368 Sm 0.51682 0.4985 0.50987 0.0
Sm369 Sm 0.51963 0.55355 0.5508 0.0
C370 C 0.53057 0.45529 0.47048 0.0
C371 C 0.5507 0.43332 0.48112 0.0
C372 C 0.58454 0.43875 0.47404 0.0
C373 C 0.60525 0.42298 0.49039 0.0
C374 C 0.59249 0.40125 0.51389 0.0
C375 C 0.55866 0.39524 0.52043 0.0
C376 C 0.53795 0.41107 0.50419 0.0
C377 C 0.46183 0.49582 0.5504 0.0
C378 C 0.5464 0.49475 0.5839 0.0
C379 C 0.50345 0.59609 0.59043 0.0
C380 C 0.48156 0.61701 0.58323 0.0
C381 C 0.45819 0.60861 0.55881 0.0
C382 C 0.44238 0.63031 0.54562 0.0
C383 C 0.44937 0.66068 0.55698 0.0
C384 C 0.47236 0.66898 0.58195 0.0
C385 C 0.48856 0.64723 0.59487 0.0
C386 C 0.58125 0.55949 0.52089 0.0
C387 C 0.49191 0.55706 0.47465 0.0
O388 O 0.54633 0.48336 0.46867 0.0
O389 O 0.50163 0.45352 0.4846 0.0
O390 O 0.47509 0.51885 0.53388 0.0
O391 O 0.47799 0.47367 0.54583 0.0
O392 O 0.54526 0.48341 0.55351 0.0
O393 O 0.53549 0.52065 0.59003 0.0
O394 O 0.48997 0.56729 0.59292 0.0
O395 O 0.52982 0.60029 0.57186 0.0
O396 O 0.55789 0.5374 0.51692 0.0
O397 O 0.57238 0.57952 0.5409 0.0
O398 O 0.49748 0.57169 0.50344 0.0
O399 O 0.49748 0.5287 0.47119 0.0
H400 H 0.5952 0.45603 0.45675 0.0
H401 H 0.63118 0.42741 0.48419 0.0
H402 H 0.54826 0.37836 0.53822 0.0
H403 H 0.51211 0.40659 0.51067 0.0
H404 H 0.45313 0.58549 0.5489 0.0
H405 H 0.42497 0.62338 0.52624 0.0
H406 H 0.47768 0.69217 0.59159 0.0
H407 H 0.50724 0.65414 0.61307 0.0
Sm408 Sm 0.02617 0.50133 0.0479 0.0
Sm409 Sm 0.01372 0.56174 1.01193 0.0
C410 C 0.05637 0.45566 0.06138 0.0
C411 C 0.08344 0.44969 0.08218 0.0
C412 C 0.11269 0.44444 0.0669 0.0
C413 C 0.13816 0.43724 0.08535 0.0
C414 C 0.13516 0.435 0.11974 0.0
C415 C 0.10619 0.44117 0.13522 0.0
C416 C 0.08059 0.44839 0.11666 0.0
C417 C 0.99813 0.53902 0.09306 0.0
C418 C 0.08036 0.56758 0.05651 0.0
C419 C 0.98439 0.60779 0.99779 0.0
C420 C 0.95338 0.61159 0.98222 0.0
C421 C 0.92418 0.60859 1.00114 0.0
C422 C 0.89572 0.61553 0.988 0.0
C423 C 0.89565 0.62553 0.95562 0.0
C424 C 0.92408 0.6268 0.9359 0.0
C425 C 0.95282 0.62005 0.94916 0.0
C426 C 0.04271 0.52549 0.96632 0.0
C427 C 0.95801 0.49705 1.00534 0.0
O428 O 0.06503 0.47422 0.03702 0.0
O429 O 0.02842 0.45909 0.07549 0.0
O430 O 1.00564 0.54328 0.06284 0.0
O431 O 1.00457 0.51236 0.09995 0.0
O432 O 0.07258 0.53766 0.06119 0.0
O433 O 0.06161 0.58235 0.03907 0.0
O434 O 0.9814 0.5943 1.02609 0.0
O435 O 1.00775 0.59986 0.97913 0.0
O436 O 0.03504 0.51959 0.99637 0.0
O437 O 0.03599 0.55226 0.96078 0.0
O438 O 0.9659 0.5271 1.00279 0.0
O439 O 0.97777 0.48097 1.01976 0.0
H440 H 0.11564 0.44525 0.0404 0.0
H441 H 0.15971 0.43224 0.07236 0.0
H442 H 0.10312 0.44014 0.16168 0.0
H443 H 0.05851 0.45257 0.12929 0.0
H444 H 0.9235 0.60196 1.02661 0.0
H445 H 0.874 0.61427 1.00359 0.0
H446 H 0.92459 0.63463 0.91088 0.0
H447 H 0.97485 0.6225 0.93392 0.0
H448 H 0.26036 0.24411 0.40493 0.0
H449 H 0.28577 0.17687 0.33545 0.0
H450 H 0.23883 0.14005 0.35385 0.0
H451 H 0.18846 0.12808 0.38621 0.0
H452 H 0.16115 0.19463 0.45521 0.0
H453 H 0.21074 0.23078 0.44017 0.0
C454 C 0.25578 0.22126 0.39421 0.0
C455 C 0.27678 0.21315 0.36919 0.0
C456 C 0.22826 0.20022 0.40448 0.0
C457 C 0.27053 0.18349 0.35536 0.0
C458 C 0.24345 0.16249 0.36556 0.0
C459 C 0.19366 0.15026 0.39848 0.0
C460 C 0.17128 0.1587 0.42176 0.0
C461 C 0.22194 0.17075 0.3897 0.0
C462 C 0.17796 0.18777 0.43694 0.0
C463 C 0.20631 0.20836 0.42844 0.0
H464 H 0.40139 0.94288 0.74756 0.0
H465 H 0.30586 0.92802 0.79521 0.0
H466 H 0.33057 0.94256 0.84801 0.0
H467 H 0.37865 0.95637 0.88064 0.0
H468 H 0.47491 0.97255 0.83533 0.0
H469 H 0.45062 0.95956 0.78096 0.0
C470 C 0.38617 0.94324 0.76956 0.0
C471 C 0.35207 0.93451 0.7678 0.0
C472 C 0.40057 0.95088 0.79994 0.0
C473 C 0.33219 0.9352 0.79609 0.0
C474 C 0.34626 0.94301 0.82628 0.0
C475 C 0.39432 0.95642 0.85886 0.0
C476 C 0.42827 0.96421 0.86145 0.0
C477 C 0.38031 0.95011 0.82845 0.0
C478 C 0.44862 0.96569 0.83338 0.0
C479 C 0.43476 0.95865 0.80259 0.0
H480 H 0.59258 0.39808 0.68058 0.0
H481 H 0.62039 0.4792 0.74078 0.0
H482 H 0.5998 0.50953 0.69971 0.0
H483 H 0.57338 0.51424 0.64568 0.0
H484 H 0.54782 0.43352 0.58449 0.0
H485 H 0.56715 0.40288 0.62621 0.0
C486 C 0.59408 0.42235 0.68502 0.0
C487 C 0.60863 0.43576 0.71457 0.0
C488 C 0.58221 0.44028 0.66062 0.0
C489 C 0.61013 0.46762 0.7187 0.0
C490 C 0.59801 0.48526 0.69501 0.0
C491 C 0.57193 0.48994 0.64137 0.0
C492 C 0.5588 0.47668 0.61123 0.0
C493 C 0.58396 0.47203 0.66569 0.0
C494 C 0.55773 0.44494 0.60682 0.0
C495 C 0.56885 0.42714 0.63097 0.0
H496 H 0.94215 0.63969 0.18455 0.0
H497 H 0.93949 0.56878 0.25534 0.0
H498 H 0.96135 0.5369 0.2141 0.0
H499 H 0.98077 0.52781 0.15759 0.0
H500 H 0.98533 0.59803 0.08615 0.0
H501 H 0.96311 0.63062 0.12705 0.0
C502 C 0.94651 0.61734 0.19105 0.0
C503 C 0.93858 0.6069 0.22355 0.0
C504 C 0.95921 0.59852 0.16665 0.0
C505 C 0.94456 0.57762 0.23084 0.0
C506 C 0.95728 0.55921 0.20711 0.0
C507 C 0.97689 0.55022 0.15072 0.0
C508 C 0.98439 0.55984 0.118 0.0
C509 C 0.9645 0.56918 0.17483 0.0
C510 C 0.97928 0.5893 0.1104 0.0
C511 C 0.96674 0.60822 0.13416 0.0
H512 H 0.48813 0.19571 0.15688 0.0
H513 H 0.38558 0.15927 0.14552 0.0
H514 H 0.39905 0.11281 0.11944 0.0
H515 H 0.43996 0.08296 0.09906 0.0
H516 H 0.54288 0.11962 0.10902 0.0
H517 H 0.52945 0.16547 0.13624 0.0
C518 C 0.46889 0.17761 0.14838 0.0
C519 C 0.43595 0.18088 0.15258 0.0
C520 C 0.4769 0.151 0.13328 0.0
C521 C 0.41108 0.15731 0.14192 0.0
C522 C 0.41879 0.13073 0.12723 0.0
C523 C 0.45949 0.10081 0.10748 0.0
C524 C 0.49239 0.09763 0.10218 0.0
C525 C 0.4516 0.12732 0.12273 0.0
C526 C 0.51734 0.12121 0.11306 0.0
C527 C 0.50968 0.14758 0.12848 0.0
H528 H 0.13107 0.90662 0.56292 0.0
H529 H 0.21736 0.97535 0.5749 0.0
H530 H 0.18599 1.0155 0.56274 0.0
H531 H 0.13358 0.02987 0.54841 0.0
H532 H 0.0479 0.95999 0.53833 0.0
H533 H 0.07885 0.921 0.5525 0.0
C534 C 0.14294 0.93039 0.56195 0.0
C535 C 0.17607 0.93858 0.56846 0.0
C536 C 0.12465 0.95283 0.55696 0.0
C537 C 0.19175 0.96913 0.56866 0.0
C538 C 0.17382 0.99185 0.56246 0.0
C539 C 0.12184 1.00615 0.55026 0.0
C540 C 0.08892 0.99733 0.54277 0.0
C541 C 0.14015 0.98388 0.55694 0.0
C542 C 0.07326 0.96691 0.54465 0.0
C543 C 0.09104 0.94464 0.55208 0.0
H544 H 0.8175 0.4638 0.93895 0.0
H545 H 0.84666 0.37618 0.92462 0.0
H546 H 0.89757 0.39477 0.95344 0.0
H547 H 0.93572 0.43688 0.98216 0.0
H548 H 0.90566 0.52435 0.99522 0.0
H549 H 0.85446 0.50496 0.96803 0.0
C550 C 0.83498 0.44869 0.94182 0.0
C551 C 0.82748 0.41836 0.92928 0.0
C552 C 0.86468 0.4596 0.95861 0.0
C553 C 0.85088 0.39944 0.93409 0.0
C554 C 0.88039 0.41016 0.9506 0.0
C555 C 0.91785 0.45162 0.97941 0.0
C556 C 0.92527 0.48233 0.99103 0.0
C557 C 0.88777 0.44029 0.96307 0.0
C558 C 0.90138 0.50079 0.98664 0.0
C559 C 0.87176 0.48969 0.97091 0.0
H560 H 0.72931 0.58522 0.47015 0.0
H561 H 0.6886 0.63833 0.40024 0.0
H562 H 0.63354 0.62102 0.42345 0.0
H563 H 0.59702 0.59293 0.46592 0.0
H564 H 0.6372 0.53918 0.53547 0.0
H565 H 0.69194 0.55413 0.51032 0.0
C566 C 0.70828 0.59271 0.45987 0.0
C567 C 0.71305 0.61307 0.43344 0.0
C568 C 0.67648 0.58247 0.47338 0.0
C569 C 0.68558 0.62267 0.42048 0.0
C570 C 0.65407 0.61278 0.43381 0.0
C571 C 0.61771 0.58405 0.47509 0.0
C572 C 0.61302 0.56463 0.50227 0.0
C573 C 0.6492 0.59293 0.4605 0.0
C574 C 0.64011 0.55372 0.51428 0.0
C575 C 0.67147 0.56249 0.50001 0.0
H576 H 0.22484 0.3656 0.20273 0.0
H577 H 0.29964 0.41414 0.13877 0.0
H578 H 0.25912 0.4404 0.11456 0.0
H579 H 0.20195 0.44778 0.10995 0.0
H580 H 0.12696 0.39683 0.17225 0.0
H581 H 0.16823 0.37428 0.19948 0.0
C582 C 0.23237 0.38218 0.18373 0.0
C583 C 0.26523 0.38781 0.17247 0.0
C584 C 0.2089 0.39692 0.16974 0.0
C585 C 0.27445 0.40909 0.14756 0.0
C586 C 0.25131 0.42422 0.13385 0.0
C587 C 0.19453 0.43168 0.12941 0.0
C588 C 0.16112 0.42399 0.13873 0.0
C589 C 0.21835 0.41798 0.14441 0.0
C590 C 0.15234 0.40361 0.16465 0.0
C591 C 0.17595 0.39037 0.18007 0.0
H592 H 0.63529 0.19182 0.93096 0.0
H593 H 0.54349 0.21828 0.90737 0.0
H594 H 0.51368 0.1732 0.93417 0.0
H595 H 0.5125 0.12643 0.96606 0.0
H596 H 0.60316 0.09777 0.98823 0.0
H597 H 0.63399 0.14318 0.96125 0.0
C598 C 0.60876 0.18793 0.93167 0.0
C599 C 0.5921 0.20919 0.91655 0.0
C600 C 0.59124 0.16129 0.94733 0.0
C601 C 0.55753 0.20276 0.91789 0.0
C602 C 0.54022 0.17683 0.93362 0.0
C603 C 0.53903 0.12995 0.96488 0.0
C604 C 0.55528 0.10832 0.97937 0.0
C605 C 0.55666 0.15595 0.94859 0.0
C606 C 0.58976 0.11358 0.97722 0.0
C607 C 0.60747 0.13977 0.96179 0.0
H608 H 0.94884 0.85746 0.39601 0.0
H609 H 0.92787 0.81202 0.48846 0.0
H610 H 0.94639 0.85993 0.51817 0.0
H611 H 0.96861 0.91564 0.51862 0.0
H612 H 0.98944 0.96091 0.42606 0.0
H613 H 0.97161 0.9128 0.39645 0.0
C614 C 0.94858 0.85783 0.42265 0.0
C615 C 0.9365 0.83059 0.43956 0.0
C616 C 0.9594 0.88585 0.43996 0.0
C617 C 0.93629 0.83226 0.4743 0.0
C618 C 0.94715 0.85985 0.49153 0.0
C619 C 0.96926 0.91507 0.49197 0.0
C620 C 0.98037 0.94242 0.47487 0.0
C621 C 0.95864 0.88695 0.47472 0.0
C622 C 0.98089 0.94068 0.44022 0.0
C623 C 0.9707 0.91296 0.42309 0.0
H624 H 0.38467 0.77406 0.54033 0.0
H625 H 0.29832 0.70515 0.55224 0.0
H626 H 0.33094 0.66512 0.54328 0.0
H627 H 0.3846 0.65112 0.54697 0.0
H628 H 0.47187 0.72006 0.5407 0.0
H629 H 0.43834 0.7591 0.53284 0.0
C630 C 0.37303 0.75022 0.53947 0.0
C631 C 0.33961 0.74216 0.54731 0.0
C632 C 0.39218 0.72758 0.53645 0.0
C633 C 0.32417 0.71154 0.54613 0.0
C634 C 0.34287 0.68876 0.54157 0.0
C635 C 0.39638 0.67448 0.54262 0.0
C636 C 0.43047 0.68296 0.54503 0.0
C637 C 0.37706 0.69664 0.53897 0.0
C638 C 0.44549 0.7133 0.53972 0.0
C639 C 0.42641 0.73551 0.53507 0.0
H640 H 0.76077 0.87974 0.70729 0.0
H641 H 0.77686 0.79844 0.65409 0.0
H642 H 0.82578 0.8273 0.62773 0.0
H643 H 0.86663 0.87482 0.62361 0.0
H644 H 0.84836 0.95616 0.67479 0.0
H645 H 0.79701 0.92814 0.6976 0.0
C646 C 0.77419 0.86838 0.68913 0.0
C647 C 0.76521 0.8368 0.68307 0.0
C648 C 0.8021 0.88509 0.67392 0.0
C649 C 0.78352 0.82258 0.65981 0.0
C650 C 0.8115 0.83907 0.64465 0.0
C651 C 0.85113 0.88632 0.63953 0.0
C652 C 0.86118 0.91727 0.64793 0.0
C653 C 0.82152 0.87014 0.65226 0.0
C654 C 0.84094 0.93227 0.66813 0.0
C655 C 0.8117 0.91627 0.6812 0.0
H656 H 0.63883 0.12544 0.31742 0.0
H657 H 0.73351 0.12022 0.27335 0.0
H658 H 0.70809 0.10421 0.22117 0.0
H659 H 0.66039 0.09631 0.18729 0.0
H660 H 0.56492 0.10041 0.22915 0.0
H661 H 0.58941 0.11365 0.28343 0.0
C662 C 0.65366 0.1203 0.29642 0.0
C663 C 0.68785 0.12412 0.2989 0.0
C664 C 0.63903 0.11211 0.26624 0.0
C665 C 0.70707 0.11705 0.27198 0.0
C666 C 0.69268 0.10843 0.24206 0.0
C667 C 0.64509 0.10062 0.2083 0.0
C668 C 0.61142 0.09865 0.20471 0.0
C669 C 0.65899 0.10694 0.2388 0.0
C670 C 0.59119 0.10286 0.23181 0.0
C671 C 0.60508 0.10997 0.26259 0.0
H672 H 0.44821 0.59862 0.33387 0.0
H673 H 0.41885 0.67109 0.39269 0.0
H674 H 0.43743 0.64972 0.44238 0.0
H675 H 0.46305 0.61006 0.47024 0.0
H676 H 0.49342 0.5386 0.41012 0.0
H677 H 0.47449 0.55998 0.36119 0.0
C678 C 0.44583 0.60984 0.35751 0.0
C679 C 0.43194 0.63683 0.35885 0.0
C680 C 0.45725 0.59754 0.3864 0.0
C681 C 0.42957 0.65069 0.39022 0.0
C682 C 0.44023 0.6383 0.41893 0.0
C683 C 0.46561 0.59908 0.4465 0.0
C684 C 0.4798 0.57214 0.44477 0.0
C685 C 0.45435 0.61172 0.41755 0.0
C686 C 0.48251 0.55885 0.41314 0.0
C687 C 0.47162 0.57122 0.38472 0.0
H688 H 0.11397 0.48471 0.83648 0.0
H689 H 0.07811 0.39429 0.87206 0.0
H690 H 0.05507 0.41611 0.92104 0.0
H691 H 0.04344 0.4619 0.9546 0.0
H692 H 0.08122 0.55141 0.91736 0.0
H693 H 0.10516 0.52906 0.86996 0.0
C694 C 0.1016 0.46947 0.85494 0.0
C695 C 0.09812 0.43746 0.84951 0.0
C696 C 0.08849 0.48225 0.88367 0.0
C697 C 0.08108 0.41886 0.87435 0.0
C698 C 0.06796 0.43145 0.90291 0.0
C699 C 0.05738 0.47651 0.93646 0.0
C700 C 0.06033 0.50873 0.94034 0.0
C701 C 0.07129 0.46326 0.90804 0.0
C702 C 0.07822 0.52677 0.9157 0.0
C703 C 0.09203 0.51394 0.88817 0.0
H704 H 0.57222 0.89125 0.87715 0.0
H705 H 0.61653 0.86085 0.96237 0.0
H706 H 0.5994 0.90159 0.99564 0.0
H707 H 0.57513 0.94788 1.00003 0.0
H708 H 0.52899 0.97795 0.91623 0.0
H709 H 0.5445 0.93596 0.88252 0.0
C710 C 0.57822 0.89355 0.90298 0.0
C711 C 0.59598 0.873 0.91705 0.0
C712 C 0.56856 0.91737 0.92204 0.0
C713 C 0.60273 0.87601 0.95081 0.0
C714 C 0.59324 0.89956 0.96985 0.0
C715 C 0.56862 0.94522 0.97432 0.0
C716 C 0.55164 0.96614 0.96026 0.0
C717 C 0.57676 0.92068 0.9556 0.0
C718 C 0.54241 0.96218 0.9273 0.0
C719 C 0.55121 0.93819 0.90816 0.0
H720 H 0.90606 0.15807 0.50573 0.0
H721 H 0.81589 0.09879 0.53182 0.0
H722 H 0.84511 0.05596 0.53697 0.0
H723 H 0.89599 0.03556 0.53012 0.0
H724 H 0.98415 0.09441 0.49791 0.0
H725 H 0.95552 0.13724 0.49569 0.0
C726 C 0.89328 0.13602 0.51397 0.0
C727 C 0.85948 0.13121 0.51924 0.0
C728 C 0.90932 0.11132 0.51315 0.0
C729 C 0.84232 0.1027 0.52882 0.0
C730 C 0.85872 0.07821 0.53058 0.0
C731 C 0.90834 0.05758 0.52143 0.0
C732 C 0.9417 0.06222 0.51371 0.0
C733 C 0.89195 0.08213 0.52156 0.0
C734 C 0.95819 0.09047 0.50292 0.0
C735 C 0.94208 0.11511 0.50271 0.0
H736 H 0.20292 0.66079 0.11446 0.0
H737 H 0.22038 0.57814 0.15868 0.0
H738 H 0.17171 0.54961 0.13308 0.0
H739 H 0.12377 0.54697 0.09747 0.0
H740 H 0.10678 0.62876 0.05149 0.0
H741 H 0.15543 0.6579 0.07756 0.0
C742 C 0.1965 0.63649 0.11841 0.0
C743 C 0.21601 0.62221 0.13931 0.0
C744 C 0.16821 0.61963 0.10289 0.0
C745 C 0.20614 0.59053 0.14382 0.0
C746 C 0.17817 0.57386 0.12874 0.0
C747 C 0.13062 0.57116 0.09295 0.0
C748 C 0.11107 0.58532 0.07218 0.0
C749 C 0.15892 0.58805 0.10821 0.0
C750 C 0.12087 0.61687 0.06712 0.0
C751 C 0.1489 0.63371 0.08217 0.0
H752 H 0.30901 0.45332 0.58098 0.0
H753 H 0.34664 0.44333 0.6773 0.0
H754 H 0.40199 0.46341 0.65765 0.0
H755 H 0.44101 0.48149 0.61268 0.0
H756 H 0.40474 0.49438 0.51685 0.0
H757 H 0.3483 0.47569 0.53641 0.0
C758 C 0.3293 0.45558 0.5977 0.0
C759 C 0.32314 0.44661 0.63085 0.0
C760 C 0.36163 0.46779 0.58624 0.0
C761 C 0.35009 0.45015 0.65192 0.0
C762 C 0.38201 0.46158 0.64062 0.0
C763 C 0.42066 0.48081 0.59627 0.0
C764 C 0.4272 0.48979 0.56346 0.0
C765 C 0.38821 0.47028 0.60785 0.0
C766 C 0.40049 0.48829 0.5424 0.0
C767 C 0.36815 0.47727 0.55356 0.0
H768 H 0.78378 0.69933 0.92766 0.0
H769 H 0.76469 0.63271 0.84837 0.0
H770 H 0.81015 0.60914 0.86541 0.0
H771 H 0.8565 0.60796 0.90269 0.0
H772 H 0.87206 0.6725 0.98392 0.0
H773 H 0.82652 0.69589 0.96665 0.0
C774 C 0.78887 0.67921 0.91447 0.0
C775 C 0.7707 0.66812 0.88659 0.0
C776 C 0.81466 0.66535 0.92474 0.0
C777 C 0.77849 0.6423 0.86957 0.0
C778 C 0.80448 0.62863 0.87938 0.0
C779 C 0.84974 0.6271 0.9165 0.0
C780 C 0.86751 0.63861 0.94447 0.0
C781 C 0.823 0.64015 0.90676 0.0
C782 C 0.85854 0.66325 0.96239 0.0
C783 C 0.83256 0.67665 0.95252 0.0
H784 H 0.47956 0.84734 0.13768 0.0
H785 H 0.38162 0.86683 0.14653 0.0
H786 H 0.3994 0.91551 0.1195 0.0
H787 H 0.44344 0.95375 0.09194 0.0
H788 H 0.54066 0.93213 0.08299 0.0
H789 H 0.52267 0.88467 0.11116 0.0
C790 C 0.46201 0.86224 0.13413 0.0
C791 C 0.42902 0.85259 0.1445 0.0
C792 C 0.47242 0.89062 0.11823 0.0
C793 C 0.40704 0.87274 0.13874 0.0
C794 C 0.4173 0.90102 0.12329 0.0
C795 C 0.46076 0.93884 0.09643 0.0
C796 C 0.49374 0.94735 0.08511 0.0
C797 C 0.45003 0.91041 0.1127 0.0
C798 C 0.51525 0.9269 0.09107 0.0
C799 C 0.50497 0.89936 0.10737 0.0
H800 H 0.06408 0.2303 0.60487 0.0
H801 H 0.13966 0.20167 0.66074 0.0
H802 H 0.12275 0.14909 0.64053 0.0
H803 H 0.08667 0.1105 0.60608 0.0
H804 H 0.01483 0.14023 0.54588 0.0
H805 H 0.02969 0.19218 0.56841 0.0
C806 C 0.07668 0.2125 0.61279 0.0
C807 C 0.10297 0.22015 0.63479 0.0
C808 C 0.06737 0.18213 0.60015 0.0
C809 C 0.11931 0.19665 0.6441 0.0
C810 C 0.1096 0.16644 0.63248 0.0
C811 C 0.07411 0.12829 0.59809 0.0
C812 C 0.04927 0.12105 0.57446 0.0
C813 C 0.08366 0.15875 0.61043 0.0
C814 C 0.0339 0.14484 0.56402 0.0
C815 C 0.04243 0.17472 0.57696 0.0
H816 H 0.71144 0.33855 0.52713 0.0
H817 H 0.6387 0.26196 0.49688 0.0
H818 H 0.595 0.29029 0.51125 0.0
H819 H 0.57998 0.34032 0.51695 0.0
H820 H 0.65317 0.41898 0.54056 0.0
H821 H 0.69435 0.38635 0.54522 0.0
C822 C 0.68591 0.32779 0.52521 0.0
C823 C 0.67788 0.29876 0.5106 0.0
C824 C 0.66121 0.34483 0.53169 0.0
C825 C 0.64501 0.28459 0.5079 0.0
C826 C 0.62017 0.30083 0.51585 0.0
C827 C 0.60458 0.35017 0.52453 0.0
C828 C 0.61391 0.3819 0.52759 0.0
C829 C 0.62822 0.33159 0.52546 0.0
C830 C 0.64582 0.39452 0.53734 0.0
C831 C 0.66931 0.37594 0.53991 0.0
loop_
_geom_bond_atom_site_label_1
_geom_bond_atom_site_label_2
_geom_bond_distance
_geom_bond_site_symmetry_2
_ccdc_geom_bond_type
C0 C1 1.384 . S
C0 H13 0.947 . S
C0 C35 1.382 . S
C1 C0 1.384 . S
C1 C2 1.378 . S
C2 C1 1.378 . S
C2 C3 1.378 . S
C2 H14 0.952 . S
C3 C2 1.378 . S
C3 H15 0.950 . S
C3 C34 1.383 . S
H4 C23 0.947 . S
H5 C24 0.946 . S
H6 C26 0.953 . S
H7 C27 0.945 . S
H8 C29 0.952 . S
H9 C30 0.949 . S
H10 C32 0.950 . S
H11 C33 0.948 . S
H12 C35 0.951 . S
H13 C0 0.947 . S
H14 C2 0.952 . S
H15 C3 0.950 . S
N16 C19 1.382 . S
N16 C21 1.363 . S
N17 C19 1.371 . S
N17 C20 1.372 . S
N18 C20 1.361 . S
N18 C21 1.377 . S
C19 N16 1.382 . S
C19 N17 1.371 . S
C19 C22 1.480 . S
C20 N17 1.372 . S
C20 N18 1.361 . S
C20 C28 1.457 . S
C21 N16 1.363 . S
C21 N18 1.377 . S
C21 C34 1.479 . S
C22 C19 1.480 . S
C22 C23 1.383 . S
C22 C27 1.385 . S
C23 H4 0.947 . S
C23 C22 1.383 . S
C23 C24 1.388 . S
C24 H5 0.946 . S
C24 C23 1.388 . S
C24 C25 1.384 . S
C25 C24 1.384 . S
C25 C26 1.377 . S
C26 H6 0.953 . S
C26 C25 1.377 . S
C26 C27 1.369 . S
C27 H7 0.945 . S
C27 C22 1.385 . S
C27 C26 1.369 . S
C28 C20 1.457 . S
C28 C29 1.372 . S
C28 C33 1.364 . S
C29 H8 0.952 . S
C29 C28 1.372 . S
C29 C30 1.389 . S
C30 H9 0.949 . S
C30 C29 1.389 . S
C30 C31 1.387 . S
C31 C30 1.387 . S
C31 C32 1.372 . S
C32 H10 0.950 . S
C32 C31 1.372 . S
C32 C33 1.379 . S
C33 H11 0.948 . S
C33 C28 1.364 . S
C33 C32 1.379 . S
C34 C3 1.383 . S
C34 C21 1.479 . S
C34 C35 1.398 . S
C35 C0 1.382 . S
C35 H12 0.951 . S
C35 C34 1.398 . S
C36 C37 1.384 . S
C36 H49 0.947 . S
C36 C71 1.382 . S
C37 C36 1.384 . S
C37 C38 1.378 . S
C38 C37 1.378 . S
C38 C39 1.378 . S
C38 H50 0.952 . S
C39 C38 1.378 . S
C39 H51 0.950 . S
C39 C70 1.383 . S
H40 C59 0.947 . S
H41 C60 0.946 . S
H42 C62 0.953 . S
H43 C63 0.945 . S
H44 C65 0.952 . S
H45 C66 0.949 . S
H46 C68 0.950 . S
H47 C69 0.948 . S
H48 C71 0.951 . S
H49 C36 0.947 . S
H50 C38 0.952 . S
H51 C39 0.950 . S
N52 C55 1.382 . S
N52 C57 1.363 . S
N53 C55 1.371 . S
N53 C56 1.372 . S
N54 C56 1.361 . S
N54 C57 1.377 . S
C55 N52 1.382 . S
C55 N53 1.371 . S
C55 C58 1.480 . S
C56 N53 1.372 . S
C56 N54 1.361 . S
C56 C64 1.457 . S
C57 N52 1.363 . S
C57 N54 1.377 . S
C57 C70 1.479 . S
C58 C55 1.480 . S
C58 C59 1.383 . S
C58 C63 1.385 . S
C59 H40 0.947 . S
C59 C58 1.383 . S
C59 C60 1.388 . S
C60 H41 0.946 . S
C60 C59 1.388 . S
C60 C61 1.384 . S
C61 C60 1.384 . S
C61 C62 1.377 . S
C62 H42 0.953 . S
C62 C61 1.377 . S
C62 C63 1.369 . S
C63 H43 0.945 . S
C63 C58 1.385 . S
C63 C62 1.369 . S
C64 C56 1.457 . S
C64 C65 1.372 . S
C64 C69 1.364 . S
C65 H44 0.952 . S
C65 C64 1.372 . S
C65 C66 1.389 . S
C66 H45 0.949 . S
C66 C65 1.389 . S
C66 C67 1.387 . S
C67 C66 1.387 . S
C67 C68 1.372 . S
C68 H46 0.950 . S
C68 C67 1.372 . S
C68 C69 1.379 . S
C69 H47 0.948 . S
C69 C64 1.364 . S
C69 C68 1.379 . S
C70 C39 1.383 . S
C70 C57 1.479 . S
C70 C71 1.398 . S
C71 C36 1.382 . S
C71 H48 0.951 . S
C71 C70 1.398 . S
C72 C73 1.384 . S
C72 H85 0.947 . S
C72 C107 1.382 . S
C73 C72 1.384 . S
C73 C74 1.378 . S
C74 C73 1.378 . S
C74 C75 1.378 . S
C74 H86 0.952 . S
C75 C74 1.378 . S
C75 H87 0.950 . S
C75 C106 1.383 . S
H76 C95 0.947 . S
H77 C96 0.946 . S
H78 C98 0.953 . S
H79 C99 0.945 . S
H80 C101 0.952 . S
H81 C102 0.949 . S
H82 C104 0.950 . S
H83 C105 0.948 . S
H84 C107 0.951 . S
H85 C72 0.947 . S
H86 C74 0.952 . S
H87 C75 0.950 . S
N88 C91 1.382 . S
N88 C93 1.363 . S
N89 C91 1.371 . S
N89 C92 1.372 . S
N90 C92 1.361 . S
N90 C93 1.377 . S
C91 N88 1.382 . S
C91 N89 1.371 . S
C91 C94 1.480 . S
C92 N89 1.372 . S
C92 N90 1.361 . S
C92 C100 1.457 . S
C93 N88 1.363 . S
C93 N90 1.377 . S
C93 C106 1.479 . S
C94 C91 1.480 . S
C94 C95 1.383 . S
C94 C99 1.385 . S
C95 H76 0.947 . S
C95 C94 1.383 . S
C95 C96 1.388 . S
C96 H77 0.946 . S
C96 C95 1.388 . S
C96 C97 1.384 . S
C97 C96 1.384 . S
C97 C98 1.377 . S
C98 H78 0.953 . S
C98 C97 1.377 . S
C98 C99 1.369 . S
C99 H79 0.945 . S
C99 C94 1.385 . S
C99 C98 1.369 . S
C100 C92 1.457 . S
C100 C101 1.372 . S
C100 C105 1.364 . S
C101 H80 0.952 . S
C101 C100 1.372 . S
C101 C102 1.389 . S
C102 H81 0.949 . S
C102 C101 1.389 . S
C102 C103 1.387 . S
C103 C102 1.387 . S
C103 C104 1.372 . S
C104 H82 0.950 . S
C104 C103 1.372 . S
C104 C105 1.379 . S
C105 H83 0.948 . S
C105 C100 1.364 . S
C105 C104 1.379 . S
C106 C75 1.383 . S
C106 C93 1.479 . S
C106 C107 1.398 . S
C107 C72 1.382 . S
C107 H84 0.951 . S
C107 C106 1.398 . S
C108 C109 1.384 . S
C108 H121 0.947 . S
C108 C143 1.382 . S
C109 C108 1.384 . S
C109 C110 1.378 . S
C110 C109 1.378 . S
C110 C111 1.378 . S
C110 H122 0.952 . S
C111 C110 1.378 . S
C111 H123 0.950 . S
C111 C142 1.383 . S
H112 C131 0.947 . S
H113 C132 0.946 . S
H114 C134 0.953 . S
H115 C135 0.945 . S
H116 C137 0.952 . S
H117 C138 0.949 . S
H118 C140 0.950 . S
H119 C141 0.948 . S
H120 C143 0.951 . S
H121 C108 0.947 . S
H122 C110 0.952 . S
H123 C111 0.950 . S
N124 C127 1.382 . S
N124 C129 1.363 . S
N125 C127 1.371 . S
N125 C128 1.372 . S
N126 C128 1.361 . S
N126 C129 1.377 . S
C127 N124 1.382 . S
C127 N125 1.371 . S
C127 C130 1.480 . S
C128 N125 1.372 . S
C128 N126 1.361 . S
C128 C136 1.457 . S
C129 N124 1.363 . S
C129 N126 1.377 . S
C129 C142 1.479 . S
C130 C127 1.480 . S
C130 C131 1.383 . S
C130 C135 1.385 . S
C131 H112 0.947 . S
C131 C130 1.383 . S
C131 C132 1.388 . S
C132 H113 0.946 . S
C132 C131 1.388 . S
C132 C133 1.384 . S
C133 C132 1.384 . S
C133 C134 1.377 . S
C134 H114 0.953 . S
C134 C133 1.377 . S
C134 C135 1.369 . S
C135 H115 0.945 . S
C135 C130 1.385 . S
C135 C134 1.369 . S
C136 C128 1.457 . S
C136 C137 1.372 . S
C136 C141 1.364 . S
C137 H116 0.952 . S
C137 C136 1.372 . S
C137 C138 1.389 . S
C138 H117 0.949 . S
C138 C137 1.389 . S
C138 C139 1.387 . S
C139 C138 1.387 . S
C139 C140 1.372 . S
C140 H118 0.950 . S
C140 C139 1.372 . S
C140 C141 1.379 . S
C141 H119 0.948 . S
C141 C136 1.364 . S
C141 C140 1.379 . S
C142 C111 1.383 . S
C142 C129 1.479 . S
C142 C143 1.398 . S
C143 C108 1.382 . S
C143 H120 0.951 . S
C143 C142 1.398 . S
C144 C145 1.384 . S
C144 H157 0.947 . S
C144 C179 1.382 . S
C145 C144 1.384 . S
C145 C146 1.378 . S
C146 C145 1.378 . S
C146 C147 1.378 . S
C146 H158 0.952 . S
C147 C146 1.378 . S
C147 H159 0.950 . S
C147 C178 1.383 . S
H148 C167 0.947 . S
H149 C168 0.946 . S
H150 C170 0.953 . S
H151 C171 0.945 . S
H152 C173 0.952 . S
H153 C174 0.949 . S
H154 C176 0.950 . S
H155 C177 0.948 . S
H156 C179 0.951 . S
H157 C144 0.947 . S
H158 C146 0.952 . S
H159 C147 0.950 . S
N160 C163 1.382 . S
N160 C165 1.363 . S
N161 C163 1.371 . S
N161 C164 1.372 . S
N162 C164 1.361 . S
N162 C165 1.377 . S
C163 N160 1.382 . S
C163 N161 1.371 . S
C163 C166 1.480 . S
C164 N161 1.372 . S
C164 N162 1.361 . S
C164 C172 1.457 . S
C165 N160 1.363 . S
C165 N162 1.377 . S
C165 C178 1.479 . S
C166 C163 1.480 . S
C166 C167 1.383 . S
C166 C171 1.385 . S
C167 H148 0.947 . S
C167 C166 1.383 . S
C167 C168 1.388 . S
C168 H149 0.946 . S
C168 C167 1.388 . S
C168 C169 1.384 . S
C169 C168 1.384 . S
C169 C170 1.377 . S
C170 H150 0.953 . S
C170 C169 1.377 . S
C170 C171 1.369 . S
C171 H151 0.945 . S
C171 C166 1.385 . S
C171 C170 1.369 . S
C172 C164 1.457 . S
C172 C173 1.372 . S
C172 C177 1.364 . S
C173 H152 0.952 . S
C173 C172 1.372 . S
C173 C174 1.389 . S
C174 H153 0.949 . S
C174 C173 1.389 . S
C174 C175 1.387 . S
C175 C174 1.387 . S
C175 C176 1.372 . S
C176 H154 0.950 . S
C176 C175 1.372 . S
C176 C177 1.379 . S
C177 H155 0.948 . S
C177 C172 1.364 . S
C177 C176 1.379 . S
C178 C147 1.383 . S
C178 C165 1.479 . S
C178 C179 1.398 . S
C179 C144 1.382 . S
C179 H156 0.951 . S
C179 C178 1.398 . S
C180 C181 1.384 . S
C180 H193 0.947 . S
C180 C215 1.382 . S
C181 C180 1.384 . S
C181 C182 1.378 . S
C182 C181 1.378 . S
C182 C183 1.378 . S
C182 H194 0.952 . S
C183 C182 1.378 . S
C183 H195 0.950 . S
C183 C214 1.383 . S
H184 C203 0.947 . S
H185 C204 0.946 . S
H186 C206 0.953 . S
H187 C207 0.945 . S
H188 C209 0.952 . S
H189 C210 0.949 . S
H190 C212 0.950 . S
H191 C213 0.948 . S
H192 C215 0.951 . S
H193 C180 0.947 . S
H194 C182 0.952 . S
H195 C183 0.950 . S
N196 C199 1.382 . S
N196 C201 1.363 . S
N197 C199 1.371 . S
N197 C200 1.372 . S
N198 C200 1.361 . S
N198 C201 1.377 . S
C199 N196 1.382 . S
C199 N197 1.371 . S
C199 C202 1.480 . S
C200 N197 1.372 . S
C200 N198 1.361 . S
C200 C208 1.457 . S
C201 N196 1.363 . S
C201 N198 1.377 . S
C201 C214 1.479 . S
C202 C199 1.480 . S
C202 C203 1.383 . S
C202 C207 1.385 . S
C203 H184 0.947 . S
C203 C202 1.383 . S
C203 C204 1.388 . S
C204 H185 0.946 . S
C204 C203 1.388 . S
C204 C205 1.384 . S
C205 C204 1.384 . S
C205 C206 1.377 . S
C206 H186 0.953 . S
C206 C205 1.377 . S
C206 C207 1.369 . S
C207 H187 0.945 . S
C207 C202 1.385 . S
C207 C206 1.369 . S
C208 C200 1.457 . S
C208 C209 1.372 . S
C208 C213 1.364 . S
C209 H188 0.952 . S
C209 C208 1.372 . S
C209 C210 1.389 . S
C210 H189 0.949 . S
C210 C209 1.389 . S
C210 C211 1.387 . S
C211 C210 1.387 . S
C211 C212 1.372 . S
C212 H190 0.950 . S
C212 C211 1.372 . S
C212 C213 1.379 . S
C213 H191 0.948 . S
C213 C208 1.364 . S
C213 C212 1.379 . S
C214 C183 1.383 . S
C214 C201 1.479 . S
C214 C215 1.398 . S
C215 C180 1.382 . S
C215 H192 0.951 . S
C215 C214 1.398 . S
C216 C217 1.384 . S
C216 H229 0.947 . S
C216 C251 1.382 . S
C217 C216 1.384 . S
C217 C218 1.378 . S
C218 C217 1.378 . S
C218 C219 1.378 . S
C218 H230 0.952 . S
C219 C218 1.378 . S
C219 H231 0.950 . S
C219 C250 1.383 . S
H220 C239 0.947 . S
H221 C240 0.946 . S
H222 C242 0.953 . S
H223 C243 0.945 . S
H224 C245 0.952 . S
H225 C246 0.949 . S
H226 C248 0.950 . S
H227 C249 0.948 . S
H228 C251 0.951 . S
H229 C216 0.947 . S
H230 C218 0.952 . S
H231 C219 0.950 . S
N232 C235 1.382 . S
N232 C237 1.363 . S
N233 C235 1.371 . S
N233 C236 1.372 . S
N234 C236 1.361 . S
N234 C237 1.377 . S
C235 N232 1.382 . S
C235 N233 1.371 . S
C235 C238 1.480 . S
C236 N233 1.372 . S
C236 N234 1.361 . S
C236 C244 1.457 . S
C237 N232 1.363 . S
C237 N234 1.377 . S
C237 C250 1.479 . S
C238 C235 1.480 . S
C238 C239 1.383 . S
C238 C243 1.385 . S
C239 H220 0.947 . S
C239 C238 1.383 . S
C239 C240 1.388 . S
C240 H221 0.946 . S
C240 C239 1.388 . S
C240 C241 1.384 . S
C241 C240 1.384 . S
C241 C242 1.377 . S
C242 H222 0.953 . S
C242 C241 1.377 . S
C242 C243 1.369 . S
C243 H223 0.945 . S
C243 C238 1.385 . S
C243 C242 1.369 . S
C244 C236 1.457 . S
C244 C245 1.372 . S
C244 C249 1.364 . S
C245 H224 0.952 . S
C245 C244 1.372 . S
C245 C246 1.389 . S
C246 H225 0.949 . S
C246 C245 1.389 . S
C246 C247 1.387 . S
C247 C246 1.387 . S
C247 C248 1.372 . S
C248 H226 0.950 . S
C248 C247 1.372 . S
C248 C249 1.379 . S
C249 H227 0.948 . S
C249 C244 1.364 . S
C249 C248 1.379 . S
C250 C219 1.383 . S
C250 C237 1.479 . S
C250 C251 1.398 . S
C251 C216 1.382 . S
C251 H228 0.951 . S
C251 C250 1.398 . S
C252 C253 1.384 . S
C252 H265 0.947 . S
C252 C287 1.382 . S
C253 C252 1.384 . S
C253 C254 1.378 . S
C254 C253 1.378 . S
C254 C255 1.378 . S
C254 H266 0.952 . S
C255 C254 1.378 . S
C255 H267 0.950 . S
C255 C286 1.383 . S
H256 C275 0.947 . S
H257 C276 0.946 . S
H258 C278 0.953 . S
H259 C279 0.945 . S
H260 C281 0.952 . S
H261 C282 0.949 . S
H262 C284 0.950 . S
H263 C285 0.948 . S
H264 C287 0.951 . S
H265 C252 0.947 . S
H266 C254 0.952 . S
H267 C255 0.950 . S
N268 C271 1.382 . S
N268 C273 1.363 . S
N269 C271 1.371 . S
N269 C272 1.372 . S
N270 C272 1.361 . S
N270 C273 1.377 . S
C271 N268 1.382 . S
C271 N269 1.371 . S
C271 C274 1.480 . S
C272 N269 1.372 . S
C272 N270 1.361 . S
C272 C280 1.457 . S
C273 N268 1.363 . S
C273 N270 1.377 . S
C273 C286 1.479 . S
C274 C271 1.480 . S
C274 C275 1.383 . S
C274 C279 1.385 . S
C275 H256 0.947 . S
C275 C274 1.383 . S
C275 C276 1.388 . S
C276 H257 0.946 . S
C276 C275 1.388 . S
C276 C277 1.384 . S
C277 C276 1.384 . S
C277 C278 1.377 . S
C278 H258 0.953 . S
C278 C277 1.377 . S
C278 C279 1.369 . S
C279 H259 0.945 . S
C279 C274 1.385 . S
C279 C278 1.369 . S
C280 C272 1.457 . S
C280 C281 1.372 . S
C280 C285 1.364 . S
C281 H260 0.952 . S
C281 C280 1.372 . S
C281 C282 1.389 . S
C282 H261 0.949 . S
C282 C281 1.389 . S
C282 C283 1.387 . S
C283 C282 1.387 . S
C283 C284 1.372 . S
C284 H262 0.950 . S
C284 C283 1.372 . S
C284 C285 1.379 . S
C285 H263 0.948 . S
C285 C280 1.364 . S
C285 C284 1.379 . S
C286 C255 1.383 . S
C286 C273 1.479 . S
C286 C287 1.398 . S
C287 C252 1.382 . S
C287 H264 0.951 . S
C287 C286 1.398 . S
Sm288 C290 2.846 . S
Sm288 O308 2.543 . S
Sm288 O309 2.450 . S
Sm288 O310 2.681 1_545 S
Sm288 O311 2.464 1_545 S
Sm288 O312 2.396 . S
Sm288 O316 2.386 1_455 S
Sm288 O319 2.408 1_445 S
Sm289 C299 2.846 . S
Sm289 O310 2.386 1_655 S
Sm289 O313 2.408 1_665 S
Sm289 O314 2.543 . S
Sm289 O315 2.450 . S
Sm289 O316 2.681 1_565 S
Sm289 O317 2.464 1_565 S
Sm289 O318 2.396 . S
C290 Sm288 2.846 . S
C290 C291 1.506 . S
C290 O308 1.261 . S
C290 O309 1.242 . S
C291 C290 1.506 . S
C291 C292 1.358 . S
C291 C296 1.382 . S
C292 C291 1.358 . S
C292 C293 1.385 . S
C292 H320 0.930 . S
C293 C292 1.385 . S
C293 C294 1.395 . S
C293 H321 0.929 . S
C294 C293 1.395 . S
C294 C295 1.335 . S
C295 C294 1.335 . S
C295 C296 1.398 . S
C295 H322 0.930 . S
C296 C291 1.382 . S
C296 C295 1.398 . S
C296 H323 0.929 . S
C297 O310 1.271 . S
C297 O311 1.251 . S
C298 O312 1.252 . S
C298 O313 1.272 . S
C299 Sm289 2.846 . S
C299 C300 1.506 . S
C299 O314 1.261 . S
C299 O315 1.242 . S
C300 C299 1.506 . S
C300 C301 1.358 . S
C300 C305 1.382 . S
C301 C300 1.358 . S
C301 C302 1.385 . S
C301 H324 0.930 . S
C302 C301 1.385 . S
C302 C303 1.395 . S
C302 H325 0.929 . S
C303 C302 1.395 . S
C303 C304 1.335 . S
C304 C303 1.335 . S
C304 C305 1.398 . S
C304 H326 0.930 . S
C305 C300 1.382 . S
C305 C304 1.398 . S
C305 H327 0.929 . S
C306 O316 1.271 . S
C306 O317 1.251 . S
C307 O318 1.252 . S
C307 O319 1.272 . S
O308 Sm288 2.543 . S
O308 C290 1.261 . S
O309 Sm288 2.450 . S
O309 C290 1.242 . S
O310 Sm288 2.681 1_565 S
O310 Sm289 2.386 1_455 S
O310 C297 1.271 . S
O311 Sm288 2.464 1_565 S
O311 C297 1.251 . S
O312 Sm288 2.396 . S
O312 C298 1.252 . S
O313 Sm289 2.408 1_445 S
O313 C298 1.272 . S
O314 Sm289 2.543 . S
O314 C299 1.261 . S
O315 Sm289 2.450 . S
O315 C299 1.242 . S
O316 Sm288 2.386 1_655 S
O316 Sm289 2.681 1_545 S
O316 C306 1.271 . S
O317 Sm289 2.464 1_545 S
O317 C306 1.251 . S
O318 Sm289 2.396 . S
O318 C307 1.252 . S
O319 Sm288 2.408 1_665 S
O319 C307 1.272 . S
H320 C292 0.930 . S
H321 C293 0.929 . S
H322 C295 0.930 . S
H323 C296 0.929 . S
H324 C301 0.930 . S
H325 C302 0.929 . S
H326 C304 0.930 . S
H327 C305 0.929 . S
Sm328 C330 2.828 1_565 S
Sm328 O348 2.512 1_565 S
Sm328 O349 2.448 1_565 S
Sm328 O350 2.695 . S
Sm328 O351 2.491 . S
Sm328 O352 2.376 1_565 S
Sm328 O356 2.360 1_564 S
Sm328 O359 2.429 1_554 S
Sm329 C339 2.846 1_545 S
Sm329 O350 2.386 1_546 S
Sm329 O353 2.408 1_556 S
Sm329 O354 2.543 1_545 S
Sm329 O355 2.450 1_545 S
Sm329 O356 2.681 . S
Sm329 O357 2.464 . S
Sm329 O358 2.396 1_545 S
C330 Sm328 2.828 1_545 S
C330 C331 1.506 . S
C330 O348 1.261 . S
C330 O349 1.242 . S
C331 C330 1.506 . S
C331 C332 1.358 . S
C331 C336 1.382 . S
C332 C331 1.358 . S
C332 C333 1.385 . S
C332 H360 0.930 . S
C333 C332 1.385 . S
C333 C334 1.395 . S
C333 H361 0.929 . S
C334 C333 1.395 . S
C334 C335 1.335 . S
C335 C334 1.335 . S
C335 C336 1.398 . S
C335 H362 0.930 . S
C336 C331 1.382 . S
C336 C335 1.398 . S
C336 H363 0.929 . S
C337 O350 1.271 . S
C337 O351 1.251 . S
C338 O352 1.252 . S
C338 O353 1.272 . S
C339 Sm329 2.846 1_565 S
C339 C340 1.506 . S
C339 O354 1.261 . S
C339 O355 1.242 . S
C340 C339 1.506 . S
C340 C341 1.358 . S
C340 C345 1.382 . S
C341 C340 1.358 . S
C341 C342 1.385 . S
C341 H364 0.930 . S
C342 C341 1.385 . S
C342 C343 1.395 . S
C342 H365 0.929 . S
C343 C342 1.395 . S
C343 C344 1.335 . S
C344 C343 1.335 . S
C344 C345 1.398 . S
C344 H366 0.930 . S
C345 C340 1.382 . S
C345 C344 1.398 . S
C345 H367 0.929 . S
C346 O356 1.271 . S
C346 O357 1.251 . S
C347 O358 1.252 . S
C347 O359 1.272 . S
O348 Sm328 2.512 1_545 S
O348 C330 1.261 . S
O349 Sm328 2.448 1_545 S
O349 C330 1.242 . S
O350 Sm328 2.695 . S
O350 Sm329 2.386 1_564 S
O350 C337 1.271 . S
O351 Sm328 2.491 . S
O351 C337 1.251 . S
O352 Sm328 2.376 1_545 S
O352 C338 1.252 . S
O353 Sm329 2.408 1_554 S
O353 C338 1.272 . S
O354 Sm329 2.543 1_565 S
O354 C339 1.261 . S
O355 Sm329 2.450 1_565 S
O355 C339 1.242 . S
O356 Sm328 2.360 1_546 S
O356 Sm329 2.681 . S
O356 C346 1.271 . S
O357 Sm329 2.464 . S
O357 C346 1.251 . S
O358 Sm329 2.396 1_565 S
O358 C347 1.252 . S
O359 Sm328 2.429 1_556 S
O359 C347 1.272 . S
H360 C332 0.930 . S
H361 C333 0.929 . S
H362 C335 0.930 . S
H363 C336 0.929 . S
H364 C341 0.930 . S
H365 C342 0.929 . S
H366 C344 0.930 . S
H367 C345 0.929 . S
Sm368 C370 2.846 . S
Sm368 O388 2.543 . S
Sm368 O389 2.450 . S
Sm368 O390 2.681 . S
Sm368 O391 2.464 . S
Sm368 O392 2.396 . S
Sm368 O396 2.386 . S
Sm368 O399 2.408 . S
Sm369 C379 2.846 . S
Sm369 O390 2.386 . S
Sm369 O393 2.408 . S
Sm369 O394 2.543 . S
Sm369 O395 2.450 . S
Sm369 O396 2.681 . S
Sm369 O397 2.464 . S
Sm369 O398 2.396 . S
C370 Sm368 2.846 . S
C370 C371 1.506 . S
C370 O388 1.261 . S
C370 O389 1.242 . S
C371 C370 1.506 . S
C371 C372 1.358 . S
C371 C376 1.382 . S
C372 C371 1.358 . S
C372 C373 1.385 . S
C372 H400 0.930 . S
C373 C372 1.385 . S
C373 C374 1.395 . S
C373 H401 0.929 . S
C374 C373 1.395 . S
C374 C375 1.335 . S
C375 C374 1.335 . S
C375 C376 1.398 . S
C375 H402 0.930 . S
C376 C371 1.382 . S
C376 C375 1.398 . S
C376 H403 0.929 . S
C377 O390 1.271 . S
C377 O391 1.251 . S
C378 O392 1.252 . S
C378 O393 1.272 . S
C379 Sm369 2.846 . S
C379 C380 1.506 . S
C379 O394 1.261 . S
C379 O395 1.242 . S
C380 C379 1.506 . S
C380 C381 1.358 . S
C380 C385 1.382 . S
C381 C380 1.358 . S
C381 C382 1.385 . S
C381 H404 0.930 . S
C382 C381 1.385 . S
C382 C383 1.395 . S
C382 H405 0.929 . S
C383 C382 1.395 . S
C383 C384 1.335 . S
C384 C383 1.335 . S
C384 C385 1.398 . S
C384 H406 0.930 . S
C385 C380 1.382 . S
C385 C384 1.398 . S
C385 H407 0.929 . S
C386 O396 1.271 . S
C386 O397 1.251 . S
C387 O398 1.252 . S
C387 O399 1.272 . S
O388 Sm368 2.543 . S
O388 C370 1.261 . S
O389 Sm368 2.450 . S
O389 C370 1.242 . S
O390 Sm368 2.681 . S
O390 Sm369 2.386 . S
O390 C377 1.271 . S
O391 Sm368 2.464 . S
O391 C377 1.251 . S
O392 Sm368 2.396 . S
O392 C378 1.252 . S
O393 Sm369 2.408 . S
O393 C378 1.272 . S
O394 Sm369 2.543 . S
O394 C379 1.261 . S
O395 Sm369 2.450 . S
O395 C379 1.242 . S
O396 Sm368 2.386 . S
O396 Sm369 2.681 . S
O396 C386 1.271 . S
O397 Sm369 2.464 . S
O397 C386 1.251 . S
O398 Sm369 2.396 . S
O398 C387 1.252 . S
O399 Sm368 2.408 . S
O399 C387 1.272 . S
H400 C372 0.930 . S
H401 C373 0.929 . S
H402 C375 0.930 . S
H403 C376 0.929 . S
H404 C381 0.930 . S
H405 C382 0.929 . S
H406 C384 0.930 . S
H407 C385 0.929 . S
Sm408 C410 2.846 . S
Sm408 O428 2.543 . S
Sm408 O429 2.450 . S
Sm408 O430 2.681 1_455 S
Sm408 O431 2.464 1_455 S
Sm408 O432 2.396 . S
Sm408 O436 2.386 1_554 S
Sm408 O439 2.408 1_454 S
Sm409 C419 2.832 1_455 S
Sm409 O430 2.382 1_456 S
Sm409 O433 2.423 1_556 S
Sm409 O434 2.526 1_455 S
Sm409 O435 2.441 1_455 S
Sm409 O436 2.690 . S
Sm409 O437 2.472 . S
Sm409 O438 2.386 1_455 S
C410 Sm408 2.846 . S
C410 C411 1.506 . S
C410 O428 1.261 . S
C410 O429 1.242 . S
C411 C410 1.506 . S
C411 C412 1.358 . S
C411 C416 1.382 . S
C412 C411 1.358 . S
C412 C413 1.385 . S
C412 H440 0.930 . S
C413 C412 1.385 . S
C413 C414 1.395 . S
C413 H441 0.929 . S
C414 C413 1.395 . S
C414 C415 1.335 . S
C415 C414 1.335 . S
C415 C416 1.398 . S
C415 H442 0.930 . S
C416 C411 1.382 . S
C416 C415 1.398 . S
C416 H443 0.929 . S
C417 O430 1.271 . S
C417 O431 1.251 . S
C418 O432 1.252 . S
C418 O433 1.272 . S
C419 Sm409 2.832 1_655 S
C419 C420 1.506 . S
C419 O434 1.261 . S
C419 O435 1.242 . S
C420 C419 1.506 . S
C420 C421 1.358 . S
C420 C425 1.382 . S
C421 C420 1.358 . S
C421 C422 1.385 . S
C421 H444 0.930 . S
C422 C421 1.385 . S
C422 C423 1.395 . S
C422 H445 0.929 . S
C423 C422 1.395 . S
C423 C424 1.335 . S
C424 C423 1.335 . S
C424 C425 1.398 . S
C424 H446 0.930 . S
C425 C420 1.382 . S
C425 C424 1.398 . S
C425 H447 0.929 . S
C426 O436 1.271 . S
C426 O437 1.251 . S
C427 O438 1.252 . S
C427 O439 1.272 . S
O428 Sm408 2.543 . S
O428 C410 1.261 . S
O429 Sm408 2.450 . S
O429 C410 1.242 . S
O430 Sm408 2.681 1_655 S
O430 Sm409 2.382 1_654 S
O430 C417 1.271 . S
O431 Sm408 2.464 1_655 S
O431 C417 1.251 . S
O432 Sm408 2.396 . S
O432 C418 1.252 . S
O433 Sm409 2.423 1_554 S
O433 C418 1.272 . S
O434 Sm409 2.526 1_655 S
O434 C419 1.261 . S
O435 Sm409 2.441 1_655 S
O435 C419 1.242 . S
O436 Sm408 2.386 1_556 S
O436 Sm409 2.690 . S
O436 C426 1.271 . S
O437 Sm409 2.472 . S
O437 C426 1.251 . S
O438 Sm409 2.386 1_655 S
O438 C427 1.252 . S
O439 Sm408 2.408 1_656 S
O439 C427 1.272 . S
H440 C412 0.930 . S
H441 C413 0.929 . S
H442 C415 0.930 . S
H443 C416 0.929 . S
H444 C421 0.930 . S
H445 C422 0.929 . S
H446 C424 0.930 . S
H447 C425 0.929 . S
H448 C454 0.930 . S
H449 C457 0.930 . S
H450 C458 0.930 . S
H451 C459 0.930 . S
H452 C462 0.930 . S
H453 C463 0.930 . S
C454 H448 0.930 . S
C454 C455 1.355 . S
C454 C456 1.415 . S
C455 C454 1.355 . S
C455 C457 1.419 . S
C456 C454 1.415 . S
C456 C461 1.425 . S
C456 C463 1.409 . S
C457 H449 0.930 . S
C457 C455 1.419 . S
C457 C458 1.362 . S
C458 H450 0.930 . S
C458 C457 1.362 . S
C458 C461 1.409 . S
C459 H451 0.930 . S
C459 C460 1.355 . S
C459 C461 1.415 . S
C460 C459 1.355 . S
C460 C462 1.419 . S
C461 C456 1.425 . S
C461 C458 1.409 . S
C461 C459 1.415 . S
C462 H452 0.930 . S
C462 C460 1.419 . S
C462 C463 1.362 . S
C463 H453 0.930 . S
C463 C456 1.409 . S
C463 C462 1.362 . S
H464 C470 0.930 . S
H465 C473 0.930 . S
H466 C474 0.930 . S
H467 C475 0.930 . S
H468 C478 0.930 . S
H469 C479 0.930 . S
C470 H464 0.930 . S
C470 C471 1.355 . S
C470 C472 1.415 . S
C471 C470 1.355 . S
C471 C473 1.419 . S
C472 C470 1.415 . S
C472 C477 1.425 . S
C472 C479 1.409 . S
C473 H465 0.930 . S
C473 C471 1.419 . S
C473 C474 1.362 . S
C474 H466 0.930 . S
C474 C473 1.362 . S
C474 C477 1.409 . S
C475 H467 0.930 . S
C475 C476 1.355 . S
C475 C477 1.415 . S
C476 C475 1.355 . S
C476 C478 1.419 . S
C477 C472 1.425 . S
C477 C474 1.409 . S
C477 C475 1.415 . S
C478 H468 0.930 . S
C478 C476 1.419 . S
C478 C479 1.362 . S
C479 H469 0.930 . S
C479 C472 1.409 . S
C479 C478 1.362 . S
H480 C486 0.930 . S
H481 C489 0.930 . S
H482 C490 0.930 . S
H483 C491 0.930 . S
H484 C494 0.930 . S
H485 C495 0.930 . S
C486 H480 0.930 . S
C486 C487 1.355 . S
C486 C488 1.415 . S
C487 C486 1.355 . S
C487 C489 1.419 . S
C488 C486 1.415 . S
C488 C493 1.425 . S
C488 C495 1.409 . S
C489 H481 0.930 . S
C489 C487 1.419 . S
C489 C490 1.362 . S
C490 H482 0.930 . S
C490 C489 1.362 . S
C490 C493 1.409 . S
C491 H483 0.930 . S
C491 C492 1.355 . S
C491 C493 1.415 . S
C492 C491 1.355 . S
C492 C494 1.419 . S
C493 C488 1.425 . S
C493 C490 1.409 . S
C493 C491 1.415 . S
C494 H484 0.930 . S
C494 C492 1.419 . S
C494 C495 1.362 . S
C495 H485 0.930 . S
C495 C488 1.409 . S
C495 C494 1.362 . S
H496 C502 0.930 . S
H497 C505 0.930 . S
H498 C506 0.930 . S
H499 C507 0.930 . S
H500 C510 0.930 . S
H501 C511 0.930 . S
C502 H496 0.930 . S
C502 C503 1.355 . S
C502 C504 1.415 . S
C503 C502 1.355 . S
C503 C505 1.419 . S
C504 C502 1.415 . S
C504 C509 1.425 . S
C504 C511 1.409 . S
C505 H497 0.930 . S
C505 C503 1.419 . S
C505 C506 1.362 . S
C506 H498 0.930 . S
C506 C505 1.362 . S
C506 C509 1.409 . S
C507 H499 0.930 . S
C507 C508 1.355 . S
C507 C509 1.415 . S
C508 C507 1.355 . S
C508 C510 1.419 . S
C509 C504 1.425 . S
C509 C506 1.409 . S
C509 C507 1.415 . S
C510 H500 0.930 . S
C510 C508 1.419 . S
C510 C511 1.362 . S
C511 H501 0.930 . S
C511 C504 1.409 . S
C511 C510 1.362 . S
H512 C518 0.930 . S
H513 C521 0.930 . S
H514 C522 0.930 . S
H515 C523 0.930 . S
H516 C526 0.930 . S
H517 C527 0.930 . S
C518 H512 0.930 . S
C518 C519 1.355 . S
C518 C520 1.415 . S
C519 C518 1.355 . S
C519 C521 1.419 . S
C520 C518 1.415 . S
C520 C525 1.425 . S
C520 C527 1.409 . S
C521 H513 0.930 . S
C521 C519 1.419 . S
C521 C522 1.362 . S
C522 H514 0.930 . S
C522 C521 1.362 . S
C522 C525 1.409 . S
C523 H515 0.930 . S
C523 C524 1.355 . S
C523 C525 1.415 . S
C524 C523 1.355 . S
C524 C526 1.419 . S
C525 C520 1.425 . S
C525 C522 1.409 . S
C525 C523 1.415 . S
C526 H516 0.930 . S
C526 C524 1.419 . S
C526 C527 1.362 . S
C527 H517 0.930 . S
C527 C520 1.409 . S
C527 C526 1.362 . S
H528 C534 0.930 . S
H529 C537 0.930 . S
H530 C538 0.930 . S
H531 C539 0.930 . S
H532 C542 0.930 . S
H533 C543 0.930 . S
C534 H528 0.930 . S
C534 C535 1.355 . S
C534 C536 1.415 . S
C535 C534 1.355 . S
C535 C537 1.419 . S
C536 C534 1.415 . S
C536 C541 1.425 . S
C536 C543 1.409 . S
C537 H529 0.930 . S
C537 C535 1.419 . S
C537 C538 1.362 . S
C538 H530 0.930 . S
C538 C537 1.362 . S
C538 C541 1.409 . S
C539 H531 0.930 . S
C539 C540 1.355 . S
C539 C541 1.415 . S
C540 C539 1.355 . S
C540 C542 1.419 . S
C541 C536 1.425 . S
C541 C538 1.409 . S
C541 C539 1.415 . S
C542 H532 0.930 . S
C542 C540 1.419 . S
C542 C543 1.362 . S
C543 H533 0.930 . S
C543 C536 1.409 . S
C543 C542 1.362 . S
H544 C550 0.930 . S
H545 C553 0.930 . S
H546 C554 0.930 . S
H547 C555 0.930 . S
H548 C558 0.930 . S
H549 C559 0.930 . S
C550 H544 0.930 . S
C550 C551 1.355 . S
C550 C552 1.415 . S
C551 C550 1.355 . S
C551 C553 1.419 . S
C552 C550 1.415 . S
C552 C557 1.425 . S
C552 C559 1.409 . S
C553 H545 0.930 . S
C553 C551 1.419 . S
C553 C554 1.362 . S
C554 H546 0.930 . S
C554 C553 1.362 . S
C554 C557 1.409 . S
C555 H547 0.930 . S
C555 C556 1.355 . S
C555 C557 1.415 . S
C556 C555 1.355 . S
C556 C558 1.419 . S
C557 C552 1.425 . S
C557 C554 1.409 . S
C557 C555 1.415 . S
C558 H548 0.930 . S
C558 C556 1.419 . S
C558 C559 1.362 . S
C559 H549 0.930 . S
C559 C552 1.409 . S
C559 C558 1.362 . S
H560 C566 0.930 . S
H561 C569 0.930 . S
H562 C570 0.930 . S
H563 C571 0.930 . S
H564 C574 0.930 . S
H565 C575 0.930 . S
C566 H560 0.930 . S
C566 C567 1.355 . S
C566 C568 1.415 . S
C567 C566 1.355 . S
C567 C569 1.419 . S
C568 C566 1.415 . S
C568 C573 1.425 . S
C568 C575 1.409 . S
C569 H561 0.930 . S
C569 C567 1.419 . S
C569 C570 1.362 . S
C570 H562 0.930 . S
C570 C569 1.362 . S
C570 C573 1.409 . S
C571 H563 0.930 . S
C571 C572 1.355 . S
C571 C573 1.415 . S
C572 C571 1.355 . S
C572 C574 1.419 . S
C573 C568 1.425 . S
C573 C570 1.409 . S
C573 C571 1.415 . S
C574 H564 0.930 . S
C574 C572 1.419 . S
C574 C575 1.362 . S
C575 H565 0.930 . S
C575 C568 1.409 . S
C575 C574 1.362 . S
H576 C582 0.930 . S
H577 C585 0.930 . S
H578 C586 0.930 . S
H579 C587 0.930 . S
H580 C590 0.930 . S
H581 C591 0.930 . S
C582 H576 0.930 . S
C582 C583 1.355 . S
C582 C584 1.415 . S
C583 C582 1.355 . S
C583 C585 1.419 . S
C584 C582 1.415 . S
C584 C589 1.425 . S
C584 C591 1.409 . S
C585 H577 0.930 . S
C585 C583 1.419 . S
C585 C586 1.362 . S
C586 H578 0.930 . S
C586 C585 1.362 . S
C586 C589 1.409 . S
C587 H579 0.930 . S
C587 C588 1.355 . S
C587 C589 1.415 . S
C588 C587 1.355 . S
C588 C590 1.419 . S
C589 C584 1.425 . S
C589 C586 1.409 . S
C589 C587 1.415 . S
C590 H580 0.930 . S
C590 C588 1.419 . S
C590 C591 1.362 . S
C591 H581 0.930 . S
C591 C584 1.409 . S
C591 C590 1.362 . S
H592 C598 0.930 . S
H593 C601 0.930 . S
H594 C602 0.930 . S
H595 C603 0.930 . S
H596 C606 0.930 . S
H597 C607 0.930 . S
C598 H592 0.930 . S
C598 C599 1.355 . S
C598 C600 1.415 . S
C599 C598 1.355 . S
C599 C601 1.419 . S
C600 C598 1.415 . S
C600 C605 1.425 . S
C600 C607 1.409 . S
C601 H593 0.930 . S
C601 C599 1.419 . S
C601 C602 1.362 . S
C602 H594 0.930 . S
C602 C601 1.362 . S
C602 C605 1.409 . S
C603 H595 0.930 . S
C603 C604 1.355 . S
C603 C605 1.415 . S
C604 C603 1.355 . S
C604 C606 1.419 . S
C605 C600 1.425 . S
C605 C602 1.409 . S
C605 C603 1.415 . S
C606 H596 0.930 . S
C606 C604 1.419 . S
C606 C607 1.362 . S
C607 H597 0.930 . S
C607 C600 1.409 . S
C607 C606 1.362 . S
H608 C614 0.930 . S
H609 C617 0.930 . S
H610 C618 0.930 . S
H611 C619 0.930 . S
H612 C622 0.930 . S
H613 C623 0.930 . S
C614 H608 0.930 . S
C614 C615 1.355 . S
C614 C616 1.415 . S
C615 C614 1.355 . S
C615 C617 1.419 . S
C616 C614 1.415 . S
C616 C621 1.425 . S
C616 C623 1.409 . S
C617 H609 0.930 . S
C617 C615 1.419 . S
C617 C618 1.362 . S
C618 H610 0.930 . S
C618 C617 1.362 . S
C618 C621 1.409 . S
C619 H611 0.930 . S
C619 C620 1.355 . S
C619 C621 1.415 . S
C620 C619 1.355 . S
C620 C622 1.419 . S
C621 C616 1.425 . S
C621 C618 1.409 . S
C621 C619 1.415 . S
C622 H612 0.930 . S
C622 C620 1.419 . S
C622 C623 1.362 . S
C623 H613 0.930 . S
C623 C616 1.409 . S
C623 C622 1.362 . S
H624 C630 0.930 . S
H625 C633 0.930 . S
H626 C634 0.930 . S
H627 C635 0.930 . S
H628 C638 0.930 . S
H629 C639 0.930 . S
C630 H624 0.930 . S
C630 C631 1.355 . S
C630 C632 1.415 . S
C631 C630 1.355 . S
C631 C633 1.419 . S
C632 C630 1.415 . S
C632 C637 1.425 . S
C632 C639 1.409 . S
C633 H625 0.930 . S
C633 C631 1.419 . S
C633 C634 1.362 . S
C634 H626 0.930 . S
C634 C633 1.362 . S
C634 C637 1.409 . S
C635 H627 0.930 . S
C635 C636 1.355 . S
C635 C637 1.415 . S
C636 C635 1.355 . S
C636 C638 1.419 . S
C637 C632 1.425 . S
C637 C634 1.409 . S
C637 C635 1.415 . S
C638 H628 0.930 . S
C638 C636 1.419 . S
C638 C639 1.362 . S
C639 H629 0.930 . S
C639 C632 1.409 . S
C639 C638 1.362 . S
H640 C646 0.930 . S
H641 C649 0.930 . S
H642 C650 0.930 . S
H643 C651 0.930 . S
H644 C654 0.930 . S
H645 C655 0.930 . S
C646 H640 0.930 . S
C646 C647 1.355 . S
C646 C648 1.415 . S
C647 C646 1.355 . S
C647 C649 1.419 . S
C648 C646 1.415 . S
C648 C653 1.425 . S
C648 C655 1.409 . S
C649 H641 0.930 . S
C649 C647 1.419 . S
C649 C650 1.362 . S
C650 H642 0.930 . S
C650 C649 1.362 . S
C650 C653 1.409 . S
C651 H643 0.930 . S
C651 C652 1.355 . S
C651 C653 1.415 . S
C652 C651 1.355 . S
C652 C654 1.419 . S
C653 C648 1.425 . S
C653 C650 1.409 . S
C653 C651 1.415 . S
C654 H644 0.930 . S
C654 C652 1.419 . S
C654 C655 1.362 . S
C655 H645 0.930 . S
C655 C648 1.409 . S
C655 C654 1.362 . S
H656 C662 0.930 . S
H657 C665 0.930 . S
H658 C666 0.930 . S
H659 C667 0.930 . S
H660 C670 0.930 . S
H661 C671 0.930 . S
C662 H656 0.930 . S
C662 C663 1.355 . S
C662 C664 1.415 . S
C663 C662 1.355 . S
C663 C665 1.419 . S
C664 C662 1.415 . S
C664 C669 1.425 . S
C664 C671 1.409 . S
C665 H657 0.930 . S
C665 C663 1.419 . S
C665 C666 1.362 . S
C666 H658 0.930 . S
C666 C665 1.362 . S
C666 C669 1.409 . S
C667 H659 0.930 . S
C667 C668 1.355 . S
C667 C669 1.415 . S
C668 C667 1.355 . S
C668 C670 1.419 . S
C669 C664 1.425 . S
C669 C666 1.409 . S
C669 C667 1.415 . S
C670 H660 0.930 . S
C670 C668 1.419 . S
C670 C671 1.362 . S
C671 H661 0.930 . S
C671 C664 1.409 . S
C671 C670 1.362 . S
H672 C678 0.930 . S
H673 C681 0.930 . S
H674 C682 0.930 . S
H675 C683 0.930 . S
H676 C686 0.930 . S
H677 C687 0.930 . S
C678 H672 0.930 . S
C678 C679 1.355 . S
C678 C680 1.415 . S
C679 C678 1.355 . S
C679 C681 1.419 . S
C680 C678 1.415 . S
C680 C685 1.425 . S
C680 C687 1.409 . S
C681 H673 0.930 . S
C681 C679 1.419 . S
C681 C682 1.362 . S
C682 H674 0.930 . S
C682 C681 1.362 . S
C682 C685 1.409 . S
C683 H675 0.930 . S
C683 C684 1.355 . S
C683 C685 1.415 . S
C684 C683 1.355 . S
C684 C686 1.419 . S
C685 C680 1.425 . S
C685 C682 1.409 . S
C685 C683 1.415 . S
C686 H676 0.930 . S
C686 C684 1.419 . S
C686 C687 1.362 . S
C687 H677 0.930 . S
C687 C680 1.409 . S
C687 C686 1.362 . S
H688 C694 0.930 . S
H689 C697 0.930 . S
H690 C698 0.930 . S
H691 C699 0.930 . S
H692 C702 0.930 . S
H693 C703 0.930 . S
C694 H688 0.930 . S
C694 C695 1.355 . S
C694 C696 1.415 . S
C695 C694 1.355 . S
C695 C697 1.419 . S
C696 C694 1.415 . S
C696 C701 1.425 . S
C696 C703 1.409 . S
C697 H689 0.930 . S
C697 C695 1.419 . S
C697 C698 1.362 . S
C698 H690 0.930 . S
C698 C697 1.362 . S
C698 C701 1.409 . S
C699 H691 0.930 . S
C699 C700 1.355 . S
C699 C701 1.415 . S
C700 C699 1.355 . S
C700 C702 1.419 . S
C701 C696 1.425 . S
C701 C698 1.409 . S
C701 C699 1.415 . S
C702 H692 0.930 . S
C702 C700 1.419 . S
C702 C703 1.362 . S
C703 H693 0.930 . S
C703 C696 1.409 . S
C703 C702 1.362 . S
H704 C710 0.930 . S
H705 C713 0.930 . S
H706 C714 0.930 . S
H707 C715 0.930 . S
H708 C718 0.930 . S
H709 C719 0.930 . S
C710 H704 0.930 . S
C710 C711 1.355 . S
C710 C712 1.415 . S
C711 C710 1.355 . S
C711 C713 1.419 . S
C712 C710 1.415 . S
C712 C717 1.425 . S
C712 C719 1.409 . S
C713 H705 0.930 . S
C713 C711 1.419 . S
C713 C714 1.362 . S
C714 H706 0.930 . S
C714 C713 1.362 . S
C714 C717 1.409 . S
C715 H707 0.930 . S
C715 C716 1.355 . S
C715 C717 1.415 . S
C716 C715 1.355 . S
C716 C718 1.419 . S
C717 C712 1.425 . S
C717 C714 1.409 . S
C717 C715 1.415 . S
C718 H708 0.930 . S
C718 C716 1.419 . S
C718 C719 1.362 . S
C719 H709 0.930 . S
C719 C712 1.409 . S
C719 C718 1.362 . S
H720 C726 0.930 . S
H721 C729 0.930 . S
H722 C730 0.930 . S
H723 C731 0.930 . S
H724 C734 0.930 . S
H725 C735 0.930 . S
C726 H720 0.930 . S
C726 C727 1.355 . S
C726 C728 1.415 . S
C727 C726 1.355 . S
C727 C729 1.419 . S
C728 C726 1.415 . S
C728 C733 1.425 . S
C728 C735 1.409 . S
C729 H721 0.930 . S
C729 C727 1.419 . S
C729 C730 1.362 . S
C730 H722 0.930 . S
C730 C729 1.362 . S
C730 C733 1.409 . S
C731 H723 0.930 . S
C731 C732 1.355 . S
C731 C733 1.415 . S
C732 C731 1.355 . S
C732 C734 1.419 . S
C733 C728 1.425 . S
C733 C730 1.409 . S
C733 C731 1.415 . S
C734 H724 0.930 . S
C734 C732 1.419 . S
C734 C735 1.362 . S
C735 H725 0.930 . S
C735 C728 1.409 . S
C735 C734 1.362 . S
H736 C742 0.930 . S
H737 C745 0.930 . S
H738 C746 0.930 . S
H739 C747 0.930 . S
H740 C750 0.930 . S
H741 C751 0.930 . S
C742 H736 0.930 . S
C742 C743 1.355 . S
C742 C744 1.415 . S
C743 C742 1.355 . S
C743 C745 1.419 . S
C744 C742 1.415 . S
C744 C749 1.425 . S
C744 C751 1.409 . S
C745 H737 0.930 . S
C745 C743 1.419 . S
C745 C746 1.362 . S
C746 H738 0.930 . S
C746 C745 1.362 . S
C746 C749 1.409 . S
C747 H739 0.930 . S
C747 C748 1.355 . S
C747 C749 1.415 . S
C748 C747 1.355 . S
C748 C750 1.419 . S
C749 C744 1.425 . S
C749 C746 1.409 . S
C749 C747 1.415 . S
C750 H740 0.930 . S
C750 C748 1.419 . S
C750 C751 1.362 . S
C751 H741 0.930 . S
C751 C744 1.409 . S
C751 C750 1.362 . S
H752 C758 0.930 . S
H753 C761 0.930 . S
H754 C762 0.930 . S
H755 C763 0.930 . S
H756 C766 0.930 . S
H757 C767 0.930 . S
C758 H752 0.930 . S
C758 C759 1.355 . S
C758 C760 1.415 . S
C759 C758 1.355 . S
C759 C761 1.419 . S
C760 C758 1.415 . S
C760 C765 1.425 . S
C760 C767 1.409 . S
C761 H753 0.930 . S
C761 C759 1.419 . S
C761 C762 1.362 . S
C762 H754 0.930 . S
C762 C761 1.362 . S
C762 C765 1.409 . S
C763 H755 0.930 . S
C763 C764 1.355 . S
C763 C765 1.415 . S
C764 C763 1.355 . S
C764 C766 1.419 . S
C765 C760 1.425 . S
C765 C762 1.409 . S
C765 C763 1.415 . S
C766 H756 0.930 . S
C766 C764 1.419 . S
C766 C767 1.362 . S
C767 H757 0.930 . S
C767 C760 1.409 . S
C767 C766 1.362 . S
H768 C774 0.930 . S
H769 C777 0.930 . S
H770 C778 0.930 . S
H771 C779 0.930 . S
H772 C782 0.930 . S
H773 C783 0.930 . S
C774 H768 0.930 . S
C774 C775 1.355 . S
C774 C776 1.415 . S
C775 C774 1.355 . S
C775 C777 1.419 . S
C776 C774 1.415 . S
C776 C781 1.425 . S
C776 C783 1.409 . S
C777 H769 0.930 . S
C777 C775 1.419 . S
C777 C778 1.362 . S
C778 H770 0.930 . S
C778 C777 1.362 . S
C778 C781 1.409 . S
C779 H771 0.930 . S
C779 C780 1.355 . S
C779 C781 1.415 . S
C780 C779 1.355 . S
C780 C782 1.419 . S
C781 C776 1.425 . S
C781 C778 1.409 . S
C781 C779 1.415 . S
C782 H772 0.930 . S
C782 C780 1.419 . S
C782 C783 1.362 . S
C783 H773 0.930 . S
C783 C776 1.409 . S
C783 C782 1.362 . S
H784 C790 0.930 . S
H785 C793 0.930 . S
H786 C794 0.930 . S
H787 C795 0.930 . S
H788 C798 0.930 . S
H789 C799 0.930 . S
C790 H784 0.930 . S
C790 C791 1.355 . S
C790 C792 1.415 . S
C791 C790 1.355 . S
C791 C793 1.419 . S
C792 C790 1.415 . S
C792 C797 1.425 . S
C792 C799 1.409 . S
C793 H785 0.930 . S
C793 C791 1.419 . S
C793 C794 1.362 . S
C794 H786 0.930 . S
C794 C793 1.362 . S
C794 C797 1.409 . S
C795 H787 0.930 . S
C795 C796 1.355 . S
C795 C797 1.415 . S
C796 C795 1.355 . S
C796 C798 1.419 . S
C797 C792 1.425 . S
C797 C794 1.409 . S
C797 C795 1.415 . S
C798 H788 0.930 . S
C798 C796 1.419 . S
C798 C799 1.362 . S
C799 H789 0.930 . S
C799 C792 1.409 . S
C799 C798 1.362 . S
H800 C806 0.930 . S
H801 C809 0.930 . S
H802 C810 0.930 . S
H803 C811 0.930 . S
H804 C814 0.930 . S
H805 C815 0.930 . S
C806 H800 0.930 . S
C806 C807 1.355 . S
C806 C808 1.415 . S
C807 C806 1.355 . S
C807 C809 1.419 . S
C808 C806 1.415 . S
C808 C813 1.425 . S
C808 C815 1.409 . S
C809 H801 0.930 . S
C809 C807 1.419 . S
C809 C810 1.362 . S
C810 H802 0.930 . S
C810 C809 1.362 . S
C810 C813 1.409 . S
C811 H803 0.930 . S
C811 C812 1.355 . S
C811 C813 1.415 . S
C812 C811 1.355 . S
C812 C814 1.419 . S
C813 C808 1.425 . S
C813 C810 1.409 . S
C813 C811 1.415 . S
C814 H804 0.930 . S
C814 C812 1.419 . S
C814 C815 1.362 . S
C815 H805 0.930 . S
C815 C808 1.409 . S
C815 C814 1.362 . S
H816 C822 0.930 . S
H817 C825 0.930 . S
H818 C826 0.930 . S
H819 C827 0.930 . S
H820 C830 0.930 . S
H821 C831 0.930 . S
C822 H816 0.930 . S
C822 C823 1.355 . S
C822 C824 1.415 . S
C823 C822 1.355 . S
C823 C825 1.419 . S
C824 C822 1.415 . S
C824 C829 1.425 . S
C824 C831 1.409 . S
C825 H817 0.930 . S
C825 C823 1.419 . S
C825 C826 1.362 . S
C826 H818 0.930 . S
C826 C825 1.362 . S
C826 C829 1.409 . S
C827 H819 0.930 . S
C827 C828 1.355 . S
C827 C829 1.415 . S
C828 C827 1.355 . S
C828 C830 1.419 . S
C829 C824 1.425 . S
C829 C826 1.409 . S
C829 C827 1.415 . S
C830 H820 0.930 . S
C830 C828 1.419 . S
C830 C831 1.362 . S
C831 H821 0.930 . S
C831 C824 1.409 . S
C831 C830 1.362 . S
C455 C1 1.262 . S
C460 C294 1.320 . S
C471 C67 1.000 . S
C476 C343 1.009 . S
C492 C378 2.453 . S
C487 C97 2.493 . S
C503 C133 2.428 . S
C508 C417 2.387 . S
C524 C338 2.517 . S
C519 C25 2.391 . S
C540 C297 0.817 . S
C535 C37 0.826 . S
C556 C427 1.932 . S
C551 C103 1.959 . S
C572 C386 1.642 . S
C567 C109 1.676 . S
C583 C31 1.714 . S
C588 C414 1.765 . S
C604 C346 2.331 . S
C599 C73 2.401 . S
C615 C139 2.355 . S
C620 C307 2.340 . S
C631 C61 0.963 . S
C636 C383 0.973 . S
C652 C303 1.301 . S
C647 C175 1.249 . S
C663 C181 1.025 . S
C668 C334 1.032 . S
C679 C247 2.526 . S
C684 C387 2.466 . S
C695 C277 2.418 . S
C700 C426 2.335 . S
C711 C145 2.299 . S
C716 C347 2.511 . S
C732 C306 0.832 . S
C727 C211 0.824 . S
C748 C418 1.904 . S
C743 C217 1.945 . S
C764 C377 1.670 . S
C759 C283 1.692 . S
C775 C169 1.623 . S
C780 C423 1.745 . S
C796 C337 2.303 . S
C791 C241 2.409 . S
C812 C298 2.343 . S
C807 C253 2.348 . S
C823 C205 0.910 . S
C828 C374 0.911 . S
