# Generated by pormake.
# Topology eea, (3,6)-cn, num edge types: 1
# Building blocks:
#     Node 0, Type 0, BuildingBlock: MIDCAF_clean_linker_0, # of connection points: 3
#     Node 1, Type 0, BuildingBlock: MIDCAF_clean_linker_0, # of connection points: 3
#     Node 2, Type 0, BuildingBlock: MIDCAF_clean_linker_0, # of connection points: 3
#     Node 3, Type 0, BuildingBlock: MIDCAF_clean_linker_0, # of connection points: 3
#     Node 4, Type 0, BuildingBlock: MIDCAF_clean_linker_0, # of connection points: 3
#     Node 5, Type 0, BuildingBlock: MIDCAF_clean_linker_0, # of connection points: 3
#     Node 6, Type 0, BuildingBlock: MIDCAF_clean_linker_0, # of connection points: 3
#     Node 7, Type 0, BuildingBlock: MIDCAF_clean_linker_0, # of connection points: 3
#     Node 8, Type 0, BuildingBlock: MIDCAF_clean_linker_0, # of connection points: 3
#     Node 9, Type 0, BuildingBlock: MIDCAF_clean_linker_0, # of connection points: 3
#     Node 10, Type 0, BuildingBlock: MIDCAF_clean_linker_0, # of connection points: 3
#     Node 11, Type 0, BuildingBlock: MIDCAF_clean_linker_0, # of connection points: 3
#     Node 12, Type 0, BuildingBlock: MIDCAF_clean_linker_0, # of connection points: 3
#     Node 13, Type 0, BuildingBlock: MIDCAF_clean_linker_0, # of connection points: 3
#     Node 14, Type 0, BuildingBlock: MIDCAF_clean_linker_0, # of connection points: 3
#     Node 15, Type 0, BuildingBlock: MIDCAF_clean_linker_0, # of connection points: 3
#     Node 16, Type 0, BuildingBlock: MIDCAF_clean_linker_0, # of connection points: 3
#     Node 17, Type 0, BuildingBlock: MIDCAF_clean_linker_0, # of connection points: 3
#     Node 18, Type 1, BuildingBlock: CUWYAW_clean_sbu_0, # of connection points: 6
#     Node 19, Type 1, BuildingBlock: CUWYAW_clean_sbu_0, # of connection points: 6
#     Node 20, Type 1, BuildingBlock: CUWYAW_clean_sbu_0, # of connection points: 6
#     Node 21, Type 1, BuildingBlock: CUWYAW_clean_sbu_0, # of connection points: 6
#     Node 22, Type 1, BuildingBlock: CUWYAW_clean_sbu_0, # of connection points: 6
#     Node 23, Type 1, BuildingBlock: CUWYAW_clean_sbu_0, # of connection points: 6
#     Node 24, Type 1, BuildingBlock: CUWYAW_clean_sbu_0, # of connection points: 6
#     Node 25, Type 1, BuildingBlock: CUWYAW_clean_sbu_0, # of connection points: 6
#     Node 26, Type 1, BuildingBlock: CUWYAW_clean_sbu_0, # of connection points: 6
#     Edge 27, Type (0, 1), BuildingBlock: ZUJKAS_clean_linker_0, # of connection points: 2
#     Edge 28, Type (0, 1), BuildingBlock: ZUJKAS_clean_linker_0, # of connection points: 2
#     Edge 29, Type (0, 1), BuildingBlock: ZUJKAS_clean_linker_0, # of connection points: 2
#     Edge 30, Type (0, 1), BuildingBlock: ZUJKAS_clean_linker_0, # of connection points: 2
#     Edge 31, Type (0, 1), BuildingBlock: ZUJKAS_clean_linker_0, # of connection points: 2
#     Edge 32, Type (0, 1), BuildingBlock: ZUJKAS_clean_linker_0, # of connection points: 2
#     Edge 33, Type (0, 1), BuildingBlock: ZUJKAS_clean_linker_0, # of connection points: 2
#     Edge 34, Type (0, 1), BuildingBlock: ZUJKAS_clean_linker_0, # of connection points: 2
#     Edge 35, Type (0, 1), BuildingBlock: ZUJKAS_clean_linker_0, # of connection points: 2
#     Edge 36, Type (0, 1), BuildingBlock: ZUJKAS_clean_linker_0, # of connection points: 2
#     Edge 37, Type (0, 1), BuildingBlock: ZUJKAS_clean_linker_0, # of connection points: 2
#     Edge 38, Type (0, 1), BuildingBlock: ZUJKAS_clean_linker_0, # of connection points: 2
#     Edge 39, Type (0, 1), BuildingBlock: ZUJKAS_clean_linker_0, # of connection points: 2
#     Edge 40, Type (0, 1), BuildingBlock: ZUJKAS_clean_linker_0, # of connection points: 2
#     Edge 41, Type (0, 1), BuildingBlock: ZUJKAS_clean_linker_0, # of connection points: 2
#     Edge 42, Type (0, 1), BuildingBlock: ZUJKAS_clean_linker_0, # of connection points: 2
#     Edge 43, Type (0, 1), BuildingBlock: ZUJKAS_clean_linker_0, # of connection points: 2
#     Edge 44, Type (0, 1), BuildingBlock: ZUJKAS_clean_linker_0, # of connection points: 2
#     Edge 45, Type (0, 1), BuildingBlock: ZUJKAS_clean_linker_0, # of connection points: 2
#     Edge 46, Type (0, 1), BuildingBlock: ZUJKAS_clean_linker_0, # of connection points: 2
#     Edge 47, Type (0, 1), BuildingBlock: ZUJKAS_clean_linker_0, # of connection points: 2
#     Edge 48, Type (0, 1), BuildingBlock: ZUJKAS_clean_linker_0, # of connection points: 2
#     Edge 49, Type (0, 1), BuildingBlock: ZUJKAS_clean_linker_0, # of connection points: 2
#     Edge 50, Type (0, 1), BuildingBlock: ZUJKAS_clean_linker_0, # of connection points: 2
#     Edge 51, Type (0, 1), BuildingBlock: ZUJKAS_clean_linker_0, # of connection points: 2
#     Edge 52, Type (0, 1), BuildingBlock: ZUJKAS_clean_linker_0, # of connection points: 2
#     Edge 53, Type (0, 1), BuildingBlock: ZUJKAS_clean_linker_0, # of connection points: 2
#     Edge 54, Type (0, 1), BuildingBlock: ZUJKAS_clean_linker_0, # of connection points: 2
#     Edge 55, Type (0, 1), BuildingBlock: ZUJKAS_clean_linker_0, # of connection points: 2
#     Edge 56, Type (0, 1), BuildingBlock: ZUJKAS_clean_linker_0, # of connection points: 2
#     Edge 57, Type (0, 1), BuildingBlock: ZUJKAS_clean_linker_0, # of connection points: 2
#     Edge 58, Type (0, 1), BuildingBlock: ZUJKAS_clean_linker_0, # of connection points: 2
#     Edge 59, Type (0, 1), BuildingBlock: ZUJKAS_clean_linker_0, # of connection points: 2
#     Edge 60, Type (0, 1), BuildingBlock: ZUJKAS_clean_linker_0, # of connection points: 2
#     Edge 61, Type (0, 1), BuildingBlock: ZUJKAS_clean_linker_0, # of connection points: 2
#     Edge 62, Type (0, 1), BuildingBlock: ZUJKAS_clean_linker_0, # of connection points: 2
#     Edge 63, Type (0, 1), BuildingBlock: ZUJKAS_clean_linker_0, # of connection points: 2
#     Edge 64, Type (0, 1), BuildingBlock: ZUJKAS_clean_linker_0, # of connection points: 2
#     Edge 65, Type (0, 1), BuildingBlock: ZUJKAS_clean_linker_0, # of connection points: 2
#     Edge 66, Type (0, 1), BuildingBlock: ZUJKAS_clean_linker_0, # of connection points: 2
#     Edge 67, Type (0, 1), BuildingBlock: ZUJKAS_clean_linker_0, # of connection points: 2
#     Edge 68, Type (0, 1), BuildingBlock: ZUJKAS_clean_linker_0, # of connection points: 2
#     Edge 69, Type (0, 1), BuildingBlock: ZUJKAS_clean_linker_0, # of connection points: 2
#     Edge 70, Type (0, 1), BuildingBlock: ZUJKAS_clean_linker_0, # of connection points: 2
#     Edge 71, Type (0, 1), BuildingBlock: ZUJKAS_clean_linker_0, # of connection points: 2
#     Edge 72, Type (0, 1), BuildingBlock: ZUJKAS_clean_linker_0, # of connection points: 2
#     Edge 73, Type (0, 1), BuildingBlock: ZUJKAS_clean_linker_0, # of connection points: 2
#     Edge 74, Type (0, 1), BuildingBlock: ZUJKAS_clean_linker_0, # of connection points: 2
#     Edge 75, Type (0, 1), BuildingBlock: ZUJKAS_clean_linker_0, # of connection points: 2
#     Edge 76, Type (0, 1), BuildingBlock: ZUJKAS_clean_linker_0, # of connection points: 2
#     Edge 77, Type (0, 1), BuildingBlock: ZUJKAS_clean_linker_0, # of connection points: 2
#     Edge 78, Type (0, 1), BuildingBlock: ZUJKAS_clean_linker_0, # of connection points: 2
#     Edge 79, Type (0, 1), BuildingBlock: ZUJKAS_clean_linker_0, # of connection points: 2
#     Edge 80, Type (0, 1), BuildingBlock: ZUJKAS_clean_linker_0, # of connection points: 2
# Relax obj value: 0.035
# Max RMSD: 0.135
# Mean RMSD: 0.067
data_MOF--net-eea--node1-CUWYAW_clean_sbu_0--node2-MIDCAF_clean_linker_0--edge1-ZUJKAS_clean_linker_0
_symmetry_space_group_name_H-M    P1
_symmetry_Int_Tables_number       1
_symmetry_cell_setting            triclinic
loop_
_symmetry_equiv_pos_as_xyz
'x, y, z'
_cell_length_a     77.743107
_cell_length_b     77.536265
_cell_length_c     108.46379
_cell_angle_alpha  93.449382
_cell_angle_beta   93.466457
_cell_angle_gamma 119.80828
loop_
_atom_site_label
_atom_site_type_symbol
_atom_site_fract_x
_atom_site_fract_y
_atom_site_fract_z
_atom_type_partial_charge
C0 C 0.26686 0.07422 0.3981 0.0
C1 C 0.25671 0.06849 0.38609 0.0
C2 C 0.25331 0.08227 0.38011 0.0
C3 C 0.2594 0.10114 0.38614 0.0
H4 H 0.25374 0.14998 0.38274 0.0
H5 H 0.24206 0.17061 0.37351 0.0
H6 H 0.26532 0.21192 0.40683 0.0
H7 H 0.2773 0.19148 0.41608 0.0
H8 H 0.28672 0.1759 0.44087 0.0
H9 H 0.29647 0.18061 0.46311 0.0
H10 H 0.31212 0.13449 0.45885 0.0
H11 H 0.30184 0.12935 0.4367 0.0
H12 H 0.28033 0.09679 0.4135 0.0
H13 H 0.26955 0.06389 0.40301 0.0
H14 H 0.2458 0.07841 0.37078 0.0
H15 H 0.25622 0.11122 0.38131 0.0
N16 N 0.26918 0.13863 0.39968 0.0
N17 N 0.28066 0.16026 0.4181 0.0
N18 N 0.28212 0.13074 0.41711 0.0
C19 C 0.27255 0.15582 0.40608 0.0
C20 C 0.28557 0.14783 0.42367 0.0
C21 C 0.27396 0.12602 0.40511 0.0
C22 C 0.2664 0.16897 0.40021 0.0
C23 C 0.25651 0.16351 0.38811 0.0
C24 C 0.24969 0.17527 0.38282 0.0
C25 C 0.25264 0.19281 0.38947 0.0
C26 C 0.26295 0.19856 0.40143 0.0
C27 C 0.26972 0.18676 0.40676 0.0
C28 C 0.29329 0.15209 0.43699 0.0
C29 C 0.2924 0.16687 0.44465 0.0
C30 C 0.29809 0.16965 0.45742 0.0
C31 C 0.30491 0.1578 0.4628 0.0
C32 C 0.30652 0.14357 0.45506 0.0
C33 C 0.30072 0.1407 0.44232 0.0
C34 C 0.269 0.10667 0.39831 0.0
C35 C 0.27294 0.09308 0.40414 0.0
C36 C 0.94404 0.1986 0.41157 0.0
C37 C 0.9482 0.19384 0.39982 0.0
C38 C 0.93398 0.17592 0.3928 0.0
C39 C 0.91612 0.16298 0.39745 0.0
H40 H 0.86553 0.10867 0.389 0.0
H41 H 0.84275 0.07624 0.37755 0.0
H42 H 0.80567 0.06014 0.40775 0.0
H43 H 0.82813 0.09262 0.41913 0.0
H44 H 0.8411 0.12078 0.44322 0.0
H45 H 0.8357 0.12664 0.46448 0.0
H46 H 0.89035 0.18369 0.46867 0.0
H47 H 0.89609 0.17767 0.44738 0.0
H48 H 0.92352 0.18979 0.42535 0.0
H49 H 0.95457 0.21241 0.41714 0.0
H50 H 0.93681 0.17167 0.38378 0.0
H51 H 0.90564 0.14924 0.39181 0.0
N52 N 0.87992 0.13599 0.4076 0.0
N53 N 0.85959 0.1271 0.42385 0.0
N54 N 0.88965 0.15766 0.42594 0.0
C55 C 0.863 0.12271 0.41227 0.0
C56 C 0.87279 0.14452 0.43075 0.0
C57 C 0.89331 0.15351 0.41435 0.0
C58 C 0.84876 0.10331 0.40503 0.0
C59 C 0.85247 0.09829 0.39319 0.0
C60 C 0.83946 0.07964 0.38664 0.0
C61 C 0.82243 0.06558 0.39175 0.0
C62 C 0.81853 0.07072 0.40348 0.0
C63 C 0.83152 0.08934 0.41004 0.0
C64 C 0.86909 0.14871 0.44355 0.0
C65 C 0.85197 0.13464 0.44861 0.0
C66 C 0.84878 0.13807 0.46081 0.0
C67 C 0.86257 0.15566 0.46828 0.0
C68 C 0.87955 0.16988 0.4632 0.0
C69 C 0.88278 0.16645 0.45096 0.0
C70 C 0.91202 0.16762 0.40926 0.0
C71 C 0.92616 0.18565 0.41623 0.0
C72 C 0.82152 0.75274 0.41451 0.0
C73 C 0.82644 0.76483 0.40469 0.0
C74 C 0.84503 0.77147 0.40013 0.0
C75 C 0.85846 0.76622 0.40532 0.0
H76 H 0.90969 0.76558 0.39919 0.0
H77 H 0.94036 0.7744 0.38991 0.0
H78 H 0.9603 0.75338 0.42056 0.0
H79 H 0.92977 0.7448 0.43 0.0
H80 H 0.90368 0.72946 0.45219 0.0
H81 H 0.8985 0.71645 0.47237 0.0
H82 H 0.84035 0.71106 0.47019 0.0
H83 H 0.84529 0.72376 0.44998 0.0
H84 H 0.83076 0.73839 0.4274 0.0
H85 H 0.80736 0.74753 0.41827 0.0
H86 H 0.84914 0.78063 0.39247 0.0
H87 H 0.87267 0.77168 0.4016 0.0
N88 N 0.88509 0.75364 0.41577 0.0
N89 N 0.89521 0.74096 0.43201 0.0
N90 N 0.86492 0.74069 0.43186 0.0
C91 C 0.89867 0.74948 0.42116 0.0
C92 C 0.87836 0.7365 0.43741 0.0
C93 C 0.86817 0.74928 0.42105 0.0
C94 C 0.9172 0.75449 0.41538 0.0
C95 C 0.92056 0.76279 0.40398 0.0
C96 C 0.93812 0.76775 0.3986 0.0
C97 C 0.95276 0.76458 0.4045 0.0
C98 C 0.9494 0.75622 0.41586 0.0
C99 C 0.93182 0.7512 0.42123 0.0
C100 C 0.87494 0.72776 0.44944 0.0
C101 C 0.88972 0.72539 0.45595 0.0
C102 C 0.88681 0.71802 0.46756 0.0
C103 C 0.86903 0.71276 0.47288 0.0
C104 C 0.85412 0.71476 0.46627 0.0
C105 C 0.85704 0.72219 0.4547 0.0
C106 C 0.85366 0.75432 0.41527 0.0
C107 C 0.835 0.7476 0.41977 0.0
C108 C 0.05459 0.24887 0.58916 0.0
C109 C 0.04966 0.23721 0.59919 0.0
C110 C 0.06293 0.23132 0.60395 0.0
C111 C 0.08065 0.23674 0.59869 0.0
H112 H 0.13359 0.23771 0.60471 0.0
H113 H 0.15704 0.22869 0.61384 0.0
H114 H 0.19121 0.24763 0.58241 0.0
H115 H 0.16765 0.25639 0.57313 0.0
H116 H 0.15153 0.26844 0.55054 0.0
H117 H 0.15517 0.27919 0.5298 0.0
H118 H 0.10446 0.28758 0.53172 0.0
H119 H 0.10078 0.27692 0.55261 0.0
H120 H 0.07548 0.26293 0.57598 0.0
H121 H 0.04457 0.25352 0.58526 0.0
H122 H 0.05962 0.22253 0.61179 0.0
H123 H 0.09042 0.23177 0.60255 0.0
N124 N 0.1175 0.24892 0.58792 0.0
N125 N 0.13662 0.26016 0.57121 0.0
N126 N 0.10668 0.26056 0.57139 0.0
C127 C 0.134 0.25258 0.58235 0.0
C128 C 0.12308 0.26423 0.56567 0.0
C129 C 0.10378 0.25289 0.58253 0.0
C130 C 0.14865 0.24773 0.58814 0.0
C131 C 0.14611 0.24001 0.59973 0.0
C132 C 0.15962 0.23494 0.60501 0.0
C133 C 0.17596 0.23742 0.59884 0.0
C134 C 0.17862 0.24531 0.58732 0.0
C135 C 0.16515 0.25043 0.58204 0.0
C136 C 0.12578 0.27169 0.55326 0.0
C137 C 0.14117 0.27264 0.54662 0.0
C138 C 0.14321 0.27869 0.53468 0.0
C139 C 0.13 0.28406 0.52911 0.0
C140 C 0.11491 0.2836 0.53582 0.0
C141 C 0.11276 0.2774 0.54776 0.0
C142 C 0.08544 0.24805 0.58847 0.0
C143 C 0.07226 0.25416 0.58381 0.0
C144 C 0.73692 0.80066 0.60201 0.0
C145 C 0.74643 0.80636 0.61419 0.0
C146 C 0.74903 0.82389 0.62064 0.0
C147 C 0.74275 0.83576 0.61492 0.0
H148 H 0.74583 0.88932 0.62039 0.0
H149 H 0.75693 0.92249 0.63059 0.0
H150 H 0.7356 0.93762 0.59759 0.0
H151 H 0.72415 0.90434 0.5874 0.0
H152 H 0.70899 0.87514 0.56334 0.0
H153 H 0.69886 0.86884 0.54119 0.0
H154 H 0.69651 0.81193 0.54053 0.0
H155 H 0.70714 0.8184 0.56274 0.0
H156 H 0.72376 0.80793 0.58678 0.0
H157 H 0.73483 0.7873 0.59677 0.0
H158 H 0.75601 0.8285 0.63011 0.0
H159 H 0.74527 0.8493 0.62015 0.0
N160 N 0.73247 0.86148 0.60234 0.0
N161 N 0.72078 0.86955 0.58445 0.0
N162 N 0.72056 0.83918 0.58421 0.0
C163 C 0.72865 0.87441 0.59652 0.0
C164 C 0.71663 0.85195 0.57823 0.0
C165 C 0.72843 0.84382 0.59629 0.0
C166 C 0.73419 0.89414 0.60302 0.0
C167 C 0.74335 0.89962 0.61531 0.0
C168 C 0.74983 0.9187 0.62115 0.0
C169 C 0.74728 0.93273 0.61487 0.0
C170 C 0.73763 0.92709 0.60272 0.0
C171 C 0.73116 0.90802 0.59686 0.0
C172 C 0.70903 0.84734 0.56487 0.0
C173 C 0.70621 0.8612 0.55854 0.0
C174 C 0.70025 0.85753 0.54581 0.0
C175 C 0.69687 0.83988 0.53907 0.0
C176 C 0.69924 0.82579 0.54542 0.0
C177 C 0.70524 0.82948 0.55818 0.0
C178 C 0.73375 0.8304 0.6026 0.0
C179 C 0.73066 0.81256 0.59627 0.0
C180 C 0.18033 0.93099 0.59867 0.0
C181 C 0.17676 0.93562 0.61063 0.0
C182 C 0.16009 0.92115 0.61584 0.0
C183 C 0.1471 0.90262 0.60915 0.0
H184 H 0.09585 0.84945 0.61132 0.0
H185 H 0.06463 0.82726 0.61941 0.0
H186 H 0.04138 0.79338 0.58332 0.0
H187 H 0.07281 0.81523 0.57528 0.0
H188 H 0.10272 0.82402 0.55466 0.0
H189 H 0.10815 0.81775 0.53337 0.0
H190 H 0.16224 0.87524 0.53694 0.0
H191 H 0.15713 0.88138 0.55826 0.0
H192 H 0.17044 0.90958 0.58272 0.0
H193 H 0.1929 0.94188 0.59433 0.0
H194 H 0.15708 0.92413 0.62511 0.0
H195 H 0.13433 0.89193 0.61344 0.0
N196 N 0.11921 0.86556 0.59441 0.0
N197 N 0.1091 0.84427 0.5759 0.0
N198 N 0.13936 0.87465 0.57806 0.0
C199 C 0.10563 0.84823 0.58757 0.0
C200 C 0.12597 0.85738 0.57108 0.0
C201 C 0.13612 0.87886 0.58974 0.0
C202 C 0.08687 0.83421 0.59262 0.0
C203 C 0.08413 0.83723 0.6051 0.0
C204 C 0.06616 0.82456 0.60973 0.0
C205 C 0.05042 0.80861 0.602 0.0
C206 C 0.05326 0.80538 0.58958 0.0
C207 C 0.07128 0.818 0.58495 0.0
C208 C 0.12946 0.85323 0.55822 0.0
C209 C 0.11583 0.8353 0.55095 0.0
C210 C 0.11887 0.83173 0.5387 0.0
C211 C 0.13561 0.84599 0.53344 0.0
C212 C 0.14934 0.8638 0.54075 0.0
C213 C 0.14632 0.86737 0.55298 0.0
C214 C 0.15045 0.89812 0.59709 0.0
C215 C 0.16735 0.91247 0.59198 0.0
C216 C 0.93011 0.40864 0.73323 0.0
C217 C 0.92083 0.40299 0.72099 0.0
C218 C 0.91851 0.41702 0.71455 0.0
C219 C 0.92482 0.43609 0.72033 0.0
H220 H 0.92157 0.48562 0.71521 0.0
H221 H 0.91046 0.50603 0.70508 0.0
H222 H 0.93164 0.54776 0.73817 0.0
H223 H 0.94307 0.52754 0.74831 0.0
H224 H 0.957 0.51639 0.77279 0.0
H225 H 0.9671 0.52313 0.79506 0.0
H226 H 0.97058 0.46921 0.79448 0.0
H227 H 0.96081 0.46255 0.77222 0.0
H228 H 0.94311 0.43141 0.74856 0.0
H229 H 0.93197 0.39812 0.73847 0.0
H230 H 0.91172 0.41322 0.70504 0.0
H231 H 0.92251 0.44637 0.71511 0.0
N232 N 0.93488 0.47402 0.73314 0.0
N233 N 0.94639 0.49648 0.75117 0.0
N234 N 0.94666 0.46638 0.75119 0.0
C235 C 0.93863 0.49165 0.73907 0.0
C236 C 0.95052 0.48396 0.75729 0.0
C237 C 0.93888 0.46131 0.7391 0.0
C238 C 0.93312 0.50482 0.73263 0.0
C239 C 0.92402 0.4992 0.72033 0.0
C240 C 0.91753 0.51085 0.71453 0.0
C241 C 0.92003 0.52842 0.72086 0.0
C242 C 0.92964 0.53438 0.73302 0.0
C243 C 0.9361 0.5227 0.73885 0.0
C244 C 0.95796 0.48884 0.77068 0.0
C245 C 0.96008 0.50603 0.77736 0.0
C246 C 0.96577 0.50987 0.79015 0.0
C247 C 0.96956 0.49667 0.79654 0.0
C248 C 0.96798 0.47979 0.78981 0.0
C249 C 0.96224 0.47591 0.77704 0.0
C250 C 0.93358 0.44159 0.7327 0.0
C251 C 0.93641 0.42773 0.73903 0.0
C252 C 0.61247 0.52896 0.74572 0.0
C253 C 0.61543 0.52595 0.73329 0.0
C254 C 0.59969 0.51023 0.72543 0.0
C255 C 0.5816 0.49756 0.72994 0.0
H256 H 0.53173 0.44272 0.72128 0.0
H257 H 0.50918 0.41058 0.70948 0.0
H258 H 0.47227 0.39288 0.73974 0.0
H259 H 0.49453 0.42511 0.75148 0.0
H260 H 0.50743 0.45276 0.77597 0.0
H261 H 0.50188 0.45825 0.79727 0.0
H262 H 0.55649 0.51534 0.80179 0.0
H263 H 0.56237 0.5097 0.78048 0.0
H264 H 0.5927 0.51892 0.7599 0.0
H265 H 0.62434 0.54079 0.75207 0.0
H266 H 0.60131 0.50771 0.71575 0.0
H267 H 0.56989 0.48552 0.72361 0.0
N268 N 0.54633 0.46907 0.74034 0.0
N269 N 0.52584 0.45974 0.75651 0.0
N270 N 0.55617 0.49006 0.75898 0.0
C271 C 0.52929 0.45571 0.74485 0.0
C272 C 0.53915 0.47688 0.76362 0.0
C273 C 0.55985 0.48629 0.74732 0.0
C274 C 0.51505 0.43654 0.73738 0.0
C275 C 0.51876 0.43206 0.72542 0.0
C276 C 0.50588 0.41357 0.71866 0.0
C277 C 0.48898 0.39912 0.72369 0.0
C278 C 0.48504 0.40375 0.73554 0.0
C279 C 0.4979 0.42223 0.7423 0.0
C280 C 0.5354 0.48075 0.77647 0.0
C281 C 0.51826 0.46655 0.78145 0.0
C282 C 0.51499 0.46975 0.79367 0.0
C283 C 0.52872 0.48725 0.80124 0.0
C284 C 0.54574 0.50159 0.79624 0.0
C285 C 0.54904 0.49838 0.784 0.0
C286 C 0.57874 0.50034 0.74242 0.0
C287 C 0.59432 0.51634 0.75023 0.0
C288 C 0.4872 0.08531 0.74528 0.0
C289 C 0.49238 0.0968 0.73517 0.0
C290 C 0.51062 0.10222 0.73043 0.0
C291 C 0.52354 0.09646 0.73578 0.0
H292 H 0.57298 0.09237 0.72994 0.0
H293 H 0.60364 0.10063 0.72086 0.0
H294 H 0.62453 0.08335 0.75304 0.0
H295 H 0.59393 0.07533 0.76229 0.0
H296 H 0.56507 0.05717 0.78363 0.0
H297 H 0.56037 0.04714 0.80465 0.0
H298 H 0.50857 0.05405 0.80436 0.0
H299 H 0.51321 0.06419 0.78351 0.0
H300 H 0.49582 0.07105 0.75859 0.0
H301 H 0.4733 0.08105 0.74918 0.0
H302 H 0.51489 0.11089 0.72255 0.0
H303 H 0.53756 0.10105 0.73197 0.0
N304 N 0.54928 0.08325 0.74689 0.0
N305 N 0.55934 0.0719 0.76392 0.0
N306 N 0.52963 0.07284 0.76342 0.0
C307 C 0.56264 0.07914 0.75265 0.0
C308 C 0.54283 0.06869 0.76935 0.0
C309 C 0.53271 0.0801 0.75219 0.0
C310 C 0.58096 0.08324 0.74689 0.0
C311 C 0.58403 0.09023 0.7351 0.0
C312 C 0.60158 0.09486 0.72984 0.0
C313 C 0.61652 0.09265 0.73623 0.0
C314 C 0.61338 0.08542 0.74794 0.0
C315 C 0.59578 0.08072 0.75321 0.0
C316 C 0.5396 0.06162 0.78186 0.0
C317 C 0.55264 0.05649 0.78802 0.0
C318 C 0.54992 0.05066 0.80004 0.0
C319 C 0.53421 0.04998 0.80617 0.0
C320 C 0.52101 0.05475 0.79994 0.0
C321 C 0.52363 0.06045 0.78794 0.0
C322 C 0.51857 0.08531 0.74608 0.0
C323 C 0.50018 0.07969 0.7507 0.0
C324 C 0.71979 0.58138 0.92087 0.0
C325 C 0.71651 0.57329 0.93232 0.0
C326 C 0.73117 0.5702 0.93828 0.0
C327 C 0.7486 0.57484 0.93283 0.0
H328 H 0.79919 0.57097 0.93749 0.0
H329 H 0.82223 0.56136 0.94654 0.0
H330 H 0.85675 0.5805 0.91527 0.0
H331 H 0.83363 0.58984 0.90608 0.0
H332 H 0.82077 0.60703 0.88484 0.0
H333 H 0.82482 0.61763 0.86408 0.0
H334 H 0.76816 0.61554 0.86271 0.0
H335 H 0.76417 0.60524 0.88364 0.0
H336 H 0.73917 0.59216 0.90655 0.0
H337 H 0.70889 0.58419 0.91613 0.0
H338 H 0.729 0.56377 0.94704 0.0
H339 H 0.75944 0.57203 0.93763 0.0
N340 N 0.78358 0.5829 0.92078 0.0
N341 N 0.80266 0.59361 0.904 0.0
N342 N 0.77289 0.59432 0.90406 0.0
C343 C 0.79999 0.58621 0.9152 0.0
C344 C 0.78924 0.59774 0.89837 0.0
C345 C 0.76997 0.58695 0.91529 0.0
C346 C 0.81445 0.58113 0.92101 0.0
C347 C 0.81171 0.57321 0.93254 0.0
C348 C 0.82498 0.56777 0.93777 0.0
C349 C 0.84128 0.5701 0.9316 0.0
C350 C 0.84418 0.57825 0.92017 0.0
C351 C 0.83095 0.58372 0.91494 0.0
C352 C 0.79207 0.60513 0.88593 0.0
C353 C 0.80916 0.60888 0.88018 0.0
C354 C 0.81146 0.61487 0.86822 0.0
C355 C 0.79673 0.61724 0.8617 0.0
C356 C 0.77985 0.61397 0.86753 0.0
C357 C 0.77753 0.60797 0.87952 0.0
C358 C 0.75179 0.58271 0.92129 0.0
C359 C 0.73723 0.58605 0.91542 0.0
C360 C 0.403 0.13332 0.93482 0.0
C361 C 0.41291 0.13925 0.9469 0.0
C362 C 0.41575 0.15693 0.95328 0.0
C363 C 0.40926 0.16869 0.94761 0.0
H364 H 0.41052 0.22154 0.95316 0.0
H365 H 0.42109 0.25461 0.96329 0.0
H366 H 0.39938 0.26916 0.9302 0.0
H367 H 0.38846 0.23597 0.92007 0.0
H368 H 0.37002 0.20453 0.89644 0.0
H369 H 0.36067 0.19842 0.87412 0.0
H370 H 0.36809 0.14674 0.87273 0.0
H371 H 0.37768 0.15289 0.89505 0.0
H372 H 0.3893 0.14024 0.91972 0.0
H373 H 0.40073 0.11985 0.92963 0.0
H374 H 0.42307 0.16174 0.96267 0.0
H375 H 0.41196 0.18234 0.95277 0.0
N376 N 0.39778 0.19376 0.93512 0.0
N377 N 0.38581 0.20146 0.91717 0.0
N378 N 0.38642 0.17152 0.91699 0.0
C379 C 0.3936 0.20644 0.92926 0.0
C380 C 0.38212 0.18401 0.91097 0.0
C381 C 0.39418 0.17625 0.92908 0.0
C382 C 0.39874 0.22606 0.93574 0.0
C383 C 0.40783 0.23169 0.94804 0.0
C384 C 0.41402 0.25071 0.95385 0.0
C385 C 0.41123 0.26457 0.94752 0.0
C386 C 0.40161 0.25877 0.93536 0.0
C387 C 0.39544 0.23975 0.92953 0.0
C388 C 0.37478 0.17931 0.89757 0.0
C389 C 0.36953 0.19176 0.89143 0.0
C390 C 0.36403 0.18819 0.87863 0.0
C391 C 0.36372 0.17214 0.87166 0.0
C392 C 0.36842 0.15936 0.87783 0.0
C393 C 0.37383 0.16286 0.89065 0.0
C394 C 0.39982 0.16306 0.93539 0.0
C395 C 0.39654 0.14509 0.92913 0.0
C396 C 0.84858 0.26269 0.93272 0.0
C397 C 0.84461 0.26786 0.94442 0.0
C398 C 0.82743 0.25389 0.94945 0.0
C399 C 0.8143 0.23535 0.94283 0.0
H400 H 0.75694 0.18929 0.94118 0.0
H401 H 0.7252 0.16768 0.94896 0.0
H402 H 0.71248 0.12111 0.91993 0.0
H403 H 0.74436 0.14271 0.91208 0.0
H404 H 0.76786 0.16024 0.88694 0.0
H405 H 0.77398 0.15506 0.86562 0.0
H406 H 0.83528 0.20235 0.87382 0.0
H407 H 0.8291 0.2079 0.89496 0.0
H408 H 0.83889 0.24084 0.91702 0.0
H409 H 0.86155 0.27318 0.9285 0.0
H410 H 0.82409 0.25729 0.95852 0.0
H411 H 0.80112 0.22506 0.94695 0.0
N412 N 0.78611 0.19844 0.92804 0.0
N413 N 0.77646 0.17655 0.9098 0.0
N414 N 0.80737 0.20627 0.91231 0.0
C415 C 0.77248 0.18113 0.92119 0.0
C416 C 0.79392 0.18906 0.90531 0.0
C417 C 0.80362 0.21108 0.92368 0.0
C418 C 0.75324 0.16777 0.92598 0.0
C419 C 0.74745 0.17445 0.93644 0.0
C420 C 0.72919 0.16212 0.94086 0.0
C421 C 0.71635 0.14276 0.93501 0.0
C422 C 0.72216 0.13594 0.92465 0.0
C423 C 0.74037 0.14836 0.92013 0.0
C424 C 0.79792 0.18463 0.89266 0.0
C425 C 0.78268 0.16944 0.88423 0.0
C426 C 0.78621 0.1664 0.87201 0.0
C427 C 0.80507 0.17843 0.86797 0.0
C428 C 0.82046 0.19312 0.87653 0.0
C429 C 0.81692 0.19622 0.8887 0.0
C430 C 0.81806 0.23032 0.93101 0.0
C431 C 0.83548 0.24414 0.9261 0.0
C432 C 0.59818 0.74141 0.0669 0.0
C433 C 0.58872 0.73584 0.05471 0.0
C434 C 0.5861 0.74985 0.04845 0.0
C435 C 0.59228 0.76881 0.05436 0.0
H436 H 0.58841 0.81824 0.0499 0.0
H437 H 0.57711 0.83878 0.04013 0.0
H438 H 0.59918 0.88035 0.07331 0.0
H439 H 0.61078 0.86 0.08311 0.0
H440 H 0.62694 0.84941 0.10712 0.0
H441 H 0.63702 0.85577 0.12938 0.0
H442 H 0.63485 0.79896 0.12892 0.0
H443 H 0.62525 0.79276 0.10668 0.0
H444 H 0.61119 0.76398 0.08233 0.0
H445 H 0.60027 0.7309 0.07201 0.0
H446 H 0.57915 0.74612 0.03897 0.0
H447 H 0.58973 0.77908 0.04929 0.0
N448 N 0.60234 0.80659 0.06748 0.0
N449 N 0.61371 0.82865 0.08571 0.0
N450 N 0.61405 0.79856 0.08538 0.0
C451 C 0.606 0.82408 0.0736 0.0
C452 C 0.61783 0.81599 0.09166 0.0
C453 C 0.60637 0.79377 0.07328 0.0
C454 C 0.60041 0.83735 0.06735 0.0
C455 C 0.59102 0.83182 0.05512 0.0
C456 C 0.58442 0.84353 0.04952 0.0
C457 C 0.5871 0.86109 0.05598 0.0
C458 C 0.59702 0.86697 0.06806 0.0
C459 C 0.60358 0.85522 0.07369 0.0
C460 C 0.62516 0.82051 0.10506 0.0
C461 C 0.62875 0.83832 0.11173 0.0
C462 C 0.63443 0.84194 0.12452 0.0
C463 C 0.63666 0.82784 0.13095 0.0
C464 C 0.63352 0.81026 0.12424 0.0
C465 C 0.62788 0.80665 0.11146 0.0
C466 C 0.60121 0.77421 0.0667 0.0
C467 C 0.60435 0.76037 0.07284 0.0
C468 C 0.27784 0.8645 0.0784 0.0
C469 C 0.28145 0.85979 0.06647 0.0
C470 C 0.26674 0.84219 0.0594 0.0
C471 C 0.24892 0.8295 0.06418 0.0
H472 H 0.19842 0.77579 0.05587 0.0
H473 H 0.17571 0.74345 0.04435 0.0
H474 H 0.13916 0.72659 0.07481 0.0
H475 H 0.16161 0.75904 0.08628 0.0
H476 H 0.17424 0.78802 0.1102 0.0
H477 H 0.16891 0.79405 0.13145 0.0
H478 H 0.22437 0.85035 0.1358 0.0
H479 H 0.23002 0.84416 0.11451 0.0
H480 H 0.25774 0.85584 0.09245 0.0
H481 H 0.28878 0.87807 0.08403 0.0
H482 H 0.26915 0.83797 0.05024 0.0
H483 H 0.23807 0.81598 0.05847 0.0
N484 N 0.21314 0.80263 0.07461 0.0
N485 N 0.19292 0.79387 0.09091 0.0
N486 N 0.22312 0.82433 0.09295 0.0
C487 C 0.19623 0.78943 0.07931 0.0
C488 C 0.20624 0.81128 0.09779 0.0
C489 C 0.22666 0.82012 0.08134 0.0
C490 C 0.18194 0.77006 0.07206 0.0
C491 C 0.1855 0.76526 0.06012 0.0
C492 C 0.17253 0.74666 0.05352 0.0
C493 C 0.15568 0.73241 0.05868 0.0
C494 C 0.15189 0.73732 0.07051 0.0
C495 C 0.16486 0.75592 0.07712 0.0
C496 C 0.20262 0.81556 0.1106 0.0
C497 C 0.18531 0.80176 0.11562 0.0
C498 C 0.18216 0.80528 0.12781 0.0
C499 C 0.19619 0.82271 0.13533 0.0
C500 C 0.21338 0.83667 0.13029 0.0
C501 C 0.21655 0.83315 0.11806 0.0
C502 C 0.24535 0.83406 0.07617 0.0
C503 C 0.25998 0.85179 0.0832 0.0
C504 C 0.15771 0.42663 0.08161 0.0
C505 C 0.15882 0.43135 0.06927 0.0
C506 C 0.17358 0.43085 0.06263 0.0
C507 C 0.18704 0.42595 0.06824 0.0
H508 H 0.24052 0.42876 0.06417 0.0
H509 H 0.27088 0.43645 0.05486 0.0
H510 H 0.29112 0.41751 0.08649 0.0
H511 H 0.26091 0.41012 0.09598 0.0
H512 H 0.23393 0.39489 0.11827 0.0
H513 H 0.22975 0.38529 0.1394 0.0
H514 H 0.17836 0.39286 0.13959 0.0
H515 H 0.18253 0.4026 0.11864 0.0
H516 H 0.16984 0.41827 0.09677 0.0
H517 H 0.14675 0.42717 0.08708 0.0
H518 H 0.17467 0.43411 0.05304 0.0
H519 H 0.19823 0.42576 0.06285 0.0
N520 N 0.21663 0.4191 0.08112 0.0
N521 N 0.22748 0.40878 0.09835 0.0
N522 N 0.19802 0.41012 0.09819 0.0
C523 C 0.23022 0.41526 0.08687 0.0
C524 C 0.21138 0.40614 0.10406 0.0
C525 C 0.20047 0.41655 0.08672 0.0
C526 C 0.24824 0.41889 0.08088 0.0
C527 C 0.25136 0.42612 0.06915 0.0
C528 C 0.26875 0.43044 0.06376 0.0
C529 C 0.28345 0.42764 0.06994 0.0
C530 C 0.2802 0.42009 0.08156 0.0
C531 C 0.2628 0.41575 0.08697 0.0
C532 C 0.20864 0.39963 0.11673 0.0
C533 C 0.22172 0.39449 0.1228 0.0
C534 C 0.21929 0.3889 0.13489 0.0
C535 C 0.20383 0.38847 0.14117 0.0
C536 C 0.19062 0.39336 0.13506 0.0
C537 C 0.19297 0.39883 0.12299 0.0
C538 C 0.18598 0.42133 0.08061 0.0
C539 C 0.17107 0.42162 0.0872 0.0
C540 C 0.38646 0.91058 0.2539 0.0
C541 C 0.38431 0.90495 0.26605 0.0
C542 C 0.40027 0.90474 0.27273 0.0
C543 C 0.41778 0.90963 0.26732 0.0
H544 H 0.46768 0.90402 0.27153 0.0
H545 H 0.49092 0.89471 0.28066 0.0
H546 H 0.52515 0.91346 0.24924 0.0
H547 H 0.50181 0.92247 0.23997 0.0
H548 H 0.4852 0.93308 0.21689 0.0
H549 H 0.48887 0.94356 0.19607 0.0
H550 H 0.43841 0.95239 0.19785 0.0
H551 H 0.43471 0.94204 0.21879 0.0
H552 H 0.40498 0.91954 0.23907 0.0
H553 H 0.3744 0.91066 0.24842 0.0
H554 H 0.39926 0.90082 0.28218 0.0
H555 H 0.42968 0.90914 0.27272 0.0
N556 N 0.45179 0.91553 0.25471 0.0
N557 N 0.47058 0.92571 0.23776 0.0
N558 N 0.44073 0.92628 0.23781 0.0
C559 C 0.46813 0.91873 0.24909 0.0
C560 C 0.457 0.92959 0.23207 0.0
C561 C 0.43802 0.91928 0.24914 0.0
C562 C 0.48276 0.91392 0.25497 0.0
C563 C 0.48018 0.90623 0.26657 0.0
C564 C 0.49357 0.90099 0.27184 0.0
C565 C 0.50984 0.90327 0.26565 0.0
C566 C 0.5126 0.91123 0.25416 0.0
C567 C 0.49924 0.91651 0.24889 0.0
C568 C 0.4596 0.93663 0.21954 0.0
C569 C 0.47489 0.93731 0.21291 0.0
C570 C 0.47694 0.9432 0.20093 0.0
C571 C 0.46385 0.94866 0.1953 0.0
C572 C 0.44879 0.94837 0.20198 0.0
C573 C 0.44663 0.94233 0.21396 0.0
C574 C 0.41981 0.91497 0.2551 0.0
C575 C 0.40401 0.91558 0.24851 0.0
C576 C 0.07449 0.46759 0.26464 0.0
C577 C 0.08073 0.47112 0.27742 0.0
C578 C 0.07969 0.48622 0.28457 0.0
C579 C 0.0731 0.49799 0.27899 0.0
H580 H 0.07308 0.55155 0.28513 0.0
H581 H 0.08454 0.58501 0.29522 0.0
H582 H 0.07307 0.60324 0.26029 0.0
H583 H 0.06164 0.56995 0.25016 0.0
H584 H 0.03664 0.53648 0.22802 0.0
H585 H 0.02606 0.53021 0.20587 0.0
H586 H 0.03321 0.47836 0.20372 0.0
H587 H 0.04411 0.48471 0.2259 0.0
H588 H 0.06332 0.47625 0.24916 0.0
H589 H 0.07493 0.45589 0.25893 0.0
H590 H 0.08452 0.48933 0.29443 0.0
H591 H 0.07286 0.50977 0.28473 0.0
N592 N 0.06524 0.52552 0.26619 0.0
N593 N 0.0531 0.53336 0.24835 0.0
N594 N 0.05357 0.50336 0.24797 0.0
C595 C 0.06108 0.53829 0.2604 0.0
C596 C 0.0492 0.5159 0.24208 0.0
C597 C 0.0615 0.50801 0.26004 0.0
C598 C 0.06655 0.55804 0.26681 0.0
C599 C 0.07285 0.56263 0.27961 0.0
C600 C 0.07933 0.58176 0.28541 0.0
C601 C 0.07983 0.59673 0.27851 0.0
C602 C 0.07308 0.59204 0.2658 0.0
C603 C 0.06642 0.5729 0.26003 0.0
C604 C 0.04137 0.51119 0.22877 0.0
C605 C 0.03586 0.52365 0.22288 0.0
C606 C 0.02964 0.51998 0.21018 0.0
C607 C 0.02883 0.50381 0.20304 0.0
C608 C 0.0339 0.49107 0.20895 0.0
C609 C 0.04004 0.49467 0.22169 0.0
C610 C 0.06725 0.49475 0.26614 0.0
C611 C 0.06773 0.47921 0.25907 0.0
C612 C 0.51148 0.59677 0.26057 0.0
C613 C 0.51082 0.60115 0.27323 0.0
C614 C 0.49664 0.5862 0.2797 0.0
C615 C 0.48311 0.56735 0.27358 0.0
H616 H 0.42422 0.52211 0.27365 0.0
H617 H 0.39302 0.50106 0.28222 0.0
H618 H 0.37905 0.45292 0.25407 0.0
H619 H 0.41031 0.4739 0.24543 0.0
H620 H 0.43181 0.48742 0.22014 0.0
H621 H 0.43603 0.47953 0.19883 0.0
H622 H 0.49465 0.53206 0.20254 0.0
H623 H 0.49066 0.53987 0.22384 0.0
H624 H 0.49898 0.57504 0.24469 0.0
H625 H 0.52239 0.60797 0.25539 0.0
H626 H 0.49572 0.58923 0.28945 0.0
H627 H 0.47222 0.55624 0.27881 0.0
N628 N 0.45223 0.53073 0.25945 0.0
N629 N 0.44135 0.50752 0.24178 0.0
N630 N 0.47167 0.53768 0.24276 0.0
C631 C 0.43836 0.51286 0.25328 0.0
C632 C 0.458 0.51985 0.23647 0.0
C633 C 0.46894 0.54322 0.25427 0.0
C634 C 0.41978 0.49974 0.25881 0.0
C635 C 0.41459 0.50701 0.26929 0.0
C636 C 0.39665 0.49501 0.27417 0.0
C637 C 0.38358 0.4754 0.26877 0.0
C638 C 0.38891 0.46795 0.25846 0.0
C639 C 0.40677 0.48002 0.25349 0.0
C640 C 0.46086 0.51435 0.22373 0.0
C641 C 0.44568 0.49722 0.21647 0.0
C642 C 0.44803 0.49273 0.20422 0.0
C643 C 0.46565 0.50519 0.19899 0.0
C644 C 0.48099 0.52203 0.20634 0.0
C645 C 0.47862 0.52658 0.21854 0.0
C646 C 0.48365 0.56298 0.26088 0.0
C647 C 0.49813 0.57785 0.25448 0.0
C648 C 0.52752 0.01744 0.03655 0.0
Eu649 Eu 0.51145 0.00954 0.01367 0.0
C650 C 0.52036 0.01208 0.04876 0.0
C651 C 0.52887 0.02655 0.05904 0.0
C652 C 0.52216 0.02181 0.07071 0.0
C653 C 0.50686 0.00245 0.07228 0.0
C654 C 0.49827 0.988 0.06192 0.0
C655 C 0.50494 0.99278 0.05026 0.0
C656 C 0.49694 0.03006 0.00193 0.0
C657 C 0.46384 0.97604 0.01192 0.0
C658 C 0.47186 0.98148 0.96554 0.0
Eu659 Eu 0.48787 0.98966 0.98845 0.0
C660 C 0.47888 0.98731 0.95336 0.0
C661 C 0.47054 0.97305 0.94297 0.0
C662 C 0.47715 0.97821 0.93133 0.0
C663 C 0.49219 0.99776 0.9299 0.0
C664 C 0.5006 0.012 0.94036 0.0
C665 C 0.49404 0.00681 0.95201 0.0
C666 C 0.50253 0.96929 0.00029 0.0
C667 C 0.53535 0.0232 0.99019 0.0
O668 O 0.52615 0.00302 0.02887 0.0
O669 O 0.52236 0.02901 0.03109 0.0
O670 O 0.51423 0.03857 0.00841 0.0
O671 O 0.48785 0.01145 0.00241 0.0
O672 O 0.48141 0.98522 0.01865 0.0
O673 O 0.46209 0.97754 -9e-05 0.0
O674 O 0.47239 0.9954 0.97329 0.0
O675 O 0.4779 0.97051 0.97092 0.0
O676 O 0.48518 0.96068 0.99387 0.0
O677 O 0.5115 0.98785 -0.00032 0.0
O678 O 0.51773 0.01443 0.98354 0.0
O679 O 0.53714 0.02124 0.00213 0.0
H680 H 0.54075 0.04153 0.05805 0.0
H681 H 0.52921 0.03319 0.07854 0.0
H682 H 0.4863 0.97303 0.06282 0.0
H683 H 0.49804 0.98138 0.04243 0.0
H684 H 0.45887 0.95792 0.94385 0.0
H685 H 0.47022 0.96698 0.92341 0.0
H686 H 0.51236 0.02712 0.93957 0.0
H687 H 0.50079 0.01802 0.95994 0.0
C688 C 0.99533 0.52174 0.03425 0.0
Eu689 Eu 0.99525 0.50655 0.01216 0.0
C690 C 0.99754 0.51805 0.04717 0.0
C691 C 0.00053 0.5023 0.05011 0.0
C692 C 0.00197 0.49865 0.0625 0.0
C693 C 0.00037 0.51067 0.0721 0.0
C694 C 0.99761 0.52657 0.06904 0.0
C695 C 0.99619 0.5302 0.05668 0.0
C696 C 0.97096 0.4684 0.00206 0.0
C697 C 0.02651 0.48981 0.01182 0.0
C698 C 0.00596 0.4807 0.96524 0.0
Eu699 Eu 0.0061 0.49576 0.98739 0.0
C700 C 0.0027 0.48395 0.95235 0.0
C701 C 0.00023 0.50007 0.94956 0.0
C702 C 0.9978 0.50332 0.93719 0.0
C703 C 0.9978 0.49047 0.92745 0.0
C704 C -3e-05 0.47416 0.93036 0.0
C705 C 0.00242 0.47096 0.94271 0.0
C706 C 0.03042 0.53386 0.99764 0.0
C707 C 0.97494 0.51253 0.98769 0.0
O708 O 0.01125 0.5282 0.02832 0.0
O709 O 0.97915 0.50805 0.02751 0.0
O710 O 0.96478 0.47853 0.00845 0.0
O711 O 0.98958 0.47818 0.00213 0.0
O712 O 0.02009 0.50028 0.01815 0.0
O713 O 0.02052 0.48354 -7e-05 0.0
O714 O 0.99034 0.47347 0.97147 0.0
O715 O 0.02201 0.49506 0.97173 0.0
O716 O 0.03665 0.52371 0.99129 0.0
O717 O 0.01179 0.52409 0.99742 0.0
O718 O 0.98107 0.50174 0.98144 0.0
O719 O 0.98121 0.51907 0.99953 0.0
H720 H 0.00157 0.49275 0.04283 0.0
H721 H 0.00396 0.48621 0.06455 0.0
H722 H 0.99668 0.53633 0.07621 0.0
H723 H 0.99394 0.54245 0.05453 0.0
H724 H 0.00041 0.51023 0.95694 0.0
H725 H 0.99632 0.51609 0.93527 0.0
H726 H 0.99966 0.46377 0.92309 0.0
H727 H 0.0042 0.45839 0.94474 0.0
C728 C 0.47103 0.48307 0.96573 0.0
Eu729 Eu 0.48775 0.49593 0.98844 0.0
C730 C 0.47713 0.48556 0.95306 0.0
C731 C 0.46623 0.48952 0.94404 0.0
C732 C 0.47154 0.49174 0.93192 0.0
C733 C 0.48783 0.48995 0.92856 0.0
C734 C 0.49886 0.48618 0.93768 0.0
C735 C 0.49358 0.48403 0.94982 0.0
C736 C 0.50306 0.5335 0.99953 0.0
C737 C 0.53557 0.51147 0.98976 0.0
C738 C 0.52846 0.51767 0.03624 0.0
Eu739 Eu 0.51191 0.50463 0.01351 0.0
C740 C 0.52179 0.51398 0.04866 0.0
C741 C 0.50271 0.49832 0.05023 0.0
C742 C 0.49645 0.49504 0.06212 0.0
C743 C 0.50918 0.50739 0.07261 0.0
C744 C 0.52827 0.52311 0.07092 0.0
C745 C 0.5345 0.52635 0.05904 0.0
C746 C 0.49652 0.46702 0.00244 0.0
C747 C 0.46406 0.48912 0.01219 0.0
O748 O 0.47686 0.47325 0.97263 0.0
O749 O 0.47231 0.49876 0.97189 0.0
O750 O 0.48578 0.52377 0.99305 0.0
O751 O 0.51181 0.52356 0.99923 0.0
O752 O 0.51792 0.50148 0.98314 0.0
O753 O 0.53734 0.51713 0.00172 0.0
O754 O 0.52139 0.52672 0.02958 0.0
O755 O 0.52836 0.50277 0.02984 0.0
O756 O 0.51373 0.47666 0.009 0.0
O757 O 0.48785 0.47704 0.00275 0.0
O758 O 0.48169 0.49887 0.01883 0.0
O759 O 0.46227 0.48369 0.00019 0.0
H760 H 0.45357 0.49087 0.94637 0.0
H761 H 0.46292 0.49496 0.92519 0.0
H762 H 0.51134 0.48447 0.93539 0.0
H763 H 0.50226 0.481 0.95662 0.0
H764 H 0.4927 0.48863 0.04228 0.0
H765 H 0.48175 0.48271 0.06309 0.0
H766 H 0.5383 0.53311 0.07876 0.0
H767 H 0.54922 0.53859 0.05795 0.0
C768 C 0.19492 0.3518 0.37047 0.0
Eu769 Eu 0.1788 0.34343 0.34758 0.0
C770 C 0.18775 0.34654 0.38269 0.0
C771 C 0.19628 0.36108 0.39294 0.0
C772 C 0.18949 0.35647 0.40459 0.0
C773 C 0.17406 0.33718 0.40619 0.0
C774 C 0.16548 0.32265 0.39587 0.0
C775 C 0.17224 0.3273 0.38422 0.0
C776 C 0.16462 0.36392 0.33549 0.0
C777 C 0.13112 0.31006 0.34597 0.0
C778 C 0.13895 0.31469 0.29955 0.0
Eu779 Eu 0.15509 0.32316 0.32244 0.0
C780 C 0.14565 0.3211 0.2874 0.0
C781 C 0.13746 0.30715 0.27686 0.0
C782 C 0.14387 0.31282 0.26525 0.0
C783 C 0.15859 0.3326 0.264 0.0
C784 C 0.1668 0.34656 0.27461 0.0
C785 C 0.16042 0.34084 0.28622 0.0
C786 C 0.16943 0.30277 0.33457 0.0
C787 C 0.20255 0.35669 0.32407 0.0
O788 O 0.19372 0.33736 0.36289 0.0
O789 O 0.18957 0.36315 0.36491 0.0
O790 O 0.18196 0.37243 0.34192 0.0
O791 O 0.15536 0.34536 0.33618 0.0
O792 O 0.14869 0.31944 0.35271 0.0
O793 O 0.12935 0.31116 0.33391 0.0
O794 O 0.13857 0.32795 0.30743 0.0
O795 O 0.14607 0.30447 0.30478 0.0
O796 O 0.15209 0.2942 0.32814 0.0
O797 O 0.17857 0.3213 0.33382 0.0
O798 O 0.18489 0.34794 0.31747 0.0
O799 O 0.20442 0.35478 0.33601 0.0
H800 H 0.20823 0.37602 0.39192 0.0
H801 H 0.19653 0.3679 0.4124 0.0
H802 H 0.15342 0.30774 0.39679 0.0
H803 H 0.16532 0.31587 0.37641 0.0
H804 H 0.12608 0.29184 0.27761 0.0
H805 H 0.13709 0.3018 0.25723 0.0
H806 H 0.1783 0.36184 0.27396 0.0
H807 H 0.16704 0.35183 0.29427 0.0
C808 C 0.65788 0.84894 0.36904 0.0
Eu809 Eu 0.66028 0.83635 0.34677 0.0
C810 C 0.66057 0.84549 0.38205 0.0
C811 C 0.64509 0.841 0.38954 0.0
C812 C 0.6474 0.83838 0.40203 0.0
C813 C 0.66534 0.84037 0.40734 0.0
C814 C 0.68073 0.84453 0.39974 0.0
C815 C 0.67836 0.84702 0.38721 0.0
C816 C 0.6364 0.79902 0.33525 0.0
C817 C 0.69149 0.81966 0.34696 0.0
C818 C 0.6754 0.81502 0.30015 0.0
Eu819 Eu 0.6732 0.82758 0.32248 0.0
C820 C 0.67288 0.81903 0.28724 0.0
C821 C 0.68862 0.82434 0.27986 0.0
C822 C 0.68657 0.8278 0.26752 0.0
C823 C 0.66863 0.82583 0.26224 0.0
C824 C 0.65291 0.82071 0.26971 0.0
C825 C 0.65503 0.81739 0.28209 0.0
C826 C 0.69709 0.86495 0.33398 0.0
C827 C 0.64195 0.84428 0.32231 0.0
O828 O 0.67384 0.85786 0.3632 0.0
O829 O 0.64266 0.83434 0.36207 0.0
O830 O 0.62974 0.8091 0.34121 0.0
O831 O 0.65512 0.8085 0.33621 0.0
O832 O 0.68508 0.83025 0.35316 0.0
O833 O 0.68603 0.81385 0.33499 0.0
O834 O 0.65939 0.80626 0.30598 0.0
O835 O 0.69079 0.82924 0.30722 0.0
O836 O 0.70372 0.85493 0.32792 0.0
O837 O 0.67837 0.85542 0.33302 0.0
O838 O 0.64856 0.83391 0.31608 0.0
O839 O 0.64725 0.84992 0.33431 0.0
H840 H 0.63121 0.83966 0.38574 0.0
H841 H 0.63509 0.83481 0.40752 0.0
H842 H 0.69481 0.84636 0.40355 0.0
H843 H 0.69054 0.85041 0.38162 0.0
H844 H 0.70255 0.82576 0.28364 0.0
H845 H 0.69911 0.83207 0.26213 0.0
H846 H 0.63881 0.81884 0.26592 0.0
H847 H 0.64263 0.81335 0.28758 0.0
C848 C 0.13835 0.81501 0.29993 0.0
Eu849 Eu 0.15534 0.82727 0.32261 0.0
C850 C 0.1444 0.81767 0.28725 0.0
C851 C 0.13401 0.82259 0.27846 0.0
C852 C 0.13926 0.82498 0.26633 0.0
C853 C 0.15497 0.82237 0.26271 0.0
C854 C 0.16552 0.81765 0.2716 0.0
C855 C 0.16033 0.81538 0.28376 0.0
C856 C 0.17037 0.86441 0.33428 0.0
C857 C 0.20323 0.84299 0.3234 0.0
C858 C 0.197 0.84709 0.37005 0.0
Eu859 Eu 0.17996 0.83525 0.34736 0.0
C860 C 0.19069 0.84558 0.38266 0.0
C861 C 0.20095 0.84156 0.39207 0.0
C862 C 0.19514 0.83986 0.40408 0.0
C863 C 0.17894 0.84219 0.40691 0.0
C864 C 0.16861 0.84614 0.39742 0.0
C865 C 0.17443 0.84781 0.3854 0.0
C866 C 0.16507 0.79828 0.33545 0.0
C867 C 0.13225 0.81997 0.34657 0.0
O868 O 0.14391 0.8048 0.30665 0.0
O869 O 0.13994 0.83071 0.30628 0.0
O870 O 0.15298 0.85466 0.32792 0.0
O871 O 0.17936 0.85471 0.33359 0.0
O872 O 0.18551 0.83362 0.31684 0.0
O873 O 0.20525 0.84773 0.3355 0.0
O874 O 0.19318 0.85823 0.36306 0.0
O875 O 0.19359 0.83042 0.36399 0.0
O876 O 0.18264 0.80816 0.34158 0.0
O877 O 0.15598 0.80786 0.33638 0.0
O878 O 0.15003 0.82981 0.35304 0.0
O879 O 0.13018 0.81456 0.33455 0.0
H880 H 0.12177 0.82455 0.28098 0.0
H881 H 0.13104 0.82897 0.2598 0.0
H882 H 0.17754 0.81531 0.26912 0.0
H883 H 0.16867 0.81167 0.29039 0.0
H884 H 0.21346 0.83967 0.39011 0.0
H885 H 0.20322 0.8365 0.41111 0.0
H886 H 0.15622 0.84824 0.39931 0.0
H887 H 0.16627 0.85092 0.37828 0.0
C888 C 0.86218 0.68207 0.70273 0.0
Eu889 Eu 0.84526 0.67637 0.68025 0.0
C890 C 0.85538 0.67817 0.71512 0.0
C891 C 0.83635 0.67458 0.71738 0.0
C892 C 0.82979 0.67017 0.72911 0.0
C893 C 0.84214 0.66917 0.73874 0.0
C894 C 0.86124 0.6729 0.73641 0.0
C895 C 0.86779 0.67735 0.72469 0.0
C896 C 0.82979 0.69738 0.67024 0.0
C897 C 0.79744 0.64361 0.67889 0.0
C898 C 0.80352 0.65226 0.63257 0.0
Eu899 Eu 0.82052 0.65804 0.65504 0.0
C900 C 0.8101 0.65543 0.6201 0.0
C901 C 0.82907 0.65884 0.61786 0.0
C902 C 0.83536 0.66239 0.606 0.0
C903 C 0.82277 0.6626 0.5962 0.0
C904 C 0.80375 0.65915 0.59854 0.0
C905 C 0.79749 0.6556 0.61039 0.0
C906 C 0.83606 0.63708 0.66509 0.0
C907 C 0.86839 0.69084 0.6564 0.0
O908 O 0.85706 0.6662 0.69508 0.0
O909 O 0.86003 0.6957 0.69745 0.0
O910 O 0.84715 0.70572 0.67663 0.0
O911 O 0.82108 0.67868 0.67009 0.0
O912 O 0.81519 0.65232 0.68539 0.0
O913 O 0.79535 0.64587 0.66702 0.0
O914 O 0.80934 0.66848 0.64004 0.0
O915 O 0.8051 0.63844 0.63802 0.0
O916 O 0.8187 0.6287 0.65869 0.0
O917 O 0.84469 0.65576 0.66517 0.0
O918 O 0.85066 0.68194 0.64986 0.0
O919 O 0.87047 0.68878 0.66831 0.0
H920 H 0.82652 0.67503 0.71005 0.0
H921 H 0.81492 0.66714 0.73058 0.0
H922 H 0.87118 0.67247 0.74367 0.0
H923 H 0.8825 0.68004 0.72307 0.0
H924 H 0.83902 0.65881 0.62529 0.0
H925 H 0.85001 0.6648 0.60449 0.0
H926 H 0.79383 0.65956 0.59127 0.0
H927 H 0.78287 0.65316 0.61201 0.0
C928 C 0.33057 0.18872 0.7024 0.0
Eu929 Eu 0.3289 0.17289 0.68019 0.0
C930 C 0.33369 0.18551 0.71538 0.0
C931 C 0.32471 0.16625 0.71928 0.0
C932 C 0.32728 0.16368 0.73178 0.0
C933 C 0.33898 0.1803 0.74057 0.0
C934 C 0.34831 0.19952 0.73653 0.0
C935 C 0.34563 0.20208 0.72406 0.0
C936 C 0.30402 0.13448 0.67069 0.0
C937 C 0.35961 0.15561 0.67931 0.0
C938 C 0.33668 0.14522 0.63295 0.0
Eu939 Eu 0.33823 0.16093 0.65517 0.0
C940 C 0.33421 0.14872 0.6199 0.0
C941 C 0.3477 0.16662 0.61529 0.0
C942 C 0.34568 0.16913 0.60274 0.0
C943 C 0.33009 0.15383 0.59454 0.0
C944 C 0.31635 0.13613 0.59926 0.0
C945 C 0.31845 0.13359 0.6118 0.0
C946 C 0.36312 0.19934 0.66471 0.0
C947 C 0.30744 0.17817 0.65604 0.0
O948 O 0.34601 0.19503 0.69603 0.0
O949 O 0.31394 0.17519 0.69596 0.0
O950 O 0.29826 0.14488 0.67721 0.0
O951 O 0.32256 0.14414 0.67038 0.0
O952 O 0.35423 0.16704 0.68558 0.0
O953 O 0.35238 0.14835 0.66765 0.0
O954 O 0.32107 0.13928 0.63914 0.0
O955 O 0.35334 0.15816 0.63961 0.0
O956 O 0.36889 0.18893 0.65819 0.0
O957 O 0.34458 0.18967 0.66496 0.0
O958 O 0.3131 0.16703 0.64971 0.0
O959 O 0.31435 0.18515 0.66776 0.0
H960 H 0.31552 0.15321 0.71272 0.0
H961 H 0.31973 0.14869 0.73457 0.0
H962 H 0.35775 0.21262 0.74299 0.0
H963 H 0.3528 0.21705 0.7212 0.0
H964 H 0.36001 0.17859 0.62132 0.0
H965 H 0.35665 0.18285 0.5994 0.0
H966 H 0.30397 0.12418 0.59327 0.0
H967 H 0.30785 0.11967 0.61515 0.0
C968 C 0.80496 0.14954 0.63283 0.0
Eu969 Eu 0.82166 0.16291 0.6555 0.0
C970 C 0.811 0.15209 0.62014 0.0
C971 C 0.79986 0.15574 0.61111 0.0
C972 C 0.80517 0.1581 0.59899 0.0
C973 C 0.8217 0.15675 0.59564 0.0
C974 C 0.83296 0.15327 0.60476 0.0
C975 C 0.82768 0.15099 0.61691 0.0
C976 C 0.83676 0.20071 0.66616 0.0
C977 C 0.8695 0.17872 0.65691 0.0
C978 C 0.86245 0.18655 0.70336 0.0
Eu979 Eu 0.84605 0.17265 0.68067 0.0
C980 C 0.85642 0.18367 0.7161 0.0
C981 C 0.85401 0.16699 0.72193 0.0
C982 C 0.84883 0.16477 0.73409 0.0
C983 C 0.84601 0.17918 0.74071 0.0
C984 C 0.84832 0.19578 0.73483 0.0
C985 C 0.85355 0.19803 0.72269 0.0
C986 C 0.83101 0.13483 0.67006 0.0
C987 C 0.79802 0.15638 0.67925 0.0
O988 O 0.81122 0.14011 0.63978 0.0
O989 O 0.80579 0.16505 0.63892 0.0
O990 O 0.81946 0.19073 0.65973 0.0
O991 O 0.8456 0.19086 0.66604 0.0
O992 O 0.85182 0.16819 0.65038 0.0
O993 O 0.87132 0.18507 0.66875 0.0
O994 O 0.85519 0.19519 0.69644 0.0
O995 O 0.86298 0.17184 0.69714 0.0
O996 O 0.84819 0.14475 0.67664 0.0
O997 O 0.82218 0.14469 0.67015 0.0
O998 O 0.81567 0.16658 0.68586 0.0
O999 O 0.79627 0.15058 0.66732 0.0
H1000 H 0.78701 0.15675 0.61344 0.0
H1001 H 0.79636 0.1611 0.59227 0.0
H1002 H 0.84563 0.1519 0.60248 0.0
H1003 H 0.83656 0.14823 0.62371 0.0
H1004 H 0.85629 0.15572 0.71717 0.0
H1005 H 0.84747 0.15196 0.7384 0.0
H1006 H 0.84601 0.20703 0.73959 0.0
H1007 H 0.85541 0.2111 0.71847 0.0
H1008 H 0.28715 0.87071 0.04287 0.0
H1009 H 0.31879 0.8907 0.03431 0.0
H1010 H 0.35072 0.89873 0.07005 0.0
H1011 H 0.31911 0.87854 0.07869 0.0
H1012 H 0.36431 0.93426 0.05786 0.0
H1013 H 0.35819 0.87119 0.02707 0.0
H1014 H 0.3369 0.87446 0.02532 0.0
H1015 H 0.34304 0.86748 0.03972 0.0
C1016 C 0.3009 0.87661 0.0489 0.0
C1017 C 0.30061 0.87289 0.06144 0.0
C1018 C 0.31896 0.88803 0.04399 0.0
C1019 C 0.33707 0.89588 0.0515 0.0
C1020 C 0.33687 0.89271 0.0641 0.0
H1021 H 0.46106 0.9691 0.03642 0.0
H1022 H 0.43078 0.94978 0.04648 0.0
C1023 C 0.3188 0.88126 0.06903 0.0
C1024 C 0.35621 0.90738 0.04617 0.0
H1025 H 0.38416 0.90368 0.02419 0.0
C1026 C 0.36876 0.92759 0.05056 0.0
C1027 C 0.36193 0.89856 0.03666 0.0
C1028 C 0.34942 0.87668 0.03197 0.0
C1029 C 0.38664 0.93942 0.04542 0.0
C1030 C 0.39223 0.93065 0.0358 0.0
C1031 C 0.3798 0.91036 0.03154 0.0
C1032 C 0.41068 0.94233 0.0298 0.0
C1033 C 0.39908 0.96131 0.05006 0.0
C1034 C 0.40944 0.94411 0.01703 0.0
C1035 C 0.42671 0.95499 0.01122 0.0
C1036 C 0.44559 0.96425 0.01808 0.0
C1037 C 0.44678 0.96225 0.03086 0.0
C1038 C 0.42948 0.95132 0.03666 0.0
H1039 H 0.39044 0.96669 0.05522 0.0
H1040 H 0.41195 0.96371 0.05645 0.0
H1041 H 0.40498 0.97051 0.04224 0.0
H1042 H 0.39507 0.9372 0.01155 0.0
H1043 H 0.42521 0.95618 0.00136 0.0
H1044 H 0.11896 0.41527 0.07172 0.0
H1045 H 0.09625 0.42542 0.06266 0.0
H1046 H 0.14383 0.46986 0.04424 0.0
H1047 H 0.16691 0.46049 0.05373 0.0
H1048 H 0.1225 0.48455 0.0553 0.0
H1049 H 0.07148 0.41255 0.02698 0.0
H1050 H 0.07449 0.41014 0.04321 0.0
H1051 H 0.09546 0.41829 0.03428 0.0
C1052 C 0.12466 0.42732 0.06582 0.0
C1053 C 0.14478 0.43703 0.06343 0.0
C1054 C 0.11158 0.43292 0.06052 0.0
C1055 C 0.11827 0.44817 0.05261 0.0
C1056 C 0.13833 0.45796 0.05025 0.0
H1057 H 0.04667 0.47333 0.00128 0.0
H1058 H 0.06898 0.46392 0.01171 0.0
C1059 C 0.15145 0.45245 0.0556 0.0
C1060 C 0.10447 0.45418 0.04695 0.0
H1061 H 0.06122 0.4367 0.02805 0.0
C1062 C 0.10911 0.47411 0.04932 0.0
C1063 C 0.08712 0.44057 0.03906 0.0
C1064 C 0.0819 0.41924 0.03562 0.0
C1065 C 0.09684 0.48082 0.04403 0.0
C1066 C 0.07924 0.46708 0.03639 0.0
C1067 C 0.07463 0.44716 0.03401 0.0
C1068 C 0.06585 0.47321 0.03025 0.0
C1069 C 0.10315 0.50264 0.0464 0.0
C1070 C 0.05656 0.48148 0.03722 0.0
C1071 C 0.04388 0.48707 0.03127 0.0
C1072 C 0.04005 0.48419 0.01825 0.0
C1073 C 0.04924 0.47572 0.01133 0.0
C1074 C 0.06201 0.47031 0.01727 0.0
H1075 H 0.11928 0.51197 0.04967 0.0
H1076 H 0.10006 0.50831 0.03787 0.0
H1077 H 0.09465 0.50453 0.0537 0.0
H1078 H 0.05897 0.48344 0.04727 0.0
H1079 H 0.03691 0.49341 0.03687 0.0
H1080 H 0.55294 0.71193 0.04088 0.0
H1081 H 0.53954 0.67767 0.03151 0.0
H1082 H 0.5932 0.6788 0.04561 0.0
H1083 H 0.60677 0.71316 0.05501 0.0
H1084 H 0.55484 0.66259 0.01397 0.0
H1085 H 0.54905 0.62852 0.05828 0.0
H1086 H 0.55294 0.65341 0.05765 0.0
H1087 H 0.57337 0.64892 0.05645 0.0
C1088 C 0.56198 0.70497 0.0419 0.0
C1089 C 0.58091 0.71525 0.04871 0.0
C1090 C 0.55426 0.68536 0.03659 0.0
C1091 C 0.56525 0.67562 0.03803 0.0
C1092 C 0.5843 0.68592 0.04463 0.0
H1093 H 0.54006 0.55625 0.01202 0.0
H1094 H 0.55554 0.59098 0.02121 0.0
C1095 C 0.59203 0.70554 0.04997 0.0
C1096 C 0.55676 0.65473 0.0325 0.0
H1097 H 0.54161 0.60733 0.03972 0.0
C1098 C 0.55191 0.65049 0.01959 0.0
C1099 C 0.553 0.63901 0.03988 0.0
C1100 C 0.55718 0.64258 0.05385 0.0
C1101 C 0.54352 0.63093 0.01383 0.0
C1102 C 0.53961 0.61521 0.02121 0.0
C1103 C 0.54464 0.61946 0.03411 0.0
C1104 C 0.53014 0.5942 0.01573 0.0
C1105 C 0.53914 0.62729 -0.00013 0.0
C1106 C 0.51064 0.58447 0.00979 0.0
C1107 C 0.50175 0.56465 0.00457 0.0
C1108 C 0.51223 0.55426 0.00525 0.0
C1109 C 0.53166 0.56394 0.01135 0.0
C1110 C 0.54051 0.58374 0.01659 0.0
H1111 H 0.5474 0.64129 0.99539 0.0
H1112 H 0.54308 0.61624 0.99605 0.0
H1113 H 0.52297 0.62118 0.99735 0.0
H1114 H 0.50227 0.5922 0.00923 0.0
H1115 H 0.48672 0.55748 -2e-05 0.0
H1116 H 0.88547 0.2893 0.94671 0.0
H1117 H 0.90734 0.32306 0.95706 0.0
H1118 H 0.85606 0.3257 0.96764 0.0
H1119 H 0.83408 0.29211 0.95721 0.0
H1120 H 0.90704 0.35819 0.9517 0.0
H1121 H 0.89254 0.34247 0.00044 0.0
H1122 H 0.88626 0.32301 0.98807 0.0
H1123 H 0.87052 0.33367 0.98983 0.0
C1124 C 0.87884 0.29707 0.95123 0.0
C1125 C 0.85802 0.28798 0.95116 0.0
C1126 C 0.89136 0.3163 0.95718 0.0
C1127 C 0.88331 0.32674 0.96325 0.0
C1128 C 0.86258 0.31772 0.96324 0.0
H1129 H 0.93057 0.44541 0.00109 0.0
H1130 H 0.90948 0.411 0.99141 0.0
C1131 C 0.85005 0.29851 0.95729 0.0
C1132 C 0.89654 0.3474 0.96912 0.0
H1133 H 0.91071 0.37664 0.99678 0.0
C1134 C 0.90797 0.36223 0.96157 0.0
C1135 C 0.89762 0.35258 0.98199 0.0
C1136 C 0.88623 0.33709 0.9906 0.0
C1137 C 0.92017 0.38225 0.9665 0.0
C1138 C 0.9212 0.38744 0.97936 0.0
C1139 C 0.90984 0.37259 0.98692 0.0
C1140 C 0.93399 0.40823 0.98515 0.0
C1141 C 0.93145 0.39773 0.95785 0.0
C1142 C 0.95475 0.41794 0.98495 0.0
C1143 C 0.96677 0.43755 0.99045 0.0
C1144 C 0.95824 0.4477 0.9963 0.0
C1145 C 0.9375 0.43791 0.99662 0.0
C1146 C 0.92547 0.41829 0.99111 0.0
H1147 H 0.92515 0.39227 0.94801 0.0
H1148 H 0.93128 0.41175 0.96034 0.0
H1149 H 0.9472 0.4013 0.95862 0.0
H1150 H 0.96165 0.4103 0.98062 0.0
H1151 H 0.98275 0.44472 0.99015 0.0
H1152 H 0.67856 0.55443 0.92062 0.0
H1153 H 0.64753 0.54468 0.92995 0.0
H1154 H 0.68073 0.56899 0.96604 0.0
H1155 H 0.71188 0.5793 0.95675 0.0
H1156 H 0.63232 0.51877 0.94851 0.0
H1157 H 0.64532 0.59432 0.96377 0.0
H1158 H 0.65959 0.5902 0.95263 0.0
H1159 H 0.66521 0.59013 0.96894 0.0
C1160 C 0.67929 0.55799 0.93051 0.0
C1161 C 0.6977 0.56773 0.93794 0.0
C1162 C 0.66155 0.55229 0.93583 0.0
C1163 C 0.66188 0.55634 0.94865 0.0
C1164 C 0.68019 0.56603 0.9561 0.0
H1165 H 0.57417 0.53118 0.00035 0.0
H1166 H 0.60434 0.54142 0.99 0.0
C1167 C 0.69795 0.57172 0.95079 0.0
C1168 C 0.643 0.54978 0.9543 0.0
H1169 H 0.61784 0.56683 0.97121 0.0
C1170 C 0.62906 0.52926 0.9534 0.0
C1171 C 0.63886 0.56353 0.96068 0.0
C1172 C 0.65293 0.58579 0.96149 0.0
C1173 C 0.61125 0.52206 0.95899 0.0
C1174 C 0.60717 0.5358 0.96546 0.0
C1175 C 0.62105 0.55633 0.96626 0.0
C1176 C 0.58873 0.52919 0.97163 0.0
C1177 C 0.59722 0.49979 0.95823 0.0
C1178 C 0.56995 0.51904 0.9647 0.0
C1179 C 0.55264 0.5131 0.97058 0.0
C1180 C 0.55382 0.51736 0.9835 0.0
C1181 C 0.57269 0.52763 0.99039 0.0
C1182 C 0.58997 0.53352 0.9845 0.0
H1183 H 0.6047 0.49126 0.95565 0.0
H1184 H 0.59101 0.49537 0.96722 0.0
H1185 H 0.58462 0.49546 0.95103 0.0
H1186 H 0.5687 0.5159 0.95471 0.0
H1187 H 0.53838 0.50537 0.96498 0.0
H1188 H 0.44916 0.15321 0.9601 0.0
H1189 H 0.46263 0.13377 0.96923 0.0
H1190 H 0.40827 0.07919 0.95592 0.0
H1191 H 0.39466 0.09856 0.94673 0.0
H1192 H 0.44798 0.10714 0.98705 0.0
H1193 H 0.45118 0.06938 0.94278 0.0
H1194 H 0.44757 0.09067 0.94332 0.0
H1195 H 0.4271 0.06623 0.94493 0.0
C1196 C 0.44001 0.13707 0.95919 0.0
C1197 C 0.42086 0.12741 0.95267 0.0
C1198 C 0.44777 0.12599 0.96436 0.0
C1199 C 0.43657 0.10505 0.96308 0.0
C1200 C 0.41733 0.09533 0.95675 0.0
H1201 H 0.45953 0.01438 0.9901 0.0
H1202 H 0.44469 0.03254 0.98067 0.0
C1203 C 0.40957 0.10641 0.95154 0.0
C1204 C 0.445 0.09347 0.96857 0.0
H1205 H 0.45874 0.05883 0.96138 0.0
C1206 C 0.45038 0.09662 0.98144 0.0
C1207 C 0.44809 0.07975 0.96122 0.0
C1208 C 0.44336 0.07638 0.94728 0.0
C1209 C 0.45862 0.08626 0.98718 0.0
C1210 C 0.46179 0.07261 0.97982 0.0
C1211 C 0.45627 0.06933 0.96697 0.0
C1212 C 0.47094 0.06169 0.9853 0.0
C1213 C 0.46361 0.08976 0.0011 0.0
C1214 C 0.49071 0.07209 0.99082 0.0
C1215 C 0.49924 0.06176 0.99615 0.0
C1216 C 0.48814 0.04089 0.996 0.0
C1217 C 0.46844 0.03048 0.99031 0.0
C1218 C 0.45994 0.04081 0.98495 0.0
H1219 H 0.45605 0.097 0.00565 0.0
H1220 H 0.4593 0.07547 0.0051 0.0
H1221 H 0.47993 0.09972 0.00332 0.0
H1222 H 0.49953 0.08819 0.991 0.0
H1223 H 0.51449 0.07012 0.00042 0.0
H1224 H 0.68886 0.15275 0.94159 0.0
H1225 H 0.65756 0.13183 0.9503 0.0
H1226 H 0.66889 0.08268 0.94807 0.0
H1227 H 0.70011 0.10348 0.93914 0.0
H1228 H 0.63023 0.07064 0.94047 0.0
H1229 H 0.65348 0.1175 0.98564 0.0
H1230 H 0.65481 0.1312 0.97263 0.0
H1231 H 0.67075 0.12066 0.97441 0.0
C1232 C 0.68469 0.1375 0.943 0.0
C1233 C 0.69699 0.12978 0.9398 0.0
C1234 C 0.66685 0.12559 0.948 0.0
C1235 C 0.66111 0.10584 0.95008 0.0
C1236 C 0.6731 0.09792 0.9466 0.0
H1237 H 0.57386 0.03648 0.99925 0.0
H1238 H 0.60394 0.05564 0.98906 0.0
C1239 C 0.69088 0.10978 0.94148 0.0
C1240 C 0.64267 0.09348 0.95596 0.0
H1241 H 0.6194 0.09214 0.98187 0.0
C1242 C 0.62786 0.07528 0.94954 0.0
C1243 C 0.63976 0.09943 0.96788 0.0
C1244 C 0.65562 0.11816 0.9756 0.0
C1245 C 0.6101 0.06297 0.95466 0.0
C1246 C 0.60687 0.0693 0.96638 0.0
C1247 C 0.62179 0.0874 0.97284 0.0
C1248 C 0.58839 0.05721 0.9723 0.0
C1249 C 0.59519 0.04311 0.94759 0.0
C1250 C 0.56963 0.05184 0.96632 0.0
C1251 C 0.55235 0.04068 0.97208 0.0
C1252 C 0.55356 0.03501 0.98403 0.0
C1253 C 0.57239 0.04065 0.99006 0.0
C1254 C 0.58962 0.0516 0.98424 0.0
H1255 H 0.60227 0.03803 0.94077 0.0
H1256 H 0.58803 0.03141 0.95397 0.0
H1257 H 0.5834 0.04466 0.94236 0.0
H1258 H 0.56834 0.05645 0.95724 0.0
H1259 H 0.53809 0.03674 0.96724 0.0
H1260 H 0.85703 0.55002 0.91951 0.0
H1261 H 0.87949 0.53937 0.92842 0.0
H1262 H 0.87917 0.56526 0.96467 0.0
H1263 H 0.85677 0.57602 0.95583 0.0
H1264 H 0.91737 0.56233 0.94132 0.0
H1265 H 0.86429 0.50813 0.97067 0.0
H1266 H 0.85647 0.51824 0.95839 0.0
H1267 H 0.86752 0.53271 0.9732 0.0
C1268 C 0.86184 0.55355 0.92937 0.0
C1269 C 0.85506 0.56379 0.93698 0.0
C1270 C 0.87459 0.54738 0.93445 0.0
C1271 C 0.88072 0.55124 0.94723 0.0
C1272 C 0.87423 0.56171 0.95482 0.0
H1273 H 0.95864 0.53355 0.99773 0.0
H1274 H 0.93606 0.54259 0.98722 0.0
C1275 C 0.86145 0.56786 0.94976 0.0
C1276 C 0.89419 0.54463 0.95259 0.0
H1277 H 0.89811 0.51623 0.97422 0.0
C1278 C 0.91313 0.55212 0.94844 0.0
C1279 C 0.88855 0.53126 0.96184 0.0
C1280 C 0.86803 0.52195 0.96622 0.0
C1281 C 0.92686 0.54709 0.95359 0.0
C1282 C 0.92134 0.53402 0.96301 0.0
C1283 C 0.90229 0.5263 0.96702 0.0
C1284 C 0.93532 0.52868 0.96915 0.0
C1285 C 0.94736 0.55626 0.94921 0.0
C1286 C 0.94229 0.51773 0.96246 0.0
C1287 C 0.95524 0.51251 0.96845 0.0
C1288 C 0.96138 0.51811 0.98123 0.0
C1289 C 0.95429 0.52903 0.98787 0.0
C1290 C 0.94134 0.5342 0.98189 0.0
H1291 H 0.95065 0.56918 0.94388 0.0
H1292 H 0.95898 0.56132 0.9572 0.0
H1293 H 0.94832 0.54487 0.94306 0.0
H1294 H 0.93754 0.51306 0.95265 0.0
H1295 H 0.96038 0.50404 0.96306 0.0
H1296 H 0.39301 0.28709 0.94716 0.0
H1297 H 0.40646 0.32148 0.95646 0.0
H1298 H 0.46041 0.32307 0.97043 0.0
H1299 H 0.44713 0.28877 0.96116 0.0
H1300 H 0.44507 0.33799 0.98802 0.0
H1301 H 0.45023 0.37192 0.9437 0.0
H1302 H 0.426 0.35141 0.9456 0.0
H1303 H 0.44653 0.3471 0.94432 0.0
C1304 C 0.40779 0.29482 0.95214 0.0
C1305 C 0.41902 0.28522 0.9534 0.0
C1306 C 0.41546 0.31446 0.95743 0.0
C1307 C 0.43454 0.3249 0.96397 0.0
C1308 C 0.44566 0.31527 0.9654 0.0
H1309 H 0.51291 0.44311 0.00183 0.0
H1310 H 0.49736 0.40839 0.99259 0.0
C1311 C 0.438 0.29565 0.96015 0.0
C1312 C 0.44293 0.34578 0.96949 0.0
H1313 H 0.4577 0.39311 0.96227 0.0
C1314 C 0.44786 0.35006 0.98239 0.0
C1315 C 0.44651 0.36146 0.96211 0.0
C1316 C 0.44222 0.35785 0.94815 0.0
C1317 C 0.45619 0.36961 0.98815 0.0
C1318 C 0.45992 0.38529 0.98077 0.0
C1319 C 0.4548 0.38101 0.96788 0.0
C1320 C 0.46938 0.40631 0.98625 0.0
C1321 C 0.46068 0.37329 0.0021 0.0
C1322 C 0.45895 0.41672 0.98547 0.0
C1323 C 0.46781 0.43652 0.99072 0.0
C1324 C 0.4873 0.44625 0.99672 0.0
C1325 C 0.49783 0.4359 0.99732 0.0
C1326 C 0.48894 0.41608 0.9921 0.0
H1327 H 0.45251 0.35929 0.00659 0.0
H1328 H 0.47687 0.37945 0.00457 0.0
H1329 H 0.45671 0.3843 0.00595 0.0
H1330 H 0.44388 0.40944 0.98093 0.0
H1331 H 0.45936 0.44417 0.99013 0.0
H1332 H 0.1665 0.70868 0.04559 0.0
H1333 H 0.14472 0.67531 0.03476 0.0
H1334 H 0.09322 0.67684 0.04606 0.0
H1335 H 0.11485 0.71049 0.0566 0.0
H1336 H 0.11776 0.64102 0.04529 0.0
H1337 H 0.07922 0.66032 0.0085 0.0
H1338 H 0.10195 0.67888 0.01762 0.0
H1339 H 0.0785 0.66912 0.02406 0.0
C1340 C 0.15052 0.70207 0.04559 0.0
C1341 C 0.1424 0.7123 0.0519 0.0
C1342 C 0.13812 0.68295 0.03948 0.0
C1343 C 0.11737 0.67372 0.03949 0.0
C1344 C 0.10918 0.68384 0.04577 0.0
H1345 H 0.01868 0.55723 0.01 0.0
H1346 H 0.03993 0.59108 0.02042 0.0
C1347 C 0.12158 0.70297 0.0519 0.0
C1348 C 0.10438 0.65322 0.03328 0.0
H1349 H 0.06687 0.62583 0.01009 0.0
C1350 C 0.10668 0.63769 0.03756 0.0
C1351 C 0.08992 0.64896 0.02324 0.0
C1352 C 0.0873 0.6652 0.01799 0.0
C1353 C 0.0947 0.61791 0.03216 0.0
C1354 C 0.0803 0.61366 0.02207 0.0
C1355 C 0.07794 0.62918 0.01783 0.0
C1356 C 0.06755 0.59318 0.01578 0.0
C1357 C 0.09728 0.60167 0.03745 0.0
C1358 C 0.07606 0.58328 0.00961 0.0
C1359 C 0.06396 0.56395 0.00368 0.0
C1360 C 0.04318 0.5543 0.00378 0.0
C1361 C 0.03468 0.56432 0.00983 0.0
C1362 C 0.04677 0.58363 0.01576 0.0
H1363 H 0.10518 0.60651 0.04698 0.0
H1364 H 0.08263 0.58795 0.03772 0.0
H1365 H 0.10623 0.59785 0.03146 0.0
H1366 H 0.09204 0.59055 0.00933 0.0
H1367 H 0.07087 0.55658 0.99903 0.0
H1368 H 0.2882 0.42089 0.04564 0.0
H1369 H 0.31943 0.43127 0.03643 0.0
H1370 H 0.35251 0.45712 0.07242 0.0
H1371 H 0.32139 0.44695 0.0817 0.0
H1372 H 0.35141 0.47057 0.03679 0.0
H1373 H 0.37515 0.42236 0.05952 0.0
H1374 H 0.34998 0.41786 0.0591 0.0
H1375 H 0.36933 0.43717 0.06996 0.0
C1376 C 0.30212 0.42879 0.0516 0.0
C1377 C 0.3023 0.43306 0.06441 0.0
C1378 C 0.31993 0.43462 0.04633 0.0
C1379 C 0.33824 0.44473 0.05377 0.0
C1380 C 0.3385 0.44895 0.06656 0.0
H1381 H 0.46134 0.4957 0.03694 0.0
H1382 H 0.43101 0.48565 0.04718 0.0
C1383 C 0.3207 0.44312 0.07184 0.0
C1384 C 0.35709 0.45163 0.04803 0.0
H1385 H 0.39837 0.44674 0.04781 0.0
C1386 C 0.36166 0.46532 0.03916 0.0
C1387 C 0.37046 0.44483 0.05122 0.0
C1388 C 0.36597 0.42962 0.06039 0.0
C1389 C 0.37934 0.47255 0.03344 0.0
C1390 C 0.39262 0.4656 0.03653 0.0
C1391 C 0.38815 0.45204 0.04549 0.0
C1392 C 0.41096 0.47183 0.03032 0.0
C1393 C 0.38381 0.48779 0.02429 0.0
C1394 C 0.40969 0.46718 0.01748 0.0
C1395 C 0.42694 0.4729 0.01159 0.0
C1396 C 0.44583 0.4833 0.01846 0.0
C1397 C 0.44705 0.4878 0.03136 0.0
C1398 C 0.42974 0.48204 0.03724 0.0
H1399 H 0.3751 0.49548 0.02548 0.0
H1400 H 0.39992 0.49919 0.02529 0.0
H1401 H 0.37976 0.48014 0.01471 0.0
H1402 H 0.39531 0.45896 0.01201 0.0
H1403 H 0.42542 0.46908 0.00166 0.0
H1404 H 0.60496 0.90177 0.05621 0.0
H1405 H 0.59084 0.92089 0.04723 0.0
H1406 H 0.53689 0.86599 0.03383 0.0
H1407 H 0.55068 0.84681 0.04296 0.0
H1408 H 0.57611 0.91776 0.02155 0.0
H1409 H 0.51775 0.89966 0.05369 0.0
H1410 H 0.53897 0.89646 0.05711 0.0
H1411 H 0.51825 0.87847 0.04644 0.0
C1412 C 0.59003 0.8938 0.05143 0.0
C1413 C 0.57891 0.87279 0.05031 0.0
C1414 C 0.58205 0.90472 0.04626 0.0
C1415 C 0.56275 0.89482 0.04002 0.0
C1416 C 0.5517 0.87389 0.03877 0.0
H1417 H 0.48514 0.92934 0.00224 0.0
H1418 H 0.50034 0.91166 0.0119 0.0
C1419 C 0.55969 0.86296 0.04388 0.0
C1420 C 0.55423 0.90634 0.03461 0.0
H1421 H 0.51618 0.91614 0.0363 0.0
C1422 C 0.56309 0.91755 0.02481 0.0
C1423 C 0.53721 0.90592 0.03889 0.0
C1424 C 0.52754 0.89463 0.04968 0.0
C1425 C 0.55507 0.92801 0.01893 0.0
C1426 C 0.538 0.92754 0.02318 0.0
C1427 C 0.52924 0.91644 0.03305 0.0
C1428 C 0.52887 0.93833 0.01743 0.0
C1429 C 0.5646 0.93898 0.008 0.0
C1430 C 0.5398 0.95919 0.01751 0.0
C1431 C 0.53119 0.96927 0.01195 0.0
C1432 C 0.51145 0.95867 0.00635 0.0
C1433 C 0.50041 0.93785 0.00647 0.0
C1434 C 0.50905 0.92775 0.01199 0.0
H1435 H 0.57405 0.93357 0.00391 0.0
H1436 H 0.55313 0.93727 0.00064 0.0
H1437 H 0.57425 0.95513 0.01113 0.0
H1438 H 0.55497 0.96767 0.02189 0.0
H1439 H 0.54004 0.98535 0.01198 0.0
H1440 H 0.98552 0.21377 0.41249 0.0
H1441 H 0.01721 0.23521 0.40431 0.0
H1442 H 0.98616 0.22502 0.36794 0.0
H1443 H 0.95438 0.20413 0.37611 0.0
H1444 H 0.03404 0.22454 0.38558 0.0
H1445 H 0.02116 0.28575 0.37294 0.0
H1446 H 0.006 0.26758 0.38302 0.0
H1447 H 0.00169 0.2614 0.36645 0.0
C1448 C 0.9854 0.21638 0.4028 0.0
C1449 C 0.96741 0.2073 0.39496 0.0
C1450 C 0.00353 0.22852 0.39813 0.0
C1451 C 0.004 0.23192 0.38556 0.0
C1452 C 0.98609 0.2229 0.37772 0.0
H1453 H 0.09256 0.2892 0.33531 0.0
H1454 H 0.06242 0.27043 0.34554 0.0
C1455 C 0.96797 0.21077 0.38237 0.0
C1456 C 0.02327 0.24419 0.38052 0.0
H1457 H 0.04881 0.28516 0.36497 0.0
C1458 C 0.03738 0.23791 0.38118 0.0
C1459 C 0.02755 0.26162 0.3748 0.0
C1460 C 0.01339 0.26963 0.37435 0.0
C1461 C 0.05541 0.24824 0.3759 0.0
C1462 C 0.05951 0.26544 0.36998 0.0
C1463 C 0.04556 0.27191 0.36949 0.0
C1464 C 0.07797 0.27666 0.36391 0.0
C1465 C 0.06965 0.24031 0.37636 0.0
C1466 C 0.09671 0.28649 0.37088 0.0
C1467 C 0.11402 0.29725 0.36507 0.0
C1468 C 0.11288 0.29843 0.35217 0.0
C1469 C 0.09403 0.28859 0.34524 0.0
C1470 C 0.07676 0.27787 0.35107 0.0
H1471 H 0.0624 0.22468 0.37879 0.0
H1472 H 0.07573 0.24089 0.36729 0.0
H1473 H 0.08233 0.24974 0.38351 0.0
H1474 H 0.09793 0.28601 0.38084 0.0
H1475 H 0.12826 0.30474 0.3707 0.0
H1476 H 0.7863 0.74099 0.39834 0.0
H1477 H 0.76314 0.7505 0.38903 0.0
H1478 H 0.81136 0.81123 0.3897 0.0
H1479 H 0.83461 0.80177 0.39887 0.0
H1480 H 0.75274 0.7777 0.39743 0.0
H1481 H 0.7881 0.79838 0.35367 0.0
H1482 H 0.79421 0.785 0.36452 0.0
H1483 H 0.80498 0.81165 0.36735 0.0
C1484 C 0.79194 0.75638 0.39654 0.0
C1485 C 0.8123 0.77061 0.39924 0.0
C1486 C 0.77871 0.76178 0.3912 0.0
C1487 C 0.78559 0.7815 0.38848 0.0
C1488 C 0.80582 0.79583 0.39143 0.0
H1489 H 0.71052 0.83286 0.37058 0.0
H1490 H 0.73308 0.8236 0.38106 0.0
C1491 C 0.81908 0.79041 0.39668 0.0
C1492 C 0.77157 0.78704 0.38257 0.0
H1493 H 0.76299 0.80652 0.35709 0.0
C1494 C 0.75493 0.78396 0.38859 0.0
C1495 C 0.77434 0.79496 0.37096 0.0
C1496 C 0.79126 0.79752 0.36368 0.0
C1497 C 0.74104 0.78874 0.38337 0.0
C1498 C 0.74415 0.79723 0.37195 0.0
C1499 C 0.76073 0.80018 0.3659 0.0
C1500 C 0.73011 0.80259 0.36585 0.0
C1501 C 0.72295 0.7842 0.38998 0.0
C1502 C 0.72128 0.79419 0.35372 0.0
C1503 C 0.70865 0.79965 0.34765 0.0
C1504 C 0.70453 0.81362 0.35359 0.0
C1505 C 0.71327 0.82195 0.36578 0.0
C1506 C 0.72607 0.81658 0.37182 0.0
H1507 H 0.72001 0.77292 0.39663 0.0
H1508 H 0.72551 0.79808 0.39532 0.0
H1509 H 0.70948 0.7786 0.38327 0.0
H1510 H 0.72421 0.7834 0.34893 0.0
H1511 H 0.70213 0.7929 0.33828 0.0
H1512 H 0.27524 0.04625 0.38574 0.0
H1513 H 0.26154 0.01174 0.37657 0.0
H1514 H 0.20685 0.00968 0.36385 0.0
H1515 H 0.22034 0.04404 0.37302 0.0
H1516 H 0.22737 0.97782 0.38218 0.0
H1517 H 0.22093 0.98952 0.33254 0.0
H1518 H 0.23575 0.00986 0.34448 0.0
H1519 H 0.20916 0.99925 0.34224 0.0
C1520 C 0.26031 0.03844 0.38097 0.0
C1521 C 0.24891 0.04792 0.38005 0.0
C1522 C 0.25254 0.01878 0.37571 0.0
C1523 C 0.23331 0.00828 0.36937 0.0
C1524 C 0.22191 0.01768 0.36844 0.0
H1525 H 0.15352 0.8879 0.33546 0.0
H1526 H 0.16918 0.92279 0.3444 0.0
C1527 C 0.22965 0.03733 0.37368 0.0
C1528 C 0.22478 0.9872 0.36421 0.0
H1529 H 0.20444 0.95579 0.33739 0.0
C1530 C 0.2225 0.973 0.37237 0.0
C1531 C 0.21843 0.981 0.35142 0.0
C1532 C 0.22134 0.99572 0.34213 0.0
C1533 C 0.21355 0.95264 0.36813 0.0
C1534 C 0.20698 0.94643 0.35537 0.0
C1535 C 0.20942 0.96064 0.34719 0.0
C1536 C 0.19745 0.92521 0.3503 0.0
C1537 C 0.21072 0.93788 0.37737 0.0
C1538 C 0.20823 0.91511 0.35062 0.0
C1539 C 0.19934 0.89524 0.34551 0.0
C1540 C 0.17956 0.88519 0.33998 0.0
C1541 C 0.16878 0.8953 0.33969 0.0
C1542 C 0.1777 0.9152 0.34477 0.0
H1543 H 0.21234 0.94437 0.38707 0.0
H1544 H 0.19581 0.92422 0.37541 0.0
H1545 H 0.22215 0.93337 0.37662 0.0
H1546 H 0.22361 0.9227 0.35466 0.0
H1547 H 0.20803 0.88782 0.34577 0.0
H1548 H 0.51956 0.63696 0.26514 0.0
H1549 H 0.54176 0.67037 0.27579 0.0
H1550 H 0.55556 0.64445 0.30626 0.0
H1551 H 0.53295 0.61094 0.29574 0.0
H1552 H 0.54819 0.6729 0.31453 0.0
H1553 H 0.60155 0.7019 0.2792 0.0
H1554 H 0.57642 0.6931 0.27283 0.0
H1555 H 0.58308 0.67579 0.2788 0.0
C1556 C 0.5275 0.63842 0.27405 0.0
C1557 C 0.52463 0.62138 0.27959 0.0
C1558 C 0.54024 0.65751 0.28011 0.0
C1559 C 0.55066 0.65995 0.29171 0.0
C1560 C 0.54775 0.64294 0.29728 0.0
H1561 H 0.64877 0.77416 0.32583 0.0
H1562 H 0.62801 0.74006 0.31573 0.0
C1563 C 0.53482 0.62382 0.29129 0.0
C1564 C 0.56399 0.6802 0.29824 0.0
H1565 H 0.60349 0.72607 0.29482 0.0
C1566 C 0.56038 0.68449 0.31026 0.0
C1567 C 0.58008 0.69523 0.29274 0.0
C1568 C 0.58566 0.69123 0.28024 0.0
C1569 C 0.57215 0.70349 0.31682 0.0
C1570 C 0.5876 0.7188 0.31106 0.0
C1571 C 0.59147 0.7144 0.29916 0.0
C1572 C 0.60006 0.73943 0.31727 0.0
C1573 C 0.56813 0.70681 0.32994 0.0
C1574 C 0.59129 0.75052 0.32134 0.0
C1575 C 0.60311 0.7699 0.32724 0.0
C1576 C 0.62392 0.77863 0.32897 0.0
C1577 C 0.63273 0.76773 0.32465 0.0
C1578 C 0.6209 0.74827 0.31887 0.0
H1579 H 0.5603 0.69253 0.33419 0.0
H1580 H 0.58217 0.7171 0.3359 0.0
H1581 H 0.55841 0.71352 0.32982 0.0
H1582 H 0.5753 0.74423 0.31988 0.0
H1583 H 0.59598 0.7781 0.33037 0.0
H1584 H 0.3652 0.87459 0.28063 0.0
H1585 H 0.33395 0.86452 0.28963 0.0
H1586 H 0.32866 0.91079 0.27266 0.0
H1587 H 0.36042 0.92161 0.26409 0.0
H1588 H 0.32045 0.90942 0.29662 0.0
H1589 H 0.27833 0.83336 0.27158 0.0
H1590 H 0.30098 0.8381 0.28016 0.0
H1591 H 0.30207 0.85228 0.26739 0.0
C1592 C 0.35753 0.88279 0.27891 0.0
C1593 C 0.36533 0.89889 0.2716 0.0
C1594 C 0.3395 0.87681 0.28391 0.0
C1595 C 0.32876 0.88662 0.28159 0.0
C1596 C 0.33661 0.90287 0.27445 0.0
H1597 H 0.20593 0.84101 0.29832 0.0
H1598 H 0.23615 0.85228 0.2878 0.0
C1599 C 0.3547 0.90894 0.26949 0.0
C1600 C 0.30963 0.88029 0.28691 0.0
H1601 H 0.26349 0.84001 0.28852 0.0
C1602 C 0.30794 0.89429 0.29479 0.0
C1603 C 0.2932 0.86063 0.28432 0.0
C1604 C 0.29362 0.84528 0.2753 0.0
C1605 C 0.29046 0.889 0.30045 0.0
C1606 C 0.27443 0.86906 0.29839 0.0
C1607 C 0.27589 0.85522 0.29022 0.0
C1608 C 0.25613 0.86219 0.30476 0.0
C1609 C 0.28929 0.9049 0.30848 0.0
C1610 C 0.25731 0.8637 0.31778 0.0
C1611 C 0.24011 0.85738 0.32381 0.0
C1612 C 0.22134 0.84919 0.31694 0.0
C1613 C 0.22014 0.84727 0.30389 0.0
C1614 C 0.2374 0.85371 0.29786 0.0
H1615 H 0.29991 0.92012 0.30611 0.0
H1616 H 0.27402 0.90273 0.30751 0.0
H1617 H 0.29323 0.90408 0.31835 0.0
H1618 H 0.27154 0.8697 0.32328 0.0
H1619 H 0.24156 0.85889 0.33387 0.0
H1620 H 0.07198 0.45358 0.29906 0.0
H1621 H 0.08621 0.435 0.30865 0.0
H1622 H 0.12256 0.44437 0.27843 0.0
H1623 H 0.10811 0.46258 0.26871 0.0
H1624 H 0.10584 0.40652 0.28412 0.0
H1625 H 0.14095 0.45858 0.32712 0.0
H1626 H 0.11461 0.44901 0.32451 0.0
H1627 H 0.1308 0.46469 0.31379 0.0
C1628 C 0.08307 0.45173 0.29451 0.0
C1629 C 0.08899 0.45955 0.28317 0.0
C1630 C 0.09125 0.4412 0.30001 0.0
C1631 C 0.10573 0.43863 0.29437 0.0
C1632 C 0.11145 0.44622 0.28296 0.0
H1633 H 0.18391 0.40302 0.33112 0.0
H1634 H 0.16983 0.42093 0.3205 0.0
C1635 C 0.10315 0.45656 0.2774 0.0
C1636 C 0.1148 0.42785 0.30025 0.0
H1637 H 0.14057 0.42769 0.32682 0.0
C1638 C 0.1135 0.41119 0.29344 0.0
C1639 C 0.12509 0.43417 0.31234 0.0
C1640 C 0.12815 0.4527 0.31982 0.0
C1641 C 0.12195 0.40048 0.29845 0.0
C1642 C 0.13151 0.4063 0.31072 0.0
C1643 C 0.13306 0.42314 0.31746 0.0
C1644 C 0.1401 0.39523 0.31676 0.0
C1645 C 0.1209 0.38329 0.29045 0.0
C1646 C 0.12803 0.37489 0.31823 0.0
C1647 C 0.13609 0.36463 0.3242 0.0
C1648 C 0.15626 0.37463 0.32894 0.0
C1649 C 0.1683 0.39499 0.32754 0.0
C1650 C 0.16028 0.40521 0.32149 0.0
H1651 H 0.11858 0.38456 0.28041 0.0
H1652 H 0.13471 0.38251 0.29218 0.0
H1653 H 0.10812 0.36907 0.29265 0.0
H1654 H 0.11232 0.367 0.31493 0.0
H1655 H 0.12644 0.34895 0.32526 0.0
H1656 H 0.36717 0.43651 0.27379 0.0
H1657 H 0.3356 0.41623 0.28244 0.0
H1658 H 0.32486 0.46578 0.28352 0.0
H1659 H 0.35658 0.48622 0.27511 0.0
H1660 H 0.31788 0.44915 0.30478 0.0
H1661 H 0.27958 0.38963 0.26559 0.0
H1662 H 0.30307 0.39254 0.27141 0.0
H1663 H 0.30238 0.41262 0.26432 0.0
C1664 C 0.35796 0.44298 0.27577 0.0
C1665 C 0.3643 0.46292 0.27377 0.0
C1666 C 0.33989 0.43136 0.28065 0.0
C1667 C 0.32769 0.43937 0.28342 0.0
C1668 C 0.33401 0.45927 0.28142 0.0
H1669 H 0.20492 0.36945 0.30089 0.0
H1670 H 0.23508 0.39003 0.29101 0.0
C1671 C 0.35215 0.47095 0.27666 0.0
C1672 C 0.30874 0.42732 0.28891 0.0
H1673 H 0.26443 0.38329 0.28457 0.0
C1674 C 0.30614 0.43481 0.30032 0.0
C1675 C 0.2933 0.40875 0.28299 0.0
C1676 C 0.2946 0.4005 0.27034 0.0
C1677 C 0.2887 0.42408 0.3061 0.0
C1678 C 0.27368 0.40507 0.30048 0.0
C1679 C 0.27608 0.39776 0.28894 0.0
C1680 C 0.25542 0.3925 0.30646 0.0
C1681 C 0.28645 0.4334 0.31807 0.0
C1682 C 0.25682 0.3868 0.31835 0.0
C1683 C 0.23965 0.37521 0.32407 0.0
C1684 C 0.22069 0.36882 0.31792 0.0
C1685 C 0.21929 0.37415 0.30589 0.0
C1686 C 0.23651 0.3859 0.30022 0.0
H1687 H 0.29604 0.44994 0.31905 0.0
H1688 H 0.27075 0.42958 0.31863 0.0
H1689 H 0.29105 0.42773 0.32603 0.0
H1690 H 0.27123 0.39125 0.3232 0.0
H1691 H 0.24126 0.37116 0.33327 0.0
H1692 H 0.52559 0.88315 0.25361 0.0
H1693 H 0.54802 0.8725 0.26257 0.0
H1694 H 0.54784 0.89866 0.29875 0.0
H1695 H 0.52548 0.90944 0.28987 0.0
H1696 H 0.58601 0.89542 0.27557 0.0
H1697 H 0.53237 0.84129 0.30472 0.0
H1698 H 0.52477 0.85148 0.29238 0.0
H1699 H 0.53574 0.86593 0.3072 0.0
C1700 C 0.53044 0.88676 0.26346 0.0
C1701 C 0.52369 0.89706 0.27105 0.0
C1702 C 0.54317 0.88059 0.26856 0.0
C1703 C 0.54931 0.88451 0.28134 0.0
C1704 C 0.54289 0.89508 0.28891 0.0
H1705 H 0.62582 0.86555 0.33218 0.0
H1706 H 0.60374 0.87504 0.32151 0.0
C1707 C 0.53013 0.90123 0.28382 0.0
C1708 C 0.56264 0.87777 0.28675 0.0
H1709 H 0.56606 0.84906 0.30834 0.0
C1710 C 0.58163 0.88516 0.28267 0.0
C1711 C 0.55681 0.86433 0.29596 0.0
C1712 C 0.53625 0.85512 0.30026 0.0
C1713 C 0.59521 0.87997 0.28786 0.0
C1714 C 0.58949 0.86683 0.29724 0.0
C1715 C 0.5704 0.85919 0.30117 0.0
C1716 C 0.60331 0.86133 0.30345 0.0
C1717 C 0.61576 0.88905 0.28357 0.0
C1718 C 0.61031 0.85037 0.29681 0.0
C1719 C 0.623 0.8449 0.30289 0.0
C1720 C 0.6288 0.85024 0.31572 0.0
C1721 C 0.6217 0.86121 0.3223 0.0
C1722 C 0.60905 0.86664 0.31623 0.0
H1723 H 0.61921 0.90205 0.27828 0.0
H1724 H 0.6273 0.89398 0.29159 0.0
H1725 H 0.61669 0.87765 0.27741 0.0
H1726 H 0.60577 0.84585 0.28697 0.0
H1727 H 0.62812 0.83639 0.29755 0.0
H1728 H 0.10662 0.63127 0.26974 0.0
H1729 H 0.1209 0.66544 0.27954 0.0
H1730 H 0.08574 0.64317 0.31021 0.0
H1731 H 0.07172 0.60885 0.30054 0.0
H1732 H 0.10381 0.68693 0.28551 0.0
H1733 H 0.1406 0.67823 0.32818 0.0
H1734 H 0.13032 0.65961 0.31493 0.0
H1735 H 0.1143 0.66085 0.32582 0.0
C1736 C 0.1019 0.63367 0.27856 0.0
C1737 C 0.08811 0.61742 0.28441 0.0
C1738 C 0.1101 0.65319 0.28416 0.0
C1739 C 0.10464 0.65685 0.2957 0.0
C1740 C 0.09057 0.64067 0.30146 0.0
H1741 H 0.12648 0.7735 0.3259 0.0
H1742 H 0.11161 0.73921 0.31612 0.0
C1743 C 0.08252 0.62109 0.29592 0.0
C1744 C 0.11351 0.67767 0.30155 0.0
H1745 H 0.14 0.70854 0.32781 0.0
C1746 C 0.11177 0.69168 0.29475 0.0
C1747 C 0.12416 0.68391 0.31353 0.0
C1748 C 0.12766 0.66992 0.321 0.0
C1749 C 0.12026 0.71172 0.29963 0.0
C1750 C 0.13028 0.71778 0.31178 0.0
C1751 C 0.13215 0.70382 0.31854 0.0
C1752 C 0.13922 0.73861 0.31761 0.0
C1753 C 0.11881 0.72627 0.29159 0.0
C1754 C 0.15955 0.74949 0.32201 0.0
C1755 C 0.16799 0.76896 0.32777 0.0
C1756 C 0.15623 0.77787 0.32921 0.0
C1757 C 0.1359 0.76701 0.32481 0.0
C1758 C 0.12742 0.74747 0.31915 0.0
H1759 H 0.11605 0.72075 0.28157 0.0
H1760 H 0.10615 0.72819 0.294 0.0
H1761 H 0.13263 0.74112 0.29306 0.0
H1762 H 0.16891 0.74292 0.32095 0.0
H1763 H 0.1837 0.77703 0.33109 0.0
H1764 H 0.83305 0.04134 0.37905 0.0
H1765 H 0.81113 0.00764 0.36873 0.0
H1766 H 0.75977 0.01023 0.37923 0.0
H1767 H 0.78159 0.04405 0.3895 0.0
H1768 H 0.75966 0.97525 0.38461 0.0
H1769 H 0.77505 0.99052 0.33594 0.0
H1770 H 0.79699 0.99916 0.34659 0.0
H1771 H 0.7815 0.01012 0.34825 0.0
C1772 C 0.81707 0.0349 0.37898 0.0
C1773 C 0.80906 0.04542 0.38506 0.0
C1774 C 0.80457 0.01563 0.37309 0.0
C1775 C 0.78383 0.00657 0.37308 0.0
C1776 C 0.77576 0.01701 0.3791 0.0
H1777 H 0.68473 0.88852 0.34544 0.0
H1778 H 0.70552 0.9229 0.35516 0.0
C1779 C 0.78824 0.03628 0.38501 0.0
C1780 C 0.77062 0.98587 0.36724 0.0
H1781 H 0.75696 0.95637 0.33971 0.0
C1782 C 0.75894 0.97112 0.37478 0.0
C1783 C 0.76978 0.98056 0.35442 0.0
C1784 C 0.78135 0.99594 0.34579 0.0
C1785 C 0.74677 0.95108 0.36989 0.0
C1786 C 0.74605 0.94576 0.35709 0.0
C1787 C 0.75762 0.96052 0.34953 0.0
C1788 C 0.73344 0.92491 0.35134 0.0
C1789 C 0.73517 0.93569 0.37851 0.0
C1790 C 0.74224 0.91482 0.34579 0.0
C1791 C 0.73041 0.89523 0.3402 0.0
C1792 C 0.70958 0.8855 0.34002 0.0
C1793 C 0.70077 0.89565 0.34553 0.0
C1794 C 0.71262 0.91523 0.35112 0.0
H1795 H 0.74103 0.94129 0.38839 0.0
H1796 H 0.71937 0.93195 0.37738 0.0
H1797 H 0.73558 0.92174 0.37628 0.0
H1798 H 0.75829 0.92209 0.34583 0.0
H1799 H 0.73755 0.88774 0.33601 0.0
H1800 H 0.99076 0.78322 0.41615 0.0
H1801 H 0.02172 0.79299 0.40671 0.0
H1802 H 0.98822 0.76831 0.37072 0.0
H1803 H 0.95721 0.75845 0.38008 0.0
H1804 H 0.03326 0.7694 0.39297 0.0
H1805 H 0.02974 0.8253 0.3649 0.0
H1806 H 0.01439 0.81527 0.37738 0.0
H1807 H 0.00775 0.80102 0.36243 0.0
C1808 C 0.98997 0.77975 0.40624 0.0
C1809 C 0.97154 0.77017 0.39885 0.0
C1810 C 0.00768 0.78542 0.40086 0.0
C1811 C 0.00727 0.78168 0.388 0.0
C1812 C 0.98889 0.77177 0.38063 0.0
H1813 H 0.09347 0.80037 0.33631 0.0
H1814 H 0.06366 0.79111 0.34687 0.0
C1815 C 0.97119 0.76614 0.38599 0.0
C1816 C 0.02607 0.78792 0.3823 0.0
H1817 H 0.05433 0.81668 0.36072 0.0
C1818 C 0.03797 0.77984 0.38598 0.0
C1819 C 0.03215 0.80157 0.3732 0.0
C1820 C 0.02045 0.81146 0.36931 0.0
C1821 C 0.05555 0.78463 0.38055 0.0
C1822 C 0.06148 0.79808 0.37135 0.0
C1823 C 0.04969 0.80632 0.36776 0.0
C1824 C 0.07968 0.80355 0.36512 0.0
C1825 C 0.06734 0.77485 0.38446 0.0
C1826 C 0.09859 0.81378 0.37189 0.0
C1827 C 0.1157 0.8191 0.36588 0.0
C1828 C 0.11419 0.81437 0.35299 0.0
C1829 C 0.0952 0.80422 0.34625 0.0
C1830 C 0.07813 0.79893 0.35226 0.0
H1831 H 0.05844 0.76153 0.38941 0.0
H1832 H 0.07262 0.77024 0.37629 0.0
H1833 H 0.0806 0.78571 0.39084 0.0
H1834 H 0.10012 0.81781 0.38179 0.0
H1835 H 0.13007 0.82695 0.37136 0.0
H1836 H 0.27086 0.23353 0.38987 0.0
H1837 H 0.25696 0.25304 0.3812 0.0
H1838 H 0.20241 0.19858 0.36803 0.0
H1839 H 0.21599 0.17901 0.37686 0.0
H1840 H 0.24204 0.25023 0.3557 0.0
H1841 H 0.18416 0.23278 0.3881 0.0
H1842 H 0.20513 0.22915 0.39137 0.0
H1843 H 0.1842 0.21142 0.38073 0.0
C1844 C 0.25584 0.22574 0.38522 0.0
C1845 C 0.2445 0.20474 0.38406 0.0
C1846 C 0.24797 0.23688 0.38023 0.0
C1847 C 0.22859 0.22723 0.37413 0.0
C1848 C 0.2173 0.2063 0.37287 0.0
H1849 H 0.15172 0.26285 0.33669 0.0
H1850 H 0.16668 0.24499 0.34639 0.0
C1851 C 0.22516 0.19515 0.3778 0.0
C1852 C 0.22026 0.23899 0.36883 0.0
H1853 H 0.18263 0.24938 0.37075 0.0
C1854 C 0.22914 0.25019 0.35903 0.0
C1855 C 0.2034 0.2388 0.3732 0.0
C1856 C 0.19372 0.22754 0.384 0.0
C1857 C 0.22128 0.26085 0.35323 0.0
C1858 C 0.20435 0.26059 0.35756 0.0
C1859 C 0.19558 0.24952 0.36745 0.0
C1860 C 0.19535 0.27152 0.35185 0.0
C1861 C 0.23081 0.27178 0.34229 0.0
C1862 C 0.20642 0.29237 0.3519 0.0
C1863 C 0.19794 0.30256 0.34631 0.0
C1864 C 0.17819 0.29207 0.34072 0.0
C1865 C 0.167 0.27127 0.3409 0.0
C1866 C 0.17551 0.26107 0.34645 0.0
H1867 H 0.24014 0.26626 0.33816 0.0
H1868 H 0.21935 0.27018 0.33497 0.0
H1869 H 0.24058 0.28792 0.34543 0.0
H1870 H 0.22161 0.30076 0.35625 0.0
H1871 H 0.2069 0.31861 0.3463 0.0
H1872 H 0.63505 0.51468 0.71748 0.0
H1873 H 0.66682 0.5359 0.70948 0.0
H1874 H 0.67232 0.58751 0.73078 0.0
H1875 H 0.64003 0.5665 0.73841 0.0
H1876 H 0.68096 0.59458 0.7071 0.0
H1877 H 0.72218 0.56016 0.72753 0.0
H1878 H 0.69954 0.5422 0.71832 0.0
H1879 H 0.69843 0.55536 0.73222 0.0
C1880 C 0.6429 0.53057 0.7204 0.0
C1881 C 0.63496 0.53887 0.7286 0.0
C1882 C 0.66123 0.54264 0.71595 0.0
C1883 C 0.67213 0.56322 0.71973 0.0
C1884 C 0.66423 0.57162 0.72785 0.0
H1885 H 0.79512 0.63929 0.70374 0.0
H1886 H 0.76506 0.62092 0.71419 0.0
C1887 C 0.64584 0.55956 0.73226 0.0
C1888 C 0.69139 0.57606 0.71481 0.0
H1889 H 0.73714 0.58136 0.71158 0.0
C1890 C 0.69332 0.59181 0.70817 0.0
C1891 C 0.70761 0.57264 0.71639 0.0
C1892 C 0.70695 0.55681 0.72412 0.0
C1893 C 0.71079 0.60382 0.70272 0.0
C1894 C 0.72657 0.59966 0.7037 0.0
C1895 C 0.72492 0.58435 0.71069 0.0
C1896 C 0.74478 0.61079 0.69736 0.0
C1897 C 0.71221 0.62094 0.69604 0.0
C1898 C 0.74338 0.61089 0.68441 0.0
C1899 C 0.76049 0.62146 0.67841 0.0
C1900 C 0.7794 0.63196 0.68524 0.0
C1901 C 0.7808 0.63144 0.69819 0.0
C1902 C 0.76364 0.62094 0.70419 0.0
H1903 H 0.70189 0.62582 0.69932 0.0
H1904 H 0.72761 0.63396 0.69735 0.0
H1905 H 0.70802 0.61603 0.68595 0.0
H1906 H 0.72903 0.60271 0.67891 0.0
H1907 H 0.75887 0.62137 0.66842 0.0
H1908 H 0.50248 0.13399 0.72885 0.0
H1909 H 0.48028 0.14515 0.72024 0.0
H1910 H 0.42992 0.08582 0.72047 0.0
H1911 H 0.45202 0.07464 0.72925 0.0
H1912 H 0.4566 0.13279 0.69866 0.0
H1913 H 0.41065 0.1196 0.73795 0.0
H1914 H 0.4337 0.11919 0.73916 0.0
H1915 H 0.41104 0.09769 0.73204 0.0
C1916 C 0.48668 0.12332 0.72704 0.0
C1917 C 0.47896 0.10347 0.72976 0.0
C1918 C 0.47401 0.12974 0.72217 0.0
C1919 C 0.45341 0.11642 0.71993 0.0
C1920 C 0.4457 0.09649 0.72245 0.0
H1921 H 0.36972 0.12847 0.67049 0.0
H1922 H 0.3928 0.11973 0.68063 0.0
C1923 C 0.45834 0.09011 0.72741 0.0
C1924 C 0.4401 0.12322 0.71455 0.0
H1925 H 0.39839 0.12595 0.71905 0.0
C1926 C 0.44395 0.13142 0.70316 0.0
C1927 C 0.4238 0.12173 0.72053 0.0
C1928 C 0.41964 0.11427 0.73315 0.0
C1929 C 0.43164 0.1377 0.69742 0.0
C1930 C 0.41476 0.13526 0.70309 0.0
C1931 C 0.4112 0.12757 0.71464 0.0
C1932 C 0.40047 0.14036 0.6971 0.0
C1933 C 0.437 0.14709 0.68542 0.0
C1934 C 0.39657 0.15436 0.70318 0.0
C1935 C 0.38317 0.15924 0.69747 0.0
C1936 C 0.37342 0.15017 0.68557 0.0
C1937 C 0.37712 0.1359 0.6796 0.0
C1938 C 0.39041 0.13096 0.68535 0.0
H1939 H 0.45308 0.1533 0.68433 0.0
H1940 H 0.42833 0.13554 0.6775 0.0
H1941 H 0.43344 0.15926 0.68489 0.0
H1942 H 0.40408 0.16168 0.7123 0.0
H1943 H 0.38062 0.17026 0.70232 0.0
H1944 H 0.93849 0.37996 0.72176 0.0
H1945 H 0.92493 0.34563 0.71226 0.0
H1946 H 0.87177 0.34499 0.69762 0.0
H1947 H 0.88513 0.37918 0.70708 0.0
H1948 H 0.88974 0.31138 0.71627 0.0
H1949 H 0.88884 0.32665 0.66699 0.0
H1950 H 0.90263 0.3462 0.67953 0.0
H1951 H 0.87619 0.3359 0.67623 0.0
C1952 C 0.9239 0.37249 0.71652 0.0
C1953 C 0.91295 0.38234 0.71509 0.0
C1954 C 0.91623 0.35293 0.71107 0.0
C1955 C 0.89751 0.34292 0.70407 0.0
C1956 C 0.88646 0.35263 0.70273 0.0
H1957 H 0.8199 0.22424 0.66674 0.0
H1958 H 0.83492 0.25875 0.67634 0.0
C1959 C 0.89413 0.37217 0.70814 0.0
C1960 C 0.88921 0.3221 0.69847 0.0
H1961 H 0.87137 0.29248 0.67088 0.0
C1962 C 0.88586 0.30724 0.70634 0.0
C1963 C 0.88416 0.31679 0.68551 0.0
C1964 C 0.8883 0.33224 0.67655 0.0
C1965 C 0.87712 0.2871 0.70162 0.0
C1966 C 0.87185 0.28179 0.68868 0.0
C1967 C 0.87534 0.29664 0.6808 0.0
C1968 C 0.86273 0.26086 0.68312 0.0
C1969 C 0.87315 0.2716 0.71051 0.0
C1970 C 0.8735 0.25078 0.68367 0.0
C1971 C 0.865 0.23116 0.67818 0.0
C1972 C 0.84561 0.22135 0.67203 0.0
C1973 C 0.83486 0.23148 0.67145 0.0
C1974 C 0.8434 0.25114 0.67691 0.0
H1975 H 0.87384 0.27744 0.72024 0.0
H1976 H 0.85829 0.25808 0.70791 0.0
H1977 H 0.88457 0.26702 0.71011 0.0
H1978 H 0.88857 0.25817 0.68823 0.0
H1979 H 0.87366 0.22373 0.67868 0.0
H1980 H 0.21754 0.95785 0.61229 0.0
H1981 H 0.2392 0.99139 0.623 0.0
H1982 H 0.1878 0.99229 0.6351 0.0
H1983 H 0.16603 0.95889 0.62434 0.0
H1984 H 0.23821 0.02641 0.61882 0.0
H1985 H 0.22513 0.00824 0.66735 0.0
H1986 H 0.21866 0.98936 0.65456 0.0
H1987 H 0.20284 0.99972 0.65705 0.0
C1988 C 0.21084 0.9652 0.61722 0.0
C1989 C 0.19005 0.95566 0.6175 0.0
C1990 C 0.22324 0.98431 0.62337 0.0
C1991 C 0.21512 0.99418 0.62998 0.0
C1992 C 0.19441 0.98474 0.63028 0.0
H1993 H 0.26362 0.11176 0.67022 0.0
H1994 H 0.24198 0.0777 0.66009 0.0
C1995 C 0.18199 0.96564 0.62414 0.0
C1996 C 0.22823 0.01469 0.63614 0.0
H1997 H 0.24301 0.04266 0.6643 0.0
C1998 C 0.23936 0.02997 0.62877 0.0
C1999 C 0.22961 0.01925 0.64911 0.0
C2000 C 0.21857 0.00327 0.65752 0.0
C2001 C 0.25161 0.04981 0.63401 0.0
C2002 C 0.25299 0.05437 0.64699 0.0
C2003 C 0.24187 0.03909 0.65435 0.0
C2004 C 0.26607 0.0749 0.65311 0.0
C2005 C 0.26263 0.06578 0.62559 0.0
C2006 C 0.28676 0.08444 0.65267 0.0
C2007 C 0.2991 0.10382 0.65843 0.0
C2008 C 0.29094 0.11393 0.66479 0.0
C2009 C 0.27026 0.10429 0.66536 0.0
C2010 C 0.25791 0.08488 0.6596 0.0
H2011 H 0.25603 0.06081 0.61576 0.0
H2012 H 0.26258 0.07972 0.62855 0.0
H2013 H 0.27836 0.06931 0.62602 0.0
H2014 H 0.29339 0.07685 0.64793 0.0
H2015 H 0.31502 0.11087 0.65792 0.0
H2016 H 0.02326 0.20007 0.60518 0.0
H2017 H 0.99189 0.18955 0.61422 0.0
H2018 H 0.00177 0.24949 0.6146 0.0
H2019 H 0.03305 0.26003 0.60538 0.0
H2020 H 0.98564 0.2022 0.63619 0.0
H2021 H 0.94528 0.21691 0.59816 0.0
H2022 H 0.96813 0.21677 0.59632 0.0
H2023 H 0.96881 0.23843 0.60389 0.0
C2024 C 0.01873 0.211 0.6072 0.0
C2025 C 0.03056 0.23086 0.60456 0.0
C2026 C 0.00079 0.20496 0.61231 0.0
C2027 C 0.99433 0.21865 0.61491 0.0
C2028 C 0.0062 0.23855 0.61238 0.0
H2029 H 0.9081 0.2052 0.66602 0.0
H2030 H 0.93811 0.21452 0.6557 0.0
C2031 C 0.02408 0.24456 0.60715 0.0
C2032 C 0.97557 0.21223 0.62071 0.0
H2033 H 0.93057 0.21006 0.61723 0.0
C2034 C 0.97355 0.20382 0.63201 0.0
C2035 C 0.9597 0.21409 0.61515 0.0
C2036 C 0.96046 0.22185 0.60265 0.0
C2037 C 0.95624 0.19753 0.63803 0.0
C2038 C 0.94073 0.20019 0.63275 0.0
C2039 C 0.94258 0.20825 0.62133 0.0
C2040 C 0.92247 0.1947 0.63893 0.0
C2041 C 0.95462 0.18778 0.64987 0.0
C2042 C 0.90365 0.18093 0.63278 0.0
C2043 C 0.88641 0.17574 0.6386 0.0
C2044 C 0.8877 0.18424 0.65069 0.0
C2045 C 0.90657 0.1982 0.65677 0.0
C2046 C 0.92377 0.20348 0.6509 0.0
H2047 H 0.96476 0.18156 0.65063 0.0
H2048 H 0.95891 0.19912 0.65794 0.0
H2049 H 0.93914 0.17555 0.65045 0.0
H2050 H 0.90231 0.17407 0.6235 0.0
H2051 H 0.87211 0.16496 0.63366 0.0
H2052 H 0.78233 0.82027 0.6278 0.0
H2053 H 0.7955 0.80082 0.63726 0.0
H2054 H 0.74157 0.74624 0.6233 0.0
H2055 H 0.72825 0.76563 0.61378 0.0
H2056 H 0.78002 0.77406 0.65495 0.0
H2057 H 0.78522 0.73671 0.61114 0.0
H2058 H 0.78156 0.75796 0.61144 0.0
H2059 H 0.76099 0.73348 0.61283 0.0
C2060 C 0.77321 0.80413 0.62681 0.0
C2061 C 0.75425 0.79447 0.62003 0.0
C2062 C 0.7808 0.79305 0.63217 0.0
C2063 C 0.76963 0.77211 0.63083 0.0
C2064 C 0.75061 0.76239 0.62421 0.0
H2065 H 0.79251 0.68166 0.65828 0.0
H2066 H 0.77758 0.69976 0.6489 0.0
C2067 C 0.74301 0.77347 0.6188 0.0
C2068 C 0.77787 0.76054 0.63657 0.0
H2069 H 0.7922 0.72621 0.62993 0.0
C2070 C 0.78273 0.76363 0.64949 0.0
C2071 C 0.78136 0.74694 0.62939 0.0
C2072 C 0.77719 0.74365 0.61542 0.0
C2073 C 0.79084 0.75334 0.65546 0.0
C2074 C 0.79442 0.73983 0.64828 0.0
C2075 C 0.78941 0.7366 0.63538 0.0
C2076 C 0.8035 0.72901 0.65399 0.0
C2077 C 0.79527 0.75677 0.66941 0.0
C2078 C 0.82309 0.73949 0.6598 0.0
C2079 C 0.83168 0.7292 0.66511 0.0
C2080 C 0.8208 0.70827 0.66463 0.0
C2081 C 0.80123 0.6978 0.65874 0.0
C2082 C 0.79269 0.70809 0.6534 0.0
H2083 H 0.78737 0.76382 0.67375 0.0
H2084 H 0.79094 0.74249 0.67342 0.0
H2085 H 0.81152 0.76689 0.67188 0.0
H2086 H 0.83178 0.75562 0.66016 0.0
H2087 H 0.84682 0.7376 0.66955 0.0
H2088 H 0.0261 0.76798 0.5972 0.0
H2089 H 0.99389 0.74695 0.60491 0.0
H2090 H 0.99904 0.79869 0.62583 0.0
H2091 H 0.03075 0.81992 0.61775 0.0
H2092 H 0.9852 0.7402 0.62863 0.0
H2093 H 0.9437 0.77393 0.60762 0.0
H2094 H 0.96751 0.77877 0.60302 0.0
H2095 H 0.96628 0.79207 0.61681 0.0
C2096 C 0.02024 0.77493 0.60329 0.0
C2097 C 0.03099 0.79567 0.60681 0.0
C2098 C 0.00189 0.76287 0.60775 0.0
C2099 C 0.99391 0.7713 0.61577 0.0
C2100 C 0.0047 0.79192 0.61943 0.0
H2101 H 0.90687 0.71349 0.66696 0.0
H2102 H 0.93676 0.73215 0.65651 0.0
C2103 C 0.02299 0.804 0.61494 0.0
C2104 C 0.97464 0.75846 0.62069 0.0
H2105 H 0.92869 0.75285 0.6236 0.0
C2106 C 0.97278 0.74285 0.62744 0.0
C2107 C 0.95833 0.76172 0.61895 0.0
C2108 C 0.95894 0.7774 0.61109 0.0
C2109 C 0.95527 0.73081 0.63286 0.0
C2110 C 0.93939 0.73482 0.63172 0.0
C2111 C 0.94099 0.74998 0.6246 0.0
C2112 C 0.92114 0.72367 0.63802 0.0
C2113 C 0.95392 0.71385 0.63968 0.0
C2114 C 0.90233 0.71329 0.63113 0.0
C2115 C 0.88513 0.70278 0.63709 0.0
C2116 C 0.88645 0.70249 0.65007 0.0
C2117 C 0.90531 0.71321 0.65695 0.0
C2118 C 0.92245 0.72379 0.65098 0.0
H2119 H 0.96437 0.70905 0.63653 0.0
H2120 H 0.95799 0.71889 0.64976 0.0
H2121 H 0.93857 0.70075 0.63836 0.0
H2122 H 0.90097 0.71315 0.62112 0.0
H2123 H 0.87085 0.69475 0.63151 0.0
H2124 H 0.19164 0.24403 0.62307 0.0
H2125 H 0.21424 0.23364 0.63211 0.0
H2126 H 0.21446 0.20701 0.59609 0.0
H2127 H 0.19184 0.21729 0.58698 0.0
H2128 H 0.20777 0.19489 0.63221 0.0
H2129 H 0.27388 0.24203 0.60788 0.0
H2130 H 0.25312 0.24631 0.60844 0.0
H2131 H 0.2513 0.22663 0.59781 0.0
C2132 C 0.19648 0.23593 0.61708 0.0
C2133 C 0.19001 0.23153 0.6043 0.0
C2134 C 0.20944 0.23008 0.62224 0.0
C2135 C 0.21624 0.21982 0.61473 0.0
C2136 C 0.20976 0.21533 0.60199 0.0
H2137 H 0.29214 0.1693 0.63156 0.0
H2138 H 0.26946 0.17865 0.62131 0.0
C2139 C 0.19683 0.2212 0.59681 0.0
C2140 C 0.22955 0.21321 0.62033 0.0
H2141 H 0.27569 0.21824 0.6198 0.0
C2142 C 0.22264 0.20003 0.62953 0.0
C2143 C 0.2489 0.21988 0.61676 0.0
C2144 C 0.25736 0.23463 0.60726 0.0
C2145 C 0.23453 0.19323 0.63521 0.0
C2146 C 0.25392 0.20004 0.63171 0.0
C2147 C 0.26078 0.21304 0.62242 0.0
C2148 C 0.26756 0.19432 0.63789 0.0
C2149 C 0.22617 0.17865 0.6448 0.0
C2150 C 0.27415 0.20027 0.65055 0.0
C2151 C 0.2871 0.19501 0.65643 0.0
C2152 C 0.29376 0.18374 0.64973 0.0
C2153 C 0.28724 0.17793 0.637 0.0
C2154 C 0.27432 0.18327 0.63112 0.0
H2155 H 0.20964 0.17106 0.64413 0.0
H2156 H 0.23063 0.16712 0.64379 0.0
H2157 H 0.23211 0.18683 0.65421 0.0
H2158 H 0.26937 0.20911 0.65588 0.0
H2159 H 0.29186 0.1998 0.66622 0.0
H2160 H 0.72954 0.95568 0.6146 0.0
H2161 H 0.74359 0.99027 0.62376 0.0
H2162 H 0.79696 0.99085 0.63785 0.0
H2163 H 0.78329 0.95654 0.62849 0.0
H2164 H 0.75725 0.00609 0.64922 0.0
H2165 H 0.81756 0.04037 0.61833 0.0
H2166 H 0.79644 0.01544 0.61474 0.0
H2167 H 0.8167 0.01999 0.62587 0.0
C2168 C 0.74433 0.96324 0.61957 0.0
C2169 C 0.75534 0.9534 0.62078 0.0
C2170 C 0.75227 0.98293 0.62485 0.0
C2171 C 0.7714 0.99315 0.63132 0.0
C2172 C 0.78229 0.9833 0.63272 0.0
H2173 H 0.84797 0.11141 0.66955 0.0
H2174 H 0.83293 0.07677 0.66024 0.0
C2175 C 0.77436 0.96362 0.62748 0.0
C2176 C 0.77994 0.01409 0.63673 0.0
H2177 H 0.81856 0.06141 0.6355 0.0
C2178 C 0.77058 0.01823 0.64619 0.0
C2179 C 0.79734 0.02982 0.63274 0.0
C2180 C 0.80754 0.02629 0.62229 0.0
C2181 C 0.77846 0.03771 0.65199 0.0
C2182 C 0.79592 0.05344 0.64803 0.0
C2183 C 0.8052 0.04929 0.63852 0.0
C2184 C 0.80488 0.07433 0.65367 0.0
C2185 C 0.76832 0.04118 0.6625 0.0
C2186 C 0.79417 0.08446 0.65291 0.0
C2187 C 0.80268 0.10418 0.65825 0.0
C2188 C 0.82212 0.11411 0.66434 0.0
C2189 C 0.83293 0.10405 0.66495 0.0
C2190 C 0.82438 0.08431 0.65963 0.0
H2191 H 0.75839 0.02707 0.66647 0.0
H2192 H 0.77944 0.05204 0.67004 0.0
H2193 H 0.75906 0.04739 0.65897 0.0
H2194 H 0.77925 0.07716 0.64812 0.0
H2195 H 0.79405 0.11162 0.65761 0.0
H2196 H 0.50011 0.37578 0.71045 0.0
H2197 H 0.47858 0.34235 0.69964 0.0
H2198 H 0.4268 0.34325 0.71099 0.0
H2199 H 0.44817 0.37696 0.7215 0.0
H2200 H 0.45223 0.30814 0.71028 0.0
H2201 H 0.41231 0.32603 0.67361 0.0
H2202 H 0.43499 0.34495 0.6826 0.0
H2203 H 0.41159 0.33496 0.68912 0.0
C2204 C 0.48412 0.36903 0.71046 0.0
C2205 C 0.47585 0.37908 0.71679 0.0
C2206 C 0.47186 0.34987 0.70435 0.0
C2207 C 0.4511 0.34044 0.70439 0.0
C2208 C 0.44276 0.35041 0.71066 0.0
H2209 H 0.35214 0.22322 0.67723 0.0
H2210 H 0.37385 0.25742 0.68698 0.0
C2211 C 0.45501 0.36958 0.71678 0.0
C2212 C 0.43825 0.31983 0.69832 0.0
H2213 H 0.40006 0.29163 0.67565 0.0
C2214 C 0.4409 0.30453 0.70266 0.0
C2215 C 0.42346 0.31519 0.68841 0.0
C2216 C 0.42048 0.33115 0.68306 0.0
C2217 C 0.42889 0.28461 0.6975 0.0
C2218 C 0.41408 0.27998 0.68761 0.0
C2219 C 0.41144 0.29527 0.68325 0.0
C2220 C 0.40108 0.2593 0.68169 0.0
C2221 C 0.43182 0.26863 0.70288 0.0
C2222 C 0.40921 0.24913 0.67539 0.0
C2223 C 0.39685 0.2296 0.66983 0.0
C2224 C 0.37618 0.22 0.67045 0.0
C2225 C 0.36805 0.23027 0.67665 0.0
C2226 C 0.38041 0.24979 0.6822 0.0
H2227 H 0.4403 0.27387 0.71224 0.0
H2228 H 0.41726 0.25501 0.70356 0.0
H2229 H 0.44033 0.26447 0.6967 0.0
H2230 H 0.4251 0.25636 0.67471 0.0
H2231 H 0.40347 0.22202 0.66506 0.0
H2232 H 0.65444 0.1133 0.748 0.0
H2233 H 0.68574 0.12426 0.73874 0.0
H2234 H 0.65282 0.0961 0.70297 0.0
H2235 H 0.62147 0.08499 0.71215 0.0
H2236 H 0.69966 0.10191 0.72555 0.0
H2237 H 0.69091 0.15402 0.69636 0.0
H2238 H 0.67607 0.14369 0.70901 0.0
H2239 H 0.6701 0.12894 0.6943 0.0
C2240 C 0.65386 0.10925 0.73819 0.0
C2241 C 0.63548 0.0984 0.73079 0.0
C2242 C 0.67175 0.11561 0.73291 0.0
C2243 C 0.67157 0.1113 0.72014 0.0
C2244 C 0.65327 0.09998 0.71279 0.0
H2245 H 0.75934 0.13483 0.66888 0.0
H2246 H 0.72919 0.12409 0.67931 0.0
C2247 C 0.63538 0.09364 0.71805 0.0
C2248 C 0.69053 0.11866 0.71449 0.0
H2249 H 0.71735 0.14798 0.69266 0.0
C2250 C 0.70362 0.11208 0.71842 0.0
C2251 C 0.69562 0.13196 0.70521 0.0
C2252 C 0.68255 0.14024 0.70103 0.0
C2253 C 0.72148 0.11803 0.71306 0.0
C2254 C 0.72645 0.13115 0.70367 0.0
C2255 C 0.71345 0.13788 0.69984 0.0
C2256 C 0.74488 0.13776 0.69751 0.0
C2257 C 0.73461 0.10981 0.71722 0.0
C2258 C 0.76369 0.14925 0.70427 0.0
C2259 C 0.78101 0.15544 0.69835 0.0
C2260 C 0.77977 0.1503 0.68553 0.0
C2261 C 0.76086 0.13901 0.67877 0.0
C2262 C 0.74359 0.13286 0.6847 0.0
H2263 H 0.72652 0.09648 0.72232 0.0
H2264 H 0.74045 0.10567 0.70916 0.0
H2265 H 0.74751 0.12144 0.72354 0.0
H2266 H 0.76499 0.15352 0.71413 0.0
H2267 H 0.79532 0.16419 0.70383 0.0
H2268 H 0.93781 0.56909 0.72106 0.0
H2269 H 0.92383 0.58811 0.71176 0.0
H2270 H 0.87032 0.53309 0.69789 0.0
H2271 H 0.88395 0.51401 0.70735 0.0
H2272 H 0.90988 0.5853 0.68604 0.0
H2273 H 0.85024 0.56616 0.71732 0.0
H2274 H 0.87142 0.563 0.72099 0.0
H2275 H 0.85103 0.54514 0.71007 0.0
C2276 C 0.92301 0.56107 0.7161 0.0
C2277 C 0.91196 0.54006 0.71496 0.0
C2278 C 0.9151 0.57193 0.71075 0.0
C2279 C 0.89597 0.56198 0.70429 0.0
C2280 C 0.88501 0.54103 0.703 0.0
H2281 H 0.819 0.59692 0.66602 0.0
H2282 H 0.83416 0.57896 0.67536 0.0
C2283 C 0.89291 0.53017 0.7083 0.0
C2284 C 0.88748 0.57344 0.69876 0.0
H2285 H 0.84912 0.58287 0.69995 0.0
C2286 C 0.89667 0.5849 0.68911 0.0
C2287 C 0.87023 0.57278 0.70279 0.0
C2288 C 0.86021 0.56126 0.71343 0.0
C2289 C 0.88876 0.5954 0.68316 0.0
C2290 C 0.87145 0.59469 0.68717 0.0
C2291 C 0.86236 0.58332 0.69688 0.0
C2292 C 0.86249 0.6056 0.6814 0.0
C2293 C 0.89869 0.60671 0.67243 0.0
C2294 C 0.87334 0.62651 0.68182 0.0
C2295 C 0.86476 0.63675 0.67646 0.0
C2296 C 0.8451 0.62625 0.6707 0.0
C2297 C 0.83419 0.60535 0.67038 0.0
C2298 C 0.84281 0.5951 0.67572 0.0
H2299 H 0.90837 0.6015 0.66846 0.0
H2300 H 0.88745 0.60511 0.66494 0.0
H2301 H 0.90818 0.62282 0.67574 0.0
H2302 H 0.8884 0.63492 0.68639 0.0
H2303 H 0.87349 0.65288 0.67683 0.0
H2304 H 0.46248 0.98026 0.18631 0.0
H2305 H 0.4667 0.99 0.1651 0.0
H2306 H 0.47416 0.9399 0.15422 0.0
H2307 H 0.46972 0.92995 0.17528 0.0
H2308 H 0.50123 0.99897 0.15215 0.0
H2309 H 0.43139 0.93597 0.12749 0.0
H2310 H 0.43457 0.94248 0.14408 0.0
H2311 H 0.44529 0.9286 0.13753 0.0
C2312 C 0.46476 0.9712 0.17934 0.0
C2313 C 0.4658 0.95436 0.18244 0.0
C2314 C 0.46724 0.97681 0.16727 0.0
C2315 C 0.47049 0.96552 0.15809 0.0
C2316 C 0.47137 0.94863 0.16114 0.0
H2317 H 0.4994 0.96886 0.08312 0.0
H2318 H 0.48964 0.96084 0.10396 0.0
C2319 C 0.46903 0.94309 0.17319 0.0
C2320 C 0.47403 0.97186 0.14547 0.0
H2321 H 0.45654 0.95623 0.11491 0.0
C2322 C 0.49137 0.9898 0.14399 0.0
C2323 C 0.46112 0.95977 0.1349 0.0
C2324 C 0.44194 0.9407 0.13603 0.0
C2325 C 0.4966 0.9956 0.13215 0.0
C2326 C 0.48388 0.9833 0.12154 0.0
C2327 C 0.46627 0.96561 0.12305 0.0
C2328 C 0.48905 0.98803 0.10878 0.0
C2329 C 0.5161 0.01438 0.13109 0.0
C2330 C 0.49161 0.00581 0.10451 0.0
C2331 C 0.49725 0.01045 0.09262 0.0
C2332 C 0.50019 0.99727 0.08474 0.0
C2333 C 0.49709 0.97923 0.08893 0.0
C2334 C 0.49157 0.97466 0.10084 0.0
H2335 H 0.52621 0.01942 0.13986 0.0
H2336 H 0.52389 0.01206 0.12347 0.0
H2337 H 0.51313 0.02654 0.12898 0.0
H2338 H 0.48928 0.0161 0.11039 0.0
H2339 H 0.4992 0.0243 0.08956 0.0
H2340 H 0.047 0.49473 0.185 0.0
H2341 H 0.04031 0.493 0.16248 0.0
H2342 H 0.99236 0.50469 0.16773 0.0
H2343 H 0.99891 0.50641 0.19026 0.0
H2344 H 0.00553 0.46917 0.14569 0.0
H2345 H 0.02971 0.54992 0.14787 0.0
H2346 H 0.03473 0.53887 0.16078 0.0
H2347 H 0.01045 0.53603 0.15754 0.0
C2348 C 0.03482 0.49662 0.18136 0.0
C2349 C 0.02359 0.5009 0.1894 0.0
C2350 C 0.03108 0.4957 0.1685 0.0
C2351 C 0.01609 0.49908 0.16348 0.0
C2352 C 0.00428 0.50247 0.17145 0.0
H2353 H 0.97743 0.51167 0.08994 0.0
H2354 H 0.98066 0.50733 0.11192 0.0
C2355 C 0.00804 0.50345 0.1843 0.0
C2356 C 0.01331 0.49983 0.14995 0.0
H2357 H 0.01556 0.53092 0.12834 0.0
C2358 C 0.00776 0.48266 0.14187 0.0
C2359 C 0.01637 0.51751 0.14503 0.0
C2360 C 0.02332 0.5367 0.15322 0.0
C2361 C 0.00474 0.48258 0.12896 0.0
C2362 C 0.00762 0.50022 0.12407 0.0
C2363 C 0.01327 0.5174 0.13215 0.0
C2364 C 0.00488 0.50133 0.11058 0.0
C2365 C 0.99812 0.46357 0.12067 0.0
C2366 C 0.01744 0.49936 0.10256 0.0
C2367 C 0.01573 0.50198 0.08999 0.0
C2368 C 0.00152 0.50674 0.08527 0.0
C2369 C 0.98874 0.50833 0.09332 0.0
C2370 C 0.99047 0.50572 0.10586 0.0
H2371 H 0.99217 0.4503 0.12598 0.0
H2372 H 0.98648 0.46122 0.11323 0.0
H2373 H 0.01105 0.46471 0.11618 0.0
H2374 H 0.02892 0.49636 0.10609 0.0
H2375 H 0.02595 0.5009 0.08406 0.0
H2376 H 0.43798 0.49406 0.17892 0.0
H2377 H 0.44245 0.49005 0.15699 0.0
H2378 H 0.50283 0.5041 0.16725 0.0
H2379 H 0.49834 0.50767 0.18919 0.0
H2380 H 0.47112 0.52054 0.14461 0.0
H2381 H 0.4808 0.45424 0.14213 0.0
H2382 H 0.46997 0.46034 0.15476 0.0
H2383 H 0.49656 0.47329 0.15442 0.0
C2384 C 0.45206 0.49585 0.17652 0.0
C2385 C 0.46781 0.50118 0.18579 0.0
C2386 C 0.45462 0.49366 0.16399 0.0
C2387 C 0.47289 0.49656 0.16052 0.0
C2388 C 0.4885 0.50145 0.16974 0.0
H2389 H 0.53098 0.5097 0.09406 0.0
H2390 H 0.52072 0.50607 0.11506 0.0
C2391 C 0.48598 0.50371 0.18227 0.0
C2392 C 0.47619 0.49607 0.14723 0.0
H2393 H 0.49001 0.47375 0.12494 0.0
C2394 C 0.47501 0.51016 0.14024 0.0
C2395 C 0.48135 0.48256 0.14162 0.0
C2396 C 0.48208 0.46662 0.14857 0.0
C2397 C 0.47955 0.51159 0.12789 0.0
C2398 C 0.485 0.49828 0.12232 0.0
C2399 C 0.48582 0.48393 0.12925 0.0
C2400 C 0.49073 0.49959 0.10949 0.0
C2401 C 0.4792 0.52785 0.12107 0.0
C2402 C 0.47716 0.49681 0.09938 0.0
C2403 C 0.48304 0.49911 0.08737 0.0
C2404 C 0.50259 0.50408 0.08526 0.0
C2405 C 0.51595 0.50626 0.09539 0.0
C2406 C 0.51006 0.50401 0.10738 0.0
H2407 H 0.47937 0.53962 0.12753 0.0
H2408 H 0.49216 0.53496 0.11558 0.0
H2409 H 0.4654 0.52123 0.11457 0.0
H2410 H 0.46206 0.49306 0.10078 0.0
H2411 H 0.47241 0.49743 0.0798 0.0
H2412 H 0.952 0.50821 0.81375 0.0
H2413 H 0.95821 0.51141 0.83639 0.0
H2414 H 0.00324 0.49488 0.83294 0.0
H2415 H 0.99749 0.49215 0.8103 0.0
H2416 H 0.95344 0.48025 0.85021 0.0
H2417 H 0.03079 0.54431 0.8586 0.0
H2418 H 0.01525 0.53897 0.84422 0.0
H2419 H 0.02763 0.52502 0.8471 0.0
C2420 C 0.96353 0.50569 0.81781 0.0
C2421 C 0.97429 0.49996 0.81024 0.0
C2422 C 0.96697 0.50741 0.83074 0.0
C2423 C 0.98133 0.50361 0.83632 0.0
C2424 C 0.99233 0.49823 0.82881 0.0
H2425 H 0.01803 0.48707 0.90857 0.0
H2426 H 0.0135 0.49132 0.8867 0.0
C2427 C 0.98888 0.49645 0.81588 0.0
C2428 C 0.98379 0.50381 0.84998 0.0
H2429 H 0.01806 0.52468 0.87547 0.0
C2430 C 0.96748 0.49012 0.85578 0.0
C2431 C 0.00216 0.51668 0.85717 0.0
C2432 C 0.01992 0.53221 0.85149 0.0
C2433 C 0.96924 0.48843 0.86854 0.0
C2434 C 0.98772 0.50105 0.8757 0.0
C2435 C 0.00392 0.51503 0.86994 0.0
C2436 C 0.99079 0.49927 0.88906 0.0
C2437 C 0.95154 0.4726 0.87413 0.0
C2438 C 0.97973 0.50264 0.89767 0.0
C2439 C 0.98212 0.5 0.91017 0.0
C2440 C 0.99571 0.49405 0.91428 0.0
C2441 C 0.00715 0.49125 0.90567 0.0
C2442 C 0.00472 0.49386 0.89319 0.0
H2443 H 0.94008 0.46126 0.86691 0.0
H2444 H 0.95622 0.46485 0.88067 0.0
H2445 H 0.94453 0.47976 0.87939 0.0
H2446 H 0.96914 0.50717 0.8947 0.0
H2447 H 0.97303 0.50221 0.91655 0.0
H2448 H 0.55639 0.50246 0.82168 0.0
H2449 H 0.55045 0.505 0.84346 0.0
H2450 H 0.48788 0.48083 0.83237 0.0
H2451 H 0.49367 0.47858 0.81058 0.0
H2452 H 0.53104 0.52505 0.85571 0.0
H2453 H 0.49136 0.44265 0.85695 0.0
H2454 H 0.50727 0.45485 0.84507 0.0
H2455 H 0.48261 0.45142 0.84442 0.0
C2456 C 0.54141 0.49799 0.82385 0.0
C2457 C 0.52546 0.49015 0.81439 0.0
C2458 C 0.53805 0.49937 0.8363 0.0
C2459 C 0.51871 0.49284 0.83949 0.0
C2460 C 0.50287 0.48564 0.83008 0.0
H2461 H 0.46225 0.47505 0.90722 0.0
H2462 H 0.47056 0.47729 0.88581 0.0
C2463 C 0.50621 0.4843 0.81764 0.0
C2464 C 0.51491 0.49294 0.85268 0.0
H2465 H 0.4913 0.46199 0.87463 0.0
C2466 C 0.52243 0.51131 0.8599 0.0
C2467 C 0.5037 0.47494 0.85805 0.0
C2468 C 0.49587 0.45481 0.85079 0.0
C2469 C 0.51856 0.51216 0.87234 0.0
C2470 C 0.50724 0.49413 0.87771 0.0
C2471 C 0.49992 0.47578 0.87049 0.0
C2472 C 0.50247 0.49384 0.89075 0.0
C2473 C 0.52614 0.53231 0.87951 0.0
C2474 C 0.51768 0.50235 0.90064 0.0
C2475 C 0.51297 0.5013 0.91292 0.0
C2476 C 0.49296 0.49155 0.91553 0.0
C2477 C 0.4778 0.48299 0.90556 0.0
C2478 C 0.48252 0.48412 0.89332 0.0
H2479 H 0.52984 0.54422 0.87323 0.0
H2480 H 0.51496 0.53205 0.88552 0.0
H2481 H 0.5399 0.53629 0.88554 0.0
H2482 H 0.53318 0.50957 0.89888 0.0
H2483 H 0.52501 0.50818 0.92036 0.0
H2484 H 0.53627 0.01938 0.81624 0.0
H2485 H 0.53031 0.00984 0.83741 0.0
H2486 H 0.52082 0.05922 0.8464 0.0
H2487 H 0.52661 0.06873 0.82533 0.0
H2488 H 0.54924 0.03099 0.86057 0.0
H2489 H 0.47002 0.01144 0.85536 0.0
H2490 H 0.48433 0.01514 0.84228 0.0
H2491 H 0.48676 0.03628 0.85172 0.0
C2492 C 0.53303 0.02825 0.82277 0.0
C2493 C 0.53164 0.04464 0.8191 0.0
C2494 C 0.52959 0.02276 0.83483 0.0
C2495 C 0.52471 0.03358 0.84337 0.0
C2496 C 0.52403 0.05036 0.83985 0.0
H2497 H 0.49869 0.03137 0.91942 0.0
H2498 H 0.50786 0.03987 0.89852 0.0
C2499 C 0.52735 0.05577 0.82782 0.0
C2500 C 0.52021 0.02736 0.85597 0.0
H2501 H 0.48436 0.01406 0.87592 0.0
C2502 C 0.53501 0.02711 0.86391 0.0
C2503 C 0.50157 0.02221 0.86025 0.0
C2504 C 0.48468 0.02107 0.85193 0.0
C2505 C 0.53187 0.02248 0.8762 0.0
C2506 C 0.51344 0.01787 0.88055 0.0
C2507 C 0.49854 0.01778 0.87255 0.0
C2508 C 0.50927 0.01323 0.89342 0.0
C2509 C 0.54841 0.02304 0.88455 0.0
C2510 C 0.50706 0.99545 0.89742 0.0
C2511 C 0.5018 0.99054 0.90935 0.0
C2512 C 0.49869 0.00336 0.91745 0.0
C2513 C 0.50122 0.02131 0.91345 0.0
C2514 C 0.50635 0.02614 0.90151 0.0
H2515 H 0.56287 0.03032 0.88049 0.0
H2516 H 0.55023 0.03114 0.89376 0.0
H2517 H 0.54456 0.00753 0.88603 0.0
H2518 H 0.50901 0.98519 0.89124 0.0
H2519 H 0.50011 0.97668 0.91222 0.0
H2520 H 0.12853 0.31563 0.52013 0.0
H2521 H 0.13275 0.32539 0.49891 0.0
H2522 H 0.14016 0.27526 0.48801 0.0
H2523 H 0.13574 0.26531 0.50906 0.0
H2524 H 0.16739 0.33431 0.48602 0.0
H2525 H 0.09756 0.27153 0.46121 0.0
H2526 H 0.10065 0.27801 0.4778 0.0
H2527 H 0.11129 0.26402 0.4713 0.0
C2528 C 0.1308 0.30657 0.51315 0.0
C2529 C 0.13185 0.28973 0.51624 0.0
C2530 C 0.13327 0.31219 0.50108 0.0
C2531 C 0.13653 0.3009 0.4919 0.0
C2532 C 0.13737 0.28399 0.49493 0.0
H2533 H 0.16623 0.30364 0.41722 0.0
H2534 H 0.15614 0.29586 0.43802 0.0
C2535 C 0.13505 0.27845 0.50698 0.0
C2536 C 0.14016 0.30727 0.47928 0.0
H2537 H 0.12295 0.29159 0.44869 0.0
C2538 C 0.15757 0.32515 0.47785 0.0
C2539 C 0.12731 0.2952 0.46869 0.0
C2540 C 0.10805 0.27619 0.46978 0.0
C2541 C 0.16297 0.33089 0.46601 0.0
C2542 C 0.15034 0.31858 0.45538 0.0
C2543 C 0.13262 0.30097 0.45686 0.0
C2544 C 0.15572 0.32318 0.44264 0.0
C2545 C 0.18257 0.34958 0.465 0.0
C2546 C 0.15849 0.34097 0.43827 0.0
C2547 C 0.16432 0.34548 0.42639 0.0
C2548 C 0.16724 0.33216 0.41864 0.0
C2549 C 0.16394 0.31412 0.42294 0.0
C2550 C 0.15824 0.30968 0.43483 0.0
H2551 H 0.19256 0.35464 0.47382 0.0
H2552 H 0.19043 0.34715 0.45747 0.0
H2553 H 0.17972 0.36178 0.46277 0.0
H2554 H 0.15617 0.35137 0.44404 0.0
H2555 H 0.16642 0.35933 0.42325 0.0
H2556 H 0.67144 0.8483 0.52567 0.0
H2557 H 0.6655 0.84605 0.50307 0.0
H2558 H 0.7045 0.82196 0.49888 0.0
H2559 H 0.71088 0.82452 0.52148 0.0
H2560 H 0.69755 0.86615 0.48742 0.0
H2561 H 0.6531 0.78385 0.47489 0.0
H2562 H 0.65516 0.79534 0.49032 0.0
H2563 H 0.67556 0.79312 0.48521 0.0
C2564 C 0.67873 0.84248 0.51995 0.0
C2565 C 0.69171 0.83668 0.52539 0.0
C2566 C 0.67522 0.8411 0.50705 0.0
C2567 C 0.68445 0.8337 0.49935 0.0
C2568 C 0.69699 0.8274 0.5047 0.0
H2569 H 0.68413 0.82261 0.41876 0.0
H2570 H 0.68958 0.82117 0.44107 0.0
C2571 C 0.70058 0.82884 0.51761 0.0
C2572 C 0.68207 0.834 0.48575 0.0
H2573 H 0.66247 0.80412 0.45833 0.0
C2574 C 0.68985 0.85261 0.48105 0.0
C2575 C 0.67224 0.81629 0.47751 0.0
C2576 C 0.66339 0.79597 0.48218 0.0
C2577 C 0.68809 0.85401 0.46826 0.0
C2578 C 0.6778 0.8363 0.46 0.0
C2579 C 0.67028 0.81767 0.46469 0.0
C2580 C 0.67427 0.83686 0.44649 0.0
C2581 C 0.69754 0.87448 0.46372 0.0
C2582 C 0.6636 0.84588 0.44216 0.0
C2583 C 0.6607 0.84696 0.42948 0.0
C2584 C 0.66815 0.83878 0.42082 0.0
C2585 C 0.67847 0.82934 0.42518 0.0
C2586 C 0.68146 0.82836 0.43791 0.0
H2587 H 0.70964 0.88593 0.47059 0.0
H2588 H 0.70378 0.87453 0.45477 0.0
H2589 H 0.68607 0.87891 0.46227 0.0
H2590 H 0.65758 0.85218 0.44861 0.0
H2591 H 0.65288 0.85453 0.42648 0.0
H2592 H 0.1075 0.82979 0.51326 0.0
H2593 H 0.11274 0.82557 0.49152 0.0
H2594 H 0.1757 0.85117 0.50208 0.0
H2595 H 0.17051 0.85473 0.52385 0.0
H2596 H 0.13573 0.85526 0.47742 0.0
H2597 H 0.16286 0.80151 0.47974 0.0
H2598 H 0.15065 0.80624 0.49205 0.0
H2599 H 0.17664 0.82313 0.49082 0.0
C2600 C 0.1224 0.83413 0.51099 0.0
C2601 C 0.13859 0.84257 0.5203 0.0
C2602 C 0.12538 0.83183 0.49856 0.0
C2603 C 0.14455 0.8378 0.49521 0.0
C2604 C 0.16071 0.84608 0.50448 0.0
H2605 H 0.2033 0.85684 0.42877 0.0
H2606 H 0.19358 0.85446 0.44988 0.0
C2607 C 0.15775 0.84835 0.51691 0.0
C2608 C 0.14791 0.83654 0.48196 0.0
H2609 H 0.16839 0.81863 0.46146 0.0
C2610 C 0.14264 0.84705 0.47389 0.0
C2611 C 0.15691 0.8258 0.47737 0.0
C2612 C 0.16192 0.81336 0.48542 0.0
C2613 C 0.14681 0.84771 0.46146 0.0
C2614 C 0.15629 0.83741 0.45698 0.0
C2615 C 0.16119 0.82657 0.46496 0.0
C2616 C 0.1619 0.83833 0.44414 0.0
C2617 C 0.14167 0.85996 0.45332 0.0
C2618 C 0.14726 0.82983 0.43395 0.0
C2619 C 0.15276 0.83102 0.42185 0.0
C2620 C 0.173 0.84071 0.41975 0.0
C2621 C 0.18759 0.84905 0.43004 0.0
C2622 C 0.18208 0.84779 0.44211 0.0
H2623 H 0.13794 0.87002 0.4588 0.0
H2624 H 0.15426 0.86914 0.44792 0.0
H2625 H 0.12856 0.84979 0.44661 0.0
H2626 H 0.1316 0.82218 0.43535 0.0
H2627 H 0.14115 0.82416 0.41415 0.0
H2628 H 0.66197 0.81964 0.1447 0.0
H2629 H 0.6677 0.82231 0.16733 0.0
H2630 H 0.6287 0.84655 0.17085 0.0
H2631 H 0.62223 0.8432 0.14824 0.0
H2632 H 0.68281 0.85507 0.1852 0.0
H2633 H 0.60453 0.79896 0.19131 0.0
H2634 H 0.61409 0.80221 0.17636 0.0
H2635 H 0.60735 0.81949 0.18309 0.0
C2636 C 0.6545 0.82542 0.15029 0.0
C2637 C 0.64148 0.83101 0.14466 0.0
C2638 C 0.65791 0.82708 0.16321 0.0
C2639 C 0.64836 0.8343 0.17075 0.0
C2640 C 0.63592 0.84058 0.16519 0.0
H2641 H 0.64936 0.84379 0.25166 0.0
H2642 H 0.64482 0.84749 0.22962 0.0
C2643 C 0.63244 0.83887 0.15226 0.0
C2644 C 0.65118 0.83487 0.18442 0.0
H2645 H 0.62656 0.81503 0.20955 0.0
C2646 C 0.67051 0.84637 0.19053 0.0
C2647 C 0.63508 0.82349 0.19135 0.0
C2648 C 0.61411 0.81019 0.18521 0.0
C2649 C 0.67421 0.84672 0.2034 0.0
C2650 C 0.65817 0.83511 0.21027 0.0
C2651 C 0.63878 0.82396 0.20422 0.0
C2652 C 0.66135 0.83342 0.22361 0.0
C2653 C 0.69522 0.85948 0.20956 0.0
C2654 C 0.67191 0.82405 0.22746 0.0
C2655 C 0.67431 0.82166 0.23998 0.0
C2656 C 0.66621 0.82865 0.24893 0.0
C2657 C 0.65561 0.83805 0.24501 0.0
C2658 C 0.65311 0.8403 0.23245 0.0
H2659 H 0.70483 0.87111 0.20368 0.0
H2660 H 0.69537 0.86689 0.21868 0.0
H2661 H 0.70178 0.84986 0.2112 0.0
H2662 H 0.67801 0.81825 0.22073 0.0
H2663 H 0.68217 0.81397 0.2426 0.0
H2664 H 0.16143 0.81501 0.14471 0.0
H2665 H 0.15575 0.81732 0.16652 0.0
H2666 H 0.21806 0.83983 0.17754 0.0
H2667 H 0.22386 0.83725 0.15575 0.0
H2668 H 0.1644 0.79659 0.18484 0.0
H2669 H 0.20506 0.87888 0.19737 0.0
H2670 H 0.19715 0.86767 0.18148 0.0
H2671 H 0.21858 0.86892 0.18966 0.0
C2672 C 0.17395 0.8205 0.15176 0.0
C2673 C 0.19309 0.82586 0.14848 0.0
C2674 C 0.17069 0.82191 0.16421 0.0
C2675 C 0.18651 0.82889 0.17361 0.0
C2676 C 0.20573 0.83473 0.17039 0.0
H2677 H 0.19203 0.83905 0.25433 0.0
H2678 H 0.19992 0.84046 0.23277 0.0
C2679 C 0.209 0.83327 0.15793 0.0
C2680 C 0.18258 0.82866 0.18679 0.0
H2681 H 0.19227 0.85857 0.21372 0.0
C2682 C 0.17042 0.81013 0.19115 0.0
C2683 C 0.19065 0.84635 0.195 0.0
C2684 C 0.20348 0.86663 0.19067 0.0
C2685 C 0.1662 0.80877 0.20356 0.0
C2686 C 0.17395 0.82648 0.21175 0.0
C2687 C 0.1863 0.84502 0.20741 0.0
C2688 C 0.1692 0.82602 0.22479 0.0
C2689 C 0.15381 0.78832 0.20783 0.0
C2690 C 0.14935 0.81773 0.22745 0.0
C2691 C 0.14477 0.81663 0.23973 0.0
C2692 C 0.15998 0.82407 0.24964 0.0
C2693 C 0.17992 0.83285 0.24694 0.0
C2694 C 0.18447 0.83383 0.23463 0.0
H2695 H 0.15406 0.77653 0.20162 0.0
H2696 H 0.15917 0.78778 0.21744 0.0
H2697 H 0.1381 0.78478 0.20769 0.0
H2698 H 0.13735 0.81198 0.22 0.0
H2699 H 0.12924 0.8096 0.24143 0.0
H2700 H 0.19632 0.40713 0.16046 0.0
H2701 H 0.19059 0.39746 0.18151 0.0
H2702 H 0.19993 0.34806 0.17221 0.0
H2703 H 0.20577 0.35773 0.15109 0.0
H2704 H 0.16084 0.36171 0.18792 0.0
H2705 H 0.2353 0.37388 0.20495 0.0
H2706 H 0.2312 0.38385 0.19116 0.0
H2707 H 0.22428 0.35796 0.19063 0.0
C2708 C 0.19719 0.39423 0.1629 0.0
C2709 C 0.20143 0.38314 0.15412 0.0
C2710 C 0.19401 0.38878 0.17494 0.0
C2711 C 0.19504 0.37218 0.17846 0.0
C2712 C 0.19948 0.36118 0.16976 0.0
H2713 H 0.16689 0.31236 0.24597 0.0
H2714 H 0.17595 0.32172 0.22514 0.0
C2715 C 0.20277 0.36668 0.1577 0.0
C2716 C 0.19035 0.36586 0.19102 0.0
H2717 H 0.20952 0.35846 0.21805 0.0
C2718 C 0.17151 0.36106 0.19452 0.0
C2719 C 0.20427 0.36492 0.19958 0.0
C2720 C 0.22496 0.37058 0.19647 0.0
C2721 C 0.16618 0.35531 0.20634 0.0
C2722 C 0.18015 0.35459 0.21493 0.0
C2723 C 0.19889 0.3591 0.21141 0.0
C2724 C 0.17554 0.34939 0.22768 0.0
C2725 C 0.14555 0.34985 0.20952 0.0
C2726 C 0.17267 0.36205 0.23602 0.0
C2727 C 0.16746 0.35674 0.24789 0.0
C2728 C 0.16504 0.33867 0.25161 0.0
C2729 C 0.16837 0.32624 0.2433 0.0
C2730 C 0.17367 0.33161 0.23145 0.0
H2731 H 0.13522 0.34682 0.20109 0.0
H2732 H 0.1392 0.33646 0.21472 0.0
H2733 H 0.14643 0.36243 0.21551 0.0
H2734 H 0.17427 0.37595 0.2333 0.0
H2735 H 0.16487 0.36656 0.25404 0.0
H2736 H 0.78848 0.64384 0.85095 0.0
H2737 H 0.79229 0.65263 0.82954 0.0
H2738 H 0.81405 0.61203 0.82197 0.0
H2739 H 0.80973 0.60274 0.84313 0.0
H2740 H 0.82721 0.66928 0.81782 0.0
H2741 H 0.771 0.59591 0.79315 0.0
H2742 H 0.77181 0.60209 0.80957 0.0
H2743 H 0.78835 0.59416 0.80395 0.0
C2744 C 0.7938 0.63659 0.84466 0.0
C2745 C 0.7988 0.62259 0.84874 0.0
C2746 C 0.79606 0.64169 0.83247 0.0
C2747 C 0.80315 0.63274 0.82413 0.0
C2748 C 0.80817 0.61881 0.82818 0.0
H2749 H 0.84626 0.64355 0.75318 0.0
H2750 H 0.83542 0.63558 0.77381 0.0
C2751 C 0.80595 0.61373 0.84033 0.0
C2752 C 0.80624 0.63852 0.81134 0.0
H2753 H 0.7952 0.61914 0.78093 0.0
C2754 C 0.81999 0.65842 0.80972 0.0
C2755 C 0.79673 0.6243 0.80081 0.0
C2756 C 0.781 0.60296 0.80192 0.0
C2757 C 0.82525 0.66426 0.79788 0.0
C2758 C 0.81633 0.64985 0.78743 0.0
C2759 C 0.80207 0.63011 0.78899 0.0
C2760 C 0.8225 0.65465 0.77487 0.0
C2761 C 0.84092 0.68558 0.79668 0.0
C2762 C 0.81861 0.66786 0.76861 0.0
C2763 C 0.82485 0.67249 0.75682 0.0
C2764 C 0.83509 0.66401 0.75113 0.0
C2765 C 0.83869 0.65058 0.75739 0.0
C2766 C 0.83239 0.6459 0.76913 0.0
H2767 H 0.84872 0.69399 0.80584 0.0
H2768 H 0.85215 0.68601 0.79065 0.0
H2769 H 0.83377 0.69333 0.79229 0.0
H2770 H 0.81078 0.67457 0.77284 0.0
H2771 H 0.82194 0.68296 0.75224 0.0
H2772 H 0.33459 0.17466 0.85778 0.0
H2773 H 0.32959 0.17289 0.83512 0.0
H2774 H 0.37836 0.16182 0.8319 0.0
H2775 H 0.38368 0.16391 0.85454 0.0
H2776 H 0.38061 0.19359 0.81888 0.0
H2777 H 0.30707 0.12411 0.80838 0.0
H2778 H 0.30809 0.14166 0.82043 0.0
H2779 H 0.32265 0.12978 0.8228 0.0
C2780 C 0.34416 0.17173 0.85224 0.0
C2781 C 0.35952 0.16942 0.85794 0.0
C2782 C 0.34117 0.17054 0.83931 0.0
C2783 C 0.35347 0.167 0.83187 0.0
C2784 C 0.36861 0.16439 0.83751 0.0
H2785 H 0.34327 0.1509 0.75079 0.0
H2786 H 0.34681 0.14684 0.77286 0.0
C2787 C 0.37155 0.16548 0.85042 0.0
C2788 C 0.35148 0.1675 0.81826 0.0
H2789 H 0.3193 0.14476 0.79195 0.0
C2790 C 0.36728 0.18284 0.81297 0.0
C2791 C 0.33411 0.15335 0.8106 0.0
C2792 C 0.31705 0.13617 0.81579 0.0
C2793 C 0.36594 0.18474 0.80022 0.0
C2794 C 0.34831 0.17102 0.79264 0.0
C2795 C 0.33273 0.15533 0.79785 0.0
C2796 C 0.34566 0.17313 0.77932 0.0
C2797 C 0.38332 0.20146 0.79494 0.0
C2798 C 0.34358 0.18911 0.77572 0.0
C2799 C 0.34134 0.19137 0.76316 0.0
C2800 C 0.3412 0.17771 0.75394 0.0
C2801 C 0.3431 0.16157 0.75763 0.0
C2802 C 0.34522 0.15927 0.77022 0.0
H2803 H 0.39717 0.20821 0.80145 0.0
H2804 H 0.38612 0.19597 0.78601 0.0
H2805 H 0.37979 0.21334 0.79308 0.0
H2806 H 0.34362 0.1998 0.78265 0.0
H2807 H 0.33948 0.20371 0.76068 0.0
H2808 H 0.82654 0.20818 0.85357 0.0
H2809 H 0.83248 0.20487 0.83195 0.0
H2810 H 0.79716 0.14073 0.83065 0.0
H2811 H 0.7914 0.14384 0.85245 0.0
H2812 H 0.85016 0.18235 0.82162 0.0
H2813 H 0.77296 0.156 0.80047 0.0
H2814 H 0.78189 0.1685 0.81604 0.0
H2815 H 0.77581 0.143 0.81292 0.0
C2816 C 0.82019 0.19333 0.84876 0.0
C2817 C 0.80856 0.17626 0.85478 0.0
C2818 C 0.82351 0.19149 0.83638 0.0
C2819 C 0.81513 0.17258 0.82971 0.0
C2820 C 0.80352 0.15547 0.83562 0.0
H2821 H 0.82037 0.14522 0.75093 0.0
H2822 H 0.81311 0.14205 0.77261 0.0
C2823 C 0.80023 0.15728 0.84805 0.0
C2824 C 0.8189 0.17099 0.8166 0.0
H2825 H 0.79683 0.16006 0.78682 0.0
C2826 C 0.8385 0.17737 0.814 0.0
C2827 C 0.8036 0.16434 0.80673 0.0
C2828 C 0.78237 0.15766 0.80909 0.0
C2829 C 0.8433 0.17754 0.80173 0.0
C2830 C 0.82815 0.17163 0.79183 0.0
C2831 C 0.80842 0.16466 0.79444 0.0
C2832 C 0.83265 0.17344 0.77873 0.0
C2833 C 0.86454 0.184 0.7995 0.0
C2834 C 0.8458 0.19218 0.77497 0.0
C2835 C 0.85011 0.19402 0.76264 0.0
C2836 C 0.84117 0.17717 0.75378 0.0
C2837 C 0.82774 0.15844 0.75755 0.0
C2838 C 0.82348 0.15662 0.76991 0.0
H2839 H 0.87266 0.18205 0.80759 0.0
H2840 H 0.86515 0.17543 0.79112 0.0
H2841 H 0.87247 0.20009 0.79806 0.0
H2842 H 0.85273 0.20543 0.78157 0.0
H2843 H 0.86065 0.20863 0.7601 0.0
H2844 H 0.29616 0.12765 0.47752 0.0
H2845 H 0.30297 0.13037 0.50003 0.0
H2846 H 0.33004 0.19442 0.50177 0.0
H2847 H 0.32375 0.19196 0.47914 0.0
H2848 H 0.34237 0.15477 0.51493 0.0
H2849 H 0.28544 0.17518 0.52647 0.0
H2850 H 0.28444 0.16319 0.51142 0.0
H2851 H 0.30244 0.1891 0.51554 0.0
C2852 C 0.30383 0.14237 0.48263 0.0
C2853 C 0.30945 0.1596 0.47649 0.0
C2854 C 0.30758 0.14386 0.49551 0.0
C2855 C 0.31684 0.16256 0.50252 0.0
C2856 C 0.32264 0.17983 0.49649 0.0
H2857 H 0.33666 0.18728 0.58352 0.0
H2858 H 0.33525 0.191 0.56128 0.0
C2859 C 0.31898 0.17838 0.48358 0.0
C2860 C 0.32038 0.16377 0.51617 0.0
H2861 H 0.30386 0.17174 0.54318 0.0
C2862 C 0.33407 0.1586 0.52114 0.0
C2863 C 0.30961 0.16893 0.52418 0.0
C2864 C 0.29455 0.17433 0.51921 0.0
C2865 C 0.3371 0.15819 0.53397 0.0
C2866 C 0.32574 0.16255 0.54198 0.0
C2867 C 0.31247 0.16831 0.53702 0.0
C2868 C 0.32679 0.1604 0.55544 0.0
C2869 C 0.35253 0.15317 0.53882 0.0
C2870 C 0.32218 0.14189 0.55951 0.0
C2871 C 0.32318 0.13977 0.57218 0.0
C2872 C 0.32856 0.15606 0.58106 0.0
C2873 C 0.33278 0.17451 0.57694 0.0
C2874 C 0.33186 0.17664 0.56424 0.0
H2875 H 0.364 0.1565 0.53228 0.0
H2876 H 0.36008 0.16161 0.548 0.0
H2877 H 0.34513 0.13696 0.53989 0.0
H2878 H 0.31777 0.12903 0.55288 0.0
H2879 H 0.32003 0.1254 0.575 0.0
H2880 H 0.89039 0.17099 0.48865 0.0
H2881 H 0.88458 0.17345 0.51047 0.0
H2882 H 0.82197 0.14932 0.49954 0.0
H2883 H 0.82763 0.14716 0.47771 0.0
H2884 H 0.86477 0.19328 0.52295 0.0
H2885 H 0.82606 0.1108 0.52379 0.0
H2886 H 0.84202 0.12335 0.512 0.0
H2887 H 0.81724 0.11961 0.51131 0.0
C2888 C 0.87544 0.16654 0.49086 0.0
C2889 C 0.85944 0.1587 0.48144 0.0
C2890 C 0.87215 0.16787 0.50333 0.0
C2891 C 0.85282 0.1613 0.50657 0.0
C2892 C 0.83695 0.15417 0.4972 0.0
H2893 H 0.79621 0.14164 0.57426 0.0
H2894 H 0.8046 0.1443 0.55288 0.0
C2895 C 0.84021 0.15288 0.48475 0.0
C2896 C 0.84906 0.16118 0.51977 0.0
H2897 H 0.82582 0.12977 0.54159 0.0
C2898 C 0.85634 0.17944 0.52708 0.0
C2899 C 0.83808 0.14306 0.52507 0.0
C2900 C 0.83049 0.12305 0.5177 0.0
C2901 C 0.85244 0.18005 0.53953 0.0
C2902 C 0.84133 0.16189 0.54482 0.0
C2903 C 0.83428 0.14366 0.53751 0.0
C2904 C 0.8365 0.16133 0.55786 0.0
C2905 C 0.85972 0.20008 0.54679 0.0
C2906 C 0.85166 0.16998 0.56777 0.0
C2907 C 0.8469 0.16869 0.58004 0.0
C2908 C 0.82688 0.15856 0.58262 0.0
C2909 C 0.81176 0.14986 0.57263 0.0
C2910 C 0.81653 0.15124 0.56039 0.0
H2911 H 0.86323 0.21203 0.54057 0.0
H2912 H 0.84845 0.19953 0.55283 0.0
H2913 H 0.87354 0.20421 0.5528 0.0
H2914 H 0.86718 0.17748 0.56603 0.0
H2915 H 0.85892 0.17569 0.5875 0.0
H2916 H 0.89607 0.72808 0.49354 0.0
H2917 H 0.89077 0.71812 0.5146 0.0
H2918 H 0.8303 0.6726 0.50186 0.0
H2919 H 0.83561 0.68214 0.48073 0.0
H2920 H 0.86189 0.71906 0.52855 0.0
H2921 H 0.85122 0.64268 0.52239 0.0
H2922 H 0.86259 0.66066 0.51134 0.0
H2923 H 0.83595 0.64702 0.51136 0.0
C2924 C 0.88178 0.71567 0.49517 0.0
C2925 C 0.86626 0.70588 0.48547 0.0
C2926 C 0.87875 0.71008 0.50721 0.0
C2927 C 0.86024 0.69448 0.50974 0.0
C2928 C 0.84482 0.68445 0.50006 0.0
H2929 H 0.80104 0.64441 0.57374 0.0
H2930 H 0.81147 0.65255 0.55305 0.0
C2931 C 0.84781 0.69007 0.48802 0.0
C2932 C 0.85655 0.68965 0.52266 0.0
H2933 H 0.84206 0.65177 0.54124 0.0
C2934 C 0.85777 0.70443 0.53139 0.0
C2935 C 0.85111 0.67052 0.52627 0.0
C2936 C 0.8503 0.65434 0.51739 0.0
C2937 C 0.85304 0.7004 0.54355 0.0
C2938 C 0.84734 0.68118 0.54713 0.0
C2939 C 0.84644 0.66649 0.53846 0.0
C2940 C 0.84151 0.67583 0.5597 0.0
C2941 C 0.85348 0.71653 0.55232 0.0
C2942 C 0.85506 0.68598 0.57029 0.0
C2943 C 0.84909 0.68152 0.58214 0.0
C2944 C 0.82947 0.66671 0.58361 0.0
C2945 C 0.81613 0.65615 0.57295 0.0
C2946 C 0.82211 0.66067 0.56112 0.0
H2947 H 0.85346 0.72859 0.54729 0.0
H2948 H 0.84048 0.71023 0.55782 0.0
H2949 H 0.86725 0.72334 0.55887 0.0
H2950 H 0.87021 0.69749 0.56939 0.0
H2951 H 0.8597 0.69 0.59015 0.0
loop_
_geom_bond_atom_site_label_1
_geom_bond_atom_site_label_2
_geom_bond_distance
_geom_bond_site_symmetry_2
_ccdc_geom_bond_type
C0 C1 1.384 . S
C0 H13 0.947 . S
C0 C35 1.382 . S
C1 C0 1.384 . S
C1 C2 1.378 . S
C2 C1 1.378 . S
C2 C3 1.378 . S
C2 H14 0.952 . S
C3 C2 1.378 . S
C3 H15 0.950 . S
C3 C34 1.383 . S
H4 C23 0.947 . S
H5 C24 0.946 . S
H6 C26 0.953 . S
H7 C27 0.945 . S
H8 C29 0.952 . S
H9 C30 0.949 . S
H10 C32 0.950 . S
H11 C33 0.948 . S
H12 C35 0.951 . S
H13 C0 0.947 . S
H14 C2 0.952 . S
H15 C3 0.950 . S
N16 C19 1.382 . S
N16 C21 1.363 . S
N17 C19 1.371 . S
N17 C20 1.372 . S
N18 C20 1.361 . S
N18 C21 1.377 . S
C19 N16 1.382 . S
C19 N17 1.371 . S
C19 C22 1.480 . S
C20 N17 1.372 . S
C20 N18 1.361 . S
C20 C28 1.457 . S
C21 N16 1.363 . S
C21 N18 1.377 . S
C21 C34 1.479 . S
C22 C19 1.480 . S
C22 C23 1.383 . S
C22 C27 1.385 . S
C23 H4 0.947 . S
C23 C22 1.383 . S
C23 C24 1.388 . S
C24 H5 0.946 . S
C24 C23 1.388 . S
C24 C25 1.384 . S
C25 C24 1.384 . S
C25 C26 1.377 . S
C26 H6 0.953 . S
C26 C25 1.377 . S
C26 C27 1.369 . S
C27 H7 0.945 . S
C27 C22 1.385 . S
C27 C26 1.369 . S
C28 C20 1.457 . S
C28 C29 1.372 . S
C28 C33 1.364 . S
C29 H8 0.952 . S
C29 C28 1.372 . S
C29 C30 1.389 . S
C30 H9 0.949 . S
C30 C29 1.389 . S
C30 C31 1.387 . S
C31 C30 1.387 . S
C31 C32 1.372 . S
C32 H10 0.950 . S
C32 C31 1.372 . S
C32 C33 1.379 . S
C33 H11 0.948 . S
C33 C28 1.364 . S
C33 C32 1.379 . S
C34 C3 1.383 . S
C34 C21 1.479 . S
C34 C35 1.398 . S
C35 C0 1.382 . S
C35 H12 0.951 . S
C35 C34 1.398 . S
C36 C37 1.384 . S
C36 H49 0.947 . S
C36 C71 1.382 . S
C37 C36 1.384 . S
C37 C38 1.378 . S
C38 C37 1.378 . S
C38 C39 1.378 . S
C38 H50 0.952 . S
C39 C38 1.378 . S
C39 H51 0.950 . S
C39 C70 1.383 . S
H40 C59 0.947 . S
H41 C60 0.946 . S
H42 C62 0.953 . S
H43 C63 0.945 . S
H44 C65 0.952 . S
H45 C66 0.949 . S
H46 C68 0.950 . S
H47 C69 0.948 . S
H48 C71 0.951 . S
H49 C36 0.947 . S
H50 C38 0.952 . S
H51 C39 0.950 . S
N52 C55 1.382 . S
N52 C57 1.363 . S
N53 C55 1.371 . S
N53 C56 1.372 . S
N54 C56 1.361 . S
N54 C57 1.377 . S
C55 N52 1.382 . S
C55 N53 1.371 . S
C55 C58 1.480 . S
C56 N53 1.372 . S
C56 N54 1.361 . S
C56 C64 1.457 . S
C57 N52 1.363 . S
C57 N54 1.377 . S
C57 C70 1.479 . S
C58 C55 1.480 . S
C58 C59 1.383 . S
C58 C63 1.385 . S
C59 H40 0.947 . S
C59 C58 1.383 . S
C59 C60 1.388 . S
C60 H41 0.946 . S
C60 C59 1.388 . S
C60 C61 1.384 . S
C61 C60 1.384 . S
C61 C62 1.377 . S
C62 H42 0.953 . S
C62 C61 1.377 . S
C62 C63 1.369 . S
C63 H43 0.945 . S
C63 C58 1.385 . S
C63 C62 1.369 . S
C64 C56 1.457 . S
C64 C65 1.372 . S
C64 C69 1.364 . S
C65 H44 0.952 . S
C65 C64 1.372 . S
C65 C66 1.389 . S
C66 H45 0.949 . S
C66 C65 1.389 . S
C66 C67 1.387 . S
C67 C66 1.387 . S
C67 C68 1.372 . S
C68 H46 0.950 . S
C68 C67 1.372 . S
C68 C69 1.379 . S
C69 H47 0.948 . S
C69 C64 1.364 . S
C69 C68 1.379 . S
C70 C39 1.383 . S
C70 C57 1.479 . S
C70 C71 1.398 . S
C71 C36 1.382 . S
C71 H48 0.951 . S
C71 C70 1.398 . S
C72 C73 1.384 . S
C72 H85 0.947 . S
C72 C107 1.382 . S
C73 C72 1.384 . S
C73 C74 1.378 . S
C74 C73 1.378 . S
C74 C75 1.378 . S
C74 H86 0.952 . S
C75 C74 1.378 . S
C75 H87 0.950 . S
C75 C106 1.383 . S
H76 C95 0.947 . S
H77 C96 0.946 . S
H78 C98 0.953 . S
H79 C99 0.945 . S
H80 C101 0.952 . S
H81 C102 0.949 . S
H82 C104 0.950 . S
H83 C105 0.948 . S
H84 C107 0.951 . S
H85 C72 0.947 . S
H86 C74 0.952 . S
H87 C75 0.950 . S
N88 C91 1.382 . S
N88 C93 1.363 . S
N89 C91 1.371 . S
N89 C92 1.372 . S
N90 C92 1.361 . S
N90 C93 1.377 . S
C91 N88 1.382 . S
C91 N89 1.371 . S
C91 C94 1.480 . S
C92 N89 1.372 . S
C92 N90 1.361 . S
C92 C100 1.457 . S
C93 N88 1.363 . S
C93 N90 1.377 . S
C93 C106 1.479 . S
C94 C91 1.480 . S
C94 C95 1.383 . S
C94 C99 1.385 . S
C95 H76 0.947 . S
C95 C94 1.383 . S
C95 C96 1.388 . S
C96 H77 0.946 . S
C96 C95 1.388 . S
C96 C97 1.384 . S
C97 C96 1.384 . S
C97 C98 1.377 . S
C98 H78 0.953 . S
C98 C97 1.377 . S
C98 C99 1.369 . S
C99 H79 0.945 . S
C99 C94 1.385 . S
C99 C98 1.369 . S
C100 C92 1.457 . S
C100 C101 1.372 . S
C100 C105 1.364 . S
C101 H80 0.952 . S
C101 C100 1.372 . S
C101 C102 1.389 . S
C102 H81 0.949 . S
C102 C101 1.389 . S
C102 C103 1.387 . S
C103 C102 1.387 . S
C103 C104 1.372 . S
C104 H82 0.950 . S
C104 C103 1.372 . S
C104 C105 1.379 . S
C105 H83 0.948 . S
C105 C100 1.364 . S
C105 C104 1.379 . S
C106 C75 1.383 . S
C106 C93 1.479 . S
C106 C107 1.398 . S
C107 C72 1.382 . S
C107 H84 0.951 . S
C107 C106 1.398 . S
C108 C109 1.384 . S
C108 H121 0.947 . S
C108 C143 1.382 . S
C109 C108 1.384 . S
C109 C110 1.378 . S
C110 C109 1.378 . S
C110 C111 1.378 . S
C110 H122 0.952 . S
C111 C110 1.378 . S
C111 H123 0.950 . S
C111 C142 1.383 . S
H112 C131 0.947 . S
H113 C132 0.946 . S
H114 C134 0.953 . S
H115 C135 0.945 . S
H116 C137 0.952 . S
H117 C138 0.949 . S
H118 C140 0.950 . S
H119 C141 0.948 . S
H120 C143 0.951 . S
H121 C108 0.947 . S
H122 C110 0.952 . S
H123 C111 0.950 . S
N124 C127 1.382 . S
N124 C129 1.363 . S
N125 C127 1.371 . S
N125 C128 1.372 . S
N126 C128 1.361 . S
N126 C129 1.377 . S
C127 N124 1.382 . S
C127 N125 1.371 . S
C127 C130 1.480 . S
C128 N125 1.372 . S
C128 N126 1.361 . S
C128 C136 1.457 . S
C129 N124 1.363 . S
C129 N126 1.377 . S
C129 C142 1.479 . S
C130 C127 1.480 . S
C130 C131 1.383 . S
C130 C135 1.385 . S
C131 H112 0.947 . S
C131 C130 1.383 . S
C131 C132 1.388 . S
C132 H113 0.946 . S
C132 C131 1.388 . S
C132 C133 1.384 . S
C133 C132 1.384 . S
C133 C134 1.377 . S
C134 H114 0.953 . S
C134 C133 1.377 . S
C134 C135 1.369 . S
C135 H115 0.945 . S
C135 C130 1.385 . S
C135 C134 1.369 . S
C136 C128 1.457 . S
C136 C137 1.372 . S
C136 C141 1.364 . S
C137 H116 0.952 . S
C137 C136 1.372 . S
C137 C138 1.389 . S
C138 H117 0.949 . S
C138 C137 1.389 . S
C138 C139 1.387 . S
C139 C138 1.387 . S
C139 C140 1.372 . S
C140 H118 0.950 . S
C140 C139 1.372 . S
C140 C141 1.379 . S
C141 H119 0.948 . S
C141 C136 1.364 . S
C141 C140 1.379 . S
C142 C111 1.383 . S
C142 C129 1.479 . S
C142 C143 1.398 . S
C143 C108 1.382 . S
C143 H120 0.951 . S
C143 C142 1.398 . S
C144 C145 1.384 . S
C144 H157 0.947 . S
C144 C179 1.382 . S
C145 C144 1.384 . S
C145 C146 1.378 . S
C146 C145 1.378 . S
C146 C147 1.378 . S
C146 H158 0.952 . S
C147 C146 1.378 . S
C147 H159 0.950 . S
C147 C178 1.383 . S
H148 C167 0.947 . S
H149 C168 0.946 . S
H150 C170 0.953 . S
H151 C171 0.945 . S
H152 C173 0.952 . S
H153 C174 0.949 . S
H154 C176 0.950 . S
H155 C177 0.948 . S
H156 C179 0.951 . S
H157 C144 0.947 . S
H158 C146 0.952 . S
H159 C147 0.950 . S
N160 C163 1.382 . S
N160 C165 1.363 . S
N161 C163 1.371 . S
N161 C164 1.372 . S
N162 C164 1.361 . S
N162 C165 1.377 . S
C163 N160 1.382 . S
C163 N161 1.371 . S
C163 C166 1.480 . S
C164 N161 1.372 . S
C164 N162 1.361 . S
C164 C172 1.457 . S
C165 N160 1.363 . S
C165 N162 1.377 . S
C165 C178 1.479 . S
C166 C163 1.480 . S
C166 C167 1.383 . S
C166 C171 1.385 . S
C167 H148 0.947 . S
C167 C166 1.383 . S
C167 C168 1.388 . S
C168 H149 0.946 . S
C168 C167 1.388 . S
C168 C169 1.384 . S
C169 C168 1.384 . S
C169 C170 1.377 . S
C170 H150 0.953 . S
C170 C169 1.377 . S
C170 C171 1.369 . S
C171 H151 0.945 . S
C171 C166 1.385 . S
C171 C170 1.369 . S
C172 C164 1.457 . S
C172 C173 1.372 . S
C172 C177 1.364 . S
C173 H152 0.952 . S
C173 C172 1.372 . S
C173 C174 1.389 . S
C174 H153 0.949 . S
C174 C173 1.389 . S
C174 C175 1.387 . S
C175 C174 1.387 . S
C175 C176 1.372 . S
C176 H154 0.950 . S
C176 C175 1.372 . S
C176 C177 1.379 . S
C177 H155 0.948 . S
C177 C172 1.364 . S
C177 C176 1.379 . S
C178 C147 1.383 . S
C178 C165 1.479 . S
C178 C179 1.398 . S
C179 C144 1.382 . S
C179 H156 0.951 . S
C179 C178 1.398 . S
C180 C181 1.384 . S
C180 H193 0.947 . S
C180 C215 1.382 . S
C181 C180 1.384 . S
C181 C182 1.378 . S
C182 C181 1.378 . S
C182 C183 1.378 . S
C182 H194 0.952 . S
C183 C182 1.378 . S
C183 H195 0.950 . S
C183 C214 1.383 . S
H184 C203 0.947 . S
H185 C204 0.946 . S
H186 C206 0.953 . S
H187 C207 0.945 . S
H188 C209 0.952 . S
H189 C210 0.949 . S
H190 C212 0.950 . S
H191 C213 0.948 . S
H192 C215 0.951 . S
H193 C180 0.947 . S
H194 C182 0.952 . S
H195 C183 0.950 . S
N196 C199 1.382 . S
N196 C201 1.363 . S
N197 C199 1.371 . S
N197 C200 1.372 . S
N198 C200 1.361 . S
N198 C201 1.377 . S
C199 N196 1.382 . S
C199 N197 1.371 . S
C199 C202 1.480 . S
C200 N197 1.372 . S
C200 N198 1.361 . S
C200 C208 1.457 . S
C201 N196 1.363 . S
C201 N198 1.377 . S
C201 C214 1.479 . S
C202 C199 1.480 . S
C202 C203 1.383 . S
C202 C207 1.385 . S
C203 H184 0.947 . S
C203 C202 1.383 . S
C203 C204 1.388 . S
C204 H185 0.946 . S
C204 C203 1.388 . S
C204 C205 1.384 . S
C205 C204 1.384 . S
C205 C206 1.377 . S
C206 H186 0.953 . S
C206 C205 1.377 . S
C206 C207 1.369 . S
C207 H187 0.945 . S
C207 C202 1.385 . S
C207 C206 1.369 . S
C208 C200 1.457 . S
C208 C209 1.372 . S
C208 C213 1.364 . S
C209 H188 0.952 . S
C209 C208 1.372 . S
C209 C210 1.389 . S
C210 H189 0.949 . S
C210 C209 1.389 . S
C210 C211 1.387 . S
C211 C210 1.387 . S
C211 C212 1.372 . S
C212 H190 0.950 . S
C212 C211 1.372 . S
C212 C213 1.379 . S
C213 H191 0.948 . S
C213 C208 1.364 . S
C213 C212 1.379 . S
C214 C183 1.383 . S
C214 C201 1.479 . S
C214 C215 1.398 . S
C215 C180 1.382 . S
C215 H192 0.951 . S
C215 C214 1.398 . S
C216 C217 1.384 . S
C216 H229 0.947 . S
C216 C251 1.382 . S
C217 C216 1.384 . S
C217 C218 1.378 . S
C218 C217 1.378 . S
C218 C219 1.378 . S
C218 H230 0.952 . S
C219 C218 1.378 . S
C219 H231 0.950 . S
C219 C250 1.383 . S
H220 C239 0.947 . S
H221 C240 0.946 . S
H222 C242 0.953 . S
H223 C243 0.945 . S
H224 C245 0.952 . S
H225 C246 0.949 . S
H226 C248 0.950 . S
H227 C249 0.948 . S
H228 C251 0.951 . S
H229 C216 0.947 . S
H230 C218 0.952 . S
H231 C219 0.950 . S
N232 C235 1.382 . S
N232 C237 1.363 . S
N233 C235 1.371 . S
N233 C236 1.372 . S
N234 C236 1.361 . S
N234 C237 1.377 . S
C235 N232 1.382 . S
C235 N233 1.371 . S
C235 C238 1.480 . S
C236 N233 1.372 . S
C236 N234 1.361 . S
C236 C244 1.457 . S
C237 N232 1.363 . S
C237 N234 1.377 . S
C237 C250 1.479 . S
C238 C235 1.480 . S
C238 C239 1.383 . S
C238 C243 1.385 . S
C239 H220 0.947 . S
C239 C238 1.383 . S
C239 C240 1.388 . S
C240 H221 0.946 . S
C240 C239 1.388 . S
C240 C241 1.384 . S
C241 C240 1.384 . S
C241 C242 1.377 . S
C242 H222 0.953 . S
C242 C241 1.377 . S
C242 C243 1.369 . S
C243 H223 0.945 . S
C243 C238 1.385 . S
C243 C242 1.369 . S
C244 C236 1.457 . S
C244 C245 1.372 . S
C244 C249 1.364 . S
C245 H224 0.952 . S
C245 C244 1.372 . S
C245 C246 1.389 . S
C246 H225 0.949 . S
C246 C245 1.389 . S
C246 C247 1.387 . S
C247 C246 1.387 . S
C247 C248 1.372 . S
C248 H226 0.950 . S
C248 C247 1.372 . S
C248 C249 1.379 . S
C249 H227 0.948 . S
C249 C244 1.364 . S
C249 C248 1.379 . S
C250 C219 1.383 . S
C250 C237 1.479 . S
C250 C251 1.398 . S
C251 C216 1.382 . S
C251 H228 0.951 . S
C251 C250 1.398 . S
C252 C253 1.384 . S
C252 H265 0.947 . S
C252 C287 1.382 . S
C253 C252 1.384 . S
C253 C254 1.378 . S
C254 C253 1.378 . S
C254 C255 1.378 . S
C254 H266 0.952 . S
C255 C254 1.378 . S
C255 H267 0.950 . S
C255 C286 1.383 . S
H256 C275 0.947 . S
H257 C276 0.946 . S
H258 C278 0.953 . S
H259 C279 0.945 . S
H260 C281 0.952 . S
H261 C282 0.949 . S
H262 C284 0.950 . S
H263 C285 0.948 . S
H264 C287 0.951 . S
H265 C252 0.947 . S
H266 C254 0.952 . S
H267 C255 0.950 . S
N268 C271 1.382 . S
N268 C273 1.363 . S
N269 C271 1.371 . S
N269 C272 1.372 . S
N270 C272 1.361 . S
N270 C273 1.377 . S
C271 N268 1.382 . S
C271 N269 1.371 . S
C271 C274 1.480 . S
C272 N269 1.372 . S
C272 N270 1.361 . S
C272 C280 1.457 . S
C273 N268 1.363 . S
C273 N270 1.377 . S
C273 C286 1.479 . S
C274 C271 1.480 . S
C274 C275 1.383 . S
C274 C279 1.385 . S
C275 H256 0.947 . S
C275 C274 1.383 . S
C275 C276 1.388 . S
C276 H257 0.946 . S
C276 C275 1.388 . S
C276 C277 1.384 . S
C277 C276 1.384 . S
C277 C278 1.377 . S
C278 H258 0.953 . S
C278 C277 1.377 . S
C278 C279 1.369 . S
C279 H259 0.945 . S
C279 C274 1.385 . S
C279 C278 1.369 . S
C280 C272 1.457 . S
C280 C281 1.372 . S
C280 C285 1.364 . S
C281 H260 0.952 . S
C281 C280 1.372 . S
C281 C282 1.389 . S
C282 H261 0.949 . S
C282 C281 1.389 . S
C282 C283 1.387 . S
C283 C282 1.387 . S
C283 C284 1.372 . S
C284 H262 0.950 . S
C284 C283 1.372 . S
C284 C285 1.379 . S
C285 H263 0.948 . S
C285 C280 1.364 . S
C285 C284 1.379 . S
C286 C255 1.383 . S
C286 C273 1.479 . S
C286 C287 1.398 . S
C287 C252 1.382 . S
C287 H264 0.951 . S
C287 C286 1.398 . S
C288 C289 1.384 . S
C288 H301 0.947 . S
C288 C323 1.382 . S
C289 C288 1.384 . S
C289 C290 1.378 . S
C290 C289 1.378 . S
C290 C291 1.378 . S
C290 H302 0.952 . S
C291 C290 1.378 . S
C291 H303 0.950 . S
C291 C322 1.383 . S
H292 C311 0.947 . S
H293 C312 0.946 . S
H294 C314 0.953 . S
H295 C315 0.945 . S
H296 C317 0.952 . S
H297 C318 0.949 . S
H298 C320 0.950 . S
H299 C321 0.948 . S
H300 C323 0.951 . S
H301 C288 0.947 . S
H302 C290 0.952 . S
H303 C291 0.950 . S
N304 C307 1.382 . S
N304 C309 1.363 . S
N305 C307 1.371 . S
N305 C308 1.372 . S
N306 C308 1.361 . S
N306 C309 1.377 . S
C307 N304 1.382 . S
C307 N305 1.371 . S
C307 C310 1.480 . S
C308 N305 1.372 . S
C308 N306 1.361 . S
C308 C316 1.457 . S
C309 N304 1.363 . S
C309 N306 1.377 . S
C309 C322 1.479 . S
C310 C307 1.480 . S
C310 C311 1.383 . S
C310 C315 1.385 . S
C311 H292 0.947 . S
C311 C310 1.383 . S
C311 C312 1.388 . S
C312 H293 0.946 . S
C312 C311 1.388 . S
C312 C313 1.384 . S
C313 C312 1.384 . S
C313 C314 1.377 . S
C314 H294 0.953 . S
C314 C313 1.377 . S
C314 C315 1.369 . S
C315 H295 0.945 . S
C315 C310 1.385 . S
C315 C314 1.369 . S
C316 C308 1.457 . S
C316 C317 1.372 . S
C316 C321 1.364 . S
C317 H296 0.952 . S
C317 C316 1.372 . S
C317 C318 1.389 . S
C318 H297 0.949 . S
C318 C317 1.389 . S
C318 C319 1.387 . S
C319 C318 1.387 . S
C319 C320 1.372 . S
C320 H298 0.950 . S
C320 C319 1.372 . S
C320 C321 1.379 . S
C321 H299 0.948 . S
C321 C316 1.364 . S
C321 C320 1.379 . S
C322 C291 1.383 . S
C322 C309 1.479 . S
C322 C323 1.398 . S
C323 C288 1.382 . S
C323 H300 0.951 . S
C323 C322 1.398 . S
C324 C325 1.384 . S
C324 H337 0.947 . S
C324 C359 1.382 . S
C325 C324 1.384 . S
C325 C326 1.378 . S
C326 C325 1.378 . S
C326 C327 1.378 . S
C326 H338 0.952 . S
C327 C326 1.378 . S
C327 H339 0.950 . S
C327 C358 1.383 . S
H328 C347 0.947 . S
H329 C348 0.946 . S
H330 C350 0.953 . S
H331 C351 0.945 . S
H332 C353 0.952 . S
H333 C354 0.949 . S
H334 C356 0.950 . S
H335 C357 0.948 . S
H336 C359 0.951 . S
H337 C324 0.947 . S
H338 C326 0.952 . S
H339 C327 0.950 . S
N340 C343 1.382 . S
N340 C345 1.363 . S
N341 C343 1.371 . S
N341 C344 1.372 . S
N342 C344 1.361 . S
N342 C345 1.377 . S
C343 N340 1.382 . S
C343 N341 1.371 . S
C343 C346 1.480 . S
C344 N341 1.372 . S
C344 N342 1.361 . S
C344 C352 1.457 . S
C345 N340 1.363 . S
C345 N342 1.377 . S
C345 C358 1.479 . S
C346 C343 1.480 . S
C346 C347 1.383 . S
C346 C351 1.385 . S
C347 H328 0.947 . S
C347 C346 1.383 . S
C347 C348 1.388 . S
C348 H329 0.946 . S
C348 C347 1.388 . S
C348 C349 1.384 . S
C349 C348 1.384 . S
C349 C350 1.377 . S
C350 H330 0.953 . S
C350 C349 1.377 . S
C350 C351 1.369 . S
C351 H331 0.945 . S
C351 C346 1.385 . S
C351 C350 1.369 . S
C352 C344 1.457 . S
C352 C353 1.372 . S
C352 C357 1.364 . S
C353 H332 0.952 . S
C353 C352 1.372 . S
C353 C354 1.389 . S
C354 H333 0.949 . S
C354 C353 1.389 . S
C354 C355 1.387 . S
C355 C354 1.387 . S
C355 C356 1.372 . S
C356 H334 0.950 . S
C356 C355 1.372 . S
C356 C357 1.379 . S
C357 H335 0.948 . S
C357 C352 1.364 . S
C357 C356 1.379 . S
C358 C327 1.383 . S
C358 C345 1.479 . S
C358 C359 1.398 . S
C359 C324 1.382 . S
C359 H336 0.951 . S
C359 C358 1.398 . S
C360 C361 1.384 . S
C360 H373 0.947 . S
C360 C395 1.382 . S
C361 C360 1.384 . S
C361 C362 1.378 . S
C362 C361 1.378 . S
C362 C363 1.378 . S
C362 H374 0.952 . S
C363 C362 1.378 . S
C363 H375 0.950 . S
C363 C394 1.383 . S
H364 C383 0.947 . S
H365 C384 0.946 . S
H366 C386 0.953 . S
H367 C387 0.945 . S
H368 C389 0.952 . S
H369 C390 0.949 . S
H370 C392 0.950 . S
H371 C393 0.948 . S
H372 C395 0.951 . S
H373 C360 0.947 . S
H374 C362 0.952 . S
H375 C363 0.950 . S
N376 C379 1.382 . S
N376 C381 1.363 . S
N377 C379 1.371 . S
N377 C380 1.372 . S
N378 C380 1.361 . S
N378 C381 1.377 . S
C379 N376 1.382 . S
C379 N377 1.371 . S
C379 C382 1.480 . S
C380 N377 1.372 . S
C380 N378 1.361 . S
C380 C388 1.457 . S
C381 N376 1.363 . S
C381 N378 1.377 . S
C381 C394 1.479 . S
C382 C379 1.480 . S
C382 C383 1.383 . S
C382 C387 1.385 . S
C383 H364 0.947 . S
C383 C382 1.383 . S
C383 C384 1.388 . S
C384 H365 0.946 . S
C384 C383 1.388 . S
C384 C385 1.384 . S
C385 C384 1.384 . S
C385 C386 1.377 . S
C386 H366 0.953 . S
C386 C385 1.377 . S
C386 C387 1.369 . S
C387 H367 0.945 . S
C387 C382 1.385 . S
C387 C386 1.369 . S
C388 C380 1.457 . S
C388 C389 1.372 . S
C388 C393 1.364 . S
C389 H368 0.952 . S
C389 C388 1.372 . S
C389 C390 1.389 . S
C390 H369 0.949 . S
C390 C389 1.389 . S
C390 C391 1.387 . S
C391 C390 1.387 . S
C391 C392 1.372 . S
C392 H370 0.950 . S
C392 C391 1.372 . S
C392 C393 1.379 . S
C393 H371 0.948 . S
C393 C388 1.364 . S
C393 C392 1.379 . S
C394 C363 1.383 . S
C394 C381 1.479 . S
C394 C395 1.398 . S
C395 C360 1.382 . S
C395 H372 0.951 . S
C395 C394 1.398 . S
C396 C397 1.384 . S
C396 H409 0.947 . S
C396 C431 1.382 . S
C397 C396 1.384 . S
C397 C398 1.378 . S
C398 C397 1.378 . S
C398 C399 1.378 . S
C398 H410 0.952 . S
C399 C398 1.378 . S
C399 H411 0.950 . S
C399 C430 1.383 . S
H400 C419 0.947 . S
H401 C420 0.946 . S
H402 C422 0.953 . S
H403 C423 0.945 . S
H404 C425 0.952 . S
H405 C426 0.949 . S
H406 C428 0.950 . S
H407 C429 0.948 . S
H408 C431 0.951 . S
H409 C396 0.947 . S
H410 C398 0.952 . S
H411 C399 0.950 . S
N412 C415 1.382 . S
N412 C417 1.363 . S
N413 C415 1.371 . S
N413 C416 1.372 . S
N414 C416 1.361 . S
N414 C417 1.377 . S
C415 N412 1.382 . S
C415 N413 1.371 . S
C415 C418 1.480 . S
C416 N413 1.372 . S
C416 N414 1.361 . S
C416 C424 1.457 . S
C417 N412 1.363 . S
C417 N414 1.377 . S
C417 C430 1.479 . S
C418 C415 1.480 . S
C418 C419 1.383 . S
C418 C423 1.385 . S
C419 H400 0.947 . S
C419 C418 1.383 . S
C419 C420 1.388 . S
C420 H401 0.946 . S
C420 C419 1.388 . S
C420 C421 1.384 . S
C421 C420 1.384 . S
C421 C422 1.377 . S
C422 H402 0.953 . S
C422 C421 1.377 . S
C422 C423 1.369 . S
C423 H403 0.945 . S
C423 C418 1.385 . S
C423 C422 1.369 . S
C424 C416 1.457 . S
C424 C425 1.372 . S
C424 C429 1.364 . S
C425 H404 0.952 . S
C425 C424 1.372 . S
C425 C426 1.389 . S
C426 H405 0.949 . S
C426 C425 1.389 . S
C426 C427 1.387 . S
C427 C426 1.387 . S
C427 C428 1.372 . S
C428 H406 0.950 . S
C428 C427 1.372 . S
C428 C429 1.379 . S
C429 H407 0.948 . S
C429 C424 1.364 . S
C429 C428 1.379 . S
C430 C399 1.383 . S
C430 C417 1.479 . S
C430 C431 1.398 . S
C431 C396 1.382 . S
C431 H408 0.951 . S
C431 C430 1.398 . S
C432 C433 1.384 . S
C432 H445 0.947 . S
C432 C467 1.382 . S
C433 C432 1.384 . S
C433 C434 1.378 . S
C434 C433 1.378 . S
C434 C435 1.378 . S
C434 H446 0.952 . S
C435 C434 1.378 . S
C435 H447 0.950 . S
C435 C466 1.383 . S
H436 C455 0.947 . S
H437 C456 0.946 . S
H438 C458 0.953 . S
H439 C459 0.945 . S
H440 C461 0.952 . S
H441 C462 0.949 . S
H442 C464 0.950 . S
H443 C465 0.948 . S
H444 C467 0.951 . S
H445 C432 0.947 . S
H446 C434 0.952 . S
H447 C435 0.950 . S
N448 C451 1.382 . S
N448 C453 1.363 . S
N449 C451 1.371 . S
N449 C452 1.372 . S
N450 C452 1.361 . S
N450 C453 1.377 . S
C451 N448 1.382 . S
C451 N449 1.371 . S
C451 C454 1.480 . S
C452 N449 1.372 . S
C452 N450 1.361 . S
C452 C460 1.457 . S
C453 N448 1.363 . S
C453 N450 1.377 . S
C453 C466 1.479 . S
C454 C451 1.480 . S
C454 C455 1.383 . S
C454 C459 1.385 . S
C455 H436 0.947 . S
C455 C454 1.383 . S
C455 C456 1.388 . S
C456 H437 0.946 . S
C456 C455 1.388 . S
C456 C457 1.384 . S
C457 C456 1.384 . S
C457 C458 1.377 . S
C458 H438 0.953 . S
C458 C457 1.377 . S
C458 C459 1.369 . S
C459 H439 0.945 . S
C459 C454 1.385 . S
C459 C458 1.369 . S
C460 C452 1.457 . S
C460 C461 1.372 . S
C460 C465 1.364 . S
C461 H440 0.952 . S
C461 C460 1.372 . S
C461 C462 1.389 . S
C462 H441 0.949 . S
C462 C461 1.389 . S
C462 C463 1.387 . S
C463 C462 1.387 . S
C463 C464 1.372 . S
C464 H442 0.950 . S
C464 C463 1.372 . S
C464 C465 1.379 . S
C465 H443 0.948 . S
C465 C460 1.364 . S
C465 C464 1.379 . S
C466 C435 1.383 . S
C466 C453 1.479 . S
C466 C467 1.398 . S
C467 C432 1.382 . S
C467 H444 0.951 . S
C467 C466 1.398 . S
C468 C469 1.384 . S
C468 H481 0.947 . S
C468 C503 1.382 . S
C469 C468 1.384 . S
C469 C470 1.378 . S
C470 C469 1.378 . S
C470 C471 1.378 . S
C470 H482 0.952 . S
C471 C470 1.378 . S
C471 H483 0.950 . S
C471 C502 1.383 . S
H472 C491 0.947 . S
H473 C492 0.946 . S
H474 C494 0.953 . S
H475 C495 0.945 . S
H476 C497 0.952 . S
H477 C498 0.949 . S
H478 C500 0.950 . S
H479 C501 0.948 . S
H480 C503 0.951 . S
H481 C468 0.947 . S
H482 C470 0.952 . S
H483 C471 0.950 . S
N484 C487 1.382 . S
N484 C489 1.363 . S
N485 C487 1.371 . S
N485 C488 1.372 . S
N486 C488 1.361 . S
N486 C489 1.377 . S
C487 N484 1.382 . S
C487 N485 1.371 . S
C487 C490 1.480 . S
C488 N485 1.372 . S
C488 N486 1.361 . S
C488 C496 1.457 . S
C489 N484 1.363 . S
C489 N486 1.377 . S
C489 C502 1.479 . S
C490 C487 1.480 . S
C490 C491 1.383 . S
C490 C495 1.385 . S
C491 H472 0.947 . S
C491 C490 1.383 . S
C491 C492 1.388 . S
C492 H473 0.946 . S
C492 C491 1.388 . S
C492 C493 1.384 . S
C493 C492 1.384 . S
C493 C494 1.377 . S
C494 H474 0.953 . S
C494 C493 1.377 . S
C494 C495 1.369 . S
C495 H475 0.945 . S
C495 C490 1.385 . S
C495 C494 1.369 . S
C496 C488 1.457 . S
C496 C497 1.372 . S
C496 C501 1.364 . S
C497 H476 0.952 . S
C497 C496 1.372 . S
C497 C498 1.389 . S
C498 H477 0.949 . S
C498 C497 1.389 . S
C498 C499 1.387 . S
C499 C498 1.387 . S
C499 C500 1.372 . S
C500 H478 0.950 . S
C500 C499 1.372 . S
C500 C501 1.379 . S
C501 H479 0.948 . S
C501 C496 1.364 . S
C501 C500 1.379 . S
C502 C471 1.383 . S
C502 C489 1.479 . S
C502 C503 1.398 . S
C503 C468 1.382 . S
C503 H480 0.951 . S
C503 C502 1.398 . S
C504 C505 1.384 . S
C504 H517 0.947 . S
C504 C539 1.382 . S
C505 C504 1.384 . S
C505 C506 1.378 . S
C506 C505 1.378 . S
C506 C507 1.378 . S
C506 H518 0.952 . S
C507 C506 1.378 . S
C507 H519 0.950 . S
C507 C538 1.383 . S
H508 C527 0.947 . S
H509 C528 0.946 . S
H510 C530 0.953 . S
H511 C531 0.945 . S
H512 C533 0.952 . S
H513 C534 0.949 . S
H514 C536 0.950 . S
H515 C537 0.948 . S
H516 C539 0.951 . S
H517 C504 0.947 . S
H518 C506 0.952 . S
H519 C507 0.950 . S
N520 C523 1.382 . S
N520 C525 1.363 . S
N521 C523 1.371 . S
N521 C524 1.372 . S
N522 C524 1.361 . S
N522 C525 1.377 . S
C523 N520 1.382 . S
C523 N521 1.371 . S
C523 C526 1.480 . S
C524 N521 1.372 . S
C524 N522 1.361 . S
C524 C532 1.457 . S
C525 N520 1.363 . S
C525 N522 1.377 . S
C525 C538 1.479 . S
C526 C523 1.480 . S
C526 C527 1.383 . S
C526 C531 1.385 . S
C527 H508 0.947 . S
C527 C526 1.383 . S
C527 C528 1.388 . S
C528 H509 0.946 . S
C528 C527 1.388 . S
C528 C529 1.384 . S
C529 C528 1.384 . S
C529 C530 1.377 . S
C530 H510 0.953 . S
C530 C529 1.377 . S
C530 C531 1.369 . S
C531 H511 0.945 . S
C531 C526 1.385 . S
C531 C530 1.369 . S
C532 C524 1.457 . S
C532 C533 1.372 . S
C532 C537 1.364 . S
C533 H512 0.952 . S
C533 C532 1.372 . S
C533 C534 1.389 . S
C534 H513 0.949 . S
C534 C533 1.389 . S
C534 C535 1.387 . S
C535 C534 1.387 . S
C535 C536 1.372 . S
C536 H514 0.950 . S
C536 C535 1.372 . S
C536 C537 1.379 . S
C537 H515 0.948 . S
C537 C532 1.364 . S
C537 C536 1.379 . S
C538 C507 1.383 . S
C538 C525 1.479 . S
C538 C539 1.398 . S
C539 C504 1.382 . S
C539 H516 0.951 . S
C539 C538 1.398 . S
C540 C541 1.384 . S
C540 H553 0.947 . S
C540 C575 1.382 . S
C541 C540 1.384 . S
C541 C542 1.378 . S
C542 C541 1.378 . S
C542 C543 1.378 . S
C542 H554 0.952 . S
C543 C542 1.378 . S
C543 H555 0.950 . S
C543 C574 1.383 . S
H544 C563 0.947 . S
H545 C564 0.946 . S
H546 C566 0.953 . S
H547 C567 0.945 . S
H548 C569 0.952 . S
H549 C570 0.949 . S
H550 C572 0.950 . S
H551 C573 0.948 . S
H552 C575 0.951 . S
H553 C540 0.947 . S
H554 C542 0.952 . S
H555 C543 0.950 . S
N556 C559 1.382 . S
N556 C561 1.363 . S
N557 C559 1.371 . S
N557 C560 1.372 . S
N558 C560 1.361 . S
N558 C561 1.377 . S
C559 N556 1.382 . S
C559 N557 1.371 . S
C559 C562 1.480 . S
C560 N557 1.372 . S
C560 N558 1.361 . S
C560 C568 1.457 . S
C561 N556 1.363 . S
C561 N558 1.377 . S
C561 C574 1.479 . S
C562 C559 1.480 . S
C562 C563 1.383 . S
C562 C567 1.385 . S
C563 H544 0.947 . S
C563 C562 1.383 . S
C563 C564 1.388 . S
C564 H545 0.946 . S
C564 C563 1.388 . S
C564 C565 1.384 . S
C565 C564 1.384 . S
C565 C566 1.377 . S
C566 H546 0.953 . S
C566 C565 1.377 . S
C566 C567 1.369 . S
C567 H547 0.945 . S
C567 C562 1.385 . S
C567 C566 1.369 . S
C568 C560 1.457 . S
C568 C569 1.372 . S
C568 C573 1.364 . S
C569 H548 0.952 . S
C569 C568 1.372 . S
C569 C570 1.389 . S
C570 H549 0.949 . S
C570 C569 1.389 . S
C570 C571 1.387 . S
C571 C570 1.387 . S
C571 C572 1.372 . S
C572 H550 0.950 . S
C572 C571 1.372 . S
C572 C573 1.379 . S
C573 H551 0.948 . S
C573 C568 1.364 . S
C573 C572 1.379 . S
C574 C543 1.383 . S
C574 C561 1.479 . S
C574 C575 1.398 . S
C575 C540 1.382 . S
C575 H552 0.951 . S
C575 C574 1.398 . S
C576 C577 1.384 . S
C576 H589 0.947 . S
C576 C611 1.382 . S
C577 C576 1.384 . S
C577 C578 1.378 . S
C578 C577 1.378 . S
C578 C579 1.378 . S
C578 H590 0.952 . S
C579 C578 1.378 . S
C579 H591 0.950 . S
C579 C610 1.383 . S
H580 C599 0.947 . S
H581 C600 0.946 . S
H582 C602 0.953 . S
H583 C603 0.945 . S
H584 C605 0.952 . S
H585 C606 0.949 . S
H586 C608 0.950 . S
H587 C609 0.948 . S
H588 C611 0.951 . S
H589 C576 0.947 . S
H590 C578 0.952 . S
H591 C579 0.950 . S
N592 C595 1.382 . S
N592 C597 1.363 . S
N593 C595 1.371 . S
N593 C596 1.372 . S
N594 C596 1.361 . S
N594 C597 1.377 . S
C595 N592 1.382 . S
C595 N593 1.371 . S
C595 C598 1.480 . S
C596 N593 1.372 . S
C596 N594 1.361 . S
C596 C604 1.457 . S
C597 N592 1.363 . S
C597 N594 1.377 . S
C597 C610 1.479 . S
C598 C595 1.480 . S
C598 C599 1.383 . S
C598 C603 1.385 . S
C599 H580 0.947 . S
C599 C598 1.383 . S
C599 C600 1.388 . S
C600 H581 0.946 . S
C600 C599 1.388 . S
C600 C601 1.384 . S
C601 C600 1.384 . S
C601 C602 1.377 . S
C602 H582 0.953 . S
C602 C601 1.377 . S
C602 C603 1.369 . S
C603 H583 0.945 . S
C603 C598 1.385 . S
C603 C602 1.369 . S
C604 C596 1.457 . S
C604 C605 1.372 . S
C604 C609 1.364 . S
C605 H584 0.952 . S
C605 C604 1.372 . S
C605 C606 1.389 . S
C606 H585 0.949 . S
C606 C605 1.389 . S
C606 C607 1.387 . S
C607 C606 1.387 . S
C607 C608 1.372 . S
C608 H586 0.950 . S
C608 C607 1.372 . S
C608 C609 1.379 . S
C609 H587 0.948 . S
C609 C604 1.364 . S
C609 C608 1.379 . S
C610 C579 1.383 . S
C610 C597 1.479 . S
C610 C611 1.398 . S
C611 C576 1.382 . S
C611 H588 0.951 . S
C611 C610 1.398 . S
C612 C613 1.384 . S
C612 H625 0.947 . S
C612 C647 1.382 . S
C613 C612 1.384 . S
C613 C614 1.378 . S
C614 C613 1.378 . S
C614 C615 1.378 . S
C614 H626 0.952 . S
C615 C614 1.378 . S
C615 H627 0.950 . S
C615 C646 1.383 . S
H616 C635 0.947 . S
H617 C636 0.946 . S
H618 C638 0.953 . S
H619 C639 0.945 . S
H620 C641 0.952 . S
H621 C642 0.949 . S
H622 C644 0.950 . S
H623 C645 0.948 . S
H624 C647 0.951 . S
H625 C612 0.947 . S
H626 C614 0.952 . S
H627 C615 0.950 . S
N628 C631 1.382 . S
N628 C633 1.363 . S
N629 C631 1.371 . S
N629 C632 1.372 . S
N630 C632 1.361 . S
N630 C633 1.377 . S
C631 N628 1.382 . S
C631 N629 1.371 . S
C631 C634 1.480 . S
C632 N629 1.372 . S
C632 N630 1.361 . S
C632 C640 1.457 . S
C633 N628 1.363 . S
C633 N630 1.377 . S
C633 C646 1.479 . S
C634 C631 1.480 . S
C634 C635 1.383 . S
C634 C639 1.385 . S
C635 H616 0.947 . S
C635 C634 1.383 . S
C635 C636 1.388 . S
C636 H617 0.946 . S
C636 C635 1.388 . S
C636 C637 1.384 . S
C637 C636 1.384 . S
C637 C638 1.377 . S
C638 H618 0.953 . S
C638 C637 1.377 . S
C638 C639 1.369 . S
C639 H619 0.945 . S
C639 C634 1.385 . S
C639 C638 1.369 . S
C640 C632 1.457 . S
C640 C641 1.372 . S
C640 C645 1.364 . S
C641 H620 0.952 . S
C641 C640 1.372 . S
C641 C642 1.389 . S
C642 H621 0.949 . S
C642 C641 1.389 . S
C642 C643 1.387 . S
C643 C642 1.387 . S
C643 C644 1.372 . S
C644 H622 0.950 . S
C644 C643 1.372 . S
C644 C645 1.379 . S
C645 H623 0.948 . S
C645 C640 1.364 . S
C645 C644 1.379 . S
C646 C615 1.383 . S
C646 C633 1.479 . S
C646 C647 1.398 . S
C647 C612 1.382 . S
C647 H624 0.951 . S
C647 C646 1.398 . S
C648 Eu649 2.835 . S
C648 C650 1.500 . S
C648 O668 1.257 1_545 S
C648 O669 1.260 . S
Eu649 C648 2.835 . S
Eu649 O668 2.473 1_545 S
Eu649 O669 2.480 . S
Eu649 O670 2.430 . S
Eu649 O671 2.670 1_554 S
Eu649 O672 2.394 1_545 S
Eu649 O677 2.355 1_545 S
Eu649 O679 2.374 . S
C650 C648 1.500 . S
C650 C651 1.377 . S
C650 C655 1.377 1_545 S
C651 C650 1.377 . S
C651 C652 1.395 . S
C651 H680 0.931 . S
C652 C651 1.395 . S
C652 C653 1.383 1_545 S
C652 H681 0.931 . S
C653 C652 1.383 1_565 S
C653 C654 1.394 . S
C654 C653 1.394 . S
C654 C655 1.378 . S
C654 H682 0.931 . S
C655 C650 1.377 1_565 S
C655 C654 1.378 . S
C655 H683 0.931 . S
C656 O670 1.215 1_556 S
C656 O671 1.287 . S
C657 O672 1.251 . S
C657 O673 1.251 1_554 S
C658 Eu659 2.835 . S
C658 C660 1.500 . S
C658 O674 1.257 1_565 S
C658 O675 1.260 . S
Eu659 C658 2.835 . S
Eu659 O671 2.355 1_565 S
Eu659 O673 2.374 . S
Eu659 O674 2.473 1_565 S
Eu659 O675 2.480 . S
Eu659 O676 2.430 . S
Eu659 O677 2.670 1_556 S
Eu659 O678 2.394 1_565 S
C660 C658 1.500 . S
C660 C661 1.377 . S
C660 C665 1.377 1_565 S
C661 C660 1.377 . S
C661 C662 1.395 . S
C661 H684 0.931 . S
C662 C661 1.395 . S
C662 C663 1.383 1_565 S
C662 H685 0.931 . S
C663 C662 1.383 1_545 S
C663 C664 1.394 . S
C664 C663 1.394 . S
C664 C665 1.378 . S
C664 H686 0.931 . S
C665 C660 1.377 1_545 S
C665 C664 1.378 . S
C665 H687 0.931 . S
C666 O676 1.259 1_554 S
C666 O677 1.270 . S
C667 O678 1.251 . S
C667 O679 1.251 1_556 S
O668 C648 1.257 1_565 S
O668 Eu649 2.473 1_565 S
O669 C648 1.260 . S
O669 Eu649 2.480 . S
O670 Eu649 2.430 . S
O670 C656 1.215 1_554 S
O671 Eu649 2.670 1_556 S
O671 C656 1.287 . S
O671 Eu659 2.355 1_545 S
O672 Eu649 2.394 1_565 S
O672 C657 1.251 . S
O673 C657 1.251 1_556 S
O673 Eu659 2.374 . S
O674 C658 1.257 1_545 S
O674 Eu659 2.473 1_545 S
O675 C658 1.260 . S
O675 Eu659 2.480 . S
O676 Eu659 2.430 . S
O676 C666 1.259 1_556 S
O677 Eu649 2.355 1_565 S
O677 Eu659 2.670 1_554 S
O677 C666 1.270 . S
O678 Eu659 2.394 1_545 S
O678 C667 1.251 . S
O679 Eu649 2.374 . S
O679 C667 1.251 1_554 S
H680 C651 0.931 . S
H681 C652 0.931 . S
H682 C654 0.931 . S
H683 C655 0.931 . S
H684 C661 0.931 . S
H685 C662 0.931 . S
H686 C664 0.931 . S
H687 C665 0.931 . S
C688 Eu689 2.835 . S
C688 C690 1.500 1_655 S
C688 O708 1.257 1_655 S
C688 O709 1.260 . S
Eu689 C688 2.835 . S
Eu689 O708 2.473 1_655 S
Eu689 O709 2.480 . S
Eu689 O710 2.430 . S
Eu689 O711 2.670 1_554 S
Eu689 O712 2.394 1_655 S
Eu689 O717 2.355 1_655 S
Eu689 O719 2.374 . S
C690 C688 1.500 1_455 S
C690 C691 1.377 1_455 S
C690 C695 1.377 . S
C691 C690 1.377 1_655 S
C691 C692 1.395 . S
C691 H720 0.931 . S
C692 C691 1.395 . S
C692 C693 1.383 1_655 S
C692 H721 0.931 . S
C693 C692 1.383 1_455 S
C693 C694 1.394 . S
C694 C693 1.394 . S
C694 C695 1.378 . S
C694 H722 0.931 . S
C695 C690 1.377 . S
C695 C694 1.378 . S
C695 H723 0.931 . S
C696 O710 1.259 1_556 S
C696 O711 1.270 . S
C697 O712 1.251 . S
C697 O713 1.251 . S
C698 Eu699 2.835 . S
C698 C700 1.500 1_455 S
C698 O714 1.257 1_455 S
C698 O715 1.260 . S
Eu699 C698 2.835 . S
Eu699 O711 2.355 1_455 S
Eu699 O713 2.374 1_556 S
Eu699 O714 2.473 1_455 S
Eu699 O715 2.480 . S
Eu699 O716 2.430 . S
Eu699 O717 2.670 1_556 S
Eu699 O718 2.394 1_455 S
C700 C698 1.500 1_655 S
C700 C701 1.377 1_655 S
C700 C705 1.377 . S
C701 C700 1.377 1_455 S
C701 C702 1.395 . S
C701 H724 0.931 . S
C702 C701 1.395 . S
C702 C703 1.383 1_455 S
C702 H725 0.931 . S
C703 C702 1.383 1_655 S
C703 C704 1.394 . S
C704 C703 1.394 . S
C704 C705 1.378 . S
C704 H726 0.931 . S
C705 C700 1.377 . S
C705 C704 1.378 . S
C705 H727 0.931 . S
C706 O716 1.259 1_554 S
C706 O717 1.270 . S
C707 O718 1.251 . S
C707 O719 1.251 1_556 S
O708 C688 1.257 1_455 S
O708 Eu689 2.473 1_455 S
O709 C688 1.260 . S
O709 Eu689 2.480 . S
O710 Eu689 2.430 . S
O710 C696 1.259 1_554 S
O711 Eu689 2.670 1_556 S
O711 C696 1.270 . S
O711 Eu699 2.355 1_655 S
O712 Eu689 2.394 1_455 S
O712 C697 1.251 . S
O713 C697 1.251 . S
O713 Eu699 2.374 1_554 S
O714 C698 1.257 1_655 S
O714 Eu699 2.473 1_655 S
O715 C698 1.260 . S
O715 Eu699 2.480 . S
O716 Eu699 2.430 . S
O716 C706 1.259 1_556 S
O717 Eu689 2.355 1_455 S
O717 Eu699 2.670 1_554 S
O717 C706 1.270 . S
O718 Eu699 2.394 1_655 S
O718 C707 1.251 . S
O719 Eu689 2.374 . S
O719 C707 1.251 1_554 S
H720 C691 0.931 . S
H721 C692 0.931 . S
H722 C694 0.931 . S
H723 C695 0.931 . S
H724 C701 0.931 . S
H725 C702 0.931 . S
H726 C704 0.931 . S
H727 C705 0.931 . S
C728 Eu729 2.835 . S
C728 C730 1.500 . S
C728 O748 1.257 . S
C728 O749 1.260 . S
Eu729 C728 2.835 . S
Eu729 O748 2.473 . S
Eu729 O749 2.480 . S
Eu729 O750 2.430 . S
Eu729 O751 2.670 1_556 S
Eu729 O752 2.394 . S
Eu729 O757 2.355 . S
Eu729 O759 2.380 . S
C730 C728 1.500 . S
C730 C731 1.377 . S
C730 C735 1.377 . S
C731 C730 1.377 . S
C731 C732 1.395 . S
C731 H760 0.931 . S
C732 C731 1.395 . S
C732 C733 1.383 . S
C732 H761 0.931 . S
C733 C732 1.383 . S
C733 C734 1.394 . S
C734 C733 1.394 . S
C734 C735 1.378 . S
C734 H762 0.931 . S
C735 C730 1.377 . S
C735 C734 1.378 . S
C735 H763 0.931 . S
C736 O750 1.259 1_554 S
C736 O751 1.270 . S
C737 O752 1.251 . S
C737 O753 1.251 1_556 S
C738 Eu739 2.835 . S
C738 C740 1.500 . S
C738 O754 1.257 . S
C738 O755 1.260 . S
Eu739 C738 2.835 . S
Eu739 O751 2.355 . S
Eu739 O753 2.374 . S
Eu739 O754 2.473 . S
Eu739 O755 2.480 . S
Eu739 O756 2.430 . S
Eu739 O757 2.670 1_554 S
Eu739 O758 2.394 . S
C740 C738 1.500 . S
C740 C741 1.377 . S
C740 C745 1.377 . S
C741 C740 1.377 . S
C741 C742 1.395 . S
C741 H764 0.931 . S
C742 C741 1.395 . S
C742 C743 1.383 . S
C742 H765 0.931 . S
C743 C742 1.383 . S
C743 C744 1.394 . S
C744 C743 1.394 . S
C744 C745 1.378 . S
C744 H766 0.931 . S
C745 C740 1.377 . S
C745 C744 1.378 . S
C745 H767 0.931 . S
C746 O756 1.259 1_556 S
C746 O757 1.270 . S
C747 O758 1.251 . S
C747 O759 1.243 1_554 S
O748 C728 1.257 . S
O748 Eu729 2.473 . S
O749 C728 1.260 . S
O749 Eu729 2.480 . S
O750 Eu729 2.430 . S
O750 C736 1.259 1_556 S
O751 Eu729 2.670 1_554 S
O751 C736 1.270 . S
O751 Eu739 2.355 . S
O752 Eu729 2.394 . S
O752 C737 1.251 . S
O753 C737 1.251 1_554 S
O753 Eu739 2.374 . S
O754 C738 1.257 . S
O754 Eu739 2.473 . S
O755 C738 1.260 . S
O755 Eu739 2.480 . S
O756 Eu739 2.430 . S
O756 C746 1.259 1_554 S
O757 Eu729 2.355 . S
O757 Eu739 2.670 1_556 S
O757 C746 1.270 . S
O758 Eu739 2.394 . S
O758 C747 1.251 . S
O759 Eu729 2.380 . S
O759 C747 1.243 1_556 S
H760 C731 0.931 . S
H761 C732 0.931 . S
H762 C734 0.931 . S
H763 C735 0.931 . S
H764 C741 0.931 . S
H765 C742 0.931 . S
H766 C744 0.931 . S
H767 C745 0.931 . S
C768 Eu769 2.835 . S
C768 C770 1.500 . S
C768 O788 1.257 . S
C768 O789 1.260 . S
Eu769 C768 2.835 . S
Eu769 O788 2.473 . S
Eu769 O789 2.480 . S
Eu769 O790 2.430 . S
Eu769 O791 2.670 . S
Eu769 O792 2.394 . S
Eu769 O797 2.355 . S
Eu769 O799 2.374 . S
C770 C768 1.500 . S
C770 C771 1.377 . S
C770 C775 1.377 . S
C771 C770 1.377 . S
C771 C772 1.395 . S
C771 H800 0.931 . S
C772 C771 1.395 . S
C772 C773 1.383 . S
C772 H801 0.931 . S
C773 C772 1.383 . S
C773 C774 1.394 . S
C774 C773 1.394 . S
C774 C775 1.378 . S
C774 H802 0.931 . S
C775 C770 1.377 . S
C775 C774 1.378 . S
C775 H803 0.931 . S
C776 O790 1.259 . S
C776 O791 1.270 . S
C777 O792 1.251 . S
C777 O793 1.251 . S
C778 Eu779 2.835 . S
C778 C780 1.500 . S
C778 O794 1.257 . S
C778 O795 1.260 . S
Eu779 C778 2.835 . S
Eu779 O791 2.355 . S
Eu779 O793 2.374 . S
Eu779 O794 2.473 . S
Eu779 O795 2.480 . S
Eu779 O796 2.430 . S
Eu779 O797 2.670 . S
Eu779 O798 2.394 . S
C780 C778 1.500 . S
C780 C781 1.377 . S
C780 C785 1.377 . S
C781 C780 1.377 . S
C781 C782 1.395 . S
C781 H804 0.931 . S
C782 C781 1.395 . S
C782 C783 1.383 . S
C782 H805 0.931 . S
C783 C782 1.383 . S
C783 C784 1.394 . S
C784 C783 1.394 . S
C784 C785 1.378 . S
C784 H806 0.931 . S
C785 C780 1.377 . S
C785 C784 1.378 . S
C785 H807 0.931 . S
C786 O796 1.259 . S
C786 O797 1.270 . S
C787 O798 1.251 . S
C787 O799 1.251 . S
O788 C768 1.257 . S
O788 Eu769 2.473 . S
O789 C768 1.260 . S
O789 Eu769 2.480 . S
O790 Eu769 2.430 . S
O790 C776 1.259 . S
O791 Eu769 2.670 . S
O791 C776 1.270 . S
O791 Eu779 2.355 . S
O792 Eu769 2.394 . S
O792 C777 1.251 . S
O793 C777 1.251 . S
O793 Eu779 2.374 . S
O794 C778 1.257 . S
O794 Eu779 2.473 . S
O795 C778 1.260 . S
O795 Eu779 2.480 . S
O796 Eu779 2.430 . S
O796 C786 1.259 . S
O797 Eu769 2.355 . S
O797 Eu779 2.670 . S
O797 C786 1.270 . S
O798 Eu779 2.394 . S
O798 C787 1.251 . S
O799 Eu769 2.374 . S
O799 C787 1.251 . S
H800 C771 0.931 . S
H801 C772 0.931 . S
H802 C774 0.931 . S
H803 C775 0.931 . S
H804 C781 0.931 . S
H805 C782 0.931 . S
H806 C784 0.931 . S
H807 C785 0.931 . S
C808 Eu809 2.835 . S
C808 C810 1.500 . S
C808 O828 1.257 . S
C808 O829 1.260 . S
Eu809 C808 2.835 . S
Eu809 O828 2.473 . S
Eu809 O829 2.480 . S
Eu809 O830 2.430 . S
Eu809 O831 2.670 . S
Eu809 O832 2.394 . S
Eu809 O837 2.355 . S
Eu809 O839 2.374 . S
C810 C808 1.500 . S
C810 C811 1.377 . S
C810 C815 1.377 . S
C811 C810 1.377 . S
C811 C812 1.395 . S
C811 H840 0.931 . S
C812 C811 1.395 . S
C812 C813 1.383 . S
C812 H841 0.931 . S
C813 C812 1.383 . S
C813 C814 1.394 . S
C814 C813 1.394 . S
C814 C815 1.378 . S
C814 H842 0.931 . S
C815 C810 1.377 . S
C815 C814 1.378 . S
C815 H843 0.931 . S
C816 O830 1.259 . S
C816 O831 1.270 . S
C817 O832 1.251 . S
C817 O833 1.251 . S
C818 Eu819 2.835 . S
C818 C820 1.500 . S
C818 O834 1.257 . S
C818 O835 1.260 . S
Eu819 C818 2.835 . S
Eu819 O831 2.355 . S
Eu819 O833 2.374 . S
Eu819 O834 2.473 . S
Eu819 O835 2.480 . S
Eu819 O836 2.430 . S
Eu819 O837 2.670 . S
Eu819 O838 2.394 . S
C820 C818 1.500 . S
C820 C821 1.377 . S
C820 C825 1.377 . S
C821 C820 1.377 . S
C821 C822 1.395 . S
C821 H844 0.931 . S
C822 C821 1.395 . S
C822 C823 1.383 . S
C822 H845 0.931 . S
C823 C822 1.383 . S
C823 C824 1.394 . S
C824 C823 1.394 . S
C824 C825 1.378 . S
C824 H846 0.931 . S
C825 C820 1.377 . S
C825 C824 1.378 . S
C825 H847 0.931 . S
C826 O836 1.259 . S
C826 O837 1.270 . S
C827 O838 1.251 . S
C827 O839 1.251 . S
O828 C808 1.257 . S
O828 Eu809 2.473 . S
O829 C808 1.260 . S
O829 Eu809 2.480 . S
O830 Eu809 2.430 . S
O830 C816 1.259 . S
O831 Eu809 2.670 . S
O831 C816 1.270 . S
O831 Eu819 2.355 . S
O832 Eu809 2.394 . S
O832 C817 1.251 . S
O833 C817 1.251 . S
O833 Eu819 2.374 . S
O834 C818 1.257 . S
O834 Eu819 2.473 . S
O835 C818 1.260 . S
O835 Eu819 2.480 . S
O836 Eu819 2.430 . S
O836 C826 1.259 . S
O837 Eu809 2.355 . S
O837 Eu819 2.670 . S
O837 C826 1.270 . S
O838 Eu819 2.394 . S
O838 C827 1.251 . S
O839 Eu809 2.374 . S
O839 C827 1.251 . S
H840 C811 0.931 . S
H841 C812 0.931 . S
H842 C814 0.931 . S
H843 C815 0.931 . S
H844 C821 0.931 . S
H845 C822 0.931 . S
H846 C824 0.931 . S
H847 C825 0.931 . S
C848 Eu849 2.835 . S
C848 C850 1.500 . S
C848 O868 1.257 . S
C848 O869 1.260 . S
Eu849 C848 2.835 . S
Eu849 O868 2.473 . S
Eu849 O869 2.480 . S
Eu849 O870 2.430 . S
Eu849 O871 2.670 . S
Eu849 O872 2.394 . S
Eu849 O877 2.355 . S
Eu849 O879 2.374 . S
C850 C848 1.500 . S
C850 C851 1.377 . S
C850 C855 1.377 . S
C851 C850 1.377 . S
C851 C852 1.395 . S
C851 H880 0.931 . S
C852 C851 1.395 . S
C852 C853 1.383 . S
C852 H881 0.931 . S
C853 C852 1.383 . S
C853 C854 1.394 . S
C854 C853 1.394 . S
C854 C855 1.378 . S
C854 H882 0.931 . S
C855 C850 1.377 . S
C855 C854 1.378 . S
C855 H883 0.931 . S
C856 O870 1.259 . S
C856 O871 1.270 . S
C857 O872 1.251 . S
C857 O873 1.251 . S
C858 Eu859 2.835 . S
C858 C860 1.500 . S
C858 O874 1.257 . S
C858 O875 1.260 . S
Eu859 C858 2.835 . S
Eu859 O871 2.355 . S
Eu859 O873 2.374 . S
Eu859 O874 2.473 . S
Eu859 O875 2.480 . S
Eu859 O876 2.430 . S
Eu859 O877 2.670 . S
Eu859 O878 2.394 . S
C860 C858 1.500 . S
C860 C861 1.377 . S
C860 C865 1.377 . S
C861 C860 1.377 . S
C861 C862 1.395 . S
C861 H884 0.931 . S
C862 C861 1.395 . S
C862 C863 1.383 . S
C862 H885 0.931 . S
C863 C862 1.383 . S
C863 C864 1.394 . S
C864 C863 1.394 . S
C864 C865 1.378 . S
C864 H886 0.931 . S
C865 C860 1.377 . S
C865 C864 1.378 . S
C865 H887 0.931 . S
C866 O876 1.259 . S
C866 O877 1.270 . S
C867 O878 1.251 . S
C867 O879 1.251 . S
O868 C848 1.257 . S
O868 Eu849 2.473 . S
O869 C848 1.260 . S
O869 Eu849 2.480 . S
O870 Eu849 2.430 . S
O870 C856 1.259 . S
O871 Eu849 2.670 . S
O871 C856 1.270 . S
O871 Eu859 2.355 . S
O872 Eu849 2.394 . S
O872 C857 1.251 . S
O873 C857 1.251 . S
O873 Eu859 2.374 . S
O874 C858 1.257 . S
O874 Eu859 2.473 . S
O875 C858 1.260 . S
O875 Eu859 2.480 . S
O876 Eu859 2.430 . S
O876 C866 1.259 . S
O877 Eu849 2.355 . S
O877 Eu859 2.670 . S
O877 C866 1.270 . S
O878 Eu859 2.394 . S
O878 C867 1.251 . S
O879 Eu849 2.374 . S
O879 C867 1.251 . S
H880 C851 0.931 . S
H881 C852 0.931 . S
H882 C854 0.931 . S
H883 C855 0.931 . S
H884 C861 0.931 . S
H885 C862 0.931 . S
H886 C864 0.931 . S
H887 C865 0.931 . S
C888 Eu889 2.835 . S
C888 C890 1.500 . S
C888 O908 1.257 . S
C888 O909 1.260 . S
Eu889 C888 2.835 . S
Eu889 O908 2.473 . S
Eu889 O909 2.480 . S
Eu889 O910 2.430 . S
Eu889 O911 2.670 . S
Eu889 O912 2.394 . S
Eu889 O917 2.355 . S
Eu889 O919 2.374 . S
C890 C888 1.500 . S
C890 C891 1.377 . S
C890 C895 1.377 . S
C891 C890 1.377 . S
C891 C892 1.395 . S
C891 H920 0.931 . S
C892 C891 1.395 . S
C892 C893 1.383 . S
C892 H921 0.931 . S
C893 C892 1.383 . S
C893 C894 1.394 . S
C894 C893 1.394 . S
C894 C895 1.378 . S
C894 H922 0.931 . S
C895 C890 1.377 . S
C895 C894 1.378 . S
C895 H923 0.931 . S
C896 O910 1.259 . S
C896 O911 1.270 . S
C897 O912 1.251 . S
C897 O913 1.251 . S
C898 Eu899 2.835 . S
C898 C900 1.500 . S
C898 O914 1.257 . S
C898 O915 1.260 . S
Eu899 C898 2.835 . S
Eu899 O911 2.355 . S
Eu899 O913 2.374 . S
Eu899 O914 2.473 . S
Eu899 O915 2.480 . S
Eu899 O916 2.430 . S
Eu899 O917 2.670 . S
Eu899 O918 2.394 . S
C900 C898 1.500 . S
C900 C901 1.377 . S
C900 C905 1.377 . S
C901 C900 1.377 . S
C901 C902 1.395 . S
C901 H924 0.931 . S
C902 C901 1.395 . S
C902 C903 1.383 . S
C902 H925 0.931 . S
C903 C902 1.383 . S
C903 C904 1.394 . S
C904 C903 1.394 . S
C904 C905 1.378 . S
C904 H926 0.931 . S
C905 C900 1.377 . S
C905 C904 1.378 . S
C905 H927 0.931 . S
C906 O916 1.259 . S
C906 O917 1.270 . S
C907 O918 1.251 . S
C907 O919 1.251 . S
O908 C888 1.257 . S
O908 Eu889 2.473 . S
O909 C888 1.260 . S
O909 Eu889 2.480 . S
O910 Eu889 2.430 . S
O910 C896 1.259 . S
O911 Eu889 2.670 . S
O911 C896 1.270 . S
O911 Eu899 2.355 . S
O912 Eu889 2.394 . S
O912 C897 1.251 . S
O913 C897 1.251 . S
O913 Eu899 2.374 . S
O914 C898 1.257 . S
O914 Eu899 2.473 . S
O915 C898 1.260 . S
O915 Eu899 2.480 . S
O916 Eu899 2.430 . S
O916 C906 1.259 . S
O917 Eu889 2.355 . S
O917 Eu899 2.670 . S
O917 C906 1.270 . S
O918 Eu899 2.394 . S
O918 C907 1.251 . S
O919 Eu889 2.374 . S
O919 C907 1.251 . S
H920 C891 0.931 . S
H921 C892 0.931 . S
H922 C894 0.931 . S
H923 C895 0.931 . S
H924 C901 0.931 . S
H925 C902 0.931 . S
H926 C904 0.931 . S
H927 C905 0.931 . S
C928 Eu929 2.835 . S
C928 C930 1.500 . S
C928 O948 1.257 . S
C928 O949 1.260 . S
Eu929 C928 2.835 . S
Eu929 O948 2.473 . S
Eu929 O949 2.480 . S
Eu929 O950 2.430 . S
Eu929 O951 2.670 . S
Eu929 O952 2.394 . S
Eu929 O957 2.355 . S
Eu929 O959 2.374 . S
C930 C928 1.500 . S
C930 C931 1.377 . S
C930 C935 1.377 . S
C931 C930 1.377 . S
C931 C932 1.395 . S
C931 H960 0.931 . S
C932 C931 1.395 . S
C932 C933 1.383 . S
C932 H961 0.931 . S
C933 C932 1.383 . S
C933 C934 1.394 . S
C934 C933 1.394 . S
C934 C935 1.378 . S
C934 H962 0.931 . S
C935 C930 1.377 . S
C935 C934 1.378 . S
C935 H963 0.931 . S
C936 O950 1.259 . S
C936 O951 1.270 . S
C937 O952 1.251 . S
C937 O953 1.251 . S
C938 Eu939 2.835 . S
C938 C940 1.500 . S
C938 O954 1.257 . S
C938 O955 1.260 . S
Eu939 C938 2.835 . S
Eu939 O951 2.355 . S
Eu939 O953 2.374 . S
Eu939 O954 2.473 . S
Eu939 O955 2.480 . S
Eu939 O956 2.430 . S
Eu939 O957 2.670 . S
Eu939 O958 2.394 . S
C940 C938 1.500 . S
C940 C941 1.377 . S
C940 C945 1.377 . S
C941 C940 1.377 . S
C941 C942 1.395 . S
C941 H964 0.931 . S
C942 C941 1.395 . S
C942 C943 1.383 . S
C942 H965 0.931 . S
C943 C942 1.383 . S
C943 C944 1.394 . S
C944 C943 1.394 . S
C944 C945 1.378 . S
C944 H966 0.931 . S
C945 C940 1.377 . S
C945 C944 1.378 . S
C945 H967 0.931 . S
C946 O956 1.259 . S
C946 O957 1.270 . S
C947 O958 1.251 . S
C947 O959 1.251 . S
O948 C928 1.257 . S
O948 Eu929 2.473 . S
O949 C928 1.260 . S
O949 Eu929 2.480 . S
O950 Eu929 2.430 . S
O950 C936 1.259 . S
O951 Eu929 2.670 . S
O951 C936 1.270 . S
O951 Eu939 2.355 . S
O952 Eu929 2.394 . S
O952 C937 1.251 . S
O953 C937 1.251 . S
O953 Eu939 2.374 . S
O954 C938 1.257 . S
O954 Eu939 2.473 . S
O955 C938 1.260 . S
O955 Eu939 2.480 . S
O956 Eu939 2.430 . S
O956 C946 1.259 . S
O957 Eu929 2.355 . S
O957 Eu939 2.670 . S
O957 C946 1.270 . S
O958 Eu939 2.394 . S
O958 C947 1.251 . S
O959 Eu929 2.374 . S
O959 C947 1.251 . S
H960 C931 0.931 . S
H961 C932 0.931 . S
H962 C934 0.931 . S
H963 C935 0.931 . S
H964 C941 0.931 . S
H965 C942 0.931 . S
H966 C944 0.931 . S
H967 C945 0.931 . S
C968 Eu969 2.835 . S
C968 C970 1.500 . S
C968 O988 1.257 . S
C968 O989 1.260 . S
Eu969 C968 2.835 . S
Eu969 O988 2.473 . S
Eu969 O989 2.480 . S
Eu969 O990 2.430 . S
Eu969 O991 2.670 . S
Eu969 O992 2.394 . S
Eu969 O997 2.355 . S
Eu969 O999 2.374 . S
C970 C968 1.500 . S
C970 C971 1.377 . S
C970 C975 1.377 . S
C971 C970 1.377 . S
C971 C972 1.395 . S
C971 H1000 0.931 . S
C972 C971 1.395 . S
C972 C973 1.383 . S
C972 H1001 0.931 . S
C973 C972 1.383 . S
C973 C974 1.394 . S
C974 C973 1.394 . S
C974 C975 1.378 . S
C974 H1002 0.931 . S
C975 C970 1.377 . S
C975 C974 1.378 . S
C975 H1003 0.931 . S
C976 O990 1.259 . S
C976 O991 1.270 . S
C977 O992 1.251 . S
C977 O993 1.251 . S
C978 Eu979 2.835 . S
C978 C980 1.500 . S
C978 O994 1.257 . S
C978 O995 1.260 . S
Eu979 C978 2.835 . S
Eu979 O991 2.355 . S
Eu979 O993 2.374 . S
Eu979 O994 2.473 . S
Eu979 O995 2.480 . S
Eu979 O996 2.430 . S
Eu979 O997 2.670 . S
Eu979 O998 2.394 . S
C980 C978 1.500 . S
C980 C981 1.377 . S
C980 C985 1.377 . S
C981 C980 1.377 . S
C981 C982 1.395 . S
C981 H1004 0.931 . S
C982 C981 1.395 . S
C982 C983 1.383 . S
C982 H1005 0.931 . S
C983 C982 1.383 . S
C983 C984 1.394 . S
C984 C983 1.394 . S
C984 C985 1.378 . S
C984 H1006 0.931 . S
C985 C980 1.377 . S
C985 C984 1.378 . S
C985 H1007 0.931 . S
C986 O996 1.259 . S
C986 O997 1.270 . S
C987 O998 1.251 . S
C987 O999 1.251 . S
O988 C968 1.257 . S
O988 Eu969 2.473 . S
O989 C968 1.260 . S
O989 Eu969 2.480 . S
O990 Eu969 2.430 . S
O990 C976 1.259 . S
O991 Eu969 2.670 . S
O991 C976 1.270 . S
O991 Eu979 2.355 . S
O992 Eu969 2.394 . S
O992 C977 1.251 . S
O993 C977 1.251 . S
O993 Eu979 2.374 . S
O994 C978 1.257 . S
O994 Eu979 2.473 . S
O995 C978 1.260 . S
O995 Eu979 2.480 . S
O996 Eu979 2.430 . S
O996 C986 1.259 . S
O997 Eu969 2.355 . S
O997 Eu979 2.670 . S
O997 C986 1.270 . S
O998 Eu979 2.394 . S
O998 C987 1.251 . S
O999 Eu969 2.374 . S
O999 C987 1.251 . S
H1000 C971 0.931 . S
H1001 C972 0.931 . S
H1002 C974 0.931 . S
H1003 C975 0.931 . S
H1004 C981 0.931 . S
H1005 C982 0.931 . S
H1006 C984 0.931 . S
H1007 C985 0.931 . S
H1008 C1016 0.929 . S
H1009 C1018 0.930 . S
H1010 C1020 0.930 . S
H1011 C1023 0.929 . S
H1012 C1026 0.930 . S
H1013 C1028 0.960 . S
H1014 C1028 0.960 . S
H1015 C1028 0.960 . S
C1016 H1008 0.929 . S
C1016 C1017 1.377 . S
C1016 C1018 1.384 . S
C1017 C1016 1.377 . S
C1017 C1023 1.390 . S
C1018 H1009 0.930 . S
C1018 C1016 1.384 . S
C1018 C1019 1.372 . S
C1019 C1018 1.372 . S
C1019 C1020 1.400 . S
C1019 C1024 1.490 . S
C1020 H1010 0.930 . S
C1020 C1019 1.400 . S
C1020 C1023 1.386 . S
H1021 C1037 0.930 . S
H1022 C1038 0.931 . S
C1023 H1011 0.929 . S
C1023 C1017 1.390 . S
C1023 C1020 1.386 . S
C1024 C1019 1.490 . S
C1024 C1026 1.395 . S
C1024 C1027 1.403 . S
H1025 C1031 0.930 . S
C1026 H1012 0.930 . S
C1026 C1024 1.395 . S
C1026 C1029 1.403 . S
C1027 C1024 1.403 . S
C1027 C1028 1.524 . S
C1027 C1031 1.400 . S
C1028 H1013 0.960 . S
C1028 H1014 0.960 . S
C1028 H1015 0.960 . S
C1028 C1027 1.524 . S
C1029 C1026 1.403 . S
C1029 C1030 1.392 . S
C1029 C1033 1.495 . S
C1030 C1029 1.392 . S
C1030 C1031 1.385 . S
C1030 C1032 1.478 . S
C1031 H1025 0.930 . S
C1031 C1027 1.400 . S
C1031 C1030 1.385 . S
C1032 C1030 1.478 . S
C1032 C1034 1.381 . S
C1032 C1038 1.383 . S
C1033 C1029 1.495 . S
C1033 H1039 0.959 . S
C1033 H1040 0.961 . S
C1033 H1041 0.960 . S
C1034 C1032 1.381 . S
C1034 C1035 1.394 . S
C1034 H1042 0.930 . S
C1035 C1034 1.394 . S
C1035 C1036 1.383 . S
C1035 H1043 0.929 . S
C1036 C1035 1.383 . S
C1036 C1037 1.377 . S
C1037 H1021 0.930 . S
C1037 C1036 1.377 . S
C1037 C1038 1.379 . S
C1038 H1022 0.931 . S
C1038 C1032 1.383 . S
C1038 C1037 1.379 . S
H1039 C1033 0.959 . S
H1040 C1033 0.961 . S
H1041 C1033 0.960 . S
H1042 C1034 0.930 . S
H1043 C1035 0.929 . S
H1044 C1052 0.929 . S
H1045 C1054 0.930 . S
H1046 C1056 0.930 . S
H1047 C1059 0.929 . S
H1048 C1062 0.930 . S
H1049 C1064 0.960 . S
H1050 C1064 0.960 . S
H1051 C1064 0.960 . S
C1052 H1044 0.929 . S
C1052 C1053 1.377 . S
C1052 C1054 1.384 . S
C1053 C1052 1.377 . S
C1053 C1059 1.390 . S
C1054 H1045 0.930 . S
C1054 C1052 1.384 . S
C1054 C1055 1.372 . S
C1055 C1054 1.372 . S
C1055 C1056 1.400 . S
C1055 C1060 1.490 . S
C1056 H1046 0.930 . S
C1056 C1055 1.400 . S
C1056 C1059 1.386 . S
H1057 C1073 0.930 . S
H1058 C1074 0.931 . S
C1059 H1047 0.929 . S
C1059 C1053 1.390 . S
C1059 C1056 1.386 . S
C1060 C1055 1.490 . S
C1060 C1062 1.395 . S
C1060 C1063 1.403 . S
H1061 C1067 0.930 . S
C1062 H1048 0.930 . S
C1062 C1060 1.395 . S
C1062 C1065 1.403 . S
C1063 C1060 1.403 . S
C1063 C1064 1.524 . S
C1063 C1067 1.400 . S
C1064 H1049 0.960 . S
C1064 H1050 0.960 . S
C1064 H1051 0.960 . S
C1064 C1063 1.524 . S
C1065 C1062 1.403 . S
C1065 C1066 1.392 . S
C1065 C1069 1.495 . S
C1066 C1065 1.392 . S
C1066 C1067 1.385 . S
C1066 C1068 1.478 . S
C1067 H1061 0.930 . S
C1067 C1063 1.400 . S
C1067 C1066 1.385 . S
C1068 C1066 1.478 . S
C1068 C1070 1.381 . S
C1068 C1074 1.383 . S
C1069 C1065 1.495 . S
C1069 H1075 0.959 . S
C1069 H1076 0.961 . S
C1069 H1077 0.960 . S
C1070 C1068 1.381 . S
C1070 C1071 1.394 . S
C1070 H1078 0.930 . S
C1071 C1070 1.394 . S
C1071 C1072 1.383 . S
C1071 H1079 0.929 . S
C1072 C1071 1.383 . S
C1072 C1073 1.377 . S
C1073 H1057 0.930 . S
C1073 C1072 1.377 . S
C1073 C1074 1.379 . S
C1074 H1058 0.931 . S
C1074 C1068 1.383 . S
C1074 C1073 1.379 . S
H1075 C1069 0.959 . S
H1076 C1069 0.961 . S
H1077 C1069 0.960 . S
H1078 C1070 0.930 . S
H1079 C1071 0.929 . S
H1080 C1088 0.929 . S
H1081 C1090 0.930 . S
H1082 C1092 0.930 . S
H1083 C1095 0.929 . S
H1084 C1098 0.930 . S
H1085 C1100 0.960 . S
H1086 C1100 0.960 . S
H1087 C1100 0.960 . S
C1088 H1080 0.929 . S
C1088 C1089 1.377 . S
C1088 C1090 1.384 . S
C1089 C1088 1.377 . S
C1089 C1095 1.390 . S
C1090 H1081 0.930 . S
C1090 C1088 1.384 . S
C1090 C1091 1.372 . S
C1091 C1090 1.372 . S
C1091 C1092 1.400 . S
C1091 C1096 1.490 . S
C1092 H1082 0.930 . S
C1092 C1091 1.400 . S
C1092 C1095 1.386 . S
H1093 C1109 0.930 . S
H1094 C1110 0.931 . S
C1095 H1083 0.929 . S
C1095 C1089 1.390 . S
C1095 C1092 1.386 . S
C1096 C1091 1.490 . S
C1096 C1098 1.395 . S
C1096 C1099 1.403 . S
H1097 C1103 0.930 . S
C1098 H1084 0.930 . S
C1098 C1096 1.395 . S
C1098 C1101 1.403 . S
C1099 C1096 1.403 . S
C1099 C1100 1.524 . S
C1099 C1103 1.400 . S
C1100 H1085 0.960 . S
C1100 H1086 0.960 . S
C1100 H1087 0.960 . S
C1100 C1099 1.524 . S
C1101 C1098 1.403 . S
C1101 C1102 1.392 . S
C1101 C1105 1.495 1_554 S
C1102 C1101 1.392 . S
C1102 C1103 1.385 . S
C1102 C1104 1.478 . S
C1103 H1097 0.930 . S
C1103 C1099 1.400 . S
C1103 C1102 1.385 . S
C1104 C1102 1.478 . S
C1104 C1106 1.381 . S
C1104 C1110 1.383 . S
C1105 C1101 1.495 1_556 S
C1105 H1111 0.959 . S
C1105 H1112 0.961 . S
C1105 H1113 0.960 . S
C1106 C1104 1.381 . S
C1106 C1107 1.394 . S
C1106 H1114 0.930 . S
C1107 C1106 1.394 . S
C1107 C1108 1.383 . S
C1107 H1115 0.886 1_554 S
C1108 C1107 1.383 . S
C1108 C1109 1.377 . S
C1109 H1093 0.930 . S
C1109 C1108 1.377 . S
C1109 C1110 1.379 . S
C1110 H1094 0.931 . S
C1110 C1104 1.383 . S
C1110 C1109 1.379 . S
H1111 C1105 0.959 . S
H1112 C1105 0.961 . S
H1113 C1105 0.960 . S
H1114 C1106 0.930 . S
H1115 C1107 0.886 1_556 S
H1116 C1124 0.929 . S
H1117 C1126 0.930 . S
H1118 C1128 0.930 . S
H1119 C1131 0.929 . S
H1120 C1134 0.930 . S
H1121 C1136 0.960 . S
H1122 C1136 0.960 . S
H1123 C1136 0.960 . S
C1124 H1116 0.929 . S
C1124 C1125 1.377 . S
C1124 C1126 1.384 . S
C1125 C1124 1.377 . S
C1125 C1131 1.390 . S
C1126 H1117 0.930 . S
C1126 C1124 1.384 . S
C1126 C1127 1.372 . S
C1127 C1126 1.372 . S
C1127 C1128 1.400 . S
C1127 C1132 1.490 . S
C1128 H1118 0.930 . S
C1128 C1127 1.400 . S
C1128 C1131 1.386 . S
H1129 C1145 0.930 1_554 S
H1130 C1146 0.931 . S
C1131 H1119 0.929 . S
C1131 C1125 1.390 . S
C1131 C1128 1.386 . S
C1132 C1127 1.490 . S
C1132 C1134 1.395 . S
C1132 C1135 1.403 . S
H1133 C1139 0.930 . S
C1134 H1120 0.930 . S
C1134 C1132 1.395 . S
C1134 C1137 1.403 . S
C1135 C1132 1.403 . S
C1135 C1136 1.524 . S
C1135 C1139 1.400 . S
C1136 H1121 0.960 . S
C1136 H1122 0.960 . S
C1136 H1123 0.960 . S
C1136 C1135 1.524 . S
C1137 C1134 1.403 . S
C1137 C1138 1.392 . S
C1137 C1141 1.495 . S
C1138 C1137 1.392 . S
C1138 C1139 1.385 . S
C1138 C1140 1.478 . S
C1139 H1133 0.930 . S
C1139 C1135 1.400 . S
C1139 C1138 1.385 . S
C1140 C1138 1.478 . S
C1140 C1142 1.381 . S
C1140 C1146 1.383 . S
C1141 C1137 1.495 . S
C1141 H1147 0.959 . S
C1141 H1148 0.961 . S
C1141 H1149 0.960 . S
C1142 C1140 1.381 . S
C1142 C1143 1.394 . S
C1142 H1150 0.930 . S
C1143 C1142 1.394 . S
C1143 C1144 1.383 . S
C1143 H1151 0.929 . S
C1144 C1143 1.383 . S
C1144 C1145 1.377 . S
C1145 H1129 0.930 1_556 S
C1145 C1144 1.377 . S
C1145 C1146 1.379 . S
C1146 H1130 0.931 . S
C1146 C1140 1.383 . S
C1146 C1145 1.379 . S
H1147 C1141 0.959 . S
H1148 C1141 0.961 . S
H1149 C1141 0.960 . S
H1150 C1142 0.930 . S
H1151 C1143 0.929 . S
H1152 C1160 0.929 . S
H1153 C1162 0.930 . S
H1154 C1164 0.930 . S
H1155 C1167 0.929 . S
H1156 C1170 0.930 . S
H1157 C1172 0.960 . S
H1158 C1172 0.960 . S
H1159 C1172 0.960 . S
C1160 H1152 0.929 . S
C1160 C1161 1.377 . S
C1160 C1162 1.384 . S
C1161 C1160 1.377 . S
C1161 C1167 1.390 . S
C1162 H1153 0.930 . S
C1162 C1160 1.384 . S
C1162 C1163 1.372 . S
C1163 C1162 1.372 . S
C1163 C1164 1.400 . S
C1163 C1168 1.490 . S
C1164 H1154 0.930 . S
C1164 C1163 1.400 . S
C1164 C1167 1.386 . S
H1165 C1181 0.928 . S
H1166 C1182 0.931 . S
C1167 H1155 0.929 . S
C1167 C1161 1.390 . S
C1167 C1164 1.386 . S
C1168 C1163 1.490 . S
C1168 C1170 1.395 . S
C1168 C1171 1.403 . S
H1169 C1175 0.930 . S
C1170 H1156 0.930 . S
C1170 C1168 1.395 . S
C1170 C1173 1.403 . S
C1171 C1168 1.403 . S
C1171 C1172 1.524 . S
C1171 C1175 1.400 . S
C1172 H1157 0.960 . S
C1172 H1158 0.960 . S
C1172 H1159 0.960 . S
C1172 C1171 1.524 . S
C1173 C1170 1.403 . S
C1173 C1174 1.392 . S
C1173 C1177 1.495 . S
C1174 C1173 1.392 . S
C1174 C1175 1.385 . S
C1174 C1176 1.478 . S
C1175 H1169 0.930 . S
C1175 C1171 1.400 . S
C1175 C1174 1.385 . S
C1176 C1174 1.478 . S
C1176 C1178 1.381 . S
C1176 C1182 1.383 . S
C1177 C1173 1.495 . S
C1177 H1183 0.959 . S
C1177 H1184 0.961 . S
C1177 H1185 0.960 . S
C1178 C1176 1.381 . S
C1178 C1179 1.394 . S
C1178 H1186 0.930 . S
C1179 C1178 1.394 . S
C1179 C1180 1.383 . S
C1179 H1187 0.929 . S
C1180 C1179 1.383 . S
C1180 C1181 1.377 . S
C1181 H1165 0.928 . S
C1181 C1180 1.377 . S
C1181 C1182 1.379 . S
C1182 H1166 0.931 . S
C1182 C1176 1.383 . S
C1182 C1181 1.379 . S
H1183 C1177 0.959 . S
H1184 C1177 0.961 . S
H1185 C1177 0.960 . S
H1186 C1178 0.930 . S
H1187 C1179 0.929 . S
H1188 C1196 0.929 . S
H1189 C1198 0.930 . S
H1190 C1200 0.930 . S
H1191 C1203 0.929 . S
H1192 C1206 0.930 . S
H1193 C1208 0.960 . S
H1194 C1208 0.960 . S
H1195 C1208 0.960 . S
C1196 H1188 0.929 . S
C1196 C1197 1.377 . S
C1196 C1198 1.384 . S
C1197 C1196 1.377 . S
C1197 C1203 1.390 . S
C1198 H1189 0.930 . S
C1198 C1196 1.384 . S
C1198 C1199 1.372 . S
C1199 C1198 1.372 . S
C1199 C1200 1.400 . S
C1199 C1204 1.490 . S
C1200 H1190 0.930 . S
C1200 C1199 1.400 . S
C1200 C1203 1.386 . S
H1201 C1217 0.924 . S
H1202 C1218 0.931 . S
C1203 H1191 0.929 . S
C1203 C1197 1.390 . S
C1203 C1200 1.386 . S
C1204 C1199 1.490 . S
C1204 C1206 1.395 . S
C1204 C1207 1.403 . S
H1205 C1211 0.930 . S
C1206 H1192 0.930 . S
C1206 C1204 1.395 . S
C1206 C1209 1.403 . S
C1207 C1204 1.403 . S
C1207 C1208 1.524 . S
C1207 C1211 1.400 . S
C1208 H1193 0.960 . S
C1208 H1194 0.960 . S
C1208 H1195 0.960 . S
C1208 C1207 1.524 . S
C1209 C1206 1.403 . S
C1209 C1210 1.392 . S
C1209 C1213 1.444 1_556 S
C1210 C1209 1.392 . S
C1210 C1211 1.385 . S
C1210 C1212 1.478 . S
C1211 H1205 0.930 . S
C1211 C1207 1.400 . S
C1211 C1210 1.385 . S
C1212 C1210 1.478 . S
C1212 C1214 1.381 . S
C1212 C1218 1.383 . S
C1213 C1209 1.444 1_554 S
C1213 H1219 0.979 . S
C1213 H1220 1.025 . S
C1213 H1221 0.934 1_554 S
C1214 C1212 1.381 . S
C1214 C1215 1.394 . S
C1214 H1222 0.930 . S
C1215 C1214 1.394 . S
C1215 C1216 1.383 . S
C1215 H1223 0.929 . S
C1216 C1215 1.383 . S
C1216 C1217 1.377 . S
C1217 H1201 0.924 . S
C1217 C1216 1.377 . S
C1217 C1218 1.379 . S
C1218 H1202 0.931 . S
C1218 C1212 1.383 . S
C1218 C1217 1.379 . S
H1219 C1213 0.979 . S
H1220 C1213 1.025 . S
H1221 C1213 0.934 1_556 S
H1222 C1214 0.930 . S
H1223 C1215 0.929 . S
H1224 C1232 0.929 . S
H1225 C1234 0.930 . S
H1226 C1236 0.930 . S
H1227 C1239 0.929 . S
H1228 C1242 0.930 . S
H1229 C1244 0.960 . S
H1230 C1244 0.960 . S
H1231 C1244 0.960 . S
C1232 H1224 0.929 . S
C1232 C1233 1.377 . S
C1232 C1234 1.384 . S
C1233 C1232 1.377 . S
C1233 C1239 1.390 . S
C1234 H1225 0.930 . S
C1234 C1232 1.384 . S
C1234 C1235 1.372 . S
C1235 C1234 1.372 . S
C1235 C1236 1.400 . S
C1235 C1240 1.490 . S
C1236 H1226 0.930 . S
C1236 C1235 1.400 . S
C1236 C1239 1.386 . S
H1237 C1253 0.930 . S
H1238 C1254 0.931 . S
C1239 H1227 0.929 . S
C1239 C1233 1.390 . S
C1239 C1236 1.386 . S
C1240 C1235 1.490 . S
C1240 C1242 1.395 . S
C1240 C1243 1.403 . S
H1241 C1247 0.930 . S
C1242 H1228 0.930 . S
C1242 C1240 1.395 . S
C1242 C1245 1.403 . S
C1243 C1240 1.403 . S
C1243 C1244 1.524 . S
C1243 C1247 1.400 . S
C1244 H1229 0.960 . S
C1244 H1230 0.960 . S
C1244 H1231 0.960 . S
C1244 C1243 1.524 . S
C1245 C1242 1.403 . S
C1245 C1246 1.392 . S
C1245 C1249 1.495 . S
C1246 C1245 1.392 . S
C1246 C1247 1.385 . S
C1246 C1248 1.478 . S
C1247 H1241 0.930 . S
C1247 C1243 1.400 . S
C1247 C1246 1.385 . S
C1248 C1246 1.478 . S
C1248 C1250 1.381 . S
C1248 C1254 1.383 . S
C1249 C1245 1.495 . S
C1249 H1255 0.959 . S
C1249 H1256 0.961 . S
C1249 H1257 0.960 . S
C1250 C1248 1.381 . S
C1250 C1251 1.394 . S
C1250 H1258 0.930 . S
C1251 C1250 1.394 . S
C1251 C1252 1.383 . S
C1251 H1259 0.929 . S
C1252 C1251 1.383 . S
C1252 C1253 1.377 . S
C1253 H1237 0.930 . S
C1253 C1252 1.377 . S
C1253 C1254 1.379 . S
C1254 H1238 0.931 . S
C1254 C1248 1.383 . S
C1254 C1253 1.379 . S
H1255 C1249 0.959 . S
H1256 C1249 0.961 . S
H1257 C1249 0.960 . S
H1258 C1250 0.930 . S
H1259 C1251 0.929 . S
H1260 C1268 0.929 . S
H1261 C1270 0.930 . S
H1262 C1272 0.930 . S
H1263 C1275 0.929 . S
H1264 C1278 0.930 . S
H1265 C1280 0.960 . S
H1266 C1280 0.960 . S
H1267 C1280 0.960 . S
C1268 H1260 0.929 . S
C1268 C1269 1.377 . S
C1268 C1270 1.384 . S
C1269 C1268 1.377 . S
C1269 C1275 1.390 . S
C1270 H1261 0.930 . S
C1270 C1268 1.384 . S
C1270 C1271 1.372 . S
C1271 C1270 1.372 . S
C1271 C1272 1.400 . S
C1271 C1276 1.490 . S
C1272 H1262 0.930 . S
C1272 C1271 1.400 . S
C1272 C1275 1.386 . S
H1273 C1289 0.930 . S
H1274 C1290 0.931 . S
C1275 H1263 0.929 . S
C1275 C1269 1.390 . S
C1275 C1272 1.386 . S
C1276 C1271 1.490 . S
C1276 C1278 1.395 . S
C1276 C1279 1.403 . S
H1277 C1283 0.930 . S
C1278 H1264 0.930 . S
C1278 C1276 1.395 . S
C1278 C1281 1.403 . S
C1279 C1276 1.403 . S
C1279 C1280 1.524 . S
C1279 C1283 1.400 . S
C1280 H1265 0.960 . S
C1280 H1266 0.960 . S
C1280 H1267 0.960 . S
C1280 C1279 1.524 . S
C1281 C1278 1.403 . S
C1281 C1282 1.392 . S
C1281 C1285 1.495 . S
C1282 C1281 1.392 . S
C1282 C1283 1.385 . S
C1282 C1284 1.478 . S
C1283 H1277 0.930 . S
C1283 C1279 1.400 . S
C1283 C1282 1.385 . S
C1284 C1282 1.478 . S
C1284 C1286 1.381 . S
C1284 C1290 1.383 . S
C1285 C1281 1.495 . S
C1285 H1291 0.959 . S
C1285 H1292 0.961 . S
C1285 H1293 0.960 . S
C1286 C1284 1.381 . S
C1286 C1287 1.394 . S
C1286 H1294 0.930 . S
C1287 C1286 1.394 . S
C1287 C1288 1.383 . S
C1287 H1295 0.929 . S
C1288 C1287 1.383 . S
C1288 C1289 1.377 . S
C1289 H1273 0.930 . S
C1289 C1288 1.377 . S
C1289 C1290 1.379 . S
C1290 H1274 0.931 . S
C1290 C1284 1.383 . S
C1290 C1289 1.379 . S
H1291 C1285 0.959 . S
H1292 C1285 0.961 . S
H1293 C1285 0.960 . S
H1294 C1286 0.930 . S
H1295 C1287 0.929 . S
H1296 C1304 0.929 . S
H1297 C1306 0.930 . S
H1298 C1308 0.930 . S
H1299 C1311 0.929 . S
H1300 C1314 0.930 . S
H1301 C1316 0.960 . S
H1302 C1316 0.960 . S
H1303 C1316 0.960 . S
C1304 H1296 0.929 . S
C1304 C1305 1.377 . S
C1304 C1306 1.384 . S
C1305 C1304 1.377 . S
C1305 C1311 1.390 . S
C1306 H1297 0.930 . S
C1306 C1304 1.384 . S
C1306 C1307 1.372 . S
C1307 C1306 1.372 . S
C1307 C1308 1.400 . S
C1307 C1312 1.490 . S
C1308 H1298 0.930 . S
C1308 C1307 1.400 . S
C1308 C1311 1.386 . S
H1309 C1325 0.930 . S
H1310 C1326 0.931 . S
C1311 H1299 0.929 . S
C1311 C1305 1.390 . S
C1311 C1308 1.386 . S
C1312 C1307 1.490 . S
C1312 C1314 1.395 . S
C1312 C1315 1.403 . S
H1313 C1319 0.930 . S
C1314 H1300 0.930 . S
C1314 C1312 1.395 . S
C1314 C1317 1.403 . S
C1315 C1312 1.403 . S
C1315 C1316 1.524 . S
C1315 C1319 1.400 . S
C1316 H1301 0.960 . S
C1316 H1302 0.960 . S
C1316 H1303 0.960 . S
C1316 C1315 1.524 . S
C1317 C1314 1.403 . S
C1317 C1318 1.392 . S
C1317 C1321 1.495 1_556 S
C1318 C1317 1.392 . S
C1318 C1319 1.385 . S
C1318 C1320 1.478 . S
C1319 H1313 0.930 . S
C1319 C1315 1.400 . S
C1319 C1318 1.385 . S
C1320 C1318 1.478 . S
C1320 C1322 1.381 . S
C1320 C1326 1.383 . S
C1321 C1317 1.495 1_554 S
C1321 H1327 0.959 . S
C1321 H1328 0.961 . S
C1321 H1329 0.960 . S
C1322 C1320 1.381 . S
C1322 C1323 1.394 . S
C1322 H1330 0.930 . S
C1323 C1322 1.394 . S
C1323 C1324 1.383 . S
C1323 H1331 0.951 . S
C1324 C1323 1.383 . S
C1324 C1325 1.377 . S
C1325 H1309 0.930 . S
C1325 C1324 1.377 . S
C1325 C1326 1.379 . S
C1326 H1310 0.931 . S
C1326 C1320 1.383 . S
C1326 C1325 1.379 . S
H1327 C1321 0.959 . S
H1328 C1321 0.961 . S
H1329 C1321 0.960 . S
H1330 C1322 0.930 . S
H1331 C1323 0.951 . S
H1332 C1340 0.929 . S
H1333 C1342 0.930 . S
H1334 C1344 0.930 . S
H1335 C1347 0.929 . S
H1336 C1350 0.930 . S
H1337 C1352 1.011 . S
H1338 C1352 0.960 . S
H1339 C1352 0.960 . S
C1340 H1332 0.929 . S
C1340 C1341 1.377 . S
C1340 C1342 1.384 . S
C1341 C1340 1.377 . S
C1341 C1347 1.390 . S
C1342 H1333 0.930 . S
C1342 C1340 1.384 . S
C1342 C1343 1.372 . S
C1343 C1342 1.372 . S
C1343 C1344 1.400 . S
C1343 C1348 1.490 . S
C1344 H1334 0.930 . S
C1344 C1343 1.400 . S
C1344 C1347 1.386 . S
H1345 C1361 0.930 . S
H1346 C1362 0.931 . S
C1347 H1335 0.929 . S
C1347 C1341 1.390 . S
C1347 C1344 1.386 . S
C1348 C1343 1.490 . S
C1348 C1350 1.395 . S
C1348 C1351 1.403 . S
H1349 C1355 0.930 . S
C1350 H1336 0.930 . S
C1350 C1348 1.395 . S
C1350 C1353 1.403 . S
C1351 C1348 1.403 . S
C1351 C1352 1.524 . S
C1351 C1355 1.400 . S
C1352 H1337 1.011 . S
C1352 H1338 0.960 . S
C1352 H1339 0.960 . S
C1352 C1351 1.524 . S
C1353 C1350 1.403 . S
C1353 C1354 1.392 . S
C1353 C1357 1.495 . S
C1354 C1353 1.392 . S
C1354 C1355 1.385 . S
C1354 C1356 1.478 . S
C1355 H1349 0.930 . S
C1355 C1351 1.400 . S
C1355 C1354 1.385 . S
C1356 C1354 1.478 . S
C1356 C1358 1.381 . S
C1356 C1362 1.383 . S
C1357 C1353 1.495 . S
C1357 H1363 0.959 . S
C1357 H1364 0.961 . S
C1357 H1365 0.960 . S
C1358 C1356 1.381 . S
C1358 C1359 1.394 . S
C1358 H1366 0.930 . S
C1359 C1358 1.394 . S
C1359 C1360 1.383 . S
C1359 H1367 0.929 . S
C1360 C1359 1.383 . S
C1360 C1361 1.377 . S
C1361 H1345 0.930 . S
C1361 C1360 1.377 . S
C1361 C1362 1.379 . S
C1362 H1346 0.931 . S
C1362 C1356 1.383 . S
C1362 C1361 1.379 . S
H1363 C1357 0.959 . S
H1364 C1357 0.961 . S
H1365 C1357 0.960 . S
H1366 C1358 0.930 . S
H1367 C1359 0.929 . S
H1368 C1376 0.929 . S
H1369 C1378 0.930 . S
H1370 C1380 0.930 . S
H1371 C1383 0.929 . S
H1372 C1386 0.930 . S
H1373 C1388 0.960 . S
H1374 C1388 0.960 . S
H1375 C1388 0.960 . S
C1376 H1368 0.929 . S
C1376 C1377 1.377 . S
C1376 C1378 1.384 . S
C1377 C1376 1.377 . S
C1377 C1383 1.390 . S
C1378 H1369 0.930 . S
C1378 C1376 1.384 . S
C1378 C1379 1.372 . S
C1379 C1378 1.372 . S
C1379 C1380 1.400 . S
C1379 C1384 1.490 . S
C1380 H1370 0.930 . S
C1380 C1379 1.400 . S
C1380 C1383 1.386 . S
H1381 C1397 0.930 . S
H1382 C1398 0.931 . S
C1383 H1371 0.929 . S
C1383 C1377 1.390 . S
C1383 C1380 1.386 . S
C1384 C1379 1.490 . S
C1384 C1386 1.395 . S
C1384 C1387 1.403 . S
H1385 C1391 0.930 . S
C1386 H1372 0.930 . S
C1386 C1384 1.395 . S
C1386 C1389 1.403 . S
C1387 C1384 1.403 . S
C1387 C1388 1.524 . S
C1387 C1391 1.400 . S
C1388 H1373 0.960 . S
C1388 H1374 0.960 . S
C1388 H1375 0.960 . S
C1388 C1387 1.524 . S
C1389 C1386 1.403 . S
C1389 C1390 1.392 . S
C1389 C1393 1.495 . S
C1390 C1389 1.392 . S
C1390 C1391 1.385 . S
C1390 C1392 1.478 . S
C1391 H1385 0.930 . S
C1391 C1387 1.400 . S
C1391 C1390 1.385 . S
C1392 C1390 1.478 . S
C1392 C1394 1.381 . S
C1392 C1398 1.383 . S
C1393 C1389 1.495 . S
C1393 H1399 0.959 . S
C1393 H1400 0.961 . S
C1393 H1401 0.960 . S
C1394 C1392 1.381 . S
C1394 C1395 1.394 . S
C1394 H1402 0.930 . S
C1395 C1394 1.394 . S
C1395 C1396 1.383 . S
C1395 H1403 0.929 . S
C1396 C1395 1.383 . S
C1396 C1397 1.377 . S
C1397 H1381 0.930 . S
C1397 C1396 1.377 . S
C1397 C1398 1.379 . S
C1398 H1382 0.931 . S
C1398 C1392 1.383 . S
C1398 C1397 1.379 . S
H1399 C1393 0.959 . S
H1400 C1393 0.961 . S
H1401 C1393 0.960 . S
H1402 C1394 0.930 . S
H1403 C1395 0.929 . S
H1404 C1412 0.929 . S
H1405 C1414 0.930 . S
H1406 C1416 0.930 . S
H1407 C1419 0.929 . S
H1408 C1422 0.930 . S
H1409 C1424 0.960 . S
H1410 C1424 0.960 . S
H1411 C1424 0.960 . S
C1412 H1404 0.929 . S
C1412 C1413 1.377 . S
C1412 C1414 1.384 . S
C1413 C1412 1.377 . S
C1413 C1419 1.390 . S
C1414 H1405 0.930 . S
C1414 C1412 1.384 . S
C1414 C1415 1.372 . S
C1415 C1414 1.372 . S
C1415 C1416 1.400 . S
C1415 C1420 1.490 . S
C1416 H1406 0.930 . S
C1416 C1415 1.400 . S
C1416 C1419 1.386 . S
H1417 C1433 0.930 1_556 S
H1418 C1434 0.931 . S
C1419 H1407 0.929 . S
C1419 C1413 1.390 . S
C1419 C1416 1.386 . S
C1420 C1415 1.490 . S
C1420 C1422 1.395 . S
C1420 C1423 1.403 . S
H1421 C1427 0.930 . S
C1422 H1408 0.930 . S
C1422 C1420 1.395 . S
C1422 C1425 1.403 . S
C1423 C1420 1.403 . S
C1423 C1424 1.524 . S
C1423 C1427 1.400 . S
C1424 H1409 0.960 . S
C1424 H1410 0.960 . S
C1424 H1411 0.960 . S
C1424 C1423 1.524 . S
C1425 C1422 1.403 . S
C1425 C1426 1.392 . S
C1425 C1429 1.495 . S
C1426 C1425 1.392 . S
C1426 C1427 1.385 . S
C1426 C1428 1.478 . S
C1427 H1421 0.930 . S
C1427 C1423 1.400 . S
C1427 C1426 1.385 . S
C1428 C1426 1.478 . S
C1428 C1430 1.381 . S
C1428 C1434 1.383 . S
C1429 C1425 1.495 . S
C1429 H1435 0.959 . S
C1429 H1436 0.961 . S
C1429 H1437 0.960 . S
C1430 C1428 1.381 . S
C1430 C1431 1.394 . S
C1430 H1438 0.930 . S
C1431 C1430 1.394 . S
C1431 C1432 1.383 . S
C1431 H1439 0.929 . S
C1432 C1431 1.383 . S
C1432 C1433 1.377 . S
C1433 H1417 0.930 1_554 S
C1433 C1432 1.377 . S
C1433 C1434 1.379 . S
C1434 H1418 0.931 . S
C1434 C1428 1.383 . S
C1434 C1433 1.379 . S
H1435 C1429 0.959 . S
H1436 C1429 0.961 . S
H1437 C1429 0.960 . S
H1438 C1430 0.930 . S
H1439 C1431 0.929 . S
H1440 C1448 0.929 . S
H1441 C1450 0.893 1_455 S
H1442 C1452 0.930 . S
H1443 C1455 0.929 . S
H1444 C1458 0.930 . S
H1445 C1460 0.960 . S
H1446 C1460 0.960 . S
H1447 C1460 0.960 1_655 S
C1448 H1440 0.929 . S
C1448 C1449 1.377 . S
C1448 C1450 1.384 . S
C1449 C1448 1.377 . S
C1449 C1455 1.390 . S
C1450 H1441 0.893 1_655 S
C1450 C1448 1.384 . S
C1450 C1451 1.372 . S
C1451 C1450 1.372 . S
C1451 C1452 1.400 . S
C1451 C1456 1.490 1_655 S
C1452 H1442 0.930 . S
C1452 C1451 1.400 . S
C1452 C1455 1.386 . S
H1453 C1469 0.930 . S
H1454 C1470 0.931 . S
C1455 H1443 0.929 . S
C1455 C1449 1.390 . S
C1455 C1452 1.386 . S
C1456 C1451 1.490 1_455 S
C1456 C1458 1.395 . S
C1456 C1459 1.403 . S
H1457 C1463 0.930 . S
C1458 H1444 0.930 . S
C1458 C1456 1.395 . S
C1458 C1461 1.403 . S
C1459 C1456 1.403 . S
C1459 C1460 1.524 . S
C1459 C1463 1.400 . S
C1460 H1445 0.960 . S
C1460 H1446 0.960 . S
C1460 H1447 0.960 1_455 S
C1460 C1459 1.524 . S
C1461 C1458 1.403 . S
C1461 C1462 1.392 . S
C1461 C1465 1.495 . S
C1462 C1461 1.392 . S
C1462 C1463 1.385 . S
C1462 C1464 1.478 . S
C1463 H1457 0.930 . S
C1463 C1459 1.400 . S
C1463 C1462 1.385 . S
C1464 C1462 1.478 . S
C1464 C1466 1.381 . S
C1464 C1470 1.383 . S
C1465 C1461 1.495 . S
C1465 H1471 0.959 . S
C1465 H1472 0.961 . S
C1465 H1473 0.960 . S
C1466 C1464 1.381 . S
C1466 C1467 1.394 . S
C1466 H1474 0.930 . S
C1467 C1466 1.394 . S
C1467 C1468 1.383 . S
C1467 H1475 0.929 . S
C1468 C1467 1.383 . S
C1468 C1469 1.377 . S
C1469 H1453 0.930 . S
C1469 C1468 1.377 . S
C1469 C1470 1.379 . S
C1470 H1454 0.931 . S
C1470 C1464 1.383 . S
C1470 C1469 1.379 . S
H1471 C1465 0.959 . S
H1472 C1465 0.961 . S
H1473 C1465 0.960 . S
H1474 C1466 0.930 . S
H1475 C1467 0.929 . S
H1476 C1484 0.929 . S
H1477 C1486 0.930 . S
H1478 C1488 0.930 . S
H1479 C1491 0.929 . S
H1480 C1494 0.930 . S
H1481 C1496 0.960 . S
H1482 C1496 0.960 . S
H1483 C1496 0.960 . S
C1484 H1476 0.929 . S
C1484 C1485 1.377 . S
C1484 C1486 1.384 . S
C1485 C1484 1.377 . S
C1485 C1491 1.390 . S
C1486 H1477 0.930 . S
C1486 C1484 1.384 . S
C1486 C1487 1.372 . S
C1487 C1486 1.372 . S
C1487 C1488 1.400 . S
C1487 C1492 1.490 . S
C1488 H1478 0.930 . S
C1488 C1487 1.400 . S
C1488 C1491 1.386 . S
H1489 C1505 0.930 . S
H1490 C1506 0.931 . S
C1491 H1479 0.929 . S
C1491 C1485 1.390 . S
C1491 C1488 1.386 . S
C1492 C1487 1.490 . S
C1492 C1494 1.395 . S
C1492 C1495 1.403 . S
H1493 C1499 0.930 . S
C1494 H1480 0.930 . S
C1494 C1492 1.395 . S
C1494 C1497 1.403 . S
C1495 C1492 1.403 . S
C1495 C1496 1.524 . S
C1495 C1499 1.400 . S
C1496 H1481 0.960 . S
C1496 H1482 0.960 . S
C1496 H1483 0.960 . S
C1496 C1495 1.524 . S
C1497 C1494 1.403 . S
C1497 C1498 1.392 . S
C1497 C1501 1.495 . S
C1498 C1497 1.392 . S
C1498 C1499 1.385 . S
C1498 C1500 1.478 . S
C1499 H1493 0.930 . S
C1499 C1495 1.400 . S
C1499 C1498 1.385 . S
C1500 C1498 1.478 . S
C1500 C1502 1.381 . S
C1500 C1506 1.383 . S
C1501 C1497 1.495 . S
C1501 H1507 0.959 . S
C1501 H1508 0.961 . S
C1501 H1509 0.960 . S
C1502 C1500 1.381 . S
C1502 C1503 1.394 . S
C1502 H1510 0.930 . S
C1503 C1502 1.394 . S
C1503 C1504 1.383 . S
C1503 H1511 0.929 . S
C1504 C1503 1.383 . S
C1504 C1505 1.377 . S
C1505 H1489 0.930 . S
C1505 C1504 1.377 . S
C1505 C1506 1.379 . S
C1506 H1490 0.931 . S
C1506 C1500 1.383 . S
C1506 C1505 1.379 . S
H1507 C1501 0.959 . S
H1508 C1501 0.961 . S
H1509 C1501 0.960 . S
H1510 C1502 0.930 . S
H1511 C1503 0.929 . S
H1512 C1520 0.929 . S
H1513 C1522 0.930 . S
H1514 C1524 0.930 . S
H1515 C1527 0.929 . S
H1516 C1530 0.930 . S
H1517 C1532 0.963 . S
H1518 C1532 0.957 1_545 S
H1519 C1532 0.954 1_545 S
C1520 H1512 0.929 . S
C1520 C1521 1.377 . S
C1520 C1522 1.384 . S
C1521 C1520 1.377 . S
C1521 C1527 1.390 . S
C1522 H1513 0.930 . S
C1522 C1520 1.384 . S
C1522 C1523 1.372 . S
C1523 C1522 1.372 . S
C1523 C1524 1.400 . S
C1523 C1528 1.488 1_545 S
C1524 H1514 0.930 . S
C1524 C1523 1.400 . S
C1524 C1527 1.386 . S
H1525 C1541 0.930 . S
H1526 C1542 0.931 . S
C1527 H1515 0.929 . S
C1527 C1521 1.390 . S
C1527 C1524 1.386 . S
C1528 C1523 1.488 1_565 S
C1528 C1530 1.396 . S
C1528 C1531 1.403 . S
H1529 C1535 0.930 . S
C1530 H1516 0.930 . S
C1530 C1528 1.396 . S
C1530 C1533 1.403 . S
C1531 C1528 1.403 . S
C1531 C1532 1.530 . S
C1531 C1535 1.400 . S
C1532 H1517 0.963 . S
C1532 H1518 0.957 1_565 S
C1532 H1519 0.954 1_565 S
C1532 C1531 1.530 . S
C1533 C1530 1.403 . S
C1533 C1534 1.392 . S
C1533 C1537 1.495 . S
C1534 C1533 1.392 . S
C1534 C1535 1.385 . S
C1534 C1536 1.478 . S
C1535 H1529 0.930 . S
C1535 C1531 1.400 . S
C1535 C1534 1.385 . S
C1536 C1534 1.478 . S
C1536 C1538 1.381 . S
C1536 C1542 1.383 . S
C1537 C1533 1.495 . S
C1537 H1543 0.959 . S
C1537 H1544 0.961 . S
C1537 H1545 0.960 . S
C1538 C1536 1.381 . S
C1538 C1539 1.394 . S
C1538 H1546 0.930 . S
C1539 C1538 1.394 . S
C1539 C1540 1.383 . S
C1539 H1547 0.929 . S
C1540 C1539 1.383 . S
C1540 C1541 1.377 . S
C1541 H1525 0.930 . S
C1541 C1540 1.377 . S
C1541 C1542 1.379 . S
C1542 H1526 0.931 . S
C1542 C1536 1.383 . S
C1542 C1541 1.379 . S
H1543 C1537 0.959 . S
H1544 C1537 0.961 . S
H1545 C1537 0.960 . S
H1546 C1538 0.930 . S
H1547 C1539 0.929 . S
H1548 C1556 0.929 . S
H1549 C1558 0.930 . S
H1550 C1560 0.930 . S
H1551 C1563 0.929 . S
H1552 C1566 0.930 . S
H1553 C1568 0.960 . S
H1554 C1568 0.960 . S
H1555 C1568 0.960 . S
C1556 H1548 0.929 . S
C1556 C1557 1.377 . S
C1556 C1558 1.384 . S
C1557 C1556 1.377 . S
C1557 C1563 1.390 . S
C1558 H1549 0.930 . S
C1558 C1556 1.384 . S
C1558 C1559 1.372 . S
C1559 C1558 1.372 . S
C1559 C1560 1.400 . S
C1559 C1564 1.490 . S
C1560 H1550 0.930 . S
C1560 C1559 1.400 . S
C1560 C1563 1.386 . S
H1561 C1577 0.930 . S
H1562 C1578 0.931 . S
C1563 H1551 0.929 . S
C1563 C1557 1.390 . S
C1563 C1560 1.386 . S
C1564 C1559 1.490 . S
C1564 C1566 1.395 . S
C1564 C1567 1.403 . S
H1565 C1571 0.930 . S
C1566 H1552 0.930 . S
C1566 C1564 1.395 . S
C1566 C1569 1.403 . S
C1567 C1564 1.403 . S
C1567 C1568 1.524 . S
C1567 C1571 1.400 . S
C1568 H1553 0.960 . S
C1568 H1554 0.960 . S
C1568 H1555 0.960 . S
C1568 C1567 1.524 . S
C1569 C1566 1.403 . S
C1569 C1570 1.392 . S
C1569 C1573 1.495 . S
C1570 C1569 1.392 . S
C1570 C1571 1.385 . S
C1570 C1572 1.478 . S
C1571 H1565 0.930 . S
C1571 C1567 1.400 . S
C1571 C1570 1.385 . S
C1572 C1570 1.478 . S
C1572 C1574 1.381 . S
C1572 C1578 1.383 . S
C1573 C1569 1.495 . S
C1573 H1579 0.959 . S
C1573 H1580 0.961 . S
C1573 H1581 0.960 . S
C1574 C1572 1.381 . S
C1574 C1575 1.394 . S
C1574 H1582 0.930 . S
C1575 C1574 1.394 . S
C1575 C1576 1.383 . S
C1575 H1583 0.929 . S
C1576 C1575 1.383 . S
C1576 C1577 1.377 . S
C1577 H1561 0.930 . S
C1577 C1576 1.377 . S
C1577 C1578 1.379 . S
C1578 H1562 0.931 . S
C1578 C1572 1.383 . S
C1578 C1577 1.379 . S
H1579 C1573 0.959 . S
H1580 C1573 0.961 . S
H1581 C1573 0.960 . S
H1582 C1574 0.930 . S
H1583 C1575 0.929 . S
H1584 C1592 0.929 . S
H1585 C1594 0.930 . S
H1586 C1596 0.930 . S
H1587 C1599 0.929 . S
H1588 C1602 0.930 . S
H1589 C1604 0.960 . S
H1590 C1604 0.960 . S
H1591 C1604 0.960 . S
C1592 H1584 0.929 . S
C1592 C1593 1.377 . S
C1592 C1594 1.384 . S
C1593 C1592 1.377 . S
C1593 C1599 1.390 . S
C1594 H1585 0.930 . S
C1594 C1592 1.384 . S
C1594 C1595 1.372 . S
C1595 C1594 1.372 . S
C1595 C1596 1.400 . S
C1595 C1600 1.490 . S
C1596 H1586 0.930 . S
C1596 C1595 1.400 . S
C1596 C1599 1.386 . S
H1597 C1613 0.930 . S
H1598 C1614 0.931 . S
C1599 H1587 0.929 . S
C1599 C1593 1.390 . S
C1599 C1596 1.386 . S
C1600 C1595 1.490 . S
C1600 C1602 1.395 . S
C1600 C1603 1.403 . S
H1601 C1607 0.930 . S
C1602 H1588 0.930 . S
C1602 C1600 1.395 . S
C1602 C1605 1.403 . S
C1603 C1600 1.403 . S
C1603 C1604 1.524 . S
C1603 C1607 1.400 . S
C1604 H1589 0.960 . S
C1604 H1590 0.960 . S
C1604 H1591 0.960 . S
C1604 C1603 1.524 . S
C1605 C1602 1.403 . S
C1605 C1606 1.392 . S
C1605 C1609 1.495 . S
C1606 C1605 1.392 . S
C1606 C1607 1.385 . S
C1606 C1608 1.478 . S
C1607 H1601 0.930 . S
C1607 C1603 1.400 . S
C1607 C1606 1.385 . S
C1608 C1606 1.478 . S
C1608 C1610 1.381 . S
C1608 C1614 1.383 . S
C1609 C1605 1.495 . S
C1609 H1615 0.959 . S
C1609 H1616 0.961 . S
C1609 H1617 0.960 . S
C1610 C1608 1.381 . S
C1610 C1611 1.394 . S
C1610 H1618 0.930 . S
C1611 C1610 1.394 . S
C1611 C1612 1.383 . S
C1611 H1619 0.929 . S
C1612 C1611 1.383 . S
C1612 C1613 1.377 . S
C1613 H1597 0.930 . S
C1613 C1612 1.377 . S
C1613 C1614 1.379 . S
C1614 H1598 0.931 . S
C1614 C1608 1.383 . S
C1614 C1613 1.379 . S
H1615 C1609 0.959 . S
H1616 C1609 0.961 . S
H1617 C1609 0.960 . S
H1618 C1610 0.930 . S
H1619 C1611 0.929 . S
H1620 C1628 0.929 . S
H1621 C1630 0.930 . S
H1622 C1632 0.930 . S
H1623 C1635 0.929 . S
H1624 C1638 0.930 . S
H1625 C1640 0.960 . S
H1626 C1640 0.960 . S
H1627 C1640 0.960 . S
C1628 H1620 0.929 . S
C1628 C1629 1.377 . S
C1628 C1630 1.384 . S
C1629 C1628 1.377 . S
C1629 C1635 1.390 . S
C1630 H1621 0.930 . S
C1630 C1628 1.384 . S
C1630 C1631 1.372 . S
C1631 C1630 1.372 . S
C1631 C1632 1.400 . S
C1631 C1636 1.490 . S
C1632 H1622 0.930 . S
C1632 C1631 1.400 . S
C1632 C1635 1.386 . S
H1633 C1649 0.930 . S
H1634 C1650 0.931 . S
C1635 H1623 0.929 . S
C1635 C1629 1.390 . S
C1635 C1632 1.386 . S
C1636 C1631 1.490 . S
C1636 C1638 1.395 . S
C1636 C1639 1.403 . S
H1637 C1643 0.930 . S
C1638 H1624 0.930 . S
C1638 C1636 1.395 . S
C1638 C1641 1.403 . S
C1639 C1636 1.403 . S
C1639 C1640 1.524 . S
C1639 C1643 1.400 . S
C1640 H1625 0.960 . S
C1640 H1626 0.960 . S
C1640 H1627 0.960 . S
C1640 C1639 1.524 . S
C1641 C1638 1.403 . S
C1641 C1642 1.392 . S
C1641 C1645 1.495 . S
C1642 C1641 1.392 . S
C1642 C1643 1.385 . S
C1642 C1644 1.478 . S
C1643 H1637 0.930 . S
C1643 C1639 1.400 . S
C1643 C1642 1.385 . S
C1644 C1642 1.478 . S
C1644 C1646 1.381 . S
C1644 C1650 1.383 . S
C1645 C1641 1.495 . S
C1645 H1651 0.959 . S
C1645 H1652 0.961 . S
C1645 H1653 0.960 . S
C1646 C1644 1.381 . S
C1646 C1647 1.394 . S
C1646 H1654 0.930 . S
C1647 C1646 1.394 . S
C1647 C1648 1.383 . S
C1647 H1655 0.929 . S
C1648 C1647 1.383 . S
C1648 C1649 1.377 . S
C1649 H1633 0.930 . S
C1649 C1648 1.377 . S
C1649 C1650 1.379 . S
C1650 H1634 0.931 . S
C1650 C1644 1.383 . S
C1650 C1649 1.379 . S
H1651 C1645 0.959 . S
H1652 C1645 0.961 . S
H1653 C1645 0.960 . S
H1654 C1646 0.930 . S
H1655 C1647 0.929 . S
H1656 C1664 0.929 . S
H1657 C1666 0.930 . S
H1658 C1668 0.930 . S
H1659 C1671 0.929 . S
H1660 C1674 0.930 . S
H1661 C1676 0.960 . S
H1662 C1676 0.960 . S
H1663 C1676 0.960 . S
C1664 H1656 0.929 . S
C1664 C1665 1.377 . S
C1664 C1666 1.384 . S
C1665 C1664 1.377 . S
C1665 C1671 1.390 . S
C1666 H1657 0.930 . S
C1666 C1664 1.384 . S
C1666 C1667 1.372 . S
C1667 C1666 1.372 . S
C1667 C1668 1.400 . S
C1667 C1672 1.490 . S
C1668 H1658 0.930 . S
C1668 C1667 1.400 . S
C1668 C1671 1.386 . S
H1669 C1685 0.930 . S
H1670 C1686 0.931 . S
C1671 H1659 0.929 . S
C1671 C1665 1.390 . S
C1671 C1668 1.386 . S
C1672 C1667 1.490 . S
C1672 C1674 1.395 . S
C1672 C1675 1.403 . S
H1673 C1679 0.930 . S
C1674 H1660 0.930 . S
C1674 C1672 1.395 . S
C1674 C1677 1.403 . S
C1675 C1672 1.403 . S
C1675 C1676 1.524 . S
C1675 C1679 1.400 . S
C1676 H1661 0.960 . S
C1676 H1662 0.960 . S
C1676 H1663 0.960 . S
C1676 C1675 1.524 . S
C1677 C1674 1.403 . S
C1677 C1678 1.392 . S
C1677 C1681 1.495 . S
C1678 C1677 1.392 . S
C1678 C1679 1.385 . S
C1678 C1680 1.478 . S
C1679 H1673 0.930 . S
C1679 C1675 1.400 . S
C1679 C1678 1.385 . S
C1680 C1678 1.478 . S
C1680 C1682 1.381 . S
C1680 C1686 1.383 . S
C1681 C1677 1.495 . S
C1681 H1687 0.959 . S
C1681 H1688 0.961 . S
C1681 H1689 0.960 . S
C1682 C1680 1.381 . S
C1682 C1683 1.394 . S
C1682 H1690 0.930 . S
C1683 C1682 1.394 . S
C1683 C1684 1.383 . S
C1683 H1691 0.929 . S
C1684 C1683 1.383 . S
C1684 C1685 1.377 . S
C1685 H1669 0.930 . S
C1685 C1684 1.377 . S
C1685 C1686 1.379 . S
C1686 H1670 0.931 . S
C1686 C1680 1.383 . S
C1686 C1685 1.379 . S
H1687 C1681 0.959 . S
H1688 C1681 0.961 . S
H1689 C1681 0.960 . S
H1690 C1682 0.930 . S
H1691 C1683 0.929 . S
H1692 C1700 0.929 . S
H1693 C1702 0.930 . S
H1694 C1704 0.930 . S
H1695 C1707 0.929 . S
H1696 C1710 0.930 . S
H1697 C1712 0.960 . S
H1698 C1712 0.960 . S
H1699 C1712 0.960 . S
C1700 H1692 0.929 . S
C1700 C1701 1.377 . S
C1700 C1702 1.384 . S
C1701 C1700 1.377 . S
C1701 C1707 1.390 . S
C1702 H1693 0.930 . S
C1702 C1700 1.384 . S
C1702 C1703 1.372 . S
C1703 C1702 1.372 . S
C1703 C1704 1.400 . S
C1703 C1708 1.490 . S
C1704 H1694 0.930 . S
C1704 C1703 1.400 . S
C1704 C1707 1.386 . S
H1705 C1721 0.930 . S
H1706 C1722 0.931 . S
C1707 H1695 0.929 . S
C1707 C1701 1.390 . S
C1707 C1704 1.386 . S
C1708 C1703 1.490 . S
C1708 C1710 1.395 . S
C1708 C1711 1.403 . S
H1709 C1715 0.930 . S
C1710 H1696 0.930 . S
C1710 C1708 1.395 . S
C1710 C1713 1.403 . S
C1711 C1708 1.403 . S
C1711 C1712 1.524 . S
C1711 C1715 1.400 . S
C1712 H1697 0.960 . S
C1712 H1698 0.960 . S
C1712 H1699 0.960 . S
C1712 C1711 1.524 . S
C1713 C1710 1.403 . S
C1713 C1714 1.392 . S
C1713 C1717 1.495 . S
C1714 C1713 1.392 . S
C1714 C1715 1.385 . S
C1714 C1716 1.478 . S
C1715 H1709 0.930 . S
C1715 C1711 1.400 . S
C1715 C1714 1.385 . S
C1716 C1714 1.478 . S
C1716 C1718 1.381 . S
C1716 C1722 1.383 . S
C1717 C1713 1.495 . S
C1717 H1723 0.959 . S
C1717 H1724 0.961 . S
C1717 H1725 0.960 . S
C1718 C1716 1.381 . S
C1718 C1719 1.394 . S
C1718 H1726 0.930 . S
C1719 C1718 1.394 . S
C1719 C1720 1.383 . S
C1719 H1727 0.929 . S
C1720 C1719 1.383 . S
C1720 C1721 1.377 . S
C1721 H1705 0.930 . S
C1721 C1720 1.377 . S
C1721 C1722 1.379 . S
C1722 H1706 0.931 . S
C1722 C1716 1.383 . S
C1722 C1721 1.379 . S
H1723 C1717 0.959 . S
H1724 C1717 0.961 . S
H1725 C1717 0.960 . S
H1726 C1718 0.930 . S
H1727 C1719 0.929 . S
H1728 C1736 0.929 . S
H1729 C1738 0.930 . S
H1730 C1740 0.930 . S
H1731 C1743 0.929 . S
H1732 C1746 0.930 . S
H1733 C1748 0.960 . S
H1734 C1748 0.960 . S
H1735 C1748 0.960 . S
C1736 H1728 0.929 . S
C1736 C1737 1.377 . S
C1736 C1738 1.384 . S
C1737 C1736 1.377 . S
C1737 C1743 1.390 . S
C1738 H1729 0.930 . S
C1738 C1736 1.384 . S
C1738 C1739 1.372 . S
C1739 C1738 1.372 . S
C1739 C1740 1.400 . S
C1739 C1744 1.490 . S
C1740 H1730 0.930 . S
C1740 C1739 1.400 . S
C1740 C1743 1.386 . S
H1741 C1757 0.930 . S
H1742 C1758 0.931 . S
C1743 H1731 0.929 . S
C1743 C1737 1.390 . S
C1743 C1740 1.386 . S
C1744 C1739 1.490 . S
C1744 C1746 1.395 . S
C1744 C1747 1.403 . S
H1745 C1751 0.930 . S
C1746 H1732 0.930 . S
C1746 C1744 1.395 . S
C1746 C1749 1.403 . S
C1747 C1744 1.403 . S
C1747 C1748 1.524 . S
C1747 C1751 1.400 . S
C1748 H1733 0.960 . S
C1748 H1734 0.960 . S
C1748 H1735 0.960 . S
C1748 C1747 1.524 . S
C1749 C1746 1.403 . S
C1749 C1750 1.392 . S
C1749 C1753 1.495 . S
C1750 C1749 1.392 . S
C1750 C1751 1.385 . S
C1750 C1752 1.478 . S
C1751 H1745 0.930 . S
C1751 C1747 1.400 . S
C1751 C1750 1.385 . S
C1752 C1750 1.478 . S
C1752 C1754 1.381 . S
C1752 C1758 1.383 . S
C1753 C1749 1.495 . S
C1753 H1759 0.959 . S
C1753 H1760 0.961 . S
C1753 H1761 0.960 . S
C1754 C1752 1.381 . S
C1754 C1755 1.394 . S
C1754 H1762 0.930 . S
C1755 C1754 1.394 . S
C1755 C1756 1.383 . S
C1755 H1763 0.929 . S
C1756 C1755 1.383 . S
C1756 C1757 1.377 . S
C1757 H1741 0.930 . S
C1757 C1756 1.377 . S
C1757 C1758 1.379 . S
C1758 H1742 0.931 . S
C1758 C1752 1.383 . S
C1758 C1757 1.379 . S
H1759 C1753 0.959 . S
H1760 C1753 0.961 . S
H1761 C1753 0.960 . S
H1762 C1754 0.930 . S
H1763 C1755 0.929 . S
H1764 C1772 0.929 . S
H1765 C1774 0.930 . S
H1766 C1776 0.930 . S
H1767 C1779 0.929 . S
H1768 C1782 0.930 . S
H1769 C1784 0.980 . S
H1770 C1784 0.961 1_545 S
H1771 C1784 0.917 1_545 S
C1772 H1764 0.929 . S
C1772 C1773 1.377 . S
C1772 C1774 1.384 . S
C1773 C1772 1.377 . S
C1773 C1779 1.390 . S
C1774 H1765 0.930 . S
C1774 C1772 1.384 . S
C1774 C1775 1.372 . S
C1775 C1774 1.372 . S
C1775 C1776 1.400 . S
C1775 C1780 1.490 1_545 S
C1776 H1766 0.930 . S
C1776 C1775 1.400 . S
C1776 C1779 1.386 . S
H1777 C1793 0.930 . S
H1778 C1794 0.931 . S
C1779 H1767 0.929 . S
C1779 C1773 1.390 . S
C1779 C1776 1.386 . S
C1780 C1775 1.490 1_565 S
C1780 C1782 1.395 . S
C1780 C1783 1.403 . S
H1781 C1787 0.930 . S
C1782 H1768 0.930 . S
C1782 C1780 1.395 . S
C1782 C1785 1.403 . S
C1783 C1780 1.403 . S
C1783 C1784 1.548 . S
C1783 C1787 1.400 . S
C1784 H1769 0.980 . S
C1784 H1770 0.961 1_565 S
C1784 H1771 0.917 1_565 S
C1784 C1783 1.548 . S
C1785 C1782 1.403 . S
C1785 C1786 1.392 . S
C1785 C1789 1.495 . S
C1786 C1785 1.392 . S
C1786 C1787 1.385 . S
C1786 C1788 1.478 . S
C1787 H1781 0.930 . S
C1787 C1783 1.400 . S
C1787 C1786 1.385 . S
C1788 C1786 1.478 . S
C1788 C1790 1.381 . S
C1788 C1794 1.383 . S
C1789 C1785 1.495 . S
C1789 H1795 0.959 . S
C1789 H1796 0.961 . S
C1789 H1797 0.960 . S
C1790 C1788 1.381 . S
C1790 C1791 1.394 . S
C1790 H1798 0.930 . S
C1791 C1790 1.394 . S
C1791 C1792 1.383 . S
C1791 H1799 0.929 . S
C1792 C1791 1.383 . S
C1792 C1793 1.377 . S
C1793 H1777 0.930 . S
C1793 C1792 1.377 . S
C1793 C1794 1.379 . S
C1794 H1778 0.931 . S
C1794 C1788 1.383 . S
C1794 C1793 1.379 . S
H1795 C1789 0.959 . S
H1796 C1789 0.961 . S
H1797 C1789 0.960 . S
H1798 C1790 0.930 . S
H1799 C1791 0.929 . S
H1800 C1808 0.929 . S
H1801 C1810 0.930 . S
H1802 C1812 0.930 . S
H1803 C1815 0.929 . S
H1804 C1818 0.930 . S
H1805 C1820 0.960 . S
H1806 C1820 0.960 . S
H1807 C1820 0.960 1_655 S
C1808 H1800 0.929 . S
C1808 C1809 1.377 . S
C1808 C1810 1.384 1_655 S
C1809 C1808 1.377 . S
C1809 C1815 1.390 . S
C1810 H1801 0.930 . S
C1810 C1808 1.384 1_455 S
C1810 C1811 1.372 . S
C1811 C1810 1.372 . S
C1811 C1812 1.400 1_455 S
C1811 C1816 1.490 . S
C1812 H1802 0.930 . S
C1812 C1811 1.400 1_655 S
C1812 C1815 1.386 . S
H1813 C1829 0.930 . S
H1814 C1830 0.931 . S
C1815 H1803 0.929 . S
C1815 C1809 1.390 . S
C1815 C1812 1.386 . S
C1816 C1811 1.490 . S
C1816 C1818 1.395 . S
C1816 C1819 1.403 . S
H1817 C1823 0.930 . S
C1818 H1804 0.930 . S
C1818 C1816 1.395 . S
C1818 C1821 1.403 . S
C1819 C1816 1.403 . S
C1819 C1820 1.524 . S
C1819 C1823 1.400 . S
C1820 H1805 0.960 . S
C1820 H1806 0.960 . S
C1820 H1807 0.960 1_455 S
C1820 C1819 1.524 . S
C1821 C1818 1.403 . S
C1821 C1822 1.392 . S
C1821 C1825 1.495 . S
C1822 C1821 1.392 . S
C1822 C1823 1.385 . S
C1822 C1824 1.478 . S
C1823 H1817 0.930 . S
C1823 C1819 1.400 . S
C1823 C1822 1.385 . S
C1824 C1822 1.478 . S
C1824 C1826 1.381 . S
C1824 C1830 1.383 . S
C1825 C1821 1.495 . S
C1825 H1831 0.959 . S
C1825 H1832 0.961 . S
C1825 H1833 0.960 . S
C1826 C1824 1.381 . S
C1826 C1827 1.394 . S
C1826 H1834 0.930 . S
C1827 C1826 1.394 . S
C1827 C1828 1.383 . S
C1827 H1835 0.929 . S
C1828 C1827 1.383 . S
C1828 C1829 1.377 . S
C1829 H1813 0.930 . S
C1829 C1828 1.377 . S
C1829 C1830 1.379 . S
C1830 H1814 0.931 . S
C1830 C1824 1.383 . S
C1830 C1829 1.379 . S
H1831 C1825 0.959 . S
H1832 C1825 0.961 . S
H1833 C1825 0.960 . S
H1834 C1826 0.930 . S
H1835 C1827 0.929 . S
H1836 C1844 0.929 . S
H1837 C1846 0.930 . S
H1838 C1848 0.930 . S
H1839 C1851 0.929 . S
H1840 C1854 0.930 . S
H1841 C1856 0.960 . S
H1842 C1856 0.960 . S
H1843 C1856 0.960 . S
C1844 H1836 0.929 . S
C1844 C1845 1.377 . S
C1844 C1846 1.384 . S
C1845 C1844 1.377 . S
C1845 C1851 1.390 . S
C1846 H1837 0.930 . S
C1846 C1844 1.384 . S
C1846 C1847 1.372 . S
C1847 C1846 1.372 . S
C1847 C1848 1.400 . S
C1847 C1852 1.490 . S
C1848 H1838 0.930 . S
C1848 C1847 1.400 . S
C1848 C1851 1.386 . S
H1849 C1865 0.930 . S
H1850 C1866 0.931 . S
C1851 H1839 0.929 . S
C1851 C1845 1.390 . S
C1851 C1848 1.386 . S
C1852 C1847 1.490 . S
C1852 C1854 1.395 . S
C1852 C1855 1.403 . S
H1853 C1859 0.930 . S
C1854 H1840 0.930 . S
C1854 C1852 1.395 . S
C1854 C1857 1.403 . S
C1855 C1852 1.403 . S
C1855 C1856 1.524 . S
C1855 C1859 1.400 . S
C1856 H1841 0.960 . S
C1856 H1842 0.960 . S
C1856 H1843 0.960 . S
C1856 C1855 1.524 . S
C1857 C1854 1.403 . S
C1857 C1858 1.392 . S
C1857 C1861 1.495 . S
C1858 C1857 1.392 . S
C1858 C1859 1.385 . S
C1858 C1860 1.478 . S
C1859 H1853 0.930 . S
C1859 C1855 1.400 . S
C1859 C1858 1.385 . S
C1860 C1858 1.478 . S
C1860 C1862 1.381 . S
C1860 C1866 1.383 . S
C1861 C1857 1.495 . S
C1861 H1867 0.959 . S
C1861 H1868 0.961 . S
C1861 H1869 0.960 . S
C1862 C1860 1.381 . S
C1862 C1863 1.394 . S
C1862 H1870 0.930 . S
C1863 C1862 1.394 . S
C1863 C1864 1.383 . S
C1863 H1871 0.929 . S
C1864 C1863 1.383 . S
C1864 C1865 1.377 . S
C1865 H1849 0.930 . S
C1865 C1864 1.377 . S
C1865 C1866 1.379 . S
C1866 H1850 0.931 . S
C1866 C1860 1.383 . S
C1866 C1865 1.379 . S
H1867 C1861 0.959 . S
H1868 C1861 0.961 . S
H1869 C1861 0.960 . S
H1870 C1862 0.930 . S
H1871 C1863 0.929 . S
H1872 C1880 0.929 . S
H1873 C1882 0.930 . S
H1874 C1884 0.930 . S
H1875 C1887 0.929 . S
H1876 C1890 0.930 . S
H1877 C1892 0.960 . S
H1878 C1892 0.960 . S
H1879 C1892 0.960 . S
C1880 H1872 0.929 . S
C1880 C1881 1.377 . S
C1880 C1882 1.384 . S
C1881 C1880 1.377 . S
C1881 C1887 1.390 . S
C1882 H1873 0.930 . S
C1882 C1880 1.384 . S
C1882 C1883 1.372 . S
C1883 C1882 1.372 . S
C1883 C1884 1.400 . S
C1883 C1888 1.490 . S
C1884 H1874 0.930 . S
C1884 C1883 1.400 . S
C1884 C1887 1.386 . S
H1885 C1901 0.930 . S
H1886 C1902 0.931 . S
C1887 H1875 0.929 . S
C1887 C1881 1.390 . S
C1887 C1884 1.386 . S
C1888 C1883 1.490 . S
C1888 C1890 1.395 . S
C1888 C1891 1.403 . S
H1889 C1895 0.930 . S
C1890 H1876 0.930 . S
C1890 C1888 1.395 . S
C1890 C1893 1.403 . S
C1891 C1888 1.403 . S
C1891 C1892 1.524 . S
C1891 C1895 1.400 . S
C1892 H1877 0.960 . S
C1892 H1878 0.960 . S
C1892 H1879 0.960 . S
C1892 C1891 1.524 . S
C1893 C1890 1.403 . S
C1893 C1894 1.392 . S
C1893 C1897 1.495 . S
C1894 C1893 1.392 . S
C1894 C1895 1.385 . S
C1894 C1896 1.478 . S
C1895 H1889 0.930 . S
C1895 C1891 1.400 . S
C1895 C1894 1.385 . S
C1896 C1894 1.478 . S
C1896 C1898 1.381 . S
C1896 C1902 1.383 . S
C1897 C1893 1.495 . S
C1897 H1903 0.959 . S
C1897 H1904 0.961 . S
C1897 H1905 0.960 . S
C1898 C1896 1.381 . S
C1898 C1899 1.394 . S
C1898 H1906 0.930 . S
C1899 C1898 1.394 . S
C1899 C1900 1.383 . S
C1899 H1907 0.929 . S
C1900 C1899 1.383 . S
C1900 C1901 1.377 . S
C1901 H1885 0.930 . S
C1901 C1900 1.377 . S
C1901 C1902 1.379 . S
C1902 H1886 0.931 . S
C1902 C1896 1.383 . S
C1902 C1901 1.379 . S
H1903 C1897 0.959 . S
H1904 C1897 0.961 . S
H1905 C1897 0.960 . S
H1906 C1898 0.930 . S
H1907 C1899 0.929 . S
H1908 C1916 0.929 . S
H1909 C1918 0.930 . S
H1910 C1920 0.930 . S
H1911 C1923 0.929 . S
H1912 C1926 0.930 . S
H1913 C1928 0.960 . S
H1914 C1928 0.960 . S
H1915 C1928 0.960 . S
C1916 H1908 0.929 . S
C1916 C1917 1.377 . S
C1916 C1918 1.384 . S
C1917 C1916 1.377 . S
C1917 C1923 1.390 . S
C1918 H1909 0.930 . S
C1918 C1916 1.384 . S
C1918 C1919 1.372 . S
C1919 C1918 1.372 . S
C1919 C1920 1.400 . S
C1919 C1924 1.490 . S
C1920 H1910 0.930 . S
C1920 C1919 1.400 . S
C1920 C1923 1.386 . S
H1921 C1937 0.930 . S
H1922 C1938 0.931 . S
C1923 H1911 0.929 . S
C1923 C1917 1.390 . S
C1923 C1920 1.386 . S
C1924 C1919 1.490 . S
C1924 C1926 1.395 . S
C1924 C1927 1.403 . S
H1925 C1931 0.930 . S
C1926 H1912 0.930 . S
C1926 C1924 1.395 . S
C1926 C1929 1.403 . S
C1927 C1924 1.403 . S
C1927 C1928 1.524 . S
C1927 C1931 1.400 . S
C1928 H1913 0.960 . S
C1928 H1914 0.960 . S
C1928 H1915 0.960 . S
C1928 C1927 1.524 . S
C1929 C1926 1.403 . S
C1929 C1930 1.392 . S
C1929 C1933 1.495 . S
C1930 C1929 1.392 . S
C1930 C1931 1.385 . S
C1930 C1932 1.478 . S
C1931 H1925 0.930 . S
C1931 C1927 1.400 . S
C1931 C1930 1.385 . S
C1932 C1930 1.478 . S
C1932 C1934 1.381 . S
C1932 C1938 1.383 . S
C1933 C1929 1.495 . S
C1933 H1939 0.959 . S
C1933 H1940 0.961 . S
C1933 H1941 0.960 . S
C1934 C1932 1.381 . S
C1934 C1935 1.394 . S
C1934 H1942 0.930 . S
C1935 C1934 1.394 . S
C1935 C1936 1.383 . S
C1935 H1943 0.929 . S
C1936 C1935 1.383 . S
C1936 C1937 1.377 . S
C1937 H1921 0.930 . S
C1937 C1936 1.377 . S
C1937 C1938 1.379 . S
C1938 H1922 0.931 . S
C1938 C1932 1.383 . S
C1938 C1937 1.379 . S
H1939 C1933 0.959 . S
H1940 C1933 0.961 . S
H1941 C1933 0.960 . S
H1942 C1934 0.930 . S
H1943 C1935 0.929 . S
H1944 C1952 0.929 . S
H1945 C1954 0.930 . S
H1946 C1956 0.930 . S
H1947 C1959 0.929 . S
H1948 C1962 0.930 . S
H1949 C1964 0.960 . S
H1950 C1964 0.960 . S
H1951 C1964 0.960 . S
C1952 H1944 0.929 . S
C1952 C1953 1.377 . S
C1952 C1954 1.384 . S
C1953 C1952 1.377 . S
C1953 C1959 1.390 . S
C1954 H1945 0.930 . S
C1954 C1952 1.384 . S
C1954 C1955 1.372 . S
C1955 C1954 1.372 . S
C1955 C1956 1.400 . S
C1955 C1960 1.490 . S
C1956 H1946 0.930 . S
C1956 C1955 1.400 . S
C1956 C1959 1.386 . S
H1957 C1973 0.930 . S
H1958 C1974 0.931 . S
C1959 H1947 0.929 . S
C1959 C1953 1.390 . S
C1959 C1956 1.386 . S
C1960 C1955 1.490 . S
C1960 C1962 1.395 . S
C1960 C1963 1.403 . S
H1961 C1967 0.930 . S
C1962 H1948 0.930 . S
C1962 C1960 1.395 . S
C1962 C1965 1.403 . S
C1963 C1960 1.403 . S
C1963 C1964 1.524 . S
C1963 C1967 1.400 . S
C1964 H1949 0.960 . S
C1964 H1950 0.960 . S
C1964 H1951 0.960 . S
C1964 C1963 1.524 . S
C1965 C1962 1.403 . S
C1965 C1966 1.392 . S
C1965 C1969 1.495 . S
C1966 C1965 1.392 . S
C1966 C1967 1.385 . S
C1966 C1968 1.478 . S
C1967 H1961 0.930 . S
C1967 C1963 1.400 . S
C1967 C1966 1.385 . S
C1968 C1966 1.478 . S
C1968 C1970 1.381 . S
C1968 C1974 1.383 . S
C1969 C1965 1.495 . S
C1969 H1975 0.959 . S
C1969 H1976 0.961 . S
C1969 H1977 0.960 . S
C1970 C1968 1.381 . S
C1970 C1971 1.394 . S
C1970 H1978 0.930 . S
C1971 C1970 1.394 . S
C1971 C1972 1.383 . S
C1971 H1979 0.929 . S
C1972 C1971 1.383 . S
C1972 C1973 1.377 . S
C1973 H1957 0.930 . S
C1973 C1972 1.377 . S
C1973 C1974 1.379 . S
C1974 H1958 0.931 . S
C1974 C1968 1.383 . S
C1974 C1973 1.379 . S
H1975 C1969 0.959 . S
H1976 C1969 0.961 . S
H1977 C1969 0.960 . S
H1978 C1970 0.930 . S
H1979 C1971 0.929 . S
H1980 C1988 0.929 . S
H1981 C1990 0.930 . S
H1982 C1992 0.930 . S
H1983 C1995 0.929 . S
H1984 C1998 0.930 . S
H1985 C2000 0.960 . S
H1986 C2000 0.960 1_565 S
H1987 C2000 0.960 1_565 S
C1988 H1980 0.929 . S
C1988 C1989 1.377 . S
C1988 C1990 1.384 . S
C1989 C1988 1.377 . S
C1989 C1995 1.390 . S
C1990 H1981 0.930 . S
C1990 C1988 1.384 . S
C1990 C1991 1.372 . S
C1991 C1990 1.372 . S
C1991 C1992 1.400 . S
C1991 C1996 1.490 1_565 S
C1992 H1982 0.930 . S
C1992 C1991 1.400 . S
C1992 C1995 1.386 . S
H1993 C2009 0.930 . S
H1994 C2010 0.931 . S
C1995 H1983 0.929 . S
C1995 C1989 1.390 . S
C1995 C1992 1.386 . S
C1996 C1991 1.490 1_545 S
C1996 C1998 1.395 . S
C1996 C1999 1.403 . S
H1997 C2003 0.930 . S
C1998 H1984 0.930 . S
C1998 C1996 1.395 . S
C1998 C2001 1.403 . S
C1999 C1996 1.403 . S
C1999 C2000 1.524 . S
C1999 C2003 1.400 . S
C2000 H1985 0.960 . S
C2000 H1986 0.960 1_545 S
C2000 H1987 0.960 1_545 S
C2000 C1999 1.524 . S
C2001 C1998 1.403 . S
C2001 C2002 1.392 . S
C2001 C2005 1.495 . S
C2002 C2001 1.392 . S
C2002 C2003 1.385 . S
C2002 C2004 1.478 . S
C2003 H1997 0.930 . S
C2003 C1999 1.400 . S
C2003 C2002 1.385 . S
C2004 C2002 1.478 . S
C2004 C2006 1.381 . S
C2004 C2010 1.383 . S
C2005 C2001 1.495 . S
C2005 H2011 0.959 . S
C2005 H2012 0.961 . S
C2005 H2013 0.960 . S
C2006 C2004 1.381 . S
C2006 C2007 1.394 . S
C2006 H2014 0.930 . S
C2007 C2006 1.394 . S
C2007 C2008 1.383 . S
C2007 H2015 0.929 . S
C2008 C2007 1.383 . S
C2008 C2009 1.377 . S
C2009 H1993 0.930 . S
C2009 C2008 1.377 . S
C2009 C2010 1.379 . S
C2010 H1994 0.931 . S
C2010 C2004 1.383 . S
C2010 C2009 1.379 . S
H2011 C2005 0.959 . S
H2012 C2005 0.961 . S
H2013 C2005 0.960 . S
H2014 C2006 0.930 . S
H2015 C2007 0.929 . S
H2016 C2024 0.929 . S
H2017 C2026 0.930 1_655 S
H2018 C2028 0.930 . S
H2019 C2031 0.929 . S
H2020 C2034 0.930 . S
H2021 C2036 0.960 . S
H2022 C2036 0.960 . S
H2023 C2036 0.960 . S
C2024 H2016 0.929 . S
C2024 C2025 1.377 . S
C2024 C2026 1.384 . S
C2025 C2024 1.377 . S
C2025 C2031 1.390 . S
C2026 H2017 0.930 1_455 S
C2026 C2024 1.384 . S
C2026 C2027 1.372 1_455 S
C2027 C2026 1.372 1_655 S
C2027 C2028 1.400 1_655 S
C2027 C2032 1.490 . S
C2028 H2018 0.930 . S
C2028 C2027 1.400 1_455 S
C2028 C2031 1.386 . S
H2029 C2045 0.930 . S
H2030 C2046 0.931 . S
C2031 H2019 0.929 . S
C2031 C2025 1.390 . S
C2031 C2028 1.386 . S
C2032 C2027 1.490 . S
C2032 C2034 1.395 . S
C2032 C2035 1.403 . S
H2033 C2039 0.930 . S
C2034 H2020 0.930 . S
C2034 C2032 1.395 . S
C2034 C2037 1.403 . S
C2035 C2032 1.403 . S
C2035 C2036 1.524 . S
C2035 C2039 1.400 . S
C2036 H2021 0.960 . S
C2036 H2022 0.960 . S
C2036 H2023 0.960 . S
C2036 C2035 1.524 . S
C2037 C2034 1.403 . S
C2037 C2038 1.392 . S
C2037 C2041 1.495 . S
C2038 C2037 1.392 . S
C2038 C2039 1.385 . S
C2038 C2040 1.478 . S
C2039 H2033 0.930 . S
C2039 C2035 1.400 . S
C2039 C2038 1.385 . S
C2040 C2038 1.478 . S
C2040 C2042 1.381 . S
C2040 C2046 1.383 . S
C2041 C2037 1.495 . S
C2041 H2047 0.959 . S
C2041 H2048 0.961 . S
C2041 H2049 0.960 . S
C2042 C2040 1.381 . S
C2042 C2043 1.394 . S
C2042 H2050 0.930 . S
C2043 C2042 1.394 . S
C2043 C2044 1.383 . S
C2043 H2051 0.929 . S
C2044 C2043 1.383 . S
C2044 C2045 1.377 . S
C2045 H2029 0.930 . S
C2045 C2044 1.377 . S
C2045 C2046 1.379 . S
C2046 H2030 0.931 . S
C2046 C2040 1.383 . S
C2046 C2045 1.379 . S
H2047 C2041 0.959 . S
H2048 C2041 0.961 . S
H2049 C2041 0.960 . S
H2050 C2042 0.930 . S
H2051 C2043 0.929 . S
H2052 C2060 0.929 . S
H2053 C2062 0.930 . S
H2054 C2064 0.930 . S
H2055 C2067 0.929 . S
H2056 C2070 0.930 . S
H2057 C2072 0.960 . S
H2058 C2072 0.960 . S
H2059 C2072 0.960 . S
C2060 H2052 0.929 . S
C2060 C2061 1.377 . S
C2060 C2062 1.384 . S
C2061 C2060 1.377 . S
C2061 C2067 1.390 . S
C2062 H2053 0.930 . S
C2062 C2060 1.384 . S
C2062 C2063 1.372 . S
C2063 C2062 1.372 . S
C2063 C2064 1.400 . S
C2063 C2068 1.490 . S
C2064 H2054 0.930 . S
C2064 C2063 1.400 . S
C2064 C2067 1.386 . S
H2065 C2081 0.930 . S
H2066 C2082 0.931 . S
C2067 H2055 0.929 . S
C2067 C2061 1.390 . S
C2067 C2064 1.386 . S
C2068 C2063 1.490 . S
C2068 C2070 1.395 . S
C2068 C2071 1.403 . S
H2069 C2075 0.930 . S
C2070 H2056 0.930 . S
C2070 C2068 1.395 . S
C2070 C2073 1.403 . S
C2071 C2068 1.403 . S
C2071 C2072 1.524 . S
C2071 C2075 1.400 . S
C2072 H2057 0.960 . S
C2072 H2058 0.960 . S
C2072 H2059 0.960 . S
C2072 C2071 1.524 . S
C2073 C2070 1.403 . S
C2073 C2074 1.392 . S
C2073 C2077 1.495 . S
C2074 C2073 1.392 . S
C2074 C2075 1.385 . S
C2074 C2076 1.478 . S
C2075 H2069 0.930 . S
C2075 C2071 1.400 . S
C2075 C2074 1.385 . S
C2076 C2074 1.478 . S
C2076 C2078 1.381 . S
C2076 C2082 1.383 . S
C2077 C2073 1.495 . S
C2077 H2083 0.959 . S
C2077 H2084 0.961 . S
C2077 H2085 0.960 . S
C2078 C2076 1.381 . S
C2078 C2079 1.394 . S
C2078 H2086 0.930 . S
C2079 C2078 1.394 . S
C2079 C2080 1.383 . S
C2079 H2087 0.929 . S
C2080 C2079 1.383 . S
C2080 C2081 1.377 . S
C2081 H2065 0.930 . S
C2081 C2080 1.377 . S
C2081 C2082 1.379 . S
C2082 H2066 0.931 . S
C2082 C2076 1.383 . S
C2082 C2081 1.379 . S
H2083 C2077 0.959 . S
H2084 C2077 0.961 . S
H2085 C2077 0.960 . S
H2086 C2078 0.930 . S
H2087 C2079 0.929 . S
H2088 C2096 0.929 . S
H2089 C2098 0.930 . S
H2090 C2100 0.930 . S
H2091 C2103 0.929 . S
H2092 C2106 0.930 . S
H2093 C2108 0.960 . S
H2094 C2108 0.960 . S
H2095 C2108 0.960 . S
C2096 H2088 0.929 . S
C2096 C2097 1.377 . S
C2096 C2098 1.384 . S
C2097 C2096 1.377 . S
C2097 C2103 1.390 . S
C2098 H2089 0.930 . S
C2098 C2096 1.384 . S
C2098 C2099 1.372 . S
C2099 C2098 1.372 . S
C2099 C2100 1.400 . S
C2099 C2104 1.490 1_455 S
C2100 H2090 0.930 . S
C2100 C2099 1.400 . S
C2100 C2103 1.386 . S
H2101 C2117 0.930 . S
H2102 C2118 0.931 . S
C2103 H2091 0.929 . S
C2103 C2097 1.390 . S
C2103 C2100 1.386 . S
C2104 C2099 1.490 1_655 S
C2104 C2106 1.395 . S
C2104 C2107 1.403 . S
H2105 C2111 0.930 . S
C2106 H2092 0.930 . S
C2106 C2104 1.395 . S
C2106 C2109 1.403 . S
C2107 C2104 1.403 . S
C2107 C2108 1.524 . S
C2107 C2111 1.400 . S
C2108 H2093 0.960 . S
C2108 H2094 0.960 . S
C2108 H2095 0.960 . S
C2108 C2107 1.524 . S
C2109 C2106 1.403 . S
C2109 C2110 1.392 . S
C2109 C2113 1.495 . S
C2110 C2109 1.392 . S
C2110 C2111 1.385 . S
C2110 C2112 1.478 . S
C2111 H2105 0.930 . S
C2111 C2107 1.400 . S
C2111 C2110 1.385 . S
C2112 C2110 1.478 . S
C2112 C2114 1.381 . S
C2112 C2118 1.383 . S
C2113 C2109 1.495 . S
C2113 H2119 0.959 . S
C2113 H2120 0.961 . S
C2113 H2121 0.960 . S
C2114 C2112 1.381 . S
C2114 C2115 1.394 . S
C2114 H2122 0.930 . S
C2115 C2114 1.394 . S
C2115 C2116 1.383 . S
C2115 H2123 0.929 . S
C2116 C2115 1.383 . S
C2116 C2117 1.377 . S
C2117 H2101 0.930 . S
C2117 C2116 1.377 . S
C2117 C2118 1.379 . S
C2118 H2102 0.931 . S
C2118 C2112 1.383 . S
C2118 C2117 1.379 . S
H2119 C2113 0.959 . S
H2120 C2113 0.961 . S
H2121 C2113 0.960 . S
H2122 C2114 0.930 . S
H2123 C2115 0.929 . S
H2124 C2132 0.929 . S
H2125 C2134 0.930 . S
H2126 C2136 0.930 . S
H2127 C2139 0.929 . S
H2128 C2142 0.930 . S
H2129 C2144 0.960 . S
H2130 C2144 0.960 . S
H2131 C2144 0.960 . S
C2132 H2124 0.929 . S
C2132 C2133 1.377 . S
C2132 C2134 1.384 . S
C2133 C2132 1.377 . S
C2133 C2139 1.390 . S
C2134 H2125 0.930 . S
C2134 C2132 1.384 . S
C2134 C2135 1.372 . S
C2135 C2134 1.372 . S
C2135 C2136 1.400 . S
C2135 C2140 1.490 . S
C2136 H2126 0.930 . S
C2136 C2135 1.400 . S
C2136 C2139 1.386 . S
H2137 C2153 0.930 . S
H2138 C2154 0.931 . S
C2139 H2127 0.929 . S
C2139 C2133 1.390 . S
C2139 C2136 1.386 . S
C2140 C2135 1.490 . S
C2140 C2142 1.395 . S
C2140 C2143 1.403 . S
H2141 C2147 0.930 . S
C2142 H2128 0.930 . S
C2142 C2140 1.395 . S
C2142 C2145 1.403 . S
C2143 C2140 1.403 . S
C2143 C2144 1.524 . S
C2143 C2147 1.400 . S
C2144 H2129 0.960 . S
C2144 H2130 0.960 . S
C2144 H2131 0.960 . S
C2144 C2143 1.524 . S
C2145 C2142 1.403 . S
C2145 C2146 1.392 . S
C2145 C2149 1.495 . S
C2146 C2145 1.392 . S
C2146 C2147 1.385 . S
C2146 C2148 1.478 . S
C2147 H2141 0.930 . S
C2147 C2143 1.400 . S
C2147 C2146 1.385 . S
C2148 C2146 1.478 . S
C2148 C2150 1.381 . S
C2148 C2154 1.383 . S
C2149 C2145 1.495 . S
C2149 H2155 0.959 . S
C2149 H2156 0.961 . S
C2149 H2157 0.960 . S
C2150 C2148 1.381 . S
C2150 C2151 1.394 . S
C2150 H2158 0.930 . S
C2151 C2150 1.394 . S
C2151 C2152 1.383 . S
C2151 H2159 0.929 . S
C2152 C2151 1.383 . S
C2152 C2153 1.377 . S
C2153 H2137 0.930 . S
C2153 C2152 1.377 . S
C2153 C2154 1.379 . S
C2154 H2138 0.931 . S
C2154 C2148 1.383 . S
C2154 C2153 1.379 . S
H2155 C2149 0.959 . S
H2156 C2149 0.961 . S
H2157 C2149 0.960 . S
H2158 C2150 0.930 . S
H2159 C2151 0.929 . S
H2160 C2168 0.929 . S
H2161 C2170 0.930 . S
H2162 C2172 0.930 . S
H2163 C2175 0.929 . S
H2164 C2178 0.930 . S
H2165 C2180 0.960 . S
H2166 C2180 0.949 1_565 S
H2167 C2180 0.960 1_565 S
C2168 H2160 0.929 . S
C2168 C2169 1.377 . S
C2168 C2170 1.384 . S
C2169 C2168 1.377 . S
C2169 C2175 1.390 . S
C2170 H2161 0.930 . S
C2170 C2168 1.384 . S
C2170 C2171 1.372 . S
C2171 C2170 1.372 . S
C2171 C2172 1.400 . S
C2171 C2176 1.433 1_565 S
C2172 H2162 0.930 . S
C2172 C2171 1.400 . S
C2172 C2175 1.386 . S
H2173 C2189 0.930 . S
H2174 C2190 0.931 . S
C2175 H2163 0.929 . S
C2175 C2169 1.390 . S
C2175 C2172 1.386 . S
C2176 C2171 1.433 1_545 S
C2176 C2178 1.445 . S
C2176 C2179 1.412 . S
H2177 C2183 0.930 . S
C2178 H2164 0.930 . S
C2178 C2176 1.445 . S
C2178 C2181 1.403 . S
C2179 C2176 1.412 . S
C2179 C2180 1.524 . S
C2179 C2183 1.400 . S
C2180 H2165 0.960 . S
C2180 H2166 0.949 1_545 S
C2180 H2167 0.960 1_545 S
C2180 C2179 1.524 . S
C2181 C2178 1.403 . S
C2181 C2182 1.392 . S
C2181 C2185 1.495 . S
C2182 C2181 1.392 . S
C2182 C2183 1.385 . S
C2182 C2184 1.478 . S
C2183 H2177 0.930 . S
C2183 C2179 1.400 . S
C2183 C2182 1.385 . S
C2184 C2182 1.478 . S
C2184 C2186 1.381 . S
C2184 C2190 1.383 . S
C2185 C2181 1.495 . S
C2185 H2191 0.959 . S
C2185 H2192 0.961 . S
C2185 H2193 0.960 . S
C2186 C2184 1.381 . S
C2186 C2187 1.394 . S
C2186 H2194 0.930 . S
C2187 C2186 1.394 . S
C2187 C2188 1.383 . S
C2187 H2195 0.929 . S
C2188 C2187 1.383 . S
C2188 C2189 1.377 . S
C2189 H2173 0.930 . S
C2189 C2188 1.377 . S
C2189 C2190 1.379 . S
C2190 H2174 0.931 . S
C2190 C2184 1.383 . S
C2190 C2189 1.379 . S
H2191 C2185 0.959 . S
H2192 C2185 0.961 . S
H2193 C2185 0.960 . S
H2194 C2186 0.930 . S
H2195 C2187 0.929 . S
H2196 C2204 0.929 . S
H2197 C2206 0.930 . S
H2198 C2208 0.930 . S
H2199 C2211 0.929 . S
H2200 C2214 0.930 . S
H2201 C2216 0.960 . S
H2202 C2216 0.960 . S
H2203 C2216 0.960 . S
C2204 H2196 0.929 . S
C2204 C2205 1.377 . S
C2204 C2206 1.384 . S
C2205 C2204 1.377 . S
C2205 C2211 1.390 . S
C2206 H2197 0.930 . S
C2206 C2204 1.384 . S
C2206 C2207 1.372 . S
C2207 C2206 1.372 . S
C2207 C2208 1.400 . S
C2207 C2212 1.490 . S
C2208 H2198 0.930 . S
C2208 C2207 1.400 . S
C2208 C2211 1.386 . S
H2209 C2225 0.930 . S
H2210 C2226 0.931 . S
C2211 H2199 0.929 . S
C2211 C2205 1.390 . S
C2211 C2208 1.386 . S
C2212 C2207 1.490 . S
C2212 C2214 1.395 . S
C2212 C2215 1.403 . S
H2213 C2219 0.930 . S
C2214 H2200 0.930 . S
C2214 C2212 1.395 . S
C2214 C2217 1.403 . S
C2215 C2212 1.403 . S
C2215 C2216 1.524 . S
C2215 C2219 1.400 . S
C2216 H2201 0.960 . S
C2216 H2202 0.960 . S
C2216 H2203 0.960 . S
C2216 C2215 1.524 . S
C2217 C2214 1.403 . S
C2217 C2218 1.392 . S
C2217 C2221 1.495 . S
C2218 C2217 1.392 . S
C2218 C2219 1.385 . S
C2218 C2220 1.478 . S
C2219 H2213 0.930 . S
C2219 C2215 1.400 . S
C2219 C2218 1.385 . S
C2220 C2218 1.478 . S
C2220 C2222 1.381 . S
C2220 C2226 1.383 . S
C2221 C2217 1.495 . S
C2221 H2227 0.959 . S
C2221 H2228 0.961 . S
C2221 H2229 0.960 . S
C2222 C2220 1.381 . S
C2222 C2223 1.394 . S
C2222 H2230 0.930 . S
C2223 C2222 1.394 . S
C2223 C2224 1.383 . S
C2223 H2231 0.929 . S
C2224 C2223 1.383 . S
C2224 C2225 1.377 . S
C2225 H2209 0.930 . S
C2225 C2224 1.377 . S
C2225 C2226 1.379 . S
C2226 H2210 0.931 . S
C2226 C2220 1.383 . S
C2226 C2225 1.379 . S
H2227 C2221 0.959 . S
H2228 C2221 0.961 . S
H2229 C2221 0.960 . S
H2230 C2222 0.930 . S
H2231 C2223 0.929 . S
H2232 C2240 0.929 . S
H2233 C2242 0.930 . S
H2234 C2244 0.930 . S
H2235 C2247 0.929 . S
H2236 C2250 0.930 . S
H2237 C2252 0.960 . S
H2238 C2252 0.960 . S
H2239 C2252 0.960 . S
C2240 H2232 0.929 . S
C2240 C2241 1.377 . S
C2240 C2242 1.384 . S
C2241 C2240 1.377 . S
C2241 C2247 1.390 . S
C2242 H2233 0.930 . S
C2242 C2240 1.384 . S
C2242 C2243 1.372 . S
C2243 C2242 1.372 . S
C2243 C2244 1.400 . S
C2243 C2248 1.490 . S
C2244 H2234 0.930 . S
C2244 C2243 1.400 . S
C2244 C2247 1.386 . S
H2245 C2261 0.930 . S
H2246 C2262 0.931 . S
C2247 H2235 0.929 . S
C2247 C2241 1.390 . S
C2247 C2244 1.386 . S
C2248 C2243 1.490 . S
C2248 C2250 1.395 . S
C2248 C2251 1.403 . S
H2249 C2255 0.930 . S
C2250 H2236 0.930 . S
C2250 C2248 1.395 . S
C2250 C2253 1.403 . S
C2251 C2248 1.403 . S
C2251 C2252 1.524 . S
C2251 C2255 1.400 . S
C2252 H2237 0.960 . S
C2252 H2238 0.960 . S
C2252 H2239 0.960 . S
C2252 C2251 1.524 . S
C2253 C2250 1.403 . S
C2253 C2254 1.392 . S
C2253 C2257 1.495 . S
C2254 C2253 1.392 . S
C2254 C2255 1.385 . S
C2254 C2256 1.478 . S
C2255 H2249 0.930 . S
C2255 C2251 1.400 . S
C2255 C2254 1.385 . S
C2256 C2254 1.478 . S
C2256 C2258 1.381 . S
C2256 C2262 1.383 . S
C2257 C2253 1.495 . S
C2257 H2263 0.959 . S
C2257 H2264 0.961 . S
C2257 H2265 0.960 . S
C2258 C2256 1.381 . S
C2258 C2259 1.394 . S
C2258 H2266 0.930 . S
C2259 C2258 1.394 . S
C2259 C2260 1.383 . S
C2259 H2267 0.929 . S
C2260 C2259 1.383 . S
C2260 C2261 1.377 . S
C2261 H2245 0.930 . S
C2261 C2260 1.377 . S
C2261 C2262 1.379 . S
C2262 H2246 0.931 . S
C2262 C2256 1.383 . S
C2262 C2261 1.379 . S
H2263 C2257 0.959 . S
H2264 C2257 0.961 . S
H2265 C2257 0.960 . S
H2266 C2258 0.930 . S
H2267 C2259 0.929 . S
H2268 C2276 0.929 . S
H2269 C2278 0.930 . S
H2270 C2280 0.930 . S
H2271 C2283 0.929 . S
H2272 C2286 0.930 . S
H2273 C2288 0.960 . S
H2274 C2288 0.960 . S
H2275 C2288 0.960 . S
C2276 H2268 0.929 . S
C2276 C2277 1.377 . S
C2276 C2278 1.384 . S
C2277 C2276 1.377 . S
C2277 C2283 1.390 . S
C2278 H2269 0.930 . S
C2278 C2276 1.384 . S
C2278 C2279 1.372 . S
C2279 C2278 1.372 . S
C2279 C2280 1.400 . S
C2279 C2284 1.490 . S
C2280 H2270 0.930 . S
C2280 C2279 1.400 . S
C2280 C2283 1.386 . S
H2281 C2297 0.930 . S
H2282 C2298 0.931 . S
C2283 H2271 0.929 . S
C2283 C2277 1.390 . S
C2283 C2280 1.386 . S
C2284 C2279 1.490 . S
C2284 C2286 1.395 . S
C2284 C2287 1.403 . S
H2285 C2291 0.930 . S
C2286 H2272 0.930 . S
C2286 C2284 1.395 . S
C2286 C2289 1.403 . S
C2287 C2284 1.403 . S
C2287 C2288 1.524 . S
C2287 C2291 1.400 . S
C2288 H2273 0.960 . S
C2288 H2274 0.960 . S
C2288 H2275 0.960 . S
C2288 C2287 1.524 . S
C2289 C2286 1.403 . S
C2289 C2290 1.392 . S
C2289 C2293 1.495 . S
C2290 C2289 1.392 . S
C2290 C2291 1.385 . S
C2290 C2292 1.478 . S
C2291 H2285 0.930 . S
C2291 C2287 1.400 . S
C2291 C2290 1.385 . S
C2292 C2290 1.478 . S
C2292 C2294 1.381 . S
C2292 C2298 1.383 . S
C2293 C2289 1.495 . S
C2293 H2299 0.959 . S
C2293 H2300 0.961 . S
C2293 H2301 0.960 . S
C2294 C2292 1.381 . S
C2294 C2295 1.394 . S
C2294 H2302 0.930 . S
C2295 C2294 1.394 . S
C2295 C2296 1.383 . S
C2295 H2303 0.929 . S
C2296 C2295 1.383 . S
C2296 C2297 1.377 . S
C2297 H2281 0.930 . S
C2297 C2296 1.377 . S
C2297 C2298 1.379 . S
C2298 H2282 0.931 . S
C2298 C2292 1.383 . S
C2298 C2297 1.379 . S
H2299 C2293 0.959 . S
H2300 C2293 0.961 . S
H2301 C2293 0.960 . S
H2302 C2294 0.930 . S
H2303 C2295 0.929 . S
H2304 C2312 0.929 . S
H2305 C2314 0.930 . S
H2306 C2316 0.930 . S
H2307 C2319 0.929 . S
H2308 C2322 0.930 1_545 S
H2309 C2324 0.960 . S
H2310 C2324 0.960 . S
H2311 C2324 0.960 . S
C2312 H2304 0.929 . S
C2312 C2313 1.377 . S
C2312 C2314 1.384 . S
C2313 C2312 1.377 . S
C2313 C2319 1.390 . S
C2314 H2305 0.930 . S
C2314 C2312 1.384 . S
C2314 C2315 1.372 . S
C2315 C2314 1.372 . S
C2315 C2316 1.400 . S
C2315 C2320 1.490 . S
C2316 H2306 0.930 . S
C2316 C2315 1.400 . S
C2316 C2319 1.386 . S
H2317 C2333 0.930 . S
H2318 C2334 0.931 . S
C2319 H2307 0.929 . S
C2319 C2313 1.390 . S
C2319 C2316 1.386 . S
C2320 C2315 1.490 . S
C2320 C2322 1.395 . S
C2320 C2323 1.403 . S
H2321 C2327 0.930 . S
C2322 H2308 0.930 1_565 S
C2322 C2320 1.395 . S
C2322 C2325 1.403 . S
C2323 C2320 1.403 . S
C2323 C2324 1.524 . S
C2323 C2327 1.400 . S
C2324 H2309 0.960 . S
C2324 H2310 0.960 . S
C2324 H2311 0.960 . S
C2324 C2323 1.524 . S
C2325 C2322 1.403 . S
C2325 C2326 1.392 . S
C2325 C2329 1.495 1_565 S
C2326 C2325 1.392 . S
C2326 C2327 1.385 . S
C2326 C2328 1.478 . S
C2327 H2321 0.930 . S
C2327 C2323 1.400 . S
C2327 C2326 1.385 . S
C2328 C2326 1.478 . S
C2328 C2330 1.381 . S
C2328 C2334 1.383 . S
C2329 C2325 1.495 1_545 S
C2329 H2335 0.959 . S
C2329 H2336 0.961 . S
C2329 H2337 0.960 . S
C2330 C2328 1.381 . S
C2330 C2331 1.395 . S
C2330 H2338 0.930 1_565 S
C2331 C2330 1.395 . S
C2331 C2332 1.386 . S
C2331 H2339 0.925 1_565 S
C2332 C2331 1.386 . S
C2332 C2333 1.377 . S
C2333 H2317 0.930 . S
C2333 C2332 1.377 . S
C2333 C2334 1.379 . S
C2334 H2318 0.931 . S
C2334 C2328 1.383 . S
C2334 C2333 1.379 . S
H2335 C2329 0.959 . S
H2336 C2329 0.961 . S
H2337 C2329 0.960 . S
H2338 C2330 0.930 1_545 S
H2339 C2331 0.925 1_545 S
H2340 C2348 0.929 . S
H2341 C2350 0.930 . S
H2342 C2352 0.930 . S
H2343 C2355 0.929 . S
H2344 C2358 0.930 . S
H2345 C2360 0.960 . S
H2346 C2360 0.960 . S
H2347 C2360 0.960 . S
C2348 H2340 0.929 . S
C2348 C2349 1.377 . S
C2348 C2350 1.384 . S
C2349 C2348 1.377 . S
C2349 C2355 1.390 . S
C2350 H2341 0.930 . S
C2350 C2348 1.384 . S
C2350 C2351 1.372 . S
C2351 C2350 1.372 . S
C2351 C2352 1.400 . S
C2351 C2356 1.490 . S
C2352 H2342 0.930 . S
C2352 C2351 1.400 . S
C2352 C2355 1.386 . S
H2353 C2369 0.930 . S
H2354 C2370 0.966 . S
C2355 H2343 0.929 . S
C2355 C2349 1.390 . S
C2355 C2352 1.386 . S
C2356 C2351 1.490 . S
C2356 C2358 1.395 1_455 S
C2356 C2359 1.403 . S
H2357 C2363 0.930 . S
C2358 H2344 0.930 . S
C2358 C2356 1.395 1_655 S
C2358 C2361 1.403 . S
C2359 C2356 1.403 . S
C2359 C2360 1.524 . S
C2359 C2363 1.400 . S
C2360 H2345 0.960 . S
C2360 H2346 0.960 . S
C2360 H2347 0.960 . S
C2360 C2359 1.524 . S
C2361 C2358 1.403 . S
C2361 C2362 1.392 1_655 S
C2361 C2365 1.495 . S
C2362 C2361 1.392 1_455 S
C2362 C2363 1.385 . S
C2362 C2364 1.478 . S
C2363 H2357 0.930 . S
C2363 C2359 1.400 . S
C2363 C2362 1.385 . S
C2364 C2362 1.478 . S
C2364 C2366 1.381 . S
C2364 C2370 1.383 . S
C2365 C2361 1.495 . S
C2365 H2371 0.959 . S
C2365 H2372 0.961 . S
C2365 H2373 0.960 . S
C2366 C2364 1.381 . S
C2366 C2367 1.394 . S
C2366 H2374 0.930 . S
C2367 C2366 1.394 . S
C2367 C2368 1.383 . S
C2367 H2375 0.929 . S
C2368 C2367 1.383 . S
C2368 C2369 1.377 . S
C2369 H2353 0.930 . S
C2369 C2368 1.377 . S
C2369 C2370 1.379 . S
C2370 H2354 0.966 . S
C2370 C2364 1.383 . S
C2370 C2369 1.379 . S
H2371 C2365 0.959 . S
H2372 C2365 0.961 . S
H2373 C2365 0.960 . S
H2374 C2366 0.930 . S
H2375 C2367 0.929 . S
H2376 C2384 0.929 . S
H2377 C2386 0.930 . S
H2378 C2388 0.930 . S
H2379 C2391 0.929 . S
H2380 C2394 0.930 . S
H2381 C2396 0.960 . S
H2382 C2396 0.960 . S
H2383 C2396 0.960 . S
C2384 H2376 0.929 . S
C2384 C2385 1.377 . S
C2384 C2386 1.384 . S
C2385 C2384 1.377 . S
C2385 C2391 1.390 . S
C2386 H2377 0.930 . S
C2386 C2384 1.384 . S
C2386 C2387 1.372 . S
C2387 C2386 1.372 . S
C2387 C2388 1.400 . S
C2387 C2392 1.490 . S
C2388 H2378 0.930 . S
C2388 C2387 1.400 . S
C2388 C2391 1.386 . S
H2389 C2405 0.930 . S
H2390 C2406 0.931 . S
C2391 H2379 0.929 . S
C2391 C2385 1.390 . S
C2391 C2388 1.386 . S
C2392 C2387 1.490 . S
C2392 C2394 1.395 . S
C2392 C2395 1.403 . S
H2393 C2399 0.930 . S
C2394 H2380 0.930 . S
C2394 C2392 1.395 . S
C2394 C2397 1.403 . S
C2395 C2392 1.403 . S
C2395 C2396 1.524 . S
C2395 C2399 1.400 . S
C2396 H2381 0.960 . S
C2396 H2382 0.960 . S
C2396 H2383 0.960 . S
C2396 C2395 1.524 . S
C2397 C2394 1.403 . S
C2397 C2398 1.392 . S
C2397 C2401 1.495 . S
C2398 C2397 1.392 . S
C2398 C2399 1.385 . S
C2398 C2400 1.478 . S
C2399 H2393 0.930 . S
C2399 C2395 1.400 . S
C2399 C2398 1.385 . S
C2400 C2398 1.478 . S
C2400 C2402 1.381 . S
C2400 C2406 1.383 . S
C2401 C2397 1.495 . S
C2401 H2407 0.959 . S
C2401 H2408 0.961 . S
C2401 H2409 0.960 . S
C2402 C2400 1.381 . S
C2402 C2403 1.394 . S
C2402 H2410 0.930 . S
C2403 C2402 1.394 . S
C2403 C2404 1.383 . S
C2403 H2411 0.929 . S
C2404 C2403 1.383 . S
C2404 C2405 1.377 . S
C2405 H2389 0.930 . S
C2405 C2404 1.377 . S
C2405 C2406 1.379 . S
C2406 H2390 0.931 . S
C2406 C2400 1.383 . S
C2406 C2405 1.379 . S
H2407 C2401 0.959 . S
H2408 C2401 0.961 . S
H2409 C2401 0.960 . S
H2410 C2402 0.930 . S
H2411 C2403 0.929 . S
H2412 C2420 0.929 . S
H2413 C2422 0.930 . S
H2414 C2424 0.930 1_455 S
H2415 C2427 0.929 1_455 S
H2416 C2430 0.930 . S
H2417 C2432 0.960 . S
H2418 C2432 0.960 . S
H2419 C2432 0.960 . S
C2420 H2412 0.929 . S
C2420 C2421 1.377 . S
C2420 C2422 1.384 . S
C2421 C2420 1.377 . S
C2421 C2427 1.390 . S
C2422 H2413 0.930 . S
C2422 C2420 1.384 . S
C2422 C2423 1.372 . S
C2423 C2422 1.372 . S
C2423 C2424 1.400 . S
C2423 C2428 1.490 . S
C2424 H2414 0.930 1_655 S
C2424 C2423 1.400 . S
C2424 C2427 1.386 . S
H2425 C2441 0.930 . S
H2426 C2442 0.931 . S
C2427 H2415 0.929 1_655 S
C2427 C2421 1.390 . S
C2427 C2424 1.386 . S
C2428 C2423 1.490 . S
C2428 C2430 1.395 . S
C2428 C2431 1.403 1_655 S
H2429 C2435 0.930 . S
C2430 H2416 0.930 . S
C2430 C2428 1.395 . S
C2430 C2433 1.403 . S
C2431 C2428 1.403 1_455 S
C2431 C2432 1.524 . S
C2431 C2435 1.400 . S
C2432 H2417 0.960 . S
C2432 H2418 0.960 . S
C2432 H2419 0.960 . S
C2432 C2431 1.524 . S
C2433 C2430 1.403 . S
C2433 C2434 1.392 . S
C2433 C2437 1.495 . S
C2434 C2433 1.392 . S
C2434 C2435 1.385 1_655 S
C2434 C2436 1.478 . S
C2435 H2429 0.930 . S
C2435 C2431 1.400 . S
C2435 C2434 1.385 1_455 S
C2436 C2434 1.478 . S
C2436 C2438 1.381 . S
C2436 C2442 1.383 . S
C2437 C2433 1.495 . S
C2437 H2443 0.959 . S
C2437 H2444 0.961 . S
C2437 H2445 0.960 . S
C2438 C2436 1.381 . S
C2438 C2439 1.394 . S
C2438 H2446 0.930 . S
C2439 C2438 1.394 . S
C2439 C2440 1.383 . S
C2439 H2447 0.929 . S
C2440 C2439 1.383 . S
C2440 C2441 1.377 . S
C2441 H2425 0.930 . S
C2441 C2440 1.377 . S
C2441 C2442 1.379 . S
C2442 H2426 0.931 . S
C2442 C2436 1.383 . S
C2442 C2441 1.379 . S
H2443 C2437 0.959 . S
H2444 C2437 0.961 . S
H2445 C2437 0.960 . S
H2446 C2438 0.930 . S
H2447 C2439 0.929 . S
H2448 C2456 0.929 . S
H2449 C2458 0.930 . S
H2450 C2460 0.930 . S
H2451 C2463 0.929 . S
H2452 C2466 0.930 . S
H2453 C2468 0.960 . S
H2454 C2468 0.960 . S
H2455 C2468 0.960 . S
C2456 H2448 0.929 . S
C2456 C2457 1.377 . S
C2456 C2458 1.384 . S
C2457 C2456 1.377 . S
C2457 C2463 1.390 . S
C2458 H2449 0.930 . S
C2458 C2456 1.384 . S
C2458 C2459 1.372 . S
C2459 C2458 1.372 . S
C2459 C2460 1.400 . S
C2459 C2464 1.490 . S
C2460 H2450 0.930 . S
C2460 C2459 1.400 . S
C2460 C2463 1.386 . S
H2461 C2477 0.930 . S
H2462 C2478 0.931 . S
C2463 H2451 0.929 . S
C2463 C2457 1.390 . S
C2463 C2460 1.386 . S
C2464 C2459 1.490 . S
C2464 C2466 1.395 . S
C2464 C2467 1.403 . S
H2465 C2471 0.930 . S
C2466 H2452 0.930 . S
C2466 C2464 1.395 . S
C2466 C2469 1.403 . S
C2467 C2464 1.403 . S
C2467 C2468 1.524 . S
C2467 C2471 1.400 . S
C2468 H2453 0.960 . S
C2468 H2454 0.960 . S
C2468 H2455 0.960 . S
C2468 C2467 1.524 . S
C2469 C2466 1.403 . S
C2469 C2470 1.392 . S
C2469 C2473 1.495 . S
C2470 C2469 1.392 . S
C2470 C2471 1.385 . S
C2470 C2472 1.478 . S
C2471 H2465 0.930 . S
C2471 C2467 1.400 . S
C2471 C2470 1.385 . S
C2472 C2470 1.478 . S
C2472 C2474 1.381 . S
C2472 C2478 1.383 . S
C2473 C2469 1.495 . S
C2473 H2479 0.959 . S
C2473 H2480 0.961 . S
C2473 H2481 0.960 . S
C2474 C2472 1.381 . S
C2474 C2475 1.394 . S
C2474 H2482 0.930 . S
C2475 C2474 1.394 . S
C2475 C2476 1.383 . S
C2475 H2483 0.929 . S
C2476 C2475 1.383 . S
C2476 C2477 1.377 . S
C2477 H2461 0.930 . S
C2477 C2476 1.377 . S
C2477 C2478 1.379 . S
C2478 H2462 0.931 . S
C2478 C2472 1.383 . S
C2478 C2477 1.379 . S
H2479 C2473 0.959 . S
H2480 C2473 0.961 . S
H2481 C2473 0.960 . S
H2482 C2474 0.930 . S
H2483 C2475 0.929 . S
H2484 C2492 0.929 . S
H2485 C2494 0.930 . S
H2486 C2496 0.930 . S
H2487 C2499 0.929 . S
H2488 C2502 0.930 . S
H2489 C2504 0.960 . S
H2490 C2504 0.960 . S
H2491 C2504 0.960 . S
C2492 H2484 0.929 . S
C2492 C2493 1.377 . S
C2492 C2494 1.384 . S
C2493 C2492 1.377 . S
C2493 C2499 1.390 . S
C2494 H2485 0.930 . S
C2494 C2492 1.384 . S
C2494 C2495 1.372 . S
C2495 C2494 1.372 . S
C2495 C2496 1.400 . S
C2495 C2500 1.490 . S
C2496 H2486 0.930 . S
C2496 C2495 1.400 . S
C2496 C2499 1.386 . S
H2497 C2513 0.930 . S
H2498 C2514 0.931 . S
C2499 H2487 0.929 . S
C2499 C2493 1.390 . S
C2499 C2496 1.386 . S
C2500 C2495 1.490 . S
C2500 C2502 1.395 . S
C2500 C2503 1.403 . S
H2501 C2507 0.930 . S
C2502 H2488 0.930 . S
C2502 C2500 1.395 . S
C2502 C2505 1.403 . S
C2503 C2500 1.403 . S
C2503 C2504 1.524 . S
C2503 C2507 1.400 . S
C2504 H2489 0.960 . S
C2504 H2490 0.960 . S
C2504 H2491 0.960 . S
C2504 C2503 1.524 . S
C2505 C2502 1.403 . S
C2505 C2506 1.392 . S
C2505 C2509 1.495 . S
C2506 C2505 1.392 . S
C2506 C2507 1.385 . S
C2506 C2508 1.478 . S
C2507 H2501 0.930 . S
C2507 C2503 1.400 . S
C2507 C2506 1.385 . S
C2508 C2506 1.478 . S
C2508 C2510 1.381 . S
C2508 C2514 1.383 . S
C2509 C2505 1.495 . S
C2509 H2515 0.959 . S
C2509 H2516 0.961 . S
C2509 H2517 0.960 . S
C2510 C2508 1.381 . S
C2510 C2511 1.394 1_545 S
C2510 H2518 0.930 1_545 S
C2511 C2510 1.394 1_565 S
C2511 C2512 1.383 1_565 S
C2511 H2519 0.929 . S
C2512 C2511 1.383 1_545 S
C2512 C2513 1.377 . S
C2513 H2497 0.930 . S
C2513 C2512 1.377 . S
C2513 C2514 1.379 . S
C2514 H2498 0.931 . S
C2514 C2508 1.383 . S
C2514 C2513 1.379 . S
H2515 C2509 0.959 . S
H2516 C2509 0.961 . S
H2517 C2509 0.960 . S
H2518 C2510 0.930 1_565 S
H2519 C2511 0.929 . S
H2520 C2528 0.929 . S
H2521 C2530 0.930 . S
H2522 C2532 0.930 . S
H2523 C2535 0.929 . S
H2524 C2538 0.930 . S
H2525 C2540 0.960 . S
H2526 C2540 0.960 . S
H2527 C2540 0.960 . S
C2528 H2520 0.929 . S
C2528 C2529 1.377 . S
C2528 C2530 1.384 . S
C2529 C2528 1.377 . S
C2529 C2535 1.390 . S
C2530 H2521 0.930 . S
C2530 C2528 1.384 . S
C2530 C2531 1.372 . S
C2531 C2530 1.372 . S
C2531 C2532 1.400 . S
C2531 C2536 1.490 . S
C2532 H2522 0.930 . S
C2532 C2531 1.400 . S
C2532 C2535 1.386 . S
H2533 C2549 0.930 . S
H2534 C2550 0.931 . S
C2535 H2523 0.929 . S
C2535 C2529 1.390 . S
C2535 C2532 1.386 . S
C2536 C2531 1.490 . S
C2536 C2538 1.395 . S
C2536 C2539 1.403 . S
H2537 C2543 0.930 . S
C2538 H2524 0.930 . S
C2538 C2536 1.395 . S
C2538 C2541 1.403 . S
C2539 C2536 1.403 . S
C2539 C2540 1.524 . S
C2539 C2543 1.400 . S
C2540 H2525 0.960 . S
C2540 H2526 0.960 . S
C2540 H2527 0.960 . S
C2540 C2539 1.524 . S
C2541 C2538 1.403 . S
C2541 C2542 1.392 . S
C2541 C2545 1.495 . S
C2542 C2541 1.392 . S
C2542 C2543 1.385 . S
C2542 C2544 1.478 . S
C2543 H2537 0.930 . S
C2543 C2539 1.400 . S
C2543 C2542 1.385 . S
C2544 C2542 1.478 . S
C2544 C2546 1.381 . S
C2544 C2550 1.383 . S
C2545 C2541 1.495 . S
C2545 H2551 0.959 . S
C2545 H2552 0.961 . S
C2545 H2553 0.960 . S
C2546 C2544 1.381 . S
C2546 C2547 1.394 . S
C2546 H2554 0.930 . S
C2547 C2546 1.394 . S
C2547 C2548 1.383 . S
C2547 H2555 0.929 . S
C2548 C2547 1.383 . S
C2548 C2549 1.377 . S
C2549 H2533 0.930 . S
C2549 C2548 1.377 . S
C2549 C2550 1.379 . S
C2550 H2534 0.931 . S
C2550 C2544 1.383 . S
C2550 C2549 1.379 . S
H2551 C2545 0.959 . S
H2552 C2545 0.961 . S
H2553 C2545 0.960 . S
H2554 C2546 0.930 . S
H2555 C2547 0.929 . S
H2556 C2564 0.929 . S
H2557 C2566 0.930 . S
H2558 C2568 0.930 . S
H2559 C2571 0.929 . S
H2560 C2574 0.930 . S
H2561 C2576 0.960 . S
H2562 C2576 0.960 . S
H2563 C2576 0.960 . S
C2564 H2556 0.929 . S
C2564 C2565 1.377 . S
C2564 C2566 1.384 . S
C2565 C2564 1.377 . S
C2565 C2571 1.390 . S
C2566 H2557 0.930 . S
C2566 C2564 1.384 . S
C2566 C2567 1.372 . S
C2567 C2566 1.372 . S
C2567 C2568 1.400 . S
C2567 C2572 1.490 . S
C2568 H2558 0.930 . S
C2568 C2567 1.400 . S
C2568 C2571 1.386 . S
H2569 C2585 0.930 . S
H2570 C2586 0.931 . S
C2571 H2559 0.929 . S
C2571 C2565 1.390 . S
C2571 C2568 1.386 . S
C2572 C2567 1.490 . S
C2572 C2574 1.395 . S
C2572 C2575 1.403 . S
H2573 C2579 0.930 . S
C2574 H2560 0.930 . S
C2574 C2572 1.395 . S
C2574 C2577 1.403 . S
C2575 C2572 1.403 . S
C2575 C2576 1.524 . S
C2575 C2579 1.400 . S
C2576 H2561 0.960 . S
C2576 H2562 0.960 . S
C2576 H2563 0.960 . S
C2576 C2575 1.524 . S
C2577 C2574 1.403 . S
C2577 C2578 1.392 . S
C2577 C2581 1.495 . S
C2578 C2577 1.392 . S
C2578 C2579 1.385 . S
C2578 C2580 1.478 . S
C2579 H2573 0.930 . S
C2579 C2575 1.400 . S
C2579 C2578 1.385 . S
C2580 C2578 1.478 . S
C2580 C2582 1.381 . S
C2580 C2586 1.383 . S
C2581 C2577 1.495 . S
C2581 H2587 0.959 . S
C2581 H2588 0.961 . S
C2581 H2589 0.960 . S
C2582 C2580 1.381 . S
C2582 C2583 1.394 . S
C2582 H2590 0.930 . S
C2583 C2582 1.394 . S
C2583 C2584 1.383 . S
C2583 H2591 0.929 . S
C2584 C2583 1.383 . S
C2584 C2585 1.377 . S
C2585 H2569 0.930 . S
C2585 C2584 1.377 . S
C2585 C2586 1.379 . S
C2586 H2570 0.931 . S
C2586 C2580 1.383 . S
C2586 C2585 1.379 . S
H2587 C2581 0.959 . S
H2588 C2581 0.961 . S
H2589 C2581 0.960 . S
H2590 C2582 0.930 . S
H2591 C2583 0.929 . S
H2592 C2600 0.929 . S
H2593 C2602 0.930 . S
H2594 C2604 0.930 . S
H2595 C2607 0.929 . S
H2596 C2610 0.930 . S
H2597 C2612 0.960 . S
H2598 C2612 0.960 . S
H2599 C2612 0.960 . S
C2600 H2592 0.929 . S
C2600 C2601 1.377 . S
C2600 C2602 1.384 . S
C2601 C2600 1.377 . S
C2601 C2607 1.390 . S
C2602 H2593 0.930 . S
C2602 C2600 1.384 . S
C2602 C2603 1.372 . S
C2603 C2602 1.372 . S
C2603 C2604 1.400 . S
C2603 C2608 1.490 . S
C2604 H2594 0.930 . S
C2604 C2603 1.400 . S
C2604 C2607 1.386 . S
H2605 C2621 0.930 . S
H2606 C2622 0.931 . S
C2607 H2595 0.929 . S
C2607 C2601 1.390 . S
C2607 C2604 1.386 . S
C2608 C2603 1.490 . S
C2608 C2610 1.395 . S
C2608 C2611 1.403 . S
H2609 C2615 0.930 . S
C2610 H2596 0.930 . S
C2610 C2608 1.395 . S
C2610 C2613 1.403 . S
C2611 C2608 1.403 . S
C2611 C2612 1.524 . S
C2611 C2615 1.400 . S
C2612 H2597 0.960 . S
C2612 H2598 0.960 . S
C2612 H2599 0.960 . S
C2612 C2611 1.524 . S
C2613 C2610 1.403 . S
C2613 C2614 1.392 . S
C2613 C2617 1.495 . S
C2614 C2613 1.392 . S
C2614 C2615 1.385 . S
C2614 C2616 1.478 . S
C2615 H2609 0.930 . S
C2615 C2611 1.400 . S
C2615 C2614 1.385 . S
C2616 C2614 1.478 . S
C2616 C2618 1.381 . S
C2616 C2622 1.383 . S
C2617 C2613 1.495 . S
C2617 H2623 0.959 . S
C2617 H2624 0.961 . S
C2617 H2625 0.960 . S
C2618 C2616 1.381 . S
C2618 C2619 1.394 . S
C2618 H2626 0.930 . S
C2619 C2618 1.394 . S
C2619 C2620 1.383 . S
C2619 H2627 0.929 . S
C2620 C2619 1.383 . S
C2620 C2621 1.377 . S
C2621 H2605 0.930 . S
C2621 C2620 1.377 . S
C2621 C2622 1.379 . S
C2622 H2606 0.931 . S
C2622 C2616 1.383 . S
C2622 C2621 1.379 . S
H2623 C2617 0.959 . S
H2624 C2617 0.961 . S
H2625 C2617 0.960 . S
H2626 C2618 0.930 . S
H2627 C2619 0.929 . S
H2628 C2636 0.929 . S
H2629 C2638 0.930 . S
H2630 C2640 0.930 . S
H2631 C2643 0.929 . S
H2632 C2646 0.930 . S
H2633 C2648 0.960 . S
H2634 C2648 0.960 . S
H2635 C2648 0.960 . S
C2636 H2628 0.929 . S
C2636 C2637 1.377 . S
C2636 C2638 1.384 . S
C2637 C2636 1.377 . S
C2637 C2643 1.390 . S
C2638 H2629 0.930 . S
C2638 C2636 1.384 . S
C2638 C2639 1.372 . S
C2639 C2638 1.372 . S
C2639 C2640 1.400 . S
C2639 C2644 1.490 . S
C2640 H2630 0.930 . S
C2640 C2639 1.400 . S
C2640 C2643 1.386 . S
H2641 C2657 0.930 . S
H2642 C2658 0.931 . S
C2643 H2631 0.929 . S
C2643 C2637 1.390 . S
C2643 C2640 1.386 . S
C2644 C2639 1.490 . S
C2644 C2646 1.395 . S
C2644 C2647 1.403 . S
H2645 C2651 0.930 . S
C2646 H2632 0.930 . S
C2646 C2644 1.395 . S
C2646 C2649 1.403 . S
C2647 C2644 1.403 . S
C2647 C2648 1.524 . S
C2647 C2651 1.400 . S
C2648 H2633 0.960 . S
C2648 H2634 0.960 . S
C2648 H2635 0.960 . S
C2648 C2647 1.524 . S
C2649 C2646 1.403 . S
C2649 C2650 1.392 . S
C2649 C2653 1.495 . S
C2650 C2649 1.392 . S
C2650 C2651 1.385 . S
C2650 C2652 1.478 . S
C2651 H2645 0.930 . S
C2651 C2647 1.400 . S
C2651 C2650 1.385 . S
C2652 C2650 1.478 . S
C2652 C2654 1.381 . S
C2652 C2658 1.383 . S
C2653 C2649 1.495 . S
C2653 H2659 0.959 . S
C2653 H2660 0.961 . S
C2653 H2661 0.960 . S
C2654 C2652 1.381 . S
C2654 C2655 1.394 . S
C2654 H2662 0.930 . S
C2655 C2654 1.394 . S
C2655 C2656 1.383 . S
C2655 H2663 0.929 . S
C2656 C2655 1.383 . S
C2656 C2657 1.377 . S
C2657 H2641 0.930 . S
C2657 C2656 1.377 . S
C2657 C2658 1.379 . S
C2658 H2642 0.931 . S
C2658 C2652 1.383 . S
C2658 C2657 1.379 . S
H2659 C2653 0.959 . S
H2660 C2653 0.961 . S
H2661 C2653 0.960 . S
H2662 C2654 0.930 . S
H2663 C2655 0.929 . S
H2664 C2672 0.929 . S
H2665 C2674 0.930 . S
H2666 C2676 0.930 . S
H2667 C2679 0.929 . S
H2668 C2682 0.930 . S
H2669 C2684 0.960 . S
H2670 C2684 0.960 . S
H2671 C2684 0.960 . S
C2672 H2664 0.929 . S
C2672 C2673 1.377 . S
C2672 C2674 1.384 . S
C2673 C2672 1.377 . S
C2673 C2679 1.390 . S
C2674 H2665 0.930 . S
C2674 C2672 1.384 . S
C2674 C2675 1.372 . S
C2675 C2674 1.372 . S
C2675 C2676 1.400 . S
C2675 C2680 1.490 . S
C2676 H2666 0.930 . S
C2676 C2675 1.400 . S
C2676 C2679 1.386 . S
H2677 C2693 0.930 . S
H2678 C2694 0.931 . S
C2679 H2667 0.929 . S
C2679 C2673 1.390 . S
C2679 C2676 1.386 . S
C2680 C2675 1.490 . S
C2680 C2682 1.395 . S
C2680 C2683 1.403 . S
H2681 C2687 0.930 . S
C2682 H2668 0.930 . S
C2682 C2680 1.395 . S
C2682 C2685 1.403 . S
C2683 C2680 1.403 . S
C2683 C2684 1.524 . S
C2683 C2687 1.400 . S
C2684 H2669 0.960 . S
C2684 H2670 0.960 . S
C2684 H2671 0.960 . S
C2684 C2683 1.524 . S
C2685 C2682 1.403 . S
C2685 C2686 1.392 . S
C2685 C2689 1.495 . S
C2686 C2685 1.392 . S
C2686 C2687 1.385 . S
C2686 C2688 1.478 . S
C2687 H2681 0.930 . S
C2687 C2683 1.400 . S
C2687 C2686 1.385 . S
C2688 C2686 1.478 . S
C2688 C2690 1.381 . S
C2688 C2694 1.383 . S
C2689 C2685 1.495 . S
C2689 H2695 0.959 . S
C2689 H2696 0.961 . S
C2689 H2697 0.960 . S
C2690 C2688 1.381 . S
C2690 C2691 1.394 . S
C2690 H2698 0.930 . S
C2691 C2690 1.394 . S
C2691 C2692 1.383 . S
C2691 H2699 0.929 . S
C2692 C2691 1.383 . S
C2692 C2693 1.377 . S
C2693 H2677 0.930 . S
C2693 C2692 1.377 . S
C2693 C2694 1.379 . S
C2694 H2678 0.931 . S
C2694 C2688 1.383 . S
C2694 C2693 1.379 . S
H2695 C2689 0.959 . S
H2696 C2689 0.961 . S
H2697 C2689 0.960 . S
H2698 C2690 0.930 . S
H2699 C2691 0.929 . S
H2700 C2708 0.929 . S
H2701 C2710 0.930 . S
H2702 C2712 0.930 . S
H2703 C2715 0.929 . S
H2704 C2718 0.930 . S
H2705 C2720 0.960 . S
H2706 C2720 0.960 . S
H2707 C2720 0.960 . S
C2708 H2700 0.929 . S
C2708 C2709 1.377 . S
C2708 C2710 1.384 . S
C2709 C2708 1.377 . S
C2709 C2715 1.390 . S
C2710 H2701 0.930 . S
C2710 C2708 1.384 . S
C2710 C2711 1.372 . S
C2711 C2710 1.372 . S
C2711 C2712 1.400 . S
C2711 C2716 1.490 . S
C2712 H2702 0.930 . S
C2712 C2711 1.400 . S
C2712 C2715 1.386 . S
H2713 C2729 0.930 . S
H2714 C2730 0.931 . S
C2715 H2703 0.929 . S
C2715 C2709 1.390 . S
C2715 C2712 1.386 . S
C2716 C2711 1.490 . S
C2716 C2718 1.395 . S
C2716 C2719 1.403 . S
H2717 C2723 0.930 . S
C2718 H2704 0.930 . S
C2718 C2716 1.395 . S
C2718 C2721 1.403 . S
C2719 C2716 1.403 . S
C2719 C2720 1.524 . S
C2719 C2723 1.400 . S
C2720 H2705 0.960 . S
C2720 H2706 0.960 . S
C2720 H2707 0.960 . S
C2720 C2719 1.524 . S
C2721 C2718 1.403 . S
C2721 C2722 1.392 . S
C2721 C2725 1.495 . S
C2722 C2721 1.392 . S
C2722 C2723 1.385 . S
C2722 C2724 1.478 . S
C2723 H2717 0.930 . S
C2723 C2719 1.400 . S
C2723 C2722 1.385 . S
C2724 C2722 1.478 . S
C2724 C2726 1.381 . S
C2724 C2730 1.383 . S
C2725 C2721 1.495 . S
C2725 H2731 0.959 . S
C2725 H2732 0.961 . S
C2725 H2733 0.960 . S
C2726 C2724 1.381 . S
C2726 C2727 1.394 . S
C2726 H2734 0.930 . S
C2727 C2726 1.394 . S
C2727 C2728 1.383 . S
C2727 H2735 0.929 . S
C2728 C2727 1.383 . S
C2728 C2729 1.377 . S
C2729 H2713 0.930 . S
C2729 C2728 1.377 . S
C2729 C2730 1.379 . S
C2730 H2714 0.931 . S
C2730 C2724 1.383 . S
C2730 C2729 1.379 . S
H2731 C2725 0.959 . S
H2732 C2725 0.961 . S
H2733 C2725 0.960 . S
H2734 C2726 0.930 . S
H2735 C2727 0.929 . S
H2736 C2744 0.929 . S
H2737 C2746 0.930 . S
H2738 C2748 0.930 . S
H2739 C2751 0.929 . S
H2740 C2754 0.930 . S
H2741 C2756 0.960 . S
H2742 C2756 0.960 . S
H2743 C2756 0.960 . S
C2744 H2736 0.929 . S
C2744 C2745 1.377 . S
C2744 C2746 1.384 . S
C2745 C2744 1.377 . S
C2745 C2751 1.390 . S
C2746 H2737 0.930 . S
C2746 C2744 1.384 . S
C2746 C2747 1.372 . S
C2747 C2746 1.372 . S
C2747 C2748 1.400 . S
C2747 C2752 1.490 . S
C2748 H2738 0.930 . S
C2748 C2747 1.400 . S
C2748 C2751 1.386 . S
H2749 C2765 0.930 . S
H2750 C2766 0.931 . S
C2751 H2739 0.929 . S
C2751 C2745 1.390 . S
C2751 C2748 1.386 . S
C2752 C2747 1.490 . S
C2752 C2754 1.395 . S
C2752 C2755 1.403 . S
H2753 C2759 0.930 . S
C2754 H2740 0.930 . S
C2754 C2752 1.395 . S
C2754 C2757 1.403 . S
C2755 C2752 1.403 . S
C2755 C2756 1.524 . S
C2755 C2759 1.400 . S
C2756 H2741 0.960 . S
C2756 H2742 0.960 . S
C2756 H2743 0.960 . S
C2756 C2755 1.524 . S
C2757 C2754 1.403 . S
C2757 C2758 1.392 . S
C2757 C2761 1.495 . S
C2758 C2757 1.392 . S
C2758 C2759 1.385 . S
C2758 C2760 1.478 . S
C2759 H2753 0.930 . S
C2759 C2755 1.400 . S
C2759 C2758 1.385 . S
C2760 C2758 1.478 . S
C2760 C2762 1.381 . S
C2760 C2766 1.383 . S
C2761 C2757 1.495 . S
C2761 H2767 0.959 . S
C2761 H2768 0.961 . S
C2761 H2769 0.960 . S
C2762 C2760 1.381 . S
C2762 C2763 1.394 . S
C2762 H2770 0.930 . S
C2763 C2762 1.394 . S
C2763 C2764 1.383 . S
C2763 H2771 0.929 . S
C2764 C2763 1.383 . S
C2764 C2765 1.377 . S
C2765 H2749 0.930 . S
C2765 C2764 1.377 . S
C2765 C2766 1.379 . S
C2766 H2750 0.931 . S
C2766 C2760 1.383 . S
C2766 C2765 1.379 . S
H2767 C2761 0.959 . S
H2768 C2761 0.961 . S
H2769 C2761 0.960 . S
H2770 C2762 0.930 . S
H2771 C2763 0.929 . S
H2772 C2780 0.929 . S
H2773 C2782 0.930 . S
H2774 C2784 0.930 . S
H2775 C2787 0.929 . S
H2776 C2790 0.930 . S
H2777 C2792 0.960 . S
H2778 C2792 0.960 . S
H2779 C2792 0.960 . S
C2780 H2772 0.929 . S
C2780 C2781 1.377 . S
C2780 C2782 1.384 . S
C2781 C2780 1.377 . S
C2781 C2787 1.390 . S
C2782 H2773 0.930 . S
C2782 C2780 1.384 . S
C2782 C2783 1.372 . S
C2783 C2782 1.372 . S
C2783 C2784 1.400 . S
C2783 C2788 1.490 . S
C2784 H2774 0.930 . S
C2784 C2783 1.400 . S
C2784 C2787 1.386 . S
H2785 C2801 0.930 . S
H2786 C2802 0.931 . S
C2787 H2775 0.929 . S
C2787 C2781 1.390 . S
C2787 C2784 1.386 . S
C2788 C2783 1.490 . S
C2788 C2790 1.395 . S
C2788 C2791 1.403 . S
H2789 C2795 0.930 . S
C2790 H2776 0.930 . S
C2790 C2788 1.395 . S
C2790 C2793 1.403 . S
C2791 C2788 1.403 . S
C2791 C2792 1.524 . S
C2791 C2795 1.400 . S
C2792 H2777 0.960 . S
C2792 H2778 0.960 . S
C2792 H2779 0.960 . S
C2792 C2791 1.524 . S
C2793 C2790 1.403 . S
C2793 C2794 1.392 . S
C2793 C2797 1.495 . S
C2794 C2793 1.392 . S
C2794 C2795 1.385 . S
C2794 C2796 1.478 . S
C2795 H2789 0.930 . S
C2795 C2791 1.400 . S
C2795 C2794 1.385 . S
C2796 C2794 1.478 . S
C2796 C2798 1.381 . S
C2796 C2802 1.383 . S
C2797 C2793 1.495 . S
C2797 H2803 0.959 . S
C2797 H2804 0.961 . S
C2797 H2805 0.960 . S
C2798 C2796 1.381 . S
C2798 C2799 1.394 . S
C2798 H2806 0.930 . S
C2799 C2798 1.394 . S
C2799 C2800 1.383 . S
C2799 H2807 0.929 . S
C2800 C2799 1.383 . S
C2800 C2801 1.377 . S
C2801 H2785 0.930 . S
C2801 C2800 1.377 . S
C2801 C2802 1.379 . S
C2802 H2786 0.931 . S
C2802 C2796 1.383 . S
C2802 C2801 1.379 . S
H2803 C2797 0.959 . S
H2804 C2797 0.961 . S
H2805 C2797 0.960 . S
H2806 C2798 0.930 . S
H2807 C2799 0.929 . S
H2808 C2816 0.929 . S
H2809 C2818 0.930 . S
H2810 C2820 0.930 . S
H2811 C2823 0.929 . S
H2812 C2826 0.930 . S
H2813 C2828 0.960 . S
H2814 C2828 0.960 . S
H2815 C2828 0.960 . S
C2816 H2808 0.929 . S
C2816 C2817 1.377 . S
C2816 C2818 1.384 . S
C2817 C2816 1.377 . S
C2817 C2823 1.390 . S
C2818 H2809 0.930 . S
C2818 C2816 1.384 . S
C2818 C2819 1.372 . S
C2819 C2818 1.372 . S
C2819 C2820 1.400 . S
C2819 C2824 1.490 . S
C2820 H2810 0.930 . S
C2820 C2819 1.400 . S
C2820 C2823 1.386 . S
H2821 C2837 0.930 . S
H2822 C2838 0.931 . S
C2823 H2811 0.929 . S
C2823 C2817 1.390 . S
C2823 C2820 1.386 . S
C2824 C2819 1.490 . S
C2824 C2826 1.395 . S
C2824 C2827 1.403 . S
H2825 C2831 0.930 . S
C2826 H2812 0.930 . S
C2826 C2824 1.395 . S
C2826 C2829 1.403 . S
C2827 C2824 1.403 . S
C2827 C2828 1.524 . S
C2827 C2831 1.400 . S
C2828 H2813 0.960 . S
C2828 H2814 0.960 . S
C2828 H2815 0.960 . S
C2828 C2827 1.524 . S
C2829 C2826 1.403 . S
C2829 C2830 1.392 . S
C2829 C2833 1.495 . S
C2830 C2829 1.392 . S
C2830 C2831 1.385 . S
C2830 C2832 1.478 . S
C2831 H2825 0.930 . S
C2831 C2827 1.400 . S
C2831 C2830 1.385 . S
C2832 C2830 1.478 . S
C2832 C2834 1.381 . S
C2832 C2838 1.383 . S
C2833 C2829 1.495 . S
C2833 H2839 0.959 . S
C2833 H2840 0.961 . S
C2833 H2841 0.960 . S
C2834 C2832 1.381 . S
C2834 C2835 1.394 . S
C2834 H2842 0.930 . S
C2835 C2834 1.394 . S
C2835 C2836 1.383 . S
C2835 H2843 0.929 . S
C2836 C2835 1.383 . S
C2836 C2837 1.377 . S
C2837 H2821 0.930 . S
C2837 C2836 1.377 . S
C2837 C2838 1.379 . S
C2838 H2822 0.931 . S
C2838 C2832 1.383 . S
C2838 C2837 1.379 . S
H2839 C2833 0.959 . S
H2840 C2833 0.961 . S
H2841 C2833 0.960 . S
H2842 C2834 0.930 . S
H2843 C2835 0.929 . S
H2844 C2852 0.929 . S
H2845 C2854 0.930 . S
H2846 C2856 0.930 . S
H2847 C2859 0.929 . S
H2848 C2862 0.930 . S
H2849 C2864 0.960 . S
H2850 C2864 0.960 . S
H2851 C2864 0.960 . S
C2852 H2844 0.929 . S
C2852 C2853 1.377 . S
C2852 C2854 1.384 . S
C2853 C2852 1.377 . S
C2853 C2859 1.390 . S
C2854 H2845 0.930 . S
C2854 C2852 1.384 . S
C2854 C2855 1.372 . S
C2855 C2854 1.372 . S
C2855 C2856 1.400 . S
C2855 C2860 1.490 . S
C2856 H2846 0.930 . S
C2856 C2855 1.400 . S
C2856 C2859 1.386 . S
H2857 C2873 0.930 . S
H2858 C2874 0.931 . S
C2859 H2847 0.929 . S
C2859 C2853 1.390 . S
C2859 C2856 1.386 . S
C2860 C2855 1.490 . S
C2860 C2862 1.395 . S
C2860 C2863 1.403 . S
H2861 C2867 0.930 . S
C2862 H2848 0.930 . S
C2862 C2860 1.395 . S
C2862 C2865 1.403 . S
C2863 C2860 1.403 . S
C2863 C2864 1.524 . S
C2863 C2867 1.400 . S
C2864 H2849 0.960 . S
C2864 H2850 0.960 . S
C2864 H2851 0.960 . S
C2864 C2863 1.524 . S
C2865 C2862 1.403 . S
C2865 C2866 1.392 . S
C2865 C2869 1.495 . S
C2866 C2865 1.392 . S
C2866 C2867 1.385 . S
C2866 C2868 1.478 . S
C2867 H2861 0.930 . S
C2867 C2863 1.400 . S
C2867 C2866 1.385 . S
C2868 C2866 1.478 . S
C2868 C2870 1.381 . S
C2868 C2874 1.383 . S
C2869 C2865 1.495 . S
C2869 H2875 0.959 . S
C2869 H2876 0.961 . S
C2869 H2877 0.960 . S
C2870 C2868 1.381 . S
C2870 C2871 1.394 . S
C2870 H2878 0.930 . S
C2871 C2870 1.394 . S
C2871 C2872 1.383 . S
C2871 H2879 0.929 . S
C2872 C2871 1.383 . S
C2872 C2873 1.377 . S
C2873 H2857 0.930 . S
C2873 C2872 1.377 . S
C2873 C2874 1.379 . S
C2874 H2858 0.931 . S
C2874 C2868 1.383 . S
C2874 C2873 1.379 . S
H2875 C2869 0.959 . S
H2876 C2869 0.961 . S
H2877 C2869 0.960 . S
H2878 C2870 0.930 . S
H2879 C2871 0.929 . S
H2880 C2888 0.929 . S
H2881 C2890 0.930 . S
H2882 C2892 0.930 . S
H2883 C2895 0.929 . S
H2884 C2898 0.930 . S
H2885 C2900 0.960 . S
H2886 C2900 0.960 . S
H2887 C2900 0.960 . S
C2888 H2880 0.929 . S
C2888 C2889 1.377 . S
C2888 C2890 1.384 . S
C2889 C2888 1.377 . S
C2889 C2895 1.390 . S
C2890 H2881 0.930 . S
C2890 C2888 1.384 . S
C2890 C2891 1.372 . S
C2891 C2890 1.372 . S
C2891 C2892 1.400 . S
C2891 C2896 1.490 . S
C2892 H2882 0.930 . S
C2892 C2891 1.400 . S
C2892 C2895 1.386 . S
H2893 C2909 0.930 . S
H2894 C2910 0.931 . S
C2895 H2883 0.929 . S
C2895 C2889 1.390 . S
C2895 C2892 1.386 . S
C2896 C2891 1.490 . S
C2896 C2898 1.395 . S
C2896 C2899 1.403 . S
H2897 C2903 0.930 . S
C2898 H2884 0.930 . S
C2898 C2896 1.395 . S
C2898 C2901 1.403 . S
C2899 C2896 1.403 . S
C2899 C2900 1.524 . S
C2899 C2903 1.400 . S
C2900 H2885 0.960 . S
C2900 H2886 0.960 . S
C2900 H2887 0.960 . S
C2900 C2899 1.524 . S
C2901 C2898 1.403 . S
C2901 C2902 1.392 . S
C2901 C2905 1.495 . S
C2902 C2901 1.392 . S
C2902 C2903 1.385 . S
C2902 C2904 1.478 . S
C2903 H2897 0.930 . S
C2903 C2899 1.400 . S
C2903 C2902 1.385 . S
C2904 C2902 1.478 . S
C2904 C2906 1.381 . S
C2904 C2910 1.383 . S
C2905 C2901 1.495 . S
C2905 H2911 0.959 . S
C2905 H2912 0.961 . S
C2905 H2913 0.960 . S
C2906 C2904 1.381 . S
C2906 C2907 1.394 . S
C2906 H2914 0.930 . S
C2907 C2906 1.394 . S
C2907 C2908 1.383 . S
C2907 H2915 0.929 . S
C2908 C2907 1.383 . S
C2908 C2909 1.377 . S
C2909 H2893 0.930 . S
C2909 C2908 1.377 . S
C2909 C2910 1.379 . S
C2910 H2894 0.931 . S
C2910 C2904 1.383 . S
C2910 C2909 1.379 . S
H2911 C2905 0.959 . S
H2912 C2905 0.961 . S
H2913 C2905 0.960 . S
H2914 C2906 0.930 . S
H2915 C2907 0.929 . S
H2916 C2924 0.929 . S
H2917 C2926 0.930 . S
H2918 C2928 0.930 . S
H2919 C2931 0.929 . S
H2920 C2934 0.930 . S
H2921 C2936 0.960 . S
H2922 C2936 0.960 . S
H2923 C2936 0.960 . S
C2924 H2916 0.929 . S
C2924 C2925 1.377 . S
C2924 C2926 1.384 . S
C2925 C2924 1.377 . S
C2925 C2931 1.390 . S
C2926 H2917 0.930 . S
C2926 C2924 1.384 . S
C2926 C2927 1.372 . S
C2927 C2926 1.372 . S
C2927 C2928 1.400 . S
C2927 C2932 1.490 . S
C2928 H2918 0.930 . S
C2928 C2927 1.400 . S
C2928 C2931 1.386 . S
H2929 C2945 0.930 . S
H2930 C2946 0.931 . S
C2931 H2919 0.929 . S
C2931 C2925 1.390 . S
C2931 C2928 1.386 . S
C2932 C2927 1.490 . S
C2932 C2934 1.395 . S
C2932 C2935 1.403 . S
H2933 C2939 0.930 . S
C2934 H2920 0.930 . S
C2934 C2932 1.395 . S
C2934 C2937 1.403 . S
C2935 C2932 1.403 . S
C2935 C2936 1.524 . S
C2935 C2939 1.400 . S
C2936 H2921 0.960 . S
C2936 H2922 0.960 . S
C2936 H2923 0.960 . S
C2936 C2935 1.524 . S
C2937 C2934 1.403 . S
C2937 C2938 1.392 . S
C2937 C2941 1.495 . S
C2938 C2937 1.392 . S
C2938 C2939 1.385 . S
C2938 C2940 1.478 . S
C2939 H2933 0.930 . S
C2939 C2935 1.400 . S
C2939 C2938 1.385 . S
C2940 C2938 1.478 . S
C2940 C2942 1.381 . S
C2940 C2946 1.383 . S
C2941 C2937 1.495 . S
C2941 H2947 0.959 . S
C2941 H2948 0.961 . S
C2941 H2949 0.960 . S
C2942 C2940 1.381 . S
C2942 C2943 1.394 . S
C2942 H2950 0.930 . S
C2943 C2942 1.394 . S
C2943 C2944 1.383 . S
C2943 H2951 0.929 . S
C2944 C2943 1.383 . S
C2944 C2945 1.377 . S
C2945 H2929 0.930 . S
C2945 C2944 1.377 . S
C2945 C2946 1.379 . S
C2946 H2930 0.931 . S
C2946 C2940 1.383 . S
C2946 C2945 1.379 . S
H2947 C2941 0.959 . S
H2948 C2941 0.961 . S
H2949 C2941 0.960 . S
H2950 C2942 0.930 . S
H2951 C2943 0.929 . S
C1017 C469 1.653 . S
C1036 C657 1.610 . S
C1053 C505 1.816 . S
C1072 C697 1.796 . S
C1089 C433 1.729 . S
C1108 C736 1.691 . S
C1125 C397 1.551 . S
C1144 C696 1.527 . S
C1180 C737 1.431 . S
C1161 C325 1.435 . S
C1197 C361 1.351 . S
C1216 C656 1.349 . S
C1252 C667 1.629 . S
C1233 C421 1.657 . S
C1288 C707 1.780 . S
C1269 C349 1.812 . S
C1305 C385 1.726 . S
C1324 C746 1.688 . S
C1341 C493 1.546 . S
C1360 C706 1.535 . S
C1377 C529 1.440 . S
C1396 C747 1.429 . S
C1432 C666 1.345 . S
C1413 C457 1.353 . S
C1468 C777 1.640 . S
C1449 C37 1.653 . S
C1485 C73 1.815 . S
C1504 C817 1.786 . S
C1521 C1 1.734 . S
C1540 C856 1.724 . S
C1557 C613 1.548 . S
C1576 C816 1.498 . S
C1593 C541 1.432 . S
C1612 C857 1.406 . S
C1629 C577 1.355 . S
C1648 C776 1.362 . S
C1665 C637 1.657 . S
C1684 C787 1.606 . S
C1701 C565 1.811 . S
C1720 C827 1.773 . S
C1756 C866 1.727 . S
C1737 C601 1.725 . S
C1773 C61 1.546 . S
C1792 C826 1.539 . S
C1828 C867 1.414 . S
C1809 C97 1.439 . S
C1845 C25 1.353 . S
C1864 C786 1.343 . S
C1900 C897 1.611 . S
C1881 C253 1.650 . S
C1917 C289 1.814 . S
C1936 C937 1.780 . S
C1972 C976 1.713 . S
C1953 C217 1.733 . S
C2008 C936 1.539 . S
C1989 C181 1.552 . S
C2044 C977 1.416 . S
C2025 C109 1.433 . S
C2061 C145 1.351 . S
C2080 C896 1.330 . S
C2097 C205 1.656 . S
C2116 C907 1.601 . S
C2133 C133 1.812 . S
C2152 C947 1.780 . S
C2188 C986 1.708 . S
C2169 C169 1.722 . S
C2205 C277 1.549 . S
C2224 C946 1.519 . S
C2241 C313 1.439 . S
C2260 C987 1.415 . S
C2277 C241 1.355 . S
C2296 C906 1.336 . S
C2313 C571 1.265 . S
C2332 C653 1.265 . S
C2368 C693 1.898 . S
C2349 C607 1.902 . S
C2385 C643 1.579 . S
C2404 C743 1.579 . S
C2421 C247 1.902 . S
C2440 C703 1.904 . S
C2457 C283 1.580 . S
C2476 C733 1.579 . S
C2512 C663 1.261 . S
C2493 C319 1.263 . S
C2529 C139 1.265 . S
C2548 C773 1.264 . S
C2565 C175 1.904 . S
C2584 C813 1.898 . S
C2601 C211 1.579 . S
C2620 C863 1.579 . S
C2637 C463 1.902 . S
C2656 C823 1.900 . S
C2692 C853 1.578 . S
C2673 C499 1.582 . S
C2709 C535 1.264 . S
C2728 C783 1.259 . S
C2745 C355 1.265 . S
C2764 C893 1.258 . S
C2781 C391 1.905 . S
C2800 C933 1.903 . S
C2836 C983 1.578 . S
C2817 C427 1.576 . S
C2853 C31 1.900 . S
C2872 C943 1.893 . S
C2889 C67 1.580 . S
C2908 C973 1.579 . S
C2925 C103 1.264 . S
C2944 C903 1.251 . S
