# Generated by pormake.
# Topology pyr, (3,6)-cn, num edge types: 1
# Building blocks:
#     Node 0, Type 0, BuildingBlock: BETDIP_clean_linker_0, # of connection points: 3
#     Node 1, Type 0, BuildingBlock: BETDIP_clean_linker_0, # of connection points: 3
#     Node 2, Type 0, BuildingBlock: BETDIP_clean_linker_0, # of connection points: 3
#     Node 3, Type 0, BuildingBlock: BETDIP_clean_linker_0, # of connection points: 3
#     Node 4, Type 0, BuildingBlock: BETDIP_clean_linker_0, # of connection points: 3
#     Node 5, Type 0, BuildingBlock: BETDIP_clean_linker_0, # of connection points: 3
#     Node 6, Type 0, BuildingBlock: BETDIP_clean_linker_0, # of connection points: 3
#     Node 7, Type 0, BuildingBlock: BETDIP_clean_linker_0, # of connection points: 3
#     Node 8, Type 1, BuildingBlock: INOVEN_clean_sbu_0, # of connection points: 6
#     Node 9, Type 1, BuildingBlock: INOVEN_clean_sbu_0, # of connection points: 6
#     Node 10, Type 1, BuildingBlock: INOVEN_clean_sbu_0, # of connection points: 6
#     Node 11, Type 1, BuildingBlock: INOVEN_clean_sbu_0, # of connection points: 6
#     Edge 12, Type (0, 1), BuildingBlock: MIFKUJ_clean_linker_0, # of connection points: 2
#     Edge 13, Type (0, 1), BuildingBlock: MIFKUJ_clean_linker_0, # of connection points: 2
#     Edge 14, Type (0, 1), BuildingBlock: MIFKUJ_clean_linker_0, # of connection points: 2
#     Edge 15, Type (0, 1), BuildingBlock: MIFKUJ_clean_linker_0, # of connection points: 2
#     Edge 16, Type (0, 1), BuildingBlock: MIFKUJ_clean_linker_0, # of connection points: 2
#     Edge 17, Type (0, 1), BuildingBlock: MIFKUJ_clean_linker_0, # of connection points: 2
#     Edge 18, Type (0, 1), BuildingBlock: MIFKUJ_clean_linker_0, # of connection points: 2
#     Edge 19, Type (0, 1), BuildingBlock: MIFKUJ_clean_linker_0, # of connection points: 2
#     Edge 20, Type (0, 1), BuildingBlock: MIFKUJ_clean_linker_0, # of connection points: 2
#     Edge 21, Type (0, 1), BuildingBlock: MIFKUJ_clean_linker_0, # of connection points: 2
#     Edge 22, Type (0, 1), BuildingBlock: MIFKUJ_clean_linker_0, # of connection points: 2
#     Edge 23, Type (0, 1), BuildingBlock: MIFKUJ_clean_linker_0, # of connection points: 2
#     Edge 24, Type (0, 1), BuildingBlock: MIFKUJ_clean_linker_0, # of connection points: 2
#     Edge 25, Type (0, 1), BuildingBlock: MIFKUJ_clean_linker_0, # of connection points: 2
#     Edge 26, Type (0, 1), BuildingBlock: MIFKUJ_clean_linker_0, # of connection points: 2
#     Edge 27, Type (0, 1), BuildingBlock: MIFKUJ_clean_linker_0, # of connection points: 2
#     Edge 28, Type (0, 1), BuildingBlock: MIFKUJ_clean_linker_0, # of connection points: 2
#     Edge 29, Type (0, 1), BuildingBlock: MIFKUJ_clean_linker_0, # of connection points: 2
#     Edge 30, Type (0, 1), BuildingBlock: MIFKUJ_clean_linker_0, # of connection points: 2
#     Edge 31, Type (0, 1), BuildingBlock: MIFKUJ_clean_linker_0, # of connection points: 2
#     Edge 32, Type (0, 1), BuildingBlock: MIFKUJ_clean_linker_0, # of connection points: 2
#     Edge 33, Type (0, 1), BuildingBlock: MIFKUJ_clean_linker_0, # of connection points: 2
#     Edge 34, Type (0, 1), BuildingBlock: MIFKUJ_clean_linker_0, # of connection points: 2
#     Edge 35, Type (0, 1), BuildingBlock: MIFKUJ_clean_linker_0, # of connection points: 2
# Relax obj value: 0.098
# Max RMSD: 0.175
# Mean RMSD: 0.138
data_MOF--net-pyr--node1-INOVEN_clean_sbu_0--node2-BETDIP_clean_linker_0--edge1-MIFKUJ_clean_linker_0
_symmetry_space_group_name_H-M    P1
_symmetry_Int_Tables_number       1
_symmetry_cell_setting            triclinic
loop_
_symmetry_equiv_pos_as_xyz
'x, y, z'
_cell_length_a     49.279218
_cell_length_b     51.451972
_cell_length_c     48.372697
_cell_angle_alpha  93.116465
_cell_angle_beta   86.595997
_cell_angle_gamma 104.95835
loop_
_atom_site_label
_atom_site_type_symbol
_atom_site_fract_x
_atom_site_fract_y
_atom_site_fract_z
_atom_type_partial_charge
H0 H 0.28542 0.28615 0.21242 0.0
H1 H 0.34519 0.26734 0.15142 0.0
H2 H 0.31225 0.21351 0.21752 0.0
H3 H 0.31497 0.33183 0.19974 0.0
C4 C 0.3091 0.32596 0.17855 0.0
C5 C 0.29843 0.27308 0.20459 0.0
C6 C 0.29681 0.24914 0.21792 0.0
C7 C 0.316 0.2798 0.18071 0.0
C8 C 0.33219 0.26243 0.17023 0.0
C9 C 0.33119 0.23857 0.18357 0.0
C10 C 0.31346 0.2321 0.20742 0.0
N11 N 0.3158 0.30275 0.16575 0.0
H12 H 0.24193 0.86392 0.65849 0.0
H13 H 0.23643 0.80416 0.59202 0.0
H14 H 0.30175 0.81563 0.6497 0.0
H15 H 0.22326 0.83699 0.56991 0.0
C16 C 0.20851 0.84236 0.58538 0.0
C17 C 0.24992 0.84823 0.64768 0.0
C18 C 0.27338 0.84123 0.65719 0.0
C19 C 0.23693 0.83537 0.62389 0.0
C20 C 0.24675 0.81465 0.61007 0.0
C21 C 0.27018 0.8076 0.61922 0.0
C22 C 0.28347 0.82098 0.64272 0.0
N23 N 0.21439 0.84398 0.61389 0.0
H24 H 0.69279 0.39651 0.83699 0.0
H25 H 0.62275 0.32639 0.831 0.0
H26 H 0.68544 0.33096 0.89091 0.0
H27 H 0.62045 0.34284 0.78674 0.0
C28 C 0.62784 0.36463 0.7883 0.0
C29 C 0.68165 0.37683 0.8441 0.0
C30 C 0.69281 0.36538 0.86537 0.0
C31 C 0.65667 0.3631 0.8311 0.0
C32 C 0.64209 0.33712 0.84036 0.0
C33 C 0.65249 0.32498 0.86192 0.0
C34 C 0.67779 0.33954 0.87395 0.0
N35 N 0.64697 0.3766 0.80957 0.0
H36 H 0.82004 0.64568 0.33992 0.0
H37 H 0.88356 0.72012 0.33078 0.0
H38 H 0.82333 0.71092 0.39994 0.0
H39 H 0.89659 0.70182 0.2919 0.0
C40 C 0.8854 0.6808 0.28941 0.0
C41 C 0.82962 0.66607 0.34734 0.0
C42 C 0.81863 0.67659 0.37158 0.0
C43 C 0.85306 0.68134 0.33253 0.0
C44 C 0.86573 0.70786 0.34213 0.0
C45 C 0.85504 0.71887 0.36647 0.0
C46 C 0.83165 0.70286 0.3811 0.0
N47 N 0.86297 0.66892 0.30832 0.0
H48 H 0.67168 0.78297 0.89143 0.0
H49 H 0.73954 0.77446 0.8346 0.0
H50 H 0.70299 0.84096 0.8285 0.0
H51 H 0.71522 0.72817 0.84172 0.0
C52 C 0.71639 0.73102 0.8641 0.0
C53 C 0.68578 0.79005 0.87382 0.0
C54 C 0.68448 0.81349 0.86079 0.0
C55 C 0.70498 0.77543 0.86397 0.0
C56 C 0.72382 0.78497 0.84163 0.0
C57 C 0.72312 0.8085 0.82872 0.0
C58 C 0.70308 0.8224 0.83805 0.0
N59 N 0.70634 0.75212 0.87775 0.0
H60 H 0.76324 0.17482 0.38888 0.0
H61 H 0.77958 0.24137 0.44834 0.0
H62 H 0.71317 0.23236 0.39225 0.0
H63 H 0.82338 0.23428 0.4459 0.0
C64 C 0.81831 0.21242 0.44485 0.0
C65 C 0.75842 0.19305 0.39764 0.0
C66 C 0.73628 0.20189 0.38771 0.0
C67 C 0.77445 0.20741 0.419 0.0
C68 C 0.76784 0.23048 0.43125 0.0
C69 C 0.74576 0.23954 0.42167 0.0
C70 C 0.73015 0.22527 0.39979 0.0
N71 N 0.79619 0.19733 0.42854 0.0
H72 H 0.32766 0.6541 0.20642 0.0
H73 H 0.39643 0.72533 0.21361 0.0
H74 H 0.33329 0.72044 0.15404 0.0
H75 H 0.39518 0.7088 0.25998 0.0
C76 C 0.39035 0.68704 0.25699 0.0
C77 C 0.33823 0.67419 0.20001 0.0
C78 C 0.32712 0.68548 0.17861 0.0
C79 C 0.363 0.68822 0.21321 0.0
C80 C 0.3772 0.71439 0.20416 0.0
C81 C 0.36657 0.72639 0.18267 0.0
C82 C 0.34158 0.71155 0.17037 0.0
N83 N 0.37318 0.67471 0.23439 0.0
H84 H 0.13201 0.33677 0.70456 0.0
H85 H 0.19644 0.41098 0.69699 0.0
H86 H 0.19479 0.34602 0.63746 0.0
H87 H 0.16978 0.4283 0.72529 0.0
C88 C 0.15594 0.41274 0.73746 0.0
C89 C 0.15025 0.3489 0.69347 0.0
C90 C 0.16199 0.33798 0.66977 0.0
C91 C 0.1621 0.37535 0.70336 0.0
C92 C 0.1864 0.39086 0.68949 0.0
C93 C 0.19814 0.38044 0.66558 0.0
C94 C 0.18572 0.3541 0.65587 0.0
N95 N 0.14942 0.38535 0.72756 0.0
Gd96 Gd 0.01136 0.04091 0.49163 0.0
Gd97 Gd 0.00958 1.01482 0.54716 0.0
C98 C 0.04196 0.07591 0.54466 0.0
C99 C 0.01204 0.07275 0.45189 0.0
C100 C 0.03351 0.0953 0.44015 0.0
C101 C 0.03212 0.10175 0.41264 0.0
C102 C 0.05664 0.10901 0.45542 0.0
C103 C 0.07773 0.1344 0.41504 0.0
C104 C 0.07846 0.12853 0.44304 0.0
C105 C 0.05402 0.12106 0.40016 0.0
C106 C 0.05272 1.01623 0.498 0.0
C107 C 0.97795 0.9801 0.49401 0.0
C108 C 0.00993 0.98321 0.58668 0.0
C109 C 0.98711 0.96379 0.6011 0.0
C110 C 0.95921 0.965 0.59903 0.0
C111 C 0.993 0.94487 0.61799 0.0
C112 C 0.94331 0.9298 0.63232 0.0
C113 C 0.97126 0.92793 0.63344 0.0
C114 C 0.93754 0.94829 0.61458 0.0
C115 C 0.96834 0.03963 0.54166 0.0
O116 O 0.02878 0.07578 0.5216 0.0
O117 O 0.04238 0.05318 0.55592 0.0
O118 O 0.0175 0.04925 0.44801 0.0
O119 O 1.00224 0.07673 0.47705 0.0
O120 O 0.04076 1.01595 0.47489 0.0
O121 O 0.04312 0.03032 0.516 0.0
O122 O 0.9905 0.97997 0.51748 0.0
O123 O 0.97866 1.00284 0.48217 0.0
O124 O 0.00934 1.00838 0.59089 0.0
O125 O 0.01534 0.97709 0.56068 0.0
O126 O 0.97888 0.03779 0.56511 0.0
O127 O 0.97802 0.02601 0.52316 0.0
H128 H 0.01452 0.09119 0.40051 0.0
H129 H 0.05811 0.10424 0.47672 0.0
H130 H 0.0961 0.13867 0.4553 0.0
H131 H 0.05286 0.12461 0.37846 0.0
H132 H 0.95428 0.97947 0.58596 0.0
H133 H 0.01441 0.9435 0.61962 0.0
H134 H 0.9764 0.9136 0.64649 0.0
H135 H 0.91643 0.95063 0.61341 0.0
Gd136 Gd 0.53168 0.0319 0.0337 0.0
Gd137 Gd 0.48156 1.01855 1.00755 0.0
C138 C 0.47998 0.05232 0.06214 0.0
C139 C 0.57644 0.05345 0.06054 0.0
C140 C 0.58379 0.06017 0.08958 0.0
C141 C 0.60285 0.04819 0.10102 0.0
C142 C 0.57266 0.07877 0.10587 0.0
C143 C 0.60086 0.07439 0.14412 0.0
C144 C 0.58118 0.08586 0.13287 0.0
C145 C 0.61119 0.0551 0.12806 0.0
C146 C 0.49933 0.98209 0.04902 0.0
C147 C 0.53393 0.99941 0.9786 0.0
C148 C 0.43642 0.99535 0.98188 0.0
C149 C 0.42861 0.98504 0.95383 0.0
C150 C 0.44252 0.998 0.93022 0.0
C151 C 0.40683 0.96161 0.95073 0.0
C152 C 0.41239 0.9643 0.90065 0.0
C153 C 0.39881 0.95128 0.92438 0.0
C154 C 0.43432 0.98777 0.90377 0.0
C155 C 0.51371 0.06842 0.99233 0.0
O156 O 0.50746 0.05811 0.05801 0.0
O157 O 0.46416 0.03257 0.04754 0.0
O158 O 0.56864 0.02789 0.0535 0.0
O159 O 0.56149 0.06744 0.04955 0.0
O160 O 0.52588 0.98795 0.04229 0.0
O161 O 0.49052 1.00304 0.04718 0.0
O162 O 0.50643 0.99304 0.98284 0.0
O163 O 0.54934 0.01939 0.99325 0.0
O164 O 0.4455 0.02139 0.98558 0.0
O165 O 0.45081 0.98218 0.9948 0.0
O166 O 0.487 0.06237 0.99857 0.0
O167 O 0.52266 0.04756 0.99425 0.0
H168 H 0.61158 0.0337 0.08888 0.0
H169 H 0.5578 0.08827 0.09765 0.0
H170 H 0.57307 0.10101 0.14456 0.0
H171 H 0.62602 0.04557 0.13628 0.0
H172 H 0.4596 1.01601 0.93222 0.0
H173 H 0.39592 0.95136 0.96875 0.0
H174 H 0.38158 0.93337 0.92257 0.0
H175 H 0.44521 0.99807 0.88578 0.0
Gd176 Gd 0.51401 0.50374 0.50054 0.0
Gd177 Gd 0.50709 0.54693 0.54213 0.0
C178 C 0.5328 0.50175 0.56554 0.0
C179 C 0.53463 0.47103 0.46874 0.0
C180 C 0.55632 0.45686 0.47203 0.0
C181 C 0.55879 0.43579 0.45337 0.0
C182 C 0.57489 0.46451 0.49367 0.0
C183 C 0.59849 0.43019 0.47778 0.0
C184 C 0.59574 0.45114 0.49664 0.0
C185 C 0.57981 0.42256 0.45615 0.0
C186 C 0.46169 0.49613 0.52332 0.0
C187 C 0.48809 0.54909 0.4774 0.0
C188 C 0.48656 0.58007 0.57327 0.0
C189 C 0.46545 0.59462 0.56872 0.0
C190 C 0.46624 0.61902 0.58328 0.0
C191 C 0.44505 0.58475 0.54904 0.0
C192 C 0.42643 0.62374 0.55844 0.0
C193 C 0.4257 0.59924 0.5439 0.0
C194 C 0.44682 0.63349 0.57822 0.0
C195 C 0.55928 0.55447 0.51855 0.0
O196 O 0.53388 0.49293 0.53916 0.0
O197 O 0.52151 0.52202 0.57254 0.0
O198 O 0.51161 0.46316 0.48428 0.0
O199 O 0.54373 0.49722 0.46805 0.0
O200 O 0.46706 0.48986 0.49757 0.0
O201 O 0.48414 0.50465 0.53594 0.0
O202 O 0.48674 0.5576 0.50384 0.0
O203 O 0.49968 0.52902 0.47029 0.0
O204 O 0.51012 0.58758 0.55845 0.0
O205 O 0.47712 0.55391 0.5742 0.0
O206 O 0.55433 0.56078 0.54439 0.0
O207 O 0.53654 0.54603 0.50648 0.0
H208 H 0.54457 0.42968 0.43659 0.0
H209 H 0.57351 0.48102 0.50806 0.0
H210 H 0.61005 0.45753 0.5133 0.0
H211 H 0.58136 0.40623 0.44153 0.0
H212 H 0.48191 0.62689 0.59848 0.0
H213 H 0.44416 0.56591 0.53754 0.0
H214 H 0.41036 0.59143 0.5284 0.0
H215 H 0.44757 0.65216 0.58999 0.0
Gd216 Gd 0.01178 0.49915 0.03065 0.0
Gd217 Gd 0.00809 0.55352 1.01285 0.0
C218 C 0.06354 0.55327 0.04431 0.0
C219 C 0.02707 0.45561 0.03818 0.0
C220 C 0.04991 0.44759 0.05079 0.0
C221 C 0.04796 0.4202 0.05344 0.0
C222 C 0.07393 0.46681 0.05953 0.0
C223 C 0.09438 0.43114 0.0726 0.0
C224 C 0.09601 0.45868 0.07032 0.0
C225 C 0.06994 0.41203 0.06429 0.0
C226 C 0.98442 0.52595 0.06733 0.0
C227 C 0.95641 0.49962 0.99903 0.0
C228 C 0.99201 0.59644 1.00502 0.0
C229 C 0.9671 0.60306 0.99474 0.0
C230 C 0.97074 0.62223 0.97439 0.0
C231 C 0.9398 0.59092 1.00526 0.0
C232 C 0.92032 0.61772 0.97581 0.0
C233 C 0.91663 0.59832 0.99597 0.0
C234 C 0.94754 0.6294 0.96488 0.0
C235 C 0.03611 0.52708 0.97658 0.0
O236 O 0.05521 0.52657 0.04103 0.0
O237 O 0.04726 0.5685 0.03733 0.0
O238 O 0.00953 0.46451 0.05516 0.0
O239 O 0.03416 0.46967 1.01594 0.0
O240 O 0.97687 0.5 0.06306 0.0
O241 O 1.00654 0.53593 0.05319 0.0
O242 O 0.96455 0.52628 1.00276 0.0
O243 O 0.97287 0.48445 1.00572 0.0
O244 O 0.00757 0.5864 0.98673 0.0
O245 O 0.98866 0.58473 0.02879 0.0
O246 O 0.04359 0.553 0.98128 0.0
O247 O 0.01367 0.51683 0.99021 0.0
H248 H 0.02949 0.4051 0.04691 0.0
H249 H 0.07576 0.48804 0.0577 0.0
H250 H 0.11458 0.47393 0.07629 0.0
H251 H 0.06773 0.3907 0.06623 0.0
H252 H 0.99158 0.63184 0.96602 0.0
H253 H 0.93633 0.57589 0.02082 0.0
H254 H 0.89581 0.58885 1.00447 0.0
H255 H 0.95093 0.64452 0.94942 0.0
H256 H 0.24218 0.25192 0.22327 0.0
H257 H 0.20827 0.23747 0.26176 0.0
H258 H 0.27151 0.21376 0.30514 0.0
H259 H 0.30563 0.22814 0.26648 0.0
H260 H 0.22355 0.17532 0.30542 0.0
H261 H 0.24901 0.2704 0.32653 0.0
H262 H 0.25749 0.31824 0.31586 0.0
H263 H 0.17112 0.30519 0.29596 0.0
H264 H 0.16217 0.25718 0.30625 0.0
H265 H 0.13375 0.14003 0.42263 0.0
H266 H 0.17386 0.1653 0.39499 0.0
H267 H 0.11801 0.19393 0.34601 0.0
H268 H 0.07781 0.17004 0.37467 0.0
H269 H 0.16546 0.23202 0.3521 0.0
H270 H 0.14092 0.13747 0.32559 0.0
H271 H 0.13154 0.08891 0.33338 0.0
H272 H 0.21536 0.10051 0.36061 0.0
H273 H 0.22511 0.14923 0.35333 0.0
C274 C 0.24902 0.24404 0.2412 0.0
C275 C 0.27662 0.24129 0.24191 0.0
C276 C 0.22961 0.23581 0.26321 0.0
C277 C 0.23746 0.2249 0.28654 0.0
C278 C 0.26504 0.22221 0.28738 0.0
C279 C 0.28446 0.23034 0.26527 0.0
C280 C 0.21637 0.21494 0.30928 0.0
C281 C 0.21128 0.18789 0.31606 0.0
C282 C 0.19982 0.23114 0.3226 0.0
C283 C 0.20496 0.26015 0.31702 0.0
C284 C 0.23184 0.2777 0.31978 0.0
C285 C 0.23673 0.30485 0.31381 0.0
C286 C 0.21487 0.31474 0.3052 0.0
C287 C 0.18803 0.29751 0.30265 0.0
C288 C 0.18302 0.27034 0.30861 0.0
C289 C 0.12994 0.1523 0.40654 0.0
C290 C 0.10238 0.1526 0.40065 0.0
C291 C 0.15295 0.16652 0.39051 0.0
C292 C 0.14889 0.18094 0.36796 0.0
C293 C 0.12164 0.18271 0.36313 0.0
C294 C 0.09863 0.16876 0.37935 0.0
C295 C 0.17262 0.19238 0.34813 0.0
C296 C 0.17809 0.21962 0.34179 0.0
C297 C 0.18941 0.17631 0.33497 0.0
C298 C 0.18363 0.14701 0.33921 0.0
C299 C 0.15728 0.12968 0.33342 0.0
C300 C 0.15191 0.10213 0.33772 0.0
C301 C 0.17281 0.09164 0.34756 0.0
C302 C 0.19917 0.10867 0.35304 0.0
C303 C 0.20463 0.13625 0.34883 0.0
H304 H 0.16861 0.0703 0.35087 0.0
H305 H 0.21871 0.33575 0.30054 0.0
H306 H 0.28809 0.89536 0.66981 0.0
H307 H 0.31344 0.91847 0.70991 0.0
H308 H 0.3171 0.84197 0.73971 0.0
H309 H 0.2913 0.81877 0.70008 0.0
H310 H 0.30159 0.87415 0.7806 0.0
H311 H 0.37383 0.88192 0.70759 0.0
H312 H 0.39601 0.89442 0.66152 0.0
H313 H 0.39802 0.97729 0.68107 0.0
H314 H 0.37546 0.96521 0.72715 0.0
H315 H 0.40162 0.91225 0.88096 0.0
H316 H 0.3803 0.89363 0.83747 0.0
H317 H 0.3801 0.97339 0.81433 0.0
H318 H 0.40167 0.9922 0.85786 0.0
H319 H 0.39312 0.94221 0.76974 0.0
H320 H 0.32191 0.93485 0.84287 0.0
H321 H 0.30017 0.92268 0.88918 0.0
H322 H 0.29584 0.8394 0.86924 0.0
H323 H 0.31798 0.85114 0.82293 0.0
C324 C 0.29406 0.8835 0.68509 0.0
C325 C 0.2878 0.85529 0.68184 0.0
C326 C 0.30875 0.89671 0.70779 0.0
C327 C 0.31739 0.88191 0.72755 0.0
C328 C 0.3107 0.85374 0.7246 0.0
C329 C 0.29612 0.84054 0.7019 0.0
C330 C 0.33317 0.89563 0.75156 0.0
C331 C 0.32174 0.88881 0.77822 0.0
C332 C 0.35906 0.91531 0.74837 0.0
C333 C 0.37267 0.92261 0.7207 0.0
C334 C 0.37877 0.90277 0.70198 0.0
C335 C 0.39146 0.90979 0.67588 0.0
C336 C 0.39834 0.93662 0.66834 0.0
C337 C 0.39262 0.9565 0.68692 0.0
C338 C 0.37991 0.94959 0.71304 0.0
C339 C 0.39723 0.92582 0.86648 0.0
C340 C 0.4029 0.9536 0.87288 0.0
C341 C 0.38512 0.91519 0.84167 0.0
C342 C 0.37814 0.93211 0.823 0.0
C343 C 0.38525 0.96003 0.82856 0.0
C344 C 0.39757 0.97072 0.85337 0.0
C345 C 0.36172 0.92034 0.7987 0.0
C346 C 0.37293 0.9276 0.77206 0.0
C347 C 0.33553 0.9011 0.80184 0.0
C348 C 0.32181 0.89391 0.82952 0.0
C349 C 0.31648 0.91396 0.84842 0.0
C350 C 0.30407 0.90714 0.87466 0.0
C351 C 0.29668 0.88029 0.88217 0.0
C352 C 0.3016 0.86019 0.8634 0.0
C353 C 0.31406 0.86692 0.83715 0.0
H354 H 0.28709 0.87504 0.9025 0.0
H355 H 0.40817 0.94201 0.64812 0.0
H356 H 0.60228 0.34485 0.74026 0.0
H357 H 0.58821 0.36868 0.7033 0.0
H358 H 0.62001 0.44421 0.74782 0.0
H359 H 0.63463 0.42028 0.78485 0.0
H360 H 0.56711 0.44075 0.72632 0.0
H361 H 0.65553 0.42682 0.69012 0.0
H362 H 0.68946 0.40014 0.67629 0.0
H363 H 0.63186 0.35271 0.61855 0.0
H364 H 0.59739 0.37885 0.63234 0.0
H365 H 0.54903 0.52227 0.61767 0.0
H366 H 0.56681 0.50122 0.65427 0.0
H367 H 0.559 0.4291 0.60233 0.0
H368 H 0.543 0.45101 0.56489 0.0
H369 H 0.60068 0.43127 0.62858 0.0
H370 H 0.51115 0.44052 0.66471 0.0
H371 H 0.47422 0.46379 0.67851 0.0
H372 H 0.52895 0.51519 0.73611 0.0
H373 H 0.56633 0.49243 0.72241 0.0
C374 C 0.60649 0.36658 0.74223 0.0
C375 C 0.61985 0.38045 0.76575 0.0
C376 C 0.59842 0.38031 0.72087 0.0
C377 C 0.60305 0.40855 0.72219 0.0
C378 C 0.61608 0.42251 0.74589 0.0
C379 C 0.6246 0.40874 0.76716 0.0
C380 C 0.59409 0.42316 0.69903 0.0
C381 C 0.57484 0.43897 0.70503 0.0
C382 C 0.60306 0.42036 0.67077 0.0
C383 C 0.62376 0.40464 0.66246 0.0
C384 C 0.64999 0.41055 0.67465 0.0
C385 C 0.66934 0.39555 0.66678 0.0
C386 C 0.66279 0.3747 0.6466 0.0
C387 C 0.63689 0.36884 0.6342 0.0
C388 C 0.61745 0.38376 0.64202 0.0
C389 C 0.55108 0.5019 0.61391 0.0
C390 C 0.54421 0.48848 0.58803 0.0
C391 C 0.56106 0.48957 0.63524 0.0
C392 C 0.56371 0.46283 0.63212 0.0
C393 C 0.55726 0.44956 0.606 0.0
C394 C 0.54792 0.46217 0.58437 0.0
C395 C 0.5734 0.44895 0.65567 0.0
C396 C 0.59282 0.43319 0.6498 0.0
C397 C 0.56405 0.45127 0.684 0.0
C398 C 0.54163 0.46496 0.69232 0.0
C399 C 0.51536 0.4569 0.6802 0.0
C400 C 0.49434 0.46998 0.68802 0.0
C401 C 0.49926 0.491 0.70812 0.0
C402 C 0.52518 0.49893 0.72051 0.0
C403 C 0.54629 0.48594 0.71274 0.0
H404 H 0.48297 0.50111 0.71414 0.0
H405 H 0.67781 0.36312 0.64053 0.0
H406 H 0.86249 0.62744 0.27525 0.0
H407 H 0.87709 0.60092 0.23647 0.0
H408 H 0.94182 0.67053 0.21123 0.0
H409 H 0.927 0.69735 0.24994 0.0
H410 H 0.91498 0.64343 0.16693 0.0
H411 H 0.95777 0.62104 0.24611 0.0
H412 H 0.95861 0.60576 0.29342 0.0
H413 H 0.90239 0.52969 0.2713 0.0
H414 H 0.90091 0.54466 0.22393 0.0
H415 H 1.00257 0.57919 0.08192 0.0
H416 H 0.98265 0.60464 0.1182 0.0
H417 H 0.9183 0.5329 0.13833 0.0
H418 H 0.93814 0.50727 0.10174 0.0
H419 H 0.94271 0.55991 0.18455 0.0
H420 H 0.90045 0.58141 0.10543 0.0
H421 H 0.8994 0.5961 0.05797 0.0
H422 H 0.95453 0.67294 0.07947 0.0
H423 H 0.95595 0.65865 0.12715 0.0
C424 C 0.87981 0.63716 0.26146 0.0
C425 C 0.89373 0.6645 0.26571 0.0
C426 C 0.88819 0.62192 0.23931 0.0
C427 C 0.91078 0.63362 0.22109 0.0
C428 C 0.92437 0.66105 0.22502 0.0
C429 C 0.91597 0.67632 0.24717 0.0
C430 C 0.92045 0.61717 0.19818 0.0
C431 C 0.92135 0.62535 0.17083 0.0
C432 C 0.92808 0.59315 0.20313 0.0
C433 C 0.929 0.58408 0.23157 0.0
C434 C 0.94541 0.60113 0.2514 0.0
C435 C 0.94603 0.59251 0.27821 0.0
C436 C 0.9305 0.5668 0.28539 0.0
C437 C 0.91437 0.54962 0.26573 0.0
C438 C 0.91365 0.55815 0.23889 0.0
C439 C 0.98397 0.56889 0.09383 0.0
C440 C 0.97176 0.54129 0.08887 0.0
C441 C 0.9726 0.58347 0.11456 0.0
C442 C 0.9488 0.57075 0.13081 0.0
C443 C 0.93662 0.54313 0.12598 0.0
C444 C 0.94792 0.52854 0.10508 0.0
C445 C 0.93734 0.58623 0.15337 0.0
C446 C 0.93617 0.57791 0.18065 0.0
C447 C 0.92943 0.61006 0.14835 0.0
C448 C 0.92849 0.61888 0.1198 0.0
C449 C 0.9125 0.60138 0.09999 0.0
C450 C 0.9118 0.60965 0.07305 0.0
C451 C 0.927 0.6354 0.06564 0.0
C452 C 0.94279 0.65299 0.08523 0.0
C453 C 0.94348 0.64484 0.11225 0.0
H454 H 0.92648 0.64175 0.04475 0.0
H455 H 0.93101 0.56016 0.30616 0.0
H456 H 0.31314 0.18424 0.17433 0.0
H457 H 0.34077 0.15322 0.15667 0.0
H458 H 0.41481 0.2196 0.14994 0.0
H459 H 0.38693 0.25086 0.16699 0.0
H460 H 0.41347 0.18728 0.10632 0.0
H461 H 0.40364 0.17477 0.20365 0.0
H462 H 0.37871 0.16639 0.2493 0.0
H463 H 0.33205 0.08863 0.21916 0.0
H464 H 0.35641 0.0967 0.17318 0.0
H465 H 0.50535 0.10131 0.08591 0.0
H466 H 0.48231 0.13326 0.1104 0.0
H467 H 0.40194 0.07537 0.10446 0.0
H468 H 0.42473 0.04333 0.07976 0.0
H469 H 0.40992 0.10481 0.15662 0.0
H470 H 0.41951 0.11991 0.05807 0.0
H471 H 0.44706 0.12847 1.01374 0.0
H472 H 0.49723 0.20272 0.04837 0.0
H473 H 0.47031 0.19433 0.09311 0.0
C474 C 0.33534 0.19219 0.16919 0.0
C475 C 0.34796 0.21992 0.17225 0.0
C476 C 0.35115 0.17444 0.15917 0.0
C477 C 0.38005 0.18396 0.1525 0.0
C478 C 0.39259 0.21175 0.15504 0.0
C479 C 0.37667 0.22958 0.16475 0.0
C480 C 0.397 0.16487 0.1427 0.0
C481 C 0.41303 0.16951 0.11761 0.0
C482 C 0.39629 0.14147 0.15721 0.0
C483 C 0.3817 0.13645 0.18489 0.0
C484 C 0.38793 0.15596 0.2067 0.0
C485 C 0.37392 0.15125 0.23264 0.0
C486 C 0.35377 0.12702 0.23711 0.0
C487 C 0.34765 0.1074 0.21566 0.0
C488 C 0.36157 0.11202 0.18966 0.0
C489 C 0.48283 0.09516 0.09024 0.0
C490 C 0.4668 0.06987 0.08068 0.0
C491 C 0.46972 0.11349 0.10416 0.0
C492 C 0.44042 0.10675 0.10891 0.0
C493 C 0.42458 0.08094 0.10091 0.0
C494 C 0.43763 0.0627 0.08675 0.0
C495 C 0.42598 0.1272 0.1203 0.0
C496 C 0.41046 0.12276 0.14559 0.0
C497 C 0.42742 0.15092 0.10616 0.0
C498 C 0.44309 0.15635 0.07903 0.0
C499 C 0.43654 0.13797 0.05629 0.0
C500 C 0.45203 0.1428 0.03109 0.0
C501 C 0.47394 0.16608 0.02826 0.0
C502 C 0.48029 0.18466 0.05061 0.0
C503 C 0.46492 0.17989 0.07589 0.0
H504 H 0.48594 0.16976 1.00875 0.0
H505 H 0.34294 0.12341 0.25721 0.0
H506 H 0.16166 0.84924 0.61486 0.0
H507 H 0.12731 0.87181 0.59992 0.0
H508 H 0.17282 0.8854 0.52068 0.0
H509 H 0.20613 0.86154 0.53507 0.0
H510 H 0.13453 0.92028 0.58981 0.0
H511 H 0.13412 0.89385 0.47054 0.0
H512 H 0.1344 0.85456 0.43908 0.0
H513 H 0.10015 0.8014 0.50503 0.0
H514 H 0.09929 0.84033 0.5368 0.0
H515 H 0.10136 0.0242 0.52384 0.0
H516 H 0.1228 0.98971 0.53869 0.0
H517 H 0.05371 0.92773 0.50626 0.0
H518 H 0.03422 0.96241 0.48869 0.0
H519 H 0.09512 0.91108 0.49679 0.0
H520 H 0.06255 0.94863 0.58144 0.0
H521 H 0.05728 0.98392 0.61659 0.0
H522 H 0.14652 1.00768 0.62502 0.0
H523 H 0.15245 0.97261 0.59009 0.0
C524 C 0.16396 0.85669 0.5941 0.0
C525 C 0.18649 0.8539 0.57607 0.0
C526 C 0.14438 0.86956 0.58559 0.0
C527 C 0.14731 0.88014 0.55909 0.0
C528 C 0.16961 0.87682 0.54094 0.0
C529 C 0.18879 0.86342 0.54923 0.0
C530 C 0.12882 0.89686 0.5513 0.0
C531 C 0.12556 0.91805 0.56961 0.0
C532 C 0.11658 0.89362 0.52521 0.0
C533 C 0.11682 0.87006 0.50612 0.0
C534 C 0.1265 0.87378 0.47831 0.0
C535 C 0.1268 0.85156 0.46042 0.0
C536 C 0.11736 0.8255 0.47007 0.0
C537 C 0.10754 0.8216 0.49761 0.0
C538 C 0.10718 0.84374 0.51558 0.0
C539 C 0.09118 1.00315 0.51957 0.0
C540 C 0.06642 0.99571 0.50513 0.0
C541 C 0.10306 0.98344 0.52848 0.0
C542 C 0.08941 0.95599 0.52451 0.0
C543 C 0.06467 0.94869 0.50971 0.0
C544 C 0.05352 0.96844 0.49968 0.0
C545 C 0.10132 0.93494 0.53509 0.0
C546 C 0.10346 0.91299 0.51725 0.0
C547 C 0.11154 0.93685 0.56209 0.0
C548 C 0.10795 0.95807 0.58301 0.0
C549 C 0.08106 0.96147 0.59068 0.0
C550 C 0.07795 0.98141 0.61056 0.0
C551 C 0.10151 0.99807 0.62287 0.0
C552 C 0.12828 0.99477 0.61545 0.0
C553 C 0.13153 0.97481 0.5957 0.0
H554 H 0.09902 1.01349 0.63822 0.0
H555 H 0.11763 0.80833 0.45619 0.0
H556 H 0.71357 0.42021 0.87761 0.0
H557 H 0.75709 0.44353 0.89977 0.0
H558 H 0.77801 0.36785 0.90611 0.0
H559 H 0.7347 0.34446 0.8839 0.0
H560 H 0.78985 0.3954 0.9526 0.0
H561 H 0.81048 0.41778 0.85721 0.0
H562 H 0.80363 0.43599 0.81277 0.0
H563 H 0.8115 0.51414 0.85238 0.0
H564 H 0.81806 0.49629 0.89716 0.0
H565 H 0.93344 0.44575 0.98625 0.0
H566 H 0.88945 0.42446 0.96408 0.0
H567 H 0.87196 0.50193 0.95958 0.0
H568 H 0.91635 0.52348 0.9814 0.0
H569 H 0.85782 0.47462 0.91285 0.0
H570 H 0.8367 0.45297 1.0078 0.0
H571 H 0.84335 0.43552 0.05271 0.0
H572 H 0.83614 0.35691 1.01442 0.0
H573 H 0.82982 0.37398 0.96918 0.0
C574 C 0.72749 0.40843 0.88336 0.0
C575 C 0.72009 0.38017 0.87871 0.0
C576 C 0.75261 0.42192 0.89618 0.0
C577 C 0.7715 0.40774 0.90464 0.0
C578 C 0.76411 0.37956 0.90008 0.0
C579 C 0.73902 0.36607 0.88732 0.0
C580 C 0.7986 0.42197 0.91849 0.0
C581 C 0.8048 0.41249 0.94357 0.0
C582 C 0.81822 0.44491 0.90756 0.0
C583 C 0.81432 0.45561 0.88062 0.0
C584 C 0.81048 0.43879 0.8565 0.0
C585 C 0.80671 0.44905 0.83124 0.0
C586 C 0.807 0.47618 0.82978 0.0
C587 C 0.81117 0.49312 0.85356 0.0
C588 C 0.81492 0.48294 0.87888 0.0
C589 C 0.92028 0.45839 0.98071 0.0
C590 C 0.92876 0.48651 0.98594 0.0
C591 C 0.89482 0.44606 0.96803 0.0
C592 C 0.87666 0.46129 0.96026 0.0
C593 C 0.88522 0.48944 0.96524 0.0
C594 C 0.91074 0.50181 0.97793 0.0
C595 C 0.8491 0.44792 0.94682 0.0
C596 C 0.84283 0.45755 0.92185 0.0
C597 C 0.82934 0.42518 0.95789 0.0
C598 C 0.83306 0.41482 0.98505 0.0
C599 C 0.83674 0.43201 1.00892 0.0
C600 C 0.84042 0.42218 0.03444 0.0
C601 C 0.84024 0.39514 0.0364 0.0
C602 C 0.83631 0.37786 1.01285 0.0
C603 C 0.83266 0.38759 0.98727 0.0
H604 H 0.84309 0.38757 0.05618 0.0
H605 H 0.80408 0.48408 0.8102 0.0
H606 H 0.80891 0.67133 0.42767 0.0
H607 H 0.76578 0.64705 0.45223 0.0
H608 H 0.72771 0.62074 0.3741 0.0
H609 H 0.77048 0.64562 0.34943 0.0
H610 H 0.69307 0.64016 0.40897 0.0
H611 H 0.74861 0.57692 0.41354 0.0
H612 H 0.7901 0.56119 0.42349 0.0
H613 H 0.7803 0.58316 0.50972 0.0
H614 H 0.73894 0.59935 0.50022 0.0
H615 H 0.57112 0.55004 0.46306 0.0
H616 H 0.61632 0.56687 0.43808 0.0
H617 H 0.65514 0.59543 0.51542 0.0
H618 H 0.60997 0.57792 0.54064 0.0
H619 H 0.68941 0.57354 0.48043 0.0
H620 H 0.63475 0.6382 0.47516 0.0
H621 H 0.59275 0.65303 0.46505 0.0
H622 H 0.60098 0.62786 0.37955 0.0
H623 H 0.64283 0.61252 0.38923 0.0
C624 C 0.79135 0.66039 0.41572 0.0
C625 C 0.79312 0.66046 0.38658 0.0
C626 C 0.7668 0.64629 0.42978 0.0
C627 C 0.74357 0.63187 0.41501 0.0
C628 C 0.74539 0.63166 0.38593 0.0
C629 C 0.76994 0.64572 0.37185 0.0
C630 C 0.7169 0.61812 0.42988 0.0
C631 C 0.69222 0.62527 0.42427 0.0
C632 C 0.71588 0.59917 0.45034 0.0
C633 C 0.74084 0.5896 0.45611 0.0
C634 C 0.75545 0.57862 0.43458 0.0
C635 C 0.77891 0.56957 0.44015 0.0
C636 C 0.78787 0.57124 0.46721 0.0
C637 C 0.77335 0.58191 0.48876 0.0
C638 C 0.74988 0.591 0.4833 0.0
C639 C 0.58937 0.55952 0.47479 0.0
C640 C 0.58704 0.56278 0.50379 0.0
C641 C 0.61515 0.56929 0.46047 0.0
C642 C 0.63901 0.58281 0.47484 0.0
C643 C 0.63698 0.58514 0.50391 0.0
C644 C 0.61117 0.57524 0.51828 0.0
C645 C 0.66568 0.59559 0.45945 0.0
C646 C 0.69032 0.58834 0.46503 0.0
C647 C 0.66671 0.61446 0.43891 0.0
C648 C 0.64176 0.62398 0.43298 0.0
C649 C 0.6275 0.63567 0.45424 0.0
C650 C 0.60373 0.64418 0.44858 0.0
C651 C 0.59415 0.64132 0.42169 0.0
C652 C 0.60839 0.63003 0.40038 0.0
C653 C 0.63215 0.62144 0.40593 0.0
H654 H 0.57574 0.64791 0.41736 0.0
H655 H 0.80603 0.5642 0.47148 0.0
H656 H 0.29522 0.37153 0.19736 0.0
H657 H 0.26142 0.3926 0.17855 0.0
H658 H 0.24653 0.33175 0.11224 0.0
H659 H 0.28096 0.3112 0.13047 0.0
H660 H 0.2476 0.3789 0.09295 0.0
H661 H 0.20172 0.32842 0.17094 0.0
H662 H 0.19614 0.31502 0.21957 0.0
H663 H 0.19487 0.3955 0.24698 0.0
H664 H 0.20086 0.40948 0.19852 0.0
H665 H 0.11486 0.38851 0.05351 0.0
H666 H 0.15326 0.37339 0.07128 0.0
H667 H 0.16701 0.43897 0.13259 0.0
H668 H 0.12778 0.45363 0.11557 0.0
H669 H 0.16781 0.39195 0.15486 0.0
H670 H 0.2111 0.44118 0.0753 0.0
H671 H 0.21521 0.45293 0.02621 0.0
H672 H 0.21973 0.37272 1.00127 0.0
H673 H 0.21523 0.36037 0.05021 0.0
C674 C 0.28496 0.3629 0.17857 0.0
C675 C 0.29062 0.33974 0.16544 0.0
C676 C 0.26553 0.37482 0.16794 0.0
C677 C 0.251 0.36345 0.14428 0.0
C678 C 0.25741 0.34084 0.13057 0.0
C679 C 0.27708 0.32909 0.14103 0.0
C680 C 0.22855 0.37459 0.13426 0.0
C681 C 0.23002 0.3815 0.10643 0.0
C682 C 0.20584 0.37849 0.15196 0.0
C683 C 0.20202 0.37006 0.18111 0.0
C684 C 0.20045 0.34331 0.18735 0.0
C685 C 0.19719 0.3356 0.21488 0.0
C686 C 0.19522 0.35441 0.23635 0.0
C687 C 0.19644 0.38096 0.23033 0.0
C688 C 0.19975 0.38878 0.20283 0.0
C689 C 0.12583 0.3996 0.07096 0.0
C690 C 0.11816 0.42228 0.08316 0.0
C691 C 0.14802 0.39109 0.08089 0.0
C692 C 0.16324 0.40524 0.10305 0.0
C693 C 0.15562 0.42781 0.1154 0.0
C694 C 0.13335 0.43631 0.1055 0.0
C695 C 0.18681 0.39611 0.11355 0.0
C696 C 0.18551 0.38954 0.14145 0.0
C697 C 0.20953 0.3923 0.09586 0.0
C698 C 0.21262 0.3998 0.06643 0.0
C699 C 0.2128 0.426 0.05934 0.0
C700 C 0.21522 0.43278 0.03154 0.0
C701 C 0.21768 0.41357 1.01064 0.0
C702 C 0.21781 0.38757 0.01749 0.0
C703 C 0.21536 0.38068 0.04526 0.0
H704 H 0.21953 0.41885 0.98912 0.0
H705 H 0.19267 0.3484 0.25764 0.0
H706 H 0.5951 0.30226 0.8718 0.0
H707 H 0.57182 0.25909 0.89248 0.0
H708 H 0.65223 0.24165 0.89783 0.0
H709 H 0.6754 0.28429 0.87675 0.0
H710 H 0.61563 0.19661 0.88308 0.0
H711 H 0.6149 0.26433 0.95546 0.0
H712 H 0.60428 0.30531 0.97715 0.0
H713 H 0.51603 0.27052 0.96793 0.0
H714 H 0.52616 0.22946 0.94584 0.0
H715 H 0.57012 0.08638 0.9748 0.0
H716 H 0.59377 0.1288 0.95276 0.0
H717 H 0.51517 0.15135 0.95598 0.0
H718 H 0.49205 0.1098 0.97894 0.0
H719 H 0.55118 0.19404 0.96608 0.0
H720 H 0.55082 0.12694 0.89306 0.0
H721 H 0.56047 0.08585 0.87061 0.0
H722 H 0.64902 0.11897 0.8796 0.0
H723 H 0.63985 0.16014 0.90242 0.0
C724 C 0.60787 0.28916 0.87704 0.0
C725 C 0.63739 0.29734 0.87261 0.0
C726 C 0.59448 0.26439 0.88926 0.0
C727 C 0.61006 0.24677 0.89744 0.0
C728 C 0.6394 0.25453 0.89209 0.0
C729 C 0.65276 0.27927 0.88008 0.0
C730 C 0.59616 0.22058 0.91172 0.0
C731 C 0.60178 0.19622 0.90141 0.0
C732 C 0.57744 0.21931 0.93543 0.0
C733 C 0.57132 0.24396 0.94872 0.0
C734 C 0.59325 0.26551 0.95786 0.0
C735 C 0.58731 0.28873 0.97026 0.0
C736 C 0.55951 0.29055 0.97384 0.0
C737 C 0.53757 0.26911 0.9651 0.0
C738 C 0.54339 0.24585 0.95265 0.0
C739 C 0.55789 0.10037 0.97078 0.0
C740 C 0.52899 0.09427 0.9786 0.0
C741 C 0.57143 0.12475 0.95786 0.0
C742 C 0.55646 0.1437 0.95181 0.0
C743 C 0.52764 0.13757 0.96004 0.0
C744 C 0.51425 0.11347 0.97318 0.0
C745 C 0.57044 0.16987 0.93735 0.0
C746 C 0.56492 0.1943 0.94767 0.0
C747 C 0.58905 0.17114 0.91349 0.0
C748 C 0.59462 0.14649 0.8997 0.0
C749 C 0.57233 0.12538 0.8904 0.0
C750 C 0.57772 0.10209 0.87759 0.0
C751 C 0.60533 0.09977 0.87375 0.0
C752 C 0.62763 0.12077 0.88263 0.0
C753 C 0.62236 0.1441 0.89548 0.0
H754 H 0.60946 0.08172 0.86384 0.0
H755 H 0.55495 0.30854 0.98345 0.0
H756 H 0.91114 0.7462 0.36607 0.0
H757 H 0.93187 0.79145 0.38522 0.0
H758 H 0.84915 0.79987 0.41109 0.0
H759 H 0.82823 0.7557 0.39022 0.0
H760 H 0.87725 0.84489 0.39447 0.0
H761 H 0.89592 0.78288 0.45644 0.0
H762 H 0.9138 0.74519 0.47034 0.0
H763 H 0.99771 0.78734 0.4443 0.0
H764 H 0.98026 0.82514 0.4299 0.0
H765 H 0.95809 0.93148 0.51785 0.0
H766 H 0.93634 0.88814 0.49511 0.0
H767 H 0.94574 0.92617 0.41649 0.0
H768 H 0.96617 0.96974 0.43943 0.0
H769 H 0.95392 0.85782 0.45978 0.0
H770 H 0.89757 0.89298 0.37232 0.0
H771 H 0.87451 0.92898 0.36432 0.0
H772 H 0.85662 0.9376 0.4518 0.0
H773 H 0.87924 0.90143 0.46029 0.0
C774 C 0.89729 0.75785 0.37536 0.0
C775 C 0.86796 0.74699 0.37687 0.0
C776 C 0.90923 0.78365 0.38668 0.0
C777 C 0.89217 0.79898 0.40023 0.0
C778 C 0.86287 0.7885 0.40096 0.0
C779 C 0.85093 0.76297 0.38929 0.0
C780 C 0.90463 0.82567 0.41412 0.0
C781 C 0.89406 0.84769 0.4087 0.0
C782 C 0.92617 0.82939 0.43321 0.0
C783 C 0.93674 0.8067 0.44182 0.0
C784 C 0.91815 0.78401 0.45349 0.0
C785 C 0.92821 0.76265 0.46148 0.0
C786 C 0.95686 0.76383 0.45813 0.0
C787 C 0.97552 0.78642 0.44683 0.0
C788 C 0.96556 0.80783 0.43876 0.0
C789 C 0.95519 0.93064 0.49576 0.0
C790 C 0.96357 0.95408 0.48048 0.0
C791 C 0.94289 0.9058 0.48273 0.0
C792 C 0.93904 0.90375 0.45404 0.0
C793 C 0.94773 0.92717 0.43872 0.0
C794 C 0.9595 0.95212 0.45185 0.0
C795 C 0.92649 0.87704 0.4402 0.0
C796 C 0.93714 0.85506 0.44551 0.0
C797 C 0.90427 0.8731 0.42184 0.0
C798 C 0.89037 0.8947 0.41694 0.0
C799 C 0.88863 0.9025 0.38983 0.0
C800 C 0.87565 0.92294 0.38522 0.0
C801 C 0.8642 0.93563 0.40755 0.0
C802 C 0.8656 0.92783 0.43454 0.0
C803 C 0.87852 0.90738 0.43926 0.0
H804 H 0.85418 0.95147 0.40393 0.0
H805 H 0.96461 0.74727 0.46434 0.0
H806 H 0.24046 0.75751 0.60213 0.0
H807 H 0.25922 0.72161 0.57939 0.0
H808 H 0.34291 0.77448 0.57937 0.0
H809 H 0.32429 0.81042 0.60185 0.0
H810 H 0.33167 0.74185 0.5301 0.0
H811 H 0.32239 0.73485 0.63074 0.0
H812 H 0.29549 0.73034 0.67565 0.0
H813 H 0.24076 0.65629 0.64573 0.0
H814 H 0.26715 0.66061 0.60047 0.0
H815 H 0.43635 0.67761 0.55171 0.0
H816 H 0.40157 0.70351 0.54923 0.0
H817 H 0.33495 0.63017 0.55111 0.0
H818 H 0.36971 0.6042 0.55426 0.0
H819 H 0.32678 0.66574 0.59058 0.0
H820 H 0.34591 0.66745 0.49401 0.0
H821 H 0.37455 0.67211 0.45016 0.0
H822 H 0.4116 0.75527 0.47169 0.0
H823 H 0.38354 0.75104 0.5159 0.0
C824 C 0.26278 0.76152 0.59683 0.0
C825 C 0.28105 0.78651 0.60398 0.0
C826 C 0.27341 0.7411 0.58385 0.0
C827 C 0.30239 0.7455 0.57781 0.0
C828 C 0.32046 0.77083 0.58377 0.0
C829 C 0.30989 0.79116 0.59691 0.0
C830 C 0.31453 0.72308 0.56822 0.0
C831 C 0.33059 0.72508 0.54314 0.0
C832 C 0.31225 0.70088 0.58496 0.0
C833 C 0.29646 0.69824 0.61215 0.0
C834 C 0.30446 0.71774 0.63367 0.0
C835 C 0.28934 0.7152 0.65919 0.0
C836 C 0.26636 0.69309 0.66351 0.0
C837 C 0.25851 0.67344 0.64233 0.0
C838 C 0.27354 0.67593 0.61675 0.0
C839 C 0.41431 0.667 0.5513 0.0
C840 C 0.40567 0.63895 0.55348 0.0
C841 C 0.39448 0.68176 0.54948 0.0
C842 C 0.36571 0.66869 0.54969 0.0
C843 C 0.35708 0.64056 0.5507 0.0
C844 C 0.37695 0.62577 0.55245 0.0
C845 C 0.34489 0.68488 0.55281 0.0
C846 C 0.32717 0.68183 0.57683 0.0
C847 C 0.34575 0.70607 0.53507 0.0
C848 C 0.36263 0.70888 0.50838 0.0
C849 C 0.36029 0.6867 0.48951 0.0
C850 C 0.37641 0.68927 0.46456 0.0
C851 C 0.39489 0.71397 0.45816 0.0
C852 C 0.39725 0.73616 0.47667 0.0
C853 C 0.38119 0.73369 0.50167 0.0
H854 H 0.40737 0.71591 0.43883 0.0
H855 H 0.25469 0.69115 0.68328 0.0
H856 H 0.77975 0.81712 0.83052 0.0
H857 H 0.81567 0.83642 0.79499 0.0
H858 H 0.75104 0.84396 0.74194 0.0
H859 H 0.71485 0.82485 0.77771 0.0
H860 H 0.79614 0.82091 0.71576 0.0
H861 H 0.78202 0.8974 0.77071 0.0
H862 H 0.77756 0.92332 0.81437 0.0
H863 H 0.86176 0.92377 0.83317 0.0
H864 H 0.86655 0.89744 0.7898 0.0
H865 H 0.88827 0.90667 0.62034 0.0
H866 H 0.84989 0.88482 0.6521 0.0
H867 H 0.90814 0.89366 0.71723 0.0
H868 H 0.94632 0.91704 0.68612 0.0
H869 H 0.86398 0.90854 0.73636 0.0
H870 H 0.87862 0.83161 0.68284 0.0
H871 H 0.88352 0.80426 0.64027 0.0
H872 H 0.79965 0.80307 0.61961 0.0
H873 H 0.79438 0.83073 0.6619 0.0
C874 C 0.7732 0.8227 0.81119 0.0
C875 C 0.74459 0.81949 0.80676 0.0
C876 C 0.7937 0.83377 0.791 0.0
C877 C 0.78593 0.84161 0.76595 0.0
C878 C 0.75735 0.83796 0.76118 0.0
C879 C 0.7368 0.82723 0.78159 0.0
C880 C 0.8079 0.85428 0.74518 0.0
C881 C 0.81077 0.84026 0.71997 0.0
C882 C 0.82726 0.87917 0.75115 0.0
C883 C 0.82454 0.89522 0.77713 0.0
C884 C 0.7995 0.90282 0.78427 0.0
C885 C 0.79693 0.91762 0.80894 0.0
C886 C 0.81934 0.92513 0.82657 0.0
C887 C 0.84441 0.91791 0.81951 0.0
C888 C 0.84707 0.90306 0.79487 0.0
C889 C 0.89295 0.90407 0.64144 0.0
C890 C 0.92045 0.91376 0.65065 0.0
C891 C 0.87099 0.89124 0.65951 0.0
C892 C 0.87612 0.88736 0.68704 0.0
C893 C 0.90365 0.8964 0.69609 0.0
C894 C 0.92556 0.90949 0.67813 0.0
C895 C 0.85267 0.87507 0.7068 0.0
C896 C 0.84943 0.88921 0.73193 0.0
C897 C 0.83312 0.85017 0.7008 0.0
C898 C 0.83622 0.83348 0.6754 0.0
C899 C 0.8613 0.8257 0.66911 0.0
C900 C 0.86413 0.8101 0.64506 0.0
C901 C 0.84194 0.80199 0.62721 0.0
C902 C 0.81684 0.8094 0.63343 0.0
C903 C 0.81391 0.82501 0.65745 0.0
H904 H 0.84417 0.78992 0.6086 0.0
H905 H 0.81732 0.9366 0.84566 0.0
H906 H 0.7564 0.18022 0.34063 0.0
H907 H 0.72981 0.15655 0.30181 0.0
H908 H 0.65287 0.16683 0.34278 0.0
H909 H 0.67928 0.18975 0.38234 0.0
H910 H 0.64614 0.11643 0.31823 0.0
H911 H 0.68315 0.20757 0.29236 0.0
H912 H 0.71969 0.24991 0.28556 0.0
H913 H 0.76518 0.20908 0.22722 0.0
H914 H 0.72911 0.16639 0.23397 0.0
H915 H 0.57208 0.08655 0.1914 0.0
H916 H 0.59196 0.10644 0.23524 0.0
H917 H 0.67457 0.10299 0.20305 0.0
H918 H 0.65519 0.08428 0.15899 0.0
H919 H 0.67467 0.15177 0.22459 0.0
H920 H 0.63788 0.05994 0.25219 0.0
H921 H 0.60093 1.01792 0.2593 0.0
H922 H 0.55407 0.06054 0.31418 0.0
H923 H 0.59059 0.1029 0.3071 0.0
C924 C 0.73378 0.17712 0.3416 0.0
C925 C 0.71994 0.18696 0.36449 0.0
C926 C 0.71865 0.16379 0.31931 0.0
C927 C 0.68946 0.16031 0.3193 0.0
C928 C 0.67542 0.16946 0.34238 0.0
C929 C 0.69056 0.18276 0.36479 0.0
C930 C 0.67392 0.14778 0.29474 0.0
C931 C 0.65205 0.12432 0.29777 0.0
C932 C 0.68186 0.15804 0.26811 0.0
C933 C 0.70352 0.18373 0.26384 0.0
C934 C 0.70104 0.20758 0.27823 0.0
C935 C 0.72166 0.23165 0.27436 0.0
C936 C 0.74477 0.23218 0.25601 0.0
C937 C 0.74728 0.20864 0.24144 0.0
C938 C 0.72674 0.18451 0.24526 0.0
C939 C 0.59447 0.09001 0.19371 0.0
C940 C 0.61206 0.08389 0.17168 0.0
C941 C 0.60574 0.10111 0.21884 0.0
C942 C 0.63471 0.10606 0.22239 0.0
C943 C 0.65214 0.09929 0.20072 0.0
C944 C 0.64096 0.08835 0.17562 0.0
C945 C 0.64741 0.11992 0.24787 0.0
C946 C 0.66865 0.14385 0.24503 0.0
C947 C 0.63875 0.11011 0.2746 0.0
C948 C 0.61682 0.08464 0.27887 0.0
C949 C 0.61958 0.0604 0.26558 0.0
C950 C 0.59874 0.03651 0.26964 0.0
C951 C 0.57513 0.03658 0.28711 0.0
C952 C 0.57235 0.06052 0.30061 0.0
C953 C 0.59312 0.08447 0.2966 0.0
H954 H 0.55902 1.01806 0.29023 0.0
H955 H 0.76071 0.25083 0.25305 0.0
H956 H 0.40714 0.70521 0.30881 0.0
H957 H 0.42162 0.68174 0.34554 0.0
H958 H 0.40922 0.6098 0.29272 0.0
H959 H 0.3929 0.63311 0.25637 0.0
H960 H 0.39558 0.593 0.34048 0.0
H961 H 0.47903 0.65763 0.31064 0.0
H962 H 0.50924 0.70233 0.29925 0.0
H963 H 0.49786 0.73147 0.3829 0.0
H964 H 0.4673 0.68701 0.39471 0.0
H965 H 0.47907 0.53246 0.42253 0.0
H966 H 0.46171 0.55448 0.38615 0.0
H967 H 0.45427 0.61902 0.4442 0.0
H968 H 0.47127 0.59683 0.48089 0.0
H969 H 0.47864 0.63889 0.39377 0.0
H970 H 0.39596 0.5718 0.42272 0.0
H971 H 0.3682 0.52583 0.43281 0.0
H972 H 0.38158 0.49987 0.34839 0.0
H973 H 0.40978 0.54562 0.33788 0.0
C974 C 0.4074 0.68433 0.30493 0.0
C975 C 0.39883 0.6713 0.2793 0.0
C976 C 0.41611 0.67083 0.32606 0.0
C977 C 0.41768 0.64382 0.32227 0.0
C978 C 0.40863 0.63056 0.29671 0.0
C979 C 0.39926 0.64399 0.27568 0.0
C980 C 0.42841 0.62965 0.34488 0.0
C981 C 0.41404 0.6031 0.35167 0.0
C982 C 0.45233 0.64232 0.36049 0.0
C983 C 0.47067 0.66907 0.35348 0.0
C984 C 0.48283 0.67362 0.32655 0.0
C985 C 0.50003 0.69891 0.32003 0.0
C986 C 0.50541 0.71975 0.34032 0.0
C987 C 0.49365 0.71532 0.3672 0.0
C988 C 0.47641 0.69008 0.37383 0.0
C989 C 0.47366 0.55129 0.42776 0.0
C990 C 0.47672 0.56261 0.45505 0.0
C991 C 0.46356 0.56394 0.40675 0.0
C992 C 0.45633 0.58862 0.412 0.0
C993 C 0.45957 0.6001 0.43919 0.0
C994 C 0.46928 0.58723 0.46035 0.0
C995 C 0.44578 0.60247 0.38921 0.0
C996 C 0.46021 0.6289 0.38244 0.0
C997 C 0.42227 0.58954 0.37335 0.0
C998 C 0.40521 0.56207 0.37958 0.0
C999 C 0.39317 0.55624 0.40635 0.0
C1000 C 0.37732 0.53023 0.41214 0.0
C1001 C 0.37319 0.50992 0.39127 0.0
C1002 C 0.38483 0.51561 0.36454 0.0
C1003 C 0.40073 0.54158 0.35865 0.0
H1004 H 0.36091 0.4898 0.39579 0.0
H1005 H 0.51873 0.73931 0.33523 0.0
H1006 H 0.11483 0.38243 0.77234 0.0
H1007 H 0.09437 0.39806 0.81562 0.0
H1008 H 0.14866 0.47775 0.80554 0.0
H1009 H 0.16904 0.4623 0.76236 0.0
H1010 H 0.14657 0.46102 0.85923 0.0
H1011 H 0.08164 0.46446 0.78892 0.0
H1012 H 0.04944 0.44528 0.75163 0.0
H1013 H 0.99845 0.38822 0.80733 0.0
H1014 H 0.03059 0.40686 0.84487 0.0
H1015 H 0.08295 0.54707 0.94379 0.0
H1016 H 0.10322 0.52348 0.90598 0.0
H1017 H 0.03901 0.45046 0.92208 0.0
H1018 H 0.01836 0.47417 0.95966 0.0
H1019 H 0.04516 0.45872 0.86801 0.0
H1020 H 0.10657 0.45717 0.93956 0.0
H1021 H 0.1382 0.47548 0.97749 0.0
H1022 H 0.19541 0.52691 0.921 0.0
H1023 H 0.16391 0.5092 0.88278 0.0
C1024 C 0.12243 0.40325 0.77941 0.0
C1025 C 0.14349 0.42122 0.76397 0.0
C1026 C 0.1107 0.41216 0.8041 0.0
C1027 C 0.11992 0.43911 0.81375 0.0
C1028 C 0.14128 0.45687 0.79855 0.0
C1029 C 0.15281 0.44805 0.77384 0.0
C1030 C 0.10706 0.44919 0.83933 0.0
C1031 C 0.12443 0.4607 0.8611 0.0
C1032 C 0.07802 0.448 0.84212 0.0
C1033 C 0.05869 0.43683 0.81959 0.0
C1034 C 0.0637 0.44767 0.79314 0.0
C1035 C 0.04544 0.43693 0.77198 0.0
C1036 C 0.02197 0.41548 0.77708 0.0
C1037 C 0.01667 0.40479 0.80339 0.0
C1038 C 0.03489 0.41544 0.82462 0.0
C1039 C 0.07327 0.52595 0.93937 0.0
C1040 C 0.04913 0.51244 0.95467 0.0
C1041 C 0.08494 0.51243 0.91784 0.0
C1042 C 0.07283 0.48508 0.91133 0.0
C1043 C 0.04876 0.47153 0.92673 0.0
C1044 C 0.03705 0.48506 0.94826 0.0
C1045 C 0.08476 0.47104 0.8878 0.0
C1046 C 0.06723 0.45878 0.86637 0.0
C1047 C 0.11362 0.47133 0.88544 0.0
C1048 C 0.13274 0.48199 0.90833 0.0
C1049 C 0.12579 0.47253 0.93525 0.0
C1050 C 0.14372 0.48278 0.9568 0.0
C1051 C 0.16878 0.50239 0.95167 0.0
C1052 C 0.17599 0.51174 0.92495 0.0
C1053 C 0.15811 0.50157 0.90332 0.0
H1054 H 0.18263 0.5103 0.96838 0.0
H1055 H 0.00785 0.4072 0.76067 0.0
H1056 H 0.65102 0.83554 0.83126 0.0
H1057 H 0.62242 0.8659 0.84863 0.0
H1058 H 0.64559 0.85878 0.93199 0.0
H1059 H 0.67395 0.82816 0.91473 0.0
H1060 H 0.59208 0.85986 0.93228 0.0
H1061 H 0.67952 0.91228 0.89372 0.0
H1062 H 0.7174 0.9256 0.85764 0.0
H1063 H 0.65905 0.94407 0.8041 0.0
H1064 H 0.62071 0.93045 0.83973 0.0
H1065 H 0.59011 1.0067 0.96613 0.0
H1066 H 0.6132 0.97448 0.94258 0.0
H1067 H 0.5323 0.92085 0.92606 0.0
H1068 H 0.50895 0.95287 0.94993 0.0
H1069 H 0.61439 0.95017 0.89219 0.0
H1070 H 0.53565 0.85692 0.93785 0.0
H1071 H 0.50201 0.84606 0.97804 0.0
H1072 H 0.55095 0.91345 0.02483 0.0
H1073 H 0.58504 0.92445 0.98509 0.0
C1074 C 0.64985 0.84033 0.85331 0.0
C1075 C 0.66489 0.82965 0.87162 0.0
C1076 C 0.63351 0.85766 0.86321 0.0
C1077 C 0.63223 0.86497 0.89156 0.0
C1078 C 0.64626 0.85343 0.91003 0.0
C1079 C 0.66244 0.83591 0.90016 0.0
C1080 C 0.61749 0.88568 0.90178 0.0
C1081 C 0.59683 0.87952 0.92337 0.0
C1082 C 0.62413 0.9116 0.89063 0.0
C1083 C 0.64719 0.92008 0.86928 0.0
C1084 C 0.67473 0.91901 0.87418 0.0
C1085 C 0.69628 0.92662 0.85382 0.0
C1086 C 0.69062 0.9356 0.82857 0.0
C1087 C 0.6634 0.93706 0.82366 0.0
C1088 C 0.64175 0.92941 0.84393 0.0
C1089 C 0.57718 0.98826 0.95709 0.0
C1090 C 0.54768 0.98221 0.9602 0.0
C1091 C 0.59044 0.96989 0.94357 0.0
C1092 C 0.57448 0.94508 0.93299 0.0
C1093 C 0.54501 0.93971 0.93447 0.0
C1094 C 0.53171 0.9581 0.94801 0.0
C1095 C 0.5887 0.92417 0.92232 0.0
C1096 C 0.60935 0.93035 0.90077 0.0
C1097 C 0.58268 0.89857 0.93409 0.0
C1098 C 0.5627 0.89166 0.95837 0.0
C1099 C 0.53928 0.86933 0.95676 0.0
C1100 C 0.52013 0.86317 0.97946 0.0
C1101 C 0.52427 0.87913 1.00394 0.0
C1102 C 0.54768 0.90117 1.00583 0.0
C1103 C 0.56691 0.90739 0.98322 0.0
H1104 H 0.50939 0.87438 0.02146 0.0
H1105 H 0.70733 0.94149 0.81283 0.0
H1106 H 0.8091 0.15826 0.45038 0.0
H1107 H 0.83747 0.13522 0.47447 0.0
H1108 H 0.89415 0.21153 0.4968 0.0
H1109 H 0.86562 0.23498 0.47243 0.0
H1110 H 0.92139 0.17365 0.47487 0.0
H1111 H 0.85232 0.17961 0.54622 0.0
H1112 H 0.80449 0.17611 0.56655 0.0
H1113 H 0.78233 0.09088 0.54816 0.0
H1114 H 0.82989 0.09391 0.52734 0.0
H1115 H 0.95464 0.0765 0.57855 0.0
H1116 H 0.93278 0.11254 0.56872 0.0
H1117 H 0.92726 0.08473 0.48297 0.0
H1118 H 0.94843 0.04832 0.49278 0.0
H1119 H 0.87974 0.1072 0.54627 0.0
H1120 H 0.94537 0.13959 0.44491 0.0
H1121 H 0.99413 0.14667 0.42562 0.0
H1122 H 0.02483 0.15979 0.50774 0.0
H1123 H 0.97626 0.15233 0.52756 0.0
C1124 C 0.82755 0.17022 0.46041 0.0
C1125 C 0.83532 0.19842 0.45951 0.0
C1126 C 0.84362 0.15702 0.47434 0.0
C1127 C 0.86763 0.17175 0.48765 0.0
C1128 C 0.87555 0.19991 0.48673 0.0
C1129 C 0.85933 0.21321 0.47287 0.0
C1130 C 0.88492 0.15727 0.50134 0.0
C1131 C 0.91244 0.15935 0.49072 0.0
C1132 C 0.87327 0.13903 0.52235 0.0
C1133 C 0.84468 0.13703 0.53511 0.0
C1134 C 0.8372 0.16014 0.54636 0.0
C1135 C 0.81014 0.15824 0.55799 0.0
C1136 C 0.79038 0.13329 0.55863 0.0
C1137 C 0.79766 0.11019 0.54767 0.0
C1138 C 0.82469 0.11198 0.53599 0.0
C1139 C 0.94853 0.07799 0.55767 0.0
C1140 C 0.95332 0.05986 0.53632 0.0
C1141 C 0.93625 0.0986 0.5521 0.0
C1142 C 0.92899 0.10146 0.52507 0.0
C1143 C 0.93327 0.08305 0.50386 0.0
C1144 C 0.94518 0.06225 0.50949 0.0
C1145 C 0.91571 0.12289 0.51898 0.0
C1146 C 0.88889 0.12196 0.5309 0.0
C1147 C 0.92808 0.14236 0.49938 0.0
C1148 C 0.95718 0.14535 0.48769 0.0
C1149 C 0.96253 0.14384 0.45884 0.0
C1150 C 0.99011 0.14783 0.44784 0.0
C1151 C 0.01253 0.15365 0.46547 0.0
C1152 C 0.00741 0.15504 0.49415 0.0
C1153 C 0.97985 0.15079 0.50529 0.0
H1154 H 0.03389 0.15727 0.45689 0.0
H1155 H 0.76943 0.13186 0.56763 0.0
H1156 H 0.31603 0.68143 0.12298 0.0
H1157 H 0.27276 0.6583 0.10051 0.0
H1158 H 0.23373 0.632 0.17978 0.0
H1159 H 0.27742 0.65456 0.20228 0.0
H1160 H 0.21555 0.59324 0.14495 0.0
H1161 H 0.22071 0.68719 0.14282 0.0
H1162 H 0.24274 0.73474 0.13296 0.0
H1163 H 0.24838 0.71383 0.04604 0.0
H1164 H 0.22669 0.66609 0.05543 0.0
H1165 H 0.08106 0.60434 0.06816 0.0
H1166 H 0.12489 0.62518 0.09087 0.0
H1167 H 0.15352 0.55351 0.07185 0.0
H1168 H 0.10917 0.53225 0.05014 0.0
H1169 H 0.17603 0.64169 0.07815 0.0
H1170 H 0.20123 0.54584 0.11507 0.0
H1171 H 0.17608 0.50031 0.12968 0.0
H1172 H 0.10361 0.52877 0.15557 0.0
H1173 H 0.12837 0.57445 0.14131 0.0
C1174 C 0.29826 0.67084 0.13576 0.0
C1175 C 0.30049 0.67026 0.16467 0.0
C1176 C 0.27325 0.65756 0.12279 0.0
C1177 C 0.24921 0.64363 0.13824 0.0
C1178 C 0.25161 0.64249 0.16706 0.0
C1179 C 0.27679 0.65549 0.18002 0.0
C1180 C 0.2217 0.63061 0.12449 0.0
C1181 C 0.20707 0.60394 0.13031 0.0
C1182 C 0.20971 0.6443 0.10564 0.0
C1183 C 0.22231 0.67304 0.09986 0.0
C1184 C 0.22677 0.69272 0.12162 0.0
C1185 C 0.23919 0.7197 0.11611 0.0
C1186 C 0.24703 0.72729 0.0889 0.0
C1187 C 0.24233 0.70792 0.06711 0.0
C1188 C 0.22995 0.6809 0.07251 0.0
C1189 C 0.09662 0.59291 0.06882 0.0
C1190 C 0.09114 0.56636 0.05738 0.0
C1191 C 0.12194 0.60496 0.08187 0.0
C1192 C 0.14292 0.59106 0.08383 0.0
C1193 C 0.13775 0.56474 0.07168 0.0
C1194 C 0.11221 0.55251 0.059 0.0
C1195 C 0.16999 0.60418 0.09834 0.0
C1196 C 0.18454 0.63091 0.09269 0.0
C1197 C 0.18147 0.5908 0.11791 0.0
C1198 C 0.16658 0.56349 0.12691 0.0
C1199 C 0.17997 0.54238 0.12398 0.0
C1200 C 0.16577 0.51655 0.13216 0.0
C1201 C 0.13826 0.51166 0.14352 0.0
C1202 C 0.12489 0.53258 0.14671 0.0
C1203 C 0.13898 0.55842 0.13856 0.0
H1204 H 0.12733 0.4917 0.14993 0.0
H1205 H 0.25668 0.74818 0.08468 0.0
H1206 H 0.20816 0.38581 0.60972 0.0
H1207 H 0.25181 0.40905 0.58532 0.0
H1208 H 0.28965 0.4353 0.66354 0.0
H1209 H 0.24606 0.41183 0.68816 0.0
H1210 H 0.30373 0.47531 0.62425 0.0
H1211 H 0.30264 0.38181 0.63039 0.0
H1212 H 0.28216 0.33287 0.62462 0.0
H1213 H 0.28046 0.34013 0.53676 0.0
H1214 H 0.30053 0.3892 0.54207 0.0
H1215 H 0.44798 0.50081 0.57851 0.0
H1216 H 0.40175 0.48451 0.60194 0.0
H1217 H 0.36584 0.45598 0.52328 0.0
H1218 H 0.41206 0.47235 0.49971 0.0
H1219 H 0.35022 0.41799 0.56226 0.0
H1220 H 0.35185 0.51004 0.55461 0.0
H1221 H 0.37286 0.5588 0.55856 0.0
H1222 H 0.37329 0.55499 0.647 0.0
H1223 H 0.35265 0.50586 0.64348 0.0
C1224 C 0.22575 0.39655 0.62175 0.0
C1225 C 0.22376 0.3967 0.65088 0.0
C1226 C 0.25063 0.40992 0.60778 0.0
C1227 C 0.27406 0.4236 0.62263 0.0
C1228 C 0.27178 0.42486 0.6517 0.0
C1229 C 0.24686 0.41147 0.66573 0.0
C1230 C 0.30141 0.43507 0.60779 0.0
C1231 C 0.31408 0.46276 0.61095 0.0
C1232 C 0.31456 0.41876 0.58994 0.0
C1233 C 0.30284 0.38921 0.58667 0.0
C1234 C 0.29772 0.37299 0.60986 0.0
C1235 C 0.2862 0.34523 0.60667 0.0
C1236 C 0.27994 0.33341 0.58035 0.0
C1237 C 0.28528 0.34932 0.55715 0.0
C1238 C 0.29674 0.37711 0.56023 0.0
C1239 C 0.43016 0.49138 0.56618 0.0
C1240 C 0.43355 0.48788 0.5373 0.0
C1241 C 0.40377 0.48207 0.57959 0.0
C1242 C 0.38034 0.46912 0.56433 0.0
C1243 C 0.38366 0.46587 0.53543 0.0
C1244 C 0.41003 0.47529 0.52201 0.0
C1245 C 0.35258 0.45823 0.57865 0.0
C1246 C 0.33986 0.43059 0.57547 0.0
C1247 C 0.33935 0.47461 0.5963 0.0
C1248 C 0.35095 0.50423 0.59875 0.0
C1249 C 0.35656 0.51955 0.5749 0.0
C1250 C 0.36842 0.54729 0.57707 0.0
C1251 C 0.37452 0.56007 0.60301 0.0
C1252 C 0.3686 0.54508 0.62689 0.0
C1253 C 0.35679 0.51726 0.62483 0.0
H1254 H 0.38378 0.58157 0.60461 0.0
H1255 H 0.27102 0.31191 0.57792 0.0
H1256 H 0.72428 0.73127 0.92003 0.0
H1257 H 0.75467 0.7087 0.94251 0.0
H1258 H 0.77645 0.67524 0.86304 0.0
H1259 H 0.74546 0.69707 0.84071 0.0
H1260 H 0.77036 0.63909 0.90018 0.0
H1261 H 0.81961 0.73254 0.89433 0.0
H1262 H 0.82629 0.78152 0.90193 0.0
H1263 H 0.81855 0.77246 0.98999 0.0
H1264 H 0.81144 0.72333 0.98289 0.0
H1265 H 0.90592 0.62074 0.92276 0.0
H1266 H 0.86662 0.63658 0.90745 0.0
H1267 H 0.84102 0.65037 0.99263 0.0
H1268 H 0.88012 0.63416 1.00808 0.0
H1269 H 0.84634 0.69483 0.957 0.0
H1270 H 0.80199 0.60048 0.96093 0.0
H1271 H 0.7968 0.55196 0.9512 0.0
H1272 H 0.79804 0.5636 0.86388 0.0
H1273 H 0.80367 0.6123 0.87304 0.0
C1274 C 0.73534 0.71887 0.90744 0.0
C1275 C 0.73271 0.716 0.8786 0.0
C1276 C 0.75281 0.70609 0.92027 0.0
C1277 C 0.76825 0.69062 0.90441 0.0
C1278 C 0.76481 0.68707 0.87573 0.0
C1279 C 0.74716 0.69959 0.86298 0.0
C1280 C 0.78877 0.67887 0.91731 0.0
C1281 C 0.78709 0.65135 0.91243 0.0
C1282 C 0.81033 0.69471 0.93375 0.0
C1283 C 0.81466 0.72424 0.93807 0.0
C1284 C 0.81911 0.74097 0.91531 0.0
C1285 C 0.82301 0.76876 0.91953 0.0
C1286 C 0.82275 0.78009 0.94643 0.0
C1287 C 0.81868 0.76365 0.96917 0.0
C1288 C 0.81472 0.73583 0.96506 0.0
C1289 C 0.8918 0.62703 0.93818 0.0
C1290 C 0.89596 0.62624 0.96656 0.0
C1291 C 0.86934 0.63593 0.92944 0.0
C1292 C 0.8509 0.6445 0.94894 0.0
C1293 C 0.855 0.64373 0.97731 0.0
C1294 C 0.87719 0.6344 0.98608 0.0
C1295 C 0.82805 0.65524 0.93953 0.0
C1296 C 0.82939 0.68257 0.94502 0.0
C1297 C 0.80646 0.63933 0.9233 0.0
C1298 C 0.80348 0.6101 0.91768 0.0
C1299 C 0.80147 0.59276 0.93963 0.0
C1300 C 0.79838 0.56521 0.93422 0.0
C1301 C 0.79711 0.55472 0.90694 0.0
C1302 C 0.79902 0.57177 0.885 0.0
C1303 C 0.80214 0.59934 0.89029 0.0
H1304 H 0.79449 0.53337 0.90283 0.0
H1305 H 0.82578 0.80161 0.94965 0.0
H1306 H 0.34285 0.76786 0.17314 0.0
H1307 H 0.36443 0.811 0.15241 0.0
H1308 H 0.44457 0.79142 0.14619 0.0
H1309 H 0.42301 0.74842 0.16807 0.0
H1310 H 0.45518 0.84199 0.15705 0.0
H1311 H 0.39757 0.7878 0.08837 0.0
H1312 H 0.35391 0.75889 0.06979 0.0
H1313 H 0.31319 0.82305 0.08473 0.0
H1314 H 0.35651 0.85225 0.10376 0.0
H1315 H 0.51989 0.93882 0.05747 0.0
H1316 H 0.49734 0.89714 0.08053 0.0
H1317 H 0.42169 0.92404 0.09538 0.0
H1318 H 0.44441 0.96612 0.07189 0.0
H1319 H 0.40843 0.87048 0.0803 0.0
H1320 H 0.46776 0.92481 0.148 0.0
H1321 H 0.51222 0.95301 0.16567 0.0
H1322 H 0.55079 0.88735 0.15061 0.0
H1323 H 0.50665 0.85886 0.1325 0.0
C1324 C 0.36514 0.77268 0.1675 0.0
C1325 C 0.38098 0.75421 0.17228 0.0
C1326 C 0.37755 0.79751 0.15528 0.0
C1327 C 0.40626 0.80475 0.14659 0.0
C1328 C 0.42239 0.78672 0.15227 0.0
C1329 C 0.41001 0.76196 0.16496 0.0
C1330 C 0.41923 0.83083 0.13165 0.0
C1331 C 0.44499 0.84784 0.14003 0.0
C1332 C 0.40615 0.83946 0.10957 0.0
C1333 C 0.38021 0.82212 0.09774 0.0
C1334 C 0.37926 0.7957 0.08782 0.0
C1335 C 0.35457 0.77926 0.0772 0.0
C1336 C 0.33076 0.7891 0.07615 0.0
C1337 C 0.33163 0.81545 0.0856 0.0
C1338 C 0.35626 0.83196 0.09628 0.0
C1339 C 0.49844 0.93604 0.06563 0.0
C1340 C 0.48421 0.95626 0.06286 0.0
C1341 C 0.48549 0.91201 0.07905 0.0
C1342 C 0.45772 0.90713 0.09042 0.0
C1343 C 0.44313 0.92701 0.08709 0.0
C1344 C 0.45619 0.95124 0.07365 0.0
C1345 C 0.4443 0.88145 0.10571 0.0
C1346 C 0.41852 0.86455 0.09736 0.0
C1347 C 0.45748 0.87277 0.1276 0.0
C1348 C 0.48397 0.88978 0.13868 0.0
C1349 C 0.48578 0.91644 0.14829 0.0
C1350 C 0.51092 0.93247 0.15841 0.0
C1351 C 0.53434 0.922 0.1592 0.0
C1352 C 0.53264 0.89545 0.14996 0.0
C1353 C 0.50756 0.87934 0.13979 0.0
H1354 H 0.55378 0.93444 0.16703 0.0
H1355 H 0.31165 0.77633 0.06796 0.0
H1356 H 0.10624 0.31098 0.66615 0.0
H1357 H 0.08679 0.26549 0.64654 0.0
H1358 H 0.17067 0.25603 0.62949 0.0
H1359 H 0.19023 0.30107 0.64956 0.0
H1360 H 0.13796 0.24072 0.58464 0.0
H1361 H 0.13155 0.22453 0.68218 0.0
H1362 H 0.11751 0.23161 0.73123 0.0
H1363 H 0.03058 0.20956 0.71122 0.0
H1364 H 0.04413 0.2027 0.66196 0.0
H1365 H 0.07252 0.08548 0.59156 0.0
H1366 H 0.09405 0.12925 0.61396 0.0
H1367 H 0.06323 0.16922 0.55113 0.0
H1368 H 0.04246 0.12584 0.52833 0.0
H1369 H 0.07171 0.16841 0.63675 0.0
H1370 H 0.10826 0.22844 0.53835 0.0
H1371 H 0.12185 0.21996 0.48942 0.0
H1372 H 0.15123 0.1528 0.51218 0.0
H1373 H 0.13814 0.16108 0.56126 0.0
C1374 C 0.12054 0.29908 0.65862 0.0
C1375 C 0.14982 0.30981 0.6593 0.0
C1376 C 0.10939 0.27312 0.64729 0.0
C1377 C 0.1273 0.25739 0.6365 0.0
C1378 C 0.15647 0.2679 0.63747 0.0
C1379 C 0.16761 0.29372 0.64889 0.0
C1380 C 0.11575 0.2301 0.62381 0.0
C1381 C 0.1235 0.22492 0.59605 0.0
C1382 C 0.09707 0.20938 0.63873 0.0
C1383 C 0.08887 0.21334 0.66835 0.0
C1384 C 0.10945 0.22138 0.68821 0.0
C1385 C 0.10158 0.22533 0.71605 0.0
C1386 C 0.07318 0.2211 0.72433 0.0
C1387 C 0.05258 0.21285 0.70478 0.0
C1388 C 0.06034 0.20891 0.6769 0.0
C1389 C 0.07054 0.10361 0.5824 0.0
C1390 C 0.05592 0.10217 0.55803 0.0
C1391 C 0.08271 0.1286 0.59532 0.0
C1392 C 0.08051 0.15255 0.58409 0.0
C1393 C 0.06566 0.15109 0.55994 0.0
C1394 C 0.05371 0.12621 0.54695 0.0
C1395 C 0.09372 0.17912 0.59753 0.0
C1396 C 0.08624 0.1842 0.62537 0.0
C1397 C 0.11282 0.19969 0.58274 0.0
C1398 C 0.12204 0.1953 0.55346 0.0
C1399 C 0.11784 0.21201 0.53294 0.0
C1400 C 0.12539 0.20719 0.50517 0.0
C1401 C 0.13731 0.18581 0.49768 0.0
C1402 C 0.14191 0.16931 0.51799 0.0
C1403 C 0.13443 0.17406 0.54578 0.0
H1404 H 0.14301 0.18203 0.47616 0.0
H1405 H 0.06713 0.22417 0.74589 0.0
H1406 H 0.73915 0.25151 0.47691 0.0
H1407 H 0.72411 0.29012 0.49829 0.0
H1408 H 0.72124 0.32018 0.41724 0.0
H1409 H 0.73662 0.28193 0.39584 0.0
H1410 H 0.74279 0.36096 0.45683 0.0
H1411 H 0.66349 0.28136 0.44625 0.0
H1412 H 0.63815 0.23431 0.45499 0.0
H1413 H 0.63815 0.25252 0.5427 0.0
H1414 H 0.66385 0.29963 0.53443 0.0
H1415 H 0.63438 0.41904 0.43686 0.0
H1416 H 0.66913 0.39324 0.43995 0.0
H1417 H 0.64843 0.38475 0.52752 0.0
H1418 H 0.61313 0.41042 0.52441 0.0
H1419 H 0.64627 0.33697 0.50029 0.0
H1420 H 0.71291 0.42058 0.50808 0.0
H1421 H 0.73645 0.4677 0.49794 0.0
H1422 H 0.75979 0.44308 0.41565 0.0
H1423 H 0.73602 0.39585 0.4251 0.0
C1424 C 0.7358 0.26666 0.46375 0.0
C1425 C 0.73873 0.26371 0.43474 0.0
C1426 C 0.72722 0.28861 0.47596 0.0
C1427 C 0.72152 0.30784 0.45929 0.0
C1428 C 0.72568 0.30556 0.43041 0.0
C1429 C 0.73411 0.28359 0.41821 0.0
C1430 C 0.70838 0.32885 0.47128 0.0
C1431 C 0.72177 0.35588 0.46652 0.0
C1432 C 0.68141 0.32211 0.48483 0.0
C1433 C 0.66591 0.29386 0.48976 0.0
C1434 C 0.65829 0.27525 0.4674 0.0
C1435 C 0.64383 0.2486 0.47226 0.0
C1436 C 0.63664 0.24041 0.49939 0.0
C1437 C 0.64381 0.25888 0.5217 0.0
C1438 C 0.65832 0.28555 0.51695 0.0
C1439 C 0.63739 0.41184 0.4568 0.0
C1440 C 0.62099 0.41646 0.48034 0.0
C1441 C 0.65748 0.39743 0.45864 0.0
C1442 C 0.66159 0.38745 0.48406 0.0
C1443 C 0.64572 0.39257 0.50781 0.0
C1444 C 0.62566 0.40719 0.506 0.0
C1445 C 0.6801 0.36907 0.48461 0.0
C1446 C 0.66774 0.34241 0.49169 0.0
C1447 C 0.70798 0.37621 0.47317 0.0
C1448 C 0.7226 0.4046 0.46733 0.0
C1449 C 0.72293 0.4252 0.48776 0.0
C1450 C 0.73633 0.45195 0.48214 0.0
C1451 C 0.7496 0.45838 0.45617 0.0
C1452 C 0.74954 0.43807 0.43578 0.0
C1453 C 0.73614 0.41128 0.44128 0.0
H1454 H 0.75995 0.47911 0.45185 0.0
H1455 H 0.62543 0.21977 0.50311 0.0
loop_
_geom_bond_atom_site_label_1
_geom_bond_atom_site_label_2
_geom_bond_distance
_geom_bond_site_symmetry_2
_ccdc_geom_bond_type
H0 C5 0.930 . S
H1 C8 0.930 . S
H2 C10 0.930 . S
H3 C4 1.016 . S
C4 H3 1.016 . S
C4 N11 1.286 . S
C5 H0 0.930 . S
C5 C6 1.397 . S
C5 C7 1.361 . S
C6 C5 1.397 . S
C6 C10 1.390 . S
C7 C5 1.361 . S
C7 C8 1.393 . S
C7 N11 1.413 . S
C8 H1 0.930 . S
C8 C7 1.393 . S
C8 C9 1.399 . S
C9 C8 1.399 . S
C9 C10 1.381 . S
C10 H2 0.930 . S
C10 C6 1.390 . S
C10 C9 1.381 . S
N11 C4 1.286 . S
N11 C7 1.413 . S
H12 C17 0.930 . S
H13 C20 0.930 . S
H14 C22 0.930 . S
H15 C16 1.016 . S
C16 H15 1.016 . S
C16 N23 1.286 . S
C17 H12 0.930 . S
C17 C18 1.397 . S
C17 C19 1.361 . S
C18 C17 1.397 . S
C18 C22 1.390 . S
C19 C17 1.361 . S
C19 C20 1.393 . S
C19 N23 1.413 . S
C20 H13 0.930 . S
C20 C19 1.393 . S
C20 C21 1.399 . S
C21 C20 1.399 . S
C21 C22 1.381 . S
C22 H14 0.930 . S
C22 C18 1.390 . S
C22 C21 1.381 . S
N23 C16 1.286 . S
N23 C19 1.413 . S
H24 C29 0.930 . S
H25 C32 0.930 . S
H26 C34 0.930 . S
H27 C28 1.016 . S
C28 H27 1.016 . S
C28 N35 1.286 . S
C29 H24 0.930 . S
C29 C30 1.397 . S
C29 C31 1.361 . S
C30 C29 1.397 . S
C30 C34 1.390 . S
C31 C29 1.361 . S
C31 C32 1.393 . S
C31 N35 1.413 . S
C32 H25 0.930 . S
C32 C31 1.393 . S
C32 C33 1.399 . S
C33 C32 1.399 . S
C33 C34 1.381 . S
C34 H26 0.930 . S
C34 C30 1.390 . S
C34 C33 1.381 . S
N35 C28 1.286 . S
N35 C31 1.413 . S
H36 C41 0.930 . S
H37 C44 0.930 . S
H38 C46 0.930 . S
H39 C40 1.016 . S
C40 H39 1.016 . S
C40 N47 1.286 . S
C41 H36 0.930 . S
C41 C42 1.397 . S
C41 C43 1.361 . S
C42 C41 1.397 . S
C42 C46 1.390 . S
C43 C41 1.361 . S
C43 C44 1.393 . S
C43 N47 1.413 . S
C44 H37 0.930 . S
C44 C43 1.393 . S
C44 C45 1.399 . S
C45 C44 1.399 . S
C45 C46 1.381 . S
C46 H38 0.930 . S
C46 C42 1.390 . S
C46 C45 1.381 . S
N47 C40 1.286 . S
N47 C43 1.413 . S
H48 C53 0.930 . S
H49 C56 0.930 . S
H50 C58 0.930 . S
H51 C52 1.016 . S
C52 H51 1.016 . S
C52 N59 1.286 . S
C53 H48 0.930 . S
C53 C54 1.397 . S
C53 C55 1.361 . S
C54 C53 1.397 . S
C54 C58 1.390 . S
C55 C53 1.361 . S
C55 C56 1.393 . S
C55 N59 1.413 . S
C56 H49 0.930 . S
C56 C55 1.393 . S
C56 C57 1.399 . S
C57 C56 1.399 . S
C57 C58 1.381 . S
C58 H50 0.930 . S
C58 C54 1.390 . S
C58 C57 1.381 . S
N59 C52 1.286 . S
N59 C55 1.413 . S
H60 C65 0.930 . S
H61 C68 0.930 . S
H62 C70 0.930 . S
H63 C64 1.016 . S
C64 H63 1.016 . S
C64 N71 1.286 . S
C65 H60 0.930 . S
C65 C66 1.397 . S
C65 C67 1.361 . S
C66 C65 1.397 . S
C66 C70 1.390 . S
C67 C65 1.361 . S
C67 C68 1.393 . S
C67 N71 1.413 . S
C68 H61 0.930 . S
C68 C67 1.393 . S
C68 C69 1.399 . S
C69 C68 1.399 . S
C69 C70 1.381 . S
C70 H62 0.930 . S
C70 C66 1.390 . S
C70 C69 1.381 . S
N71 C64 1.286 . S
N71 C67 1.413 . S
H72 C77 0.930 . S
H73 C80 0.930 . S
H74 C82 0.930 . S
H75 C76 1.016 . S
C76 H75 1.016 . S
C76 N83 1.286 . S
C77 H72 0.930 . S
C77 C78 1.397 . S
C77 C79 1.361 . S
C78 C77 1.397 . S
C78 C82 1.390 . S
C79 C77 1.361 . S
C79 C80 1.393 . S
C79 N83 1.413 . S
C80 H73 0.930 . S
C80 C79 1.393 . S
C80 C81 1.399 . S
C81 C80 1.399 . S
C81 C82 1.381 . S
C82 H74 0.930 . S
C82 C78 1.390 . S
C82 C81 1.381 . S
N83 C76 1.286 . S
N83 C79 1.413 . S
H84 C89 0.930 . S
H85 C92 0.930 . S
H86 C94 0.930 . S
H87 C88 1.016 . S
C88 H87 1.016 . S
C88 N95 1.286 . S
C89 H84 0.930 . S
C89 C90 1.397 . S
C89 C91 1.361 . S
C90 C89 1.397 . S
C90 C94 1.390 . S
C91 C89 1.361 . S
C91 C92 1.393 . S
C91 N95 1.413 . S
C92 H85 0.930 . S
C92 C91 1.393 . S
C92 C93 1.399 . S
C93 C92 1.399 . S
C93 C94 1.381 . S
C94 H86 0.930 . S
C94 C90 1.390 . S
C94 C93 1.381 . S
N95 C88 1.286 . S
N95 C91 1.413 . S
Gd96 C99 2.818 . S
Gd96 O116 2.377 . S
Gd96 O118 2.448 . S
Gd96 O119 2.506 . S
Gd96 O120 2.435 1_545 S
Gd96 O121 2.717 1_545 S
Gd96 O123 2.395 1_445 S
Gd96 O127 2.327 1_455 S
Gd97 C108 2.818 . S
Gd97 O117 2.395 1_665 S
Gd97 O121 2.327 1_655 S
Gd97 O122 2.377 . S
Gd97 O124 2.448 . S
Gd97 O125 2.506 . S
Gd97 O126 2.435 1_565 S
Gd97 O127 2.717 1_565 S
C98 O116 1.240 . S
C98 O117 1.240 . S
C99 Gd96 2.818 . S
C99 C100 1.510 . S
C99 O118 1.249 . S
C99 O119 1.252 . S
C100 C99 1.510 . S
C100 C101 1.404 . S
C100 C102 1.352 . S
C101 C100 1.404 . S
C101 C105 1.389 . S
C101 H128 0.930 . S
C102 C100 1.352 . S
C102 C104 1.374 . S
C102 H129 0.931 . S
C103 C104 1.359 . S
C103 C105 1.364 . S
C104 C102 1.374 . S
C104 C103 1.359 . S
C104 H130 0.931 . S
C105 C101 1.389 . S
C105 C103 1.364 . S
C105 H131 0.931 . S
C106 O120 1.256 . S
C106 O121 1.257 . S
C107 O122 1.240 . S
C107 O123 1.240 . S
C108 Gd97 2.818 . S
C108 C109 1.510 . S
C108 O124 1.249 . S
C108 O125 1.252 . S
C109 C108 1.510 . S
C109 C110 1.404 . S
C109 C111 1.352 . S
C110 C109 1.404 . S
C110 C114 1.389 . S
C110 H132 0.930 . S
C111 C109 1.352 . S
C111 C113 1.374 . S
C111 H133 0.931 . S
C112 C113 1.359 . S
C112 C114 1.364 . S
C113 C111 1.374 . S
C113 C112 1.359 . S
C113 H134 0.931 . S
C114 C110 1.389 . S
C114 C112 1.364 . S
C114 H135 0.931 . S
C115 O126 1.256 . S
C115 O127 1.257 . S
O116 Gd96 2.377 . S
O116 C98 1.240 . S
O117 Gd97 2.395 1_445 S
O117 C98 1.240 . S
O118 Gd96 2.448 . S
O118 C99 1.249 . S
O119 Gd96 2.506 . S
O119 C99 1.252 . S
O120 Gd96 2.435 1_565 S
O120 C106 1.256 . S
O121 Gd96 2.717 1_565 S
O121 Gd97 2.327 1_455 S
O121 C106 1.257 . S
O122 Gd97 2.377 . S
O122 C107 1.240 . S
O123 Gd96 2.395 1_665 S
O123 C107 1.240 . S
O124 Gd97 2.448 . S
O124 C108 1.249 . S
O125 Gd97 2.506 . S
O125 C108 1.252 . S
O126 Gd97 2.435 1_545 S
O126 C115 1.256 . S
O127 Gd96 2.327 1_655 S
O127 Gd97 2.717 1_545 S
O127 C115 1.257 . S
H128 C101 0.930 . S
H129 C102 0.931 . S
H130 C104 0.931 . S
H131 C105 0.931 . S
H132 C110 0.930 . S
H133 C111 0.931 . S
H134 C113 0.931 . S
H135 C114 0.931 . S
Gd136 C139 2.818 . S
Gd136 O156 2.377 . S
Gd136 O158 2.448 . S
Gd136 O159 2.506 . S
Gd136 O160 2.435 1_545 S
Gd136 O161 2.717 1_545 S
Gd136 O163 2.395 1_544 S
Gd136 O167 2.296 1_554 S
Gd137 C148 2.818 1_545 S
Gd137 O157 2.395 1_556 S
Gd137 O161 2.327 1_546 S
Gd137 O162 2.377 1_545 S
Gd137 O164 2.448 1_545 S
Gd137 O165 2.506 1_545 S
Gd137 O166 2.435 . S
Gd137 O167 2.731 . S
C138 O156 1.240 . S
C138 O157 1.240 . S
C139 Gd136 2.818 . S
C139 C140 1.510 . S
C139 O158 1.249 . S
C139 O159 1.252 . S
C140 C139 1.510 . S
C140 C141 1.404 . S
C140 C142 1.352 . S
C141 C140 1.404 . S
C141 C145 1.389 . S
C141 H168 0.930 . S
C142 C140 1.352 . S
C142 C144 1.374 . S
C142 H169 0.931 . S
C143 C144 1.359 . S
C143 C145 1.364 . S
C144 C142 1.374 . S
C144 C143 1.359 . S
C144 H170 0.931 . S
C145 C141 1.389 . S
C145 C143 1.364 . S
C145 H171 0.931 . S
C146 O160 1.256 . S
C146 O161 1.257 . S
C147 O162 1.240 . S
C147 O163 1.240 . S
C148 Gd137 2.818 1_565 S
C148 C149 1.510 . S
C148 O164 1.249 . S
C148 O165 1.252 . S
C149 C148 1.510 . S
C149 C150 1.404 . S
C149 C151 1.352 . S
C150 C149 1.404 . S
C150 C154 1.389 . S
C150 H172 0.930 . S
C151 C149 1.352 . S
C151 C153 1.374 . S
C151 H173 0.931 . S
C152 C153 1.359 . S
C152 C154 1.364 . S
C153 C151 1.374 . S
C153 C152 1.359 . S
C153 H174 0.931 . S
C154 C150 1.389 . S
C154 C152 1.364 . S
C154 H175 0.931 . S
C155 O166 1.256 . S
C155 O167 1.292 . S
O156 Gd136 2.377 . S
O156 C138 1.240 . S
O157 Gd137 2.395 1_554 S
O157 C138 1.240 . S
O158 Gd136 2.448 . S
O158 C139 1.249 . S
O159 Gd136 2.506 . S
O159 C139 1.252 . S
O160 Gd136 2.435 1_565 S
O160 C146 1.256 . S
O161 Gd136 2.717 1_565 S
O161 Gd137 2.327 1_564 S
O161 C146 1.257 . S
O162 Gd137 2.377 1_565 S
O162 C147 1.240 . S
O163 Gd136 2.395 1_566 S
O163 C147 1.240 . S
O164 Gd137 2.448 1_565 S
O164 C148 1.249 . S
O165 Gd137 2.506 1_565 S
O165 C148 1.252 . S
O166 Gd137 2.435 . S
O166 C155 1.256 . S
O167 Gd136 2.296 1_556 S
O167 Gd137 2.731 . S
O167 C155 1.292 . S
H168 C141 0.930 . S
H169 C142 0.931 . S
H170 C144 0.931 . S
H171 C145 0.931 . S
H172 C150 0.930 . S
H173 C151 0.931 . S
H174 C153 0.931 . S
H175 C154 0.931 . S
Gd176 C179 2.818 . S
Gd176 O196 2.377 . S
Gd176 O198 2.448 . S
Gd176 O199 2.506 . S
Gd176 O200 2.435 . S
Gd176 O201 2.717 . S
Gd176 O203 2.395 . S
Gd176 O207 2.327 . S
Gd177 C188 2.818 . S
Gd177 O197 2.395 . S
Gd177 O201 2.327 . S
Gd177 O202 2.377 . S
Gd177 O204 2.448 . S
Gd177 O205 2.506 . S
Gd177 O206 2.435 . S
Gd177 O207 2.717 . S
C178 O196 1.240 . S
C178 O197 1.240 . S
C179 Gd176 2.818 . S
C179 C180 1.510 . S
C179 O198 1.249 . S
C179 O199 1.252 . S
C180 C179 1.510 . S
C180 C181 1.404 . S
C180 C182 1.352 . S
C181 C180 1.404 . S
C181 C185 1.389 . S
C181 H208 0.930 . S
C182 C180 1.352 . S
C182 C184 1.374 . S
C182 H209 0.931 . S
C183 C184 1.359 . S
C183 C185 1.364 . S
C184 C182 1.374 . S
C184 C183 1.359 . S
C184 H210 0.931 . S
C185 C181 1.389 . S
C185 C183 1.364 . S
C185 H211 0.931 . S
C186 O200 1.256 . S
C186 O201 1.257 . S
C187 O202 1.240 . S
C187 O203 1.240 . S
C188 Gd177 2.818 . S
C188 C189 1.510 . S
C188 O204 1.249 . S
C188 O205 1.252 . S
C189 C188 1.510 . S
C189 C190 1.404 . S
C189 C191 1.352 . S
C190 C189 1.404 . S
C190 C194 1.389 . S
C190 H212 0.930 . S
C191 C189 1.352 . S
C191 C193 1.374 . S
C191 H213 0.931 . S
C192 C193 1.359 . S
C192 C194 1.364 . S
C193 C191 1.374 . S
C193 C192 1.359 . S
C193 H214 0.931 . S
C194 C190 1.389 . S
C194 C192 1.364 . S
C194 H215 0.931 . S
C195 O206 1.256 . S
C195 O207 1.257 . S
O196 Gd176 2.377 . S
O196 C178 1.240 . S
O197 Gd177 2.395 . S
O197 C178 1.240 . S
O198 Gd176 2.448 . S
O198 C179 1.249 . S
O199 Gd176 2.506 . S
O199 C179 1.252 . S
O200 Gd176 2.435 . S
O200 C186 1.256 . S
O201 Gd176 2.717 . S
O201 Gd177 2.327 . S
O201 C186 1.257 . S
O202 Gd177 2.377 . S
O202 C187 1.240 . S
O203 Gd176 2.395 . S
O203 C187 1.240 . S
O204 Gd177 2.448 . S
O204 C188 1.249 . S
O205 Gd177 2.506 . S
O205 C188 1.252 . S
O206 Gd177 2.435 . S
O206 C195 1.256 . S
O207 Gd176 2.327 . S
O207 Gd177 2.717 . S
O207 C195 1.257 . S
H208 C181 0.930 . S
H209 C182 0.931 . S
H210 C184 0.931 . S
H211 C185 0.931 . S
H212 C190 0.930 . S
H213 C191 0.931 . S
H214 C193 0.931 . S
H215 C194 0.931 . S
Gd216 C219 2.818 . S
Gd216 O236 2.377 . S
Gd216 O238 2.448 . S
Gd216 O239 2.506 . S
Gd216 O240 2.435 1_455 S
Gd216 O241 2.717 1_455 S
Gd216 O243 2.395 1_454 S
Gd216 O247 2.327 1_554 S
Gd217 C228 2.818 1_455 S
Gd217 O237 2.395 1_556 S
Gd217 O241 2.327 1_456 S
Gd217 O242 2.377 1_455 S
Gd217 O244 2.448 1_455 S
Gd217 O245 2.506 1_455 S
Gd217 O246 2.435 . S
Gd217 O247 2.717 . S
C218 O236 1.240 . S
C218 O237 1.240 . S
C219 Gd216 2.818 . S
C219 C220 1.510 . S
C219 O238 1.249 . S
C219 O239 1.252 . S
C220 C219 1.510 . S
C220 C221 1.404 . S
C220 C222 1.352 . S
C221 C220 1.404 . S
C221 C225 1.389 . S
C221 H248 0.930 . S
C222 C220 1.352 . S
C222 C224 1.374 . S
C222 H249 0.931 . S
C223 C224 1.359 . S
C223 C225 1.364 . S
C224 C222 1.374 . S
C224 C223 1.359 . S
C224 H250 0.931 . S
C225 C221 1.389 . S
C225 C223 1.364 . S
C225 H251 0.931 . S
C226 O240 1.256 . S
C226 O241 1.257 . S
C227 O242 1.240 . S
C227 O243 1.240 . S
C228 Gd217 2.818 1_655 S
C228 C229 1.510 . S
C228 O244 1.249 . S
C228 O245 1.252 . S
C229 C228 1.510 . S
C229 C230 1.404 . S
C229 C231 1.352 . S
C230 C229 1.404 . S
C230 C234 1.389 . S
C230 H252 0.930 . S
C231 C229 1.352 . S
C231 C233 1.374 . S
C231 H253 0.931 . S
C232 C233 1.359 . S
C232 C234 1.364 . S
C233 C231 1.374 . S
C233 C232 1.359 . S
C233 H254 0.931 . S
C234 C230 1.389 . S
C234 C232 1.364 . S
C234 H255 0.931 . S
C235 O246 1.256 . S
C235 O247 1.257 . S
O236 Gd216 2.377 . S
O236 C218 1.240 . S
O237 Gd217 2.395 1_554 S
O237 C218 1.240 . S
O238 Gd216 2.448 . S
O238 C219 1.249 . S
O239 Gd216 2.506 . S
O239 C219 1.252 . S
O240 Gd216 2.435 1_655 S
O240 C226 1.256 . S
O241 Gd216 2.717 1_655 S
O241 Gd217 2.327 1_654 S
O241 C226 1.257 . S
O242 Gd217 2.377 1_655 S
O242 C227 1.240 . S
O243 Gd216 2.395 1_656 S
O243 C227 1.240 . S
O244 Gd217 2.448 1_655 S
O244 C228 1.249 . S
O245 Gd217 2.506 1_655 S
O245 C228 1.252 . S
O246 Gd217 2.435 . S
O246 C235 1.256 . S
O247 Gd216 2.327 1_556 S
O247 Gd217 2.717 . S
O247 C235 1.257 . S
H248 C221 0.930 . S
H249 C222 0.931 . S
H250 C224 0.931 . S
H251 C225 0.931 . S
H252 C230 0.930 . S
H253 C231 0.931 . S
H254 C233 0.931 . S
H255 C234 0.931 . S
H256 C274 0.951 . S
H257 C276 0.951 . S
H258 C278 0.950 . S
H259 C279 0.950 . S
H260 C281 0.950 . S
H261 C284 0.950 . S
H262 C285 0.950 . S
H263 C287 0.950 . S
H264 C288 0.950 . S
H265 C289 0.951 . S
H266 C291 0.951 . S
H267 C293 0.950 . S
H268 C294 0.950 . S
H269 C296 0.950 . S
H270 C299 0.950 . S
H271 C300 0.950 . S
H272 C302 0.950 . S
H273 C303 0.950 . S
C274 H256 0.951 . S
C274 C275 1.366 . S
C274 C276 1.388 . S
C275 C274 1.366 . S
C275 C279 1.385 . S
C276 H257 0.951 . S
C276 C274 1.388 . S
C276 C277 1.366 . S
C277 C276 1.366 . S
C277 C278 1.414 . S
C277 C280 1.499 . S
C278 H258 0.950 . S
C278 C277 1.414 . S
C278 C279 1.374 . S
C279 H259 0.950 . S
C279 C275 1.385 . S
C279 C278 1.374 . S
C280 C277 1.499 . S
C280 C281 1.373 . S
C280 C282 1.389 . S
C281 H260 0.950 . S
C281 C280 1.373 . S
C281 C297 1.377 . S
C282 C280 1.389 . S
C282 C283 1.524 . S
C282 C296 1.377 . S
C283 C282 1.524 . S
C283 C284 1.397 . S
C283 C288 1.363 . S
C284 H261 0.950 . S
C284 C283 1.397 . S
C284 C285 1.334 . S
C285 H262 0.950 . S
C285 C284 1.334 . S
C285 C286 1.287 . S
C286 C285 1.287 . S
C286 C287 1.524 . S
C286 H305 0.913 . S
C287 H263 0.950 . S
C287 C286 1.524 . S
C287 C288 1.415 . S
C288 H264 0.950 . S
C288 C283 1.363 . S
C288 C287 1.415 . S
C289 H265 0.951 . S
C289 C290 1.366 . S
C289 C291 1.388 . S
C290 C289 1.366 . S
C290 C294 1.385 . S
C291 H266 0.951 . S
C291 C289 1.388 . S
C291 C292 1.366 . S
C292 C291 1.366 . S
C292 C293 1.414 . S
C292 C295 1.499 . S
C293 H267 0.950 . S
C293 C292 1.414 . S
C293 C294 1.374 . S
C294 H268 0.950 . S
C294 C290 1.385 . S
C294 C293 1.374 . S
C295 C292 1.499 . S
C295 C296 1.373 . S
C295 C297 1.389 . S
C296 H269 0.950 . S
C296 C282 1.377 . S
C296 C295 1.373 . S
C297 C281 1.377 . S
C297 C295 1.389 . S
C297 C298 1.524 . S
C298 C297 1.524 . S
C298 C299 1.397 . S
C298 C303 1.363 . S
C299 H270 0.950 . S
C299 C298 1.397 . S
C299 C300 1.334 . S
C300 H271 0.950 . S
C300 C299 1.334 . S
C300 C301 1.287 . S
C301 C300 1.287 . S
C301 C302 1.524 . S
C301 H304 0.999 . S
C302 H272 0.950 . S
C302 C301 1.524 . S
C302 C303 1.415 . S
C303 H273 0.950 . S
C303 C298 1.363 . S
C303 C302 1.415 . S
H304 C301 0.999 . S
H305 C286 0.913 . S
H306 C324 0.951 . S
H307 C326 0.951 . S
H308 C328 0.950 . S
H309 C329 0.950 . S
H310 C331 0.950 . S
H311 C334 0.950 . S
H312 C335 0.950 . S
H313 C337 0.950 . S
H314 C338 0.950 . S
H315 C339 0.951 . S
H316 C341 0.951 . S
H317 C343 0.950 . S
H318 C344 0.950 . S
H319 C346 0.950 . S
H320 C349 0.950 . S
H321 C350 0.950 . S
H322 C352 0.950 . S
H323 C353 0.950 . S
C324 H306 0.951 . S
C324 C325 1.366 . S
C324 C326 1.388 . S
C325 C324 1.366 . S
C325 C329 1.385 . S
C326 H307 0.951 . S
C326 C324 1.388 . S
C326 C327 1.366 . S
C327 C326 1.366 . S
C327 C328 1.414 . S
C327 C330 1.499 . S
C328 H308 0.950 . S
C328 C327 1.414 . S
C328 C329 1.374 . S
C329 H309 0.950 . S
C329 C325 1.385 . S
C329 C328 1.374 . S
C330 C327 1.499 . S
C330 C331 1.373 . S
C330 C332 1.389 . S
C331 H310 0.950 . S
C331 C330 1.373 . S
C331 C347 1.377 . S
C332 C330 1.389 . S
C332 C333 1.524 . S
C332 C346 1.377 . S
C333 C332 1.524 . S
C333 C334 1.397 . S
C333 C338 1.363 . S
C334 H311 0.950 . S
C334 C333 1.397 . S
C334 C335 1.334 . S
C335 H312 0.950 . S
C335 C334 1.334 . S
C335 C336 1.287 . S
C336 C335 1.287 . S
C336 C337 1.524 . S
C336 H355 0.913 . S
C337 H313 0.950 . S
C337 C336 1.524 . S
C337 C338 1.415 . S
C338 H314 0.950 . S
C338 C333 1.363 . S
C338 C337 1.415 . S
C339 H315 0.951 . S
C339 C340 1.366 . S
C339 C341 1.388 . S
C340 C339 1.366 . S
C340 C344 1.385 . S
C341 H316 0.951 . S
C341 C339 1.388 . S
C341 C342 1.366 . S
C342 C341 1.366 . S
C342 C343 1.414 . S
C342 C345 1.499 . S
C343 H317 0.950 . S
C343 C342 1.414 . S
C343 C344 1.374 . S
C344 H318 0.950 . S
C344 C340 1.385 . S
C344 C343 1.374 . S
C345 C342 1.499 . S
C345 C346 1.373 . S
C345 C347 1.389 . S
C346 H319 0.950 . S
C346 C332 1.377 . S
C346 C345 1.373 . S
C347 C331 1.377 . S
C347 C345 1.389 . S
C347 C348 1.524 . S
C348 C347 1.524 . S
C348 C349 1.397 . S
C348 C353 1.363 . S
C349 H320 0.950 . S
C349 C348 1.397 . S
C349 C350 1.334 . S
C350 H321 0.950 . S
C350 C349 1.334 . S
C350 C351 1.287 . S
C351 C350 1.287 . S
C351 C352 1.524 . S
C351 H354 0.999 . S
C352 H322 0.950 . S
C352 C351 1.524 . S
C352 C353 1.415 . S
C353 H323 0.950 . S
C353 C348 1.363 . S
C353 C352 1.415 . S
H354 C351 0.999 . S
H355 C336 0.913 . S
H356 C374 0.951 . S
H357 C376 0.951 . S
H358 C378 0.950 . S
H359 C379 0.950 . S
H360 C381 0.950 . S
H361 C384 0.950 . S
H362 C385 0.950 . S
H363 C387 0.950 . S
H364 C388 0.950 . S
H365 C389 0.951 . S
H366 C391 0.951 . S
H367 C393 0.950 . S
H368 C394 0.950 . S
H369 C396 0.950 . S
H370 C399 0.950 . S
H371 C400 0.950 . S
H372 C402 0.950 . S
H373 C403 0.950 . S
C374 H356 0.951 . S
C374 C375 1.366 . S
C374 C376 1.388 . S
C375 C374 1.366 . S
C375 C379 1.385 . S
C376 H357 0.951 . S
C376 C374 1.388 . S
C376 C377 1.366 . S
C377 C376 1.366 . S
C377 C378 1.414 . S
C377 C380 1.499 . S
C378 H358 0.950 . S
C378 C377 1.414 . S
C378 C379 1.374 . S
C379 H359 0.950 . S
C379 C375 1.385 . S
C379 C378 1.374 . S
C380 C377 1.499 . S
C380 C381 1.373 . S
C380 C382 1.389 . S
C381 H360 0.950 . S
C381 C380 1.373 . S
C381 C397 1.377 . S
C382 C380 1.389 . S
C382 C383 1.524 . S
C382 C396 1.377 . S
C383 C382 1.524 . S
C383 C384 1.397 . S
C383 C388 1.363 . S
C384 H361 0.950 . S
C384 C383 1.397 . S
C384 C385 1.334 . S
C385 H362 0.950 . S
C385 C384 1.334 . S
C385 C386 1.287 . S
C386 C385 1.287 . S
C386 C387 1.524 . S
C386 H405 0.913 . S
C387 H363 0.950 . S
C387 C386 1.524 . S
C387 C388 1.415 . S
C388 H364 0.950 . S
C388 C383 1.363 . S
C388 C387 1.415 . S
C389 H365 0.951 . S
C389 C390 1.366 . S
C389 C391 1.388 . S
C390 C389 1.366 . S
C390 C394 1.385 . S
C391 H366 0.951 . S
C391 C389 1.388 . S
C391 C392 1.366 . S
C392 C391 1.366 . S
C392 C393 1.414 . S
C392 C395 1.499 . S
C393 H367 0.950 . S
C393 C392 1.414 . S
C393 C394 1.374 . S
C394 H368 0.950 . S
C394 C390 1.385 . S
C394 C393 1.374 . S
C395 C392 1.499 . S
C395 C396 1.373 . S
C395 C397 1.389 . S
C396 H369 0.950 . S
C396 C382 1.377 . S
C396 C395 1.373 . S
C397 C381 1.377 . S
C397 C395 1.389 . S
C397 C398 1.524 . S
C398 C397 1.524 . S
C398 C399 1.397 . S
C398 C403 1.363 . S
C399 H370 0.950 . S
C399 C398 1.397 . S
C399 C400 1.334 . S
C400 H371 0.950 . S
C400 C399 1.334 . S
C400 C401 1.287 . S
C401 C400 1.287 . S
C401 C402 1.524 . S
C401 H404 0.999 . S
C402 H372 0.950 . S
C402 C401 1.524 . S
C402 C403 1.415 . S
C403 H373 0.950 . S
C403 C398 1.363 . S
C403 C402 1.415 . S
H404 C401 0.999 . S
H405 C386 0.913 . S
H406 C424 0.951 . S
H407 C426 0.951 . S
H408 C428 0.950 . S
H409 C429 0.950 . S
H410 C431 0.950 . S
H411 C434 0.950 . S
H412 C435 0.950 . S
H413 C437 0.950 . S
H414 C438 0.950 . S
H415 C439 0.951 . S
H416 C441 0.951 . S
H417 C443 0.950 . S
H418 C444 0.950 . S
H419 C446 0.950 . S
H420 C449 0.950 . S
H421 C450 0.950 . S
H422 C452 0.950 . S
H423 C453 0.950 . S
C424 H406 0.951 . S
C424 C425 1.366 . S
C424 C426 1.388 . S
C425 C424 1.366 . S
C425 C429 1.385 . S
C426 H407 0.951 . S
C426 C424 1.388 . S
C426 C427 1.366 . S
C427 C426 1.366 . S
C427 C428 1.414 . S
C427 C430 1.499 . S
C428 H408 0.950 . S
C428 C427 1.414 . S
C428 C429 1.374 . S
C429 H409 0.950 . S
C429 C425 1.385 . S
C429 C428 1.374 . S
C430 C427 1.499 . S
C430 C431 1.373 . S
C430 C432 1.389 . S
C431 H410 0.950 . S
C431 C430 1.373 . S
C431 C447 1.377 . S
C432 C430 1.389 . S
C432 C433 1.524 . S
C432 C446 1.377 . S
C433 C432 1.524 . S
C433 C434 1.397 . S
C433 C438 1.363 . S
C434 H411 0.950 . S
C434 C433 1.397 . S
C434 C435 1.334 . S
C435 H412 0.950 . S
C435 C434 1.334 . S
C435 C436 1.287 . S
C436 C435 1.287 . S
C436 C437 1.524 . S
C436 H455 0.913 . S
C437 H413 0.950 . S
C437 C436 1.524 . S
C437 C438 1.415 . S
C438 H414 0.950 . S
C438 C433 1.363 . S
C438 C437 1.415 . S
C439 H415 0.951 . S
C439 C440 1.366 . S
C439 C441 1.388 . S
C440 C439 1.366 . S
C440 C444 1.385 . S
C441 H416 0.951 . S
C441 C439 1.388 . S
C441 C442 1.366 . S
C442 C441 1.366 . S
C442 C443 1.414 . S
C442 C445 1.499 . S
C443 H417 0.950 . S
C443 C442 1.414 . S
C443 C444 1.374 . S
C444 H418 0.950 . S
C444 C440 1.385 . S
C444 C443 1.374 . S
C445 C442 1.499 . S
C445 C446 1.373 . S
C445 C447 1.389 . S
C446 H419 0.950 . S
C446 C432 1.377 . S
C446 C445 1.373 . S
C447 C431 1.377 . S
C447 C445 1.389 . S
C447 C448 1.524 . S
C448 C447 1.524 . S
C448 C449 1.397 . S
C448 C453 1.363 . S
C449 H420 0.950 . S
C449 C448 1.397 . S
C449 C450 1.334 . S
C450 H421 0.950 . S
C450 C449 1.334 . S
C450 C451 1.287 . S
C451 C450 1.287 . S
C451 C452 1.524 . S
C451 H454 0.999 . S
C452 H422 0.950 . S
C452 C451 1.524 . S
C452 C453 1.415 . S
C453 H423 0.950 . S
C453 C448 1.363 . S
C453 C452 1.415 . S
H454 C451 0.999 . S
H455 C436 0.913 . S
H456 C474 0.951 . S
H457 C476 0.951 . S
H458 C478 0.950 . S
H459 C479 0.950 . S
H460 C481 0.950 . S
H461 C484 0.950 . S
H462 C485 0.950 . S
H463 C487 0.950 . S
H464 C488 0.950 . S
H465 C489 0.951 . S
H466 C491 0.951 . S
H467 C493 0.950 . S
H468 C494 0.950 . S
H469 C496 0.950 . S
H470 C499 0.950 . S
H471 C500 0.950 . S
H472 C502 0.950 . S
H473 C503 0.950 . S
C474 H456 0.951 . S
C474 C475 1.366 . S
C474 C476 1.388 . S
C475 C474 1.366 . S
C475 C479 1.385 . S
C476 H457 0.951 . S
C476 C474 1.388 . S
C476 C477 1.366 . S
C477 C476 1.366 . S
C477 C478 1.414 . S
C477 C480 1.499 . S
C478 H458 0.950 . S
C478 C477 1.414 . S
C478 C479 1.374 . S
C479 H459 0.950 . S
C479 C475 1.385 . S
C479 C478 1.374 . S
C480 C477 1.499 . S
C480 C481 1.373 . S
C480 C482 1.389 . S
C481 H460 0.950 . S
C481 C480 1.373 . S
C481 C497 1.377 . S
C482 C480 1.389 . S
C482 C483 1.524 . S
C482 C496 1.377 . S
C483 C482 1.524 . S
C483 C484 1.397 . S
C483 C488 1.363 . S
C484 H461 0.950 . S
C484 C483 1.397 . S
C484 C485 1.334 . S
C485 H462 0.950 . S
C485 C484 1.334 . S
C485 C486 1.287 . S
C486 C485 1.287 . S
C486 C487 1.524 . S
C486 H505 0.913 . S
C487 H463 0.950 . S
C487 C486 1.524 . S
C487 C488 1.415 . S
C488 H464 0.950 . S
C488 C483 1.363 . S
C488 C487 1.415 . S
C489 H465 0.951 . S
C489 C490 1.366 . S
C489 C491 1.388 . S
C490 C489 1.366 . S
C490 C494 1.385 . S
C491 H466 0.951 . S
C491 C489 1.388 . S
C491 C492 1.366 . S
C492 C491 1.366 . S
C492 C493 1.414 . S
C492 C495 1.499 . S
C493 H467 0.950 . S
C493 C492 1.414 . S
C493 C494 1.374 . S
C494 H468 0.950 . S
C494 C490 1.385 . S
C494 C493 1.374 . S
C495 C492 1.499 . S
C495 C496 1.373 . S
C495 C497 1.389 . S
C496 H469 0.950 . S
C496 C482 1.377 . S
C496 C495 1.373 . S
C497 C481 1.377 . S
C497 C495 1.389 . S
C497 C498 1.524 . S
C498 C497 1.524 . S
C498 C499 1.397 . S
C498 C503 1.363 . S
C499 H470 0.950 . S
C499 C498 1.397 . S
C499 C500 1.334 . S
C500 H471 0.950 . S
C500 C499 1.334 . S
C500 C501 1.287 . S
C501 C500 1.287 . S
C501 C502 1.524 . S
C501 H504 1.009 . S
C502 H472 0.950 . S
C502 C501 1.524 . S
C502 C503 1.415 . S
C503 H473 0.950 . S
C503 C498 1.363 . S
C503 C502 1.415 . S
H504 C501 1.009 . S
H505 C486 0.913 . S
H506 C524 0.951 . S
H507 C526 0.951 . S
H508 C528 0.950 . S
H509 C529 0.950 . S
H510 C531 0.950 . S
H511 C534 0.950 . S
H512 C535 0.950 . S
H513 C537 0.950 . S
H514 C538 0.950 . S
H515 C539 0.951 1_545 S
H516 C541 0.951 . S
H517 C543 0.950 . S
H518 C544 0.950 . S
H519 C546 0.950 . S
H520 C549 0.950 . S
H521 C550 0.950 . S
H522 C552 0.937 1_545 S
H523 C553 0.950 . S
C524 H506 0.951 . S
C524 C525 1.366 . S
C524 C526 1.388 . S
C525 C524 1.366 . S
C525 C529 1.385 . S
C526 H507 0.951 . S
C526 C524 1.388 . S
C526 C527 1.366 . S
C527 C526 1.366 . S
C527 C528 1.414 . S
C527 C530 1.499 . S
C528 H508 0.950 . S
C528 C527 1.414 . S
C528 C529 1.374 . S
C529 H509 0.950 . S
C529 C525 1.385 . S
C529 C528 1.374 . S
C530 C527 1.499 . S
C530 C531 1.373 . S
C530 C532 1.389 . S
C531 H510 0.950 . S
C531 C530 1.373 . S
C531 C547 1.377 . S
C532 C530 1.389 . S
C532 C533 1.524 . S
C532 C546 1.377 . S
C533 C532 1.524 . S
C533 C534 1.397 . S
C533 C538 1.363 . S
C534 H511 0.950 . S
C534 C533 1.397 . S
C534 C535 1.334 . S
C535 H512 0.950 . S
C535 C534 1.334 . S
C535 C536 1.287 . S
C536 C535 1.287 . S
C536 C537 1.524 . S
C536 H555 0.913 . S
C537 H513 0.950 . S
C537 C536 1.524 . S
C537 C538 1.415 . S
C538 H514 0.950 . S
C538 C533 1.363 . S
C538 C537 1.415 . S
C539 H515 0.951 1_565 S
C539 C540 1.366 . S
C539 C541 1.388 . S
C540 C539 1.366 . S
C540 C544 1.385 . S
C541 H516 0.951 . S
C541 C539 1.388 . S
C541 C542 1.366 . S
C542 C541 1.366 . S
C542 C543 1.414 . S
C542 C545 1.499 . S
C543 H517 0.950 . S
C543 C542 1.414 . S
C543 C544 1.374 . S
C544 H518 0.950 . S
C544 C540 1.385 . S
C544 C543 1.374 . S
C545 C542 1.499 . S
C545 C546 1.373 . S
C545 C547 1.389 . S
C546 H519 0.950 . S
C546 C532 1.377 . S
C546 C545 1.373 . S
C547 C531 1.377 . S
C547 C545 1.389 . S
C547 C548 1.524 . S
C548 C547 1.524 . S
C548 C549 1.397 . S
C548 C553 1.363 . S
C549 H520 0.950 . S
C549 C548 1.397 . S
C549 C550 1.334 . S
C550 H521 0.950 . S
C550 C549 1.334 . S
C550 C551 1.287 . S
C551 C550 1.287 . S
C551 C552 1.522 . S
C551 H554 0.999 1_565 S
C552 H522 0.937 1_565 S
C552 C551 1.522 . S
C552 C553 1.432 . S
C553 H523 0.950 . S
C553 C548 1.363 . S
C553 C552 1.432 . S
H554 C551 0.999 1_545 S
H555 C536 0.913 . S
H556 C574 0.951 . S
H557 C576 0.951 . S
H558 C578 0.950 . S
H559 C579 0.950 . S
H560 C581 0.950 . S
H561 C584 0.950 . S
H562 C585 0.950 . S
H563 C587 0.950 . S
H564 C588 0.950 . S
H565 C589 0.951 . S
H566 C591 0.951 . S
H567 C593 0.950 . S
H568 C594 0.950 . S
H569 C596 0.950 . S
H570 C599 0.950 . S
H571 C600 0.950 . S
H572 C602 0.950 . S
H573 C603 0.950 . S
C574 H556 0.951 . S
C574 C575 1.366 . S
C574 C576 1.388 . S
C575 C574 1.366 . S
C575 C579 1.385 . S
C576 H557 0.951 . S
C576 C574 1.388 . S
C576 C577 1.366 . S
C577 C576 1.366 . S
C577 C578 1.414 . S
C577 C580 1.499 . S
C578 H558 0.950 . S
C578 C577 1.414 . S
C578 C579 1.374 . S
C579 H559 0.950 . S
C579 C575 1.385 . S
C579 C578 1.374 . S
C580 C577 1.499 . S
C580 C581 1.373 . S
C580 C582 1.389 . S
C581 H560 0.950 . S
C581 C580 1.373 . S
C581 C597 1.377 . S
C582 C580 1.389 . S
C582 C583 1.524 . S
C582 C596 1.377 . S
C583 C582 1.524 . S
C583 C584 1.397 . S
C583 C588 1.363 . S
C584 H561 0.950 . S
C584 C583 1.397 . S
C584 C585 1.334 . S
C585 H562 0.950 . S
C585 C584 1.334 . S
C585 C586 1.287 . S
C586 C585 1.287 . S
C586 C587 1.524 . S
C586 H605 0.913 . S
C587 H563 0.950 . S
C587 C586 1.524 . S
C587 C588 1.415 . S
C588 H564 0.950 . S
C588 C583 1.363 . S
C588 C587 1.415 . S
C589 H565 0.951 . S
C589 C590 1.366 . S
C589 C591 1.388 . S
C590 C589 1.366 . S
C590 C594 1.385 . S
C591 H566 0.951 . S
C591 C589 1.388 . S
C591 C592 1.366 . S
C592 C591 1.366 . S
C592 C593 1.414 . S
C592 C595 1.499 . S
C593 H567 0.950 . S
C593 C592 1.414 . S
C593 C594 1.374 . S
C594 H568 0.950 . S
C594 C590 1.385 . S
C594 C593 1.374 . S
C595 C592 1.499 . S
C595 C596 1.373 . S
C595 C597 1.389 . S
C596 H569 0.950 . S
C596 C582 1.377 . S
C596 C595 1.373 . S
C597 C581 1.377 . S
C597 C595 1.389 . S
C597 C598 1.524 . S
C598 C597 1.524 . S
C598 C599 1.397 . S
C598 C603 1.363 . S
C599 H570 0.950 . S
C599 C598 1.397 . S
C599 C600 1.334 1_556 S
C600 H571 0.950 . S
C600 C599 1.334 1_554 S
C600 C601 1.287 . S
C601 C600 1.287 . S
C601 C602 1.524 . S
C601 H604 0.999 . S
C602 H572 0.950 . S
C602 C601 1.524 . S
C602 C603 1.415 1_554 S
C603 H573 0.950 . S
C603 C598 1.363 . S
C603 C602 1.415 1_556 S
H604 C601 0.999 . S
H605 C586 0.913 . S
H606 C624 0.951 . S
H607 C626 0.951 . S
H608 C628 0.950 . S
H609 C629 0.950 . S
H610 C631 0.950 . S
H611 C634 0.950 . S
H612 C635 0.950 . S
H613 C637 0.950 . S
H614 C638 0.950 . S
H615 C639 0.951 . S
H616 C641 0.951 . S
H617 C643 0.950 . S
H618 C644 0.950 . S
H619 C646 0.950 . S
H620 C649 0.950 . S
H621 C650 0.950 . S
H622 C652 0.950 . S
H623 C653 0.950 . S
C624 H606 0.951 . S
C624 C625 1.366 . S
C624 C626 1.388 . S
C625 C624 1.366 . S
C625 C629 1.385 . S
C626 H607 0.951 . S
C626 C624 1.388 . S
C626 C627 1.366 . S
C627 C626 1.366 . S
C627 C628 1.414 . S
C627 C630 1.499 . S
C628 H608 0.950 . S
C628 C627 1.414 . S
C628 C629 1.374 . S
C629 H609 0.950 . S
C629 C625 1.385 . S
C629 C628 1.374 . S
C630 C627 1.499 . S
C630 C631 1.373 . S
C630 C632 1.389 . S
C631 H610 0.950 . S
C631 C630 1.373 . S
C631 C647 1.377 . S
C632 C630 1.389 . S
C632 C633 1.524 . S
C632 C646 1.377 . S
C633 C632 1.524 . S
C633 C634 1.397 . S
C633 C638 1.363 . S
C634 H611 0.950 . S
C634 C633 1.397 . S
C634 C635 1.334 . S
C635 H612 0.950 . S
C635 C634 1.334 . S
C635 C636 1.287 . S
C636 C635 1.287 . S
C636 C637 1.524 . S
C636 H655 0.913 . S
C637 H613 0.950 . S
C637 C636 1.524 . S
C637 C638 1.415 . S
C638 H614 0.950 . S
C638 C633 1.363 . S
C638 C637 1.415 . S
C639 H615 0.951 . S
C639 C640 1.366 . S
C639 C641 1.388 . S
C640 C639 1.366 . S
C640 C644 1.385 . S
C641 H616 0.951 . S
C641 C639 1.388 . S
C641 C642 1.366 . S
C642 C641 1.366 . S
C642 C643 1.414 . S
C642 C645 1.499 . S
C643 H617 0.950 . S
C643 C642 1.414 . S
C643 C644 1.374 . S
C644 H618 0.950 . S
C644 C640 1.385 . S
C644 C643 1.374 . S
C645 C642 1.499 . S
C645 C646 1.373 . S
C645 C647 1.389 . S
C646 H619 0.950 . S
C646 C632 1.377 . S
C646 C645 1.373 . S
C647 C631 1.377 . S
C647 C645 1.389 . S
C647 C648 1.524 . S
C648 C647 1.524 . S
C648 C649 1.397 . S
C648 C653 1.363 . S
C649 H620 0.950 . S
C649 C648 1.397 . S
C649 C650 1.334 . S
C650 H621 0.950 . S
C650 C649 1.334 . S
C650 C651 1.287 . S
C651 C650 1.287 . S
C651 C652 1.524 . S
C651 H654 0.999 . S
C652 H622 0.950 . S
C652 C651 1.524 . S
C652 C653 1.415 . S
C653 H623 0.950 . S
C653 C648 1.363 . S
C653 C652 1.415 . S
H654 C651 0.999 . S
H655 C636 0.913 . S
H656 C674 0.951 . S
H657 C676 0.951 . S
H658 C678 0.950 . S
H659 C679 0.950 . S
H660 C681 0.950 . S
H661 C684 0.950 . S
H662 C685 0.950 . S
H663 C687 0.950 . S
H664 C688 0.950 . S
H665 C689 0.951 . S
H666 C691 0.951 . S
H667 C693 0.950 . S
H668 C694 0.950 . S
H669 C696 0.950 . S
H670 C699 0.950 . S
H671 C700 0.950 . S
H672 C702 0.950 . S
H673 C703 0.950 . S
C674 H656 0.951 . S
C674 C675 1.366 . S
C674 C676 1.388 . S
C675 C674 1.366 . S
C675 C679 1.385 . S
C676 H657 0.951 . S
C676 C674 1.388 . S
C676 C677 1.366 . S
C677 C676 1.366 . S
C677 C678 1.414 . S
C677 C680 1.499 . S
C678 H658 0.950 . S
C678 C677 1.414 . S
C678 C679 1.374 . S
C679 H659 0.950 . S
C679 C675 1.385 . S
C679 C678 1.374 . S
C680 C677 1.499 . S
C680 C681 1.373 . S
C680 C682 1.389 . S
C681 H660 0.950 . S
C681 C680 1.373 . S
C681 C697 1.377 . S
C682 C680 1.389 . S
C682 C683 1.524 . S
C682 C696 1.377 . S
C683 C682 1.524 . S
C683 C684 1.397 . S
C683 C688 1.363 . S
C684 H661 0.950 . S
C684 C683 1.397 . S
C684 C685 1.334 . S
C685 H662 0.950 . S
C685 C684 1.334 . S
C685 C686 1.287 . S
C686 C685 1.287 . S
C686 C687 1.524 . S
C686 H705 0.913 . S
C687 H663 0.950 . S
C687 C686 1.524 . S
C687 C688 1.415 . S
C688 H664 0.950 . S
C688 C683 1.363 . S
C688 C687 1.415 . S
C689 H665 0.951 . S
C689 C690 1.366 . S
C689 C691 1.388 . S
C690 C689 1.366 . S
C690 C694 1.385 . S
C691 H666 0.951 . S
C691 C689 1.388 . S
C691 C692 1.366 . S
C692 C691 1.366 . S
C692 C693 1.414 . S
C692 C695 1.499 . S
C693 H667 0.950 . S
C693 C692 1.414 . S
C693 C694 1.374 . S
C694 H668 0.950 . S
C694 C690 1.385 . S
C694 C693 1.374 . S
C695 C692 1.499 . S
C695 C696 1.373 . S
C695 C697 1.389 . S
C696 H669 0.950 . S
C696 C682 1.377 . S
C696 C695 1.373 . S
C697 C681 1.377 . S
C697 C695 1.389 . S
C697 C698 1.524 . S
C698 C697 1.524 . S
C698 C699 1.397 . S
C698 C703 1.363 . S
C699 H670 0.950 . S
C699 C698 1.397 . S
C699 C700 1.334 . S
C700 H671 0.950 . S
C700 C699 1.334 . S
C700 C701 1.287 . S
C701 C700 1.287 . S
C701 C702 1.524 . S
C701 H704 0.999 . S
C702 H672 0.950 . S
C702 C701 1.524 . S
C702 C703 1.415 . S
C703 H673 0.950 . S
C703 C698 1.363 . S
C703 C702 1.415 . S
H704 C701 0.999 . S
H705 C686 0.913 . S
H706 C724 0.951 . S
H707 C726 0.951 . S
H708 C728 0.950 . S
H709 C729 0.950 . S
H710 C731 0.950 . S
H711 C734 0.950 . S
H712 C735 0.950 . S
H713 C737 0.950 . S
H714 C738 0.950 . S
H715 C739 0.951 . S
H716 C741 0.951 . S
H717 C743 0.950 . S
H718 C744 0.950 . S
H719 C746 0.950 . S
H720 C749 0.950 . S
H721 C750 0.950 . S
H722 C752 0.950 . S
H723 C753 0.950 . S
C724 H706 0.951 . S
C724 C725 1.366 . S
C724 C726 1.388 . S
C725 C724 1.366 . S
C725 C729 1.385 . S
C726 H707 0.951 . S
C726 C724 1.388 . S
C726 C727 1.366 . S
C727 C726 1.366 . S
C727 C728 1.414 . S
C727 C730 1.499 . S
C728 H708 0.950 . S
C728 C727 1.414 . S
C728 C729 1.374 . S
C729 H709 0.950 . S
C729 C725 1.385 . S
C729 C728 1.374 . S
C730 C727 1.499 . S
C730 C731 1.373 . S
C730 C732 1.389 . S
C731 H710 0.950 . S
C731 C730 1.373 . S
C731 C747 1.377 . S
C732 C730 1.389 . S
C732 C733 1.524 . S
C732 C746 1.377 . S
C733 C732 1.524 . S
C733 C734 1.397 . S
C733 C738 1.363 . S
C734 H711 0.950 . S
C734 C733 1.397 . S
C734 C735 1.334 . S
C735 H712 0.950 . S
C735 C734 1.334 . S
C735 C736 1.287 . S
C736 C735 1.287 . S
C736 C737 1.524 . S
C736 H755 0.913 . S
C737 H713 0.950 . S
C737 C736 1.524 . S
C737 C738 1.415 . S
C738 H714 0.950 . S
C738 C733 1.363 . S
C738 C737 1.415 . S
C739 H715 0.951 . S
C739 C740 1.366 . S
C739 C741 1.388 . S
C740 C739 1.366 . S
C740 C744 1.385 . S
C741 H716 0.951 . S
C741 C739 1.388 . S
C741 C742 1.366 . S
C742 C741 1.366 . S
C742 C743 1.414 . S
C742 C745 1.499 . S
C743 H717 0.950 . S
C743 C742 1.414 . S
C743 C744 1.374 . S
C744 H718 0.950 . S
C744 C740 1.385 . S
C744 C743 1.374 . S
C745 C742 1.499 . S
C745 C746 1.373 . S
C745 C747 1.389 . S
C746 H719 0.950 . S
C746 C732 1.377 . S
C746 C745 1.373 . S
C747 C731 1.377 . S
C747 C745 1.389 . S
C747 C748 1.524 . S
C748 C747 1.524 . S
C748 C749 1.397 . S
C748 C753 1.363 . S
C749 H720 0.950 . S
C749 C748 1.397 . S
C749 C750 1.334 . S
C750 H721 0.950 . S
C750 C749 1.334 . S
C750 C751 1.287 . S
C751 C750 1.287 . S
C751 C752 1.524 . S
C751 H754 0.999 . S
C752 H722 0.950 . S
C752 C751 1.524 . S
C752 C753 1.415 . S
C753 H723 0.950 . S
C753 C748 1.363 . S
C753 C752 1.415 . S
H754 C751 0.999 . S
H755 C736 0.913 . S
H756 C774 0.951 . S
H757 C776 0.951 . S
H758 C778 0.950 . S
H759 C779 0.950 . S
H760 C781 0.950 . S
H761 C784 0.950 . S
H762 C785 0.950 . S
H763 C787 0.950 . S
H764 C788 0.950 . S
H765 C789 0.951 . S
H766 C791 0.951 . S
H767 C793 0.950 . S
H768 C794 0.950 . S
H769 C796 0.950 . S
H770 C799 0.950 . S
H771 C800 0.950 . S
H772 C802 0.950 . S
H773 C803 0.950 . S
C774 H756 0.951 . S
C774 C775 1.366 . S
C774 C776 1.388 . S
C775 C774 1.366 . S
C775 C779 1.385 . S
C776 H757 0.951 . S
C776 C774 1.388 . S
C776 C777 1.366 . S
C777 C776 1.366 . S
C777 C778 1.414 . S
C777 C780 1.499 . S
C778 H758 0.950 . S
C778 C777 1.414 . S
C778 C779 1.374 . S
C779 H759 0.950 . S
C779 C775 1.385 . S
C779 C778 1.374 . S
C780 C777 1.499 . S
C780 C781 1.373 . S
C780 C782 1.389 . S
C781 H760 0.950 . S
C781 C780 1.373 . S
C781 C797 1.377 . S
C782 C780 1.389 . S
C782 C783 1.524 . S
C782 C796 1.377 . S
C783 C782 1.524 . S
C783 C784 1.397 . S
C783 C788 1.363 . S
C784 H761 0.950 . S
C784 C783 1.397 . S
C784 C785 1.334 . S
C785 H762 0.950 . S
C785 C784 1.334 . S
C785 C786 1.287 . S
C786 C785 1.287 . S
C786 C787 1.524 . S
C786 H805 0.913 . S
C787 H763 0.950 . S
C787 C786 1.524 . S
C787 C788 1.415 . S
C788 H764 0.950 . S
C788 C783 1.363 . S
C788 C787 1.415 . S
C789 H765 0.951 . S
C789 C790 1.366 . S
C789 C791 1.388 . S
C790 C789 1.366 . S
C790 C794 1.385 . S
C791 H766 0.951 . S
C791 C789 1.388 . S
C791 C792 1.366 . S
C792 C791 1.366 . S
C792 C793 1.414 . S
C792 C795 1.499 . S
C793 H767 0.950 . S
C793 C792 1.414 . S
C793 C794 1.374 . S
C794 H768 0.950 . S
C794 C790 1.385 . S
C794 C793 1.374 . S
C795 C792 1.499 . S
C795 C796 1.373 . S
C795 C797 1.389 . S
C796 H769 0.950 . S
C796 C782 1.377 . S
C796 C795 1.373 . S
C797 C781 1.377 . S
C797 C795 1.389 . S
C797 C798 1.524 . S
C798 C797 1.524 . S
C798 C799 1.397 . S
C798 C803 1.363 . S
C799 H770 0.950 . S
C799 C798 1.397 . S
C799 C800 1.334 . S
C800 H771 0.950 . S
C800 C799 1.334 . S
C800 C801 1.287 . S
C801 C800 1.287 . S
C801 C802 1.524 . S
C801 H804 0.999 . S
C802 H772 0.950 . S
C802 C801 1.524 . S
C802 C803 1.415 . S
C803 H773 0.950 . S
C803 C798 1.363 . S
C803 C802 1.415 . S
H804 C801 0.999 . S
H805 C786 0.913 . S
H806 C824 0.951 . S
H807 C826 0.951 . S
H808 C828 0.950 . S
H809 C829 0.950 . S
H810 C831 0.950 . S
H811 C834 0.950 . S
H812 C835 0.950 . S
H813 C837 0.950 . S
H814 C838 0.950 . S
H815 C839 0.951 . S
H816 C841 0.951 . S
H817 C843 0.950 . S
H818 C844 0.950 . S
H819 C846 0.950 . S
H820 C849 0.950 . S
H821 C850 0.950 . S
H822 C852 0.950 . S
H823 C853 0.950 . S
C824 H806 0.951 . S
C824 C825 1.366 . S
C824 C826 1.388 . S
C825 C824 1.366 . S
C825 C829 1.385 . S
C826 H807 0.951 . S
C826 C824 1.388 . S
C826 C827 1.366 . S
C827 C826 1.366 . S
C827 C828 1.414 . S
C827 C830 1.499 . S
C828 H808 0.950 . S
C828 C827 1.414 . S
C828 C829 1.374 . S
C829 H809 0.950 . S
C829 C825 1.385 . S
C829 C828 1.374 . S
C830 C827 1.499 . S
C830 C831 1.373 . S
C830 C832 1.389 . S
C831 H810 0.950 . S
C831 C830 1.373 . S
C831 C847 1.377 . S
C832 C830 1.389 . S
C832 C833 1.524 . S
C832 C846 1.377 . S
C833 C832 1.524 . S
C833 C834 1.397 . S
C833 C838 1.363 . S
C834 H811 0.950 . S
C834 C833 1.397 . S
C834 C835 1.334 . S
C835 H812 0.950 . S
C835 C834 1.334 . S
C835 C836 1.287 . S
C836 C835 1.287 . S
C836 C837 1.524 . S
C836 H855 0.913 . S
C837 H813 0.950 . S
C837 C836 1.524 . S
C837 C838 1.415 . S
C838 H814 0.950 . S
C838 C833 1.363 . S
C838 C837 1.415 . S
C839 H815 0.951 . S
C839 C840 1.366 . S
C839 C841 1.388 . S
C840 C839 1.366 . S
C840 C844 1.385 . S
C841 H816 0.951 . S
C841 C839 1.388 . S
C841 C842 1.366 . S
C842 C841 1.366 . S
C842 C843 1.414 . S
C842 C845 1.499 . S
C843 H817 0.950 . S
C843 C842 1.414 . S
C843 C844 1.374 . S
C844 H818 0.950 . S
C844 C840 1.385 . S
C844 C843 1.374 . S
C845 C842 1.499 . S
C845 C846 1.373 . S
C845 C847 1.389 . S
C846 H819 0.950 . S
C846 C832 1.377 . S
C846 C845 1.373 . S
C847 C831 1.377 . S
C847 C845 1.389 . S
C847 C848 1.524 . S
C848 C847 1.524 . S
C848 C849 1.397 . S
C848 C853 1.363 . S
C849 H820 0.950 . S
C849 C848 1.397 . S
C849 C850 1.334 . S
C850 H821 0.950 . S
C850 C849 1.334 . S
C850 C851 1.287 . S
C851 C850 1.287 . S
C851 C852 1.524 . S
C851 H854 0.999 . S
C852 H822 0.950 . S
C852 C851 1.524 . S
C852 C853 1.415 . S
C853 H823 0.950 . S
C853 C848 1.363 . S
C853 C852 1.415 . S
H854 C851 0.999 . S
H855 C836 0.913 . S
H856 C874 0.951 . S
H857 C876 0.951 . S
H858 C878 0.950 . S
H859 C879 0.950 . S
H860 C881 0.950 . S
H861 C884 0.950 . S
H862 C885 0.950 . S
H863 C887 0.950 . S
H864 C888 0.950 . S
H865 C889 0.951 . S
H866 C891 0.951 . S
H867 C893 0.950 . S
H868 C894 0.950 . S
H869 C896 0.950 . S
H870 C899 0.950 . S
H871 C900 0.950 . S
H872 C902 0.950 . S
H873 C903 0.950 . S
C874 H856 0.951 . S
C874 C875 1.366 . S
C874 C876 1.388 . S
C875 C874 1.366 . S
C875 C879 1.385 . S
C876 H857 0.951 . S
C876 C874 1.388 . S
C876 C877 1.366 . S
C877 C876 1.366 . S
C877 C878 1.414 . S
C877 C880 1.499 . S
C878 H858 0.950 . S
C878 C877 1.414 . S
C878 C879 1.374 . S
C879 H859 0.950 . S
C879 C875 1.385 . S
C879 C878 1.374 . S
C880 C877 1.499 . S
C880 C881 1.373 . S
C880 C882 1.389 . S
C881 H860 0.950 . S
C881 C880 1.373 . S
C881 C897 1.377 . S
C882 C880 1.389 . S
C882 C883 1.524 . S
C882 C896 1.377 . S
C883 C882 1.524 . S
C883 C884 1.397 . S
C883 C888 1.363 . S
C884 H861 0.950 . S
C884 C883 1.397 . S
C884 C885 1.334 . S
C885 H862 0.950 . S
C885 C884 1.334 . S
C885 C886 1.287 . S
C886 C885 1.287 . S
C886 C887 1.524 . S
C886 H905 0.913 . S
C887 H863 0.950 . S
C887 C886 1.524 . S
C887 C888 1.415 . S
C888 H864 0.950 . S
C888 C883 1.363 . S
C888 C887 1.415 . S
C889 H865 0.951 . S
C889 C890 1.366 . S
C889 C891 1.388 . S
C890 C889 1.366 . S
C890 C894 1.385 . S
C891 H866 0.951 . S
C891 C889 1.388 . S
C891 C892 1.366 . S
C892 C891 1.366 . S
C892 C893 1.414 . S
C892 C895 1.499 . S
C893 H867 0.950 . S
C893 C892 1.414 . S
C893 C894 1.374 . S
C894 H868 0.950 . S
C894 C890 1.385 . S
C894 C893 1.374 . S
C895 C892 1.499 . S
C895 C896 1.373 . S
C895 C897 1.389 . S
C896 H869 0.950 . S
C896 C882 1.377 . S
C896 C895 1.373 . S
C897 C881 1.377 . S
C897 C895 1.389 . S
C897 C898 1.524 . S
C898 C897 1.524 . S
C898 C899 1.397 . S
C898 C903 1.363 . S
C899 H870 0.950 . S
C899 C898 1.397 . S
C899 C900 1.334 . S
C900 H871 0.950 . S
C900 C899 1.334 . S
C900 C901 1.287 . S
C901 C900 1.287 . S
C901 C902 1.524 . S
C901 H904 0.999 . S
C902 H872 0.950 . S
C902 C901 1.524 . S
C902 C903 1.415 . S
C903 H873 0.950 . S
C903 C898 1.363 . S
C903 C902 1.415 . S
H904 C901 0.999 . S
H905 C886 0.913 . S
H906 C924 0.951 . S
H907 C926 0.951 . S
H908 C928 0.950 . S
H909 C929 0.950 . S
H910 C931 0.950 . S
H911 C934 0.950 . S
H912 C935 0.950 . S
H913 C937 0.950 . S
H914 C938 0.950 . S
H915 C939 0.951 . S
H916 C941 0.951 . S
H917 C943 0.950 . S
H918 C944 0.950 . S
H919 C946 0.950 . S
H920 C949 0.950 . S
H921 C950 0.950 . S
H922 C952 0.950 . S
H923 C953 0.950 . S
C924 H906 0.951 . S
C924 C925 1.366 . S
C924 C926 1.388 . S
C925 C924 1.366 . S
C925 C929 1.385 . S
C926 H907 0.951 . S
C926 C924 1.388 . S
C926 C927 1.366 . S
C927 C926 1.366 . S
C927 C928 1.414 . S
C927 C930 1.499 . S
C928 H908 0.950 . S
C928 C927 1.414 . S
C928 C929 1.374 . S
C929 H909 0.950 . S
C929 C925 1.385 . S
C929 C928 1.374 . S
C930 C927 1.499 . S
C930 C931 1.373 . S
C930 C932 1.389 . S
C931 H910 0.950 . S
C931 C930 1.373 . S
C931 C947 1.377 . S
C932 C930 1.389 . S
C932 C933 1.524 . S
C932 C946 1.377 . S
C933 C932 1.524 . S
C933 C934 1.397 . S
C933 C938 1.363 . S
C934 H911 0.950 . S
C934 C933 1.397 . S
C934 C935 1.334 . S
C935 H912 0.950 . S
C935 C934 1.334 . S
C935 C936 1.287 . S
C936 C935 1.287 . S
C936 C937 1.524 . S
C936 H955 0.913 . S
C937 H913 0.950 . S
C937 C936 1.524 . S
C937 C938 1.415 . S
C938 H914 0.950 . S
C938 C933 1.363 . S
C938 C937 1.415 . S
C939 H915 0.951 . S
C939 C940 1.366 . S
C939 C941 1.388 . S
C940 C939 1.366 . S
C940 C944 1.385 . S
C941 H916 0.951 . S
C941 C939 1.388 . S
C941 C942 1.366 . S
C942 C941 1.366 . S
C942 C943 1.414 . S
C942 C945 1.499 . S
C943 H917 0.950 . S
C943 C942 1.414 . S
C943 C944 1.374 . S
C944 H918 0.950 . S
C944 C940 1.385 . S
C944 C943 1.374 . S
C945 C942 1.499 . S
C945 C946 1.373 . S
C945 C947 1.389 . S
C946 H919 0.950 . S
C946 C932 1.377 . S
C946 C945 1.373 . S
C947 C931 1.377 . S
C947 C945 1.389 . S
C947 C948 1.524 . S
C948 C947 1.524 . S
C948 C949 1.397 . S
C948 C953 1.363 . S
C949 H920 0.950 . S
C949 C948 1.397 . S
C949 C950 1.334 . S
C950 H921 0.950 . S
C950 C949 1.334 . S
C950 C951 1.287 . S
C951 C950 1.287 . S
C951 C952 1.524 . S
C951 H954 0.999 . S
C952 H922 0.950 . S
C952 C951 1.524 . S
C952 C953 1.415 . S
C953 H923 0.950 . S
C953 C948 1.363 . S
C953 C952 1.415 . S
H954 C951 0.999 . S
H955 C936 0.913 . S
H956 C974 0.951 . S
H957 C976 0.951 . S
H958 C978 0.950 . S
H959 C979 0.950 . S
H960 C981 0.950 . S
H961 C984 0.950 . S
H962 C985 0.950 . S
H963 C987 0.950 . S
H964 C988 0.950 . S
H965 C989 0.951 . S
H966 C991 0.951 . S
H967 C993 0.950 . S
H968 C994 0.950 . S
H969 C996 0.950 . S
H970 C999 0.950 . S
H971 C1000 0.950 . S
H972 C1002 0.950 . S
H973 C1003 0.950 . S
C974 H956 0.951 . S
C974 C975 1.366 . S
C974 C976 1.388 . S
C975 C974 1.366 . S
C975 C979 1.385 . S
C976 H957 0.951 . S
C976 C974 1.388 . S
C976 C977 1.366 . S
C977 C976 1.366 . S
C977 C978 1.414 . S
C977 C980 1.499 . S
C978 H958 0.950 . S
C978 C977 1.414 . S
C978 C979 1.374 . S
C979 H959 0.950 . S
C979 C975 1.385 . S
C979 C978 1.374 . S
C980 C977 1.499 . S
C980 C981 1.373 . S
C980 C982 1.389 . S
C981 H960 0.950 . S
C981 C980 1.373 . S
C981 C997 1.377 . S
C982 C980 1.389 . S
C982 C983 1.524 . S
C982 C996 1.377 . S
C983 C982 1.524 . S
C983 C984 1.397 . S
C983 C988 1.363 . S
C984 H961 0.950 . S
C984 C983 1.397 . S
C984 C985 1.334 . S
C985 H962 0.950 . S
C985 C984 1.334 . S
C985 C986 1.287 . S
C986 C985 1.287 . S
C986 C987 1.524 . S
C986 H1005 0.913 . S
C987 H963 0.950 . S
C987 C986 1.524 . S
C987 C988 1.415 . S
C988 H964 0.950 . S
C988 C983 1.363 . S
C988 C987 1.415 . S
C989 H965 0.951 . S
C989 C990 1.366 . S
C989 C991 1.388 . S
C990 C989 1.366 . S
C990 C994 1.385 . S
C991 H966 0.951 . S
C991 C989 1.388 . S
C991 C992 1.366 . S
C992 C991 1.366 . S
C992 C993 1.414 . S
C992 C995 1.499 . S
C993 H967 0.950 . S
C993 C992 1.414 . S
C993 C994 1.374 . S
C994 H968 0.950 . S
C994 C990 1.385 . S
C994 C993 1.374 . S
C995 C992 1.499 . S
C995 C996 1.373 . S
C995 C997 1.389 . S
C996 H969 0.950 . S
C996 C982 1.377 . S
C996 C995 1.373 . S
C997 C981 1.377 . S
C997 C995 1.389 . S
C997 C998 1.524 . S
C998 C997 1.524 . S
C998 C999 1.397 . S
C998 C1003 1.363 . S
C999 H970 0.950 . S
C999 C998 1.397 . S
C999 C1000 1.334 . S
C1000 H971 0.950 . S
C1000 C999 1.334 . S
C1000 C1001 1.287 . S
C1001 C1000 1.287 . S
C1001 C1002 1.524 . S
C1001 H1004 0.999 . S
C1002 H972 0.950 . S
C1002 C1001 1.524 . S
C1002 C1003 1.415 . S
C1003 H973 0.950 . S
C1003 C998 1.363 . S
C1003 C1002 1.415 . S
H1004 C1001 0.999 . S
H1005 C986 0.913 . S
H1006 C1024 0.951 . S
H1007 C1026 0.951 . S
H1008 C1028 0.950 . S
H1009 C1029 0.950 . S
H1010 C1031 0.950 . S
H1011 C1034 0.950 . S
H1012 C1035 0.950 . S
H1013 C1037 0.950 1_655 S
H1014 C1038 0.950 . S
H1015 C1039 0.951 . S
H1016 C1041 0.951 . S
H1017 C1043 0.950 . S
H1018 C1044 0.950 . S
H1019 C1046 0.950 . S
H1020 C1049 0.950 . S
H1021 C1050 0.950 . S
H1022 C1052 0.950 . S
H1023 C1053 0.950 . S
C1024 H1006 0.951 . S
C1024 C1025 1.366 . S
C1024 C1026 1.388 . S
C1025 C1024 1.366 . S
C1025 C1029 1.385 . S
C1026 H1007 0.951 . S
C1026 C1024 1.388 . S
C1026 C1027 1.366 . S
C1027 C1026 1.366 . S
C1027 C1028 1.414 . S
C1027 C1030 1.499 . S
C1028 H1008 0.950 . S
C1028 C1027 1.414 . S
C1028 C1029 1.374 . S
C1029 H1009 0.950 . S
C1029 C1025 1.385 . S
C1029 C1028 1.374 . S
C1030 C1027 1.499 . S
C1030 C1031 1.373 . S
C1030 C1032 1.389 . S
C1031 H1010 0.950 . S
C1031 C1030 1.373 . S
C1031 C1047 1.377 . S
C1032 C1030 1.389 . S
C1032 C1033 1.524 . S
C1032 C1046 1.377 . S
C1033 C1032 1.524 . S
C1033 C1034 1.397 . S
C1033 C1038 1.363 . S
C1034 H1011 0.950 . S
C1034 C1033 1.397 . S
C1034 C1035 1.334 . S
C1035 H1012 0.950 . S
C1035 C1034 1.334 . S
C1035 C1036 1.287 . S
C1036 C1035 1.287 . S
C1036 C1037 1.524 . S
C1036 H1055 0.913 . S
C1037 H1013 0.950 1_455 S
C1037 C1036 1.524 . S
C1037 C1038 1.415 . S
C1038 H1014 0.950 . S
C1038 C1033 1.363 . S
C1038 C1037 1.415 . S
C1039 H1015 0.951 . S
C1039 C1040 1.366 . S
C1039 C1041 1.388 . S
C1040 C1039 1.366 . S
C1040 C1044 1.385 . S
C1041 H1016 0.951 . S
C1041 C1039 1.388 . S
C1041 C1042 1.366 . S
C1042 C1041 1.366 . S
C1042 C1043 1.414 . S
C1042 C1045 1.499 . S
C1043 H1017 0.950 . S
C1043 C1042 1.414 . S
C1043 C1044 1.374 . S
C1044 H1018 0.950 . S
C1044 C1040 1.385 . S
C1044 C1043 1.374 . S
C1045 C1042 1.499 . S
C1045 C1046 1.373 . S
C1045 C1047 1.389 . S
C1046 H1019 0.950 . S
C1046 C1032 1.377 . S
C1046 C1045 1.373 . S
C1047 C1031 1.377 . S
C1047 C1045 1.389 . S
C1047 C1048 1.524 . S
C1048 C1047 1.524 . S
C1048 C1049 1.397 . S
C1048 C1053 1.363 . S
C1049 H1020 0.950 . S
C1049 C1048 1.397 . S
C1049 C1050 1.334 . S
C1050 H1021 0.950 . S
C1050 C1049 1.334 . S
C1050 C1051 1.287 . S
C1051 C1050 1.287 . S
C1051 C1052 1.524 . S
C1051 H1054 0.999 . S
C1052 H1022 0.950 . S
C1052 C1051 1.524 . S
C1052 C1053 1.415 . S
C1053 H1023 0.950 . S
C1053 C1048 1.363 . S
C1053 C1052 1.415 . S
H1054 C1051 0.999 . S
H1055 C1036 0.913 . S
H1056 C1074 0.951 . S
H1057 C1076 0.951 . S
H1058 C1078 0.950 . S
H1059 C1079 0.950 . S
H1060 C1081 0.950 . S
H1061 C1084 0.950 . S
H1062 C1085 0.950 . S
H1063 C1087 0.950 . S
H1064 C1088 0.950 . S
H1065 C1089 0.951 . S
H1066 C1091 0.951 . S
H1067 C1093 0.950 . S
H1068 C1094 0.950 . S
H1069 C1096 0.950 . S
H1070 C1099 0.950 . S
H1071 C1100 0.950 . S
H1072 C1102 0.950 . S
H1073 C1103 0.950 . S
C1074 H1056 0.951 . S
C1074 C1075 1.366 . S
C1074 C1076 1.388 . S
C1075 C1074 1.366 . S
C1075 C1079 1.385 . S
C1076 H1057 0.951 . S
C1076 C1074 1.388 . S
C1076 C1077 1.366 . S
C1077 C1076 1.366 . S
C1077 C1078 1.414 . S
C1077 C1080 1.499 . S
C1078 H1058 0.950 . S
C1078 C1077 1.414 . S
C1078 C1079 1.374 . S
C1079 H1059 0.950 . S
C1079 C1075 1.385 . S
C1079 C1078 1.374 . S
C1080 C1077 1.499 . S
C1080 C1081 1.373 . S
C1080 C1082 1.389 . S
C1081 H1060 0.950 . S
C1081 C1080 1.373 . S
C1081 C1097 1.377 . S
C1082 C1080 1.389 . S
C1082 C1083 1.524 . S
C1082 C1096 1.377 . S
C1083 C1082 1.524 . S
C1083 C1084 1.397 . S
C1083 C1088 1.363 . S
C1084 H1061 0.950 . S
C1084 C1083 1.397 . S
C1084 C1085 1.334 . S
C1085 H1062 0.950 . S
C1085 C1084 1.334 . S
C1085 C1086 1.287 . S
C1086 C1085 1.287 . S
C1086 C1087 1.524 . S
C1086 H1105 0.913 . S
C1087 H1063 0.950 . S
C1087 C1086 1.524 . S
C1087 C1088 1.415 . S
C1088 H1064 0.950 . S
C1088 C1083 1.363 . S
C1088 C1087 1.415 . S
C1089 H1065 0.951 . S
C1089 C1090 1.366 . S
C1089 C1091 1.388 . S
C1090 C1089 1.366 . S
C1090 C1094 1.385 . S
C1091 H1066 0.951 . S
C1091 C1089 1.388 . S
C1091 C1092 1.366 . S
C1092 C1091 1.366 . S
C1092 C1093 1.414 . S
C1092 C1095 1.499 . S
C1093 H1067 0.950 . S
C1093 C1092 1.414 . S
C1093 C1094 1.374 . S
C1094 H1068 0.950 . S
C1094 C1090 1.385 . S
C1094 C1093 1.374 . S
C1095 C1092 1.499 . S
C1095 C1096 1.373 . S
C1095 C1097 1.389 . S
C1096 H1069 0.950 . S
C1096 C1082 1.377 . S
C1096 C1095 1.373 . S
C1097 C1081 1.377 . S
C1097 C1095 1.389 . S
C1097 C1098 1.524 . S
C1098 C1097 1.524 . S
C1098 C1099 1.397 . S
C1098 C1103 1.363 . S
C1099 H1070 0.950 . S
C1099 C1098 1.397 . S
C1099 C1100 1.334 . S
C1100 H1071 0.950 . S
C1100 C1099 1.334 . S
C1100 C1101 1.287 . S
C1101 C1100 1.287 . S
C1101 C1102 1.524 . S
C1101 H1104 0.999 . S
C1102 H1072 0.950 . S
C1102 C1101 1.524 . S
C1102 C1103 1.415 . S
C1103 H1073 0.950 . S
C1103 C1098 1.363 . S
C1103 C1102 1.415 . S
H1104 C1101 0.999 . S
H1105 C1086 0.913 . S
H1106 C1124 0.951 . S
H1107 C1126 0.951 . S
H1108 C1128 0.950 . S
H1109 C1129 0.950 . S
H1110 C1131 0.950 . S
H1111 C1134 0.950 . S
H1112 C1135 0.950 . S
H1113 C1137 0.950 . S
H1114 C1138 0.950 . S
H1115 C1139 0.951 . S
H1116 C1141 0.951 . S
H1117 C1143 0.950 . S
H1118 C1144 0.950 . S
H1119 C1146 0.950 . S
H1120 C1149 0.950 . S
H1121 C1150 0.950 . S
H1122 C1152 0.950 . S
H1123 C1153 0.950 . S
C1124 H1106 0.951 . S
C1124 C1125 1.366 . S
C1124 C1126 1.388 . S
C1125 C1124 1.366 . S
C1125 C1129 1.385 . S
C1126 H1107 0.951 . S
C1126 C1124 1.388 . S
C1126 C1127 1.366 . S
C1127 C1126 1.366 . S
C1127 C1128 1.414 . S
C1127 C1130 1.499 . S
C1128 H1108 0.950 . S
C1128 C1127 1.414 . S
C1128 C1129 1.374 . S
C1129 H1109 0.950 . S
C1129 C1125 1.385 . S
C1129 C1128 1.374 . S
C1130 C1127 1.499 . S
C1130 C1131 1.373 . S
C1130 C1132 1.389 . S
C1131 H1110 0.950 . S
C1131 C1130 1.373 . S
C1131 C1147 1.377 . S
C1132 C1130 1.389 . S
C1132 C1133 1.524 . S
C1132 C1146 1.377 . S
C1133 C1132 1.524 . S
C1133 C1134 1.397 . S
C1133 C1138 1.363 . S
C1134 H1111 0.950 . S
C1134 C1133 1.397 . S
C1134 C1135 1.334 . S
C1135 H1112 0.950 . S
C1135 C1134 1.334 . S
C1135 C1136 1.287 . S
C1136 C1135 1.287 . S
C1136 C1137 1.524 . S
C1136 H1155 0.913 . S
C1137 H1113 0.950 . S
C1137 C1136 1.524 . S
C1137 C1138 1.415 . S
C1138 H1114 0.950 . S
C1138 C1133 1.363 . S
C1138 C1137 1.415 . S
C1139 H1115 0.951 . S
C1139 C1140 1.366 . S
C1139 C1141 1.388 . S
C1140 C1139 1.366 . S
C1140 C1144 1.385 . S
C1141 H1116 0.951 . S
C1141 C1139 1.388 . S
C1141 C1142 1.366 . S
C1142 C1141 1.366 . S
C1142 C1143 1.414 . S
C1142 C1145 1.499 . S
C1143 H1117 0.950 . S
C1143 C1142 1.414 . S
C1143 C1144 1.374 . S
C1144 H1118 0.950 . S
C1144 C1140 1.385 . S
C1144 C1143 1.374 . S
C1145 C1142 1.499 . S
C1145 C1146 1.373 . S
C1145 C1147 1.389 . S
C1146 H1119 0.950 . S
C1146 C1132 1.377 . S
C1146 C1145 1.373 . S
C1147 C1131 1.377 . S
C1147 C1145 1.389 . S
C1147 C1148 1.524 . S
C1148 C1147 1.524 . S
C1148 C1149 1.397 . S
C1148 C1153 1.363 . S
C1149 H1120 0.950 . S
C1149 C1148 1.397 . S
C1149 C1150 1.334 . S
C1150 H1121 0.950 . S
C1150 C1149 1.334 . S
C1150 C1151 1.287 . S
C1151 C1150 1.287 . S
C1151 C1152 1.524 . S
C1151 H1154 0.999 . S
C1152 H1122 0.950 . S
C1152 C1151 1.524 . S
C1152 C1153 1.415 . S
C1153 H1123 0.950 . S
C1153 C1148 1.363 . S
C1153 C1152 1.415 . S
H1154 C1151 0.999 . S
H1155 C1136 0.913 . S
H1156 C1174 0.951 . S
H1157 C1176 0.951 . S
H1158 C1178 0.950 . S
H1159 C1179 0.950 . S
H1160 C1181 0.950 . S
H1161 C1184 0.950 . S
H1162 C1185 0.950 . S
H1163 C1187 0.950 . S
H1164 C1188 0.950 . S
H1165 C1189 0.951 . S
H1166 C1191 0.951 . S
H1167 C1193 0.950 . S
H1168 C1194 0.950 . S
H1169 C1196 0.950 . S
H1170 C1199 0.950 . S
H1171 C1200 0.950 . S
H1172 C1202 0.950 . S
H1173 C1203 0.950 . S
C1174 H1156 0.951 . S
C1174 C1175 1.366 . S
C1174 C1176 1.388 . S
C1175 C1174 1.366 . S
C1175 C1179 1.385 . S
C1176 H1157 0.951 . S
C1176 C1174 1.388 . S
C1176 C1177 1.366 . S
C1177 C1176 1.366 . S
C1177 C1178 1.414 . S
C1177 C1180 1.499 . S
C1178 H1158 0.950 . S
C1178 C1177 1.414 . S
C1178 C1179 1.374 . S
C1179 H1159 0.950 . S
C1179 C1175 1.385 . S
C1179 C1178 1.374 . S
C1180 C1177 1.499 . S
C1180 C1181 1.373 . S
C1180 C1182 1.389 . S
C1181 H1160 0.950 . S
C1181 C1180 1.373 . S
C1181 C1197 1.377 . S
C1182 C1180 1.389 . S
C1182 C1183 1.524 . S
C1182 C1196 1.377 . S
C1183 C1182 1.524 . S
C1183 C1184 1.397 . S
C1183 C1188 1.363 . S
C1184 H1161 0.950 . S
C1184 C1183 1.397 . S
C1184 C1185 1.334 . S
C1185 H1162 0.950 . S
C1185 C1184 1.334 . S
C1185 C1186 1.287 . S
C1186 C1185 1.287 . S
C1186 C1187 1.524 . S
C1186 H1205 0.913 . S
C1187 H1163 0.950 . S
C1187 C1186 1.524 . S
C1187 C1188 1.415 . S
C1188 H1164 0.950 . S
C1188 C1183 1.363 . S
C1188 C1187 1.415 . S
C1189 H1165 0.951 . S
C1189 C1190 1.366 . S
C1189 C1191 1.388 . S
C1190 C1189 1.366 . S
C1190 C1194 1.385 . S
C1191 H1166 0.951 . S
C1191 C1189 1.388 . S
C1191 C1192 1.366 . S
C1192 C1191 1.366 . S
C1192 C1193 1.414 . S
C1192 C1195 1.499 . S
C1193 H1167 0.950 . S
C1193 C1192 1.414 . S
C1193 C1194 1.374 . S
C1194 H1168 0.950 . S
C1194 C1190 1.385 . S
C1194 C1193 1.374 . S
C1195 C1192 1.499 . S
C1195 C1196 1.373 . S
C1195 C1197 1.389 . S
C1196 H1169 0.950 . S
C1196 C1182 1.377 . S
C1196 C1195 1.373 . S
C1197 C1181 1.377 . S
C1197 C1195 1.389 . S
C1197 C1198 1.524 . S
C1198 C1197 1.524 . S
C1198 C1199 1.397 . S
C1198 C1203 1.363 . S
C1199 H1170 0.950 . S
C1199 C1198 1.397 . S
C1199 C1200 1.334 . S
C1200 H1171 0.950 . S
C1200 C1199 1.334 . S
C1200 C1201 1.287 . S
C1201 C1200 1.287 . S
C1201 C1202 1.524 . S
C1201 H1204 0.999 . S
C1202 H1172 0.950 . S
C1202 C1201 1.524 . S
C1202 C1203 1.415 . S
C1203 H1173 0.950 . S
C1203 C1198 1.363 . S
C1203 C1202 1.415 . S
H1204 C1201 0.999 . S
H1205 C1186 0.913 . S
H1206 C1224 0.951 . S
H1207 C1226 0.951 . S
H1208 C1228 0.950 . S
H1209 C1229 0.950 . S
H1210 C1231 0.950 . S
H1211 C1234 0.950 . S
H1212 C1235 0.950 . S
H1213 C1237 0.950 . S
H1214 C1238 0.950 . S
H1215 C1239 0.951 . S
H1216 C1241 0.951 . S
H1217 C1243 0.950 . S
H1218 C1244 0.950 . S
H1219 C1246 0.950 . S
H1220 C1249 0.950 . S
H1221 C1250 0.950 . S
H1222 C1252 0.950 . S
H1223 C1253 0.950 . S
C1224 H1206 0.951 . S
C1224 C1225 1.366 . S
C1224 C1226 1.388 . S
C1225 C1224 1.366 . S
C1225 C1229 1.385 . S
C1226 H1207 0.951 . S
C1226 C1224 1.388 . S
C1226 C1227 1.366 . S
C1227 C1226 1.366 . S
C1227 C1228 1.414 . S
C1227 C1230 1.499 . S
C1228 H1208 0.950 . S
C1228 C1227 1.414 . S
C1228 C1229 1.374 . S
C1229 H1209 0.950 . S
C1229 C1225 1.385 . S
C1229 C1228 1.374 . S
C1230 C1227 1.499 . S
C1230 C1231 1.373 . S
C1230 C1232 1.389 . S
C1231 H1210 0.950 . S
C1231 C1230 1.373 . S
C1231 C1247 1.377 . S
C1232 C1230 1.389 . S
C1232 C1233 1.524 . S
C1232 C1246 1.377 . S
C1233 C1232 1.524 . S
C1233 C1234 1.397 . S
C1233 C1238 1.363 . S
C1234 H1211 0.950 . S
C1234 C1233 1.397 . S
C1234 C1235 1.334 . S
C1235 H1212 0.950 . S
C1235 C1234 1.334 . S
C1235 C1236 1.287 . S
C1236 C1235 1.287 . S
C1236 C1237 1.524 . S
C1236 H1255 0.913 . S
C1237 H1213 0.950 . S
C1237 C1236 1.524 . S
C1237 C1238 1.415 . S
C1238 H1214 0.950 . S
C1238 C1233 1.363 . S
C1238 C1237 1.415 . S
C1239 H1215 0.951 . S
C1239 C1240 1.366 . S
C1239 C1241 1.388 . S
C1240 C1239 1.366 . S
C1240 C1244 1.385 . S
C1241 H1216 0.951 . S
C1241 C1239 1.388 . S
C1241 C1242 1.366 . S
C1242 C1241 1.366 . S
C1242 C1243 1.414 . S
C1242 C1245 1.499 . S
C1243 H1217 0.950 . S
C1243 C1242 1.414 . S
C1243 C1244 1.374 . S
C1244 H1218 0.950 . S
C1244 C1240 1.385 . S
C1244 C1243 1.374 . S
C1245 C1242 1.499 . S
C1245 C1246 1.373 . S
C1245 C1247 1.389 . S
C1246 H1219 0.950 . S
C1246 C1232 1.377 . S
C1246 C1245 1.373 . S
C1247 C1231 1.377 . S
C1247 C1245 1.389 . S
C1247 C1248 1.524 . S
C1248 C1247 1.524 . S
C1248 C1249 1.397 . S
C1248 C1253 1.363 . S
C1249 H1220 0.950 . S
C1249 C1248 1.397 . S
C1249 C1250 1.334 . S
C1250 H1221 0.950 . S
C1250 C1249 1.334 . S
C1250 C1251 1.287 . S
C1251 C1250 1.287 . S
C1251 C1252 1.524 . S
C1251 H1254 0.999 . S
C1252 H1222 0.950 . S
C1252 C1251 1.524 . S
C1252 C1253 1.415 . S
C1253 H1223 0.950 . S
C1253 C1248 1.363 . S
C1253 C1252 1.415 . S
H1254 C1251 0.999 . S
H1255 C1236 0.913 . S
H1256 C1274 0.951 . S
H1257 C1276 0.951 . S
H1258 C1278 0.950 . S
H1259 C1279 0.950 . S
H1260 C1281 0.950 . S
H1261 C1284 0.950 . S
H1262 C1285 0.950 . S
H1263 C1287 0.950 . S
H1264 C1288 0.950 . S
H1265 C1289 0.951 . S
H1266 C1291 0.951 . S
H1267 C1293 0.950 . S
H1268 C1294 0.950 . S
H1269 C1296 0.950 . S
H1270 C1299 0.950 . S
H1271 C1300 0.950 . S
H1272 C1302 0.950 . S
H1273 C1303 0.950 . S
C1274 H1256 0.951 . S
C1274 C1275 1.366 . S
C1274 C1276 1.388 . S
C1275 C1274 1.366 . S
C1275 C1279 1.385 . S
C1276 H1257 0.951 . S
C1276 C1274 1.388 . S
C1276 C1277 1.366 . S
C1277 C1276 1.366 . S
C1277 C1278 1.414 . S
C1277 C1280 1.499 . S
C1278 H1258 0.950 . S
C1278 C1277 1.414 . S
C1278 C1279 1.374 . S
C1279 H1259 0.950 . S
C1279 C1275 1.385 . S
C1279 C1278 1.374 . S
C1280 C1277 1.499 . S
C1280 C1281 1.373 . S
C1280 C1282 1.389 . S
C1281 H1260 0.950 . S
C1281 C1280 1.373 . S
C1281 C1297 1.377 . S
C1282 C1280 1.389 . S
C1282 C1283 1.524 . S
C1282 C1296 1.377 . S
C1283 C1282 1.524 . S
C1283 C1284 1.397 . S
C1283 C1288 1.363 . S
C1284 H1261 0.950 . S
C1284 C1283 1.397 . S
C1284 C1285 1.334 . S
C1285 H1262 0.950 . S
C1285 C1284 1.334 . S
C1285 C1286 1.287 . S
C1286 C1285 1.287 . S
C1286 C1287 1.524 . S
C1286 H1305 0.913 . S
C1287 H1263 0.950 . S
C1287 C1286 1.524 . S
C1287 C1288 1.415 . S
C1288 H1264 0.950 . S
C1288 C1283 1.363 . S
C1288 C1287 1.415 . S
C1289 H1265 0.951 . S
C1289 C1290 1.366 . S
C1289 C1291 1.388 . S
C1290 C1289 1.366 . S
C1290 C1294 1.385 . S
C1291 H1266 0.951 . S
C1291 C1289 1.388 . S
C1291 C1292 1.366 . S
C1292 C1291 1.366 . S
C1292 C1293 1.414 . S
C1292 C1295 1.499 . S
C1293 H1267 0.950 . S
C1293 C1292 1.414 . S
C1293 C1294 1.374 . S
C1294 H1268 0.950 . S
C1294 C1290 1.385 . S
C1294 C1293 1.374 . S
C1295 C1292 1.499 . S
C1295 C1296 1.373 . S
C1295 C1297 1.389 . S
C1296 H1269 0.950 . S
C1296 C1282 1.377 . S
C1296 C1295 1.373 . S
C1297 C1281 1.377 . S
C1297 C1295 1.389 . S
C1297 C1298 1.524 . S
C1298 C1297 1.524 . S
C1298 C1299 1.397 . S
C1298 C1303 1.363 . S
C1299 H1270 0.950 . S
C1299 C1298 1.397 . S
C1299 C1300 1.334 . S
C1300 H1271 0.950 . S
C1300 C1299 1.334 . S
C1300 C1301 1.287 . S
C1301 C1300 1.287 . S
C1301 C1302 1.524 . S
C1301 H1304 0.999 . S
C1302 H1272 0.950 . S
C1302 C1301 1.524 . S
C1302 C1303 1.415 . S
C1303 H1273 0.950 . S
C1303 C1298 1.363 . S
C1303 C1302 1.415 . S
H1304 C1301 0.999 . S
H1305 C1286 0.913 . S
H1306 C1324 0.951 . S
H1307 C1326 0.951 . S
H1308 C1328 0.950 . S
H1309 C1329 0.950 . S
H1310 C1331 0.950 . S
H1311 C1334 0.950 . S
H1312 C1335 0.950 . S
H1313 C1337 0.950 . S
H1314 C1338 0.950 . S
H1315 C1339 0.951 . S
H1316 C1341 0.951 . S
H1317 C1343 0.950 . S
H1318 C1344 0.950 . S
H1319 C1346 0.950 . S
H1320 C1349 0.950 . S
H1321 C1350 0.950 . S
H1322 C1352 0.950 . S
H1323 C1353 0.950 . S
C1324 H1306 0.951 . S
C1324 C1325 1.366 . S
C1324 C1326 1.388 . S
C1325 C1324 1.366 . S
C1325 C1329 1.385 . S
C1326 H1307 0.951 . S
C1326 C1324 1.388 . S
C1326 C1327 1.366 . S
C1327 C1326 1.366 . S
C1327 C1328 1.414 . S
C1327 C1330 1.499 . S
C1328 H1308 0.950 . S
C1328 C1327 1.414 . S
C1328 C1329 1.374 . S
C1329 H1309 0.950 . S
C1329 C1325 1.385 . S
C1329 C1328 1.374 . S
C1330 C1327 1.499 . S
C1330 C1331 1.373 . S
C1330 C1332 1.389 . S
C1331 H1310 0.950 . S
C1331 C1330 1.373 . S
C1331 C1347 1.377 . S
C1332 C1330 1.389 . S
C1332 C1333 1.524 . S
C1332 C1346 1.377 . S
C1333 C1332 1.524 . S
C1333 C1334 1.397 . S
C1333 C1338 1.363 . S
C1334 H1311 0.950 . S
C1334 C1333 1.397 . S
C1334 C1335 1.334 . S
C1335 H1312 0.950 . S
C1335 C1334 1.334 . S
C1335 C1336 1.287 . S
C1336 C1335 1.287 . S
C1336 C1337 1.524 . S
C1336 H1355 0.913 . S
C1337 H1313 0.950 . S
C1337 C1336 1.524 . S
C1337 C1338 1.415 . S
C1338 H1314 0.950 . S
C1338 C1333 1.363 . S
C1338 C1337 1.415 . S
C1339 H1315 0.951 . S
C1339 C1340 1.366 . S
C1339 C1341 1.388 . S
C1340 C1339 1.366 . S
C1340 C1344 1.385 . S
C1341 H1316 0.951 . S
C1341 C1339 1.388 . S
C1341 C1342 1.366 . S
C1342 C1341 1.366 . S
C1342 C1343 1.414 . S
C1342 C1345 1.499 . S
C1343 H1317 0.950 . S
C1343 C1342 1.414 . S
C1343 C1344 1.374 . S
C1344 H1318 0.950 . S
C1344 C1340 1.385 . S
C1344 C1343 1.374 . S
C1345 C1342 1.499 . S
C1345 C1346 1.373 . S
C1345 C1347 1.389 . S
C1346 H1319 0.950 . S
C1346 C1332 1.377 . S
C1346 C1345 1.373 . S
C1347 C1331 1.377 . S
C1347 C1345 1.389 . S
C1347 C1348 1.524 . S
C1348 C1347 1.524 . S
C1348 C1349 1.397 . S
C1348 C1353 1.363 . S
C1349 H1320 0.950 . S
C1349 C1348 1.397 . S
C1349 C1350 1.334 . S
C1350 H1321 0.950 . S
C1350 C1349 1.334 . S
C1350 C1351 1.287 . S
C1351 C1350 1.287 . S
C1351 C1352 1.524 . S
C1351 H1354 0.999 . S
C1352 H1322 0.950 . S
C1352 C1351 1.524 . S
C1352 C1353 1.415 . S
C1353 H1323 0.950 . S
C1353 C1348 1.363 . S
C1353 C1352 1.415 . S
H1354 C1351 0.999 . S
H1355 C1336 0.913 . S
H1356 C1374 0.951 . S
H1357 C1376 0.951 . S
H1358 C1378 0.950 . S
H1359 C1379 0.950 . S
H1360 C1381 0.950 . S
H1361 C1384 0.950 . S
H1362 C1385 0.950 . S
H1363 C1387 0.950 . S
H1364 C1388 0.950 . S
H1365 C1389 0.951 . S
H1366 C1391 0.951 . S
H1367 C1393 0.950 . S
H1368 C1394 0.950 . S
H1369 C1396 0.950 . S
H1370 C1399 0.950 . S
H1371 C1400 0.950 . S
H1372 C1402 0.950 . S
H1373 C1403 0.950 . S
C1374 H1356 0.951 . S
C1374 C1375 1.366 . S
C1374 C1376 1.388 . S
C1375 C1374 1.366 . S
C1375 C1379 1.385 . S
C1376 H1357 0.951 . S
C1376 C1374 1.388 . S
C1376 C1377 1.366 . S
C1377 C1376 1.366 . S
C1377 C1378 1.414 . S
C1377 C1380 1.499 . S
C1378 H1358 0.950 . S
C1378 C1377 1.414 . S
C1378 C1379 1.374 . S
C1379 H1359 0.950 . S
C1379 C1375 1.385 . S
C1379 C1378 1.374 . S
C1380 C1377 1.499 . S
C1380 C1381 1.373 . S
C1380 C1382 1.389 . S
C1381 H1360 0.950 . S
C1381 C1380 1.373 . S
C1381 C1397 1.377 . S
C1382 C1380 1.389 . S
C1382 C1383 1.524 . S
C1382 C1396 1.377 . S
C1383 C1382 1.524 . S
C1383 C1384 1.397 . S
C1383 C1388 1.363 . S
C1384 H1361 0.950 . S
C1384 C1383 1.397 . S
C1384 C1385 1.334 . S
C1385 H1362 0.950 . S
C1385 C1384 1.334 . S
C1385 C1386 1.287 . S
C1386 C1385 1.287 . S
C1386 C1387 1.524 . S
C1386 H1405 0.913 . S
C1387 H1363 0.950 . S
C1387 C1386 1.524 . S
C1387 C1388 1.415 . S
C1388 H1364 0.950 . S
C1388 C1383 1.363 . S
C1388 C1387 1.415 . S
C1389 H1365 0.951 . S
C1389 C1390 1.366 . S
C1389 C1391 1.388 . S
C1390 C1389 1.366 . S
C1390 C1394 1.385 . S
C1391 H1366 0.951 . S
C1391 C1389 1.388 . S
C1391 C1392 1.366 . S
C1392 C1391 1.366 . S
C1392 C1393 1.414 . S
C1392 C1395 1.499 . S
C1393 H1367 0.950 . S
C1393 C1392 1.414 . S
C1393 C1394 1.374 . S
C1394 H1368 0.950 . S
C1394 C1390 1.385 . S
C1394 C1393 1.374 . S
C1395 C1392 1.499 . S
C1395 C1396 1.373 . S
C1395 C1397 1.389 . S
C1396 H1369 0.950 . S
C1396 C1382 1.377 . S
C1396 C1395 1.373 . S
C1397 C1381 1.377 . S
C1397 C1395 1.389 . S
C1397 C1398 1.524 . S
C1398 C1397 1.524 . S
C1398 C1399 1.397 . S
C1398 C1403 1.363 . S
C1399 H1370 0.950 . S
C1399 C1398 1.397 . S
C1399 C1400 1.334 . S
C1400 H1371 0.950 . S
C1400 C1399 1.334 . S
C1400 C1401 1.287 . S
C1401 C1400 1.287 . S
C1401 C1402 1.524 . S
C1401 H1404 0.999 . S
C1402 H1372 0.950 . S
C1402 C1401 1.524 . S
C1402 C1403 1.415 . S
C1403 H1373 0.950 . S
C1403 C1398 1.363 . S
C1403 C1402 1.415 . S
H1404 C1401 0.999 . S
H1405 C1386 0.913 . S
H1406 C1424 0.951 . S
H1407 C1426 0.951 . S
H1408 C1428 0.950 . S
H1409 C1429 0.950 . S
H1410 C1431 0.950 . S
H1411 C1434 0.950 . S
H1412 C1435 0.950 . S
H1413 C1437 0.950 . S
H1414 C1438 0.950 . S
H1415 C1439 0.951 . S
H1416 C1441 0.951 . S
H1417 C1443 0.950 . S
H1418 C1444 0.950 . S
H1419 C1446 0.950 . S
H1420 C1449 0.950 . S
H1421 C1450 0.950 . S
H1422 C1452 0.950 . S
H1423 C1453 0.950 . S
C1424 H1406 0.951 . S
C1424 C1425 1.366 . S
C1424 C1426 1.388 . S
C1425 C1424 1.366 . S
C1425 C1429 1.385 . S
C1426 H1407 0.951 . S
C1426 C1424 1.388 . S
C1426 C1427 1.366 . S
C1427 C1426 1.366 . S
C1427 C1428 1.414 . S
C1427 C1430 1.499 . S
C1428 H1408 0.950 . S
C1428 C1427 1.414 . S
C1428 C1429 1.374 . S
C1429 H1409 0.950 . S
C1429 C1425 1.385 . S
C1429 C1428 1.374 . S
C1430 C1427 1.499 . S
C1430 C1431 1.373 . S
C1430 C1432 1.389 . S
C1431 H1410 0.950 . S
C1431 C1430 1.373 . S
C1431 C1447 1.377 . S
C1432 C1430 1.389 . S
C1432 C1433 1.524 . S
C1432 C1446 1.377 . S
C1433 C1432 1.524 . S
C1433 C1434 1.397 . S
C1433 C1438 1.363 . S
C1434 H1411 0.950 . S
C1434 C1433 1.397 . S
C1434 C1435 1.334 . S
C1435 H1412 0.950 . S
C1435 C1434 1.334 . S
C1435 C1436 1.287 . S
C1436 C1435 1.287 . S
C1436 C1437 1.524 . S
C1436 H1455 0.913 . S
C1437 H1413 0.950 . S
C1437 C1436 1.524 . S
C1437 C1438 1.415 . S
C1438 H1414 0.950 . S
C1438 C1433 1.363 . S
C1438 C1437 1.415 . S
C1439 H1415 0.951 . S
C1439 C1440 1.366 . S
C1439 C1441 1.388 . S
C1440 C1439 1.366 . S
C1440 C1444 1.385 . S
C1441 H1416 0.951 . S
C1441 C1439 1.388 . S
C1441 C1442 1.366 . S
C1442 C1441 1.366 . S
C1442 C1443 1.414 . S
C1442 C1445 1.499 . S
C1443 H1417 0.950 . S
C1443 C1442 1.414 . S
C1443 C1444 1.374 . S
C1444 H1418 0.950 . S
C1444 C1440 1.385 . S
C1444 C1443 1.374 . S
C1445 C1442 1.499 . S
C1445 C1446 1.373 . S
C1445 C1447 1.389 . S
C1446 H1419 0.950 . S
C1446 C1432 1.377 . S
C1446 C1445 1.373 . S
C1447 C1431 1.377 . S
C1447 C1445 1.389 . S
C1447 C1448 1.524 . S
C1448 C1447 1.524 . S
C1448 C1449 1.397 . S
C1448 C1453 1.363 . S
C1449 H1420 0.950 . S
C1449 C1448 1.397 . S
C1449 C1450 1.334 . S
C1450 H1421 0.950 . S
C1450 C1449 1.334 . S
C1450 C1451 1.287 . S
C1451 C1450 1.287 . S
C1451 C1452 1.524 . S
C1451 H1454 0.999 . S
C1452 H1422 0.950 . S
C1452 C1451 1.524 . S
C1452 C1453 1.415 . S
C1453 H1423 0.950 . S
C1453 C1448 1.363 . S
C1453 C1452 1.415 . S
H1454 C1451 0.999 . S
H1455 C1436 0.913 . S
C275 C6 1.101 . S
C290 C103 1.126 . S
C325 C18 1.312 . S
C340 C152 1.302 . S
C390 C178 2.536 . S
C375 C28 2.560 . S
C425 C40 1.598 . S
C440 C226 1.560 . S
C490 C138 2.499 . S
C475 C9 2.420 . S
C540 C106 0.919 . S
C525 C16 0.936 . S
C590 C227 1.823 . S
C575 C30 1.840 . S
C640 C195 1.092 . S
C625 C42 1.110 . S
C675 C4 1.546 . S
C690 C223 1.569 . S
C740 C155 2.509 . S
C725 C33 2.576 . S
C775 C45 2.037 . S
C790 C107 2.030 . S
C825 C21 0.981 . S
C840 C192 0.991 . S
C890 C112 1.145 . S
C875 C57 1.130 . S
C925 C66 1.325 . S
C940 C143 1.312 . S
C975 C76 2.614 . S
C990 C187 2.586 . S
C1025 C88 1.523 . S
C1040 C235 1.490 . S
C1075 C54 2.402 . S
C1090 C147 2.477 . S
C1140 C115 1.030 . S
C1125 C64 1.057 . S
C1190 C218 1.715 . S
C1175 C78 1.740 . S
C1240 C186 1.126 . S
C1225 C93 1.146 . S
C1275 C52 1.498 . S
C1290 C232 1.552 . S
C1340 C146 2.496 . S
C1325 C81 2.564 . S
C1390 C98 2.002 . S
C1375 C90 2.007 . S
C1425 C69 0.992 . S
C1440 C183 1.006 . S
