# Generated by pormake.
# Topology anh, (6,3)-cn, num edge types: 1
# Building blocks:
#     Node 0, Type 0, BuildingBlock: HISSIN_clean_sbu_0, # of connection points: 6
#     Node 1, Type 0, BuildingBlock: HISSIN_clean_sbu_0, # of connection points: 6
#     Node 2, Type 0, BuildingBlock: HISSIN_clean_sbu_0, # of connection points: 6
#     Node 3, Type 1, BuildingBlock: CUQRIR_clean_linker_1, # of connection points: 3
#     Node 4, Type 1, BuildingBlock: CUQRIR_clean_linker_1, # of connection points: 3
#     Node 5, Type 1, BuildingBlock: CUQRIR_clean_linker_1, # of connection points: 3
#     Node 6, Type 1, BuildingBlock: CUQRIR_clean_linker_1, # of connection points: 3
#     Node 7, Type 1, BuildingBlock: CUQRIR_clean_linker_1, # of connection points: 3
#     Node 8, Type 1, BuildingBlock: CUQRIR_clean_linker_1, # of connection points: 3
#     Edge 9, Type (0, 1), BuildingBlock: EZIPEK_clean_linker_0, # of connection points: 2
#     Edge 10, Type (0, 1), BuildingBlock: EZIPEK_clean_linker_0, # of connection points: 2
#     Edge 11, Type (0, 1), BuildingBlock: EZIPEK_clean_linker_0, # of connection points: 2
#     Edge 12, Type (0, 1), BuildingBlock: EZIPEK_clean_linker_0, # of connection points: 2
#     Edge 13, Type (0, 1), BuildingBlock: EZIPEK_clean_linker_0, # of connection points: 2
#     Edge 14, Type (0, 1), BuildingBlock: EZIPEK_clean_linker_0, # of connection points: 2
#     Edge 15, Type (0, 1), BuildingBlock: EZIPEK_clean_linker_0, # of connection points: 2
#     Edge 16, Type (0, 1), BuildingBlock: EZIPEK_clean_linker_0, # of connection points: 2
#     Edge 17, Type (0, 1), BuildingBlock: EZIPEK_clean_linker_0, # of connection points: 2
#     Edge 18, Type (0, 1), BuildingBlock: EZIPEK_clean_linker_0, # of connection points: 2
#     Edge 19, Type (0, 1), BuildingBlock: EZIPEK_clean_linker_0, # of connection points: 2
#     Edge 20, Type (0, 1), BuildingBlock: EZIPEK_clean_linker_0, # of connection points: 2
#     Edge 21, Type (0, 1), BuildingBlock: EZIPEK_clean_linker_0, # of connection points: 2
#     Edge 22, Type (0, 1), BuildingBlock: EZIPEK_clean_linker_0, # of connection points: 2
#     Edge 23, Type (0, 1), BuildingBlock: EZIPEK_clean_linker_0, # of connection points: 2
#     Edge 24, Type (0, 1), BuildingBlock: EZIPEK_clean_linker_0, # of connection points: 2
#     Edge 25, Type (0, 1), BuildingBlock: EZIPEK_clean_linker_0, # of connection points: 2
#     Edge 26, Type (0, 1), BuildingBlock: EZIPEK_clean_linker_0, # of connection points: 2
# Relax obj value: 0.454
# Max RMSD: 0.209
# Mean RMSD: 0.168
data_MOF--net-anh--node1-HISSIN_clean_sbu_0--node2-CUQRIR_clean_linker_1--edge1-EZIPEK_clean_linker_0
_symmetry_space_group_name_H-M    P1
_symmetry_Int_Tables_number       1
_symmetry_cell_setting            triclinic
loop_
_symmetry_equiv_pos_as_xyz
'x, y, z'
_cell_length_a     20.87718
_cell_length_b     20.586679
_cell_length_c     33.803616
_cell_angle_alpha  88.677316
_cell_angle_beta   89.886045
_cell_angle_gamma 119.96419
loop_
_atom_site_label
_atom_site_type_symbol
_atom_site_fract_x
_atom_site_fract_y
_atom_site_fract_z
_atom_type_partial_charge
Eu0 Eu 1.07791 0.51625 0.15199 0.0
Eu1 Eu 0.16532 0.68696 0.15982 0.0
C2 C 1.11575 0.58726 0.24179 0.0
C3 C 0.91825 0.33906 0.13086 0.0
C4 C 0.89001 0.38516 0.11765 0.0
C5 C 0.80355 0.25948 0.16533 0.0
C6 C 0.8227 0.37359 0.13283 0.0
C7 C 0.87169 0.27224 0.15152 0.0
C8 C 0.78177 0.31315 0.15914 0.0
C9 C 0.99747 0.37469 0.13831 0.0
O10 O 0.26718 0.66393 0.15862 0.0
O11 O 0.20162 0.5374 0.1514 0.0
C12 C 0.26821 0.5996 0.1541 0.0
O13 O 1.0851 0.56599 0.09061 0.0
O14 O 0.24778 0.80202 0.17433 0.0
O15 O 0.16601 0.78163 0.12958 0.0
O16 O 0.19808 0.65677 0.10364 0.0
C17 C 1.1495 0.61805 0.07759 0.0
O18 O 0.97593 0.53778 0.15249 0.0
O19 O 1.04202 0.66421 0.14999 0.0
O20 O 1.14705 0.65544 0.22557 0.0
O21 O 1.04115 0.42319 0.11148 0.0
O22 O 1.01435 0.40065 0.17389 0.0
O23 O 1.0858 0.52758 0.21948 0.0
C24 C 0.28724 0.87473 0.11508 0.0
C25 C 0.30089 0.83812 0.08435 0.0
C26 C 0.40496 0.98457 0.10023 0.0
C27 C 0.37082 0.87072 0.0666 0.0
C28 C 0.33679 0.95082 0.12027 0.0
C29 C 0.42654 0.93967 0.07976 0.0
C30 C 0.22875 0.83053 0.1446 0.0
C31 C 0.97543 0.60221 0.14861 0.0
H32 H 0.92443 0.43607 0.1004 0.0
H33 H 0.77051 0.21089 0.18409 0.0
H34 H 0.80647 0.41518 0.12691 0.0
H35 H 0.89176 0.23541 0.16168 0.0
H36 H 0.26064 0.78189 0.07686 0.0
H37 H 0.44498 1.04199 0.10621 0.0
H38 H 0.3841 0.83758 0.04762 0.0
H39 H 0.32572 0.98206 0.14195 0.0
Eu40 Eu 0.74473 1.0684 0.48538 0.0
Eu41 Eu 0.6599 0.15432 0.49784 0.0
C42 C 0.71082 1.09729 0.57675 0.0
C43 C 0.89516 1.02463 0.49895 0.0
C44 C 0.90969 1.06253 0.53465 0.0
C45 C 0.9736 0.97527 0.51867 0.0
C46 C 0.94982 1.05029 0.56391 0.0
C47 C 0.93276 0.98688 0.48962 0.0
C48 C 0.97392 0.99841 0.5579 0.0
C49 C 0.83188 1.01358 0.47554 0.0
O50 O 0.78121 0.25991 0.48898 0.0
O51 O 0.84166 0.19599 0.47735 0.0
C52 C 0.84502 0.2625 0.47985 0.0
O53 O 0.69474 1.06518 0.4267 0.0
O54 O 0.63433 0.23526 0.52348 0.0
O55 O 0.56312 0.15954 0.47892 0.0
O56 O 0.6966 0.17509 0.43404 0.0
C57 C 0.69359 0.12319 0.41154 0.0
O58 O 0.62189 0.96612 0.47816 0.0
O59 O 0.56121 1.02773 0.49431 0.0
O60 O 0.67698 0.13172 0.5621 0.0
O61 O 0.76843 0.97763 0.49441 0.0
O62 O 0.83996 1.07251 0.45601 0.0
O63 O 0.74054 1.06927 0.55309 0.0
C64 C 0.5829 0.28231 0.47725 0.0
C65 C 0.60502 0.29664 0.43717 0.0
C66 C 0.58714 0.40135 0.47936 0.0
C67 C 0.62084 0.36463 0.41873 0.0
C68 C 0.57063 0.3334 0.49755 0.0
C69 C 0.6168 0.41984 0.44048 0.0
C70 C 0.57981 0.21874 0.49933 0.0
C71 C 0.55689 0.96317 0.48407 0.0
H72 H 0.88358 1.09509 0.54139 0.0
H73 H 0.99532 0.93898 0.51143 0.0
H74 H 0.95342 1.07389 0.5926 0.0
H75 H 0.92434 0.95971 0.4615 0.0
H76 H 0.61358 0.25705 0.42066 0.0
H77 H 0.5821 0.44172 0.49705 0.0
H78 H 0.63941 0.37489 0.3882 0.0
H79 H 0.55279 0.32287 0.52832 0.0
Eu80 Eu 0.64237 0.60733 0.82809 0.0
Eu81 Eu 0.81421 0.69487 0.83119 0.0
C82 C 0.72155 0.64535 0.91527 0.0
C83 C 0.44169 0.48219 0.85529 0.0
C84 C 0.46201 0.46916 0.89297 0.0
C85 C 0.32784 0.46559 0.88295 0.0
C86 C 0.41769 0.46052 0.92597 0.0
C87 C 0.37156 0.4735 0.85003 0.0
C88 C 0.35509 0.46856 0.92144 0.0
C89 C 0.49848 0.52406 0.8249 0.0
O90 O 0.7957 0.57193 0.82507 0.0
O91 O 0.67001 0.50906 0.82313 0.0
C92 C 0.73271 0.5064 0.82201 0.0
O93 O 0.68307 0.64879 0.76558 0.0
O94 O 0.92375 0.72129 0.85127 0.0
O95 O 0.91242 0.79418 0.80811 0.0
O96 O 0.78685 0.64208 0.77199 0.0
C97 C 0.73799 0.64507 0.74942 0.0
O98 O 0.66108 0.73044 0.82302 0.0
O99 O 0.7862 0.79234 0.81728 0.0
O100 O 0.78637 0.68112 0.89714 0.0
O101 O 0.53324 0.59633 0.82913 0.0
O102 O 0.54352 0.49969 0.81664 0.0
O103 O 0.65994 0.61313 0.89497 0.0
C104 C 1.01421 0.77758 0.80087 0.0
C105 C 0.99484 0.72109 0.77343 0.0
C106 C 1.14285 0.82954 0.78262 0.0
C107 C 1.04952 0.71728 0.75156 0.0
C108 C 1.0879 0.83361 0.80405 0.0
C109 C 1.1251 0.7683 0.75783 0.0
C110 C 0.95776 0.77799 0.82627 0.0
C111 C 0.72362 0.79545 0.81659 0.0
H112 H 0.51561 0.47406 0.89744 0.0
H113 H 0.27839 0.46907 0.87811 0.0
H114 H 0.43741 0.45727 0.9551 0.0
H115 H 0.3546 0.48238 0.82107 0.0
H116 H 0.93756 0.6782 0.77001 0.0
H117 H 0.19939 0.87159 0.7884 0.0
H118 H 1.03199 0.67108 0.73188 0.0
H119 H 1.10339 0.8787 0.8245 0.0
C120 C 0.57834 1.10647 0.19602 0.0
N121 N 0.60716 0.1464 0.22909 0.0
N122 N 0.60845 1.06337 0.18805 0.0
C123 C 0.50744 1.09346 0.17814 0.0
C124 C 0.65247 1.07306 0.2192 0.0
N125 N 0.65103 0.12268 0.24452 0.0
C126 C 0.69182 1.02965 0.22659 0.0
H127 H 0.47395 1.10385 0.19977 0.0
H128 H 0.47383 1.03404 0.17012 0.0
H129 H 0.51967 0.13028 0.15143 0.0
H130 H 0.67934 0.9876 0.20356 0.0
H131 H 0.67556 1.00104 0.25614 0.0
H132 H 0.75232 1.06872 0.22663 0.0
C133 C 0.8087 0.72301 0.52347 0.0
N134 N 0.82123 0.73177 0.56272 0.0
N135 N 0.7608 0.65061 0.51596 0.0
C136 C 0.84133 0.78535 0.4928 0.0
C137 C 0.74457 0.61538 0.55189 0.0
N138 N 0.77963 0.66513 0.58063 0.0
C139 C 0.6955 0.53229 0.55859 0.0
H140 H 0.83335 0.83188 0.50259 0.0
H141 H 0.81546 0.76644 0.46356 0.0
H142 H 0.90156 0.80678 0.48984 0.0
H143 H 0.70755 0.50163 0.53589 0.0
H144 H 0.63699 0.51776 0.5555 0.0
H145 H 0.70314 0.51405 0.58849 0.0
C146 C 0.28843 0.66925 0.86709 0.0
N147 N 0.28048 0.66385 0.90687 0.0
N148 N 0.25263 0.70229 0.85157 0.0
C149 C 0.32351 0.63441 0.8428 0.0
C150 C 0.22127 0.71636 0.88298 0.0
N151 N 0.24099 0.69588 0.91777 0.0
C152 C 1.16322 0.7386 0.87742 0.0
H153 H 0.37323 0.63919 0.85715 0.0
H154 H 0.33913 0.66096 0.81277 0.0
H155 H 0.28312 0.57397 0.83969 0.0
H156 H 1.14405 0.73171 0.84649 0.0
H157 H 0.18671 0.79882 0.88358 0.0
H158 H 1.11346 0.7022 0.89571 0.0
C159 C 0.19662 0.61186 0.47215 0.0
N160 N 1.14057 0.56369 0.44641 0.0
N161 N 0.25749 0.67351 0.45327 0.0
C162 C 0.19113 0.60049 0.51615 0.0
C163 C 0.23563 0.65996 0.415 0.0
N164 N 0.16703 0.59746 0.4106 0.0
C165 C 0.28278 0.70961 0.38093 0.0
H166 H 1.13266 0.56514 0.52605 0.0
H167 H 0.21653 0.65551 0.53067 0.0
H168 H 0.22236 0.57217 0.52518 0.0
H169 H 0.34242 0.73634 0.38788 0.0
H170 H 0.26929 0.75473 0.37539 0.0
H171 H 0.27267 0.67764 0.35346 0.0
C172 C 0.72436 0.14664 0.80824 0.0
N173 N 0.72288 1.09353 0.78224 0.0
N174 N 0.72857 0.2102 0.78939 0.0
C175 C 0.71888 0.13511 0.85223 0.0
C176 C 0.73059 0.1932 0.75089 0.0
N177 N 0.72514 0.12447 0.74624 0.0
C178 C 0.73814 0.24525 0.71675 0.0
H179 H 0.69722 0.16885 0.86601 0.0
H180 H 0.77477 0.15337 0.86396 0.0
H181 H 0.68282 1.07478 0.8602 0.0
H182 H 0.76651 0.30453 0.72583 0.0
H183 H 0.6823 0.23023 0.70612 0.0
H184 H 0.7697 0.24022 0.69175 0.0
C185 C 0.62688 0.60574 0.14566 0.0
N186 N 0.68375 0.61309 0.11984 0.0
N187 N 0.56781 0.60805 0.12677 0.0
C188 C 0.62839 0.59588 0.18959 0.0
C189 C 0.59195 0.61724 0.0885 0.0
N190 N 0.65951 0.62126 0.08406 0.0
C191 C 0.54629 0.61946 0.05451 0.0
H192 H 0.59292 0.53563 0.19784 0.0
H193 H 0.60521 0.62691 0.2048 0.0
H194 H 0.68549 0.6152 0.19973 0.0
H195 H 0.51634 0.64914 0.06279 0.0
H196 H 0.50472 0.56104 0.04748 0.0
H197 H 0.57919 0.64661 0.02732 0.0
C198 C 0.35454 0.54406 0.12682 0.0
C199 C 0.3457 0.59753 0.15027 0.0
C200 C 0.48604 0.65634 0.16078 0.0
C201 C 0.49312 0.60013 0.1398 0.0
N202 N 0.42327 0.47894 0.11197 0.0
N203 N 0.40835 0.69004 0.19988 0.0
C204 C 0.4238 0.54089 0.12581 0.0
C205 C 0.41329 0.64929 0.17003 0.0
N206 N 0.29802 0.49724 0.10323 0.0
N207 N 0.5494 0.71903 0.17112 0.0
H208 H 0.35825 0.68474 0.20908 0.0
H209 H 0.45253 0.72258 0.21817 0.0
H210 H 0.60152 0.72615 0.16481 0.0
H211 H 0.54999 0.76576 0.18276 0.0
H212 H 0.30373 0.4646 0.08194 0.0
H213 H 0.24783 0.49611 0.1017 0.0
H214 H 0.37497 0.42974 0.10527 0.0
H215 H 0.47097 0.47453 0.11127 0.0
C216 C 0.99387 0.35532 0.48512 0.0
C217 C 0.92237 0.34156 0.47154 0.0
C218 C 0.99545 0.47835 0.44553 0.0
C219 C 1.06732 0.48933 0.45535 0.0
N220 N 1.12984 0.42567 0.47951 0.0
N221 N 0.86504 0.394 0.42989 0.0
C222 C 1.0644 0.42397 0.47382 0.0
C223 C 0.92662 0.40463 0.44932 0.0
N224 N 0.99513 0.30406 0.51094 0.0
N225 N 0.99158 0.54021 0.43456 0.0
H226 H 0.8158 0.34277 0.43043 0.0
H227 H 0.86517 0.43312 0.40975 0.0
H228 H 1.03744 0.59362 0.43621 0.0
H229 H 0.94234 0.53946 0.42886 0.0
H230 H 1.04254 0.31289 0.52558 0.0
H231 H 0.94725 0.25625 0.52107 0.0
H232 H 1.13343 0.37883 0.48837 0.0
H233 H 0.18051 0.47235 0.47146 0.0
C234 C 0.66646 0.8779 0.78571 0.0
C235 C 0.72357 0.87368 0.80791 0.0
C236 C 0.78334 1.01712 0.81014 0.0
C237 C 0.7227 1.01967 0.79139 0.0
N238 N 0.59673 0.94262 0.77246 0.0
N239 N 0.82983 0.94683 0.84828 0.0
C240 C 0.66193 0.94706 0.78225 0.0
C241 C 0.78021 0.94579 0.82174 0.0
N242 N 0.61709 0.81635 0.76576 0.0
N243 N 0.84604 1.0837 0.81633 0.0
H244 H 0.82799 0.89821 0.85921 0.0
H245 H 0.86731 0.99483 0.86289 0.0
H246 H 0.85021 0.13512 0.8088 0.0
H247 H 0.8955 1.08767 0.82537 0.0
H248 H 0.57917 0.81728 0.74609 0.0
H249 H 0.61977 0.76722 0.7651 0.0
H250 H 0.54785 0.89201 0.76888 0.0
H251 H 0.58997 0.98928 0.77358 0.0
C252 C 0.89491 0.66119 0.11685 0.0
C253 C 0.89901 0.60535 0.14191 0.0
C254 C 0.75808 0.55054 0.14969 0.0
C255 C 0.75596 0.6109 0.12822 0.0
N256 N 0.83558 0.73603 0.10304 0.0
N257 N 0.82764 0.50716 0.19025 0.0
C258 C 0.8283 0.66915 0.11497 0.0
C259 C 0.82829 0.55306 0.16037 0.0
N260 N 0.95412 0.70636 0.09295 0.0
N261 N 0.69237 0.48806 0.15906 0.0
H262 H 0.87559 0.50853 0.19999 0.0
H263 H 0.78124 0.47426 0.20811 0.0
H264 H 0.64195 0.48218 0.15022 0.0
H265 H 0.68849 0.43985 0.17192 0.0
H266 H 0.95264 0.74258 0.07139 0.0
H267 H 1.00129 0.70134 0.09143 0.0
H268 H 0.88637 0.78331 0.09599 0.0
H269 H 0.79195 0.74639 0.10621 0.0
C270 C 0.46442 0.81126 0.48731 0.0
C271 C 0.4769 0.88628 0.47877 0.0
C272 C 0.33798 0.81709 0.46279 0.0
C273 C 0.32839 0.74317 0.46698 0.0
N274 N 0.39155 0.67458 0.4782 0.0
N275 N 0.41758 0.95186 0.45077 0.0
C276 C 0.39449 0.74222 0.47785 0.0
C277 C 0.41092 0.88611 0.46483 0.0
N278 N 0.51818 0.80474 0.50677 0.0
N279 N 0.27573 0.82187 0.45733 0.0
H280 H 0.4669 1.00244 0.4505 0.0
H281 H 0.37595 0.95511 0.43552 0.0
H282 H 0.22347 0.77421 0.4556 0.0
H283 H 0.27476 0.87186 0.45861 0.0
H284 H 0.51123 0.75377 0.51751 0.0
H285 H 0.56659 0.85095 0.51623 0.0
H286 H 0.43808 0.66866 0.48088 0.0
H287 H 0.34265 0.62484 0.47274 0.0
C288 C 0.78396 0.40926 0.83289 0.0
C289 C 0.73125 0.42771 0.81566 0.0
C290 C 0.6687 0.29404 0.79038 0.0
C291 C 0.72605 0.27945 0.80307 0.0
N292 N 0.846 0.33418 0.83191 0.0
N293 N 0.63266 0.3848 0.7683 0.0
C294 C 0.78562 0.34044 0.8231 0.0
C295 C 0.67597 0.36871 0.79208 0.0
N296 N 0.83128 0.45573 0.86043 0.0
N297 N 0.60525 0.23523 0.77678 0.0
H298 H 0.63945 0.43831 0.7652 0.0
H299 H 0.59682 0.34771 0.74767 0.0
H300 H 0.59774 0.18122 0.77582 0.0
H301 H 0.55796 0.23839 0.7707 0.0
H302 H 0.8658 0.44296 0.87697 0.0
H303 H 0.83026 0.50296 0.86993 0.0
H304 H 0.8951 0.37845 0.84218 0.0
H305 H 0.84851 0.28605 0.82576 0.0
C306 C 0.90628 0.91549 0.61364 0.0
C307 C 0.97343 0.95008 0.592 0.0
C308 C 0.952 0.82768 0.57428 0.0
C309 C 0.87501 0.79974 0.58107 0.0
N310 N 0.77886 0.81709 0.61 0.0
N311 N 1.07723 0.93488 0.57952 0.0
C312 C 0.85193 0.84255 0.60291 0.0
C313 C 1.00269 0.90341 0.58371 0.0
N314 N 0.894 0.95373 0.64213 0.0
N315 N 0.97508 0.78473 0.55569 0.0
H316 H 1.11195 0.99212 0.58408 0.0
H317 H 1.10363 0.90428 0.57429 0.0
H318 H 0.9383 0.73019 0.54722 0.0
H319 H 1.02975 0.80405 0.54723 0.0
H320 H 0.84628 0.92954 0.65985 0.0
H321 H 0.93562 1.00698 0.65002 0.0
H322 H 0.7598 0.84965 0.62321 0.0
H323 H 0.73764 0.76611 0.59953 0.0
C324 C 0.2563 0.80022 0.75704 0.0
C325 C 0.18305 0.74836 0.74683 0.0
C326 C 0.18398 0.65374 0.78973 0.0
C327 C 0.2424 0.71239 0.81038 0.0
N328 N 0.34759 0.83716 0.80914 0.0
N329 N 1.1207 0.62042 0.72689 0.0
C330 C 0.28469 0.78424 0.79186 0.0
C331 C 1.16194 0.67255 0.75382 0.0
N332 N 0.29303 0.86636 0.73618 0.0
N333 N 1.1467 0.58275 0.80558 0.0
H334 H 1.10712 0.63643 0.70006 0.0
H335 H 1.10662 0.56429 0.72996 0.0
H336 H 1.16111 0.56828 0.83254 0.0
H337 H 1.0994 0.54003 0.7928 0.0
H338 H 0.34755 0.90708 0.74142 0.0
H339 H 0.26813 0.87719 0.71208 0.0
H340 H 0.37817 0.89246 0.79866 0.0
H341 H 0.36824 0.82476 0.83456 0.0
C342 C 0.49908 0.90402 0.12257 0.0
C343 C 0.49988 0.94903 0.09006 0.0
C344 C 0.61212 1.05198 0.11616 0.0
C345 C 0.59136 1.01648 0.15412 0.0
N346 N 0.51508 0.90438 0.19331 0.0
N347 N 0.56909 1.06082 0.05049 0.0
C348 C 0.53644 0.94012 0.15724 0.0
C349 C 0.56224 1.02085 0.08446 0.0
N350 N 0.46026 0.82797 0.1209 0.0
N351 N 0.67817 1.116 0.11137 0.0
H352 H 0.53198 1.03668 0.02739 0.0
H353 H 0.60917 0.11697 0.04599 0.0
H354 H 0.69828 0.14457 0.08433 0.0
H355 H 0.71584 0.13329 0.13422 0.0
H356 H 0.46145 0.79376 0.1436 0.0
H357 H 0.43609 0.80053 0.09491 0.0
H358 H 0.46897 0.85106 0.19721 0.0
H359 H 0.54062 0.93024 0.21941 0.0
C360 C 0.73479 0.53518 0.42835 0.0
C361 C 0.657 0.50045 0.42759 0.0
C362 C 0.66226 0.60079 0.46658 0.0
C363 C 0.73349 0.61683 0.47858 0.0
N364 N 0.84364 0.61043 0.46712 0.0
N365 N 0.55399 0.52031 0.42742 0.0
C366 C 0.77265 0.58914 0.45739 0.0
C367 C 0.62424 0.54281 0.43911 0.0
N368 N 0.77116 0.51541 0.40209 0.0
N369 N 0.63012 0.63689 0.48383 0.0
H370 H 0.52676 0.47517 0.40858 0.0
H371 H 0.52476 0.54718 0.43472 0.0
H372 H 0.65843 0.67922 0.50405 0.0
H373 H 0.57673 0.62582 0.47807 0.0
H374 H 0.82859 0.5417 0.40009 0.0
H375 H 0.74351 0.47921 0.37922 0.0
H376 H 0.87222 0.58552 0.45575 0.0
H377 H 0.87254 0.65104 0.48802 0.0
C378 C 0.26104 0.488 0.95426 0.0
C379 C 0.33606 0.5082 0.95157 0.0
C380 C 0.37242 0.63786 0.93793 0.0
C381 C 0.29741 0.61559 0.93088 0.0
N382 N 0.16808 0.52208 0.93759 0.0
N383 N 0.45698 0.60537 0.96926 0.0
C384 C 0.24045 0.5419 0.94223 0.0
C385 C 0.38932 0.58468 0.95418 0.0
N386 N 0.21074 0.41535 0.96395 0.0
N387 N 0.42752 0.70725 0.92575 0.0
H388 H 0.46886 0.56582 0.98155 0.0
H389 H 0.49702 0.66114 0.9735 0.0
H390 H 0.41684 0.74645 0.91174 0.0
H391 H 0.48338 0.72327 0.92661 0.0
H392 H 1.15417 0.39454 0.96709 0.0
H393 H 0.22819 0.3769 0.97085 0.0
H394 H 1.12388 0.46857 0.94361 0.0
H395 H 1.1519 0.55938 0.92679 0.0
C396 C 0.7406 0.31335 0.22839 0.0
C397 C 0.72635 0.31143 0.18697 0.0
C398 C 0.59706 0.25265 0.20432 0.0
C399 C 0.61278 0.21886 0.23688 0.0
N400 N 0.68257 0.27826 0.29429 0.0
N401 N 0.63506 0.29849 0.13798 0.0
C402 C 0.67911 0.27125 0.2544 0.0
C403 C 0.65299 0.28859 0.17532 0.0
N404 N 0.81115 0.35076 0.24182 0.0
N405 N 0.53021 0.24742 0.19989 0.0
H406 H 0.6742 0.32466 0.11528 0.0
H407 H 0.6742 0.32466 0.11528 0.0
H408 H 0.48843 0.22124 0.22143 0.0
H409 H 0.48843 0.22124 0.22143 0.0
H410 H 0.82423 0.34878 0.27139 0.0
H411 H 0.85605 0.38242 0.22267 0.0
H412 H 0.72953 0.3182 0.30859 0.0
H413 H 0.63578 0.24559 0.31212 0.0
C414 C 1.12566 0.65354 0.00893 0.0
C415 C 0.17022 0.63798 0.03502 0.0
C416 C 0.27387 0.70482 0.98828 0.0
C417 C 0.2254 0.70357 0.95937 0.0
N418 N 1.14054 0.74897 0.96238 0.0
N419 N 0.28679 0.64143 0.04555 0.0
C420 C 1.15808 0.69589 0.97337 0.0
C421 C 0.24477 0.66216 0.02367 0.0
N422 N 1.05453 0.6334 0.01862 0.0
N423 N 0.34782 0.75009 0.9822 0.0
H424 H 0.26546 0.60499 0.07001 0.0
H425 H 0.33941 0.65318 0.03659 0.0
H426 H 0.36765 0.78738 0.95784 0.0
H427 H 0.38734 0.75564 0.00271 0.0
H428 H 1.02022 0.6401 -0.00148 0.0
H429 H 1.02837 0.60635 0.04509 0.0
H430 H 1.09599 0.75166 0.97455 0.0
H431 H 0.17901 0.79762 0.94711 0.0
C432 C 0.74617 0.15921 0.34313 0.0
C433 C 0.68384 0.12733 0.36881 0.0
C434 C 0.60117 1.08558 0.3125 0.0
C435 C 0.6633 0.12201 0.28649 0.0
N436 N 0.79664 0.19415 0.27801 0.0
N437 N 0.55291 1.07538 0.37885 0.0
C438 C 0.73587 0.15866 0.30191 0.0
C439 C 0.61149 1.09501 0.35376 0.0
N440 N 0.81598 0.19182 0.35797 0.0
N441 N 0.53271 1.03876 0.29783 0.0
H442 H 0.55935 1.08344 0.4092 0.0
H443 H 0.49961 1.05856 0.36925 0.0
H444 H 0.52353 1.02688 0.26793 0.0
H445 H 0.48649 1.00515 0.31567 0.0
H446 H 0.8632 0.21586 0.33979 0.0
H447 H 0.82644 0.19495 0.38825 0.0
H448 H 0.7943 0.19721 0.24736 0.0
H449 H 0.7943 0.19721 0.24736 0.0
C450 C 0.68458 0.61188 0.68089 0.0
C451 C 0.74707 0.64688 0.70573 0.0
C452 C 0.82687 0.67169 0.64794 0.0
C453 C 0.76672 0.65213 0.6228 0.0
N454 N 0.63821 0.61789 0.61642 0.0
N455 N 0.87972 0.73184 0.70872 0.0
C456 C 0.69518 0.62598 0.63947 0.0
C457 C 0.81913 0.68278 0.68823 0.0
N458 N 0.61596 0.56299 0.69615 0.0
N459 N 0.89088 0.67852 0.6335 0.0
H460 H 0.87584 0.75019 0.73657 0.0
H461 H 0.9322 0.76212 0.69561 0.0
H462 H 0.89455 0.66361 0.60468 0.0
H463 H 0.93541 0.68913 0.65152 0.0
H464 H 0.5704 0.53246 0.67828 0.0
H465 H 0.60646 0.54568 0.72584 0.0
H466 H 0.58685 0.60485 0.62823 0.0
H467 H 0.64468 0.63246 0.58637 0.0
C468 C 0.6464 1.05992 0.6443 0.0
C469 C 0.71284 1.08817 0.62158 0.0
C470 C 0.78 1.10657 0.68477 0.0
C471 C 0.71619 1.09228 0.70693 0.0
N472 N 0.59023 1.06641 0.70563 0.0
N473 N 0.84571 0.14443 0.62137 0.0
C474 C 0.64947 1.07055 0.68608 0.0
C475 C 0.78035 1.1116 0.64214 0.0
N476 N 0.57978 1.02204 0.62605 0.0
N477 N 0.84161 0.11923 0.70479 0.0
H478 H 0.84891 0.15328 0.59081 0.0
H479 H 0.89729 0.16907 0.63459 0.0
H480 H 0.84282 0.11896 0.73561 0.0
H481 H 0.88836 0.12334 0.69121 0.0
H482 H 0.52958 0.99421 0.64158 0.0
H483 H 0.5752 1.0114 0.59585 0.0
H484 H 0.54316 1.05957 0.69133 0.0
H485 H 0.59109 1.07715 0.73563 0.0
C486 C 0.73968 0.70698 0.98224 0.0
C487 C 0.7175 0.6411 0.96028 0.0
C488 C 0.68141 0.56686 0.02375 0.0
C489 C 0.69455 0.63111 0.04492 0.0
N490 N 0.72442 0.76021 0.04236 0.0
N491 N 0.66809 0.50749 0.96023 0.0
C492 C 0.7224 0.70102 0.02372 0.0
C493 C 0.68909 0.57083 0.98122 0.0
N494 N 0.77546 0.7757 0.96336 0.0
N495 N 0.65958 0.50137 0.04459 0.0
H496 H 0.67688 0.5088 0.92976 0.0
H497 H 0.6397 0.45335 0.97241 0.0
H498 H 0.65116 0.49702 0.07518 0.0
H499 H 0.65434 0.45304 0.03246 0.0
H500 H 0.80118 0.82594 0.97833 0.0
H501 H 0.78418 0.78283 0.93282 0.0
H502 H 0.73484 0.80972 0.02781 0.0
H503 H 0.70847 0.7572 0.0719 0.0
C504 C 1.09238 0.61812 0.31128 0.0
C505 C 1.11495 0.5777 0.28679 0.0
C506 C 1.14204 0.52698 0.34816 0.0
C507 C 1.13191 0.57744 0.37171 0.0
N508 N 1.1097 0.6816 0.37308 0.0
N509 N 0.16991 0.49876 0.28303 0.0
C510 C 1.10934 0.62509 0.35255 0.0
C511 C 1.14074 0.5322 0.30559 0.0
N512 N 1.05353 0.64925 0.29532 0.0
N513 N 1.15662 0.4763 0.36662 0.0
H514 H 0.17391 0.50391 0.25228 0.0
H515 H 0.19662 0.47164 0.29482 0.0
H516 H 1.16136 0.47435 0.39725 0.0
H517 H 1.15767 0.43274 0.35213 0.0
H518 H 1.02964 0.6733 0.3124 0.0
H519 H 1.03824 0.64357 0.26568 0.0
H520 H 1.10232 0.72348 0.35972 0.0
H521 H 1.12434 0.69074 0.40273 0.0
loop_
_geom_bond_atom_site_label_1
_geom_bond_atom_site_label_2
_geom_bond_distance
_geom_bond_site_symmetry_2
_ccdc_geom_bond_type
Eu0 C9 2.828 . S
Eu0 O11 2.392 1_655 S
Eu0 O13 2.418 . S
Eu0 O18 2.373 . S
Eu0 O21 2.488 . S
Eu0 O22 2.471 . S
Eu0 O23 2.349 . S
Eu1 O10 2.373 . S
Eu1 O14 2.488 . S
Eu1 O15 2.471 . S
Eu1 O16 2.349 . S
Eu1 O19 2.392 1_455 S
Eu1 O20 2.418 . S
Eu1 C30 2.828 . S
C2 O20 1.244 . S
C2 O23 1.265 1_455 S
C3 C4 1.379 . S
C3 C7 1.373 . S
C3 C9 1.505 . S
C4 C3 1.379 . S
C4 C6 1.369 . S
C4 H32 0.930 . S
C5 C7 1.383 . S
C5 C8 1.382 . S
C5 H33 0.930 . S
C6 C4 1.369 . S
C6 C8 1.392 . S
C6 H34 0.930 . S
C7 C3 1.373 . S
C7 C5 1.383 . S
C7 H35 0.931 . S
C8 C5 1.382 . S
C8 C6 1.392 . S
C9 Eu0 2.828 . S
C9 C3 1.505 . S
C9 O21 1.249 . S
C9 O22 1.244 . S
O10 Eu1 2.373 . S
O10 C12 1.258 . S
O11 Eu0 2.392 1_455 S
O11 C12 1.242 . S
C12 O10 1.258 . S
C12 O11 1.242 . S
O13 Eu0 2.418 . S
O13 C17 1.244 . S
O14 Eu1 2.488 . S
O14 C30 1.249 . S
O15 Eu1 2.471 . S
O15 C30 1.244 . S
O16 Eu1 2.349 . S
O16 C17 1.265 1_455 S
C17 O13 1.244 . S
C17 O16 1.265 1_655 S
O18 Eu0 2.373 . S
O18 C31 1.258 . S
O19 Eu1 2.392 1_655 S
O19 C31 1.242 . S
O20 Eu1 2.418 . S
O20 C2 1.244 . S
O21 Eu0 2.488 . S
O21 C9 1.249 . S
O22 Eu0 2.471 . S
O22 C9 1.244 . S
O23 Eu0 2.349 . S
O23 C2 1.265 1_655 S
C24 C25 1.379 . S
C24 C28 1.373 . S
C24 C30 1.505 . S
C25 C24 1.379 . S
C25 C27 1.369 . S
C25 H36 0.930 . S
C26 C28 1.383 . S
C26 C29 1.382 . S
C26 H37 0.930 . S
C27 C25 1.369 . S
C27 C29 1.392 . S
C27 H38 0.930 . S
C28 C24 1.373 . S
C28 C26 1.383 . S
C28 H39 0.931 . S
C29 C26 1.382 . S
C29 C27 1.392 . S
C30 Eu1 2.828 . S
C30 O14 1.249 . S
C30 O15 1.244 . S
C30 C24 1.505 . S
C31 O18 1.258 . S
C31 O19 1.242 . S
H32 C4 0.930 . S
H33 C5 0.930 . S
H34 C6 0.930 . S
H35 C7 0.931 . S
H36 C25 0.930 . S
H37 C26 0.930 . S
H38 C27 0.930 . S
H39 C28 0.931 . S
Eu40 C49 2.828 . S
Eu40 O51 2.392 1_565 S
Eu40 O53 2.418 . S
Eu40 O58 2.373 . S
Eu40 O61 2.488 . S
Eu40 O62 2.471 . S
Eu40 O63 2.349 1_565 S
Eu41 O50 2.373 . S
Eu41 O54 2.488 . S
Eu41 O55 2.471 . S
Eu41 O56 2.349 . S
Eu41 O59 2.392 1_545 S
Eu41 O60 2.418 . S
Eu41 C70 2.828 . S
C42 O60 1.244 . S
C42 O63 1.265 . S
C43 C44 1.379 . S
C43 C47 1.373 . S
C43 C49 1.505 . S
C44 C43 1.379 . S
C44 C46 1.369 . S
C44 H72 0.930 . S
C45 C47 1.383 . S
C45 C48 1.382 . S
C45 H73 0.930 . S
C46 C44 1.369 . S
C46 C48 1.392 . S
C46 H74 0.930 . S
C47 C43 1.373 . S
C47 C45 1.383 . S
C47 H75 0.931 . S
C48 C45 1.382 . S
C48 C46 1.392 . S
C49 Eu40 2.828 . S
C49 C43 1.505 . S
C49 O61 1.249 . S
C49 O62 1.244 . S
O50 Eu41 2.373 . S
O50 C52 1.258 . S
O51 Eu40 2.392 1_545 S
O51 C52 1.242 . S
C52 O50 1.258 . S
C52 O51 1.242 . S
O53 Eu40 2.418 . S
O53 C57 1.244 1_565 S
O54 Eu41 2.488 . S
O54 C70 1.249 . S
O55 Eu41 2.471 . S
O55 C70 1.244 . S
O56 Eu41 2.349 . S
O56 C57 1.265 . S
C57 O53 1.244 1_545 S
C57 O56 1.265 . S
O58 Eu40 2.373 . S
O58 C71 1.258 . S
O59 Eu41 2.392 1_565 S
O59 C71 1.242 . S
O60 Eu41 2.418 . S
O60 C42 1.244 . S
O61 Eu40 2.488 . S
O61 C49 1.249 . S
O62 Eu40 2.471 . S
O62 C49 1.244 . S
O63 Eu40 2.349 1_545 S
O63 C42 1.265 . S
C64 C65 1.379 . S
C64 C68 1.373 . S
C64 C70 1.505 . S
C65 C64 1.379 . S
C65 C67 1.369 . S
C65 H76 0.930 . S
C66 C68 1.383 . S
C66 C69 1.382 . S
C66 H77 0.930 . S
C67 C65 1.369 . S
C67 C69 1.392 . S
C67 H78 0.930 . S
C68 C64 1.373 . S
C68 C66 1.383 . S
C68 H79 0.931 . S
C69 C66 1.382 . S
C69 C67 1.392 . S
C70 Eu41 2.828 . S
C70 O54 1.249 . S
C70 O55 1.244 . S
C70 C64 1.505 . S
C71 O58 1.258 . S
C71 O59 1.242 . S
H72 C44 0.930 . S
H73 C45 0.930 . S
H74 C46 0.930 . S
H75 C47 0.931 . S
H76 C65 0.930 . S
H77 C66 0.930 . S
H78 C67 0.930 . S
H79 C68 0.931 . S
Eu80 C89 2.828 . S
Eu80 O91 2.392 . S
Eu80 O93 2.418 . S
Eu80 O98 2.373 . S
Eu80 O101 2.488 . S
Eu80 O102 2.471 . S
Eu80 O103 2.349 . S
Eu81 O90 2.373 . S
Eu81 O94 2.488 . S
Eu81 O95 2.471 . S
Eu81 O96 2.349 . S
Eu81 O99 2.392 . S
Eu81 O100 2.418 . S
Eu81 C110 2.828 . S
C82 O100 1.244 . S
C82 O103 1.265 . S
C83 C84 1.379 . S
C83 C87 1.373 . S
C83 C89 1.505 . S
C84 C83 1.379 . S
C84 C86 1.369 . S
C84 H112 0.930 . S
C85 C87 1.383 . S
C85 C88 1.382 . S
C85 H113 0.930 . S
C86 C84 1.369 . S
C86 C88 1.392 . S
C86 H114 0.930 . S
C87 C83 1.373 . S
C87 C85 1.383 . S
C87 H115 0.931 . S
C88 C85 1.382 . S
C88 C86 1.392 . S
C89 Eu80 2.828 . S
C89 C83 1.505 . S
C89 O101 1.249 . S
C89 O102 1.244 . S
O90 Eu81 2.373 . S
O90 C92 1.258 . S
O91 Eu80 2.392 . S
O91 C92 1.242 . S
C92 O90 1.258 . S
C92 O91 1.242 . S
O93 Eu80 2.418 . S
O93 C97 1.244 . S
O94 Eu81 2.488 . S
O94 C110 1.249 . S
O95 Eu81 2.471 . S
O95 C110 1.244 . S
O96 Eu81 2.349 . S
O96 C97 1.265 . S
C97 O93 1.244 . S
C97 O96 1.265 . S
O98 Eu80 2.373 . S
O98 C111 1.258 . S
O99 Eu81 2.392 . S
O99 C111 1.242 . S
O100 Eu81 2.418 . S
O100 C82 1.244 . S
O101 Eu80 2.488 . S
O101 C89 1.249 . S
O102 Eu80 2.471 . S
O102 C89 1.244 . S
O103 Eu80 2.349 . S
O103 C82 1.265 . S
C104 C105 1.379 . S
C104 C108 1.373 . S
C104 C110 1.505 . S
C105 C104 1.379 . S
C105 C107 1.369 . S
C105 H116 0.930 . S
C106 C108 1.383 . S
C106 C109 1.382 . S
C106 H117 0.930 . S
C107 C105 1.369 . S
C107 C109 1.392 . S
C107 H118 0.930 . S
C108 C104 1.373 . S
C108 C106 1.383 . S
C108 H119 0.931 . S
C109 C106 1.382 . S
C109 C107 1.392 . S
C110 Eu81 2.828 . S
C110 O94 1.249 . S
C110 O95 1.244 . S
C110 C104 1.505 . S
C111 O98 1.258 . S
C111 O99 1.242 . S
H112 C84 0.930 . S
H113 C85 0.930 . S
H114 C86 0.930 . S
H115 C87 0.931 . S
H116 C105 0.930 . S
H117 C106 0.930 . S
H118 C107 0.930 . S
H119 C108 0.931 . S
C120 N121 1.317 . S
C120 N122 1.348 1_545 S
C120 C123 1.485 . S
N121 C120 1.317 . S
N121 N125 1.370 . S
N122 C120 1.348 1_565 S
N122 C124 1.346 . S
C123 C120 1.485 . S
C123 H127 0.960 . S
C123 H128 0.961 1_545 S
C123 H129 0.960 . S
C124 N122 1.346 . S
C124 N125 1.307 1_565 S
C124 C126 1.486 . S
N125 N121 1.370 . S
N125 C124 1.307 1_545 S
C126 C124 1.486 . S
C126 H130 0.960 . S
C126 H131 0.960 . S
C126 H132 0.959 . S
H127 C123 0.960 . S
H128 C123 0.961 1_565 S
H129 C123 0.960 . S
H130 C126 0.960 . S
H131 C126 0.960 . S
H132 C126 0.959 . S
C133 N134 1.317 . S
C133 N135 1.348 . S
C133 C136 1.485 . S
N134 C133 1.317 . S
N134 N138 1.370 . S
N135 C133 1.348 . S
N135 C137 1.346 . S
C136 C133 1.485 . S
C136 H140 0.960 . S
C136 H141 0.961 . S
C136 H142 0.960 . S
C137 N135 1.346 . S
C137 N138 1.307 . S
C137 C139 1.486 . S
N138 N134 1.370 . S
N138 C137 1.307 . S
C139 C137 1.486 . S
C139 H143 0.960 . S
C139 H144 0.960 . S
C139 H145 0.959 . S
H140 C136 0.960 . S
H141 C136 0.961 . S
H142 C136 0.960 . S
H143 C139 0.960 . S
H144 C139 0.960 . S
H145 C139 0.959 . S
C146 N147 1.317 . S
C146 N148 1.348 1_455 S
C146 C149 1.485 . S
N147 C146 1.317 . S
N147 N151 1.370 . S
N148 C146 1.348 1_655 S
N148 C150 1.346 . S
C149 C146 1.485 . S
C149 H153 0.960 . S
C149 H154 0.961 . S
C149 H155 0.960 . S
C150 N148 1.346 . S
C150 N151 1.307 1_655 S
C150 C152 1.486 . S
N151 N147 1.370 . S
N151 C150 1.307 1_455 S
C152 C150 1.486 . S
C152 H156 0.960 . S
C152 H157 0.960 . S
C152 H158 0.959 . S
H153 C149 0.960 . S
H154 C149 0.961 . S
H155 C149 0.960 . S
H156 C152 0.960 . S
H157 C152 0.960 . S
H158 C152 0.959 . S
C159 N160 1.317 . S
C159 N161 1.348 . S
C159 C162 1.485 . S
N160 C159 1.317 . S
N160 N164 1.370 . S
N161 C159 1.348 . S
N161 C163 1.346 . S
C162 C159 1.485 . S
C162 H166 0.960 . S
C162 H167 0.961 . S
C162 H168 0.960 . S
C163 N161 1.346 . S
C163 N164 1.307 . S
C163 C165 1.486 . S
N164 N160 1.370 . S
N164 C163 1.307 . S
C165 C163 1.486 . S
C165 H169 0.960 . S
C165 H170 0.960 . S
C165 H171 0.959 . S
H166 C162 0.960 . S
H167 C162 0.961 . S
H168 C162 0.960 . S
H169 C165 0.960 . S
H170 C165 0.960 . S
H171 C165 0.959 . S
C172 N173 1.317 . S
C172 N174 1.348 . S
C172 C175 1.485 . S
N173 C172 1.317 . S
N173 N177 1.370 . S
N174 C172 1.348 . S
N174 C176 1.346 . S
C175 C172 1.485 . S
C175 H179 0.960 . S
C175 H180 0.961 . S
C175 H181 0.960 . S
C176 N174 1.346 . S
C176 N177 1.307 . S
C176 C178 1.486 . S
N177 N173 1.370 . S
N177 C176 1.307 . S
C178 C176 1.486 . S
C178 H182 0.960 . S
C178 H183 0.960 . S
C178 H184 0.959 . S
H179 C175 0.960 . S
H180 C175 0.961 . S
H181 C175 0.960 . S
H182 C178 0.960 . S
H183 C178 0.960 . S
H184 C178 0.959 . S
C185 N186 1.317 . S
C185 N187 1.348 . S
C185 C188 1.485 . S
N186 C185 1.317 . S
N186 N190 1.370 . S
N187 C185 1.348 . S
N187 C189 1.346 . S
C188 C185 1.485 . S
C188 H192 0.960 . S
C188 H193 0.961 . S
C188 H194 0.960 . S
C189 N187 1.346 . S
C189 N190 1.307 . S
C189 C191 1.486 . S
N190 N186 1.370 . S
N190 C189 1.307 . S
C191 C189 1.486 . S
C191 H195 0.960 . S
C191 H196 0.960 . S
C191 H197 0.959 . S
H192 C188 0.960 . S
H193 C188 0.961 . S
H194 C188 0.960 . S
H195 C191 0.960 . S
H196 C191 0.960 . S
H197 C191 0.959 . S
C198 C199 1.363 . S
C198 C204 1.379 . S
C198 N206 1.356 . S
C199 C198 1.363 . S
C199 C205 1.363 . S
C200 C201 1.363 . S
C200 C205 1.379 . S
C200 N207 1.356 . S
C201 C200 1.363 . S
C201 C204 1.363 . S
N202 C204 1.356 . S
N202 H214 0.984 . S
N202 H215 0.985 . S
N203 C205 1.356 . S
N203 H208 0.984 . S
N203 H209 0.985 . S
C204 C198 1.379 . S
C204 C201 1.363 . S
C204 N202 1.356 . S
C205 C199 1.363 . S
C205 C200 1.379 . S
C205 N203 1.356 . S
N206 C198 1.356 . S
N206 H212 0.984 . S
N206 H213 0.984 . S
N207 C200 1.356 . S
N207 H210 0.984 . S
N207 H211 0.985 . S
H208 N203 0.984 . S
H209 N203 0.985 . S
H210 N207 0.984 . S
H211 N207 0.985 . S
H212 N206 0.984 . S
H213 N206 0.984 . S
H214 N202 0.984 . S
H215 N202 0.985 . S
C216 C217 1.363 . S
C216 C222 1.379 . S
C216 N224 1.356 . S
C217 C216 1.363 . S
C217 C223 1.363 . S
C218 C219 1.363 . S
C218 C223 1.379 . S
C218 N225 1.356 . S
C219 C218 1.363 . S
C219 C222 1.363 . S
N220 C222 1.356 . S
N220 H232 0.984 . S
N220 H233 0.985 . S
N221 C223 1.356 . S
N221 H226 0.984 . S
N221 H227 0.985 . S
C222 C216 1.379 . S
C222 C219 1.363 . S
C222 N220 1.356 . S
C223 C217 1.363 . S
C223 C218 1.379 . S
C223 N221 1.356 . S
N224 C216 1.356 . S
N224 H230 0.984 . S
N224 H231 0.984 . S
N225 C218 1.356 . S
N225 H228 0.984 . S
N225 H229 0.985 . S
H226 N221 0.984 . S
H227 N221 0.985 . S
H228 N225 0.984 . S
H229 N225 0.985 . S
H230 N224 0.984 . S
H231 N224 0.984 . S
H232 N220 0.984 . S
H233 N220 0.985 . S
C234 C235 1.363 . S
C234 C240 1.379 . S
C234 N242 1.356 . S
C235 C234 1.363 . S
C235 C241 1.363 . S
C236 C237 1.363 . S
C236 C241 1.379 . S
C236 N243 1.356 . S
C237 C236 1.363 . S
C237 C240 1.363 . S
N238 C240 1.356 . S
N238 H250 0.984 . S
N238 H251 0.985 . S
N239 C241 1.356 . S
N239 H244 0.984 . S
N239 H245 0.985 . S
C240 C234 1.379 . S
C240 C237 1.363 . S
C240 N238 1.356 . S
C241 C235 1.363 . S
C241 C236 1.379 . S
C241 N239 1.356 . S
N242 C234 1.356 . S
N242 H248 0.984 . S
N242 H249 0.984 . S
N243 C236 1.356 . S
N243 H246 0.984 . S
N243 H247 0.985 . S
H244 N239 0.984 . S
H245 N239 0.985 . S
H246 N243 0.984 . S
H247 N243 0.985 . S
H248 N242 0.984 . S
H249 N242 0.984 . S
H250 N238 0.984 . S
H251 N238 0.985 . S
C252 C253 1.363 . S
C252 C258 1.379 . S
C252 N260 1.356 . S
C253 C252 1.363 . S
C253 C259 1.363 . S
C254 C255 1.363 . S
C254 C259 1.379 . S
C254 N261 1.356 . S
C255 C254 1.363 . S
C255 C258 1.363 . S
N256 C258 1.356 . S
N256 H268 0.984 . S
N256 H269 0.985 . S
N257 C259 1.356 . S
N257 H262 0.984 . S
N257 H263 0.985 . S
C258 C252 1.379 . S
C258 C255 1.363 . S
C258 N256 1.356 . S
C259 C253 1.363 . S
C259 C254 1.379 . S
C259 N257 1.356 . S
N260 C252 1.356 . S
N260 H266 0.984 . S
N260 H267 0.984 . S
N261 C254 1.356 . S
N261 H264 0.984 . S
N261 H265 0.985 . S
H262 N257 0.984 . S
H263 N257 0.985 . S
H264 N261 0.984 . S
H265 N261 0.985 . S
H266 N260 0.984 . S
H267 N260 0.984 . S
H268 N256 0.984 . S
H269 N256 0.985 . S
C270 C271 1.363 . S
C270 C276 1.379 . S
C270 N278 1.356 . S
C271 C270 1.363 . S
C271 C277 1.363 . S
C272 C273 1.363 . S
C272 C277 1.379 . S
C272 N279 1.356 . S
C273 C272 1.363 . S
C273 C276 1.363 . S
N274 C276 1.356 . S
N274 H286 0.984 . S
N274 H287 0.985 . S
N275 C277 1.356 . S
N275 H280 0.984 . S
N275 H281 0.985 . S
C276 C270 1.379 . S
C276 C273 1.363 . S
C276 N274 1.356 . S
C277 C271 1.363 . S
C277 C272 1.379 . S
C277 N275 1.356 . S
N278 C270 1.356 . S
N278 H284 0.984 . S
N278 H285 0.984 . S
N279 C272 1.356 . S
N279 H282 0.984 . S
N279 H283 0.985 . S
H280 N275 0.984 . S
H281 N275 0.985 . S
H282 N279 0.984 . S
H283 N279 0.985 . S
H284 N278 0.984 . S
H285 N278 0.984 . S
H286 N274 0.984 . S
H287 N274 0.985 . S
C288 C289 1.363 . S
C288 C294 1.379 . S
C288 N296 1.356 . S
C289 C288 1.363 . S
C289 C295 1.363 . S
C290 C291 1.363 . S
C290 C295 1.379 . S
C290 N297 1.356 . S
C291 C290 1.363 . S
C291 C294 1.363 . S
N292 C294 1.356 . S
N292 H304 0.984 . S
N292 H305 0.985 . S
N293 C295 1.356 . S
N293 H298 0.984 . S
N293 H299 0.985 . S
C294 C288 1.379 . S
C294 C291 1.363 . S
C294 N292 1.356 . S
C295 C289 1.363 . S
C295 C290 1.379 . S
C295 N293 1.356 . S
N296 C288 1.356 . S
N296 H302 0.984 . S
N296 H303 0.984 . S
N297 C290 1.356 . S
N297 H300 0.984 . S
N297 H301 0.985 . S
H298 N293 0.984 . S
H299 N293 0.985 . S
H300 N297 0.984 . S
H301 N297 0.985 . S
H302 N296 0.984 . S
H303 N296 0.984 . S
H304 N292 0.984 . S
H305 N292 0.985 . S
C306 C307 1.363 . S
C306 C312 1.379 . S
C306 N314 1.356 . S
C307 C306 1.363 . S
C307 C313 1.363 . S
C308 C309 1.363 . S
C308 C313 1.379 . S
C308 N315 1.356 . S
C309 C308 1.363 . S
C309 C312 1.363 . S
N310 C312 1.356 . S
N310 H322 0.984 . S
N310 H323 0.985 . S
N311 C313 1.356 . S
N311 H316 0.984 . S
N311 H317 0.985 . S
C312 C306 1.379 . S
C312 C309 1.363 . S
C312 N310 1.356 . S
C313 C307 1.363 . S
C313 C308 1.379 . S
C313 N311 1.356 . S
N314 C306 1.356 . S
N314 H320 0.984 . S
N314 H321 0.984 . S
N315 C308 1.356 . S
N315 H318 0.984 . S
N315 H319 0.985 . S
H316 N311 0.984 . S
H317 N311 0.985 . S
H318 N315 0.984 . S
H319 N315 0.985 . S
H320 N314 0.984 . S
H321 N314 0.984 . S
H322 N310 0.984 . S
H323 N310 0.985 . S
C324 C325 1.363 . S
C324 C330 1.379 . S
C324 N332 1.356 . S
C325 C324 1.363 . S
C325 C331 1.363 . S
C326 C327 1.363 . S
C326 C331 1.379 . S
C326 N333 1.356 . S
C327 C326 1.363 . S
C327 C330 1.363 . S
N328 C330 1.356 . S
N328 H340 0.984 1_655 S
N328 H341 0.985 1_655 S
N329 C331 1.356 . S
N329 H334 0.984 . S
N329 H335 0.985 . S
C330 C324 1.379 . S
C330 C327 1.363 . S
C330 N328 1.356 . S
C331 C325 1.363 . S
C331 C326 1.379 . S
C331 N329 1.356 . S
N332 C324 1.356 . S
N332 H338 0.984 . S
N332 H339 0.984 . S
N333 C326 1.356 . S
N333 H336 0.984 . S
N333 H337 0.985 . S
H334 N329 0.984 . S
H335 N329 0.985 . S
H336 N333 0.984 . S
H337 N333 0.985 . S
H338 N332 0.984 . S
H339 N332 0.984 . S
H340 N328 0.984 1_455 S
H341 N328 0.985 1_455 S
C342 C343 1.363 . S
C342 C348 1.379 . S
C342 N350 1.356 . S
C343 C342 1.363 . S
C343 C349 1.363 . S
C344 C345 1.363 . S
C344 C349 1.379 . S
C344 N351 1.356 1_565 S
C345 C344 1.363 . S
C345 C348 1.363 . S
N346 C348 1.356 . S
N346 H358 0.984 . S
N346 H359 0.985 . S
N347 C349 1.356 . S
N347 H352 0.984 . S
N347 H353 0.985 . S
C348 C342 1.379 . S
C348 C345 1.363 . S
C348 N346 1.356 . S
C349 C343 1.363 . S
C349 C344 1.379 . S
C349 N347 1.356 . S
N350 C342 1.356 . S
N350 H356 0.984 . S
N350 H357 0.984 . S
N351 C344 1.356 1_545 S
N351 H354 0.984 . S
N351 H355 0.985 . S
H352 N347 0.984 . S
H353 N347 0.985 . S
H354 N351 0.984 . S
H355 N351 0.985 . S
H356 N350 0.984 . S
H357 N350 0.984 . S
H358 N346 0.984 . S
H359 N346 0.985 . S
C360 C361 1.363 . S
C360 C366 1.379 . S
C360 N368 1.356 . S
C361 C360 1.363 . S
C361 C367 1.363 . S
C362 C363 1.363 . S
C362 C367 1.379 . S
C362 N369 1.356 . S
C363 C362 1.363 . S
C363 C366 1.363 . S
N364 C366 1.356 . S
N364 H376 0.984 . S
N364 H377 0.985 . S
N365 C367 1.356 . S
N365 H370 0.984 . S
N365 H371 0.985 . S
C366 C360 1.379 . S
C366 C363 1.363 . S
C366 N364 1.356 . S
C367 C361 1.363 . S
C367 C362 1.379 . S
C367 N365 1.356 . S
N368 C360 1.356 . S
N368 H374 0.984 . S
N368 H375 0.984 . S
N369 C362 1.356 . S
N369 H372 0.984 . S
N369 H373 0.985 . S
H370 N365 0.984 . S
H371 N365 0.985 . S
H372 N369 0.984 . S
H373 N369 0.985 . S
H374 N368 0.984 . S
H375 N368 0.984 . S
H376 N364 0.984 . S
H377 N364 0.985 . S
C378 C379 1.363 . S
C378 C384 1.379 . S
C378 N386 1.356 . S
C379 C378 1.363 . S
C379 C385 1.363 . S
C380 C381 1.363 . S
C380 C385 1.379 . S
C380 N387 1.356 . S
C381 C380 1.363 . S
C381 C384 1.363 . S
N382 C384 1.356 . S
N382 H394 0.984 . S
N382 H395 0.985 . S
N383 C385 1.356 . S
N383 H388 0.984 . S
N383 H389 0.985 . S
C384 C378 1.379 . S
C384 C381 1.363 . S
C384 N382 1.356 . S
C385 C379 1.363 . S
C385 C380 1.379 . S
C385 N383 1.356 . S
N386 C378 1.356 . S
N386 H392 0.984 . S
N386 H393 0.984 . S
N387 C380 1.356 . S
N387 H390 0.984 . S
N387 H391 0.985 . S
H388 N383 0.984 . S
H389 N383 0.985 . S
H390 N387 0.984 . S
H391 N387 0.985 . S
H392 N386 0.984 . S
H393 N386 0.984 . S
H394 N382 0.984 . S
H395 N382 0.985 . S
C396 C397 1.363 . S
C396 C402 1.379 . S
C396 N404 1.356 . S
C397 C396 1.363 . S
C397 C403 1.363 . S
C398 C399 1.363 . S
C398 C403 1.379 . S
C398 N405 1.356 . S
C399 C398 1.363 . S
C399 C402 1.363 . S
N400 C402 1.356 . S
N400 H412 0.984 . S
N400 H413 0.985 . S
N401 C403 1.356 . S
N401 H406 0.984 . S
N401 H407 0.985 . S
C402 C396 1.379 . S
C402 C399 1.363 . S
C402 N400 1.356 . S
C403 C397 1.363 . S
C403 C398 1.379 . S
C403 N401 1.356 . S
N404 C396 1.356 . S
N404 H410 0.984 . S
N404 H411 0.984 . S
N405 C398 1.356 . S
N405 H408 0.984 . S
N405 H409 0.985 . S
H406 N401 0.984 . S
H407 N401 0.985 . S
H408 N405 0.984 . S
H409 N405 0.985 . S
H410 N404 0.984 . S
H411 N404 0.984 . S
H412 N400 0.984 . S
H413 N400 0.985 . S
C414 C415 1.363 . S
C414 C420 1.379 1_554 S
C414 N422 1.356 1_455 S
C415 C414 1.363 . S
C415 C421 1.363 . S
C416 C417 1.363 . S
C416 C421 1.379 1_556 S
C416 N423 1.356 . S
C417 C416 1.363 . S
C417 C420 1.363 . S
N418 C420 1.356 . S
N418 H430 0.984 . S
N418 H431 0.985 . S
N419 C421 1.356 . S
N419 H424 0.984 . S
N419 H425 0.985 . S
C420 C414 1.379 1_556 S
C420 C417 1.363 . S
C420 N418 1.356 . S
C421 C415 1.363 . S
C421 C416 1.379 1_554 S
C421 N419 1.356 . S
N422 C414 1.356 1_655 S
N422 H428 0.984 . S
N422 H429 0.984 . S
N423 C416 1.356 . S
N423 H426 0.984 . S
N423 H427 0.985 . S
H424 N419 0.984 . S
H425 N419 0.985 . S
H426 N423 0.984 . S
H427 N423 0.985 . S
H428 N422 0.984 . S
H429 N422 0.984 . S
H430 N418 0.984 . S
H431 N418 0.985 . S
C432 C433 1.363 1_565 S
C432 C438 1.379 . S
C432 N440 1.356 . S
C433 C432 1.363 1_545 S
C433 C439 1.363 . S
C434 C435 1.363 . S
C434 C439 1.379 . S
C434 N441 1.356 . S
C435 C434 1.363 . S
C435 C438 1.363 1_545 S
N436 C438 1.356 . S
N436 H448 0.984 . S
N436 H449 0.985 . S
N437 C439 1.356 . S
N437 H442 0.984 . S
N437 H443 0.985 . S
C438 C432 1.379 . S
C438 C435 1.363 1_565 S
C438 N436 1.356 . S
C439 C433 1.363 . S
C439 C434 1.379 . S
C439 N437 1.356 . S
N440 C432 1.356 . S
N440 H446 0.984 . S
N440 H447 0.984 . S
N441 C434 1.356 . S
N441 H444 0.984 . S
N441 H445 0.985 . S
H442 N437 0.984 . S
H443 N437 0.985 . S
H444 N441 0.984 . S
H445 N441 0.985 . S
H446 N440 0.984 . S
H447 N440 0.984 . S
H448 N436 0.984 . S
H449 N436 0.985 . S
C450 C451 1.363 . S
C450 C456 1.379 . S
C450 N458 1.356 . S
C451 C450 1.363 . S
C451 C457 1.363 . S
C452 C453 1.363 . S
C452 C457 1.379 . S
C452 N459 1.356 . S
C453 C452 1.363 . S
C453 C456 1.363 . S
N454 C456 1.356 . S
N454 H466 0.984 . S
N454 H467 0.985 . S
N455 C457 1.356 . S
N455 H460 0.984 . S
N455 H461 0.985 . S
C456 C450 1.379 . S
C456 C453 1.363 . S
C456 N454 1.356 . S
C457 C451 1.363 . S
C457 C452 1.379 . S
C457 N455 1.356 . S
N458 C450 1.356 . S
N458 H464 0.984 . S
N458 H465 0.984 . S
N459 C452 1.356 . S
N459 H462 0.984 . S
N459 H463 0.985 . S
H460 N455 0.984 . S
H461 N455 0.985 . S
H462 N459 0.984 . S
H463 N459 0.985 . S
H464 N458 0.984 . S
H465 N458 0.984 . S
H466 N454 0.984 . S
H467 N454 0.985 . S
C468 C469 1.363 1_565 S
C468 C474 1.379 . S
C468 N476 1.356 . S
C469 C468 1.363 1_545 S
C469 C475 1.363 . S
C470 C471 1.363 . S
C470 C475 1.379 . S
C470 N477 1.356 . S
C471 C470 1.363 . S
C471 C474 1.363 1_545 S
N472 C474 1.356 . S
N472 H484 0.984 . S
N472 H485 0.985 . S
N473 C475 1.356 . S
N473 H478 0.984 . S
N473 H479 0.985 . S
C474 C468 1.379 . S
C474 C471 1.363 1_565 S
C474 N472 1.356 . S
C475 C469 1.363 . S
C475 C470 1.379 . S
C475 N473 1.356 . S
N476 C468 1.356 . S
N476 H482 0.984 . S
N476 H483 0.984 . S
N477 C470 1.356 . S
N477 H480 0.984 . S
N477 H481 0.985 . S
H478 N473 0.984 . S
H479 N473 0.985 . S
H480 N477 0.984 . S
H481 N477 0.985 . S
H482 N476 0.984 . S
H483 N476 0.984 . S
H484 N472 0.984 . S
H485 N472 0.985 . S
C486 C487 1.363 . S
C486 C492 1.379 1_556 S
C486 N494 1.356 . S
C487 C486 1.363 . S
C487 C493 1.363 . S
C488 C489 1.363 . S
C488 C493 1.379 1_554 S
C488 N495 1.356 . S
C489 C488 1.363 . S
C489 C492 1.363 . S
N490 C492 1.356 . S
N490 H502 0.984 . S
N490 H503 0.985 . S
N491 C493 1.356 . S
N491 H496 0.984 . S
N491 H497 0.985 . S
C492 C486 1.379 1_554 S
C492 C489 1.363 . S
C492 N490 1.356 . S
C493 C487 1.363 . S
C493 C488 1.379 1_556 S
C493 N491 1.356 . S
N494 C486 1.356 . S
N494 H500 0.984 . S
N494 H501 0.984 . S
N495 C488 1.356 . S
N495 H498 0.984 . S
N495 H499 0.985 . S
H496 N491 0.984 . S
H497 N491 0.985 . S
H498 N495 0.984 . S
H499 N495 0.985 . S
H500 N494 0.984 . S
H501 N494 0.984 . S
H502 N490 0.984 . S
H503 N490 0.985 . S
C504 C505 1.363 1_655 S
C504 C510 1.379 . S
C504 N512 1.356 . S
C505 C504 1.363 1_455 S
C505 C511 1.363 . S
C506 C507 1.363 . S
C506 C511 1.379 . S
C506 N513 1.356 . S
C507 C506 1.363 . S
C507 C510 1.363 1_455 S
N508 C510 1.356 . S
N508 H520 0.984 . S
N508 H521 0.985 . S
N509 C511 1.356 . S
N509 H514 0.984 . S
N509 H515 0.985 . S
C510 C504 1.379 . S
C510 C507 1.363 1_655 S
C510 N508 1.356 . S
C511 C505 1.363 . S
C511 C506 1.379 . S
C511 N509 1.356 . S
N512 C504 1.356 . S
N512 H518 0.984 . S
N512 H519 0.984 . S
N513 C506 1.356 . S
N513 H516 0.984 . S
N513 H517 0.985 . S
H514 N509 0.984 . S
H515 N509 0.985 . S
H516 N513 0.984 . S
H517 N513 0.985 . S
H518 N512 0.984 . S
H519 N512 0.984 . S
H520 N508 0.984 . S
H521 N508 0.985 . S
C199 C12 2.829 . S
C201 N187 2.776 . S
C217 C52 2.953 . S
C219 N160 2.956 1_655 S
C235 C111 2.980 . S
C237 N173 2.983 1_565 S
C253 C31 3.314 . S
C255 N186 3.328 . S
C273 N161 3.117 . S
C271 C71 3.153 . S
C291 N174 3.096 . S
C289 C92 3.128 . S
C307 C48 0.616 . S
C309 N134 0.594 . S
C325 C109 0.723 . S
C327 N148 0.678 . S
C343 C29 0.911 . S
C345 N122 1.033 . S
C363 N135 0.888 . S
C361 C69 0.820 . S
C381 N147 0.787 . S
C379 C88 0.785 . S
C397 C8 0.662 . S
C399 N121 0.675 . S
C417 N151 1.095 . S
C415 C17 1.126 1_455 S
C433 C57 1.195 . S
C435 N125 1.169 . S
C451 C97 1.067 . S
C453 N138 1.089 . S
C471 N177 1.861 . S
C469 C42 1.746 . S
C489 N190 1.778 . S
C487 C82 1.757 . S
C505 C2 1.730 . S
C507 N164 1.814 . S
