# Generated by pormake.
# Topology anh, (6,3)-cn, num edge types: 1
# Building blocks:
#     Node 0, Type 0, BuildingBlock: HISSIN_clean_sbu_0, # of connection points: 6
#     Node 1, Type 0, BuildingBlock: HISSIN_clean_sbu_0, # of connection points: 6
#     Node 2, Type 0, BuildingBlock: HISSIN_clean_sbu_0, # of connection points: 6
#     Node 3, Type 1, BuildingBlock: VETTIZ_charged_linker_0, # of connection points: 3
#     Node 4, Type 1, BuildingBlock: VETTIZ_charged_linker_0, # of connection points: 3
#     Node 5, Type 1, BuildingBlock: VETTIZ_charged_linker_0, # of connection points: 3
#     Node 6, Type 1, BuildingBlock: VETTIZ_charged_linker_0, # of connection points: 3
#     Node 7, Type 1, BuildingBlock: VETTIZ_charged_linker_0, # of connection points: 3
#     Node 8, Type 1, BuildingBlock: VETTIZ_charged_linker_0, # of connection points: 3
#     Edge 9, Type (0, 1), BuildingBlock: OJICUG_clean_linker_0, # of connection points: 2
#     Edge 10, Type (0, 1), BuildingBlock: OJICUG_clean_linker_0, # of connection points: 2
#     Edge 11, Type (0, 1), BuildingBlock: OJICUG_clean_linker_0, # of connection points: 2
#     Edge 12, Type (0, 1), BuildingBlock: OJICUG_clean_linker_0, # of connection points: 2
#     Edge 13, Type (0, 1), BuildingBlock: OJICUG_clean_linker_0, # of connection points: 2
#     Edge 14, Type (0, 1), BuildingBlock: OJICUG_clean_linker_0, # of connection points: 2
#     Edge 15, Type (0, 1), BuildingBlock: OJICUG_clean_linker_0, # of connection points: 2
#     Edge 16, Type (0, 1), BuildingBlock: OJICUG_clean_linker_0, # of connection points: 2
#     Edge 17, Type (0, 1), BuildingBlock: OJICUG_clean_linker_0, # of connection points: 2
#     Edge 18, Type (0, 1), BuildingBlock: OJICUG_clean_linker_0, # of connection points: 2
#     Edge 19, Type (0, 1), BuildingBlock: OJICUG_clean_linker_0, # of connection points: 2
#     Edge 20, Type (0, 1), BuildingBlock: OJICUG_clean_linker_0, # of connection points: 2
#     Edge 21, Type (0, 1), BuildingBlock: OJICUG_clean_linker_0, # of connection points: 2
#     Edge 22, Type (0, 1), BuildingBlock: OJICUG_clean_linker_0, # of connection points: 2
#     Edge 23, Type (0, 1), BuildingBlock: OJICUG_clean_linker_0, # of connection points: 2
#     Edge 24, Type (0, 1), BuildingBlock: OJICUG_clean_linker_0, # of connection points: 2
#     Edge 25, Type (0, 1), BuildingBlock: OJICUG_clean_linker_0, # of connection points: 2
#     Edge 26, Type (0, 1), BuildingBlock: OJICUG_clean_linker_0, # of connection points: 2
# Relax obj value: 0.304
# Max RMSD: 0.199
# Mean RMSD: 0.166
data_MOF--net-anh--node1-HISSIN_clean_sbu_0--node2-VETTIZ_charged_linker_0--edge1-OJICUG_clean_linker_0
_symmetry_space_group_name_H-M    P1
_symmetry_Int_Tables_number       1
_symmetry_cell_setting            triclinic
loop_
_symmetry_equiv_pos_as_xyz
'x, y, z'
_cell_length_a     27.471236
_cell_length_b     27.432581
_cell_length_c     52.753586
_cell_angle_alpha  92.373371
_cell_angle_beta   90.641936
_cell_angle_gamma 120.05358
loop_
_atom_site_label
_atom_site_type_symbol
_atom_site_fract_x
_atom_site_fract_y
_atom_site_fract_z
_atom_type_partial_charge
Eu0 Eu 1.0725 0.54245 0.15233 0.0
Eu1 Eu 1.14773 0.66955 0.17265 0.0
C2 C 1.08535 0.57592 0.21229 0.0
C3 C 0.93662 0.4229 0.13601 0.0
C4 C 0.90511 0.38244 0.1534 0.0
C5 C 0.86485 0.45051 0.13479 0.0
C6 C 0.85631 0.37898 0.16274 0.0
C7 C 0.91432 0.45465 0.12567 0.0
C8 C 0.83778 0.41528 0.15455 0.0
C9 C 0.9974 0.44288 0.13477 0.0
O10 O 0.20744 0.63373 0.17562 0.0
O11 O 0.16107 0.55525 0.14856 0.0
C12 C 0.20729 0.59257 0.16155 0.0
O13 O 1.08785 0.59917 0.11954 0.0
O14 O 0.20888 0.73602 0.19907 0.0
O15 O 0.17839 0.75783 0.16566 0.0
O16 O 0.17528 0.66151 0.13406 0.0
C17 C 1.13889 0.63919 0.1152 0.0
O18 O 1.00861 0.5671 0.1653 0.0
O19 O 1.06276 0.66149 0.16082 0.0
O20 O 1.09912 0.62704 0.20642 0.0
O21 O 1.02577 0.48416 0.12 0.0
O22 O 1.02329 0.45163 0.15681 0.0
O23 O 1.0841 0.53931 0.19496 0.0
C24 C 0.27673 0.80097 0.17262 0.0
C25 C 0.28452 0.80628 0.14627 0.0
C26 C 0.37309 0.82154 0.17832 0.0
C27 C 0.33581 0.81832 0.13608 0.0
C28 C 0.32205 0.81001 0.18855 0.0
C29 C 0.38012 0.82482 0.15196 0.0
C30 C 0.21948 0.77425 0.1826 0.0
C31 C 1.01259 0.61647 0.16305 0.0
H32 H 0.9211 0.35742 0.16163 0.0
H33 H 0.85035 0.47784 0.12785 0.0
H34 H 0.83471 0.3501 0.17748 0.0
H35 H 0.93744 0.48627 0.11216 0.0
H36 H 0.2504 0.79899 0.13331 0.0
H37 H 0.40736 0.82848 0.19112 0.0
H38 H 0.34058 0.82172 0.11576 0.0
H39 H 0.31729 0.80581 0.20884 0.0
Eu40 Eu 0.61292 0.99322 0.49489 0.0
Eu41 Eu 0.54924 1.06587 0.49914 0.0
C42 C 0.58901 1.03146 0.54878 0.0
C43 C 0.72613 0.95517 0.50228 0.0
C44 C 0.753 0.9279 0.4915 0.0
C45 C 0.804 1.00521 0.53309 0.0
C46 C 0.80451 0.93818 0.5018 0.0
C47 C 0.75262 0.99517 0.52264 0.0
C48 C 0.82981 0.97579 0.52314 0.0
C49 C 0.6702 0.94105 0.49249 0.0
O50 O 0.64249 0.13414 0.50289 0.0
O51 O 0.68211 1.08301 0.48774 0.0
C52 C 0.68643 0.13194 0.49443 0.0
O53 O 0.5731 0.98467 0.4564 0.0
O54 O 0.53347 0.12784 0.51881 0.0
O55 O 0.49097 1.08899 0.48251 0.0
O56 O 0.57856 1.07022 0.45937 0.0
C57 C 0.57424 1.02734 0.44567 0.0
O58 O 0.52126 0.92519 0.50014 0.0
O59 O 0.47653 0.9753 0.49239 0.0
O60 O 0.54694 1.03355 0.53794 0.0
O61 O 0.6695 0.9723 0.47471 0.0
O62 O 0.6329 0.93203 0.50954 0.0
O63 O 0.62775 1.02997 0.53506 0.0
C64 C 0.53157 0.18739 0.48905 0.0
C65 C 0.56797 0.20014 0.46871 0.0
C66 C 0.56743 0.2873 0.49773 0.0
C67 C 0.60561 0.25606 0.4637 0.0
C68 C 0.52979 0.2312 0.50279 0.0
C69 C 0.60764 0.30015 0.479 0.0
C70 C 0.50595 0.13102 0.4992 0.0
C71 C 0.47464 0.92698 0.49601 0.0
H72 H 0.73328 0.89732 0.47563 0.0
H73 H 0.82259 1.03446 0.54947 0.0
H74 H 0.8228 0.91412 0.49397 0.0
H75 H 0.73272 1.01729 0.53093 0.0
H76 H 0.57054 0.16709 0.45793 0.0
H77 H 0.5684 0.32041 0.51003 0.0
H78 H 0.63586 0.26478 0.44907 0.0
H79 H 0.50256 0.22226 0.51873 0.0
Eu80 Eu 0.60678 0.52885 0.82044 0.0
Eu81 Eu 0.73651 0.59809 0.84209 0.0
C82 C 0.63712 0.55633 0.88055 0.0
C83 C 0.46995 0.51434 0.80831 0.0
C84 C 0.44972 0.51394 0.83273 0.0
C85 C 0.4598 0.59545 0.79965 0.0
C86 C 0.43915 0.55645 0.8411 0.0
C87 C 0.47096 0.55308 0.79127 0.0
C88 C 0.44732 0.59922 0.82507 0.0
C89 C 0.50402 0.48704 0.80347 0.0
O90 O 0.7178 0.50659 0.83571 0.0
O91 O 0.62144 0.45721 0.82989 0.0
C92 C 0.66961 0.45821 0.83312 0.0
O93 O 0.66191 0.52956 0.78872 0.0
O94 O 0.82231 0.61544 0.83737 0.0
O95 O 0.80355 0.65654 0.8688 0.0
O96 O 0.73555 0.61518 0.80118 0.0
C97 C 0.70926 0.57474 0.78372 0.0
O98 O 0.63099 0.6209 0.81791 0.0
O99 O 0.71377 0.66798 0.84163 0.0
O100 O 0.6861 0.56114 0.8762 0.0
O101 O 0.54733 0.51495 0.7894 0.0
O102 O 0.51724 0.46831 0.82329 0.0
O103 O 0.6031 0.55238 0.86186 0.0
C104 C 0.89238 0.70791 0.85011 0.0
C105 C 0.8912 0.75857 0.84993 0.0
C106 C 0.99116 0.75868 0.84066 0.0
C107 C 0.94042 0.80941 0.84584 0.0
C108 C 0.94233 0.70827 0.84491 0.0
C109 C 0.99119 0.81008 0.84158 0.0
C110 C 0.84268 0.65418 0.85588 0.0
C111 C 0.67157 0.66772 0.82923 0.0
H112 H 0.44743 0.4843 0.84627 0.0
H113 H 0.46572 0.6279 0.78696 0.0
H114 H 0.42836 0.55817 0.86069 0.0
H115 H 0.48581 0.55415 0.77225 0.0
H116 H 0.85273 0.75912 0.85353 0.0
H117 H 1.02965 0.75756 0.83806 0.0
H118 H 0.93914 0.84826 0.84668 0.0
H119 H 0.94398 0.6696 0.84484 0.0
C120 C 0.65033 0.26856 0.19237 0.0
C121 C 0.65945 0.31624 0.20727 0.0
C122 C 0.65009 0.31093 0.23353 0.0
C123 C 0.63402 0.21532 0.22987 0.0
C124 C 0.64014 0.21997 0.20401 0.0
C125 C 0.64387 0.17225 0.19116 0.0
H126 H 0.58193 0.90678 0.1937 0.0
C127 C 0.63073 0.16165 0.23606 0.0
C128 C 0.63733 0.13687 0.21347 0.0
H129 H 0.63487 1.01433 0.13004 0.0
H130 H 0.66536 1.09563 0.15874 0.0
H131 H 0.69474 1.00415 0.23306 0.0
H132 H 0.51936 0.94788 0.21959 0.0
H133 H 0.53212 0.96008 0.25253 0.0
H134 H 0.54303 0.90745 0.23633 0.0
H135 H 0.63981 0.939 0.24412 0.0
H136 H 0.66708 1.00466 0.26283 0.0
C137 C 0.70281 0.19597 0.17956 0.0
C138 C 0.59394 0.14208 0.17156 0.0
C139 C 0.59828 1.09643 0.32634 0.0
C140 C 0.58841 1.04607 0.33699 0.0
C141 C 0.58523 1.00226 0.32077 0.0
C142 C 0.59371 1.00908 0.29479 0.0
C143 C 0.60434 1.0598 0.28461 0.0
C144 C 0.6054 0.10205 0.30018 0.0
C145 C 0.61498 0.15209 0.28566 0.0
C146 C 0.62133 0.13342 0.259 0.0
C147 C 0.61558 1.07957 0.25865 0.0
C148 C 0.66987 0.20456 0.2962 0.0
C149 C 0.5619 0.15786 0.28766 0.0
C150 C 0.60217 0.94775 0.18569 0.0
C151 C 0.60146 0.95341 0.15921 0.0
C152 C 0.63137 1.00824 0.15024 0.0
C153 C 0.64826 1.05544 0.16692 0.0
C154 C 0.63658 1.0474 0.19276 0.0
C155 C 0.61882 0.99515 0.2021 0.0
C156 C 0.61015 0.99481 0.23024 0.0
C157 C 0.62145 1.05438 0.23573 0.0
C158 C 0.63524 1.08425 0.21357 0.0
C159 C 0.6548 0.98477 0.24342 0.0
C160 C 0.54819 0.95011 0.23516 0.0
H161 H 0.63303 0.25973 0.26512 0.0
H162 H 0.65905 0.27112 0.17234 0.0
H163 H 0.55386 0.13269 0.18048 0.0
H164 H 0.58759 0.10143 0.16371 0.0
H165 H 0.60003 0.16916 0.15543 0.0
H166 H 0.73404 0.23782 0.18857 0.0
H167 H 0.70088 0.20127 0.15888 0.0
H168 H 0.72148 0.16899 0.18278 0.0
H169 H 0.60149 0.13131 0.33806 0.0
H170 H 0.57589 0.9623 0.32809 0.0
H171 H 0.59104 0.97424 0.2836 0.0
H172 H 0.70198 0.19298 0.30143 0.0
H173 H 0.66204 0.22385 0.31346 0.0
H174 H 0.68997 0.23697 0.28212 0.0
H175 H 0.52306 0.1157 0.2858 0.0
H176 H 0.55767 0.182 0.27244 0.0
H177 H 0.56164 0.17804 0.30632 0.0
H178 H 0.65752 0.34722 0.24551 0.0
C179 C 0.63695 0.26045 0.2449 0.0
C180 C 0.94803 0.85101 0.55262 0.0
C181 C 0.95724 0.89588 0.56969 0.0
C182 C 0.96515 0.89132 0.59577 0.0
C183 C 0.93856 0.79334 0.5878 0.0
C184 C 0.9382 0.80015 0.56204 0.0
C185 C 0.91667 0.74551 0.54662 0.0
H186 H 0.77542 0.46212 0.54239 0.0
C187 C 0.91441 0.73252 0.59153 0.0
C188 C 0.90283 0.70453 0.56742 0.0
H189 H 0.82041 0.57126 0.47979 0.0
H190 H 0.87652 0.65278 0.50849 0.0
H191 H 0.90088 0.53667 0.57763 0.0
H192 H 0.73803 0.52151 0.57307 0.0
H193 H 0.76008 0.54252 0.60477 0.0
H194 H 0.75108 0.47635 0.59207 0.0
H195 H 0.83664 0.47601 0.58616 0.0
H196 H 0.87757 0.53426 0.60882 0.0
C197 C 0.96522 0.74976 0.53049 0.0
C198 C 0.86328 0.73397 0.53093 0.0
C199 C 0.84399 0.65727 0.67793 0.0
C200 C 0.81228 0.60221 0.68633 0.0
C201 C 0.80325 0.55633 0.66993 0.0
C202 C 0.82289 0.56495 0.64519 0.0
C203 C 0.85119 0.61993 0.63659 0.0
C204 C 0.86301 0.66514 0.65312 0.0
C205 C 0.89323 0.72052 0.64059 0.0
C206 C 0.89578 0.70077 0.61354 0.0
C207 C 0.8702 0.64173 0.61129 0.0
C208 C 0.95261 0.7565 0.65343 0.0
C209 C 0.85605 0.74823 0.64238 0.0
C210 C 0.79909 0.50358 0.53488 0.0
C211 C 0.79458 0.51091 0.509 0.0
C212 C 0.82403 0.56516 0.49974 0.0
C213 C 0.85605 0.6122 0.51647 0.0
C214 C 0.85654 0.60472 0.54273 0.0
C215 C 0.82926 0.5509 0.55145 0.0
C216 C 0.8289 0.55085 0.57993 0.0
C217 C 0.8603 0.61364 0.58696 0.0
C218 C 0.87665 0.64491 0.56514 0.0
C219 C 0.86239 0.52267 0.58879 0.0
C220 C 0.76662 0.52112 0.58807 0.0
H221 H 0.95948 0.83813 0.62506 0.0
H222 H 0.94137 0.85251 0.53246 0.0
H223 H 0.84152 0.75445 0.54032 0.0
H224 H 0.83074 0.68887 0.52914 0.0
H225 H 0.87409 0.75033 0.51167 0.0
H226 H 1.00585 0.77175 0.54167 0.0
H227 H 0.97013 0.77398 0.51341 0.0
H228 H 0.95954 0.7081 0.52452 0.0
H229 H 0.85164 0.69351 0.68999 0.0
H230 H 0.78025 0.51361 0.6761 0.0
H231 H 0.81361 0.52831 0.63341 0.0
H232 H 0.96778 0.72946 0.66153 0.0
H233 H 0.95266 0.78473 0.66916 0.0
H234 H 0.98476 0.78204 0.63978 0.0
H235 H 0.81137 0.71663 0.63727 0.0
H236 H 0.86771 0.78239 0.62938 0.0
H237 H 0.85775 0.76559 0.66198 0.0
H238 H 0.97375 0.92573 0.6093 0.0
C239 C 0.95626 0.84028 0.6049 0.0
C240 C 0.4159 0.81049 0.87275 0.0
C241 C 0.43345 0.77366 0.88133 0.0
C242 C 0.43201 0.76424 0.90746 0.0
C243 C 0.38612 0.81864 0.91503 0.0
C244 C 0.39251 0.8327 0.88997 0.0
C245 C 0.36611 0.86769 0.88381 0.0
H246 H 0.16208 0.92392 0.90952 0.0
C247 C 0.35037 0.83841 0.92682 0.0
C248 C 0.33945 0.86847 0.90889 0.0
H249 H 0.26646 0.96924 0.84396 0.0
H250 H 0.32994 0.94619 0.86557 0.0
H251 H 0.15257 0.81761 0.91586 0.0
H252 H 0.27298 0.97523 0.95405 0.0
H253 H 0.2483 0.92342 0.97667 0.0
H254 H 0.19944 0.9387 0.96062 0.0
H255 H 1.13407 0.84789 0.94219 0.0
H256 H 0.16186 0.80156 0.94663 0.0
C257 C 0.32152 0.83601 0.86198 0.0
C258 C 0.41336 0.92732 0.87745 0.0
C259 C 0.25721 0.75339 0.00869 0.0
C260 C 0.21257 0.75264 0.02177 0.0
C261 C 0.1887 0.78411 0.01297 0.0
C262 C 0.20888 0.81565 0.99139 0.0
C263 C 0.25278 0.81498 0.97819 0.0
C264 C 0.27635 0.78444 0.98701 0.0
C265 C 0.3215 0.78717 0.97029 0.0
C266 C 0.32046 0.82373 0.94964 0.0
C267 C 0.2806 0.84028 0.95451 0.0
C268 C 0.304 0.72619 0.9602 0.0
C269 C 0.37802 0.81761 0.98585 0.0
C270 C 0.19975 0.93151 0.89999 0.0
C271 C 0.20798 0.94676 0.87455 0.0
C272 C 0.25802 0.95591 0.86324 0.0
C273 C 0.29444 0.94188 0.87567 0.0
C274 C 0.28016 0.9179 0.89939 0.0
C275 C 0.2357 0.91659 0.91187 0.0
C276 C 0.22581 0.88875 0.93673 0.0
C277 C 0.27079 0.87222 0.9368 0.0
C278 C 0.30163 0.88816 0.91458 0.0
C279 C 0.16548 0.83644 0.93559 0.0
C280 C 0.23672 0.93345 0.95828 0.0
H281 H 0.40666 0.77625 0.94376 0.0
H282 H 0.41768 0.81936 0.85286 0.0
H283 H 0.45467 0.93757 0.88621 0.0
H284 H 0.4056 0.96088 0.88518 0.0
H285 H 0.41852 0.93092 0.85664 0.0
H286 H 0.29387 0.791 0.8662 0.0
H287 H 0.34196 0.83727 0.84378 0.0
H288 H 0.29338 0.85305 0.85887 0.0
H289 H 0.27616 0.72928 0.01488 0.0
H290 H 0.15487 0.78488 0.023 0.0
H291 H 0.18891 0.83864 0.9856 0.0
H292 H 0.25969 0.69506 0.96429 0.0
H293 H 0.3308 0.71121 0.96892 0.0
H294 H 0.30576 0.72269 0.93928 0.0
H295 H 0.38188 0.8544 -0.00265 0.0
H296 H 0.41495 0.83506 0.97371 0.0
H297 H 0.38112 0.78879 -0.00088 0.0
H298 H 0.44523 0.73612 0.91466 0.0
C299 C 0.40876 0.78683 0.92434 0.0
C300 C 0.93652 0.38603 0.4805 0.0
C301 C 0.89019 0.33845 0.46733 0.0
C302 C 0.88778 0.33747 0.44068 0.0
C303 C 0.97496 0.42753 0.44016 0.0
C304 C 0.97891 0.43022 0.4664 0.0
C305 C 1.03319 0.48369 0.47603 0.0
H306 H 0.26753 0.73359 0.44143 0.0
C307 C 1.02417 0.47816 0.43048 0.0
C308 C 1.05943 0.51246 0.45132 0.0
H309 H 0.23486 0.67966 0.51794 0.0
H310 H 1.148 0.593 0.5027 0.0
H311 H 0.24539 0.62001 0.41873 0.0
H312 H 1.14585 0.69968 0.42448 0.0
H313 H 1.12796 0.66498 0.39433 0.0
H314 H 0.20001 0.71857 0.40195 0.0
H315 H 0.25285 0.67294 0.39778 0.0
H316 H 0.20517 0.5988 0.39027 0.0
C317 C 1.0711 0.4662 0.48997 0.0
C318 C 1.0181 0.52054 0.49319 0.0
C319 C 1.03666 0.50092 0.33436 0.0
C320 C 1.07499 0.54502 0.31976 0.0
C321 C 1.12136 0.59213 0.33205 0.0
C322 C 1.12931 0.59614 0.35838 0.0
C323 C 1.09039 0.55265 0.37297 0.0
C324 C 1.04509 0.50597 0.361 0.0
C325 C 1.00754 0.46507 0.37992 0.0
C326 C 1.03819 0.49487 0.40512 0.0
C327 C 1.08657 0.54589 0.40075 0.0
C328 C 1.00729 0.40888 0.37473 0.0
C329 C 0.94892 0.46033 0.3774 0.0
C330 C 0.24187 0.70364 0.45514 0.0
C331 C 0.25824 0.71438 0.48088 0.0
C332 C 0.22352 0.67288 0.49786 0.0
C333 C 0.17316 0.62264 0.48902 0.0
C334 C 0.15772 0.6129 0.46283 0.0
C335 C 0.19315 0.65359 0.44669 0.0
C336 C 0.17483 0.6377 0.41951 0.0
C337 C 1.12205 0.58109 0.42133 0.0
C338 C 1.11013 0.56532 0.44671 0.0
C339 C 0.22182 0.63237 0.40565 0.0
C340 C 0.16177 0.68247 0.4093 0.0
H341 H 0.92369 0.37649 0.40699 0.0
H342 H 0.94014 0.38813 0.50101 0.0
H343 H 0.98808 0.52961 0.48302 0.0
H344 H 1.05573 0.56139 0.49896 0.0
H345 H 0.9981 0.49872 0.51064 0.0
H346 H 1.07717 0.43574 0.47779 0.0
H347 H 1.05185 0.44575 0.50778 0.0
H348 H 1.11323 0.50266 0.49482 0.0
H349 H 1.00029 0.46444 0.32538 0.0
H350 H 0.15146 0.62643 0.32116 0.0
H351 H 0.16536 0.63362 0.36623 0.0
H352 H 1.04906 0.41685 0.36842 0.0
H353 H 0.97556 0.38202 0.35959 0.0
H354 H 0.99972 0.38451 0.39185 0.0
H355 H 0.95256 0.50018 0.37106 0.0
H356 H 0.9277 0.45363 0.39567 0.0
H357 H 0.92091 0.42602 0.36332 0.0
H358 H 0.85324 0.3022 0.43003 0.0
C359 C 0.92914 0.38109 0.42723 0.0
C360 C 0.67175 0.92065 0.81781 0.0
C361 C 0.66579 0.87123 0.80463 0.0
C362 C 0.65794 0.86656 0.77808 0.0
C363 C 0.65981 0.95608 0.77779 0.0
C364 C 0.66824 0.96268 0.8039 0.0
C365 C 0.67215 1.01815 0.81364 0.0
H366 H 0.64647 0.24849 0.78062 0.0
C367 C 0.65609 1.00443 0.76837 0.0
C368 C 0.66282 1.04184 0.7892 0.0
H369 H 0.68981 0.22411 0.85586 0.0
H370 H 0.68572 0.13587 0.8403 0.0
H371 H 0.73071 0.22334 0.75427 0.0
H372 H 0.5543 0.12501 0.76664 0.0
H373 H 0.56202 0.10353 0.73595 0.0
H374 H 0.58246 0.17641 0.74301 0.0
H375 H 0.67919 0.22905 0.7355 0.0
H376 H 0.70279 0.1803 0.72646 0.0
C377 C 0.73127 1.05715 0.8257 0.0
C378 C 0.62539 1.00529 0.8325 0.0
C379 C 0.62214 1.00814 0.67304 0.0
C380 C 0.61291 1.04497 0.65853 0.0
C381 C 0.61272 1.09123 0.671 0.0
C382 C 0.6216 1.10091 0.69729 0.0
C383 C 0.63086 1.06402 0.71164 0.0
C384 C 0.63056 1.01831 0.69954 0.0
C385 C 0.63914 0.98276 0.71813 0.0
C386 C 0.64601 1.0156 0.74329 0.0
C387 C 0.6414 1.06309 0.7392 0.0
C388 C 0.69392 0.98273 0.71139 0.0
C389 C 0.58522 0.92355 0.71689 0.0
C390 C 0.65495 0.22441 0.79396 0.0
C391 C 0.66791 0.24344 0.81945 0.0
C392 C 0.67962 0.21065 0.83598 0.0
C393 C 0.67717 0.15948 0.82697 0.0
C394 C 0.66385 0.14121 0.80106 0.0
C395 C 0.65383 0.1748 0.78531 0.0
C396 C 0.64322 0.15336 0.75829 0.0
C397 C 0.64766 1.10086 0.75978 0.0
C398 C 0.65912 1.09188 0.78485 0.0
C399 C 0.69093 0.19866 0.74263 0.0
C400 C 0.58264 0.1391 0.75031 0.0
H401 H 0.64907 0.90076 0.74463 0.0
H402 H 0.67781 0.92578 0.83826 0.0
H403 H 0.58359 0.97425 0.82367 0.0
H404 H 0.6239 1.04363 0.83839 0.0
H405 H 0.63212 0.98731 0.84979 0.0
H406 H 0.76406 1.06171 0.81228 0.0
H407 H 0.73739 1.03958 0.84328 0.0
H408 H 0.73856 1.09987 0.83055 0.0
H409 H 0.62196 0.97183 0.66404 0.0
H410 H 0.60647 0.12066 0.6603 0.0
H411 H 0.62101 0.13711 0.7053 0.0
H412 H 0.72644 1.02487 0.70534 0.0
H413 H 0.68606 0.95142 0.69554 0.0
H414 H 0.71386 0.97447 0.72768 0.0
H415 H 0.5477 0.92527 0.70999 0.0
H416 H 0.57364 0.90566 0.73577 0.0
H417 H 0.58985 0.89341 0.70385 0.0
H418 H 0.65365 0.8299 0.7674 0.0
C419 C 0.65517 0.90812 0.76478 0.0
C420 C 0.75524 0.61169 0.15244 0.0
C421 C 0.80055 0.6093 0.14031 0.0
C422 C 0.79541 0.59725 0.11403 0.0
C423 C 0.70482 0.59283 0.11151 0.0
C424 C 0.70736 0.60342 0.13746 0.0
C425 C 0.6542 0.60474 0.14553 0.0
H426 H 0.39951 0.58019 0.10318 0.0
C427 C 0.65244 0.58793 0.10052 0.0
C428 C 0.62115 0.59458 0.12006 0.0
H429 H 0.45837 0.60862 0.18142 0.0
H430 H 0.54466 0.6093 0.16847 0.0
H431 H 0.51337 0.66915 0.08262 0.0
H432 H 0.43581 0.48936 0.08678 0.0
H433 H 0.46228 0.50647 0.05622 0.0
H434 H 0.40958 0.52276 0.06653 0.0
H435 H 0.45897 0.62132 0.06026 0.0
H436 H 0.53234 0.64546 0.05515 0.0
C437 C 0.67167 0.66303 0.15812 0.0
C438 C 0.62127 0.55683 0.1634 0.0
C439 C 0.62646 0.5615 0.00469 0.0
C440 C 0.58816 0.56237 0.98706 0.0
C441 C 0.5417 0.56538 -0.00359 0.0
C442 C 0.53488 0.56924 0.02273 0.0
C443 C 0.57516 0.57062 0.04004 0.0
C444 C 0.6198 0.56673 0.0307 0.0
C445 C 0.6605 0.57203 0.05122 0.0
C446 C 0.63318 0.57968 0.07476 0.0
C447 C 0.58292 0.5781 0.06825 0.0
C448 C 0.71806 0.62553 0.04665 0.0
C449 C 0.6612 0.51568 0.05072 0.0
C450 C 0.43015 0.58582 0.11781 0.0
C451 C 0.42057 0.59318 0.14343 0.0
C452 C 0.46373 0.60247 0.16147 0.0
C453 C 0.51376 0.60262 0.15398 0.0
C454 C 0.52175 0.59422 0.12808 0.0
C455 C 0.47984 0.58667 0.1107 0.0
C456 C 0.49397 0.58053 0.08391 0.0
C457 C 0.55008 0.58343 0.0876 0.0
C458 C 0.56796 0.59162 0.11356 0.0
C459 C 0.49966 0.63132 0.06954 0.0
C460 C 0.44806 0.52198 0.07253 0.0
H461 H 0.74889 0.57984 0.07998 0.0
H462 H 0.75741 0.62037 0.17275 0.0
H463 H 0.61243 0.51574 0.15433 0.0
H464 H 0.58045 0.55304 0.16803 0.0
H465 H 0.64589 0.56421 0.18142 0.0
H466 H 0.69857 0.69688 0.14537 0.0
H467 H 0.69591 0.67004 0.17622 0.0
H468 H 0.63473 0.66754 0.16223 0.0
H469 H 0.66202 0.55789 -0.00151 0.0
H470 H 0.51144 0.56635 0.98343 0.0
H471 H 0.4989 0.57182 0.02855 0.0
H472 H 0.71266 0.65689 0.03607 0.0
H473 H 0.74566 0.61475 0.03542 0.0
H474 H 0.74079 0.64907 0.06447 0.0
H475 H 0.61952 0.47933 0.04433 0.0
H476 H 0.66919 0.50491 0.06972 0.0
H477 H 0.69283 0.51655 0.03754 0.0
H478 H 0.8284 0.59427 0.10423 0.0
C479 C 0.74854 0.58882 0.09983 0.0
C480 C 0.31252 0.63039 0.17171 0.0
C481 C 0.26141 0.59049 0.15886 0.0
H482 H 0.40179 0.66251 0.17743 0.0
C483 C 0.26335 0.54998 0.14221 0.0
H484 H 0.3135 0.66264 0.18461 0.0
C485 C 0.31413 0.55016 0.13802 0.0
C486 C 0.36552 0.59063 0.15037 0.0
H487 H 0.22558 0.51842 0.13186 0.0
H488 H 0.31312 0.51846 0.12474 0.0
C489 C 0.36351 0.63024 0.16767 0.0
C490 C 0.78697 0.18406 0.4794 0.0
C491 C 0.74183 0.18597 0.49097 0.0
H492 H 0.86868 0.22993 0.4635 0.0
C493 C 0.74989 0.24003 0.49784 0.0
H494 H 0.78323 0.14389 0.47375 0.0
C495 C 0.80022 0.29 0.49237 0.0
C496 C 0.84397 0.28767 0.47967 0.0
H497 H 0.71658 0.24388 0.50677 0.0
H498 H 0.80369 0.33048 0.49687 0.0
C499 C 0.83665 0.23374 0.47371 0.0
C500 C 0.6193 0.7188 0.81803 0.0
C501 C 0.6693 0.72154 0.82691 0.0
H502 H 0.57867 0.76325 0.8051 0.0
C503 C 0.71659 0.77585 0.83206 0.0
H504 H 0.58166 0.67833 0.81403 0.0
C505 C 0.71464 0.82532 0.82699 0.0
C506 C 0.66518 0.822 0.81691 0.0
H507 H 0.75594 0.78015 0.8389 0.0
H508 H 0.75273 0.86597 0.82958 0.0
C509 C 0.61731 0.76786 0.81314 0.0
C510 C 0.95789 0.66574 0.15133 0.0
C511 C 0.95903 0.61978 0.1617 0.0
H512 H 0.90724 0.69905 0.13709 0.0
C513 C 0.90713 0.57474 0.16917 0.0
H514 H 0.99643 0.70123 0.14525 0.0
C515 C 0.85575 0.57399 0.16489 0.0
C516 C 0.85431 0.61841 0.15311 0.0
H517 H 0.90586 0.53873 0.1775 0.0
H518 H 0.81669 0.53685 0.16925 0.0
C519 C 0.90651 0.6648 0.14691 0.0
C520 C 0.36953 0.87171 0.48482 0.0
C521 C 0.41809 0.87272 0.49455 0.0
H522 H 0.28204 0.822 0.4732 0.0
C523 C 0.41178 0.821 0.50209 0.0
H524 H 0.37196 0.91007 0.47875 0.0
C525 C 0.35924 0.77012 0.49936 0.0
C526 C 0.31142 0.76912 0.48872 0.0
H527 H 0.44775 0.81956 0.50974 0.0
H528 H 0.3567 0.73113 0.50451 0.0
C529 C 0.31753 0.82095 0.48175 0.0
C530 C 0.61902 0.35147 0.82615 0.0
C531 C 0.6691 0.40259 0.83256 0.0
H532 H 0.57948 0.26218 0.8174 0.0
C533 C 0.71822 0.39945 0.83731 0.0
H534 H 0.58016 0.35134 0.82229 0.0
C535 C 0.71743 0.34735 0.83492 0.0
C536 C 0.66762 0.29683 0.82753 0.0
H537 H 0.75772 0.43748 0.84231 0.0
H538 H 0.75639 0.34703 0.83766 0.0
C539 C 0.61843 0.29987 0.82349 0.0
C540 C 0.92033 0.97428 0.524 0.0
C541 C 0.87721 0.97646 0.53714 0.0
H542 H 0.98305 0.94982 0.52469 0.0
C543 C 0.87324 0.96774 0.56325 0.0
H544 H 0.9252 0.98218 0.50397 0.0
C545 C 0.9059 0.9488 0.57505 0.0
C546 C 0.94315 0.9383 0.56092 0.0
H547 H 0.84054 0.96926 0.57395 0.0
H548 H 0.89666 0.93595 0.59436 0.0
C549 C 0.95348 0.95585 0.53588 0.0
C550 C 1.08994 0.86728 0.82759 0.0
C551 C 1.04593 0.86365 0.8422 0.0
H552 H 0.17792 0.8984 0.82626 0.0
C553 C 1.05862 0.90496 0.86181 0.0
H554 H 1.08127 0.83741 0.8117 0.0
C555 C 1.11458 0.94168 0.86976 0.0
C556 C 0.15805 0.93607 0.8587 0.0
H557 H 1.02567 0.90432 0.87313 0.0
H558 H 1.12295 0.96862 0.88675 0.0
C559 C 1.14573 0.90309 0.83583 0.0
C560 C 0.46242 0.89081 0.12801 0.0
C561 C 0.43621 0.84238 0.14198 0.0
H562 H 0.5391 0.96444 0.12093 0.0
C563 C 0.46854 0.81998 0.15135 0.0
H564 H 0.43831 0.90814 0.1199 0.0
C565 C 0.52722 0.85198 0.15146 0.0
C566 C 0.55335 0.9077 0.1436 0.0
H567 H 0.44884 0.78114 0.16123 0.0
H568 H 0.55126 0.83701 0.16161 0.0
C569 C 0.52094 0.92312 0.12853 0.0
C570 C 0.65186 0.40547 0.48232 0.0
C571 C 0.65752 0.3575 0.47908 0.0
H572 H 0.69285 0.49344 0.49371 0.0
C573 C 0.71163 0.3639 0.48053 0.0
H574 H 0.61071 0.40171 0.48118 0.0
C575 C 0.7583 0.41606 0.48785 0.0
C576 C 0.75163 0.4627 0.49326 0.0
H577 H 0.7172 0.32762 0.4783 0.0
H578 H 0.79872 0.41905 0.49119 0.0
C579 C 0.69877 0.45788 0.48924 0.0
C580 C 0.48943 0.68187 0.85583 0.0
C581 C 0.44987 0.65066 0.83608 0.0
H582 H 0.51688 0.74742 0.88508 0.0
C583 C 0.41101 0.66655 0.82849 0.0
H584 H 0.52055 0.67084 0.86157 0.0
C585 C 0.40858 0.71015 0.84205 0.0
C586 C 0.44531 0.73851 0.86321 0.0
H587 H 0.38045 0.64308 0.81316 0.0
H588 H 0.3754 0.71883 0.83709 0.0
C589 C 0.48741 0.72565 0.86919 0.0
C590 C 0.79772 0.42632 0.19466 0.0
C591 C 0.79239 0.41758 0.16814 0.0
H592 H 0.75512 0.40357 0.22932 0.0
C593 C 0.7399 0.39872 0.15601 0.0
H594 H 0.83842 0.44309 0.20433 0.0
C595 C 0.69178 0.37742 0.1705 0.0
C596 C 0.69658 0.37188 0.19675 0.0
H597 H 0.73517 0.39335 0.1355 0.0
H598 H 0.65098 0.35477 0.16067 0.0
C599 C 0.74973 0.40453 0.20901 0.0
C600 C 1.11651 0.65759 0.07147 0.0
C601 C 0.15604 0.66323 0.09017 0.0
H602 H 1.10355 0.68213 0.03499 0.0
C603 C 0.21374 0.69656 0.08574 0.0
H604 H 1.07183 0.63242 0.07448 0.0
C605 C 0.23172 0.72477 0.06342 0.0
C606 C 0.19249 0.72061 0.04498 0.0
H607 H 0.24532 0.70175 0.09978 0.0
H608 H 0.2765 0.75111 0.06092 0.0
C609 C 1.13465 0.68643 0.04907 0.0
C610 C 0.55505 1.06095 0.40565 0.0
C611 C 0.57486 1.02943 0.41787 0.0
H612 H 0.54138 1.08896 0.37052 0.0
C613 C 0.59776 1.00227 0.40345 0.0
H614 H 0.53687 1.08204 0.4164 0.0
C615 C 0.60222 1.00777 0.37728 0.0
C616 C 0.58252 1.03941 0.36485 0.0
H617 H 0.61404 0.97835 0.4125 0.0
H618 H 0.62244 0.98826 0.36697 0.0
C619 C 0.55818 1.06532 0.37937 0.0
C620 C 0.79076 0.62379 0.75577 0.0
C621 C 0.73525 0.58012 0.75884 0.0
H622 H 0.85905 0.66387 0.73088 0.0
C623 C 0.70594 0.5421 0.73817 0.0
H624 H 0.81495 0.65339 0.77141 0.0
C625 C 0.73129 0.54851 0.71473 0.0
C626 C 0.78657 0.59283 0.71159 0.0
H627 H 0.66319 0.50798 0.73997 0.0
H628 H 0.70704 0.51962 0.69891 0.0
C629 C 0.81615 0.62992 0.73249 0.0
C630 C 0.63479 1.02384 0.58884 0.0
C631 C 0.59335 1.03172 0.57686 0.0
H632 H 0.67311 1.02124 0.62408 0.0
C633 C 0.55637 1.04044 0.59202 0.0
H634 H 0.66375 1.01664 0.57774 0.0
C635 C 0.56177 1.04299 0.61848 0.0
C636 C 0.60406 1.03657 0.63047 0.0
H637 H 0.52375 1.0463 0.58348 0.0
H638 H 0.5331 1.05059 0.62962 0.0
C639 C 0.63991 1.02598 0.61538 0.0
C640 C 0.66633 0.58832 0.92572 0.0
C641 C 0.62267 0.55918 0.90733 0.0
H642 H 0.68979 0.61462 0.9646 0.0
C643 C 0.56667 0.53332 0.91498 0.0
H644 H 0.70991 0.6099 0.9204 0.0
C645 C 0.55489 0.53465 0.9408 0.0
C646 C 0.59894 0.56267 0.95932 0.0
H647 H 0.53217 0.51079 0.90114 0.0
H648 H 0.51146 0.51259 0.94626 0.0
C649 C 0.65467 0.59066 0.95122 0.0
C650 C 1.06812 0.59914 0.25628 0.0
C651 C 1.07402 0.56171 0.23927 0.0
H652 H 1.06277 0.62221 0.29493 0.0
C653 C 1.07253 0.51378 0.24879 0.0
H654 H 1.06812 0.63601 0.24969 0.0
C655 C 1.06892 0.50569 0.27503 0.0
C656 C 1.06676 0.54542 0.29198 0.0
H657 H 1.07669 0.48401 0.23618 0.0
H658 H 1.07095 0.47027 0.28216 0.0
C659 C 1.06469 0.59115 0.28224 0.0
loop_
_geom_bond_atom_site_label_1
_geom_bond_atom_site_label_2
_geom_bond_distance
_geom_bond_site_symmetry_2
_ccdc_geom_bond_type
Eu0 C9 2.828 . S
Eu0 O11 2.392 1_655 S
Eu0 O13 2.418 . S
Eu0 O18 2.373 . S
Eu0 O21 2.488 . S
Eu0 O22 2.471 . S
Eu0 O23 2.349 . S
Eu1 O10 2.373 . S
Eu1 O14 2.488 . S
Eu1 O15 2.471 . S
Eu1 O16 2.349 . S
Eu1 O19 2.392 1_455 S
Eu1 O20 2.418 . S
Eu1 C30 2.828 . S
C2 O20 1.244 . S
C2 O23 1.265 1_455 S
C3 C4 1.379 . S
C3 C7 1.373 . S
C3 C9 1.505 . S
C4 C3 1.379 . S
C4 C6 1.369 . S
C4 H32 0.930 . S
C5 C7 1.383 . S
C5 C8 1.382 . S
C5 H33 0.930 . S
C6 C4 1.369 . S
C6 C8 1.392 . S
C6 H34 0.930 . S
C7 C3 1.373 . S
C7 C5 1.383 . S
C7 H35 0.931 . S
C8 C5 1.382 . S
C8 C6 1.392 . S
C9 Eu0 2.828 . S
C9 C3 1.505 . S
C9 O21 1.249 . S
C9 O22 1.244 . S
O10 Eu1 2.373 . S
O10 C12 1.258 . S
O11 Eu0 2.392 1_455 S
O11 C12 1.242 . S
C12 O10 1.258 . S
C12 O11 1.242 . S
O13 Eu0 2.418 . S
O13 C17 1.244 . S
O14 Eu1 2.488 . S
O14 C30 1.249 . S
O15 Eu1 2.471 . S
O15 C30 1.244 . S
O16 Eu1 2.349 . S
O16 C17 1.265 1_455 S
C17 O13 1.244 . S
C17 O16 1.265 1_655 S
O18 Eu0 2.373 . S
O18 C31 1.258 . S
O19 Eu1 2.392 1_655 S
O19 C31 1.242 . S
O20 Eu1 2.418 . S
O20 C2 1.244 . S
O21 Eu0 2.488 . S
O21 C9 1.249 . S
O22 Eu0 2.471 . S
O22 C9 1.244 . S
O23 Eu0 2.349 . S
O23 C2 1.265 1_655 S
C24 C25 1.379 . S
C24 C28 1.373 . S
C24 C30 1.505 . S
C25 C24 1.379 . S
C25 C27 1.369 . S
C25 H36 0.930 . S
C26 C28 1.383 . S
C26 C29 1.382 . S
C26 H37 0.930 . S
C27 C25 1.369 . S
C27 C29 1.392 . S
C27 H38 0.930 . S
C28 C24 1.373 . S
C28 C26 1.383 . S
C28 H39 0.931 . S
C29 C26 1.382 . S
C29 C27 1.392 . S
C30 Eu1 2.828 . S
C30 O14 1.249 . S
C30 O15 1.244 . S
C30 C24 1.505 . S
C31 O18 1.258 . S
C31 O19 1.242 . S
H32 C4 0.930 . S
H33 C5 0.930 . S
H34 C6 0.930 . S
H35 C7 0.931 . S
H36 C25 0.930 . S
H37 C26 0.930 . S
H38 C27 0.930 . S
H39 C28 0.931 . S
Eu40 C49 2.828 . S
Eu40 O51 2.392 1_565 S
Eu40 O53 2.418 . S
Eu40 O58 2.373 . S
Eu40 O61 2.488 . S
Eu40 O62 2.471 . S
Eu40 O63 2.349 . S
Eu41 O50 2.373 . S
Eu41 O54 2.488 . S
Eu41 O55 2.471 . S
Eu41 O56 2.349 . S
Eu41 O59 2.392 1_545 S
Eu41 O60 2.418 . S
Eu41 C70 2.828 . S
C42 O60 1.244 . S
C42 O63 1.265 1_545 S
C43 C44 1.379 . S
C43 C47 1.373 . S
C43 C49 1.505 . S
C44 C43 1.379 . S
C44 C46 1.369 . S
C44 H72 0.930 . S
C45 C47 1.383 . S
C45 C48 1.382 . S
C45 H73 0.930 . S
C46 C44 1.369 . S
C46 C48 1.392 . S
C46 H74 0.930 . S
C47 C43 1.373 . S
C47 C45 1.383 . S
C47 H75 0.931 . S
C48 C45 1.382 . S
C48 C46 1.392 . S
C49 Eu40 2.828 . S
C49 C43 1.505 . S
C49 O61 1.249 . S
C49 O62 1.244 . S
O50 Eu41 2.373 . S
O50 C52 1.258 . S
O51 Eu40 2.392 1_545 S
O51 C52 1.242 . S
C52 O50 1.258 . S
C52 O51 1.242 . S
O53 Eu40 2.418 . S
O53 C57 1.244 1_565 S
O54 Eu41 2.488 . S
O54 C70 1.249 . S
O55 Eu41 2.471 . S
O55 C70 1.244 . S
O56 Eu41 2.349 . S
O56 C57 1.265 . S
C57 O53 1.244 1_545 S
C57 O56 1.265 . S
O58 Eu40 2.373 . S
O58 C71 1.258 . S
O59 Eu41 2.392 1_565 S
O59 C71 1.242 . S
O60 Eu41 2.418 . S
O60 C42 1.244 . S
O61 Eu40 2.488 . S
O61 C49 1.249 . S
O62 Eu40 2.471 . S
O62 C49 1.244 . S
O63 Eu40 2.349 . S
O63 C42 1.265 1_565 S
C64 C65 1.379 . S
C64 C68 1.373 . S
C64 C70 1.505 . S
C65 C64 1.379 . S
C65 C67 1.369 . S
C65 H76 0.930 . S
C66 C68 1.383 . S
C66 C69 1.382 . S
C66 H77 0.930 . S
C67 C65 1.369 . S
C67 C69 1.392 . S
C67 H78 0.930 . S
C68 C64 1.373 . S
C68 C66 1.383 . S
C68 H79 0.931 . S
C69 C66 1.382 . S
C69 C67 1.392 . S
C70 Eu41 2.828 . S
C70 O54 1.249 . S
C70 O55 1.244 . S
C70 C64 1.505 . S
C71 O58 1.258 . S
C71 O59 1.242 . S
H72 C44 0.930 . S
H73 C45 0.930 . S
H74 C46 0.930 . S
H75 C47 0.931 . S
H76 C65 0.930 . S
H77 C66 0.930 . S
H78 C67 0.930 . S
H79 C68 0.931 . S
Eu80 C89 2.828 . S
Eu80 O91 2.392 . S
Eu80 O93 2.418 . S
Eu80 O98 2.373 . S
Eu80 O101 2.488 . S
Eu80 O102 2.471 . S
Eu80 O103 2.349 . S
Eu81 O90 2.373 . S
Eu81 O94 2.488 . S
Eu81 O95 2.471 . S
Eu81 O96 2.349 . S
Eu81 O99 2.392 . S
Eu81 O100 2.418 . S
Eu81 C110 2.828 . S
C82 O100 1.244 . S
C82 O103 1.265 . S
C83 C84 1.379 . S
C83 C87 1.373 . S
C83 C89 1.505 . S
C84 C83 1.379 . S
C84 C86 1.369 . S
C84 H112 0.930 . S
C85 C87 1.383 . S
C85 C88 1.382 . S
C85 H113 0.930 . S
C86 C84 1.369 . S
C86 C88 1.392 . S
C86 H114 0.930 . S
C87 C83 1.373 . S
C87 C85 1.383 . S
C87 H115 0.931 . S
C88 C85 1.382 . S
C88 C86 1.392 . S
C89 Eu80 2.828 . S
C89 C83 1.505 . S
C89 O101 1.249 . S
C89 O102 1.244 . S
O90 Eu81 2.373 . S
O90 C92 1.258 . S
O91 Eu80 2.392 . S
O91 C92 1.242 . S
C92 O90 1.258 . S
C92 O91 1.242 . S
O93 Eu80 2.418 . S
O93 C97 1.244 . S
O94 Eu81 2.488 . S
O94 C110 1.249 . S
O95 Eu81 2.471 . S
O95 C110 1.244 . S
O96 Eu81 2.349 . S
O96 C97 1.265 . S
C97 O93 1.244 . S
C97 O96 1.265 . S
O98 Eu80 2.373 . S
O98 C111 1.258 . S
O99 Eu81 2.392 . S
O99 C111 1.242 . S
O100 Eu81 2.418 . S
O100 C82 1.244 . S
O101 Eu80 2.488 . S
O101 C89 1.249 . S
O102 Eu80 2.471 . S
O102 C89 1.244 . S
O103 Eu80 2.349 . S
O103 C82 1.265 . S
C104 C105 1.379 . S
C104 C108 1.373 . S
C104 C110 1.505 . S
C105 C104 1.379 . S
C105 C107 1.369 . S
C105 H116 0.930 . S
C106 C108 1.383 . S
C106 C109 1.382 . S
C106 H117 0.930 . S
C107 C105 1.369 . S
C107 C109 1.392 . S
C107 H118 0.930 . S
C108 C104 1.373 . S
C108 C106 1.383 . S
C108 H119 0.931 . S
C109 C106 1.382 . S
C109 C107 1.392 . S
C110 Eu81 2.828 . S
C110 O94 1.249 . S
C110 O95 1.244 . S
C110 C104 1.505 . S
C111 O98 1.258 . S
C111 O99 1.242 . S
H112 C84 0.930 . S
H113 C85 0.930 . S
H114 C86 0.930 . S
H115 C87 0.931 . S
H116 C105 0.930 . S
H117 C106 0.930 . S
H118 C107 0.930 . S
H119 C108 0.931 . S
C120 C121 1.391 . S
C120 C124 1.391 . S
C120 H162 0.948 . S
C121 C120 1.391 . S
C121 C122 1.391 . S
C122 C121 1.391 . S
C122 H178 0.947 . S
C122 C179 1.392 . S
C123 C124 1.391 . S
C123 C127 1.397 . S
C123 C179 1.419 . S
C124 C120 1.391 . S
C124 C123 1.391 . S
C124 C125 1.399 . S
C125 C124 1.399 . S
C125 C128 1.396 . S
C125 C137 1.453 . S
C125 C138 1.684 . S
H126 C150 0.948 . S
C127 C123 1.397 . S
C127 C128 1.394 . S
C127 C146 1.723 . S
C128 C125 1.396 . S
C128 C127 1.394 . S
C128 C158 1.723 1_545 S
H129 C152 0.947 . S
H130 C153 0.948 . S
H131 C159 0.982 . S
H132 C160 0.979 . S
H133 C160 0.980 . S
H134 C160 0.983 . S
H135 C159 0.979 . S
H136 C159 0.977 . S
C137 C125 1.453 . S
C137 H166 0.982 . S
C137 H167 0.979 . S
C137 H168 0.977 . S
C138 C125 1.684 . S
C138 H163 0.979 . S
C138 H164 0.980 . S
C138 H165 0.983 . S
C139 C140 1.391 . S
C139 C144 1.391 . S
C139 H169 0.948 . S
C140 C139 1.391 . S
C140 C141 1.391 1_545 S
C141 C140 1.391 1_565 S
C141 C142 1.392 . S
C141 H170 0.947 . S
C142 C141 1.392 . S
C142 C143 1.419 1_565 S
C142 H171 0.948 . S
C143 C142 1.419 1_545 S
C143 C144 1.391 . S
C143 C147 1.397 . S
C144 C139 1.391 . S
C144 C143 1.391 . S
C144 C145 1.399 . S
C145 C144 1.399 . S
C145 C146 1.396 . S
C145 C148 1.453 . S
C145 C149 1.684 . S
C146 C127 1.723 . S
C146 C145 1.396 . S
C146 C147 1.394 . S
C147 C143 1.397 . S
C147 C146 1.394 . S
C147 C157 1.723 1_545 S
C148 C145 1.453 . S
C148 H172 0.982 . S
C148 H173 0.979 . S
C148 H174 0.977 . S
C149 C145 1.684 . S
C149 H175 0.979 . S
C149 H176 0.980 . S
C149 H177 0.983 . S
C150 H126 0.948 . S
C150 C151 1.391 . S
C150 C155 1.391 . S
C151 C150 1.391 . S
C151 C152 1.391 . S
C152 H129 0.947 . S
C152 C151 1.391 . S
C152 C153 1.392 . S
C153 H130 0.948 . S
C153 C152 1.392 . S
C153 C154 1.419 . S
C154 C153 1.419 . S
C154 C155 1.391 . S
C154 C158 1.397 . S
C155 C150 1.391 . S
C155 C154 1.391 . S
C155 C156 1.399 . S
C156 C155 1.399 . S
C156 C157 1.396 . S
C156 C159 1.453 . S
C156 C160 1.684 . S
C157 C147 1.723 1_565 S
C157 C156 1.396 . S
C157 C158 1.394 . S
C158 C128 1.723 1_565 S
C158 C154 1.397 . S
C158 C157 1.394 . S
C159 H131 0.982 . S
C159 H135 0.979 . S
C159 H136 0.977 . S
C159 C156 1.453 . S
C160 H132 0.979 . S
C160 H133 0.980 . S
C160 H134 0.983 . S
C160 C156 1.684 . S
H161 C179 0.948 . S
H162 C120 0.948 . S
H163 C138 0.979 . S
H164 C138 0.980 . S
H165 C138 0.983 . S
H166 C137 0.982 . S
H167 C137 0.979 . S
H168 C137 0.977 . S
H169 C139 0.948 . S
H170 C141 0.947 . S
H171 C142 0.948 . S
H172 C148 0.982 . S
H173 C148 0.979 . S
H174 C148 0.977 . S
H175 C149 0.979 . S
H176 C149 0.980 . S
H177 C149 0.983 . S
H178 C122 0.947 . S
C179 C122 1.392 . S
C179 C123 1.419 . S
C179 H161 0.948 . S
C180 C181 1.391 . S
C180 C184 1.391 . S
C180 H222 0.948 . S
C181 C180 1.391 . S
C181 C182 1.391 . S
C182 C181 1.391 . S
C182 H238 0.947 . S
C182 C239 1.392 . S
C183 C184 1.391 . S
C183 C187 1.397 . S
C183 C239 1.419 . S
C184 C180 1.391 . S
C184 C183 1.391 . S
C184 C185 1.399 . S
C185 C184 1.399 . S
C185 C188 1.396 . S
C185 C197 1.453 . S
C185 C198 1.684 . S
H186 C210 0.948 . S
C187 C183 1.397 . S
C187 C188 1.394 . S
C187 C206 1.723 . S
C188 C185 1.396 . S
C188 C187 1.394 . S
C188 C218 1.723 . S
H189 C212 0.947 . S
H190 C213 0.948 . S
H191 C219 0.982 . S
H192 C220 0.979 . S
H193 C220 0.980 . S
H194 C220 0.983 . S
H195 C219 0.979 . S
H196 C219 0.977 . S
C197 C185 1.453 . S
C197 H226 0.982 . S
C197 H227 0.979 . S
C197 H228 0.977 . S
C198 C185 1.684 . S
C198 H223 0.979 . S
C198 H224 0.980 . S
C198 H225 0.983 . S
C199 C200 1.391 . S
C199 C204 1.391 . S
C199 H229 0.948 . S
C200 C199 1.391 . S
C200 C201 1.391 . S
C201 C200 1.391 . S
C201 C202 1.392 . S
C201 H230 0.947 . S
C202 C201 1.392 . S
C202 C203 1.419 . S
C202 H231 0.948 . S
C203 C202 1.419 . S
C203 C204 1.391 . S
C203 C207 1.397 . S
C204 C199 1.391 . S
C204 C203 1.391 . S
C204 C205 1.399 . S
C205 C204 1.399 . S
C205 C206 1.396 . S
C205 C208 1.453 . S
C205 C209 1.684 . S
C206 C187 1.723 . S
C206 C205 1.396 . S
C206 C207 1.394 . S
C207 C203 1.397 . S
C207 C206 1.394 . S
C207 C217 1.723 . S
C208 C205 1.453 . S
C208 H232 0.982 . S
C208 H233 0.979 . S
C208 H234 0.977 . S
C209 C205 1.684 . S
C209 H235 0.979 . S
C209 H236 0.980 . S
C209 H237 0.983 . S
C210 H186 0.948 . S
C210 C211 1.391 . S
C210 C215 1.391 . S
C211 C210 1.391 . S
C211 C212 1.391 . S
C212 H189 0.947 . S
C212 C211 1.391 . S
C212 C213 1.392 . S
C213 H190 0.948 . S
C213 C212 1.392 . S
C213 C214 1.419 . S
C214 C213 1.419 . S
C214 C215 1.391 . S
C214 C218 1.397 . S
C215 C210 1.391 . S
C215 C214 1.391 . S
C215 C216 1.399 . S
C216 C215 1.399 . S
C216 C217 1.396 . S
C216 C219 1.453 . S
C216 C220 1.684 . S
C217 C207 1.723 . S
C217 C216 1.396 . S
C217 C218 1.394 . S
C218 C188 1.723 . S
C218 C214 1.397 . S
C218 C217 1.394 . S
C219 H191 0.982 . S
C219 H195 0.979 . S
C219 H196 0.977 . S
C219 C216 1.453 . S
C220 H192 0.979 . S
C220 H193 0.980 . S
C220 H194 0.983 . S
C220 C216 1.684 . S
H221 C239 0.948 . S
H222 C180 0.948 . S
H223 C198 0.979 . S
H224 C198 0.980 . S
H225 C198 0.983 . S
H226 C197 0.982 . S
H227 C197 0.979 . S
H228 C197 0.977 . S
H229 C199 0.948 . S
H230 C201 0.947 . S
H231 C202 0.948 . S
H232 C208 0.982 . S
H233 C208 0.979 . S
H234 C208 0.977 . S
H235 C209 0.979 . S
H236 C209 0.980 . S
H237 C209 0.983 . S
H238 C182 0.947 . S
C239 C182 1.392 . S
C239 C183 1.419 . S
C239 H221 0.948 . S
C240 C241 1.391 . S
C240 C244 1.391 . S
C240 H282 0.948 . S
C241 C240 1.391 . S
C241 C242 1.391 . S
C242 C241 1.391 . S
C242 H298 0.947 . S
C242 C299 1.392 . S
C243 C244 1.391 . S
C243 C247 1.397 . S
C243 C299 1.419 . S
C244 C240 1.391 . S
C244 C243 1.391 . S
C244 C245 1.399 . S
C245 C244 1.399 . S
C245 C248 1.396 . S
C245 C257 1.453 . S
C245 C258 1.684 . S
H246 C270 0.948 . S
C247 C243 1.397 . S
C247 C248 1.394 . S
C247 C266 1.723 . S
C248 C245 1.396 . S
C248 C247 1.394 . S
C248 C278 1.723 . S
H249 C272 0.947 . S
H250 C273 0.948 . S
H251 C279 0.982 . S
H252 C280 0.979 . S
H253 C280 0.980 . S
H254 C280 0.983 . S
H255 C279 0.979 . S
H256 C279 0.977 . S
C257 C245 1.453 . S
C257 H286 0.982 . S
C257 H287 0.979 . S
C257 H288 0.977 . S
C258 C245 1.684 . S
C258 H283 0.979 . S
C258 H284 0.980 . S
C258 H285 0.983 . S
C259 C260 1.391 . S
C259 C264 1.391 1_554 S
C259 H289 0.948 . S
C260 C259 1.391 . S
C260 C261 1.391 1_455 S
C261 C260 1.391 1_655 S
C261 C262 1.392 1_554 S
C261 H290 0.947 . S
C262 C261 1.392 1_556 S
C262 C263 1.419 1_655 S
C262 H291 0.948 . S
C263 C262 1.419 1_455 S
C263 C264 1.391 . S
C263 C267 1.397 . S
C264 C259 1.391 1_556 S
C264 C263 1.391 . S
C264 C265 1.399 . S
C265 C264 1.399 . S
C265 C266 1.396 . S
C265 C268 1.453 . S
C265 C269 1.684 . S
C266 C247 1.723 . S
C266 C265 1.396 . S
C266 C267 1.394 . S
C267 C263 1.397 . S
C267 C266 1.394 . S
C267 C277 1.723 1_455 S
C268 C265 1.453 . S
C268 H292 0.982 . S
C268 H293 0.979 . S
C268 H294 0.977 . S
C269 C265 1.684 . S
C269 H295 0.979 . S
C269 H296 0.980 . S
C269 H297 0.983 . S
C270 H246 0.948 . S
C270 C271 1.391 . S
C270 C275 1.391 . S
C271 C270 1.391 . S
C271 C272 1.391 . S
C272 H249 0.947 . S
C272 C271 1.391 . S
C272 C273 1.392 . S
C273 H250 0.948 . S
C273 C272 1.392 . S
C273 C274 1.419 . S
C274 C273 1.419 . S
C274 C275 1.391 . S
C274 C278 1.397 1_655 S
C275 C270 1.391 . S
C275 C274 1.391 . S
C275 C276 1.399 . S
C276 C275 1.399 . S
C276 C277 1.396 . S
C276 C279 1.453 . S
C276 C280 1.684 . S
C277 C267 1.723 1_655 S
C277 C276 1.396 . S
C277 C278 1.394 1_655 S
C278 C248 1.723 . S
C278 C274 1.397 1_455 S
C278 C277 1.394 1_455 S
C279 H251 0.982 . S
C279 H255 0.979 . S
C279 H256 0.977 . S
C279 C276 1.453 . S
C280 H252 0.979 . S
C280 H253 0.980 . S
C280 H254 0.983 . S
C280 C276 1.684 . S
H281 C299 0.948 . S
H282 C240 0.948 . S
H283 C258 0.979 . S
H284 C258 0.980 . S
H285 C258 0.983 . S
H286 C257 0.982 . S
H287 C257 0.979 . S
H288 C257 0.977 . S
H289 C259 0.948 . S
H290 C261 0.947 . S
H291 C262 0.948 . S
H292 C268 0.982 . S
H293 C268 0.979 . S
H294 C268 0.977 . S
H295 C269 0.979 . S
H296 C269 0.980 . S
H297 C269 0.983 . S
H298 C242 0.947 . S
C299 C242 1.392 . S
C299 C243 1.419 . S
C299 H281 0.948 . S
C300 C301 1.391 . S
C300 C304 1.391 . S
C300 H342 0.948 . S
C301 C300 1.391 . S
C301 C302 1.391 . S
C302 C301 1.391 . S
C302 H358 0.947 . S
C302 C359 1.392 . S
C303 C304 1.391 . S
C303 C307 1.397 . S
C303 C359 1.419 . S
C304 C300 1.391 . S
C304 C303 1.391 . S
C304 C305 1.399 . S
C305 C304 1.399 . S
C305 C308 1.396 1_655 S
C305 C317 1.453 1_655 S
C305 C318 1.684 . S
H306 C330 0.948 . S
C307 C303 1.397 . S
C307 C308 1.394 1_655 S
C307 C326 1.723 . S
C308 C305 1.396 1_455 S
C308 C307 1.394 1_455 S
C308 C338 1.723 . S
H309 C332 0.947 . S
H310 C333 0.948 . S
H311 C339 0.982 . S
H312 C340 0.979 . S
H313 C340 0.980 . S
H314 C340 0.983 . S
H315 C339 0.979 . S
H316 C339 0.977 . S
C317 C305 1.453 1_455 S
C317 H346 0.982 . S
C317 H347 0.979 . S
C317 H348 0.977 . S
C318 C305 1.684 . S
C318 H343 0.979 . S
C318 H344 0.980 1_655 S
C318 H345 0.983 . S
C319 C320 1.391 1_655 S
C319 C324 1.391 . S
C319 H349 0.948 . S
C320 C319 1.391 1_455 S
C320 C321 1.391 . S
C321 C320 1.391 . S
C321 C322 1.392 . S
C321 H350 0.947 . S
C322 C321 1.392 . S
C322 C323 1.419 . S
C322 H351 0.948 . S
C323 C322 1.419 . S
C323 C324 1.391 1_455 S
C323 C327 1.397 . S
C324 C319 1.391 . S
C324 C323 1.391 1_655 S
C324 C325 1.399 . S
C325 C324 1.399 . S
C325 C326 1.396 . S
C325 C328 1.453 . S
C325 C329 1.684 . S
C326 C307 1.723 . S
C326 C325 1.396 . S
C326 C327 1.394 1_655 S
C327 C323 1.397 . S
C327 C326 1.394 1_455 S
C327 C337 1.723 . S
C328 C325 1.453 . S
C328 H352 0.982 . S
C328 H353 0.979 . S
C328 H354 0.977 . S
C329 C325 1.684 . S
C329 H355 0.979 . S
C329 H356 0.980 . S
C329 H357 0.983 . S
C330 H306 0.948 . S
C330 C331 1.391 . S
C330 C335 1.391 . S
C331 C330 1.391 . S
C331 C332 1.391 . S
C332 H309 0.947 . S
C332 C331 1.391 . S
C332 C333 1.392 . S
C333 H310 0.948 . S
C333 C332 1.392 . S
C333 C334 1.419 . S
C334 C333 1.419 . S
C334 C335 1.391 . S
C334 C338 1.397 . S
C335 C330 1.391 . S
C335 C334 1.391 . S
C335 C336 1.399 . S
C336 C335 1.399 . S
C336 C337 1.396 . S
C336 C339 1.453 . S
C336 C340 1.684 . S
C337 C327 1.723 . S
C337 C336 1.396 . S
C337 C338 1.394 . S
C338 C308 1.723 . S
C338 C334 1.397 . S
C338 C337 1.394 . S
C339 H311 0.982 . S
C339 H315 0.979 . S
C339 H316 0.977 . S
C339 C336 1.453 . S
C340 H312 0.979 . S
C340 H313 0.980 . S
C340 H314 0.983 . S
C340 C336 1.684 . S
H341 C359 0.948 . S
H342 C300 0.948 . S
H343 C318 0.979 . S
H344 C318 0.980 1_455 S
H345 C318 0.983 . S
H346 C317 0.982 . S
H347 C317 0.979 . S
H348 C317 0.977 . S
H349 C319 0.948 . S
H350 C321 0.947 . S
H351 C322 0.948 . S
H352 C328 0.982 . S
H353 C328 0.979 . S
H354 C328 0.977 . S
H355 C329 0.979 . S
H356 C329 0.980 . S
H357 C329 0.983 . S
H358 C302 0.947 . S
C359 C302 1.392 . S
C359 C303 1.419 . S
C359 H341 0.948 . S
C360 C361 1.391 . S
C360 C364 1.391 . S
C360 H402 0.948 . S
C361 C360 1.391 . S
C361 C362 1.391 . S
C362 C361 1.391 . S
C362 H418 0.947 . S
C362 C419 1.392 . S
C363 C364 1.391 . S
C363 C367 1.397 . S
C363 C419 1.419 . S
C364 C360 1.391 . S
C364 C363 1.391 . S
C364 C365 1.399 . S
C365 C364 1.399 . S
C365 C368 1.396 . S
C365 C377 1.453 1_565 S
C365 C378 1.684 . S
H366 C390 0.948 . S
C367 C363 1.397 . S
C367 C368 1.393 . S
C367 C386 1.723 . S
C368 C365 1.396 . S
C368 C367 1.393 . S
C368 C398 1.724 1_565 S
H369 C392 0.947 . S
H370 C393 0.948 . S
H371 C399 0.982 . S
H372 C400 0.979 . S
H373 C400 0.980 . S
H374 C400 0.983 . S
H375 C399 0.979 . S
H376 C399 0.977 . S
C377 C365 1.453 1_545 S
C377 H406 0.982 . S
C377 H407 0.979 1_545 S
C377 H408 0.977 . S
C378 C365 1.684 . S
C378 H403 0.979 . S
C378 H404 0.980 1_565 S
C378 H405 0.983 . S
C379 C380 1.391 1_565 S
C379 C384 1.391 . S
C379 H409 0.948 . S
C380 C379 1.391 1_545 S
C380 C381 1.391 . S
C381 C380 1.391 . S
C381 C382 1.392 . S
C381 H410 0.947 . S
C382 C381 1.392 . S
C382 C383 1.419 . S
C382 H411 0.948 . S
C383 C382 1.419 . S
C383 C384 1.391 1_545 S
C383 C387 1.397 . S
C384 C379 1.391 . S
C384 C383 1.391 1_565 S
C384 C385 1.399 . S
C385 C384 1.399 . S
C385 C386 1.396 . S
C385 C388 1.453 . S
C385 C389 1.684 . S
C386 C367 1.723 . S
C386 C385 1.396 . S
C386 C387 1.394 1_565 S
C387 C383 1.397 . S
C387 C386 1.394 1_545 S
C387 C397 1.723 . S
C388 C385 1.453 . S
C388 H412 0.982 . S
C388 H413 0.979 . S
C388 H414 0.977 . S
C389 C385 1.684 . S
C389 H415 0.979 . S
C389 H416 0.980 . S
C389 H417 0.983 . S
C390 H366 0.948 . S
C390 C391 1.391 . S
C390 C395 1.391 . S
C391 C390 1.391 . S
C391 C392 1.391 . S
C392 H369 0.947 . S
C392 C391 1.391 . S
C392 C393 1.392 . S
C393 H370 0.948 . S
C393 C392 1.392 . S
C393 C394 1.419 . S
C394 C393 1.419 . S
C394 C395 1.391 . S
C394 C398 1.397 . S
C395 C390 1.391 . S
C395 C394 1.391 . S
C395 C396 1.399 . S
C396 C395 1.399 . S
C396 C397 1.396 . S
C396 C399 1.453 . S
C396 C400 1.684 . S
C397 C387 1.723 . S
C397 C396 1.396 . S
C397 C398 1.394 . S
C398 C368 1.724 1_545 S
C398 C394 1.397 . S
C398 C397 1.394 . S
C399 H371 0.982 . S
C399 H375 0.979 . S
C399 H376 0.977 . S
C399 C396 1.453 . S
C400 H372 0.979 . S
C400 H373 0.980 . S
C400 H374 0.983 . S
C400 C396 1.684 . S
H401 C419 0.948 . S
H402 C360 0.948 . S
H403 C378 0.979 . S
H404 C378 0.980 1_545 S
H405 C378 0.983 . S
H406 C377 0.982 . S
H407 C377 0.979 1_565 S
H408 C377 0.977 . S
H409 C379 0.948 . S
H410 C381 0.947 . S
H411 C382 0.948 . S
H412 C388 0.982 . S
H413 C388 0.979 . S
H414 C388 0.977 . S
H415 C389 0.979 . S
H416 C389 0.980 . S
H417 C389 0.983 . S
H418 C362 0.947 . S
C419 C362 1.392 . S
C419 C363 1.419 . S
C419 H401 0.948 . S
C420 C421 1.391 . S
C420 C424 1.391 . S
C420 H462 0.948 . S
C421 C420 1.391 . S
C421 C422 1.391 . S
C422 C421 1.391 . S
C422 H478 0.947 . S
C422 C479 1.392 . S
C423 C424 1.391 . S
C423 C427 1.397 . S
C423 C479 1.419 . S
C424 C420 1.391 . S
C424 C423 1.391 . S
C424 C425 1.399 . S
C425 C424 1.399 . S
C425 C428 1.396 . S
C425 C437 1.453 . S
C425 C438 1.684 . S
H426 C450 0.948 . S
C427 C423 1.397 . S
C427 C428 1.394 . S
C427 C446 1.723 . S
C428 C425 1.396 . S
C428 C427 1.394 . S
C428 C458 1.723 . S
H429 C452 0.947 . S
H430 C453 0.948 . S
H431 C459 0.982 . S
H432 C460 0.979 . S
H433 C460 0.980 . S
H434 C460 0.983 . S
H435 C459 0.979 . S
H436 C459 0.977 . S
C437 C425 1.453 . S
C437 H466 0.982 . S
C437 H467 0.979 . S
C437 H468 0.977 . S
C438 C425 1.684 . S
C438 H463 0.979 . S
C438 H464 0.980 . S
C438 H465 0.983 . S
C439 C440 1.391 1_554 S
C439 C444 1.391 . S
C439 H469 0.948 . S
C440 C439 1.391 1_556 S
C440 C441 1.391 1_556 S
C441 C440 1.391 1_554 S
C441 C442 1.392 . S
C441 H470 0.932 1_554 S
C442 C441 1.392 . S
C442 C443 1.419 . S
C442 H471 0.948 . S
C443 C442 1.419 . S
C443 C444 1.391 . S
C443 C447 1.397 . S
C444 C439 1.391 . S
C444 C443 1.391 . S
C444 C445 1.399 . S
C445 C444 1.399 . S
C445 C446 1.396 . S
C445 C448 1.453 . S
C445 C449 1.684 . S
C446 C427 1.723 . S
C446 C445 1.396 . S
C446 C447 1.394 . S
C447 C443 1.397 . S
C447 C446 1.394 . S
C447 C457 1.723 . S
C448 C445 1.453 . S
C448 H472 0.982 . S
C448 H473 0.979 . S
C448 H474 0.977 . S
C449 C445 1.684 . S
C449 H475 0.979 . S
C449 H476 0.980 . S
C449 H477 0.983 . S
C450 H426 0.948 . S
C450 C451 1.391 . S
C450 C455 1.391 . S
C451 C450 1.391 . S
C451 C452 1.391 . S
C452 H429 0.947 . S
C452 C451 1.391 . S
C452 C453 1.392 . S
C453 H430 0.948 . S
C453 C452 1.392 . S
C453 C454 1.419 . S
C454 C453 1.419 . S
C454 C455 1.391 . S
C454 C458 1.397 . S
C455 C450 1.391 . S
C455 C454 1.391 . S
C455 C456 1.399 . S
C456 C455 1.399 . S
C456 C457 1.396 . S
C456 C459 1.453 . S
C456 C460 1.684 . S
C457 C447 1.723 . S
C457 C456 1.396 . S
C457 C458 1.394 . S
C458 C428 1.723 . S
C458 C454 1.397 . S
C458 C457 1.394 . S
C459 H431 0.982 . S
C459 H435 0.979 . S
C459 H436 0.977 . S
C459 C456 1.453 . S
C460 H432 0.979 . S
C460 H433 0.980 . S
C460 H434 0.983 . S
C460 C456 1.684 . S
H461 C479 0.948 . S
H462 C420 0.948 . S
H463 C438 0.979 . S
H464 C438 0.980 . S
H465 C438 0.983 . S
H466 C437 0.982 . S
H467 C437 0.979 . S
H468 C437 0.977 . S
H469 C439 0.948 . S
H470 C441 0.932 1_556 S
H471 C442 0.948 . S
H472 C448 0.982 . S
H473 C448 0.979 . S
H474 C448 0.977 . S
H475 C449 0.979 . S
H476 C449 0.980 . S
H477 C449 0.983 . S
H478 C422 0.947 . S
C479 C422 1.392 . S
C479 C423 1.419 . S
C479 H461 0.948 . S
C480 C481 1.387 . S
C480 H484 0.950 . S
C480 C489 1.390 . S
C481 C480 1.387 . S
C481 C483 1.387 . S
H482 C489 0.950 . S
C483 C481 1.387 . S
C483 C485 1.390 . S
C483 H487 0.950 . S
H484 C480 0.950 . S
C485 C483 1.390 . S
C485 C486 1.387 . S
C485 H488 0.950 . S
C486 C485 1.387 . S
C486 C489 1.387 . S
H487 C483 0.950 . S
H488 C485 0.950 . S
C489 C480 1.390 . S
C489 H482 0.950 . S
C489 C486 1.387 . S
C490 C491 1.387 . S
C490 H494 0.950 . S
C490 C499 1.390 . S
C491 C490 1.387 . S
C491 C493 1.387 . S
H492 C499 0.950 . S
C493 C491 1.387 . S
C493 C495 1.390 . S
C493 H497 0.950 . S
H494 C490 0.950 . S
C495 C493 1.390 . S
C495 C496 1.387 . S
C495 H498 0.950 . S
C496 C495 1.387 . S
C496 C499 1.387 . S
H497 C493 0.950 . S
H498 C495 0.950 . S
C499 C490 1.390 . S
C499 H492 0.950 . S
C499 C496 1.387 . S
C500 C501 1.387 . S
C500 H504 0.950 . S
C500 C509 1.390 . S
C501 C500 1.387 . S
C501 C503 1.387 . S
H502 C509 0.950 . S
C503 C501 1.387 . S
C503 C505 1.390 . S
C503 H507 0.950 . S
H504 C500 0.950 . S
C505 C503 1.390 . S
C505 C506 1.387 . S
C505 H508 0.950 . S
C506 C505 1.387 . S
C506 C509 1.387 . S
H507 C503 0.950 . S
H508 C505 0.950 . S
C509 C500 1.390 . S
C509 H502 0.950 . S
C509 C506 1.387 . S
C510 C511 1.387 . S
C510 H514 0.950 . S
C510 C519 1.390 . S
C511 C510 1.387 . S
C511 C513 1.387 . S
H512 C519 0.950 . S
C513 C511 1.387 . S
C513 C515 1.390 . S
C513 H517 0.950 . S
H514 C510 0.950 . S
C515 C513 1.390 . S
C515 C516 1.387 . S
C515 H518 0.950 . S
C516 C515 1.387 . S
C516 C519 1.387 . S
H517 C513 0.950 . S
H518 C515 0.950 . S
C519 C510 1.390 . S
C519 H512 0.950 . S
C519 C516 1.387 . S
C520 C521 1.387 . S
C520 H524 0.950 . S
C520 C529 1.390 . S
C521 C520 1.387 . S
C521 C523 1.387 . S
H522 C529 0.950 . S
C523 C521 1.387 . S
C523 C525 1.390 . S
C523 H527 0.950 . S
H524 C520 0.950 . S
C525 C523 1.390 . S
C525 C526 1.387 . S
C525 H528 0.950 . S
C526 C525 1.387 . S
C526 C529 1.387 . S
H527 C523 0.950 . S
H528 C525 0.950 . S
C529 C520 1.390 . S
C529 H522 0.950 . S
C529 C526 1.387 . S
C530 C531 1.387 . S
C530 H534 0.950 . S
C530 C539 1.390 . S
C531 C530 1.387 . S
C531 C533 1.387 . S
H532 C539 0.950 . S
C533 C531 1.387 . S
C533 C535 1.390 . S
C533 H537 0.950 . S
H534 C530 0.950 . S
C535 C533 1.390 . S
C535 C536 1.387 . S
C535 H538 0.950 . S
C536 C535 1.387 . S
C536 C539 1.387 . S
H537 C533 0.950 . S
H538 C535 0.950 . S
C539 C530 1.390 . S
C539 H532 0.950 . S
C539 C536 1.387 . S
C540 C541 1.387 . S
C540 H544 0.950 . S
C540 C549 1.390 . S
C541 C540 1.387 . S
C541 C543 1.387 . S
H542 C549 0.950 . S
C543 C541 1.387 . S
C543 C545 1.390 . S
C543 H547 0.950 . S
H544 C540 0.950 . S
C545 C543 1.390 . S
C545 C546 1.387 . S
C545 H548 0.950 . S
C546 C545 1.387 . S
C546 C549 1.387 . S
H547 C543 0.950 . S
H548 C545 0.950 . S
C549 C540 1.390 . S
C549 H542 0.950 . S
C549 C546 1.387 . S
C550 C551 1.387 . S
C550 H554 0.950 . S
C550 C559 1.390 . S
C551 C550 1.387 . S
C551 C553 1.387 . S
H552 C559 0.950 . S
C553 C551 1.387 . S
C553 C555 1.390 . S
C553 H557 0.950 . S
H554 C550 0.950 . S
C555 C553 1.390 . S
C555 C556 1.387 . S
C555 H558 0.950 . S
C556 C555 1.387 . S
C556 C559 1.387 . S
H557 C553 0.950 . S
H558 C555 0.950 . S
C559 C550 1.390 . S
C559 H552 0.950 . S
C559 C556 1.387 . S
C560 C561 1.387 . S
C560 H564 0.950 . S
C560 C569 1.390 . S
C561 C560 1.387 . S
C561 C563 1.387 . S
H562 C569 0.950 . S
C563 C561 1.387 . S
C563 C565 1.390 . S
C563 H567 0.950 . S
H564 C560 0.950 . S
C565 C563 1.390 . S
C565 C566 1.387 . S
C565 H568 0.950 . S
C566 C565 1.387 . S
C566 C569 1.387 . S
H567 C563 0.950 . S
H568 C565 0.950 . S
C569 C560 1.390 . S
C569 H562 0.950 . S
C569 C566 1.387 . S
C570 C571 1.387 . S
C570 H574 0.950 . S
C570 C579 1.390 . S
C571 C570 1.387 . S
C571 C573 1.387 . S
H572 C579 0.950 . S
C573 C571 1.387 . S
C573 C575 1.390 . S
C573 H577 0.950 . S
H574 C570 0.950 . S
C575 C573 1.390 . S
C575 C576 1.387 . S
C575 H578 0.950 . S
C576 C575 1.387 . S
C576 C579 1.387 . S
H577 C573 0.950 . S
H578 C575 0.950 . S
C579 C570 1.390 . S
C579 H572 0.950 . S
C579 C576 1.387 . S
C580 C581 1.387 . S
C580 H584 0.950 . S
C580 C589 1.390 . S
C581 C580 1.387 . S
C581 C583 1.387 . S
H582 C589 0.950 . S
C583 C581 1.387 . S
C583 C585 1.390 . S
C583 H587 0.950 . S
H584 C580 0.950 . S
C585 C583 1.390 . S
C585 C586 1.387 . S
C585 H588 0.950 . S
C586 C585 1.387 . S
C586 C589 1.387 . S
H587 C583 0.950 . S
H588 C585 0.950 . S
C589 C580 1.390 . S
C589 H582 0.950 . S
C589 C586 1.387 . S
C590 C591 1.387 . S
C590 H594 0.950 . S
C590 C599 1.390 . S
C591 C590 1.387 . S
C591 C593 1.387 . S
H592 C599 0.950 . S
C593 C591 1.387 . S
C593 C595 1.390 . S
C593 H597 0.950 . S
H594 C590 0.950 . S
C595 C593 1.390 . S
C595 C596 1.387 . S
C595 H598 0.950 . S
C596 C595 1.387 . S
C596 C599 1.387 . S
H597 C593 0.950 . S
H598 C595 0.950 . S
C599 C590 1.390 . S
C599 H592 0.950 . S
C599 C596 1.387 . S
C600 C601 1.387 1_655 S
C600 H604 0.950 . S
C600 C609 1.390 . S
C601 C600 1.387 1_455 S
C601 C603 1.387 . S
H602 C609 0.950 . S
C603 C601 1.387 . S
C603 C605 1.390 . S
C603 H607 0.950 . S
H604 C600 0.950 . S
C605 C603 1.390 . S
C605 C606 1.387 . S
C605 H608 0.950 . S
C606 C605 1.387 . S
C606 C609 1.387 1_455 S
H607 C603 0.950 . S
H608 C605 0.950 . S
C609 C600 1.390 . S
C609 H602 0.950 . S
C609 C606 1.387 1_655 S
C610 C611 1.387 . S
C610 H614 0.950 . S
C610 C619 1.390 . S
C611 C610 1.387 . S
C611 C613 1.387 1_545 S
H612 C619 0.950 . S
C613 C611 1.387 1_565 S
C613 C615 1.390 . S
C613 H617 0.950 . S
H614 C610 0.950 . S
C615 C613 1.390 . S
C615 C616 1.387 1_565 S
C615 H618 0.950 . S
C616 C615 1.387 1_545 S
C616 C619 1.387 . S
H617 C613 0.950 . S
H618 C615 0.950 . S
C619 C610 1.390 . S
C619 H612 0.950 . S
C619 C616 1.387 . S
C620 C621 1.387 . S
C620 H624 0.950 . S
C620 C629 1.390 . S
C621 C620 1.387 . S
C621 C623 1.387 . S
H622 C629 0.950 . S
C623 C621 1.387 . S
C623 C625 1.390 . S
C623 H627 0.950 . S
H624 C620 0.950 . S
C625 C623 1.390 . S
C625 C626 1.387 . S
C625 H628 0.950 . S
C626 C625 1.387 . S
C626 C629 1.387 . S
H627 C623 0.950 . S
H628 C625 0.950 . S
C629 C620 1.390 . S
C629 H622 0.950 . S
C629 C626 1.387 . S
C630 C631 1.387 . S
C630 H634 0.950 . S
C630 C639 1.390 . S
C631 C630 1.387 . S
C631 C633 1.387 1_545 S
H632 C639 0.950 . S
C633 C631 1.387 1_565 S
C633 C635 1.390 . S
C633 H637 0.950 . S
H634 C630 0.950 . S
C635 C633 1.390 . S
C635 C636 1.387 1_565 S
C635 H638 0.950 . S
C636 C635 1.387 1_545 S
C636 C639 1.387 . S
H637 C633 0.950 . S
H638 C635 0.950 . S
C639 C630 1.390 . S
C639 H632 0.950 . S
C639 C636 1.387 . S
C640 C641 1.387 . S
C640 H644 0.950 . S
C640 C649 1.390 . S
C641 C640 1.387 . S
C641 C643 1.387 . S
H642 C649 0.950 . S
C643 C641 1.387 . S
C643 C645 1.390 . S
C643 H647 0.950 . S
H644 C640 0.950 . S
C645 C643 1.390 . S
C645 C646 1.387 . S
C645 H648 0.950 . S
C646 C645 1.387 . S
C646 C649 1.387 . S
H647 C643 0.950 . S
H648 C645 0.950 . S
C649 C640 1.390 . S
C649 H642 0.950 . S
C649 C646 1.387 . S
C650 C651 1.384 1_455 S
C650 H654 0.950 . S
C650 C659 1.390 . S
C651 C650 1.384 1_655 S
C651 C653 1.390 . S
H652 C659 0.950 . S
C653 C651 1.390 . S
C653 C655 1.390 . S
C653 H657 0.950 . S
H654 C650 0.950 . S
C655 C653 1.390 . S
C655 C656 1.387 1_655 S
C655 H658 0.950 . S
C656 C655 1.387 1_455 S
C656 C659 1.387 . S
H657 C653 0.950 . S
H658 C655 0.950 . S
C659 C650 1.390 . S
C659 H652 0.950 . S
C659 C656 1.387 . S
C481 C12 3.045 . S
C486 C451 3.029 . S
C491 C52 3.044 . S
C496 C301 2.855 . S
C501 C111 3.092 . S
C506 C361 2.888 . S
C511 C31 3.217 . S
C516 C421 2.992 . S
C526 C331 3.192 . S
C521 C71 3.217 . S
C536 C391 3.142 . S
C531 C92 3.167 . S
C541 C48 0.738 . S
C546 C181 0.738 . S
C551 C109 0.765 . S
C556 C271 0.783 . S
C561 C29 0.732 . S
C566 C151 0.716 . S
C576 C211 0.657 . S
C571 C69 0.673 . S
C586 C241 0.492 . S
C581 C88 0.539 . S
C591 C8 0.530 . S
C596 C121 0.463 . S
C606 C260 1.043 . S
C601 C17 1.057 1_455 S
C611 C57 1.044 . S
C616 C140 1.030 . S
C621 C97 1.058 . S
C626 C200 1.024 . S
C636 C380 1.785 . S
C631 C42 1.743 . S
C646 C440 1.782 . S
C641 C82 1.751 . S
C651 C2 1.759 1_655 S
C656 C320 1.777 . S
