# Generated by pormake.
# Topology zzz, (3,6)-cn, num edge types: 1
# Building blocks:
#     Node 0, Type 0, BuildingBlock: ESEHIV_clean_linker_0, # of connection points: 3
#     Node 1, Type 0, BuildingBlock: ESEHIV_clean_linker_0, # of connection points: 3
#     Node 2, Type 0, BuildingBlock: ESEHIV_clean_linker_0, # of connection points: 3
#     Node 3, Type 0, BuildingBlock: ESEHIV_clean_linker_0, # of connection points: 3
#     Node 4, Type 0, BuildingBlock: ESEHIV_clean_linker_0, # of connection points: 3
#     Node 5, Type 0, BuildingBlock: ESEHIV_clean_linker_0, # of connection points: 3
#     Node 6, Type 0, BuildingBlock: ESEHIV_clean_linker_0, # of connection points: 3
#     Node 7, Type 0, BuildingBlock: ESEHIV_clean_linker_0, # of connection points: 3
#     Node 8, Type 1, BuildingBlock: KUMBUR_clean_sbu_1, # of connection points: 6
#     Node 9, Type 1, BuildingBlock: KUMBUR_clean_sbu_1, # of connection points: 6
#     Node 10, Type 1, BuildingBlock: KUMBUR_clean_sbu_1, # of connection points: 6
#     Node 11, Type 1, BuildingBlock: KUMBUR_clean_sbu_1, # of connection points: 6
#     Edge 12, Type (0, 1), BuildingBlock: KIFKEQ_clean_linker_1, # of connection points: 2
#     Edge 13, Type (0, 1), BuildingBlock: KIFKEQ_clean_linker_1, # of connection points: 2
#     Edge 14, Type (0, 1), BuildingBlock: KIFKEQ_clean_linker_1, # of connection points: 2
#     Edge 15, Type (0, 1), BuildingBlock: KIFKEQ_clean_linker_1, # of connection points: 2
#     Edge 16, Type (0, 1), BuildingBlock: KIFKEQ_clean_linker_1, # of connection points: 2
#     Edge 17, Type (0, 1), BuildingBlock: KIFKEQ_clean_linker_1, # of connection points: 2
#     Edge 18, Type (0, 1), BuildingBlock: KIFKEQ_clean_linker_1, # of connection points: 2
#     Edge 19, Type (0, 1), BuildingBlock: KIFKEQ_clean_linker_1, # of connection points: 2
#     Edge 20, Type (0, 1), BuildingBlock: KIFKEQ_clean_linker_1, # of connection points: 2
#     Edge 21, Type (0, 1), BuildingBlock: KIFKEQ_clean_linker_1, # of connection points: 2
#     Edge 22, Type (0, 1), BuildingBlock: KIFKEQ_clean_linker_1, # of connection points: 2
#     Edge 23, Type (0, 1), BuildingBlock: KIFKEQ_clean_linker_1, # of connection points: 2
#     Edge 24, Type (0, 1), BuildingBlock: KIFKEQ_clean_linker_1, # of connection points: 2
#     Edge 25, Type (0, 1), BuildingBlock: KIFKEQ_clean_linker_1, # of connection points: 2
#     Edge 26, Type (0, 1), BuildingBlock: KIFKEQ_clean_linker_1, # of connection points: 2
#     Edge 27, Type (0, 1), BuildingBlock: KIFKEQ_clean_linker_1, # of connection points: 2
#     Edge 28, Type (0, 1), BuildingBlock: KIFKEQ_clean_linker_1, # of connection points: 2
#     Edge 29, Type (0, 1), BuildingBlock: KIFKEQ_clean_linker_1, # of connection points: 2
#     Edge 30, Type (0, 1), BuildingBlock: KIFKEQ_clean_linker_1, # of connection points: 2
#     Edge 31, Type (0, 1), BuildingBlock: KIFKEQ_clean_linker_1, # of connection points: 2
#     Edge 32, Type (0, 1), BuildingBlock: KIFKEQ_clean_linker_1, # of connection points: 2
#     Edge 33, Type (0, 1), BuildingBlock: KIFKEQ_clean_linker_1, # of connection points: 2
#     Edge 34, Type (0, 1), BuildingBlock: KIFKEQ_clean_linker_1, # of connection points: 2
#     Edge 35, Type (0, 1), BuildingBlock: KIFKEQ_clean_linker_1, # of connection points: 2
# Relax obj value: 0.354
# Max RMSD: 0.204
# Mean RMSD: 0.183
data_MOF--net-zzz--node1-KUMBUR_clean_sbu_1--node2-ESEHIV_clean_linker_0--edge1-KIFKEQ_clean_linker_1
_symmetry_space_group_name_H-M    P1
_symmetry_Int_Tables_number       1
_symmetry_cell_setting            triclinic
loop_
_symmetry_equiv_pos_as_xyz
'x, y, z'
_cell_length_a     44.419873
_cell_length_b     44.36099
_cell_length_c     16.625964
_cell_angle_alpha  90.127072
_cell_angle_beta   89.610559
_cell_angle_gamma 90.465635
loop_
_atom_site_label
_atom_site_type_symbol
_atom_site_fract_x
_atom_site_fract_y
_atom_site_fract_z
_atom_type_partial_charge
H0 H 0.81764 0.59973 0.20137 0.0
H1 H 0.74187 0.58964 0.04359 0.0
H2 H 0.75353 0.5274 0.23817 0.0
C3 C 0.79701 0.58821 0.18457 0.0
C4 C 0.78799 0.56264 0.22855 0.0
C5 C 0.78128 0.59772 0.1162 0.0
C6 C 0.7541 0.58312 0.09686 0.0
C7 C 0.74319 0.55836 0.14053 0.0
C8 C 0.76079 0.54735 0.20584 0.0
H9 H 0.95064 0.81934 0.25186 0.0
H10 H 0.9482 0.74455 0.08829 0.0
H11 H 0.02592 0.75894 0.23897 0.0
C12 C 0.96051 0.79874 0.22887 0.0
C13 C 0.98893 0.79043 0.25712 0.0
C14 C 0.94611 0.78299 0.16663 0.0
C15 C 0.95956 0.75695 0.13566 0.0
C16 C 0.98848 0.74797 0.15921 0.0
C17 C 1.0034 0.76498 0.22087 0.0
H18 H 0.7226 0.95917 0.25762 0.0
H19 H 0.79717 0.95744 0.09297 0.0
H20 H 0.79642 0.0215 0.28922 0.0
C21 C 0.74509 0.96677 0.24114 0.0
C22 C 0.75799 0.99051 0.28489 0.0
C23 C 0.75858 0.95545 0.17102 0.0
C24 C 0.78705 0.96611 0.14785 0.0
C25 C 0.80142 0.98966 0.18957 0.0
C26 C 0.78648 1.0024 0.25834 0.0
H27 H 0.59541 0.72543 0.20057 0.0
H28 H 0.53095 0.7935 0.26526 0.0
H29 H 0.59767 0.81113 0.08131 0.0
C30 C 0.58723 0.74824 0.19444 0.0
C31 C 0.59878 0.76682 0.13286 0.0
C32 C 0.56364 0.75755 0.24539 0.0
C33 C 0.55022 0.78635 0.23011 0.0
C34 C 0.56273 0.80602 0.16973 0.0
C35 C 0.58788 0.7962 0.12607 0.0
H36 H 0.21213 0.45657 0.16952 0.0
H37 H 0.28837 0.46704 0.32511 0.0
H38 H 0.29149 0.5044 0.08709 0.0
C39 C 0.23494 0.46446 0.17972 0.0
C40 C 0.24963 0.48088 0.11863 0.0
C41 C 0.24805 0.46016 0.2554 0.0
C42 C 0.27795 0.46962 0.26685 0.0
C43 C 0.29438 0.48482 0.20715 0.0
C44 C 0.27977 0.49139 0.13272 0.0
H45 H 0.99707 0.23098 0.13718 0.0
H46 H 1.00616 0.30475 0.30231 0.0
H47 H 0.05795 0.30449 0.0816 0.0
C48 C 1.00725 0.25251 0.15277 0.0
C49 C 0.02851 0.26536 0.1003 0.0
C50 C 0.99938 0.26627 0.22556 0.0
C51 C 0.01203 0.29425 0.2454 0.0
C52 C 0.03279 0.30875 0.19449 0.0
C53 C 0.04157 0.29397 0.12126 0.0
H54 H 0.29576 0.97796 0.10276 0.0
H55 H 0.21488 0.98192 0.24525 0.0
H56 H 0.23748 0.05458 0.0832 0.0
C57 C 0.27487 0.98897 0.1187 0.0
C58 C 0.26822 0.01635 0.08088 0.0
C59 C 0.25636 0.97668 0.17938 0.0
C60 C 0.22982 0.99167 0.20033 0.0
C61 C 0.22289 0.02001 0.16882 0.0
C62 C 0.24241 0.03272 0.1085 0.0
H63 H 0.45369 0.32427 0.16922 0.0
H64 H 0.50632 0.24649 0.10279 0.0
H65 H 0.45915 0.24875 0.32945 0.0
C66 C 0.4618 0.30185 0.1825 0.0
C67 C 0.45402 0.28833 0.25612 0.0
C68 C 0.48113 0.28778 0.12696 0.0
C69 C 0.49163 0.25795 0.14487 0.0
C70 C 0.4822 0.24305 0.21752 0.0
C71 C 0.46417 0.25909 0.27187 0.0
Tb72 Tb 0.98632 0.0386 0.64387 0.0
C73 C 0.12086 0.01447 0.79597 0.0
N74 N 0.10187 1.00105 0.74325 0.0
C75 C 0.14413 0.98354 0.6658 0.0
C76 C 0.15233 0.01368 0.78496 0.0
C77 C 0.11308 0.98452 0.68049 0.0
C78 C 0.16385 0.99857 0.71764 0.0
C79 C 0.1273 0.03789 0.9262 0.0
C80 C 0.10863 0.02647 0.86487 0.0
C81 C 0.15865 0.03876 0.91411 0.0
C82 C 0.17116 0.02673 0.84337 0.0
Tb83 Tb 0.05134 1.00525 0.76954 0.0
N84 N 0.07846 0.02416 0.87487 0.0
C85 C 0.11397 0.04662 0.99906 0.0
C86 C 0.06553 0.03086 0.94748 0.0
C87 C 0.08297 0.04263 1.01017 0.0
H88 H 0.09808 0.9726 0.64047 0.0
H89 H 0.07253 0.04843 0.06708 0.0
H90 H 0.93558 0.98445 0.62238 0.0
H91 H 0.01219 0.13394 0.45312 0.0
H92 H 0.04166 0.02745 0.9568 0.0
H93 H 0.12749 0.05539 0.04795 0.0
H94 H 0.0105 0.10559 0.58023 0.0
H95 H 0.15282 0.97108 0.61478 0.0
H96 H 0.17342 0.04766 0.96018 0.0
H97 H 0.19541 0.02657 0.83586 0.0
H98 H 0.90678 0.9609 0.51149 0.0
H99 H 0.18789 0.99747 0.70676 0.0
H100 H 0.98936 0.11224 0.33036 0.0
N101 N 0.95691 0.01696 0.54693 0.0
C102 C 0.95818 0.02949 0.47284 0.0
C103 C 0.92135 0.98007 0.49958 0.0
C104 C 0.94176 0.01733 0.40803 0.0
C105 C 0.9378 0.99333 0.56208 0.0
C106 C 0.92367 0.99185 0.42185 0.0
N107 N 0.98773 0.0676 0.53006 0.0
C108 C 1.00065 0.09566 0.52729 0.0
C109 C 0.97436 0.07141 0.39012 0.0
C110 C 0.97413 0.05597 0.46412 0.0
C111 C 0.98875 0.09954 0.38596 0.0
C112 C 1.00162 0.11188 0.45518 0.0
H113 H 0.91069 0.98176 0.37369 0.0
H114 H 0.93085 0.02257 0.28186 0.0
H115 H 0.95947 0.07007 0.26617 0.0
O116 O 0.97087 0.06341 0.74402 0.0
O117 O 0.99265 0.98918 0.63764 0.0
O118 O 0.04345 0.98333 0.65097 0.0
O119 O 0.94209 0.05504 0.64267 0.0
O120 O 0.02919 0.04161 0.574 0.0
O121 O 0.06868 0.02644 0.65727 0.0
O122 O 0.02539 0.96557 0.7805 0.0
O123 O 0.03723 0.05064 0.80762 0.0
O124 O 0.02007 0.07161 0.69039 0.0
O125 O 0.06715 0.97078 0.84437 0.0
O126 O 0.00958 0.01982 0.83112 0.0
O127 O 0.97799 1.0037 0.73514 0.0
C128 C 0.01767 0.97501 0.61827 0.0
C129 C 0.93157 0.09754 0.72433 0.0
C130 C 0.91762 0.14652 0.67158 0.0
C131 C 0.9058 0.15443 0.74723 0.0
C132 C 0.91952 0.10556 0.7995 0.0
C133 C 0.90675 0.13395 0.81086 0.0
C134 C 0.93075 0.11808 0.66086 0.0
C135 C 0.05827 0.03731 0.58842 0.0
C136 C 0.94444 0.06751 0.71342 0.0
C137 C 0.94306 0.03168 0.33275 0.0
C138 C 0.95934 0.05873 0.32383 0.0
C139 C 0.03136 0.07451 0.76349 0.0
C140 C 0.02579 0.94954 0.91567 0.0
C141 C 0.97907 0.93649 0.98778 0.0
C142 C 0.99485 0.93972 0.06086 0.0
C143 C 0.04073 0.95246 0.98946 0.0
C144 C 0.99495 0.94192 0.91543 0.0
C145 C 0.02521 0.94786 0.06141 0.0
C146 C 0.98277 1.00959 0.81152 0.0
C147 C 0.04186 0.9558 0.8392 0.0
H148 H 0.89572 0.1763 0.75692 0.0
H149 H 0.91998 0.08984 0.84929 0.0
H150 H 0.89752 0.14005 0.86901 0.0
H151 H 0.9407 0.11203 0.60337 0.0
H152 H 0.98434 0.93484 0.11824 0.0
H153 H 0.06439 0.9585 0.9918 0.0
H154 H 0.98345 0.9404 0.85844 0.0
H155 H 0.03694 0.95004 0.11802 0.0
Tb156 Tb 0.53149 0.05226 0.75917 0.0
C157 C 0.5295 0.9265 0.67413 0.0
N158 N 0.53759 0.95091 0.62909 0.0
C159 C 0.58463 0.92698 0.59701 0.0
C160 C 0.54947 0.90243 0.68681 0.0
C161 C 0.56373 0.94993 0.58506 0.0
C162 C 0.57779 0.90349 0.64978 0.0
C163 C 0.49032 0.89933 0.74692 0.0
C164 C 0.50036 0.92475 0.70341 0.0
C165 C 0.51053 0.87596 0.76292 0.0
C166 C 0.54009 0.87755 0.7331 0.0
Tb167 Tb 0.50136 0.9878 0.61759 0.0
N168 N 0.48182 0.94833 0.68951 0.0
C169 C 0.46029 0.89823 0.77285 0.0
C170 C 0.45218 0.94688 0.71174 0.0
C171 C 0.44105 0.92197 0.75433 0.0
H172 H 0.56832 0.96597 0.53799 0.0
H173 H 0.41765 0.9211 0.77284 0.0
H174 H 0.47279 0.09608 0.78895 0.0
H175 H 0.64647 0.08373 0.68455 0.0
H176 H 0.43717 0.965 0.69684 0.0
H177 H 0.45166 0.87906 0.80634 0.0
H178 H 0.60684 0.05322 0.7511 0.0
H179 H 0.60563 0.92698 0.56361 0.0
H180 H 0.50342 0.8564 0.79726 0.0
H181 H 0.55525 0.85903 0.74424 0.0
H182 H 0.4564 0.14709 0.74806 0.0
H183 H 0.59381 0.88547 0.65793 0.0
H184 H 0.63308 0.13076 0.6138 0.0
N185 N 0.5149 0.09943 0.72788 0.0
C186 C 0.53459 0.11765 0.68822 0.0
C187 C 0.47836 0.13896 0.73015 0.0
C188 C 0.52634 0.14674 0.66336 0.0
C189 C 0.48765 0.11019 0.75328 0.0
C190 C 0.49756 0.15709 0.68354 0.0
N191 N 0.57097 0.08065 0.71003 0.0
C192 C 0.60058 0.07299 0.71742 0.0
C193 C 0.58553 0.12643 0.64144 0.0
C194 C 0.56362 0.10761 0.67755 0.0
C195 C 0.61552 0.11701 0.64103 0.0
C196 C 0.62317 0.0905 0.68095 0.0
H197 H 0.49032 0.17935 0.66567 0.0
H198 H 0.54144 0.18705 0.60105 0.0
H199 H 0.59342 0.16924 0.58184 0.0
O200 O 0.55507 0.07558 0.84989 0.0
O201 O 0.5022 0.06445 0.65629 0.0
O202 O 0.5111 0.031 0.55442 0.0
O203 O 0.51457 0.05116 0.87737 0.0
O204 O 0.56529 0.02276 0.69974 0.0
O205 O 0.54371 1.01061 0.57918 0.0
O206 O 0.46173 0.98128 0.54963 0.0
O207 O 0.50262 0.98273 0.75026 0.0
O208 O 0.54631 1.00565 0.78356 0.0
O209 O 0.50351 0.96169 0.51257 0.0
O210 O 0.46415 0.01562 0.66945 0.0
O211 O 0.48475 0.03727 0.78474 0.0
C212 C 0.50661 0.05889 0.57934 0.0
C213 C 0.55109 0.05319 0.97743 0.0
C214 C 0.58272 0.01465 0.0375 0.0
C215 C 0.57777 0.02811 0.11339 0.0
C216 C 0.54622 0.06604 0.05327 0.0
C217 C 0.5595 0.05346 0.12104 0.0
C218 C 0.56899 0.02747 0.96989 0.0
C219 C 0.56772 0.01791 0.6216 0.0
C220 C 0.537 0.06643 0.90658 0.0
C221 C 0.54744 0.1648 0.62202 0.0
C222 C 0.57702 0.15463 0.61093 0.0
C223 C 0.5268 0.98361 0.79497 0.0
C224 C 0.46023 0.93119 0.49931 0.0
C225 C 0.41512 0.90033 0.47976 0.0
C226 C 0.43174 0.87432 0.49617 0.0
C227 C 0.47661 0.90478 0.51493 0.0
C228 C 0.4296 0.92869 0.48144 0.0
C229 C 0.46235 0.87662 0.51382 0.0
C230 C 0.46126 0.0279 0.74238 0.0
C231 C 0.47458 0.96137 0.50345 0.0
H232 H 0.58858 0.01968 0.16686 0.0
H233 H 0.53225 0.08581 0.05998 0.0
H234 H 0.55593 0.06361 0.17958 0.0
H235 H 0.57224 0.01768 0.91111 0.0
H236 H 0.42109 0.85227 0.4954 0.0
H237 H 0.5004 0.90577 0.52832 0.0
H238 H 0.41716 0.94893 0.4675 0.0
H239 H 0.4751 0.85651 0.52644 0.0
Tb240 Tb 0.54932 0.4974 0.59601 0.0
C241 C 0.43442 0.51008 0.81895 0.0
N242 N 0.44251 0.52608 0.75258 0.0
C243 C 0.39087 0.52728 0.71082 0.0
C244 C 0.4042 0.50167 0.83346 0.0
C245 C 0.42114 0.53518 0.69923 0.0
C246 C 0.38236 0.51033 0.77802 0.0
C247 C 0.44937 0.48557 0.94241 0.0
C248 C 0.45661 0.50214 0.87259 0.0
C249 C 0.41933 0.47698 0.95712 0.0
C250 C 0.39679 0.48501 0.90273 0.0
Tb251 Tb 0.49271 0.53723 0.73937 0.0
N252 N 0.48551 0.51012 0.85502 0.0
C253 C 0.47257 0.47809 0.99508 0.0
C254 C 0.50802 0.50396 0.90788 0.0
C255 C 0.50199 0.48754 0.97799 0.0
H256 H 0.42719 0.54918 0.64856 0.0
H257 H 0.52003 0.48229 0.01897 0.0
H258 H 0.6169 0.50565 0.68017 0.0
H259 H 0.50848 0.52787 0.3008 0.0
H260 H 0.53064 0.51159 0.89644 0.0
H261 H 0.46798 0.46531 0.04932 0.0
H262 H 0.50671 0.50175 0.43021 0.0
H263 H 0.37409 0.53449 0.66823 0.0
H264 H 0.4133 0.46418 1.01035 0.0
H265 H 0.3737 0.47829 0.9149 0.0
H266 H 0.66485 0.53108 0.64836 0.0
H267 H 0.35888 0.50431 0.78694 0.0
H268 H 0.55386 0.55711 0.26158 0.0
N269 N 0.59545 0.51914 0.57207 0.0
C270 C 0.59894 0.53301 0.49973 0.0
C271 C 0.6464 0.53203 0.60628 0.0
C272 C 0.62619 0.54756 0.47855 0.0
C273 C 0.61891 0.518 0.62472 0.0
C274 C 0.65002 0.54703 0.5331 0.0
N275 N 0.54872 0.51919 0.47086 0.0
C276 C 0.5257 0.51604 0.41737 0.0
C277 C 0.57732 0.54756 0.37223 0.0
C278 C 0.57474 0.53317 0.44758 0.0
C279 C 0.5528 0.54637 0.32002 0.0
C280 C 0.52706 0.53011 0.34222 0.0
H281 H 0.67134 0.55791 0.51907 0.0
H282 H 0.64944 0.57365 0.38681 0.0
H283 H 0.60668 0.57355 0.29354 0.0
O284 O 0.54225 0.46014 0.52027 0.0
O285 O 0.55163 0.54797 0.59962 0.0
O286 O 0.50324 0.56194 0.62745 0.0
O287 O 0.58434 0.46601 0.58069 0.0
O288 O 0.5001 0.49037 0.57182 0.0
O289 O 0.47829 0.53438 0.61366 0.0
O290 O 0.50553 0.56786 0.82855 0.0
O291 O 0.49016 0.48686 0.73949 0.0
O292 O 0.53819 0.47243 0.70746 0.0
O293 O 0.4656 0.57546 0.75946 0.0
O294 O 0.54178 0.54286 0.76603 0.0
O295 O 0.56457 0.49975 0.72122 0.0
C296 C 0.52974 0.5679 0.59515 0.0
C297 C 0.56206 0.41768 0.58659 0.0
C298 C 0.52698 0.3795 0.63919 0.0
C299 C 0.55055 0.36675 0.68319 0.0
C300 C 0.58531 0.40459 0.63107 0.0
C301 C 0.57954 0.37924 0.67888 0.0
C302 C 0.5332 0.40461 0.59019 0.0
C303 C 0.47808 0.51026 0.56764 0.0
C304 C 0.56657 0.44693 0.54505 0.0
C305 C 0.62872 0.56228 0.40406 0.0
C306 C 0.60433 0.56228 0.35104 0.0
C307 C 0.51191 0.46674 0.74149 0.0
C308 C 0.49879 0.6169 0.77906 0.0
C309 C 0.54234 0.65106 0.77141 0.0
C310 C 0.52537 0.6707 0.72347 0.0
C311 C 0.48221 0.63695 0.73194 0.0
C312 C 0.52892 0.62393 0.79674 0.0
C313 C 0.49562 0.66351 0.70358 0.0
C314 C 0.56386 0.52313 0.76993 0.0
C315 C 0.48593 0.58765 0.80541 0.0
H316 H 0.54658 0.34724 0.72096 0.0
H317 H 0.60775 0.41434 0.63031 0.0
H318 H 0.59754 0.36942 0.71341 0.0
H319 H 0.5154 0.41399 0.55401 0.0
H320 H 0.53455 0.69212 0.7037 0.0
H321 H 0.45908 0.63193 0.71618 0.0
H322 H 0.54203 0.60816 0.83099 0.0
H323 H 0.48274 0.67885 0.66704 0.0
Tb324 Tb 0.04199 0.55712 0.59804 0.0
C325 C 0.99629 0.43274 0.78766 0.0
N326 N 0.9861 0.45063 0.72818 0.0
C327 C 0.96594 0.40719 0.66007 0.0
C328 C 0.99249 0.40119 0.78521 0.0
C329 C 0.97001 0.43844 0.66612 0.0
C330 C 0.97759 0.38841 0.7194 0.0
C331 C 0.01756 0.42942 0.92056 0.0
C332 C 1.0085 0.44652 0.85375 0.0
C333 C 0.01529 0.39781 0.91746 0.0
C334 C 1.00274 0.38369 0.84975 0.0
Tb335 Tb 0.99617 0.50129 0.73843 0.0
N336 N 0.0095 0.47699 0.85449 0.0
C337 C 0.02763 0.44469 0.98915 0.0
C338 C 0.01776 0.49204 0.92288 0.0
C339 C 0.02736 0.47617 0.99062 0.0
H340 H 0.96054 0.45276 0.62049 0.0
H341 H 0.03443 0.48824 0.04399 0.0
H342 H 1.00485 0.621 0.59278 0.0
H343 H 0.09375 0.49831 0.34589 0.0
H344 H 0.0175 0.51632 0.92512 0.0
H345 H 0.03481 0.43243 0.04187 0.0
H346 H 0.09113 0.51736 0.48505 0.0
H347 H 0.9537 0.39765 0.60991 0.0
H348 H 0.02234 0.38419 0.96787 0.0
H349 H 1.0003 0.35937 0.84888 0.0
H350 H 0.97244 0.64818 0.49654 0.0
H351 H 0.97419 0.36425 0.71504 0.0
H352 H 0.05532 0.51337 0.24697 0.0
N353 N 0.01439 0.58531 0.51123 0.0
C354 C 0.01209 0.57487 0.43498 0.0
C355 C 0.98329 0.62745 0.47862 0.0
C356 C 0.99403 0.5895 0.378 0.0
C357 C 1.00166 0.61212 0.53279 0.0
C358 C 0.97891 0.61572 0.40137 0.0
N359 N 0.04975 0.54053 0.46801 0.0
C360 C 0.07372 0.52354 0.44324 0.0
C361 C 0.03144 0.54179 0.33164 0.0
C362 C 0.03035 0.55132 0.41256 0.0
C363 C 0.05369 0.52132 0.3085 0.0
C364 C 0.07547 0.51286 0.36407 0.0
H365 H 0.96481 0.62768 0.35941 0.0
H366 H 0.9789 0.58901 0.25428 0.0
H367 H 0.01182 0.54716 0.21346 0.0
O368 O 0.07477 0.58415 0.53967 0.0
O369 O 0.99176 0.55726 0.59827 0.0
O370 O 0.98041 0.50773 0.61412 0.0
O371 O 0.06501 0.59031 0.66441 0.0
O372 O 0.05301 0.50816 0.58781 0.0
O373 O 1.00855 0.48415 0.61819 0.0
O374 O 0.96626 0.53696 0.75672 0.0
O375 O 0.04433 0.50144 0.77248 0.0
O376 O 0.07118 0.53336 0.68513 0.0
O377 O 0.95379 0.49167 0.79077 0.0
O378 O 0.01695 0.54182 0.79573 0.0
O379 O 0.01423 0.57631 0.69468 0.0
C380 C 0.97427 0.53394 0.58197 0.0
C381 C 0.11533 0.59299 0.62764 0.0
C382 C 0.15748 0.55861 0.64512 0.0
C383 C 0.17227 0.5807 0.69148 0.0
C384 C 0.13022 0.6147 0.67437 0.0
C385 C 0.15873 0.60864 0.70543 0.0
C386 C 0.12936 0.56544 0.61189 0.0
C387 C 0.03408 0.48537 0.57774 0.0
C388 C 0.08352 0.59666 0.60637 0.0
C389 C 0.99298 0.5784 0.29884 0.0
C390 C 0.01168 0.55452 0.27565 0.0
C391 C 0.06954 0.51479 0.74768 0.0
C392 C 0.91617 0.52362 0.73625 0.0
C393 C 0.87574 0.558 0.70004 0.0
C394 C 0.8647 0.53635 0.64558 0.0
C395 C 0.9047 0.50214 0.6822 0.0
C396 C 0.90157 0.55126 0.74493 0.0
C397 C 0.87903 0.50854 0.63728 0.0
C398 C 0.0171 0.57016 0.7715 0.0
C399 C 0.94454 0.51919 0.77979 0.0
H400 H 0.19394 0.57624 0.71815 0.0
H401 H 0.11946 0.6359 0.68861 0.0
H402 H 0.17008 0.62539 0.74199 0.0
H403 H 0.1178 0.54892 0.57521 0.0
H404 H 0.84484 0.54075 0.61021 0.0
H405 H 0.91577 0.48072 0.67367 0.0
H406 H 0.91017 0.56727 0.78866 0.0
H407 H 0.87032 0.49196 0.59544 0.0
H408 H 0.1628 1.0088 0.14504 0.0
H409 H 0.22313 0.06162 0.2906 0.0
H410 H 0.12218 0.01707 0.24234 0.0
H411 H 0.18256 0.07056 0.38778 0.0
H412 H 0.1201 0.0422 0.59798 0.0
H413 H 0.15725 0.04384 0.49003 0.0
H414 H 0.08592 0.04576 0.31512 0.0
H415 H 0.04856 0.0431 0.42407 0.0
C416 C 0.16702 0.02353 0.19586 0.0
C417 C 0.19627 0.03524 0.20814 0.0
C418 C 0.14366 0.02805 0.25275 0.0
C419 C 0.14872 0.04412 0.32499 0.0
C420 C 0.17751 0.05751 0.33442 0.0
C421 C 0.2008 0.05306 0.27731 0.0
C422 C 0.11214 0.04297 0.53665 0.0
C423 C 0.08097 0.04212 0.52087 0.0
C424 C 0.13369 0.0443 0.47396 0.0
C425 C 0.12512 0.04493 0.39228 0.0
C426 C 0.09384 0.04493 0.37649 0.0
C427 C 0.07221 0.04368 0.43949 0.0
H428 H 0.4431 0.19649 0.24219 0.0
H429 H 0.53727 0.21851 0.26291 0.0
H430 H 0.44999 0.15205 0.32631 0.0
H431 H 0.5445 0.17301 0.34574 0.0
H432 H 0.5422 0.07015 0.44545 0.0
H433 H 0.53928 0.11214 0.34905 0.0
H434 H 0.46267 0.14701 0.47836 0.0
H435 H 0.4661 0.10558 0.57525 0.0
C436 C 0.46565 0.19118 0.26181 0.0
C437 C 0.48969 0.21113 0.24346 0.0
C438 C 0.46951 0.1658 0.31154 0.0
C439 C 0.49774 0.15879 0.34437 0.0
C440 C 0.52238 0.17745 0.32176 0.0
C441 C 0.51835 0.20342 0.27298 0.0
C442 C 0.52468 0.08675 0.45325 0.0
C443 C 0.50434 0.08421 0.5186 0.0
C444 C 0.52314 0.11104 0.39809 0.0
C445 C 0.50063 0.13322 0.40492 0.0
C446 C 0.4802 0.13045 0.47009 0.0
C447 C 0.48222 0.10664 0.5262 0.0
H448 H 0.31023 0.53406 0.29618 0.0
H449 H 0.34802 0.4551 0.18597 0.0
H450 H 0.35494 0.54012 0.37849 0.0
H451 H 0.39377 0.46152 0.26589 0.0
H452 H 0.45617 0.45903 0.48915 0.0
H453 H 0.415 0.45532 0.39208 0.0
H454 H 0.40393 0.5519 0.40391 0.0
H455 H 0.44395 0.55515 0.50225 0.0
C456 C 0.32888 0.51888 0.28623 0.0
C457 C 0.32566 0.49475 0.2316 0.0
C458 C 0.35474 0.5221 0.33457 0.0
C459 C 0.37869 0.50125 0.33075 0.0
C460 C 0.37605 0.47793 0.27284 0.0
C461 C 0.34997 0.47463 0.22485 0.0
C462 C 0.44488 0.47945 0.47104 0.0
C463 C 0.45338 0.50733 0.50532 0.0
C464 C 0.4212 0.47743 0.41438 0.0
C465 C 0.40526 0.50327 0.38895 0.0
C466 C 0.41453 0.53116 0.42218 0.0
C467 C 0.43786 0.5331 0.47913 0.0
H468 H 0.07741 0.3213 0.30294 0.0
H469 H 0.00912 0.36409 0.16211 0.0
H470 H 0.08102 0.36615 0.38884 0.0
H471 H 0.01262 0.40904 0.24733 0.0
H472 H 0.99099 0.45829 0.48614 0.0
H473 H 0.99595 0.41969 0.38309 0.0
H474 H 0.0923 0.42044 0.41417 0.0
H475 H 0.08713 0.45953 0.51895 0.0
C476 C 0.06427 0.34091 0.2876 0.0
C477 C 0.04363 0.33918 0.22354 0.0
C478 C 0.06605 0.36666 0.33777 0.0
C479 C 0.04679 0.39145 0.32668 0.0
C480 C 0.02755 0.39044 0.25928 0.0
C481 C 0.02597 0.3648 0.20888 0.0
C482 C 0.01334 0.45042 0.4712 0.0
C483 C 0.03861 0.46232 0.5116 0.0
C484 C 0.01625 0.4283 0.41091 0.0
C485 C 0.04458 0.41668 0.38872 0.0
C486 C 0.07003 0.42856 0.42911 0.0
C487 C 0.06712 0.45117 0.48916 0.0
H488 H 0.86066 0.97896 0.231 0.0
H489 H 0.8067 0.02376 0.05444 0.0
H490 H 0.90523 0.98501 0.1439 0.0
H491 H 0.85078 0.02972 0.96722 0.0
H492 H 0.98486 0.01692 0.97703 0.0
H493 H 0.94322 0.01595 0.07465 0.0
H494 H 0.88085 0.99837 0.88204 0.0
H495 H 0.92231 0.99943 0.78511 0.0
C496 C 0.85851 0.99118 0.17504 0.0
C497 C 0.83003 1.00159 0.15115 0.0
C498 C 0.88409 0.9943 0.12415 0.0
C499 C 0.8819 1.00729 0.04673 0.0
C500 C 0.85364 0.01899 0.02505 0.0
C501 C 0.8283 0.01616 0.07608 0.0
C502 C 0.96224 0.01296 0.95534 0.0
C503 C 0.95723 1.0085 0.87234 0.0
C504 C 0.93822 0.01223 1.01175 0.0
C505 C 0.90816 1.00748 0.98718 0.0
C506 C 0.90333 1.00276 0.90411 0.0
C507 C 0.92733 1.00314 0.84803 0.0
H508 H 0.58883 0.86191 0.18205 0.0
H509 H 0.51108 0.81711 0.08366 0.0
H510 H 0.57963 0.90568 0.09695 0.0
H511 H 0.50168 0.86098 0.99791 0.0
H512 H 0.48286 0.95388 0.88177 0.0
H513 H 0.48805 0.91366 0.98104 0.0
H514 H 0.58465 0.91924 0.95598 0.0
H515 H 0.57912 0.95909 0.85493 0.0
C516 C 0.56891 0.86189 0.14478 0.0
C517 C 0.55022 0.83598 0.14232 0.0
C518 C 0.56401 0.88688 0.09414 0.0
C519 C 0.54012 0.8872 0.03864 0.0
C520 C 0.52025 0.86207 0.0397 0.0
C521 C 0.52534 0.83688 0.09012 0.0
C522 C 0.50528 0.94665 0.89758 0.0
C523 C 0.53062 0.96027 0.86052 0.0
C524 C 0.50827 0.92333 0.95474 0.0
C525 C 0.53681 0.91284 0.97815 0.0
C526 C 0.56222 0.92678 0.94155 0.0
C527 C 0.55914 0.94991 0.88362 0.0
H528 H 0.68531 0.57601 0.1713 0.0
H529 H 0.73635 0.51328 0.02902 0.0
H530 H 0.64099 0.56645 0.08807 0.0
H531 H 0.69257 0.50405 0.94405 0.0
H532 H 0.60437 0.48043 0.81957 0.0
H533 H 0.64462 0.48479 0.91761 0.0
H534 H 0.62028 0.57742 0.96181 0.0
H535 H 0.57948 0.57264 0.86453 0.0
C536 C 0.68673 0.55917 0.12417 0.0
C537 C 0.71431 0.54456 0.1094 0.0
C538 C 0.66139 0.55419 0.07467 0.0
C539 C 0.66267 0.53463 1.00747 0.0
C540 C 0.68998 0.51897 0.99515 0.0
C541 C 0.71527 0.52396 0.04481 0.0
C542 C 0.6075 0.50184 0.84997 0.0
C543 C 0.58841 0.52626 0.83266 0.0
C544 C 0.63093 0.5044 0.90661 0.0
C545 C 0.63643 0.53154 0.94883 0.0
C546 C 0.61697 0.55589 0.93234 0.0
C547 C 0.59342 0.55325 0.87564 0.0
H548 H 0.99973 0.74825 0.99893 0.0
H549 H 1.0056 0.69004 0.2047 0.0
H550 H 1.00771 0.70604 0.90986 0.0
H551 H 0.01582 0.64711 0.1154 0.0
H552 H 1.00113 0.5691 0.93343 0.0
H553 H 0.99886 0.61099 0.02867 0.0
H554 H 0.0326 0.67098 0.84361 0.0
H555 H 0.03248 0.62968 0.74837 0.0
C556 C 1.00401 0.72642 0.02544 0.0
C557 C 1.00242 0.72296 0.10961 0.0
C558 C 1.00869 0.70174 0.97373 0.0
C559 C 0.01253 0.67219 1.00343 0.0
C560 C 0.01249 0.66898 0.08845 0.0
C561 C 1.0073 0.69388 0.14052 0.0
C562 C 1.00809 0.59127 0.91315 0.0
C563 C 0.01694 0.59565 0.83232 0.0
C564 C 1.00698 0.6156 0.96844 0.0
C565 C 0.01524 0.64531 0.94564 0.0
C566 C 0.025 0.6492 0.86499 0.0
C567 C 0.02535 0.6251 0.80954 0.0
H568 H 0.9992 0.20638 0.26127 0.0
H569 H 0.95508 0.29003 0.32258 0.0
H570 H 0.96969 0.18037 0.36302 0.0
H571 H 0.92625 0.26379 0.42766 0.0
H572 H 0.93352 0.20603 0.67514 0.0
H573 H 0.9451 0.23784 0.55907 0.0
H574 H 0.91498 0.16687 0.39989 0.0
H575 H 0.90297 0.13522 0.51572 0.0
C576 C 0.98271 0.21913 0.2951 0.0
C577 C 0.97947 0.2503 0.28357 0.0
C578 C 0.96582 0.20419 0.35352 0.0
C579 C 0.94559 0.22012 0.40248 0.0
C580 C 0.94175 0.25112 0.39036 0.0
C581 C 0.95839 0.26608 0.3308 0.0
C582 C 0.92833 0.19769 0.61549 0.0
C583 C 0.91794 0.16803 0.60407 0.0
C584 C 0.93491 0.21588 0.54919 0.0
C585 C 0.93125 0.20452 0.47094 0.0
C586 C 0.91828 0.17591 0.45983 0.0
C587 C 0.91157 0.15783 0.52592 0.0
H588 H 0.24553 0.96526 0.34023 0.0
H589 H 0.29143 0.92847 0.13191 0.0
H590 H 0.27332 0.93218 0.42612 0.0
H591 H 0.3223 0.89853 0.21947 0.0
H592 H 0.38863 0.86027 0.37582 0.0
H593 H 0.33913 0.86492 0.31472 0.0
H594 H 0.32125 0.94209 0.46729 0.0
H595 H 0.36931 0.93588 0.53117 0.0
C596 C 0.26101 0.94977 0.31183 0.0
C597 C 0.26709 0.9508 0.22857 0.0
C598 C 0.27747 0.93103 0.36193 0.0
C599 C 0.30135 0.91393 0.33069 0.0
C600 C 0.30456 0.91176 0.24658 0.0
C601 C 0.28723 0.92963 0.19604 0.0
C602 C 0.37351 0.87744 0.3982 0.0
C603 C 0.38309 0.89834 0.45644 0.0
C604 C 0.34524 0.88033 0.3626 0.0
C605 C 0.32634 0.90442 0.38398 0.0
C606 C 0.33484 0.92315 0.44865 0.0
C607 C 0.36278 0.91998 0.48473 0.0
H608 H 0.45932 0.34911 0.28682 0.0
H609 H 0.4158 0.26834 0.37796 0.0
H610 H 0.45398 0.37247 0.41637 0.0
H611 H 0.41341 0.29125 0.51133 0.0
H612 H 0.5133 0.31931 0.6342 0.0
H613 H 0.47029 0.29848 0.56471 0.0
H614 H 0.4293 0.38628 0.55932 0.0
H615 H 0.47169 0.407 0.63436 0.0
C616 C 0.44739 0.33659 0.33299 0.0
C617 C 0.43965 0.30603 0.32248 0.0
C618 C 0.44423 0.35021 0.40811 0.0
C619 C 0.43423 0.33326 0.47458 0.0
C620 C 0.42167 0.30461 0.46124 0.0
C621 C 0.42373 0.29133 0.38506 0.0
C622 C 0.49432 0.33389 0.62339 0.0
C623 C 0.49668 0.36515 0.6352 0.0
C624 C 0.4694 0.32185 0.58361 0.0
C625 C 0.44713 0.3411 0.55367 0.0
C626 C 0.44651 0.3711 0.58044 0.0
C627 C 0.47107 0.383 0.6222 0.0
H628 H 0.26496 0.43073 0.39537 0.0
H629 H 0.18757 0.47043 0.28039 0.0
H630 H 0.24167 0.44005 0.52626 0.0
H631 H 0.16365 0.47628 0.4091 0.0
H632 H 0.12909 0.50337 0.63445 0.0
H633 H 0.14811 0.45979 0.56137 0.0
H634 H 0.23609 0.50152 0.54935 0.0
H635 H 0.21688 0.54586 0.61742 0.0
C636 C 0.24263 0.44029 0.39717 0.0
C637 C 0.22921 0.45171 0.32692 0.0
C638 C 0.22912 0.44498 0.4723 0.0
C639 C 0.2013 0.45954 0.47747 0.0
C640 C 0.18527 0.46512 0.40673 0.0
C641 C 0.19922 0.46166 0.33211 0.0
C642 C 0.15269 0.50303 0.61786 0.0
C643 C 0.17114 0.52877 0.62816 0.0
C644 C 0.16362 0.47776 0.57745 0.0
C645 C 0.19338 0.47753 0.54907 0.0
C646 C 0.21303 0.50109 0.5711 0.0
C647 C 0.20194 0.52668 0.60979 0.0
H648 H 0.89777 0.81559 0.22639 0.0
H649 H 0.93745 0.78445 1.00387 0.0
H650 H 0.87588 0.85785 0.15562 0.0
H651 H 0.9163 0.82569 0.9342 0.0
H652 H 0.94865 0.90564 0.86549 0.0
H653 H 0.90831 0.87026 0.88547 0.0
H654 H 0.89784 0.90141 0.1304 0.0
H655 H 0.93489 0.93996 0.10639 0.0
C656 C 0.90117 0.81728 0.16197 0.0
C657 C 0.92138 0.798 0.12212 0.0
C658 C 0.88878 0.84174 0.12111 0.0
C659 C 0.89737 0.84769 0.04076 0.0
C660 C 0.91078 0.82384 0.99734 0.0
C661 C 0.92307 0.79946 0.03786 0.0
C662 C 0.93721 0.90604 0.923 0.0
C663 C 0.94767 0.92377 0.98766 0.0
C664 C 0.91404 0.88502 0.93501 0.0
C665 C 0.90287 0.87959 1.01323 0.0
C666 C 0.90772 0.90248 0.07093 0.0
C667 C 0.92978 0.92456 0.05777 0.0
H668 H 0.72044 0.90677 0.19501 0.0
H669 H 0.75164 0.96923 1.01376 0.0
H670 H 0.67248 0.90198 0.1259 0.0
H671 H 0.7042 0.96624 0.94812 0.0
H672 H 0.61905 1.00016 0.90758 0.0
H673 H 0.65808 0.96298 0.90152 0.0
H674 H 0.63565 0.9354 0.14454 0.0
H675 H 0.59351 0.96896 0.14491 0.0
C676 C 0.71748 0.9185 0.13856 0.0
C677 C 0.73902 0.9397 0.11224 0.0
C678 C 0.68977 0.91623 0.09948 0.0
C679 C 0.68313 0.93592 0.03565 0.0
C680 C 0.70737 0.95155 0.99906 0.0
C681 C 0.73516 0.95329 0.03699 0.0
C682 C 0.62148 0.98535 0.95868 0.0
C683 C 0.60367 0.98872 0.02845 0.0
C684 C 0.64447 0.96412 0.95563 0.0
C685 C 0.65179 0.94728 0.02433 0.0
C686 C 0.6317 0.94817 0.09039 0.0
C687 C 0.60773 0.9683 0.09181 0.0
H688 H 0.64124 0.72101 0.13812 0.0
H689 H 0.59906 0.78277 0.97283 0.0
H690 H 0.652 0.68732 0.02572 0.0
H691 H 0.61086 0.75046 0.86349 0.0
H692 H 0.58678 0.68628 0.69955 0.0
H693 H 0.62708 0.71293 0.76997 0.0
H694 H 0.60691 0.66156 0.98451 0.0
H695 H 0.5668 0.63649 0.91743 0.0
C696 C 0.63514 0.72803 0.07813 0.0
C697 C 0.61732 0.75372 0.06614 0.0
C698 C 0.64182 0.70892 1.01341 0.0
C699 C 0.63052 0.71526 0.93638 0.0
C700 C 0.61916 0.74418 0.92215 0.0
C701 C 0.61216 0.76301 0.9864 0.0
C702 C 0.59136 0.68034 0.76138 0.0
C703 C 0.57235 0.66024 0.8035 0.0
C704 C 0.61485 0.69523 0.80128 0.0
C705 C 0.61946 0.69038 0.88396 0.0
C706 C 0.60401 0.66638 0.92122 0.0
C707 C 0.58046 0.65187 0.88206 0.0
H708 H 0.75436 0.63714 1.00889 0.0
H709 H 0.84175 0.60562 0.08415 0.0
H710 H 0.7755 0.64908 0.87691 0.0
H711 H 0.86276 0.62015 0.95711 0.0
H712 H 0.89752 0.61492 0.73336 0.0
H713 H 0.8727 0.64983 0.82541 0.0
H714 H 0.78986 0.59924 0.80138 0.0
H715 H 0.81469 0.5638 0.7133 0.0
C716 C 0.77822 0.63383 0.99901 0.0
C717 C 0.79575 0.61832 0.05582 0.0
C718 C 0.79038 0.64132 0.92375 0.0
C719 C 0.8205 0.6346 0.90587 0.0
C720 C 0.83932 0.62535 0.96858 0.0
C721 C 0.82703 0.61686 0.04247 0.0
C722 C 0.87367 0.61194 0.74538 0.0
C723 C 0.8585 0.58563 0.72004 0.0
C724 C 0.8594 0.63224 0.79715 0.0
C725 C 0.82972 0.62658 0.82285 0.0
C726 C 0.8129 0.60403 0.78349 0.0
C727 C 0.82728 0.58346 0.73292 0.0
H728 H 0.99272 0.25271 0.97169 0.0
H729 H 0.07915 0.23157 0.07087 0.0
H730 H 0.99535 0.2086 0.88458 0.0
H731 H 0.08269 0.18777 0.98155 0.0
H732 H 0.06172 0.09061 0.90123 0.0
H733 H 0.06435 0.13903 0.96895 0.0
H734 H 0.01202 0.17866 0.77901 0.0
H735 H 1.00832 0.12946 0.71327 0.0
C736 C 0.0131 0.23947 0.97188 0.0
C737 C 0.03606 0.24645 0.02734 0.0
C738 C 0.01456 0.21371 0.92205 0.0
C739 C 0.03905 0.19365 0.92563 0.0
C740 C 0.063 0.20186 0.97736 0.0
C741 C 0.06143 0.22764 0.02755 0.0
C742 C 0.05069 0.10951 0.8736 0.0
C743 C 0.03472 0.10553 0.80127 0.0
C744 C 0.05253 0.13778 0.91234 0.0
C745 C 0.03854 0.16359 0.88044 0.0
C746 C 0.02294 0.15971 0.80704 0.0
C747 C 0.02107 0.13128 0.76833 0.0
H748 H 0.27979 0.9883 0.93805 0.0
H749 H 0.30903 0.06412 0.07989 0.0
H750 H 0.32427 0.99317 0.85255 0.0
H751 H 0.35342 0.06999 0.99263 0.0
H752 H 0.44797 0.04827 0.89504 0.0
H753 H 0.40022 0.04954 0.966 0.0
H754 H 0.35557 0.01453 0.75529 0.0
H755 H 0.40407 0.01247 0.68449 0.0
C756 C 0.29516 1.00693 0.94899 0.0
C757 C 0.29015 0.02618 0.01545 0.0
C758 C 0.32107 1.00968 0.89975 0.0
C759 C 0.34339 0.03179 0.91483 0.0
C760 C 0.3375 0.05216 0.9789 0.0
C761 C 0.31148 0.04932 0.02842 0.0
C762 C 0.42808 0.04091 0.86296 0.0
C763 C 0.43052 0.0301 0.7831 0.0
C764 C 0.40022 0.04191 0.90415 0.0
C765 C 0.37319 0.03225 0.86767 0.0
C766 C 0.37551 0.02186 0.78709 0.0
C767 C 0.40356 0.02081 0.74573 0.0
H768 H 0.44688 0.3018 0.99572 0.0
H769 H 0.53349 0.32006 0.09964 0.0
H770 H 0.4546 0.34292 0.89994 0.0
H771 H 0.54118 0.36192 1.00588 0.0
H772 H 0.55582 0.42887 0.79905 0.0
H773 H 0.55051 0.38355 0.88079 0.0
H774 H 0.45408 0.39495 0.88465 0.0
H775 H 0.45955 0.4397 0.80028 0.0
C776 C 0.46812 0.31397 0.9964 0.0
C777 C 0.48997 0.30657 0.05417 0.0
C778 C 0.47234 0.33827 0.94231 0.0
C779 C 0.49846 0.35673 0.94427 0.0
C780 C 0.52084 0.34851 1.00035 0.0
C781 C 0.51662 0.32406 0.05426 0.0
C782 C 0.53338 0.42167 0.81674 0.0
C783 C 0.50816 0.43837 0.79202 0.0
C784 C 0.5303 0.39553 0.86488 0.0
C785 C 0.50179 0.38475 0.89073 0.0
C786 C 0.47652 0.40158 0.86577 0.0
C787 C 0.47965 0.42775 0.81758 0.0
H788 H 0.22692 0.53562 0.06999 0.0
H789 H 0.22633 0.44143 1.00806 0.0
H790 H 0.18466 0.54398 0.97901 0.0
H791 H 0.18473 0.44955 0.91556 0.0
H792 H 0.08715 0.46436 0.83313 0.0
H793 H 0.13273 0.45733 0.9126 0.0
H794 H 0.16193 0.54766 0.85288 0.0
H795 H 0.1156 0.55486 0.77728 0.0
C796 C 0.21866 0.51689 0.03429 0.0
C797 C 0.2308 0.48796 0.04546 0.0
C798 C 0.19399 0.52157 0.98222 0.0
C799 C 0.18035 0.49743 0.93952 0.0
C800 C 0.19367 0.4688 0.94791 0.0
C801 C 0.21818 0.46417 1.00001 0.0
C802 C 0.10338 0.48267 0.83655 0.0
C803 C 0.09791 0.5099 0.79588 0.0
C804 C 0.1299 0.47859 0.88192 0.0
C805 C 0.15195 0.5017 0.8893 0.0
C806 C 0.14601 0.52912 0.84958 0.0
C807 C 0.11951 0.53313 0.80438 0.0
H808 H 0.97064 0.7973 0.41276 0.0
H809 H 0.03409 0.83339 0.24096 0.0
H810 H 0.97932 0.84052 0.50102 0.0
H811 H 0.04285 0.87712 0.32909 0.0
H812 H 0.06364 0.94623 0.53545 0.0
H813 H 0.06122 0.89992 0.45457 0.0
H814 H 0.96605 0.89264 0.50487 0.0
H815 H 0.96867 0.93829 0.58631 0.0
C816 C 0.9874 0.81393 0.39514 0.0
C817 C 1.00227 0.81111 0.32031 0.0
C818 C 0.99195 0.83926 0.44521 0.0
C819 C 0.01149 0.86307 0.42256 0.0
C820 C 0.02774 0.85945 0.34967 0.0
C821 C 0.02303 0.83404 0.29918 0.0
C822 C 0.04218 0.93472 0.52951 0.0
C823 C 0.01632 0.94651 0.56774 0.0
C824 C 0.04074 0.90808 0.48241 0.0
C825 C 0.01345 0.8919 0.47263 0.0
C826 C 0.98767 0.90379 0.51117 0.0
C827 C 0.98907 0.93049 0.55745 0.0
H828 H 0.72058 0.03939 0.27874 0.0
H829 H 0.74689 0.96724 0.43482 0.0
H830 H 0.67638 0.04872 0.3639 0.0
H831 H 0.70271 0.97612 0.51996 0.0
H832 H 0.62454 1.00658 0.68419 0.0
H833 H 0.6731 1.005 0.6132 0.0
H834 H 0.62852 0.02619 0.39082 0.0
H835 H 0.58041 0.02824 0.46207 0.0
C836 C 0.71772 0.02638 0.33335 0.0
C837 C 0.73823 1.00326 0.35099 0.0
C838 C 0.6918 0.03122 0.38158 0.0
C839 C 0.6852 0.01302 0.4494 0.0
C840 C 0.70669 0.99099 0.4694 0.0
C841 C 0.73246 0.98605 0.42081 0.0
C842 C 0.62514 1.01141 0.62039 0.0
C843 C 0.59822 0.01797 0.57964 0.0
C844 C 0.65314 1.01019 0.57911 0.0
C845 C 0.65539 0.01562 0.49538 0.0
C846 C 0.62837 0.0224 0.45512 0.0
C847 C 0.60046 0.02339 0.49622 0.0
H848 H 0.51019 0.72472 0.26417 0.0
H849 H 0.59742 0.73731 0.37038 0.0
H850 H 0.50161 0.68016 0.34923 0.0
H851 H 0.58897 0.69349 0.45618 0.0
H852 H 0.58228 0.59444 0.53468 0.0
H853 H 0.58821 0.64077 0.45695 0.0
H854 H 0.49257 0.65602 0.4747 0.0
H855 H 0.48666 0.60908 0.54974 0.0
C856 C 0.52713 0.71872 0.30771 0.0
C857 C 0.55429 0.73537 0.31096 0.0
C858 C 0.52237 0.69277 0.35651 0.0
C859 C 0.54471 0.68226 0.41008 0.0
C860 C 0.57129 0.69984 0.41524 0.0
C861 C 0.57598 0.7256 0.36672 0.0
C862 C 0.56241 0.6074 0.52147 0.0
C863 C 0.53393 0.59724 0.54853 0.0
C864 C 0.56583 0.63453 0.47729 0.0
C865 C 0.54092 0.65295 0.45835 0.0
C866 C 0.51245 0.64279 0.48608 0.0
C867 C 0.50907 0.61566 0.53016 0.0
H868 H 0.79973 0.5887 0.37482 0.0
H869 H 0.82801 0.5157 0.22221 0.0
H870 H 0.84336 0.58101 0.46101 0.0
H871 H 0.87244 0.50848 0.30597 0.0
H872 H 0.94345 0.48981 0.49913 0.0
H873 H 0.89718 0.4937 0.42189 0.0
H874 H 0.89481 0.58927 0.47139 0.0
H875 H 0.94054 0.58486 0.55106 0.0
C876 C 0.81485 0.57034 0.36097 0.0
C877 C 0.80957 0.55222 0.29262 0.0
C878 C 0.84048 0.56631 0.40957 0.0
C879 C 0.86238 0.54434 0.39099 0.0
C880 C 0.85639 0.52546 0.32404 0.0
C881 C 0.83056 0.52937 0.27583 0.0
C882 C 0.93316 0.51173 0.49334 0.0
C883 C 0.94626 0.53706 0.53129 0.0
C884 C 0.90644 0.51405 0.44816 0.0
C885 C 0.89147 0.54184 0.43926 0.0
C886 C 0.90485 0.56725 0.47696 0.0
C887 C 0.93163 0.56488 0.52203 0.0
loop_
_geom_bond_atom_site_label_1
_geom_bond_atom_site_label_2
_geom_bond_distance
_geom_bond_site_symmetry_2
_ccdc_geom_bond_type
H0 C3 0.931 . S
H1 C6 0.928 . S
H2 C8 0.930 . S
C3 H0 0.931 . S
C3 C4 1.413 . S
C3 C5 1.360 . S
C4 C3 1.413 . S
C4 C8 1.429 . S
C5 C3 1.360 . S
C5 C6 1.372 . S
C6 H1 0.928 . S
C6 C5 1.372 . S
C6 C7 1.404 . S
C7 C6 1.404 . S
C7 C8 1.391 . S
C8 H2 0.930 . S
C8 C4 1.429 . S
C8 C7 1.391 . S
H9 C12 0.931 . S
H10 C15 0.928 . S
H11 C17 0.930 . S
C12 H9 0.931 . S
C12 C13 1.413 . S
C12 C14 1.360 . S
C13 C12 1.413 . S
C13 C17 1.429 . S
C14 C12 1.360 . S
C14 C15 1.372 . S
C15 H10 0.928 . S
C15 C14 1.372 . S
C15 C16 1.404 . S
C16 C15 1.404 . S
C16 C17 1.391 . S
C17 H11 0.930 . S
C17 C13 1.429 . S
C17 C16 1.391 . S
H18 C21 0.931 . S
H19 C24 0.928 . S
H20 C26 0.930 . S
C21 H18 0.931 . S
C21 C22 1.413 . S
C21 C23 1.360 . S
C22 C21 1.413 . S
C22 C26 1.429 . S
C23 C21 1.360 . S
C23 C24 1.372 . S
C24 H19 0.928 . S
C24 C23 1.372 . S
C24 C25 1.404 . S
C25 C24 1.404 . S
C25 C26 1.391 . S
C26 H20 0.930 . S
C26 C22 1.429 . S
C26 C25 1.391 . S
H27 C30 0.931 . S
H28 C33 0.928 . S
H29 C35 0.930 . S
C30 H27 0.931 . S
C30 C31 1.413 . S
C30 C32 1.360 . S
C31 C30 1.413 . S
C31 C35 1.429 . S
C32 C30 1.360 . S
C32 C33 1.372 . S
C33 H28 0.928 . S
C33 C32 1.372 . S
C33 C34 1.404 . S
C34 C33 1.404 . S
C34 C35 1.391 . S
C35 H29 0.930 . S
C35 C31 1.429 . S
C35 C34 1.391 . S
H36 C39 0.931 . S
H37 C42 0.928 . S
H38 C44 0.930 . S
C39 H36 0.931 . S
C39 C40 1.413 1_554 S
C39 C41 1.360 . S
C40 C39 1.413 1_556 S
C40 C44 1.429 . S
C41 C39 1.360 . S
C41 C42 1.372 . S
C42 H37 0.928 . S
C42 C41 1.372 . S
C42 C43 1.404 . S
C43 C42 1.404 . S
C43 C44 1.391 1_554 S
C44 H38 0.930 . S
C44 C40 1.429 . S
C44 C43 1.391 1_556 S
H45 C48 0.931 . S
H46 C51 0.928 . S
H47 C53 0.930 . S
C48 H45 0.931 . S
C48 C49 1.413 1_554 S
C48 C50 1.360 . S
C49 C48 1.413 1_556 S
C49 C53 1.429 . S
C50 C48 1.360 . S
C50 C51 1.372 . S
C51 H46 0.928 . S
C51 C50 1.372 . S
C51 C52 1.404 . S
C52 C51 1.404 . S
C52 C53 1.391 1_554 S
C53 H47 0.930 . S
C53 C49 1.429 . S
C53 C52 1.391 1_556 S
H54 C57 0.931 . S
H55 C60 0.928 . S
H56 C62 0.930 . S
C57 H54 0.931 . S
C57 C58 1.413 1_554 S
C57 C59 1.360 . S
C58 C57 1.413 1_556 S
C58 C62 1.429 . S
C59 C57 1.360 . S
C59 C60 1.372 . S
C60 H55 0.928 . S
C60 C59 1.372 . S
C60 C61 1.404 . S
C61 C60 1.404 . S
C61 C62 1.391 1_554 S
C62 H56 0.930 . S
C62 C58 1.429 . S
C62 C61 1.391 1_556 S
H63 C66 0.931 . S
H64 C69 0.928 . S
H65 C71 0.930 . S
C66 H63 0.931 . S
C66 C67 1.413 . S
C66 C68 1.360 1_554 S
C67 C66 1.413 . S
C67 C71 1.429 . S
C68 C66 1.360 1_556 S
C68 C69 1.372 . S
C69 H64 0.928 . S
C69 C68 1.372 . S
C69 C70 1.404 1_556 S
C70 C69 1.404 1_554 S
C70 C71 1.391 . S
C71 H65 0.930 . S
C71 C67 1.429 . S
C71 C70 1.391 . S
Tb72 N101 2.617 . S
Tb72 N107 2.572 . S
Tb72 O116 2.465 . S
Tb72 O117 2.387 1_545 S
Tb72 O119 2.428 . S
Tb72 O120 2.308 1_655 S
Tb72 O124 2.349 1_655 S
Tb72 O127 2.393 . S
Tb72 C136 2.802 . S
C73 N74 1.379 . S
C73 C76 1.416 . S
C73 C80 1.424 . S
N74 C73 1.379 . S
N74 C77 1.334 1_545 S
N74 Tb83 2.617 1_545 S
C75 C77 1.390 1_545 S
C75 C78 1.339 . S
C75 H95 0.930 . S
C76 C73 1.416 . S
C76 C78 1.416 . S
C76 C82 1.448 . S
C77 N74 1.334 1_565 S
C77 C75 1.390 1_565 S
C77 H88 0.930 . S
C78 C75 1.339 . S
C78 C76 1.416 . S
C78 H99 0.930 . S
C79 C80 1.413 . S
C79 C81 1.427 1_556 S
C79 C85 1.416 1_556 S
C80 C73 1.424 . S
C80 C79 1.413 . S
C80 N84 1.361 . S
C81 C79 1.427 1_554 S
C81 C82 1.328 1_554 S
C81 H96 0.929 . S
C82 C76 1.448 . S
C82 C81 1.328 1_556 S
C82 H97 0.930 . S
Tb83 N74 2.617 1_565 S
Tb83 N84 2.572 1_565 S
Tb83 O118 2.349 . S
Tb83 O121 2.393 . S
Tb83 O122 2.465 . S
Tb83 O123 2.387 1_565 S
Tb83 O125 2.428 . S
Tb83 O126 2.305 1_465 S
Tb83 C147 2.802 . S
N84 C80 1.361 . S
N84 Tb83 2.572 1_545 S
N84 C86 1.340 . S
C85 C79 1.416 1_554 S
C85 C87 1.332 . S
C85 H93 0.931 . S
C86 N84 1.340 . S
C86 C87 1.407 1_556 S
C86 H92 0.930 . S
C87 C85 1.332 . S
C87 C86 1.407 1_554 S
C87 H89 0.929 . S
H88 C77 0.930 . S
H89 C87 0.929 . S
H90 C105 0.930 . S
H91 C112 0.929 1_455 S
H92 C86 0.930 . S
H93 C85 0.931 . S
H94 C108 0.930 1_455 S
H95 C75 0.930 . S
H96 C81 0.929 . S
H97 C82 0.930 . S
H98 C103 0.930 . S
H99 C78 0.930 . S
H100 C111 0.931 . S
N101 Tb72 2.617 . S
N101 C102 1.372 1_545 S
N101 C105 1.334 . S
C102 N101 1.372 1_565 S
C102 C104 1.421 . S
C102 C110 1.425 . S
C103 H98 0.930 . S
C103 C105 1.390 . S
C103 C106 1.339 1_545 S
C104 C102 1.421 . S
C104 C106 1.416 . S
C104 C137 1.448 . S
C105 H90 0.930 . S
C105 N101 1.334 . S
C105 C103 1.390 . S
C106 C103 1.339 1_565 S
C106 C104 1.416 . S
C106 H113 0.930 . S
N107 Tb72 2.572 . S
N107 C108 1.340 . S
N107 C110 1.361 1_545 S
C108 H94 0.930 1_655 S
C108 N107 1.340 . S
C108 C112 1.407 1_545 S
C109 C110 1.413 . S
C109 C111 1.416 . S
C109 C138 1.427 . S
C110 C102 1.425 . S
C110 N107 1.361 1_565 S
C110 C109 1.413 . S
C111 H100 0.931 . S
C111 C109 1.416 . S
C111 C112 1.332 . S
C112 H91 0.929 1_655 S
C112 C108 1.407 1_565 S
C112 C111 1.332 . S
H113 C106 0.930 . S
H114 C137 0.930 . S
H115 C138 0.929 . S
O116 Tb72 2.465 . S
O116 C136 1.264 . S
O117 Tb72 2.387 1_565 S
O117 C128 1.264 . S
O118 Tb83 2.349 . S
O118 C128 1.243 1_455 S
O119 Tb72 2.428 . S
O119 C136 1.256 . S
O120 Tb72 2.308 1_455 S
O120 C135 1.266 . S
O121 Tb83 2.393 . S
O121 C135 1.248 1_565 S
O122 Tb83 2.465 . S
O122 C147 1.264 . S
O123 Tb83 2.387 1_545 S
O123 C139 1.264 . S
O124 Tb72 2.349 1_455 S
O124 C139 1.243 . S
O125 Tb83 2.428 . S
O125 C147 1.256 . S
O126 Tb83 2.305 1_645 S
O126 C146 1.269 . S
O127 Tb72 2.393 . S
O127 C146 1.248 . S
C128 O117 1.264 . S
C128 O118 1.243 1_655 S
C129 C132 1.399 . S
C129 C134 1.383 . S
C129 C136 1.496 . S
C130 C131 1.399 . S
C130 C134 1.389 . S
C131 C130 1.399 . S
C131 C133 1.380 . S
C131 H148 0.929 . S
C132 C129 1.399 . S
C132 C133 1.392 . S
C132 H149 0.929 . S
C133 C131 1.380 . S
C133 C132 1.392 . S
C133 H150 0.929 . S
C134 C129 1.383 . S
C134 C130 1.389 . S
C134 H151 0.931 1_655 S
C135 O120 1.266 . S
C135 O121 1.248 1_545 S
C136 Tb72 2.802 . S
C136 O116 1.264 . S
C136 O119 1.256 . S
C136 C129 1.496 . S
C137 C104 1.448 . S
C137 H114 0.930 . S
C137 C138 1.328 . S
C138 C109 1.427 . S
C138 H115 0.929 . S
C138 C137 1.328 . S
C139 O123 1.264 . S
C139 O124 1.243 . S
C140 C143 1.399 . S
C140 C144 1.383 . S
C140 C147 1.496 . S
C141 C142 1.399 . S
C141 C144 1.389 . S
C142 C141 1.399 . S
C142 C145 1.380 . S
C142 H152 0.929 . S
C143 C140 1.399 . S
C143 C145 1.392 . S
C143 H153 0.929 . S
C144 C140 1.383 . S
C144 C141 1.389 . S
C144 H154 0.931 . S
C145 C142 1.380 . S
C145 C143 1.392 . S
C145 H155 0.929 . S
C146 O126 1.269 . S
C146 O127 1.248 . S
C147 Tb83 2.802 . S
C147 O122 1.264 . S
C147 O125 1.256 . S
C147 C140 1.496 . S
H148 C131 0.929 . S
H149 C132 0.929 . S
H150 C133 0.929 . S
H151 C134 0.931 1_455 S
H152 C142 0.929 . S
H153 C143 0.929 . S
H154 C144 0.931 . S
H155 C145 0.929 . S
Tb156 N185 2.617 . S
Tb156 N191 2.572 . S
Tb156 O200 2.465 . S
Tb156 O201 2.387 . S
Tb156 O203 2.428 . S
Tb156 O204 2.308 . S
Tb156 O208 2.349 1_545 S
Tb156 O211 2.393 . S
Tb156 C220 2.802 . S
C157 N158 1.379 . S
C157 C160 1.416 . S
C157 C164 1.424 . S
N158 C157 1.379 . S
N158 C161 1.334 . S
N158 Tb167 2.617 . S
C159 C161 1.390 . S
C159 C162 1.339 . S
C159 H179 0.930 . S
C160 C157 1.416 . S
C160 C162 1.416 . S
C160 C166 1.448 . S
C161 N158 1.334 . S
C161 C159 1.390 . S
C161 H172 0.930 . S
C162 C159 1.339 . S
C162 C160 1.416 . S
C162 H183 0.930 . S
C163 C164 1.413 . S
C163 C165 1.427 . S
C163 C169 1.416 . S
C164 C157 1.424 . S
C164 C163 1.413 . S
C164 N168 1.361 . S
C165 C163 1.427 . S
C165 C166 1.328 . S
C165 H180 0.929 . S
C166 C160 1.448 . S
C166 C165 1.328 . S
C166 H181 0.930 . S
Tb167 N158 2.617 . S
Tb167 N168 2.572 . S
Tb167 O202 2.349 1_565 S
Tb167 O205 2.393 . S
Tb167 O206 2.465 . S
Tb167 O207 2.387 . S
Tb167 O209 2.428 . S
Tb167 O210 2.308 1_565 S
Tb167 C231 2.802 . S
N168 C164 1.361 . S
N168 Tb167 2.572 . S
N168 C170 1.340 . S
C169 C163 1.416 . S
C169 C171 1.332 . S
C169 H177 0.931 . S
C170 N168 1.340 . S
C170 C171 1.407 . S
C170 H176 0.930 . S
C171 C169 1.332 . S
C171 C170 1.407 . S
C171 H173 0.929 . S
H172 C161 0.930 . S
H173 C171 0.929 . S
H174 C189 0.930 . S
H175 C196 0.929 . S
H176 C170 0.930 . S
H177 C169 0.931 . S
H178 C192 0.930 . S
H179 C159 0.930 . S
H180 C165 0.929 . S
H181 C166 0.930 . S
H182 C187 0.930 . S
H183 C162 0.930 . S
H184 C195 0.931 . S
N185 Tb156 2.617 . S
N185 C186 1.379 . S
N185 C189 1.334 . S
C186 N185 1.379 . S
C186 C188 1.416 . S
C186 C194 1.424 . S
C187 H182 0.930 . S
C187 C189 1.390 . S
C187 C190 1.339 . S
C188 C186 1.416 . S
C188 C190 1.416 . S
C188 C221 1.448 . S
C189 H174 0.930 . S
C189 N185 1.334 . S
C189 C187 1.390 . S
C190 C187 1.339 . S
C190 C188 1.416 . S
C190 H197 0.930 . S
N191 Tb156 2.572 . S
N191 C192 1.340 . S
N191 C194 1.361 . S
C192 H178 0.930 . S
C192 N191 1.340 . S
C192 C196 1.407 . S
C193 C194 1.413 . S
C193 C195 1.416 . S
C193 C222 1.427 . S
C194 C186 1.424 . S
C194 N191 1.361 . S
C194 C193 1.413 . S
C195 H184 0.931 . S
C195 C193 1.416 . S
C195 C196 1.332 . S
C196 H175 0.929 . S
C196 C192 1.407 . S
C196 C195 1.332 . S
H197 C190 0.930 . S
H198 C221 0.930 . S
H199 C222 0.929 . S
O200 Tb156 2.465 . S
O200 C220 1.264 . S
O201 Tb156 2.387 . S
O201 C212 1.264 . S
O202 Tb167 2.349 1_545 S
O202 C212 1.243 . S
O203 Tb156 2.428 . S
O203 C220 1.256 . S
O204 Tb156 2.308 . S
O204 C219 1.266 1_545 S
O205 Tb167 2.393 . S
O205 C219 1.248 . S
O206 Tb167 2.465 . S
O206 C231 1.264 . S
O207 Tb167 2.387 . S
O207 C223 1.264 . S
O208 Tb156 2.349 1_565 S
O208 C223 1.243 . S
O209 Tb167 2.428 . S
O209 C231 1.256 . S
O210 Tb167 2.308 1_545 S
O210 C230 1.266 . S
O211 Tb156 2.393 . S
O211 C230 1.248 . S
C212 O201 1.264 . S
C212 O202 1.243 . S
C213 C216 1.399 1_556 S
C213 C218 1.383 . S
C213 C220 1.496 . S
C214 C215 1.399 1_556 S
C214 C218 1.389 . S
C215 C214 1.399 1_554 S
C215 C217 1.380 . S
C215 H232 0.929 . S
C216 C213 1.399 1_554 S
C216 C217 1.392 . S
C216 H233 0.929 . S
C217 C215 1.380 . S
C217 C216 1.392 . S
C217 H234 0.929 . S
C218 C213 1.383 . S
C218 C214 1.389 . S
C218 H235 0.931 . S
C219 O204 1.266 1_565 S
C219 O205 1.248 . S
C220 Tb156 2.802 . S
C220 O200 1.264 . S
C220 O203 1.256 . S
C220 C213 1.496 . S
C221 C188 1.448 . S
C221 H198 0.930 . S
C221 C222 1.328 . S
C222 C193 1.427 . S
C222 H199 0.929 . S
C222 C221 1.328 . S
C223 O207 1.264 . S
C223 O208 1.243 . S
C224 C227 1.399 . S
C224 C228 1.383 . S
C224 C231 1.496 . S
C225 C226 1.399 . S
C225 C228 1.389 . S
C226 C225 1.399 . S
C226 C229 1.380 . S
C226 H236 0.929 . S
C227 C224 1.399 . S
C227 C229 1.392 . S
C227 H237 0.929 . S
C228 C224 1.383 . S
C228 C225 1.389 . S
C228 H238 0.931 . S
C229 C226 1.380 . S
C229 C227 1.392 . S
C229 H239 0.929 . S
C230 O210 1.266 . S
C230 O211 1.248 . S
C231 Tb167 2.802 . S
C231 O206 1.264 . S
C231 O209 1.256 . S
C231 C224 1.496 . S
H232 C215 0.929 . S
H233 C216 0.929 . S
H234 C217 0.929 . S
H235 C218 0.931 . S
H236 C226 0.929 . S
H237 C227 0.929 . S
H238 C228 0.931 . S
H239 C229 0.929 . S
Tb240 N269 2.617 . S
Tb240 N275 2.572 . S
Tb240 O284 2.465 . S
Tb240 O285 2.387 . S
Tb240 O287 2.428 . S
Tb240 O288 2.308 . S
Tb240 O292 2.349 . S
Tb240 O295 2.393 . S
Tb240 C304 2.802 . S
C241 N242 1.379 . S
C241 C244 1.416 . S
C241 C248 1.424 . S
N242 C241 1.379 . S
N242 C245 1.334 . S
N242 Tb251 2.617 . S
C243 C245 1.390 . S
C243 C246 1.339 . S
C243 H263 0.930 . S
C244 C241 1.416 . S
C244 C246 1.416 . S
C244 C250 1.448 . S
C245 N242 1.334 . S
C245 C243 1.390 . S
C245 H256 0.930 . S
C246 C243 1.339 . S
C246 C244 1.416 . S
C246 H267 0.930 . S
C247 C248 1.413 . S
C247 C249 1.427 1_556 S
C247 C253 1.416 1_556 S
C248 C241 1.424 . S
C248 C247 1.413 . S
C248 N252 1.361 . S
C249 C247 1.427 1_554 S
C249 C250 1.328 1_554 S
C249 H264 0.929 . S
C250 C244 1.448 . S
C250 C249 1.328 1_556 S
C250 H265 0.930 . S
Tb251 N242 2.617 . S
Tb251 N252 2.572 . S
Tb251 O286 2.349 . S
Tb251 O289 2.393 . S
Tb251 O290 2.465 . S
Tb251 O291 2.387 . S
Tb251 O293 2.428 . S
Tb251 O294 2.308 . S
Tb251 C315 2.802 . S
N252 C248 1.361 . S
N252 Tb251 2.572 . S
N252 C254 1.340 . S
C253 C247 1.416 1_554 S
C253 C255 1.332 . S
C253 H261 0.931 . S
C254 N252 1.340 . S
C254 C255 1.407 1_556 S
C254 H260 0.930 . S
C255 C253 1.332 . S
C255 C254 1.407 1_554 S
C255 H257 0.929 . S
H256 C245 0.930 . S
H257 C255 0.929 . S
H258 C273 0.930 . S
H259 C280 0.929 . S
H260 C254 0.930 . S
H261 C253 0.931 . S
H262 C276 0.930 . S
H263 C243 0.930 . S
H264 C249 0.929 . S
H265 C250 0.930 . S
H266 C271 0.930 . S
H267 C246 0.930 . S
H268 C279 0.931 . S
N269 Tb240 2.617 . S
N269 C270 1.379 . S
N269 C273 1.334 . S
C270 N269 1.379 . S
C270 C272 1.416 . S
C270 C278 1.424 . S
C271 H266 0.930 . S
C271 C273 1.390 . S
C271 C274 1.339 . S
C272 C270 1.416 . S
C272 C274 1.416 . S
C272 C305 1.448 . S
C273 H258 0.930 . S
C273 N269 1.334 . S
C273 C271 1.390 . S
C274 C271 1.339 . S
C274 C272 1.416 . S
C274 H281 0.930 . S
N275 Tb240 2.572 . S
N275 C276 1.340 . S
N275 C278 1.361 . S
C276 H262 0.930 . S
C276 N275 1.340 . S
C276 C280 1.407 . S
C277 C278 1.413 . S
C277 C279 1.416 . S
C277 C306 1.427 . S
C278 C270 1.424 . S
C278 N275 1.361 . S
C278 C277 1.413 . S
C279 H268 0.931 . S
C279 C277 1.416 . S
C279 C280 1.332 . S
C280 H259 0.929 . S
C280 C276 1.407 . S
C280 C279 1.332 . S
H281 C274 0.930 . S
H282 C305 0.930 . S
H283 C306 0.929 . S
O284 Tb240 2.465 . S
O284 C304 1.264 . S
O285 Tb240 2.387 . S
O285 C296 1.264 . S
O286 Tb251 2.349 . S
O286 C296 1.243 . S
O287 Tb240 2.428 . S
O287 C304 1.256 . S
O288 Tb240 2.308 . S
O288 C303 1.266 . S
O289 Tb251 2.393 . S
O289 C303 1.248 . S
O290 Tb251 2.465 . S
O290 C315 1.264 . S
O291 Tb251 2.387 . S
O291 C307 1.264 . S
O292 Tb240 2.349 . S
O292 C307 1.243 . S
O293 Tb251 2.428 . S
O293 C315 1.256 . S
O294 Tb251 2.308 . S
O294 C314 1.266 . S
O295 Tb240 2.393 . S
O295 C314 1.248 . S
C296 O285 1.264 . S
C296 O286 1.243 . S
C297 C300 1.399 . S
C297 C302 1.383 . S
C297 C304 1.496 . S
C298 C299 1.399 . S
C298 C302 1.389 . S
C299 C298 1.399 . S
C299 C301 1.380 . S
C299 H316 0.929 . S
C300 C297 1.399 . S
C300 C301 1.392 . S
C300 H317 0.929 . S
C301 C299 1.380 . S
C301 C300 1.392 . S
C301 H318 0.929 . S
C302 C297 1.383 . S
C302 C298 1.389 . S
C302 H319 0.931 . S
C303 O288 1.266 . S
C303 O289 1.248 . S
C304 Tb240 2.802 . S
C304 O284 1.264 . S
C304 O287 1.256 . S
C304 C297 1.496 . S
C305 C272 1.448 . S
C305 H282 0.930 . S
C305 C306 1.328 . S
C306 C277 1.427 . S
C306 H283 0.929 . S
C306 C305 1.328 . S
C307 O291 1.264 . S
C307 O292 1.243 . S
C308 C311 1.399 . S
C308 C312 1.383 . S
C308 C315 1.496 . S
C309 C310 1.399 . S
C309 C312 1.389 . S
C310 C309 1.399 . S
C310 C313 1.380 . S
C310 H320 0.929 . S
C311 C308 1.399 . S
C311 C313 1.392 . S
C311 H321 0.929 . S
C312 C308 1.383 . S
C312 C309 1.389 . S
C312 H322 0.931 . S
C313 C310 1.380 . S
C313 C311 1.392 . S
C313 H323 0.929 . S
C314 O294 1.266 . S
C314 O295 1.248 . S
C315 Tb251 2.802 . S
C315 O290 1.264 . S
C315 O293 1.256 . S
C315 C308 1.496 . S
H316 C299 0.929 . S
H317 C300 0.929 . S
H318 C301 0.929 . S
H319 C302 0.931 . S
H320 C310 0.929 . S
H321 C311 0.929 . S
H322 C312 0.931 . S
H323 C313 0.929 . S
Tb324 N353 2.617 . S
Tb324 N359 2.572 . S
Tb324 O368 2.465 . S
Tb324 O369 2.387 1_455 S
Tb324 O371 2.428 . S
Tb324 O372 2.308 . S
Tb324 O376 2.349 . S
Tb324 O379 2.393 . S
Tb324 C388 2.802 . S
C325 N326 1.379 1_455 S
C325 C328 1.416 . S
C325 C332 1.424 . S
N326 C325 1.379 1_655 S
N326 C329 1.334 . S
N326 Tb335 2.617 . S
C327 C329 1.390 1_455 S
C327 C330 1.339 . S
C327 H347 0.930 . S
C328 C325 1.416 . S
C328 C330 1.416 . S
C328 C334 1.448 . S
C329 N326 1.334 . S
C329 C327 1.390 1_655 S
C329 H340 0.930 . S
C330 C327 1.339 . S
C330 C328 1.416 . S
C330 H351 0.930 . S
C331 C332 1.413 . S
C331 C333 1.427 1_556 S
C331 C337 1.416 1_556 S
C332 C325 1.424 . S
C332 C331 1.413 . S
C332 N336 1.361 . S
C333 C331 1.427 1_554 S
C333 C334 1.328 1_554 S
C333 H348 0.929 . S
C334 C328 1.448 . S
C334 C333 1.328 1_556 S
C334 H349 0.930 . S
Tb335 N326 2.617 . S
Tb335 N336 2.572 1_655 S
Tb335 O370 2.349 . S
Tb335 O373 2.393 . S
Tb335 O374 2.465 . S
Tb335 O375 2.387 1_655 S
Tb335 O377 2.428 . S
Tb335 O378 2.308 . S
Tb335 C399 2.802 . S
N336 C332 1.361 . S
N336 Tb335 2.572 1_455 S
N336 C338 1.340 . S
C337 C331 1.416 1_554 S
C337 C339 1.332 . S
C337 H345 0.931 . S
C338 N336 1.340 . S
C338 C339 1.407 1_556 S
C338 H344 0.929 1_455 S
C339 C337 1.332 . S
C339 C338 1.407 1_554 S
C339 H341 0.929 . S
H340 C329 0.930 . S
H341 C339 0.929 . S
H342 C357 0.930 . S
H343 C364 0.929 . S
H344 C338 0.929 1_655 S
H345 C337 0.931 . S
H346 C360 0.930 . S
H347 C327 0.930 . S
H348 C333 0.929 . S
H349 C334 0.930 . S
H350 C355 0.930 . S
H351 C330 0.930 . S
H352 C363 0.931 . S
N353 Tb324 2.617 . S
N353 C354 1.370 1_455 S
N353 C357 1.334 . S
C354 N353 1.370 1_655 S
C354 C356 1.423 . S
C354 C362 1.426 . S
C355 H350 0.930 . S
C355 C357 1.390 . S
C355 C358 1.339 1_455 S
C356 C354 1.423 . S
C356 C358 1.416 . S
C356 C389 1.448 . S
C357 H342 0.930 . S
C357 N353 1.334 . S
C357 C355 1.390 . S
C358 C355 1.339 1_655 S
C358 C356 1.416 . S
C358 H365 0.930 . S
N359 Tb324 2.572 . S
N359 C360 1.340 . S
N359 C362 1.361 1_455 S
C360 H346 0.930 . S
C360 N359 1.340 . S
C360 C364 1.407 1_455 S
C361 C362 1.413 . S
C361 C363 1.416 . S
C361 C390 1.427 . S
C362 C354 1.426 . S
C362 N359 1.361 1_655 S
C362 C361 1.413 . S
C363 H352 0.931 . S
C363 C361 1.416 . S
C363 C364 1.332 . S
C364 H343 0.929 . S
C364 C360 1.407 1_655 S
C364 C363 1.332 . S
H365 C358 0.930 . S
H366 C389 0.930 . S
H367 C390 0.929 . S
O368 Tb324 2.465 . S
O368 C388 1.264 . S
O369 Tb324 2.387 1_655 S
O369 C380 1.264 . S
O370 Tb335 2.349 . S
O370 C380 1.243 . S
O371 Tb324 2.428 . S
O371 C388 1.256 . S
O372 Tb324 2.308 . S
O372 C387 1.266 . S
O373 Tb335 2.393 . S
O373 C387 1.248 1_655 S
O374 Tb335 2.465 . S
O374 C399 1.264 . S
O375 Tb335 2.387 1_455 S
O375 C391 1.264 . S
O376 Tb324 2.349 . S
O376 C391 1.243 . S
O377 Tb335 2.428 . S
O377 C399 1.256 . S
O378 Tb335 2.308 . S
O378 C398 1.266 1_655 S
O379 Tb324 2.393 . S
O379 C398 1.248 . S
C380 O369 1.264 . S
C380 O370 1.243 . S
C381 C384 1.399 . S
C381 C386 1.383 . S
C381 C388 1.496 . S
C382 C383 1.399 . S
C382 C386 1.389 . S
C383 C382 1.399 . S
C383 C385 1.380 . S
C383 H400 0.929 . S
C384 C381 1.399 . S
C384 C385 1.392 . S
C384 H401 0.929 . S
C385 C383 1.380 . S
C385 C384 1.392 . S
C385 H402 0.929 . S
C386 C381 1.383 . S
C386 C382 1.389 . S
C386 H403 0.931 . S
C387 O372 1.266 . S
C387 O373 1.248 1_455 S
C388 Tb324 2.802 . S
C388 O368 1.264 . S
C388 O371 1.256 . S
C388 C381 1.496 . S
C389 C356 1.448 . S
C389 H366 0.930 . S
C389 C390 1.328 . S
C390 C361 1.427 . S
C390 H367 0.929 . S
C390 C389 1.328 . S
C391 O375 1.264 . S
C391 O376 1.243 . S
C392 C395 1.399 . S
C392 C396 1.383 . S
C392 C399 1.496 . S
C393 C394 1.399 . S
C393 C396 1.389 . S
C394 C393 1.399 . S
C394 C397 1.380 . S
C394 H404 0.929 . S
C395 C392 1.399 . S
C395 C397 1.392 . S
C395 H405 0.929 . S
C396 C392 1.383 . S
C396 C393 1.389 . S
C396 H406 0.931 . S
C397 C394 1.380 . S
C397 C395 1.392 . S
C397 H407 0.929 . S
C398 O378 1.266 1_455 S
C398 O379 1.248 . S
C399 Tb335 2.802 . S
C399 O374 1.264 . S
C399 O377 1.256 . S
C399 C392 1.496 . S
H400 C383 0.929 . S
H401 C384 0.929 . S
H402 C385 0.929 . S
H403 C386 0.931 . S
H404 C394 0.929 . S
H405 C395 0.929 . S
H406 C396 0.931 . S
H407 C397 0.929 . S
H408 C416 0.950 . S
H409 C421 0.950 . S
H410 C418 0.950 . S
H411 C420 0.950 . S
H412 C422 0.950 . S
H413 C424 0.950 . S
H414 C426 0.950 . S
H415 C427 0.950 . S
C416 H408 0.950 . S
C416 C417 1.386 . S
C416 C418 1.391 . S
C417 C416 1.386 . S
C417 C421 1.393 . S
C418 H410 0.950 . S
C418 C416 1.391 . S
C418 C419 1.400 . S
C419 C418 1.400 . S
C419 C420 1.398 . S
C419 C425 1.491 . S
C420 H411 0.950 . S
C420 C419 1.398 . S
C420 C421 1.391 . S
C421 H409 0.950 . S
C421 C417 1.393 . S
C421 C420 1.391 . S
C422 H412 0.950 . S
C422 C423 1.386 . S
C422 C424 1.391 . S
C423 C422 1.386 . S
C423 C427 1.393 . S
C424 H413 0.950 . S
C424 C422 1.391 . S
C424 C425 1.400 . S
C425 C419 1.491 . S
C425 C424 1.400 . S
C425 C426 1.398 . S
C426 H414 0.950 . S
C426 C425 1.398 . S
C426 C427 1.391 . S
C427 H415 0.950 . S
C427 C423 1.393 . S
C427 C426 1.391 . S
H428 C436 0.950 . S
H429 C441 0.950 . S
H430 C438 0.950 . S
H431 C440 0.950 . S
H432 C442 0.950 . S
H433 C444 0.950 . S
H434 C446 0.950 . S
H435 C447 0.950 . S
C436 H428 0.950 . S
C436 C437 1.386 . S
C436 C438 1.391 . S
C437 C436 1.386 . S
C437 C441 1.393 . S
C438 H430 0.950 . S
C438 C436 1.391 . S
C438 C439 1.400 . S
C439 C438 1.400 . S
C439 C440 1.398 . S
C439 C445 1.491 . S
C440 H431 0.950 . S
C440 C439 1.398 . S
C440 C441 1.391 . S
C441 H429 0.950 . S
C441 C437 1.393 . S
C441 C440 1.391 . S
C442 H432 0.950 . S
C442 C443 1.386 . S
C442 C444 1.391 . S
C443 C442 1.386 . S
C443 C447 1.393 . S
C444 H433 0.950 . S
C444 C442 1.391 . S
C444 C445 1.400 . S
C445 C439 1.491 . S
C445 C444 1.400 . S
C445 C446 1.398 . S
C446 H434 0.950 . S
C446 C445 1.398 . S
C446 C447 1.391 . S
C447 H435 0.950 . S
C447 C443 1.393 . S
C447 C446 1.391 . S
H448 C456 0.950 . S
H449 C461 0.950 . S
H450 C458 0.950 . S
H451 C460 0.950 . S
H452 C462 0.950 . S
H453 C464 0.950 . S
H454 C466 0.950 . S
H455 C467 0.950 . S
C456 H448 0.950 . S
C456 C457 1.386 . S
C456 C458 1.391 . S
C457 C456 1.386 . S
C457 C461 1.393 . S
C458 H450 0.950 . S
C458 C456 1.391 . S
C458 C459 1.400 . S
C459 C458 1.400 . S
C459 C460 1.398 . S
C459 C465 1.491 . S
C460 H451 0.950 . S
C460 C459 1.398 . S
C460 C461 1.391 . S
C461 H449 0.950 . S
C461 C457 1.393 . S
C461 C460 1.391 . S
C462 H452 0.950 . S
C462 C463 1.386 . S
C462 C464 1.391 . S
C463 C462 1.386 . S
C463 C467 1.393 . S
C464 H453 0.950 . S
C464 C462 1.391 . S
C464 C465 1.400 . S
C465 C459 1.491 . S
C465 C464 1.400 . S
C465 C466 1.398 . S
C466 H454 0.950 . S
C466 C465 1.398 . S
C466 C467 1.391 . S
C467 H455 0.950 . S
C467 C463 1.393 . S
C467 C466 1.391 . S
H468 C476 0.950 . S
H469 C481 0.950 1_655 S
H470 C478 0.950 . S
H471 C480 0.950 1_655 S
H472 C482 0.950 . S
H473 C484 0.950 . S
H474 C486 0.950 . S
H475 C487 0.950 . S
C476 H468 0.950 . S
C476 C477 1.386 . S
C476 C478 1.391 . S
C477 C476 1.386 . S
C477 C481 1.393 . S
C478 H470 0.950 . S
C478 C476 1.391 . S
C478 C479 1.400 . S
C479 C478 1.400 . S
C479 C480 1.398 . S
C479 C485 1.491 . S
C480 H471 0.950 1_455 S
C480 C479 1.398 . S
C480 C481 1.391 . S
C481 H469 0.950 1_455 S
C481 C477 1.393 . S
C481 C480 1.391 . S
C482 H472 0.950 . S
C482 C483 1.386 1_655 S
C482 C484 1.391 . S
C483 C482 1.386 1_455 S
C483 C487 1.393 . S
C484 H473 0.950 . S
C484 C482 1.391 . S
C484 C485 1.400 1_655 S
C485 C479 1.491 . S
C485 C484 1.400 1_455 S
C485 C486 1.398 . S
C486 H474 0.950 . S
C486 C485 1.398 . S
C486 C487 1.391 . S
C487 H475 0.950 . S
C487 C483 1.393 . S
C487 C486 1.391 . S
H488 C496 0.950 . S
H489 C501 0.950 . S
H490 C498 0.950 . S
H491 C500 0.950 1_545 S
H492 C502 0.950 . S
H493 C504 0.947 1_544 S
H494 C506 0.950 . S
H495 C507 0.950 . S
C496 H488 0.950 . S
C496 C497 1.386 . S
C496 C498 1.391 . S
C497 C496 1.386 . S
C497 C501 1.393 . S
C498 H490 0.950 . S
C498 C496 1.391 . S
C498 C499 1.400 . S
C499 C498 1.400 . S
C499 C500 1.398 . S
C499 C505 1.491 1_554 S
C500 H491 0.950 1_565 S
C500 C499 1.398 . S
C500 C501 1.391 . S
C501 H489 0.950 . S
C501 C497 1.393 . S
C501 C500 1.391 . S
C502 H492 0.950 . S
C502 C503 1.386 1_545 S
C502 C504 1.390 1_545 S
C503 C502 1.386 1_565 S
C503 C507 1.393 . S
C504 H493 0.947 1_566 S
C504 C502 1.390 1_565 S
C504 C505 1.404 . S
C505 C499 1.491 1_556 S
C505 C504 1.404 . S
C505 C506 1.398 . S
C506 H494 0.950 . S
C506 C505 1.398 . S
C506 C507 1.391 . S
C507 H495 0.950 . S
C507 C503 1.393 . S
C507 C506 1.391 . S
H508 C516 0.950 . S
H509 C521 0.950 . S
H510 C518 0.950 . S
H511 C520 0.950 . S
H512 C522 0.950 . S
H513 C524 0.950 . S
H514 C526 0.950 . S
H515 C527 0.950 . S
C516 H508 0.950 . S
C516 C517 1.386 . S
C516 C518 1.391 . S
C517 C516 1.386 . S
C517 C521 1.393 . S
C518 H510 0.950 . S
C518 C516 1.391 . S
C518 C519 1.400 . S
C519 C518 1.400 . S
C519 C520 1.398 . S
C519 C525 1.480 1_554 S
C520 H511 0.950 . S
C520 C519 1.398 . S
C520 C521 1.391 . S
C521 H509 0.950 . S
C521 C517 1.393 . S
C521 C520 1.391 . S
C522 H512 0.950 . S
C522 C523 1.386 . S
C522 C524 1.391 . S
C523 C522 1.386 . S
C523 C527 1.393 . S
C524 H513 0.950 . S
C524 C522 1.391 . S
C524 C525 1.411 . S
C525 C519 1.480 1_556 S
C525 C524 1.411 . S
C525 C526 1.398 1_556 S
C526 H514 0.950 . S
C526 C525 1.398 1_554 S
C526 C527 1.391 1_554 S
C527 H515 0.950 . S
C527 C523 1.393 . S
C527 C526 1.391 1_556 S
H528 C536 0.950 . S
H529 C541 0.950 . S
H530 C538 0.950 . S
H531 C540 0.950 . S
H532 C542 0.950 . S
H533 C544 0.950 . S
H534 C546 0.950 1_554 S
H535 C547 0.950 . S
C536 H528 0.950 . S
C536 C537 1.386 . S
C536 C538 1.391 . S
C537 C536 1.386 . S
C537 C541 1.393 . S
C538 H530 0.950 . S
C538 C536 1.391 . S
C538 C539 1.400 . S
C539 C538 1.400 . S
C539 C540 1.398 . S
C539 C545 1.491 1_554 S
C540 H531 0.950 . S
C540 C539 1.398 . S
C540 C541 1.391 . S
C541 H529 0.950 . S
C541 C537 1.393 . S
C541 C540 1.391 . S
C542 H532 0.950 . S
C542 C543 1.386 . S
C542 C544 1.391 . S
C543 C542 1.386 . S
C543 C547 1.393 . S
C544 H533 0.950 . S
C544 C542 1.391 . S
C544 C545 1.400 . S
C545 C539 1.491 1_556 S
C545 C544 1.400 . S
C545 C546 1.398 . S
C546 H534 0.950 1_556 S
C546 C545 1.398 . S
C546 C547 1.391 . S
C547 H535 0.950 . S
C547 C543 1.393 . S
C547 C546 1.391 . S
H548 C556 0.950 . S
H549 C561 0.950 . S
H550 C558 0.950 . S
H551 C560 0.950 . S
H552 C562 0.950 . S
H553 C564 0.950 1_554 S
H554 C566 0.950 . S
H555 C567 0.950 . S
C556 H548 0.950 . S
C556 C557 1.386 1_455 S
C556 C558 1.391 . S
C557 C556 1.386 1_655 S
C557 C561 1.393 . S
C558 H550 0.950 . S
C558 C556 1.391 . S
C558 C559 1.400 1_455 S
C559 C558 1.400 1_655 S
C559 C560 1.398 . S
C559 C565 1.491 1_554 S
C560 H551 0.950 . S
C560 C559 1.398 . S
C560 C561 1.391 . S
C561 H549 0.950 . S
C561 C557 1.393 . S
C561 C560 1.391 . S
C562 H552 0.950 . S
C562 C563 1.386 . S
C562 C564 1.391 . S
C563 C562 1.386 . S
C563 C567 1.393 1_655 S
C564 H553 0.950 1_556 S
C564 C562 1.391 . S
C564 C565 1.400 . S
C565 C559 1.491 1_556 S
C565 C564 1.400 . S
C565 C566 1.398 1_655 S
C566 H554 0.950 . S
C566 C565 1.398 1_455 S
C566 C567 1.391 . S
C567 H555 0.950 . S
C567 C563 1.393 1_455 S
C567 C566 1.391 . S
H568 C576 0.950 . S
H569 C581 0.950 . S
H570 C578 0.950 . S
H571 C580 0.950 . S
H572 C582 0.950 . S
H573 C584 0.950 . S
H574 C586 0.950 . S
H575 C587 0.950 . S
C576 H568 0.950 . S
C576 C577 1.386 . S
C576 C578 1.391 . S
C577 C576 1.386 . S
C577 C581 1.393 . S
C578 H570 0.950 . S
C578 C576 1.391 . S
C578 C579 1.400 . S
C579 C578 1.400 . S
C579 C580 1.398 . S
C579 C585 1.491 . S
C580 H571 0.950 . S
C580 C579 1.398 . S
C580 C581 1.391 . S
C581 H569 0.950 . S
C581 C577 1.393 . S
C581 C580 1.391 . S
C582 H572 0.950 . S
C582 C583 1.386 . S
C582 C584 1.391 . S
C583 C582 1.386 . S
C583 C587 1.393 1_655 S
C584 H573 0.950 . S
C584 C582 1.391 . S
C584 C585 1.400 1_655 S
C585 C579 1.491 . S
C585 C584 1.400 1_455 S
C585 C586 1.398 . S
C586 H574 0.950 . S
C586 C585 1.398 . S
C586 C587 1.391 . S
C587 H575 0.950 . S
C587 C583 1.393 1_455 S
C587 C586 1.391 . S
H588 C596 0.950 . S
H589 C601 0.950 . S
H590 C598 0.950 . S
H591 C600 0.950 1_565 S
H592 C602 0.950 . S
H593 C604 0.950 . S
H594 C606 0.950 . S
H595 C607 0.950 . S
C596 H588 0.950 . S
C596 C597 1.386 . S
C596 C598 1.391 . S
C597 C596 1.386 . S
C597 C601 1.393 . S
C598 H590 0.950 . S
C598 C596 1.391 . S
C598 C599 1.400 . S
C599 C598 1.400 . S
C599 C600 1.398 . S
C599 C605 1.491 . S
C600 H591 0.950 1_545 S
C600 C599 1.398 . S
C600 C601 1.391 . S
C601 H589 0.950 . S
C601 C597 1.393 . S
C601 C600 1.391 . S
C602 H592 0.950 . S
C602 C603 1.386 . S
C602 C604 1.391 . S
C603 C602 1.386 . S
C603 C607 1.393 1_565 S
C604 H593 0.950 . S
C604 C602 1.391 . S
C604 C605 1.400 1_565 S
C605 C599 1.491 . S
C605 C604 1.400 1_545 S
C605 C606 1.398 . S
C606 H594 0.950 . S
C606 C605 1.398 . S
C606 C607 1.391 . S
C607 H595 0.950 . S
C607 C603 1.393 1_545 S
C607 C606 1.391 . S
H608 C616 0.950 . S
H609 C621 0.950 . S
H610 C618 0.950 . S
H611 C620 0.950 . S
H612 C622 0.950 . S
H613 C624 0.950 . S
H614 C626 0.950 . S
H615 C627 0.950 . S
C616 H608 0.950 . S
C616 C617 1.386 . S
C616 C618 1.391 . S
C617 C616 1.386 . S
C617 C621 1.393 . S
C618 H610 0.950 . S
C618 C616 1.391 . S
C618 C619 1.400 . S
C619 C618 1.400 . S
C619 C620 1.398 . S
C619 C625 1.491 . S
C620 H611 0.950 . S
C620 C619 1.398 . S
C620 C621 1.391 . S
C621 H609 0.950 . S
C621 C617 1.393 . S
C621 C620 1.391 . S
C622 H612 0.950 . S
C622 C623 1.386 . S
C622 C624 1.391 . S
C623 C622 1.386 . S
C623 C627 1.393 . S
C624 H613 0.950 . S
C624 C622 1.391 . S
C624 C625 1.400 . S
C625 C619 1.491 . S
C625 C624 1.400 . S
C625 C626 1.398 . S
C626 H614 0.950 . S
C626 C625 1.398 . S
C626 C627 1.391 . S
C627 H615 0.950 . S
C627 C623 1.393 . S
C627 C626 1.391 . S
H628 C636 0.950 . S
H629 C641 0.950 . S
H630 C638 0.950 . S
H631 C640 0.950 . S
H632 C642 0.950 . S
H633 C644 0.950 . S
H634 C646 0.950 . S
H635 C647 0.950 . S
C636 H628 0.950 . S
C636 C637 1.386 . S
C636 C638 1.391 . S
C637 C636 1.386 . S
C637 C641 1.393 . S
C638 H630 0.950 . S
C638 C636 1.391 . S
C638 C639 1.400 . S
C639 C638 1.400 . S
C639 C640 1.398 . S
C639 C645 1.491 . S
C640 H631 0.950 . S
C640 C639 1.398 . S
C640 C641 1.391 . S
C641 H629 0.950 . S
C641 C637 1.393 . S
C641 C640 1.391 . S
C642 H632 0.950 . S
C642 C643 1.386 . S
C642 C644 1.391 . S
C643 C642 1.386 . S
C643 C647 1.393 . S
C644 H633 0.950 . S
C644 C642 1.391 . S
C644 C645 1.400 . S
C645 C639 1.491 . S
C645 C644 1.400 . S
C645 C646 1.398 . S
C646 H634 0.950 . S
C646 C645 1.398 . S
C646 C647 1.391 . S
C647 H635 0.950 . S
C647 C643 1.393 . S
C647 C646 1.391 . S
H648 C656 0.950 . S
H649 C661 0.950 1_455 S
H650 C658 0.950 . S
H651 C660 0.950 . S
H652 C662 0.950 . S
H653 C664 0.950 . S
H654 C666 0.950 . S
H655 C667 0.950 . S
C656 H648 0.950 . S
C656 C657 1.386 . S
C656 C658 1.391 . S
C657 C656 1.386 . S
C657 C661 1.393 . S
C658 H650 0.950 . S
C658 C656 1.391 . S
C658 C659 1.400 . S
C659 C658 1.400 . S
C659 C660 1.398 1_655 S
C659 C665 1.486 1_655 S
C660 H651 0.950 . S
C660 C659 1.398 1_455 S
C660 C661 1.391 1_455 S
C661 H649 0.950 1_655 S
C661 C657 1.393 . S
C661 C660 1.391 1_655 S
C662 H652 0.950 . S
C662 C663 1.386 . S
C662 C664 1.391 1_556 S
C663 C662 1.386 . S
C663 C667 1.393 1_456 S
C664 H653 0.950 . S
C664 C662 1.391 1_554 S
C664 C665 1.412 . S
C665 C659 1.486 1_455 S
C665 C664 1.412 . S
C665 C666 1.391 1_455 S
C666 H654 0.950 . S
C666 C665 1.391 1_655 S
C666 C667 1.391 . S
C667 H655 0.950 . S
C667 C663 1.393 1_654 S
C667 C666 1.391 . S
H668 C676 0.950 . S
H669 C681 0.950 . S
H670 C678 0.950 . S
H671 C680 0.950 1_545 S
H672 C682 0.950 . S
H673 C684 0.950 . S
H674 C686 0.950 . S
H675 C687 0.950 1_565 S
C676 H668 0.950 . S
C676 C677 1.386 . S
C676 C678 1.391 . S
C677 C676 1.386 . S
C677 C681 1.393 . S
C678 H670 0.950 . S
C678 C676 1.391 . S
C678 C679 1.400 . S
C679 C678 1.400 . S
C679 C680 1.398 . S
C679 C685 1.491 1_565 S
C680 H671 0.950 1_565 S
C680 C679 1.398 . S
C680 C681 1.391 . S
C681 H669 0.950 . S
C681 C677 1.393 . S
C681 C680 1.391 . S
C682 H672 0.950 . S
C682 C683 1.386 1_554 S
C682 C684 1.391 . S
C683 C682 1.386 1_556 S
C683 C687 1.393 . S
C684 H673 0.950 . S
C684 C682 1.391 . S
C684 C685 1.400 . S
C685 C679 1.491 1_545 S
C685 C684 1.400 . S
C685 C686 1.398 1_544 S
C686 H674 0.950 . S
C686 C685 1.398 1_566 S
C686 C687 1.391 1_565 S
C687 H675 0.950 1_545 S
C687 C683 1.393 . S
C687 C686 1.391 1_545 S
H688 C696 0.950 . S
H689 C701 0.950 . S
H690 C698 0.950 . S
H691 C700 0.950 . S
H692 C702 0.950 . S
H693 C704 0.950 . S
H694 C706 0.950 . S
H695 C707 0.950 1_556 S
C696 H688 0.950 . S
C696 C697 1.386 . S
C696 C698 1.391 . S
C697 C696 1.386 . S
C697 C701 1.393 . S
C698 H690 0.950 . S
C698 C696 1.391 . S
C698 C699 1.400 . S
C699 C698 1.400 . S
C699 C700 1.398 . S
C699 C705 1.491 . S
C700 H691 0.950 . S
C700 C699 1.398 . S
C700 C701 1.391 . S
C701 H689 0.950 . S
C701 C697 1.393 . S
C701 C700 1.391 . S
C702 H692 0.950 . S
C702 C703 1.386 . S
C702 C704 1.391 1_556 S
C703 C702 1.386 . S
C703 C707 1.393 1_556 S
C704 H693 0.950 . S
C704 C702 1.391 1_554 S
C704 C705 1.400 . S
C705 C699 1.491 . S
C705 C704 1.400 . S
C705 C706 1.398 . S
C706 H694 0.950 . S
C706 C705 1.398 . S
C706 C707 1.391 . S
C707 H695 0.950 1_554 S
C707 C703 1.393 1_554 S
C707 C706 1.391 . S
H708 C716 0.950 . S
H709 C721 0.950 . S
H710 C718 0.950 . S
H711 C720 0.950 . S
H712 C722 0.950 . S
H713 C724 0.950 . S
H714 C726 0.950 . S
H715 C727 0.950 . S
C716 H708 0.950 . S
C716 C717 1.386 . S
C716 C718 1.391 . S
C717 C716 1.386 . S
C717 C721 1.393 . S
C718 H710 0.950 . S
C718 C716 1.391 . S
C718 C719 1.400 . S
C719 C718 1.400 . S
C719 C720 1.398 . S
C719 C725 1.491 . S
C720 H711 0.950 . S
C720 C719 1.398 . S
C720 C721 1.391 . S
C721 H709 0.950 . S
C721 C717 1.393 . S
C721 C720 1.391 . S
C722 H712 0.950 . S
C722 C723 1.386 . S
C722 C724 1.391 1_556 S
C723 C722 1.386 . S
C723 C727 1.393 1_556 S
C724 H713 0.950 . S
C724 C722 1.391 1_554 S
C724 C725 1.400 . S
C725 C719 1.491 . S
C725 C724 1.400 . S
C725 C726 1.398 . S
C726 H714 0.950 . S
C726 C725 1.398 . S
C726 C727 1.391 . S
C727 H715 0.950 . S
C727 C723 1.393 1_554 S
C727 C726 1.391 . S
H728 C736 0.950 . S
H729 C741 0.950 1_554 S
H730 C738 0.950 . S
H731 C740 0.950 . S
H732 C742 0.950 . S
H733 C744 0.950 . S
H734 C746 0.950 . S
H735 C747 0.950 . S
C736 H728 0.950 . S
C736 C737 1.386 . S
C736 C738 1.391 . S
C737 C736 1.386 . S
C737 C741 1.393 . S
C738 H730 0.950 . S
C738 C736 1.391 . S
C738 C739 1.400 . S
C739 C738 1.400 . S
C739 C740 1.398 . S
C739 C745 1.491 . S
C740 H731 0.950 . S
C740 C739 1.398 . S
C740 C741 1.391 . S
C741 H729 0.950 1_556 S
C741 C737 1.393 . S
C741 C740 1.391 . S
C742 H732 0.950 . S
C742 C743 1.386 . S
C742 C744 1.391 . S
C743 C742 1.386 . S
C743 C747 1.393 . S
C744 H733 0.950 . S
C744 C742 1.391 . S
C744 C745 1.400 . S
C745 C739 1.491 . S
C745 C744 1.400 . S
C745 C746 1.398 . S
C746 H734 0.950 . S
C746 C745 1.398 . S
C746 C747 1.391 . S
C747 H735 0.950 . S
C747 C743 1.393 . S
C747 C746 1.391 . S
H748 C756 0.950 . S
H749 C761 0.950 . S
H750 C758 0.950 . S
H751 C760 0.950 . S
H752 C762 0.950 . S
H753 C764 0.950 . S
H754 C766 0.950 1_565 S
H755 C767 0.950 1_565 S
C756 H748 0.950 . S
C756 C757 1.386 . S
C756 C758 1.391 . S
C757 C756 1.386 . S
C757 C761 1.393 . S
C758 H750 0.950 . S
C758 C756 1.391 . S
C758 C759 1.400 . S
C759 C758 1.400 . S
C759 C760 1.398 . S
C759 C765 1.491 . S
C760 H751 0.950 . S
C760 C759 1.398 . S
C760 C761 1.391 . S
C761 H749 0.950 . S
C761 C757 1.393 . S
C761 C760 1.391 . S
C762 H752 0.950 . S
C762 C763 1.386 . S
C762 C764 1.391 . S
C763 C762 1.386 . S
C763 C767 1.393 . S
C764 H753 0.950 . S
C764 C762 1.391 . S
C764 C765 1.400 . S
C765 C759 1.491 . S
C765 C764 1.400 . S
C765 C766 1.398 . S
C766 H754 0.950 1_545 S
C766 C765 1.398 . S
C766 C767 1.391 . S
C767 H755 0.950 1_545 S
C767 C763 1.393 . S
C767 C766 1.391 . S
H768 C776 0.950 . S
H769 C781 0.950 . S
H770 C778 0.950 . S
H771 C780 0.950 . S
H772 C782 0.950 . S
H773 C784 0.950 . S
H774 C786 0.950 . S
H775 C787 0.950 . S
C776 H768 0.950 . S
C776 C777 1.386 . S
C776 C778 1.391 . S
C777 C776 1.386 . S
C777 C781 1.393 . S
C778 H770 0.950 . S
C778 C776 1.391 . S
C778 C779 1.400 . S
C779 C778 1.400 . S
C779 C780 1.398 . S
C779 C785 1.491 . S
C780 H771 0.950 . S
C780 C779 1.398 . S
C780 C781 1.391 . S
C781 H769 0.950 . S
C781 C777 1.393 . S
C781 C780 1.391 . S
C782 H772 0.950 . S
C782 C783 1.386 . S
C782 C784 1.391 . S
C783 C782 1.386 . S
C783 C787 1.393 . S
C784 H773 0.950 . S
C784 C782 1.391 . S
C784 C785 1.400 . S
C785 C779 1.491 . S
C785 C784 1.400 . S
C785 C786 1.398 . S
C786 H774 0.950 . S
C786 C785 1.398 . S
C786 C787 1.391 . S
C787 H775 0.950 . S
C787 C783 1.393 . S
C787 C786 1.391 . S
H788 C796 0.950 . S
H789 C801 0.950 1_554 S
H790 C798 0.950 . S
H791 C800 0.950 . S
H792 C802 0.950 . S
H793 C804 0.950 . S
H794 C806 0.950 . S
H795 C807 0.950 . S
C796 H788 0.950 . S
C796 C797 1.386 . S
C796 C798 1.391 . S
C797 C796 1.386 . S
C797 C801 1.393 . S
C798 H790 0.950 . S
C798 C796 1.391 . S
C798 C799 1.400 . S
C799 C798 1.400 . S
C799 C800 1.398 . S
C799 C805 1.491 . S
C800 H791 0.950 . S
C800 C799 1.398 . S
C800 C801 1.391 . S
C801 H789 0.950 1_556 S
C801 C797 1.393 . S
C801 C800 1.391 . S
C802 H792 0.950 . S
C802 C803 1.386 . S
C802 C804 1.391 . S
C803 C802 1.386 . S
C803 C807 1.393 . S
C804 H793 0.950 . S
C804 C802 1.391 . S
C804 C805 1.400 . S
C805 C799 1.491 . S
C805 C804 1.400 . S
C805 C806 1.398 . S
C806 H794 0.950 . S
C806 C805 1.398 . S
C806 C807 1.391 . S
C807 H795 0.950 . S
C807 C803 1.393 . S
C807 C806 1.391 . S
H808 C816 0.950 . S
H809 C821 0.950 . S
H810 C818 0.950 . S
H811 C820 0.950 . S
H812 C822 0.950 . S
H813 C824 0.950 . S
H814 C826 0.950 . S
H815 C827 0.950 . S
C816 H808 0.950 . S
C816 C817 1.386 . S
C816 C818 1.391 . S
C817 C816 1.386 . S
C817 C821 1.393 . S
C818 H810 0.950 . S
C818 C816 1.391 . S
C818 C819 1.400 . S
C819 C818 1.400 . S
C819 C820 1.398 . S
C819 C825 1.491 . S
C820 H811 0.950 . S
C820 C819 1.398 . S
C820 C821 1.391 . S
C821 H809 0.950 . S
C821 C817 1.393 . S
C821 C820 1.391 . S
C822 H812 0.950 . S
C822 C823 1.386 . S
C822 C824 1.391 . S
C823 C822 1.386 . S
C823 C827 1.393 . S
C824 H813 0.950 . S
C824 C822 1.391 . S
C824 C825 1.400 . S
C825 C819 1.491 . S
C825 C824 1.400 . S
C825 C826 1.398 . S
C826 H814 0.950 . S
C826 C825 1.398 . S
C826 C827 1.391 . S
C827 H815 0.950 . S
C827 C823 1.393 . S
C827 C826 1.391 . S
H828 C836 0.950 . S
H829 C841 0.950 . S
H830 C838 0.950 . S
H831 C840 0.950 . S
H832 C842 0.950 . S
H833 C844 0.950 . S
H834 C846 0.950 . S
H835 C847 0.950 . S
C836 H828 0.950 . S
C836 C837 1.386 . S
C836 C838 1.391 . S
C837 C836 1.386 . S
C837 C841 1.393 . S
C838 H830 0.950 . S
C838 C836 1.391 . S
C838 C839 1.400 . S
C839 C838 1.400 . S
C839 C840 1.398 . S
C839 C845 1.491 . S
C840 H831 0.950 . S
C840 C839 1.398 . S
C840 C841 1.391 . S
C841 H829 0.950 . S
C841 C837 1.393 . S
C841 C840 1.391 . S
C842 H832 0.950 . S
C842 C843 1.386 . S
C842 C844 1.391 . S
C843 C842 1.386 . S
C843 C847 1.393 . S
C844 H833 0.950 . S
C844 C842 1.391 . S
C844 C845 1.400 . S
C845 C839 1.491 . S
C845 C844 1.400 . S
C845 C846 1.398 . S
C846 H834 0.950 . S
C846 C845 1.398 . S
C846 C847 1.391 . S
C847 H835 0.950 . S
C847 C843 1.393 . S
C847 C846 1.391 . S
H848 C856 0.950 . S
H849 C861 0.950 . S
H850 C858 0.950 . S
H851 C860 0.950 . S
H852 C862 0.950 . S
H853 C864 0.950 . S
H854 C866 0.950 . S
H855 C867 0.950 . S
C856 H848 0.950 . S
C856 C857 1.386 . S
C856 C858 1.391 . S
C857 C856 1.386 . S
C857 C861 1.393 . S
C858 H850 0.950 . S
C858 C856 1.391 . S
C858 C859 1.400 . S
C859 C858 1.400 . S
C859 C860 1.398 . S
C859 C865 1.491 . S
C860 H851 0.950 . S
C860 C859 1.398 . S
C860 C861 1.391 . S
C861 H849 0.950 . S
C861 C857 1.393 . S
C861 C860 1.391 . S
C862 H852 0.950 . S
C862 C863 1.386 . S
C862 C864 1.391 . S
C863 C862 1.386 . S
C863 C867 1.393 . S
C864 H853 0.950 . S
C864 C862 1.391 . S
C864 C865 1.400 . S
C865 C859 1.491 . S
C865 C864 1.400 . S
C865 C866 1.398 . S
C866 H854 0.950 . S
C866 C865 1.398 . S
C866 C867 1.391 . S
C867 H855 0.950 . S
C867 C863 1.393 . S
C867 C866 1.391 . S
H868 C876 0.950 . S
H869 C881 0.950 . S
H870 C878 0.950 . S
H871 C880 0.950 . S
H872 C882 0.950 . S
H873 C884 0.950 . S
H874 C886 0.950 . S
H875 C887 0.950 . S
C876 H868 0.950 . S
C876 C877 1.386 . S
C876 C878 1.391 . S
C877 C876 1.386 . S
C877 C881 1.393 . S
C878 H870 0.950 . S
C878 C876 1.391 . S
C878 C879 1.400 . S
C879 C878 1.400 . S
C879 C880 1.398 . S
C879 C885 1.491 . S
C880 H871 0.950 . S
C880 C879 1.398 . S
C880 C881 1.391 . S
C881 H869 0.950 . S
C881 C877 1.393 . S
C881 C880 1.391 . S
C882 H872 0.950 . S
C882 C883 1.386 . S
C882 C884 1.391 . S
C883 C882 1.386 . S
C883 C887 1.393 . S
C884 H873 0.950 . S
C884 C882 1.391 . S
C884 C885 1.400 . S
C885 C879 1.491 . S
C885 C884 1.400 . S
C885 C886 1.398 . S
C886 H874 0.950 . S
C886 C885 1.398 . S
C886 C887 1.391 . S
C887 H875 0.950 . S
C887 C883 1.393 . S
C887 C886 1.391 . S
C417 C61 1.838 . S
C423 C135 1.971 . S
C443 C212 1.986 . S
C437 C70 1.870 . S
C463 C303 1.959 . S
C457 C43 1.825 . S
C483 C387 1.957 . S
C477 C52 1.847 . S
C503 C146 1.972 1_565 S
C497 C25 1.843 . S
C517 C34 1.863 . S
C523 C223 1.984 . S
C537 C7 1.831 . S
C543 C314 1.956 . S
C557 C16 1.847 . S
C563 C398 1.959 1_655 S
C583 C130 0.507 . S
C577 C50 0.518 . S
C603 C225 0.531 . S
C597 C59 0.463 . S
C623 C298 0.492 . S
C617 C67 0.514 . S
C637 C41 0.469 . S
C643 C382 0.504 . S
C657 C14 0.465 . S
C663 C141 0.538 . S
C683 C214 0.590 . S
C677 C23 0.473 . S
C703 C309 0.529 . S
C697 C31 0.476 . S
C717 C5 0.479 . S
C723 C393 0.536 . S
C737 C49 1.893 . S
C743 C139 2.096 . S
C757 C58 1.897 . S
C763 C230 2.081 . S
C783 C307 2.108 . S
C777 C68 1.893 . S
C803 C391 2.116 . S
C797 C40 1.913 . S
C817 C13 1.895 . S
C823 C128 2.098 . S
C843 C219 2.081 . S
C837 C22 1.894 . S
C863 C296 2.108 . S
C857 C32 1.887 . S
C877 C4 1.925 . S
C883 C380 2.119 . S
