# Generated by pormake.
# Topology rtl, (3,6)-cn, num edge types: 1
# Building blocks:
#     Node 0, Type 0, BuildingBlock: INOVEN_clean_linker_0, # of connection points: 3
#     Node 1, Type 0, BuildingBlock: INOVEN_clean_linker_0, # of connection points: 3
#     Node 2, Type 0, BuildingBlock: INOVEN_clean_linker_0, # of connection points: 3
#     Node 3, Type 0, BuildingBlock: INOVEN_clean_linker_0, # of connection points: 3
#     Node 4, Type 1, BuildingBlock: VOLQOD_clean_sbu_1, # of connection points: 6
#     Node 5, Type 1, BuildingBlock: VOLQOD_clean_sbu_1, # of connection points: 6
#     Edge 6, Type (0, 1), BuildingBlock: CIFDUS_clean_linker_0, # of connection points: 2
#     Edge 7, Type (0, 1), BuildingBlock: CIFDUS_clean_linker_0, # of connection points: 2
#     Edge 8, Type (0, 1), BuildingBlock: CIFDUS_clean_linker_0, # of connection points: 2
#     Edge 9, Type (0, 1), BuildingBlock: CIFDUS_clean_linker_0, # of connection points: 2
#     Edge 10, Type (0, 1), BuildingBlock: CIFDUS_clean_linker_0, # of connection points: 2
#     Edge 11, Type (0, 1), BuildingBlock: CIFDUS_clean_linker_0, # of connection points: 2
#     Edge 12, Type (0, 1), BuildingBlock: CIFDUS_clean_linker_0, # of connection points: 2
#     Edge 13, Type (0, 1), BuildingBlock: CIFDUS_clean_linker_0, # of connection points: 2
#     Edge 14, Type (0, 1), BuildingBlock: CIFDUS_clean_linker_0, # of connection points: 2
#     Edge 15, Type (0, 1), BuildingBlock: CIFDUS_clean_linker_0, # of connection points: 2
#     Edge 16, Type (0, 1), BuildingBlock: CIFDUS_clean_linker_0, # of connection points: 2
#     Edge 17, Type (0, 1), BuildingBlock: CIFDUS_clean_linker_0, # of connection points: 2
# Relax obj value: 0.042
# Max RMSD: 0.144
# Mean RMSD: 0.092
data_MOF--net-rtl--node1-VOLQOD_clean_sbu_1--node2-INOVEN_clean_linker_0--edge1-CIFDUS_clean_linker_0
_symmetry_space_group_name_H-M    P1
_symmetry_Int_Tables_number       1
_symmetry_cell_setting            triclinic
loop_
_symmetry_equiv_pos_as_xyz
'x, y, z'
_cell_length_a     33.307457
_cell_length_b     32.594304
_cell_length_c     19.797631
_cell_angle_alpha  90.764547
_cell_angle_beta   90.583791
_cell_angle_gamma 89.803798
loop_
_atom_site_label
_atom_site_type_symbol
_atom_site_fract_x
_atom_site_fract_y
_atom_site_fract_z
_atom_type_partial_charge
H0 H 0.18936 0.79021 0.83674 0.0
H1 H 0.10913 0.86717 0.95086 0.0
H2 H 0.17661 0.77339 0.05135 0.0
N3 N 0.21723 0.74779 0.94057 0.0
N4 N 0.2329 0.73439 -0.00661 0.0
C5 C 0.17496 0.79811 0.88402 0.0
C6 C 0.14769 0.83099 0.887 0.0
C7 C 0.18579 0.77726 0.94317 0.0
C8 C 0.16788 0.78851 0.00502 0.0
C9 C 0.14047 0.82108 0.00787 0.0
C10 C 0.1302 0.84172 0.94864 0.0
H11 H 0.71643 0.72041 0.67069 0.0
H12 H 0.61958 0.65567 0.57116 0.0
H13 H 0.69861 0.7301 0.4556 0.0
N14 N 0.74495 0.75508 0.56079 0.0
N15 N 0.74922 0.77939 0.51325 0.0
C16 C 0.69971 0.71226 0.62525 0.0
C17 C 0.66583 0.68678 0.62896 0.0
C18 C 0.71131 0.72854 0.56309 0.0
C19 C 0.68958 0.71816 0.50393 0.0
C20 C 0.65629 0.69216 0.50698 0.0
C21 C 0.6447 0.6767 0.56937 0.0
H22 H 0.82919 0.24837 0.83775 0.0
H23 H 0.90085 0.16325 0.95188 0.0
H24 H 0.81128 0.23585 0.05195 0.0
N25 N 0.78633 0.27655 0.94143 0.0
N26 N 0.76279 0.28189 -0.0106 0.0
C27 C 0.83698 0.23415 0.88531 0.0
C28 C 0.8678 0.20462 0.88806 0.0
C29 C 0.81633 0.24552 0.94423 0.0
C30 C 0.82651 0.22687 0.00593 0.0
C31 C 0.85738 0.19773 0.00907 0.0
C32 C 0.87768 0.1867 0.94997 0.0
H33 H 0.31767 0.28904 0.45414 0.0
H34 H 0.3843 0.38367 0.55847 0.0
H35 H 0.31124 0.30133 0.6709 0.0
N36 N 0.28337 0.25872 0.56748 0.0
N37 N 0.27056 0.24006 0.51638 0.0
C38 C 0.32691 0.30411 0.50083 0.0
C39 C 0.35268 0.33813 0.49866 0.0
C40 C 0.31192 0.29073 0.56331 0.0
C41 C 0.32334 0.31112 0.62313 0.0
C42 C 0.34879 0.3451 0.62115 0.0
C43 C 0.36375 0.35793 0.55925 0.0
O44 O 0.91008 0.98324 0.43742 0.0
Zn45 Zn 0.94761 0.03183 0.43974 0.0
O46 O 0.00378 0.01403 0.44796 0.0
Zn47 Zn 0.02859 0.03385 0.53276 0.0
Zn48 Zn 0.00657 0.95403 0.44103 0.0
Zn49 Zn 0.0333 0.03682 0.37441 0.0
O50 O 0.07692 0.07063 0.51664 0.0
O51 O 0.07946 0.07043 0.40501 0.0
O52 O 0.93315 0.06649 0.5206 0.0
O53 O 0.98793 0.06724 0.58594 0.0
O54 O 0.04887 0.98549 0.58719 0.0
O55 O 0.03663 0.93159 0.52017 0.0
O56 O 0.03513 0.93408 0.35642 0.0
O57 O 0.93751 0.06644 0.35677 0.0
O58 O 0.05523 0.99333 0.31523 0.0
O59 O 0.99915 0.07222 0.3171 0.0
C60 C 0.916 0.94469 0.44126 0.0
C61 C 0.09346 0.08171 0.46208 0.0
C62 C 0.05096 0.94702 0.5746 0.0
C63 C 0.95163 0.07795 0.57422 0.0
C64 C 0.05391 0.95445 0.31234 0.0
C65 C 0.96199 0.08086 0.31421 0.0
O66 O 0.95127 0.92954 0.44384 0.0
O67 O 0.59497 0.47568 0.0481 0.0
Zn68 Zn 0.56247 0.52816 0.05406 0.0
O69 O 0.50511 0.51611 0.06353 0.0
Zn70 Zn 0.4766 0.53467 -0.01641 0.0
Zn71 Zn 0.4976 0.45696 0.07414 0.0
Zn72 Zn 0.4831 0.5449 0.14164 0.0
O73 O 0.43123 0.57263 0.00634 0.0
O74 O 0.43863 0.58407 0.11628 0.0
O75 O 0.5733 0.56159 0.97081 0.0
O76 O 0.51298 0.56569 0.92279 0.0
O77 O 0.45306 0.48719 0.93258 0.0
O78 O 0.46592 0.43301 -0.00388 0.0
O79 O 0.46772 0.44364 0.15911 0.0
O80 O 0.58227 0.56153 0.13435 0.0
O81 O 0.45837 0.50517 0.20561 0.0
O82 O 0.52655 0.57576 0.19106 0.0
C83 C 0.58629 0.43851 0.0606 0.0
C84 C 0.42036 0.59052 0.06063 0.0
C85 C 0.45041 0.44892 0.94359 0.0
C86 C 0.55024 0.57425 0.92374 0.0
C87 C 0.45391 0.46639 0.20624 0.0
C88 C 0.56434 0.5791 0.18347 0.0
O89 O 0.55071 0.42774 0.07504 0.0
H90 H 0.24059 0.19876 0.41339 0.0
H91 H 0.23284 0.2134 0.62933 0.0
H92 H 0.1778 0.16396 0.63201 0.0
H93 H 0.12976 0.11869 0.57171 0.0
H94 H 0.13783 0.10527 0.35478 0.0
H95 H 0.19462 0.15174 0.35383 0.0
C96 C 0.2269 0.19067 0.46087 0.0
C97 C 0.2405 0.2095 0.52058 0.0
C98 C 0.19515 0.16259 0.4619 0.0
C99 C 0.2228 0.19922 0.58239 0.0
C100 C 0.19128 0.17102 0.58396 0.0
C101 C 0.14408 0.12576 0.52433 0.0
C102 C 0.12923 0.10863 0.46349 0.0
C103 C 0.17686 0.15285 0.52385 0.0
C104 C 0.1483 0.11813 0.40249 0.0
C105 C 0.1809 0.14474 0.40172 0.0
H106 H 0.27263 0.71031 0.10069 0.0
H107 H 0.26617 0.69589 0.88431 0.0
H108 H 0.32416 0.64962 0.88673 0.0
H109 H 0.37713 0.61421 0.95043 0.0
H110 H 0.3845 0.62971 0.16728 0.0
H111 H 0.32589 0.67481 0.16471 0.0
C112 C 0.28403 0.69673 0.05436 0.0
C113 C 0.26542 0.70624 -0.0072 0.0
C114 C 0.31757 0.67064 0.05619 0.0
C115 C 0.28012 0.68893 0.93246 0.0
C116 C 0.31327 0.66256 0.93384 0.0
C117 C 0.36599 0.62742 -0.00278 0.0
C118 C 0.38529 0.61855 0.05896 0.0
C119 C 0.33234 0.65339 -0.00459 0.0
C120 C 0.37037 0.63606 0.11901 0.0
C121 C 0.33678 0.6618 0.11765 0.0
H122 H 0.753 0.84614 0.44045 0.0
H123 H 0.82191 0.76962 0.57445 0.0
H124 H 0.88063 0.81361 0.56089 0.0
H125 H 0.91213 0.87412 0.51114 0.0
H126 H 0.84176 0.95395 0.38412 0.0
H127 H 0.78376 0.90858 0.39442 0.0
C128 C 0.78097 0.83944 0.46666 0.0
C129 C 0.78329 0.80509 0.50831 0.0
C130 C 0.81421 0.86534 0.45966 0.0
C131 C 0.81942 0.79624 0.54252 0.0
C132 C 0.85298 0.82126 0.53454 0.0
C133 C 0.88415 0.88138 0.48539 0.0
C134 C 0.88123 0.91701 0.44635 0.0
C135 C 0.85071 0.85586 0.49321 0.0
C136 C 0.84464 0.9266 0.41432 0.0
C137 C 0.81154 0.9007 0.42019 0.0
H138 H 0.70278 0.28593 0.0733 0.0
H139 H 0.75847 0.34941 0.90983 0.0
H140 H 0.70926 0.40523 0.9201 0.0
H141 H 0.6501 0.43575 0.97624 0.0
H142 H 0.59213 0.36943 0.135 0.0
H143 H 0.64248 0.31498 0.12647 0.0
C144 C 0.70374 0.312 0.03986 0.0
C145 C 0.73369 0.31367 -0.009 0.0
C146 C 0.67516 0.34345 0.0456 0.0
C147 C 0.73527 0.34739 0.94754 0.0
C148 C 0.7073 0.37933 0.95366 0.0
C149 C 0.64877 0.40949 0.0092 0.0
C150 C 0.61775 0.40666 0.05655 0.0
C151 C 0.67716 0.37773 0.00268 0.0
C152 C 0.6158 0.3722 0.09822 0.0
C153 C 0.64452 0.34109 0.09335 0.0
H154 H 0.14641 0.89845 0.05227 0.0
H155 H 0.10204 0.77991 0.10868 0.0
H156 H 0.07219 0.8103 0.21104 0.0
H157 H 0.05534 0.87216 0.27993 0.0
H158 H 0.10025 0.99011 0.21812 0.0
H159 H 0.13293 0.95832 0.12215 0.0
C160 C 0.13021 0.87928 0.08712 0.0
C161 C 0.12574 0.83733 0.07297 0.0
C162 C 0.11297 0.89692 0.14449 0.0
C163 C 0.1056 0.81244 0.11888 0.0
C164 C 0.08843 0.82983 0.17696 0.0
C165 C 0.07242 0.89079 0.24559 0.0
C166 C 0.07486 0.93354 0.25606 0.0
C167 C 0.09132 0.87228 0.18965 0.0
C168 C 0.09739 0.95722 0.21124 0.0
C169 C 0.11627 0.93912 0.1562 0.0
H170 H 0.58932 0.68251 0.67209 0.0
H171 H 0.71086 0.65315 0.73155 0.0
H172 H 0.68598 0.61749 0.83097 0.0
H173 H 0.62905 0.58988 0.89543 0.0
H174 H 0.50779 0.61681 0.82964 0.0
H175 H 0.53328 0.65742 0.73748 0.0
C176 C 0.61043 0.66827 0.70675 0.0
C177 C 0.65182 0.66996 0.69395 0.0
C178 C 0.59591 0.64687 0.76216 0.0
C179 C 0.67883 0.65237 0.74035 0.0
C180 C 0.66459 0.63166 0.79681 0.0
C181 C 0.60823 0.60479 0.86111 0.0
C182 C 0.56653 0.59989 0.86925 0.0
C183 C 0.6231 0.62792 0.80736 0.0
C184 C 0.54 0.61958 0.82434 0.0
C185 C 0.55452 0.64299 0.77164 0.0
H186 H 0.93251 0.18906 0.05802 0.0
H187 H 0.80889 0.16451 0.10497 0.0
H188 H 0.83005 0.12793 0.20686 0.0
H189 H 0.88439 0.09892 0.27785 0.0
H190 H 0.00784 0.12315 0.22659 0.0
H191 H 0.98596 0.16356 0.13092 0.0
C192 C 0.91021 0.17567 0.09061 0.0
C193 C 0.86934 0.17893 0.07383 0.0
C194 C 0.92257 0.15438 0.14803 0.0
C195 C 0.84061 0.16234 0.11711 0.0
C196 C 0.8527 0.14126 0.17502 0.0
C197 C 0.90644 0.1133 0.24603 0.0
C198 C 0.94768 0.10756 0.25912 0.0
C199 C 0.8937 0.13646 0.19033 0.0
C200 C 0.97589 0.12659 0.21747 0.0
C201 C 0.96348 0.14982 0.16265 0.0
H202 H 0.38254 0.31665 0.73695 0.0
H203 H 0.33883 0.42654 0.64171 0.0
H204 H 0.36435 0.46824 0.73591 0.0
H205 H 0.40366 0.47393 0.83968 0.0
H206 H 0.44952 0.36484 0.93526 0.0
H207 H 0.41831 0.32221 0.84682 0.0
C208 C 0.37807 0.34964 0.73779 0.0
C209 C 0.35923 0.36873 0.68275 0.0
C210 C 0.39353 0.37349 0.79153 0.0
C211 C 0.35365 0.41144 0.68361 0.0
C212 C 0.36825 0.43523 0.73723 0.0
C213 C 0.40677 0.44081 0.84147 0.0
C214 C 0.42933 0.42264 0.89343 0.0
C215 C 0.38911 0.41667 0.7905 0.0
C216 C 0.43249 0.37963 0.89551 0.0
C217 C 0.4147 0.35524 0.84495 0.0
H218 H 0.68664 0.65996 0.39106 0.0
H219 H 0.57568 0.69533 0.48625 0.0
H220 H 0.53739 0.66554 0.39193 0.0
H221 H 0.53543 0.62482 0.28772 0.0
H222 H 0.64613 0.58735 0.19299 0.0
H223 H 0.68458 0.62291 0.28158 0.0
C224 C 0.65411 0.6618 0.39026 0.0
C225 C 0.63389 0.67955 0.44535 0.0
C226 C 0.6323 0.64388 0.3365 0.0
C227 C 0.59176 0.68147 0.44441 0.0
C228 C 0.56991 0.66441 0.39067 0.0
C229 C 0.56798 0.62454 0.28607 0.0
C230 C 0.58782 0.60302 0.23413 0.0
C231 C 0.58985 0.64468 0.33732 0.0
C232 C 0.63003 0.60345 0.23258 0.0
C233 C 0.65207 0.62377 0.28325 0.0
H234 H 0.83564 0.17457 0.77112 0.0
H235 H 0.94843 0.20164 0.87031 0.0
H236 H 0.98474 0.16595 0.78029 0.0
H237 H 0.98396 0.12188 0.67906 0.0
H238 H 0.87108 0.0938 0.58007 0.0
H239 H 0.83535 0.13497 0.66409 0.0
C240 C 0.86819 0.17346 0.77191 0.0
C241 C 0.8894 0.19053 0.82704 0.0
C242 C 0.88881 0.15208 0.72072 0.0
C243 C 0.93157 0.18854 0.82824 0.0
C244 C 0.95229 0.16796 0.77707 0.0
C245 C 0.95156 0.12481 0.67573 0.0
C246 C 0.93027 0.10431 0.62381 0.0
C247 C 0.93115 0.14861 0.72411 0.0
C248 C 0.88829 0.10903 0.61972 0.0
C249 C 0.86776 0.13262 0.66773 0.0
H250 H 0.35539 0.41755 0.46241 0.0
H251 H 0.38389 0.29557 0.39038 0.0
H252 H 0.41664 0.32444 0.29131 0.0
H253 H 0.44137 0.38486 0.23011 0.0
H254 H 0.41496 0.50642 0.30795 0.0
H255 H 0.37803 0.47706 0.40075 0.0
C256 C 0.36883 0.39721 0.42508 0.0
C257 C 0.36776 0.35453 0.43414 0.0
C258 C 0.3885 0.41398 0.36986 0.0
C259 C 0.38428 0.32855 0.38444 0.0
C260 C 0.40331 0.34507 0.32821 0.0
C261 C 0.42749 0.40492 0.2673 0.0
C262 C 0.43131 0.44784 0.26215 0.0
C263 C 0.40635 0.38781 0.32119 0.0
C264 C 0.4129 0.47333 0.31073 0.0
C265 C 0.39159 0.45659 0.36382 0.0
H266 H 0.11476 0.80724 0.76671 0.0
H267 H 0.15964 0.91257 0.87711 0.0
H268 H 0.13491 0.95808 0.78877 0.0
H269 H 0.09593 0.9683 0.68493 0.0
H270 H 0.04971 0.86317 0.57471 0.0
H271 H 0.07943 0.81734 0.6579 0.0
C272 C 0.11977 0.84007 0.77037 0.0
C273 C 0.13881 0.85672 0.82791 0.0
C274 C 0.10468 0.86613 0.72005 0.0
C275 C 0.1449 0.89929 0.83297 0.0
C276 C 0.13061 0.92528 0.78278 0.0
C277 C 0.09241 0.93538 0.67897 0.0
C278 C 0.07025 0.91933 0.62405 0.0
C279 C 0.10957 0.90913 0.72695 0.0
C280 C 0.06645 0.87648 0.61671 0.0
C281 C 0.08347 0.85015 0.66424 0.0
loop_
_geom_bond_atom_site_label_1
_geom_bond_atom_site_label_2
_geom_bond_distance
_geom_bond_site_symmetry_2
_ccdc_geom_bond_type
H0 C5 0.929 . S
H1 C10 0.931 . S
H2 C8 0.930 . S
N3 N4 1.234 1_556 S
N3 C7 1.453 1_556 S
N4 N3 1.234 1_554 S
C5 H0 0.929 . S
C5 C6 1.373 . S
C5 C7 1.368 1_556 S
C6 C5 1.373 . S
C6 C10 1.397 1_556 S
C7 N3 1.453 1_554 S
C7 C5 1.368 1_554 S
C7 C8 1.373 . S
C8 H2 0.930 . S
C8 C7 1.373 . S
C8 C9 1.371 . S
C9 C8 1.371 . S
C9 C10 1.383 . S
C10 H1 0.931 . S
C10 C6 1.397 1_554 S
C10 C9 1.383 . S
H11 C16 0.929 . S
H12 C21 0.931 . S
H13 C19 0.930 . S
N14 N15 1.234 . S
N14 C18 1.453 . S
N15 N14 1.234 . S
C16 H11 0.929 . S
C16 C17 1.373 . S
C16 C18 1.368 . S
C17 C16 1.373 . S
C17 C21 1.397 . S
C18 N14 1.453 . S
C18 C16 1.368 . S
C18 C19 1.373 . S
C19 H13 0.930 . S
C19 C18 1.373 . S
C19 C20 1.371 . S
C20 C19 1.371 . S
C20 C21 1.383 . S
C21 H12 0.931 . S
C21 C17 1.397 . S
C21 C20 1.383 . S
H22 C27 0.929 . S
H23 C32 0.931 . S
H24 C30 0.930 . S
N25 N26 1.234 1_556 S
N25 C29 1.453 1_556 S
N26 N25 1.234 1_554 S
C27 H22 0.929 . S
C27 C28 1.373 . S
C27 C29 1.368 1_556 S
C28 C27 1.373 . S
C28 C32 1.397 1_556 S
C29 N25 1.453 1_554 S
C29 C27 1.368 1_554 S
C29 C30 1.373 . S
C30 H24 0.930 . S
C30 C29 1.373 . S
C30 C31 1.371 . S
C31 C30 1.371 . S
C31 C32 1.383 . S
C32 H23 0.931 . S
C32 C28 1.397 1_554 S
C32 C31 1.383 . S
H33 C38 0.929 . S
H34 C43 0.931 . S
H35 C41 0.930 . S
N36 N37 1.234 . S
N36 C40 1.453 . S
N37 N36 1.234 . S
C38 H33 0.929 . S
C38 C39 1.373 . S
C38 C40 1.368 . S
C39 C38 1.373 . S
C39 C43 1.397 . S
C40 N36 1.453 . S
C40 C38 1.368 . S
C40 C41 1.373 . S
C41 H35 0.930 . S
C41 C40 1.373 . S
C41 C42 1.371 . S
C42 C41 1.371 . S
C42 C43 1.383 . S
C43 H34 0.931 . S
C43 C39 1.397 . S
C43 C42 1.383 . S
O44 Zn45 1.953 1_565 S
O44 C60 1.225 . S
Zn45 O44 1.953 1_545 S
Zn45 O46 1.949 1_655 S
Zn45 O52 1.919 . S
Zn45 O57 1.924 . S
O46 Zn45 1.949 1_455 S
O46 Zn47 1.923 . S
O46 Zn48 1.950 1_545 S
O46 Zn49 1.945 . S
Zn47 O46 1.923 . S
Zn47 O50 1.933 . S
Zn47 O53 1.941 . S
Zn47 O54 1.965 1_545 S
Zn48 O46 1.950 1_565 S
Zn48 O55 1.938 . S
Zn48 O56 1.906 . S
Zn48 O66 1.953 1_455 S
Zn49 O46 1.945 . S
Zn49 O51 1.932 . S
Zn49 O58 1.958 1_545 S
Zn49 O59 1.910 1_455 S
O50 Zn47 1.933 . S
O50 C61 1.226 . S
O51 Zn49 1.932 . S
O51 C61 1.307 . S
O52 Zn45 1.919 . S
O52 C63 1.253 . S
O53 Zn47 1.941 . S
O53 C63 1.283 1_455 S
O54 Zn47 1.965 1_565 S
O54 C62 1.303 . S
O55 Zn48 1.938 . S
O55 C62 1.247 . S
O56 Zn48 1.906 . S
O56 C64 1.304 . S
O57 Zn45 1.924 . S
O57 C65 1.311 . S
O58 Zn49 1.958 1_565 S
O58 C64 1.298 . S
O59 Zn49 1.910 1_655 S
O59 C65 1.231 . S
C60 O44 1.225 . S
C60 O66 1.298 . S
C61 O50 1.226 . S
C61 O51 1.307 . S
C62 O54 1.303 . S
C62 O55 1.247 . S
C63 O52 1.253 . S
C63 O53 1.283 1_655 S
C64 O56 1.304 . S
C64 O58 1.298 . S
C65 O57 1.311 . S
C65 O59 1.231 . S
O66 Zn48 1.953 1_655 S
O66 C60 1.298 . S
O67 Zn68 1.953 . S
O67 C83 1.225 . S
Zn68 O67 1.953 . S
Zn68 O69 1.949 . S
Zn68 O75 1.919 1_554 S
Zn68 O80 1.924 . S
O69 Zn68 1.949 . S
O69 Zn70 1.923 1_554 S
O69 Zn71 1.950 . S
O69 Zn72 1.945 . S
Zn70 O69 1.923 1_556 S
Zn70 O73 1.933 . S
Zn70 O76 1.941 . S
Zn70 O77 1.965 . S
Zn71 O69 1.950 . S
Zn71 O78 1.938 1_554 S
Zn71 O79 1.906 . S
Zn71 O89 1.953 . S
Zn72 O69 1.945 . S
Zn72 O74 1.932 . S
Zn72 O81 1.977 . S
Zn72 O82 1.910 . S
O73 Zn70 1.933 . S
O73 C84 1.226 1_556 S
O74 Zn72 1.932 . S
O74 C84 1.307 . S
O75 Zn68 1.919 1_556 S
O75 C86 1.253 . S
O76 Zn70 1.941 . S
O76 C86 1.283 . S
O77 Zn70 1.965 . S
O77 C85 1.303 . S
O78 Zn71 1.938 1_556 S
O78 C85 1.247 . S
O79 Zn71 1.906 . S
O79 C87 1.304 . S
O80 Zn68 1.924 . S
O80 C88 1.311 . S
O81 Zn72 1.977 . S
O81 C87 1.272 . S
O82 Zn72 1.910 . S
O82 C88 1.231 . S
C83 O67 1.225 . S
C83 O89 1.298 . S
C84 O73 1.226 1_554 S
C84 O74 1.307 . S
C85 O77 1.303 . S
C85 O78 1.247 . S
C86 O75 1.253 . S
C86 O76 1.283 . S
C87 O79 1.304 . S
C87 O81 1.272 . S
C88 O80 1.311 . S
C88 O82 1.231 . S
O89 Zn71 1.953 . S
O89 C83 1.298 . S
H90 C96 0.930 . S
H91 C99 0.930 . S
H92 C100 0.930 . S
H93 C101 0.930 . S
H94 C104 0.930 . S
H95 C105 0.930 . S
C96 H90 0.930 . S
C96 C97 1.355 . S
C96 C98 1.415 . S
C97 C96 1.355 . S
C97 C99 1.419 . S
C98 C96 1.415 . S
C98 C103 1.425 . S
C98 C105 1.409 . S
C99 H91 0.930 . S
C99 C97 1.419 . S
C99 C100 1.362 . S
C100 H92 0.930 . S
C100 C99 1.362 . S
C100 C103 1.409 . S
C101 H93 0.930 . S
C101 C102 1.355 . S
C101 C103 1.415 . S
C102 C101 1.355 . S
C102 C104 1.419 . S
C103 C98 1.425 . S
C103 C100 1.409 . S
C103 C101 1.415 . S
C104 H94 0.930 . S
C104 C102 1.419 . S
C104 C105 1.362 . S
C105 H95 0.930 . S
C105 C98 1.409 . S
C105 C104 1.362 . S
H106 C112 0.930 . S
H107 C115 0.930 . S
H108 C116 0.930 . S
H109 C117 0.930 . S
H110 C120 0.930 . S
H111 C121 0.930 . S
C112 H106 0.930 . S
C112 C113 1.355 . S
C112 C114 1.415 . S
C113 C112 1.355 . S
C113 C115 1.419 1_554 S
C114 C112 1.415 . S
C114 C119 1.425 . S
C114 C121 1.409 . S
C115 H107 0.930 . S
C115 C113 1.419 1_556 S
C115 C116 1.362 . S
C116 H108 0.930 . S
C116 C115 1.362 . S
C116 C119 1.409 1_556 S
C117 H109 0.930 . S
C117 C118 1.355 1_556 S
C117 C119 1.415 1_556 S
C118 C117 1.355 1_554 S
C118 C120 1.419 . S
C119 C114 1.425 . S
C119 C116 1.409 1_554 S
C119 C117 1.415 1_554 S
C120 H110 0.930 . S
C120 C118 1.419 . S
C120 C121 1.362 . S
C121 H111 0.930 . S
C121 C114 1.409 . S
C121 C120 1.362 . S
H122 C128 0.930 . S
H123 C131 0.930 . S
H124 C132 0.930 . S
H125 C133 0.930 . S
H126 C136 0.930 . S
H127 C137 0.930 . S
C128 H122 0.930 . S
C128 C129 1.355 . S
C128 C130 1.415 . S
C129 C128 1.355 . S
C129 C131 1.419 . S
C130 C128 1.415 . S
C130 C135 1.425 . S
C130 C137 1.409 . S
C131 H123 0.930 . S
C131 C129 1.419 . S
C131 C132 1.362 . S
C132 H124 0.930 . S
C132 C131 1.362 . S
C132 C135 1.409 . S
C133 H125 0.930 . S
C133 C134 1.355 . S
C133 C135 1.415 . S
C134 C133 1.355 . S
C134 C136 1.419 . S
C135 C130 1.425 . S
C135 C132 1.409 . S
C135 C133 1.415 . S
C136 H126 0.930 . S
C136 C134 1.419 . S
C136 C137 1.362 . S
C137 H127 0.930 . S
C137 C130 1.409 . S
C137 C136 1.362 . S
H138 C144 0.930 . S
H139 C147 0.930 . S
H140 C148 0.930 . S
H141 C149 0.930 1_556 S
H142 C152 0.930 . S
H143 C153 0.930 . S
C144 H138 0.930 . S
C144 C145 1.355 . S
C144 C146 1.415 . S
C145 C144 1.355 . S
C145 C147 1.419 1_554 S
C146 C144 1.415 . S
C146 C151 1.425 . S
C146 C153 1.409 . S
C147 H139 0.930 . S
C147 C145 1.419 1_556 S
C147 C148 1.362 . S
C148 H140 0.930 . S
C148 C147 1.362 . S
C148 C151 1.409 1_556 S
C149 H141 0.930 1_554 S
C149 C150 1.355 . S
C149 C151 1.415 . S
C150 C149 1.355 . S
C150 C152 1.419 . S
C151 C146 1.425 . S
C151 C148 1.409 1_554 S
C151 C149 1.415 . S
C152 H142 0.930 . S
C152 C150 1.419 . S
C152 C153 1.362 . S
C153 H143 0.930 . S
C153 C146 1.409 . S
C153 C152 1.362 . S
H154 C160 0.930 . S
H155 C163 0.930 . S
H156 C164 0.930 . S
H157 C165 0.930 . S
H158 C168 0.930 . S
H159 C169 0.930 . S
C160 H154 0.930 . S
C160 C161 1.355 . S
C160 C162 1.415 . S
C161 C160 1.355 . S
C161 C163 1.419 . S
C162 C160 1.415 . S
C162 C167 1.425 . S
C162 C169 1.409 . S
C163 H155 0.930 . S
C163 C161 1.419 . S
C163 C164 1.362 . S
C164 H156 0.930 . S
C164 C163 1.362 . S
C164 C167 1.409 . S
C165 H157 0.930 . S
C165 C166 1.355 . S
C165 C167 1.415 . S
C166 C165 1.355 . S
C166 C168 1.419 . S
C167 C162 1.425 . S
C167 C164 1.409 . S
C167 C165 1.415 . S
C168 H158 0.930 . S
C168 C166 1.419 . S
C168 C169 1.362 . S
C169 H159 0.930 . S
C169 C162 1.409 . S
C169 C168 1.362 . S
H170 C176 0.930 . S
H171 C179 0.930 . S
H172 C180 0.930 . S
H173 C181 0.930 . S
H174 C184 0.930 . S
H175 C185 0.930 . S
C176 H170 0.930 . S
C176 C177 1.355 . S
C176 C178 1.415 . S
C177 C176 1.355 . S
C177 C179 1.419 . S
C178 C176 1.415 . S
C178 C183 1.425 . S
C178 C185 1.409 . S
C179 H171 0.930 . S
C179 C177 1.419 . S
C179 C180 1.362 . S
C180 H172 0.930 . S
C180 C179 1.362 . S
C180 C183 1.409 . S
C181 H173 0.930 . S
C181 C182 1.355 . S
C181 C183 1.415 . S
C182 C181 1.355 . S
C182 C184 1.419 . S
C183 C178 1.425 . S
C183 C180 1.409 . S
C183 C181 1.415 . S
C184 H174 0.930 . S
C184 C182 1.419 . S
C184 C185 1.362 . S
C185 H175 0.930 . S
C185 C178 1.409 . S
C185 C184 1.362 . S
H186 C192 0.930 . S
H187 C195 0.930 . S
H188 C196 0.930 . S
H189 C197 0.930 . S
H190 C200 0.930 . S
H191 C201 0.930 . S
C192 H186 0.930 . S
C192 C193 1.355 . S
C192 C194 1.415 . S
C193 C192 1.355 . S
C193 C195 1.419 . S
C194 C192 1.415 . S
C194 C199 1.425 . S
C194 C201 1.409 . S
C195 H187 0.930 . S
C195 C193 1.419 . S
C195 C196 1.362 . S
C196 H188 0.930 . S
C196 C195 1.362 . S
C196 C199 1.409 . S
C197 H189 0.930 . S
C197 C198 1.355 . S
C197 C199 1.415 . S
C198 C197 1.355 . S
C198 C200 1.419 . S
C199 C194 1.425 . S
C199 C196 1.409 . S
C199 C197 1.415 . S
C200 H190 0.930 . S
C200 C198 1.419 . S
C200 C201 1.362 . S
C201 H191 0.930 . S
C201 C194 1.409 . S
C201 C200 1.362 . S
H202 C208 0.930 . S
H203 C211 0.930 . S
H204 C212 0.930 . S
H205 C213 0.930 . S
H206 C216 0.930 . S
H207 C217 0.930 . S
C208 H202 0.930 . S
C208 C209 1.355 . S
C208 C210 1.415 . S
C209 C208 1.355 . S
C209 C211 1.419 . S
C210 C208 1.415 . S
C210 C215 1.425 . S
C210 C217 1.409 . S
C211 H203 0.930 . S
C211 C209 1.419 . S
C211 C212 1.362 . S
C212 H204 0.930 . S
C212 C211 1.362 . S
C212 C215 1.409 . S
C213 H205 0.930 . S
C213 C214 1.355 . S
C213 C215 1.415 . S
C214 C213 1.355 . S
C214 C216 1.419 . S
C215 C210 1.425 . S
C215 C212 1.409 . S
C215 C213 1.415 . S
C216 H206 0.930 . S
C216 C214 1.419 . S
C216 C217 1.362 . S
C217 H207 0.930 . S
C217 C210 1.409 . S
C217 C216 1.362 . S
H218 C224 0.930 . S
H219 C227 0.930 . S
H220 C228 0.930 . S
H221 C229 0.930 . S
H222 C232 0.930 . S
H223 C233 0.930 . S
C224 H218 0.930 . S
C224 C225 1.355 . S
C224 C226 1.415 . S
C225 C224 1.355 . S
C225 C227 1.419 . S
C226 C224 1.415 . S
C226 C231 1.425 . S
C226 C233 1.409 . S
C227 H219 0.930 . S
C227 C225 1.419 . S
C227 C228 1.362 . S
C228 H220 0.930 . S
C228 C227 1.362 . S
C228 C231 1.409 . S
C229 H221 0.930 . S
C229 C230 1.355 . S
C229 C231 1.415 . S
C230 C229 1.355 . S
C230 C232 1.419 . S
C231 C226 1.425 . S
C231 C228 1.409 . S
C231 C229 1.415 . S
C232 H222 0.930 . S
C232 C230 1.419 . S
C232 C233 1.362 . S
C233 H223 0.930 . S
C233 C226 1.409 . S
C233 C232 1.362 . S
H234 C240 0.930 . S
H235 C243 0.930 . S
H236 C244 0.930 . S
H237 C245 0.930 . S
H238 C248 0.930 . S
H239 C249 0.930 . S
C240 H234 0.930 . S
C240 C241 1.355 . S
C240 C242 1.415 . S
C241 C240 1.355 . S
C241 C243 1.419 . S
C242 C240 1.415 . S
C242 C247 1.425 . S
C242 C249 1.409 . S
C243 H235 0.930 . S
C243 C241 1.419 . S
C243 C244 1.362 . S
C244 H236 0.930 . S
C244 C243 1.362 . S
C244 C247 1.409 . S
C245 H237 0.930 . S
C245 C246 1.355 . S
C245 C247 1.415 . S
C246 C245 1.355 . S
C246 C248 1.419 . S
C247 C242 1.425 . S
C247 C244 1.409 . S
C247 C245 1.415 . S
C248 H238 0.930 . S
C248 C246 1.419 . S
C248 C249 1.362 . S
C249 H239 0.930 . S
C249 C242 1.409 . S
C249 C248 1.362 . S
H250 C256 0.930 . S
H251 C259 0.930 . S
H252 C260 0.930 . S
H253 C261 0.930 . S
H254 C264 0.930 . S
H255 C265 0.930 . S
C256 H250 0.930 . S
C256 C257 1.355 . S
C256 C258 1.415 . S
C257 C256 1.355 . S
C257 C259 1.419 . S
C258 C256 1.415 . S
C258 C263 1.425 . S
C258 C265 1.409 . S
C259 H251 0.930 . S
C259 C257 1.419 . S
C259 C260 1.362 . S
C260 H252 0.930 . S
C260 C259 1.362 . S
C260 C263 1.409 . S
C261 H253 0.930 . S
C261 C262 1.355 . S
C261 C263 1.415 . S
C262 C261 1.355 . S
C262 C264 1.419 . S
C263 C258 1.425 . S
C263 C260 1.409 . S
C263 C261 1.415 . S
C264 H254 0.930 . S
C264 C262 1.419 . S
C264 C265 1.362 . S
C265 H255 0.930 . S
C265 C258 1.409 . S
C265 C264 1.362 . S
H266 C272 0.930 . S
H267 C275 0.930 . S
H268 C276 0.930 . S
H269 C277 0.930 . S
H270 C280 0.930 . S
H271 C281 0.930 . S
C272 H266 0.930 . S
C272 C273 1.355 . S
C272 C274 1.415 . S
C273 C272 1.355 . S
C273 C275 1.419 . S
C274 C272 1.415 . S
C274 C279 1.425 . S
C274 C281 1.409 . S
C275 H267 0.930 . S
C275 C273 1.419 . S
C275 C276 1.362 . S
C276 H268 0.930 . S
C276 C275 1.362 . S
C276 C279 1.409 . S
C277 H269 0.930 . S
C277 C278 1.355 . S
C277 C279 1.415 . S
C278 C277 1.355 . S
C278 C280 1.419 . S
C279 C274 1.425 . S
C279 C276 1.409 . S
C279 C277 1.415 . S
C280 H270 0.930 . S
C280 C278 1.419 . S
C280 C281 1.362 . S
C281 H271 0.930 . S
C281 C274 1.409 . S
C281 C280 1.362 . S
C102 C61 1.477 . S
C97 N37 1.482 . S
C113 N4 1.483 . S
C118 C84 1.482 . S
C129 N15 1.502 . S
C134 C60 1.509 . S
C145 N26 1.517 . S
C150 C83 1.513 . S
C166 C64 1.514 . S
C161 C9 1.520 . S
C182 C86 1.525 . S
C177 C17 1.545 . S
C193 C31 1.510 . S
C198 C65 1.481 . S
C209 C42 1.500 . S
C214 C85 1.475 . S
C230 C88 1.449 . S
C225 C20 1.454 . S
C246 C63 1.380 . S
C241 C28 1.461 . S
C262 C87 1.371 . S
C257 C39 1.439 . S
C273 C6 1.462 . S
C278 C62 1.440 . S
