# Generated by pormake.
# Topology dag, (6,3)-cn, num edge types: 1
# Building blocks:
#     Node 0, Type 0, BuildingBlock: IZENUY_clean_sbu_0, # of connection points: 6
#     Node 1, Type 0, BuildingBlock: IZENUY_clean_sbu_0, # of connection points: 6
#     Node 2, Type 0, BuildingBlock: IZENUY_clean_sbu_0, # of connection points: 6
#     Node 3, Type 0, BuildingBlock: IZENUY_clean_sbu_0, # of connection points: 6
#     Node 4, Type 1, BuildingBlock: VETTIZ_charged_linker_0, # of connection points: 3
#     Node 5, Type 1, BuildingBlock: VETTIZ_charged_linker_0, # of connection points: 3
#     Node 6, Type 1, BuildingBlock: VETTIZ_charged_linker_0, # of connection points: 3
#     Node 7, Type 1, BuildingBlock: VETTIZ_charged_linker_0, # of connection points: 3
#     Node 8, Type 1, BuildingBlock: VETTIZ_charged_linker_0, # of connection points: 3
#     Node 9, Type 1, BuildingBlock: VETTIZ_charged_linker_0, # of connection points: 3
#     Node 10, Type 1, BuildingBlock: VETTIZ_charged_linker_0, # of connection points: 3
#     Node 11, Type 1, BuildingBlock: VETTIZ_charged_linker_0, # of connection points: 3
#     Edge 12, Type (0, 1), BuildingBlock: EZIPEK_clean_linker_0, # of connection points: 2
#     Edge 13, Type (0, 1), BuildingBlock: EZIPEK_clean_linker_0, # of connection points: 2
#     Edge 14, Type (0, 1), BuildingBlock: EZIPEK_clean_linker_0, # of connection points: 2
#     Edge 15, Type (0, 1), BuildingBlock: EZIPEK_clean_linker_0, # of connection points: 2
#     Edge 16, Type (0, 1), BuildingBlock: EZIPEK_clean_linker_0, # of connection points: 2
#     Edge 17, Type (0, 1), BuildingBlock: EZIPEK_clean_linker_0, # of connection points: 2
#     Edge 18, Type (0, 1), BuildingBlock: EZIPEK_clean_linker_0, # of connection points: 2
#     Edge 19, Type (0, 1), BuildingBlock: EZIPEK_clean_linker_0, # of connection points: 2
#     Edge 20, Type (0, 1), BuildingBlock: EZIPEK_clean_linker_0, # of connection points: 2
#     Edge 21, Type (0, 1), BuildingBlock: EZIPEK_clean_linker_0, # of connection points: 2
#     Edge 22, Type (0, 1), BuildingBlock: EZIPEK_clean_linker_0, # of connection points: 2
#     Edge 23, Type (0, 1), BuildingBlock: EZIPEK_clean_linker_0, # of connection points: 2
#     Edge 24, Type (0, 1), BuildingBlock: EZIPEK_clean_linker_0, # of connection points: 2
#     Edge 25, Type (0, 1), BuildingBlock: EZIPEK_clean_linker_0, # of connection points: 2
#     Edge 26, Type (0, 1), BuildingBlock: EZIPEK_clean_linker_0, # of connection points: 2
#     Edge 27, Type (0, 1), BuildingBlock: EZIPEK_clean_linker_0, # of connection points: 2
#     Edge 28, Type (0, 1), BuildingBlock: EZIPEK_clean_linker_0, # of connection points: 2
#     Edge 29, Type (0, 1), BuildingBlock: EZIPEK_clean_linker_0, # of connection points: 2
#     Edge 30, Type (0, 1), BuildingBlock: EZIPEK_clean_linker_0, # of connection points: 2
#     Edge 31, Type (0, 1), BuildingBlock: EZIPEK_clean_linker_0, # of connection points: 2
#     Edge 32, Type (0, 1), BuildingBlock: EZIPEK_clean_linker_0, # of connection points: 2
#     Edge 33, Type (0, 1), BuildingBlock: EZIPEK_clean_linker_0, # of connection points: 2
#     Edge 34, Type (0, 1), BuildingBlock: EZIPEK_clean_linker_0, # of connection points: 2
#     Edge 35, Type (0, 1), BuildingBlock: EZIPEK_clean_linker_0, # of connection points: 2
# Relax obj value: 0.264
# Max RMSD: 0.202
# Mean RMSD: 0.161
data_MOF--net-dag--node1-IZENUY_clean_sbu_0--node2-VETTIZ_charged_linker_0--edge1-EZIPEK_clean_linker_0
_symmetry_space_group_name_H-M    P1
_symmetry_Int_Tables_number       1
_symmetry_cell_setting            triclinic
loop_
_symmetry_equiv_pos_as_xyz
'x, y, z'
_cell_length_a     37.23304
_cell_length_b     37.239926
_cell_length_c     32.260484
_cell_angle_alpha  93.221916
_cell_angle_beta   86.739812
_cell_angle_gamma 87.701569
loop_
_atom_site_label
_atom_site_type_symbol
_atom_site_fract_x
_atom_site_fract_y
_atom_site_fract_z
_atom_type_partial_charge
Fe0 Fe 0.22885 0.82523 0.0805 0.0
Fe1 Fe 0.15439 0.84811 0.05249 0.0
O2 O 0.18403 0.81454 0.06973 0.0
Fe3 Fe 0.16905 0.7703 0.07624 0.0
O4 O 0.17829 0.77297 0.13092 0.0
O5 O 0.23248 0.79383 0.12208 0.0
O6 O 0.21323 0.85934 0.12059 0.0
C7 C 0.19186 0.88541 0.11473 0.0
C8 C 0.24028 0.75898 0.04058 0.0
O9 O 0.17286 0.88523 0.08337 0.0
C10 C 0.13748 0.78515 0.00449 0.0
O11 O 0.23368 0.85886 0.04092 0.0
O12 O 0.18406 0.85498 0.00766 0.0
O13 O 0.21322 0.74802 0.06104 0.0
O14 O 0.2473 0.79182 0.04128 0.0
C15 C 0.10829 0.81505 0.10556 0.0
O16 O 0.1304 0.81711 0.01888 0.0
O17 O 0.15851 0.76431 0.02205 0.0
C18 C 0.21594 0.86461 0.00944 0.0
O19 O 0.12242 0.84375 0.09587 0.0
O20 O 0.12207 0.78459 0.09247 0.0
C21 C 0.20841 0.77997 0.14454 0.0
Fe22 Fe 0.71196 0.6747 0.52377 0.0
Fe23 Fe 0.66317 0.73429 0.57173 0.0
O24 O 0.66913 0.69034 0.54662 0.0
Fe25 Fe 0.63174 0.66258 0.54428 0.0
O26 O 0.65378 0.62784 0.57168 0.0
O27 O 0.70706 0.62769 0.53796 0.0
O28 O 0.73354 0.68186 0.5722 0.0
C29 C 0.73265 0.71092 0.59403 0.0
C30 C 0.66888 0.64621 0.4655 0.0
O31 O 0.7093 0.73574 0.58921 0.0
C32 C 0.59904 0.72755 0.52967 0.0
O33 O 0.7236 0.71919 0.50584 0.0
O34 O 0.67578 0.75501 0.52398 0.0
O35 O 0.64561 0.63974 0.49382 0.0
O36 O 0.69479 0.66569 0.47292 0.0
C37 C 0.62466 0.69488 0.62611 0.0
O38 O 0.61584 0.74166 0.55897 0.0
O39 O 0.60699 0.69556 0.51629 0.0
C40 C 0.7043 0.74755 0.50171 0.0
O41 O 0.64988 0.71619 0.62121 0.0
O42 O 0.61114 0.67958 0.59491 0.0
C43 C 0.68445 0.6132 0.56212 0.0
Fe44 Fe 0.83313 0.22335 0.00569 0.0
Fe45 Fe 0.84339 0.14793 0.03642 0.0
O46 O 0.81486 0.18169 0.01823 0.0
Fe47 Fe 0.76848 0.17426 0.01333 0.0
O48 O 0.77193 0.18266 0.95835 0.0
O49 O 0.80169 0.23228 0.96528 0.0
O50 O 0.86327 0.20141 0.96515 0.0
C51 C 0.88566 0.17635 0.9715 0.0
C52 C 0.76995 0.24616 0.04732 0.0
O53 O 0.88351 0.15979 0.00472 0.0
C54 C 0.77901 0.14193 0.08606 0.0
O55 O 0.8686 0.22217 0.04356 0.0
O56 O 0.85337 0.17734 0.0804 0.0
O57 O 0.75408 0.2213 0.02816 0.0
O58 O 0.80382 0.24751 0.04538 0.0
C59 C 0.80353 0.10742 0.98475 0.0
O60 O 0.8091 0.12934 0.07067 0.0
O61 O 0.76117 0.16529 0.06809 0.0
C62 C 0.87089 0.20513 0.07627 0.0
O63 O 0.83437 0.11667 0.99401 0.0
O64 O 0.7753 0.12583 0.99776 0.0
C65 C 0.78307 0.21126 0.94404 0.0
Fe66 Fe 0.36391 0.34902 0.54231 0.0
Fe67 Fe 0.28581 0.33143 0.56583 0.0
O68 O 0.32912 0.31835 0.54294 0.0
Fe69 Fe 0.33698 0.27403 0.52062 0.0
O70 O 0.37116 0.26399 0.55636 0.0
O71 O 0.3993 0.31478 0.55038 0.0
O72 O 0.36022 0.35667 0.59824 0.0
C73 C 0.33214 0.36753 0.61937 0.0
C74 C 0.37779 0.31502 0.46541 0.0
O75 O 0.30147 0.36429 0.60501 0.0
C76 C 0.27063 0.28792 0.49436 0.0
O77 O 0.3338 0.38794 0.53418 0.0
O78 O 0.27964 0.36619 0.52931 0.0
O79 O 0.37117 0.28528 0.48049 0.0
O80 O 0.37083 0.34418 0.48631 0.0
C81 C 0.2933 0.26429 0.59365 0.0
O82 O 0.26137 0.30111 0.53073 0.0
O83 O 0.30348 0.2824 0.48352 0.0
C84 C 0.30169 0.39049 0.52297 0.0
O85 O 0.29034 0.29753 0.60372 0.0
O86 O 0.30436 0.2537 0.55689 0.0
C87 C 0.39796 0.28286 0.56209 0.0
C88 C 0.16443 0.04342 0.22547 0.0
C89 C 0.15999 0.02599 0.18655 0.0
C90 C 0.14147 0.04398 0.15651 0.0
C91 C 0.12945 0.09538 0.20533 0.0
C92 C 0.14917 0.07825 0.23407 0.0
C93 C 0.1511 0.10096 0.27387 0.0
H94 H 0.14326 0.26754 0.36099 0.0
C95 C 0.11531 0.1303 0.22474 0.0
C96 C 0.12805 0.13399 0.26474 0.0
H97 H 0.18439 0.17006 0.41162 0.0
H98 H 0.15613 0.13413 0.3591 0.0
H99 H 0.14262 0.25145 0.26046 0.0
H100 H 0.06709 0.237 0.36079 0.0
H101 H 0.04317 0.22265 0.31729 0.0
H102 H 0.05705 0.26846 0.32322 0.0
H103 H 0.11918 0.28419 0.29665 0.0
H104 H 0.09752 0.26701 0.25198 0.0
C105 C 0.19109 0.10949 0.2783 0.0
C106 C 0.1343 0.08056 0.31031 0.0
C107 C 0.02112 0.20162 0.15444 0.0
C108 C 0.99496 0.22725 0.17157 0.0
C109 C 0.00128 0.24681 0.20891 0.0
C110 C 0.03224 0.23883 0.23034 0.0
C111 C 0.056 0.21023 0.21502 0.0
C112 C 0.05019 0.19214 0.17756 0.0
C113 C 0.07288 0.15778 0.17041 0.0
C114 C 0.09213 0.15751 0.21049 0.0
C115 C 0.08329 0.18895 0.23565 0.0
C116 C 0.0993 0.16168 0.13225 0.0
C117 C 0.04743 0.12588 0.1659 0.0
C118 C 0.1459 0.23847 0.36073 0.0
C119 C 0.16786 0.22147 0.38864 0.0
C120 C 0.16885 0.1836 0.38925 0.0
C121 C 0.15294 0.16284 0.35858 0.0
C122 C 0.135 0.18016 0.32787 0.0
C123 C 0.12851 0.21701 0.33151 0.0
C124 C 0.10129 0.22897 0.30156 0.0
C125 C 0.09888 0.1943 0.27448 0.0
C126 C 0.11962 0.16618 0.28971 0.0
C127 C 0.11597 0.25967 0.27619 0.0
C128 C 0.06532 0.23986 0.32681 0.0
H129 H 0.11205 0.09085 0.14167 0.0
H130 H 0.17869 0.02988 0.24888 0.0
H131 H 0.1152 0.06038 0.29928 0.0
H132 H 0.11796 0.09873 0.33306 0.0
H133 H 0.15536 0.066 0.32672 0.0
H134 H 0.2023 0.1214 0.24972 0.0
H135 H 0.2074 0.08453 0.28288 0.0
H136 H 0.19545 0.12875 0.30441 0.0
H137 H 0.01625 0.18569 0.1263 0.0
H138 H 0.98121 0.2664 0.22278 0.0
H139 H 0.03555 0.25351 0.25923 0.0
H140 H 0.10744 0.18999 0.13032 0.0
H141 H 0.08678 0.15382 0.10283 0.0
H142 H 0.12486 0.1458 0.13393 0.0
H143 H 0.02289 0.13055 0.18713 0.0
H144 H 0.05934 0.10004 0.1747 0.0
H145 H 0.03863 0.12241 0.13365 0.0
H146 H 0.13799 0.03069 0.12634 0.0
C147 C 0.12633 0.0787 0.1656 0.0
C148 C 0.37004 0.47198 0.78692 0.0
C149 C 0.38641 0.45326 0.75137 0.0
C150 C 0.42216 0.45988 0.73869 0.0
C151 C 0.4227 0.50803 0.79217 0.0
C152 C 0.38865 0.49941 0.80673 0.0
C153 C 0.37369 0.52532 0.84149 0.0
H154 H 0.38087 0.68674 0.94555 0.0
C155 C 0.43238 0.54132 0.81519 0.0
C156 C 0.4041 0.55123 0.84475 0.0
H157 H 0.29742 0.61003 0.95442 0.0
H158 H 0.33416 0.56644 0.91038 0.0
H159 H 0.4483 0.63044 0.95227 0.0
H160 H 0.39801 0.67279 0.84731 0.0
H161 H 0.4449 0.67606 0.83987 0.0
H162 H 0.42159 0.6997 0.88394 0.0
H163 H 0.45777 0.67426 0.93512 0.0
H164 H 0.4828 0.63428 0.91348 0.0
C165 C 0.36832 0.50426 0.88127 0.0
C166 C 0.33879 0.5438 0.82711 0.0
C167 C 0.53615 0.6117 0.75848 0.0
C168 C 0.54826 0.64586 0.76965 0.0
C169 C 0.53581 0.66341 0.80781 0.0
C170 C 0.50895 0.6484 0.83284 0.0
C171 C 0.49434 0.61584 0.81915 0.0
C172 C 0.50929 0.59712 0.78372 0.0
C173 C 0.49086 0.56266 0.77432 0.0
C174 C 0.46132 0.56454 0.80898 0.0
C175 C 0.46296 0.59622 0.83447 0.0
C176 C 0.51825 0.5307 0.77811 0.0
C177 C 0.47546 0.56467 0.73078 0.0
C178 C 0.37099 0.6603 0.93825 0.0
C179 C 0.33645 0.65149 0.9528 0.0
C180 C 0.32402 0.61707 0.9431 0.0
C181 C 0.34532 0.59201 0.91749 0.0
C182 C 0.37901 0.60187 0.90087 0.0
C183 C 0.39177 0.63514 0.91224 0.0
C184 C 0.42782 0.64121 0.89094 0.0
C185 C 0.43441 0.60624 0.86451 0.0
C186 C 0.40544 0.58358 0.87002 0.0
C187 C 0.45576 0.64556 0.92448 0.0
C188 C 0.42322 0.67421 0.86417 0.0
H189 H 0.46726 0.49176 0.74716 0.0
H190 H 0.34242 0.46733 0.79687 0.0
H191 H 0.34172 0.54905 0.79349 0.0
H192 H 0.33213 0.57043 0.84289 0.0
H193 H 0.31541 0.52654 0.83164 0.0
H194 H 0.38906 0.48196 0.88186 0.0
H195 H 0.3415 0.49222 0.88307 0.0
H196 H 0.37154 0.52112 0.91004 0.0
H197 H 0.54575 0.59777 0.72932 0.0
H198 H 0.54517 0.68974 0.8168 0.0
H199 H 0.49925 0.6636 0.86074 0.0
H200 H 0.53952 0.53797 0.79958 0.0
H201 H 0.53191 0.52205 0.74747 0.0
H202 H 0.50556 0.50731 0.79169 0.0
H203 H 0.46279 0.5918 0.72718 0.0
H204 H 0.45414 0.54567 0.72511 0.0
H205 H 0.49709 0.55965 0.70572 0.0
H206 H 0.43504 0.44549 0.71133 0.0
C207 C 0.44058 0.48694 0.75923 0.0
C208 C 0.75882 0.86666 0.36376 0.0
C209 C 0.77085 0.83441 0.38011 0.0
C210 C 0.80435 0.81826 0.36589 0.0
C211 C 0.81354 0.86593 0.31893 0.0
C212 C 0.78061 0.88193 0.33306 0.0
C213 C 0.77215 0.91579 0.3113 0.0
H214 H 0.82233 0.03164 0.16517 0.0
C215 C 0.82949 0.88806 0.28676 0.0
C216 C 0.80548 0.91743 0.28203 0.0
H217 H 0.72458 0.038 0.24413 0.0
H218 H 0.74394 0.98378 0.27704 0.0
H219 H 0.87461 0.01278 0.235 0.0
H220 H 0.82364 0.94623 0.14432 0.0
H221 H 0.86834 0.92956 0.14565 0.0
H222 H 0.8596 0.97492 0.13096 0.0
H223 H 0.8906 0.00863 0.18137 0.0
H224 H 0.90606 0.97783 0.2185 0.0
C225 C 0.7689 0.94781 0.34419 0.0
C226 C 0.73776 0.91015 0.28738 0.0
C227 C 0.95043 0.84809 0.21438 0.0
C228 C 0.97214 0.86309 0.18348 0.0
C229 C 0.96103 0.89585 0.1675 0.0
C230 C 0.92838 0.91344 0.1819 0.0
C231 C 0.9066 0.89805 0.2126 0.0
C232 C 0.91794 0.86613 0.22861 0.0
C233 C 0.89159 0.85409 0.26145 0.0
C234 C 0.86241 0.88388 0.26224 0.0
C235 C 0.87124 0.90936 0.23342 0.0
C236 C 0.9106 0.85375 0.303 0.0
C237 C 0.87785 0.81719 0.24603 0.0
C238 C 0.80517 0.02121 0.18956 0.0
C239 C 0.77196 0.03858 0.20212 0.0
C240 C 0.75023 0.02466 0.23404 0.0
C241 C 0.76155 0.99332 0.25295 0.0
C242 C 0.79492 0.97595 0.23973 0.0
C243 C 0.81608 0.99018 0.20861 0.0
C244 C 0.85074 0.96873 0.19841 0.0
C245 C 0.84703 0.93898 0.22829 0.0
C246 C 0.8143 0.94314 0.25246 0.0
C247 C 0.88233 0.99308 0.20845 0.0
C248 C 0.851 0.95416 0.1524 0.0
H249 H 0.85103 0.82018 0.32588 0.0
H250 H 0.733 0.87937 0.37437 0.0
H251 H 0.73783 0.88227 0.27301 0.0
H252 H 0.73553 0.92785 0.26128 0.0
H253 H 0.71318 0.91438 0.30856 0.0
H254 H 0.78954 0.94483 0.36753 0.0
H255 H 0.742 0.94935 0.36111 0.0
H256 H 0.77376 0.97389 0.33073 0.0
H257 H 0.95853 0.82284 0.22695 0.0
H258 H 0.97756 0.90758 0.14351 0.0
H259 H 0.92127 0.93819 0.16831 0.0
H260 H 0.93058 0.87514 0.30496 0.0
H261 H 0.92524 0.82755 0.3061 0.0
H262 H 0.89187 0.85968 0.33057 0.0
H263 H 0.87556 0.81584 0.21174 0.0
H264 H 0.85052 0.81219 0.25893 0.0
H265 H 0.89656 0.79475 0.25335 0.0
H266 H 0.81381 0.7934 0.37835 0.0
C267 C 0.8258 0.83387 0.33547 0.0
C268 C 0.70902 0.26026 0.77401 0.0
C269 C 0.73715 0.27471 0.79564 0.0
C270 C 0.75206 0.30688 0.78336 0.0
C271 C 0.70893 0.3111 0.73001 0.0
C272 C 0.69527 0.27888 0.74159 0.0
C273 C 0.66343 0.26852 0.71783 0.0
H274 H 0.5377 0.31325 0.58551 0.0
C275 C 0.6868 0.3247 0.6971 0.0
C276 C 0.66024 0.29964 0.68981 0.0
H277 H 0.54238 0.22027 0.65921 0.0
H278 H 0.60063 0.237 0.6825 0.0
H279 H 0.55979 0.36637 0.65277 0.0
H280 H 0.62285 0.30946 0.55268 0.0
H281 H 0.64083 0.35223 0.55776 0.0
H282 H 0.59447 0.34826 0.54491 0.0
H283 H 0.55871 0.37863 0.59986 0.0
H284 H 0.59056 0.39697 0.63443 0.0
C285 C 0.63036 0.26736 0.74925 0.0
C286 C 0.6733 0.2325 0.69264 0.0
C287 C 0.70688 0.44808 0.64014 0.0
C288 C 0.68813 0.4677 0.61153 0.0
C289 C 0.66028 0.45164 0.59056 0.0
C290 C 0.65022 0.41695 0.59876 0.0
C291 C 0.6679 0.3981 0.62867 0.0
C292 C 0.69616 0.41327 0.64836 0.0
C293 C 0.71141 0.38879 0.67934 0.0
C294 C 0.68733 0.35682 0.67516 0.0
C295 C 0.66179 0.36278 0.64565 0.0
C296 C 0.70647 0.40846 0.723 0.0
C297 C 0.75102 0.37843 0.66506 0.0
C298 C 0.55185 0.29618 0.60592 0.0
C299 C 0.53604 0.26555 0.62069 0.0
C300 C 0.55455 0.24394 0.64756 0.0
C301 C 0.58807 0.25392 0.66116 0.0
C302 C 0.60271 0.286 0.64806 0.0
C303 C 0.58496 0.30604 0.62015 0.0
C304 C 0.60341 0.34004 0.61094 0.0
C305 C 0.63494 0.33756 0.63853 0.0
C306 C 0.63436 0.30599 0.66022 0.0
C307 C 0.57693 0.37236 0.62482 0.0
C308 C 0.61592 0.33777 0.56414 0.0
H309 H 0.75018 0.34979 0.74275 0.0
H310 H 0.69708 0.23567 0.78329 0.0
H311 H 0.70175 0.2318 0.6799 0.0
H312 H 0.65715 0.22844 0.66522 0.0
H313 H 0.67026 0.20927 0.71251 0.0
H314 H 0.63246 0.28682 0.77639 0.0
H315 H 0.62802 0.24018 0.7614 0.0
H316 H 0.60475 0.27543 0.73603 0.0
H317 H 0.72859 0.45993 0.65638 0.0
H318 H 0.64583 0.46637 0.5682 0.0
H319 H 0.62843 0.40654 0.58211 0.0
H320 H 0.67996 0.42353 0.72695 0.0
H321 H 0.72776 0.42812 0.72763 0.0
H322 H 0.70641 0.38997 0.74851 0.0
H323 H 0.75415 0.37421 0.6306 0.0
H324 H 0.76062 0.35278 0.67702 0.0
H325 H 0.76915 0.39999 0.67456 0.0
H326 H 0.77382 0.31825 0.79995 0.0
C327 C 0.73818 0.32511 0.75042 0.0
C328 C 0.63927 0.532 0.30387 0.0
C329 C 0.6245 0.54925 0.34113 0.0
C330 C 0.59171 0.53802 0.35885 0.0
C331 C 0.59055 0.49049 0.3048 0.0
C332 C 0.62217 0.50228 0.28668 0.0
C333 C 0.63646 0.47781 0.2503 0.0
H334 H 0.6347 0.31569 0.14711 0.0
C335 C 0.58136 0.45718 0.28157 0.0
C336 C 0.60807 0.44957 0.24953 0.0
H337 H 0.71121 0.39855 0.13142 0.0
H338 H 0.67376 0.43988 0.17761 0.0
H339 H 0.61967 0.32801 0.24477 0.0
H340 H 0.56324 0.36977 0.14366 0.0
H341 H 0.53063 0.36327 0.18376 0.0
H342 H 0.55701 0.32501 0.15981 0.0
H343 H 0.59569 0.30047 0.20913 0.0
H344 H 0.57316 0.32301 0.2545 0.0
C345 C 0.6738 0.46202 0.26096 0.0
C346 C 0.63703 0.49956 0.21074 0.0
C347 C 0.47761 0.38613 0.33659 0.0
C348 C 0.46533 0.35213 0.32515 0.0
C349 C 0.47934 0.33375 0.28809 0.0
C350 C 0.50713 0.34833 0.26395 0.0
C351 C 0.52105 0.38132 0.27744 0.0
C352 C 0.50537 0.40019 0.3124 0.0
C353 C 0.5238 0.43443 0.32263 0.0
C354 C 0.55341 0.43296 0.28824 0.0
C355 C 0.55206 0.40156 0.26226 0.0
C356 C 0.53897 0.43195 0.36633 0.0
C357 C 0.49644 0.46636 0.31891 0.0
C358 C 0.64291 0.34294 0.1535 0.0
C359 C 0.67582 0.35414 0.13658 0.0
C360 C 0.68593 0.38967 0.1447 0.0
C361 C 0.66432 0.41337 0.17163 0.0
C362 C 0.63263 0.4011 0.19085 0.0
C363 C 0.62163 0.36691 0.18042 0.0
C364 C 0.58682 0.35886 0.20332 0.0
C365 C 0.57965 0.39327 0.23058 0.0
C366 C 0.60695 0.4176 0.22361 0.0
C367 C 0.59385 0.32577 0.22924 0.0
C368 C 0.5578 0.35367 0.17119 0.0
H369 H 0.54991 0.50136 0.3561 0.0
H370 H 0.66439 0.5404 0.28967 0.0
H371 H 0.61442 0.52015 0.21248 0.0
H372 H 0.63319 0.48259 0.18223 0.0
H373 H 0.66251 0.51384 0.20673 0.0
H374 H 0.67383 0.45619 0.29442 0.0
H375 H 0.69522 0.48128 0.2548 0.0
H376 H 0.68158 0.43608 0.24413 0.0
H377 H 0.46722 0.40049 0.3652 0.0
H378 H 0.47007 0.3074 0.2791 0.0
H379 H 0.51774 0.33268 0.23674 0.0
H380 H 0.54565 0.40354 0.37304 0.0
H381 H 0.51915 0.44316 0.39122 0.0
H382 H 0.56459 0.44555 0.36928 0.0
H383 H 0.47919 0.46112 0.29234 0.0
H384 H 0.50949 0.49173 0.31239 0.0
H385 H 0.47841 0.47074 0.34753 0.0
H386 H 0.5798 0.55139 0.38736 0.0
C387 C 0.57449 0.50897 0.34069 0.0
C388 C 0.19738 0.16216 0.71329 0.0
C389 C 0.23495 0.16086 0.7057 0.0
C390 C 0.25605 0.13545 0.7256 0.0
C391 C 0.20221 0.1132 0.75947 0.0
C392 C 0.18184 0.13917 0.74127 0.0
C393 C 0.14341 0.14181 0.75844 0.0
H394 H 0.01732 0.0881 0.89774 0.0
C395 C 0.17775 0.09411 0.78748 0.0
C396 C 0.14341 0.11126 0.78755 0.0
H397 H 0.01185 0.18052 0.82322 0.0
H398 H 0.06924 0.16172 0.78744 0.0
H399 H 0.04823 0.03179 0.82577 0.0
H400 H 0.09848 0.09484 0.91964 0.0
H401 H 0.11683 0.05044 0.91869 0.0
H402 H 0.06935 0.05859 0.92957 0.0
H403 H 0.05353 0.01562 0.87641 0.0
H404 H 0.08777 0.00675 0.83466 0.0
C405 C 0.11858 0.13471 0.72231 0.0
C406 C 0.13641 0.17922 0.78209 0.0
C407 C 0.22337 0.98551 0.86212 0.0
C408 C 0.20563 0.96314 0.88961 0.0
C409 C 0.16809 0.96711 0.89705 0.0
C410 C 0.14843 0.99428 0.87925 0.0
C411 C 0.16654 0.01803 0.85403 0.0
C412 C 0.20316 0.01285 0.84457 0.0
C413 C 0.21727 0.04081 0.81653 0.0
C414 C 0.18303 0.06337 0.81098 0.0
C415 C 0.15372 0.05021 0.83387 0.0
C416 C 0.2323 0.0213 0.77524 0.0
C417 C 0.24535 0.06261 0.83977 0.0
C418 C 0.02853 0.1039 0.87335 0.0
C419 C 0.01073 0.13575 0.86316 0.0
C420 C 0.0256 0.15596 0.83142 0.0
C421 C 0.05893 0.1452 0.81115 0.0
C422 C 0.07765 0.11437 0.82343 0.0
C423 C 0.06202 0.09385 0.85338 0.0
C424 C 0.08611 0.06255 0.86329 0.0
C425 C 0.11962 0.06883 0.83603 0.0
C426 C 0.11444 0.09907 0.81272 0.0
C427 C 0.06809 0.02726 0.84966 0.0
C428 C 0.09309 0.06644 0.91025 0.0
H429 H 0.25719 0.09228 0.76588 0.0
H430 H 0.18058 0.182 0.69929 0.0
H431 H 0.16188 0.1919 0.79009 0.0
H432 H 0.12135 0.17745 0.81245 0.0
H433 H 0.1216 0.19825 0.76318 0.0
H434 H 0.12893 0.11083 0.70225 0.0
H435 H 0.11722 0.15815 0.70253 0.0
H436 H 0.09092 0.12877 0.73326 0.0
H437 H 0.25229 0.98279 0.85606 0.0
H438 H 0.15415 0.94986 0.91801 0.0
H439 H 0.12005 0.99648 0.88702 0.0
H440 H 0.21292 0.00163 0.76372 0.0
H441 H 0.25806 0.00628 0.77966 0.0
H442 H 0.23686 0.03972 0.75007 0.0
H443 H 0.23934 0.06371 0.87401 0.0
H444 H 0.24518 0.09112 0.83184 0.0
H445 H 0.27294 0.05035 0.8334 0.0
H446 H 0.28511 0.13446 0.72079 0.0
C447 C 0.23982 0.11116 0.75182 0.0
C448 C 0.25489 0.70737 0.31835 0.0
C449 C 0.26475 0.73822 0.2982 0.0
C450 C 0.29322 0.75831 0.31261 0.0
C451 C 0.30384 0.71489 0.36428 0.0
C452 C 0.27501 0.69599 0.35091 0.0
C453 C 0.27069 0.6616 0.37255 0.0
H454 H 0.33634 0.54021 0.50008 0.0
C455 C 0.32119 0.69402 0.39589 0.0
C456 C 0.3019 0.66272 0.40077 0.0
H457 H 0.24265 0.53273 0.42781 0.0
H458 H 0.25103 0.59287 0.40485 0.0
H459 H 0.38514 0.5722 0.43218 0.0
H460 H 0.32077 0.62535 0.53429 0.0
H461 H 0.36225 0.64631 0.53124 0.0
H462 H 0.36129 0.59915 0.54119 0.0
H463 H 0.39878 0.57251 0.48463 0.0
H464 H 0.41 0.608 0.45095 0.0
C465 C 0.27518 0.62975 0.33925 0.0
C466 C 0.23389 0.66421 0.39769 0.0
C467 C 0.43591 0.73716 0.45736 0.0
C468 C 0.46032 0.7209 0.48298 0.0
C469 C 0.45223 0.68793 0.49985 0.0
C470 C 0.42074 0.6707 0.49039 0.0
C471 C 0.39722 0.68639 0.46333 0.0
C472 C 0.40484 0.71918 0.44746 0.0
C473 C 0.37782 0.73062 0.41728 0.0
C474 C 0.35249 0.69962 0.41824 0.0
C475 C 0.36401 0.67384 0.4453 0.0
C476 C 0.39784 0.73273 0.374 0.0
C477 C 0.35885 0.76645 0.43484 0.0
C478 C 0.31746 0.55197 0.47979 0.0
C479 C 0.28876 0.53228 0.46569 0.0
C480 C 0.2648 0.54783 0.43898 0.0
C481 C 0.26987 0.58256 0.42566 0.0
C482 C 0.29948 0.60163 0.43882 0.0
C483 C 0.32236 0.58648 0.46594 0.0
C484 C 0.35282 0.61024 0.47589 0.0
C485 C 0.34457 0.64213 0.45015 0.0
C486 C 0.31346 0.63682 0.42836 0.0
C487 C 0.3887 0.58985 0.46051 0.0
C488 C 0.34951 0.62078 0.52313 0.0
H489 H 0.33454 0.76295 0.35492 0.0
H490 H 0.2332 0.69145 0.30747 0.0
H491 H 0.22787 0.69206 0.41134 0.0
H492 H 0.23322 0.64707 0.42455 0.0
H493 H 0.21169 0.65712 0.37756 0.0
H494 H 0.29486 0.63575 0.31356 0.0
H495 H 0.24923 0.62422 0.3253 0.0
H496 H 0.2862 0.60474 0.35139 0.0
H497 H 0.44173 0.76247 0.44397 0.0
H498 H 0.47074 0.67522 0.51985 0.0
H499 H 0.41637 0.64543 0.50382 0.0
H500 H 0.42151 0.71338 0.37005 0.0
H501 H 0.40781 0.76008 0.36976 0.0
H502 H 0.38106 0.72513 0.34801 0.0
H503 H 0.35274 0.76577 0.46895 0.0
H504 H 0.33264 0.77182 0.42152 0.0
H505 H 0.37622 0.78951 0.42953 0.0
H506 H 0.30101 0.7822 0.2973 0.0
C507 C 0.31269 0.74693 0.34578 0.0
C508 C 0.82789 0.94593 0.88275 0.0
C509 C 0.84283 0.9694 0.91189 0.0
C510 C 0.87628 0.96016 0.9275 0.0
C511 C 0.8798 0.90448 0.88469 0.0
C512 C 0.84694 0.91379 0.86944 0.0
C513 C 0.83547 0.88609 0.83781 0.0
H514 H 0.86942 0.7303 0.72201 0.0
C515 C 0.89249 0.86936 0.86436 0.0
C516 C 0.86676 0.85854 0.83677 0.0
H517 H 0.77791 0.80531 0.72215 0.0
H518 H 0.80198 0.84249 0.77642 0.0
H519 H 0.93041 0.79046 0.73074 0.0
H520 H 0.87283 0.7331 0.8245 0.0
H521 H 0.91827 0.73448 0.83644 0.0
H522 H 0.90667 0.71115 0.78887 0.0
H523 H 0.93729 0.74285 0.73525 0.0
H524 H 0.96093 0.77488 0.76618 0.0
C525 C 0.83295 0.90419 0.79582 0.0
C526 C 0.79984 0.87071 0.85496 0.0
C527 C 0.00966 0.81106 0.9045 0.0
C528 C 0.02828 0.77844 0.89234 0.0
C529 C 0.01474 0.75532 0.86147 0.0
C530 C 0.98246 0.76465 0.84326 0.0
C531 C 0.96371 0.79735 0.85623 0.0
C532 C 0.97761 0.81992 0.88627 0.0
C533 C 0.95432 0.85336 0.89681 0.0
C534 C 0.9238 0.84717 0.86851 0.0
C535 C 0.92931 0.8144 0.84467 0.0
C536 C 0.97617 0.88625 0.88494 0.0
C537 C 0.94145 0.85359 0.9434 0.0
C538 C 0.85478 0.7547 0.73418 0.0
C539 C 0.82185 0.76524 0.71822 0.0
C540 C 0.80328 0.79699 0.73432 0.0
C541 C 0.81738 0.8185 0.7657 0.0
C542 C 0.85053 0.80821 0.78115 0.0
C543 C 0.86861 0.77665 0.7658 0.0
C544 C 0.90336 0.77027 0.78668 0.0
C545 C 0.90334 0.80357 0.81628 0.0
C546 C 0.87225 0.82555 0.81268 0.0
C547 C 0.93484 0.76929 0.75314 0.0
C548 C 0.90051 0.73533 0.81024 0.0
H549 H 0.92023 0.92226 0.9271 0.0
H550 H 0.80211 0.95259 0.87053 0.0
H551 H 0.79935 0.86956 0.88938 0.0
H552 H 0.79629 0.84266 0.8434 0.0
H553 H 0.77617 0.88774 0.8475 0.0
H554 H 0.853 0.9254 0.79267 0.0
H555 H 0.80585 0.91717 0.7932 0.0
H556 H 0.83934 0.88529 0.76852 0.0
H557 H 0.01966 0.82912 0.9283 0.0
H558 H 0.02896 0.73 0.85191 0.0
H559 H 0.97322 0.74602 0.82002 0.0
H560 H 0.99513 0.87932 0.85747 0.0
H561 H 0.99235 0.89583 0.91092 0.0
H562 H 0.95904 0.90892 0.87545 0.0
H563 H 0.93598 0.82587 0.95256 0.0
H564 H 0.91585 0.86919 0.95084 0.0
H565 H 0.96221 0.86427 0.96362 0.0
H566 H 0.88793 0.97808 0.95021 0.0
C567 C 0.89488 0.92782 0.91406 0.0
C568 C 0.21596 0.94298 0.14425 0.0
C569 C 0.18863 0.91758 0.14408 0.0
C570 C 0.14651 0.96087 0.18319 0.0
C571 C 0.17198 0.9878 0.17779 0.0
N572 N 0.23109 0.00557 0.15534 0.0
N573 N 0.13333 0.89764 0.17478 0.0
C574 C 0.2071 0.979 0.15975 0.0
C575 C 0.15549 0.92516 0.1672 0.0
N576 N 0.25027 0.93245 0.13013 0.0
N577 N 0.11322 0.96999 0.20188 0.0
H578 H 0.14074 0.87111 0.16509 0.0
H579 H 0.10966 0.90013 0.19363 0.0
H580 H 0.10642 0.99554 0.21573 0.0
H581 H 0.0918 0.95292 0.20264 0.0
H582 H 0.27226 0.94868 0.13237 0.0
H583 H 0.25739 0.90619 0.11891 0.0
H584 H 0.25562 0.0022 0.13817 0.0
H585 H 0.22573 0.0319 0.1676 0.0
C586 C 0.62616 0.67691 0.70054 0.0
C587 C 0.6066 0.69105 0.66806 0.0
C588 C 0.54997 0.6853 0.70975 0.0
C589 C 0.56908 0.66526 0.7381 0.0
N590 N 0.62485 0.64097 0.76114 0.0
N591 N 0.54997 0.71133 0.64279 0.0
C592 C 0.60711 0.66117 0.73401 0.0
C593 C 0.56851 0.69638 0.67331 0.0
N594 N 0.66275 0.67858 0.69965 0.0
N595 N 0.51401 0.69369 0.71773 0.0
H596 H 0.5629 0.72289 0.61781 0.0
H597 H 0.52213 0.71131 0.64128 0.0
H598 H 0.49914 0.68498 0.74333 0.0
H599 H 0.49926 0.71151 0.70088 0.0
H600 H 0.6781 0.67182 0.72428 0.0
H601 H 0.67769 0.68976 0.67583 0.0
H602 H 0.65199 0.63298 0.75688 0.0
H603 H 0.61178 0.63031 0.78686 0.0
C604 C 0.78172 0.12992 0.161 0.0
C605 C 0.76396 0.12522 0.12349 0.0
C606 C 0.74035 0.06855 0.14573 0.0
C607 C 0.76115 0.07149 0.18117 0.0
N608 N 0.79213 0.10871 0.22943 0.0
N609 N 0.71725 0.09738 0.0863 0.0
C610 C 0.77837 0.10376 0.19126 0.0
C611 C 0.73976 0.09715 0.11827 0.0
N612 N 0.80333 0.15839 0.16637 0.0
N613 N 0.72337 0.03743 0.13688 0.0
H614 H 0.71673 0.11796 0.0657 0.0
H615 H 0.69707 0.07916 0.0824 0.0
H616 H 0.72245 0.01652 0.15706 0.0
H617 H 0.71158 0.03161 0.10893 0.0
H618 H 0.82065 0.16135 0.19042 0.0
H619 H 0.80453 0.17879 0.14554 0.0
H620 H 0.80292 0.13259 0.24018 0.0
H621 H 0.78985 0.08964 0.25184 0.0
C622 C 0.45603 0.24598 0.558 0.0
C623 C 0.42938 0.26763 0.58193 0.0
C624 C 0.47039 0.27793 0.63729 0.0
C625 C 0.49823 0.25947 0.61164 0.0
N626 N 0.51688 0.2188 0.55324 0.0
N627 N 0.40648 0.29327 0.64855 0.0
C628 C 0.49065 0.2408 0.57386 0.0
C629 C 0.43508 0.27993 0.62314 0.0
N630 N 0.44846 0.23175 0.51966 0.0
N631 N 0.47825 0.29526 0.67396 0.0
H632 H 0.38026 0.29395 0.63869 0.0
H633 H 0.40802 0.30015 0.68009 0.0
H634 H 0.50357 0.29316 0.68611 0.0
H635 H 0.46028 0.31299 0.6915 0.0
H636 H 0.4674 0.21863 0.49853 0.0
H637 H 0.42279 0.23386 0.50843 0.0
H638 H 0.51303 0.2027 0.52661 0.0
H639 H 0.54233 0.21484 0.56462 0.0
C640 C 0.68863 0.59896 0.40967 0.0
C641 C 0.6655 0.62883 0.42348 0.0
C642 C 0.62497 0.613 0.36882 0.0
C643 C 0.64295 0.57874 0.36294 0.0
N644 N 0.69188 0.53807 0.37914 0.0
N645 N 0.61325 0.66664 0.41409 0.0
C646 C 0.67535 0.57162 0.38289 0.0
C647 C 0.6344 0.63683 0.40186 0.0
N648 N 0.72284 0.59638 0.42263 0.0
N649 N 0.59882 0.62244 0.34292 0.0
H650 H 0.6213 0.68558 0.43621 0.0
H651 H 0.5877 0.67165 0.40365 0.0
H652 H 0.5919 0.60539 0.3181 0.0
H653 H 0.58657 0.64811 0.34353 0.0
H654 H 0.74185 0.57663 0.41067 0.0
H655 H 0.73318 0.61595 0.44244 0.0
H656 H 0.71303 0.53046 0.39702 0.0
H657 H 0.6828 0.51688 0.36064 0.0
C658 C 0.9135 0.14597 0.90556 0.0
C659 C 0.91706 0.16865 0.94181 0.0
C660 C 0.98196 0.1709 0.92554 0.0
C661 C 0.97812 0.14929 0.8885 0.0
N662 N 0.94035 0.121 0.83927 0.0
N663 N 0.95276 0.20788 0.98303 0.0
C664 C 0.94384 0.13837 0.87723 0.0
C665 C 0.95077 0.18269 0.95082 0.0
N666 N 0.88148 0.13047 0.89918 0.0
N667 N 0.01557 0.17917 0.93715 0.0
H668 H 0.93049 0.21692 0.00237 0.0
H669 H 0.97571 0.22202 0.98866 0.0
H670 H 0.039 0.17229 0.91866 0.0
H671 H 0.0206 0.1909 0.96618 0.0
H672 H 0.87816 0.11037 0.87616 0.0
H673 H 0.85853 0.13611 0.91883 0.0
H674 H 0.91564 0.1156 0.82725 0.0
H675 H 0.96223 0.11438 0.8182 0.0
C676 C 0.30604 0.43102 0.46453 0.0
C677 C 0.29009 0.42397 0.50393 0.0
C678 C 0.26465 0.48593 0.51228 0.0
C679 C 0.28581 0.49429 0.47641 0.0
N680 N 0.32667 0.47556 0.41775 0.0
N681 N 0.25224 0.44313 0.56488 0.0
C682 C 0.3062 0.46693 0.45203 0.0
C683 C 0.2682 0.45081 0.52739 0.0
N684 N 0.32026 0.403 0.43881 0.0
N685 N 0.24138 0.51168 0.53178 0.0
H686 H 0.25304 0.41735 0.57592 0.0
H687 H 0.23957 0.46236 0.58601 0.0
H688 H 0.2389 0.53782 0.52189 0.0
H689 H 0.22273 0.50673 0.5558 0.0
H690 H 0.32983 0.40557 0.40822 0.0
H691 H 0.3189 0.37637 0.44694 0.0
H692 H 0.34552 0.45779 0.40163 0.0
H693 H 0.32629 0.5013 0.40654 0.0
C694 C 0.08735 0.74946 0.97736 0.0
C695 C 0.11674 0.77169 0.96935 0.0
C696 C 0.0939 0.78467 0.9017 0.0
C697 C 0.06126 0.76886 0.91379 0.0
N698 N 0.02641 0.73494 0.96175 0.0
N699 N 0.15104 0.80695 0.9226 0.0
C700 C 0.05817 0.75007 0.95077 0.0
C701 C 0.12121 0.78772 0.93066 0.0
N702 N 0.08694 0.72858 0.01087 0.0
N703 N 0.09826 0.79715 0.86277 0.0
H704 H 0.17233 0.80731 0.94225 0.0
H705 H 0.15456 0.82292 0.89736 0.0
H706 H 0.07843 0.79506 0.84125 0.0
H707 H 0.12215 0.80695 0.85058 0.0
H708 H 0.06787 0.70947 0.01641 0.0
H709 H 0.10752 0.72799 0.0314 0.0
H710 H 0.02046 0.72513 0.99081 0.0
H711 H 0.00503 0.73375 0.94225 0.0
C712 C 0.80906 0.06744 0.92036 0.0
C713 C 0.80105 0.07146 0.96373 0.0
C714 C 0.80786 0.00623 0.96856 0.0
C715 C 0.82344 0.00345 0.92733 0.0
N716 N 0.83914 0.03098 0.86313 0.0
N717 N 0.79012 0.04521 0.02955 0.0
C718 C 0.82346 0.03379 0.90259 0.0
C719 C 0.79897 0.04087 0.98787 0.0
N720 N 0.80285 0.0959 0.89646 0.0
N721 N 0.80165 0.9757 0.98899 0.0
H722 H 0.78131 0.06998 0.04385 0.0
H723 H 0.79258 0.02478 0.05007 0.0
H724 H 0.80783 0.94995 0.97535 0.0
H725 H 0.78758 0.97563 0.01781 0.0
H726 H 0.80532 0.09407 0.86409 0.0
H727 H 0.79203 0.12064 0.90923 0.0
H728 H 0.84362 0.05305 0.84539 0.0
H729 H 0.8498 0.00673 0.84893 0.0
C730 C 0.43754 0.31094 0.42502 0.0
C731 C 0.39951 0.31601 0.42565 0.0
C732 C 0.40405 0.33857 0.35574 0.0
C733 C 0.44203 0.33421 0.35566 0.0
N734 N 0.49446 0.30752 0.38434 0.0
N735 N 0.34617 0.32449 0.38803 0.0
C736 C 0.45855 0.31724 0.38833 0.0
C737 C 0.3826 0.32653 0.38971 0.0
N738 N 0.45377 0.3022 0.46022 0.0
N739 N 0.3887 0.35549 0.32424 0.0
H740 H 0.33009 0.31513 0.41235 0.0
H741 H 0.3324 0.32896 0.36147 0.0
H742 H 0.40372 0.36334 0.29824 0.0
H743 H 0.36151 0.36334 0.32487 0.0
H744 H 0.48141 0.30272 0.46344 0.0
H745 H 0.43932 0.2965 0.48735 0.0
H746 H 0.50733 0.29178 0.40519 0.0
H747 H 0.51084 0.31239 0.35813 0.0
C748 C 0.23308 0.92577 0.98727 0.0
C749 C 0.2294 0.88847 0.97721 0.0
C750 C 0.22529 0.90024 0.90375 0.0
C751 C 0.22531 0.93757 0.91462 0.0
N752 N 0.24218 0.98514 0.96208 0.0
N753 N 0.23559 0.83941 0.92546 0.0
C754 C 0.23417 0.94995 0.95481 0.0
C755 C 0.23029 0.87545 0.93506 0.0
N756 N 0.23238 0.93857 0.0278 0.0
N757 N 0.21842 0.8888 0.86416 0.0
H758 H 0.24001 0.82124 0.94834 0.0
H759 H 0.23884 0.82811 0.89515 0.0
H760 H 0.2162 0.90664 0.8405 0.0
H761 H 0.21376 0.86217 0.85524 0.0
H762 H 0.22985 0.9658 0.03721 0.0
H763 H 0.23256 0.92187 0.05245 0.0
H764 H 0.25187 0.99525 0.98985 0.0
H765 H 0.24253 0.0034 0.93873 0.0
C766 C 0.53681 0.7571 0.54353 0.0
C767 C 0.56567 0.74517 0.51517 0.0
C768 C 0.52406 0.73441 0.46058 0.0
C769 C 0.49519 0.73705 0.49158 0.0
N770 N 0.47261 0.75629 0.56117 0.0
N771 N 0.58714 0.74537 0.44423 0.0
C772 C 0.50103 0.75084 0.53253 0.0
C773 C 0.55934 0.7412 0.47262 0.0
N774 N 0.54354 0.7763 0.57928 0.0
N775 N 0.51839 0.72274 0.42067 0.0
H776 H 0.61272 0.7514 0.45368 0.0
H777 H 0.58416 0.74609 0.41238 0.0
H778 H 0.49304 0.71704 0.41057 0.0
H779 H 0.53909 0.71704 0.39791 0.0
H780 H 0.52343 0.78814 0.59996 0.0
H781 H 0.56943 0.78358 0.58589 0.0
H782 H 0.47552 0.76188 0.59276 0.0
H783 H 0.44598 0.75387 0.55329 0.0
C784 C 0.33642 0.42816 0.6563 0.0
C785 C 0.33643 0.39014 0.65789 0.0
C786 C 0.36359 0.39386 0.72532 0.0
C787 C 0.36472 0.43168 0.72292 0.0
N788 N 0.34399 0.48591 0.69247 0.0
N789 N 0.33932 0.33813 0.69853 0.0
C790 C 0.34818 0.44917 0.69056 0.0
C791 C 0.34659 0.3734 0.69404 0.0
N792 N 0.32713 0.44405 0.6211 0.0
N793 N 0.37988 0.37751 0.7566 0.0
H794 H 0.32603 0.32309 0.67631 0.0
H795 H 0.34337 0.32489 0.72556 0.0
H796 H 0.39136 0.39201 0.78073 0.0
H797 H 0.38366 0.34971 0.75746 0.0
H798 H 0.33137 0.47086 0.61552 0.0
H799 H 0.31663 0.42984 0.59634 0.0
H800 H 0.32866 0.50003 0.67227 0.0
H801 H 0.35327 0.50238 0.71641 0.0
C802 C 0.06974 0.82734 0.17085 0.0
C803 C 0.07229 0.81804 0.12764 0.0
C804 C 0.00705 0.82804 0.12515 0.0
C805 C 0.00588 0.84403 0.16616 0.0
N806 N 0.03622 0.86064 0.22813 0.0
N807 N 0.04373 0.80892 0.06287 0.0
C808 C 0.03714 0.8437 0.18937 0.0
C809 C 0.04093 0.81769 0.10463 0.0
N810 N 0.09841 0.82012 0.19408 0.0
N811 N 0.9757 0.82244 0.1061 0.0
H812 H 0.06777 0.7994 0.04737 0.0
H813 H 0.02277 0.81262 0.04329 0.0
H814 H 0.95041 0.82956 0.1205 0.0
H815 H 0.97449 0.80787 0.07775 0.0
H816 H 0.09737 0.82343 0.22641 0.0
H817 H 0.12233 0.8076 0.18105 0.0
H818 H 0.05915 0.86481 0.2445 0.0
H819 H 0.01283 0.87289 0.24281 0.0
C820 C 0.70352 0.54745 0.54801 0.0
C821 C 0.69222 0.5766 0.57678 0.0
C822 C 0.68352 0.53412 0.63171 0.0
C823 C 0.69617 0.50545 0.60311 0.0
N824 N 0.72797 0.48608 0.53825 0.0
N825 N 0.67994 0.59842 0.6483 0.0
C826 C 0.7098 0.51273 0.56278 0.0
C827 C 0.68508 0.57014 0.61945 0.0
N828 N 0.70489 0.55188 0.50625 0.0
N829 N 0.66806 0.52695 0.66963 0.0
H830 H 0.68073 0.62511 0.6404 0.0
H831 H 0.67822 0.59543 0.68026 0.0
H832 H 0.6668 0.50103 0.6801 0.0
H833 H 0.65429 0.54646 0.68958 0.0
H834 H 0.70954 0.53066 0.4839 0.0
H835 H 0.69708 0.57591 0.49382 0.0
H836 H 0.74124 0.49063 0.50983 0.0
H837 H 0.73283 0.46031 0.54847 0.0
C838 C 0.91041 0.24889 0.11387 0.0
C839 C 0.89978 0.21297 0.10531 0.0
C840 C 0.94185 0.19249 0.15513 0.0
C841 C 0.95842 0.22595 0.15533 0.0
N842 N 0.95951 0.28644 0.13261 0.0
N843 N 0.91579 0.14914 0.10983 0.0
C844 C 0.94289 0.25453 0.1343 0.0
C845 C 0.91793 0.18422 0.1241 0.0
N846 N 0.8892 0.2775 0.10385 0.0
N847 N 0.95021 0.16798 0.1834 0.0
H848 H 0.90406 0.1413 0.08243 0.0
H849 H 0.93081 0.12819 0.12159 0.0
H850 H 0.9674 0.17366 0.20716 0.0
H851 H 0.93691 0.14398 0.18577 0.0
H852 H 0.8946 0.30408 0.1123 0.0
H853 H 0.86412 0.27455 0.09155 0.0
H854 H 0.95123 0.30683 0.11399 0.0
H855 H 0.983 0.29143 0.14772 0.0
C856 C 0.21265 0.79082 0.22149 0.0
C857 C 0.21795 0.76738 0.18527 0.0
C858 C 0.254 0.7252 0.2229 0.0
C859 C 0.2474 0.74774 0.25977 0.0
N860 N 0.21477 0.79815 0.29655 0.0
N861 N 0.23522 0.70845 0.15414 0.0
C862 C 0.22496 0.77946 0.2598 0.0
C863 C 0.23591 0.7333 0.18686 0.0
N864 N 0.19664 0.82423 0.219 0.0
N865 N 0.27897 0.69713 0.22159 0.0
H866 H 0.22173 0.71338 0.12747 0.0
H867 H 0.24488 0.68189 0.15512 0.0
H868 H 0.29354 0.6906 0.24698 0.0
H869 H 0.28771 0.68237 0.19424 0.0
H870 H 0.19574 0.84422 0.24298 0.0
H871 H 0.18594 0.83267 0.19184 0.0
H872 H 0.19566 0.81946 0.29918 0.0
H873 H 0.2232 0.7904 0.32515 0.0
C874 C 0.76453 0.70018 0.65913 0.0
C875 C 0.7623 0.71827 0.62176 0.0
C876 C 0.81003 0.75767 0.64304 0.0
C877 C 0.80661 0.7445 0.68336 0.0
N878 N 0.78125 0.70327 0.73076 0.0
N879 N 0.78632 0.76041 0.57468 0.0
C880 C 0.78455 0.71528 0.69152 0.0
C881 C 0.78637 0.74574 0.61255 0.0
N882 N 0.74784 0.66852 0.66347 0.0
N883 N 0.83608 0.78144 0.6342 0.0
H884 H 0.77206 0.74964 0.55039 0.0
H885 H 0.79975 0.78337 0.5673 0.0
H886 H 0.85386 0.79028 0.65607 0.0
H887 H 0.84208 0.79035 0.60472 0.0
H888 H 0.7511 0.65237 0.68843 0.0
H889 H 0.73332 0.65665 0.64013 0.0
H890 H 0.76213 0.68524 0.74005 0.0
H891 H 0.79642 0.71294 0.75487 0.0
C892 C 0.72665 0.29926 0.04749 0.0
C893 C 0.74801 0.27562 0.06996 0.0
C894 C 0.72533 0.30676 0.13565 0.0
C895 C 0.70118 0.32772 0.11337 0.0
N896 N 0.67565 0.34202 0.04902 0.0
N897 N 0.76577 0.25406 0.13517 0.0
C898 C 0.70094 0.32347 0.06949 0.0
C899 C 0.74705 0.27876 0.11401 0.0
N900 N 0.73204 0.29951 0.00524 0.0
N901 N 0.72783 0.31402 0.17741 0.0
H902 H 0.78265 0.23369 0.12034 0.0
H903 H 0.7628 0.25212 0.16724 0.0
H904 H 0.7116 0.33363 0.19465 0.0
H905 H 0.7477 0.30253 0.19454 0.0
H906 H 0.71976 0.31833 0.98734 0.0
H907 H 0.75151 0.28291 0.98836 0.0
H908 H 0.67139 0.33705 0.01764 0.0
H909 H 0.65703 0.36075 0.06411 0.0
C910 C 0.25065 0.24788 0.65321 0.0
C911 C 0.27932 0.23777 0.62315 0.0
C912 C 0.27596 0.17563 0.64416 0.0
C913 C 0.25187 0.18727 0.67834 0.0
N914 N 0.22607 0.23779 0.72209 0.0
N915 N 0.32616 0.19246 0.60025 0.0
C916 C 0.24243 0.22449 0.68514 0.0
C917 C 0.29411 0.20176 0.62154 0.0
N918 N 0.22931 0.27819 0.65004 0.0
N919 N 0.28064 0.13995 0.63197 0.0
H920 H 0.34235 0.21108 0.58648 0.0
H921 H 0.33881 0.16705 0.60119 0.0
H922 H 0.26631 0.11997 0.64601 0.0
H923 H 0.29574 0.13087 0.60492 0.0
H924 H 0.20686 0.28471 0.67029 0.0
H925 H 0.23039 0.29366 0.62413 0.0
H926 H 0.22115 0.26531 0.729 0.0
H927 H 0.22145 0.22186 0.74728 0.0
C928 C 0.73531 0.80386 0.48469 0.0
C929 C 0.71647 0.7734 0.47122 0.0
C930 C 0.72536 0.78944 0.39871 0.0
C931 C 0.74862 0.81656 0.4118 0.0
N932 N 0.77698 0.84967 0.46635 0.0
N933 N 0.69074 0.73799 0.41656 0.0
C934 C 0.75362 0.82409 0.45463 0.0
C935 C 0.71044 0.76659 0.4285 0.0
N936 N 0.73516 0.81373 0.52616 0.0
N937 N 0.71739 0.78595 0.35784 0.0
H938 H 0.67673 0.72295 0.43788 0.0
H939 H 0.68877 0.7285 0.38587 0.0
H940 H 0.7282 0.80211 0.3353 0.0
H941 H 0.6983 0.76893 0.34646 0.0
H942 H 0.74537 0.8376 0.53787 0.0
H943 H 0.72211 0.79941 0.54899 0.0
H944 H 0.78539 0.8534 0.49646 0.0
H945 H 0.78966 0.86605 0.44532 0.0
C946 C 0.73523 0.24057 0.90447 0.0
C947 C 0.76996 0.22348 0.9045 0.0
C948 C 0.78179 0.23656 0.83134 0.0
C949 C 0.74893 0.25734 0.83312 0.0
N950 N 0.69664 0.28379 0.87286 0.0
N951 N 0.82727 0.20607 0.86914 0.0
C952 C 0.72617 0.26052 0.87006 0.0
C953 C 0.79354 0.2217 0.86819 0.0
N954 N 0.71067 0.23735 0.93704 0.0
N955 N 0.80114 0.23017 0.79416 0.0
H956 H 0.83566 0.19266 0.89457 0.0
H957 H 0.84741 0.2077 0.84566 0.0
H958 H 0.79343 0.24094 0.76668 0.0
H959 H 0.82331 0.21216 0.78974 0.0
H960 H 0.68376 0.24604 0.9368 0.0
H961 H 0.71626 0.22309 0.96293 0.0
H962 H 0.68141 0.29041 0.90051 0.0
H963 H 0.68913 0.29911 0.84842 0.0
C964 C 0.25268 0.24037 0.44197 0.0
C965 C 0.2434 0.27229 0.46721 0.0
C966 C 0.18204 0.2703 0.44313 0.0
C967 C 0.19354 0.24181 0.41369 0.0
N968 N 0.24416 0.20971 0.37594 0.0
N969 N 0.20051 0.32263 0.48297 0.0
C970 C 0.23033 0.23025 0.40998 0.0
C971 C 0.2084 0.28886 0.46531 0.0
N972 N 0.28108 0.21797 0.45008 0.0
N973 N 0.14625 0.27885 0.45121 0.0
H974 H 0.21953 0.33821 0.49706 0.0
H975 H 0.17622 0.33667 0.47927 0.0
H976 H 0.12614 0.26504 0.43674 0.0
H977 H 0.13665 0.29726 0.47522 0.0
H978 H 0.28679 0.19338 0.43343 0.0
H979 H 0.29532 0.22095 0.47686 0.0
H980 H 0.2716 0.20286 0.37124 0.0
H981 H 0.22908 0.20335 0.35045 0.0
C982 C 0.26358 0.72565 0.97455 0.0
C983 C 0.2657 0.73232 0.01802 0.0
C984 C 0.3127 0.68442 0.01922 0.0
C985 C 0.31215 0.67931 0.97541 0.0
N986 N 0.29134 0.69794 0.91014 0.0
N987 N 0.29599 0.723 0.08089 0.0
C988 C 0.28881 0.70079 0.95268 0.0
C989 C 0.2913 0.71305 0.04019 0.0
N990 N 0.23678 0.7423 0.95444 0.0
N991 N 0.33315 0.66145 0.04077 0.0
H992 H 0.28108 0.74415 0.09702 0.0
H993 H 0.31655 0.71245 0.09774 0.0
H994 H 0.34988 0.64076 0.02624 0.0
H995 H 0.33164 0.66113 0.07307 0.0
H996 H 0.23112 0.7356 0.92381 0.0
H997 H 0.21839 0.76136 0.96927 0.0
H998 H 0.27809 0.71564 0.89169 0.0
H999 H 0.3088 0.67936 0.89297 0.0
loop_
_geom_bond_atom_site_label_1
_geom_bond_atom_site_label_2
_geom_bond_distance
_geom_bond_site_symmetry_2
_ccdc_geom_bond_type
Fe0 O2 1.918 . S
Fe0 O5 1.997 . S
Fe0 O6 2.002 . S
Fe0 O11 1.976 . S
Fe0 O14 1.996 . S
Fe1 O2 1.918 . S
Fe1 O9 1.997 . S
Fe1 O12 1.996 . S
Fe1 O16 1.976 . S
Fe1 O19 2.002 . S
O2 Fe0 1.918 . S
O2 Fe1 1.918 . S
O2 Fe3 1.918 . S
Fe3 O2 1.918 . S
Fe3 O4 2.002 . S
Fe3 O13 1.976 . S
Fe3 O17 1.996 . S
Fe3 O20 1.997 . S
O4 Fe3 2.002 . S
O4 C21 1.295 . S
O5 Fe0 1.997 . S
O5 C21 1.235 . S
O6 Fe0 2.002 . S
O6 C7 1.295 . S
C7 O6 1.295 . S
C7 O9 1.235 . S
C8 O13 1.287 . S
C8 O14 1.255 . S
O9 Fe1 1.997 . S
O9 C7 1.235 . S
C10 O16 1.287 . S
C10 O17 1.255 . S
O11 Fe0 1.976 . S
O11 C18 1.287 . S
O12 Fe1 1.996 . S
O12 C18 1.255 . S
O13 Fe3 1.976 . S
O13 C8 1.287 . S
O14 Fe0 1.996 . S
O14 C8 1.255 . S
C15 O19 1.295 . S
C15 O20 1.235 . S
O16 Fe1 1.976 . S
O16 C10 1.287 . S
O17 Fe3 1.996 . S
O17 C10 1.255 . S
C18 O11 1.287 . S
C18 O12 1.255 . S
O19 Fe1 2.002 . S
O19 C15 1.295 . S
O20 Fe3 1.997 . S
O20 C15 1.235 . S
C21 O4 1.295 . S
C21 O5 1.235 . S
Fe22 O24 1.918 . S
Fe22 O27 1.997 . S
Fe22 O28 2.002 . S
Fe22 O33 1.976 . S
Fe22 O36 1.996 . S
Fe23 O24 1.918 . S
Fe23 O31 1.997 . S
Fe23 O34 1.996 . S
Fe23 O38 1.976 . S
Fe23 O41 2.002 . S
O24 Fe22 1.918 . S
O24 Fe23 1.918 . S
O24 Fe25 1.918 . S
Fe25 O24 1.918 . S
Fe25 O26 2.002 . S
Fe25 O35 1.976 . S
Fe25 O39 1.996 . S
Fe25 O42 1.997 . S
O26 Fe25 2.002 . S
O26 C43 1.295 . S
O27 Fe22 1.997 . S
O27 C43 1.235 . S
O28 Fe22 2.002 . S
O28 C29 1.295 . S
C29 O28 1.295 . S
C29 O31 1.235 . S
C30 O35 1.287 . S
C30 O36 1.255 . S
O31 Fe23 1.997 . S
O31 C29 1.235 . S
C32 O38 1.287 . S
C32 O39 1.255 . S
O33 Fe22 1.976 . S
O33 C40 1.287 . S
O34 Fe23 1.996 . S
O34 C40 1.255 . S
O35 Fe25 1.976 . S
O35 C30 1.287 . S
O36 Fe22 1.996 . S
O36 C30 1.255 . S
C37 O41 1.295 . S
C37 O42 1.235 . S
O38 Fe23 1.976 . S
O38 C32 1.287 . S
O39 Fe25 1.996 . S
O39 C32 1.255 . S
C40 O33 1.287 . S
C40 O34 1.255 . S
O41 Fe23 2.002 . S
O41 C37 1.295 . S
O42 Fe25 1.997 . S
O42 C37 1.235 . S
C43 O26 1.295 . S
C43 O27 1.235 . S
Fe44 O46 1.918 . S
Fe44 O49 1.999 1_554 S
Fe44 O50 2.004 1_554 S
Fe44 O55 1.974 . S
Fe44 O58 1.994 . S
Fe45 O46 1.918 . S
Fe45 O53 1.997 1_554 S
Fe45 O56 1.996 . S
Fe45 O60 1.976 . S
Fe45 O63 2.002 1_554 S
O46 Fe44 1.918 . S
O46 Fe45 1.918 . S
O46 Fe47 1.919 . S
Fe47 O46 1.919 . S
Fe47 O48 1.999 1_554 S
Fe47 O57 1.978 . S
Fe47 O61 1.999 . S
Fe47 O64 1.995 1_554 S
O48 Fe47 1.999 1_556 S
O48 C65 1.295 . S
O49 Fe44 1.999 1_556 S
O49 C65 1.235 . S
O50 Fe44 2.004 1_556 S
O50 C51 1.295 . S
C51 O50 1.295 . S
C51 O53 1.235 . S
C52 O57 1.287 . S
C52 O58 1.255 . S
O53 Fe45 1.997 1_556 S
O53 C51 1.235 . S
C54 O60 1.287 . S
C54 O61 1.255 . S
O55 Fe44 1.974 . S
O55 C62 1.287 . S
O56 Fe45 1.996 . S
O56 C62 1.255 . S
O57 Fe47 1.978 . S
O57 C52 1.287 . S
O58 Fe44 1.994 . S
O58 C52 1.255 . S
C59 O63 1.295 . S
C59 O64 1.235 . S
O60 Fe45 1.976 . S
O60 C54 1.287 . S
O61 Fe47 1.999 . S
O61 C54 1.255 . S
C62 O55 1.287 . S
C62 O56 1.255 . S
O63 Fe45 2.002 1_556 S
O63 C59 1.295 . S
O64 Fe47 1.995 1_556 S
O64 C59 1.235 . S
C65 O48 1.295 . S
C65 O49 1.235 . S
Fe66 O68 1.918 . S
Fe66 O71 1.997 . S
Fe66 O72 2.002 . S
Fe66 O77 1.976 . S
Fe66 O80 1.996 . S
Fe67 O68 1.918 . S
Fe67 O75 1.997 . S
Fe67 O78 1.996 . S
Fe67 O82 1.976 . S
Fe67 O85 2.002 . S
O68 Fe66 1.918 . S
O68 Fe67 1.918 . S
O68 Fe69 1.918 . S
Fe69 O68 1.918 . S
Fe69 O70 2.002 . S
Fe69 O79 1.976 . S
Fe69 O83 1.996 . S
Fe69 O86 1.997 . S
O70 Fe69 2.002 . S
O70 C87 1.295 . S
O71 Fe66 1.997 . S
O71 C87 1.235 . S
O72 Fe66 2.002 . S
O72 C73 1.295 . S
C73 O72 1.295 . S
C73 O75 1.235 . S
C74 O79 1.287 . S
C74 O80 1.255 . S
O75 Fe67 1.997 . S
O75 C73 1.235 . S
C76 O82 1.287 . S
C76 O83 1.255 . S
O77 Fe66 1.976 . S
O77 C84 1.287 . S
O78 Fe67 1.996 . S
O78 C84 1.255 . S
O79 Fe69 1.976 . S
O79 C74 1.287 . S
O80 Fe66 1.996 . S
O80 C74 1.255 . S
C81 O85 1.295 . S
C81 O86 1.235 . S
O82 Fe67 1.976 . S
O82 C76 1.287 . S
O83 Fe69 1.996 . S
O83 C76 1.255 . S
C84 O77 1.287 . S
C84 O78 1.255 . S
O85 Fe67 2.002 . S
O85 C81 1.295 . S
O86 Fe69 1.997 . S
O86 C81 1.235 . S
C87 O70 1.295 . S
C87 O71 1.235 . S
C88 C89 1.391 . S
C88 C92 1.391 . S
C88 H130 0.948 . S
C89 C88 1.391 . S
C89 C90 1.391 . S
C90 C89 1.391 . S
C90 H146 0.947 . S
C90 C147 1.392 . S
C91 C92 1.391 . S
C91 C95 1.397 . S
C91 C147 1.419 . S
C92 C88 1.391 . S
C92 C91 1.391 . S
C92 C93 1.399 . S
C93 C92 1.399 . S
C93 C96 1.396 . S
C93 C105 1.453 . S
C93 C106 1.684 . S
H94 C118 0.948 . S
C95 C91 1.397 . S
C95 C96 1.394 . S
C95 C114 1.723 . S
C96 C93 1.396 . S
C96 C95 1.394 . S
C96 C126 1.723 . S
H97 C120 0.947 . S
H98 C121 0.948 . S
H99 C127 0.982 . S
H100 C128 0.979 . S
H101 C128 0.980 . S
H102 C128 0.983 . S
H103 C127 0.979 . S
H104 C127 0.977 . S
C105 C93 1.453 . S
C105 H134 0.982 . S
C105 H135 0.979 . S
C105 H136 0.977 . S
C106 C93 1.684 . S
C106 H131 0.979 . S
C106 H132 0.980 . S
C106 H133 0.983 . S
C107 C108 1.391 1_455 S
C107 C112 1.391 . S
C107 H137 0.948 1_455 S
C108 C107 1.391 1_655 S
C108 C109 1.391 1_655 S
C109 C108 1.391 1_455 S
C109 C110 1.392 . S
C109 H138 0.947 1_455 S
C110 C109 1.392 . S
C110 C111 1.419 . S
C110 H139 0.948 . S
C111 C110 1.419 . S
C111 C112 1.391 . S
C111 C115 1.397 . S
C112 C107 1.391 . S
C112 C111 1.391 . S
C112 C113 1.399 . S
C113 C112 1.399 . S
C113 C114 1.396 . S
C113 C116 1.453 . S
C113 C117 1.684 . S
C114 C95 1.723 . S
C114 C113 1.396 . S
C114 C115 1.394 . S
C115 C111 1.397 . S
C115 C114 1.394 . S
C115 C125 1.723 . S
C116 C113 1.453 . S
C116 H140 0.982 . S
C116 H141 0.979 . S
C116 H142 0.977 . S
C117 C113 1.684 . S
C117 H143 0.979 . S
C117 H144 0.980 . S
C117 H145 0.983 . S
C118 H94 0.948 . S
C118 C119 1.391 . S
C118 C123 1.391 . S
C119 C118 1.391 . S
C119 C120 1.391 . S
C120 H97 0.947 . S
C120 C119 1.391 . S
C120 C121 1.392 . S
C121 H98 0.948 . S
C121 C120 1.392 . S
C121 C122 1.419 . S
C122 C121 1.419 . S
C122 C123 1.391 . S
C122 C126 1.397 . S
C123 C118 1.391 . S
C123 C122 1.391 . S
C123 C124 1.399 . S
C124 C123 1.399 . S
C124 C125 1.396 . S
C124 C127 1.453 . S
C124 C128 1.684 . S
C125 C115 1.723 . S
C125 C124 1.396 . S
C125 C126 1.394 . S
C126 C96 1.723 . S
C126 C122 1.397 . S
C126 C125 1.394 . S
C127 H99 0.982 . S
C127 H103 0.979 . S
C127 H104 0.977 . S
C127 C124 1.453 . S
C128 H100 0.979 . S
C128 H101 0.980 . S
C128 H102 0.983 . S
C128 C124 1.684 . S
H129 C147 0.948 . S
H130 C88 0.948 . S
H131 C106 0.979 . S
H132 C106 0.980 . S
H133 C106 0.983 . S
H134 C105 0.982 . S
H135 C105 0.979 . S
H136 C105 0.977 . S
H137 C107 0.948 1_655 S
H138 C109 0.947 1_655 S
H139 C110 0.948 . S
H140 C116 0.982 . S
H141 C116 0.979 . S
H142 C116 0.977 . S
H143 C117 0.979 . S
H144 C117 0.980 . S
H145 C117 0.983 . S
H146 C90 0.947 . S
C147 C90 1.392 . S
C147 C91 1.419 . S
C147 H129 0.948 . S
C148 C149 1.391 . S
C148 C152 1.391 . S
C148 H190 0.948 . S
C149 C148 1.391 . S
C149 C150 1.391 . S
C150 C149 1.391 . S
C150 H206 0.947 . S
C150 C207 1.392 . S
C151 C152 1.391 . S
C151 C155 1.397 . S
C151 C207 1.419 . S
C152 C148 1.391 . S
C152 C151 1.391 . S
C152 C153 1.399 . S
C153 C152 1.399 . S
C153 C156 1.396 . S
C153 C165 1.453 . S
C153 C166 1.684 . S
H154 C178 0.948 . S
C155 C151 1.397 . S
C155 C156 1.394 . S
C155 C174 1.723 . S
C156 C153 1.396 . S
C156 C155 1.394 . S
C156 C186 1.723 . S
H157 C180 0.947 . S
H158 C181 0.948 . S
H159 C187 0.982 . S
H160 C188 0.979 . S
H161 C188 0.980 . S
H162 C188 0.983 . S
H163 C187 0.979 . S
H164 C187 0.977 . S
C165 C153 1.453 . S
C165 H194 0.982 . S
C165 H195 0.979 . S
C165 H196 0.977 . S
C166 C153 1.684 . S
C166 H191 0.979 . S
C166 H192 0.980 . S
C166 H193 0.983 . S
C167 C168 1.391 . S
C167 C172 1.391 . S
C167 H197 0.948 . S
C168 C167 1.391 . S
C168 C169 1.391 . S
C169 C168 1.391 . S
C169 C170 1.392 . S
C169 H198 0.947 . S
C170 C169 1.392 . S
C170 C171 1.419 . S
C170 H199 0.948 . S
C171 C170 1.419 . S
C171 C172 1.391 . S
C171 C175 1.397 . S
C172 C167 1.391 . S
C172 C171 1.391 . S
C172 C173 1.399 . S
C173 C172 1.399 . S
C173 C174 1.396 . S
C173 C176 1.453 . S
C173 C177 1.684 . S
C174 C155 1.723 . S
C174 C173 1.396 . S
C174 C175 1.394 . S
C175 C171 1.397 . S
C175 C174 1.394 . S
C175 C185 1.723 . S
C176 C173 1.453 . S
C176 H200 0.982 . S
C176 H201 0.979 . S
C176 H202 0.977 . S
C177 C173 1.684 . S
C177 H203 0.979 . S
C177 H204 0.980 . S
C177 H205 0.983 . S
C178 H154 0.948 . S
C178 C179 1.391 . S
C178 C183 1.391 . S
C179 C178 1.391 . S
C179 C180 1.391 . S
C180 H157 0.947 . S
C180 C179 1.391 . S
C180 C181 1.392 . S
C181 H158 0.948 . S
C181 C180 1.392 . S
C181 C182 1.419 . S
C182 C181 1.419 . S
C182 C183 1.391 . S
C182 C186 1.397 . S
C183 C178 1.391 . S
C183 C182 1.391 . S
C183 C184 1.399 . S
C184 C183 1.399 . S
C184 C185 1.396 . S
C184 C187 1.453 . S
C184 C188 1.684 . S
C185 C175 1.723 . S
C185 C184 1.396 . S
C185 C186 1.394 . S
C186 C156 1.723 . S
C186 C182 1.397 . S
C186 C185 1.394 . S
C187 H159 0.982 . S
C187 H163 0.979 . S
C187 H164 0.977 . S
C187 C184 1.453 . S
C188 H160 0.979 . S
C188 H161 0.980 . S
C188 H162 0.983 . S
C188 C184 1.684 . S
H189 C207 0.948 . S
H190 C148 0.948 . S
H191 C166 0.979 . S
H192 C166 0.980 . S
H193 C166 0.983 . S
H194 C165 0.982 . S
H195 C165 0.979 . S
H196 C165 0.977 . S
H197 C167 0.948 . S
H198 C169 0.947 . S
H199 C170 0.948 . S
H200 C176 0.982 . S
H201 C176 0.979 . S
H202 C176 0.977 . S
H203 C177 0.979 . S
H204 C177 0.980 . S
H205 C177 0.983 . S
H206 C150 0.947 . S
C207 C150 1.392 . S
C207 C151 1.419 . S
C207 H189 0.948 . S
C208 C209 1.391 . S
C208 C212 1.391 . S
C208 H250 0.948 . S
C209 C208 1.391 . S
C209 C210 1.391 . S
C210 C209 1.391 . S
C210 H266 0.947 . S
C210 C267 1.392 . S
C211 C212 1.391 . S
C211 C215 1.397 . S
C211 C267 1.419 . S
C212 C208 1.391 . S
C212 C211 1.391 . S
C212 C213 1.399 . S
C213 C212 1.399 . S
C213 C216 1.396 . S
C213 C225 1.453 . S
C213 C226 1.684 . S
H214 C238 0.948 1_545 S
C215 C211 1.397 . S
C215 C216 1.394 . S
C215 C234 1.723 . S
C216 C213 1.396 . S
C216 C215 1.394 . S
C216 C246 1.723 . S
H217 C240 0.947 1_545 S
H218 C241 0.948 . S
H219 C247 0.982 . S
H220 C248 0.979 . S
H221 C248 0.980 . S
H222 C248 0.983 . S
H223 C247 0.979 . S
H224 C247 0.977 . S
C225 C213 1.453 . S
C225 H254 0.982 . S
C225 H255 0.979 . S
C225 H256 0.977 . S
C226 C213 1.684 . S
C226 H251 0.979 . S
C226 H252 0.980 . S
C226 H253 0.983 . S
C227 C228 1.391 . S
C227 C232 1.391 . S
C227 H257 0.948 . S
C228 C227 1.391 . S
C228 C229 1.391 . S
C229 C228 1.391 . S
C229 C230 1.392 . S
C229 H258 0.947 . S
C230 C229 1.392 . S
C230 C231 1.419 . S
C230 H259 0.948 . S
C231 C230 1.419 . S
C231 C232 1.391 . S
C231 C235 1.397 . S
C232 C227 1.391 . S
C232 C231 1.391 . S
C232 C233 1.399 . S
C233 C232 1.399 . S
C233 C234 1.396 . S
C233 C236 1.453 . S
C233 C237 1.684 . S
C234 C215 1.723 . S
C234 C233 1.396 . S
C234 C235 1.394 . S
C235 C231 1.397 . S
C235 C234 1.394 . S
C235 C245 1.723 . S
C236 C233 1.453 . S
C236 H260 0.982 . S
C236 H261 0.979 . S
C236 H262 0.977 . S
C237 C233 1.684 . S
C237 H263 0.979 . S
C237 H264 0.980 . S
C237 H265 0.983 . S
C238 H214 0.948 1_565 S
C238 C239 1.391 1_565 S
C238 C243 1.391 . S
C239 C238 1.391 1_545 S
C239 C240 1.391 1_545 S
C240 H217 0.947 1_565 S
C240 C239 1.391 1_565 S
C240 C241 1.392 . S
C241 H218 0.948 . S
C241 C240 1.392 . S
C241 C242 1.419 . S
C242 C241 1.419 . S
C242 C243 1.391 . S
C242 C246 1.397 . S
C243 C238 1.391 . S
C243 C242 1.391 . S
C243 C244 1.399 . S
C244 C243 1.399 . S
C244 C245 1.396 . S
C244 C247 1.453 . S
C244 C248 1.684 . S
C245 C235 1.723 . S
C245 C244 1.396 . S
C245 C246 1.394 . S
C246 C216 1.723 . S
C246 C242 1.397 . S
C246 C245 1.394 . S
C247 H219 0.982 . S
C247 H223 0.979 . S
C247 H224 0.977 . S
C247 C244 1.453 . S
C248 H220 0.979 . S
C248 H221 0.980 . S
C248 H222 0.983 . S
C248 C244 1.684 . S
H249 C267 0.948 . S
H250 C208 0.948 . S
H251 C226 0.979 . S
H252 C226 0.980 . S
H253 C226 0.983 . S
H254 C225 0.982 . S
H255 C225 0.979 . S
H256 C225 0.977 . S
H257 C227 0.948 . S
H258 C229 0.947 . S
H259 C230 0.948 . S
H260 C236 0.982 . S
H261 C236 0.979 . S
H262 C236 0.977 . S
H263 C237 0.979 . S
H264 C237 0.980 . S
H265 C237 0.983 . S
H266 C210 0.947 . S
C267 C210 1.392 . S
C267 C211 1.419 . S
C267 H249 0.948 . S
C268 C269 1.391 . S
C268 C272 1.391 . S
C268 H310 0.948 . S
C269 C268 1.391 . S
C269 C270 1.391 . S
C270 C269 1.391 . S
C270 H326 0.947 . S
C270 C327 1.392 . S
C271 C272 1.391 . S
C271 C275 1.397 . S
C271 C327 1.419 . S
C272 C268 1.391 . S
C272 C271 1.391 . S
C272 C273 1.399 . S
C273 C272 1.399 . S
C273 C276 1.396 . S
C273 C285 1.453 . S
C273 C286 1.684 . S
H274 C298 0.948 . S
C275 C271 1.397 . S
C275 C276 1.394 . S
C275 C294 1.723 . S
C276 C273 1.396 . S
C276 C275 1.394 . S
C276 C306 1.723 . S
H277 C300 0.947 . S
H278 C301 0.948 . S
H279 C307 0.982 . S
H280 C308 0.979 . S
H281 C308 0.980 . S
H282 C308 0.983 . S
H283 C307 0.979 . S
H284 C307 0.977 . S
C285 C273 1.453 . S
C285 H314 0.982 . S
C285 H315 0.979 . S
C285 H316 0.977 . S
C286 C273 1.684 . S
C286 H311 0.979 . S
C286 H312 0.980 . S
C286 H313 0.983 . S
C287 C288 1.391 . S
C287 C292 1.391 . S
C287 H317 0.948 . S
C288 C287 1.391 . S
C288 C289 1.391 . S
C289 C288 1.391 . S
C289 C290 1.392 . S
C289 H318 0.947 . S
C290 C289 1.392 . S
C290 C291 1.419 . S
C290 H319 0.948 . S
C291 C290 1.419 . S
C291 C292 1.391 . S
C291 C295 1.397 . S
C292 C287 1.391 . S
C292 C291 1.391 . S
C292 C293 1.399 . S
C293 C292 1.399 . S
C293 C294 1.396 . S
C293 C296 1.453 . S
C293 C297 1.684 . S
C294 C275 1.723 . S
C294 C293 1.396 . S
C294 C295 1.394 . S
C295 C291 1.397 . S
C295 C294 1.394 . S
C295 C305 1.723 . S
C296 C293 1.453 . S
C296 H320 0.982 . S
C296 H321 0.979 . S
C296 H322 0.977 . S
C297 C293 1.684 . S
C297 H323 0.979 . S
C297 H324 0.980 . S
C297 H325 0.983 . S
C298 H274 0.948 . S
C298 C299 1.391 . S
C298 C303 1.391 . S
C299 C298 1.391 . S
C299 C300 1.391 . S
C300 H277 0.947 . S
C300 C299 1.391 . S
C300 C301 1.392 . S
C301 H278 0.948 . S
C301 C300 1.392 . S
C301 C302 1.419 . S
C302 C301 1.419 . S
C302 C303 1.391 . S
C302 C306 1.397 . S
C303 C298 1.391 . S
C303 C302 1.391 . S
C303 C304 1.399 . S
C304 C303 1.399 . S
C304 C305 1.396 . S
C304 C307 1.453 . S
C304 C308 1.684 . S
C305 C295 1.723 . S
C305 C304 1.396 . S
C305 C306 1.394 . S
C306 C276 1.723 . S
C306 C302 1.397 . S
C306 C305 1.394 . S
C307 H279 0.982 . S
C307 H283 0.979 . S
C307 H284 0.977 . S
C307 C304 1.453 . S
C308 H280 0.979 . S
C308 H281 0.980 . S
C308 H282 0.983 . S
C308 C304 1.684 . S
H309 C327 0.948 . S
H310 C268 0.948 . S
H311 C286 0.979 . S
H312 C286 0.980 . S
H313 C286 0.983 . S
H314 C285 0.982 . S
H315 C285 0.979 . S
H316 C285 0.977 . S
H317 C287 0.948 . S
H318 C289 0.947 . S
H319 C290 0.948 . S
H320 C296 0.982 . S
H321 C296 0.979 . S
H322 C296 0.977 . S
H323 C297 0.979 . S
H324 C297 0.980 . S
H325 C297 0.983 . S
H326 C270 0.947 . S
C327 C270 1.392 . S
C327 C271 1.419 . S
C327 H309 0.948 . S
C328 C329 1.391 . S
C328 C332 1.391 . S
C328 H370 0.948 . S
C329 C328 1.391 . S
C329 C330 1.391 . S
C330 C329 1.391 . S
C330 H386 0.947 . S
C330 C387 1.392 . S
C331 C332 1.391 . S
C331 C335 1.397 . S
C331 C387 1.419 . S
C332 C328 1.391 . S
C332 C331 1.391 . S
C332 C333 1.399 . S
C333 C332 1.399 . S
C333 C336 1.396 . S
C333 C345 1.453 . S
C333 C346 1.684 . S
H334 C358 0.948 . S
C335 C331 1.397 . S
C335 C336 1.394 . S
C335 C354 1.723 . S
C336 C333 1.396 . S
C336 C335 1.394 . S
C336 C366 1.723 . S
H337 C360 0.947 . S
H338 C361 0.948 . S
H339 C367 0.982 . S
H340 C368 0.979 . S
H341 C368 0.980 . S
H342 C368 0.983 . S
H343 C367 0.979 . S
H344 C367 0.977 . S
C345 C333 1.453 . S
C345 H374 0.982 . S
C345 H375 0.979 . S
C345 H376 0.977 . S
C346 C333 1.684 . S
C346 H371 0.979 . S
C346 H372 0.980 . S
C346 H373 0.983 . S
C347 C348 1.391 . S
C347 C352 1.391 . S
C347 H377 0.948 . S
C348 C347 1.391 . S
C348 C349 1.391 . S
C349 C348 1.391 . S
C349 C350 1.392 . S
C349 H378 0.947 . S
C350 C349 1.392 . S
C350 C351 1.419 . S
C350 H379 0.948 . S
C351 C350 1.419 . S
C351 C352 1.391 . S
C351 C355 1.397 . S
C352 C347 1.391 . S
C352 C351 1.391 . S
C352 C353 1.399 . S
C353 C352 1.399 . S
C353 C354 1.396 . S
C353 C356 1.453 . S
C353 C357 1.684 . S
C354 C335 1.723 . S
C354 C353 1.396 . S
C354 C355 1.394 . S
C355 C351 1.397 . S
C355 C354 1.394 . S
C355 C365 1.723 . S
C356 C353 1.453 . S
C356 H380 0.982 . S
C356 H381 0.979 . S
C356 H382 0.977 . S
C357 C353 1.684 . S
C357 H383 0.979 . S
C357 H384 0.980 . S
C357 H385 0.983 . S
C358 H334 0.948 . S
C358 C359 1.391 . S
C358 C363 1.391 . S
C359 C358 1.391 . S
C359 C360 1.391 . S
C360 H337 0.947 . S
C360 C359 1.391 . S
C360 C361 1.392 . S
C361 H338 0.948 . S
C361 C360 1.392 . S
C361 C362 1.419 . S
C362 C361 1.419 . S
C362 C363 1.391 . S
C362 C366 1.397 . S
C363 C358 1.391 . S
C363 C362 1.391 . S
C363 C364 1.399 . S
C364 C363 1.399 . S
C364 C365 1.396 . S
C364 C367 1.453 . S
C364 C368 1.684 . S
C365 C355 1.723 . S
C365 C364 1.396 . S
C365 C366 1.394 . S
C366 C336 1.723 . S
C366 C362 1.397 . S
C366 C365 1.394 . S
C367 H339 0.982 . S
C367 H343 0.979 . S
C367 H344 0.977 . S
C367 C364 1.453 . S
C368 H340 0.979 . S
C368 H341 0.980 . S
C368 H342 0.983 . S
C368 C364 1.684 . S
H369 C387 0.948 . S
H370 C328 0.948 . S
H371 C346 0.979 . S
H372 C346 0.980 . S
H373 C346 0.983 . S
H374 C345 0.982 . S
H375 C345 0.979 . S
H376 C345 0.977 . S
H377 C347 0.948 . S
H378 C349 0.947 . S
H379 C350 0.948 . S
H380 C356 0.982 . S
H381 C356 0.979 . S
H382 C356 0.977 . S
H383 C357 0.979 . S
H384 C357 0.980 . S
H385 C357 0.983 . S
H386 C330 0.947 . S
C387 C330 1.392 . S
C387 C331 1.419 . S
C387 H369 0.948 . S
C388 C389 1.391 . S
C388 C392 1.391 . S
C388 H430 0.948 . S
C389 C388 1.391 . S
C389 C390 1.391 . S
C390 C389 1.391 . S
C390 H446 0.947 . S
C390 C447 1.392 . S
C391 C392 1.391 . S
C391 C395 1.397 . S
C391 C447 1.419 . S
C392 C388 1.391 . S
C392 C391 1.391 . S
C392 C393 1.399 . S
C393 C392 1.399 . S
C393 C396 1.396 . S
C393 C405 1.453 . S
C393 C406 1.684 . S
H394 C418 0.948 . S
C395 C391 1.397 . S
C395 C396 1.394 . S
C395 C414 1.723 . S
C396 C393 1.396 . S
C396 C395 1.394 . S
C396 C426 1.723 . S
H397 C420 0.947 . S
H398 C421 0.948 . S
H399 C427 0.982 . S
H400 C428 0.979 . S
H401 C428 0.980 . S
H402 C428 0.983 . S
H403 C427 0.979 . S
H404 C427 0.977 . S
C405 C393 1.453 . S
C405 H434 0.982 . S
C405 H435 0.979 . S
C405 H436 0.977 . S
C406 C393 1.684 . S
C406 H431 0.979 . S
C406 H432 0.980 . S
C406 H433 0.983 . S
C407 C408 1.391 1_545 S
C407 C412 1.391 . S
C407 H437 0.948 . S
C408 C407 1.391 1_565 S
C408 C409 1.391 1_565 S
C409 C408 1.391 1_545 S
C409 C410 1.392 . S
C409 H438 0.947 1_545 S
C410 C409 1.392 . S
C410 C411 1.419 . S
C410 H439 0.948 . S
C411 C410 1.419 . S
C411 C412 1.391 . S
C411 C415 1.397 . S
C412 C407 1.391 . S
C412 C411 1.391 . S
C412 C413 1.399 . S
C413 C412 1.399 . S
C413 C414 1.396 . S
C413 C416 1.453 . S
C413 C417 1.684 . S
C414 C395 1.723 . S
C414 C413 1.396 . S
C414 C415 1.394 . S
C415 C411 1.397 . S
C415 C414 1.394 . S
C415 C425 1.723 . S
C416 C413 1.453 . S
C416 H440 0.982 . S
C416 H441 0.979 . S
C416 H442 0.977 . S
C417 C413 1.684 . S
C417 H443 0.979 . S
C417 H444 0.980 . S
C417 H445 0.983 . S
C418 H394 0.948 . S
C418 C419 1.391 . S
C418 C423 1.391 . S
C419 C418 1.391 . S
C419 C420 1.391 . S
C420 H397 0.947 . S
C420 C419 1.391 . S
C420 C421 1.392 . S
C421 H398 0.948 . S
C421 C420 1.392 . S
C421 C422 1.419 . S
C422 C421 1.419 . S
C422 C423 1.391 . S
C422 C426 1.397 . S
C423 C418 1.391 . S
C423 C422 1.391 . S
C423 C424 1.399 . S
C424 C423 1.399 . S
C424 C425 1.396 . S
C424 C427 1.453 . S
C424 C428 1.684 . S
C425 C415 1.723 . S
C425 C424 1.396 . S
C425 C426 1.394 . S
C426 C396 1.723 . S
C426 C422 1.397 . S
C426 C425 1.394 . S
C427 H399 0.982 . S
C427 H403 0.979 . S
C427 H404 0.977 . S
C427 C424 1.453 . S
C428 H400 0.979 . S
C428 H401 0.980 . S
C428 H402 0.983 . S
C428 C424 1.684 . S
H429 C447 0.948 . S
H430 C388 0.948 . S
H431 C406 0.979 . S
H432 C406 0.980 . S
H433 C406 0.983 . S
H434 C405 0.982 . S
H435 C405 0.979 . S
H436 C405 0.977 . S
H437 C407 0.948 . S
H438 C409 0.947 1_565 S
H439 C410 0.948 . S
H440 C416 0.982 . S
H441 C416 0.979 . S
H442 C416 0.977 . S
H443 C417 0.979 . S
H444 C417 0.980 . S
H445 C417 0.983 . S
H446 C390 0.947 . S
C447 C390 1.392 . S
C447 C391 1.419 . S
C447 H429 0.948 . S
C448 C449 1.391 . S
C448 C452 1.391 . S
C448 H490 0.948 . S
C449 C448 1.391 . S
C449 C450 1.391 . S
C450 C449 1.391 . S
C450 H506 0.947 . S
C450 C507 1.392 . S
C451 C452 1.391 . S
C451 C455 1.397 . S
C451 C507 1.419 . S
C452 C448 1.391 . S
C452 C451 1.391 . S
C452 C453 1.399 . S
C453 C452 1.399 . S
C453 C456 1.396 . S
C453 C465 1.453 . S
C453 C466 1.684 . S
H454 C478 0.948 . S
C455 C451 1.397 . S
C455 C456 1.394 . S
C455 C474 1.723 . S
C456 C453 1.396 . S
C456 C455 1.394 . S
C456 C486 1.723 . S
H457 C480 0.947 . S
H458 C481 0.948 . S
H459 C487 0.982 . S
H460 C488 0.979 . S
H461 C488 0.980 . S
H462 C488 0.983 . S
H463 C487 0.979 . S
H464 C487 0.977 . S
C465 C453 1.453 . S
C465 H494 0.982 . S
C465 H495 0.979 . S
C465 H496 0.977 . S
C466 C453 1.684 . S
C466 H491 0.979 . S
C466 H492 0.980 . S
C466 H493 0.983 . S
C467 C468 1.391 . S
C467 C472 1.391 . S
C467 H497 0.948 . S
C468 C467 1.391 . S
C468 C469 1.391 . S
C469 C468 1.391 . S
C469 C470 1.392 . S
C469 H498 0.947 . S
C470 C469 1.392 . S
C470 C471 1.419 . S
C470 H499 0.948 . S
C471 C470 1.419 . S
C471 C472 1.391 . S
C471 C475 1.397 . S
C472 C467 1.391 . S
C472 C471 1.391 . S
C472 C473 1.399 . S
C473 C472 1.399 . S
C473 C474 1.396 . S
C473 C476 1.453 . S
C473 C477 1.684 . S
C474 C455 1.723 . S
C474 C473 1.396 . S
C474 C475 1.394 . S
C475 C471 1.397 . S
C475 C474 1.394 . S
C475 C485 1.723 . S
C476 C473 1.453 . S
C476 H500 0.982 . S
C476 H501 0.979 . S
C476 H502 0.977 . S
C477 C473 1.684 . S
C477 H503 0.979 . S
C477 H504 0.980 . S
C477 H505 0.983 . S
C478 H454 0.948 . S
C478 C479 1.391 . S
C478 C483 1.391 . S
C479 C478 1.391 . S
C479 C480 1.391 . S
C480 H457 0.947 . S
C480 C479 1.391 . S
C480 C481 1.392 . S
C481 H458 0.948 . S
C481 C480 1.392 . S
C481 C482 1.419 . S
C482 C481 1.419 . S
C482 C483 1.391 . S
C482 C486 1.397 . S
C483 C478 1.391 . S
C483 C482 1.391 . S
C483 C484 1.399 . S
C484 C483 1.399 . S
C484 C485 1.396 . S
C484 C487 1.453 . S
C484 C488 1.684 . S
C485 C475 1.723 . S
C485 C484 1.396 . S
C485 C486 1.394 . S
C486 C456 1.723 . S
C486 C482 1.397 . S
C486 C485 1.394 . S
C487 H459 0.982 . S
C487 H463 0.979 . S
C487 H464 0.977 . S
C487 C484 1.453 . S
C488 H460 0.979 . S
C488 H461 0.980 . S
C488 H462 0.983 . S
C488 C484 1.684 . S
H489 C507 0.948 . S
H490 C448 0.948 . S
H491 C466 0.979 . S
H492 C466 0.980 . S
H493 C466 0.983 . S
H494 C465 0.982 . S
H495 C465 0.979 . S
H496 C465 0.977 . S
H497 C467 0.948 . S
H498 C469 0.947 . S
H499 C470 0.948 . S
H500 C476 0.982 . S
H501 C476 0.979 . S
H502 C476 0.977 . S
H503 C477 0.979 . S
H504 C477 0.980 . S
H505 C477 0.983 . S
H506 C450 0.947 . S
C507 C450 1.392 . S
C507 C451 1.419 . S
C507 H489 0.948 . S
C508 C509 1.391 . S
C508 C512 1.391 . S
C508 H550 0.948 . S
C509 C508 1.391 . S
C509 C510 1.391 . S
C510 C509 1.391 . S
C510 H566 0.947 . S
C510 C567 1.392 . S
C511 C512 1.391 . S
C511 C515 1.397 . S
C511 C567 1.419 . S
C512 C508 1.391 . S
C512 C511 1.391 . S
C512 C513 1.399 . S
C513 C512 1.399 . S
C513 C516 1.396 . S
C513 C525 1.453 . S
C513 C526 1.684 . S
H514 C538 0.948 . S
C515 C511 1.397 . S
C515 C516 1.394 . S
C515 C534 1.723 . S
C516 C513 1.396 . S
C516 C515 1.394 . S
C516 C546 1.723 . S
H517 C540 0.947 . S
H518 C541 0.948 . S
H519 C547 0.982 . S
H520 C548 0.979 . S
H521 C548 0.980 . S
H522 C548 0.983 . S
H523 C547 0.979 . S
H524 C547 0.977 . S
C525 C513 1.453 . S
C525 H554 0.982 . S
C525 H555 0.979 . S
C525 H556 0.977 . S
C526 C513 1.684 . S
C526 H551 0.979 . S
C526 H552 0.980 . S
C526 H553 0.983 . S
C527 C528 1.391 1_655 S
C527 C532 1.391 . S
C527 H557 0.948 1_655 S
C528 C527 1.391 1_455 S
C528 C529 1.391 1_455 S
C529 C528 1.391 1_655 S
C529 C530 1.392 . S
C529 H558 0.947 1_655 S
C530 C529 1.392 . S
C530 C531 1.419 . S
C530 H559 0.948 . S
C531 C530 1.419 . S
C531 C532 1.391 . S
C531 C535 1.397 . S
C532 C527 1.391 . S
C532 C531 1.391 . S
C532 C533 1.399 . S
C533 C532 1.399 . S
C533 C534 1.396 . S
C533 C536 1.453 . S
C533 C537 1.684 . S
C534 C515 1.723 . S
C534 C533 1.396 . S
C534 C535 1.394 . S
C535 C531 1.397 . S
C535 C534 1.394 . S
C535 C545 1.723 . S
C536 C533 1.453 . S
C536 H560 0.982 . S
C536 H561 0.979 . S
C536 H562 0.977 . S
C537 C533 1.684 . S
C537 H563 0.979 . S
C537 H564 0.980 . S
C537 H565 0.983 . S
C538 H514 0.948 . S
C538 C539 1.391 . S
C538 C543 1.391 . S
C539 C538 1.391 . S
C539 C540 1.391 . S
C540 H517 0.947 . S
C540 C539 1.391 . S
C540 C541 1.392 . S
C541 H518 0.948 . S
C541 C540 1.392 . S
C541 C542 1.419 . S
C542 C541 1.419 . S
C542 C543 1.391 . S
C542 C546 1.397 . S
C543 C538 1.391 . S
C543 C542 1.391 . S
C543 C544 1.399 . S
C544 C543 1.399 . S
C544 C545 1.396 . S
C544 C547 1.453 . S
C544 C548 1.684 . S
C545 C535 1.723 . S
C545 C544 1.396 . S
C545 C546 1.394 . S
C546 C516 1.723 . S
C546 C542 1.397 . S
C546 C545 1.394 . S
C547 H519 0.982 . S
C547 H523 0.979 . S
C547 H524 0.977 . S
C547 C544 1.453 . S
C548 H520 0.979 . S
C548 H521 0.980 . S
C548 H522 0.983 . S
C548 C544 1.684 . S
H549 C567 0.948 . S
H550 C508 0.948 . S
H551 C526 0.979 . S
H552 C526 0.980 . S
H553 C526 0.983 . S
H554 C525 0.982 . S
H555 C525 0.979 . S
H556 C525 0.977 . S
H557 C527 0.948 1_455 S
H558 C529 0.947 1_455 S
H559 C530 0.948 . S
H560 C536 0.982 . S
H561 C536 0.979 . S
H562 C536 0.977 . S
H563 C537 0.979 . S
H564 C537 0.980 . S
H565 C537 0.983 . S
H566 C510 0.947 . S
C567 C510 1.392 . S
C567 C511 1.419 . S
C567 H549 0.948 . S
C568 C569 1.363 . S
C568 C574 1.379 . S
C568 N576 1.356 . S
C569 C568 1.363 . S
C569 C575 1.363 . S
C570 C571 1.365 . S
C570 C575 1.374 1_545 S
C570 N577 1.360 . S
C571 C570 1.365 . S
C571 C574 1.363 1_545 S
N572 C574 1.356 1_545 S
N572 H584 0.984 . S
N572 H585 0.985 . S
N573 C575 1.356 . S
N573 H578 0.984 . S
N573 H579 0.985 . S
C574 C568 1.379 . S
C574 C571 1.363 1_565 S
C574 N572 1.356 1_565 S
C575 C569 1.363 . S
C575 C570 1.374 1_565 S
C575 N573 1.356 . S
N576 C568 1.356 . S
N576 H582 0.984 . S
N576 H583 0.984 . S
N577 C570 1.360 . S
N577 H580 0.984 . S
N577 H581 0.985 . S
H578 N573 0.984 . S
H579 N573 0.985 . S
H580 N577 0.984 . S
H581 N577 0.985 . S
H582 N576 0.984 . S
H583 N576 0.984 . S
H584 N572 0.984 . S
H585 N572 0.985 . S
C586 C587 1.363 . S
C586 C592 1.379 . S
C586 N594 1.356 . S
C587 C586 1.363 . S
C587 C593 1.363 . S
C588 C589 1.363 . S
C588 C593 1.379 . S
C588 N595 1.356 . S
C589 C588 1.363 . S
C589 C592 1.363 . S
N590 C592 1.356 . S
N590 H602 0.984 . S
N590 H603 0.985 . S
N591 C593 1.356 . S
N591 H596 0.984 . S
N591 H597 0.985 . S
C592 C586 1.379 . S
C592 C589 1.363 . S
C592 N590 1.356 . S
C593 C587 1.363 . S
C593 C588 1.379 . S
C593 N591 1.356 . S
N594 C586 1.356 . S
N594 H600 0.984 . S
N594 H601 0.984 . S
N595 C588 1.356 . S
N595 H598 0.984 . S
N595 H599 0.985 . S
H596 N591 0.984 . S
H597 N591 0.985 . S
H598 N595 0.984 . S
H599 N595 0.985 . S
H600 N594 0.984 . S
H601 N594 0.984 . S
H602 N590 0.984 . S
H603 N590 0.985 . S
C604 C605 1.363 . S
C604 C610 1.379 . S
C604 N612 1.356 . S
C605 C604 1.363 . S
C605 C611 1.363 . S
C606 C607 1.363 . S
C606 C611 1.379 . S
C606 N613 1.356 1_545 S
C607 C606 1.363 . S
C607 C610 1.363 . S
N608 C610 1.356 . S
N608 H620 0.984 . S
N608 H621 0.985 . S
N609 C611 1.356 . S
N609 H614 0.984 . S
N609 H615 0.985 . S
C610 C604 1.379 . S
C610 C607 1.363 . S
C610 N608 1.356 . S
C611 C605 1.363 . S
C611 C606 1.379 . S
C611 N609 1.356 . S
N612 C604 1.356 . S
N612 H618 0.984 . S
N612 H619 0.984 . S
N613 C606 1.356 1_565 S
N613 H616 0.984 . S
N613 H617 0.985 . S
H614 N609 0.984 . S
H615 N609 0.985 . S
H616 N613 0.984 . S
H617 N613 0.985 . S
H618 N612 0.984 . S
H619 N612 0.984 . S
H620 N608 0.984 . S
H621 N608 0.985 . S
C622 C623 1.363 . S
C622 C628 1.379 . S
C622 N630 1.356 . S
C623 C622 1.363 . S
C623 C629 1.363 . S
C624 C625 1.363 . S
C624 C629 1.379 . S
C624 N631 1.356 . S
C625 C624 1.363 . S
C625 C628 1.363 . S
N626 C628 1.356 . S
N626 H638 0.984 . S
N626 H639 0.985 . S
N627 C629 1.356 . S
N627 H632 0.984 . S
N627 H633 0.985 . S
C628 C622 1.379 . S
C628 C625 1.363 . S
C628 N626 1.356 . S
C629 C623 1.363 . S
C629 C624 1.379 . S
C629 N627 1.356 . S
N630 C622 1.356 . S
N630 H636 0.984 . S
N630 H637 0.984 . S
N631 C624 1.356 . S
N631 H634 0.984 . S
N631 H635 0.985 . S
H632 N627 0.984 . S
H633 N627 0.985 . S
H634 N631 0.984 . S
H635 N631 0.985 . S
H636 N630 0.984 . S
H637 N630 0.984 . S
H638 N626 0.984 . S
H639 N626 0.985 . S
C640 C641 1.363 . S
C640 C646 1.379 . S
C640 N648 1.356 . S
C641 C640 1.363 . S
C641 C647 1.363 . S
C642 C643 1.363 . S
C642 C647 1.379 . S
C642 N649 1.356 . S
C643 C642 1.363 . S
C643 C646 1.363 . S
N644 C646 1.356 . S
N644 H656 0.984 . S
N644 H657 0.985 . S
N645 C647 1.356 . S
N645 H650 0.984 . S
N645 H651 0.985 . S
C646 C640 1.379 . S
C646 C643 1.363 . S
C646 N644 1.356 . S
C647 C641 1.363 . S
C647 C642 1.379 . S
C647 N645 1.356 . S
N648 C640 1.356 . S
N648 H654 0.984 . S
N648 H655 0.984 . S
N649 C642 1.356 . S
N649 H652 0.984 . S
N649 H653 0.985 . S
H650 N645 0.984 . S
H651 N645 0.985 . S
H652 N649 0.984 . S
H653 N649 0.985 . S
H654 N648 0.984 . S
H655 N648 0.984 . S
H656 N644 0.984 . S
H657 N644 0.985 . S
C658 C659 1.363 . S
C658 C664 1.379 1_655 S
C658 N666 1.356 . S
C659 C658 1.363 . S
C659 C665 1.363 . S
C660 C661 1.363 1_655 S
C660 C665 1.379 . S
C660 N667 1.356 1_655 S
C661 C660 1.363 1_455 S
C661 C664 1.363 . S
N662 C664 1.356 . S
N662 H674 0.984 . S
N662 H675 0.985 . S
N663 C665 1.356 . S
N663 H668 0.984 . S
N663 H669 0.985 . S
C664 C658 1.379 1_455 S
C664 C661 1.363 . S
C664 N662 1.356 . S
C665 C659 1.363 . S
C665 C660 1.379 . S
C665 N663 1.356 . S
N666 C658 1.356 . S
N666 H672 0.984 . S
N666 H673 0.984 . S
N667 C660 1.356 1_455 S
N667 H670 0.984 . S
N667 H671 0.985 1_455 S
H668 N663 0.984 . S
H669 N663 0.985 . S
H670 N667 0.984 . S
H671 N667 0.985 1_655 S
H672 N666 0.984 . S
H673 N666 0.984 . S
H674 N662 0.984 . S
H675 N662 0.985 . S
C676 C677 1.363 . S
C676 C682 1.379 . S
C676 N684 1.356 . S
C677 C676 1.363 . S
C677 C683 1.363 . S
C678 C679 1.363 . S
C678 C683 1.379 . S
C678 N685 1.356 . S
C679 C678 1.363 . S
C679 C682 1.363 . S
N680 C682 1.356 . S
N680 H692 0.984 . S
N680 H693 0.985 . S
N681 C683 1.356 . S
N681 H686 0.984 . S
N681 H687 0.985 . S
C682 C676 1.379 . S
C682 C679 1.363 . S
C682 N680 1.356 . S
C683 C677 1.363 . S
C683 C678 1.379 . S
C683 N681 1.356 . S
N684 C676 1.356 . S
N684 H690 0.984 . S
N684 H691 0.984 . S
N685 C678 1.356 . S
N685 H688 0.984 . S
N685 H689 0.985 . S
H686 N681 0.984 . S
H687 N681 0.985 . S
H688 N685 0.984 . S
H689 N685 0.985 . S
H690 N684 0.984 . S
H691 N684 0.984 . S
H692 N680 0.984 . S
H693 N680 0.985 . S
C694 C695 1.363 . S
C694 C700 1.379 . S
C694 N702 1.356 . S
C695 C694 1.363 . S
C695 C701 1.363 . S
C696 C697 1.363 . S
C696 C701 1.379 . S
C696 N703 1.358 1_455 S
C697 C696 1.363 . S
C697 C700 1.363 . S
N698 C700 1.356 . S
N698 H710 0.984 . S
N698 H711 0.985 . S
N699 C701 1.356 . S
N699 H704 0.984 1_556 S
N699 H705 0.985 . S
C700 C694 1.379 . S
C700 C697 1.363 . S
C700 N698 1.356 . S
C701 C695 1.363 . S
C701 C696 1.379 . S
C701 N699 1.356 . S
N702 C694 1.356 . S
N702 H708 0.984 . S
N702 H709 0.984 1_556 S
N703 C696 1.358 1_655 S
N703 H706 0.984 . S
N703 H707 0.984 . S
H704 N699 0.984 1_554 S
H705 N699 0.985 . S
H706 N703 0.984 . S
H707 N703 0.984 . S
H708 N702 0.984 . S
H709 N702 0.984 1_554 S
H710 N698 0.984 . S
H711 N698 0.985 . S
C712 C713 1.363 . S
C712 C718 1.379 . S
C712 N720 1.356 . S
C713 C712 1.363 . S
C713 C719 1.363 . S
C714 C715 1.363 . S
C714 C719 1.379 1_565 S
C714 N721 1.356 . S
C715 C714 1.363 . S
C715 C718 1.363 1_565 S
N716 C718 1.356 . S
N716 H728 0.984 . S
N716 H729 0.985 1_545 S
N717 C719 1.356 . S
N717 H722 0.984 . S
N717 H723 0.985 1_556 S
C718 C712 1.379 . S
C718 C715 1.363 1_545 S
C718 N716 1.356 . S
C719 C713 1.363 . S
C719 C714 1.379 1_545 S
C719 N717 1.356 . S
N720 C712 1.356 . S
N720 H726 0.984 . S
N720 H727 0.984 . S
N721 C714 1.356 . S
N721 H724 0.984 . S
N721 H725 0.985 . S
H722 N717 0.984 . S
H723 N717 0.985 1_554 S
H724 N721 0.984 . S
H725 N721 0.985 . S
H726 N720 0.984 . S
H727 N720 0.984 . S
H728 N716 0.984 . S
H729 N716 0.985 1_565 S
C730 C731 1.363 . S
C730 C736 1.379 . S
C730 N738 1.356 . S
C731 C730 1.363 . S
C731 C737 1.363 . S
C732 C733 1.363 . S
C732 C737 1.379 . S
C732 N739 1.356 . S
C733 C732 1.363 . S
C733 C736 1.363 . S
N734 C736 1.356 . S
N734 H746 0.984 . S
N734 H747 0.985 . S
N735 C737 1.356 . S
N735 H740 0.984 . S
N735 H741 0.985 . S
C736 C730 1.379 . S
C736 C733 1.363 . S
C736 N734 1.356 . S
C737 C731 1.363 . S
C737 C732 1.379 . S
C737 N735 1.356 . S
N738 C730 1.356 . S
N738 H744 0.984 . S
N738 H745 0.984 . S
N739 C732 1.356 . S
N739 H742 0.984 . S
N739 H743 0.985 . S
H740 N735 0.984 . S
H741 N735 0.985 . S
H742 N739 0.984 . S
H743 N739 0.985 . S
H744 N738 0.984 . S
H745 N738 0.984 . S
H746 N734 0.984 . S
H747 N734 0.985 . S
C748 C749 1.363 . S
C748 C754 1.379 . S
C748 N756 1.356 1_556 S
C749 C748 1.363 . S
C749 C755 1.363 . S
C750 C751 1.363 . S
C750 C755 1.379 . S
C750 N757 1.356 . S
C751 C750 1.363 . S
C751 C754 1.363 . S
N752 C754 1.356 1_545 S
N752 H764 0.984 . S
N752 H765 0.985 . S
N753 C755 1.356 . S
N753 H758 0.984 . S
N753 H759 0.985 . S
C754 C748 1.379 . S
C754 C751 1.363 . S
C754 N752 1.356 1_565 S
C755 C749 1.363 . S
C755 C750 1.379 . S
C755 N753 1.356 . S
N756 C748 1.356 1_554 S
N756 H762 0.984 . S
N756 H763 0.984 . S
N757 C750 1.356 . S
N757 H760 0.984 . S
N757 H761 0.985 . S
H758 N753 0.984 . S
H759 N753 0.985 . S
H760 N757 0.984 . S
H761 N757 0.985 . S
H762 N756 0.984 . S
H763 N756 0.984 . S
H764 N752 0.984 . S
H765 N752 0.985 . S
C766 C767 1.363 . S
C766 C772 1.379 . S
C766 N774 1.356 . S
C767 C766 1.363 . S
C767 C773 1.363 . S
C768 C769 1.363 . S
C768 C773 1.379 . S
C768 N775 1.356 . S
C769 C768 1.363 . S
C769 C772 1.363 . S
N770 C772 1.356 . S
N770 H782 0.984 . S
N770 H783 0.985 . S
N771 C773 1.356 . S
N771 H776 0.984 . S
N771 H777 0.985 . S
C772 C766 1.379 . S
C772 C769 1.363 . S
C772 N770 1.356 . S
C773 C767 1.363 . S
C773 C768 1.379 . S
C773 N771 1.356 . S
N774 C766 1.356 . S
N774 H780 0.984 . S
N774 H781 0.984 . S
N775 C768 1.356 . S
N775 H778 0.984 . S
N775 H779 0.985 . S
H776 N771 0.984 . S
H777 N771 0.985 . S
H778 N775 0.984 . S
H779 N775 0.985 . S
H780 N774 0.984 . S
H781 N774 0.984 . S
H782 N770 0.984 . S
H783 N770 0.985 . S
C784 C785 1.363 . S
C784 C790 1.379 . S
C784 N792 1.356 . S
C785 C784 1.363 . S
C785 C791 1.363 . S
C786 C787 1.363 . S
C786 C791 1.379 . S
C786 N793 1.356 . S
C787 C786 1.363 . S
C787 C790 1.363 . S
N788 C790 1.356 . S
N788 H800 0.984 . S
N788 H801 0.985 . S
N789 C791 1.356 . S
N789 H794 0.984 . S
N789 H795 0.985 . S
C790 C784 1.379 . S
C790 C787 1.363 . S
C790 N788 1.356 . S
C791 C785 1.363 . S
C791 C786 1.379 . S
C791 N789 1.356 . S
N792 C784 1.356 . S
N792 H798 0.984 . S
N792 H799 0.984 . S
N793 C786 1.356 . S
N793 H796 0.984 . S
N793 H797 0.985 . S
H794 N789 0.984 . S
H795 N789 0.985 . S
H796 N793 0.984 . S
H797 N793 0.985 . S
H798 N792 0.984 . S
H799 N792 0.984 . S
H800 N788 0.984 . S
H801 N788 0.985 . S
C802 C803 1.363 . S
C802 C808 1.379 . S
C802 N810 1.356 . S
C803 C802 1.363 . S
C803 C809 1.363 . S
C804 C805 1.363 . S
C804 C809 1.379 1_655 S
C804 N811 1.356 . S
C805 C804 1.363 . S
C805 C808 1.363 1_655 S
N806 C808 1.356 1_655 S
N806 H818 0.984 1_655 S
N806 H819 0.985 . S
N807 C809 1.356 . S
N807 H812 0.984 . S
N807 H813 0.985 . S
C808 C802 1.379 . S
C808 C805 1.363 1_455 S
C808 N806 1.356 1_455 S
C809 C803 1.363 . S
C809 C804 1.379 1_455 S
C809 N807 1.356 . S
N810 C802 1.356 . S
N810 H816 0.984 . S
N810 H817 0.984 . S
N811 C804 1.356 . S
N811 H814 0.984 . S
N811 H815 0.985 . S
H812 N807 0.984 . S
H813 N807 0.985 . S
H814 N811 0.984 . S
H815 N811 0.985 . S
H816 N810 0.984 . S
H817 N810 0.984 . S
H818 N806 0.984 1_455 S
H819 N806 0.985 . S
C820 C821 1.363 . S
C820 C826 1.379 . S
C820 N828 1.356 . S
C821 C820 1.363 . S
C821 C827 1.363 . S
C822 C823 1.363 . S
C822 C827 1.379 . S
C822 N829 1.356 . S
C823 C822 1.363 . S
C823 C826 1.363 . S
N824 C826 1.356 . S
N824 H836 0.984 . S
N824 H837 0.985 . S
N825 C827 1.356 . S
N825 H830 0.984 . S
N825 H831 0.985 . S
C826 C820 1.379 . S
C826 C823 1.363 . S
C826 N824 1.356 . S
C827 C821 1.363 . S
C827 C822 1.379 . S
C827 N825 1.356 . S
N828 C820 1.356 . S
N828 H834 0.984 . S
N828 H835 0.984 . S
N829 C822 1.356 . S
N829 H832 0.984 . S
N829 H833 0.985 . S
H830 N825 0.984 . S
H831 N825 0.985 . S
H832 N829 0.984 . S
H833 N829 0.985 . S
H834 N828 0.984 . S
H835 N828 0.984 . S
H836 N824 0.984 . S
H837 N824 0.985 . S
C838 C839 1.363 . S
C838 C844 1.379 . S
C838 N846 1.356 . S
C839 C838 1.363 . S
C839 C845 1.363 . S
C840 C841 1.363 . S
C840 C845 1.379 . S
C840 N847 1.356 . S
C841 C840 1.363 . S
C841 C844 1.363 . S
N842 C844 1.356 . S
N842 H854 0.984 . S
N842 H855 0.985 . S
N843 C845 1.356 . S
N843 H848 0.984 . S
N843 H849 0.985 . S
C844 C838 1.379 . S
C844 C841 1.363 . S
C844 N842 1.356 . S
C845 C839 1.363 . S
C845 C840 1.379 . S
C845 N843 1.356 . S
N846 C838 1.356 . S
N846 H852 0.984 . S
N846 H853 0.984 . S
N847 C840 1.356 . S
N847 H850 0.984 . S
N847 H851 0.985 . S
H848 N843 0.984 . S
H849 N843 0.985 . S
H850 N847 0.984 . S
H851 N847 0.985 . S
H852 N846 0.984 . S
H853 N846 0.984 . S
H854 N842 0.984 . S
H855 N842 0.985 . S
C856 C857 1.363 . S
C856 C862 1.379 . S
C856 N864 1.356 . S
C857 C856 1.363 . S
C857 C863 1.363 . S
C858 C859 1.363 . S
C858 C863 1.379 . S
C858 N865 1.356 . S
C859 C858 1.363 . S
C859 C862 1.363 . S
N860 C862 1.356 . S
N860 H872 0.984 . S
N860 H873 0.985 . S
N861 C863 1.356 . S
N861 H866 0.984 . S
N861 H867 0.985 . S
C862 C856 1.379 . S
C862 C859 1.363 . S
C862 N860 1.356 . S
C863 C857 1.363 . S
C863 C858 1.379 . S
C863 N861 1.356 . S
N864 C856 1.356 . S
N864 H870 0.984 . S
N864 H871 0.984 . S
N865 C858 1.356 . S
N865 H868 0.984 . S
N865 H869 0.985 . S
H866 N861 0.984 . S
H867 N861 0.985 . S
H868 N865 0.984 . S
H869 N865 0.985 . S
H870 N864 0.984 . S
H871 N864 0.984 . S
H872 N860 0.984 . S
H873 N860 0.985 . S
C874 C875 1.363 . S
C874 C880 1.379 . S
C874 N882 1.356 . S
C875 C874 1.363 . S
C875 C881 1.363 . S
C876 C877 1.363 . S
C876 C881 1.379 . S
C876 N883 1.356 . S
C877 C876 1.363 . S
C877 C880 1.363 . S
N878 C880 1.356 . S
N878 H890 0.984 . S
N878 H891 0.985 . S
N879 C881 1.356 . S
N879 H884 0.984 . S
N879 H885 0.985 . S
C880 C874 1.379 . S
C880 C877 1.363 . S
C880 N878 1.356 . S
C881 C875 1.363 . S
C881 C876 1.379 . S
C881 N879 1.356 . S
N882 C874 1.356 . S
N882 H888 0.984 . S
N882 H889 0.984 . S
N883 C876 1.356 . S
N883 H886 0.984 . S
N883 H887 0.985 . S
H884 N879 0.984 . S
H885 N879 0.985 . S
H886 N883 0.984 . S
H887 N883 0.985 . S
H888 N882 0.984 . S
H889 N882 0.984 . S
H890 N878 0.984 . S
H891 N878 0.985 . S
C892 C893 1.363 . S
C892 C898 1.379 . S
C892 N900 1.356 . S
C893 C892 1.363 . S
C893 C899 1.363 . S
C894 C895 1.363 . S
C894 C899 1.379 . S
C894 N901 1.356 . S
C895 C894 1.363 . S
C895 C898 1.363 . S
N896 C898 1.356 . S
N896 H908 0.984 . S
N896 H909 0.985 . S
N897 C899 1.356 . S
N897 H902 0.984 . S
N897 H903 0.985 . S
C898 C892 1.379 . S
C898 C895 1.363 . S
C898 N896 1.356 . S
C899 C893 1.363 . S
C899 C894 1.379 . S
C899 N897 1.356 . S
N900 C892 1.356 . S
N900 H906 0.984 1_554 S
N900 H907 0.984 . S
N901 C894 1.356 . S
N901 H904 0.984 . S
N901 H905 0.985 . S
H902 N897 0.984 . S
H903 N897 0.985 . S
H904 N901 0.984 . S
H905 N901 0.985 . S
H906 N900 0.984 1_556 S
H907 N900 0.984 . S
H908 N896 0.984 . S
H909 N896 0.985 . S
C910 C911 1.363 . S
C910 C916 1.379 . S
C910 N918 1.356 . S
C911 C910 1.363 . S
C911 C917 1.363 . S
C912 C913 1.363 . S
C912 C917 1.379 . S
C912 N919 1.356 . S
C913 C912 1.363 . S
C913 C916 1.363 . S
N914 C916 1.356 . S
N914 H926 0.984 . S
N914 H927 0.985 . S
N915 C917 1.356 . S
N915 H920 0.984 . S
N915 H921 0.985 . S
C916 C910 1.379 . S
C916 C913 1.363 . S
C916 N914 1.356 . S
C917 C911 1.363 . S
C917 C912 1.379 . S
C917 N915 1.356 . S
N918 C910 1.356 . S
N918 H924 0.984 . S
N918 H925 0.984 . S
N919 C912 1.356 . S
N919 H922 0.984 . S
N919 H923 0.985 . S
H920 N915 0.984 . S
H921 N915 0.985 . S
H922 N919 0.984 . S
H923 N919 0.985 . S
H924 N918 0.984 . S
H925 N918 0.984 . S
H926 N914 0.984 . S
H927 N914 0.985 . S
C928 C929 1.363 . S
C928 C934 1.379 . S
C928 N936 1.356 . S
C929 C928 1.363 . S
C929 C935 1.363 . S
C930 C931 1.363 . S
C930 C935 1.379 . S
C930 N937 1.356 . S
C931 C930 1.363 . S
C931 C934 1.363 . S
N932 C934 1.356 . S
N932 H944 0.984 . S
N932 H945 0.985 . S
N933 C935 1.356 . S
N933 H938 0.984 . S
N933 H939 0.985 . S
C934 C928 1.379 . S
C934 C931 1.363 . S
C934 N932 1.356 . S
C935 C929 1.363 . S
C935 C930 1.379 . S
C935 N933 1.356 . S
N936 C928 1.356 . S
N936 H942 0.984 . S
N936 H943 0.984 . S
N937 C930 1.356 . S
N937 H940 0.984 . S
N937 H941 0.985 . S
H938 N933 0.984 . S
H939 N933 0.985 . S
H940 N937 0.984 . S
H941 N937 0.985 . S
H942 N936 0.984 . S
H943 N936 0.984 . S
H944 N932 0.984 . S
H945 N932 0.985 . S
C946 C947 1.363 . S
C946 C952 1.379 . S
C946 N954 1.356 . S
C947 C946 1.363 . S
C947 C953 1.363 . S
C948 C949 1.363 . S
C948 C953 1.379 . S
C948 N955 1.356 . S
C949 C948 1.363 . S
C949 C952 1.363 . S
N950 C952 1.356 . S
N950 H962 0.984 . S
N950 H963 0.985 . S
N951 C953 1.356 . S
N951 H956 0.984 . S
N951 H957 0.985 . S
C952 C946 1.379 . S
C952 C949 1.363 . S
C952 N950 1.356 . S
C953 C947 1.363 . S
C953 C948 1.379 . S
C953 N951 1.356 . S
N954 C946 1.356 . S
N954 H960 0.984 . S
N954 H961 0.984 . S
N955 C948 1.356 . S
N955 H958 0.984 . S
N955 H959 0.985 . S
H956 N951 0.984 . S
H957 N951 0.985 . S
H958 N955 0.984 . S
H959 N955 0.985 . S
H960 N954 0.984 . S
H961 N954 0.984 . S
H962 N950 0.984 . S
H963 N950 0.985 . S
C964 C965 1.363 . S
C964 C970 1.379 . S
C964 N972 1.356 . S
C965 C964 1.363 . S
C965 C971 1.363 . S
C966 C967 1.363 . S
C966 C971 1.379 . S
C966 N973 1.356 . S
C967 C966 1.363 . S
C967 C970 1.363 . S
N968 C970 1.356 . S
N968 H980 0.984 . S
N968 H981 0.985 . S
N969 C971 1.356 . S
N969 H974 0.984 . S
N969 H975 0.985 . S
C970 C964 1.379 . S
C970 C967 1.363 . S
C970 N968 1.356 . S
C971 C965 1.363 . S
C971 C966 1.379 . S
C971 N969 1.356 . S
N972 C964 1.356 . S
N972 H978 0.984 . S
N972 H979 0.984 . S
N973 C966 1.356 . S
N973 H976 0.984 . S
N973 H977 0.985 . S
H974 N969 0.984 . S
H975 N969 0.985 . S
H976 N973 0.984 . S
H977 N973 0.985 . S
H978 N972 0.984 . S
H979 N972 0.984 . S
H980 N968 0.984 . S
H981 N968 0.985 . S
C982 C983 1.363 1_556 S
C982 C988 1.379 . S
C982 N990 1.356 . S
C983 C982 1.363 1_554 S
C983 C989 1.363 . S
C984 C985 1.363 . S
C984 C989 1.379 . S
C984 N991 1.356 . S
C985 C984 1.363 . S
C985 C988 1.363 1_554 S
N986 C988 1.356 . S
N986 H998 0.984 . S
N986 H999 0.985 . S
N987 C989 1.356 . S
N987 H992 0.984 . S
N987 H993 0.985 . S
C988 C982 1.379 . S
C988 C985 1.363 1_556 S
C988 N986 1.356 . S
C989 C983 1.363 . S
C989 C984 1.379 . S
C989 N987 1.356 . S
N990 C982 1.356 . S
N990 H996 0.984 . S
N990 H997 0.984 . S
N991 C984 1.356 . S
N991 H994 0.984 . S
N991 H995 0.985 . S
H992 N987 0.984 . S
H993 N987 0.985 . S
H994 N991 0.984 . S
H995 N991 0.985 . S
H996 N990 0.984 . S
H997 N990 0.984 . S
H998 N986 0.984 . S
H999 N986 0.985 . S
C569 C7 1.431 . S
C571 C89 1.336 . S
C587 C37 1.797 . S
C589 C168 1.629 . S
C605 C54 1.666 . S
C607 C239 1.577 . S
C625 C299 1.845 . S
C623 C87 1.853 . S
C643 C329 1.554 . S
C641 C30 1.748 . S
C659 C51 1.449 . S
C661 C419 1.448 . S
C677 C84 1.862 . S
C679 C479 1.824 . S
C695 C10 1.693 1_556 S
C697 C528 1.604 . S
C713 C59 1.459 . S
C715 C509 1.360 . S
C733 C348 1.700 . S
C731 C74 1.754 . S
C751 C408 1.372 . S
C749 C18 1.702 1_556 S
C767 C32 1.876 . S
C769 C468 1.687 . S
C787 C149 1.491 . S
C785 C73 1.803 . S
C803 C15 1.441 . S
C805 C228 1.339 . S
C823 C288 1.707 . S
C821 C43 1.867 . S
C841 C108 1.589 . S
C839 C62 1.675 . S
C859 C449 1.777 . S
C857 C21 1.852 . S
C877 C539 1.193 . S
C875 C29 1.287 . S
C893 C52 1.476 . S
C895 C359 1.448 . S
C913 C389 1.278 . S
C911 C81 1.283 . S
C931 C209 1.169 . S
C929 C40 1.254 . S
C947 C65 1.814 . S
C949 C269 1.742 . S
C967 C119 1.156 . S
C965 C76 1.251 . S
C985 C179 1.393 1_554 S
C983 C8 1.515 . S
