# Generated by pormake.
# Topology tbo, (3,4)-cn, num edge types: 1
# Building blocks:
#     Node 0, Type 0, BuildingBlock: PAMTOO_clean_linker_0, # of connection points: 3
#     Node 1, Type 0, BuildingBlock: PAMTOO_clean_linker_0, # of connection points: 3
#     Node 2, Type 0, BuildingBlock: PAMTOO_clean_linker_0, # of connection points: 3
#     Node 3, Type 0, BuildingBlock: PAMTOO_clean_linker_0, # of connection points: 3
#     Node 4, Type 0, BuildingBlock: PAMTOO_clean_linker_0, # of connection points: 3
#     Node 5, Type 0, BuildingBlock: PAMTOO_clean_linker_0, # of connection points: 3
#     Node 6, Type 0, BuildingBlock: PAMTOO_clean_linker_0, # of connection points: 3
#     Node 7, Type 0, BuildingBlock: PAMTOO_clean_linker_0, # of connection points: 3
#     Node 8, Type 0, BuildingBlock: PAMTOO_clean_linker_0, # of connection points: 3
#     Node 9, Type 0, BuildingBlock: PAMTOO_clean_linker_0, # of connection points: 3
#     Node 10, Type 0, BuildingBlock: PAMTOO_clean_linker_0, # of connection points: 3
#     Node 11, Type 0, BuildingBlock: PAMTOO_clean_linker_0, # of connection points: 3
#     Node 12, Type 0, BuildingBlock: PAMTOO_clean_linker_0, # of connection points: 3
#     Node 13, Type 0, BuildingBlock: PAMTOO_clean_linker_0, # of connection points: 3
#     Node 14, Type 0, BuildingBlock: PAMTOO_clean_linker_0, # of connection points: 3
#     Node 15, Type 0, BuildingBlock: PAMTOO_clean_linker_0, # of connection points: 3
#     Node 16, Type 0, BuildingBlock: PAMTOO_clean_linker_0, # of connection points: 3
#     Node 17, Type 0, BuildingBlock: PAMTOO_clean_linker_0, # of connection points: 3
#     Node 18, Type 0, BuildingBlock: PAMTOO_clean_linker_0, # of connection points: 3
#     Node 19, Type 0, BuildingBlock: PAMTOO_clean_linker_0, # of connection points: 3
#     Node 20, Type 0, BuildingBlock: PAMTOO_clean_linker_0, # of connection points: 3
#     Node 21, Type 0, BuildingBlock: PAMTOO_clean_linker_0, # of connection points: 3
#     Node 22, Type 0, BuildingBlock: PAMTOO_clean_linker_0, # of connection points: 3
#     Node 23, Type 0, BuildingBlock: PAMTOO_clean_linker_0, # of connection points: 3
#     Node 24, Type 0, BuildingBlock: PAMTOO_clean_linker_0, # of connection points: 3
#     Node 25, Type 0, BuildingBlock: PAMTOO_clean_linker_0, # of connection points: 3
#     Node 26, Type 0, BuildingBlock: PAMTOO_clean_linker_0, # of connection points: 3
#     Node 27, Type 0, BuildingBlock: PAMTOO_clean_linker_0, # of connection points: 3
#     Node 28, Type 0, BuildingBlock: PAMTOO_clean_linker_0, # of connection points: 3
#     Node 29, Type 0, BuildingBlock: PAMTOO_clean_linker_0, # of connection points: 3
#     Node 30, Type 0, BuildingBlock: PAMTOO_clean_linker_0, # of connection points: 3
#     Node 31, Type 0, BuildingBlock: PAMTOO_clean_linker_0, # of connection points: 3
#     Node 32, Type 1, BuildingBlock: ESEHIV_clean_sbu_0, # of connection points: 4
#     Node 33, Type 1, BuildingBlock: ESEHIV_clean_sbu_0, # of connection points: 4
#     Node 34, Type 1, BuildingBlock: ESEHIV_clean_sbu_0, # of connection points: 4
#     Node 35, Type 1, BuildingBlock: ESEHIV_clean_sbu_0, # of connection points: 4
#     Node 36, Type 1, BuildingBlock: ESEHIV_clean_sbu_0, # of connection points: 4
#     Node 37, Type 1, BuildingBlock: ESEHIV_clean_sbu_0, # of connection points: 4
#     Node 38, Type 1, BuildingBlock: ESEHIV_clean_sbu_0, # of connection points: 4
#     Node 39, Type 1, BuildingBlock: ESEHIV_clean_sbu_0, # of connection points: 4
#     Node 40, Type 1, BuildingBlock: ESEHIV_clean_sbu_0, # of connection points: 4
#     Node 41, Type 1, BuildingBlock: ESEHIV_clean_sbu_0, # of connection points: 4
#     Node 42, Type 1, BuildingBlock: ESEHIV_clean_sbu_0, # of connection points: 4
#     Node 43, Type 1, BuildingBlock: ESEHIV_clean_sbu_0, # of connection points: 4
#     Node 44, Type 1, BuildingBlock: ESEHIV_clean_sbu_0, # of connection points: 4
#     Node 45, Type 1, BuildingBlock: ESEHIV_clean_sbu_0, # of connection points: 4
#     Node 46, Type 1, BuildingBlock: ESEHIV_clean_sbu_0, # of connection points: 4
#     Node 47, Type 1, BuildingBlock: ESEHIV_clean_sbu_0, # of connection points: 4
#     Node 48, Type 1, BuildingBlock: ESEHIV_clean_sbu_0, # of connection points: 4
#     Node 49, Type 1, BuildingBlock: ESEHIV_clean_sbu_0, # of connection points: 4
#     Node 50, Type 1, BuildingBlock: ESEHIV_clean_sbu_0, # of connection points: 4
#     Node 51, Type 1, BuildingBlock: ESEHIV_clean_sbu_0, # of connection points: 4
#     Node 52, Type 1, BuildingBlock: ESEHIV_clean_sbu_0, # of connection points: 4
#     Node 53, Type 1, BuildingBlock: ESEHIV_clean_sbu_0, # of connection points: 4
#     Node 54, Type 1, BuildingBlock: ESEHIV_clean_sbu_0, # of connection points: 4
#     Node 55, Type 1, BuildingBlock: ESEHIV_clean_sbu_0, # of connection points: 4
#     Edge 56, Type (0, 1), BuildingBlock: KIFKEQ_clean_linker_1, # of connection points: 2
#     Edge 57, Type (0, 1), BuildingBlock: KIFKEQ_clean_linker_1, # of connection points: 2
#     Edge 58, Type (0, 1), BuildingBlock: KIFKEQ_clean_linker_1, # of connection points: 2
#     Edge 59, Type (0, 1), BuildingBlock: KIFKEQ_clean_linker_1, # of connection points: 2
#     Edge 60, Type (0, 1), BuildingBlock: KIFKEQ_clean_linker_1, # of connection points: 2
#     Edge 61, Type (0, 1), BuildingBlock: KIFKEQ_clean_linker_1, # of connection points: 2
#     Edge 62, Type (0, 1), BuildingBlock: KIFKEQ_clean_linker_1, # of connection points: 2
#     Edge 63, Type (0, 1), BuildingBlock: KIFKEQ_clean_linker_1, # of connection points: 2
#     Edge 64, Type (0, 1), BuildingBlock: KIFKEQ_clean_linker_1, # of connection points: 2
#     Edge 65, Type (0, 1), BuildingBlock: KIFKEQ_clean_linker_1, # of connection points: 2
#     Edge 66, Type (0, 1), BuildingBlock: KIFKEQ_clean_linker_1, # of connection points: 2
#     Edge 67, Type (0, 1), BuildingBlock: KIFKEQ_clean_linker_1, # of connection points: 2
#     Edge 68, Type (0, 1), BuildingBlock: KIFKEQ_clean_linker_1, # of connection points: 2
#     Edge 69, Type (0, 1), BuildingBlock: KIFKEQ_clean_linker_1, # of connection points: 2
#     Edge 70, Type (0, 1), BuildingBlock: KIFKEQ_clean_linker_1, # of connection points: 2
#     Edge 71, Type (0, 1), BuildingBlock: KIFKEQ_clean_linker_1, # of connection points: 2
#     Edge 72, Type (0, 1), BuildingBlock: KIFKEQ_clean_linker_1, # of connection points: 2
#     Edge 73, Type (0, 1), BuildingBlock: KIFKEQ_clean_linker_1, # of connection points: 2
#     Edge 74, Type (0, 1), BuildingBlock: KIFKEQ_clean_linker_1, # of connection points: 2
#     Edge 75, Type (0, 1), BuildingBlock: KIFKEQ_clean_linker_1, # of connection points: 2
#     Edge 76, Type (0, 1), BuildingBlock: KIFKEQ_clean_linker_1, # of connection points: 2
#     Edge 77, Type (0, 1), BuildingBlock: KIFKEQ_clean_linker_1, # of connection points: 2
#     Edge 78, Type (0, 1), BuildingBlock: KIFKEQ_clean_linker_1, # of connection points: 2
#     Edge 79, Type (0, 1), BuildingBlock: KIFKEQ_clean_linker_1, # of connection points: 2
#     Edge 80, Type (0, 1), BuildingBlock: KIFKEQ_clean_linker_1, # of connection points: 2
#     Edge 81, Type (0, 1), BuildingBlock: KIFKEQ_clean_linker_1, # of connection points: 2
#     Edge 82, Type (0, 1), BuildingBlock: KIFKEQ_clean_linker_1, # of connection points: 2
#     Edge 83, Type (0, 1), BuildingBlock: KIFKEQ_clean_linker_1, # of connection points: 2
#     Edge 84, Type (0, 1), BuildingBlock: KIFKEQ_clean_linker_1, # of connection points: 2
#     Edge 85, Type (0, 1), BuildingBlock: KIFKEQ_clean_linker_1, # of connection points: 2
#     Edge 86, Type (0, 1), BuildingBlock: KIFKEQ_clean_linker_1, # of connection points: 2
#     Edge 87, Type (0, 1), BuildingBlock: KIFKEQ_clean_linker_1, # of connection points: 2
#     Edge 88, Type (0, 1), BuildingBlock: KIFKEQ_clean_linker_1, # of connection points: 2
#     Edge 89, Type (0, 1), BuildingBlock: KIFKEQ_clean_linker_1, # of connection points: 2
#     Edge 90, Type (0, 1), BuildingBlock: KIFKEQ_clean_linker_1, # of connection points: 2
#     Edge 91, Type (0, 1), BuildingBlock: KIFKEQ_clean_linker_1, # of connection points: 2
#     Edge 92, Type (0, 1), BuildingBlock: KIFKEQ_clean_linker_1, # of connection points: 2
#     Edge 93, Type (0, 1), BuildingBlock: KIFKEQ_clean_linker_1, # of connection points: 2
#     Edge 94, Type (0, 1), BuildingBlock: KIFKEQ_clean_linker_1, # of connection points: 2
#     Edge 95, Type (0, 1), BuildingBlock: KIFKEQ_clean_linker_1, # of connection points: 2
#     Edge 96, Type (0, 1), BuildingBlock: KIFKEQ_clean_linker_1, # of connection points: 2
#     Edge 97, Type (0, 1), BuildingBlock: KIFKEQ_clean_linker_1, # of connection points: 2
#     Edge 98, Type (0, 1), BuildingBlock: KIFKEQ_clean_linker_1, # of connection points: 2
#     Edge 99, Type (0, 1), BuildingBlock: KIFKEQ_clean_linker_1, # of connection points: 2
#     Edge 100, Type (0, 1), BuildingBlock: KIFKEQ_clean_linker_1, # of connection points: 2
#     Edge 101, Type (0, 1), BuildingBlock: KIFKEQ_clean_linker_1, # of connection points: 2
#     Edge 102, Type (0, 1), BuildingBlock: KIFKEQ_clean_linker_1, # of connection points: 2
#     Edge 103, Type (0, 1), BuildingBlock: KIFKEQ_clean_linker_1, # of connection points: 2
#     Edge 104, Type (0, 1), BuildingBlock: KIFKEQ_clean_linker_1, # of connection points: 2
#     Edge 105, Type (0, 1), BuildingBlock: KIFKEQ_clean_linker_1, # of connection points: 2
#     Edge 106, Type (0, 1), BuildingBlock: KIFKEQ_clean_linker_1, # of connection points: 2
#     Edge 107, Type (0, 1), BuildingBlock: KIFKEQ_clean_linker_1, # of connection points: 2
#     Edge 108, Type (0, 1), BuildingBlock: KIFKEQ_clean_linker_1, # of connection points: 2
#     Edge 109, Type (0, 1), BuildingBlock: KIFKEQ_clean_linker_1, # of connection points: 2
#     Edge 110, Type (0, 1), BuildingBlock: KIFKEQ_clean_linker_1, # of connection points: 2
#     Edge 111, Type (0, 1), BuildingBlock: KIFKEQ_clean_linker_1, # of connection points: 2
#     Edge 112, Type (0, 1), BuildingBlock: KIFKEQ_clean_linker_1, # of connection points: 2
#     Edge 113, Type (0, 1), BuildingBlock: KIFKEQ_clean_linker_1, # of connection points: 2
#     Edge 114, Type (0, 1), BuildingBlock: KIFKEQ_clean_linker_1, # of connection points: 2
#     Edge 115, Type (0, 1), BuildingBlock: KIFKEQ_clean_linker_1, # of connection points: 2
#     Edge 116, Type (0, 1), BuildingBlock: KIFKEQ_clean_linker_1, # of connection points: 2
#     Edge 117, Type (0, 1), BuildingBlock: KIFKEQ_clean_linker_1, # of connection points: 2
#     Edge 118, Type (0, 1), BuildingBlock: KIFKEQ_clean_linker_1, # of connection points: 2
#     Edge 119, Type (0, 1), BuildingBlock: KIFKEQ_clean_linker_1, # of connection points: 2
#     Edge 120, Type (0, 1), BuildingBlock: KIFKEQ_clean_linker_1, # of connection points: 2
#     Edge 121, Type (0, 1), BuildingBlock: KIFKEQ_clean_linker_1, # of connection points: 2
#     Edge 122, Type (0, 1), BuildingBlock: KIFKEQ_clean_linker_1, # of connection points: 2
#     Edge 123, Type (0, 1), BuildingBlock: KIFKEQ_clean_linker_1, # of connection points: 2
#     Edge 124, Type (0, 1), BuildingBlock: KIFKEQ_clean_linker_1, # of connection points: 2
#     Edge 125, Type (0, 1), BuildingBlock: KIFKEQ_clean_linker_1, # of connection points: 2
#     Edge 126, Type (0, 1), BuildingBlock: KIFKEQ_clean_linker_1, # of connection points: 2
#     Edge 127, Type (0, 1), BuildingBlock: KIFKEQ_clean_linker_1, # of connection points: 2
#     Edge 128, Type (0, 1), BuildingBlock: KIFKEQ_clean_linker_1, # of connection points: 2
#     Edge 129, Type (0, 1), BuildingBlock: KIFKEQ_clean_linker_1, # of connection points: 2
#     Edge 130, Type (0, 1), BuildingBlock: KIFKEQ_clean_linker_1, # of connection points: 2
#     Edge 131, Type (0, 1), BuildingBlock: KIFKEQ_clean_linker_1, # of connection points: 2
#     Edge 132, Type (0, 1), BuildingBlock: KIFKEQ_clean_linker_1, # of connection points: 2
#     Edge 133, Type (0, 1), BuildingBlock: KIFKEQ_clean_linker_1, # of connection points: 2
#     Edge 134, Type (0, 1), BuildingBlock: KIFKEQ_clean_linker_1, # of connection points: 2
#     Edge 135, Type (0, 1), BuildingBlock: KIFKEQ_clean_linker_1, # of connection points: 2
#     Edge 136, Type (0, 1), BuildingBlock: KIFKEQ_clean_linker_1, # of connection points: 2
#     Edge 137, Type (0, 1), BuildingBlock: KIFKEQ_clean_linker_1, # of connection points: 2
#     Edge 138, Type (0, 1), BuildingBlock: KIFKEQ_clean_linker_1, # of connection points: 2
#     Edge 139, Type (0, 1), BuildingBlock: KIFKEQ_clean_linker_1, # of connection points: 2
#     Edge 140, Type (0, 1), BuildingBlock: KIFKEQ_clean_linker_1, # of connection points: 2
#     Edge 141, Type (0, 1), BuildingBlock: KIFKEQ_clean_linker_1, # of connection points: 2
#     Edge 142, Type (0, 1), BuildingBlock: KIFKEQ_clean_linker_1, # of connection points: 2
#     Edge 143, Type (0, 1), BuildingBlock: KIFKEQ_clean_linker_1, # of connection points: 2
#     Edge 144, Type (0, 1), BuildingBlock: KIFKEQ_clean_linker_1, # of connection points: 2
#     Edge 145, Type (0, 1), BuildingBlock: KIFKEQ_clean_linker_1, # of connection points: 2
#     Edge 146, Type (0, 1), BuildingBlock: KIFKEQ_clean_linker_1, # of connection points: 2
#     Edge 147, Type (0, 1), BuildingBlock: KIFKEQ_clean_linker_1, # of connection points: 2
#     Edge 148, Type (0, 1), BuildingBlock: KIFKEQ_clean_linker_1, # of connection points: 2
#     Edge 149, Type (0, 1), BuildingBlock: KIFKEQ_clean_linker_1, # of connection points: 2
#     Edge 150, Type (0, 1), BuildingBlock: KIFKEQ_clean_linker_1, # of connection points: 2
#     Edge 151, Type (0, 1), BuildingBlock: KIFKEQ_clean_linker_1, # of connection points: 2
# Relax obj value: 0.022
# Max RMSD: 0.183
# Mean RMSD: 0.112
data_MOF--net-tbo--node1-ESEHIV_clean_sbu_0--node2-PAMTOO_clean_linker_0--edge1-KIFKEQ_clean_linker_1
_symmetry_space_group_name_H-M    P1
_symmetry_Int_Tables_number       1
_symmetry_cell_setting            triclinic
loop_
_symmetry_equiv_pos_as_xyz
'x, y, z'
_cell_length_a     71.739102
_cell_length_b     74.591908
_cell_length_c     74.2037
_cell_angle_alpha  90.460703
_cell_angle_beta   93.640023
_cell_angle_gamma 97.464316
loop_
_atom_site_label
_atom_site_type_symbol
_atom_site_fract_x
_atom_site_fract_y
_atom_site_fract_z
_atom_type_partial_charge
H0 H 0.16535 0.20373 0.21029 0.0
H1 H 0.17437 0.15972 0.24571 0.0
H2 H 0.20837 0.17015 0.20057 0.0
H3 H 0.20273 0.13193 0.20746 0.0
C4 C 0.19767 0.13216 0.22131 0.0
O5 O 0.20202 0.14947 0.22856 0.0
H6 H 0.18211 0.12828 0.22008 0.0
C7 C 0.17284 0.19247 0.21396 0.0
C8 C 0.18743 0.18836 0.20337 0.0
C9 C 0.16785 0.18231 0.22929 0.0
C10 C 0.17767 0.16762 0.23387 0.0
C11 C 0.19227 0.16329 0.22356 0.0
C12 C 0.19715 0.17371 0.20844 0.0
H13 H 0.8825 0.19742 0.21386 0.0
H14 H 0.83879 0.20959 0.17494 0.0
H15 H 0.8914 0.244 0.17999 0.0
H16 H 0.86174 0.26477 0.17159 0.0
C17 C 0.85047 0.25387 0.16664 0.0
O18 O 0.85834 0.23843 0.16298 0.0
H19 H 0.84034 0.2513 0.17739 0.0
C20 C 0.87743 0.20589 0.20333 0.0
C21 C 0.88913 0.22143 0.19825 0.0
C22 C 0.85922 0.20127 0.19494 0.0
C23 C 0.85284 0.21255 0.18141 0.0
C24 C 0.86447 0.22788 0.17617 0.0
C25 C 0.88255 0.23219 0.18442 0.0
H26 H 0.87387 0.8545 0.19703 0.0
H27 H 0.8372 0.89604 0.19418 0.0
H28 H 0.88183 0.8987 0.23569 0.0
H29 H 0.84588 0.90781 0.24756 0.0
C30 C 0.84075 0.91479 0.23537 0.0
O31 O 0.85364 0.91458 0.22226 0.0
H32 H 0.82699 0.90728 0.23029 0.0
C33 C 0.86967 0.8669 0.20218 0.0
C34 C 0.87986 0.87567 0.21735 0.0
C35 C 0.85419 0.874 0.19359 0.0
C36 C 0.84887 0.89011 0.20061 0.0
C37 C 0.85877 0.89895 0.2158 0.0
C38 C 0.87429 0.89178 0.22399 0.0
H39 H 0.1413 0.85081 0.21202 0.0
H40 H 0.14641 0.81914 0.16431 0.0
H41 H 0.18343 0.86858 0.17482 0.0
H42 H 0.1742 0.85937 0.13284 0.0
C43 C 0.16748 0.84551 0.13581 0.0
O44 O 0.17445 0.84077 0.15265 0.0
H45 H 0.15195 0.84562 0.13548 0.0
C46 C 0.14817 0.84886 0.19969 0.0
C47 C 0.16312 0.86168 0.1949 0.0
C48 C 0.14196 0.83354 0.18873 0.0
C49 C 0.15093 0.83095 0.17286 0.0
C50 C 0.16584 0.84357 0.16791 0.0
C51 C 0.17194 0.85888 0.17888 0.0
H52 H 0.1847 0.91853 0.84092 0.0
H53 H 0.18458 0.87166 0.87477 0.0
H54 H 0.23015 0.91469 0.88099 0.0
H55 H 0.24223 0.8784 0.88616 0.0
C56 C 0.22852 0.87097 0.88972 0.0
O57 O 0.21622 0.88326 0.89276 0.0
H58 H 0.22285 0.86164 0.87831 0.0
C59 C 0.19108 0.91121 0.85171 0.0
C60 C 0.2084 0.91867 0.86042 0.0
C61 C 0.1825 0.89396 0.85646 0.0
C62 C 0.19111 0.88472 0.8705 0.0
C63 C 0.20822 0.89219 0.87921 0.0
C64 C 0.21688 0.90904 0.87411 0.0
H65 H 0.17547 0.25742 0.92108 0.0
H66 H 0.16578 0.22819 0.87023 0.0
H67 H 0.20905 0.21549 0.90855 0.0
H68 H 0.21572 0.22126 0.86716 0.0
C69 C 0.20376 0.21068 0.86298 0.0
O70 O 0.19193 0.2073 0.87691 0.0
H71 H 0.19582 0.216 0.85128 0.0
C72 C 0.179 0.24719 0.91189 0.0
C73 C 0.1935 0.23678 0.91714 0.0
C74 C 0.16893 0.24441 0.89489 0.0
C75 C 0.17352 0.23089 0.88319 0.0
C76 C 0.18795 0.22055 0.88815 0.0
C77 C 0.19788 0.22355 0.905 0.0
H78 H 0.81927 0.16361 0.89732 0.0
H79 H 0.8557 0.21421 0.90446 0.0
H80 H 0.86375 0.17798 0.86159 0.0
H81 H 0.89772 0.19283 0.88157 0.0
C82 C 0.89461 0.20684 0.88415 0.0
O83 O 0.87641 0.20843 0.87781 0.0
H84 H 0.89621 0.20953 0.89897 0.0
C85 C 0.83083 0.17309 0.89303 0.0
C86 C 0.84077 0.16863 0.87823 0.0
C87 C 0.83593 0.18955 0.90261 0.0
C88 C 0.85152 0.20139 0.89744 0.0
C89 C 0.86156 0.19698 0.88284 0.0
C90 C 0.85607 0.18084 0.87316 0.0
H91 H 0.80633 0.8904 0.89413 0.0
H92 H 0.84973 0.85592 0.90293 0.0
H93 H 0.84863 0.88857 0.85568 0.0
H94 H 0.85776 0.85247 0.84904 0.0
C95 C 0.8656 0.84999 0.86201 0.0
O96 O 0.86651 0.86498 0.87331 0.0
H97 H 0.85764 0.83813 0.86835 0.0
C98 C 0.81872 0.88511 0.88984 0.0
C99 C 0.82634 0.89117 0.87357 0.0
C100 C 0.82691 0.87239 0.90068 0.0
C101 C 0.84299 0.86556 0.89482 0.0
C102 C 0.85079 0.8714 0.87863 0.0
C103 C 0.84252 0.88424 0.86816 0.0
H104 H 0.16647 0.74025 0.6888 0.0
H105 H 0.16666 0.70063 0.73079 0.0
H106 H 0.20682 0.70192 0.69059 0.0
H107 H 0.19099 0.66493 0.69968 0.0
C108 C 0.18695 0.66753 0.7136 0.0
O109 O 0.19394 0.68506 0.71885 0.0
H110 H 0.17127 0.66567 0.71325 0.0
C111 C 0.17256 0.72921 0.69525 0.0
C112 C 0.18784 0.72231 0.68758 0.0
C113 C 0.16463 0.72154 0.71085 0.0
C114 C 0.17219 0.70669 0.71869 0.0
C115 C 0.18709 0.69953 0.71118 0.0
C116 C 0.19498 0.70742 0.69586 0.0
H117 H 0.89619 0.73002 0.71727 0.0
H118 H 0.84445 0.72037 0.6838 0.0
H119 H 0.88688 0.7637 0.67154 0.0
H120 H 0.84819 0.77202 0.66842 0.0
C121 C 0.84102 0.75902 0.66238 0.0
O122 O 0.85368 0.74666 0.66157 0.0
H123 H 0.82954 0.7538 0.67112 0.0
C124 C 0.88744 0.73333 0.70563 0.0
C125 C 0.89378 0.74806 0.69489 0.0
C126 C 0.86961 0.72329 0.7019 0.0
C127 C 0.85815 0.72805 0.68708 0.0
C128 C 0.86445 0.74257 0.67618 0.0
C129 C 0.88216 0.75256 0.68013 0.0
H130 H 0.86638 0.3754 0.71154 0.0
H131 H 0.82719 0.41441 0.70535 0.0
H132 H 0.86645 0.41818 0.75131 0.0
H133 H 0.82661 0.42665 0.75726 0.0
C134 C 0.82398 0.43307 0.74402 0.0
O135 O 0.83979 0.43323 0.73424 0.0
H136 H 0.8117 0.42499 0.7366 0.0
C137 C 0.86062 0.387 0.71666 0.0
C138 C 0.86874 0.39592 0.73279 0.0
C139 C 0.84556 0.39351 0.7066 0.0
C140 C 0.8387 0.40911 0.71281 0.0
C141 C 0.84625 0.41789 0.72885 0.0
C142 C 0.86102 0.41122 0.73884 0.0
H143 H 0.15193 0.39226 0.72485 0.0
H144 H 0.13485 0.35009 0.68487 0.0
H145 H 0.18021 0.39171 0.67546 0.0
H146 H 0.15407 0.38186 0.64391 0.0
C147 C 0.15015 0.36723 0.64652 0.0
O148 O 0.15954 0.36253 0.66219 0.0
H149 H 0.13466 0.36472 0.64783 0.0
C150 C 0.15349 0.38603 0.71187 0.0
C151 C 0.16741 0.39393 0.70085 0.0
C152 C 0.14173 0.3701 0.70635 0.0
C153 C 0.14371 0.36239 0.68938 0.0
C154 C 0.15749 0.37026 0.6783 0.0
C155 C 0.16949 0.38583 0.68411 0.0
H156 H 0.1649 0.38743 0.33514 0.0
H157 H 0.17785 0.3581 0.38317 0.0
H158 H 0.21183 0.40775 0.37207 0.0
H159 H 0.23591 0.38444 0.39454 0.0
C160 C 0.22392 0.37334 0.39384 0.0
O161 O 0.20727 0.38076 0.39414 0.0
H162 H 0.22466 0.36566 0.381 0.0
C163 C 0.17334 0.38633 0.34762 0.0
C164 C 0.18879 0.39955 0.35217 0.0
C165 C 0.16915 0.3713 0.35869 0.0
C166 C 0.18079 0.3695 0.37438 0.0
C167 C 0.19616 0.3826 0.37904 0.0
C168 C 0.2 0.39764 0.36811 0.0
H169 H 0.1807 0.73335 0.38178 0.0
H170 H 0.18247 0.69097 0.34258 0.0
H171 H 0.2191 0.69403 0.39111 0.0
H172 H 0.23766 0.68375 0.35974 0.0
C173 C 0.22539 0.67761 0.35085 0.0
O174 O 0.20931 0.67604 0.36047 0.0
H175 H 0.22367 0.68687 0.33934 0.0
C176 C 0.18681 0.72163 0.37737 0.0
C177 C 0.20085 0.71497 0.3885 0.0
C178 C 0.18003 0.71317 0.36087 0.0
C179 C 0.18749 0.69761 0.35534 0.0
C180 C 0.20177 0.69079 0.36613 0.0
C181 C 0.20818 0.69934 0.38283 0.0
H182 H 0.82564 0.64536 0.38261 0.0
H183 H 0.86218 0.69598 0.38902 0.0
H184 H 0.87466 0.65592 0.35167 0.0
H185 H 0.90644 0.67377 0.3748 0.0
C186 C 0.90291 0.68786 0.37409 0.0
O187 O 0.88538 0.68804 0.3654 0.0
H188 H 0.9029 0.6932 0.38813 0.0
C189 C 0.83791 0.65429 0.37893 0.0
C190 C 0.84959 0.64845 0.36612 0.0
C191 C 0.84239 0.67137 0.38747 0.0
C192 C 0.85859 0.68266 0.38286 0.0
C193 C 0.87013 0.67697 0.37006 0.0
C194 C 0.86565 0.65998 0.36173 0.0
H195 H 0.82165 0.36125 0.41922 0.0
H196 H 0.86115 0.32227 0.41684 0.0
H197 H 0.86033 0.36342 0.37708 0.0
H198 H 0.86763 0.32767 0.36284 0.0
C199 C 0.87404 0.32231 0.37539 0.0
O200 O 0.87687 0.33581 0.38854 0.0
H201 H 0.864 0.3108 0.37986 0.0
C202 C 0.83272 0.35559 0.41275 0.0
C203 C 0.8397 0.36391 0.39709 0.0
C204 C 0.84041 0.34062 0.42038 0.0
C205 C 0.85518 0.334 0.41176 0.0
C206 C 0.86236 0.34221 0.39628 0.0
C207 C 0.85472 0.3572 0.38908 0.0
H208 H 0.67049 0.23216 0.69916 0.0
H209 H 0.66951 0.19037 0.73892 0.0
H210 H 0.70803 0.19146 0.69703 0.0
H211 H 0.69003 0.15546 0.70414 0.0
C212 C 0.68765 0.15684 0.71873 0.0
O213 O 0.69546 0.17385 0.725 0.0
H214 H 0.67214 0.15514 0.72003 0.0
C215 C 0.6759 0.22027 0.70457 0.0
C216 C 0.69034 0.21297 0.69596 0.0
C217 C 0.66839 0.21242 0.72023 0.0
C218 C 0.67524 0.19679 0.72706 0.0
C219 C 0.68923 0.18911 0.71846 0.0
C220 C 0.69686 0.19731 0.70315 0.0
H221 H 0.40185 0.22973 0.72765 0.0
H222 H 0.35124 0.22066 0.69242 0.0
H223 H 0.39432 0.26406 0.68213 0.0
H224 H 0.35483 0.27231 0.67885 0.0
C225 C 0.34802 0.25946 0.67222 0.0
O226 O 0.36115 0.24756 0.67122 0.0
H227 H 0.33638 0.25352 0.68042 0.0
C228 C 0.39349 0.23316 0.7158 0.0
C229 C 0.40038 0.2479 0.70534 0.0
C230 C 0.3757 0.22322 0.71145 0.0
C231 C 0.36484 0.22825 0.69631 0.0
C232 C 0.37153 0.24303 0.68591 0.0
C233 C 0.38921 0.25282 0.69043 0.0
H234 H 0.36351 0.88008 0.70359 0.0
H235 H 0.32542 0.92022 0.69978 0.0
H236 H 0.36553 0.92151 0.74503 0.0
H237 H 0.32661 0.93041 0.75276 0.0
C238 C 0.32334 0.93703 0.73976 0.0
O239 O 0.33873 0.93764 0.72935 0.0
H240 H 0.31091 0.92886 0.73266 0.0
C241 C 0.35818 0.89167 0.70928 0.0
C242 C 0.36672 0.89978 0.72559 0.0
C243 C 0.34323 0.89889 0.6998 0.0
C244 C 0.3369 0.91445 0.70677 0.0
C245 C 0.34491 0.92249 0.72302 0.0
C246 C 0.35966 0.91514 0.73241 0.0
H247 H 0.63336 0.87026 0.70528 0.0
H248 H 0.63089 0.82513 0.66848 0.0
H249 H 0.67413 0.87033 0.665 0.0
H250 H 0.6585 0.85587 0.62958 0.0
C251 C 0.6536 0.8417 0.6333 0.0
O252 O 0.65977 0.83884 0.65091 0.0
H253 H 0.63791 0.83956 0.63199 0.0
C254 C 0.63873 0.86401 0.69377 0.0
C255 C 0.65477 0.8726 0.6859 0.0
C256 C 0.6301 0.84693 0.68763 0.0
C257 C 0.6374 0.83837 0.67329 0.0
C258 C 0.65307 0.84698 0.665 0.0
C259 C 0.66189 0.86393 0.67141 0.0
H260 H 0.65928 0.8899 0.3294 0.0
H261 H 0.67084 0.85463 0.37337 0.0
H262 H 0.70802 0.90342 0.36626 0.0
H263 H 0.72874 0.87323 0.379 0.0
C264 C 0.71648 0.86425 0.38376 0.0
O265 O 0.70182 0.87432 0.38557 0.0
H266 H 0.71236 0.85312 0.37363 0.0
C267 C 0.66794 0.88673 0.34115 0.0
C268 C 0.68409 0.89869 0.34674 0.0
C269 C 0.66291 0.87075 0.35063 0.0
C270 C 0.67445 0.86676 0.36573 0.0
C271 C 0.69071 0.87847 0.37121 0.0
C272 C 0.6954 0.89447 0.36188 0.0
H273 H 0.65731 0.23209 0.39103 0.0
H274 H 0.6638 0.19267 0.34995 0.0
H275 H 0.70296 0.19977 0.39637 0.0
H276 H 0.72139 0.19119 0.36542 0.0
C277 C 0.70935 0.18471 0.35642 0.0
O278 O 0.69355 0.18131 0.36626 0.0
H279 H 0.7068 0.19439 0.34547 0.0
C280 C 0.66516 0.222 0.3857 0.0
C281 C 0.68112 0.21737 0.3958 0.0
C282 C 0.65869 0.21326 0.36914 0.0
C283 C 0.66847 0.19957 0.36266 0.0
C284 C 0.68441 0.19474 0.37249 0.0
C285 C 0.69058 0.20356 0.38902 0.0
H286 H 0.31305 0.14358 0.42327 0.0
H287 H 0.35675 0.18887 0.42291 0.0
H288 H 0.36148 0.14085 0.3923 0.0
H289 H 0.39882 0.1596 0.40939 0.0
C290 C 0.39439 0.17326 0.41076 0.0
O291 O 0.37737 0.17368 0.40111 0.0
H292 H 0.393 0.17592 0.42538 0.0
C293 C 0.32665 0.14953 0.41905 0.0
C294 C 0.33637 0.13983 0.40726 0.0
C295 C 0.33384 0.16718 0.42484 0.0
C296 C 0.35095 0.17526 0.4186 0.0
C297 C 0.36092 0.16569 0.40702 0.0
C298 C 0.35364 0.14805 0.40132 0.0
H299 H 0.31425 0.87251 0.40634 0.0
H300 H 0.35208 0.83204 0.40764 0.0
H301 H 0.35087 0.8679 0.36295 0.0
H302 H 0.35585 0.83076 0.35268 0.0
C303 C 0.36276 0.82653 0.36551 0.0
O304 O 0.36676 0.84122 0.3772 0.0
H305 H 0.35274 0.8159 0.3715 0.0
C306 C 0.32522 0.86623 0.40034 0.0
C307 C 0.3315 0.87209 0.38339 0.0
C308 C 0.33242 0.85159 0.40909 0.0
C309 C 0.34635 0.84323 0.40105 0.0
C310 C 0.35303 0.84919 0.38455 0.0
C311 C 0.34558 0.8635 0.37576 0.0
H312 H 0.66114 0.71366 0.20325 0.0
H313 H 0.66675 0.66966 0.23955 0.0
H314 H 0.70544 0.68034 0.19803 0.0
H315 H 0.69896 0.64049 0.20594 0.0
C316 C 0.69146 0.64182 0.21843 0.0
O317 O 0.69591 0.65932 0.22523 0.0
H318 H 0.67604 0.63901 0.21481 0.0
C319 C 0.66858 0.70263 0.20786 0.0
C320 C 0.68419 0.69853 0.19872 0.0
C321 C 0.66208 0.69236 0.22259 0.0
C322 C 0.67131 0.67761 0.22809 0.0
C323 C 0.68682 0.67322 0.21921 0.0
C324 C 0.69324 0.68368 0.20458 0.0
H325 H 0.37972 0.69226 0.20314 0.0
H326 H 0.33399 0.69599 0.16331 0.0
H327 H 0.38135 0.73743 0.16714 0.0
H328 H 0.34611 0.75192 0.15933 0.0
C329 C 0.33742 0.73958 0.15343 0.0
O330 O 0.34886 0.72655 0.15028 0.0
H331 H 0.32688 0.73465 0.16327 0.0
C332 C 0.37335 0.6993 0.19213 0.0
C333 C 0.38274 0.71578 0.18627 0.0
C334 C 0.35576 0.69191 0.18392 0.0
C335 C 0.34763 0.70124 0.1697 0.0
C336 C 0.35684 0.71765 0.16386 0.0
C337 C 0.37433 0.72482 0.17202 0.0
H338 H 0.32799 0.39996 0.20267 0.0
H339 H 0.36357 0.35775 0.20907 0.0
H340 H 0.36992 0.40179 0.24724 0.0
H341 H 0.40654 0.3881 0.23643 0.0
C342 C 0.40051 0.37372 0.23394 0.0
O343 O 0.38194 0.37126 0.23844 0.0
H344 H 0.40126 0.37072 0.2193 0.0
C345 C 0.3392 0.39413 0.21003 0.0
C346 C 0.3482 0.40309 0.22573 0.0
C347 C 0.34458 0.37771 0.20376 0.0
C348 C 0.35905 0.37024 0.21359 0.0
C349 C 0.36825 0.37897 0.22908 0.0
C350 C 0.36288 0.39535 0.23507 0.0
H351 H 0.67119 0.38974 0.23533 0.0
H352 H 0.64998 0.34193 0.20355 0.0
H353 H 0.69639 0.3783 0.18611 0.0
H354 H 0.66409 0.36352 0.15854 0.0
C355 C 0.66267 0.34925 0.16312 0.0
O356 O 0.67402 0.34814 0.17871 0.0
H357 H 0.64772 0.34493 0.16588 0.0
C358 C 0.67144 0.38128 0.22342 0.0
C359 C 0.68508 0.38608 0.21093 0.0
C360 C 0.65871 0.36532 0.22108 0.0
C361 C 0.65976 0.35419 0.20586 0.0
C362 C 0.67321 0.35896 0.19326 0.0
C363 C 0.68594 0.37479 0.19586 0.0
H364 H 0.68814 0.4218 0.85007 0.0
H365 H 0.69108 0.37493 0.88326 0.0
H366 H 0.73319 0.42059 0.89145 0.0
H367 H 0.74811 0.38615 0.89651 0.0
C368 C 0.73491 0.3776 0.89981 0.0
O369 O 0.72123 0.38858 0.90247 0.0
H370 H 0.73034 0.36796 0.88838 0.0
C371 C 0.69511 0.41494 0.86084 0.0
C372 C 0.71152 0.42375 0.87032 0.0
C373 C 0.68777 0.39714 0.86516 0.0
C374 C 0.6967 0.38844 0.87937 0.0
C375 C 0.7129 0.39703 0.88876 0.0
C376 C 0.72033 0.41447 0.8842 0.0
H377 H 0.67085 0.75667 0.91117 0.0
H378 H 0.65855 0.72261 0.86336 0.0
H379 H 0.70401 0.71393 0.90082 0.0
H380 H 0.70802 0.718 0.8581 0.0
C381 C 0.69657 0.70653 0.85531 0.0
O382 O 0.68592 0.7035 0.87014 0.0
H383 H 0.68744 0.71043 0.8437 0.0
C384 C 0.67378 0.74564 0.90269 0.0
C385 C 0.68845 0.73558 0.90838 0.0
C386 C 0.66283 0.74138 0.88628 0.0
C387 C 0.66695 0.72676 0.87568 0.0
C388 C 0.68193 0.71719 0.88078 0.0
C389 C 0.69256 0.72157 0.89704 0.0
H390 H 0.30596 0.6538 0.86095 0.0
H391 H 0.34551 0.70023 0.8782 0.0
H392 H 0.35527 0.66965 0.83153 0.0
H393 H 0.38826 0.68014 0.85409 0.0
C394 C 0.38548 0.69353 0.85924 0.0
O395 O 0.36807 0.6972 0.85245 0.0
H396 H 0.3858 0.69305 0.87424 0.0
C397 C 0.3187 0.66293 0.85905 0.0
C398 C 0.32996 0.65978 0.84475 0.0
C399 C 0.3242 0.67743 0.87132 0.0
C400 C 0.34107 0.68884 0.86907 0.0
C401 C 0.35215 0.68593 0.85477 0.0
C402 C 0.34657 0.67156 0.84263 0.0
H403 H 0.31375 0.38376 0.90548 0.0
H404 H 0.3573 0.34952 0.91407 0.0
H405 H 0.35829 0.38542 0.86901 0.0
H406 H 0.3665 0.34847 0.86135 0.0
C407 C 0.37502 0.34607 0.87396 0.0
O408 O 0.37557 0.36069 0.88569 0.0
H409 H 0.36791 0.33374 0.88023 0.0
C410 C 0.32635 0.37879 0.90123 0.0
C411 C 0.33484 0.38614 0.88589 0.0
C412 C 0.33424 0.36564 0.91159 0.0
C413 C 0.35103 0.35973 0.90636 0.0
C414 C 0.3596 0.36672 0.89089 0.0
C415 C 0.35159 0.38006 0.88086 0.0
Cu416 Cu 0.26054 0.29164 0.06477 0.0
N417 N 0.2587 0.31016 0.0481 0.0
N418 N 0.26694 0.32616 0.02365 0.0
C419 C 0.27094 0.31296 0.03507 0.0
C420 C 0.25137 0.33193 0.02991 0.0
C421 C 0.24631 0.32201 0.04497 0.0
O422 O 0.26501 0.27213 0.04835 0.0
C423 C 0.2761 0.31493 0.09173 0.0
O424 O 0.26028 0.32112 0.08667 0.0
H425 H 0.28229 0.3049 0.03378 0.0
H426 H 0.23436 0.32321 0.05287 0.0
N427 N 0.23883 0.28434 0.07718 0.0
N428 N 0.22141 0.2693 0.09768 0.0
C429 C 0.23896 0.27501 0.09269 0.0
C430 C 0.22053 0.28476 0.07221 0.0
C431 C 0.20975 0.27546 0.08481 0.0
C432 C 0.25227 0.25887 0.04426 0.0
O433 O 0.23985 0.2537 0.05605 0.0
H434 H 0.25175 0.27164 0.09963 0.0
H435 H 0.21539 0.29072 0.05994 0.0
O436 O 0.28015 0.30099 0.08343 0.0
H437 H 0.24405 0.3425 0.02407 0.0
H438 H 0.19452 0.27314 0.08433 0.0
Cu439 Cu 0.74353 0.26949 0.03047 0.0
N440 N 0.72104 0.26758 0.04187 0.0
N441 N 0.70093 0.27399 0.06202 0.0
C442 C 0.71912 0.27526 0.05798 0.0
C443 C 0.691 0.26509 0.04786 0.0
C444 C 0.70348 0.2611 0.03543 0.0
O445 O 0.7633 0.27636 0.04913 0.0
C446 C 0.75423 0.30103 1.0097 0.0
O447 O 0.76858 0.30484 0.0216 0.0
H448 H 0.73076 0.28263 0.06607 0.0
H449 H 0.69998 0.25466 0.02233 0.0
N450 N 0.74721 0.24774 0.01966 0.0
N451 N 0.7592 0.229 1.00124 0.0
C452 C 0.75787 0.24637 1.00558 0.0
C453 C 0.74136 0.23066 0.02438 0.0
C454 C 0.7487 0.21903 1.01297 0.0
C455 C 0.78022 0.27311 0.04868 0.0
O456 O 0.78576 0.26611 0.03396 0.0
H457 H 0.76472 0.258 0.99883 0.0
H458 H 0.73274 0.22696 0.03555 0.0
O459 O 0.74241 0.28705 1.01159 0.0
H460 H 0.6758 0.26211 0.04637 0.0
H461 H 0.74696 0.20443 0.01365 0.0
Cu462 Cu 0.75946 0.79547 0.05571 0.0
N463 N 0.75782 0.8147 0.03974 0.0
N464 N 0.7653 0.83134 0.01545 0.0
C465 C 0.76866 0.81693 0.02553 0.0
C466 C 0.75164 0.83846 0.0238 0.0
C467 C 0.74705 0.82817 0.03874 0.0
O468 O 0.76134 0.7758 0.03841 0.0
C469 C 0.77794 0.81708 0.08263 0.0
O470 O 0.76241 0.82427 0.07881 0.0
H471 H 0.77865 0.80781 0.02257 0.0
H472 H 0.73665 0.83041 0.04816 0.0
N473 N 0.73856 0.78934 0.06964 0.0
N474 N 0.72182 0.77578 0.09151 0.0
C475 C 0.73875 0.77861 0.08421 0.0
C476 C 0.72089 0.79356 0.06761 0.0
C477 C 0.71056 0.78526 0.08108 0.0
C478 C 0.74739 0.76363 0.03448 0.0
O479 O 0.73431 0.76033 0.04603 0.0
H480 H 0.75118 0.773 0.08931 0.0
H481 H 0.71578 0.8018 0.05694 0.0
O482 O 0.78065 0.80319 0.07342 0.0
H483 H 0.74545 0.85034 0.01958 0.0
H484 H 0.69578 0.78585 0.08275 0.0
Cu485 Cu 0.23899 0.75195 1.00768 0.0
N486 N 0.21609 0.75255 0.01812 0.0
N487 N 0.19623 0.76184 0.03712 0.0
C488 C 0.2142 0.75937 0.03466 0.0
C489 C 0.18637 0.75607 0.02159 0.0
C490 C 0.19867 0.75031 1.00989 0.0
O491 O 0.25834 0.75052 0.02677 0.0
C492 C 0.2375 0.78785 0.99539 0.0
O493 O 0.22757 0.7896 1.00941 0.0
H494 H 0.22602 0.764 0.04405 0.0
H495 H 0.1954 0.74599 0.99597 0.0
N496 N 0.23837 0.73184 0.99254 0.0
N497 N 0.24747 0.71406 0.97126 0.0
C498 C 0.25056 0.73036 0.97975 0.0
C499 C 0.22704 0.71599 0.9922 0.0
C500 C 0.23259 0.70498 0.97903 0.0
C501 C 0.26581 0.76396 0.03653 0.0
O502 O 0.26109 0.78008 0.03312 0.0
H503 H 0.26148 0.74115 0.97681 0.0
H504 H 0.21575 0.71259 1.00108 0.0
O505 O 0.24432 0.77316 0.99293 0.0
H506 H 0.17153 0.75681 0.01856 0.0
H507 H 0.22643 0.69122 0.9758 0.0
Cu508 Cu 0.02735 0.25693 0.3083 0.0
N509 N 0.03905 0.23595 0.30624 0.0
N510 N 0.05963 0.2181 0.2971 0.0
C511 C 0.0561 0.23527 0.29971 0.0
C512 C 0.04421 0.20758 0.30237 0.0
C513 C 0.03157 0.21861 0.30799 0.0
O514 O 0.04696 0.27717 0.31266 0.0
C515 C 1.0121 0.25106 0.27182 0.0
O516 O 0.02583 0.24133 0.26977 0.0
H517 H 0.06519 0.24717 0.29587 0.0
H518 H 0.01758 0.2143 0.31226 0.0
N519 N 1.0111 0.25634 0.32718 0.0
N520 N 0.98786 0.26403 0.34336 0.0
C521 C 0.99802 0.26763 0.32876 0.0
C522 C 1.00925 0.24517 0.34127 0.0
C523 C 0.99491 0.24986 0.35125 0.0
C524 C 0.05762 0.27658 0.32696 0.0
O525 O 0.05446 0.26273 0.33768 0.0
H526 H 0.99578 0.27804 0.31909 0.0
H527 H 0.01765 0.23436 0.34405 0.0
O528 O 1.01148 0.25965 0.28661 0.0
H529 H 0.042 0.19295 0.30178 0.0
H530 H 0.99019 0.24338 0.36345 0.0
Cu531 Cu 0.76641 0.05289 0.27198 0.0
N532 N 0.76871 0.06594 0.2507 0.0
N533 N 0.77906 0.08819 0.23242 0.0
C534 C 0.77795 0.08275 0.24966 0.0
C535 C 0.77003 0.07426 0.22221 0.0
C536 C 0.7636 0.06054 0.23354 0.0
O537 O 0.76316 0.07039 0.29125 0.0
C538 C 0.79892 0.03637 0.26344 0.0
O539 O 0.80042 0.04824 0.25047 0.0
H540 H 0.78456 0.09044 0.26132 0.0
H541 H 0.75636 0.04735 0.22955 0.0
N542 N 0.74489 0.03589 0.27062 0.0
N543 N 0.72569 0.0117 0.27881 0.0
C544 C 0.74248 0.02204 0.28205 0.0
C545 C 0.72916 0.03432 0.25954 0.0
C546 C 0.71726 0.01938 0.26457 0.0
C547 C 0.74798 0.07765 0.28905 0.0
O548 O 0.73669 0.07292 0.2747 0.0
H549 H 0.75308 0.01962 0.29245 0.0
H550 H 0.72643 0.04348 0.24875 0.0
O551 O 0.78699 0.03778 0.2753 0.0
H552 H 0.76846 0.07388 0.2076 0.0
H553 H 0.70338 0.01478 0.2584 0.0
Cu554 Cu 0.02381 0.78199 0.28319 0.0
N555 N 1.01399 0.80404 0.28018 0.0
N556 N 0.99371 0.82359 0.27238 0.0
C557 C 0.99633 0.80601 0.27381 0.0
C558 C 1.01038 0.83302 0.27825 0.0
C559 C 0.02285 0.82095 0.28297 0.0
O560 O 1.00447 0.7646 0.29238 0.0
C561 C 0.02904 0.7807 0.24532 0.0
O562 O 0.01515 0.79052 0.24334 0.0
H563 H 0.98569 0.79471 0.2701 0.0
H564 H 0.03746 0.82428 0.28775 0.0
N565 N 0.04482 0.78367 0.29981 0.0
N566 N 0.07112 0.77614 0.31423 0.0
C567 C 0.05804 0.77233 0.30028 0.0
C568 C 0.04961 0.79511 0.31391 0.0
C569 C 0.06578 0.79054 0.3228 0.0
C570 C 0.99847 0.769 0.30735 0.0
O571 O 1.00538 0.78467 0.31487 0.0
H572 H 0.05796 0.76147 0.29052 0.0
H573 H 0.04172 0.80582 0.31768 0.0
O574 O 0.03303 0.7744 0.26076 0.0
H575 H 1.01355 0.84761 0.27857 0.0
H576 H 0.07272 0.79711 0.33492 0.0
Cu577 Cu 0.24885 0.9972 0.30906 0.0
N578 N 0.24958 1.00767 0.332 0.0
N579 N 0.26158 0.02666 0.35446 0.0
C580 C 0.26302 0.02123 0.33731 0.0
C581 C 0.24646 0.01605 0.36022 0.0
C582 C 0.23913 1.0042 0.34631 0.0
O583 O 0.25102 0.01773 0.29231 0.0
C584 C 0.26387 0.96674 0.32035 0.0
O585 O 0.24686 0.9639 0.3262 0.0
H586 H 0.27356 0.02715 0.32853 0.0
H587 H 0.22722 0.99374 0.34669 0.0
N588 N 0.22619 0.98291 0.30189 0.0
N589 N 0.20667 0.96251 0.28521 0.0
C590 C 0.22446 0.97089 0.28809 0.0
C591 C 0.20887 0.98227 0.30802 0.0
C592 C 0.19679 0.9696 0.29779 0.0
C593 C 0.23913 0.02876 0.29489 0.0
O594 O 0.22732 0.02514 0.3076 0.0
H595 H 0.2362 0.96824 0.28046 0.0
H596 H 0.20523 0.99052 0.31897 0.0
O597 O 0.2685 0.98101 0.31132 0.0
H598 H 0.24125 0.01662 0.37356 0.0
H599 H 0.18185 0.96616 0.2993 0.0
Cu600 Cu 0.0284 0.80847 0.78824 0.0
N601 N 0.03877 0.78706 0.78365 0.0
N602 N 0.05766 0.76853 0.77242 0.0
C603 C 0.05542 0.78583 0.77646 0.0
C604 C 0.04185 0.75852 0.77754 0.0
C605 C 0.03027 0.76995 0.7844 0.0
O606 O 0.0492 0.82724 0.79496 0.0
C607 C 0.01528 0.80798 0.75116 0.0
O608 O 0.031 0.8016 0.74804 0.0
H609 H 0.06519 0.79752 0.77328 0.0
H610 H 0.01632 0.76612 0.789 0.0
N611 N 1.01174 0.80595 0.80695 0.0
N612 N 0.98751 0.81045 0.82352 0.0
C613 C 0.99705 0.81535 0.80876 0.0
C614 C 1.01146 0.79464 0.82098 0.0
C615 C 0.99663 0.7974 0.83121 0.0
C616 C 0.05957 0.82366 0.80869 0.0
O617 O 0.05503 0.8084 0.81705 0.0
H618 H 0.99356 0.82569 0.79946 0.0
H619 H 0.02128 0.78497 0.82352 0.0
O620 O 1.01293 0.81362 0.76698 0.0
H621 H 0.03866 0.74398 0.77614 0.0
H622 H 0.99268 0.79007 0.8432 0.0
Cu623 Cu 0.28537 0.08159 0.80283 0.0
N624 N 0.30763 0.09728 0.80096 0.0
N625 N 0.32716 0.11977 0.78993 0.0
C626 C 0.30923 0.11157 0.78997 0.0
C627 C 0.33717 0.11031 0.80162 0.0
C628 C 0.32507 0.09641 0.80838 0.0
O629 O 0.26559 0.09676 0.80717 0.0
C630 C 0.29446 0.06194 0.77218 0.0
O631 O 0.30991 0.07353 0.77294 0.0
H632 H 0.29741 0.11559 0.78193 0.0
H633 H 0.32882 0.08608 0.81756 0.0
N634 N 0.28673 0.06576 0.82205 0.0
N635 N 0.27907 0.04019 0.83681 0.0
C636 C 0.277 0.04909 0.82128 0.0
C637 C 0.29546 0.06748 0.83872 0.0
C638 C 0.29058 0.05169 0.84796 0.0
C639 C 0.26831 0.1059 0.82195 0.0
O640 O 0.28348 0.10433 0.83236 0.0
H641 H 0.26804 0.04378 0.80966 0.0
H642 H 0.3045 0.07939 0.84388 0.0
O643 O 0.28109 0.06479 0.78198 0.0
H644 H 0.35225 0.11276 0.80458 0.0
H645 H 0.29512 0.04886 0.86172 0.0
Cu646 Cu 0.01828 0.32103 0.81744 0.0
N647 N 1.00429 0.34078 0.81546 0.0
N648 N 0.98209 0.35713 0.80444 0.0
C649 C 0.9879 0.3406 0.80536 0.0
C650 C 0.99531 0.36812 0.81446 0.0
C651 C 1.00892 0.35802 0.82127 0.0
O652 O 1.00024 0.29983 0.82088 0.0
C653 C 0.04489 0.33492 0.79582 0.0
O654 O 0.04587 0.34681 0.80911 0.0
H655 H 0.98084 0.32872 0.79811 0.0
H656 H 0.02164 0.36308 0.82931 0.0
N657 N 0.03648 0.32187 0.83706 0.0
N658 N 0.06117 0.31374 0.85387 0.0
C659 C 0.0494 0.31025 0.83888 0.0
C660 C 0.04006 0.33316 0.85143 0.0
C661 C 0.05523 0.32821 0.86179 0.0
C662 C 0.99189 0.30103 0.83541 0.0
O663 O 0.99632 0.31571 0.84551 0.0
H664 H 0.04996 0.29936 0.82931 0.0
H665 H 0.03227 0.34424 0.85419 0.0
O666 O 0.03251 0.32103 0.796 0.0
H667 H 0.99531 0.3825 0.81651 0.0
H668 H 0.06149 0.33499 0.87407 0.0
Cu669 Cu 0.75838 0.01736 0.7818 0.0
N670 N 0.78151 0.03283 0.78983 0.0
N671 N 0.80078 0.05524 0.80371 0.0
C672 C 0.78273 0.04825 0.79956 0.0
C673 C 0.81135 0.04369 0.79646 0.0
C674 C 0.79936 0.02984 0.78781 0.0
O675 O 0.7479 0.03918 0.77011 0.0
C676 C 0.76487 0.99001 0.80873 0.0
O677 O 0.75274 0.99803 0.81739 0.0
H678 H 0.77068 0.054 0.80397 0.0
H679 H 0.80334 0.01829 0.78078 0.0
N680 N 0.73515 1.00189 0.77403 0.0
N681 N 0.71467 0.98052 0.75977 0.0
C682 C 0.73275 0.98853 0.76146 0.0
C683 C 0.7182 1.00241 0.78056 0.0
C684 C 0.70552 0.98931 0.77176 0.0
C685 C 0.73819 0.04914 0.7787 0.0
O686 O 0.73448 0.04509 0.79541 0.0
H687 H 0.7441 0.98461 0.75399 0.0
H688 H 0.71527 0.01163 0.79101 0.0
O689 O 0.76917 0.99565 0.79319 0.0
H690 H 0.82659 0.04519 0.79729 0.0
H691 H 0.69067 0.98664 0.77398 0.0
Cu692 Cu 0.25981 0.80075 0.55053 0.0
N693 N 0.26094 0.82194 0.56458 0.0
N694 N 0.27119 0.84141 0.58743 0.0
C695 C 0.27468 0.82702 0.57755 0.0
C696 C 0.25451 0.84554 0.58018 0.0
C697 C 0.24821 0.83349 0.56618 0.0
O698 O 0.25382 0.78128 0.56785 0.0
C699 C 0.28625 0.79425 0.5245 0.0
O700 O 0.27655 0.77818 0.52177 0.0
H701 H 0.28677 0.81988 0.57988 0.0
H702 H 0.23491 0.83273 0.55832 0.0
N703 N 0.24119 0.79874 0.53138 0.0
N704 N 0.22722 0.78731 0.50505 0.0
C705 C 0.23603 0.78372 0.52104 0.0
C706 C 0.23513 0.8123 0.52178 0.0
C707 C 0.22641 0.80531 0.50566 0.0
C708 C 0.23759 0.78163 0.57398 0.0
O709 O 0.2269 0.79305 0.56676 0.0
H710 H 0.23998 0.77065 0.52466 0.0
H711 H 0.2384 0.82648 0.52541 0.0
O712 O 0.28338 0.8036 0.53828 0.0
H713 H 0.24691 0.856 0.58508 0.0
H714 H 0.22141 0.81319 0.49461 0.0
Cu715 Cu 0.7515 0.76041 0.51095 0.0
N716 N 0.75236 0.73916 0.49789 0.0
N717 N 0.76252 0.71987 0.4787 0.0
C718 C 0.76406 0.73717 0.48477 0.0
C719 C 0.7492 0.71069 0.48842 0.0
C720 C 0.743 0.72263 0.50027 0.0
O721 O 0.75365 0.78033 0.49405 0.0
C722 C 0.77768 0.77615 0.53931 0.0
O723 O 0.77129 0.79148 0.53541 0.0
H724 H 0.77363 0.74825 0.47997 0.0
H725 H 0.73279 0.7194 0.51026 0.0
N726 N 0.72877 0.75949 0.52202 0.0
N727 N 0.70808 0.76705 0.54107 0.0
C728 C 0.72641 0.76794 0.53762 0.0
C729 C 0.71135 0.7527 0.51545 0.0
C730 C 0.69852 0.75729 0.52724 0.0
C731 C 0.74539 0.79431 0.49579 0.0
O732 O 0.73653 0.79646 0.51044 0.0
H733 H 0.73789 0.77527 0.54589 0.0
H734 H 0.70815 0.74567 0.50259 0.0
O735 O 0.77164 0.76208 0.52983 0.0
H736 H 0.74468 0.69628 0.48753 0.0
H737 H 0.68334 0.75457 0.52524 0.0
Cu738 Cu 0.7589 0.29422 0.55857 0.0
N739 N 0.73893 0.29265 0.54053 0.0
N740 N 0.72193 0.28315 0.51489 0.0
C741 C 0.73539 0.27966 0.52753 0.0
C742 C 0.71652 0.29887 0.52048 0.0
C743 C 0.72696 0.30464 0.53622 0.0
O744 O 0.78176 0.29595 0.54535 0.0
C745 C 0.73811 0.27674 0.58397 0.0
O746 O 0.72829 0.28955 0.57835 0.0
H747 H 0.74272 0.26793 0.52727 0.0
H748 H 0.7262 0.31701 0.54366 0.0
N749 N 0.76214 0.31591 0.57217 0.0
N750 N 0.77394 0.33554 0.59442 0.0
C751 C 0.77097 0.31803 0.58882 0.0
C752 C 0.75956 0.33268 0.56695 0.0
C753 C 0.76663 0.34477 0.58067 0.0
C754 C 0.78602 0.28539 0.53312 0.0
O755 O 0.77752 0.26871 0.53179 0.0
H756 H 0.77566 0.30694 0.59641 0.0
H757 H 0.75395 0.33607 0.55373 0.0
O758 O 0.75326 0.2751 0.57626 0.0
H759 H 0.70627 0.30614 0.5134 0.0
H760 H 0.76726 0.35933 0.58011 0.0
Cu761 Cu 0.24456 0.2753 0.53219 0.0
N762 N 0.22145 0.27587 0.54201 0.0
N763 N 0.19923 0.28655 0.55707 0.0
C764 C 0.2168 0.28993 0.55139 0.0
C765 C 0.19254 0.26969 0.55103 0.0
C766 C 0.20628 0.26316 0.54161 0.0
O767 O 0.26398 0.28117 0.55155 0.0
C768 C 0.23301 0.28982 0.5001 0.0
O769 O 0.21972 0.27606 0.50128 0.0
H770 H 0.22632 0.30224 0.55429 0.0
H771 H 0.20525 0.2501 0.53493 0.0
N772 N 0.24639 0.25227 0.52327 0.0
N773 N 0.25668 0.23064 0.50714 0.0
C774 C 0.25574 0.24851 0.50886 0.0
C775 C 0.24114 0.23628 0.53092 0.0
C776 C 0.24737 0.22286 0.52091 0.0
C777 C 0.28014 0.27589 0.55138 0.0
O778 O 0.28476 0.26789 0.53679 0.0
H779 H 0.26232 0.25879 0.50026 0.0
H780 H 0.23408 0.2346 0.54336 0.0
O781 O 0.24621 0.29226 0.51251 0.0
H782 H 0.1787 0.26266 0.55314 0.0
H783 H 0.24608 0.20864 0.52411 0.0
Cu784 Cu 0.78758 0.58207 0.80087 0.0
N785 N 0.80861 0.5992 0.79798 0.0
N786 N 0.82641 0.62227 0.7857 0.0
C787 C 0.81002 0.61096 0.78433 0.0
C788 C 0.83563 0.61727 0.80094 0.0
C789 C 0.82463 0.60305 0.80846 0.0
O790 O 0.76638 0.59573 0.80416 0.0
C791 C 0.79963 0.55932 0.77515 0.0
O792 O 0.81597 0.56852 0.78036 0.0
H793 H 0.79913 0.61101 0.77357 0.0
H794 H 0.82805 0.59613 0.82072 0.0
N795 N 0.78996 0.56767 0.82115 0.0
N796 N 0.78235 0.54354 0.83806 0.0
C797 C 0.7809 0.55075 0.82156 0.0
C798 C 0.79767 0.57128 0.83804 0.0
C799 C 0.79284 0.55639 0.84858 0.0
C800 C 0.76866 0.60605 0.81817 0.0
O801 O 0.78443 0.60666 0.82828 0.0
H802 H 0.77243 0.54422 0.81017 0.0
H803 H 0.80556 0.584 0.84262 0.0
O804 O 0.78467 0.56425 0.78098 0.0
H805 H 0.84923 0.62352 0.80653 0.0
H806 H 0.79636 0.55525 0.86289 0.0
Cu807 Cu 0.25723 0.52286 0.79316 0.0
N808 N 0.26061 0.50908 0.81382 0.0
N809 N 0.27073 0.48804 0.83209 0.0
C810 C 0.27196 0.49605 0.81582 0.0
C811 C 0.25809 0.49647 0.84058 0.0
C812 C 0.25187 0.50935 0.82929 0.0
O813 O 0.24341 0.50718 0.77468 0.0
C814 C 0.28257 0.54657 0.77532 0.0
O815 O 0.26863 0.54651 0.76294 0.0
H816 H 0.28056 0.49225 0.80533 0.0
H817 H 0.2415 0.51813 0.8321 0.0
N818 N 0.24388 0.54238 0.79735 0.0
N819 N 0.23145 0.56778 0.79046 0.0
C820 C 0.23513 0.55151 0.78443 0.0
C821 C 0.24564 0.55317 0.81214 0.0
C822 C 0.23787 0.56873 0.808 0.0
C823 C 0.25068 0.49826 0.76291 0.0
O824 O 0.26905 0.5003 0.76198 0.0
H825 H 0.23265 0.54677 0.77056 0.0
H826 H 0.25345 0.55062 0.8246 0.0
O827 O 0.28168 0.53404 0.78686 0.0
H828 H 0.25362 0.49361 0.85403 0.0
H829 H 0.2383 0.58041 0.81684 0.0
Cu830 Cu 0.27403 0.54215 0.26961 0.0
N831 N 0.25021 0.52882 0.26894 0.0
N832 N 0.22824 0.50635 0.27571 0.0
C833 C 0.24682 0.51187 0.275 0.0
C834 C 0.21955 0.52039 0.26975 0.0
C835 C 0.2332 0.53426 0.26547 0.0
O836 O 0.29168 0.52383 0.27188 0.0
C837 C 0.2638 0.56076 0.3011 0.0
O838 O 0.25318 0.54552 0.30414 0.0
H839 H 0.25783 0.50423 0.28006 0.0
H840 H 0.23094 0.54766 0.26113 0.0
N841 N 0.27699 0.55439 0.24799 0.0
N842 N 0.28721 0.5759 0.22885 0.0
C843 C 0.2881 0.57013 0.24604 0.0
C844 C 0.26868 0.54999 0.23151 0.0
C845 C 0.27495 0.56327 0.21965 0.0
C846 C 0.30449 0.5223 0.26095 0.0
O847 O 0.30877 0.53535 0.24957 0.0
H848 H 0.29647 0.5773 0.25714 0.0
H849 H 0.25877 0.538 0.22837 0.0
O850 O 0.27515 0.56121 0.28845 0.0
H851 H 0.2045 0.52084 0.26916 0.0
H852 H 0.27095 0.56349 0.20535 0.0
Cu853 Cu 0.77174 0.50487 0.30463 0.0
N854 N 0.77362 0.49177 0.3261 0.0
N855 N 0.78263 0.47113 0.34551 0.0
C856 C 0.77992 0.47553 0.32796 0.0
C857 C 0.7777 0.48509 0.35502 0.0
C858 C 0.77211 0.49775 0.34304 0.0
O859 O 0.76902 0.48775 0.2846 0.0
C860 C 0.80788 0.52446 0.31454 0.0
O861 O 0.81062 0.51088 0.32511 0.0
H862 H 0.78354 0.46761 0.31671 0.0
H863 H 0.76811 0.51079 0.34644 0.0
N864 N 0.75115 0.51815 0.30329 0.0
N865 N 0.7337 0.5399 0.2945 0.0
C866 C 0.75038 0.53335 0.29366 0.0
C867 C 0.73446 0.51495 0.3107 0.0
C868 C 0.72368 0.52829 0.30532 0.0
C869 C 0.76412 0.49174 0.26851 0.0
O870 O 0.76247 0.50864 0.26465 0.0
H871 H 0.76178 0.53917 0.28582 0.0
H872 H 0.73036 0.50365 0.31927 0.0
O873 O 0.7934 0.52313 0.30357 0.0
H874 H 0.77851 0.48626 0.3696 0.0
H875 H 0.70955 0.52925 0.30915 0.0
Cu876 Cu 0.53688 0.30354 0.79951 0.0
N877 N 0.52067 0.30143 0.8186 0.0
N878 N 0.49657 0.30592 0.83534 0.0
C879 C 0.50602 0.31085 0.82054 0.0
C880 C 0.50577 0.29288 0.84296 0.0
C881 C 0.52055 0.29016 0.83264 0.0
O882 O 0.5211 0.30872 0.77852 0.0
C883 C 0.56897 0.31921 0.81873 0.0
O884 O 0.56535 0.30398 0.82738 0.0
H885 H 0.50216 0.32084 0.811 0.0
H886 H 0.53044 0.28053 0.83513 0.0
N887 N 0.54667 0.28182 0.79482 0.0
N888 N 0.56481 0.26273 0.78335 0.0
C889 C 0.56352 0.28003 0.78825 0.0
C890 C 0.53709 0.26506 0.79422 0.0
C891 C 0.5482 0.25329 0.78717 0.0
C892 C 0.52326 0.30317 0.76263 0.0
O893 O 0.53877 0.29646 0.75935 0.0
H894 H 0.57411 0.29137 0.78601 0.0
H895 H 0.52269 0.26178 0.79784 0.0
O896 O 0.55781 0.32238 0.80545 0.0
H897 H 0.5022 0.28583 0.85521 0.0
H898 H 0.54416 0.23896 0.78462 0.0
Cu899 Cu 0.51138 0.81316 0.80396 0.0
N900 N 0.5286 0.81366 0.82431 0.0
N901 N 0.5522 0.80584 0.84265 0.0
C902 C 0.54388 0.80477 0.82575 0.0
C903 C 0.54171 0.8157 0.85227 0.0
C904 C 0.52721 0.82055 0.84092 0.0
O905 O 0.52485 0.81003 0.78254 0.0
C906 C 0.48044 0.79503 0.81913 0.0
O907 O 0.48198 0.81048 0.82807 0.0
H908 H 0.54838 0.79706 0.81478 0.0
H909 H 0.51612 0.8281 0.84465 0.0
N910 N 0.4998 0.83428 0.801 0.0
N911 N 0.47932 0.85271 0.79057 0.0
C912 C 0.48304 0.83543 0.79197 0.0
C913 C 0.50694 0.85141 0.80551 0.0
C914 C 0.49437 0.86279 0.7991 0.0
C915 C 0.5407 0.8197 0.78157 0.0
O916 O 0.54694 0.83126 0.79472 0.0
H917 H 0.47407 0.82384 0.78596 0.0
H918 H 0.52053 0.85537 0.81256 0.0
O919 O 0.49195 0.79309 0.80713 0.0
H920 H 0.54425 0.81903 0.86652 0.0
H921 H 0.49625 0.87738 0.80052 0.0
Cu922 Cu 0.51644 0.76423 0.2964 0.0
N923 N 0.50009 0.76282 0.31516 0.0
N924 N 0.47645 0.76957 0.33125 0.0
C925 C 0.48591 0.77291 0.3162 0.0
C926 C 0.48511 0.75683 0.34004 0.0
C927 C 0.49967 0.75267 0.33007 0.0
O928 O 0.50061 0.76673 0.27461 0.0
C929 C 0.54631 0.78337 0.31563 0.0
O930 O 0.54291 0.76906 0.32572 0.0
H931 H 0.48287 0.78277 0.30618 0.0
H932 H 0.50929 0.74301 0.33348 0.0
N933 N 0.52884 0.74376 0.29423 0.0
N934 N 0.55047 0.72699 0.2854 0.0
C935 C 0.54545 0.74377 0.28672 0.0
C936 C 0.52315 0.72638 0.29801 0.0
C937 C 0.53651 0.716 0.29264 0.0
C938 C 0.50268 0.75956 0.25937 0.0
O939 O 0.51788 0.75195 0.25704 0.0
H940 H 0.55347 0.7559 0.28193 0.0
H941 H 0.50997 0.72153 0.30375 0.0
O942 O 0.53577 0.78464 0.30136 0.0
H943 H 0.48114 0.75078 0.35267 0.0
H944 H 0.53562 0.70143 0.29335 0.0
Cu945 Cu 0.5198 0.28733 0.32023 0.0
N946 N 0.50983 0.28262 0.34261 0.0
N947 N 0.49109 0.26822 0.36233 0.0
C948 C 0.4938 0.27155 0.34477 0.0
C949 C 0.50589 0.27796 0.3716 0.0
C950 C 0.51747 0.2868 0.35937 0.0
O951 O 0.4992 0.29199 0.30282 0.0
C952 C 0.53605 0.25401 0.32388 0.0
O953 O 0.52283 0.24908 0.33494 0.0
H954 H 0.48478 0.26547 0.33352 0.0
H955 H 0.53094 0.29493 0.36243 0.0
N956 N 0.53721 0.30808 0.32036 0.0
N957 N 0.56018 0.32661 0.30862 0.0
C958 C 0.55053 0.30986 0.30838 0.0
C959 C 0.53846 0.32426 0.32882 0.0
C960 C 0.55277 0.33575 0.32163 0.0
C961 C 0.48885 0.30334 0.3084 0.0
O962 O 0.4924 0.30996 0.3249 0.0
H963 H 0.55266 0.29902 0.29927 0.0
H964 H 0.52916 0.32767 0.33887 0.0
O965 O 0.53516 0.26825 0.31458 0.0
H966 H 0.50873 0.27791 0.3861 0.0
H967 H 0.55676 0.34991 0.32512 0.0
H968 H 0.16371 0.20332 0.17883 0.0
H969 H 0.22261 0.19897 0.19105 0.0
H970 H 0.17187 0.22307 0.15392 0.0
H971 H 0.23071 0.21781 0.1653 0.0
H972 H 0.24131 0.26744 0.12982 0.0
H973 H 0.2332 0.24772 0.15496 0.0
H974 H 0.18216 0.2247 0.12463 0.0
H975 H 0.19011 0.2448 0.09976 0.0
C976 C 0.17844 0.20652 0.17623 0.0
C977 C 0.19248 0.19957 0.18722 0.0
C978 C 0.18312 0.21771 0.16166 0.0
C979 C 0.20201 0.2222 0.15743 0.0
C980 C 0.21603 0.21498 0.16821 0.0
C981 C 0.21135 0.20388 0.18289 0.0
C982 C 0.22838 0.25814 0.12851 0.0
C983 C 0.21636 0.25779 0.11274 0.0
C984 C 0.22374 0.24671 0.14294 0.0
C985 C 0.207 0.23445 0.14198 0.0
C986 C 0.195 0.23412 0.12614 0.0
C987 C 0.19956 0.24567 0.11179 0.0
H988 H 0.86649 0.27056 0.13776 0.0
H989 H 0.81266 0.24953 0.15709 0.0
H990 H 0.85083 0.27837 0.10909 0.0
H991 H 0.79696 0.25716 0.12854 0.0
H992 H 0.77222 0.2855 0.08167 0.0
H993 H 0.79013 0.28345 0.1104 0.0
H994 H 0.83355 0.26139 0.08291 0.0
H995 H 0.81575 0.26361 0.05406 0.0
C996 C 0.85129 0.26783 0.13588 0.0
C997 C 0.8407 0.25972 0.14962 0.0
C998 C 0.84235 0.27219 0.11951 0.0
C999 C 0.82266 0.26849 0.11662 0.0
C1000 C 0.81211 0.2605 0.13049 0.0
C1001 C 0.82106 0.25606 0.14679 0.0
C1002 C 0.78573 0.28047 0.08168 0.0
C1003 C 0.79246 0.27452 0.06558 0.0
C1004 C 0.79593 0.27921 0.09817 0.0
C1005 C 0.81311 0.27203 0.09893 0.0
C1006 C 0.82038 0.26706 0.08274 0.0
C1007 C 0.81015 0.26828 0.06622 0.0
H1008 H 0.81605 0.86932 0.18514 0.0
H1009 H 0.86833 0.85722 0.16509 0.0
H1010 H 0.79888 0.8549 0.1584 0.0
H1011 H 0.85102 0.84263 0.13829 0.0
H1012 H 0.80869 0.80364 0.09988 0.0
H1013 H 0.82772 0.81654 0.12681 0.0
H1014 H 0.79537 0.86147 0.12665 0.0
H1015 H 0.77655 0.84874 0.10032 0.0
C1016 C 0.82394 0.8637 0.17499 0.0
C1017 C 0.84365 0.86464 0.17731 0.0
C1018 C 0.81406 0.85536 0.15962 0.0
C1019 C 0.82355 0.84769 0.14604 0.0
C1020 C 0.84321 0.84823 0.14851 0.0
C1021 C 0.85314 0.85663 0.16392 0.0
C1022 C 0.80579 0.81632 0.10556 0.0
C1023 C 0.79095 0.82501 0.09797 0.0
C1024 C 0.81668 0.82373 0.12099 0.0
C1025 C 0.81288 0.83992 0.12914 0.0
C1026 C 0.79843 0.84878 0.12111 0.0
C1027 C 0.78768 0.84146 0.10584 0.0
H1028 H 0.17386 0.85217 0.10048 0.0
H1029 H 0.1687 0.80874 0.13867 0.0
H1030 H 0.17926 0.8308 0.07678 0.0
H1031 H 0.17426 0.78739 0.11503 0.0
H1032 H 0.20918 0.76229 0.07212 0.0
H1033 H 0.20136 0.7819 0.09634 0.0
H1034 H 0.16166 0.80404 0.05943 0.0
H1035 H 0.16962 0.78455 0.03522 0.0
C1036 C 0.17406 0.83808 0.10382 0.0
C1037 C 0.17145 0.83224 0.12153 0.0
C1038 C 0.17697 0.82583 0.09024 0.0
C1039 C 0.17728 0.80744 0.09408 0.0
C1040 C 0.17437 0.80152 0.11174 0.0
C1041 C 0.17124 0.81376 0.12527 0.0
C1042 C 0.19867 0.77124 0.06926 0.0
C1043 C 0.19004 0.77189 0.05178 0.0
C1044 C 0.19412 0.78239 0.08313 0.0
C1045 C 0.18098 0.79459 0.07974 0.0
C1046 C 0.17197 0.7949 0.06238 0.0
C1047 C 0.17637 0.78359 0.04858 0.0
H1048 H 0.2614 0.86199 0.90606 0.0
H1049 H 0.20116 0.85432 0.91013 0.0
H1050 H 0.26521 0.84319 0.93264 0.0
H1051 H 0.20491 0.83563 0.93669 0.0
H1052 H 0.21958 0.81797 0.99355 0.0
H1053 H 0.21857 0.83911 0.96873 0.0
H1054 H 0.25678 0.81047 0.94049 0.0
H1055 H 0.25788 0.78929 0.96534 0.0
C1056 C 0.24902 0.85639 0.91276 0.0
C1057 C 0.23102 0.85987 0.90633 0.0
C1058 C 0.25118 0.8456 0.92788 0.0
C1059 C 0.23538 0.83812 0.93683 0.0
C1060 C 0.21737 0.84152 0.93028 0.0
C1061 C 0.21521 0.85215 0.91509 0.0
C1062 C 0.22797 0.81629 0.98217 0.0
C1063 C 0.23871 0.80186 0.98137 0.0
C1064 C 0.22729 0.82834 0.96791 0.0
C1065 C 0.23746 0.82632 0.95262 0.0
C1066 C 0.24887 0.8124 0.95215 0.0
C1067 C 0.24943 0.80024 0.96636 0.0
H1068 H 0.20642 0.26872 0.93542 0.0
H1069 H 0.20423 0.21084 0.9402 0.0
H1070 H 0.22285 0.27284 0.96532 0.0
H1071 H 0.22113 0.21498 0.96979 0.0
H1072 H 0.26524 0.27579 0.01374 0.0
H1073 H 0.25258 0.26998 0.98258 0.0
H1074 H 0.21527 0.22417 1.00001 0.0
H1075 H 0.22801 0.22984 0.03101 0.0
C1076 C 0.20945 0.25686 0.94282 0.0
C1077 C 0.2039 0.23944 0.93533 0.0
C1078 C 0.21912 0.25924 0.9599 0.0
C1079 C 0.22341 0.24425 0.97004 0.0
C1080 C 0.21797 0.22684 0.96249 0.0
C1081 C 0.2084 0.22448 0.9454 0.0
C1082 C 0.25467 0.26421 1.01088 0.0
C1083 C 0.24766 0.25329 0.02497 0.0
C1084 C 0.24722 0.26101 0.993 0.0
C1085 C 0.23271 0.24672 0.98872 0.0
C1086 C 0.22649 0.23523 1.00269 0.0
C1087 C 0.23381 0.2385 0.02054 0.0
H1088 H 0.7976 0.1846 0.90429 0.0
H1089 H 0.849 0.20569 0.93512 0.0
H1090 H 0.77923 0.19334 0.92867 0.0
H1091 H 0.83059 0.21449 0.95949 0.0
H1092 H 0.79092 0.24679 0.98848 0.0
H1093 H 0.80937 0.23664 0.96496 0.0
H1094 H 0.77197 0.18632 0.9599 0.0
H1095 H 0.75306 0.1968 0.98314 0.0
C1096 C 0.805 0.1909 0.91637 0.0
C1097 C 0.82479 0.19447 0.91773 0.0
C1098 C 0.79445 0.1959 0.93035 0.0
C1099 C 0.80343 0.20464 0.94602 0.0
C1100 C 0.82323 0.20803 0.94747 0.0
C1101 C 0.83378 0.203 0.9335 0.0
C1102 C 0.78649 0.23364 0.98226 0.0
C1103 C 0.77038 0.22267 0.98761 0.0
C1104 C 0.79724 0.22771 0.96892 0.0
C1105 C 0.79218 0.21066 0.96055 0.0
C1106 C 0.77615 0.19961 0.96597 0.0
C1107 C 0.76541 0.20553 0.9794 0.0
H1108 H 0.823 0.83835 0.91532 0.0
H1109 H 0.81178 0.89289 0.9256 0.0
H1110 H 0.80834 0.82859 0.94303 0.0
H1111 H 0.79687 0.88305 0.95305 0.0
H1112 H 0.75342 0.85454 0.99016 0.0
H1113 H 0.76855 0.86443 0.96281 0.0
H1114 H 0.81299 0.83202 0.97603 0.0
H1115 H 0.79815 0.82231 1.00342 0.0
C1116 C 0.81758 0.84832 0.92352 0.0
C1117 C 0.81854 0.86642 0.91803 0.0
C1118 C 0.80911 0.8427 0.93943 0.0
C1119 C 0.80127 0.85499 0.95027 0.0
C1120 C 0.80241 0.87312 0.94489 0.0
C1121 C 0.81097 0.87876 0.92908 0.0
C1122 C 0.76648 0.8496 0.98742 0.0
C1123 C 0.77437 0.83748 0.99921 0.0
C1124 C 0.77519 0.8553 0.97165 0.0
C1125 C 0.79199 0.84899 0.96712 0.0
C1126 C 0.79991 0.83693 0.97889 0.0
C1127 C 0.7913 0.83133 0.99469 0.0
H1128 H 0.14103 0.15967 0.24614 0.0
H1129 H 0.15975 0.21626 0.23801 0.0
H1130 H 0.11581 0.16784 0.26379 0.0
H1131 H 0.13389 0.22438 0.25457 0.0
H1132 H 0.09535 0.23541 0.29816 0.0
H1133 H 0.12196 0.22639 0.28307 0.0
H1134 H 0.0865 0.17895 0.26114 0.0
H1135 H 0.06014 0.18781 0.27665 0.0
C1136 C 0.13983 0.17386 0.24811 0.0
C1137 C 0.15249 0.18725 0.24047 0.0
C1138 C 0.12514 0.17857 0.25807 0.0
C1139 C 0.1226 0.19682 0.26063 0.0
C1140 C 0.13541 0.21019 0.25315 0.0
C1141 C 0.15015 0.2055 0.24334 0.0
C1142 C 0.09326 0.22306 0.29012 0.0
C1143 C 0.07557 0.21237 0.28865 0.0
C1144 C 0.10853 0.21788 0.28137 0.0
C1145 C 0.10651 0.20193 0.27071 0.0
C1146 C 0.08881 0.19115 0.26942 0.0
C1147 C 0.0736 0.19625 0.27832 0.0
H1148 H 0.85488 0.18774 0.22894 0.0
H1149 H 0.83554 0.17736 0.17304 0.0
H1150 H 0.83522 0.16048 0.23752 0.0
H1151 H 0.81503 0.15068 0.18174 0.0
H1152 H 0.79695 0.09325 0.20141 0.0
H1153 H 0.816 0.1207 0.1922 0.0
H1154 H 0.80326 0.14823 0.24051 0.0
H1155 H 0.78455 0.12063 0.24981 0.0
C1156 C 0.84644 0.17966 0.21846 0.0
C1157 C 0.84688 0.18477 0.20028 0.0
C1158 C 0.83492 0.16414 0.22342 0.0
C1159 C 0.82344 0.15335 0.21034 0.0
C1160 C 0.82382 0.15851 0.19217 0.0
C1161 C 0.83542 0.17398 0.1872 0.0
C1162 C 0.79804 0.10523 0.20994 0.0
C1163 C 0.78929 0.10474 0.22637 0.0
C1164 C 0.80897 0.121 0.20467 0.0
C1165 C 0.81129 0.13672 0.21565 0.0
C1166 C 0.80215 0.13631 0.23189 0.0
C1167 C 0.79135 0.1205 0.23721 0.0
H1168 H 0.88266 0.84034 0.22574 0.0
H1169 H 0.91443 0.89364 0.22885 0.0
H1170 H 0.90968 0.82772 0.23963 0.0
H1171 H 0.94167 0.88104 0.24234 0.0
H1172 H 0.98224 0.85567 0.28102 0.0
H1173 H 0.95453 0.86814 0.26845 0.0
H1174 H 0.93989 0.82059 0.23423 0.0
H1175 H 0.96734 0.80803 0.24715 0.0
C1176 C 0.89549 0.84936 0.22926 0.0
C1177 C 0.89636 0.86801 0.22614 0.0
C1178 C 0.91106 0.84211 0.23719 0.0
C1179 C 0.92803 0.85328 0.24212 0.0
C1180 C 0.92882 0.87198 0.23906 0.0
C1181 C 0.91319 0.87924 0.23126 0.0
C1182 C 0.97312 0.8479 0.27078 0.0
C1183 C 0.97705 0.83082 0.26515 0.0
C1184 C 0.95721 0.85508 0.2635 0.0
C1185 C 0.94484 0.84546 0.25022 0.0
C1186 C 0.9488 0.82832 0.24463 0.0
C1187 C 0.96462 0.82109 0.25204 0.0
H1188 H 0.14126 0.88317 0.21191 0.0
H1189 H 0.1993 0.87647 0.20507 0.0
H1190 H 0.15147 0.90808 0.2332 0.0
H1191 H 0.20955 0.90141 0.22642 0.0
H1192 H 0.22141 0.95748 0.25303 0.0
H1193 H 0.21079 0.93389 0.23048 0.0
H1194 H 0.16589 0.91285 0.26366 0.0
H1195 H 0.17653 0.9365 0.28626 0.0
C1196 C 0.15621 0.88699 0.21499 0.0
C1197 C 0.16946 0.87773 0.20687 0.0
C1198 C 0.16206 0.90126 0.22723 0.0
C1199 C 0.18132 0.90668 0.23165 0.0
C1200 C 0.1946 0.89772 0.22319 0.0
C1201 C 0.18874 0.88343 0.21093 0.0
C1202 C 0.20935 0.94777 0.25562 0.0
C1203 C 0.19991 0.94887 0.27157 0.0
C1204 C 0.20326 0.93422 0.24265 0.0
C1205 C 0.18752 0.92141 0.24526 0.0
C1206 C 0.17791 0.92264 0.26109 0.0
C1207 C 0.18402 0.93621 0.27407 0.0
H1208 H 0.15044 0.909 0.84607 0.0
H1209 H 0.17468 0.85899 0.84472 0.0
H1210 H 0.12039 0.89318 0.83303 0.0
H1211 H 0.14488 0.84332 0.83194 0.0
H1212 H 0.08466 0.81759 0.83614 0.0
H1213 H 0.11413 0.83573 0.84582 0.0
H1214 H 0.10415 0.87497 0.80506 0.0
H1215 H 0.07419 0.85661 0.7952 0.0
C1216 C 0.14945 0.89473 0.84275 0.0
C1217 C 0.16483 0.88517 0.84676 0.0
C1218 C 0.13226 0.88569 0.83529 0.0
C1219 C 0.1302 0.86696 0.83177 0.0
C1220 C 0.1459 0.85768 0.8349 0.0
C1221 C 0.16297 0.86666 0.84226 0.0
C1222 C 0.08861 0.83008 0.82919 0.0
C1223 C 0.07707 0.83556 0.81479 0.0
C1224 C 0.10561 0.84045 0.8347 0.0
C1225 C 0.11159 0.85666 0.82605 0.0
C1226 C 0.09988 0.86252 0.81197 0.0
C1227 C 0.08279 0.85199 0.80631 0.0
H1228 H 0.23603 0.19805 0.87599 0.0
H1229 H 0.18853 0.1849 0.83753 0.0
H1230 H 0.24966 0.17175 0.86581 0.0
H1231 H 0.20184 0.15809 0.82753 0.0
H1232 H 0.24433 0.12458 0.8009 0.0
H1233 H 0.22723 0.14891 0.81101 0.0
H1234 H 0.24617 0.13993 0.86626 0.0
H1235 H 0.26355 0.11635 0.85613 0.0
C1236 C 0.22844 0.18937 0.86545 0.0
C1237 C 0.21137 0.19362 0.8574 0.0
C1238 C 0.23616 0.17419 0.85965 0.0
C1239 C 0.22689 0.16267 0.84578 0.0
C1240 C 0.20953 0.16674 0.83803 0.0
C1241 C 0.20183 0.182 0.84383 0.0
C1242 C 0.24457 0.1277 0.8152 0.0
C1243 C 0.25548 0.1187 0.82767 0.0
C1244 C 0.23477 0.14163 0.82104 0.0
C1245 C 0.23557 0.1467 0.83948 0.0
C1246 C 0.24564 0.13687 0.85193 0.0
C1247 C 0.25552 0.1232 0.84611 0.0
H1248 H 0.89554 0.24342 0.88399 0.0
H1249 H 0.92413 0.20064 0.864 0.0
H1250 H 0.91819 0.26584 0.87051 0.0
H1251 H 0.94722 0.22305 0.8509 0.0
H1252 H 0.97662 0.26945 0.81744 0.0
H1253 H 0.95219 0.24637 0.82772 0.0
H1254 H 0.95083 0.2771 0.87712 0.0
H1255 H 0.9746 0.30003 0.86685 0.0
C1256 C 0.90668 0.23888 0.87664 0.0
C1257 C 0.90815 0.22038 0.87503 0.0
C1258 C 0.91971 0.25166 0.86901 0.0
C1259 C 0.93462 0.24623 0.85976 0.0
C1260 C 0.93582 0.22766 0.85779 0.0
C1261 C 0.9227 0.21485 0.86538 0.0
C1262 C 0.97103 0.27122 0.83047 0.0
C1263 C 0.97748 0.28662 0.84126 0.0
C1264 C 0.95711 0.258 0.83638 0.0
C1265 C 0.94941 0.26 0.85317 0.0
C1266 C 0.95609 0.27532 0.86396 0.0
C1267 C 0.96988 0.28844 0.85808 0.0
H1268 H 0.78863 0.89324 0.86657 0.0
H1269 H 0.84359 0.92012 0.85531 0.0
H1270 H 0.77393 0.91653 0.85034 0.0
H1271 H 0.82879 0.94334 0.83881 0.0
H1272 H 0.79388 0.97318 0.79694 0.0
H1273 H 0.80872 0.94882 0.81151 0.0
H1274 H 0.77096 0.94857 0.85459 0.0
H1275 H 0.75609 0.97271 0.84003 0.0
C1276 C 0.79762 0.90415 0.86071 0.0
C1277 C 0.81736 0.90483 0.86249 0.0
C1278 C 0.78915 0.91752 0.85135 0.0
C1279 C 0.80015 0.93193 0.84337 0.0
C1280 C 0.81987 0.93236 0.84465 0.0
C1281 C 0.82836 0.91901 0.85411 0.0
C1282 C 0.7887 0.96787 0.80948 0.0
C1283 C 0.77374 0.97492 0.81727 0.0
C1284 C 0.79729 0.95397 0.8179 0.0
C1285 C 0.79104 0.94667 0.83422 0.0
C1286 C 0.776 0.95367 0.84191 0.0
C1287 C 0.76752 0.96762 0.83359 0.0
H1288 H 0.18493 0.11648 0.25219 0.0
H1289 H 0.23016 0.11689 0.21662 0.0
H1290 H 0.1972 0.09253 0.26966 0.0
H1291 H 0.24292 0.09313 0.23435 0.0
H1292 H 0.24531 0.03521 0.25883 0.0
H1293 H 0.23707 0.06123 0.2413 0.0
H1294 H 0.2218 0.08609 0.29009 0.0
H1295 H 0.22936 0.06012 0.30718 0.0
C1296 C 0.19768 0.11157 0.24828 0.0
C1297 C 0.20648 0.11848 0.23299 0.0
C1298 C 0.20483 0.09787 0.25833 0.0
C1299 C 0.22116 0.09075 0.2535 0.0
C1300 C 0.23022 0.09801 0.23838 0.0
C1301 C 0.22301 0.11175 0.2283 0.0
C1302 C 0.24052 0.04642 0.26577 0.0
C1303 C 0.23782 0.04551 0.28435 0.0
C1304 C 0.23575 0.06136 0.25575 0.0
C1305 C 0.22833 0.07572 0.26416 0.0
C1306 C 0.22685 0.07515 0.28295 0.0
C1307 C 0.23139 0.06026 0.29283 0.0
H1308 H 0.19578 0.9515 0.86256 0.0
H1309 H 0.24301 0.92564 0.84744 0.0
H1310 H 0.21352 0.98125 0.85718 0.0
H1311 H 0.26057 0.95524 0.84169 0.0
H1312 H 0.27396 0.01142 0.81412 0.0
H1313 H 0.25632 0.98174 0.81922 0.0
H1314 H 0.24528 0.99929 0.87263 0.0
H1315 H 0.26324 0.02899 0.86756 0.0
C1316 C 0.20983 0.95223 0.85781 0.0
C1317 C 0.21807 0.93641 0.8553 0.0
C1318 C 0.22 0.96917 0.85491 0.0
C1319 C 0.23841 0.97047 0.84912 0.0
C1320 C 0.24639 0.95458 0.84611 0.0
C1321 C 0.23638 0.93771 0.84936 0.0
C1322 C 0.26785 1.00885 0.82698 0.0
C1323 C 0.26994 0.02241 0.84048 0.0
C1324 C 0.25781 0.99192 0.8299 0.0
C1325 C 0.24936 0.98833 0.84625 0.0
C1326 C 0.25155 1.00182 0.85984 0.0
C1327 C 0.26194 0.01868 0.85704 0.0
H1328 H 0.14089 0.25429 0.91507 0.0
H1329 H 0.16201 0.25946 0.86194 0.0
H1330 H 0.11509 0.27109 0.90542 0.0
H1331 H 0.13653 0.27656 0.85235 0.0
H1332 H 0.07841 0.29003 0.83449 0.0
H1333 H 0.10396 0.2736 0.84474 0.0
H1334 H 0.10624 0.29957 0.8972 0.0
H1335 H 0.07992 0.31534 0.88726 0.0
C1336 C 0.14018 0.25921 0.90139 0.0
C1337 C 0.15353 0.2554 0.88929 0.0
C1338 C 0.12535 0.26891 0.89583 0.0
C1339 C 0.1235 0.2752 0.87801 0.0
C1340 C 0.1371 0.27164 0.86604 0.0
C1341 C 0.15182 0.26186 0.87157 0.0
C1342 C 0.0841 0.29219 0.84828 0.0
C1343 C 0.07678 0.30413 0.85996 0.0
C1344 C 0.09907 0.28286 0.85414 0.0
C1345 C 0.1074 0.2852 0.87185 0.0
C1346 C 0.10014 0.29716 0.88354 0.0
C1347 C 0.08508 0.30644 0.87771 0.0
H1348 H 0.86365 0.14638 0.86363 0.0
H1349 H 0.80504 0.15184 0.86931 0.0
H1350 H 0.85435 0.11926 0.84515 0.0
H1351 H 0.79577 0.12401 0.85195 0.0
H1352 H 0.78439 0.08575 0.80378 0.0
H1353 H 0.79437 0.11302 0.82195 0.0
H1354 H 0.84127 0.08848 0.84584 0.0
H1355 H 0.83149 0.06142 0.82709 0.0
C1356 C 0.84877 0.14178 0.861 0.0
C1357 C 0.8351 0.15142 0.86787 0.0
C1358 C 0.84343 0.12604 0.8506 0.0
C1359 C 0.82429 0.11943 0.84697 0.0
C1360 C 0.81064 0.12886 0.85418 0.0
C1361 C 0.81597 0.1447 0.86441 0.0
C1362 C 0.79681 0.08622 0.81295 0.0
C1363 C 0.80715 0.07149 0.81409 0.0
C1364 C 0.8025 0.1018 0.82344 0.0
C1365 C 0.81855 0.10293 0.83552 0.0
C1366 C 0.82899 0.0882 0.83653 0.0
C1367 C 0.82341 0.07268 0.82583 0.0
H1368 H 0.89048 0.86788 0.83949 0.0
H1369 H 0.88458 0.82267 0.87539 0.0
H1370 H 0.92067 0.85957 0.83081 0.0
H1371 H 0.91438 0.81399 0.86651 0.0
H1372 H 0.97587 0.81041 0.85771 0.0
H1373 H 0.94769 0.82125 0.86795 0.0
H1374 H 0.93297 0.83705 0.81356 0.0
H1375 H 0.96128 0.82634 0.80338 0.0
C1376 C 0.89575 0.85623 0.8456 0.0
C1377 C 0.88513 0.84589 0.85804 0.0
C1378 C 0.91296 0.85133 0.84052 0.0
C1379 C 0.92003 0.83596 0.84779 0.0
C1380 C 0.90961 0.826 0.8607 0.0
C1381 C 0.89244 0.83092 0.86578 0.0
C1382 C 0.96661 0.81611 0.84789 0.0
C1383 C 0.97095 0.81738 0.82966 0.0
C1384 C 0.95037 0.82235 0.85378 0.0
C1385 C 0.93787 0.83003 0.84163 0.0
C1386 C 0.94233 0.8315 0.82343 0.0
C1387 C 0.95862 0.82531 0.81754 0.0
H1388 H 0.84011 0.92993 0.26919 0.0
H1389 H 0.83316 0.94239 0.21274 0.0
H1390 H 0.83211 0.95969 0.27736 0.0
H1391 H 0.82493 0.97214 0.22079 0.0
H1392 H 0.82535 0.02981 0.24012 0.0
H1393 H 0.83719 1.00136 0.23413 0.0
H1394 H 0.80508 0.97625 0.2766 0.0
H1395 H 0.79335 1.00488 0.28277 0.0
C1396 C 0.83712 0.93916 0.25852 0.0
C1397 C 0.83766 0.93394 0.24031 0.0
C1398 C 0.83235 0.95618 0.26319 0.0
C1399 C 0.82788 0.96845 0.24978 0.0
C1400 C 0.82859 0.96324 0.23154 0.0
C1401 C 0.8333 0.94618 0.22687 0.0
C1402 C 0.82099 0.01832 0.2484 0.0
C1403 C 0.80831 0.01972 0.26193 0.0
C1404 C 0.82768 1.0019 0.24483 0.0
C1405 C 0.82195 0.98634 0.25468 0.0
C1406 C 0.80993 0.98793 0.26878 0.0
C1407 C 0.80319 1.00439 0.27234 0.0
H1408 H 0.11079 0.8196 0.16754 0.0
H1409 H 0.13675 0.81835 0.22153 0.0
H1410 H 0.08247 0.80115 0.1772 0.0
H1411 H 0.10856 0.80027 0.23125 0.0
H1412 H 0.03032 0.80015 0.2142 0.0
H1413 H 0.058 0.80836 0.19722 0.0
H1414 H 0.08788 0.77128 0.22852 0.0
H1415 H 0.0603 0.76324 0.24574 0.0
C1416 C 0.11055 0.81508 0.18137 0.0
C1417 C 0.12584 0.82053 0.19386 0.0
C1418 C 0.09435 0.80462 0.18691 0.0
C1419 C 0.09327 0.79926 0.20498 0.0
C1420 C 0.109 0.80394 0.21717 0.0
C1421 C 0.12508 0.81449 0.21168 0.0
C1422 C 0.04257 0.79331 0.2171 0.0
C1423 C 0.04326 0.7814 0.23165 0.0
C1424 C 0.05845 0.79799 0.2073 0.0
C1425 C 0.07526 0.79078 0.21183 0.0
C1426 C 0.07524 0.77736 0.22501 0.0
C1427 C 0.05939 0.7727 0.23482 0.0
H1428 H 0.9157 0.19953 0.20845 0.0
H1429 H 0.90535 0.25531 0.20908 0.0
H1430 H 0.94631 0.20824 0.22453 0.0
H1431 H 0.93623 0.26411 0.22446 0.0
H1432 H 0.98018 0.26731 0.2732 0.0
H1433 H 0.95121 0.26087 0.25413 0.0
H1434 H 0.97758 0.2246 0.22123 0.0
H1435 H 1.00655 0.23075 0.24058 0.0
C1436 C 0.91998 0.21365 0.21197 0.0
C1437 C 0.90805 0.2267 0.20754 0.0
C1438 C 0.93763 0.21869 0.22096 0.0
C1439 C 0.94375 0.23689 0.22574 0.0
C1440 C 0.9319 0.24996 0.22111 0.0
C1441 C 0.91426 0.24493 0.21214 0.0
C1442 C 0.97994 0.25817 0.26174 0.0
C1443 C 0.99566 0.24943 0.25851 0.0
C1444 C 0.96331 0.25452 0.25076 0.0
C1445 C 0.96201 0.24207 0.23626 0.0
C1446 C 0.97802 0.234 0.2325 0.0
C1447 C 0.99468 0.23765 0.2435 0.0
H1448 H 0.20271 0.70533 0.65951 0.0
H1449 H 0.19243 0.75811 0.67782 0.0
H1450 H 0.21614 0.71882 0.63256 0.0
H1451 H 0.20521 0.77134 0.65059 0.0
H1452 H 0.20521 0.78361 0.59047 0.0
H1453 H 0.19455 0.76911 0.61769 0.0
H1454 H 0.24387 0.74153 0.62194 0.0
H1455 H 0.25492 0.75642 0.59431 0.0
C1456 C 0.20343 0.71981 0.65797 0.0
C1457 C 0.19628 0.73054 0.671 0.0
C1458 C 0.21115 0.72753 0.64243 0.0
C1459 C 0.21169 0.74614 0.63934 0.0
C1460 C 0.20479 0.7569 0.65241 0.0
C1461 C 0.1973 0.74925 0.66802 0.0
C1462 C 0.21391 0.77444 0.59705 0.0
C1463 C 0.23105 0.7713 0.59009 0.0
C1464 C 0.20777 0.76619 0.61282 0.0
C1465 C 0.21842 0.75432 0.62217 0.0
C1466 C 0.23533 0.75064 0.61504 0.0
C1467 C 0.24167 0.75916 0.59923 0.0
H1468 H 0.81389 0.73683 0.64263 0.0
H1469 H 0.85002 0.78754 0.63994 0.0
H1470 H 0.80022 0.74136 0.61223 0.0
H1471 H 0.83655 0.79209 0.6094 0.0
H1472 H 0.79006 0.80228 0.5651 0.0
H1473 H 0.80646 0.79834 0.59437 0.0
H1474 H 0.80869 0.74227 0.58083 0.0
H1475 H 0.79214 0.74609 0.55174 0.0
C1476 C 0.81887 0.74894 0.63546 0.0
C1477 C 0.83274 0.76197 0.64365 0.0
C1478 C 0.81119 0.75149 0.61803 0.0
C1479 C 0.81729 0.76711 0.60838 0.0
C1480 C 0.83138 0.78004 0.61655 0.0
C1481 C 0.83911 0.77744 0.63398 0.0
C1482 C 0.79426 0.78917 0.56827 0.0
C1483 C 0.78965 0.77448 0.5561 0.0
C1484 C 0.8037 0.78692 0.58504 0.0
C1485 C 0.8087 0.76994 0.59001 0.0
C1486 C 0.80473 0.75545 0.57755 0.0
C1487 C 0.79534 0.75769 0.56081 0.0
H1488 H 0.83529 0.3571 0.69994 0.0
H1489 H 0.8359 0.40905 0.67466 0.0
H1490 H 0.81809 0.34254 0.67304 0.0
H1491 H 0.81903 0.39461 0.6478 0.0
H1492 H 0.77031 0.36717 0.61133 0.0
H1493 H 0.7883 0.38053 0.63813 0.0
H1494 H 0.81927 0.33461 0.64163 0.0
H1495 H 0.8011 0.32117 0.61486 0.0
C1496 C 0.83201 0.36538 0.68854 0.0
C1497 C 0.83682 0.38427 0.68957 0.0
C1498 C 0.82212 0.35704 0.67309 0.0
C1499 C 0.81686 0.36738 0.65824 0.0
C1500 C 0.82233 0.3862 0.65909 0.0
C1501 C 0.83211 0.39451 0.6745 0.0
C1502 C 0.781 0.35994 0.61774 0.0
C1503 C 0.78422 0.34309 0.61079 0.0
C1504 C 0.79141 0.36764 0.63314 0.0
C1505 C 0.80544 0.35878 0.64207 0.0
C1506 C 0.80848 0.34178 0.63529 0.0
C1507 C 0.79801 0.33404 0.61989 0.0
H1508 H 0.12964 0.33791 0.62886 0.0
H1509 H 0.18342 0.37148 0.63049 0.0
H1510 H 0.13984 0.31879 0.60543 0.0
H1511 H 0.19398 0.35214 0.60757 0.0
H1512 H 0.20327 0.32301 0.55643 0.0
H1513 H 0.18974 0.34319 0.57643 0.0
H1514 H 0.16128 0.29689 0.60276 0.0
H1515 H 0.17455 0.27679 0.58242 0.0
C1516 C 0.14358 0.34125 0.62403 0.0
C1517 C 0.15569 0.35626 0.63118 0.0
C1518 C 0.1495 0.33024 0.61077 0.0
C1519 C 0.16772 0.33393 0.60459 0.0
C1520 C 0.17974 0.34909 0.61173 0.0
C1521 C 0.17376 0.36013 0.62489 0.0
C1522 C 0.19408 0.31719 0.56647 0.0
C1523 C 0.19008 0.29835 0.56799 0.0
C1524 C 0.18635 0.32873 0.57795 0.0
C1525 C 0.17456 0.32168 0.59133 0.0
C1526 C 0.17011 0.3028 0.59247 0.0
C1527 C 0.17773 0.29126 0.58086 0.0
H1528 H 0.23745 0.38245 0.42848 0.0
H1529 H 0.21373 0.33677 0.39476 0.0
H1530 H 0.23993 0.36251 0.45433 0.0
H1531 H 0.21664 0.31666 0.42032 0.0
H1532 H 0.20498 0.28927 0.47353 0.0
H1533 H 0.20292 0.30958 0.44831 0.0
H1534 H 0.25709 0.33871 0.46612 0.0
H1535 H 0.25893 0.31853 0.4918 0.0
C1536 C 0.23295 0.36809 0.42663 0.0
C1537 C 0.22568 0.36104 0.40965 0.0
C1538 C 0.23445 0.35665 0.44136 0.0
C1539 C 0.22858 0.33795 0.43941 0.0
C1540 C 0.22113 0.331 0.42237 0.0
C1541 C 0.21958 0.34245 0.40769 0.0
C1542 C 0.2165 0.29998 0.4721 0.0
C1543 C 0.23215 0.30225 0.48468 0.0
C1544 C 0.21535 0.31159 0.45754 0.0
C1545 C 0.22988 0.32574 0.45509 0.0
C1546 C 0.24555 0.32807 0.4677 0.0
C1547 C 0.24666 0.31645 0.48236 0.0
H1548 H 0.207 0.70068 0.42222 0.0
H1549 H 0.20936 0.75136 0.39426 0.0
H1550 H 0.21343 0.71725 0.45114 0.0
H1551 H 0.21562 0.76778 0.4229 0.0
H1552 H 0.20243 0.79099 0.47657 0.0
H1553 H 0.19735 0.77284 0.44886 0.0
H1554 H 0.23724 0.73833 0.46971 0.0
H1555 H 0.24253 0.75661 0.49741 0.0
C1556 C 0.20919 0.71532 0.42221 0.0
C1557 C 0.20739 0.72467 0.40593 0.0
C1558 C 0.21281 0.72483 0.43878 0.0
C1559 C 0.21466 0.74387 0.4394 0.0
C1560 C 0.21376 0.75314 0.42301 0.0
C1561 C 0.21024 0.7437 0.40655 0.0
C1562 C 0.21017 0.77958 0.4753 0.0
C1563 C 0.22299 0.77546 0.48932 0.0
C1564 C 0.20728 0.76915 0.45936 0.0
C1565 C 0.21706 0.75422 0.45693 0.0
C1566 C 0.22939 0.74966 0.47115 0.0
C1567 C 0.23237 0.76017 0.48711 0.0
H1568 H 0.80388 0.66876 0.38591 0.0
H1569 H 0.85361 0.68777 0.42006 0.0
H1570 H 0.78421 0.68017 0.40793 0.0
H1571 H 0.83404 0.69887 0.4422 0.0
H1572 H 0.79659 0.73467 0.46791 0.0
H1573 H 0.81519 0.72258 0.44575 0.0
H1574 H 0.77302 0.67583 0.43773 0.0
H1575 H 0.75382 0.68843 0.45931 0.0
C1576 C 0.81058 0.67518 0.39823 0.0
C1577 C 0.8303 0.67749 0.4012 0.0
C1578 C 0.79932 0.6817 0.41087 0.0
C1579 C 0.80753 0.69058 0.4268 0.0
C1580 C 0.82724 0.69248 0.42991 0.0
C1581 C 0.83848 0.68608 0.41724 0.0
C1582 C 0.79107 0.72194 0.4613 0.0
C1583 C 0.77359 0.7126 0.46546 0.0
C1584 C 0.80193 0.71485 0.44872 0.0
C1585 C 0.79571 0.69814 0.44001 0.0
C1586 C 0.77819 0.6888 0.44407 0.0
C1587 C 0.76726 0.69595 0.45662 0.0
H1588 H 0.80437 0.33766 0.43232 0.0
H1589 H 0.85999 0.32386 0.44734 0.0
H1590 H 0.79317 0.32461 0.4603 0.0
H1591 H 0.84814 0.30968 0.47459 0.0
H1592 H 0.80307 0.26776 0.50726 0.0
H1593 H 0.81726 0.28087 0.48023 0.0
H1594 H 0.80645 0.33376 0.49708 0.0
H1595 H 0.79291 0.32098 0.52426 0.0
C1596 C 0.8143 0.33196 0.44147 0.0
C1597 C 0.83323 0.33202 0.43732 0.0
C1598 C 0.80775 0.32431 0.45745 0.0
C1599 C 0.81979 0.3161 0.46952 0.0
C1600 C 0.83854 0.31578 0.46539 0.0
C1601 C 0.84525 0.32383 0.44963 0.0
C1602 C 0.80407 0.28223 0.50538 0.0
C1603 C 0.79693 0.29329 0.51802 0.0
C1604 C 0.81214 0.2897 0.48991 0.0
C1605 C 0.81278 0.30828 0.48656 0.0
C1606 C 0.80603 0.31938 0.49933 0.0
C1607 C 0.79841 0.31203 0.51496 0.0
H1608 H 0.15826 0.75708 0.71449 0.0
H1609 H 0.13418 0.70257 0.72591 0.0
H1610 H 0.13233 0.76873 0.72859 0.0
H1611 H 0.10896 0.71419 0.74079 0.0
H1612 H 0.05589 0.7384 0.75123 0.0
H1613 H 0.08123 0.72765 0.73572 0.0
H1614 H 0.11969 0.77338 0.75704 0.0
H1615 H 0.09408 0.7843 0.77236 0.0
C1616 C 0.14744 0.74755 0.71994 0.0
C1617 C 0.14848 0.72883 0.71904 0.0
C1618 C 0.13265 0.75427 0.72828 0.0
C1619 C 0.11844 0.74247 0.73597 0.0
C1620 C 0.11942 0.72376 0.73489 0.0
C1621 C 0.13413 0.71707 0.72653 0.0
C1622 C 0.06976 0.74611 0.75277 0.0
C1623 C 0.07288 0.76219 0.76321 0.0
C1624 C 0.08439 0.73992 0.74384 0.0
C1625 C 0.10269 0.74952 0.74512 0.0
C1626 C 0.10579 0.76569 0.75546 0.0
C1627 C 0.09109 0.77196 0.76434 0.0
H1628 H 0.88905 0.69622 0.71428 0.0
H1629 H 0.83528 0.71599 0.71616 0.0
H1630 H 0.87857 0.67161 0.73419 0.0
H1631 H 0.82489 0.69174 0.73653 0.0
H1632 H 0.80527 0.63683 0.75905 0.0
H1633 H 0.81569 0.66036 0.73837 0.0
H1634 H 0.87177 0.66526 0.76437 0.0
H1635 H 0.86168 0.64089 0.78441 0.0
C1636 C 0.87502 0.69535 0.71907 0.0
C1637 C 0.86298 0.70803 0.71366 0.0
C1638 C 0.86902 0.68129 0.73057 0.0
C1639 C 0.85088 0.67965 0.7371 0.0
C1640 C 0.83883 0.69234 0.73157 0.0
C1641 C 0.84478 0.70629 0.71992 0.0
C1642 C 0.81989 0.64265 0.76034 0.0
C1643 C 0.83257 0.63667 0.77355 0.0
C1644 C 0.82583 0.65643 0.74853 0.0
C1645 C 0.84459 0.66483 0.74964 0.0
C1646 C 0.85727 0.65897 0.76288 0.0
C1647 C 0.85137 0.64506 0.77461 0.0
H1648 H 0.89802 0.41665 0.75214 0.0
H1649 H 0.87802 0.36113 0.73684 0.0
H1650 H 0.92432 0.407 0.76965 0.0
H1651 H 0.90548 0.35158 0.75308 0.0
H1652 H 0.94778 0.33733 0.79793 0.0
H1653 H 0.9204 0.3463 0.78076 0.0
H1654 H 0.9531 0.39723 0.7689 0.0
H1655 H 0.97991 0.38849 0.78683 0.0
C1656 C 0.89913 0.40233 0.75246 0.0
C1657 C 0.8855 0.38974 0.74307 0.0
C1658 C 0.91462 0.39677 0.76231 0.0
C1659 C 0.91739 0.37842 0.76287 0.0
C1660 C 0.90389 0.3658 0.75331 0.0
C1661 C 0.88817 0.37135 0.74367 0.0
C1662 C 0.94903 0.35044 0.79163 0.0
C1663 C 0.96598 0.36226 0.7939 0.0
C1664 C 0.93334 0.35559 0.78164 0.0
C1665 C 0.93424 0.37263 0.77335 0.0
C1666 C 0.95144 0.38424 0.77539 0.0
C1667 C 0.96696 0.3792 0.78564 0.0
H1668 H 0.15686 0.4258 0.71157 0.0
H1669 H 0.20581 0.39922 0.70427 0.0
H1670 H 0.17697 0.45244 0.724 0.0
H1671 H 0.22607 0.42544 0.71763 0.0
H1672 H 0.25959 0.47972 0.73318 0.0
H1673 H 0.2395 0.45587 0.71578 0.0
H1674 H 0.19443 0.46108 0.75075 0.0
H1675 H 0.21407 0.48529 0.76737 0.0
C1676 C 0.17198 0.42572 0.71268 0.0
C1677 C 0.17982 0.4105 0.7071 0.0
C1678 C 0.18353 0.44091 0.71992 0.0
C1679 C 0.20321 0.44108 0.72213 0.0
C1680 C 0.21105 0.42596 0.71599 0.0
C1681 C 0.19947 0.41088 0.70842 0.0
C1682 C 0.24531 0.47586 0.73697 0.0
C1683 C 0.23843 0.48443 0.75163 0.0
C1684 C 0.23381 0.46209 0.72708 0.0
C1685 C 0.21526 0.45646 0.73179 0.0
C1686 C 0.20843 0.46523 0.74638 0.0
C1687 C 0.21979 0.4791 0.75605 0.0
H1688 H 0.16721 0.33448 0.3607 0.0
H1689 H 0.13391 0.37688 0.34543 0.0
H1690 H 0.14021 0.31186 0.35271 0.0
H1691 H 0.1069 0.35422 0.33739 0.0
H1692 H 0.06884 0.30699 0.3078 0.0
H1693 H 0.09588 0.32995 0.31512 0.0
H1694 H 0.10942 0.30136 0.36363 0.0
H1695 H 0.08273 0.27838 0.35623 0.0
C1696 C 0.15409 0.33898 0.35578 0.0
C1697 C 0.15271 0.35749 0.35375 0.0
C1698 C 0.13861 0.32602 0.35117 0.0
C1699 C 0.12139 0.33125 0.34443 0.0
C1700 C 0.12004 0.34974 0.3423 0.0
C1701 C 0.13552 0.36272 0.34692 0.0
C1702 C 0.07759 0.30564 0.32003 0.0
C1703 C 0.07365 0.29084 0.3314 0.0
C1704 C 0.09303 0.31882 0.32426 0.0
C1705 C 0.10485 0.31743 0.33992 0.0
C1706 C 0.10079 0.30269 0.35132 0.0
C1707 C 0.08538 0.28956 0.34712 0.0
H1708 H 0.23061 0.66745 0.31602 0.0
H1709 H 0.23082 0.64705 0.3702 0.0
H1710 H 0.24079 0.63956 0.30515 0.0
H1711 H 0.24127 0.61904 0.35942 0.0
H1712 H 0.24117 0.56423 0.32901 0.0
H1713 H 0.23164 0.59179 0.3413 0.0
H1714 H 0.2681 0.62365 0.30615 0.0
H1715 H 0.27743 0.596 0.29363 0.0
C1716 C 0.23264 0.65688 0.3256 0.0
C1717 C 0.22962 0.65938 0.34395 0.0
C1718 C 0.23873 0.64094 0.3194 0.0
C1719 C 0.24206 0.62698 0.33137 0.0
C1720 C 0.23872 0.62936 0.34972 0.0
C1721 C 0.23269 0.64539 0.35593 0.0
C1722 C 0.24737 0.57711 0.32402 0.0
C1723 C 0.26009 0.57778 0.31025 0.0
C1724 C 0.2419 0.59298 0.33114 0.0
C1725 C 0.2489 0.61006 0.32465 0.0
C1726 C 0.26211 0.61077 0.31129 0.0
C1727 C 0.26765 0.59488 0.30422 0.0
H1728 H 0.90774 0.72455 0.37244 0.0
H1729 H 0.92957 0.67744 0.35263 0.0
H1730 H 0.9302 0.744 0.35546 0.0
H1731 H 0.95253 0.69682 0.33605 0.0
H1732 H 0.97883 0.73672 0.29495 0.0
H1733 H 0.95538 0.71696 0.31061 0.0
H1734 H 0.96334 0.75387 0.35647 0.0
H1735 H 0.9862 0.77371 0.34074 0.0
C1736 C 0.91754 0.71844 0.36457 0.0
C1737 C 0.91721 0.69961 0.36403 0.0
C1738 C 0.93042 0.72951 0.3549 0.0
C1739 C 0.94328 0.72197 0.3445 0.0
C1740 C 0.94273 0.70306 0.34379 0.0
C1741 C 0.92975 0.69197 0.35341 0.0
C1742 C 0.9755 0.74059 0.30835 0.0
C1743 C 0.98431 0.7568 0.31657 0.0
C1744 C 0.96216 0.72924 0.31737 0.0
C1745 C 0.95742 0.73387 0.33477 0.0
C1746 C 0.96636 0.75004 0.34295 0.0
C1747 C 0.97958 0.76138 0.33395 0.0
H1748 H 0.85793 0.39685 0.38801 0.0
H1749 H 0.80251 0.36649 0.38829 0.0
H1750 H 0.84408 0.42279 0.37537 0.0
H1751 H 0.7887 0.39229 0.37526 0.0
H1752 H 0.77687 0.43672 0.33231 0.0
H1753 H 0.79058 0.4105 0.34464 0.0
H1754 H 0.82095 0.44451 0.38694 0.0
H1755 H 0.80699 0.47055 0.37484 0.0
C1756 C 0.8428 0.3957 0.38527 0.0
C1757 C 0.83131 0.37964 0.38918 0.0
C1758 C 0.83487 0.41056 0.37811 0.0
C1759 C 0.8153 0.40958 0.37429 0.0
C1760 C 0.80383 0.39343 0.37796 0.0
C1761 C 0.81172 0.37871 0.3855 0.0
C1762 C 0.78648 0.43855 0.34423 0.0
C1763 C 0.79078 0.45568 0.35264 0.0
C1764 C 0.79424 0.42355 0.35134 0.0
C1765 C 0.80686 0.42544 0.36676 0.0
C1766 C 0.81135 0.44263 0.37501 0.0
C1767 C 0.80326 0.45751 0.36816 0.0
H1768 H 0.22032 0.65335 0.71295 0.0
H1769 H 0.17068 0.65162 0.74303 0.0
H1770 H 0.23151 0.62985 0.73208 0.0
H1771 H 0.18151 0.62784 0.76197 0.0
H1772 H 0.21423 0.59558 0.80237 0.0
H1773 H 0.20459 0.62074 0.78484 0.0
H1774 H 0.22393 0.59795 0.73682 0.0
H1775 H 0.23422 0.57327 0.75444 0.0
C1776 C 0.21185 0.64794 0.72372 0.0
C1777 C 0.19453 0.65409 0.72636 0.0
C1778 C 0.21815 0.63438 0.7346 0.0
C1779 C 0.20732 0.62671 0.74847 0.0
C1780 C 0.19031 0.63344 0.75152 0.0
C1781 C 0.18403 0.64701 0.74063 0.0
C1782 C 0.21652 0.59598 0.78809 0.0
C1783 C 0.22495 0.58227 0.77988 0.0
C1784 C 0.21084 0.61036 0.77798 0.0
C1785 C 0.21348 0.61147 0.75937 0.0
C1786 C 0.22187 0.59772 0.75115 0.0
C1787 C 0.22753 0.58335 0.76125 0.0
H1788 H 0.2237 0.41431 0.34295 0.0
H1789 H 0.16462 0.41971 0.33378 0.0
H1790 H 0.23166 0.4396 0.3232 0.0
H1791 H 0.17255 0.44455 0.31324 0.0
H1792 H 0.1978 0.50212 0.29585 0.0
H1793 H 0.18714 0.4757 0.31353 0.0
H1794 H 0.22977 0.44725 0.29192 0.0
H1795 H 0.24057 0.4738 0.2746 0.0
C1796 C 0.2124 0.42091 0.33674 0.0
C1797 C 0.19353 0.41501 0.34002 0.0
C1798 C 0.21694 0.43525 0.32517 0.0
C1799 C 0.20273 0.44403 0.31649 0.0
C1800 C 0.18384 0.43816 0.31978 0.0
C1801 C 0.17929 0.42381 0.33141 0.0
C1802 C 0.20461 0.49008 0.29463 0.0
C1803 C 0.22012 0.49004 0.284 0.0
C1804 C 0.19853 0.47494 0.30477 0.0
C1805 C 0.20779 0.45944 0.30436 0.0
C1806 C 0.22264 0.45912 0.29292 0.0
C1807 C 0.22877 0.47427 0.28292 0.0
H1808 H 0.14479 0.69688 0.34918 0.0
H1809 H 0.18142 0.74744 0.34854 0.0
H1810 H 0.1185 0.71176 0.3365 0.0
H1811 H 0.15558 0.76223 0.33531 0.0
H1812 H 0.10204 0.78833 0.33629 0.0
H1813 H 0.12827 0.77232 0.34541 0.0
H1814 H 0.10382 0.72652 0.31197 0.0
H1815 H 0.07694 0.74222 0.30355 0.0
C1816 C 0.14732 0.71106 0.34582 0.0
C1817 C 0.1651 0.72103 0.3499 0.0
C1818 C 0.13226 0.71964 0.33858 0.0
C1819 C 0.13473 0.73835 0.33514 0.0
C1820 C 0.15291 0.74796 0.33823 0.0
C1821 C 0.16782 0.73945 0.34562 0.0
C1822 C 0.10205 0.7748 0.33094 0.0
C1823 C 0.08712 0.76668 0.31917 0.0
C1824 C 0.11735 0.76565 0.336 0.0
C1825 C 0.11838 0.74809 0.32935 0.0
C1826 C 0.10353 0.73995 0.3175 0.0
C1827 C 0.08813 0.7491 0.31249 0.0
H1828 H 0.87366 0.62374 0.36038 0.0
H1829 H 0.81542 0.63244 0.3518 0.0
H1830 H 0.86634 0.59412 0.34539 0.0
H1831 H 0.80804 0.60273 0.33715 0.0
H1832 H 0.83624 0.53394 0.34067 0.0
H1833 H 0.84797 0.56442 0.35182 0.0
H1834 H 0.81458 0.58668 0.30921 0.0
H1835 H 0.80272 0.55627 0.2981 0.0
C1836 C 0.85931 0.61934 0.35522 0.0
C1837 C 0.84509 0.63038 0.35726 0.0
C1838 C 0.85512 0.60236 0.34674 0.0
C1839 C 0.83666 0.59617 0.33999 0.0
C1840 C 0.82246 0.60726 0.34197 0.0
C1841 C 0.82662 0.62416 0.35056 0.0
C1842 C 0.83174 0.54532 0.33341 0.0
C1843 C 0.81833 0.54263 0.31865 0.0
C1844 C 0.83847 0.5628 0.33981 0.0
C1845 C 0.83189 0.5779 0.33159 0.0
C1846 C 0.81958 0.57526 0.31604 0.0
C1847 C 0.81292 0.55782 0.3096 0.0
H1848 H 0.89497 0.30206 0.39739 0.0
H1849 H 0.89425 0.32675 0.34509 0.0
H1850 H 0.92331 0.28878 0.39068 0.0
H1851 H 0.9222 0.31323 0.33808 0.0
H1852 H 0.98155 0.2985 0.33606 0.0
H1853 H 0.95526 0.31357 0.34472 0.0
H1854 H 0.93264 0.26545 0.37205 0.0
H1855 H 0.95903 0.25043 0.36349 0.0
C1856 C 0.90098 0.3047 0.38449 0.0
C1857 C 0.89239 0.31537 0.37175 0.0
C1858 C 0.91711 0.29698 0.38055 0.0
C1859 C 0.92507 0.29977 0.36375 0.0
C1860 C 0.91668 0.31089 0.35122 0.0
C1861 C 0.90058 0.3186 0.35518 0.0
C1862 C 0.97095 0.29106 0.34383 0.0
C1863 C 0.97247 0.27316 0.34897 0.0
C1864 C 0.95581 0.29974 0.34882 0.0
C1865 C 0.94169 0.29077 0.35908 0.0
C1866 C 0.94334 0.27294 0.36441 0.0
C1867 C 0.95852 0.26427 0.35945 0.0
H1868 H 0.8266 0.46175 0.72052 0.0
H1869 H 0.80927 0.44674 0.77353 0.0
H1870 H 0.81803 0.49209 0.72524 0.0
H1871 H 0.80069 0.477 0.77831 0.0
H1872 H 0.77405 0.52872 0.7773 0.0
H1873 H 0.77825 0.49797 0.76803 0.0
H1874 H 0.83004 0.51874 0.74442 0.0
H1875 H 0.82581 0.5493 0.75361 0.0
C1876 C 0.82114 0.465 0.73325 0.0
C1877 C 0.8192 0.45205 0.7469 0.0
C1878 C 0.81614 0.48235 0.73593 0.0
C1879 C 0.80871 0.48703 0.75218 0.0
C1880 C 0.80621 0.47384 0.76557 0.0
C1881 C 0.81134 0.45657 0.76294 0.0
C1882 C 0.78602 0.52676 0.76967 0.0
C1883 C 0.79959 0.54146 0.76617 0.0
C1884 C 0.78857 0.50911 0.76456 0.0
C1885 C 0.8046 0.50584 0.75564 0.0
C1886 C 0.81749 0.52072 0.75116 0.0
C1887 C 0.81507 0.53827 0.75645 0.0
H1888 H 0.14719 0.36393 0.74223 0.0
H1889 H 0.10471 0.35666 0.69795 0.0
H1890 H 0.12369 0.35266 0.76309 0.0
H1891 H 0.08102 0.3454 0.71898 0.0
H1892 H 0.047 0.31501 0.76451 0.0
H1893 H 0.0707 0.32082 0.74192 0.0
H1894 H 0.09714 0.36742 0.77314 0.0
H1895 H 0.07403 0.36174 0.79535 0.0
C1896 C 0.13281 0.35987 0.73697 0.0
C1897 C 0.1277 0.36151 0.71854 0.0
C1898 C 0.11938 0.35336 0.74888 0.0
C1899 C 0.10047 0.3484 0.74269 0.0
C1900 C 0.0955 0.34905 0.7241 0.0
C1901 C 0.10903 0.35555 0.71211 0.0
C1902 C 0.05793 0.32644 0.76648 0.0
C1903 C 0.05865 0.33786 0.78175 0.0
C1904 C 0.07142 0.32978 0.75357 0.0
C1905 C 0.0859 0.34443 0.75592 0.0
C1906 C 0.08642 0.35581 0.77112 0.0
C1907 C 0.07301 0.35259 0.78382 0.0
H1908 H 0.92732 0.73555 0.703 0.0
H1909 H 0.90218 0.78488 0.69701 0.0
H1910 H 0.9574 0.75305 0.71285 0.0
H1911 H 0.93243 0.80249 0.70672 0.0
H1912 H 1.01238 0.78804 0.71977 0.0
H1913 H 0.98339 0.77551 0.70268 0.0
H1914 H 0.95137 0.80583 0.7364 0.0
H1915 H 0.98031 0.81845 0.75347 0.0
C1916 C 0.9283 0.75016 0.70364 0.0
C1917 C 0.9124 0.75884 0.69937 0.0
C1918 C 0.94557 0.7602 0.70908 0.0
C1919 C 0.94729 0.77916 0.71051 0.0
C1920 C 0.9315 0.7879 0.70579 0.0
C1921 C 0.91424 0.77784 0.70015 0.0
C1922 C 0.99923 0.79243 0.72326 0.0
C1923 C 0.99864 0.80405 0.73818 0.0
C1924 C 0.98261 0.78514 0.71353 0.0
C1925 C 0.96509 0.78945 0.7184 0.0
C1926 C 0.96466 0.80227 0.7323 0.0
C1927 C 0.98126 0.80947 0.74212 0.0
H1928 H 0.7024 0.19675 0.66592 0.0
H1929 H 0.69751 0.24925 0.68884 0.0
H1930 H 0.71534 0.21126 0.63917 0.0
H1931 H 0.70992 0.26357 0.66198 0.0
H1932 H 0.70797 0.28052 0.60328 0.0
H1933 H 0.69779 0.26477 0.63002 0.0
H1934 H 0.74345 0.23256 0.62816 0.0
H1935 H 0.75393 0.24861 0.60094 0.0
C1936 C 0.70422 0.21137 0.6654 0.0
C1937 C 0.69865 0.22175 0.67962 0.0
C1938 C 0.71165 0.21967 0.65001 0.0
C1939 C 0.71355 0.23857 0.64834 0.0
C1940 C 0.70836 0.24895 0.66267 0.0
C1941 C 0.7011 0.2407 0.67808 0.0
C1942 C 0.71595 0.27008 0.60842 0.0
C1943 C 0.73189 0.26594 0.59988 0.0
C1944 C 0.71011 0.2611 0.62392 0.0
C1945 C 0.7199 0.24754 0.63142 0.0
C1946 C 0.73559 0.24295 0.6227 0.0
C1947 C 0.74161 0.25216 0.60714 0.0
H1948 H 0.33714 0.23522 0.64429 0.0
H1949 H 0.33947 0.29168 0.65864 0.0
H1950 H 0.32245 0.24088 0.61462 0.0
H1951 H 0.32471 0.2974 0.62894 0.0
H1952 H 0.27546 0.29204 0.58378 0.0
H1953 H 0.29323 0.28913 0.61253 0.0
H1954 H 0.32997 0.25724 0.58615 0.0
H1955 H 0.31221 0.26006 0.55741 0.0
C1956 C 0.33476 0.24889 0.64096 0.0
C1957 C 0.33984 0.2631 0.65358 0.0
C1958 C 0.32639 0.25215 0.62398 0.0
C1959 C 0.32258 0.26963 0.61938 0.0
C1960 C 0.32746 0.2838 0.6321 0.0
C1961 C 0.33599 0.28056 0.64903 0.0
C1962 C 0.28749 0.28462 0.58405 0.0
C1963 C 0.29233 0.2762 0.5683 0.0
C1964 C 0.2977 0.283 0.60052 0.0
C1965 C 0.31289 0.27281 0.60162 0.0
C1966 C 0.31816 0.26496 0.58576 0.0
C1967 C 0.30806 0.2667 0.56927 0.0
H1968 H 0.33231 0.86281 0.69234 0.0
H1969 H 0.33321 0.91545 0.66847 0.0
H1970 H 0.31532 0.84897 0.66512 0.0
H1971 H 0.31661 0.90168 0.64111 0.0
H1972 H 0.26896 0.87428 0.60295 0.0
H1973 H 0.28665 0.88773 0.62977 0.0
H1974 H 0.31713 0.84153 0.63424 0.0
H1975 H 0.29877 0.82762 0.60804 0.0
C1976 C 0.32913 0.87141 0.68117 0.0
C1977 C 0.33405 0.89026 0.68266 0.0
C1978 C 0.31938 0.86347 0.6655 0.0
C1979 C 0.3144 0.87417 0.65082 0.0
C1980 C 0.31976 0.89299 0.65221 0.0
C1981 C 0.32938 0.90091 0.66791 0.0
C1982 C 0.27928 0.86685 0.60967 0.0
C1983 C 0.28224 0.84974 0.60312 0.0
C1984 C 0.28967 0.87472 0.62503 0.0
C1985 C 0.30344 0.8658 0.63429 0.0
C1986 C 0.30651 0.84877 0.62768 0.0
C1987 C 0.29607 0.84085 0.61238 0.0
H1988 H 0.69008 0.83485 0.63233 0.0
H1989 H 0.63492 0.82087 0.60549 0.0
H1990 H 0.70324 0.81551 0.61108 0.0
H1991 H 0.64807 0.802 0.58379 0.0
H1992 H 0.67512 0.75757 0.55665 0.0
H1993 H 0.66182 0.77449 0.57995 0.0
H1994 H 0.71014 0.81567 0.58007 0.0
H1995 H 0.72339 0.79873 0.55713 0.0
C1996 C 0.68078 0.82751 0.62192 0.0
C1997 C 0.66147 0.8291 0.6207 0.0
C1998 C 0.6883 0.81657 0.60965 0.0
C1999 C 0.67671 0.80719 0.59569 0.0
C2000 C 0.65735 0.80876 0.59454 0.0
C2001 C 0.64982 0.81964 0.60689 0.0
C2002 C 0.68286 0.77022 0.56171 0.0
C2003 C 0.70037 0.77671 0.55513 0.0
C2004 C 0.67524 0.77995 0.57502 0.0
C2005 C 0.68494 0.79643 0.58196 0.0
C2006 C 0.70246 0.80285 0.57536 0.0
C2007 C 0.71009 0.79311 0.56217 0.0
H2008 H 0.75169 0.85955 0.39785 0.0
H2009 H 0.69298 0.84896 0.40889 0.0
H2010 H 0.76022 0.84416 0.42562 0.0
H2011 H 0.70144 0.83365 0.43664 0.0
H2012 H 0.72434 0.82228 0.49327 0.0
H2013 H 0.71835 0.84049 0.46692 0.0
H2014 H 0.75585 0.81251 0.43707 0.0
H2015 H 0.76194 0.79426 0.46347 0.0
C2016 C 0.74065 0.85414 0.40637 0.0
C2017 C 0.72173 0.85586 0.4015 0.0
C2018 C 0.74551 0.84524 0.42217 0.0
C2019 C 0.73152 0.83784 0.4334 0.0
C2020 C 0.71258 0.83953 0.42847 0.0
C2021 C 0.70772 0.84828 0.41259 0.0
C2022 C 0.73151 0.82013 0.48118 0.0
C2023 C 0.74355 0.80673 0.48046 0.0
C2024 C 0.72796 0.8305 0.46604 0.0
C2025 C 0.73649 0.82783 0.44988 0.0
C2026 C 0.74914 0.81496 0.44937 0.0
C2027 C 0.75259 0.80447 0.46448 0.0
H2028 H 0.68135 0.25329 0.4047 0.0
H2029 H 0.69577 0.20319 0.42705 0.0
H2030 H 0.6908 0.2686 0.43357 0.0
H2031 H 0.7056 0.21869 0.45586 0.0
H2032 H 0.73981 0.25804 0.49819 0.0
H2033 H 0.73006 0.24197 0.46983 0.0
H2034 H 0.68063 0.26935 0.46465 0.0
H2035 H 0.69014 0.28527 0.4932 0.0
C2036 C 0.6864 0.24545 0.41577 0.0
C2037 C 0.68764 0.22689 0.41343 0.0
C2038 C 0.69186 0.25429 0.43237 0.0
C2039 C 0.69888 0.24489 0.44713 0.0
C2040 C 0.70042 0.22641 0.44476 0.0
C2041 C 0.69483 0.21752 0.42817 0.0
C2042 C 0.72671 0.26053 0.49125 0.0
C2043 C 0.71582 0.27309 0.49822 0.0
C2044 C 0.72113 0.25127 0.47487 0.0
C2045 C 0.70458 0.25438 0.46486 0.0
C2046 C 0.69361 0.26681 0.47184 0.0
C2047 C 0.69911 0.27597 0.48829 0.0
H2048 H 0.31732 0.15456 0.45511 0.0
H2049 H 0.3262 0.20208 0.42231 0.0
H2050 H 0.29848 0.17021 0.4747 0.0
H2051 H 0.30711 0.21774 0.44177 0.0
H2052 H 0.28834 0.24533 0.49189 0.0
H2053 H 0.30725 0.23029 0.47191 0.0
H2054 H 0.26825 0.18118 0.47412 0.0
H2055 H 0.24943 0.19625 0.4943 0.0
C2056 C 0.31514 0.16834 0.45206 0.0
C2057 C 0.32317 0.17709 0.43716 0.0
C2058 C 0.30429 0.17729 0.46322 0.0
C2059 C 0.30115 0.19517 0.45972 0.0
C2060 C 0.30942 0.20403 0.44496 0.0
C2061 C 0.32036 0.19508 0.43382 0.0
C2062 C 0.28365 0.2314 0.48792 0.0
C2063 C 0.26736 0.22197 0.49466 0.0
C2064 C 0.29451 0.22277 0.47647 0.0
C2065 C 0.28931 0.20452 0.47146 0.0
C2066 C 0.27285 0.19516 0.47798 0.0
C2067 C 0.26203 0.20378 0.4895 0.0
H2068 H 0.33558 0.86811 0.44245 0.0
H2069 H 0.3135 0.81834 0.41445 0.0
H2070 H 0.32677 0.85463 0.47115 0.0
H2071 H 0.30353 0.80507 0.4427 0.0
H2072 H 0.30112 0.77835 0.49631 0.0
H2073 H 0.31303 0.79264 0.46921 0.0
H2074 H 0.30368 0.84476 0.49022 0.0
H2075 H 0.29294 0.83049 0.51771 0.0
C2076 C 0.32846 0.85438 0.44245 0.0
C2077 C 0.32517 0.84428 0.42627 0.0
C2078 C 0.32334 0.84659 0.45891 0.0
C2079 C 0.31451 0.82855 0.45954 0.0
C2080 C 0.31076 0.81874 0.44309 0.0
C2081 C 0.31622 0.82642 0.42676 0.0
C2082 C 0.302 0.79291 0.49527 0.0
C2083 C 0.29617 0.80324 0.50927 0.0
C2084 C 0.30857 0.80116 0.47955 0.0
C2085 C 0.30908 0.81997 0.47711 0.0
C2086 C 0.30379 0.83033 0.49146 0.0
C2087 C 0.29759 0.82211 0.50734 0.0
H2088 H 0.6359 0.2232 0.705 0.0
H2089 H 0.66694 0.21983 0.75633 0.0
H2090 H 0.61108 0.23585 0.72018 0.0
H2091 H 0.64219 0.2326 0.7715 0.0
H2092 H 0.60235 0.27404 0.78816 0.0
H2093 H 0.62775 0.26235 0.77286 0.0
H2094 H 0.58666 0.2246 0.74241 0.0
H2095 H 0.56141 0.23618 0.75774 0.0
C2096 C 0.63748 0.22527 0.71951 0.0
C2097 C 0.6534 0.22047 0.72944 0.0
C2098 C 0.62321 0.23241 0.72823 0.0
C2099 C 0.62464 0.23524 0.74707 0.0
C2100 C 0.6407 0.23071 0.75697 0.0
C2101 C 0.65481 0.22327 0.74829 0.0
C2102 C 0.59878 0.26328 0.77817 0.0
C2103 C 0.57985 0.256 0.77425 0.0
C2104 C 0.61332 0.25651 0.76948 0.0
C2105 C 0.60925 0.24253 0.75639 0.0
C2106 C 0.59029 0.23543 0.75233 0.0
C2107 C 0.57582 0.24197 0.76124 0.0
H2108 H 0.3397 0.21388 0.72172 0.0
H2109 H 0.3954 0.19757 0.7271 0.0
H2110 H 0.32808 0.18894 0.74078 0.0
H2111 H 0.3838 0.17281 0.74638 0.0
H2112 H 0.35972 0.14279 0.79572 0.0
H2113 H 0.37156 0.16773 0.7767 0.0
H2114 H 0.32244 0.15562 0.73981 0.0
H2115 H 0.31073 0.13065 0.75854 0.0
C2116 C 0.34944 0.20489 0.72681 0.0
C2117 C 0.3685 0.20778 0.72284 0.0
C2118 C 0.34278 0.19062 0.73779 0.0
C2119 C 0.35503 0.17891 0.74514 0.0
C2120 C 0.37407 0.18176 0.74117 0.0
C2121 C 0.38071 0.19597 0.73011 0.0
C2122 C 0.3515 0.14534 0.7835 0.0
C2123 C 0.33419 0.13467 0.7788 0.0
C2124 C 0.35829 0.15965 0.77259 0.0
C2125 C 0.34791 0.1637 0.75677 0.0
C2126 C 0.33064 0.15306 0.75206 0.0
C2127 C 0.3239 0.13872 0.76289 0.0
H2128 H 0.37384 0.86429 0.72854 0.0
H2129 H 0.39732 0.91875 0.74473 0.0
H2130 H 0.40099 0.85287 0.74346 0.0
H2131 H 0.42362 0.90723 0.76079 0.0
H2132 H 0.47845 0.88455 0.77335 0.0
H2133 H 0.45153 0.89546 0.75747 0.0
H2134 H 0.41625 0.84659 0.771 0.0
H2135 H 0.44352 0.83549 0.78634 0.0
C2136 C 0.38472 0.87389 0.73528 0.0
C2137 C 0.38318 0.89254 0.73528 0.0
C2138 C 0.40026 0.86726 0.74415 0.0
C2139 C 0.41472 0.87904 0.75346 0.0
C2140 C 0.41307 0.89766 0.75358 0.0
C2141 C 0.39767 0.90429 0.74457 0.0
C2142 C 0.46493 0.87618 0.77302 0.0
C2143 C 0.46319 0.85915 0.7812 0.0
C2144 C 0.44937 0.88247 0.76392 0.0
C2145 C 0.43146 0.87205 0.76292 0.0
C2146 C 0.42976 0.85497 0.77114 0.0
C2147 C 0.44541 0.84858 0.78004 0.0
H2148 H 0.69266 0.88303 0.6929 0.0
H2149 H 0.63848 0.90175 0.69643 0.0
H2150 H 0.70778 0.91012 0.70942 0.0
H2151 H 0.65355 0.92866 0.713 0.0
H2152 H 0.68269 0.95755 0.76386 0.0
H2153 H 0.66881 0.93287 0.74388 0.0
H2154 H 0.71461 0.94411 0.70891 0.0
H2155 H 0.7285 0.96924 0.72883 0.0
C2156 C 0.68403 0.89309 0.69686 0.0
C2157 C 0.66434 0.89013 0.69357 0.0
C2158 C 0.69269 0.90858 0.70636 0.0
C2159 C 0.68181 0.92136 0.71276 0.0
C2160 C 0.66226 0.91885 0.70859 0.0
C2161 C 0.65363 0.90344 0.69909 0.0
C2162 C 0.68975 0.95504 0.75182 0.0
C2163 C 0.7067 0.96559 0.74796 0.0
C2164 C 0.68176 0.94082 0.74034 0.0
C2165 C 0.69051 0.93665 0.72472 0.0
C2166 C 0.70758 0.94697 0.72091 0.0
C2167 C 0.71556 0.96133 0.73237 0.0
H2168 H 0.65858 0.83379 0.34909 0.0
H2169 H 0.62825 0.87945 0.3388 0.0
H2170 H 0.63019 0.81325 0.34019 0.0
H2171 H 0.59985 0.85883 0.3297 0.0
H2172 H 0.55851 0.81453 0.29788 0.0
H2173 H 0.58673 0.83603 0.30577 0.0
H2174 H 0.59933 0.80439 0.3524 0.0
H2175 H 0.57149 0.78297 0.34454 0.0
C2176 C 0.64583 0.83945 0.34504 0.0
C2177 C 0.64568 0.85826 0.34477 0.0
C2178 C 0.62957 0.82768 0.3399 0.0
C2179 C 0.61276 0.83443 0.33432 0.0
C2180 C 0.61264 0.85324 0.33375 0.0
C2181 C 0.62892 0.86503 0.33896 0.0
C2182 C 0.56729 0.81224 0.30984 0.0
C2183 C 0.56279 0.797 0.32053 0.0
C2184 C 0.5834 0.82456 0.31438 0.0
C2185 C 0.59534 0.82181 0.32962 0.0
C2186 C 0.59062 0.80672 0.34041 0.0
C2187 C 0.57456 0.7945 0.33594 0.0
H2188 H 0.69561 0.1683 0.3243 0.0
H2189 H 0.73439 0.16226 0.36993 0.0
H2190 H 0.70528 0.14194 0.30961 0.0
H2191 H 0.74389 0.13545 0.35551 0.0
H2192 H 0.77066 0.10078 0.31329 0.0
H2193 H 0.7611 0.12581 0.33077 0.0
H2194 H 0.70331 0.11021 0.31087 0.0
H2195 H 0.71288 0.0859 0.29325 0.0
C2196 C 0.70607 0.16115 0.33126 0.0
C2197 C 0.71435 0.16742 0.34817 0.0
C2198 C 0.7116 0.14596 0.32291 0.0
C2199 C 0.72545 0.13643 0.33132 0.0
C2200 C 0.73342 0.14252 0.34847 0.0
C2201 C 0.72787 0.15778 0.35682 0.0
C2202 C 0.75592 0.10264 0.31286 0.0
C2203 C 0.7426 0.09145 0.30169 0.0
C2204 C 0.75039 0.11697 0.32289 0.0
C2205 C 0.73142 0.12033 0.32203 0.0
C2206 C 0.7181 0.1085 0.31153 0.0
C2207 C 0.72361 0.0944 0.30147 0.0
H2208 H 0.39813 0.20975 0.41697 0.0
H2209 H 0.42284 0.16887 0.38878 0.0
H2210 H 0.42127 0.23322 0.40541 0.0
H2211 H 0.44624 0.19211 0.37754 0.0
H2212 H 0.47175 0.23878 0.34477 0.0
H2213 H 0.44814 0.21652 0.35653 0.0
H2214 H 0.45482 0.24474 0.40806 0.0
H2215 H 0.47806 0.26763 0.39597 0.0
C2216 C 0.40865 0.20584 0.40841 0.0
C2217 C 0.40888 0.18756 0.40389 0.0
C2218 C 0.42194 0.21922 0.40187 0.0
C2219 C 0.43565 0.21456 0.39056 0.0
C2220 C 0.43576 0.19621 0.38603 0.0
C2221 C 0.42246 0.18287 0.39255 0.0
C2222 C 0.46804 0.2405 0.35851 0.0
C2223 C 0.47681 0.25515 0.36937 0.0
C2224 C 0.45464 0.22752 0.36536 0.0
C2225 C 0.44964 0.22874 0.38328 0.0
C2226 C 0.45824 0.24346 0.39414 0.0
C2227 C 0.4717 0.25649 0.38727 0.0
H2228 H 0.32425 0.90525 0.39587 0.0
H2229 H 0.31956 0.87179 0.34767 0.0
H2230 H 0.31044 0.92885 0.37868 0.0
H2231 H 0.3058 0.89524 0.33061 0.0
H2232 H 0.25716 0.93044 0.31676 0.0
H2233 H 0.27496 0.90812 0.33119 0.0
H2234 H 0.3172 0.95097 0.35218 0.0
H2235 H 0.29936 0.97342 0.33727 0.0
C2236 C 0.32027 0.90293 0.38163 0.0
C2237 C 0.32302 0.8866 0.37317 0.0
C2238 C 0.31256 0.91652 0.37174 0.0
C2239 C 0.30709 0.91398 0.35323 0.0
C2240 C 0.30983 0.89765 0.34482 0.0
C2241 C 0.31778 0.88422 0.35461 0.0
C2242 C 0.27056 0.93506 0.32397 0.0
C2243 C 0.27705 0.95364 0.3256 0.0
C2244 C 0.28073 0.92228 0.33233 0.0
C2245 C 0.29747 0.92773 0.34295 0.0
C2246 C 0.3043 0.94634 0.34417 0.0
C2247 C 0.29426 0.95917 0.33543 0.0
H2248 H 0.72207 0.14539 0.71499 0.0
H2249 H 0.67274 0.1353 0.74551 0.0
H2250 H 0.73512 0.12012 0.72985 0.0
H2251 H 0.68537 0.1098 0.76005 0.0
H2252 H 0.71974 0.0744 0.79448 0.0
H2253 H 0.70888 0.10115 0.78104 0.0
H2254 H 0.73037 0.08761 0.73028 0.0
H2255 H 0.7417 0.06102 0.74392 0.0
C2256 C 0.71408 0.13778 0.72495 0.0
C2257 C 0.69635 0.1422 0.729 0.0
C2258 C 0.72144 0.12319 0.73336 0.0
C2259 C 0.71127 0.11272 0.74609 0.0
C2260 C 0.69374 0.11758 0.75049 0.0
C2261 C 0.68643 0.13216 0.7421 0.0
C2262 C 0.72218 0.0771 0.78044 0.0
C2263 C 0.73156 0.06545 0.77029 0.0
C2264 C 0.71585 0.09245 0.77269 0.0
C2265 C 0.71863 0.09662 0.75451 0.0
C2266 C 0.72815 0.08503 0.74438 0.0
C2267 C 0.73455 0.06967 0.75217 0.0
H2268 H 0.69357 0.93284 0.36057 0.0
H2269 H 0.68593 0.90248 0.31031 0.0
H2270 H 0.70207 0.96059 0.34418 0.0
H2271 H 0.69506 0.93008 0.29385 0.0
H2272 H 0.69747 0.98508 0.26776 0.0
H2273 H 0.68603 0.95826 0.28434 0.0
H2274 H 0.72702 0.97505 0.32844 0.0
H2275 H 0.73752 1.00224 0.31254 0.0
C2276 C 0.69388 0.93212 0.346 0.0
C2277 C 0.68917 0.91553 0.33671 0.0
C2278 C 0.69879 0.948 0.33659 0.0
C2279 C 0.69937 0.94762 0.31765 0.0
C2280 C 0.69449 0.93098 0.30837 0.0
C2281 C 0.68935 0.91513 0.31779 0.0
C2282 C 0.70386 0.98321 0.28109 0.0
C2283 C 0.71855 0.9959 0.28866 0.0
C2284 C 0.69745 0.96767 0.29053 0.0
C2285 C 0.70563 0.9644 0.30774 0.0
C2286 C 0.72017 0.97717 0.31535 0.0
C2287 C 0.72644 0.99273 0.30602 0.0
H2288 H 0.62884 0.19078 0.35285 0.0
H2289 H 0.64944 0.24721 0.36262 0.0
H2290 H 0.59961 0.19915 0.33845 0.0
H2291 H 0.6202 0.25555 0.34856 0.0
H2292 H 0.57072 0.26702 0.31203 0.0
H2293 H 0.60085 0.25625 0.32013 0.0
H2294 H 0.57202 0.21176 0.34859 0.0
H2295 H 0.54195 0.2224 0.3404 0.0
C2296 C 0.62724 0.20497 0.35173 0.0
C2297 C 0.64147 0.2183 0.35901 0.0
C2298 C 0.61042 0.20977 0.3436 0.0
C2299 C 0.60747 0.22804 0.34235 0.0
C2300 C 0.622 0.24137 0.34908 0.0
C2301 C 0.63871 0.23657 0.35734 0.0
C2302 C 0.57074 0.2547 0.31964 0.0
C2303 C 0.55385 0.24564 0.32561 0.0
C2304 C 0.58807 0.24862 0.32446 0.0
C2305 C 0.58895 0.23323 0.33521 0.0
C2306 C 0.57193 0.22358 0.34022 0.0
C2307 C 0.55465 0.22973 0.33555 0.0
H2308 H 0.33493 0.12577 0.37293 0.0
H2309 H 0.31816 0.11256 0.42664 0.0
H2310 H 0.31792 0.0971 0.36151 0.0
H2311 H 0.30097 0.08395 0.41516 0.0
H2312 H 0.25247 0.04812 0.38141 0.0
H2313 H 0.2722 0.07441 0.39537 0.0
H2314 H 0.31779 0.06417 0.36305 0.0
H2315 H 0.29821 0.03795 0.34926 0.0
C2316 C 0.32792 0.11661 0.38236 0.0
C2317 C 0.32781 0.12152 0.40067 0.0
C2318 C 0.31812 0.10018 0.37582 0.0
C2319 C 0.30797 0.08831 0.38742 0.0
C2320 C 0.30838 0.09295 0.40583 0.0
C2321 C 0.31824 0.10933 0.41239 0.0
C2322 C 0.26679 0.05132 0.37752 0.0
C2323 C 0.27364 0.0411 0.36403 0.0
C2324 C 0.2781 0.06638 0.3855 0.0
C2325 C 0.2965 0.07148 0.38015 0.0
C2326 C 0.30356 0.06082 0.36718 0.0
C2327 C 0.2923 0.0458 0.35926 0.0
H2328 H 0.37713 0.79747 0.381 0.0
H2329 H 0.3887 0.83872 0.3414 0.0
H2330 H 0.40491 0.78398 0.37317 0.0
H2331 H 0.41679 0.82558 0.33377 0.0
H2332 H 0.45113 0.7848 0.30955 0.0
H2333 H 0.42456 0.79917 0.31858 0.0
H2334 H 0.43885 0.78798 0.37442 0.0
H2335 H 0.46545 0.77349 0.36533 0.0
C2336 C 0.38575 0.80371 0.3707 0.0
C2337 C 0.38063 0.81893 0.36157 0.0
C2338 C 0.40174 0.79606 0.36628 0.0
C2339 C 0.41306 0.80356 0.35269 0.0
C2340 C 0.40822 0.8192 0.34402 0.0
C2341 C 0.39222 0.82682 0.34845 0.0
C2342 C 0.44877 0.78554 0.32377 0.0
C2343 C 0.46055 0.77799 0.33669 0.0
C2344 C 0.43349 0.79383 0.32898 0.0
C2345 C 0.42954 0.79486 0.34726 0.0
C2346 C 0.44129 0.78726 0.3602 0.0
C2347 C 0.45658 0.77893 0.35498 0.0
H2348 H 0.31253 0.95091 0.77118 0.0
H2349 H 0.32153 0.96502 0.71588 0.0
H2350 H 0.30305 0.98063 0.77679 0.0
H2351 H 0.31193 0.99483 0.72138 0.0
H2352 H 0.31809 0.05296 0.74719 0.0
H2353 H 0.32375 0.02277 0.73819 0.0
H2354 H 0.27818 0.99949 0.76948 0.0
H2355 H 0.27261 0.02979 0.77864 0.0
C2356 C 0.3126 0.96045 0.76025 0.0
C2357 C 0.31831 0.95582 0.74324 0.0
C2358 C 0.30694 0.97742 0.76339 0.0
C2359 C 0.30671 0.9902 0.74955 0.0
C2360 C 0.31215 0.98544 0.73242 0.0
C2361 C 0.31772 0.96839 0.72926 0.0
C2362 C 0.30899 0.04142 0.75185 0.0
C2363 C 0.29493 0.04385 0.76371 0.0
C2364 C 0.31223 0.02407 0.74665 0.0
C2365 C 0.3016 1.00863 0.75327 0.0
C2366 C 0.28686 0.01106 0.76436 0.0
C2367 C 0.2835 0.02847 0.76944 0.0
H2368 H 0.59596 0.85821 0.69073 0.0
H2369 H 0.62893 0.81587 0.70658 0.0
H2370 H 0.57207 0.84665 0.7114 0.0
H2371 H 0.60525 0.80453 0.72764 0.0
H2372 H 0.57863 0.82252 0.78217 0.0
H2373 H 0.59827 0.82428 0.7564 0.0
H2374 H 0.54843 0.81666 0.71999 0.0
H2375 H 0.52863 0.8143 0.74598 0.0
C2376 C 0.59777 0.84613 0.6983 0.0
C2377 C 0.61416 0.83787 0.69715 0.0
C2378 C 0.58413 0.83948 0.71003 0.0
C2379 C 0.58689 0.82473 0.72105 0.0
C2380 C 0.60282 0.81588 0.71919 0.0
C2381 C 0.61629 0.82231 0.70717 0.0
C2382 C 0.57188 0.82084 0.76867 0.0
C2383 C 0.55218 0.81836 0.76599 0.0
C2384 C 0.5831 0.82172 0.75396 0.0
C2385 C 0.57482 0.82055 0.73628 0.0
C2386 C 0.55509 0.8175 0.73354 0.0
C2387 C 0.54382 0.81613 0.74834 0.0
H2388 H 0.41004 0.2846 0.70806 0.0
H2389 H 0.43319 0.23416 0.71343 0.0
H2390 H 0.44077 0.30116 0.71806 0.0
H2391 H 0.46372 0.25058 0.72354 0.0
H2392 H 0.5197 0.28359 0.73098 0.0
H2393 H 0.49044 0.27231 0.71366 0.0
H2394 H 0.45969 0.3035 0.74779 0.0
H2395 H 0.4889 0.31488 0.76508 0.0
C2396 C 0.42176 0.27709 0.71115 0.0
C2397 C 0.41923 0.2581 0.71011 0.0
C2398 C 0.43929 0.28655 0.71694 0.0
C2399 C 0.45466 0.27718 0.72154 0.0
C2400 C 0.45224 0.25822 0.71986 0.0
C2401 C 0.4347 0.24879 0.71428 0.0
C2402 C 0.50679 0.28844 0.73451 0.0
C2403 C 0.5066 0.29993 0.7496 0.0
C2404 C 0.49001 0.28187 0.72465 0.0
C2405 C 0.47274 0.28679 0.72956 0.0
C2406 C 0.47277 0.29949 0.74365 0.0
C2407 C 0.48953 0.30597 0.7536 0.0
H2408 H 0.6864 0.7354 0.19534 0.0
H2409 H 0.69718 0.68754 0.16674 0.0
H2410 H 0.6956 0.75379 0.16963 0.0
H2411 H 0.70651 0.70603 0.14097 0.0
H2412 H 0.73874 0.74746 0.10465 0.0
H2413 H 0.73045 0.72901 0.13064 0.0
H2414 H 0.68466 0.75976 0.1391 0.0
H2415 H 0.69332 0.77857 0.11348 0.0
C2416 C 0.69061 0.72873 0.18352 0.0
C2417 C 0.69085 0.70987 0.18317 0.0
C2418 C 0.6959 0.73933 0.16872 0.0
C2419 C 0.70169 0.73145 0.15306 0.0
C2420 C 0.70232 0.71264 0.15282 0.0
C2421 C 0.69698 0.70201 0.16765 0.0
C2422 C 0.72701 0.75045 0.11213 0.0
C2423 C 0.71678 0.76466 0.10688 0.0
C2424 C 0.72211 0.73968 0.12696 0.0
C2425 C 0.70687 0.74282 0.13708 0.0
C2426 C 0.69663 0.75701 0.13182 0.0
C2427 C 0.70148 0.76773 0.11695 0.0
H2428 H 0.30646 0.72011 0.13641 0.0
H2429 H 0.34616 0.76808 0.13098 0.0
H2430 H 0.29015 0.72633 0.10765 0.0
H2431 H 0.33006 0.77428 0.10204 0.0
H2432 H 0.28187 0.7889 0.06213 0.0
H2433 H 0.29977 0.78327 0.09014 0.0
H2434 H 0.29554 0.72667 0.07545 0.0
H2435 H 0.27745 0.73218 0.04765 0.0
C2436 C 0.3116 0.73202 0.12902 0.0
C2437 C 0.3273 0.74379 0.13596 0.0
C2438 C 0.30241 0.73551 0.11252 0.0
C2439 C 0.30883 0.75081 0.10257 0.0
C2440 C 0.32465 0.76253 0.1095 0.0
C2441 C 0.33387 0.75898 0.126 0.0
C2442 C 0.2849 0.77529 0.0648 0.0
C2443 C 0.27813 0.76098 0.0527 0.0
C2444 C 0.29521 0.77208 0.08082 0.0
C2445 C 0.29892 0.75449 0.08508 0.0
C2446 C 0.29262 0.74031 0.07271 0.0
C2447 C 0.28236 0.74351 0.05671 0.0
H2448 H 0.33411 0.39301 0.17175 0.0
H2449 H 0.3344 0.34123 0.19731 0.0
H2450 H 0.31951 0.3779 0.14417 0.0
H2451 H 0.31979 0.3261 0.16968 0.0
H2452 H 0.30647 0.30351 0.11144 0.0
H2453 H 0.32416 0.31863 0.13802 0.0
H2454 H 0.28967 0.36193 0.1336 0.0
H2455 H 0.2725 0.34722 0.10727 0.0
C2456 C 0.33092 0.37841 0.17157 0.0
C2457 C 0.33538 0.36842 0.18688 0.0
C2458 C 0.32258 0.3697 0.1557 0.0
C2459 C 0.3184 0.35071 0.15462 0.0
C2460 C 0.32305 0.34069 0.16986 0.0
C2461 C 0.33139 0.34941 0.18576 0.0
C2462 C 0.30286 0.31634 0.11608 0.0
C2463 C 0.28804 0.32409 0.10717 0.0
C2464 C 0.31288 0.32496 0.13139 0.0
C2465 C 0.3084 0.34157 0.13801 0.0
C2466 C 0.29379 0.34935 0.12883 0.0
C2467 C 0.2838 0.34077 0.11371 0.0
H2468 H 0.6617 0.35513 0.12682 0.0
H2469 H 0.67438 0.31555 0.1663 0.0
H2470 H 0.66953 0.33542 0.10271 0.0
H2471 H 0.68231 0.29583 0.1422 0.0
H2472 H 0.71782 0.2792 0.09556 0.0
H2473 H 0.70766 0.2965 0.12038 0.0
H2474 H 0.65787 0.30555 0.08771 0.0
H2475 H 0.6682 0.28843 0.06279 0.0
C2476 C 0.6663 0.34226 0.13032 0.0
C2477 C 0.668 0.33712 0.14845 0.0
C2478 C 0.6706 0.3309 0.11653 0.0
C2479 C 0.67663 0.31411 0.12058 0.0
C2480 C 0.67796 0.3088 0.1387 0.0
C2481 C 0.67348 0.3201 0.15249 0.0
C2482 C 0.70466 0.28481 0.09374 0.0
C2483 C 0.69387 0.28254 0.0772 0.0
C2484 C 0.69877 0.29459 0.10798 0.0
C2485 C 0.68203 0.30247 0.10595 0.0
C2486 C 0.67095 0.29979 0.08959 0.0
C2487 C 0.67675 0.28983 0.07539 0.0
H2488 H 0.76854 0.37217 0.91737 0.0
H2489 H 0.70842 0.35842 0.91941 0.0
H2490 H 0.77356 0.35385 0.944 0.0
H2491 H 0.71327 0.3407 0.94638 0.0
H2492 H 0.72845 0.29452 0.98108 0.0
H2493 H 0.72433 0.31308 0.95481 0.0
H2494 H 0.77 0.35259 0.97613 0.0
H2495 H 0.77453 0.33362 1.00233 0.0
C2496 C 0.75641 0.36539 0.92369 0.0
C2497 C 0.73809 0.36689 0.91656 0.0
C2498 C 0.75926 0.35499 0.93898 0.0
C2499 C 0.74382 0.34584 0.94738 0.0
C2500 C 0.72549 0.34737 0.94015 0.0
C2501 C 0.72268 0.35764 0.92481 0.0
C2502 C 0.73763 0.30717 0.98022 0.0
C2503 C 0.75179 0.31262 0.99385 0.0
C2504 C 0.73518 0.31789 0.96517 0.0
C2505 C 0.74673 0.33441 0.96339 0.0
C2506 C 0.76098 0.33985 0.97698 0.0
C2507 C 0.7635 0.32904 0.99205 0.0
H2508 H 0.70199 0.76842 0.92481 0.0
H2509 H 0.69916 0.71088 0.93278 0.0
H2510 H 0.71864 0.77396 0.95454 0.0
H2511 H 0.71619 0.71641 0.96216 0.0
H2512 H 0.72255 0.73457 0.02253 0.0
H2513 H 0.70993 0.72751 0.9917 0.0
H2514 H 0.74849 0.77134 0.9723 0.0
H2515 H 0.76108 0.77852 1.00333 0.0
C2516 C 0.70494 0.75695 0.93285 0.0
C2517 C 0.69915 0.7392 0.92633 0.0
C2518 C 0.71472 0.76013 0.94983 0.0
C2519 C 0.71882 0.74564 0.96081 0.0
C2520 C 0.71318 0.72791 0.95419 0.0
C2521 C 0.70353 0.72474 0.93722 0.0
C2522 C 0.72866 0.74247 1.01167 0.0
C2523 C 0.74287 0.75709 0.01547 0.0
C2524 C 0.7214 0.73841 0.99393 0.0
C2525 C 0.72803 0.74895 0.97944 0.0
C2526 C 0.74286 0.76309 0.98313 0.0
C2527 C 0.75027 0.76705 1.00092 0.0
H2528 H 0.28598 0.67746 0.87027 0.0
H2529 H 0.33591 0.68502 0.90658 0.0
H2530 H 0.26711 0.68529 0.89474 0.0
H2531 H 0.3171 0.69245 0.93112 0.0
H2532 H 0.28338 0.7267 0.96387 0.0
H2533 H 0.30119 0.71682 0.93988 0.0
H2534 H 0.25459 0.67624 0.92314 0.0
H2535 H 0.23626 0.68682 0.94672 0.0
C2536 C 0.29286 0.68053 0.88356 0.0
C2537 C 0.31245 0.68081 0.88647 0.0
C2538 C 0.28205 0.68497 0.89761 0.0
C2539 C 0.29058 0.68968 0.9149 0.0
C2540 C 0.3101 0.68933 0.91789 0.0
C2541 C 0.32089 0.68502 0.90385 0.0
C2542 C 0.27675 0.71581 0.95501 0.0
C2543 C 0.25824 0.70768 0.95725 0.0
C2544 C 0.28714 0.70994 0.94135 0.0
C2545 C 0.27941 0.69565 0.92958 0.0
C2546 C 0.26094 0.68739 0.93185 0.0
C2547 C 0.25049 0.69334 0.94552 0.0
H2548 H 0.35024 0.36103 0.94558 0.0
H2549 H 0.29679 0.35426 0.91458 0.0
H2550 H 0.33425 0.35197 0.9728 0.0
H2551 H 0.2808 0.34472 0.94155 0.0
H2552 H 0.25484 0.34625 0.99564 0.0
H2553 H 0.27141 0.35556 0.969 0.0
H2554 H 0.31803 0.32808 0.9883 0.0
H2555 H 0.30207 0.31973 0.01533 0.0
C2556 C 0.3351 0.3573 0.94453 0.0
C2557 C 0.32481 0.35846 0.92792 0.0
C2558 C 0.32587 0.35209 0.96015 0.0
C2559 C 0.3061 0.34771 0.95955 0.0
C2560 C 0.29593 0.3484 0.94276 0.0
C2561 C 0.30513 0.35376 0.92722 0.0
C2562 C 0.2687 0.34233 0.99438 0.0
C2563 C 0.2769 0.33207 1.00783 0.0
C2564 C 0.27817 0.3475 0.97889 0.0
C2565 C 0.29611 0.3425 0.97628 0.0
C2566 C 0.30437 0.33239 0.98979 0.0
C2567 C 0.29498 0.32735 1.00532 0.0
H2568 H 0.65504 0.72608 0.2327 0.0
H2569 H 0.63231 0.66969 0.23463 0.0
H2570 H 0.62842 0.73424 0.2483 0.0
H2571 H 0.60544 0.67783 0.25004 0.0
H2572 H 0.56861 0.69778 0.29248 0.0
H2573 H 0.59576 0.68922 0.2778 0.0
H2574 H 0.59561 0.73581 0.24359 0.0
H2575 H 0.56877 0.7444 0.25839 0.0
C2576 C 0.64425 0.71542 0.23631 0.0
C2577 C 0.6458 0.69723 0.23232 0.0
C2578 C 0.62893 0.7201 0.24525 0.0
C2579 C 0.61463 0.70672 0.2504 0.0
C2580 C 0.61627 0.6885 0.24654 0.0
C2581 C 0.63167 0.68381 0.23765 0.0
C2582 C 0.57435 0.70614 0.28179 0.0
C2583 C 0.56655 0.72186 0.27674 0.0
C2584 C 0.58992 0.70122 0.27331 0.0
C2585 C 0.59802 0.71185 0.25951 0.0
C2586 C 0.59008 0.72748 0.25441 0.0
C2587 C 0.57462 0.73243 0.26292 0.0
H2588 H 0.35164 0.68126 0.21879 0.0
H2589 H 0.33723 0.66352 0.16353 0.0
H2590 H 0.33511 0.65307 0.22934 0.0
H2591 H 0.3208 0.63522 0.17406 0.0
H2592 H 0.27639 0.59532 0.20016 0.0
H2593 H 0.293 0.62329 0.18908 0.0
H2594 H 0.33757 0.62123 0.23071 0.0
H2595 H 0.3209 0.59342 0.24182 0.0
C2596 C 0.34511 0.67125 0.20889 0.0
C2597 C 0.34579 0.67463 0.19032 0.0
C2598 C 0.33563 0.65507 0.21493 0.0
C2599 C 0.32664 0.64183 0.20256 0.0
C2600 C 0.32732 0.64522 0.18398 0.0
C2601 C 0.33677 0.66143 0.17793 0.0
C2602 C 0.2898 0.60076 0.20684 0.0
C2603 C 0.29725 0.59217 0.22194 0.0
C2604 C 0.29935 0.6168 0.20049 0.0
C2605 C 0.3166 0.62458 0.20905 0.0
C2606 C 0.32414 0.61583 0.22401 0.0
C2607 C 0.31458 0.59986 0.23038 0.0
H2608 H 0.41777 0.38013 0.26776 0.0
H2609 H 0.40904 0.33991 0.22499 0.0
H2610 H 0.43795 0.36159 0.28499 0.0
H2611 H 0.42899 0.32099 0.24236 0.0
H2612 H 0.48415 0.30367 0.27107 0.0
H2613 H 0.46172 0.31945 0.25288 0.0
H2614 H 0.43714 0.33441 0.30157 0.0
H2615 H 0.4596 0.3192 0.31951 0.0
C2616 C 0.42007 0.36721 0.26214 0.0
C2617 C 0.41202 0.36156 0.24498 0.0
C2618 C 0.43156 0.35649 0.27203 0.0
C2619 C 0.43518 0.33971 0.26511 0.0
C2620 C 0.42677 0.3339 0.24803 0.0
C2621 C 0.41524 0.34467 0.23813 0.0
C2622 C 0.47375 0.31012 0.2778 0.0
C2623 C 0.47382 0.31032 0.29675 0.0
C2624 C 0.46088 0.31917 0.2674 0.0
C2625 C 0.44777 0.32854 0.27575 0.0
C2626 C 0.44731 0.32784 0.29464 0.0
C2627 C 0.46015 0.31895 0.30495 0.0
H2628 H 0.72347 0.38929 0.21166 0.0
H2629 H 0.67724 0.42 0.21796 0.0
H2630 H 0.74584 0.41579 0.22149 0.0
H2631 H 0.69944 0.4464 0.22773 0.0
H2632 H 0.74307 0.49424 0.23681 0.0
H2633 H 0.72609 0.46927 0.21847 0.0
H2634 H 0.75155 0.43111 0.25235 0.0
H2635 H 0.76851 0.45599 0.2707 0.0
C2636 C 0.71816 0.40183 0.21475 0.0
C2637 C 0.69868 0.40264 0.21419 0.0
C2638 C 0.73091 0.41693 0.22045 0.0
C2639 C 0.72437 0.43313 0.22539 0.0
C2640 C 0.70492 0.43417 0.22382 0.0
C2641 C 0.6922 0.41905 0.21837 0.0
C2642 C 0.7454 0.48055 0.24009 0.0
C2643 C 0.75693 0.47707 0.25536 0.0
C2644 C 0.73561 0.46627 0.22963 0.0
C2645 C 0.73736 0.44826 0.2341 0.0
C2646 C 0.75 0.44485 0.24852 0.0
C2647 C 0.75964 0.45911 0.25909 0.0
H2648 H 0.68336 0.36255 0.8522 0.0
H2649 H 0.65408 0.40941 0.85527 0.0
H2650 H 0.6547 0.34477 0.83932 0.0
H2651 H 0.62516 0.39148 0.84227 0.0
H2652 H 0.58049 0.35312 0.80565 0.0
H2653 H 0.60955 0.37321 0.81474 0.0
H2654 H 0.62505 0.33372 0.85321 0.0
H2655 H 0.59645 0.31384 0.84422 0.0
C2656 C 0.67079 0.36908 0.85003 0.0
C2657 C 0.67089 0.3873 0.85505 0.0
C2658 C 0.65437 0.35889 0.84265 0.0
C2659 C 0.63758 0.36664 0.84008 0.0
C2660 C 0.63789 0.38515 0.84408 0.0
C2661 C 0.65443 0.39541 0.85151 0.0
C2662 C 0.59014 0.34878 0.81604 0.0
C2663 C 0.58617 0.33184 0.82415 0.0
C2664 C 0.60671 0.3603 0.82128 0.0
C2665 C 0.61968 0.35496 0.83454 0.0
C2666 C 0.61554 0.33811 0.84271 0.0
C2667 C 0.59903 0.32674 0.83762 0.0
H2668 H 0.72983 0.69631 0.86879 0.0
H2669 H 0.68262 0.67919 0.83102 0.0
H2670 H 0.74513 0.67067 0.85963 0.0
H2671 H 0.69763 0.65305 0.82204 0.0
H2672 H 0.74292 0.62199 0.79644 0.0
H2673 H 0.72382 0.64509 0.80575 0.0
H2674 H 0.74353 0.63895 0.86133 0.0
H2675 H 0.76286 0.61662 0.85197 0.0
C2676 C 0.72266 0.68689 0.85864 0.0
C2677 C 0.70519 0.68983 0.85046 0.0
C2678 C 0.73134 0.6721 0.85343 0.0
C2679 C 0.72265 0.65968 0.84004 0.0
C2680 C 0.70488 0.66242 0.83218 0.0
C2681 C 0.69621 0.6773 0.8374 0.0
C2682 C 0.74287 0.62543 0.81064 0.0
C2683 C 0.75456 0.61767 0.82344 0.0
C2684 C 0.73194 0.63866 0.81602 0.0
C2685 C 0.7324 0.64422 0.8343 0.0
C2686 C 0.74322 0.6355 0.8471 0.0
C2687 C 0.75422 0.62255 0.84173 0.0
H2688 H 0.39825 0.69811 0.82554 0.0
H2689 H 0.40542 0.7215 0.87926 0.0
H2690 H 0.42098 0.72251 0.81501 0.0
H2691 H 0.42852 0.74559 0.86903 0.0
H2692 H 0.45185 0.79653 0.84125 0.0
H2693 H 0.42916 0.7718 0.85044 0.0
H2694 H 0.45415 0.73461 0.81736 0.0
H2695 H 0.47667 0.75958 0.80774 0.0
C2696 C 0.40493 0.70839 0.8351 0.0
C2697 C 0.4003 0.70791 0.8532 0.0
C2698 C 0.41797 0.7223 0.82913 0.0
C2699 C 0.42655 0.73603 0.84117 0.0
C2700 C 0.42197 0.73539 0.85934 0.0
C2701 C 0.40889 0.72153 0.86526 0.0
C2702 C 0.45249 0.7831 0.83585 0.0
C2703 C 0.46612 0.78 0.82382 0.0
C2704 C 0.43955 0.76888 0.84124 0.0
C2705 C 0.43997 0.75118 0.83481 0.0
C2706 C 0.45336 0.74811 0.82247 0.0
C2707 C 0.4663 0.7624 0.81699 0.0
H2708 H 0.35204 0.41812 0.87286 0.0
H2709 H 0.29764 0.3862 0.87549 0.0
H2710 H 0.33689 0.44261 0.85889 0.0
H2711 H 0.28255 0.41042 0.8614 0.0
H2712 H 0.25979 0.46433 0.85822 0.0
H2713 H 0.27586 0.43978 0.86987 0.0
H2714 H 0.31929 0.45262 0.83256 0.0
H2715 H 0.30352 0.47783 0.82133 0.0
C2716 C 0.33689 0.41621 0.87017 0.0
C2717 C 0.32604 0.40028 0.8755 0.0
C2718 C 0.32818 0.43025 0.86216 0.0
C2719 C 0.30843 0.42865 0.85924 0.0
C2720 C 0.29773 0.41237 0.86386 0.0
C2721 C 0.3064 0.39842 0.87189 0.0
C2722 C 0.27285 0.46213 0.85256 0.0
C2723 C 0.2803 0.47322 0.83881 0.0
C2724 C 0.28198 0.4478 0.85911 0.0
C2725 C 0.29885 0.44405 0.85209 0.0
C2726 C 0.3064 0.45515 0.83838 0.0
C2727 C 0.29722 0.46952 0.8318 0.0
H2728 H 0.72322 0.64366 0.2421 0.0
H2729 H 0.67327 0.60801 0.22395 0.0
H2730 H 0.73319 0.62 0.26175 0.0
H2731 H 0.6834 0.58415 0.24295 0.0
H2732 H 0.69785 0.54841 0.28901 0.0
H2733 H 0.68769 0.57381 0.27261 0.0
H2734 H 0.74529 0.59199 0.26115 0.0
H2735 H 0.75562 0.56718 0.27838 0.0
C2736 C 0.71426 0.63083 0.24248 0.0
C2737 C 0.69718 0.6279 0.23183 0.0
C2738 C 0.72007 0.61714 0.25359 0.0
C2739 C 0.70911 0.60003 0.25411 0.0
C2740 C 0.69207 0.59718 0.24334 0.0
C2741 C 0.68624 0.61087 0.23235 0.0
C2742 C 0.70847 0.55788 0.28326 0.0
C2743 C 0.72764 0.55542 0.2851 0.0
C2744 C 0.70256 0.57245 0.27359 0.0
C2745 C 0.71558 0.58503 0.26532 0.0
C2746 C 0.73478 0.58278 0.26741 0.0
C2747 C 0.74072 0.56827 0.27717 0.0
H2748 H 0.72853 0.45074 0.89339 0.0
H2749 H 0.71379 0.43903 0.83675 0.0
H2750 H 0.74605 0.47931 0.88583 0.0
H2751 H 0.7299 0.46848 0.82925 0.0
H2752 H 0.77799 0.5122 0.81916 0.0
H2753 H 0.75999 0.48367 0.82702 0.0
H2754 H 0.74542 0.50851 0.87623 0.0
H2755 H 0.7644 0.53664 0.86863 0.0
C2756 C 0.72888 0.45431 0.87929 0.0
C2757 C 0.71999 0.44233 0.86567 0.0
C2758 C 0.73872 0.47094 0.87495 0.0
C2759 C 0.73964 0.4763 0.85687 0.0
C2760 C 0.72996 0.4647 0.8433 0.0
C2761 C 0.72037 0.44788 0.84763 0.0
C2762 C 0.77103 0.5114 0.83171 0.0
C2763 C 0.77266 0.52651 0.84337 0.0
C2764 C 0.76052 0.49513 0.83616 0.0
C2765 C 0.75101 0.49368 0.85222 0.0
C2766 C 0.75275 0.5089 0.8639 0.0
C2767 C 0.76362 0.52506 0.8596 0.0
H2768 H 0.6503 0.74854 0.85145 0.0
H2769 H 0.63925 0.75846 0.907 0.0
H2770 H 0.62372 0.76343 0.84137 0.0
H2771 H 0.61387 0.77522 0.89686 0.0
H2772 H 0.55702 0.78931 0.87462 0.0
H2773 H 0.58363 0.77409 0.88523 0.0
H2774 H 0.61118 0.7893 0.83636 0.0
H2775 H 0.58386 0.80331 0.82546 0.0
C2776 C 0.64229 0.75391 0.86162 0.0
C2777 C 0.64705 0.7519 0.88016 0.0
C2778 C 0.6271 0.76292 0.85576 0.0
C2779 C 0.61634 0.77075 0.86817 0.0
C2780 C 0.62139 0.76916 0.88673 0.0
C2781 C 0.63635 0.75976 0.89261 0.0
C2782 C 0.56883 0.78936 0.86622 0.0
C2783 C 0.56833 0.79742 0.84919 0.0
C2784 C 0.58425 0.78072 0.87233 0.0
C2785 C 0.59987 0.78027 0.86176 0.0
C2786 C 0.59941 0.78878 0.84483 0.0
C2787 C 0.58377 0.79699 0.83855 0.0
H2788 H 0.35301 0.63668 0.83229 0.0
H2789 H 0.29511 0.64729 0.82896 0.0
H2790 H 0.34448 0.61059 0.81203 0.0
H2791 H 0.28648 0.62087 0.8091 0.0
H2792 H 0.27747 0.58045 0.76388 0.0
H2793 H 0.29075 0.60898 0.77861 0.0
H2794 H 0.32625 0.58053 0.81434 0.0
H2795 H 0.31315 0.55201 0.79951 0.0
C2796 C 0.33848 0.63352 0.82711 0.0
C2797 C 0.32471 0.64404 0.83224 0.0
C2798 C 0.33359 0.61851 0.8156 0.0
C2799 C 0.31484 0.61371 0.8089 0.0
C2800 C 0.30112 0.62438 0.81381 0.0
C2801 C 0.30599 0.63936 0.82539 0.0
C2802 C 0.28855 0.58031 0.77448 0.0
C2803 C 0.29414 0.56391 0.78063 0.0
C2804 C 0.29598 0.59666 0.78307 0.0
C2805 C 0.30928 0.59696 0.79785 0.0
C2806 C 0.31604 0.58076 0.80297 0.0
C2807 C 0.30853 0.5644 0.79447 0.0
H2808 H 0.39307 0.3543 0.84283 0.0
H2809 H 0.40109 0.33011 0.89481 0.0
H2810 H 0.42288 0.34547 0.83403 0.0
H2811 H 0.43122 0.32159 0.88631 0.0
H2812 H 0.47054 0.28902 0.85684 0.0
H2813 H 0.44256 0.30023 0.86694 0.0
H2814 H 0.45649 0.34975 0.83815 0.0
H2815 H 0.48451 0.33845 0.82793 0.0
C2816 C 0.40141 0.34734 0.85249 0.0
C2817 C 0.39466 0.34274 0.86946 0.0
C2818 C 0.41857 0.34231 0.84749 0.0
C2819 C 0.42952 0.3326 0.85935 0.0
C2820 C 0.42307 0.3287 0.87663 0.0
C2821 C 0.40589 0.33373 0.88162 0.0
C2822 C 0.46783 0.30238 0.85278 0.0
C2823 C 0.47996 0.31276 0.84151 0.0
C2824 C 0.4517 0.30887 0.85865 0.0
C2825 C 0.44714 0.32598 0.85347 0.0
C2826 C 0.45931 0.33641 0.84226 0.0
C2827 C 0.47545 0.32991 0.83636 0.0
H2828 H 0.3706 0.43383 0.23866 0.0
H2829 H 0.31226 0.41175 0.22798 0.0
H2830 H 0.36093 0.46214 0.24921 0.0
H2831 H 0.30259 0.44016 0.2383 0.0
H2832 H 0.29093 0.48842 0.27279 0.0
H2833 H 0.30178 0.45953 0.26554 0.0
H2834 H 0.34656 0.4878 0.23643 0.0
H2835 H 0.33578 0.51654 0.24366 0.0
C2836 C 0.3557 0.43495 0.23865 0.0
C2837 C 0.34224 0.42043 0.23238 0.0
C2838 C 0.35014 0.45128 0.24458 0.0
C2839 C 0.33095 0.45353 0.24464 0.0
C2840 C 0.31748 0.43891 0.23864 0.0
C2841 C 0.32305 0.42266 0.23251 0.0
C2842 C 0.30329 0.4885 0.26512 0.0
C2843 C 0.31248 0.50489 0.25886 0.0
C2844 C 0.3094 0.4719 0.26079 0.0
C2845 C 0.32502 0.47124 0.25029 0.0
C2846 C 0.3346 0.48771 0.24465 0.0
C2847 C 0.32836 0.50424 0.24878 0.0
H2848 H 0.63834 0.38754 0.2393 0.0
H2849 H 0.64719 0.33158 0.23375 0.0
H2850 H 0.61507 0.379 0.2614 0.0
H2851 H 0.62364 0.3231 0.25545 0.0
H2852 H 0.56426 0.31338 0.27514 0.0
H2853 H 0.58864 0.32321 0.255 0.0
H2854 H 0.61221 0.36547 0.29302 0.0
H2855 H 0.5878 0.35527 0.31374 0.0
C2856 C 0.63547 0.37345 0.24288 0.0
C2857 C 0.64458 0.36022 0.23463 0.0
C2858 C 0.62213 0.36859 0.25554 0.0
C2859 C 0.61749 0.3504 0.26007 0.0
C2860 C 0.62675 0.33722 0.25202 0.0
C2861 C 0.64017 0.34207 0.2395 0.0
C2862 C 0.57474 0.32458 0.27949 0.0
C2863 C 0.57422 0.33328 0.29633 0.0
C2864 C 0.5887 0.33026 0.26783 0.0
C2865 C 0.60247 0.34493 0.27253 0.0
C2866 C 0.60173 0.3541 0.28906 0.0
C2867 C 0.58776 0.34828 0.3009 0.0
H2868 H 0.39426 0.75108 0.19623 0.0
H2869 H 0.41288 0.69828 0.19633 0.0
H2870 H 0.42431 0.7639 0.21133 0.0
H2871 H 0.44267 0.71098 0.21192 0.0
H2872 H 0.50007 0.74046 0.22747 0.0
H2873 H 0.47175 0.73137 0.2079 0.0
H2874 H 0.44009 0.76234 0.24138 0.0
H2875 H 0.46839 0.77166 0.26078 0.0
C2876 C 0.40483 0.74224 0.19936 0.0
C2877 C 0.40117 0.72365 0.19513 0.0
C2878 C 0.42197 0.74956 0.20814 0.0
C2879 C 0.43589 0.73848 0.21282 0.0
C2880 C 0.43235 0.71994 0.2083 0.0
C2881 C 0.41518 0.71261 0.19958 0.0
C2882 C 0.48716 0.74562 0.23047 0.0
C2883 C 0.48648 0.75665 0.2458 0.0
C2884 C 0.4709 0.74028 0.21933 0.0
C2885 C 0.45362 0.74592 0.22323 0.0
C2886 C 0.45319 0.75782 0.23794 0.0
C2887 C 0.46943 0.76312 0.2491 0.0
loop_
_geom_bond_atom_site_label_1
_geom_bond_atom_site_label_2
_geom_bond_distance
_geom_bond_site_symmetry_2
_ccdc_geom_bond_type
H0 C7 0.929 . S
H1 C10 0.930 . S
H2 C12 0.929 . S
H3 C4 0.969 . S
C4 H3 0.969 . S
C4 O5 1.550 . S
C4 H6 0.973 . S
O5 C4 1.550 . S
O5 C11 1.412 . S
H6 C4 0.973 . S
C7 H0 0.929 . S
C7 C8 1.400 . S
C7 C9 1.364 . S
C8 C7 1.400 . S
C8 C12 1.377 . S
C9 C7 1.364 . S
C9 C10 1.374 . S
C10 H1 0.930 . S
C10 C9 1.374 . S
C10 C11 1.383 . S
C11 O5 1.412 . S
C11 C10 1.383 . S
C11 C12 1.394 . S
C12 H2 0.929 . S
C12 C8 1.377 . S
C12 C11 1.394 . S
H13 C20 0.929 . S
H14 C23 0.930 . S
H15 C25 0.929 . S
H16 C17 0.969 . S
C17 H16 0.969 . S
C17 O18 1.550 . S
C17 H19 0.973 . S
O18 C17 1.550 . S
O18 C24 1.412 . S
H19 C17 0.973 . S
C20 H13 0.929 . S
C20 C21 1.400 . S
C20 C22 1.364 . S
C21 C20 1.400 . S
C21 C25 1.377 . S
C22 C20 1.364 . S
C22 C23 1.374 . S
C23 H14 0.930 . S
C23 C22 1.374 . S
C23 C24 1.383 . S
C24 O18 1.412 . S
C24 C23 1.383 . S
C24 C25 1.394 . S
C25 H15 0.929 . S
C25 C21 1.377 . S
C25 C24 1.394 . S
H26 C33 0.929 . S
H27 C36 0.930 . S
H28 C38 0.929 . S
H29 C30 0.969 . S
C30 H29 0.969 . S
C30 O31 1.550 . S
C30 H32 0.973 . S
O31 C30 1.550 . S
O31 C37 1.412 . S
H32 C30 0.973 . S
C33 H26 0.929 . S
C33 C34 1.400 . S
C33 C35 1.364 . S
C34 C33 1.400 . S
C34 C38 1.377 . S
C35 C33 1.364 . S
C35 C36 1.374 . S
C36 H27 0.930 . S
C36 C35 1.374 . S
C36 C37 1.383 . S
C37 O31 1.412 . S
C37 C36 1.383 . S
C37 C38 1.394 . S
C38 H28 0.929 . S
C38 C34 1.377 . S
C38 C37 1.394 . S
H39 C46 0.929 . S
H40 C49 0.930 . S
H41 C51 0.929 . S
H42 C43 0.969 . S
C43 H42 0.969 . S
C43 O44 1.550 . S
C43 H45 0.973 . S
O44 C43 1.550 . S
O44 C50 1.412 . S
H45 C43 0.973 . S
C46 H39 0.929 . S
C46 C47 1.400 . S
C46 C48 1.364 . S
C47 C46 1.400 . S
C47 C51 1.377 . S
C48 C46 1.364 . S
C48 C49 1.374 . S
C49 H40 0.930 . S
C49 C48 1.374 . S
C49 C50 1.383 . S
C50 O44 1.412 . S
C50 C49 1.383 . S
C50 C51 1.394 . S
C51 H41 0.929 . S
C51 C47 1.377 . S
C51 C50 1.394 . S
H52 C59 0.929 . S
H53 C62 0.930 . S
H54 C64 0.929 . S
H55 C56 0.969 . S
C56 H55 0.969 . S
C56 O57 1.550 . S
C56 H58 0.973 . S
O57 C56 1.550 . S
O57 C63 1.412 . S
H58 C56 0.973 . S
C59 H52 0.929 . S
C59 C60 1.400 . S
C59 C61 1.364 . S
C60 C59 1.400 . S
C60 C64 1.377 . S
C61 C59 1.364 . S
C61 C62 1.374 . S
C62 H53 0.930 . S
C62 C61 1.374 . S
C62 C63 1.383 . S
C63 O57 1.412 . S
C63 C62 1.383 . S
C63 C64 1.394 . S
C64 H54 0.929 . S
C64 C60 1.377 . S
C64 C63 1.394 . S
H65 C72 0.929 . S
H66 C75 0.930 . S
H67 C77 0.929 . S
H68 C69 0.969 . S
C69 H68 0.969 . S
C69 O70 1.550 . S
C69 H71 0.973 . S
O70 C69 1.550 . S
O70 C76 1.412 . S
H71 C69 0.973 . S
C72 H65 0.929 . S
C72 C73 1.400 . S
C72 C74 1.364 . S
C73 C72 1.400 . S
C73 C77 1.377 . S
C74 C72 1.364 . S
C74 C75 1.374 . S
C75 H66 0.930 . S
C75 C74 1.374 . S
C75 C76 1.383 . S
C76 O70 1.412 . S
C76 C75 1.383 . S
C76 C77 1.394 . S
C77 H67 0.929 . S
C77 C73 1.377 . S
C77 C76 1.394 . S
H78 C85 0.929 . S
H79 C88 0.930 . S
H80 C90 0.929 . S
H81 C82 0.969 . S
C82 H81 0.969 . S
C82 O83 1.550 . S
C82 H84 0.973 . S
O83 C82 1.550 . S
O83 C89 1.412 . S
H84 C82 0.973 . S
C85 H78 0.929 . S
C85 C86 1.400 . S
C85 C87 1.364 . S
C86 C85 1.400 . S
C86 C90 1.377 . S
C87 C85 1.364 . S
C87 C88 1.374 . S
C88 H79 0.930 . S
C88 C87 1.374 . S
C88 C89 1.383 . S
C89 O83 1.412 . S
C89 C88 1.383 . S
C89 C90 1.394 . S
C90 H80 0.929 . S
C90 C86 1.377 . S
C90 C89 1.394 . S
H91 C98 0.929 . S
H92 C101 0.930 . S
H93 C103 0.929 . S
H94 C95 0.969 . S
C95 H94 0.969 . S
C95 O96 1.550 . S
C95 H97 0.973 . S
O96 C95 1.550 . S
O96 C102 1.412 . S
H97 C95 0.973 . S
C98 H91 0.929 . S
C98 C99 1.400 . S
C98 C100 1.364 . S
C99 C98 1.400 . S
C99 C103 1.377 . S
C100 C98 1.364 . S
C100 C101 1.374 . S
C101 H92 0.930 . S
C101 C100 1.374 . S
C101 C102 1.383 . S
C102 O96 1.412 . S
C102 C101 1.383 . S
C102 C103 1.394 . S
C103 H93 0.929 . S
C103 C99 1.377 . S
C103 C102 1.394 . S
H104 C111 0.929 . S
H105 C114 0.930 . S
H106 C116 0.929 . S
H107 C108 0.969 . S
C108 H107 0.969 . S
C108 O109 1.550 . S
C108 H110 0.973 . S
O109 C108 1.550 . S
O109 C115 1.412 . S
H110 C108 0.973 . S
C111 H104 0.929 . S
C111 C112 1.400 . S
C111 C113 1.364 . S
C112 C111 1.400 . S
C112 C116 1.377 . S
C113 C111 1.364 . S
C113 C114 1.374 . S
C114 H105 0.930 . S
C114 C113 1.374 . S
C114 C115 1.383 . S
C115 O109 1.412 . S
C115 C114 1.383 . S
C115 C116 1.394 . S
C116 H106 0.929 . S
C116 C112 1.377 . S
C116 C115 1.394 . S
H117 C124 0.929 . S
H118 C127 0.930 . S
H119 C129 0.929 . S
H120 C121 0.969 . S
C121 H120 0.969 . S
C121 O122 1.550 . S
C121 H123 0.973 . S
O122 C121 1.550 . S
O122 C128 1.412 . S
H123 C121 0.973 . S
C124 H117 0.929 . S
C124 C125 1.400 . S
C124 C126 1.364 . S
C125 C124 1.400 . S
C125 C129 1.377 . S
C126 C124 1.364 . S
C126 C127 1.374 . S
C127 H118 0.930 . S
C127 C126 1.374 . S
C127 C128 1.383 . S
C128 O122 1.412 . S
C128 C127 1.383 . S
C128 C129 1.394 . S
C129 H119 0.929 . S
C129 C125 1.377 . S
C129 C128 1.394 . S
H130 C137 0.929 . S
H131 C140 0.930 . S
H132 C142 0.929 . S
H133 C134 0.969 . S
C134 H133 0.969 . S
C134 O135 1.550 . S
C134 H136 0.973 . S
O135 C134 1.550 . S
O135 C141 1.412 . S
H136 C134 0.973 . S
C137 H130 0.929 . S
C137 C138 1.400 . S
C137 C139 1.364 . S
C138 C137 1.400 . S
C138 C142 1.377 . S
C139 C137 1.364 . S
C139 C140 1.374 . S
C140 H131 0.930 . S
C140 C139 1.374 . S
C140 C141 1.383 . S
C141 O135 1.412 . S
C141 C140 1.383 . S
C141 C142 1.394 . S
C142 H132 0.929 . S
C142 C138 1.377 . S
C142 C141 1.394 . S
H143 C150 0.929 . S
H144 C153 0.930 . S
H145 C155 0.929 . S
H146 C147 0.969 . S
C147 H146 0.969 . S
C147 O148 1.550 . S
C147 H149 0.973 . S
O148 C147 1.550 . S
O148 C154 1.412 . S
H149 C147 0.973 . S
C150 H143 0.929 . S
C150 C151 1.400 . S
C150 C152 1.364 . S
C151 C150 1.400 . S
C151 C155 1.377 . S
C152 C150 1.364 . S
C152 C153 1.374 . S
C153 H144 0.930 . S
C153 C152 1.374 . S
C153 C154 1.383 . S
C154 O148 1.412 . S
C154 C153 1.383 . S
C154 C155 1.394 . S
C155 H145 0.929 . S
C155 C151 1.377 . S
C155 C154 1.394 . S
H156 C163 0.929 . S
H157 C166 0.930 . S
H158 C168 0.929 . S
H159 C160 0.969 . S
C160 H159 0.969 . S
C160 O161 1.550 . S
C160 H162 0.973 . S
O161 C160 1.550 . S
O161 C167 1.412 . S
H162 C160 0.973 . S
C163 H156 0.929 . S
C163 C164 1.400 . S
C163 C165 1.364 . S
C164 C163 1.400 . S
C164 C168 1.377 . S
C165 C163 1.364 . S
C165 C166 1.374 . S
C166 H157 0.930 . S
C166 C165 1.374 . S
C166 C167 1.383 . S
C167 O161 1.412 . S
C167 C166 1.383 . S
C167 C168 1.394 . S
C168 H158 0.929 . S
C168 C164 1.377 . S
C168 C167 1.394 . S
H169 C176 0.929 . S
H170 C179 0.930 . S
H171 C181 0.929 . S
H172 C173 0.969 . S
C173 H172 0.969 . S
C173 O174 1.550 . S
C173 H175 0.973 . S
O174 C173 1.550 . S
O174 C180 1.412 . S
H175 C173 0.973 . S
C176 H169 0.929 . S
C176 C177 1.400 . S
C176 C178 1.364 . S
C177 C176 1.400 . S
C177 C181 1.377 . S
C178 C176 1.364 . S
C178 C179 1.374 . S
C179 H170 0.930 . S
C179 C178 1.374 . S
C179 C180 1.383 . S
C180 O174 1.412 . S
C180 C179 1.383 . S
C180 C181 1.394 . S
C181 H171 0.929 . S
C181 C177 1.377 . S
C181 C180 1.394 . S
H182 C189 0.929 . S
H183 C192 0.930 . S
H184 C194 0.929 . S
H185 C186 0.969 . S
C186 H185 0.969 . S
C186 O187 1.550 . S
C186 H188 0.973 . S
O187 C186 1.550 . S
O187 C193 1.412 . S
H188 C186 0.973 . S
C189 H182 0.929 . S
C189 C190 1.400 . S
C189 C191 1.364 . S
C190 C189 1.400 . S
C190 C194 1.377 . S
C191 C189 1.364 . S
C191 C192 1.374 . S
C192 H183 0.930 . S
C192 C191 1.374 . S
C192 C193 1.383 . S
C193 O187 1.412 . S
C193 C192 1.383 . S
C193 C194 1.394 . S
C194 H184 0.929 . S
C194 C190 1.377 . S
C194 C193 1.394 . S
H195 C202 0.929 . S
H196 C205 0.930 . S
H197 C207 0.929 . S
H198 C199 0.969 . S
C199 H198 0.969 . S
C199 O200 1.550 . S
C199 H201 0.973 . S
O200 C199 1.550 . S
O200 C206 1.412 . S
H201 C199 0.973 . S
C202 H195 0.929 . S
C202 C203 1.400 . S
C202 C204 1.364 . S
C203 C202 1.400 . S
C203 C207 1.377 . S
C204 C202 1.364 . S
C204 C205 1.374 . S
C205 H196 0.930 . S
C205 C204 1.374 . S
C205 C206 1.383 . S
C206 O200 1.412 . S
C206 C205 1.383 . S
C206 C207 1.394 . S
C207 H197 0.929 . S
C207 C203 1.377 . S
C207 C206 1.394 . S
H208 C215 0.929 . S
H209 C218 0.930 . S
H210 C220 0.929 . S
H211 C212 0.969 . S
C212 H211 0.969 . S
C212 O213 1.550 . S
C212 H214 0.973 . S
O213 C212 1.550 . S
O213 C219 1.412 . S
H214 C212 0.973 . S
C215 H208 0.929 . S
C215 C216 1.400 . S
C215 C217 1.364 . S
C216 C215 1.400 . S
C216 C220 1.377 . S
C217 C215 1.364 . S
C217 C218 1.374 . S
C218 H209 0.930 . S
C218 C217 1.374 . S
C218 C219 1.383 . S
C219 O213 1.412 . S
C219 C218 1.383 . S
C219 C220 1.394 . S
C220 H210 0.929 . S
C220 C216 1.377 . S
C220 C219 1.394 . S
H221 C228 0.929 . S
H222 C231 0.930 . S
H223 C233 0.929 . S
H224 C225 0.969 . S
C225 H224 0.969 . S
C225 O226 1.550 . S
C225 H227 0.973 . S
O226 C225 1.550 . S
O226 C232 1.412 . S
H227 C225 0.973 . S
C228 H221 0.929 . S
C228 C229 1.400 . S
C228 C230 1.364 . S
C229 C228 1.400 . S
C229 C233 1.377 . S
C230 C228 1.364 . S
C230 C231 1.374 . S
C231 H222 0.930 . S
C231 C230 1.374 . S
C231 C232 1.383 . S
C232 O226 1.412 . S
C232 C231 1.383 . S
C232 C233 1.394 . S
C233 H223 0.929 . S
C233 C229 1.377 . S
C233 C232 1.394 . S
H234 C241 0.929 . S
H235 C244 0.930 . S
H236 C246 0.929 . S
H237 C238 0.969 . S
C238 H237 0.969 . S
C238 O239 1.550 . S
C238 H240 0.973 . S
O239 C238 1.550 . S
O239 C245 1.412 . S
H240 C238 0.973 . S
C241 H234 0.929 . S
C241 C242 1.400 . S
C241 C243 1.364 . S
C242 C241 1.400 . S
C242 C246 1.377 . S
C243 C241 1.364 . S
C243 C244 1.374 . S
C244 H235 0.930 . S
C244 C243 1.374 . S
C244 C245 1.383 . S
C245 O239 1.412 . S
C245 C244 1.383 . S
C245 C246 1.394 . S
C246 H236 0.929 . S
C246 C242 1.377 . S
C246 C245 1.394 . S
H247 C254 0.929 . S
H248 C257 0.930 . S
H249 C259 0.929 . S
H250 C251 0.969 . S
C251 H250 0.969 . S
C251 O252 1.550 . S
C251 H253 0.973 . S
O252 C251 1.550 . S
O252 C258 1.412 . S
H253 C251 0.973 . S
C254 H247 0.929 . S
C254 C255 1.400 . S
C254 C256 1.364 . S
C255 C254 1.400 . S
C255 C259 1.377 . S
C256 C254 1.364 . S
C256 C257 1.374 . S
C257 H248 0.930 . S
C257 C256 1.374 . S
C257 C258 1.383 . S
C258 O252 1.412 . S
C258 C257 1.383 . S
C258 C259 1.394 . S
C259 H249 0.929 . S
C259 C255 1.377 . S
C259 C258 1.394 . S
H260 C267 0.929 . S
H261 C270 0.930 . S
H262 C272 0.929 . S
H263 C264 0.969 . S
C264 H263 0.969 . S
C264 O265 1.550 . S
C264 H266 0.973 . S
O265 C264 1.550 . S
O265 C271 1.412 . S
H266 C264 0.973 . S
C267 H260 0.929 . S
C267 C268 1.400 . S
C267 C269 1.364 . S
C268 C267 1.400 . S
C268 C272 1.377 . S
C269 C267 1.364 . S
C269 C270 1.374 . S
C270 H261 0.930 . S
C270 C269 1.374 . S
C270 C271 1.383 . S
C271 O265 1.412 . S
C271 C270 1.383 . S
C271 C272 1.394 . S
C272 H262 0.929 . S
C272 C268 1.377 . S
C272 C271 1.394 . S
H273 C280 0.929 . S
H274 C283 0.930 . S
H275 C285 0.929 . S
H276 C277 0.969 . S
C277 H276 0.969 . S
C277 O278 1.550 . S
C277 H279 0.973 . S
O278 C277 1.550 . S
O278 C284 1.412 . S
H279 C277 0.973 . S
C280 H273 0.929 . S
C280 C281 1.400 . S
C280 C282 1.364 . S
C281 C280 1.400 . S
C281 C285 1.377 . S
C282 C280 1.364 . S
C282 C283 1.374 . S
C283 H274 0.930 . S
C283 C282 1.374 . S
C283 C284 1.383 . S
C284 O278 1.412 . S
C284 C283 1.383 . S
C284 C285 1.394 . S
C285 H275 0.929 . S
C285 C281 1.377 . S
C285 C284 1.394 . S
H286 C293 0.929 . S
H287 C296 0.930 . S
H288 C298 0.929 . S
H289 C290 0.969 . S
C290 H289 0.969 . S
C290 O291 1.550 . S
C290 H292 0.973 . S
O291 C290 1.550 . S
O291 C297 1.412 . S
H292 C290 0.973 . S
C293 H286 0.929 . S
C293 C294 1.400 . S
C293 C295 1.364 . S
C294 C293 1.400 . S
C294 C298 1.377 . S
C295 C293 1.364 . S
C295 C296 1.374 . S
C296 H287 0.930 . S
C296 C295 1.374 . S
C296 C297 1.383 . S
C297 O291 1.412 . S
C297 C296 1.383 . S
C297 C298 1.394 . S
C298 H288 0.929 . S
C298 C294 1.377 . S
C298 C297 1.394 . S
H299 C306 0.929 . S
H300 C309 0.930 . S
H301 C311 0.929 . S
H302 C303 0.969 . S
C303 H302 0.969 . S
C303 O304 1.550 . S
C303 H305 0.973 . S
O304 C303 1.550 . S
O304 C310 1.412 . S
H305 C303 0.973 . S
C306 H299 0.929 . S
C306 C307 1.400 . S
C306 C308 1.364 . S
C307 C306 1.400 . S
C307 C311 1.377 . S
C308 C306 1.364 . S
C308 C309 1.374 . S
C309 H300 0.930 . S
C309 C308 1.374 . S
C309 C310 1.383 . S
C310 O304 1.412 . S
C310 C309 1.383 . S
C310 C311 1.394 . S
C311 H301 0.929 . S
C311 C307 1.377 . S
C311 C310 1.394 . S
H312 C319 0.929 . S
H313 C322 0.930 . S
H314 C324 0.929 . S
H315 C316 0.969 . S
C316 H315 0.969 . S
C316 O317 1.550 . S
C316 H318 0.973 . S
O317 C316 1.550 . S
O317 C323 1.412 . S
H318 C316 0.973 . S
C319 H312 0.929 . S
C319 C320 1.400 . S
C319 C321 1.364 . S
C320 C319 1.400 . S
C320 C324 1.377 . S
C321 C319 1.364 . S
C321 C322 1.374 . S
C322 H313 0.930 . S
C322 C321 1.374 . S
C322 C323 1.383 . S
C323 O317 1.412 . S
C323 C322 1.383 . S
C323 C324 1.394 . S
C324 H314 0.929 . S
C324 C320 1.377 . S
C324 C323 1.394 . S
H325 C332 0.929 . S
H326 C335 0.930 . S
H327 C337 0.929 . S
H328 C329 0.969 . S
C329 H328 0.969 . S
C329 O330 1.550 . S
C329 H331 0.973 . S
O330 C329 1.550 . S
O330 C336 1.412 . S
H331 C329 0.973 . S
C332 H325 0.929 . S
C332 C333 1.400 . S
C332 C334 1.364 . S
C333 C332 1.400 . S
C333 C337 1.377 . S
C334 C332 1.364 . S
C334 C335 1.374 . S
C335 H326 0.930 . S
C335 C334 1.374 . S
C335 C336 1.383 . S
C336 O330 1.412 . S
C336 C335 1.383 . S
C336 C337 1.394 . S
C337 H327 0.929 . S
C337 C333 1.377 . S
C337 C336 1.394 . S
H338 C345 0.929 . S
H339 C348 0.930 . S
H340 C350 0.929 . S
H341 C342 0.969 . S
C342 H341 0.969 . S
C342 O343 1.550 . S
C342 H344 0.973 . S
O343 C342 1.550 . S
O343 C349 1.412 . S
H344 C342 0.973 . S
C345 H338 0.929 . S
C345 C346 1.400 . S
C345 C347 1.364 . S
C346 C345 1.400 . S
C346 C350 1.377 . S
C347 C345 1.364 . S
C347 C348 1.374 . S
C348 H339 0.930 . S
C348 C347 1.374 . S
C348 C349 1.383 . S
C349 O343 1.412 . S
C349 C348 1.383 . S
C349 C350 1.394 . S
C350 H340 0.929 . S
C350 C346 1.377 . S
C350 C349 1.394 . S
H351 C358 0.929 . S
H352 C361 0.930 . S
H353 C363 0.929 . S
H354 C355 0.969 . S
C355 H354 0.969 . S
C355 O356 1.550 . S
C355 H357 0.973 . S
O356 C355 1.550 . S
O356 C362 1.412 . S
H357 C355 0.973 . S
C358 H351 0.929 . S
C358 C359 1.400 . S
C358 C360 1.364 . S
C359 C358 1.400 . S
C359 C363 1.377 . S
C360 C358 1.364 . S
C360 C361 1.374 . S
C361 H352 0.930 . S
C361 C360 1.374 . S
C361 C362 1.383 . S
C362 O356 1.412 . S
C362 C361 1.383 . S
C362 C363 1.394 . S
C363 H353 0.929 . S
C363 C359 1.377 . S
C363 C362 1.394 . S
H364 C371 0.929 . S
H365 C374 0.930 . S
H366 C376 0.929 . S
H367 C368 0.969 . S
C368 H367 0.969 . S
C368 O369 1.550 . S
C368 H370 0.973 . S
O369 C368 1.550 . S
O369 C375 1.412 . S
H370 C368 0.973 . S
C371 H364 0.929 . S
C371 C372 1.400 . S
C371 C373 1.364 . S
C372 C371 1.400 . S
C372 C376 1.377 . S
C373 C371 1.364 . S
C373 C374 1.374 . S
C374 H365 0.930 . S
C374 C373 1.374 . S
C374 C375 1.383 . S
C375 O369 1.412 . S
C375 C374 1.383 . S
C375 C376 1.394 . S
C376 H366 0.929 . S
C376 C372 1.377 . S
C376 C375 1.394 . S
H377 C384 0.929 . S
H378 C387 0.930 . S
H379 C389 0.929 . S
H380 C381 0.969 . S
C381 H380 0.969 . S
C381 O382 1.550 . S
C381 H383 0.973 . S
O382 C381 1.550 . S
O382 C388 1.412 . S
H383 C381 0.973 . S
C384 H377 0.929 . S
C384 C385 1.400 . S
C384 C386 1.364 . S
C385 C384 1.400 . S
C385 C389 1.377 . S
C386 C384 1.364 . S
C386 C387 1.374 . S
C387 H378 0.930 . S
C387 C386 1.374 . S
C387 C388 1.383 . S
C388 O382 1.412 . S
C388 C387 1.383 . S
C388 C389 1.394 . S
C389 H379 0.929 . S
C389 C385 1.377 . S
C389 C388 1.394 . S
H390 C397 0.929 . S
H391 C400 0.930 . S
H392 C402 0.929 . S
H393 C394 0.969 . S
C394 H393 0.969 . S
C394 O395 1.550 . S
C394 H396 0.973 . S
O395 C394 1.550 . S
O395 C401 1.412 . S
H396 C394 0.973 . S
C397 H390 0.929 . S
C397 C398 1.400 . S
C397 C399 1.364 . S
C398 C397 1.400 . S
C398 C402 1.377 . S
C399 C397 1.364 . S
C399 C400 1.374 . S
C400 H391 0.930 . S
C400 C399 1.374 . S
C400 C401 1.383 . S
C401 O395 1.412 . S
C401 C400 1.383 . S
C401 C402 1.394 . S
C402 H392 0.929 . S
C402 C398 1.377 . S
C402 C401 1.394 . S
H403 C410 0.929 . S
H404 C413 0.930 . S
H405 C415 0.929 . S
H406 C407 0.969 . S
C407 H406 0.969 . S
C407 O408 1.550 . S
C407 H409 0.973 . S
O408 C407 1.550 . S
O408 C414 1.412 . S
H409 C407 0.973 . S
C410 H403 0.929 . S
C410 C411 1.400 . S
C410 C412 1.364 . S
C411 C410 1.400 . S
C411 C415 1.377 . S
C412 C410 1.364 . S
C412 C413 1.374 . S
C413 H404 0.930 . S
C413 C412 1.374 . S
C413 C414 1.383 . S
C414 O408 1.412 . S
C414 C413 1.383 . S
C414 C415 1.394 . S
C415 H405 0.929 . S
C415 C411 1.377 . S
C415 C414 1.394 . S
Cu416 N417 1.999 . S
Cu416 O422 1.974 . S
Cu416 N427 1.985 . S
Cu416 O436 1.959 . S
N417 Cu416 1.999 . S
N417 C419 1.263 . S
N417 C421 1.389 . S
N418 C419 1.358 . S
N418 C420 1.400 . S
C419 N417 1.263 . S
C419 N418 1.358 . S
C419 H425 0.930 . S
C420 N418 1.400 . S
C420 C421 1.351 . S
C420 H437 0.930 . S
C421 N417 1.389 . S
C421 C420 1.351 . S
C421 H426 0.930 . S
O422 Cu416 1.974 . S
O422 C432 1.282 . S
C423 O424 1.261 . S
C423 O436 1.251 . S
O424 C423 1.261 . S
H425 C419 0.930 . S
H426 C421 0.930 . S
N427 Cu416 1.985 . S
N427 C429 1.335 . S
N427 C430 1.390 . S
N428 C429 1.345 . S
N428 C431 1.336 . S
C429 N427 1.335 . S
C429 N428 1.345 . S
C429 H434 0.930 . S
C430 N427 1.390 . S
C430 C431 1.346 . S
C430 H435 0.930 . S
C431 N428 1.336 . S
C431 C430 1.346 . S
C431 H438 0.929 . S
C432 O422 1.282 . S
C432 O433 1.216 . S
O433 C432 1.216 . S
H434 C429 0.930 . S
H435 C430 0.930 . S
O436 Cu416 1.959 . S
O436 C423 1.251 . S
H437 C420 0.930 . S
H438 C431 0.929 . S
Cu439 N440 1.999 . S
Cu439 O445 1.974 . S
Cu439 N450 1.985 . S
Cu439 O459 1.959 1_554 S
N440 Cu439 1.999 . S
N440 C442 1.263 . S
N440 C444 1.389 . S
N441 C442 1.358 . S
N441 C443 1.400 . S
C442 N440 1.263 . S
C442 N441 1.358 . S
C442 H448 0.930 . S
C443 N441 1.400 . S
C443 C444 1.351 . S
C443 H460 0.930 . S
C444 N440 1.389 . S
C444 C443 1.351 . S
C444 H449 0.930 . S
O445 Cu439 1.974 . S
O445 C455 1.282 . S
C446 O447 1.261 1_556 S
C446 O459 1.251 . S
O447 C446 1.261 1_554 S
H448 C442 0.930 . S
H449 C444 0.930 . S
N450 Cu439 1.985 . S
N450 C452 1.335 1_554 S
N450 C453 1.390 . S
N451 C452 1.345 . S
N451 C454 1.336 . S
C452 N450 1.335 1_556 S
C452 N451 1.345 . S
C452 H457 0.930 . S
C453 N450 1.390 . S
C453 C454 1.346 1_554 S
C453 H458 0.930 . S
C454 N451 1.336 . S
C454 C453 1.346 1_556 S
C454 H461 0.929 . S
C455 O445 1.282 . S
C455 O456 1.216 . S
O456 C455 1.216 . S
H457 C452 0.930 . S
H458 C453 0.930 . S
O459 Cu439 1.959 1_556 S
O459 C446 1.251 . S
H460 C443 0.930 . S
H461 C454 0.929 . S
Cu462 N463 1.999 . S
Cu462 O468 1.974 . S
Cu462 N473 1.985 . S
Cu462 O482 1.959 . S
N463 Cu462 1.999 . S
N463 C465 1.305 . S
N463 C467 1.389 . S
N464 C465 1.338 1_556 S
N464 C466 1.400 1_556 S
C465 N463 1.305 . S
C465 N464 1.338 1_554 S
C465 H471 0.912 1_554 S
C466 N464 1.400 1_554 S
C466 C467 1.351 . S
C466 H483 0.930 . S
C467 N463 1.389 . S
C467 C466 1.351 . S
C467 H472 0.930 . S
O468 Cu462 1.974 . S
O468 C478 1.282 . S
C469 O470 1.261 . S
C469 O482 1.251 . S
O470 C469 1.261 . S
H471 C465 0.912 1_556 S
H472 C467 0.930 . S
N473 Cu462 1.985 . S
N473 C475 1.335 . S
N473 C476 1.390 . S
N474 C475 1.345 . S
N474 C477 1.336 . S
C475 N473 1.335 . S
C475 N474 1.345 . S
C475 H480 0.930 . S
C476 N473 1.390 . S
C476 C477 1.346 . S
C476 H481 0.930 . S
C477 N474 1.336 . S
C477 C476 1.346 . S
C477 H484 0.929 . S
C478 O468 1.282 . S
C478 O479 1.216 . S
O479 C478 1.216 . S
H480 C475 0.930 . S
H481 C476 0.930 . S
O482 Cu462 1.959 . S
O482 C469 1.251 . S
H483 C466 0.930 . S
H484 C477 0.929 . S
Cu485 N486 1.999 1_556 S
Cu485 O491 1.974 1_556 S
Cu485 N496 1.985 . S
Cu485 O505 1.959 . S
N486 Cu485 1.999 1_554 S
N486 C488 1.263 . S
N486 C490 1.389 . S
N487 C488 1.358 . S
N487 C489 1.400 . S
C488 N486 1.263 . S
C488 N487 1.358 . S
C488 H494 0.930 . S
C489 N487 1.400 . S
C489 C490 1.351 . S
C489 H506 0.930 . S
C490 N486 1.389 . S
C490 C489 1.351 . S
C490 H495 0.958 . S
O491 Cu485 1.974 1_554 S
O491 C501 1.282 . S
C492 O493 1.261 . S
C492 O505 1.251 . S
O493 C492 1.261 . S
H494 C488 0.930 . S
H495 C490 0.958 . S
N496 Cu485 1.985 . S
N496 C498 1.335 . S
N496 C499 1.390 . S
N497 C498 1.345 . S
N497 C500 1.336 . S
C498 N496 1.335 . S
C498 N497 1.345 . S
C498 H503 0.930 . S
C499 N496 1.390 . S
C499 C500 1.346 . S
C499 H504 0.981 . S
C500 N497 1.336 . S
C500 C499 1.346 . S
C500 H507 0.929 . S
C501 O491 1.282 . S
C501 O502 1.216 . S
O502 C501 1.216 . S
H503 C498 0.930 . S
H504 C499 0.981 . S
O505 Cu485 1.959 . S
O505 C492 1.251 . S
H506 C489 0.930 . S
H507 C500 0.929 . S
Cu508 N509 1.999 . S
Cu508 O514 1.974 . S
Cu508 N519 1.985 1_455 S
Cu508 O528 1.959 1_455 S
N509 Cu508 1.999 . S
N509 C511 1.263 . S
N509 C513 1.389 . S
N510 C511 1.358 . S
N510 C512 1.400 . S
C511 N509 1.263 . S
C511 N510 1.358 . S
C511 H517 0.930 . S
C512 N510 1.400 . S
C512 C513 1.351 . S
C512 H529 0.930 . S
C513 N509 1.389 . S
C513 C512 1.351 . S
C513 H518 0.930 . S
O514 Cu508 1.974 . S
O514 C524 1.282 . S
C515 O516 1.261 . S
C515 O528 1.251 . S
O516 C515 1.261 . S
H517 C511 0.930 . S
H518 C513 0.930 . S
N519 Cu508 1.985 1_655 S
N519 C521 1.335 . S
N519 C522 1.390 1_655 S
N520 C521 1.345 . S
N520 C523 1.336 . S
C521 N519 1.335 . S
C521 N520 1.345 . S
C521 H526 0.930 . S
C522 N519 1.390 1_455 S
C522 C523 1.346 1_455 S
C522 H527 0.930 . S
C523 N520 1.336 . S
C523 C522 1.346 1_655 S
C523 H530 0.929 . S
C524 O514 1.282 . S
C524 O525 1.216 . S
O525 C524 1.216 . S
H526 C521 0.930 . S
H527 C522 0.930 . S
O528 Cu508 1.959 1_655 S
O528 C515 1.251 . S
H529 C512 0.930 . S
H530 C523 0.929 . S
Cu531 N532 1.999 . S
Cu531 O537 1.974 . S
Cu531 N542 1.985 . S
Cu531 O551 1.959 . S
N532 Cu531 1.999 . S
N532 C534 1.263 . S
N532 C536 1.389 . S
N533 C534 1.358 . S
N533 C535 1.400 . S
C534 N532 1.263 . S
C534 N533 1.358 . S
C534 H540 0.930 . S
C535 N533 1.400 . S
C535 C536 1.351 . S
C535 H552 0.930 . S
C536 N532 1.389 . S
C536 C535 1.351 . S
C536 H541 0.930 . S
O537 Cu531 1.974 . S
O537 C547 1.282 . S
C538 O539 1.261 . S
C538 O551 1.251 . S
O539 C538 1.261 . S
H540 C534 0.930 . S
H541 C536 0.930 . S
N542 Cu531 1.985 . S
N542 C544 1.335 1_545 S
N542 C545 1.390 . S
N543 C544 1.345 . S
N543 C546 1.336 . S
C544 N542 1.335 1_565 S
C544 N543 1.345 . S
C544 H549 0.930 . S
C545 N542 1.390 . S
C545 C546 1.346 1_545 S
C545 H550 0.930 . S
C546 N543 1.336 . S
C546 C545 1.346 1_565 S
C546 H553 0.929 . S
C547 O537 1.282 . S
C547 O548 1.216 . S
O548 C547 1.216 . S
H549 C544 0.930 . S
H550 C545 0.930 . S
O551 Cu531 1.959 . S
O551 C538 1.251 . S
H552 C535 0.930 . S
H553 C546 0.929 . S
Cu554 N555 2.005 . S
Cu554 O560 1.980 . S
Cu554 N565 1.980 1_655 S
Cu554 O574 1.953 1_655 S
N555 Cu554 2.005 . S
N555 C557 1.263 . S
N555 C559 1.389 . S
N556 C557 1.358 . S
N556 C558 1.400 . S
C557 N555 1.263 . S
C557 N556 1.358 . S
C557 H563 0.930 . S
C558 N556 1.400 . S
C558 C559 1.351 . S
C558 H575 0.930 . S
C559 N555 1.389 . S
C559 C558 1.351 . S
C559 H564 0.930 . S
O560 Cu554 1.980 . S
O560 C570 1.282 . S
C561 O562 1.261 . S
C561 O574 1.251 . S
O562 C561 1.261 . S
H563 C557 0.930 . S
H564 C559 0.930 . S
N565 Cu554 1.980 1_455 S
N565 C567 1.335 . S
N565 C568 1.390 . S
N566 C567 1.345 . S
N566 C569 1.336 . S
C567 N565 1.335 . S
C567 N566 1.345 . S
C567 H572 0.930 . S
C568 N565 1.390 . S
C568 C569 1.346 . S
C568 H573 0.930 . S
C569 N566 1.336 . S
C569 C568 1.346 . S
C569 H576 0.929 . S
C570 O560 1.282 . S
C570 O571 1.216 . S
O571 C570 1.216 . S
H572 C567 0.930 . S
H573 C568 0.930 . S
O574 Cu554 1.953 1_455 S
O574 C561 1.251 . S
H575 C558 0.930 . S
H576 C569 0.929 . S
Cu577 N578 2.036 . S
Cu577 O583 2.021 . S
Cu577 N588 1.951 1_545 S
Cu577 O597 1.913 1_545 S
N578 Cu577 2.036 . S
N578 C580 1.263 . S
N578 C582 1.389 . S
N579 C580 1.358 . S
N579 C581 1.400 . S
C580 N578 1.263 . S
C580 N579 1.358 . S
C580 H586 0.930 . S
C581 N579 1.400 . S
C581 C582 1.351 . S
C581 H598 0.930 . S
C582 N578 1.389 . S
C582 C581 1.351 . S
C582 H587 0.930 . S
O583 Cu577 2.021 . S
O583 C593 1.282 . S
C584 O585 1.261 . S
C584 O597 1.251 . S
O585 C584 1.261 . S
H586 C580 0.930 . S
H587 C582 0.930 . S
N588 Cu577 1.951 1_565 S
N588 C590 1.335 . S
N588 C591 1.390 . S
N589 C590 1.345 . S
N589 C592 1.336 . S
C590 N588 1.335 . S
C590 N589 1.345 . S
C590 H595 0.930 . S
C591 N588 1.390 . S
C591 C592 1.346 . S
C591 H596 0.930 . S
C592 N589 1.336 . S
C592 C591 1.346 . S
C592 H599 0.929 . S
C593 O583 1.282 . S
C593 O594 1.216 . S
O594 C593 1.216 . S
H595 C590 0.930 . S
H596 C591 0.930 . S
O597 Cu577 1.913 1_565 S
O597 C584 1.251 . S
H598 C581 0.930 . S
H599 C592 0.929 . S
Cu600 N601 1.999 . S
Cu600 O606 1.974 . S
Cu600 N611 1.984 . S
Cu600 O620 1.959 1_455 S
N601 Cu600 1.999 . S
N601 C603 1.263 . S
N601 C605 1.389 . S
N602 C603 1.358 . S
N602 C604 1.400 . S
C603 N601 1.263 . S
C603 N602 1.358 . S
C603 H609 0.930 . S
C604 N602 1.400 . S
C604 C605 1.351 . S
C604 H621 0.930 . S
C605 N601 1.389 . S
C605 C604 1.351 . S
C605 H610 0.930 . S
O606 Cu600 1.974 . S
O606 C616 1.282 . S
C607 O608 1.261 . S
C607 O620 1.251 . S
O608 C607 1.261 . S
H609 C603 0.930 . S
H610 C605 0.930 . S
N611 Cu600 1.984 . S
N611 C613 1.336 1_455 S
N611 C614 1.390 . S
N612 C613 1.345 . S
N612 C615 1.336 . S
C613 N611 1.336 1_655 S
C613 N612 1.345 . S
C613 H618 0.930 . S
C614 N611 1.390 . S
C614 C615 1.346 1_455 S
C614 H619 0.930 . S
C615 N612 1.336 . S
C615 C614 1.346 1_655 S
C615 H622 0.929 . S
C616 O606 1.282 . S
C616 O617 1.216 . S
O617 C616 1.216 . S
H618 C613 0.930 . S
H619 C614 0.930 . S
O620 Cu600 1.959 1_655 S
O620 C607 1.251 . S
H621 C604 0.930 . S
H622 C615 0.929 . S
Cu623 N624 1.999 . S
Cu623 O629 1.974 . S
Cu623 N634 1.985 . S
Cu623 O643 1.959 . S
N624 Cu623 1.999 . S
N624 C626 1.263 . S
N624 C628 1.389 . S
N625 C626 1.358 . S
N625 C627 1.400 . S
C626 N624 1.263 . S
C626 N625 1.358 . S
C626 H632 0.930 . S
C627 N625 1.400 . S
C627 C628 1.351 . S
C627 H644 0.930 . S
C628 N624 1.389 . S
C628 C627 1.351 . S
C628 H633 0.930 . S
O629 Cu623 1.974 . S
O629 C639 1.282 . S
C630 O631 1.261 . S
C630 O643 1.251 . S
O631 C630 1.261 . S
H632 C626 0.930 . S
H633 C628 0.930 . S
N634 Cu623 1.985 . S
N634 C636 1.335 . S
N634 C637 1.390 . S
N635 C636 1.345 . S
N635 C638 1.336 . S
C636 N634 1.335 . S
C636 N635 1.345 . S
C636 H641 0.930 . S
C637 N634 1.390 . S
C637 C638 1.346 . S
C637 H642 0.930 . S
C638 N635 1.336 . S
C638 C637 1.346 . S
C638 H645 0.929 . S
C639 O629 1.282 . S
C639 O640 1.216 . S
O640 C639 1.216 . S
H641 C636 0.930 . S
H642 C637 0.930 . S
O643 Cu623 1.959 . S
O643 C630 1.251 . S
H644 C627 0.930 . S
H645 C638 0.929 . S
Cu646 N647 1.999 . S
Cu646 O652 1.965 1_455 S
Cu646 N657 1.985 . S
Cu646 O666 1.959 . S
N647 Cu646 1.999 . S
N647 C649 1.263 1_455 S
N647 C651 1.389 . S
N648 C649 1.358 . S
N648 C650 1.400 . S
C649 N647 1.263 1_655 S
C649 N648 1.358 . S
C649 H655 0.930 . S
C650 N648 1.400 . S
C650 C651 1.351 1_655 S
C650 H667 0.930 . S
C651 N647 1.389 . S
C651 C650 1.351 1_455 S
C651 H656 0.930 . S
O652 Cu646 1.965 1_655 S
O652 C662 1.286 . S
C653 O654 1.261 . S
C653 O666 1.251 . S
O654 C653 1.261 . S
H655 C649 0.930 . S
H656 C651 0.930 . S
N657 Cu646 1.985 . S
N657 C659 1.335 . S
N657 C660 1.390 . S
N658 C659 1.345 . S
N658 C661 1.336 . S
C659 N657 1.335 . S
C659 N658 1.345 . S
C659 H664 0.930 . S
C660 N657 1.390 . S
C660 C661 1.346 . S
C660 H665 0.930 . S
C661 N658 1.336 . S
C661 C660 1.346 . S
C661 H668 0.929 . S
C662 O652 1.286 . S
C662 O663 1.216 1_655 S
O663 C662 1.216 1_455 S
H664 C659 0.930 . S
H665 C660 0.930 . S
O666 Cu646 1.959 . S
O666 C653 1.251 . S
H667 C650 0.930 . S
H668 C661 0.929 . S
Cu669 N670 1.999 . S
Cu669 O675 1.974 . S
Cu669 N680 1.985 1_545 S
Cu669 O689 1.974 . S
N670 Cu669 1.999 . S
N670 C672 1.263 . S
N670 C674 1.389 . S
N671 C672 1.358 . S
N671 C673 1.400 . S
C672 N670 1.263 . S
C672 N671 1.358 . S
C672 H678 0.930 . S
C673 N671 1.400 . S
C673 C674 1.351 . S
C673 H690 0.930 . S
C674 N670 1.389 . S
C674 C673 1.351 . S
C674 H679 0.930 . S
O675 Cu669 1.974 . S
O675 C685 1.282 . S
C676 O677 1.287 . S
C676 O689 1.245 1_565 S
O677 C676 1.287 . S
H678 C672 0.930 . S
H679 C674 0.930 . S
N680 Cu669 1.985 1_565 S
N680 C682 1.335 . S
N680 C683 1.392 . S
N681 C682 1.345 . S
N681 C684 1.336 . S
C682 N680 1.335 . S
C682 N681 1.345 . S
C682 H687 0.930 . S
C683 N680 1.392 . S
C683 C684 1.355 . S
C683 H688 0.921 1_565 S
C684 N681 1.336 . S
C684 C683 1.355 . S
C684 H691 0.929 . S
C685 O675 1.282 . S
C685 O686 1.216 . S
O686 C685 1.216 . S
H687 C682 0.930 . S
H688 C683 0.921 1_545 S
O689 Cu669 1.974 . S
O689 C676 1.245 1_545 S
H690 C673 0.930 . S
H691 C684 0.929 . S
Cu692 N693 1.999 . S
Cu692 O698 1.974 . S
Cu692 N703 1.985 . S
Cu692 O712 1.959 . S
N693 Cu692 1.999 . S
N693 C695 1.263 . S
N693 C697 1.389 . S
N694 C695 1.358 . S
N694 C696 1.400 . S
C695 N693 1.263 . S
C695 N694 1.358 . S
C695 H701 0.930 . S
C696 N694 1.400 . S
C696 C697 1.351 . S
C696 H713 0.930 . S
C697 N693 1.389 . S
C697 C696 1.351 . S
C697 H702 0.930 . S
O698 Cu692 1.974 . S
O698 C708 1.282 . S
C699 O700 1.261 . S
C699 O712 1.251 . S
O700 C699 1.261 . S
H701 C695 0.930 . S
H702 C697 0.930 . S
N703 Cu692 1.985 . S
N703 C705 1.335 . S
N703 C706 1.390 . S
N704 C705 1.345 . S
N704 C707 1.336 . S
C705 N703 1.335 . S
C705 N704 1.345 . S
C705 H710 0.930 . S
C706 N703 1.390 . S
C706 C707 1.346 . S
C706 H711 0.930 . S
C707 N704 1.336 . S
C707 C706 1.346 . S
C707 H714 0.929 . S
C708 O698 1.282 . S
C708 O709 1.216 . S
O709 C708 1.216 . S
H710 C705 0.930 . S
H711 C706 0.930 . S
O712 Cu692 1.959 . S
O712 C699 1.251 . S
H713 C696 0.930 . S
H714 C707 0.929 . S
Cu715 N716 1.999 . S
Cu715 O721 1.974 . S
Cu715 N726 1.985 . S
Cu715 O735 1.959 . S
N716 Cu715 1.999 . S
N716 C718 1.263 . S
N716 C720 1.389 . S
N717 C718 1.358 . S
N717 C719 1.400 . S
C718 N716 1.263 . S
C718 N717 1.358 . S
C718 H724 0.930 . S
C719 N717 1.400 . S
C719 C720 1.351 . S
C719 H736 0.930 . S
C720 N716 1.389 . S
C720 C719 1.351 . S
C720 H725 0.930 . S
O721 Cu715 1.974 . S
O721 C731 1.282 . S
C722 O723 1.261 . S
C722 O735 1.251 . S
O723 C722 1.261 . S
H724 C718 0.930 . S
H725 C720 0.930 . S
N726 Cu715 1.985 . S
N726 C728 1.335 . S
N726 C729 1.390 . S
N727 C728 1.345 . S
N727 C730 1.336 . S
C728 N726 1.335 . S
C728 N727 1.345 . S
C728 H733 0.930 . S
C729 N726 1.390 . S
C729 C730 1.346 . S
C729 H734 0.930 . S
C730 N727 1.336 . S
C730 C729 1.346 . S
C730 H737 0.929 . S
C731 O721 1.282 . S
C731 O732 1.216 . S
O732 C731 1.216 . S
H733 C728 0.930 . S
H734 C729 0.930 . S
O735 Cu715 1.959 . S
O735 C722 1.251 . S
H736 C719 0.930 . S
H737 C730 0.929 . S
Cu738 N739 1.999 . S
Cu738 O744 1.974 . S
Cu738 N749 1.985 . S
Cu738 O758 1.959 . S
N739 Cu738 1.999 . S
N739 C741 1.263 . S
N739 C743 1.389 . S
N740 C741 1.358 . S
N740 C742 1.400 . S
C741 N739 1.263 . S
C741 N740 1.358 . S
C741 H747 0.930 . S
C742 N740 1.400 . S
C742 C743 1.351 . S
C742 H759 0.930 . S
C743 N739 1.389 . S
C743 C742 1.351 . S
C743 H748 0.930 . S
O744 Cu738 1.974 . S
O744 C754 1.282 . S
C745 O746 1.261 . S
C745 O758 1.251 . S
O746 C745 1.261 . S
H747 C741 0.930 . S
H748 C743 0.930 . S
N749 Cu738 1.985 . S
N749 C751 1.335 . S
N749 C752 1.390 . S
N750 C751 1.345 . S
N750 C753 1.336 . S
C751 N749 1.335 . S
C751 N750 1.345 . S
C751 H756 0.930 . S
C752 N749 1.390 . S
C752 C753 1.346 . S
C752 H757 0.930 . S
C753 N750 1.336 . S
C753 C752 1.346 . S
C753 H760 0.929 . S
C754 O744 1.282 . S
C754 O755 1.216 . S
O755 C754 1.216 . S
H756 C751 0.930 . S
H757 C752 0.930 . S
O758 Cu738 1.959 . S
O758 C745 1.251 . S
H759 C742 0.930 . S
H760 C753 0.929 . S
Cu761 N762 1.999 . S
Cu761 O767 1.974 . S
Cu761 N772 1.985 . S
Cu761 O781 1.959 . S
N762 Cu761 1.999 . S
N762 C764 1.263 . S
N762 C766 1.389 . S
N763 C764 1.358 . S
N763 C765 1.400 . S
C764 N762 1.263 . S
C764 N763 1.358 . S
C764 H770 0.930 . S
C765 N763 1.400 . S
C765 C766 1.351 . S
C765 H782 0.930 . S
C766 N762 1.389 . S
C766 C765 1.351 . S
C766 H771 0.930 . S
O767 Cu761 1.974 . S
O767 C777 1.282 . S
C768 O769 1.261 . S
C768 O781 1.251 . S
O769 C768 1.261 . S
H770 C764 0.930 . S
H771 C766 0.930 . S
N772 Cu761 1.985 . S
N772 C774 1.335 . S
N772 C775 1.390 . S
N773 C774 1.345 . S
N773 C776 1.336 . S
C774 N772 1.335 . S
C774 N773 1.345 . S
C774 H779 0.930 . S
C775 N772 1.390 . S
C775 C776 1.346 . S
C775 H780 0.930 . S
C776 N773 1.336 . S
C776 C775 1.346 . S
C776 H783 0.929 . S
C777 O767 1.282 . S
C777 O778 1.216 . S
O778 C777 1.216 . S
H779 C774 0.930 . S
H780 C775 0.930 . S
O781 Cu761 1.959 . S
O781 C768 1.251 . S
H782 C765 0.930 . S
H783 C776 0.929 . S
Cu784 N785 1.999 . S
Cu784 O790 1.974 . S
Cu784 N795 1.985 . S
Cu784 O804 1.959 . S
N785 Cu784 1.999 . S
N785 C787 1.263 . S
N785 C789 1.389 . S
N786 C787 1.358 . S
N786 C788 1.400 . S
C787 N785 1.263 . S
C787 N786 1.358 . S
C787 H793 0.930 . S
C788 N786 1.400 . S
C788 C789 1.351 . S
C788 H805 0.930 . S
C789 N785 1.389 . S
C789 C788 1.351 . S
C789 H794 0.930 . S
O790 Cu784 1.974 . S
O790 C800 1.282 . S
C791 O792 1.261 . S
C791 O804 1.251 . S
O792 C791 1.261 . S
H793 C787 0.930 . S
H794 C789 0.930 . S
N795 Cu784 1.985 . S
N795 C797 1.335 . S
N795 C798 1.390 . S
N796 C797 1.345 . S
N796 C799 1.336 . S
C797 N795 1.335 . S
C797 N796 1.345 . S
C797 H802 0.930 . S
C798 N795 1.390 . S
C798 C799 1.346 . S
C798 H803 0.930 . S
C799 N796 1.336 . S
C799 C798 1.346 . S
C799 H806 0.929 . S
C800 O790 1.282 . S
C800 O801 1.216 . S
O801 C800 1.216 . S
H802 C797 0.930 . S
H803 C798 0.930 . S
O804 Cu784 1.959 . S
O804 C791 1.251 . S
H805 C788 0.930 . S
H806 C799 0.929 . S
Cu807 N808 1.999 . S
Cu807 O813 1.974 . S
Cu807 N818 1.985 . S
Cu807 O827 1.959 . S
N808 Cu807 1.999 . S
N808 C810 1.263 . S
N808 C812 1.389 . S
N809 C810 1.358 . S
N809 C811 1.400 . S
C810 N808 1.263 . S
C810 N809 1.358 . S
C810 H816 0.930 . S
C811 N809 1.400 . S
C811 C812 1.351 . S
C811 H828 0.930 . S
C812 N808 1.389 . S
C812 C811 1.351 . S
C812 H817 0.930 . S
O813 Cu807 1.974 . S
O813 C823 1.282 . S
C814 O815 1.261 . S
C814 O827 1.251 . S
O815 C814 1.261 . S
H816 C810 0.930 . S
H817 C812 0.930 . S
N818 Cu807 1.985 . S
N818 C820 1.335 . S
N818 C821 1.390 . S
N819 C820 1.345 . S
N819 C822 1.336 . S
C820 N818 1.335 . S
C820 N819 1.345 . S
C820 H825 0.930 . S
C821 N818 1.390 . S
C821 C822 1.346 . S
C821 H826 0.930 . S
C822 N819 1.336 . S
C822 C821 1.346 . S
C822 H829 0.929 . S
C823 O813 1.282 . S
C823 O824 1.216 . S
O824 C823 1.216 . S
H825 C820 0.930 . S
H826 C821 0.930 . S
O827 Cu807 1.959 . S
O827 C814 1.251 . S
H828 C811 0.930 . S
H829 C822 0.929 . S
Cu830 N831 1.999 . S
Cu830 O836 1.974 . S
Cu830 N841 1.985 . S
Cu830 O850 1.959 . S
N831 Cu830 1.999 . S
N831 C833 1.263 . S
N831 C835 1.389 . S
N832 C833 1.358 . S
N832 C834 1.400 . S
C833 N831 1.263 . S
C833 N832 1.358 . S
C833 H839 0.930 . S
C834 N832 1.400 . S
C834 C835 1.351 . S
C834 H851 0.930 . S
C835 N831 1.389 . S
C835 C834 1.351 . S
C835 H840 0.930 . S
O836 Cu830 1.974 . S
O836 C846 1.282 . S
C837 O838 1.261 . S
C837 O850 1.251 . S
O838 C837 1.261 . S
H839 C833 0.930 . S
H840 C835 0.930 . S
N841 Cu830 1.985 . S
N841 C843 1.335 . S
N841 C844 1.390 . S
N842 C843 1.345 . S
N842 C845 1.336 . S
C843 N841 1.335 . S
C843 N842 1.345 . S
C843 H848 0.930 . S
C844 N841 1.390 . S
C844 C845 1.346 . S
C844 H849 0.930 . S
C845 N842 1.336 . S
C845 C844 1.346 . S
C845 H852 0.929 . S
C846 O836 1.282 . S
C846 O847 1.216 . S
O847 C846 1.216 . S
H848 C843 0.930 . S
H849 C844 0.930 . S
O850 Cu830 1.959 . S
O850 C837 1.251 . S
H851 C834 0.930 . S
H852 C845 0.929 . S
Cu853 N854 1.999 . S
Cu853 O859 1.974 . S
Cu853 N864 1.985 . S
Cu853 O873 1.959 . S
N854 Cu853 1.999 . S
N854 C856 1.263 . S
N854 C858 1.389 . S
N855 C856 1.358 . S
N855 C857 1.400 . S
C856 N854 1.263 . S
C856 N855 1.358 . S
C856 H862 0.930 . S
C857 N855 1.400 . S
C857 C858 1.351 . S
C857 H874 0.930 . S
C858 N854 1.389 . S
C858 C857 1.351 . S
C858 H863 0.930 . S
O859 Cu853 1.974 . S
O859 C869 1.282 . S
C860 O861 1.261 . S
C860 O873 1.251 . S
O861 C860 1.261 . S
H862 C856 0.930 . S
H863 C858 0.930 . S
N864 Cu853 1.985 . S
N864 C866 1.335 . S
N864 C867 1.390 . S
N865 C866 1.345 . S
N865 C868 1.336 . S
C866 N864 1.335 . S
C866 N865 1.345 . S
C866 H871 0.930 . S
C867 N864 1.390 . S
C867 C868 1.346 . S
C867 H872 0.930 . S
C868 N865 1.336 . S
C868 C867 1.346 . S
C868 H875 0.929 . S
C869 O859 1.282 . S
C869 O870 1.216 . S
O870 C869 1.216 . S
H871 C866 0.930 . S
H872 C867 0.930 . S
O873 Cu853 1.959 . S
O873 C860 1.251 . S
H874 C857 0.930 . S
H875 C868 0.929 . S
Cu876 N877 1.999 . S
Cu876 O882 1.974 . S
Cu876 N887 1.985 . S
Cu876 O896 1.959 . S
N877 Cu876 1.999 . S
N877 C879 1.263 . S
N877 C881 1.389 . S
N878 C879 1.358 . S
N878 C880 1.400 . S
C879 N877 1.263 . S
C879 N878 1.358 . S
C879 H885 0.930 . S
C880 N878 1.400 . S
C880 C881 1.351 . S
C880 H897 0.930 . S
C881 N877 1.389 . S
C881 C880 1.351 . S
C881 H886 0.930 . S
O882 Cu876 1.974 . S
O882 C892 1.282 . S
C883 O884 1.261 . S
C883 O896 1.251 . S
O884 C883 1.261 . S
H885 C879 0.930 . S
H886 C881 0.930 . S
N887 Cu876 1.985 . S
N887 C889 1.335 . S
N887 C890 1.390 . S
N888 C889 1.345 . S
N888 C891 1.336 . S
C889 N887 1.335 . S
C889 N888 1.345 . S
C889 H894 0.930 . S
C890 N887 1.390 . S
C890 C891 1.346 . S
C890 H895 0.930 . S
C891 N888 1.336 . S
C891 C890 1.346 . S
C891 H898 0.929 . S
C892 O882 1.282 . S
C892 O893 1.216 . S
O893 C892 1.216 . S
H894 C889 0.930 . S
H895 C890 0.930 . S
O896 Cu876 1.959 . S
O896 C883 1.251 . S
H897 C880 0.930 . S
H898 C891 0.929 . S
Cu899 N900 1.999 . S
Cu899 O905 1.974 . S
Cu899 N910 1.985 . S
Cu899 O919 1.959 . S
N900 Cu899 1.999 . S
N900 C902 1.263 . S
N900 C904 1.389 . S
N901 C902 1.358 . S
N901 C903 1.400 . S
C902 N900 1.263 . S
C902 N901 1.358 . S
C902 H908 0.930 . S
C903 N901 1.400 . S
C903 C904 1.351 . S
C903 H920 0.930 . S
C904 N900 1.389 . S
C904 C903 1.351 . S
C904 H909 0.930 . S
O905 Cu899 1.974 . S
O905 C915 1.282 . S
C906 O907 1.261 . S
C906 O919 1.251 . S
O907 C906 1.261 . S
H908 C902 0.930 . S
H909 C904 0.930 . S
N910 Cu899 1.985 . S
N910 C912 1.335 . S
N910 C913 1.390 . S
N911 C912 1.345 . S
N911 C914 1.336 . S
C912 N910 1.335 . S
C912 N911 1.345 . S
C912 H917 0.930 . S
C913 N910 1.390 . S
C913 C914 1.346 . S
C913 H918 0.930 . S
C914 N911 1.336 . S
C914 C913 1.346 . S
C914 H921 0.929 . S
C915 O905 1.282 . S
C915 O916 1.216 . S
O916 C915 1.216 . S
H917 C912 0.930 . S
H918 C913 0.930 . S
O919 Cu899 1.959 . S
O919 C906 1.251 . S
H920 C903 0.930 . S
H921 C914 0.929 . S
Cu922 N923 1.999 . S
Cu922 O928 1.974 . S
Cu922 N933 1.985 . S
Cu922 O942 1.959 . S
N923 Cu922 1.999 . S
N923 C925 1.263 . S
N923 C927 1.389 . S
N924 C925 1.358 . S
N924 C926 1.400 . S
C925 N923 1.263 . S
C925 N924 1.358 . S
C925 H931 0.930 . S
C926 N924 1.400 . S
C926 C927 1.351 . S
C926 H943 0.930 . S
C927 N923 1.389 . S
C927 C926 1.351 . S
C927 H932 0.930 . S
O928 Cu922 1.974 . S
O928 C938 1.282 . S
C929 O930 1.261 . S
C929 O942 1.251 . S
O930 C929 1.261 . S
H931 C925 0.930 . S
H932 C927 0.930 . S
N933 Cu922 1.985 . S
N933 C935 1.335 . S
N933 C936 1.390 . S
N934 C935 1.345 . S
N934 C937 1.336 . S
C935 N933 1.335 . S
C935 N934 1.345 . S
C935 H940 0.930 . S
C936 N933 1.390 . S
C936 C937 1.346 . S
C936 H941 0.930 . S
C937 N934 1.336 . S
C937 C936 1.346 . S
C937 H944 0.929 . S
C938 O928 1.282 . S
C938 O939 1.216 . S
O939 C938 1.216 . S
H940 C935 0.930 . S
H941 C936 0.930 . S
O942 Cu922 1.959 . S
O942 C929 1.251 . S
H943 C926 0.930 . S
H944 C937 0.929 . S
Cu945 N946 1.999 . S
Cu945 O951 1.974 . S
Cu945 N956 1.985 . S
Cu945 O965 1.959 . S
N946 Cu945 1.999 . S
N946 C948 1.263 . S
N946 C950 1.389 . S
N947 C948 1.358 . S
N947 C949 1.400 . S
C948 N946 1.263 . S
C948 N947 1.358 . S
C948 H954 0.930 . S
C949 N947 1.400 . S
C949 C950 1.351 . S
C949 H966 0.930 . S
C950 N946 1.389 . S
C950 C949 1.351 . S
C950 H955 0.930 . S
O951 Cu945 1.974 . S
O951 C961 1.282 . S
C952 O953 1.261 . S
C952 O965 1.251 . S
O953 C952 1.261 . S
H954 C948 0.930 . S
H955 C950 0.930 . S
N956 Cu945 1.985 . S
N956 C958 1.335 . S
N956 C959 1.390 . S
N957 C958 1.345 . S
N957 C960 1.336 . S
C958 N956 1.335 . S
C958 N957 1.345 . S
C958 H963 0.930 . S
C959 N956 1.390 . S
C959 C960 1.346 . S
C959 H964 0.930 . S
C960 N957 1.336 . S
C960 C959 1.346 . S
C960 H967 0.929 . S
C961 O951 1.282 . S
C961 O962 1.216 . S
O962 C961 1.216 . S
H963 C958 0.930 . S
H964 C959 0.930 . S
O965 Cu945 1.959 . S
O965 C952 1.251 . S
H966 C949 0.930 . S
H967 C960 0.929 . S
H968 C976 0.950 . S
H969 C981 0.950 . S
H970 C978 0.950 . S
H971 C980 0.950 . S
H972 C982 0.950 . S
H973 C984 0.950 . S
H974 C986 0.950 . S
H975 C987 0.950 . S
C976 H968 0.950 . S
C976 C977 1.386 . S
C976 C978 1.391 . S
C977 C976 1.386 . S
C977 C981 1.393 . S
C978 H970 0.950 . S
C978 C976 1.391 . S
C978 C979 1.400 . S
C979 C978 1.400 . S
C979 C980 1.398 . S
C979 C985 1.491 . S
C980 H971 0.950 . S
C980 C979 1.398 . S
C980 C981 1.391 . S
C981 H969 0.950 . S
C981 C977 1.393 . S
C981 C980 1.391 . S
C982 H972 0.950 . S
C982 C983 1.386 . S
C982 C984 1.391 . S
C983 C982 1.386 . S
C983 C987 1.393 . S
C984 H973 0.950 . S
C984 C982 1.391 . S
C984 C985 1.400 . S
C985 C979 1.491 . S
C985 C984 1.400 . S
C985 C986 1.398 . S
C986 H974 0.950 . S
C986 C985 1.398 . S
C986 C987 1.391 . S
C987 H975 0.950 . S
C987 C983 1.393 . S
C987 C986 1.391 . S
H988 C996 0.950 . S
H989 C1001 0.950 . S
H990 C998 0.950 . S
H991 C1000 0.950 . S
H992 C1002 0.950 . S
H993 C1004 0.950 . S
H994 C1006 0.950 . S
H995 C1007 0.950 . S
C996 H988 0.950 . S
C996 C997 1.386 . S
C996 C998 1.391 . S
C997 C996 1.386 . S
C997 C1001 1.393 . S
C998 H990 0.950 . S
C998 C996 1.391 . S
C998 C999 1.400 . S
C999 C998 1.400 . S
C999 C1000 1.398 . S
C999 C1005 1.491 . S
C1000 H991 0.950 . S
C1000 C999 1.398 . S
C1000 C1001 1.391 . S
C1001 H989 0.950 . S
C1001 C997 1.393 . S
C1001 C1000 1.391 . S
C1002 H992 0.950 . S
C1002 C1003 1.386 . S
C1002 C1004 1.391 . S
C1003 C1002 1.386 . S
C1003 C1007 1.393 . S
C1004 H993 0.950 . S
C1004 C1002 1.391 . S
C1004 C1005 1.400 . S
C1005 C999 1.491 . S
C1005 C1004 1.400 . S
C1005 C1006 1.398 . S
C1006 H994 0.950 . S
C1006 C1005 1.398 . S
C1006 C1007 1.391 . S
C1007 H995 0.950 . S
C1007 C1003 1.393 . S
C1007 C1006 1.391 . S
H1008 C1016 0.950 . S
H1009 C1021 0.950 . S
H1010 C1018 0.950 . S
H1011 C1020 0.950 . S
H1012 C1022 0.950 . S
H1013 C1024 0.950 . S
H1014 C1026 0.950 . S
H1015 C1027 0.950 . S
C1016 H1008 0.950 . S
C1016 C1017 1.386 . S
C1016 C1018 1.391 . S
C1017 C1016 1.386 . S
C1017 C1021 1.393 . S
C1018 H1010 0.950 . S
C1018 C1016 1.391 . S
C1018 C1019 1.400 . S
C1019 C1018 1.400 . S
C1019 C1020 1.398 . S
C1019 C1025 1.491 . S
C1020 H1011 0.950 . S
C1020 C1019 1.398 . S
C1020 C1021 1.391 . S
C1021 H1009 0.950 . S
C1021 C1017 1.393 . S
C1021 C1020 1.391 . S
C1022 H1012 0.950 . S
C1022 C1023 1.386 . S
C1022 C1024 1.391 . S
C1023 C1022 1.386 . S
C1023 C1027 1.393 . S
C1024 H1013 0.950 . S
C1024 C1022 1.391 . S
C1024 C1025 1.400 . S
C1025 C1019 1.491 . S
C1025 C1024 1.400 . S
C1025 C1026 1.398 . S
C1026 H1014 0.950 . S
C1026 C1025 1.398 . S
C1026 C1027 1.391 . S
C1027 H1015 0.950 . S
C1027 C1023 1.393 . S
C1027 C1026 1.391 . S
H1028 C1036 0.950 . S
H1029 C1041 0.950 . S
H1030 C1038 0.950 . S
H1031 C1040 0.950 . S
H1032 C1042 0.950 . S
H1033 C1044 0.950 . S
H1034 C1046 0.950 . S
H1035 C1047 0.950 . S
C1036 H1028 0.950 . S
C1036 C1037 1.386 . S
C1036 C1038 1.391 . S
C1037 C1036 1.386 . S
C1037 C1041 1.393 . S
C1038 H1030 0.950 . S
C1038 C1036 1.391 . S
C1038 C1039 1.400 . S
C1039 C1038 1.400 . S
C1039 C1040 1.398 . S
C1039 C1045 1.491 . S
C1040 H1031 0.950 . S
C1040 C1039 1.398 . S
C1040 C1041 1.391 . S
C1041 H1029 0.950 . S
C1041 C1037 1.393 . S
C1041 C1040 1.391 . S
C1042 H1032 0.950 . S
C1042 C1043 1.386 . S
C1042 C1044 1.391 . S
C1043 C1042 1.386 . S
C1043 C1047 1.393 . S
C1044 H1033 0.950 . S
C1044 C1042 1.391 . S
C1044 C1045 1.400 . S
C1045 C1039 1.491 . S
C1045 C1044 1.400 . S
C1045 C1046 1.398 . S
C1046 H1034 0.950 . S
C1046 C1045 1.398 . S
C1046 C1047 1.391 . S
C1047 H1035 0.950 . S
C1047 C1043 1.393 . S
C1047 C1046 1.391 . S
H1048 C1056 0.950 . S
H1049 C1061 0.950 . S
H1050 C1058 0.950 . S
H1051 C1060 0.950 . S
H1052 C1062 0.950 . S
H1053 C1064 0.950 . S
H1054 C1066 0.950 . S
H1055 C1067 0.950 . S
C1056 H1048 0.950 . S
C1056 C1057 1.386 . S
C1056 C1058 1.391 . S
C1057 C1056 1.386 . S
C1057 C1061 1.393 . S
C1058 H1050 0.950 . S
C1058 C1056 1.391 . S
C1058 C1059 1.400 . S
C1059 C1058 1.400 . S
C1059 C1060 1.398 . S
C1059 C1065 1.491 . S
C1060 H1051 0.950 . S
C1060 C1059 1.398 . S
C1060 C1061 1.391 . S
C1061 H1049 0.950 . S
C1061 C1057 1.393 . S
C1061 C1060 1.391 . S
C1062 H1052 0.950 . S
C1062 C1063 1.386 . S
C1062 C1064 1.391 . S
C1063 C1062 1.386 . S
C1063 C1067 1.393 . S
C1064 H1053 0.950 . S
C1064 C1062 1.391 . S
C1064 C1065 1.400 . S
C1065 C1059 1.491 . S
C1065 C1064 1.400 . S
C1065 C1066 1.398 . S
C1066 H1054 0.950 . S
C1066 C1065 1.398 . S
C1066 C1067 1.391 . S
C1067 H1055 0.950 . S
C1067 C1063 1.393 . S
C1067 C1066 1.391 . S
H1068 C1076 0.950 . S
H1069 C1081 0.950 . S
H1070 C1078 0.950 . S
H1071 C1080 0.950 . S
H1072 C1082 0.950 1_554 S
H1073 C1084 0.950 . S
H1074 C1086 0.950 . S
H1075 C1087 0.950 . S
C1076 H1068 0.950 . S
C1076 C1077 1.386 . S
C1076 C1078 1.391 . S
C1077 C1076 1.386 . S
C1077 C1081 1.393 . S
C1078 H1070 0.950 . S
C1078 C1076 1.391 . S
C1078 C1079 1.400 . S
C1079 C1078 1.400 . S
C1079 C1080 1.398 . S
C1079 C1085 1.491 . S
C1080 H1071 0.950 . S
C1080 C1079 1.398 . S
C1080 C1081 1.391 . S
C1081 H1069 0.950 . S
C1081 C1077 1.393 . S
C1081 C1080 1.391 . S
C1082 H1072 0.950 1_556 S
C1082 C1083 1.386 . S
C1082 C1084 1.391 . S
C1083 C1082 1.386 . S
C1083 C1087 1.393 . S
C1084 H1073 0.950 . S
C1084 C1082 1.391 . S
C1084 C1085 1.400 . S
C1085 C1079 1.491 . S
C1085 C1084 1.400 . S
C1085 C1086 1.398 . S
C1086 H1074 0.950 . S
C1086 C1085 1.398 . S
C1086 C1087 1.391 . S
C1087 H1075 0.950 . S
C1087 C1083 1.393 . S
C1087 C1086 1.391 . S
H1088 C1096 0.950 . S
H1089 C1101 0.950 . S
H1090 C1098 0.950 . S
H1091 C1100 0.950 . S
H1092 C1102 0.950 . S
H1093 C1104 0.950 . S
H1094 C1106 0.950 . S
H1095 C1107 0.950 . S
C1096 H1088 0.950 . S
C1096 C1097 1.386 . S
C1096 C1098 1.391 . S
C1097 C1096 1.386 . S
C1097 C1101 1.393 . S
C1098 H1090 0.950 . S
C1098 C1096 1.391 . S
C1098 C1099 1.400 . S
C1099 C1098 1.400 . S
C1099 C1100 1.398 . S
C1099 C1105 1.491 . S
C1100 H1091 0.950 . S
C1100 C1099 1.398 . S
C1100 C1101 1.391 . S
C1101 H1089 0.950 . S
C1101 C1097 1.393 . S
C1101 C1100 1.391 . S
C1102 H1092 0.950 . S
C1102 C1103 1.386 . S
C1102 C1104 1.391 . S
C1103 C1102 1.386 . S
C1103 C1107 1.393 . S
C1104 H1093 0.950 . S
C1104 C1102 1.391 . S
C1104 C1105 1.400 . S
C1105 C1099 1.491 . S
C1105 C1104 1.400 . S
C1105 C1106 1.398 . S
C1106 H1094 0.950 . S
C1106 C1105 1.398 . S
C1106 C1107 1.391 . S
C1107 H1095 0.950 . S
C1107 C1103 1.393 . S
C1107 C1106 1.391 . S
H1108 C1116 0.950 . S
H1109 C1121 0.950 . S
H1110 C1118 0.950 . S
H1111 C1120 0.950 . S
H1112 C1122 0.950 . S
H1113 C1124 0.950 . S
H1114 C1126 0.950 . S
H1115 C1127 0.950 . S
C1116 H1108 0.950 . S
C1116 C1117 1.386 . S
C1116 C1118 1.391 . S
C1117 C1116 1.386 . S
C1117 C1121 1.393 . S
C1118 H1110 0.950 . S
C1118 C1116 1.391 . S
C1118 C1119 1.400 . S
C1119 C1118 1.400 . S
C1119 C1120 1.398 . S
C1119 C1125 1.491 . S
C1120 H1111 0.950 . S
C1120 C1119 1.398 . S
C1120 C1121 1.391 . S
C1121 H1109 0.950 . S
C1121 C1117 1.393 . S
C1121 C1120 1.391 . S
C1122 H1112 0.950 . S
C1122 C1123 1.386 . S
C1122 C1124 1.391 . S
C1123 C1122 1.386 . S
C1123 C1127 1.393 . S
C1124 H1113 0.950 . S
C1124 C1122 1.391 . S
C1124 C1125 1.400 . S
C1125 C1119 1.491 . S
C1125 C1124 1.400 . S
C1125 C1126 1.398 . S
C1126 H1114 0.950 . S
C1126 C1125 1.398 . S
C1126 C1127 1.391 . S
C1127 H1115 0.950 . S
C1127 C1123 1.393 . S
C1127 C1126 1.391 . S
H1128 C1136 0.950 . S
H1129 C1141 0.950 . S
H1130 C1138 0.950 . S
H1131 C1140 0.950 . S
H1132 C1142 0.950 . S
H1133 C1144 0.950 . S
H1134 C1146 0.950 . S
H1135 C1147 0.950 . S
C1136 H1128 0.950 . S
C1136 C1137 1.386 . S
C1136 C1138 1.391 . S
C1137 C1136 1.386 . S
C1137 C1141 1.393 . S
C1138 H1130 0.950 . S
C1138 C1136 1.391 . S
C1138 C1139 1.400 . S
C1139 C1138 1.400 . S
C1139 C1140 1.398 . S
C1139 C1145 1.491 . S
C1140 H1131 0.950 . S
C1140 C1139 1.398 . S
C1140 C1141 1.391 . S
C1141 H1129 0.950 . S
C1141 C1137 1.393 . S
C1141 C1140 1.391 . S
C1142 H1132 0.950 . S
C1142 C1143 1.386 . S
C1142 C1144 1.391 . S
C1143 C1142 1.386 . S
C1143 C1147 1.393 . S
C1144 H1133 0.950 . S
C1144 C1142 1.391 . S
C1144 C1145 1.400 . S
C1145 C1139 1.491 . S
C1145 C1144 1.400 . S
C1145 C1146 1.398 . S
C1146 H1134 0.950 . S
C1146 C1145 1.398 . S
C1146 C1147 1.391 . S
C1147 H1135 0.950 . S
C1147 C1143 1.393 . S
C1147 C1146 1.391 . S
H1148 C1156 0.950 . S
H1149 C1161 0.950 . S
H1150 C1158 0.950 . S
H1151 C1160 0.950 . S
H1152 C1162 0.950 . S
H1153 C1164 0.950 . S
H1154 C1166 0.950 . S
H1155 C1167 0.950 . S
C1156 H1148 0.950 . S
C1156 C1157 1.386 . S
C1156 C1158 1.391 . S
C1157 C1156 1.386 . S
C1157 C1161 1.393 . S
C1158 H1150 0.950 . S
C1158 C1156 1.391 . S
C1158 C1159 1.400 . S
C1159 C1158 1.400 . S
C1159 C1160 1.398 . S
C1159 C1165 1.491 . S
C1160 H1151 0.950 . S
C1160 C1159 1.398 . S
C1160 C1161 1.391 . S
C1161 H1149 0.950 . S
C1161 C1157 1.393 . S
C1161 C1160 1.391 . S
C1162 H1152 0.950 . S
C1162 C1163 1.386 . S
C1162 C1164 1.391 . S
C1163 C1162 1.386 . S
C1163 C1167 1.393 . S
C1164 H1153 0.950 . S
C1164 C1162 1.391 . S
C1164 C1165 1.400 . S
C1165 C1159 1.491 . S
C1165 C1164 1.400 . S
C1165 C1166 1.398 . S
C1166 H1154 0.950 . S
C1166 C1165 1.398 . S
C1166 C1167 1.391 . S
C1167 H1155 0.950 . S
C1167 C1163 1.393 . S
C1167 C1166 1.391 . S
H1168 C1176 0.950 . S
H1169 C1181 0.950 . S
H1170 C1178 0.950 . S
H1171 C1180 0.950 . S
H1172 C1182 0.950 . S
H1173 C1184 0.950 . S
H1174 C1186 0.950 . S
H1175 C1187 0.950 . S
C1176 H1168 0.950 . S
C1176 C1177 1.386 . S
C1176 C1178 1.391 . S
C1177 C1176 1.386 . S
C1177 C1181 1.393 . S
C1178 H1170 0.950 . S
C1178 C1176 1.391 . S
C1178 C1179 1.400 . S
C1179 C1178 1.400 . S
C1179 C1180 1.398 . S
C1179 C1185 1.491 . S
C1180 H1171 0.950 . S
C1180 C1179 1.398 . S
C1180 C1181 1.391 . S
C1181 H1169 0.950 . S
C1181 C1177 1.393 . S
C1181 C1180 1.391 . S
C1182 H1172 0.950 . S
C1182 C1183 1.386 . S
C1182 C1184 1.391 . S
C1183 C1182 1.386 . S
C1183 C1187 1.393 . S
C1184 H1173 0.950 . S
C1184 C1182 1.391 . S
C1184 C1185 1.400 . S
C1185 C1179 1.491 . S
C1185 C1184 1.400 . S
C1185 C1186 1.398 . S
C1186 H1174 0.950 . S
C1186 C1185 1.398 . S
C1186 C1187 1.391 . S
C1187 H1175 0.950 . S
C1187 C1183 1.393 . S
C1187 C1186 1.391 . S
H1188 C1196 0.950 . S
H1189 C1201 0.950 . S
H1190 C1198 0.950 . S
H1191 C1200 0.950 . S
H1192 C1202 0.950 . S
H1193 C1204 0.950 . S
H1194 C1206 0.950 . S
H1195 C1207 0.950 . S
C1196 H1188 0.950 . S
C1196 C1197 1.386 . S
C1196 C1198 1.391 . S
C1197 C1196 1.386 . S
C1197 C1201 1.393 . S
C1198 H1190 0.950 . S
C1198 C1196 1.391 . S
C1198 C1199 1.400 . S
C1199 C1198 1.400 . S
C1199 C1200 1.398 . S
C1199 C1205 1.491 . S
C1200 H1191 0.950 . S
C1200 C1199 1.398 . S
C1200 C1201 1.391 . S
C1201 H1189 0.950 . S
C1201 C1197 1.393 . S
C1201 C1200 1.391 . S
C1202 H1192 0.950 . S
C1202 C1203 1.386 . S
C1202 C1204 1.391 . S
C1203 C1202 1.386 . S
C1203 C1207 1.393 . S
C1204 H1193 0.950 . S
C1204 C1202 1.391 . S
C1204 C1205 1.400 . S
C1205 C1199 1.491 . S
C1205 C1204 1.400 . S
C1205 C1206 1.398 . S
C1206 H1194 0.950 . S
C1206 C1205 1.398 . S
C1206 C1207 1.391 . S
C1207 H1195 0.950 . S
C1207 C1203 1.393 . S
C1207 C1206 1.391 . S
H1208 C1216 0.950 . S
H1209 C1221 0.950 . S
H1210 C1218 0.950 . S
H1211 C1220 0.950 . S
H1212 C1222 0.950 . S
H1213 C1224 0.950 . S
H1214 C1226 0.950 . S
H1215 C1227 0.950 . S
C1216 H1208 0.950 . S
C1216 C1217 1.386 . S
C1216 C1218 1.391 . S
C1217 C1216 1.386 . S
C1217 C1221 1.393 . S
C1218 H1210 0.950 . S
C1218 C1216 1.391 . S
C1218 C1219 1.400 . S
C1219 C1218 1.400 . S
C1219 C1220 1.398 . S
C1219 C1225 1.491 . S
C1220 H1211 0.950 . S
C1220 C1219 1.398 . S
C1220 C1221 1.391 . S
C1221 H1209 0.950 . S
C1221 C1217 1.393 . S
C1221 C1220 1.391 . S
C1222 H1212 0.950 . S
C1222 C1223 1.386 . S
C1222 C1224 1.391 . S
C1223 C1222 1.386 . S
C1223 C1227 1.393 . S
C1224 H1213 0.950 . S
C1224 C1222 1.391 . S
C1224 C1225 1.400 . S
C1225 C1219 1.491 . S
C1225 C1224 1.400 . S
C1225 C1226 1.398 . S
C1226 H1214 0.950 . S
C1226 C1225 1.398 . S
C1226 C1227 1.391 . S
C1227 H1215 0.950 . S
C1227 C1223 1.393 . S
C1227 C1226 1.391 . S
H1228 C1236 0.950 . S
H1229 C1241 0.950 . S
H1230 C1238 0.950 . S
H1231 C1240 0.950 . S
H1232 C1242 0.950 . S
H1233 C1244 0.950 . S
H1234 C1246 0.950 . S
H1235 C1247 0.950 . S
C1236 H1228 0.950 . S
C1236 C1237 1.386 . S
C1236 C1238 1.391 . S
C1237 C1236 1.386 . S
C1237 C1241 1.393 . S
C1238 H1230 0.950 . S
C1238 C1236 1.391 . S
C1238 C1239 1.400 . S
C1239 C1238 1.400 . S
C1239 C1240 1.398 . S
C1239 C1245 1.491 . S
C1240 H1231 0.950 . S
C1240 C1239 1.398 . S
C1240 C1241 1.391 . S
C1241 H1229 0.950 . S
C1241 C1237 1.393 . S
C1241 C1240 1.391 . S
C1242 H1232 0.950 . S
C1242 C1243 1.386 . S
C1242 C1244 1.391 . S
C1243 C1242 1.386 . S
C1243 C1247 1.393 . S
C1244 H1233 0.950 . S
C1244 C1242 1.391 . S
C1244 C1245 1.400 . S
C1245 C1239 1.491 . S
C1245 C1244 1.400 . S
C1245 C1246 1.398 . S
C1246 H1234 0.950 . S
C1246 C1245 1.398 . S
C1246 C1247 1.391 . S
C1247 H1235 0.950 . S
C1247 C1243 1.393 . S
C1247 C1246 1.391 . S
H1248 C1256 0.950 . S
H1249 C1261 0.950 . S
H1250 C1258 0.950 . S
H1251 C1260 0.950 . S
H1252 C1262 0.950 . S
H1253 C1264 0.950 . S
H1254 C1266 0.950 . S
H1255 C1267 0.950 . S
C1256 H1248 0.950 . S
C1256 C1257 1.386 . S
C1256 C1258 1.391 . S
C1257 C1256 1.386 . S
C1257 C1261 1.393 . S
C1258 H1250 0.950 . S
C1258 C1256 1.391 . S
C1258 C1259 1.400 . S
C1259 C1258 1.400 . S
C1259 C1260 1.398 . S
C1259 C1265 1.491 . S
C1260 H1251 0.950 . S
C1260 C1259 1.398 . S
C1260 C1261 1.391 . S
C1261 H1249 0.950 . S
C1261 C1257 1.393 . S
C1261 C1260 1.391 . S
C1262 H1252 0.950 . S
C1262 C1263 1.386 . S
C1262 C1264 1.391 . S
C1263 C1262 1.386 . S
C1263 C1267 1.393 . S
C1264 H1253 0.950 . S
C1264 C1262 1.391 . S
C1264 C1265 1.400 . S
C1265 C1259 1.491 . S
C1265 C1264 1.400 . S
C1265 C1266 1.398 . S
C1266 H1254 0.950 . S
C1266 C1265 1.398 . S
C1266 C1267 1.391 . S
C1267 H1255 0.950 . S
C1267 C1263 1.393 . S
C1267 C1266 1.391 . S
H1268 C1276 0.950 . S
H1269 C1281 0.950 . S
H1270 C1278 0.950 . S
H1271 C1280 0.950 . S
H1272 C1282 0.950 . S
H1273 C1284 0.950 . S
H1274 C1286 0.950 . S
H1275 C1287 0.950 . S
C1276 H1268 0.950 . S
C1276 C1277 1.386 . S
C1276 C1278 1.391 . S
C1277 C1276 1.386 . S
C1277 C1281 1.393 . S
C1278 H1270 0.950 . S
C1278 C1276 1.391 . S
C1278 C1279 1.400 . S
C1279 C1278 1.400 . S
C1279 C1280 1.398 . S
C1279 C1285 1.491 . S
C1280 H1271 0.950 . S
C1280 C1279 1.398 . S
C1280 C1281 1.391 . S
C1281 H1269 0.950 . S
C1281 C1277 1.393 . S
C1281 C1280 1.391 . S
C1282 H1272 0.950 . S
C1282 C1283 1.386 . S
C1282 C1284 1.391 . S
C1283 C1282 1.386 . S
C1283 C1287 1.393 . S
C1284 H1273 0.950 . S
C1284 C1282 1.391 . S
C1284 C1285 1.400 . S
C1285 C1279 1.491 . S
C1285 C1284 1.400 . S
C1285 C1286 1.398 . S
C1286 H1274 0.950 . S
C1286 C1285 1.398 . S
C1286 C1287 1.391 . S
C1287 H1275 0.950 . S
C1287 C1283 1.393 . S
C1287 C1286 1.391 . S
H1288 C1296 0.950 . S
H1289 C1301 0.950 . S
H1290 C1298 0.950 . S
H1291 C1300 0.950 . S
H1292 C1302 0.950 . S
H1293 C1304 0.950 . S
H1294 C1306 0.950 . S
H1295 C1307 0.950 . S
C1296 H1288 0.950 . S
C1296 C1297 1.386 . S
C1296 C1298 1.391 . S
C1297 C1296 1.386 . S
C1297 C1301 1.393 . S
C1298 H1290 0.950 . S
C1298 C1296 1.391 . S
C1298 C1299 1.400 . S
C1299 C1298 1.400 . S
C1299 C1300 1.398 . S
C1299 C1305 1.491 . S
C1300 H1291 0.950 . S
C1300 C1299 1.398 . S
C1300 C1301 1.391 . S
C1301 H1289 0.950 . S
C1301 C1297 1.393 . S
C1301 C1300 1.391 . S
C1302 H1292 0.950 . S
C1302 C1303 1.386 . S
C1302 C1304 1.391 . S
C1303 C1302 1.386 . S
C1303 C1307 1.393 . S
C1304 H1293 0.950 . S
C1304 C1302 1.391 . S
C1304 C1305 1.400 . S
C1305 C1299 1.491 . S
C1305 C1304 1.400 . S
C1305 C1306 1.398 . S
C1306 H1294 0.950 . S
C1306 C1305 1.398 . S
C1306 C1307 1.391 . S
C1307 H1295 0.950 . S
C1307 C1303 1.393 . S
C1307 C1306 1.391 . S
H1308 C1316 0.950 . S
H1309 C1321 0.950 . S
H1310 C1318 0.950 . S
H1311 C1320 0.950 . S
H1312 C1322 0.950 . S
H1313 C1324 0.950 . S
H1314 C1326 0.950 . S
H1315 C1327 0.950 . S
C1316 H1308 0.950 . S
C1316 C1317 1.386 . S
C1316 C1318 1.391 . S
C1317 C1316 1.386 . S
C1317 C1321 1.393 . S
C1318 H1310 0.950 . S
C1318 C1316 1.391 . S
C1318 C1319 1.400 . S
C1319 C1318 1.400 . S
C1319 C1320 1.398 . S
C1319 C1325 1.491 . S
C1320 H1311 0.950 . S
C1320 C1319 1.398 . S
C1320 C1321 1.391 . S
C1321 H1309 0.950 . S
C1321 C1317 1.393 . S
C1321 C1320 1.391 . S
C1322 H1312 0.950 . S
C1322 C1323 1.386 . S
C1322 C1324 1.391 . S
C1323 C1322 1.386 . S
C1323 C1327 1.393 . S
C1324 H1313 0.950 . S
C1324 C1322 1.391 . S
C1324 C1325 1.400 . S
C1325 C1319 1.491 . S
C1325 C1324 1.400 . S
C1325 C1326 1.398 . S
C1326 H1314 0.950 . S
C1326 C1325 1.398 . S
C1326 C1327 1.391 . S
C1327 H1315 0.950 . S
C1327 C1323 1.393 . S
C1327 C1326 1.391 . S
H1328 C1336 0.950 . S
H1329 C1341 0.950 . S
H1330 C1338 0.950 . S
H1331 C1340 0.950 . S
H1332 C1342 0.950 . S
H1333 C1344 0.950 . S
H1334 C1346 0.950 . S
H1335 C1347 0.950 . S
C1336 H1328 0.950 . S
C1336 C1337 1.386 . S
C1336 C1338 1.391 . S
C1337 C1336 1.386 . S
C1337 C1341 1.393 . S
C1338 H1330 0.950 . S
C1338 C1336 1.391 . S
C1338 C1339 1.400 . S
C1339 C1338 1.400 . S
C1339 C1340 1.398 . S
C1339 C1345 1.491 . S
C1340 H1331 0.950 . S
C1340 C1339 1.398 . S
C1340 C1341 1.391 . S
C1341 H1329 0.950 . S
C1341 C1337 1.393 . S
C1341 C1340 1.391 . S
C1342 H1332 0.950 . S
C1342 C1343 1.386 . S
C1342 C1344 1.391 . S
C1343 C1342 1.386 . S
C1343 C1347 1.393 . S
C1344 H1333 0.950 . S
C1344 C1342 1.391 . S
C1344 C1345 1.400 . S
C1345 C1339 1.491 . S
C1345 C1344 1.400 . S
C1345 C1346 1.398 . S
C1346 H1334 0.950 . S
C1346 C1345 1.398 . S
C1346 C1347 1.391 . S
C1347 H1335 0.950 . S
C1347 C1343 1.393 . S
C1347 C1346 1.391 . S
H1348 C1356 0.950 . S
H1349 C1361 0.950 . S
H1350 C1358 0.950 . S
H1351 C1360 0.950 . S
H1352 C1362 0.950 . S
H1353 C1364 0.950 . S
H1354 C1366 0.950 . S
H1355 C1367 0.950 . S
C1356 H1348 0.950 . S
C1356 C1357 1.386 . S
C1356 C1358 1.391 . S
C1357 C1356 1.386 . S
C1357 C1361 1.393 . S
C1358 H1350 0.950 . S
C1358 C1356 1.391 . S
C1358 C1359 1.400 . S
C1359 C1358 1.400 . S
C1359 C1360 1.398 . S
C1359 C1365 1.491 . S
C1360 H1351 0.950 . S
C1360 C1359 1.398 . S
C1360 C1361 1.391 . S
C1361 H1349 0.950 . S
C1361 C1357 1.393 . S
C1361 C1360 1.391 . S
C1362 H1352 0.950 . S
C1362 C1363 1.386 . S
C1362 C1364 1.391 . S
C1363 C1362 1.386 . S
C1363 C1367 1.393 . S
C1364 H1353 0.950 . S
C1364 C1362 1.391 . S
C1364 C1365 1.400 . S
C1365 C1359 1.491 . S
C1365 C1364 1.400 . S
C1365 C1366 1.398 . S
C1366 H1354 0.950 . S
C1366 C1365 1.398 . S
C1366 C1367 1.391 . S
C1367 H1355 0.950 . S
C1367 C1363 1.393 . S
C1367 C1366 1.391 . S
H1368 C1376 0.950 . S
H1369 C1381 0.950 . S
H1370 C1378 0.950 . S
H1371 C1380 0.950 . S
H1372 C1382 0.950 . S
H1373 C1384 0.950 . S
H1374 C1386 0.950 . S
H1375 C1387 0.950 . S
C1376 H1368 0.950 . S
C1376 C1377 1.386 . S
C1376 C1378 1.391 . S
C1377 C1376 1.386 . S
C1377 C1381 1.393 . S
C1378 H1370 0.950 . S
C1378 C1376 1.391 . S
C1378 C1379 1.400 . S
C1379 C1378 1.400 . S
C1379 C1380 1.398 . S
C1379 C1385 1.491 . S
C1380 H1371 0.950 . S
C1380 C1379 1.398 . S
C1380 C1381 1.391 . S
C1381 H1369 0.950 . S
C1381 C1377 1.393 . S
C1381 C1380 1.391 . S
C1382 H1372 0.950 . S
C1382 C1383 1.386 . S
C1382 C1384 1.391 . S
C1383 C1382 1.386 . S
C1383 C1387 1.393 . S
C1384 H1373 0.950 . S
C1384 C1382 1.391 . S
C1384 C1385 1.400 . S
C1385 C1379 1.491 . S
C1385 C1384 1.400 . S
C1385 C1386 1.398 . S
C1386 H1374 0.950 . S
C1386 C1385 1.398 . S
C1386 C1387 1.391 . S
C1387 H1375 0.950 . S
C1387 C1383 1.393 . S
C1387 C1386 1.391 . S
H1388 C1396 0.950 . S
H1389 C1401 0.950 . S
H1390 C1398 0.950 . S
H1391 C1400 0.950 . S
H1392 C1402 0.950 1_545 S
H1393 C1404 0.950 . S
H1394 C1406 0.950 . S
H1395 C1407 0.950 . S
C1396 H1388 0.950 . S
C1396 C1397 1.386 . S
C1396 C1398 1.391 . S
C1397 C1396 1.386 . S
C1397 C1401 1.393 . S
C1398 H1390 0.950 . S
C1398 C1396 1.391 . S
C1398 C1399 1.400 . S
C1399 C1398 1.400 . S
C1399 C1400 1.398 . S
C1399 C1405 1.491 . S
C1400 H1391 0.950 . S
C1400 C1399 1.398 . S
C1400 C1401 1.391 . S
C1401 H1389 0.950 . S
C1401 C1397 1.393 . S
C1401 C1400 1.391 . S
C1402 H1392 0.950 1_565 S
C1402 C1403 1.386 . S
C1402 C1404 1.391 . S
C1403 C1402 1.386 . S
C1403 C1407 1.393 . S
C1404 H1393 0.950 . S
C1404 C1402 1.391 . S
C1404 C1405 1.400 . S
C1405 C1399 1.491 . S
C1405 C1404 1.400 . S
C1405 C1406 1.398 . S
C1406 H1394 0.950 . S
C1406 C1405 1.398 . S
C1406 C1407 1.391 . S
C1407 H1395 0.950 . S
C1407 C1403 1.393 . S
C1407 C1406 1.391 . S
H1408 C1416 0.950 . S
H1409 C1421 0.950 . S
H1410 C1418 0.950 . S
H1411 C1420 0.950 . S
H1412 C1422 0.950 . S
H1413 C1424 0.950 . S
H1414 C1426 0.950 . S
H1415 C1427 0.950 . S
C1416 H1408 0.950 . S
C1416 C1417 1.386 . S
C1416 C1418 1.391 . S
C1417 C1416 1.386 . S
C1417 C1421 1.393 . S
C1418 H1410 0.950 . S
C1418 C1416 1.391 . S
C1418 C1419 1.400 . S
C1419 C1418 1.400 . S
C1419 C1420 1.398 . S
C1419 C1425 1.491 . S
C1420 H1411 0.950 . S
C1420 C1419 1.398 . S
C1420 C1421 1.391 . S
C1421 H1409 0.950 . S
C1421 C1417 1.393 . S
C1421 C1420 1.391 . S
C1422 H1412 0.950 . S
C1422 C1423 1.386 . S
C1422 C1424 1.391 . S
C1423 C1422 1.386 . S
C1423 C1427 1.393 . S
C1424 H1413 0.950 . S
C1424 C1422 1.391 . S
C1424 C1425 1.400 . S
C1425 C1419 1.491 . S
C1425 C1424 1.400 . S
C1425 C1426 1.398 . S
C1426 H1414 0.950 . S
C1426 C1425 1.398 . S
C1426 C1427 1.391 . S
C1427 H1415 0.950 . S
C1427 C1423 1.393 . S
C1427 C1426 1.391 . S
H1428 C1436 0.950 . S
H1429 C1441 0.950 . S
H1430 C1438 0.950 . S
H1431 C1440 0.950 . S
H1432 C1442 0.950 . S
H1433 C1444 0.950 . S
H1434 C1446 0.950 . S
H1435 C1447 0.950 . S
C1436 H1428 0.950 . S
C1436 C1437 1.386 . S
C1436 C1438 1.391 . S
C1437 C1436 1.386 . S
C1437 C1441 1.393 . S
C1438 H1430 0.950 . S
C1438 C1436 1.391 . S
C1438 C1439 1.400 . S
C1439 C1438 1.400 . S
C1439 C1440 1.398 . S
C1439 C1445 1.491 . S
C1440 H1431 0.950 . S
C1440 C1439 1.398 . S
C1440 C1441 1.391 . S
C1441 H1429 0.950 . S
C1441 C1437 1.393 . S
C1441 C1440 1.391 . S
C1442 H1432 0.950 . S
C1442 C1443 1.386 . S
C1442 C1444 1.391 . S
C1443 C1442 1.386 . S
C1443 C1447 1.393 . S
C1444 H1433 0.950 . S
C1444 C1442 1.391 . S
C1444 C1445 1.400 . S
C1445 C1439 1.491 . S
C1445 C1444 1.400 . S
C1445 C1446 1.398 . S
C1446 H1434 0.950 . S
C1446 C1445 1.398 . S
C1446 C1447 1.391 . S
C1447 H1435 0.950 . S
C1447 C1443 1.393 . S
C1447 C1446 1.391 . S
H1448 C1456 0.950 . S
H1449 C1461 0.950 . S
H1450 C1458 0.950 . S
H1451 C1460 0.950 . S
H1452 C1462 0.950 . S
H1453 C1464 0.950 . S
H1454 C1466 0.950 . S
H1455 C1467 0.950 . S
C1456 H1448 0.950 . S
C1456 C1457 1.386 . S
C1456 C1458 1.391 . S
C1457 C1456 1.386 . S
C1457 C1461 1.393 . S
C1458 H1450 0.950 . S
C1458 C1456 1.391 . S
C1458 C1459 1.400 . S
C1459 C1458 1.400 . S
C1459 C1460 1.398 . S
C1459 C1465 1.491 . S
C1460 H1451 0.950 . S
C1460 C1459 1.398 . S
C1460 C1461 1.391 . S
C1461 H1449 0.950 . S
C1461 C1457 1.393 . S
C1461 C1460 1.391 . S
C1462 H1452 0.950 . S
C1462 C1463 1.386 . S
C1462 C1464 1.391 . S
C1463 C1462 1.386 . S
C1463 C1467 1.393 . S
C1464 H1453 0.950 . S
C1464 C1462 1.391 . S
C1464 C1465 1.400 . S
C1465 C1459 1.491 . S
C1465 C1464 1.400 . S
C1465 C1466 1.398 . S
C1466 H1454 0.950 . S
C1466 C1465 1.398 . S
C1466 C1467 1.391 . S
C1467 H1455 0.950 . S
C1467 C1463 1.393 . S
C1467 C1466 1.391 . S
H1468 C1476 0.950 . S
H1469 C1481 0.950 . S
H1470 C1478 0.950 . S
H1471 C1480 0.950 . S
H1472 C1482 0.950 . S
H1473 C1484 0.950 . S
H1474 C1486 0.950 . S
H1475 C1487 0.950 . S
C1476 H1468 0.950 . S
C1476 C1477 1.386 . S
C1476 C1478 1.391 . S
C1477 C1476 1.386 . S
C1477 C1481 1.393 . S
C1478 H1470 0.950 . S
C1478 C1476 1.391 . S
C1478 C1479 1.400 . S
C1479 C1478 1.400 . S
C1479 C1480 1.398 . S
C1479 C1485 1.491 . S
C1480 H1471 0.950 . S
C1480 C1479 1.398 . S
C1480 C1481 1.391 . S
C1481 H1469 0.950 . S
C1481 C1477 1.393 . S
C1481 C1480 1.391 . S
C1482 H1472 0.950 . S
C1482 C1483 1.386 . S
C1482 C1484 1.391 . S
C1483 C1482 1.386 . S
C1483 C1487 1.393 . S
C1484 H1473 0.950 . S
C1484 C1482 1.391 . S
C1484 C1485 1.400 . S
C1485 C1479 1.491 . S
C1485 C1484 1.400 . S
C1485 C1486 1.398 . S
C1486 H1474 0.950 . S
C1486 C1485 1.398 . S
C1486 C1487 1.391 . S
C1487 H1475 0.950 . S
C1487 C1483 1.393 . S
C1487 C1486 1.391 . S
H1488 C1496 0.950 . S
H1489 C1501 0.950 . S
H1490 C1498 0.950 . S
H1491 C1500 0.950 . S
H1492 C1502 0.950 . S
H1493 C1504 0.950 . S
H1494 C1506 0.950 . S
H1495 C1507 0.950 . S
C1496 H1488 0.950 . S
C1496 C1497 1.386 . S
C1496 C1498 1.391 . S
C1497 C1496 1.386 . S
C1497 C1501 1.393 . S
C1498 H1490 0.950 . S
C1498 C1496 1.391 . S
C1498 C1499 1.400 . S
C1499 C1498 1.400 . S
C1499 C1500 1.398 . S
C1499 C1505 1.491 . S
C1500 H1491 0.950 . S
C1500 C1499 1.398 . S
C1500 C1501 1.391 . S
C1501 H1489 0.950 . S
C1501 C1497 1.393 . S
C1501 C1500 1.391 . S
C1502 H1492 0.950 . S
C1502 C1503 1.386 . S
C1502 C1504 1.391 . S
C1503 C1502 1.386 . S
C1503 C1507 1.393 . S
C1504 H1493 0.950 . S
C1504 C1502 1.391 . S
C1504 C1505 1.400 . S
C1505 C1499 1.491 . S
C1505 C1504 1.400 . S
C1505 C1506 1.398 . S
C1506 H1494 0.950 . S
C1506 C1505 1.398 . S
C1506 C1507 1.391 . S
C1507 H1495 0.950 . S
C1507 C1503 1.393 . S
C1507 C1506 1.391 . S
H1508 C1516 0.950 . S
H1509 C1521 0.950 . S
H1510 C1518 0.950 . S
H1511 C1520 0.950 . S
H1512 C1522 0.950 . S
H1513 C1524 0.950 . S
H1514 C1526 0.950 . S
H1515 C1527 0.950 . S
C1516 H1508 0.950 . S
C1516 C1517 1.386 . S
C1516 C1518 1.391 . S
C1517 C1516 1.386 . S
C1517 C1521 1.393 . S
C1518 H1510 0.950 . S
C1518 C1516 1.391 . S
C1518 C1519 1.400 . S
C1519 C1518 1.400 . S
C1519 C1520 1.398 . S
C1519 C1525 1.491 . S
C1520 H1511 0.950 . S
C1520 C1519 1.398 . S
C1520 C1521 1.391 . S
C1521 H1509 0.950 . S
C1521 C1517 1.393 . S
C1521 C1520 1.391 . S
C1522 H1512 0.950 . S
C1522 C1523 1.386 . S
C1522 C1524 1.391 . S
C1523 C1522 1.386 . S
C1523 C1527 1.393 . S
C1524 H1513 0.950 . S
C1524 C1522 1.391 . S
C1524 C1525 1.400 . S
C1525 C1519 1.491 . S
C1525 C1524 1.400 . S
C1525 C1526 1.398 . S
C1526 H1514 0.950 . S
C1526 C1525 1.398 . S
C1526 C1527 1.391 . S
C1527 H1515 0.950 . S
C1527 C1523 1.393 . S
C1527 C1526 1.391 . S
H1528 C1536 0.950 . S
H1529 C1541 0.950 . S
H1530 C1538 0.950 . S
H1531 C1540 0.950 . S
H1532 C1542 0.950 . S
H1533 C1544 0.950 . S
H1534 C1546 0.950 . S
H1535 C1547 0.950 . S
C1536 H1528 0.950 . S
C1536 C1537 1.386 . S
C1536 C1538 1.391 . S
C1537 C1536 1.386 . S
C1537 C1541 1.393 . S
C1538 H1530 0.950 . S
C1538 C1536 1.391 . S
C1538 C1539 1.400 . S
C1539 C1538 1.400 . S
C1539 C1540 1.398 . S
C1539 C1545 1.491 . S
C1540 H1531 0.950 . S
C1540 C1539 1.398 . S
C1540 C1541 1.391 . S
C1541 H1529 0.950 . S
C1541 C1537 1.393 . S
C1541 C1540 1.391 . S
C1542 H1532 0.950 . S
C1542 C1543 1.386 . S
C1542 C1544 1.391 . S
C1543 C1542 1.386 . S
C1543 C1547 1.393 . S
C1544 H1533 0.950 . S
C1544 C1542 1.391 . S
C1544 C1545 1.400 . S
C1545 C1539 1.491 . S
C1545 C1544 1.400 . S
C1545 C1546 1.398 . S
C1546 H1534 0.950 . S
C1546 C1545 1.398 . S
C1546 C1547 1.391 . S
C1547 H1535 0.950 . S
C1547 C1543 1.393 . S
C1547 C1546 1.391 . S
H1548 C1556 0.950 . S
H1549 C1561 0.950 . S
H1550 C1558 0.950 . S
H1551 C1560 0.950 . S
H1552 C1562 0.950 . S
H1553 C1564 0.950 . S
H1554 C1566 0.950 . S
H1555 C1567 0.950 . S
C1556 H1548 0.950 . S
C1556 C1557 1.386 . S
C1556 C1558 1.391 . S
C1557 C1556 1.386 . S
C1557 C1561 1.393 . S
C1558 H1550 0.950 . S
C1558 C1556 1.391 . S
C1558 C1559 1.400 . S
C1559 C1558 1.400 . S
C1559 C1560 1.398 . S
C1559 C1565 1.491 . S
C1560 H1551 0.950 . S
C1560 C1559 1.398 . S
C1560 C1561 1.391 . S
C1561 H1549 0.950 . S
C1561 C1557 1.393 . S
C1561 C1560 1.391 . S
C1562 H1552 0.950 . S
C1562 C1563 1.386 . S
C1562 C1564 1.391 . S
C1563 C1562 1.386 . S
C1563 C1567 1.393 . S
C1564 H1553 0.950 . S
C1564 C1562 1.391 . S
C1564 C1565 1.400 . S
C1565 C1559 1.491 . S
C1565 C1564 1.400 . S
C1565 C1566 1.398 . S
C1566 H1554 0.950 . S
C1566 C1565 1.398 . S
C1566 C1567 1.391 . S
C1567 H1555 0.950 . S
C1567 C1563 1.393 . S
C1567 C1566 1.391 . S
H1568 C1576 0.950 . S
H1569 C1581 0.950 . S
H1570 C1578 0.950 . S
H1571 C1580 0.950 . S
H1572 C1582 0.950 . S
H1573 C1584 0.950 . S
H1574 C1586 0.950 . S
H1575 C1587 0.950 . S
C1576 H1568 0.950 . S
C1576 C1577 1.386 . S
C1576 C1578 1.391 . S
C1577 C1576 1.386 . S
C1577 C1581 1.393 . S
C1578 H1570 0.950 . S
C1578 C1576 1.391 . S
C1578 C1579 1.400 . S
C1579 C1578 1.400 . S
C1579 C1580 1.398 . S
C1579 C1585 1.491 . S
C1580 H1571 0.950 . S
C1580 C1579 1.398 . S
C1580 C1581 1.391 . S
C1581 H1569 0.950 . S
C1581 C1577 1.393 . S
C1581 C1580 1.391 . S
C1582 H1572 0.950 . S
C1582 C1583 1.386 . S
C1582 C1584 1.391 . S
C1583 C1582 1.386 . S
C1583 C1587 1.393 . S
C1584 H1573 0.950 . S
C1584 C1582 1.391 . S
C1584 C1585 1.400 . S
C1585 C1579 1.491 . S
C1585 C1584 1.400 . S
C1585 C1586 1.398 . S
C1586 H1574 0.950 . S
C1586 C1585 1.398 . S
C1586 C1587 1.391 . S
C1587 H1575 0.950 . S
C1587 C1583 1.393 . S
C1587 C1586 1.391 . S
H1588 C1596 0.950 . S
H1589 C1601 0.950 . S
H1590 C1598 0.950 . S
H1591 C1600 0.950 . S
H1592 C1602 0.950 . S
H1593 C1604 0.950 . S
H1594 C1606 0.950 . S
H1595 C1607 0.950 . S
C1596 H1588 0.950 . S
C1596 C1597 1.386 . S
C1596 C1598 1.391 . S
C1597 C1596 1.386 . S
C1597 C1601 1.393 . S
C1598 H1590 0.950 . S
C1598 C1596 1.391 . S
C1598 C1599 1.400 . S
C1599 C1598 1.400 . S
C1599 C1600 1.398 . S
C1599 C1605 1.491 . S
C1600 H1591 0.950 . S
C1600 C1599 1.398 . S
C1600 C1601 1.391 . S
C1601 H1589 0.950 . S
C1601 C1597 1.393 . S
C1601 C1600 1.391 . S
C1602 H1592 0.950 . S
C1602 C1603 1.386 . S
C1602 C1604 1.391 . S
C1603 C1602 1.386 . S
C1603 C1607 1.393 . S
C1604 H1593 0.950 . S
C1604 C1602 1.391 . S
C1604 C1605 1.400 . S
C1605 C1599 1.491 . S
C1605 C1604 1.400 . S
C1605 C1606 1.398 . S
C1606 H1594 0.950 . S
C1606 C1605 1.398 . S
C1606 C1607 1.391 . S
C1607 H1595 0.950 . S
C1607 C1603 1.393 . S
C1607 C1606 1.391 . S
H1608 C1616 0.950 . S
H1609 C1621 0.950 . S
H1610 C1618 0.950 . S
H1611 C1620 0.950 . S
H1612 C1622 0.950 . S
H1613 C1624 0.950 . S
H1614 C1626 0.950 . S
H1615 C1627 0.950 . S
C1616 H1608 0.950 . S
C1616 C1617 1.386 . S
C1616 C1618 1.391 . S
C1617 C1616 1.386 . S
C1617 C1621 1.393 . S
C1618 H1610 0.950 . S
C1618 C1616 1.391 . S
C1618 C1619 1.400 . S
C1619 C1618 1.400 . S
C1619 C1620 1.398 . S
C1619 C1625 1.491 . S
C1620 H1611 0.950 . S
C1620 C1619 1.398 . S
C1620 C1621 1.391 . S
C1621 H1609 0.950 . S
C1621 C1617 1.393 . S
C1621 C1620 1.391 . S
C1622 H1612 0.950 . S
C1622 C1623 1.386 . S
C1622 C1624 1.391 . S
C1623 C1622 1.386 . S
C1623 C1627 1.393 . S
C1624 H1613 0.950 . S
C1624 C1622 1.391 . S
C1624 C1625 1.400 . S
C1625 C1619 1.491 . S
C1625 C1624 1.400 . S
C1625 C1626 1.398 . S
C1626 H1614 0.950 . S
C1626 C1625 1.398 . S
C1626 C1627 1.391 . S
C1627 H1615 0.950 . S
C1627 C1623 1.393 . S
C1627 C1626 1.391 . S
H1628 C1636 0.950 . S
H1629 C1641 0.950 . S
H1630 C1638 0.950 . S
H1631 C1640 0.950 . S
H1632 C1642 0.950 . S
H1633 C1644 0.950 . S
H1634 C1646 0.950 . S
H1635 C1647 0.950 . S
C1636 H1628 0.950 . S
C1636 C1637 1.386 . S
C1636 C1638 1.391 . S
C1637 C1636 1.386 . S
C1637 C1641 1.393 . S
C1638 H1630 0.950 . S
C1638 C1636 1.391 . S
C1638 C1639 1.400 . S
C1639 C1638 1.400 . S
C1639 C1640 1.398 . S
C1639 C1645 1.491 . S
C1640 H1631 0.950 . S
C1640 C1639 1.398 . S
C1640 C1641 1.391 . S
C1641 H1629 0.950 . S
C1641 C1637 1.393 . S
C1641 C1640 1.391 . S
C1642 H1632 0.950 . S
C1642 C1643 1.386 . S
C1642 C1644 1.391 . S
C1643 C1642 1.386 . S
C1643 C1647 1.393 . S
C1644 H1633 0.950 . S
C1644 C1642 1.391 . S
C1644 C1645 1.400 . S
C1645 C1639 1.491 . S
C1645 C1644 1.400 . S
C1645 C1646 1.398 . S
C1646 H1634 0.950 . S
C1646 C1645 1.398 . S
C1646 C1647 1.391 . S
C1647 H1635 0.950 . S
C1647 C1643 1.393 . S
C1647 C1646 1.391 . S
H1648 C1656 0.950 . S
H1649 C1661 0.950 . S
H1650 C1658 0.950 . S
H1651 C1660 0.950 . S
H1652 C1662 0.950 . S
H1653 C1664 0.950 . S
H1654 C1666 0.950 . S
H1655 C1667 0.950 . S
C1656 H1648 0.950 . S
C1656 C1657 1.386 . S
C1656 C1658 1.391 . S
C1657 C1656 1.386 . S
C1657 C1661 1.393 . S
C1658 H1650 0.950 . S
C1658 C1656 1.391 . S
C1658 C1659 1.400 . S
C1659 C1658 1.400 . S
C1659 C1660 1.398 . S
C1659 C1665 1.491 . S
C1660 H1651 0.950 . S
C1660 C1659 1.398 . S
C1660 C1661 1.391 . S
C1661 H1649 0.950 . S
C1661 C1657 1.393 . S
C1661 C1660 1.391 . S
C1662 H1652 0.950 . S
C1662 C1663 1.386 . S
C1662 C1664 1.391 . S
C1663 C1662 1.386 . S
C1663 C1667 1.393 . S
C1664 H1653 0.950 . S
C1664 C1662 1.391 . S
C1664 C1665 1.400 . S
C1665 C1659 1.491 . S
C1665 C1664 1.400 . S
C1665 C1666 1.398 . S
C1666 H1654 0.950 . S
C1666 C1665 1.398 . S
C1666 C1667 1.391 . S
C1667 H1655 0.950 . S
C1667 C1663 1.393 . S
C1667 C1666 1.391 . S
H1668 C1676 0.950 . S
H1669 C1681 0.950 . S
H1670 C1678 0.950 . S
H1671 C1680 0.950 . S
H1672 C1682 0.950 . S
H1673 C1684 0.950 . S
H1674 C1686 0.950 . S
H1675 C1687 0.950 . S
C1676 H1668 0.950 . S
C1676 C1677 1.386 . S
C1676 C1678 1.391 . S
C1677 C1676 1.386 . S
C1677 C1681 1.393 . S
C1678 H1670 0.950 . S
C1678 C1676 1.391 . S
C1678 C1679 1.400 . S
C1679 C1678 1.400 . S
C1679 C1680 1.398 . S
C1679 C1685 1.491 . S
C1680 H1671 0.950 . S
C1680 C1679 1.398 . S
C1680 C1681 1.391 . S
C1681 H1669 0.950 . S
C1681 C1677 1.393 . S
C1681 C1680 1.391 . S
C1682 H1672 0.950 . S
C1682 C1683 1.386 . S
C1682 C1684 1.391 . S
C1683 C1682 1.386 . S
C1683 C1687 1.393 . S
C1684 H1673 0.950 . S
C1684 C1682 1.391 . S
C1684 C1685 1.400 . S
C1685 C1679 1.491 . S
C1685 C1684 1.400 . S
C1685 C1686 1.398 . S
C1686 H1674 0.950 . S
C1686 C1685 1.398 . S
C1686 C1687 1.391 . S
C1687 H1675 0.950 . S
C1687 C1683 1.393 . S
C1687 C1686 1.391 . S
H1688 C1696 0.950 . S
H1689 C1701 0.950 . S
H1690 C1698 0.950 . S
H1691 C1700 0.950 . S
H1692 C1702 0.950 . S
H1693 C1704 0.950 . S
H1694 C1706 0.950 . S
H1695 C1707 0.950 . S
C1696 H1688 0.950 . S
C1696 C1697 1.386 . S
C1696 C1698 1.391 . S
C1697 C1696 1.386 . S
C1697 C1701 1.393 . S
C1698 H1690 0.950 . S
C1698 C1696 1.391 . S
C1698 C1699 1.400 . S
C1699 C1698 1.400 . S
C1699 C1700 1.398 . S
C1699 C1705 1.491 . S
C1700 H1691 0.950 . S
C1700 C1699 1.398 . S
C1700 C1701 1.391 . S
C1701 H1689 0.950 . S
C1701 C1697 1.393 . S
C1701 C1700 1.391 . S
C1702 H1692 0.950 . S
C1702 C1703 1.386 . S
C1702 C1704 1.391 . S
C1703 C1702 1.386 . S
C1703 C1707 1.393 . S
C1704 H1693 0.950 . S
C1704 C1702 1.391 . S
C1704 C1705 1.400 . S
C1705 C1699 1.491 . S
C1705 C1704 1.400 . S
C1705 C1706 1.398 . S
C1706 H1694 0.950 . S
C1706 C1705 1.398 . S
C1706 C1707 1.391 . S
C1707 H1695 0.950 . S
C1707 C1703 1.393 . S
C1707 C1706 1.391 . S
H1708 C1716 0.950 . S
H1709 C1721 0.950 . S
H1710 C1718 0.950 . S
H1711 C1720 0.950 . S
H1712 C1722 0.950 . S
H1713 C1724 0.950 . S
H1714 C1726 0.950 . S
H1715 C1727 0.950 . S
C1716 H1708 0.950 . S
C1716 C1717 1.386 . S
C1716 C1718 1.391 . S
C1717 C1716 1.386 . S
C1717 C1721 1.393 . S
C1718 H1710 0.950 . S
C1718 C1716 1.391 . S
C1718 C1719 1.400 . S
C1719 C1718 1.400 . S
C1719 C1720 1.398 . S
C1719 C1725 1.491 . S
C1720 H1711 0.950 . S
C1720 C1719 1.398 . S
C1720 C1721 1.391 . S
C1721 H1709 0.950 . S
C1721 C1717 1.393 . S
C1721 C1720 1.391 . S
C1722 H1712 0.950 . S
C1722 C1723 1.386 . S
C1722 C1724 1.391 . S
C1723 C1722 1.386 . S
C1723 C1727 1.393 . S
C1724 H1713 0.950 . S
C1724 C1722 1.391 . S
C1724 C1725 1.400 . S
C1725 C1719 1.491 . S
C1725 C1724 1.400 . S
C1725 C1726 1.398 . S
C1726 H1714 0.950 . S
C1726 C1725 1.398 . S
C1726 C1727 1.391 . S
C1727 H1715 0.950 . S
C1727 C1723 1.393 . S
C1727 C1726 1.391 . S
H1728 C1736 0.950 . S
H1729 C1741 0.950 . S
H1730 C1738 0.950 . S
H1731 C1740 0.950 . S
H1732 C1742 0.950 . S
H1733 C1744 0.950 . S
H1734 C1746 0.950 . S
H1735 C1747 0.950 . S
C1736 H1728 0.950 . S
C1736 C1737 1.386 . S
C1736 C1738 1.391 . S
C1737 C1736 1.386 . S
C1737 C1741 1.393 . S
C1738 H1730 0.950 . S
C1738 C1736 1.391 . S
C1738 C1739 1.400 . S
C1739 C1738 1.400 . S
C1739 C1740 1.398 . S
C1739 C1745 1.491 . S
C1740 H1731 0.950 . S
C1740 C1739 1.398 . S
C1740 C1741 1.391 . S
C1741 H1729 0.950 . S
C1741 C1737 1.393 . S
C1741 C1740 1.391 . S
C1742 H1732 0.950 . S
C1742 C1743 1.386 . S
C1742 C1744 1.391 . S
C1743 C1742 1.386 . S
C1743 C1747 1.393 . S
C1744 H1733 0.950 . S
C1744 C1742 1.391 . S
C1744 C1745 1.400 . S
C1745 C1739 1.491 . S
C1745 C1744 1.400 . S
C1745 C1746 1.398 . S
C1746 H1734 0.950 . S
C1746 C1745 1.398 . S
C1746 C1747 1.391 . S
C1747 H1735 0.950 . S
C1747 C1743 1.393 . S
C1747 C1746 1.391 . S
H1748 C1756 0.950 . S
H1749 C1761 0.950 . S
H1750 C1758 0.950 . S
H1751 C1760 0.950 . S
H1752 C1762 0.950 . S
H1753 C1764 0.950 . S
H1754 C1766 0.950 . S
H1755 C1767 0.950 . S
C1756 H1748 0.950 . S
C1756 C1757 1.386 . S
C1756 C1758 1.391 . S
C1757 C1756 1.386 . S
C1757 C1761 1.393 . S
C1758 H1750 0.950 . S
C1758 C1756 1.391 . S
C1758 C1759 1.400 . S
C1759 C1758 1.400 . S
C1759 C1760 1.398 . S
C1759 C1765 1.491 . S
C1760 H1751 0.950 . S
C1760 C1759 1.398 . S
C1760 C1761 1.391 . S
C1761 H1749 0.950 . S
C1761 C1757 1.393 . S
C1761 C1760 1.391 . S
C1762 H1752 0.950 . S
C1762 C1763 1.386 . S
C1762 C1764 1.391 . S
C1763 C1762 1.386 . S
C1763 C1767 1.393 . S
C1764 H1753 0.950 . S
C1764 C1762 1.391 . S
C1764 C1765 1.400 . S
C1765 C1759 1.491 . S
C1765 C1764 1.400 . S
C1765 C1766 1.398 . S
C1766 H1754 0.950 . S
C1766 C1765 1.398 . S
C1766 C1767 1.391 . S
C1767 H1755 0.950 . S
C1767 C1763 1.393 . S
C1767 C1766 1.391 . S
H1768 C1776 0.950 . S
H1769 C1781 0.950 . S
H1770 C1778 0.950 . S
H1771 C1780 0.950 . S
H1772 C1782 0.950 . S
H1773 C1784 0.950 . S
H1774 C1786 0.950 . S
H1775 C1787 0.950 . S
C1776 H1768 0.950 . S
C1776 C1777 1.386 . S
C1776 C1778 1.391 . S
C1777 C1776 1.386 . S
C1777 C1781 1.393 . S
C1778 H1770 0.950 . S
C1778 C1776 1.391 . S
C1778 C1779 1.400 . S
C1779 C1778 1.400 . S
C1779 C1780 1.398 . S
C1779 C1785 1.491 . S
C1780 H1771 0.950 . S
C1780 C1779 1.398 . S
C1780 C1781 1.391 . S
C1781 H1769 0.950 . S
C1781 C1777 1.393 . S
C1781 C1780 1.391 . S
C1782 H1772 0.950 . S
C1782 C1783 1.386 . S
C1782 C1784 1.391 . S
C1783 C1782 1.386 . S
C1783 C1787 1.393 . S
C1784 H1773 0.950 . S
C1784 C1782 1.391 . S
C1784 C1785 1.400 . S
C1785 C1779 1.491 . S
C1785 C1784 1.400 . S
C1785 C1786 1.398 . S
C1786 H1774 0.950 . S
C1786 C1785 1.398 . S
C1786 C1787 1.391 . S
C1787 H1775 0.950 . S
C1787 C1783 1.393 . S
C1787 C1786 1.391 . S
H1788 C1796 0.950 . S
H1789 C1801 0.950 . S
H1790 C1798 0.950 . S
H1791 C1800 0.950 . S
H1792 C1802 0.950 . S
H1793 C1804 0.950 . S
H1794 C1806 0.950 . S
H1795 C1807 0.950 . S
C1796 H1788 0.950 . S
C1796 C1797 1.386 . S
C1796 C1798 1.391 . S
C1797 C1796 1.386 . S
C1797 C1801 1.393 . S
C1798 H1790 0.950 . S
C1798 C1796 1.391 . S
C1798 C1799 1.400 . S
C1799 C1798 1.400 . S
C1799 C1800 1.398 . S
C1799 C1805 1.491 . S
C1800 H1791 0.950 . S
C1800 C1799 1.398 . S
C1800 C1801 1.391 . S
C1801 H1789 0.950 . S
C1801 C1797 1.393 . S
C1801 C1800 1.391 . S
C1802 H1792 0.950 . S
C1802 C1803 1.386 . S
C1802 C1804 1.391 . S
C1803 C1802 1.386 . S
C1803 C1807 1.393 . S
C1804 H1793 0.950 . S
C1804 C1802 1.391 . S
C1804 C1805 1.400 . S
C1805 C1799 1.491 . S
C1805 C1804 1.400 . S
C1805 C1806 1.398 . S
C1806 H1794 0.950 . S
C1806 C1805 1.398 . S
C1806 C1807 1.391 . S
C1807 H1795 0.950 . S
C1807 C1803 1.393 . S
C1807 C1806 1.391 . S
H1808 C1816 0.950 . S
H1809 C1821 0.950 . S
H1810 C1818 0.950 . S
H1811 C1820 0.950 . S
H1812 C1822 0.950 . S
H1813 C1824 0.950 . S
H1814 C1826 0.950 . S
H1815 C1827 0.950 . S
C1816 H1808 0.950 . S
C1816 C1817 1.386 . S
C1816 C1818 1.391 . S
C1817 C1816 1.386 . S
C1817 C1821 1.393 . S
C1818 H1810 0.950 . S
C1818 C1816 1.391 . S
C1818 C1819 1.400 . S
C1819 C1818 1.400 . S
C1819 C1820 1.398 . S
C1819 C1825 1.491 . S
C1820 H1811 0.950 . S
C1820 C1819 1.398 . S
C1820 C1821 1.391 . S
C1821 H1809 0.950 . S
C1821 C1817 1.393 . S
C1821 C1820 1.391 . S
C1822 H1812 0.950 . S
C1822 C1823 1.386 . S
C1822 C1824 1.391 . S
C1823 C1822 1.386 . S
C1823 C1827 1.393 . S
C1824 H1813 0.950 . S
C1824 C1822 1.391 . S
C1824 C1825 1.400 . S
C1825 C1819 1.491 . S
C1825 C1824 1.400 . S
C1825 C1826 1.398 . S
C1826 H1814 0.950 . S
C1826 C1825 1.398 . S
C1826 C1827 1.391 . S
C1827 H1815 0.950 . S
C1827 C1823 1.393 . S
C1827 C1826 1.391 . S
H1828 C1836 0.950 . S
H1829 C1841 0.950 . S
H1830 C1838 0.950 . S
H1831 C1840 0.950 . S
H1832 C1842 0.950 . S
H1833 C1844 0.950 . S
H1834 C1846 0.950 . S
H1835 C1847 0.950 . S
C1836 H1828 0.950 . S
C1836 C1837 1.386 . S
C1836 C1838 1.391 . S
C1837 C1836 1.386 . S
C1837 C1841 1.393 . S
C1838 H1830 0.950 . S
C1838 C1836 1.391 . S
C1838 C1839 1.400 . S
C1839 C1838 1.400 . S
C1839 C1840 1.398 . S
C1839 C1845 1.491 . S
C1840 H1831 0.950 . S
C1840 C1839 1.398 . S
C1840 C1841 1.391 . S
C1841 H1829 0.950 . S
C1841 C1837 1.393 . S
C1841 C1840 1.391 . S
C1842 H1832 0.950 . S
C1842 C1843 1.386 . S
C1842 C1844 1.391 . S
C1843 C1842 1.386 . S
C1843 C1847 1.393 . S
C1844 H1833 0.950 . S
C1844 C1842 1.391 . S
C1844 C1845 1.400 . S
C1845 C1839 1.491 . S
C1845 C1844 1.400 . S
C1845 C1846 1.398 . S
C1846 H1834 0.950 . S
C1846 C1845 1.398 . S
C1846 C1847 1.391 . S
C1847 H1835 0.950 . S
C1847 C1843 1.393 . S
C1847 C1846 1.391 . S
H1848 C1856 0.950 . S
H1849 C1861 0.950 . S
H1850 C1858 0.950 . S
H1851 C1860 0.950 . S
H1852 C1862 0.950 . S
H1853 C1864 0.950 . S
H1854 C1866 0.950 . S
H1855 C1867 0.950 . S
C1856 H1848 0.950 . S
C1856 C1857 1.386 . S
C1856 C1858 1.391 . S
C1857 C1856 1.386 . S
C1857 C1861 1.393 . S
C1858 H1850 0.950 . S
C1858 C1856 1.391 . S
C1858 C1859 1.400 . S
C1859 C1858 1.400 . S
C1859 C1860 1.398 . S
C1859 C1865 1.491 . S
C1860 H1851 0.950 . S
C1860 C1859 1.398 . S
C1860 C1861 1.391 . S
C1861 H1849 0.950 . S
C1861 C1857 1.393 . S
C1861 C1860 1.391 . S
C1862 H1852 0.950 . S
C1862 C1863 1.386 . S
C1862 C1864 1.391 . S
C1863 C1862 1.386 . S
C1863 C1867 1.393 . S
C1864 H1853 0.950 . S
C1864 C1862 1.391 . S
C1864 C1865 1.400 . S
C1865 C1859 1.491 . S
C1865 C1864 1.400 . S
C1865 C1866 1.398 . S
C1866 H1854 0.950 . S
C1866 C1865 1.398 . S
C1866 C1867 1.391 . S
C1867 H1855 0.950 . S
C1867 C1863 1.393 . S
C1867 C1866 1.391 . S
H1868 C1876 0.950 . S
H1869 C1881 0.950 . S
H1870 C1878 0.950 . S
H1871 C1880 0.950 . S
H1872 C1882 0.950 . S
H1873 C1884 0.950 . S
H1874 C1886 0.950 . S
H1875 C1887 0.950 . S
C1876 H1868 0.950 . S
C1876 C1877 1.386 . S
C1876 C1878 1.391 . S
C1877 C1876 1.386 . S
C1877 C1881 1.393 . S
C1878 H1870 0.950 . S
C1878 C1876 1.391 . S
C1878 C1879 1.400 . S
C1879 C1878 1.400 . S
C1879 C1880 1.398 . S
C1879 C1885 1.491 . S
C1880 H1871 0.950 . S
C1880 C1879 1.398 . S
C1880 C1881 1.391 . S
C1881 H1869 0.950 . S
C1881 C1877 1.393 . S
C1881 C1880 1.391 . S
C1882 H1872 0.950 . S
C1882 C1883 1.386 . S
C1882 C1884 1.391 . S
C1883 C1882 1.386 . S
C1883 C1887 1.393 . S
C1884 H1873 0.950 . S
C1884 C1882 1.391 . S
C1884 C1885 1.400 . S
C1885 C1879 1.491 . S
C1885 C1884 1.400 . S
C1885 C1886 1.398 . S
C1886 H1874 0.950 . S
C1886 C1885 1.398 . S
C1886 C1887 1.391 . S
C1887 H1875 0.950 . S
C1887 C1883 1.393 . S
C1887 C1886 1.391 . S
H1888 C1896 0.950 . S
H1889 C1901 0.950 . S
H1890 C1898 0.950 . S
H1891 C1900 0.950 . S
H1892 C1902 0.950 . S
H1893 C1904 0.950 . S
H1894 C1906 0.950 . S
H1895 C1907 0.950 . S
C1896 H1888 0.950 . S
C1896 C1897 1.386 . S
C1896 C1898 1.391 . S
C1897 C1896 1.386 . S
C1897 C1901 1.393 . S
C1898 H1890 0.950 . S
C1898 C1896 1.391 . S
C1898 C1899 1.400 . S
C1899 C1898 1.400 . S
C1899 C1900 1.398 . S
C1899 C1905 1.491 . S
C1900 H1891 0.950 . S
C1900 C1899 1.398 . S
C1900 C1901 1.391 . S
C1901 H1889 0.950 . S
C1901 C1897 1.393 . S
C1901 C1900 1.391 . S
C1902 H1892 0.950 . S
C1902 C1903 1.386 . S
C1902 C1904 1.391 . S
C1903 C1902 1.386 . S
C1903 C1907 1.393 . S
C1904 H1893 0.950 . S
C1904 C1902 1.391 . S
C1904 C1905 1.400 . S
C1905 C1899 1.491 . S
C1905 C1904 1.400 . S
C1905 C1906 1.398 . S
C1906 H1894 0.950 . S
C1906 C1905 1.398 . S
C1906 C1907 1.391 . S
C1907 H1895 0.950 . S
C1907 C1903 1.393 . S
C1907 C1906 1.391 . S
H1908 C1916 0.950 . S
H1909 C1921 0.950 . S
H1910 C1918 0.950 . S
H1911 C1920 0.950 . S
H1912 C1922 0.950 . S
H1913 C1924 0.950 . S
H1914 C1926 0.950 . S
H1915 C1927 0.950 . S
C1916 H1908 0.950 . S
C1916 C1917 1.386 . S
C1916 C1918 1.391 . S
C1917 C1916 1.386 . S
C1917 C1921 1.393 . S
C1918 H1910 0.950 . S
C1918 C1916 1.391 . S
C1918 C1919 1.400 . S
C1919 C1918 1.400 . S
C1919 C1920 1.398 . S
C1919 C1925 1.491 . S
C1920 H1911 0.950 . S
C1920 C1919 1.398 . S
C1920 C1921 1.391 . S
C1921 H1909 0.950 . S
C1921 C1917 1.393 . S
C1921 C1920 1.391 . S
C1922 H1912 0.950 . S
C1922 C1923 1.386 . S
C1922 C1924 1.391 . S
C1923 C1922 1.386 . S
C1923 C1927 1.393 . S
C1924 H1913 0.950 . S
C1924 C1922 1.391 . S
C1924 C1925 1.400 . S
C1925 C1919 1.491 . S
C1925 C1924 1.400 . S
C1925 C1926 1.398 . S
C1926 H1914 0.950 . S
C1926 C1925 1.398 . S
C1926 C1927 1.391 . S
C1927 H1915 0.950 . S
C1927 C1923 1.393 . S
C1927 C1926 1.391 . S
H1928 C1936 0.950 . S
H1929 C1941 0.950 . S
H1930 C1938 0.950 . S
H1931 C1940 0.950 . S
H1932 C1942 0.950 . S
H1933 C1944 0.950 . S
H1934 C1946 0.950 . S
H1935 C1947 0.950 . S
C1936 H1928 0.950 . S
C1936 C1937 1.386 . S
C1936 C1938 1.391 . S
C1937 C1936 1.386 . S
C1937 C1941 1.393 . S
C1938 H1930 0.950 . S
C1938 C1936 1.391 . S
C1938 C1939 1.400 . S
C1939 C1938 1.400 . S
C1939 C1940 1.398 . S
C1939 C1945 1.491 . S
C1940 H1931 0.950 . S
C1940 C1939 1.398 . S
C1940 C1941 1.391 . S
C1941 H1929 0.950 . S
C1941 C1937 1.393 . S
C1941 C1940 1.391 . S
C1942 H1932 0.950 . S
C1942 C1943 1.386 . S
C1942 C1944 1.391 . S
C1943 C1942 1.386 . S
C1943 C1947 1.393 . S
C1944 H1933 0.950 . S
C1944 C1942 1.391 . S
C1944 C1945 1.400 . S
C1945 C1939 1.491 . S
C1945 C1944 1.400 . S
C1945 C1946 1.398 . S
C1946 H1934 0.950 . S
C1946 C1945 1.398 . S
C1946 C1947 1.391 . S
C1947 H1935 0.950 . S
C1947 C1943 1.393 . S
C1947 C1946 1.391 . S
H1948 C1956 0.950 . S
H1949 C1961 0.950 . S
H1950 C1958 0.950 . S
H1951 C1960 0.950 . S
H1952 C1962 0.950 . S
H1953 C1964 0.950 . S
H1954 C1966 0.950 . S
H1955 C1967 0.950 . S
C1956 H1948 0.950 . S
C1956 C1957 1.386 . S
C1956 C1958 1.391 . S
C1957 C1956 1.386 . S
C1957 C1961 1.393 . S
C1958 H1950 0.950 . S
C1958 C1956 1.391 . S
C1958 C1959 1.400 . S
C1959 C1958 1.400 . S
C1959 C1960 1.398 . S
C1959 C1965 1.491 . S
C1960 H1951 0.950 . S
C1960 C1959 1.398 . S
C1960 C1961 1.391 . S
C1961 H1949 0.950 . S
C1961 C1957 1.393 . S
C1961 C1960 1.391 . S
C1962 H1952 0.950 . S
C1962 C1963 1.386 . S
C1962 C1964 1.391 . S
C1963 C1962 1.386 . S
C1963 C1967 1.393 . S
C1964 H1953 0.950 . S
C1964 C1962 1.391 . S
C1964 C1965 1.400 . S
C1965 C1959 1.491 . S
C1965 C1964 1.400 . S
C1965 C1966 1.398 . S
C1966 H1954 0.950 . S
C1966 C1965 1.398 . S
C1966 C1967 1.391 . S
C1967 H1955 0.950 . S
C1967 C1963 1.393 . S
C1967 C1966 1.391 . S
H1968 C1976 0.950 . S
H1969 C1981 0.950 . S
H1970 C1978 0.950 . S
H1971 C1980 0.950 . S
H1972 C1982 0.950 . S
H1973 C1984 0.950 . S
H1974 C1986 0.950 . S
H1975 C1987 0.950 . S
C1976 H1968 0.950 . S
C1976 C1977 1.386 . S
C1976 C1978 1.391 . S
C1977 C1976 1.386 . S
C1977 C1981 1.393 . S
C1978 H1970 0.950 . S
C1978 C1976 1.391 . S
C1978 C1979 1.400 . S
C1979 C1978 1.400 . S
C1979 C1980 1.398 . S
C1979 C1985 1.491 . S
C1980 H1971 0.950 . S
C1980 C1979 1.398 . S
C1980 C1981 1.391 . S
C1981 H1969 0.950 . S
C1981 C1977 1.393 . S
C1981 C1980 1.391 . S
C1982 H1972 0.950 . S
C1982 C1983 1.386 . S
C1982 C1984 1.391 . S
C1983 C1982 1.386 . S
C1983 C1987 1.393 . S
C1984 H1973 0.950 . S
C1984 C1982 1.391 . S
C1984 C1985 1.400 . S
C1985 C1979 1.491 . S
C1985 C1984 1.400 . S
C1985 C1986 1.398 . S
C1986 H1974 0.950 . S
C1986 C1985 1.398 . S
C1986 C1987 1.391 . S
C1987 H1975 0.950 . S
C1987 C1983 1.393 . S
C1987 C1986 1.391 . S
H1988 C1996 0.950 . S
H1989 C2001 0.950 . S
H1990 C1998 0.950 . S
H1991 C2000 0.950 . S
H1992 C2002 0.950 . S
H1993 C2004 0.950 . S
H1994 C2006 0.950 . S
H1995 C2007 0.950 . S
C1996 H1988 0.950 . S
C1996 C1997 1.386 . S
C1996 C1998 1.391 . S
C1997 C1996 1.386 . S
C1997 C2001 1.393 . S
C1998 H1990 0.950 . S
C1998 C1996 1.391 . S
C1998 C1999 1.400 . S
C1999 C1998 1.400 . S
C1999 C2000 1.398 . S
C1999 C2005 1.491 . S
C2000 H1991 0.950 . S
C2000 C1999 1.398 . S
C2000 C2001 1.391 . S
C2001 H1989 0.950 . S
C2001 C1997 1.393 . S
C2001 C2000 1.391 . S
C2002 H1992 0.950 . S
C2002 C2003 1.386 . S
C2002 C2004 1.391 . S
C2003 C2002 1.386 . S
C2003 C2007 1.393 . S
C2004 H1993 0.950 . S
C2004 C2002 1.391 . S
C2004 C2005 1.400 . S
C2005 C1999 1.491 . S
C2005 C2004 1.400 . S
C2005 C2006 1.398 . S
C2006 H1994 0.950 . S
C2006 C2005 1.398 . S
C2006 C2007 1.391 . S
C2007 H1995 0.950 . S
C2007 C2003 1.393 . S
C2007 C2006 1.391 . S
H2008 C2016 0.950 . S
H2009 C2021 0.950 . S
H2010 C2018 0.950 . S
H2011 C2020 0.950 . S
H2012 C2022 0.950 . S
H2013 C2024 0.950 . S
H2014 C2026 0.950 . S
H2015 C2027 0.950 . S
C2016 H2008 0.950 . S
C2016 C2017 1.386 . S
C2016 C2018 1.391 . S
C2017 C2016 1.386 . S
C2017 C2021 1.393 . S
C2018 H2010 0.950 . S
C2018 C2016 1.391 . S
C2018 C2019 1.400 . S
C2019 C2018 1.400 . S
C2019 C2020 1.398 . S
C2019 C2025 1.491 . S
C2020 H2011 0.950 . S
C2020 C2019 1.398 . S
C2020 C2021 1.391 . S
C2021 H2009 0.950 . S
C2021 C2017 1.393 . S
C2021 C2020 1.391 . S
C2022 H2012 0.950 . S
C2022 C2023 1.386 . S
C2022 C2024 1.391 . S
C2023 C2022 1.386 . S
C2023 C2027 1.393 . S
C2024 H2013 0.950 . S
C2024 C2022 1.391 . S
C2024 C2025 1.400 . S
C2025 C2019 1.491 . S
C2025 C2024 1.400 . S
C2025 C2026 1.398 . S
C2026 H2014 0.950 . S
C2026 C2025 1.398 . S
C2026 C2027 1.391 . S
C2027 H2015 0.950 . S
C2027 C2023 1.393 . S
C2027 C2026 1.391 . S
H2028 C2036 0.950 . S
H2029 C2041 0.950 . S
H2030 C2038 0.950 . S
H2031 C2040 0.950 . S
H2032 C2042 0.950 . S
H2033 C2044 0.950 . S
H2034 C2046 0.950 . S
H2035 C2047 0.950 . S
C2036 H2028 0.950 . S
C2036 C2037 1.386 . S
C2036 C2038 1.391 . S
C2037 C2036 1.386 . S
C2037 C2041 1.393 . S
C2038 H2030 0.950 . S
C2038 C2036 1.391 . S
C2038 C2039 1.400 . S
C2039 C2038 1.400 . S
C2039 C2040 1.398 . S
C2039 C2045 1.491 . S
C2040 H2031 0.950 . S
C2040 C2039 1.398 . S
C2040 C2041 1.391 . S
C2041 H2029 0.950 . S
C2041 C2037 1.393 . S
C2041 C2040 1.391 . S
C2042 H2032 0.950 . S
C2042 C2043 1.386 . S
C2042 C2044 1.391 . S
C2043 C2042 1.386 . S
C2043 C2047 1.393 . S
C2044 H2033 0.950 . S
C2044 C2042 1.391 . S
C2044 C2045 1.400 . S
C2045 C2039 1.491 . S
C2045 C2044 1.400 . S
C2045 C2046 1.398 . S
C2046 H2034 0.950 . S
C2046 C2045 1.398 . S
C2046 C2047 1.391 . S
C2047 H2035 0.950 . S
C2047 C2043 1.393 . S
C2047 C2046 1.391 . S
H2048 C2056 0.950 . S
H2049 C2061 0.950 . S
H2050 C2058 0.950 . S
H2051 C2060 0.950 . S
H2052 C2062 0.950 . S
H2053 C2064 0.950 . S
H2054 C2066 0.950 . S
H2055 C2067 0.950 . S
C2056 H2048 0.950 . S
C2056 C2057 1.386 . S
C2056 C2058 1.391 . S
C2057 C2056 1.386 . S
C2057 C2061 1.393 . S
C2058 H2050 0.950 . S
C2058 C2056 1.391 . S
C2058 C2059 1.400 . S
C2059 C2058 1.400 . S
C2059 C2060 1.398 . S
C2059 C2065 1.491 . S
C2060 H2051 0.950 . S
C2060 C2059 1.398 . S
C2060 C2061 1.391 . S
C2061 H2049 0.950 . S
C2061 C2057 1.393 . S
C2061 C2060 1.391 . S
C2062 H2052 0.950 . S
C2062 C2063 1.386 . S
C2062 C2064 1.391 . S
C2063 C2062 1.386 . S
C2063 C2067 1.393 . S
C2064 H2053 0.950 . S
C2064 C2062 1.391 . S
C2064 C2065 1.400 . S
C2065 C2059 1.491 . S
C2065 C2064 1.400 . S
C2065 C2066 1.398 . S
C2066 H2054 0.950 . S
C2066 C2065 1.398 . S
C2066 C2067 1.391 . S
C2067 H2055 0.950 . S
C2067 C2063 1.393 . S
C2067 C2066 1.391 . S
H2068 C2076 0.950 . S
H2069 C2081 0.950 . S
H2070 C2078 0.950 . S
H2071 C2080 0.950 . S
H2072 C2082 0.950 . S
H2073 C2084 0.950 . S
H2074 C2086 0.950 . S
H2075 C2087 0.950 . S
C2076 H2068 0.950 . S
C2076 C2077 1.386 . S
C2076 C2078 1.391 . S
C2077 C2076 1.386 . S
C2077 C2081 1.393 . S
C2078 H2070 0.950 . S
C2078 C2076 1.391 . S
C2078 C2079 1.400 . S
C2079 C2078 1.400 . S
C2079 C2080 1.398 . S
C2079 C2085 1.491 . S
C2080 H2071 0.950 . S
C2080 C2079 1.398 . S
C2080 C2081 1.391 . S
C2081 H2069 0.950 . S
C2081 C2077 1.393 . S
C2081 C2080 1.391 . S
C2082 H2072 0.950 . S
C2082 C2083 1.386 . S
C2082 C2084 1.391 . S
C2083 C2082 1.386 . S
C2083 C2087 1.393 . S
C2084 H2073 0.950 . S
C2084 C2082 1.391 . S
C2084 C2085 1.400 . S
C2085 C2079 1.491 . S
C2085 C2084 1.400 . S
C2085 C2086 1.398 . S
C2086 H2074 0.950 . S
C2086 C2085 1.398 . S
C2086 C2087 1.391 . S
C2087 H2075 0.950 . S
C2087 C2083 1.393 . S
C2087 C2086 1.391 . S
H2088 C2096 0.950 . S
H2089 C2101 0.950 . S
H2090 C2098 0.950 . S
H2091 C2100 0.950 . S
H2092 C2102 0.950 . S
H2093 C2104 0.950 . S
H2094 C2106 0.950 . S
H2095 C2107 0.950 . S
C2096 H2088 0.950 . S
C2096 C2097 1.386 . S
C2096 C2098 1.391 . S
C2097 C2096 1.386 . S
C2097 C2101 1.393 . S
C2098 H2090 0.950 . S
C2098 C2096 1.391 . S
C2098 C2099 1.400 . S
C2099 C2098 1.400 . S
C2099 C2100 1.398 . S
C2099 C2105 1.491 . S
C2100 H2091 0.950 . S
C2100 C2099 1.398 . S
C2100 C2101 1.391 . S
C2101 H2089 0.950 . S
C2101 C2097 1.393 . S
C2101 C2100 1.391 . S
C2102 H2092 0.950 . S
C2102 C2103 1.386 . S
C2102 C2104 1.391 . S
C2103 C2102 1.386 . S
C2103 C2107 1.393 . S
C2104 H2093 0.950 . S
C2104 C2102 1.391 . S
C2104 C2105 1.400 . S
C2105 C2099 1.491 . S
C2105 C2104 1.400 . S
C2105 C2106 1.398 . S
C2106 H2094 0.950 . S
C2106 C2105 1.398 . S
C2106 C2107 1.391 . S
C2107 H2095 0.950 . S
C2107 C2103 1.393 . S
C2107 C2106 1.391 . S
H2108 C2116 0.950 . S
H2109 C2121 0.950 . S
H2110 C2118 0.950 . S
H2111 C2120 0.950 . S
H2112 C2122 0.950 . S
H2113 C2124 0.950 . S
H2114 C2126 0.950 . S
H2115 C2127 0.950 . S
C2116 H2108 0.950 . S
C2116 C2117 1.386 . S
C2116 C2118 1.391 . S
C2117 C2116 1.386 . S
C2117 C2121 1.393 . S
C2118 H2110 0.950 . S
C2118 C2116 1.391 . S
C2118 C2119 1.400 . S
C2119 C2118 1.400 . S
C2119 C2120 1.398 . S
C2119 C2125 1.491 . S
C2120 H2111 0.950 . S
C2120 C2119 1.398 . S
C2120 C2121 1.391 . S
C2121 H2109 0.950 . S
C2121 C2117 1.393 . S
C2121 C2120 1.391 . S
C2122 H2112 0.950 . S
C2122 C2123 1.386 . S
C2122 C2124 1.391 . S
C2123 C2122 1.386 . S
C2123 C2127 1.393 . S
C2124 H2113 0.950 . S
C2124 C2122 1.391 . S
C2124 C2125 1.400 . S
C2125 C2119 1.491 . S
C2125 C2124 1.400 . S
C2125 C2126 1.398 . S
C2126 H2114 0.950 . S
C2126 C2125 1.398 . S
C2126 C2127 1.391 . S
C2127 H2115 0.950 . S
C2127 C2123 1.393 . S
C2127 C2126 1.391 . S
H2128 C2136 0.950 . S
H2129 C2141 0.950 . S
H2130 C2138 0.950 . S
H2131 C2140 0.950 . S
H2132 C2142 0.950 . S
H2133 C2144 0.950 . S
H2134 C2146 0.950 . S
H2135 C2147 0.950 . S
C2136 H2128 0.950 . S
C2136 C2137 1.386 . S
C2136 C2138 1.391 . S
C2137 C2136 1.386 . S
C2137 C2141 1.393 . S
C2138 H2130 0.950 . S
C2138 C2136 1.391 . S
C2138 C2139 1.400 . S
C2139 C2138 1.400 . S
C2139 C2140 1.398 . S
C2139 C2145 1.491 . S
C2140 H2131 0.950 . S
C2140 C2139 1.398 . S
C2140 C2141 1.391 . S
C2141 H2129 0.950 . S
C2141 C2137 1.393 . S
C2141 C2140 1.391 . S
C2142 H2132 0.950 . S
C2142 C2143 1.386 . S
C2142 C2144 1.391 . S
C2143 C2142 1.386 . S
C2143 C2147 1.393 . S
C2144 H2133 0.950 . S
C2144 C2142 1.391 . S
C2144 C2145 1.400 . S
C2145 C2139 1.491 . S
C2145 C2144 1.400 . S
C2145 C2146 1.398 . S
C2146 H2134 0.950 . S
C2146 C2145 1.398 . S
C2146 C2147 1.391 . S
C2147 H2135 0.950 . S
C2147 C2143 1.393 . S
C2147 C2146 1.391 . S
H2148 C2156 0.950 . S
H2149 C2161 0.950 . S
H2150 C2158 0.950 . S
H2151 C2160 0.950 . S
H2152 C2162 0.950 . S
H2153 C2164 0.950 . S
H2154 C2166 0.950 . S
H2155 C2167 0.950 . S
C2156 H2148 0.950 . S
C2156 C2157 1.386 . S
C2156 C2158 1.391 . S
C2157 C2156 1.386 . S
C2157 C2161 1.393 . S
C2158 H2150 0.950 . S
C2158 C2156 1.391 . S
C2158 C2159 1.400 . S
C2159 C2158 1.400 . S
C2159 C2160 1.398 . S
C2159 C2165 1.491 . S
C2160 H2151 0.950 . S
C2160 C2159 1.398 . S
C2160 C2161 1.391 . S
C2161 H2149 0.950 . S
C2161 C2157 1.393 . S
C2161 C2160 1.391 . S
C2162 H2152 0.950 . S
C2162 C2163 1.386 . S
C2162 C2164 1.391 . S
C2163 C2162 1.386 . S
C2163 C2167 1.393 . S
C2164 H2153 0.950 . S
C2164 C2162 1.391 . S
C2164 C2165 1.400 . S
C2165 C2159 1.491 . S
C2165 C2164 1.400 . S
C2165 C2166 1.398 . S
C2166 H2154 0.950 . S
C2166 C2165 1.398 . S
C2166 C2167 1.391 . S
C2167 H2155 0.950 . S
C2167 C2163 1.393 . S
C2167 C2166 1.391 . S
H2168 C2176 0.950 . S
H2169 C2181 0.950 . S
H2170 C2178 0.950 . S
H2171 C2180 0.950 . S
H2172 C2182 0.950 . S
H2173 C2184 0.950 . S
H2174 C2186 0.950 . S
H2175 C2187 0.950 . S
C2176 H2168 0.950 . S
C2176 C2177 1.386 . S
C2176 C2178 1.391 . S
C2177 C2176 1.386 . S
C2177 C2181 1.393 . S
C2178 H2170 0.950 . S
C2178 C2176 1.391 . S
C2178 C2179 1.400 . S
C2179 C2178 1.400 . S
C2179 C2180 1.398 . S
C2179 C2185 1.491 . S
C2180 H2171 0.950 . S
C2180 C2179 1.398 . S
C2180 C2181 1.391 . S
C2181 H2169 0.950 . S
C2181 C2177 1.393 . S
C2181 C2180 1.391 . S
C2182 H2172 0.950 . S
C2182 C2183 1.386 . S
C2182 C2184 1.391 . S
C2183 C2182 1.386 . S
C2183 C2187 1.393 . S
C2184 H2173 0.950 . S
C2184 C2182 1.391 . S
C2184 C2185 1.400 . S
C2185 C2179 1.491 . S
C2185 C2184 1.400 . S
C2185 C2186 1.398 . S
C2186 H2174 0.950 . S
C2186 C2185 1.398 . S
C2186 C2187 1.391 . S
C2187 H2175 0.950 . S
C2187 C2183 1.393 . S
C2187 C2186 1.391 . S
H2188 C2196 0.950 . S
H2189 C2201 0.950 . S
H2190 C2198 0.950 . S
H2191 C2200 0.950 . S
H2192 C2202 0.950 . S
H2193 C2204 0.950 . S
H2194 C2206 0.950 . S
H2195 C2207 0.950 . S
C2196 H2188 0.950 . S
C2196 C2197 1.386 . S
C2196 C2198 1.391 . S
C2197 C2196 1.386 . S
C2197 C2201 1.393 . S
C2198 H2190 0.950 . S
C2198 C2196 1.391 . S
C2198 C2199 1.400 . S
C2199 C2198 1.400 . S
C2199 C2200 1.398 . S
C2199 C2205 1.491 . S
C2200 H2191 0.950 . S
C2200 C2199 1.398 . S
C2200 C2201 1.391 . S
C2201 H2189 0.950 . S
C2201 C2197 1.393 . S
C2201 C2200 1.391 . S
C2202 H2192 0.950 . S
C2202 C2203 1.386 . S
C2202 C2204 1.391 . S
C2203 C2202 1.386 . S
C2203 C2207 1.393 . S
C2204 H2193 0.950 . S
C2204 C2202 1.391 . S
C2204 C2205 1.400 . S
C2205 C2199 1.491 . S
C2205 C2204 1.400 . S
C2205 C2206 1.398 . S
C2206 H2194 0.950 . S
C2206 C2205 1.398 . S
C2206 C2207 1.391 . S
C2207 H2195 0.950 . S
C2207 C2203 1.393 . S
C2207 C2206 1.391 . S
H2208 C2216 0.950 . S
H2209 C2221 0.950 . S
H2210 C2218 0.950 . S
H2211 C2220 0.950 . S
H2212 C2222 0.950 . S
H2213 C2224 0.950 . S
H2214 C2226 0.950 . S
H2215 C2227 0.950 . S
C2216 H2208 0.950 . S
C2216 C2217 1.386 . S
C2216 C2218 1.391 . S
C2217 C2216 1.386 . S
C2217 C2221 1.393 . S
C2218 H2210 0.950 . S
C2218 C2216 1.391 . S
C2218 C2219 1.400 . S
C2219 C2218 1.400 . S
C2219 C2220 1.398 . S
C2219 C2225 1.491 . S
C2220 H2211 0.950 . S
C2220 C2219 1.398 . S
C2220 C2221 1.391 . S
C2221 H2209 0.950 . S
C2221 C2217 1.393 . S
C2221 C2220 1.391 . S
C2222 H2212 0.950 . S
C2222 C2223 1.386 . S
C2222 C2224 1.391 . S
C2223 C2222 1.386 . S
C2223 C2227 1.393 . S
C2224 H2213 0.950 . S
C2224 C2222 1.391 . S
C2224 C2225 1.400 . S
C2225 C2219 1.491 . S
C2225 C2224 1.400 . S
C2225 C2226 1.398 . S
C2226 H2214 0.950 . S
C2226 C2225 1.398 . S
C2226 C2227 1.391 . S
C2227 H2215 0.950 . S
C2227 C2223 1.393 . S
C2227 C2226 1.391 . S
H2228 C2236 0.950 . S
H2229 C2241 0.950 . S
H2230 C2238 0.950 . S
H2231 C2240 0.950 . S
H2232 C2242 0.950 . S
H2233 C2244 0.950 . S
H2234 C2246 0.950 . S
H2235 C2247 0.950 . S
C2236 H2228 0.950 . S
C2236 C2237 1.386 . S
C2236 C2238 1.391 . S
C2237 C2236 1.386 . S
C2237 C2241 1.393 . S
C2238 H2230 0.950 . S
C2238 C2236 1.391 . S
C2238 C2239 1.400 . S
C2239 C2238 1.400 . S
C2239 C2240 1.398 . S
C2239 C2245 1.491 . S
C2240 H2231 0.950 . S
C2240 C2239 1.398 . S
C2240 C2241 1.391 . S
C2241 H2229 0.950 . S
C2241 C2237 1.393 . S
C2241 C2240 1.391 . S
C2242 H2232 0.950 . S
C2242 C2243 1.386 . S
C2242 C2244 1.391 . S
C2243 C2242 1.386 . S
C2243 C2247 1.393 . S
C2244 H2233 0.950 . S
C2244 C2242 1.391 . S
C2244 C2245 1.400 . S
C2245 C2239 1.491 . S
C2245 C2244 1.400 . S
C2245 C2246 1.398 . S
C2246 H2234 0.950 . S
C2246 C2245 1.398 . S
C2246 C2247 1.391 . S
C2247 H2235 0.950 . S
C2247 C2243 1.393 . S
C2247 C2246 1.391 . S
H2248 C2256 0.950 . S
H2249 C2261 0.950 . S
H2250 C2258 0.950 . S
H2251 C2260 0.950 . S
H2252 C2262 0.950 . S
H2253 C2264 0.950 . S
H2254 C2266 0.950 . S
H2255 C2267 0.950 . S
C2256 H2248 0.950 . S
C2256 C2257 1.386 . S
C2256 C2258 1.391 . S
C2257 C2256 1.386 . S
C2257 C2261 1.393 . S
C2258 H2250 0.950 . S
C2258 C2256 1.391 . S
C2258 C2259 1.400 . S
C2259 C2258 1.400 . S
C2259 C2260 1.398 . S
C2259 C2265 1.491 . S
C2260 H2251 0.950 . S
C2260 C2259 1.398 . S
C2260 C2261 1.391 . S
C2261 H2249 0.950 . S
C2261 C2257 1.393 . S
C2261 C2260 1.391 . S
C2262 H2252 0.950 . S
C2262 C2263 1.386 . S
C2262 C2264 1.391 . S
C2263 C2262 1.386 . S
C2263 C2267 1.393 . S
C2264 H2253 0.950 . S
C2264 C2262 1.391 . S
C2264 C2265 1.400 . S
C2265 C2259 1.491 . S
C2265 C2264 1.400 . S
C2265 C2266 1.398 . S
C2266 H2254 0.950 . S
C2266 C2265 1.398 . S
C2266 C2267 1.391 . S
C2267 H2255 0.950 . S
C2267 C2263 1.393 . S
C2267 C2266 1.391 . S
H2268 C2276 0.950 . S
H2269 C2281 0.950 . S
H2270 C2278 0.950 . S
H2271 C2280 0.950 . S
H2272 C2282 0.950 . S
H2273 C2284 0.950 . S
H2274 C2286 0.950 . S
H2275 C2287 0.950 . S
C2276 H2268 0.950 . S
C2276 C2277 1.386 . S
C2276 C2278 1.391 . S
C2277 C2276 1.386 . S
C2277 C2281 1.393 . S
C2278 H2270 0.950 . S
C2278 C2276 1.391 . S
C2278 C2279 1.400 . S
C2279 C2278 1.400 . S
C2279 C2280 1.398 . S
C2279 C2285 1.491 . S
C2280 H2271 0.950 . S
C2280 C2279 1.398 . S
C2280 C2281 1.391 . S
C2281 H2269 0.950 . S
C2281 C2277 1.393 . S
C2281 C2280 1.391 . S
C2282 H2272 0.950 . S
C2282 C2283 1.386 . S
C2282 C2284 1.391 . S
C2283 C2282 1.386 . S
C2283 C2287 1.393 . S
C2284 H2273 0.950 . S
C2284 C2282 1.391 . S
C2284 C2285 1.400 . S
C2285 C2279 1.491 . S
C2285 C2284 1.400 . S
C2285 C2286 1.398 . S
C2286 H2274 0.950 . S
C2286 C2285 1.398 . S
C2286 C2287 1.391 . S
C2287 H2275 0.950 . S
C2287 C2283 1.393 . S
C2287 C2286 1.391 . S
H2288 C2296 0.950 . S
H2289 C2301 0.950 . S
H2290 C2298 0.950 . S
H2291 C2300 0.950 . S
H2292 C2302 0.950 . S
H2293 C2304 0.950 . S
H2294 C2306 0.950 . S
H2295 C2307 0.950 . S
C2296 H2288 0.950 . S
C2296 C2297 1.386 . S
C2296 C2298 1.391 . S
C2297 C2296 1.386 . S
C2297 C2301 1.393 . S
C2298 H2290 0.950 . S
C2298 C2296 1.391 . S
C2298 C2299 1.400 . S
C2299 C2298 1.400 . S
C2299 C2300 1.398 . S
C2299 C2305 1.491 . S
C2300 H2291 0.950 . S
C2300 C2299 1.398 . S
C2300 C2301 1.391 . S
C2301 H2289 0.950 . S
C2301 C2297 1.393 . S
C2301 C2300 1.391 . S
C2302 H2292 0.950 . S
C2302 C2303 1.386 . S
C2302 C2304 1.391 . S
C2303 C2302 1.386 . S
C2303 C2307 1.393 . S
C2304 H2293 0.950 . S
C2304 C2302 1.391 . S
C2304 C2305 1.400 . S
C2305 C2299 1.491 . S
C2305 C2304 1.400 . S
C2305 C2306 1.398 . S
C2306 H2294 0.950 . S
C2306 C2305 1.398 . S
C2306 C2307 1.391 . S
C2307 H2295 0.950 . S
C2307 C2303 1.393 . S
C2307 C2306 1.391 . S
H2308 C2316 0.950 . S
H2309 C2321 0.950 . S
H2310 C2318 0.950 . S
H2311 C2320 0.950 . S
H2312 C2322 0.950 . S
H2313 C2324 0.950 . S
H2314 C2326 0.950 . S
H2315 C2327 0.950 . S
C2316 H2308 0.950 . S
C2316 C2317 1.386 . S
C2316 C2318 1.391 . S
C2317 C2316 1.386 . S
C2317 C2321 1.393 . S
C2318 H2310 0.950 . S
C2318 C2316 1.391 . S
C2318 C2319 1.400 . S
C2319 C2318 1.400 . S
C2319 C2320 1.398 . S
C2319 C2325 1.491 . S
C2320 H2311 0.950 . S
C2320 C2319 1.398 . S
C2320 C2321 1.391 . S
C2321 H2309 0.950 . S
C2321 C2317 1.393 . S
C2321 C2320 1.391 . S
C2322 H2312 0.950 . S
C2322 C2323 1.386 . S
C2322 C2324 1.391 . S
C2323 C2322 1.386 . S
C2323 C2327 1.393 . S
C2324 H2313 0.950 . S
C2324 C2322 1.391 . S
C2324 C2325 1.400 . S
C2325 C2319 1.491 . S
C2325 C2324 1.400 . S
C2325 C2326 1.398 . S
C2326 H2314 0.950 . S
C2326 C2325 1.398 . S
C2326 C2327 1.391 . S
C2327 H2315 0.950 . S
C2327 C2323 1.393 . S
C2327 C2326 1.391 . S
H2328 C2336 0.950 . S
H2329 C2341 0.950 . S
H2330 C2338 0.950 . S
H2331 C2340 0.950 . S
H2332 C2342 0.950 . S
H2333 C2344 0.950 . S
H2334 C2346 0.950 . S
H2335 C2347 0.950 . S
C2336 H2328 0.950 . S
C2336 C2337 1.386 . S
C2336 C2338 1.391 . S
C2337 C2336 1.386 . S
C2337 C2341 1.393 . S
C2338 H2330 0.950 . S
C2338 C2336 1.391 . S
C2338 C2339 1.400 . S
C2339 C2338 1.400 . S
C2339 C2340 1.398 . S
C2339 C2345 1.491 . S
C2340 H2331 0.950 . S
C2340 C2339 1.398 . S
C2340 C2341 1.391 . S
C2341 H2329 0.950 . S
C2341 C2337 1.393 . S
C2341 C2340 1.391 . S
C2342 H2332 0.950 . S
C2342 C2343 1.386 . S
C2342 C2344 1.391 . S
C2343 C2342 1.386 . S
C2343 C2347 1.393 . S
C2344 H2333 0.950 . S
C2344 C2342 1.391 . S
C2344 C2345 1.400 . S
C2345 C2339 1.491 . S
C2345 C2344 1.400 . S
C2345 C2346 1.398 . S
C2346 H2334 0.950 . S
C2346 C2345 1.398 . S
C2346 C2347 1.391 . S
C2347 H2335 0.950 . S
C2347 C2343 1.393 . S
C2347 C2346 1.391 . S
H2348 C2356 0.950 . S
H2349 C2361 0.950 . S
H2350 C2358 0.950 . S
H2351 C2360 0.950 . S
H2352 C2362 0.950 . S
H2353 C2364 0.950 . S
H2354 C2366 0.950 . S
H2355 C2367 0.950 . S
C2356 H2348 0.950 . S
C2356 C2357 1.386 . S
C2356 C2358 1.391 . S
C2357 C2356 1.386 . S
C2357 C2361 1.393 . S
C2358 H2350 0.950 . S
C2358 C2356 1.391 . S
C2358 C2359 1.400 . S
C2359 C2358 1.400 . S
C2359 C2360 1.398 . S
C2359 C2365 1.491 . S
C2360 H2351 0.950 . S
C2360 C2359 1.398 . S
C2360 C2361 1.391 . S
C2361 H2349 0.950 . S
C2361 C2357 1.393 . S
C2361 C2360 1.391 . S
C2362 H2352 0.950 . S
C2362 C2363 1.386 . S
C2362 C2364 1.391 . S
C2363 C2362 1.386 . S
C2363 C2367 1.393 1_545 S
C2364 H2353 0.950 . S
C2364 C2362 1.391 . S
C2364 C2365 1.400 1_545 S
C2365 C2359 1.491 . S
C2365 C2364 1.400 1_565 S
C2365 C2366 1.398 . S
C2366 H2354 0.950 . S
C2366 C2365 1.398 . S
C2366 C2367 1.391 . S
C2367 H2355 0.950 . S
C2367 C2363 1.393 1_565 S
C2367 C2366 1.391 . S
H2368 C2376 0.950 . S
H2369 C2381 0.950 . S
H2370 C2378 0.950 . S
H2371 C2380 0.950 . S
H2372 C2382 0.950 . S
H2373 C2384 0.950 . S
H2374 C2386 0.950 . S
H2375 C2387 0.950 . S
C2376 H2368 0.950 . S
C2376 C2377 1.386 . S
C2376 C2378 1.391 . S
C2377 C2376 1.386 . S
C2377 C2381 1.393 . S
C2378 H2370 0.950 . S
C2378 C2376 1.391 . S
C2378 C2379 1.400 . S
C2379 C2378 1.400 . S
C2379 C2380 1.398 . S
C2379 C2385 1.491 . S
C2380 H2371 0.950 . S
C2380 C2379 1.398 . S
C2380 C2381 1.391 . S
C2381 H2369 0.950 . S
C2381 C2377 1.393 . S
C2381 C2380 1.391 . S
C2382 H2372 0.950 . S
C2382 C2383 1.386 . S
C2382 C2384 1.391 . S
C2383 C2382 1.386 . S
C2383 C2387 1.393 . S
C2384 H2373 0.950 . S
C2384 C2382 1.391 . S
C2384 C2385 1.400 . S
C2385 C2379 1.491 . S
C2385 C2384 1.400 . S
C2385 C2386 1.398 . S
C2386 H2374 0.950 . S
C2386 C2385 1.398 . S
C2386 C2387 1.391 . S
C2387 H2375 0.950 . S
C2387 C2383 1.393 . S
C2387 C2386 1.391 . S
H2388 C2396 0.950 . S
H2389 C2401 0.950 . S
H2390 C2398 0.950 . S
H2391 C2400 0.950 . S
H2392 C2402 0.950 . S
H2393 C2404 0.950 . S
H2394 C2406 0.950 . S
H2395 C2407 0.950 . S
C2396 H2388 0.950 . S
C2396 C2397 1.386 . S
C2396 C2398 1.391 . S
C2397 C2396 1.386 . S
C2397 C2401 1.393 . S
C2398 H2390 0.950 . S
C2398 C2396 1.391 . S
C2398 C2399 1.400 . S
C2399 C2398 1.400 . S
C2399 C2400 1.398 . S
C2399 C2405 1.491 . S
C2400 H2391 0.950 . S
C2400 C2399 1.398 . S
C2400 C2401 1.391 . S
C2401 H2389 0.950 . S
C2401 C2397 1.393 . S
C2401 C2400 1.391 . S
C2402 H2392 0.950 . S
C2402 C2403 1.386 . S
C2402 C2404 1.391 . S
C2403 C2402 1.386 . S
C2403 C2407 1.393 . S
C2404 H2393 0.950 . S
C2404 C2402 1.391 . S
C2404 C2405 1.400 . S
C2405 C2399 1.491 . S
C2405 C2404 1.400 . S
C2405 C2406 1.398 . S
C2406 H2394 0.950 . S
C2406 C2405 1.398 . S
C2406 C2407 1.391 . S
C2407 H2395 0.950 . S
C2407 C2403 1.393 . S
C2407 C2406 1.391 . S
H2408 C2416 0.950 . S
H2409 C2421 0.950 . S
H2410 C2418 0.950 . S
H2411 C2420 0.950 . S
H2412 C2422 0.950 . S
H2413 C2424 0.950 . S
H2414 C2426 0.950 . S
H2415 C2427 0.950 . S
C2416 H2408 0.950 . S
C2416 C2417 1.386 . S
C2416 C2418 1.391 . S
C2417 C2416 1.386 . S
C2417 C2421 1.393 . S
C2418 H2410 0.950 . S
C2418 C2416 1.391 . S
C2418 C2419 1.400 . S
C2419 C2418 1.400 . S
C2419 C2420 1.398 . S
C2419 C2425 1.491 . S
C2420 H2411 0.950 . S
C2420 C2419 1.398 . S
C2420 C2421 1.391 . S
C2421 H2409 0.950 . S
C2421 C2417 1.393 . S
C2421 C2420 1.391 . S
C2422 H2412 0.950 . S
C2422 C2423 1.386 . S
C2422 C2424 1.391 . S
C2423 C2422 1.386 . S
C2423 C2427 1.393 . S
C2424 H2413 0.950 . S
C2424 C2422 1.391 . S
C2424 C2425 1.400 . S
C2425 C2419 1.491 . S
C2425 C2424 1.400 . S
C2425 C2426 1.398 . S
C2426 H2414 0.950 . S
C2426 C2425 1.398 . S
C2426 C2427 1.391 . S
C2427 H2415 0.950 . S
C2427 C2423 1.393 . S
C2427 C2426 1.391 . S
H2428 C2436 0.950 . S
H2429 C2441 0.950 . S
H2430 C2438 0.950 . S
H2431 C2440 0.950 . S
H2432 C2442 0.950 . S
H2433 C2444 0.950 . S
H2434 C2446 0.950 . S
H2435 C2447 0.950 . S
C2436 H2428 0.950 . S
C2436 C2437 1.386 . S
C2436 C2438 1.391 . S
C2437 C2436 1.386 . S
C2437 C2441 1.393 . S
C2438 H2430 0.950 . S
C2438 C2436 1.391 . S
C2438 C2439 1.400 . S
C2439 C2438 1.400 . S
C2439 C2440 1.398 . S
C2439 C2445 1.491 . S
C2440 H2431 0.950 . S
C2440 C2439 1.398 . S
C2440 C2441 1.391 . S
C2441 H2429 0.950 . S
C2441 C2437 1.393 . S
C2441 C2440 1.391 . S
C2442 H2432 0.950 . S
C2442 C2443 1.386 . S
C2442 C2444 1.391 . S
C2443 C2442 1.386 . S
C2443 C2447 1.393 . S
C2444 H2433 0.950 . S
C2444 C2442 1.391 . S
C2444 C2445 1.400 . S
C2445 C2439 1.491 . S
C2445 C2444 1.400 . S
C2445 C2446 1.398 . S
C2446 H2434 0.950 . S
C2446 C2445 1.398 . S
C2446 C2447 1.391 . S
C2447 H2435 0.950 . S
C2447 C2443 1.393 . S
C2447 C2446 1.391 . S
H2448 C2456 0.950 . S
H2449 C2461 0.950 . S
H2450 C2458 0.950 . S
H2451 C2460 0.950 . S
H2452 C2462 0.950 . S
H2453 C2464 0.950 . S
H2454 C2466 0.950 . S
H2455 C2467 0.950 . S
C2456 H2448 0.950 . S
C2456 C2457 1.386 . S
C2456 C2458 1.391 . S
C2457 C2456 1.386 . S
C2457 C2461 1.393 . S
C2458 H2450 0.950 . S
C2458 C2456 1.391 . S
C2458 C2459 1.400 . S
C2459 C2458 1.400 . S
C2459 C2460 1.398 . S
C2459 C2465 1.491 . S
C2460 H2451 0.950 . S
C2460 C2459 1.398 . S
C2460 C2461 1.391 . S
C2461 H2449 0.950 . S
C2461 C2457 1.393 . S
C2461 C2460 1.391 . S
C2462 H2452 0.950 . S
C2462 C2463 1.386 . S
C2462 C2464 1.391 . S
C2463 C2462 1.386 . S
C2463 C2467 1.393 . S
C2464 H2453 0.950 . S
C2464 C2462 1.391 . S
C2464 C2465 1.400 . S
C2465 C2459 1.491 . S
C2465 C2464 1.400 . S
C2465 C2466 1.398 . S
C2466 H2454 0.950 . S
C2466 C2465 1.398 . S
C2466 C2467 1.391 . S
C2467 H2455 0.950 . S
C2467 C2463 1.393 . S
C2467 C2466 1.391 . S
H2468 C2476 0.950 . S
H2469 C2481 0.950 . S
H2470 C2478 0.950 . S
H2471 C2480 0.950 . S
H2472 C2482 0.950 . S
H2473 C2484 0.950 . S
H2474 C2486 0.950 . S
H2475 C2487 0.950 . S
C2476 H2468 0.950 . S
C2476 C2477 1.386 . S
C2476 C2478 1.391 . S
C2477 C2476 1.386 . S
C2477 C2481 1.393 . S
C2478 H2470 0.950 . S
C2478 C2476 1.391 . S
C2478 C2479 1.400 . S
C2479 C2478 1.400 . S
C2479 C2480 1.398 . S
C2479 C2485 1.491 . S
C2480 H2471 0.950 . S
C2480 C2479 1.398 . S
C2480 C2481 1.391 . S
C2481 H2469 0.950 . S
C2481 C2477 1.393 . S
C2481 C2480 1.391 . S
C2482 H2472 0.950 . S
C2482 C2483 1.386 . S
C2482 C2484 1.391 . S
C2483 C2482 1.386 . S
C2483 C2487 1.393 . S
C2484 H2473 0.950 . S
C2484 C2482 1.391 . S
C2484 C2485 1.400 . S
C2485 C2479 1.491 . S
C2485 C2484 1.400 . S
C2485 C2486 1.398 . S
C2486 H2474 0.950 . S
C2486 C2485 1.398 . S
C2486 C2487 1.391 . S
C2487 H2475 0.950 . S
C2487 C2483 1.393 . S
C2487 C2486 1.391 . S
H2488 C2496 0.950 . S
H2489 C2501 0.950 . S
H2490 C2498 0.950 . S
H2491 C2500 0.950 . S
H2492 C2502 0.950 . S
H2493 C2504 0.950 . S
H2494 C2506 0.950 . S
H2495 C2507 0.950 . S
C2496 H2488 0.950 . S
C2496 C2497 1.386 . S
C2496 C2498 1.391 . S
C2497 C2496 1.386 . S
C2497 C2501 1.393 . S
C2498 H2490 0.950 . S
C2498 C2496 1.391 . S
C2498 C2499 1.400 . S
C2499 C2498 1.400 . S
C2499 C2500 1.398 . S
C2499 C2505 1.491 . S
C2500 H2491 0.950 . S
C2500 C2499 1.398 . S
C2500 C2501 1.391 . S
C2501 H2489 0.950 . S
C2501 C2497 1.393 . S
C2501 C2500 1.391 . S
C2502 H2492 0.950 . S
C2502 C2503 1.386 . S
C2502 C2504 1.391 . S
C2503 C2502 1.386 . S
C2503 C2507 1.393 . S
C2504 H2493 0.950 . S
C2504 C2502 1.391 . S
C2504 C2505 1.400 . S
C2505 C2499 1.491 . S
C2505 C2504 1.400 . S
C2505 C2506 1.398 . S
C2506 H2494 0.950 . S
C2506 C2505 1.398 . S
C2506 C2507 1.391 . S
C2507 H2495 0.950 . S
C2507 C2503 1.393 . S
C2507 C2506 1.391 . S
H2508 C2516 0.950 . S
H2509 C2521 0.950 . S
H2510 C2518 0.950 . S
H2511 C2520 0.950 . S
H2512 C2522 0.950 . S
H2513 C2524 0.950 . S
H2514 C2526 0.950 . S
H2515 C2527 0.950 . S
C2516 H2508 0.950 . S
C2516 C2517 1.386 . S
C2516 C2518 1.391 . S
C2517 C2516 1.386 . S
C2517 C2521 1.393 . S
C2518 H2510 0.950 . S
C2518 C2516 1.391 . S
C2518 C2519 1.400 . S
C2519 C2518 1.400 . S
C2519 C2520 1.398 . S
C2519 C2525 1.491 . S
C2520 H2511 0.950 . S
C2520 C2519 1.398 . S
C2520 C2521 1.391 . S
C2521 H2509 0.950 . S
C2521 C2517 1.393 . S
C2521 C2520 1.391 . S
C2522 H2512 0.950 . S
C2522 C2523 1.386 . S
C2522 C2524 1.391 . S
C2523 C2522 1.386 . S
C2523 C2527 1.393 . S
C2524 H2513 0.950 . S
C2524 C2522 1.391 . S
C2524 C2525 1.400 . S
C2525 C2519 1.491 . S
C2525 C2524 1.400 . S
C2525 C2526 1.398 . S
C2526 H2514 0.950 . S
C2526 C2525 1.398 . S
C2526 C2527 1.391 . S
C2527 H2515 0.950 . S
C2527 C2523 1.393 . S
C2527 C2526 1.391 . S
H2528 C2536 0.950 . S
H2529 C2541 0.950 . S
H2530 C2538 0.950 . S
H2531 C2540 0.950 . S
H2532 C2542 0.950 . S
H2533 C2544 0.950 . S
H2534 C2546 0.950 . S
H2535 C2547 0.950 . S
C2536 H2528 0.950 . S
C2536 C2537 1.386 . S
C2536 C2538 1.391 . S
C2537 C2536 1.386 . S
C2537 C2541 1.393 . S
C2538 H2530 0.950 . S
C2538 C2536 1.391 . S
C2538 C2539 1.400 . S
C2539 C2538 1.400 . S
C2539 C2540 1.398 . S
C2539 C2545 1.491 . S
C2540 H2531 0.950 . S
C2540 C2539 1.398 . S
C2540 C2541 1.391 . S
C2541 H2529 0.950 . S
C2541 C2537 1.393 . S
C2541 C2540 1.391 . S
C2542 H2532 0.950 . S
C2542 C2543 1.386 . S
C2542 C2544 1.391 . S
C2543 C2542 1.386 . S
C2543 C2547 1.393 . S
C2544 H2533 0.950 . S
C2544 C2542 1.391 . S
C2544 C2545 1.400 . S
C2545 C2539 1.491 . S
C2545 C2544 1.400 . S
C2545 C2546 1.398 . S
C2546 H2534 0.950 . S
C2546 C2545 1.398 . S
C2546 C2547 1.391 . S
C2547 H2535 0.950 . S
C2547 C2543 1.393 . S
C2547 C2546 1.391 . S
H2548 C2556 0.950 . S
H2549 C2561 0.950 . S
H2550 C2558 0.950 . S
H2551 C2560 0.950 . S
H2552 C2562 0.950 . S
H2553 C2564 0.950 . S
H2554 C2566 0.950 . S
H2555 C2567 0.950 . S
C2556 H2548 0.950 . S
C2556 C2557 1.386 . S
C2556 C2558 1.391 . S
C2557 C2556 1.386 . S
C2557 C2561 1.393 . S
C2558 H2550 0.950 . S
C2558 C2556 1.391 . S
C2558 C2559 1.400 . S
C2559 C2558 1.400 . S
C2559 C2560 1.398 . S
C2559 C2565 1.491 . S
C2560 H2551 0.950 . S
C2560 C2559 1.398 . S
C2560 C2561 1.391 . S
C2561 H2549 0.950 . S
C2561 C2557 1.393 . S
C2561 C2560 1.391 . S
C2562 H2552 0.950 . S
C2562 C2563 1.386 . S
C2562 C2564 1.391 . S
C2563 C2562 1.386 . S
C2563 C2567 1.393 . S
C2564 H2553 0.950 . S
C2564 C2562 1.391 . S
C2564 C2565 1.400 . S
C2565 C2559 1.491 . S
C2565 C2564 1.400 . S
C2565 C2566 1.398 . S
C2566 H2554 0.950 . S
C2566 C2565 1.398 . S
C2566 C2567 1.391 . S
C2567 H2555 0.950 . S
C2567 C2563 1.393 . S
C2567 C2566 1.391 . S
H2568 C2576 0.950 . S
H2569 C2581 0.950 . S
H2570 C2578 0.950 . S
H2571 C2580 0.950 . S
H2572 C2582 0.950 . S
H2573 C2584 0.950 . S
H2574 C2586 0.950 . S
H2575 C2587 0.950 . S
C2576 H2568 0.950 . S
C2576 C2577 1.386 . S
C2576 C2578 1.391 . S
C2577 C2576 1.386 . S
C2577 C2581 1.393 . S
C2578 H2570 0.950 . S
C2578 C2576 1.391 . S
C2578 C2579 1.400 . S
C2579 C2578 1.400 . S
C2579 C2580 1.398 . S
C2579 C2585 1.491 . S
C2580 H2571 0.950 . S
C2580 C2579 1.398 . S
C2580 C2581 1.391 . S
C2581 H2569 0.950 . S
C2581 C2577 1.393 . S
C2581 C2580 1.391 . S
C2582 H2572 0.950 . S
C2582 C2583 1.386 . S
C2582 C2584 1.391 . S
C2583 C2582 1.386 . S
C2583 C2587 1.393 . S
C2584 H2573 0.950 . S
C2584 C2582 1.391 . S
C2584 C2585 1.400 . S
C2585 C2579 1.491 . S
C2585 C2584 1.400 . S
C2585 C2586 1.398 . S
C2586 H2574 0.950 . S
C2586 C2585 1.398 . S
C2586 C2587 1.391 . S
C2587 H2575 0.950 . S
C2587 C2583 1.393 . S
C2587 C2586 1.391 . S
H2588 C2596 0.950 . S
H2589 C2601 0.950 . S
H2590 C2598 0.950 . S
H2591 C2600 0.950 . S
H2592 C2602 0.950 . S
H2593 C2604 0.950 . S
H2594 C2606 0.950 . S
H2595 C2607 0.950 . S
C2596 H2588 0.950 . S
C2596 C2597 1.386 . S
C2596 C2598 1.391 . S
C2597 C2596 1.386 . S
C2597 C2601 1.393 . S
C2598 H2590 0.950 . S
C2598 C2596 1.391 . S
C2598 C2599 1.400 . S
C2599 C2598 1.400 . S
C2599 C2600 1.398 . S
C2599 C2605 1.491 . S
C2600 H2591 0.950 . S
C2600 C2599 1.398 . S
C2600 C2601 1.391 . S
C2601 H2589 0.950 . S
C2601 C2597 1.393 . S
C2601 C2600 1.391 . S
C2602 H2592 0.950 . S
C2602 C2603 1.386 . S
C2602 C2604 1.391 . S
C2603 C2602 1.386 . S
C2603 C2607 1.393 . S
C2604 H2593 0.950 . S
C2604 C2602 1.391 . S
C2604 C2605 1.400 . S
C2605 C2599 1.491 . S
C2605 C2604 1.400 . S
C2605 C2606 1.398 . S
C2606 H2594 0.950 . S
C2606 C2605 1.398 . S
C2606 C2607 1.391 . S
C2607 H2595 0.950 . S
C2607 C2603 1.393 . S
C2607 C2606 1.391 . S
H2608 C2616 0.950 . S
H2609 C2621 0.950 . S
H2610 C2618 0.950 . S
H2611 C2620 0.950 . S
H2612 C2622 0.950 . S
H2613 C2624 0.950 . S
H2614 C2626 0.950 . S
H2615 C2627 0.950 . S
C2616 H2608 0.950 . S
C2616 C2617 1.386 . S
C2616 C2618 1.391 . S
C2617 C2616 1.386 . S
C2617 C2621 1.393 . S
C2618 H2610 0.950 . S
C2618 C2616 1.391 . S
C2618 C2619 1.400 . S
C2619 C2618 1.400 . S
C2619 C2620 1.398 . S
C2619 C2625 1.491 . S
C2620 H2611 0.950 . S
C2620 C2619 1.398 . S
C2620 C2621 1.391 . S
C2621 H2609 0.950 . S
C2621 C2617 1.393 . S
C2621 C2620 1.391 . S
C2622 H2612 0.950 . S
C2622 C2623 1.386 . S
C2622 C2624 1.391 . S
C2623 C2622 1.386 . S
C2623 C2627 1.393 . S
C2624 H2613 0.950 . S
C2624 C2622 1.391 . S
C2624 C2625 1.400 . S
C2625 C2619 1.491 . S
C2625 C2624 1.400 . S
C2625 C2626 1.398 . S
C2626 H2614 0.950 . S
C2626 C2625 1.398 . S
C2626 C2627 1.391 . S
C2627 H2615 0.950 . S
C2627 C2623 1.393 . S
C2627 C2626 1.391 . S
H2628 C2636 0.950 . S
H2629 C2641 0.950 . S
H2630 C2638 0.950 . S
H2631 C2640 0.950 . S
H2632 C2642 0.950 . S
H2633 C2644 0.950 . S
H2634 C2646 0.950 . S
H2635 C2647 0.950 . S
C2636 H2628 0.950 . S
C2636 C2637 1.386 . S
C2636 C2638 1.391 . S
C2637 C2636 1.386 . S
C2637 C2641 1.393 . S
C2638 H2630 0.950 . S
C2638 C2636 1.391 . S
C2638 C2639 1.400 . S
C2639 C2638 1.400 . S
C2639 C2640 1.398 . S
C2639 C2645 1.491 . S
C2640 H2631 0.950 . S
C2640 C2639 1.398 . S
C2640 C2641 1.391 . S
C2641 H2629 0.950 . S
C2641 C2637 1.393 . S
C2641 C2640 1.391 . S
C2642 H2632 0.950 . S
C2642 C2643 1.386 . S
C2642 C2644 1.391 . S
C2643 C2642 1.386 . S
C2643 C2647 1.393 . S
C2644 H2633 0.950 . S
C2644 C2642 1.391 . S
C2644 C2645 1.400 . S
C2645 C2639 1.491 . S
C2645 C2644 1.400 . S
C2645 C2646 1.398 . S
C2646 H2634 0.950 . S
C2646 C2645 1.398 . S
C2646 C2647 1.391 . S
C2647 H2635 0.950 . S
C2647 C2643 1.393 . S
C2647 C2646 1.391 . S
H2648 C2656 0.950 . S
H2649 C2661 0.950 . S
H2650 C2658 0.950 . S
H2651 C2660 0.950 . S
H2652 C2662 0.950 . S
H2653 C2664 0.950 . S
H2654 C2666 0.950 . S
H2655 C2667 0.950 . S
C2656 H2648 0.950 . S
C2656 C2657 1.386 . S
C2656 C2658 1.391 . S
C2657 C2656 1.386 . S
C2657 C2661 1.393 . S
C2658 H2650 0.950 . S
C2658 C2656 1.391 . S
C2658 C2659 1.400 . S
C2659 C2658 1.400 . S
C2659 C2660 1.398 . S
C2659 C2665 1.491 . S
C2660 H2651 0.950 . S
C2660 C2659 1.398 . S
C2660 C2661 1.391 . S
C2661 H2649 0.950 . S
C2661 C2657 1.393 . S
C2661 C2660 1.391 . S
C2662 H2652 0.950 . S
C2662 C2663 1.386 . S
C2662 C2664 1.391 . S
C2663 C2662 1.386 . S
C2663 C2667 1.393 . S
C2664 H2653 0.950 . S
C2664 C2662 1.391 . S
C2664 C2665 1.400 . S
C2665 C2659 1.491 . S
C2665 C2664 1.400 . S
C2665 C2666 1.398 . S
C2666 H2654 0.950 . S
C2666 C2665 1.398 . S
C2666 C2667 1.391 . S
C2667 H2655 0.950 . S
C2667 C2663 1.393 . S
C2667 C2666 1.391 . S
H2668 C2676 0.950 . S
H2669 C2681 0.950 . S
H2670 C2678 0.950 . S
H2671 C2680 0.950 . S
H2672 C2682 0.950 . S
H2673 C2684 0.950 . S
H2674 C2686 0.950 . S
H2675 C2687 0.950 . S
C2676 H2668 0.950 . S
C2676 C2677 1.386 . S
C2676 C2678 1.391 . S
C2677 C2676 1.386 . S
C2677 C2681 1.393 . S
C2678 H2670 0.950 . S
C2678 C2676 1.391 . S
C2678 C2679 1.400 . S
C2679 C2678 1.400 . S
C2679 C2680 1.398 . S
C2679 C2685 1.491 . S
C2680 H2671 0.950 . S
C2680 C2679 1.398 . S
C2680 C2681 1.391 . S
C2681 H2669 0.950 . S
C2681 C2677 1.393 . S
C2681 C2680 1.391 . S
C2682 H2672 0.950 . S
C2682 C2683 1.386 . S
C2682 C2684 1.391 . S
C2683 C2682 1.386 . S
C2683 C2687 1.393 . S
C2684 H2673 0.950 . S
C2684 C2682 1.391 . S
C2684 C2685 1.400 . S
C2685 C2679 1.491 . S
C2685 C2684 1.400 . S
C2685 C2686 1.398 . S
C2686 H2674 0.950 . S
C2686 C2685 1.398 . S
C2686 C2687 1.391 . S
C2687 H2675 0.950 . S
C2687 C2683 1.393 . S
C2687 C2686 1.391 . S
H2688 C2696 0.950 . S
H2689 C2701 0.950 . S
H2690 C2698 0.950 . S
H2691 C2700 0.950 . S
H2692 C2702 0.950 . S
H2693 C2704 0.950 . S
H2694 C2706 0.950 . S
H2695 C2707 0.950 . S
C2696 H2688 0.950 . S
C2696 C2697 1.386 . S
C2696 C2698 1.391 . S
C2697 C2696 1.386 . S
C2697 C2701 1.393 . S
C2698 H2690 0.950 . S
C2698 C2696 1.391 . S
C2698 C2699 1.400 . S
C2699 C2698 1.400 . S
C2699 C2700 1.398 . S
C2699 C2705 1.491 . S
C2700 H2691 0.950 . S
C2700 C2699 1.398 . S
C2700 C2701 1.391 . S
C2701 H2689 0.950 . S
C2701 C2697 1.393 . S
C2701 C2700 1.391 . S
C2702 H2692 0.950 . S
C2702 C2703 1.386 . S
C2702 C2704 1.391 . S
C2703 C2702 1.386 . S
C2703 C2707 1.393 . S
C2704 H2693 0.950 . S
C2704 C2702 1.391 . S
C2704 C2705 1.400 . S
C2705 C2699 1.491 . S
C2705 C2704 1.400 . S
C2705 C2706 1.398 . S
C2706 H2694 0.950 . S
C2706 C2705 1.398 . S
C2706 C2707 1.391 . S
C2707 H2695 0.950 . S
C2707 C2703 1.393 . S
C2707 C2706 1.391 . S
H2708 C2716 0.950 . S
H2709 C2721 0.950 . S
H2710 C2718 0.950 . S
H2711 C2720 0.950 . S
H2712 C2722 0.950 . S
H2713 C2724 0.950 . S
H2714 C2726 0.950 . S
H2715 C2727 0.950 . S
C2716 H2708 0.950 . S
C2716 C2717 1.386 . S
C2716 C2718 1.391 . S
C2717 C2716 1.386 . S
C2717 C2721 1.393 . S
C2718 H2710 0.950 . S
C2718 C2716 1.391 . S
C2718 C2719 1.400 . S
C2719 C2718 1.400 . S
C2719 C2720 1.398 . S
C2719 C2725 1.491 . S
C2720 H2711 0.950 . S
C2720 C2719 1.398 . S
C2720 C2721 1.391 . S
C2721 H2709 0.950 . S
C2721 C2717 1.393 . S
C2721 C2720 1.391 . S
C2722 H2712 0.950 . S
C2722 C2723 1.386 . S
C2722 C2724 1.391 . S
C2723 C2722 1.386 . S
C2723 C2727 1.393 . S
C2724 H2713 0.950 . S
C2724 C2722 1.391 . S
C2724 C2725 1.400 . S
C2725 C2719 1.491 . S
C2725 C2724 1.400 . S
C2725 C2726 1.398 . S
C2726 H2714 0.950 . S
C2726 C2725 1.398 . S
C2726 C2727 1.391 . S
C2727 H2715 0.950 . S
C2727 C2723 1.393 . S
C2727 C2726 1.391 . S
H2728 C2736 0.950 . S
H2729 C2741 0.950 . S
H2730 C2738 0.950 . S
H2731 C2740 0.950 . S
H2732 C2742 0.950 . S
H2733 C2744 0.950 . S
H2734 C2746 0.950 . S
H2735 C2747 0.950 . S
C2736 H2728 0.950 . S
C2736 C2737 1.386 . S
C2736 C2738 1.391 . S
C2737 C2736 1.386 . S
C2737 C2741 1.393 . S
C2738 H2730 0.950 . S
C2738 C2736 1.391 . S
C2738 C2739 1.400 . S
C2739 C2738 1.400 . S
C2739 C2740 1.398 . S
C2739 C2745 1.491 . S
C2740 H2731 0.950 . S
C2740 C2739 1.398 . S
C2740 C2741 1.391 . S
C2741 H2729 0.950 . S
C2741 C2737 1.393 . S
C2741 C2740 1.391 . S
C2742 H2732 0.950 . S
C2742 C2743 1.386 . S
C2742 C2744 1.391 . S
C2743 C2742 1.386 . S
C2743 C2747 1.393 . S
C2744 H2733 0.950 . S
C2744 C2742 1.391 . S
C2744 C2745 1.400 . S
C2745 C2739 1.491 . S
C2745 C2744 1.400 . S
C2745 C2746 1.398 . S
C2746 H2734 0.950 . S
C2746 C2745 1.398 . S
C2746 C2747 1.391 . S
C2747 H2735 0.950 . S
C2747 C2743 1.393 . S
C2747 C2746 1.391 . S
H2748 C2756 0.950 . S
H2749 C2761 0.950 . S
H2750 C2758 0.950 . S
H2751 C2760 0.950 . S
H2752 C2762 0.950 . S
H2753 C2764 0.950 . S
H2754 C2766 0.950 . S
H2755 C2767 0.950 . S
C2756 H2748 0.950 . S
C2756 C2757 1.386 . S
C2756 C2758 1.391 . S
C2757 C2756 1.386 . S
C2757 C2761 1.393 . S
C2758 H2750 0.950 . S
C2758 C2756 1.391 . S
C2758 C2759 1.400 . S
C2759 C2758 1.400 . S
C2759 C2760 1.398 . S
C2759 C2765 1.491 . S
C2760 H2751 0.950 . S
C2760 C2759 1.398 . S
C2760 C2761 1.391 . S
C2761 H2749 0.950 . S
C2761 C2757 1.393 . S
C2761 C2760 1.391 . S
C2762 H2752 0.950 . S
C2762 C2763 1.386 . S
C2762 C2764 1.391 . S
C2763 C2762 1.386 . S
C2763 C2767 1.393 . S
C2764 H2753 0.950 . S
C2764 C2762 1.391 . S
C2764 C2765 1.400 . S
C2765 C2759 1.491 . S
C2765 C2764 1.400 . S
C2765 C2766 1.398 . S
C2766 H2754 0.950 . S
C2766 C2765 1.398 . S
C2766 C2767 1.391 . S
C2767 H2755 0.950 . S
C2767 C2763 1.393 . S
C2767 C2766 1.391 . S
H2768 C2776 0.950 . S
H2769 C2781 0.950 . S
H2770 C2778 0.950 . S
H2771 C2780 0.950 . S
H2772 C2782 0.950 . S
H2773 C2784 0.950 . S
H2774 C2786 0.950 . S
H2775 C2787 0.950 . S
C2776 H2768 0.950 . S
C2776 C2777 1.386 . S
C2776 C2778 1.391 . S
C2777 C2776 1.386 . S
C2777 C2781 1.393 . S
C2778 H2770 0.950 . S
C2778 C2776 1.391 . S
C2778 C2779 1.400 . S
C2779 C2778 1.400 . S
C2779 C2780 1.398 . S
C2779 C2785 1.491 . S
C2780 H2771 0.950 . S
C2780 C2779 1.398 . S
C2780 C2781 1.391 . S
C2781 H2769 0.950 . S
C2781 C2777 1.393 . S
C2781 C2780 1.391 . S
C2782 H2772 0.950 . S
C2782 C2783 1.386 . S
C2782 C2784 1.391 . S
C2783 C2782 1.386 . S
C2783 C2787 1.393 . S
C2784 H2773 0.950 . S
C2784 C2782 1.391 . S
C2784 C2785 1.400 . S
C2785 C2779 1.491 . S
C2785 C2784 1.400 . S
C2785 C2786 1.398 . S
C2786 H2774 0.950 . S
C2786 C2785 1.398 . S
C2786 C2787 1.391 . S
C2787 H2775 0.950 . S
C2787 C2783 1.393 . S
C2787 C2786 1.391 . S
H2788 C2796 0.950 . S
H2789 C2801 0.950 . S
H2790 C2798 0.950 . S
H2791 C2800 0.950 . S
H2792 C2802 0.950 . S
H2793 C2804 0.950 . S
H2794 C2806 0.950 . S
H2795 C2807 0.950 . S
C2796 H2788 0.950 . S
C2796 C2797 1.386 . S
C2796 C2798 1.391 . S
C2797 C2796 1.386 . S
C2797 C2801 1.393 . S
C2798 H2790 0.950 . S
C2798 C2796 1.391 . S
C2798 C2799 1.400 . S
C2799 C2798 1.400 . S
C2799 C2800 1.398 . S
C2799 C2805 1.491 . S
C2800 H2791 0.950 . S
C2800 C2799 1.398 . S
C2800 C2801 1.391 . S
C2801 H2789 0.950 . S
C2801 C2797 1.393 . S
C2801 C2800 1.391 . S
C2802 H2792 0.950 . S
C2802 C2803 1.386 . S
C2802 C2804 1.391 . S
C2803 C2802 1.386 . S
C2803 C2807 1.393 . S
C2804 H2793 0.950 . S
C2804 C2802 1.391 . S
C2804 C2805 1.400 . S
C2805 C2799 1.491 . S
C2805 C2804 1.400 . S
C2805 C2806 1.398 . S
C2806 H2794 0.950 . S
C2806 C2805 1.398 . S
C2806 C2807 1.391 . S
C2807 H2795 0.950 . S
C2807 C2803 1.393 . S
C2807 C2806 1.391 . S
H2808 C2816 0.950 . S
H2809 C2821 0.950 . S
H2810 C2818 0.950 . S
H2811 C2820 0.950 . S
H2812 C2822 0.950 . S
H2813 C2824 0.950 . S
H2814 C2826 0.950 . S
H2815 C2827 0.950 . S
C2816 H2808 0.950 . S
C2816 C2817 1.386 . S
C2816 C2818 1.391 . S
C2817 C2816 1.386 . S
C2817 C2821 1.393 . S
C2818 H2810 0.950 . S
C2818 C2816 1.391 . S
C2818 C2819 1.400 . S
C2819 C2818 1.400 . S
C2819 C2820 1.398 . S
C2819 C2825 1.491 . S
C2820 H2811 0.950 . S
C2820 C2819 1.398 . S
C2820 C2821 1.391 . S
C2821 H2809 0.950 . S
C2821 C2817 1.393 . S
C2821 C2820 1.391 . S
C2822 H2812 0.950 . S
C2822 C2823 1.386 . S
C2822 C2824 1.391 . S
C2823 C2822 1.386 . S
C2823 C2827 1.393 . S
C2824 H2813 0.950 . S
C2824 C2822 1.391 . S
C2824 C2825 1.400 . S
C2825 C2819 1.491 . S
C2825 C2824 1.400 . S
C2825 C2826 1.398 . S
C2826 H2814 0.950 . S
C2826 C2825 1.398 . S
C2826 C2827 1.391 . S
C2827 H2815 0.950 . S
C2827 C2823 1.393 . S
C2827 C2826 1.391 . S
H2828 C2836 0.950 . S
H2829 C2841 0.950 . S
H2830 C2838 0.950 . S
H2831 C2840 0.950 . S
H2832 C2842 0.950 . S
H2833 C2844 0.950 . S
H2834 C2846 0.950 . S
H2835 C2847 0.950 . S
C2836 H2828 0.950 . S
C2836 C2837 1.386 . S
C2836 C2838 1.391 . S
C2837 C2836 1.386 . S
C2837 C2841 1.393 . S
C2838 H2830 0.950 . S
C2838 C2836 1.391 . S
C2838 C2839 1.400 . S
C2839 C2838 1.400 . S
C2839 C2840 1.398 . S
C2839 C2845 1.491 . S
C2840 H2831 0.950 . S
C2840 C2839 1.398 . S
C2840 C2841 1.391 . S
C2841 H2829 0.950 . S
C2841 C2837 1.393 . S
C2841 C2840 1.391 . S
C2842 H2832 0.950 . S
C2842 C2843 1.386 . S
C2842 C2844 1.391 . S
C2843 C2842 1.386 . S
C2843 C2847 1.393 . S
C2844 H2833 0.950 . S
C2844 C2842 1.391 . S
C2844 C2845 1.400 . S
C2845 C2839 1.491 . S
C2845 C2844 1.400 . S
C2845 C2846 1.398 . S
C2846 H2834 0.950 . S
C2846 C2845 1.398 . S
C2846 C2847 1.391 . S
C2847 H2835 0.950 . S
C2847 C2843 1.393 . S
C2847 C2846 1.391 . S
H2848 C2856 0.950 . S
H2849 C2861 0.950 . S
H2850 C2858 0.950 . S
H2851 C2860 0.950 . S
H2852 C2862 0.950 . S
H2853 C2864 0.950 . S
H2854 C2866 0.950 . S
H2855 C2867 0.950 . S
C2856 H2848 0.950 . S
C2856 C2857 1.386 . S
C2856 C2858 1.391 . S
C2857 C2856 1.386 . S
C2857 C2861 1.393 . S
C2858 H2850 0.950 . S
C2858 C2856 1.391 . S
C2858 C2859 1.400 . S
C2859 C2858 1.400 . S
C2859 C2860 1.398 . S
C2859 C2865 1.491 . S
C2860 H2851 0.950 . S
C2860 C2859 1.398 . S
C2860 C2861 1.391 . S
C2861 H2849 0.950 . S
C2861 C2857 1.393 . S
C2861 C2860 1.391 . S
C2862 H2852 0.950 . S
C2862 C2863 1.386 . S
C2862 C2864 1.391 . S
C2863 C2862 1.386 . S
C2863 C2867 1.393 . S
C2864 H2853 0.950 . S
C2864 C2862 1.391 . S
C2864 C2865 1.400 . S
C2865 C2859 1.491 . S
C2865 C2864 1.400 . S
C2865 C2866 1.398 . S
C2866 H2854 0.950 . S
C2866 C2865 1.398 . S
C2866 C2867 1.391 . S
C2867 H2855 0.950 . S
C2867 C2863 1.393 . S
C2867 C2866 1.391 . S
H2868 C2876 0.950 . S
H2869 C2881 0.950 . S
H2870 C2878 0.950 . S
H2871 C2880 0.950 . S
H2872 C2882 0.950 . S
H2873 C2884 0.950 . S
H2874 C2886 0.950 . S
H2875 C2887 0.950 . S
C2876 H2868 0.950 . S
C2876 C2877 1.386 . S
C2876 C2878 1.391 . S
C2877 C2876 1.386 . S
C2877 C2881 1.393 . S
C2878 H2870 0.950 . S
C2878 C2876 1.391 . S
C2878 C2879 1.400 . S
C2879 C2878 1.400 . S
C2879 C2880 1.398 . S
C2879 C2885 1.491 . S
C2880 H2871 0.950 . S
C2880 C2879 1.398 . S
C2880 C2881 1.391 . S
C2881 H2869 0.950 . S
C2881 C2877 1.393 . S
C2881 C2880 1.391 . S
C2882 H2872 0.950 . S
C2882 C2883 1.386 . S
C2882 C2884 1.391 . S
C2883 C2882 1.386 . S
C2883 C2887 1.393 . S
C2884 H2873 0.950 . S
C2884 C2882 1.391 . S
C2884 C2885 1.400 . S
C2885 C2879 1.491 . S
C2885 C2884 1.400 . S
C2885 C2886 1.398 . S
C2886 H2874 0.950 . S
C2886 C2885 1.398 . S
C2886 C2887 1.391 . S
C2887 H2875 0.950 . S
C2887 C2883 1.393 . S
C2887 C2886 1.391 . S
C983 N428 1.832 . S
C977 C8 1.879 . S
C1003 C455 1.020 . S
C997 C17 1.006 . S
C1017 C35 1.884 . S
C1023 C469 1.869 . S
C1043 N487 1.438 . S
C1037 C43 1.379 . S
C1057 C56 1.172 . S
C1063 C492 1.212 . S
C1077 C73 1.759 . S
C1083 C432 1.762 1_556 S
C1097 C87 1.461 . S
C1103 N451 1.432 . S
C1123 N464 1.727 . S
C1117 C100 1.759 . S
C1143 N510 1.671 . S
C1137 C9 1.678 . S
C1157 C22 1.418 . S
C1163 N533 1.377 . S
C1177 C34 1.858 . S
C1183 N556 1.824 . S
C1203 N589 1.518 . S
C1197 C47 1.552 . S
C1217 C61 1.380 . S
C1223 C616 1.357 . S
C1243 C639 1.586 . S
C1237 C69 1.545 . S
C1257 C82 1.187 . S
C1263 C662 1.256 . S
C1283 C676 1.880 . S
C1277 C99 1.897 . S
C1297 C4 1.754 . S
C1303 C593 1.842 . S
C1317 C60 1.491 . S
C1323 N635 1.477 1_565 S
C1343 N658 1.679 . S
C1337 C74 1.736 . S
C1357 C86 1.399 . S
C1363 N671 1.312 . S
C1383 N612 1.751 . S
C1377 C95 1.805 . S
C1403 C538 1.451 1_565 S
C1397 C30 1.386 . S
C1417 C48 1.207 . S
C1423 C561 1.221 . S
C1443 C515 1.453 . S
C1437 C21 1.458 . S
C1463 C708 1.834 . S
C1457 C112 1.851 . S
C1477 C121 1.103 . S
C1483 C722 1.144 . S
C1497 C139 1.708 . S
C1503 N750 1.636 . S
C1523 N763 1.480 . S
C1517 C147 1.380 . S
C1537 C160 1.151 . S
C1543 C768 1.192 . S
C1557 C177 1.715 . S
C1563 N704 1.665 . S
C1577 C191 1.489 . S
C1583 N717 1.513 . S
C1597 C204 1.783 . S
C1603 C754 1.786 . S
C1623 N602 1.839 . S
C1617 C113 1.832 . S
C1637 C126 1.479 . S
C1643 N786 1.414 . S
C1663 N648 1.656 . S
C1657 C138 1.699 . S
C1677 C151 1.524 . S
C1683 C823 1.484 . S
C1697 C165 1.256 . S
C1703 C524 1.257 . S
C1723 C837 1.694 . S
C1717 C173 1.636 . S
C1737 C186 1.258 . S
C1743 C570 1.303 . S
C1763 N855 1.796 . S
C1757 C203 1.812 . S
C1777 C108 1.670 . S
C1783 N819 1.700 . S
C1803 N832 1.405 . S
C1797 C164 1.429 . S
C1817 C178 1.847 . S
C1823 N566 1.810 . S
C1843 C860 1.389 . S
C1837 C190 1.411 . S
C1857 C199 1.699 . S
C1863 N520 1.670 . S
C1877 C134 1.262 . S
C1883 C791 1.334 . S
C1897 C152 1.262 . S
C1903 C653 1.279 . S
C1917 C125 1.549 . S
C1923 C607 1.537 . S
C1937 C216 1.935 . S
C1943 C745 1.932 . S
C1963 C777 1.064 . S
C1957 C225 1.044 . S
C1977 C243 1.893 . S
C1983 N694 1.865 . S
C1997 C251 1.338 . S
C2003 N727 1.372 . S
C2017 C264 1.188 . S
C2023 C731 1.207 . S
C2037 C281 1.562 . S
C2043 N740 1.545 . S
C2063 N773 1.405 . S
C2057 C295 1.440 . S
C2077 C308 1.780 . S
C2083 C699 1.797 . S
C2103 N888 1.798 . S
C2097 C217 1.848 . S
C2117 C230 1.395 . S
C2123 N625 1.355 . S
C2143 N911 1.719 . S
C2137 C242 1.773 . S
C2157 C255 1.557 . S
C2163 N681 1.544 . S
C2177 C269 1.357 . S
C2183 C929 1.360 . S
C2197 C277 1.518 . S
C2203 C547 1.566 . S
C2223 N947 1.273 . S
C2217 C290 1.207 . S
C2237 C307 1.908 . S
C2243 C584 1.901 . S
C2263 C685 1.838 . S
C2257 C212 1.742 . S
C2283 N543 1.441 . S
C2277 C268 1.469 . S
C2297 C282 1.770 . S
C2303 C952 1.788 . S
C2317 C294 1.433 . S
C2323 N579 1.358 . S
C2343 N924 1.815 . S
C2337 C303 1.796 . S
C2363 C630 1.481 . S
C2357 C238 1.446 . S
C2383 C915 1.241 . S
C2377 C256 1.232 . S
C2403 C892 1.466 . S
C2397 C229 1.477 . S
C2417 C320 1.773 . S
C2423 N474 1.721 . S
C2437 C329 1.103 . S
C2443 C501 1.121 . S
C2463 C423 1.995 . S
C2457 C347 1.986 . S
C2483 N441 1.452 . S
C2477 C355 1.357 . S
C2503 C446 1.172 . S
C2497 C368 1.134 . S
C2523 C478 1.623 1_556 S
C2517 C385 1.620 . S
C2543 N497 1.435 . S
C2537 C399 1.460 . S
C2557 C412 1.803 . S
C2563 N418 1.758 1_556 S
C2577 C321 1.715 . S
C2583 N934 1.680 . S
C2603 N842 1.409 . S
C2597 C334 1.452 . S
C2623 C961 1.760 . S
C2617 C342 1.723 . S
C2643 C869 1.395 . S
C2637 C359 1.426 . S
C2657 C373 1.399 . S
C2663 C883 1.399 . S
C2683 C800 1.500 . S
C2677 C381 1.467 . S
C2703 C906 1.348 . S
C2697 C394 1.310 . S
C2717 C411 1.841 . S
C2723 N809 1.818 . S
C2743 N865 1.644 . S
C2737 C316 1.621 . S
C2763 N796 1.477 . S
C2757 C372 1.498 . S
C2783 N901 1.777 . S
C2777 C386 1.799 . S
C2797 C398 1.364 . S
C2803 C814 1.350 . S
C2817 C407 1.779 . S
C2823 N878 1.800 . S
C2837 C346 1.704 . S
C2843 C846 1.691 . S
C2857 C360 1.213 . S
C2863 N957 1.197 . S
C2883 C938 1.535 . S
C2877 C333 1.553 . S
