# Generated by pormake.
# Topology ssb, (4,4)-cn, num edge types: 1
# Building blocks:
#     Node 0, Type 0, BuildingBlock: NAWXER_clean_linker_0, # of connection points: 4
#     Node 1, Type 0, BuildingBlock: NAWXER_clean_linker_0, # of connection points: 4
#     Node 2, Type 0, BuildingBlock: NAWXER_clean_linker_0, # of connection points: 4
#     Node 3, Type 0, BuildingBlock: NAWXER_clean_linker_0, # of connection points: 4
#     Node 4, Type 0, BuildingBlock: NAWXER_clean_linker_0, # of connection points: 4
#     Node 5, Type 0, BuildingBlock: NAWXER_clean_linker_0, # of connection points: 4
#     Node 6, Type 0, BuildingBlock: NAWXER_clean_linker_0, # of connection points: 4
#     Node 7, Type 0, BuildingBlock: NAWXER_clean_linker_0, # of connection points: 4
#     Node 8, Type 1, BuildingBlock: KOZSID_clean_sbu_0, # of connection points: 4
#     Node 9, Type 1, BuildingBlock: KOZSID_clean_sbu_0, # of connection points: 4
#     Node 10, Type 1, BuildingBlock: KOZSID_clean_sbu_0, # of connection points: 4
#     Node 11, Type 1, BuildingBlock: KOZSID_clean_sbu_0, # of connection points: 4
#     Node 12, Type 1, BuildingBlock: KOZSID_clean_sbu_0, # of connection points: 4
#     Node 13, Type 1, BuildingBlock: KOZSID_clean_sbu_0, # of connection points: 4
#     Node 14, Type 1, BuildingBlock: KOZSID_clean_sbu_0, # of connection points: 4
#     Node 15, Type 1, BuildingBlock: KOZSID_clean_sbu_0, # of connection points: 4
#     Edge 16, Type (0, 1), BuildingBlock: XIVTED_clean_linker_0, # of connection points: 2
#     Edge 17, Type (0, 1), BuildingBlock: XIVTED_clean_linker_0, # of connection points: 2
#     Edge 18, Type (0, 1), BuildingBlock: XIVTED_clean_linker_0, # of connection points: 2
#     Edge 19, Type (0, 1), BuildingBlock: XIVTED_clean_linker_0, # of connection points: 2
#     Edge 20, Type (0, 1), BuildingBlock: XIVTED_clean_linker_0, # of connection points: 2
#     Edge 21, Type (0, 1), BuildingBlock: XIVTED_clean_linker_0, # of connection points: 2
#     Edge 22, Type (0, 1), BuildingBlock: XIVTED_clean_linker_0, # of connection points: 2
#     Edge 23, Type (0, 1), BuildingBlock: XIVTED_clean_linker_0, # of connection points: 2
#     Edge 24, Type (0, 1), BuildingBlock: XIVTED_clean_linker_0, # of connection points: 2
#     Edge 25, Type (0, 1), BuildingBlock: XIVTED_clean_linker_0, # of connection points: 2
#     Edge 26, Type (0, 1), BuildingBlock: XIVTED_clean_linker_0, # of connection points: 2
#     Edge 27, Type (0, 1), BuildingBlock: XIVTED_clean_linker_0, # of connection points: 2
#     Edge 28, Type (0, 1), BuildingBlock: XIVTED_clean_linker_0, # of connection points: 2
#     Edge 29, Type (0, 1), BuildingBlock: XIVTED_clean_linker_0, # of connection points: 2
#     Edge 30, Type (0, 1), BuildingBlock: XIVTED_clean_linker_0, # of connection points: 2
#     Edge 31, Type (0, 1), BuildingBlock: XIVTED_clean_linker_0, # of connection points: 2
#     Edge 32, Type (0, 1), BuildingBlock: XIVTED_clean_linker_0, # of connection points: 2
#     Edge 33, Type (0, 1), BuildingBlock: XIVTED_clean_linker_0, # of connection points: 2
#     Edge 34, Type (0, 1), BuildingBlock: XIVTED_clean_linker_0, # of connection points: 2
#     Edge 35, Type (0, 1), BuildingBlock: XIVTED_clean_linker_0, # of connection points: 2
#     Edge 36, Type (0, 1), BuildingBlock: XIVTED_clean_linker_0, # of connection points: 2
#     Edge 37, Type (0, 1), BuildingBlock: XIVTED_clean_linker_0, # of connection points: 2
#     Edge 38, Type (0, 1), BuildingBlock: XIVTED_clean_linker_0, # of connection points: 2
#     Edge 39, Type (0, 1), BuildingBlock: XIVTED_clean_linker_0, # of connection points: 2
#     Edge 40, Type (0, 1), BuildingBlock: XIVTED_clean_linker_0, # of connection points: 2
#     Edge 41, Type (0, 1), BuildingBlock: XIVTED_clean_linker_0, # of connection points: 2
#     Edge 42, Type (0, 1), BuildingBlock: XIVTED_clean_linker_0, # of connection points: 2
#     Edge 43, Type (0, 1), BuildingBlock: XIVTED_clean_linker_0, # of connection points: 2
#     Edge 44, Type (0, 1), BuildingBlock: XIVTED_clean_linker_0, # of connection points: 2
#     Edge 45, Type (0, 1), BuildingBlock: XIVTED_clean_linker_0, # of connection points: 2
#     Edge 46, Type (0, 1), BuildingBlock: XIVTED_clean_linker_0, # of connection points: 2
#     Edge 47, Type (0, 1), BuildingBlock: XIVTED_clean_linker_0, # of connection points: 2
# Relax obj value: 0.002
# Max RMSD: 0.031
# Mean RMSD: 0.019
data_MOF--net-ssb--node1-KOZSID_clean_sbu_0--node2-NAWXER_clean_linker_0--edge1-XIVTED_clean_linker_0
_symmetry_space_group_name_H-M    P1
_symmetry_Int_Tables_number       1
_symmetry_cell_setting            triclinic
loop_
_symmetry_equiv_pos_as_xyz
'x, y, z'
_cell_length_a     63.735651
_cell_length_b     63.39153
_cell_length_c     46.884452
_cell_angle_alpha  92.14126
_cell_angle_beta   94.463775
_cell_angle_gamma 89.997764
loop_
_atom_site_label
_atom_site_type_symbol
_atom_site_fract_x
_atom_site_fract_y
_atom_site_fract_z
_atom_type_partial_charge
C0 C 0.29763 0.24574 0.18524 0.0
C1 C 0.31828 0.24452 0.19801 0.0
C2 C 0.28044 0.24543 0.20199 0.0
C3 C 0.28361 0.24416 0.23185 0.0
C4 C 0.32133 0.24268 0.22785 0.0
C5 C 0.30415 0.2424 0.24457 0.0
C6 C 0.26566 0.2444 0.24998 0.0
C7 C 0.26764 0.3083 0.21026 0.0
C8 C 0.24932 0.31369 0.19332 0.0
C9 C 0.26783 0.29097 0.22804 0.0
C10 C 0.2498 0.27829 0.22906 0.0
C11 C 0.23118 0.30119 0.19484 0.0
C12 C 0.23141 0.28381 0.21255 0.0
C13 C 0.24963 0.25987 0.24809 0.0
C14 C 0.20219 0.24506 0.35091 0.0
C15 C 0.18138 0.24718 0.33903 0.0
C16 C 0.21882 0.24344 0.33323 0.0
C17 C 0.21491 0.24377 0.30336 0.0
C18 C 0.17759 0.24779 0.30913 0.0
C19 C 0.19421 0.24624 0.29149 0.0
C20 C 0.23234 0.24269 0.28439 0.0
C21 C 0.22942 0.18002 0.32645 0.0
C22 C 0.24819 0.17334 0.34119 0.0
C23 C 0.22937 0.19714 0.30833 0.0
C24 C 0.24797 0.20854 0.30513 0.0
C25 C 0.26692 0.18423 0.33721 0.0
C26 C 0.26679 0.2016 0.31946 0.0
C27 C 0.24822 0.22703 0.28609 0.0
H28 H 0.29473 0.24674 0.16226 0.0
H29 H 0.26468 0.24621 0.19162 0.0
H30 H 0.33704 0.24189 0.23838 0.0
H31 H 0.30692 0.24126 0.26756 0.0
H32 H 0.28199 0.31737 0.20966 0.0
H33 H 0.28209 0.28759 0.24114 0.0
H34 H 0.21663 0.30499 0.18267 0.0
H35 H 0.21717 0.27457 0.21321 0.0
H36 H 0.20559 0.24445 0.37386 0.0
H37 H 0.23474 0.24206 0.34288 0.0
H38 H 0.16177 0.24976 0.29937 0.0
H39 H 0.19091 0.24684 0.26851 0.0
H40 H 0.21479 0.17172 0.32851 0.0
H41 H 0.21474 0.20128 0.29661 0.0
H42 H 0.28165 0.17954 0.34822 0.0
H43 H 0.28146 0.20979 0.31719 0.0
N44 N 0.26437 0.22872 0.26891 0.0
N45 N 0.23357 0.25826 0.26534 0.0
C46 C 0.67585 0.28501 0.23523 0.0
C47 C 0.6694 0.26675 0.21903 0.0
C48 C 0.69514 0.28543 0.25167 0.0
C49 C 0.70861 0.26786 0.25128 0.0
C50 C 0.68248 0.24897 0.21945 0.0
C51 C 0.70192 0.24955 0.23533 0.0
C52 C 0.72926 0.26772 0.26822 0.0
C53 C 0.73394 0.32247 0.21045 0.0
C54 C 0.73738 0.342 0.22528 0.0
C55 C 0.73562 0.30374 0.22507 0.0
C56 C 0.74043 0.3043 0.25479 0.0
C57 C 0.74218 0.34249 0.25503 0.0
C58 C 0.74376 0.32376 0.26965 0.0
C59 C 0.74373 0.28472 0.27026 0.0
C60 C 0.8211 0.24409 0.32722 0.0
C61 C 0.82896 0.26118 0.34468 0.0
C62 C 0.80147 0.24541 0.31204 0.0
C63 C 0.789 0.26356 0.31495 0.0
C64 C 0.81706 0.27974 0.34646 0.0
C65 C 0.79718 0.28089 0.33176 0.0
C66 C 0.76771 0.2648 0.29998 0.0
C67 C 0.76421 0.21158 0.35952 0.0
C68 C 0.76136 0.19176 0.34532 0.0
C69 C 0.76165 0.22998 0.34431 0.0
C70 C 0.75638 0.22879 0.31469 0.0
C71 C 0.75614 0.19064 0.31565 0.0
C72 C 0.75352 0.20905 0.30048 0.0
C73 C 0.75304 0.24808 0.29858 0.0
H74 H 0.66583 0.29881 0.23549 0.0
H75 H 0.6994 0.29944 0.26475 0.0
H76 H 0.67784 0.23474 0.20702 0.0
H77 H 0.71186 0.23569 0.23489 0.0
H78 H 0.73064 0.32164 0.18742 0.0
H79 H 0.73363 0.28883 0.2131 0.0
H80 H 0.7448 0.35735 0.26695 0.0
H81 H 0.7477 0.32444 0.29257 0.0
H82 H 0.83023 0.22977 0.32519 0.0
H83 H 0.79604 0.23219 0.29812 0.0
H84 H 0.8229 0.29312 0.3598 0.0
H85 H 0.78803 0.29518 0.33397 0.0
H86 H 0.76826 0.21283 0.38239 0.0
H87 H 0.76355 0.24513 0.35572 0.0
H88 H 0.7535 0.17555 0.30432 0.0
H89 H 0.74926 0.2079 0.27764 0.0
N90 N 0.73455 0.25006 0.28256 0.0
N91 N 0.76235 0.2826 0.28604 0.0
C92 C 0.69393 0.74804 0.17166 0.0
C93 C 0.67423 0.74929 0.18317 0.0
C94 C 0.71247 0.74965 0.1895 0.0
C95 C 0.71171 0.7521 0.21929 0.0
C96 C 0.67351 0.75204 0.213 0.0
C97 C 0.69209 0.75352 0.23086 0.0
C98 C 0.73127 0.75438 0.23827 0.0
C99 C 0.73211 0.68864 0.19833 0.0
C100 C 0.74883 0.68444 0.18103 0.0
C101 C 0.73208 0.70692 0.21609 0.0
C102 C 0.74865 0.72164 0.21676 0.0
C103 C 0.76558 0.69902 0.18216 0.0
C104 C 0.76553 0.71731 0.1999 0.0
C105 C 0.74892 0.74108 0.23572 0.0
C106 C 0.80857 0.76707 0.3351 0.0
C107 C 0.82751 0.76792 0.3216 0.0
C108 C 0.78925 0.76588 0.31888 0.0
C109 C 0.78852 0.76556 0.28889 0.0
C110 C 0.82662 0.76797 0.29153 0.0
C111 C 0.80732 0.7666 0.27535 0.0
C112 C 0.76844 0.7626 0.2714 0.0
C113 C 0.76648 0.82737 0.31451 0.0
C114 C 0.74979 0.83058 0.33219 0.0
C115 C 0.76685 0.8096 0.29583 0.0
C116 C 0.75068 0.79442 0.29458 0.0
C117 C 0.73345 0.81552 0.33051 0.0
C118 C 0.73385 0.79775 0.31185 0.0
C119 C 0.75064 0.77555 0.27457 0.0
H120 H 0.69507 0.74577 0.14883 0.0
H121 H 0.7274 0.74918 0.17993 0.0
H122 H 0.65861 0.75345 0.22252 0.0
H123 H 0.69114 0.75574 0.25375 0.0
H124 H 0.71888 0.6779 0.19799 0.0
H125 H 0.71912 0.70947 0.22943 0.0
H126 H 0.77893 0.69618 0.16961 0.0
H127 H 0.77866 0.7282 0.20028 0.0
H128 H 0.80868 0.76663 0.35818 0.0
H129 H 0.77492 0.76463 0.32972 0.0
H130 H 0.84084 0.76896 0.28044 0.0
H131 H 0.80705 0.76631 0.2522 0.0
H132 H 0.77941 0.83851 0.31523 0.0
H133 H 0.77972 0.80788 0.28217 0.0
H134 H 0.72013 0.8176 0.34332 0.0
H135 H 0.72101 0.78649 0.31105 0.0
N136 N 0.73274 0.77088 0.2578 0.0
N137 N 0.76688 0.74593 0.2522 0.0
C138 C 0.31529 0.72622 0.19473 0.0
C139 C 0.31879 0.74326 0.17727 0.0
C140 C 0.29859 0.72661 0.2124 0.0
C141 C 0.28478 0.74389 0.21262 0.0
C142 C 0.30497 0.76054 0.17763 0.0
C143 C 0.2882 0.76086 0.19513 0.0
C144 C 0.26779 0.74531 0.23254 0.0
C145 C 0.24852 0.69007 0.17463 0.0
C146 C 0.24936 0.67055 0.18793 0.0
C147 C 0.25075 0.70882 0.19096 0.0
C148 C 0.25389 0.70839 0.22085 0.0
C149 C 0.25246 0.67018 0.21793 0.0
C150 C 0.25454 0.689 0.23429 0.0
C151 C 0.25469 0.7282 0.23812 0.0
C152 C 0.18786 0.76698 0.30465 0.0
C153 C 0.18707 0.75316 0.32729 0.0
C154 C 0.20465 0.76618 0.28718 0.0
C155 C 0.22085 0.75141 0.2919 0.0
C156 C 0.20345 0.73859 0.33223 0.0
C157 C 0.22008 0.73755 0.31444 0.0
C158 C 0.23791 0.74959 0.27236 0.0
C159 C 0.25277 0.80976 0.32394 0.0
C160 C 0.25182 0.82788 0.30754 0.0
C161 C 0.25159 0.78977 0.31055 0.0
C162 C 0.2494 0.78767 0.2806 0.0
C163 C 0.24913 0.82575 0.27759 0.0
C164 C 0.24811 0.80575 0.26421 0.0
C165 C 0.25051 0.76682 0.26615 0.0
H166 H 0.32551 0.71257 0.19487 0.0
H167 H 0.29681 0.71359 0.22633 0.0
H168 H 0.30737 0.77413 0.16493 0.0
H169 H 0.27797 0.77451 0.19516 0.0
H170 H 0.24566 0.69089 0.15163 0.0
H171 H 0.24952 0.72368 0.18027 0.0
H172 H 0.2534 0.65538 0.22875 0.0
H173 H 0.25671 0.68845 0.2574 0.0
H174 H 0.17545 0.77839 0.30045 0.0
H175 H 0.20476 0.77678 0.2696 0.0
H176 H 0.20311 0.72763 0.34937 0.0
H177 H 0.23235 0.72593 0.31825 0.0
H178 H 0.25469 0.81107 0.3471 0.0
H179 H 0.25306 0.77599 0.32354 0.0
H180 H 0.24852 0.83952 0.26454 0.0
H181 H 0.24663 0.80436 0.24103 0.0
N182 N 0.26501 0.76403 0.24666 0.0
N183 N 0.24042 0.73089 0.25802 0.0
C184 C 0.18261 0.77736 0.68836 0.0
C185 C 0.17666 0.75809 0.6743 0.0
C186 C 0.20082 0.77869 0.70698 0.0
C187 C 0.21368 0.76088 0.71117 0.0
C188 C 0.18947 0.74031 0.67854 0.0
C189 C 0.20782 0.74172 0.69675 0.0
C190 C 0.23215 0.76131 0.73236 0.0
C191 C 0.24594 0.81019 0.66802 0.0
C192 C 0.24745 0.83107 0.67955 0.0
C193 C 0.24579 0.79292 0.68591 0.0
C194 C 0.2471 0.79601 0.71585 0.0
C195 C 0.24896 0.83401 0.70961 0.0
C196 C 0.24898 0.81673 0.72746 0.0
C197 C 0.24727 0.7778 0.73519 0.0
C198 C 0.31646 0.73963 0.80927 0.0
C199 C 0.32331 0.75704 0.82699 0.0
C200 C 0.29756 0.74048 0.79226 0.0
C201 C 0.28502 0.75867 0.79283 0.0
C202 C 0.31075 0.77527 0.82752 0.0
C203 C 0.29183 0.77613 0.81039 0.0
C204 C 0.26556 0.75993 0.77373 0.0
C205 C 0.25267 0.71158 0.83875 0.0
C206 C 0.25003 0.6908 0.82733 0.0
C207 C 0.2529 0.72874 0.82071 0.0
C208 C 0.25042 0.72557 0.79077 0.0
C209 C 0.24745 0.6877 0.79736 0.0
C210 C 0.24743 0.70488 0.77935 0.0
C211 C 0.25021 0.74373 0.77132 0.0
H212 H 0.17277 0.7912 0.68573 0.0
H213 H 0.20446 0.79345 0.71866 0.0
H214 H 0.18523 0.7253 0.66782 0.0
H215 H 0.21736 0.72771 0.69982 0.0
H216 H 0.24524 0.80708 0.64511 0.0
H217 H 0.24488 0.77711 0.6763 0.0
H218 H 0.24983 0.84972 0.71951 0.0
H219 H 0.25013 0.81958 0.75046 0.0
H220 H 0.32572 0.72532 0.80854 0.0
H221 H 0.29293 0.72701 0.7783 0.0
H222 H 0.31577 0.78902 0.84071 0.0
H223 H 0.28252 0.79042 0.81082 0.0
H224 H 0.25478 0.71457 0.86169 0.0
H225 H 0.2548 0.74453 0.8302 0.0
H226 H 0.24511 0.67197 0.78781 0.0
H227 H 0.24527 0.70198 0.75639 0.0
N228 N 0.23425 0.74502 0.75052 0.0
N229 N 0.26338 0.7764 0.75587 0.0
C230 C 0.33135 0.27779 0.81455 0.0
C231 C 0.33693 0.26015 0.83066 0.0
C232 C 0.31195 0.27839 0.79854 0.0
C233 C 0.29748 0.26169 0.79929 0.0
C234 C 0.32298 0.24301 0.83026 0.0
C235 C 0.3034 0.24381 0.8148 0.0
C236 C 0.27641 0.26228 0.78352 0.0
C237 C 0.27589 0.31805 0.84536 0.0
C238 C 0.27244 0.33765 0.83276 0.0
C239 C 0.2736 0.29939 0.8288 0.0
C240 C 0.26833 0.30002 0.79922 0.0
C241 C 0.2676 0.33825 0.80304 0.0
C242 C 0.26549 0.31956 0.78644 0.0
C243 C 0.26355 0.28046 0.78211 0.0
C244 C 0.18199 0.2462 0.72506 0.0
C245 C 0.17723 0.26154 0.70467 0.0
C246 C 0.20149 0.24632 0.74086 0.0
C247 C 0.21667 0.26164 0.73634 0.0
C248 C 0.19222 0.27727 0.70089 0.0
C249 C 0.21172 0.27738 0.71671 0.0
C250 C 0.23766 0.26144 0.75212 0.0
C251 C 0.23667 0.20333 0.69399 0.0
C252 C 0.23807 0.18441 0.70868 0.0
C253 C 0.23995 0.22262 0.70885 0.0
C254 C 0.24455 0.22322 0.7386 0.0
C255 C 0.24193 0.1851 0.73857 0.0
C256 C 0.24533 0.2044 0.75341 0.0
C257 C 0.25026 0.24322 0.75403 0.0
H258 H 0.34205 0.29105 0.81429 0.0
H259 H 0.30827 0.29195 0.78573 0.0
H260 H 0.32699 0.22926 0.84259 0.0
H261 H 0.29269 0.23059 0.81543 0.0
H262 H 0.27982 0.31712 0.86817 0.0
H263 H 0.2753 0.28447 0.83927 0.0
H264 H 0.26452 0.35308 0.79279 0.0
H265 H 0.26114 0.32033 0.76369 0.0
H266 H 0.17083 0.23383 0.72841 0.0
H267 H 0.20474 0.23434 0.75646 0.0
H268 H 0.18887 0.28953 0.68572 0.0
H269 H 0.22312 0.28951 0.71319 0.0
H270 H 0.23367 0.20313 0.67091 0.0
H271 H 0.23964 0.23697 0.69699 0.0
H272 H 0.24335 0.17068 0.75027 0.0
H273 H 0.24901 0.20464 0.77638 0.0
N274 N 0.26911 0.24431 0.76957 0.0
N275 N 0.2448 0.2794 0.76621 0.0
C276 C 0.81163 0.23333 0.70933 0.0
C277 C 0.81618 0.25138 0.69438 0.0
C278 C 0.79454 0.23318 0.72626 0.0
C279 C 0.78143 0.25092 0.72806 0.0
C280 C 0.80316 0.26917 0.69644 0.0
C281 C 0.78599 0.26895 0.71318 0.0
C282 C 0.76383 0.25145 0.74686 0.0
C283 C 0.74819 0.19984 0.67961 0.0
C284 C 0.74727 0.17946 0.69049 0.0
C285 C 0.74872 0.21783 0.69797 0.0
C286 C 0.74848 0.21592 0.72772 0.0
C287 C 0.74672 0.17767 0.72029 0.0
C288 C 0.74716 0.19568 0.73862 0.0
C289 C 0.74901 0.23489 0.74752 0.0
C290 C 0.68555 0.27343 0.82277 0.0
C291 C 0.68109 0.25595 0.83894 0.0
C292 C 0.70208 0.27272 0.8049 0.0
C293 C 0.71482 0.2547 0.80331 0.0
C294 C 0.69348 0.23769 0.83657 0.0
C295 C 0.71014 0.23707 0.81889 0.0
C296 C 0.7326 0.25384 0.78482 0.0
C297 C 0.74746 0.30528 0.85235 0.0
C298 C 0.74953 0.32561 0.84171 0.0
C299 C 0.74703 0.28732 0.83395 0.0
C300 C 0.74828 0.28922 0.80433 0.0
C301 C 0.75137 0.32738 0.81214 0.0
C302 C 0.75084 0.30942 0.79374 0.0
C303 C 0.74757 0.27031 0.78437 0.0
H304 H 0.82162 0.21953 0.70856 0.0
H305 H 0.79184 0.21934 0.73835 0.0
H306 H 0.80621 0.28325 0.685 0.0
H307 H 0.77622 0.28289 0.71447 0.0
H308 H 0.74816 0.20196 0.6568 0.0
H309 H 0.74913 0.23326 0.68887 0.0
H310 H 0.74627 0.16233 0.72962 0.0
H311 H 0.74683 0.19376 0.76144 0.0
H312 H 0.67644 0.2878 0.82414 0.0
H313 H 0.70493 0.2863 0.79238 0.0
H314 H 0.69021 0.22376 0.84817 0.0
H315 H 0.71953 0.22286 0.8176 0.0
H316 H 0.7459 0.3032 0.8749 0.0
H317 H 0.74569 0.27193 0.84292 0.0
H318 H 0.75344 0.34266 0.80316 0.0
H319 H 0.75218 0.31134 0.77109 0.0
N320 N 0.76245 0.26848 0.76518 0.0
N321 N 0.73404 0.23673 0.76662 0.0
C322 C 0.79283 0.74974 0.65501 0.0
C323 C 0.81347 0.74828 0.66777 0.0
C324 C 0.77558 0.74791 0.67146 0.0
C325 C 0.77868 0.74456 0.70094 0.0
C326 C 0.81649 0.74488 0.69725 0.0
C327 C 0.79925 0.74286 0.71361 0.0
C328 C 0.76065 0.74188 0.71853 0.0
C329 C 0.75797 0.80986 0.69404 0.0
C330 C 0.73889 0.81581 0.6795 0.0
C331 C 0.75985 0.79024 0.70647 0.0
C332 C 0.74279 0.77613 0.70406 0.0
C333 C 0.72185 0.80163 0.67722 0.0
C334 C 0.7238 0.78199 0.68943 0.0
C335 C 0.74372 0.75619 0.71915 0.0
C336 C 0.69757 0.72897 0.81808 0.0
C337 C 0.67687 0.73364 0.8076 0.0
C338 C 0.71395 0.72878 0.79989 0.0
C339 C 0.70993 0.73297 0.77075 0.0
C340 C 0.67289 0.73769 0.7784 0.0
C341 C 0.68925 0.73744 0.76022 0.0
C342 C 0.72733 0.73476 0.75173 0.0
C343 C 0.72745 0.66768 0.77671 0.0
C344 C 0.74545 0.66204 0.79395 0.0
C345 C 0.72698 0.68656 0.76242 0.0
C346 C 0.74444 0.70015 0.76532 0.0
C347 C 0.76317 0.67535 0.79599 0.0
C348 C 0.7627 0.69421 0.78163 0.0
C349 C 0.74404 0.72022 0.75064 0.0
H350 H 0.79004 0.75241 0.63235 0.0
H351 H 0.75983 0.74886 0.66111 0.0
H352 H 0.83219 0.74338 0.70759 0.0
H353 H 0.80198 0.74007 0.73626 0.0
H354 H 0.77143 0.82038 0.69594 0.0
H355 H 0.77444 0.78637 0.71851 0.0
H356 H 0.70684 0.8059 0.6666 0.0
H357 H 0.71034 0.77144 0.68778 0.0
H358 H 0.70123 0.72614 0.84056 0.0
H359 H 0.72985 0.72602 0.80885 0.0
H360 H 0.6571 0.74111 0.76957 0.0
H361 H 0.68577 0.7409 0.7379 0.0
H362 H 0.71371 0.65752 0.77433 0.0
H363 H 0.71298 0.69056 0.74912 0.0
H364 H 0.77718 0.6715 0.80935 0.0
H365 H 0.77641 0.70443 0.78382 0.0
N366 N 0.76016 0.72442 0.73436 0.0
N367 N 0.72777 0.75208 0.7357 0.0
C368 C 0.03223 0.27542 0.57226 0.0
C369 C 0.03849 0.29481 0.58484 0.0
C370 C 0.02764 0.30982 0.56973 0.0
C371 C 0.01538 0.29876 0.549 0.0
N372 N 0.01752 0.27757 0.55014 0.0
Co373 Co 0.00284 0.25551 0.52405 0.0
N374 N 0.9885 0.27763 0.49998 0.0
C375 C 0.99074 0.29883 0.50358 0.0
C376 C 0.97838 0.31001 0.48437 0.0
C377 C 0.96742 0.29513 0.46759 0.0
C378 C 0.97387 0.27558 0.47746 0.0
N379 N 0.9879 0.23344 0.49823 0.0
C380 C 0.97341 0.2356 0.47582 0.0
C381 C 0.96687 0.21616 0.46365 0.0
C382 C 0.97718 0.20115 0.47939 0.0
C383 C 0.98947 0.21222 0.50007 0.0
N384 N 0.01749 0.2334 0.54784 0.0
C385 C 0.01562 0.21219 0.54403 0.0
C386 C 0.02837 0.20111 0.56298 0.0
C387 C 0.03931 0.21611 0.57965 0.0
C388 C 0.03249 0.23554 0.56989 0.0
N389 N 0.9789 0.25565 0.54875 0.0
C390 C 0.94364 0.25551 0.58154 0.0
C391 C 0.95356 0.23672 0.57394 0.0
C392 C 0.97096 0.23714 0.55767 0.0
C393 C 0.95191 0.27443 0.57283 0.0
C394 C 0.96943 0.27413 0.55668 0.0
N395 N 0.0267 0.25534 0.49928 0.0
C396 C 0.0508 0.23611 0.47072 0.0
C397 C 0.06031 0.25483 0.46367 0.0
C398 C 0.05291 0.27385 0.47504 0.0
C399 C 0.03617 0.27375 0.4926 0.0
C400 C 0.03424 0.23671 0.48845 0.0
H401 H 0.03113 0.28873 0.50047 0.0
H402 H 0.02787 0.22187 0.49313 0.0
H403 H 0.97758 0.22225 0.55244 0.0
H404 H 0.97484 0.28906 0.5506 0.0
C405 C 0.0031 0.30781 0.52678 0.0
C406 C 0.04155 0.25553 0.58111 0.0
C407 C 0.96476 0.2556 0.46596 0.0
C408 C 0.00246 0.20316 0.52164 0.0
H409 H 0.05011 0.29778 0.60263 0.0
H410 H 0.02903 0.32678 0.5729 0.0
H411 H 0.9769 0.32699 0.48338 0.0
H412 H 0.95558 0.29848 0.4506 0.0
H413 H 0.95557 0.21314 0.4455 0.0
H414 H 0.97572 0.18419 0.47634 0.0
H415 H 0.02994 0.18415 0.56405 0.0
H416 H 0.05129 0.21307 0.59663 0.0
H417 H 0.94804 0.22165 0.58061 0.0
H418 H 0.9447 0.28943 0.57791 0.0
H419 H 0.05626 0.22095 0.46285 0.0
H420 H 0.05974 0.28878 0.47004 0.0
C421 C 0.72543 0.03984 0.54665 0.0
C422 C 0.70598 0.04913 0.54991 0.0
C423 C 0.69151 0.03761 0.53296 0.0
C424 C 0.70284 0.02206 0.52018 0.0
N425 N 0.72374 0.02286 0.528 0.0
Co426 Co 0.74602 0.00374 0.51333 0.0
N427 N 0.72467 0.98712 0.48777 0.0
C428 C 0.70363 0.99039 0.48496 0.0
C429 C 0.69296 0.97649 0.46601 0.0
C430 C 0.70803 0.96344 0.45616 0.0
C431 C 0.72712 0.97012 0.46982 0.0
N432 N 0.76831 0.98472 0.49852 0.0
C433 C 0.76669 0.96806 0.47936 0.0
C434 C 0.78618 0.95903 0.47559 0.0
C435 C 0.80063 0.97039 0.49281 0.0
C436 C 0.78922 0.9856 0.50617 0.0
N437 N 0.76735 0.02029 0.53897 0.0
C438 C 0.78834 0.01676 0.54215 0.0
C439 C 0.79899 0.03048 0.56137 0.0
C440 C 0.78398 0.0437 0.57096 0.0
C441 C 0.76493 0.03735 0.55684 0.0
N442 N 0.74218 0.98423 0.54442 0.0
C443 C 0.73672 0.95347 0.58463 0.0
C444 C 0.75681 0.96043 0.57962 0.0
C445 C 0.75916 0.97575 0.5596 0.0
C446 C 0.71938 0.96293 0.57042 0.0
C447 C 0.72245 0.97827 0.55068 0.0
N448 N 0.74982 0.02331 0.48234 0.0
C449 C 0.77224 0.04657 0.45861 0.0
C450 C 0.75466 0.05622 0.44525 0.0
C451 C 0.73478 0.04801 0.44876 0.0
C452 C 0.73276 0.03154 0.4671 0.0
C453 C 0.76947 0.03014 0.47691 0.0
H454 H 0.71718 0.02626 0.46929 0.0
H455 H 0.78339 0.02375 0.48717 0.0
H456 H 0.77487 0.98003 0.55626 0.0
H457 H 0.70861 0.9847 0.54033 0.0
C458 C 0.69437 0.00675 0.50033 0.0
C459 C 0.74505 0.0481 0.56115 0.0
C460 C 0.74711 0.95985 0.46476 0.0
C461 C 0.79764 1.00064 0.52643 0.0
H462 H 0.70258 0.06299 0.56291 0.0
H463 H 0.67474 0.0404 0.53 0.0
H464 H 0.67622 0.97592 0.46004 0.0
H465 H 0.70527 0.95048 0.44063 0.0
H466 H 0.78961 0.94548 0.46202 0.0
H467 H 0.81743 0.96773 0.49552 0.0
H468 H 0.81571 0.03089 0.56756 0.0
H469 H 0.78678 0.0566 0.58657 0.0
H470 H 0.77074 0.95342 0.59009 0.0
H471 H 0.70349 0.95822 0.57408 0.0
H472 H 0.78797 0.05237 0.45621 0.0
H473 H 0.72077 0.05472 0.43808 0.0
C474 C 0.02934 0.76887 0.55096 0.0
C475 C 0.03516 0.78731 0.56648 0.0
C476 C 0.02523 0.80346 0.55254 0.0
C477 C 0.01382 0.79396 0.5296 0.0
N478 N 0.01559 0.77268 0.52833 0.0
Co479 Co 0.00123 0.75251 0.49922 0.0
N480 N 0.98878 0.77633 0.47673 0.0
C481 C 0.99245 0.7972 0.4818 0.0
C482 C 0.98198 0.80974 0.46221 0.0
C483 C 0.97075 0.79607 0.44373 0.0
C484 C 0.97494 0.77593 0.45333 0.0
N485 N 0.98601 0.73234 0.47073 0.0
C486 C 0.97156 0.73619 0.44879 0.0
C487 C 0.96346 0.71758 0.43571 0.0
C488 C 0.97305 0.70141 0.44998 0.0
C489 C 0.98626 0.711 0.47099 0.0
N490 N 0.0145 0.72872 0.52115 0.0
C491 C 0.01232 0.70782 0.51468 0.0
C492 C 0.02483 0.69535 0.53211 0.0
C493 C 0.03605 0.7091 0.55048 0.0
C494 C 0.02955 0.72925 0.54328 0.0
N495 N 0.9764 0.75222 0.52234 0.0
C496 C 0.94031 0.75178 0.55349 0.0
C497 C 0.95006 0.733 0.54541 0.0
C498 C 0.96799 0.73358 0.53012 0.0
C499 C 0.94902 0.77079 0.54592 0.0
C500 C 0.96685 0.77065 0.53037 0.0
N501 N 0.02605 0.75281 0.47606 0.0
C502 C 0.04923 0.73486 0.4447 0.0
C503 C 0.0615 0.753 0.44374 0.0
C504 C 0.05584 0.77104 0.45927 0.0
C505 C 0.03807 0.77067 0.47495 0.0
C506 C 0.03185 0.73505 0.46107 0.0
H507 H 0.03441 0.78504 0.48597 0.0
H508 H 0.02344 0.72056 0.46135 0.0
H509 H 0.9747 0.71873 0.52473 0.0
H510 H 0.97248 0.78566 0.52488 0.0
C511 C 0.00361 0.80462 0.50699 0.0
C512 C 0.0389 0.74848 0.55683 0.0
C513 C 0.9643 0.75711 0.44068 0.0
C514 C -0.00107 0.70045 0.49148 0.0
H515 H 0.04618 0.78895 0.5852 0.0
H516 H 0.02695 0.82018 0.55771 0.0
H517 H 0.98181 0.82681 0.4621 0.0
H518 H 0.96013 0.80043 0.42578 0.0
H519 H 0.95154 0.71579 0.41808 0.0
H520 H 0.97038 0.68467 0.4459 0.0
H521 H 0.02611 0.67831 0.53104 0.0
H522 H 0.04802 0.70471 0.56678 0.0
H523 H 0.94403 0.71788 0.55113 0.0
H524 H 0.94188 0.78575 0.55148 0.0
H525 H 0.05322 0.72045 0.43321 0.0
H526 H 0.06486 0.7855 0.45892 0.0
C527 C 0.26841 0.96697 0.54655 0.0
C528 C 0.28793 0.95868 0.55531 0.0
C529 C 0.30273 0.97192 0.5463 0.0
C530 C 0.29151 0.98737 0.53229 0.0
N531 N 0.27041 0.98482 0.53175 0.0
Co532 Co 0.2485 0.00315 0.51187 0.0
N533 N 0.27031 0.02329 0.50005 0.0
C534 C 0.29123 0.02262 0.5075 0.0
C535 C 0.30227 0.03902 0.49762 0.0
C536 C 0.28755 0.0509 0.4829 0.0
C537 C 0.26829 0.04089 0.48432 0.0
N538 N 0.22667 0.02091 0.4908 0.0
C539 C 0.22878 0.03794 0.47439 0.0
C540 C 0.20947 0.04419 0.46167 0.0
C541 C 0.19467 0.03095 0.47064 0.0
C542 C 0.20569 0.01721 0.48795 0.0
N543 N 0.22662 0.98355 0.52485 0.0
C544 C 0.20552 0.98556 0.52011 0.0
C545 C 0.19429 0.97072 0.53304 0.0
C546 C 0.20906 0.95852 0.54709 0.0
C547 C 0.2286 0.96649 0.54165 0.0
N548 N 0.2464 0.02061 0.54732 0.0
C549 C 0.24471 0.04977 0.59346 0.0
C550 C 0.22646 0.04403 0.57659 0.0
C551 C 0.22764 0.0294 0.55384 0.0
C552 C 0.26344 0.03946 0.58834 0.0
C553 C 0.26392 0.02501 0.56536 0.0
N554 N 0.25068 0.98578 0.4764 0.0
C555 C 0.23471 0.9629 0.43857 0.0
C556 C 0.25425 0.95932 0.42777 0.0
C557 C 0.2718 0.96989 0.44093 0.0
C558 C 0.26968 0.98295 0.46504 0.0
C559 C 0.23329 0.97614 0.4627 0.0
H560 H 0.28372 0.99029 0.47432 0.0
H561 H 0.21803 0.97797 0.47018 0.0
H562 H 0.21331 0.02601 0.54132 0.0
H563 H 0.27881 0.01813 0.5622 0.0
C564 C 0.30023 0.0054 0.5216 0.0
C565 C 0.24851 0.95744 0.55321 0.0
C566 C 0.24865 0.04858 0.46997 0.0
C567 C 0.19676 0.00104 0.50245 0.0
H568 H 0.29119 0.94462 0.56727 0.0
H569 H 0.31965 0.97066 0.55002 0.0
H570 H 0.31908 0.04177 0.5003 0.0
H571 H 0.29073 0.0652 0.47209 0.0
H572 H 0.20631 0.05691 0.44723 0.0
H573 H 0.17787 0.03125 0.46509 0.0
H574 H 0.17736 0.96897 0.53232 0.0
H575 H 0.20574 0.94531 0.55999 0.0
H576 H 0.21156 0.0516 0.57987 0.0
H577 H 0.27786 0.04308 0.60139 0.0
H578 H 0.22068 0.95486 0.42922 0.0
H579 H 0.28722 0.96779 0.433 0.0
C580 C 0.5316 0.76369 0.04697 0.0
C581 C 0.53809 0.78282 0.06018 0.0
C582 C 0.52756 0.79823 0.04546 0.0
C583 C 0.51518 0.78768 0.02437 0.0
N584 N 0.51701 0.76643 0.02486 0.0
Co585 Co 0.50138 0.74502 0.99879 0.0
N586 N 0.48717 0.76775 0.97582 0.0
C587 C 0.49049 0.78881 0.9791 0.0
C588 C 0.4785 0.80043 0.95993 0.0
C589 C 0.46659 0.78595 0.94362 0.0
C590 C 0.47197 0.76629 0.95401 0.0
N591 N 0.48512 0.72363 0.97326 0.0
C592 C 0.46952 0.72646 0.95241 0.0
C593 C 0.4613 0.70734 0.94122 0.0
C594 C 0.47197 0.69187 0.95565 0.0
C595 C 0.48594 0.70237 0.97485 0.0
N596 N 0.51616 0.72227 0.02124 0.0
C597 C 0.51409 0.70116 0.01644 0.0
C598 C 0.52716 0.68951 0.03427 0.0
C599 C 0.53849 0.70402 0.05126 0.0
C600 C 0.53153 0.72378 0.0429 0.0
N601 N 0.47815 0.74544 0.02471 0.0
C602 C 0.44424 0.74567 0.0599 0.0
C603 C 0.4543 0.72688 0.05273 0.0
C604 C 0.47099 0.7271 0.03518 0.0
C605 C 0.45155 0.76441 0.04937 0.0
C606 C 0.46849 0.76396 0.03212 0.0
N607 N 0.52462 0.74455 0.97283 0.0
C608 C 0.54755 0.72507 0.94266 0.0
C609 C 0.55834 0.74348 0.93718 0.0
C610 C 0.55182 0.76249 0.94967 0.0
C611 C 0.53509 0.76266 0.96731 0.0
C612 C 0.5309 0.72596 0.9603 0.0
H613 H 0.53105 0.77762 0.9764 0.0
H614 H 0.52343 0.71135 0.96352 0.0
H615 H 0.47769 0.71218 0.03017 0.0
H616 H 0.4734 0.77878 0.02491 0.0
C617 C 0.50315 0.79728 0.00235 0.0
C618 C 0.54057 0.74349 0.0553 0.0
C619 C 0.46132 0.74687 0.94361 0.0
C620 C 0.49973 0.69276 0.99499 0.0
H621 H 0.54962 0.78538 0.07818 0.0
H622 H 0.52919 0.81513 0.04917 0.0
H623 H 0.47787 0.81744 0.9587 0.0
H624 H 0.45482 0.78948 0.92658 0.0
H625 H 0.44861 0.70479 0.92476 0.0
H626 H 0.46953 0.675 0.95291 0.0
H627 H 0.5285 0.6725 0.03459 0.0
H628 H 0.55073 0.70041 0.06764 0.0
H629 H 0.44902 0.71193 0.06012 0.0
H630 H 0.44437 0.7794 0.05463 0.0
H631 H 0.55176 0.70999 0.93311 0.0
H632 H 0.5598 0.77717 0.94629 0.0
C633 C 0.22418 0.52668 0.05435 0.0
C634 C 0.2037 0.53067 0.06105 0.0
C635 C 0.19087 0.51983 0.04095 0.0
C636 C 0.20421 0.50994 0.02323 0.0
N637 N 0.22482 0.5136 0.03098 0.0
Co638 Co 0.24965 0.50286 0.01105 0.0
N639 N 0.23077 0.48877 0.9799 0.0
C640 C 0.20949 0.48911 0.97691 0.0
C641 C 0.20103 0.47801 0.95311 0.0
C642 C 0.21791 0.46992 0.94027 0.0
C643 C 0.23571 0.47654 0.95716 0.0
N644 N 0.27451 0.49188 0.99138 0.0
C645 C 0.27516 0.47912 0.96769 0.0
C646 C 0.2957 0.47469 0.96151 0.0
C647 C 0.30851 0.48492 0.98218 0.0
C648 C 0.29513 0.49489 -0.00024 0.0
N649 N 0.26854 0.51721 0.04197 0.0
C650 C 0.28983 0.51723 0.04474 0.0
C651 C 0.29827 0.52876 0.06817 0.0
C652 C 0.28136 0.53689 0.08087 0.0
C653 C 0.26357 0.52983 0.06428 0.0
N654 N 0.24965 0.4767 0.03371 0.0
C655 C 0.2495 0.44055 0.06778 0.0
C656 C 0.26804 0.45178 0.06476 0.0
C657 C 0.26779 0.46951 0.04775 0.0
C658 C 0.23109 0.44755 0.05281 0.0
C659 C 0.23151 0.46545 0.03609 0.0
N660 N 0.24965 0.52899 0.98841 0.0
C661 C 0.26859 0.55643 0.96623 0.0
C662 C 0.24985 0.56508 0.95434 0.0
C663 C 0.23097 0.55556 0.9604 0.0
C664 C 0.23123 0.53768 0.97719 0.0
C665 C 0.26813 0.53872 0.98321 0.0
H666 H 0.2163 0.53107 0.98066 0.0
H667 H 0.28297 0.53316 0.99188 0.0
H668 H 0.28252 0.47713 0.04634 0.0
H669 H 0.21691 0.46995 0.02542 0.0
C670 C 0.19789 0.49881 0.99776 0.0
C671 C 0.24245 0.53685 0.06938 0.0
C672 C 0.25684 0.46975 0.95163 0.0
C673 C 0.30145 0.50674 0.0246 0.0
H674 H 0.19856 0.54084 0.07819 0.0
H675 H 0.17383 0.51982 0.03888 0.0
H676 H 0.18455 0.47564 0.94633 0.0
H677 H 0.21724 0.45988 0.92104 0.0
H678 H 0.30092 0.46475 0.94421 0.0
H679 H 0.32554 0.48478 0.98446 0.0
H680 H 0.31474 0.5313 0.07486 0.0
H681 H 0.28199 0.5473 0.09976 0.0
H682 H 0.28287 0.44684 0.07527 0.0
H683 H 0.21624 0.43955 0.0544 0.0
H684 H 0.28363 0.56342 0.9627 0.0
H685 H 0.21601 0.56158 0.95167 0.0
C686 C 0.47526 0.27409 0.9757 0.0
C687 C 0.46955 0.29323 0.96388 0.0
C688 C 0.47905 0.30866 0.98135 0.0
C689 C 0.49014 0.29812 0.00256 0.0
N690 N 0.48853 0.27685 -0.00048 0.0
Co691 Co 0.50303 0.25546 0.02456 0.0
N692 N 0.51596 0.2782 0.05117 0.0
C693 C 0.51272 0.29925 0.04979 0.0
C694 C 0.52324 0.31087 0.0716 0.0
C695 C 0.53409 0.29643 0.08773 0.0
C696 C 0.52968 0.27676 0.07456 0.0
N697 N 0.51806 0.2341 0.04928 0.0
C698 C 0.53249 0.23694 0.07196 0.0
C699 C 0.54031 0.21779 0.08159 0.0
C700 C 0.53046 0.20235 0.0645 0.0
C701 C 0.51739 0.21285 0.04532 0.0
N702 N 0.48962 0.23271 0.99823 0.0
C703 C 0.49174 0.21161 0.00077 0.0
C704 C 0.47956 0.19991 0.98067 0.0
C705 C 0.4688 0.21436 0.96446 0.0
C706 C 0.47522 0.23417 0.97551 0.0
N707 N 0.52764 0.25627 0.00118 0.0
C708 C 0.56245 0.25724 0.9678 0.0
C709 C 0.55356 0.2381 0.97443 0.0
C710 C 0.53627 0.23798 0.9909 0.0
C711 C 0.55373 0.27591 0.97825 0.0
C712 C 0.53656 0.27506 0.99495 0.0
N713 N 0.47838 0.25463 0.04791 0.0
C714 C 0.45393 0.23482 0.07347 0.0
C715 C 0.44304 0.25318 0.08041 0.0
C716 C 0.45013 0.2723 0.07074 0.0
C717 C 0.46768 0.27266 0.05468 0.0
C718 C 0.47137 0.23589 0.05738 0.0
H719 H 0.47225 0.28772 0.04795 0.0
H720 H 0.47881 0.2213 0.05274 0.0
H721 H 0.53014 0.22288 0.99494 0.0
H722 H 0.53082 0.2898 0.00265 0.0
C723 C 0.50107 0.30773 0.02654 0.0
C724 C 0.4666 0.25388 0.9645 0.0
C725 C 0.53985 0.2574 0.08416 0.0
C726 C 0.50486 0.20323 0.02274 0.0
H727 H 0.45917 0.29579 0.94494 0.0
H728 H 0.47762 0.32556 0.97924 0.0
H729 H 0.52348 0.32786 0.07492 0.0
H730 H 0.5445 0.3 0.10665 0.0
H731 H 0.55222 0.21516 0.09878 0.0
H732 H 0.53292 0.18549 0.0655 0.0
H733 H 0.47831 0.18288 0.97845 0.0
H734 H 0.45725 0.21062 0.94688 0.0
H735 H 0.55969 0.22323 0.96654 0.0
H736 H 0.5603 0.29111 0.97388 0.0
H737 H 0.44886 0.21956 0.08005 0.0
H738 H 0.44235 0.28701 0.07582 0.0
C739 C 0.7291 0.54266 0.04183 0.0
C740 C 0.70974 0.55234 0.04416 0.0
C741 C 0.69501 0.53944 0.02982 0.0
C742 C 0.70616 0.52278 0.01935 0.0
N743 N 0.72714 0.5242 0.02617 0.0
Co744 Co 0.74912 0.50386 0.01371 0.0
N745 N 0.72728 0.48414 0.99442 0.0
C746 C 0.70616 0.48611 0.99481 0.0
C747 C 0.69508 0.46975 0.9809 0.0
C748 C 0.70999 0.4565 0.97102 0.0
C749 C 0.72941 0.46569 0.97924 0.0
N750 N 0.77115 0.48414 -0.00019 0.0
C751 C 0.76922 0.46632 0.98275 0.0
C752 C 0.78876 0.4584 0.97664 0.0
C753 C 0.80351 0.47151 0.99048 0.0
C754 C 0.79223 0.48676 0.00396 0.0
N755 N 0.77091 0.52295 0.03441 0.0
C756 C 0.79193 0.51973 0.03687 0.0
C757 C 0.80293 0.5348 0.05358 0.0
C758 C 0.78804 0.54844 0.06256 0.0
C759 C 0.76873 0.54097 0.05053 0.0
N760 N 0.74776 0.48807 0.04906 0.0
C761 C 0.74442 0.46215 0.09567 0.0
C762 C 0.76381 0.46513 0.08441 0.0
C763 C 0.76514 0.47821 0.06134 0.0
C764 C 0.72708 0.47333 0.08439 0.0
C765 C 0.72907 0.48607 0.06129 0.0
N766 N 0.75033 0.51962 0.97832 0.0
C767 C 0.76902 0.54192 0.94816 0.0
C768 C 0.7506 0.54511 0.93073 0.0
C769 C 0.73242 0.53436 0.93652 0.0
C770 C 0.7326 0.5219 0.96026 0.0
C771 C 0.76857 0.52905 0.97161 0.0
H772 H 0.71804 0.51465 0.96376 0.0
H773 H 0.78304 0.52734 0.98433 0.0
H774 H 0.78027 0.47969 0.05339 0.0
H775 H 0.71509 0.49375 0.0534 0.0
C776 C 0.69726 0.50457 0.00569 0.0
C777 C 0.74881 0.5515 0.05522 0.0
C778 C 0.74934 0.45645 0.97163 0.0
C779 C 0.80094 0.50312 0.0218 0.0
H780 H 0.70654 0.56708 0.05538 0.0
H781 H 0.67813 0.5417 0.02787 0.0
H782 H 0.67817 0.46794 0.97768 0.0
H783 H 0.70688 0.44187 0.95879 0.0
H784 H 0.79208 0.4446 0.96348 0.0
H785 H 0.82045 0.47006 0.99075 0.0
H786 H 0.81979 0.53584 0.05846 0.0
H787 H 0.79109 0.56233 0.07637 0.0
H788 H 0.77773 0.4568 0.09255 0.0
H789 H 0.71186 0.47194 0.09297 0.0
H790 H 0.78352 0.54991 0.94444 0.0
H791 H 0.71791 0.53587 0.92311 0.0
H792 H 0.17947 0.27031 0.38938 0.0
H793 H 0.06321 0.23098 0.41439 0.0
H794 H 0.14295 0.22773 0.3311 0.0
H795 H 0.09714 0.27757 0.46946 0.0
H796 H 0.09261 0.2293 0.38404 0.0
H797 H 0.14989 0.27274 0.41962 0.0
C798 C 0.16526 0.26139 0.38303 0.0
C799 C 0.16366 0.2488 0.35768 0.0
C800 C 0.09364 0.23993 0.40271 0.0
C801 C 0.12973 0.25163 0.39203 0.0
C802 C 0.0769 0.24082 0.42013 0.0
C803 C 0.07778 0.25436 0.44456 0.0
C804 C 0.11149 0.25261 0.4098 0.0
C805 C 0.09575 0.26703 0.4507 0.0
C806 C 0.14835 0.26289 0.40019 0.0
C807 C 0.14478 0.23782 0.35028 0.0
N808 N 0.11195 0.26577 0.4335 0.0
N809 N 0.12859 0.23946 0.36739 0.0
H810 H 0.74391 0.18478 0.39524 0.0
H811 H 0.78228 0.06518 0.40526 0.0
H812 H 0.78102 0.15465 0.33223 0.0
H813 H 0.73215 0.0921 0.45153 0.0
H814 H 0.78577 0.09887 0.38179 0.0
H815 H 0.7437 0.15187 0.42045 0.0
C816 C 0.75224 0.17127 0.38693 0.0
C817 C 0.76247 0.17234 0.36165 0.0
C818 C 0.77398 0.0973 0.39702 0.0
C819 C 0.76203 0.13461 0.39006 0.0
C820 C 0.77203 0.07818 0.41039 0.0
C821 C 0.75677 0.0759 0.43003 0.0
C822 C 0.76077 0.11419 0.40378 0.0
C823 C 0.74385 0.09312 0.43608 0.0
C824 C 0.75196 0.15245 0.40116 0.0
C825 C 0.77277 0.15432 0.35154 0.0
N826 N 0.74619 0.11157 0.42304 0.0
N827 N 0.77227 0.1361 0.36579 0.0
H828 H 0.83844 0.78828 0.37343 0.0
H829 H 0.95743 0.74731 0.38346 0.0
H830 H 0.86362 0.74724 0.30892 0.0
H831 H 0.92698 0.77265 0.45606 0.0
H832 H 0.92434 0.75104 0.35353 0.0
H833 H 0.87207 0.7865 0.40205 0.0
C834 C 0.85099 0.77887 0.36528 0.0
C835 C 0.84812 0.76785 0.33872 0.0
C836 C 0.92489 0.75576 0.37601 0.0
C837 C 0.88674 0.76601 0.37121 0.0
C838 C 0.94369 0.75361 0.39298 0.0
C839 C 0.94463 0.75945 0.42213 0.0
C840 C 0.90709 0.76406 0.38834 0.0
C841 C 0.92666 0.76786 0.43361 0.0
C842 C 0.87021 0.77794 0.38159 0.0
C843 C 0.86515 0.75625 0.32904 0.0
N844 N 0.90857 0.76992 0.41667 0.0
N845 N 0.8837 0.75562 0.34528 0.0
H846 H 0.2818 0.84035 0.34912 0.0
H847 H 0.22843 0.9516 0.37888 0.0
H848 H 0.22804 0.86313 0.29769 0.0
H849 H 0.28512 0.92981 0.42499 0.0
H850 H 0.22991 0.92115 0.34549 0.0
H851 H 0.28509 0.87472 0.37416 0.0
C852 C 0.27068 0.85266 0.34317 0.0
C853 C 0.25444 0.84893 0.3217 0.0
C854 C 0.24219 0.92323 0.36268 0.0
C855 C 0.25811 0.88826 0.35003 0.0
C856 C 0.2413 0.94054 0.38175 0.0
C857 C 0.25655 0.94308 0.40487 0.0
C858 C 0.25833 0.90834 0.36698 0.0
C859 C 0.27309 0.92853 0.40739 0.0
C860 C 0.27264 0.87231 0.35727 0.0
C861 C 0.24073 0.86546 0.31424 0.0
N862 N 0.27339 0.91164 0.38888 0.0
N863 N 0.24272 0.88441 0.32866 0.0
H864 H 0.1625 0.78321 0.63083 0.0
H865 H 0.04848 0.73149 0.60908 0.0
H866 H 0.14556 0.72887 0.67683 0.0
H867 H 0.07573 0.76511 0.54275 0.0
H868 H 0.0826 0.73303 0.6374 0.0
H869 H 0.12906 0.77992 0.60131 0.0
C870 C 0.15169 0.77063 0.63468 0.0
C871 C 0.1567 0.75625 0.65614 0.0
C872 C 0.08114 0.73989 0.61653 0.0
C873 C 0.11859 0.75249 0.62284 0.0
C874 C 0.06178 0.73893 0.60043 0.0
C875 C 0.05957 0.74794 0.57355 0.0
C876 C 0.09815 0.75034 0.60584 0.0
C877 C 0.077 0.75788 0.56338 0.0
C878 C 0.13273 0.76868 0.6178 0.0
C879 C 0.14228 0.74014 0.66028 0.0
N880 N 0.09557 0.75895 0.57963 0.0
N881 N 0.12377 0.73877 0.6439 0.0
H882 H 0.21629 0.14838 0.71838 0.0
H883 H 0.27351 0.0814 0.60009 0.0
H884 H 0.26007 0.17415 0.66307 0.0
H885 H 0.2158 0.06009 0.63228 0.0
H886 H 0.27199 0.11348 0.62984 0.0
H887 H 0.21839 0.11409 0.69243 0.0
C888 C 0.22624 0.14679 0.70071 0.0
C889 C 0.23789 0.16403 0.69258 0.0
C890 C 0.2597 0.10176 0.63054 0.0
C891 C 0.24061 0.12521 0.66344 0.0
C892 C 0.26069 0.08332 0.61382 0.0
C893 C 0.24476 0.06808 0.6138 0.0
C894 C 0.24268 0.10502 0.64738 0.0
C895 C 0.22828 0.0716 0.63158 0.0
C896 C 0.22741 0.12733 0.68598 0.0
C897 C 0.25058 0.1613 0.66967 0.0
N898 N 0.22762 0.08981 0.64771 0.0
N899 N 0.25167 0.14222 0.65598 0.0
H900 H 0.82941 0.22075 0.65718 0.0
H901 H 0.93316 0.28349 0.62428 0.0
H902 H 0.8452 0.28301 0.69275 0.0
H903 H 0.91095 0.2271 0.57679 0.0
H904 H 0.90194 0.28276 0.65131 0.0
H905 H 0.8604 0.22175 0.62956 0.0
C906 C 0.83944 0.2346 0.65922 0.0
C907 C 0.83473 0.25183 0.67724 0.0
C908 C 0.9039 0.27057 0.63494 0.0
C909 C 0.87015 0.25312 0.64571 0.0
C910 C 0.92168 0.27103 0.61939 0.0
C911 C 0.92475 0.25532 0.59821 0.0
C912 C 0.8891 0.25423 0.62941 0.0
C913 C 0.90947 0.23935 0.59321 0.0
C914 C 0.85705 0.23522 0.64335 0.0
C915 C 0.84813 0.26948 0.67886 0.0
N916 N 0.89234 0.2392 0.60872 0.0
N917 N 0.86527 0.26964 0.66338 0.0
H918 H 0.7184 0.82575 0.62838 0.0
H919 H 0.75705 0.94512 0.63662 0.0
H920 H 0.75408 0.85372 0.70236 0.0
H921 H 0.71073 0.91979 0.57233 0.0
H922 H 0.75569 0.91216 0.66196 0.0
H923 H 0.71496 0.86047 0.60806 0.0
C924 C 0.72536 0.83923 0.64047 0.0
C925 C 0.73662 0.83683 0.66705 0.0
C926 C 0.74562 0.91395 0.64252 0.0
C927 C 0.73299 0.87657 0.64373 0.0
C928 C 0.74644 0.93269 0.62805 0.0
C929 C 0.73406 0.93507 0.60233 0.0
C930 C 0.73252 0.89747 0.63092 0.0
C931 C 0.72041 0.91864 0.59223 0.0
C932 C 0.72343 0.85905 0.62882 0.0
C933 C 0.74561 0.8548 0.68155 0.0
N934 N 0.72018 0.90042 0.6064 0.0
N935 N 0.7437 0.87394 0.66961 0.0
H936 H 0.84993 0.77064 0.68073 0.0
H937 H 0.90578 0.726 0.54403 0.0
H938 H 0.81889 0.72938 0.61534 0.0
H939 H 0.93132 0.77699 0.59969 0.0
H940 H 0.87456 0.72563 0.57124 0.0
H941 H 0.88063 0.77193 0.6526 0.0
C942 C 0.8496 0.76184 0.66045 0.0
C943 C 0.83185 0.74986 0.65037 0.0
C944 C 0.88696 0.73695 0.57745 0.0
C945 C 0.86692 0.75124 0.61806 0.0
C946 C 0.90484 0.73707 0.56205 0.0
C947 C 0.92119 0.75153 0.56965 0.0
C948 C 0.88548 0.75125 0.60082 0.0
C949 C 0.91901 0.7657 0.59295 0.0
C950 C 0.86708 0.76266 0.64433 0.0
C951 C 0.83217 0.73896 0.62379 0.0
N952 N 0.90154 0.76514 0.60779 0.0
N953 N 0.84947 0.73981 0.60863 0.0
H954 H 0.22647 0.83569 0.62618 0.0
H955 H 0.26302 0.95546 0.60964 0.0
H956 H 0.2686 0.86918 0.68885 0.0
H957 H 0.23414 0.91714 0.53958 0.0
H958 H 0.26304 0.92483 0.64027 0.0
H959 H 0.22706 0.86593 0.59543 0.0
C960 C 0.23598 0.84926 0.63353 0.0
C961 C 0.24753 0.84962 0.6604 0.0
C962 C 0.2567 0.92308 0.6182 0.0
C963 C 0.24787 0.88476 0.62514 0.0
C964 C 0.25669 0.94055 0.60075 0.0
C965 C 0.24854 0.93881 0.57208 0.0
C966 C 0.2483 0.90369 0.60702 0.0
C967 C 0.24047 0.91916 0.56162 0.0
C968 C 0.23619 0.86664 0.61591 0.0
C969 C 0.25913 0.86808 0.66868 0.0
N970 N 0.24047 0.90242 0.57907 0.0
N971 N 0.25895 0.88482 0.65123 0.0
H972 H 0.13792 0.25312 0.72162 0.0
H973 H 0.08028 0.26474 0.56492 0.0
H974 H 0.17021 0.26827 0.64739 0.0
H975 H 0.04795 0.24746 0.63793 0.0
H976 H 0.11347 0.26639 0.59507 0.0
H977 H 0.10478 0.2512 0.69166 0.0
C978 C 0.13805 0.25598 0.699 0.0
C979 C 0.15688 0.26087 0.687 0.0
C980 C 0.09917 0.26217 0.60457 0.0
C981 C 0.11899 0.25884 0.65263 0.0
C982 C 0.08033 0.26122 0.58737 0.0
C983 C 0.06165 0.25584 0.59914 0.0
C984 C 0.09923 0.2578 0.63375 0.0
C985 C 0.06222 0.25152 0.62824 0.0
C986 C 0.11911 0.25496 0.68194 0.0
C987 C 0.15605 0.26473 0.65765 0.0
N988 N 0.08077 0.2526 0.64464 0.0
N989 N 0.13744 0.2636 0.64148 0.0
H990 H 0.76811 0.1726 0.64156 0.0
H991 H 0.72791 0.05314 0.61274 0.0
H992 H 0.7256 0.1421 0.69449 0.0
H993 H 0.76195 0.08691 0.55297 0.0
H994 H 0.72813 0.08507 0.64412 0.0
H995 H 0.76718 0.14106 0.60991 0.0
C996 C 0.75845 0.15938 0.64651 0.0
C997 C 0.74689 0.16019 0.6709 0.0
C998 C 0.73553 0.08556 0.62413 0.0
C999 C 0.74606 0.12367 0.63472 0.0
C1000 C 0.73538 0.06735 0.60627 0.0
C1001 C 0.74487 0.06749 0.58029 0.0
C1002 C 0.7454 0.10403 0.61606 0.0
C1003 C 0.75446 0.08622 0.57287 0.0
C1004 C 0.75803 0.14127 0.62844 0.0
C1005 C 0.73504 0.14224 0.67629 0.0
N1006 N 0.75453 0.10371 0.59067 0.0
N1007 N 0.73496 0.12478 0.65843 0.0
H1008 H 0.84061 0.23149 0.38311 0.0
H1009 H 0.95952 0.2693 0.41117 0.0
H1010 H 0.86333 0.28685 0.34442 0.0
H1011 H 0.92607 0.24136 0.47676 0.0
H1012 H 0.92647 0.27025 0.38038 0.0
H1013 H 0.87432 0.22917 0.41197 0.0
C1014 C 0.8528 0.24305 0.38063 0.0
C1015 C 0.84934 0.25942 0.36156 0.0
C1016 C 0.92643 0.26391 0.40152 0.0
C1017 C 0.88771 0.25671 0.39395 0.0
C1018 C 0.94517 0.26337 0.41897 0.0
C1019 C 0.94526 0.25554 0.44652 0.0
C1020 C 0.9079 0.25602 0.41153 0.0
C1021 C 0.92647 0.24764 0.45564 0.0
C1022 C 0.8719 0.24178 0.3971 0.0
C1023 C 0.86547 0.2741 0.35909 0.0
N1024 N 0.90849 0.24802 0.43813 0.0
N1025 N 0.88409 0.27234 0.37502 0.0
H1026 H 0.73651 0.8333 0.38677 0.0
H1027 H 0.76163 0.95717 0.41137 0.0
H1028 H 0.76202 0.87141 0.32328 0.0
H1029 H 0.73351 0.91977 0.4731 0.0
H1030 H 0.76237 0.92584 0.37899 0.0
H1031 H 0.73557 0.86458 0.41873 0.0
C1032 C 0.74181 0.84824 0.37941 0.0
C1033 C 0.74933 0.84959 0.35212 0.0
C1034 C 0.75602 0.92443 0.39959 0.0
C1035 C 0.74851 0.88563 0.389 0.0
C1036 C 0.75562 0.94229 0.41801 0.0
C1037 C 0.74751 0.94094 0.44483 0.0
C1038 C 0.74827 0.90503 0.40807 0.0
C1039 C 0.73987 0.92138 0.45254 0.0
C1040 C 0.74137 0.86611 0.3978 0.0
C1041 C 0.75634 0.86942 0.34418 0.0
N1042 N 0.74044 0.9042 0.43428 0.0
N1043 N 0.75574 0.88659 0.36246 0.0
H1044 H 0.18743 0.75435 0.38578 0.0
H1045 H 0.0635 0.73912 0.38821 0.0
H1046 H 0.14536 0.75246 0.3091 0.0
H1047 H 0.10144 0.767 0.46003 0.0
H1048 H 0.09423 0.73925 0.35989 0.0
H1049 H 0.15684 0.75448 0.41458 0.0
C1050 C 0.17174 0.75393 0.37506 0.0
C1051 C 0.16885 0.75347 0.34507 0.0
C1052 C 0.0958 0.74538 0.38183 0.0
C1053 C 0.13396 0.75341 0.37771 0.0
C1054 C 0.07834 0.7452 0.398 0.0
C1055 C 0.07998 0.75309 0.42644 0.0
C1056 C 0.11513 0.75318 0.39432 0.0
C1057 C 0.09952 0.76094 0.43809 0.0
C1058 C 0.15435 0.75411 0.39145 0.0
C1059 C 0.14823 0.75303 0.33218 0.0
N1060 N 0.1164 0.76066 0.42203 0.0
N1061 N 0.13156 0.75287 0.34856 0.0
H1062 H 0.22058 0.165 0.38159 0.0
H1063 H 0.26854 0.05195 0.42049 0.0
H1064 H 0.27578 0.13995 0.34492 0.0
H1065 H 0.22953 0.08721 0.47609 0.0
H1066 H 0.26885 0.08232 0.38939 0.0
H1067 H 0.22081 0.1349 0.41302 0.0
C1068 C 0.23271 0.15313 0.38005 0.0
C1069 C 0.2482 0.15507 0.36053 0.0
C1070 C 0.26022 0.08343 0.40839 0.0
C1071 C 0.24848 0.12041 0.39647 0.0
C1072 C 0.26004 0.06612 0.42611 0.0
C1073 C 0.24894 0.06706 0.45084 0.0
C1074 C 0.24895 0.10179 0.41517 0.0
C1075 C 0.23815 0.08578 0.45711 0.0
C1076 C 0.2329 0.13601 0.39813 0.0
C1077 C 0.26364 0.13924 0.35976 0.0
N1078 N 0.2383 0.10232 0.43933 0.0
N1079 N 0.2633 0.12256 0.37728 0.0
H1080 H 0.66921 0.70744 0.85098 0.0
H1081 H 0.56762 0.77122 0.89632 0.0
H1082 H 0.6453 0.76296 0.80903 0.0
H1083 H 0.58979 0.71403 0.93561 0.0
H1084 H 0.59671 0.76918 0.86529 0.0
H1085 H 0.64087 0.71021 0.8832 0.0
C1086 C 0.65805 0.72026 0.84861 0.0
C1087 C 0.65962 0.73495 0.82719 0.0
C1088 C 0.59522 0.75707 0.88071 0.0
C1089 C 0.62703 0.73816 0.86393 0.0
C1090 C 0.57868 0.75831 0.89856 0.0
C1091 C 0.5762 0.74274 0.91857 0.0
C1092 C 0.60946 0.74018 0.88289 0.0
C1093 C 0.59089 0.72621 0.92023 0.0
C1094 C 0.64181 0.72178 0.86693 0.0
C1095 C 0.64454 0.75109 0.82493 0.0
N1096 N 0.60686 0.72538 0.90264 0.0
N1097 N 0.62892 0.75227 0.84307 0.0
H1098 H 0.23019 0.68734 0.87707 0.0
H1099 H 0.27601 0.57252 0.91188 0.0
H1100 H 0.26953 0.65232 0.82146 0.0
H1101 H 0.22417 0.6001 0.95385 0.0
H1102 H 0.27616 0.60299 0.88129 0.0
H1103 H 0.23009 0.65702 0.90804 0.0
C1104 C 0.2389 0.67333 0.87142 0.0
C1105 C 0.24988 0.67245 0.84653 0.0
C1106 C 0.26473 0.60239 0.89717 0.0
C1107 C 0.24984 0.63756 0.88204 0.0
C1108 C 0.26472 0.58503 0.9148 0.0
C1109 C 0.25006 0.58367 0.93558 0.0
C1110 C 0.25015 0.61877 0.90044 0.0
C1111 C 0.23564 0.60033 0.93801 0.0
C1112 C 0.23872 0.65595 0.88905 0.0
C1113 C 0.26068 0.6537 0.84022 0.0
N1114 N 0.23612 0.61718 0.92081 0.0
N1115 N 0.26047 0.63711 0.85787 0.0
H1116 H 0.35051 0.28896 0.87236 0.0
H1117 H 0.46269 0.23829 0.90898 0.0
H1118 H 0.36821 0.23068 0.83045 0.0
H1119 H 0.42802 0.26985 0.97333 0.0
H1120 H 0.43126 0.23977 0.87504 0.0
H1121 H 0.38257 0.28724 0.90475 0.0
C1122 C 0.36131 0.27595 0.86985 0.0
C1123 C 0.35685 0.25992 0.84889 0.0
C1124 C 0.43058 0.24626 0.89665 0.0
C1125 C 0.39335 0.25792 0.88546 0.0
C1126 C 0.44838 0.24535 0.91592 0.0
C1127 C 0.44769 0.25373 0.94392 0.0
C1128 C 0.41231 0.25615 0.90534 0.0
C1129 C 0.42902 0.26313 0.9519 0.0
C1130 C 0.37944 0.27489 0.88837 0.0
C1131 C 0.37117 0.24326 0.84652 0.0
N1132 N 0.41208 0.26425 0.93261 0.0
N1133 N 0.38892 0.24273 0.86455 0.0
H1134 H 0.76741 0.33068 0.89708 0.0
H1135 H 0.73546 0.45271 0.91503 0.0
H1136 H 0.73214 0.36466 0.83123 0.0
H1137 H 0.76314 0.41667 0.98428 0.0
H1138 H 0.73543 0.42098 0.88333 0.0
H1139 H 0.76721 0.36219 0.92871 0.0
C1140 C 0.7595 0.34468 0.88925 0.0
C1141 C 0.74975 0.34485 0.86129 0.0
C1142 C 0.74152 0.41996 0.90544 0.0
C1143 C 0.74976 0.38129 0.89752 0.0
C1144 C 0.74153 0.43805 0.92347 0.0
C1145 C 0.74935 0.43722 0.95219 0.0
C1146 C 0.74948 0.40087 0.91618 0.0
C1147 C 0.75706 0.41791 0.9622 0.0
C1148 C 0.75951 0.36275 0.90734 0.0
C1149 C 0.74014 0.36373 0.85236 0.0
N1150 N 0.75698 0.40051 0.94423 0.0
N1151 N 0.7404 0.38112 0.87036 0.0
H1152 H 0.6376 0.23796 0.21918 0.0
H1153 H 0.57738 0.27559 0.07592 0.0
H1154 H 0.65582 0.29412 0.17812 0.0
H1155 H 0.545 0.24312 0.13873 0.0
H1156 H 0.60845 0.27903 0.11015 0.0
H1157 H 0.60528 0.23608 0.18705 0.0
C1158 C 0.63469 0.24992 0.20345 0.0
C1159 C 0.64926 0.26623 0.20119 0.0
C1160 C 0.59454 0.27116 0.11643 0.0
C1161 C 0.61276 0.26399 0.1643 0.0
C1162 C 0.57693 0.26913 0.09694 0.0
C1163 C 0.55883 0.25889 0.10459 0.0
C1164 C 0.5941 0.2626 0.14355 0.0
C1165 C 0.55884 0.25086 0.13204 0.0
C1166 C 0.61629 0.24889 0.18526 0.0
C1167 C 0.64484 0.2814 0.18058 0.0
N1168 N 0.57632 0.2527 0.15052 0.0
N1169 N 0.62706 0.27978 0.16266 0.0
H1170 H 0.76224 0.67981 0.12667 0.0
H1171 H 0.7341 0.55623 0.10827 0.0
H1172 H 0.73553 0.64434 0.1919 0.0
H1173 H 0.76294 0.591 0.04448 0.0
H1174 H 0.73395 0.58849 0.13897 0.0
H1175 H 0.76237 0.64768 0.09619 0.0
C1176 C 0.75651 0.66527 0.13472 0.0
C1177 C 0.74888 0.66491 0.16205 0.0
C1178 C 0.74032 0.58913 0.11828 0.0
C1179 C 0.74876 0.62792 0.12689 0.0
C1180 C 0.74038 0.57074 0.10081 0.0
C1181 C 0.74856 0.57107 0.07394 0.0
C1182 C 0.7485 0.60802 0.10877 0.0
C1183 C 0.75654 0.59017 0.06513 0.0
C1184 C 0.75647 0.64691 0.11717 0.0
C1185 C 0.7413 0.64557 0.17092 0.0
N1186 N 0.75632 0.60788 0.08248 0.0
N1187 N 0.74146 0.62791 0.15346 0.0
H1188 H 0.32069 0.75839 0.1233 0.0
H1189 H 0.44026 0.72424 0.10882 0.0
H1190 H 0.3588 0.72843 0.19038 0.0
H1191 H 0.40687 0.76679 0.05176 0.0
H1192 H 0.40971 0.72337 0.13728 0.0
H1193 H 0.35129 0.75949 0.09512 0.0
C1194 C 0.33549 0.75211 0.1322 0.0
C1195 C 0.3371 0.74334 0.15937 0.0
C1196 C 0.40908 0.73295 0.11858 0.0
C1197 C 0.37218 0.7443 0.12691 0.0
C1198 C 0.42647 0.73337 0.10227 0.0
C1199 C 0.42609 0.74559 0.07788 0.0
C1200 C 0.39107 0.74467 0.11032 0.0
C1201 C 0.4079 0.75732 0.07056 0.0
C1202 C 0.35294 0.75269 0.11602 0.0
C1203 C 0.35665 0.73507 0.16943 0.0
N1204 N 0.39107 0.75648 0.08662 0.0
N1205 N 0.37339 0.73574 0.15321 0.0
H1206 H 0.22861 0.318 0.13984 0.0
H1207 H 0.2716 0.43519 0.11983 0.0
H1208 H 0.26942 0.35217 0.20334 0.0
H1209 H 0.22719 0.40318 0.05881 0.0
H1210 H 0.27163 0.40457 0.14995 0.0
H1211 H 0.22824 0.34863 0.10963 0.0
C1212 C 0.23741 0.33193 0.1476 0.0
C1213 C 0.24906 0.33232 0.17439 0.0
C1214 C 0.26186 0.40421 0.12998 0.0
C1215 C 0.24891 0.3676 0.13941 0.0
C1216 C 0.26193 0.4217 0.11261 0.0
C1217 C 0.24942 0.42189 0.08653 0.0
C1218 C 0.24924 0.38657 0.12136 0.0
C1219 C 0.23693 0.40395 0.07878 0.0
C1220 C 0.23728 0.34943 0.13017 0.0
C1221 C 0.26045 0.35085 0.18279 0.0
N1222 N 0.23721 0.38707 0.09602 0.0
N1223 N 0.26008 0.36765 0.16544 0.0
H1224 H 0.35447 0.22112 0.20289 0.0
H1225 H 0.40597 0.27511 0.07317 0.0
H1226 H 0.32386 0.26978 0.15294 0.0
H1227 H 0.43773 0.2292 0.12677 0.0
H1228 H 0.37549 0.27305 0.10154 0.0
H1229 H 0.38482 0.22337 0.17445 0.0
C1230 C 0.35416 0.23235 0.18601 0.0
C1231 C 0.3366 0.24532 0.18036 0.0
C1232 C 0.38913 0.26343 0.10709 0.0
C1233 C 0.37127 0.24785 0.14749 0.0
C1234 C 0.4066 0.2647 0.09101 0.0
C1235 C 0.42445 0.2523 0.09757 0.0
C1236 C 0.38951 0.24968 0.12993 0.0
C1237 C 0.42422 0.23883 0.12066 0.0
C1238 C 0.37147 0.23356 0.16968 0.0
C1239 C 0.33695 0.25931 0.15785 0.0
N1240 N 0.40704 0.23789 0.13598 0.0
N1241 N 0.35402 0.26023 0.14228 0.0
H1242 H 0.76533 0.37482 0.23183 0.0
H1243 H 0.71213 0.43425 0.0978 0.0
H1244 H 0.70861 0.35378 0.18269 0.0
H1245 H 0.77096 0.45387 0.14293 0.0
H1246 H 0.70874 0.40697 0.13221 0.0
H1247 H 0.76576 0.4061 0.20299 0.0
C1248 C 0.75281 0.37695 0.2152 0.0
C1249 C 0.73696 0.36168 0.20947 0.0
C1250 C 0.72234 0.41731 0.13475 0.0
C1251 C 0.73751 0.39718 0.17627 0.0
C1252 C 0.72421 0.43301 0.11522 0.0
C1253 C 0.74186 0.44637 0.11755 0.0
C1254 C 0.73827 0.41483 0.15673 0.0
C1255 C 0.75723 0.44373 0.1402 0.0
C1256 C 0.75315 0.39471 0.19865 0.0
C1257 C 0.72128 0.36504 0.18749 0.0
N1258 N 0.75512 0.42817 0.1589 0.0
N1259 N 0.722 0.3824 0.17158 0.0
H1260 H 0.66638 0.76685 0.1309 0.0
H1261 H 0.54582 0.73065 0.11039 0.0
H1262 H 0.63711 0.72932 0.19187 0.0
H1263 H 0.57942 0.75624 0.04328 0.0
H1264 H 0.57851 0.73159 0.14189 0.0
H1265 H 0.63403 0.76471 0.0996 0.0
C1266 C 0.65321 0.75801 0.13764 0.0
C1267 C 0.65453 0.74817 0.16405 0.0
C1268 C 0.57877 0.7369 0.12024 0.0
C1269 C 0.61725 0.74596 0.12842 0.0
C1270 C 0.56019 0.73633 0.10237 0.0
C1271 C 0.56019 0.74325 0.07437 0.0
C1272 C 0.59732 0.74466 0.10998 0.0
C1273 C 0.57898 0.75072 0.06481 0.0
C1274 C 0.63469 0.75688 0.11979 0.0
C1275 C 0.63674 0.73735 0.17187 0.0
N1276 N 0.59682 0.75128 0.08262 0.0
N1277 N 0.61882 0.73655 0.15414 0.0
H1278 H 0.22754 0.63491 0.19934 0.0
H1279 H 0.2507 0.57576 0.05178 0.0
H1280 H 0.26534 0.66104 0.13662 0.0
H1281 H 0.22946 0.54306 0.12317 0.0
H1282 H 0.25071 0.60896 0.08015 0.0
H1283 H 0.22351 0.60239 0.16963 0.0
C1284 C 0.23508 0.63377 0.17943 0.0
C1285 C 0.24682 0.6507 0.17044 0.0
C1286 C 0.2459 0.59458 0.0896 0.0
C1287 C 0.2419 0.61385 0.13625 0.0
C1288 C 0.24579 0.57577 0.07341 0.0
C1289 C 0.24004 0.55698 0.08541 0.0
C1290 C 0.24022 0.59445 0.11794 0.0
C1291 C 0.23388 0.55745 0.1134 0.0
C1292 C 0.23265 0.6153 0.16243 0.0
C1293 C 0.2559 0.64853 0.14419 0.0
N1294 N 0.23419 0.57599 0.1289 0.0
N1295 N 0.25323 0.63044 0.12802 0.0
H1296 H 0.33223 0.77073 0.88276 0.0
H1297 H 0.45353 0.73664 0.88674 0.0
H1298 H 0.36079 0.74152 0.81077 0.0
H1299 H 0.42375 0.76046 0.96071 0.0
H1300 H 0.41989 0.73953 0.85791 0.0
H1301 H 0.36597 0.76864 0.91118 0.0
C1302 C 0.34564 0.76399 0.87291 0.0
C1303 C 0.34369 0.75621 0.84441 0.0
C1304 C 0.42066 0.74408 0.88045 0.0
C1305 C 0.38228 0.75364 0.87678 0.0
C1306 C 0.43979 0.74238 0.8968 0.0
C1307 C 0.44111 0.74814 0.92597 0.0
C1308 C 0.40286 0.75173 0.89345 0.0
C1309 C 0.42312 0.75576 0.93822 0.0
C1310 C 0.36485 0.76268 0.88916 0.0
C1311 C 0.36151 0.74742 0.83279 0.0
N1312 N 0.40468 0.75733 0.92188 0.0
N1313 N 0.38005 0.74639 0.84901 0.0
H1314 H 0.28792 0.37678 0.82218 0.0
H1315 H 0.24848 0.42994 0.96579 0.0
H1316 H 0.25558 0.3431 0.88418 0.0
H1317 H 0.27109 0.46594 0.89828 0.0
H1318 H 0.25344 0.39743 0.93737 0.0
H1319 H 0.28455 0.40936 0.85114 0.0
C1320 C 0.28018 0.37624 0.8419 0.0
C1321 C 0.27205 0.35721 0.85083 0.0
C1322 C 0.25732 0.4124 0.92868 0.0
C1323 C 0.26824 0.39424 0.88397 0.0
C1324 C 0.25445 0.43084 0.94485 0.0
C1325 C 0.25945 0.45032 0.93411 0.0
C1326 C 0.26526 0.41357 0.90165 0.0
C1327 C 0.26716 0.45101 0.90704 0.0
C1328 C 0.27829 0.39479 0.85841 0.0
C1329 C 0.26239 0.35732 0.87671 0.0
N1330 N 0.2699 0.43279 0.89164 0.0
N1331 N 0.26072 0.37556 0.89232 0.0
H1332 H 0.64232 0.27461 0.82984 0.0
H1333 H 0.598 0.23306 0.97207 0.0
H1334 H 0.67984 0.23911 0.89192 0.0
H1335 H 0.56792 0.28222 0.92261 0.0
H1336 H 0.62714 0.23306 0.94105 0.0
H1337 H 0.61391 0.27581 0.86187 0.0
C1338 C 0.64469 0.26719 0.85027 0.0
C1339 C 0.66358 0.25675 0.85814 0.0
C1340 C 0.61421 0.24391 0.93706 0.0
C1341 C 0.63089 0.25776 0.8947 0.0
C1342 C 0.59755 0.24384 0.95465 0.0
C1343 C 0.58054 0.25764 0.94984 0.0
C1344 C 0.61375 0.25772 0.91429 0.0
C1345 C 0.58083 0.27145 0.92717 0.0
C1346 C 0.62839 0.26781 0.86849 0.0
C1347 C 0.66548 0.24705 0.88468 0.0
N1348 N 0.59712 0.27105 0.91011 0.0
N1349 N 0.64932 0.24774 0.90195 0.0
H1350 H 0.71372 0.64789 0.82398 0.0
H1351 H 0.78013 0.55285 0.89255 0.0
H1352 H 0.77696 0.633 0.80307 0.0
H1353 H 0.71925 0.57306 0.91751 0.0
H1354 H 0.77846 0.57997 0.85654 0.0
H1355 H 0.71434 0.61775 0.85459 0.0
C1356 C 0.72765 0.63809 0.82554 0.0
C1357 C 0.74533 0.64295 0.81101 0.0
C1358 C 0.76544 0.57831 0.86981 0.0
C1359 C 0.74634 0.60864 0.84652 0.0
C1360 C 0.76642 0.56293 0.89041 0.0
C1361 C 0.74977 0.56064 0.90795 0.0
C1362 C 0.7477 0.59142 0.86688 0.0
C1363 C 0.73229 0.57397 0.90412 0.0
C1364 C 0.72807 0.62097 0.84322 0.0
C1365 C 0.7631 0.62993 0.81423 0.0
N1366 N 0.73175 0.5888 0.88406 0.0
N1367 N 0.7632 0.61337 0.83179 0.0
loop_
_geom_bond_atom_site_label_1
_geom_bond_atom_site_label_2
_geom_bond_distance
_geom_bond_site_symmetry_2
_ccdc_geom_bond_type
C0 C1 1.384 . S
C0 C2 1.384 . S
C0 H28 0.931 . S
C1 C0 1.384 . S
C1 C4 1.382 . S
C2 C0 1.384 . S
C2 C3 1.381 . S
C2 H29 0.930 . S
C3 C2 1.381 . S
C3 C5 1.381 . S
C3 C6 1.487 . S
C4 C1 1.382 . S
C4 C5 1.387 . S
C4 H30 0.930 . S
C5 C3 1.381 . S
C5 C4 1.387 . S
C5 H31 0.931 . S
C6 C3 1.487 . S
C6 C13 1.399 . S
C6 N44 1.343 . S
C7 C8 1.384 . S
C7 C9 1.384 . S
C7 H32 0.931 . S
C8 C7 1.384 . S
C8 C11 1.382 . S
C9 C7 1.384 . S
C9 C10 1.381 . S
C9 H33 0.930 . S
C10 C9 1.381 . S
C10 C12 1.381 . S
C10 C13 1.487 . S
C11 C8 1.382 . S
C11 C12 1.387 . S
C11 H34 0.930 . S
C12 C10 1.381 . S
C12 C11 1.387 . S
C12 H35 0.931 . S
C13 C6 1.399 . S
C13 C10 1.487 . S
C13 N45 1.343 . S
C14 C15 1.384 . S
C14 C16 1.384 . S
C14 H36 0.931 . S
C15 C14 1.384 . S
C15 C18 1.382 . S
C16 C14 1.384 . S
C16 C17 1.381 . S
C16 H37 0.930 . S
C17 C16 1.381 . S
C17 C19 1.381 . S
C17 C20 1.487 . S
C18 C15 1.382 . S
C18 C19 1.387 . S
C18 H38 0.930 . S
C19 C17 1.381 . S
C19 C18 1.387 . S
C19 H39 0.931 . S
C20 C17 1.487 . S
C20 C27 1.399 . S
C20 N45 1.343 . S
C21 C22 1.384 . S
C21 C23 1.384 . S
C21 H40 0.931 . S
C22 C21 1.384 . S
C22 C25 1.382 . S
C23 C21 1.384 . S
C23 C24 1.381 . S
C23 H41 0.930 . S
C24 C23 1.381 . S
C24 C26 1.381 . S
C24 C27 1.487 . S
C25 C22 1.382 . S
C25 C26 1.387 . S
C25 H42 0.930 . S
C26 C24 1.381 . S
C26 C25 1.387 . S
C26 H43 0.931 . S
C27 C20 1.399 . S
C27 C24 1.487 . S
C27 N44 1.343 . S
H28 C0 0.931 . S
H29 C2 0.930 . S
H30 C4 0.930 . S
H31 C5 0.931 . S
H32 C7 0.931 . S
H33 C9 0.930 . S
H34 C11 0.930 . S
H35 C12 0.931 . S
H36 C14 0.931 . S
H37 C16 0.930 . S
H38 C18 0.930 . S
H39 C19 0.931 . S
H40 C21 0.931 . S
H41 C23 0.930 . S
H42 C25 0.930 . S
H43 C26 0.931 . S
N44 C6 1.343 . S
N44 C27 1.343 . S
N45 C13 1.343 . S
N45 C20 1.343 . S
C46 C47 1.384 . S
C46 C48 1.384 . S
C46 H74 0.931 . S
C47 C46 1.384 . S
C47 C50 1.382 . S
C48 C46 1.384 . S
C48 C49 1.381 . S
C48 H75 0.930 . S
C49 C48 1.381 . S
C49 C51 1.381 . S
C49 C52 1.487 . S
C50 C47 1.382 . S
C50 C51 1.387 . S
C50 H76 0.930 . S
C51 C49 1.381 . S
C51 C50 1.387 . S
C51 H77 0.931 . S
C52 C49 1.487 . S
C52 C59 1.399 . S
C52 N90 1.343 . S
C53 C54 1.384 . S
C53 C55 1.384 . S
C53 H78 0.931 . S
C54 C53 1.384 . S
C54 C57 1.382 . S
C55 C53 1.384 . S
C55 C56 1.381 . S
C55 H79 0.930 . S
C56 C55 1.381 . S
C56 C58 1.381 . S
C56 C59 1.487 . S
C57 C54 1.382 . S
C57 C58 1.387 . S
C57 H80 0.930 . S
C58 C56 1.381 . S
C58 C57 1.387 . S
C58 H81 0.931 . S
C59 C52 1.399 . S
C59 C56 1.487 . S
C59 N91 1.343 . S
C60 C61 1.384 . S
C60 C62 1.384 . S
C60 H82 0.931 . S
C61 C60 1.384 . S
C61 C64 1.382 . S
C62 C60 1.384 . S
C62 C63 1.381 . S
C62 H83 0.930 . S
C63 C62 1.381 . S
C63 C65 1.381 . S
C63 C66 1.487 . S
C64 C61 1.382 . S
C64 C65 1.387 . S
C64 H84 0.930 . S
C65 C63 1.381 . S
C65 C64 1.387 . S
C65 H85 0.931 . S
C66 C63 1.487 . S
C66 C73 1.399 . S
C66 N91 1.343 . S
C67 C68 1.384 . S
C67 C69 1.384 . S
C67 H86 0.931 . S
C68 C67 1.384 . S
C68 C71 1.382 . S
C69 C67 1.384 . S
C69 C70 1.381 . S
C69 H87 0.930 . S
C70 C69 1.381 . S
C70 C72 1.381 . S
C70 C73 1.487 . S
C71 C68 1.382 . S
C71 C72 1.387 . S
C71 H88 0.930 . S
C72 C70 1.381 . S
C72 C71 1.387 . S
C72 H89 0.931 . S
C73 C66 1.399 . S
C73 C70 1.487 . S
C73 N90 1.343 . S
H74 C46 0.931 . S
H75 C48 0.930 . S
H76 C50 0.930 . S
H77 C51 0.931 . S
H78 C53 0.931 . S
H79 C55 0.930 . S
H80 C57 0.930 . S
H81 C58 0.931 . S
H82 C60 0.931 . S
H83 C62 0.930 . S
H84 C64 0.930 . S
H85 C65 0.931 . S
H86 C67 0.931 . S
H87 C69 0.930 . S
H88 C71 0.930 . S
H89 C72 0.931 . S
N90 C52 1.343 . S
N90 C73 1.343 . S
N91 C59 1.343 . S
N91 C66 1.343 . S
C92 C93 1.384 . S
C92 C94 1.384 . S
C92 H120 0.931 . S
C93 C92 1.384 . S
C93 C96 1.382 . S
C94 C92 1.384 . S
C94 C95 1.381 . S
C94 H121 0.930 . S
C95 C94 1.381 . S
C95 C97 1.381 . S
C95 C98 1.487 . S
C96 C93 1.382 . S
C96 C97 1.387 . S
C96 H122 0.930 . S
C97 C95 1.381 . S
C97 C96 1.387 . S
C97 H123 0.931 . S
C98 C95 1.487 . S
C98 C105 1.399 . S
C98 N136 1.343 . S
C99 C100 1.384 . S
C99 C101 1.384 . S
C99 H124 0.931 . S
C100 C99 1.384 . S
C100 C103 1.382 . S
C101 C99 1.384 . S
C101 C102 1.381 . S
C101 H125 0.930 . S
C102 C101 1.381 . S
C102 C104 1.381 . S
C102 C105 1.487 . S
C103 C100 1.382 . S
C103 C104 1.387 . S
C103 H126 0.930 . S
C104 C102 1.381 . S
C104 C103 1.387 . S
C104 H127 0.931 . S
C105 C98 1.399 . S
C105 C102 1.487 . S
C105 N137 1.343 . S
C106 C107 1.384 . S
C106 C108 1.384 . S
C106 H128 0.931 . S
C107 C106 1.384 . S
C107 C110 1.382 . S
C108 C106 1.384 . S
C108 C109 1.381 . S
C108 H129 0.930 . S
C109 C108 1.381 . S
C109 C111 1.381 . S
C109 C112 1.487 . S
C110 C107 1.382 . S
C110 C111 1.387 . S
C110 H130 0.930 . S
C111 C109 1.381 . S
C111 C110 1.387 . S
C111 H131 0.931 . S
C112 C109 1.487 . S
C112 C119 1.399 . S
C112 N137 1.343 . S
C113 C114 1.384 . S
C113 C115 1.384 . S
C113 H132 0.931 . S
C114 C113 1.384 . S
C114 C117 1.382 . S
C115 C113 1.384 . S
C115 C116 1.381 . S
C115 H133 0.930 . S
C116 C115 1.381 . S
C116 C118 1.381 . S
C116 C119 1.487 . S
C117 C114 1.382 . S
C117 C118 1.387 . S
C117 H134 0.930 . S
C118 C116 1.381 . S
C118 C117 1.387 . S
C118 H135 0.931 . S
C119 C112 1.399 . S
C119 C116 1.487 . S
C119 N136 1.343 . S
H120 C92 0.931 . S
H121 C94 0.930 . S
H122 C96 0.930 . S
H123 C97 0.931 . S
H124 C99 0.931 . S
H125 C101 0.930 . S
H126 C103 0.930 . S
H127 C104 0.931 . S
H128 C106 0.931 . S
H129 C108 0.930 . S
H130 C110 0.930 . S
H131 C111 0.931 . S
H132 C113 0.931 . S
H133 C115 0.930 . S
H134 C117 0.930 . S
H135 C118 0.931 . S
N136 C98 1.343 . S
N136 C119 1.343 . S
N137 C105 1.343 . S
N137 C112 1.343 . S
C138 C139 1.384 . S
C138 C140 1.384 . S
C138 H166 0.931 . S
C139 C138 1.384 . S
C139 C142 1.382 . S
C140 C138 1.384 . S
C140 C141 1.381 . S
C140 H167 0.930 . S
C141 C140 1.381 . S
C141 C143 1.381 . S
C141 C144 1.487 . S
C142 C139 1.382 . S
C142 C143 1.387 . S
C142 H168 0.930 . S
C143 C141 1.381 . S
C143 C142 1.387 . S
C143 H169 0.931 . S
C144 C141 1.487 . S
C144 C151 1.399 . S
C144 N182 1.343 . S
C145 C146 1.384 . S
C145 C147 1.384 . S
C145 H170 0.931 . S
C146 C145 1.384 . S
C146 C149 1.382 . S
C147 C145 1.384 . S
C147 C148 1.381 . S
C147 H171 0.930 . S
C148 C147 1.381 . S
C148 C150 1.381 . S
C148 C151 1.487 . S
C149 C146 1.382 . S
C149 C150 1.387 . S
C149 H172 0.930 . S
C150 C148 1.381 . S
C150 C149 1.387 . S
C150 H173 0.931 . S
C151 C144 1.399 . S
C151 C148 1.487 . S
C151 N183 1.343 . S
C152 C153 1.384 . S
C152 C154 1.384 . S
C152 H174 0.931 . S
C153 C152 1.384 . S
C153 C156 1.382 . S
C154 C152 1.384 . S
C154 C155 1.381 . S
C154 H175 0.930 . S
C155 C154 1.381 . S
C155 C157 1.381 . S
C155 C158 1.487 . S
C156 C153 1.382 . S
C156 C157 1.387 . S
C156 H176 0.930 . S
C157 C155 1.381 . S
C157 C156 1.387 . S
C157 H177 0.931 . S
C158 C155 1.487 . S
C158 C165 1.399 . S
C158 N183 1.343 . S
C159 C160 1.384 . S
C159 C161 1.384 . S
C159 H178 0.931 . S
C160 C159 1.384 . S
C160 C163 1.382 . S
C161 C159 1.384 . S
C161 C162 1.381 . S
C161 H179 0.930 . S
C162 C161 1.381 . S
C162 C164 1.381 . S
C162 C165 1.487 . S
C163 C160 1.382 . S
C163 C164 1.387 . S
C163 H180 0.930 . S
C164 C162 1.381 . S
C164 C163 1.387 . S
C164 H181 0.931 . S
C165 C158 1.399 . S
C165 C162 1.487 . S
C165 N182 1.343 . S
H166 C138 0.931 . S
H167 C140 0.930 . S
H168 C142 0.930 . S
H169 C143 0.931 . S
H170 C145 0.931 . S
H171 C147 0.930 . S
H172 C149 0.930 . S
H173 C150 0.931 . S
H174 C152 0.931 . S
H175 C154 0.930 . S
H176 C156 0.930 . S
H177 C157 0.931 . S
H178 C159 0.931 . S
H179 C161 0.930 . S
H180 C163 0.930 . S
H181 C164 0.931 . S
N182 C144 1.343 . S
N182 C165 1.343 . S
N183 C151 1.343 . S
N183 C158 1.343 . S
C184 C185 1.384 . S
C184 C186 1.384 . S
C184 H212 0.931 . S
C185 C184 1.384 . S
C185 C188 1.382 . S
C186 C184 1.384 . S
C186 C187 1.381 . S
C186 H213 0.930 . S
C187 C186 1.381 . S
C187 C189 1.381 . S
C187 C190 1.487 . S
C188 C185 1.382 . S
C188 C189 1.387 . S
C188 H214 0.930 . S
C189 C187 1.381 . S
C189 C188 1.387 . S
C189 H215 0.931 . S
C190 C187 1.487 . S
C190 C197 1.399 . S
C190 N228 1.343 . S
C191 C192 1.384 . S
C191 C193 1.384 . S
C191 H216 0.931 . S
C192 C191 1.384 . S
C192 C195 1.382 . S
C193 C191 1.384 . S
C193 C194 1.381 . S
C193 H217 0.930 . S
C194 C193 1.381 . S
C194 C196 1.381 . S
C194 C197 1.487 . S
C195 C192 1.382 . S
C195 C196 1.387 . S
C195 H218 0.930 . S
C196 C194 1.381 . S
C196 C195 1.387 . S
C196 H219 0.931 . S
C197 C190 1.399 . S
C197 C194 1.487 . S
C197 N229 1.343 . S
C198 C199 1.384 . S
C198 C200 1.384 . S
C198 H220 0.931 . S
C199 C198 1.384 . S
C199 C202 1.382 . S
C200 C198 1.384 . S
C200 C201 1.381 . S
C200 H221 0.930 . S
C201 C200 1.381 . S
C201 C203 1.381 . S
C201 C204 1.487 . S
C202 C199 1.382 . S
C202 C203 1.387 . S
C202 H222 0.930 . S
C203 C201 1.381 . S
C203 C202 1.387 . S
C203 H223 0.931 . S
C204 C201 1.487 . S
C204 C211 1.399 . S
C204 N229 1.343 . S
C205 C206 1.384 . S
C205 C207 1.384 . S
C205 H224 0.931 . S
C206 C205 1.384 . S
C206 C209 1.382 . S
C207 C205 1.384 . S
C207 C208 1.381 . S
C207 H225 0.930 . S
C208 C207 1.381 . S
C208 C210 1.381 . S
C208 C211 1.487 . S
C209 C206 1.382 . S
C209 C210 1.387 . S
C209 H226 0.930 . S
C210 C208 1.381 . S
C210 C209 1.387 . S
C210 H227 0.931 . S
C211 C204 1.399 . S
C211 C208 1.487 . S
C211 N228 1.343 . S
H212 C184 0.931 . S
H213 C186 0.930 . S
H214 C188 0.930 . S
H215 C189 0.931 . S
H216 C191 0.931 . S
H217 C193 0.930 . S
H218 C195 0.930 . S
H219 C196 0.931 . S
H220 C198 0.931 . S
H221 C200 0.930 . S
H222 C202 0.930 . S
H223 C203 0.931 . S
H224 C205 0.931 . S
H225 C207 0.930 . S
H226 C209 0.930 . S
H227 C210 0.931 . S
N228 C190 1.343 . S
N228 C211 1.343 . S
N229 C197 1.343 . S
N229 C204 1.343 . S
C230 C231 1.384 . S
C230 C232 1.384 . S
C230 H258 0.931 . S
C231 C230 1.384 . S
C231 C234 1.382 . S
C232 C230 1.384 . S
C232 C233 1.381 . S
C232 H259 0.930 . S
C233 C232 1.381 . S
C233 C235 1.381 . S
C233 C236 1.487 . S
C234 C231 1.382 . S
C234 C235 1.387 . S
C234 H260 0.930 . S
C235 C233 1.381 . S
C235 C234 1.387 . S
C235 H261 0.931 . S
C236 C233 1.487 . S
C236 C243 1.399 . S
C236 N274 1.343 . S
C237 C238 1.384 . S
C237 C239 1.384 . S
C237 H262 0.931 . S
C238 C237 1.384 . S
C238 C241 1.382 . S
C239 C237 1.384 . S
C239 C240 1.381 . S
C239 H263 0.930 . S
C240 C239 1.381 . S
C240 C242 1.381 . S
C240 C243 1.487 . S
C241 C238 1.382 . S
C241 C242 1.387 . S
C241 H264 0.930 . S
C242 C240 1.381 . S
C242 C241 1.387 . S
C242 H265 0.931 . S
C243 C236 1.399 . S
C243 C240 1.487 . S
C243 N275 1.343 . S
C244 C245 1.384 . S
C244 C246 1.384 . S
C244 H266 0.931 . S
C245 C244 1.384 . S
C245 C248 1.382 . S
C246 C244 1.384 . S
C246 C247 1.381 . S
C246 H267 0.930 . S
C247 C246 1.381 . S
C247 C249 1.381 . S
C247 C250 1.487 . S
C248 C245 1.382 . S
C248 C249 1.387 . S
C248 H268 0.930 . S
C249 C247 1.381 . S
C249 C248 1.387 . S
C249 H269 0.931 . S
C250 C247 1.487 . S
C250 C257 1.399 . S
C250 N275 1.343 . S
C251 C252 1.384 . S
C251 C253 1.384 . S
C251 H270 0.931 . S
C252 C251 1.384 . S
C252 C255 1.382 . S
C253 C251 1.384 . S
C253 C254 1.381 . S
C253 H271 0.930 . S
C254 C253 1.381 . S
C254 C256 1.381 . S
C254 C257 1.487 . S
C255 C252 1.382 . S
C255 C256 1.387 . S
C255 H272 0.930 . S
C256 C254 1.381 . S
C256 C255 1.387 . S
C256 H273 0.931 . S
C257 C250 1.399 . S
C257 C254 1.487 . S
C257 N274 1.343 . S
H258 C230 0.931 . S
H259 C232 0.930 . S
H260 C234 0.930 . S
H261 C235 0.931 . S
H262 C237 0.931 . S
H263 C239 0.930 . S
H264 C241 0.930 . S
H265 C242 0.931 . S
H266 C244 0.931 . S
H267 C246 0.930 . S
H268 C248 0.930 . S
H269 C249 0.931 . S
H270 C251 0.931 . S
H271 C253 0.930 . S
H272 C255 0.930 . S
H273 C256 0.931 . S
N274 C236 1.343 . S
N274 C257 1.343 . S
N275 C243 1.343 . S
N275 C250 1.343 . S
C276 C277 1.384 . S
C276 C278 1.384 . S
C276 H304 0.931 . S
C277 C276 1.384 . S
C277 C280 1.382 . S
C278 C276 1.384 . S
C278 C279 1.381 . S
C278 H305 0.930 . S
C279 C278 1.381 . S
C279 C281 1.381 . S
C279 C282 1.487 . S
C280 C277 1.382 . S
C280 C281 1.387 . S
C280 H306 0.930 . S
C281 C279 1.381 . S
C281 C280 1.387 . S
C281 H307 0.931 . S
C282 C279 1.487 . S
C282 C289 1.399 . S
C282 N320 1.343 . S
C283 C284 1.384 . S
C283 C285 1.384 . S
C283 H308 0.931 . S
C284 C283 1.384 . S
C284 C287 1.382 . S
C285 C283 1.384 . S
C285 C286 1.381 . S
C285 H309 0.930 . S
C286 C285 1.381 . S
C286 C288 1.381 . S
C286 C289 1.487 . S
C287 C284 1.382 . S
C287 C288 1.387 . S
C287 H310 0.930 . S
C288 C286 1.381 . S
C288 C287 1.387 . S
C288 H311 0.931 . S
C289 C282 1.399 . S
C289 C286 1.487 . S
C289 N321 1.343 . S
C290 C291 1.384 . S
C290 C292 1.384 . S
C290 H312 0.931 . S
C291 C290 1.384 . S
C291 C294 1.382 . S
C292 C290 1.384 . S
C292 C293 1.381 . S
C292 H313 0.930 . S
C293 C292 1.381 . S
C293 C295 1.381 . S
C293 C296 1.487 . S
C294 C291 1.382 . S
C294 C295 1.387 . S
C294 H314 0.930 . S
C295 C293 1.381 . S
C295 C294 1.387 . S
C295 H315 0.931 . S
C296 C293 1.487 . S
C296 C303 1.399 . S
C296 N321 1.343 . S
C297 C298 1.384 . S
C297 C299 1.384 . S
C297 H316 0.931 . S
C298 C297 1.384 . S
C298 C301 1.382 . S
C299 C297 1.384 . S
C299 C300 1.381 . S
C299 H317 0.930 . S
C300 C299 1.381 . S
C300 C302 1.381 . S
C300 C303 1.487 . S
C301 C298 1.382 . S
C301 C302 1.387 . S
C301 H318 0.930 . S
C302 C300 1.381 . S
C302 C301 1.387 . S
C302 H319 0.931 . S
C303 C296 1.399 . S
C303 C300 1.487 . S
C303 N320 1.343 . S
H304 C276 0.931 . S
H305 C278 0.930 . S
H306 C280 0.930 . S
H307 C281 0.931 . S
H308 C283 0.931 . S
H309 C285 0.930 . S
H310 C287 0.930 . S
H311 C288 0.931 . S
H312 C290 0.931 . S
H313 C292 0.930 . S
H314 C294 0.930 . S
H315 C295 0.931 . S
H316 C297 0.931 . S
H317 C299 0.930 . S
H318 C301 0.930 . S
H319 C302 0.931 . S
N320 C282 1.343 . S
N320 C303 1.343 . S
N321 C289 1.343 . S
N321 C296 1.343 . S
C322 C323 1.384 . S
C322 C324 1.384 . S
C322 H350 0.931 . S
C323 C322 1.384 . S
C323 C326 1.382 . S
C324 C322 1.384 . S
C324 C325 1.381 . S
C324 H351 0.930 . S
C325 C324 1.381 . S
C325 C327 1.381 . S
C325 C328 1.487 . S
C326 C323 1.382 . S
C326 C327 1.387 . S
C326 H352 0.930 . S
C327 C325 1.381 . S
C327 C326 1.387 . S
C327 H353 0.931 . S
C328 C325 1.487 . S
C328 C335 1.399 . S
C328 N366 1.343 . S
C329 C330 1.384 . S
C329 C331 1.384 . S
C329 H354 0.931 . S
C330 C329 1.384 . S
C330 C333 1.382 . S
C331 C329 1.384 . S
C331 C332 1.381 . S
C331 H355 0.930 . S
C332 C331 1.381 . S
C332 C334 1.381 . S
C332 C335 1.487 . S
C333 C330 1.382 . S
C333 C334 1.387 . S
C333 H356 0.930 . S
C334 C332 1.381 . S
C334 C333 1.387 . S
C334 H357 0.931 . S
C335 C328 1.399 . S
C335 C332 1.487 . S
C335 N367 1.343 . S
C336 C337 1.384 . S
C336 C338 1.384 . S
C336 H358 0.931 . S
C337 C336 1.384 . S
C337 C340 1.382 . S
C338 C336 1.384 . S
C338 C339 1.381 . S
C338 H359 0.930 . S
C339 C338 1.381 . S
C339 C341 1.381 . S
C339 C342 1.487 . S
C340 C337 1.382 . S
C340 C341 1.387 . S
C340 H360 0.930 . S
C341 C339 1.381 . S
C341 C340 1.387 . S
C341 H361 0.931 . S
C342 C339 1.487 . S
C342 C349 1.399 . S
C342 N367 1.343 . S
C343 C344 1.384 . S
C343 C345 1.384 . S
C343 H362 0.931 . S
C344 C343 1.384 . S
C344 C347 1.382 . S
C345 C343 1.384 . S
C345 C346 1.381 . S
C345 H363 0.930 . S
C346 C345 1.381 . S
C346 C348 1.381 . S
C346 C349 1.487 . S
C347 C344 1.382 . S
C347 C348 1.387 . S
C347 H364 0.930 . S
C348 C346 1.381 . S
C348 C347 1.387 . S
C348 H365 0.931 . S
C349 C342 1.399 . S
C349 C346 1.487 . S
C349 N366 1.343 . S
H350 C322 0.931 . S
H351 C324 0.930 . S
H352 C326 0.930 . S
H353 C327 0.931 . S
H354 C329 0.931 . S
H355 C331 0.930 . S
H356 C333 0.930 . S
H357 C334 0.931 . S
H358 C336 0.931 . S
H359 C338 0.930 . S
H360 C340 0.930 . S
H361 C341 0.931 . S
H362 C343 0.931 . S
H363 C345 0.930 . S
H364 C347 0.930 . S
H365 C348 0.931 . S
N366 C328 1.343 . S
N366 C349 1.343 . S
N367 C335 1.343 . S
N367 C342 1.343 . S
C368 C369 1.443 . S
C368 N372 1.376 . S
C368 C406 1.389 . S
C369 C368 1.443 . S
C369 C370 1.340 . S
C369 H409 0.951 . S
C370 C369 1.340 . S
C370 C371 1.439 . S
C370 H410 0.950 . S
C371 C370 1.439 . S
C371 N372 1.374 . S
C371 C405 1.395 . S
N372 C368 1.376 . S
N372 C371 1.374 . S
N372 Co373 2.008 . S
Co373 N372 2.008 . S
Co373 N374 1.995 1_455 S
Co373 N379 2.008 1_455 S
Co373 N384 1.995 . S
Co373 N389 2.282 1_455 S
Co373 N395 2.282 . S
N374 Co373 1.995 1_655 S
N374 C375 1.376 . S
N374 C378 1.383 . S
C375 N374 1.376 . S
C375 C376 1.446 . S
C375 C405 1.391 1_655 S
C376 C375 1.446 . S
C376 C377 1.339 . S
C376 H411 0.949 . S
C377 C376 1.339 . S
C377 C378 1.439 . S
C377 H412 0.950 . S
C378 N374 1.383 . S
C378 C377 1.439 . S
C378 C407 1.392 . S
N379 Co373 2.008 1_655 S
N379 C380 1.376 . S
N379 C383 1.374 . S
C380 N379 1.376 . S
C380 C381 1.443 . S
C380 C407 1.389 . S
C381 C380 1.443 . S
C381 C382 1.340 . S
C381 H413 0.951 . S
C382 C381 1.340 . S
C382 C383 1.439 . S
C382 H414 0.950 . S
C383 N379 1.374 . S
C383 C382 1.439 . S
C383 C408 1.423 . S
N384 Co373 1.995 . S
N384 C385 1.376 . S
N384 C388 1.383 . S
C385 N384 1.376 . S
C385 C386 1.446 . S
C385 C408 1.361 1_455 S
C386 C385 1.446 . S
C386 C387 1.339 . S
C386 H415 0.949 . S
C387 C386 1.339 . S
C387 C388 1.439 . S
C387 H416 0.950 . S
C388 N384 1.383 . S
C388 C387 1.439 . S
C388 C406 1.392 . S
N389 Co373 2.282 1_655 S
N389 C392 1.332 . S
N389 C394 1.332 . S
C390 C391 1.386 . S
C390 C393 1.388 . S
C391 C390 1.386 . S
C391 C392 1.382 . S
C391 H417 0.950 . S
C392 N389 1.332 . S
C392 C391 1.382 . S
C392 H403 0.952 . S
C393 C390 1.388 . S
C393 C394 1.382 . S
C393 H418 0.950 . S
C394 N389 1.332 . S
C394 C393 1.382 . S
C394 H404 0.948 . S
N395 Co373 2.282 . S
N395 C399 1.332 . S
N395 C400 1.332 . S
C396 C397 1.388 . S
C396 C400 1.382 . S
C396 H419 0.950 . S
C397 C396 1.388 . S
C397 C398 1.386 . S
C398 C397 1.386 . S
C398 C399 1.382 . S
C398 H420 0.950 . S
C399 N395 1.332 . S
C399 C398 1.382 . S
C399 H401 0.952 . S
C400 N395 1.332 . S
C400 C396 1.382 . S
C400 H402 0.948 . S
H401 C399 0.952 . S
H402 C400 0.948 . S
H403 C392 0.952 . S
H404 C394 0.948 . S
C405 C371 1.395 . S
C405 C375 1.391 1_455 S
C406 C368 1.389 . S
C406 C388 1.392 . S
C407 C378 1.392 . S
C407 C380 1.389 . S
C408 C383 1.423 . S
C408 C385 1.361 1_655 S
H409 C369 0.951 . S
H410 C370 0.950 . S
H411 C376 0.949 . S
H412 C377 0.950 . S
H413 C381 0.951 . S
H414 C382 0.950 . S
H415 C386 0.949 . S
H416 C387 0.950 . S
H417 C391 0.950 . S
H418 C393 0.950 . S
H419 C396 0.950 . S
H420 C398 0.950 . S
C421 C422 1.443 . S
C421 N425 1.376 . S
C421 C459 1.389 . S
C422 C421 1.443 . S
C422 C423 1.340 . S
C422 H462 0.951 . S
C423 C422 1.340 . S
C423 C424 1.439 . S
C423 H463 0.950 . S
C424 C423 1.439 . S
C424 N425 1.374 . S
C424 C458 1.395 . S
N425 C421 1.376 . S
N425 C424 1.374 . S
N425 Co426 2.008 . S
Co426 N425 2.008 . S
Co426 N427 1.995 1_545 S
Co426 N432 2.008 1_545 S
Co426 N437 1.995 . S
Co426 N442 2.282 1_545 S
Co426 N448 2.282 . S
N427 Co426 1.995 1_565 S
N427 C428 1.376 . S
N427 C431 1.383 . S
C428 N427 1.376 . S
C428 C429 1.446 . S
C428 C458 1.391 1_565 S
C429 C428 1.446 . S
C429 C430 1.339 . S
C429 H464 0.949 . S
C430 C429 1.339 . S
C430 C431 1.439 . S
C430 H465 0.950 . S
C431 N427 1.383 . S
C431 C430 1.439 . S
C431 C460 1.392 . S
N432 Co426 2.008 1_565 S
N432 C433 1.376 . S
N432 C436 1.374 . S
C433 N432 1.376 . S
C433 C434 1.443 . S
C433 C460 1.389 . S
C434 C433 1.443 . S
C434 C435 1.340 . S
C434 H466 0.951 . S
C435 C434 1.340 . S
C435 C436 1.439 . S
C435 H467 0.950 . S
C436 N432 1.374 . S
C436 C435 1.439 . S
C436 C461 1.406 . S
N437 Co426 1.995 . S
N437 C438 1.376 . S
N437 C441 1.383 . S
C438 N437 1.376 . S
C438 C439 1.446 . S
C438 C461 1.380 1_545 S
C439 C438 1.446 . S
C439 C440 1.339 . S
C439 H468 0.949 . S
C440 C439 1.339 . S
C440 C441 1.439 . S
C440 H469 0.950 . S
C441 N437 1.383 . S
C441 C440 1.439 . S
C441 C459 1.392 . S
N442 Co426 2.282 1_565 S
N442 C445 1.332 . S
N442 C447 1.332 . S
C443 C444 1.386 . S
C443 C446 1.388 . S
C444 C443 1.386 . S
C444 C445 1.382 . S
C444 H470 0.950 . S
C445 N442 1.332 . S
C445 C444 1.382 . S
C445 H456 0.952 . S
C446 C443 1.388 . S
C446 C447 1.382 . S
C446 H471 0.950 . S
C447 N442 1.332 . S
C447 C446 1.382 . S
C447 H457 0.948 . S
N448 Co426 2.282 . S
N448 C452 1.332 . S
N448 C453 1.332 . S
C449 C450 1.388 . S
C449 C453 1.382 . S
C449 H472 0.950 . S
C450 C449 1.388 . S
C450 C451 1.386 . S
C451 C450 1.386 . S
C451 C452 1.382 . S
C451 H473 0.950 . S
C452 N448 1.332 . S
C452 C451 1.382 . S
C452 H454 0.952 . S
C453 N448 1.332 . S
C453 C449 1.382 . S
C453 H455 0.948 . S
H454 C452 0.952 . S
H455 C453 0.948 . S
H456 C445 0.952 . S
H457 C447 0.948 . S
C458 C424 1.395 . S
C458 C428 1.391 1_545 S
C459 C421 1.389 . S
C459 C441 1.392 . S
C460 C431 1.392 . S
C460 C433 1.389 . S
C461 C436 1.406 . S
C461 C438 1.380 1_565 S
H462 C422 0.951 . S
H463 C423 0.950 . S
H464 C429 0.949 . S
H465 C430 0.950 . S
H466 C434 0.951 . S
H467 C435 0.950 . S
H468 C439 0.949 . S
H469 C440 0.950 . S
H470 C444 0.950 . S
H471 C446 0.950 . S
H472 C449 0.950 . S
H473 C451 0.950 . S
C474 C475 1.443 . S
C474 N478 1.376 . S
C474 C512 1.389 . S
C475 C474 1.443 . S
C475 C476 1.340 . S
C475 H515 0.951 . S
C476 C475 1.340 . S
C476 C477 1.439 . S
C476 H516 0.950 . S
C477 C476 1.439 . S
C477 N478 1.374 . S
C477 C511 1.395 . S
N478 C474 1.376 . S
N478 C477 1.374 . S
N478 Co479 2.008 . S
Co479 N478 2.008 . S
Co479 N480 1.995 1_455 S
Co479 N485 2.008 1_455 S
Co479 N490 1.995 . S
Co479 N495 2.282 1_455 S
Co479 N501 2.282 . S
N480 Co479 1.995 1_655 S
N480 C481 1.376 . S
N480 C484 1.383 . S
C481 N480 1.376 . S
C481 C482 1.446 . S
C481 C511 1.391 1_655 S
C482 C481 1.446 . S
C482 C483 1.339 . S
C482 H517 0.949 . S
C483 C482 1.339 . S
C483 C484 1.439 . S
C483 H518 0.950 . S
C484 N480 1.383 . S
C484 C483 1.439 . S
C484 C513 1.392 . S
N485 Co479 2.008 1_655 S
N485 C486 1.376 . S
N485 C489 1.374 . S
C486 N485 1.376 . S
C486 C487 1.443 . S
C486 C513 1.389 . S
C487 C486 1.443 . S
C487 C488 1.340 . S
C487 H519 0.951 . S
C488 C487 1.340 . S
C488 C489 1.439 . S
C488 H520 0.950 . S
C489 N485 1.374 . S
C489 C488 1.439 . S
C489 C514 1.395 . S
N490 Co479 1.995 . S
N490 C491 1.376 . S
N490 C494 1.383 . S
C491 N490 1.376 . S
C491 C492 1.446 . S
C491 C514 1.391 1_455 S
C492 C491 1.446 . S
C492 C493 1.339 . S
C492 H521 0.949 . S
C493 C492 1.339 . S
C493 C494 1.439 . S
C493 H522 0.950 . S
C494 N490 1.383 . S
C494 C493 1.439 . S
C494 C512 1.392 . S
N495 Co479 2.282 1_655 S
N495 C498 1.332 . S
N495 C500 1.332 . S
C496 C497 1.386 . S
C496 C499 1.388 . S
C497 C496 1.386 . S
C497 C498 1.382 . S
C497 H523 0.950 . S
C498 N495 1.332 . S
C498 C497 1.382 . S
C498 H509 0.952 . S
C499 C496 1.388 . S
C499 C500 1.382 . S
C499 H524 0.950 . S
C500 N495 1.332 . S
C500 C499 1.382 . S
C500 H510 0.948 . S
N501 Co479 2.282 . S
N501 C505 1.332 . S
N501 C506 1.332 . S
C502 C503 1.388 . S
C502 C506 1.382 . S
C502 H525 0.950 . S
C503 C502 1.388 . S
C503 C504 1.386 . S
C504 C503 1.386 . S
C504 C505 1.382 . S
C504 H526 0.950 . S
C505 N501 1.332 . S
C505 C504 1.382 . S
C505 H507 0.952 . S
C506 N501 1.332 . S
C506 C502 1.382 . S
C506 H508 0.948 . S
H507 C505 0.952 . S
H508 C506 0.948 . S
H509 C498 0.952 . S
H510 C500 0.948 . S
C511 C477 1.395 . S
C511 C481 1.391 1_455 S
C512 C474 1.389 . S
C512 C494 1.392 . S
C513 C484 1.392 . S
C513 C486 1.389 . S
C514 C489 1.395 . S
C514 C491 1.391 1_655 S
H515 C475 0.951 . S
H516 C476 0.950 . S
H517 C482 0.949 . S
H518 C483 0.950 . S
H519 C487 0.951 . S
H520 C488 0.950 . S
H521 C492 0.949 . S
H522 C493 0.950 . S
H523 C497 0.950 . S
H524 C499 0.950 . S
H525 C502 0.950 . S
H526 C504 0.950 . S
C527 C528 1.443 . S
C527 N531 1.376 . S
C527 C565 1.389 . S
C528 C527 1.443 . S
C528 C529 1.340 . S
C528 H568 0.951 . S
C529 C528 1.340 . S
C529 C530 1.439 . S
C529 H569 0.950 . S
C530 C529 1.439 . S
C530 N531 1.374 . S
C530 C564 1.407 . S
N531 C527 1.376 . S
N531 C530 1.374 . S
N531 Co532 2.008 1_565 S
Co532 N531 2.008 1_545 S
Co532 N533 1.995 . S
Co532 N538 2.008 . S
Co532 N543 1.995 1_545 S
Co532 N548 2.282 . S
Co532 N554 2.282 1_545 S
N533 Co532 1.995 . S
N533 C534 1.376 . S
N533 C537 1.383 . S
C534 N533 1.376 . S
C534 C535 1.446 . S
C534 C564 1.378 1_545 S
C535 C534 1.446 . S
C535 C536 1.339 . S
C535 H570 0.949 . S
C536 C535 1.339 . S
C536 C537 1.439 . S
C536 H571 0.950 . S
C537 N533 1.383 . S
C537 C536 1.439 . S
C537 C566 1.392 . S
N538 Co532 2.008 . S
N538 C539 1.376 . S
N538 C542 1.374 . S
C539 N538 1.376 . S
C539 C540 1.443 . S
C539 C566 1.389 . S
C540 C539 1.443 . S
C540 C541 1.340 . S
C540 H572 0.951 . S
C541 C540 1.340 . S
C541 C542 1.439 . S
C541 H573 0.950 . S
C542 N538 1.374 . S
C542 C541 1.439 . S
C542 C567 1.395 . S
N543 Co532 1.995 1_565 S
N543 C544 1.376 . S
N543 C547 1.383 . S
C544 N543 1.376 . S
C544 C545 1.446 . S
C544 C567 1.391 1_565 S
C545 C544 1.446 . S
C545 C546 1.339 . S
C545 H574 0.949 . S
C546 C545 1.339 . S
C546 C547 1.439 . S
C546 H575 0.950 . S
C547 N543 1.383 . S
C547 C546 1.439 . S
C547 C565 1.392 . S
N548 Co532 2.282 . S
N548 C551 1.332 . S
N548 C553 1.332 . S
C549 C550 1.386 . S
C549 C552 1.388 . S
C550 C549 1.386 . S
C550 C551 1.382 . S
C550 H576 0.950 . S
C551 N548 1.332 . S
C551 C550 1.382 . S
C551 H562 0.952 . S
C552 C549 1.388 . S
C552 C553 1.382 . S
C552 H577 0.950 . S
C553 N548 1.332 . S
C553 C552 1.382 . S
C553 H563 0.948 . S
N554 Co532 2.282 1_565 S
N554 C558 1.332 . S
N554 C559 1.332 . S
C555 C556 1.388 . S
C555 C559 1.382 . S
C555 H578 0.950 . S
C556 C555 1.388 . S
C556 C557 1.386 . S
C557 C556 1.386 . S
C557 C558 1.382 . S
C557 H579 0.950 . S
C558 N554 1.332 . S
C558 C557 1.382 . S
C558 H560 0.952 . S
C559 N554 1.332 . S
C559 C555 1.382 . S
C559 H561 0.948 . S
H560 C558 0.952 . S
H561 C559 0.948 . S
H562 C551 0.952 . S
H563 C553 0.948 . S
C564 C530 1.407 . S
C564 C534 1.378 1_565 S
C565 C527 1.389 . S
C565 C547 1.392 . S
C566 C537 1.392 . S
C566 C539 1.389 . S
C567 C542 1.395 . S
C567 C544 1.391 1_545 S
H568 C528 0.951 . S
H569 C529 0.950 . S
H570 C535 0.949 . S
H571 C536 0.950 . S
H572 C540 0.951 . S
H573 C541 0.950 . S
H574 C545 0.949 . S
H575 C546 0.950 . S
H576 C550 0.950 . S
H577 C552 0.950 . S
H578 C555 0.950 . S
H579 C557 0.950 . S
C580 C581 1.443 . S
C580 N584 1.376 . S
C580 C618 1.389 . S
C581 C580 1.443 . S
C581 C582 1.340 . S
C581 H621 0.951 . S
C582 C581 1.340 . S
C582 C583 1.439 . S
C582 H622 0.950 . S
C583 C582 1.439 . S
C583 N584 1.374 . S
C583 C617 1.395 1_554 S
N584 C580 1.376 . S
N584 C583 1.374 . S
N584 Co585 2.015 . S
Co585 N584 2.015 . S
Co585 N586 1.987 1_554 S
Co585 N591 2.002 1_554 S
Co585 N596 2.003 . S
Co585 N601 2.295 . S
Co585 N607 2.270 1_554 S
N586 Co585 1.987 1_556 S
N586 C587 1.376 . S
N586 C590 1.383 . S
C587 N586 1.376 . S
C587 C588 1.446 . S
C587 C617 1.391 . S
C588 C587 1.446 . S
C588 C589 1.339 . S
C588 H623 0.949 . S
C589 C588 1.339 . S
C589 C590 1.439 . S
C589 H624 0.950 . S
C590 N586 1.383 . S
C590 C589 1.439 . S
C590 C619 1.392 . S
N591 Co585 2.002 1_556 S
N591 C592 1.376 . S
N591 C595 1.374 . S
C592 N591 1.376 . S
C592 C593 1.443 . S
C592 C619 1.389 . S
C593 C592 1.443 . S
C593 C594 1.340 . S
C593 H625 0.951 . S
C594 C593 1.340 . S
C594 C595 1.439 . S
C594 H626 0.950 . S
C595 N591 1.374 . S
C595 C594 1.439 . S
C595 C620 1.395 1_556 S
N596 Co585 2.003 . S
N596 C597 1.376 . S
N596 C600 1.383 . S
C597 N596 1.376 . S
C597 C598 1.446 . S
C597 C620 1.391 . S
C598 C597 1.446 . S
C598 C599 1.339 . S
C598 H627 0.949 . S
C599 C598 1.339 . S
C599 C600 1.439 . S
C599 H628 0.950 . S
C600 N596 1.383 . S
C600 C599 1.439 . S
C600 C618 1.392 . S
N601 Co585 2.295 . S
N601 C604 1.332 . S
N601 C606 1.332 . S
C602 C603 1.386 . S
C602 C605 1.388 . S
C603 C602 1.386 . S
C603 C604 1.382 . S
C603 H629 0.950 . S
C604 N601 1.332 . S
C604 C603 1.382 . S
C604 H615 0.952 . S
C605 C602 1.388 . S
C605 C606 1.382 . S
C605 H630 0.950 . S
C606 N601 1.332 . S
C606 C605 1.382 . S
C606 H616 0.948 . S
N607 Co585 2.270 1_556 S
N607 C611 1.332 . S
N607 C612 1.332 . S
C608 C609 1.388 . S
C608 C612 1.382 . S
C608 H631 0.950 . S
C609 C608 1.388 . S
C609 C610 1.386 . S
C610 C609 1.386 . S
C610 C611 1.382 . S
C610 H632 0.950 . S
C611 N607 1.332 . S
C611 C610 1.382 . S
C611 H613 0.952 . S
C612 N607 1.332 . S
C612 C608 1.382 . S
C612 H614 0.948 . S
H613 C611 0.952 . S
H614 C612 0.948 . S
H615 C604 0.952 . S
H616 C606 0.948 . S
C617 C583 1.395 1_556 S
C617 C587 1.391 . S
C618 C580 1.389 . S
C618 C600 1.392 . S
C619 C590 1.392 . S
C619 C592 1.389 . S
C620 C595 1.395 1_554 S
C620 C597 1.391 . S
H621 C581 0.951 . S
H622 C582 0.950 . S
H623 C588 0.949 . S
H624 C589 0.950 . S
H625 C593 0.951 . S
H626 C594 0.950 . S
H627 C598 0.949 . S
H628 C599 0.950 . S
H629 C603 0.950 . S
H630 C605 0.950 . S
H631 C608 0.950 . S
H632 C610 0.950 . S
C633 C634 1.443 . S
C633 N637 1.376 . S
C633 C671 1.389 . S
C634 C633 1.443 . S
C634 C635 1.340 . S
C634 H674 0.951 . S
C635 C634 1.340 . S
C635 C636 1.439 . S
C635 H675 0.950 . S
C636 C635 1.439 . S
C636 N637 1.374 . S
C636 C670 1.395 . S
N637 C633 1.376 . S
N637 C636 1.374 . S
N637 Co638 2.008 . S
Co638 N637 2.008 . S
Co638 N639 1.995 1_554 S
Co638 N644 2.008 1_554 S
Co638 N649 1.995 . S
Co638 N654 2.282 . S
Co638 N660 2.282 1_554 S
N639 Co638 1.995 1_556 S
N639 C640 1.376 . S
N639 C643 1.383 . S
C640 N639 1.376 . S
C640 C641 1.446 . S
C640 C670 1.391 1_556 S
C641 C640 1.446 . S
C641 C642 1.339 . S
C641 H676 0.949 . S
C642 C641 1.339 . S
C642 C643 1.439 . S
C642 H677 0.950 . S
C643 N639 1.383 . S
C643 C642 1.439 . S
C643 C672 1.392 . S
N644 Co638 2.008 1_556 S
N644 C645 1.376 . S
N644 C648 1.374 1_556 S
C645 N644 1.376 . S
C645 C646 1.443 . S
C645 C672 1.389 . S
C646 C645 1.443 . S
C646 C647 1.340 . S
C646 H678 0.951 . S
C647 C646 1.340 . S
C647 C648 1.439 1_556 S
C647 H679 0.950 . S
C648 N644 1.374 1_554 S
C648 C647 1.439 1_554 S
C648 C673 1.395 . S
N649 Co638 1.995 . S
N649 C650 1.376 . S
N649 C653 1.383 . S
C650 N649 1.376 . S
C650 C651 1.446 . S
C650 C673 1.391 . S
C651 C650 1.446 . S
C651 C652 1.339 . S
C651 H680 0.949 . S
C652 C651 1.339 . S
C652 C653 1.439 . S
C652 H681 0.950 . S
C653 N649 1.383 . S
C653 C652 1.439 . S
C653 C671 1.392 . S
N654 Co638 2.282 . S
N654 C657 1.332 . S
N654 C659 1.332 . S
C655 C656 1.386 . S
C655 C658 1.388 . S
C656 C655 1.386 . S
C656 C657 1.382 . S
C656 H682 0.950 . S
C657 N654 1.332 . S
C657 C656 1.382 . S
C657 H668 0.952 . S
C658 C655 1.388 . S
C658 C659 1.382 . S
C658 H683 0.950 . S
C659 N654 1.332 . S
C659 C658 1.382 . S
C659 H669 0.948 . S
N660 Co638 2.282 1_556 S
N660 C664 1.332 . S
N660 C665 1.332 . S
C661 C662 1.388 . S
C661 C665 1.382 . S
C661 H684 0.950 . S
C662 C661 1.388 . S
C662 C663 1.386 . S
C663 C662 1.386 . S
C663 C664 1.382 . S
C663 H685 0.950 . S
C664 N660 1.332 . S
C664 C663 1.382 . S
C664 H666 0.952 . S
C665 N660 1.332 . S
C665 C661 1.382 . S
C665 H667 0.948 . S
H666 C664 0.952 . S
H667 C665 0.948 . S
H668 C657 0.952 . S
H669 C659 0.948 . S
C670 C636 1.395 . S
C670 C640 1.391 1_554 S
C671 C633 1.389 . S
C671 C653 1.392 . S
C672 C643 1.392 . S
C672 C645 1.389 . S
C673 C648 1.395 . S
C673 C650 1.391 . S
H674 C634 0.951 . S
H675 C635 0.950 . S
H676 C641 0.949 . S
H677 C642 0.950 . S
H678 C646 0.951 . S
H679 C647 0.950 . S
H680 C651 0.949 . S
H681 C652 0.950 . S
H682 C656 0.950 . S
H683 C658 0.950 . S
H684 C661 0.950 . S
H685 C663 0.950 . S
C686 C687 1.443 . S
C686 N690 1.376 1_556 S
C686 C724 1.389 . S
C687 C686 1.443 . S
C687 C688 1.340 . S
C687 H727 0.951 . S
C688 C687 1.340 . S
C688 C689 1.439 1_556 S
C688 H728 0.950 1_556 S
C689 C688 1.439 1_554 S
C689 N690 1.374 . S
C689 C723 1.395 . S
N690 C686 1.376 1_554 S
N690 C689 1.374 . S
N690 Co691 2.008 . S
Co691 N690 2.008 . S
Co691 N692 1.995 . S
Co691 N697 2.008 . S
Co691 N702 1.995 1_554 S
Co691 N707 2.282 1_554 S
Co691 N713 2.282 . S
N692 Co691 1.995 . S
N692 C693 1.376 . S
N692 C696 1.383 . S
C693 N692 1.376 . S
C693 C694 1.446 . S
C693 C723 1.391 . S
C694 C693 1.446 . S
C694 C695 1.339 . S
C694 H729 0.949 . S
C695 C694 1.339 . S
C695 C696 1.439 . S
C695 H730 0.950 . S
C696 N692 1.383 . S
C696 C695 1.439 . S
C696 C725 1.392 . S
N697 Co691 2.008 . S
N697 C698 1.376 . S
N697 C701 1.374 . S
C698 N697 1.376 . S
C698 C699 1.443 . S
C698 C725 1.389 . S
C699 C698 1.443 . S
C699 C700 1.340 . S
C699 H731 0.951 . S
C700 C699 1.340 . S
C700 C701 1.439 . S
C700 H732 0.950 . S
C701 N697 1.374 . S
C701 C700 1.439 . S
C701 C726 1.395 . S
N702 Co691 1.995 1_556 S
N702 C703 1.376 . S
N702 C706 1.383 . S
C703 N702 1.376 . S
C703 C704 1.446 . S
C703 C726 1.391 1_556 S
C704 C703 1.446 . S
C704 C705 1.339 . S
C704 H733 0.949 . S
C705 C704 1.339 . S
C705 C706 1.439 . S
C705 H734 0.950 . S
C706 N702 1.383 . S
C706 C705 1.439 . S
C706 C724 1.392 . S
N707 Co691 2.282 1_556 S
N707 C710 1.332 . S
N707 C712 1.332 . S
C708 C709 1.386 . S
C708 C711 1.388 . S
C709 C708 1.386 . S
C709 C710 1.382 . S
C709 H735 0.950 . S
C710 N707 1.332 . S
C710 C709 1.382 . S
C710 H721 0.952 . S
C711 C708 1.388 . S
C711 C712 1.382 . S
C711 H736 0.950 . S
C712 N707 1.332 . S
C712 C711 1.382 . S
C712 H722 0.946 1_556 S
N713 Co691 2.282 . S
N713 C717 1.332 . S
N713 C718 1.332 . S
C714 C715 1.388 . S
C714 C718 1.382 . S
C714 H737 0.950 . S
C715 C714 1.388 . S
C715 C716 1.386 . S
C716 C715 1.386 . S
C716 C717 1.382 . S
C716 H738 0.950 . S
C717 N713 1.332 . S
C717 C716 1.382 . S
C717 H719 0.952 . S
C718 N713 1.332 . S
C718 C714 1.382 . S
C718 H720 0.948 . S
H719 C717 0.952 . S
H720 C718 0.948 . S
H721 C710 0.952 . S
H722 C712 0.946 1_554 S
C723 C689 1.395 . S
C723 C693 1.391 . S
C724 C686 1.389 . S
C724 C706 1.392 . S
C725 C696 1.392 . S
C725 C698 1.389 . S
C726 C701 1.395 . S
C726 C703 1.391 1_554 S
H727 C687 0.951 . S
H728 C688 0.950 1_554 S
H729 C694 0.949 . S
H730 C695 0.950 . S
H731 C699 0.951 . S
H732 C700 0.950 . S
H733 C704 0.949 . S
H734 C705 0.950 . S
H735 C709 0.950 . S
H736 C711 0.950 . S
H737 C714 0.950 . S
H738 C716 0.950 . S
C739 C740 1.443 . S
C739 N743 1.376 . S
C739 C777 1.389 . S
C740 C739 1.443 . S
C740 C741 1.340 . S
C740 H780 0.951 . S
C741 C740 1.340 . S
C741 C742 1.439 . S
C741 H781 0.950 . S
C742 C741 1.439 . S
C742 N743 1.374 . S
C742 C776 1.395 1_554 S
N743 C739 1.376 . S
N743 C742 1.374 . S
N743 Co744 2.008 . S
Co744 N743 2.008 . S
Co744 N745 1.995 1_554 S
Co744 N750 2.008 1_554 S
Co744 N755 1.995 . S
Co744 N760 2.282 . S
Co744 N766 2.282 1_554 S
N745 Co744 1.995 1_556 S
N745 C746 1.376 . S
N745 C749 1.383 . S
C746 N745 1.376 . S
C746 C747 1.446 . S
C746 C776 1.391 . S
C747 C746 1.446 . S
C747 C748 1.339 . S
C747 H782 0.949 . S
C748 C747 1.339 . S
C748 C749 1.439 . S
C748 H783 0.950 . S
C749 N745 1.383 . S
C749 C748 1.439 . S
C749 C778 1.392 . S
N750 Co744 2.008 1_556 S
N750 C751 1.376 . S
N750 C754 1.374 1_556 S
C751 N750 1.376 . S
C751 C752 1.443 . S
C751 C778 1.389 . S
C752 C751 1.443 . S
C752 C753 1.340 . S
C752 H784 0.951 . S
C753 C752 1.340 . S
C753 C754 1.439 1_556 S
C753 H785 0.950 . S
C754 N750 1.374 1_554 S
C754 C753 1.439 1_554 S
C754 C779 1.395 . S
N755 Co744 1.995 . S
N755 C756 1.376 . S
N755 C759 1.383 . S
C756 N755 1.376 . S
C756 C757 1.446 . S
C756 C779 1.391 . S
C757 C756 1.446 . S
C757 C758 1.339 . S
C757 H786 0.949 . S
C758 C757 1.339 . S
C758 C759 1.439 . S
C758 H787 0.950 . S
C759 N755 1.383 . S
C759 C758 1.439 . S
C759 C777 1.392 . S
N760 Co744 2.282 . S
N760 C763 1.332 . S
N760 C765 1.332 . S
C761 C762 1.386 . S
C761 C764 1.388 . S
C762 C761 1.386 . S
C762 C763 1.382 . S
C762 H788 0.950 . S
C763 N760 1.332 . S
C763 C762 1.382 . S
C763 H774 0.952 . S
C764 C761 1.388 . S
C764 C765 1.382 . S
C764 H789 0.950 . S
C765 N760 1.332 . S
C765 C764 1.382 . S
C765 H775 0.948 . S
N766 Co744 2.282 1_556 S
N766 C770 1.332 . S
N766 C771 1.332 . S
C767 C768 1.388 . S
C767 C771 1.382 . S
C767 H790 0.950 . S
C768 C767 1.388 . S
C768 C769 1.386 . S
C769 C768 1.386 . S
C769 C770 1.382 . S
C769 H791 0.950 . S
C770 N766 1.332 . S
C770 C769 1.382 . S
C770 H772 0.952 . S
C771 N766 1.332 . S
C771 C767 1.382 . S
C771 H773 0.948 . S
H772 C770 0.952 . S
H773 C771 0.948 . S
H774 C763 0.952 . S
H775 C765 0.948 . S
C776 C742 1.395 1_556 S
C776 C746 1.391 . S
C777 C739 1.389 . S
C777 C759 1.392 . S
C778 C749 1.392 . S
C778 C751 1.389 . S
C779 C754 1.395 . S
C779 C756 1.391 . S
H780 C740 0.951 . S
H781 C741 0.950 . S
H782 C747 0.949 . S
H783 C748 0.950 . S
H784 C752 0.951 . S
H785 C753 0.950 . S
H786 C757 0.949 . S
H787 C758 0.950 . S
H788 C762 0.950 . S
H789 C764 0.950 . S
H790 C767 0.950 . S
H791 C769 0.950 . S
H792 C798 0.930 . S
H793 C802 0.930 . S
H794 C807 0.929 . S
H795 C805 0.929 . S
H796 C800 0.929 . S
H797 C806 0.929 . S
C798 H792 0.930 . S
C798 C799 1.367 . S
C798 C806 1.378 . S
C799 C798 1.367 . S
C799 C807 1.433 . S
C800 H796 0.929 . S
C800 C802 1.378 . S
C800 C804 1.350 . S
C801 C804 1.463 . S
C801 C806 1.350 . S
C801 N809 1.427 . S
C802 H793 0.930 . S
C802 C800 1.378 . S
C802 C803 1.367 . S
C803 C802 1.367 . S
C803 C805 1.433 . S
C804 C800 1.350 . S
C804 C801 1.463 . S
C804 N808 1.427 . S
C805 H795 0.929 . S
C805 C803 1.433 . S
C805 N808 1.384 . S
C806 H797 0.929 . S
C806 C798 1.378 . S
C806 C801 1.350 . S
C807 H794 0.929 . S
C807 C799 1.433 . S
C807 N809 1.384 . S
N808 C804 1.427 . S
N808 C805 1.384 . S
N809 C801 1.427 . S
N809 C807 1.384 . S
H810 C816 0.930 . S
H811 C820 0.930 . S
H812 C825 0.929 . S
H813 C823 0.929 . S
H814 C818 0.929 . S
H815 C824 0.929 . S
C816 H810 0.930 . S
C816 C817 1.367 . S
C816 C824 1.378 . S
C817 C816 1.367 . S
C817 C825 1.433 . S
C818 H814 0.929 . S
C818 C820 1.378 . S
C818 C822 1.350 . S
C819 C822 1.463 . S
C819 C824 1.350 . S
C819 N827 1.427 . S
C820 H811 0.930 . S
C820 C818 1.378 . S
C820 C821 1.367 . S
C821 C820 1.367 . S
C821 C823 1.433 . S
C822 C818 1.350 . S
C822 C819 1.463 . S
C822 N826 1.427 . S
C823 H813 0.929 . S
C823 C821 1.433 . S
C823 N826 1.384 . S
C824 H815 0.929 . S
C824 C816 1.378 . S
C824 C819 1.350 . S
C825 H812 0.929 . S
C825 C817 1.433 . S
C825 N827 1.384 . S
N826 C822 1.427 . S
N826 C823 1.384 . S
N827 C819 1.427 . S
N827 C825 1.384 . S
H828 C834 0.930 . S
H829 C838 0.930 . S
H830 C843 0.929 . S
H831 C841 0.929 . S
H832 C836 0.929 . S
H833 C842 0.929 . S
C834 H828 0.930 . S
C834 C835 1.367 . S
C834 C842 1.378 . S
C835 C834 1.367 . S
C835 C843 1.433 . S
C836 H832 0.929 . S
C836 C838 1.378 . S
C836 C840 1.350 . S
C837 C840 1.463 . S
C837 C842 1.350 . S
C837 N845 1.427 . S
C838 H829 0.930 . S
C838 C836 1.378 . S
C838 C839 1.367 . S
C839 C838 1.367 . S
C839 C841 1.433 . S
C840 C836 1.350 . S
C840 C837 1.463 . S
C840 N844 1.427 . S
C841 H831 0.929 . S
C841 C839 1.433 . S
C841 N844 1.384 . S
C842 H833 0.929 . S
C842 C834 1.378 . S
C842 C837 1.350 . S
C843 H830 0.929 . S
C843 C835 1.433 . S
C843 N845 1.384 . S
N844 C840 1.427 . S
N844 C841 1.384 . S
N845 C837 1.427 . S
N845 C843 1.384 . S
H846 C852 0.930 . S
H847 C856 0.930 . S
H848 C861 0.929 . S
H849 C859 0.929 . S
H850 C854 0.929 . S
H851 C860 0.929 . S
C852 H846 0.930 . S
C852 C853 1.367 . S
C852 C860 1.378 . S
C853 C852 1.367 . S
C853 C861 1.433 . S
C854 H850 0.929 . S
C854 C856 1.378 . S
C854 C858 1.350 . S
C855 C858 1.463 . S
C855 C860 1.350 . S
C855 N863 1.427 . S
C856 H847 0.930 . S
C856 C854 1.378 . S
C856 C857 1.367 . S
C857 C856 1.367 . S
C857 C859 1.433 . S
C858 C854 1.350 . S
C858 C855 1.463 . S
C858 N862 1.427 . S
C859 H849 0.929 . S
C859 C857 1.433 . S
C859 N862 1.384 . S
C860 H851 0.929 . S
C860 C852 1.378 . S
C860 C855 1.350 . S
C861 H848 0.929 . S
C861 C853 1.433 . S
C861 N863 1.384 . S
N862 C858 1.427 . S
N862 C859 1.384 . S
N863 C855 1.427 . S
N863 C861 1.384 . S
H864 C870 0.930 . S
H865 C874 0.930 . S
H866 C879 0.929 . S
H867 C877 0.929 . S
H868 C872 0.929 . S
H869 C878 0.929 . S
C870 H864 0.930 . S
C870 C871 1.367 . S
C870 C878 1.378 . S
C871 C870 1.367 . S
C871 C879 1.433 . S
C872 H868 0.929 . S
C872 C874 1.378 . S
C872 C876 1.350 . S
C873 C876 1.463 . S
C873 C878 1.350 . S
C873 N881 1.427 . S
C874 H865 0.930 . S
C874 C872 1.378 . S
C874 C875 1.367 . S
C875 C874 1.367 . S
C875 C877 1.433 . S
C876 C872 1.350 . S
C876 C873 1.463 . S
C876 N880 1.427 . S
C877 H867 0.929 . S
C877 C875 1.433 . S
C877 N880 1.384 . S
C878 H869 0.929 . S
C878 C870 1.378 . S
C878 C873 1.350 . S
C879 H866 0.929 . S
C879 C871 1.433 . S
C879 N881 1.384 . S
N880 C876 1.427 . S
N880 C877 1.384 . S
N881 C873 1.427 . S
N881 C879 1.384 . S
H882 C888 0.930 . S
H883 C892 0.930 . S
H884 C897 0.929 . S
H885 C895 0.929 . S
H886 C890 0.929 . S
H887 C896 0.929 . S
C888 H882 0.930 . S
C888 C889 1.367 . S
C888 C896 1.378 . S
C889 C888 1.367 . S
C889 C897 1.433 . S
C890 H886 0.929 . S
C890 C892 1.378 . S
C890 C894 1.350 . S
C891 C894 1.463 . S
C891 C896 1.350 . S
C891 N899 1.427 . S
C892 H883 0.930 . S
C892 C890 1.378 . S
C892 C893 1.367 . S
C893 C892 1.367 . S
C893 C895 1.433 . S
C894 C890 1.350 . S
C894 C891 1.463 . S
C894 N898 1.427 . S
C895 H885 0.929 . S
C895 C893 1.433 . S
C895 N898 1.384 . S
C896 H887 0.929 . S
C896 C888 1.378 . S
C896 C891 1.350 . S
C897 H884 0.929 . S
C897 C889 1.433 . S
C897 N899 1.384 . S
N898 C894 1.427 . S
N898 C895 1.384 . S
N899 C891 1.427 . S
N899 C897 1.384 . S
H900 C906 0.930 . S
H901 C910 0.930 . S
H902 C915 0.929 . S
H903 C913 0.929 . S
H904 C908 0.929 . S
H905 C914 0.929 . S
C906 H900 0.930 . S
C906 C907 1.367 . S
C906 C914 1.378 . S
C907 C906 1.367 . S
C907 C915 1.433 . S
C908 H904 0.929 . S
C908 C910 1.378 . S
C908 C912 1.350 . S
C909 C912 1.463 . S
C909 C914 1.350 . S
C909 N917 1.427 . S
C910 H901 0.930 . S
C910 C908 1.378 . S
C910 C911 1.367 . S
C911 C910 1.367 . S
C911 C913 1.433 . S
C912 C908 1.350 . S
C912 C909 1.463 . S
C912 N916 1.427 . S
C913 H903 0.929 . S
C913 C911 1.433 . S
C913 N916 1.384 . S
C914 H905 0.929 . S
C914 C906 1.378 . S
C914 C909 1.350 . S
C915 H902 0.929 . S
C915 C907 1.433 . S
C915 N917 1.384 . S
N916 C912 1.427 . S
N916 C913 1.384 . S
N917 C909 1.427 . S
N917 C915 1.384 . S
H918 C924 0.930 . S
H919 C928 0.930 . S
H920 C933 0.929 . S
H921 C931 0.929 . S
H922 C926 0.929 . S
H923 C932 0.929 . S
C924 H918 0.930 . S
C924 C925 1.367 . S
C924 C932 1.378 . S
C925 C924 1.367 . S
C925 C933 1.433 . S
C926 H922 0.929 . S
C926 C928 1.378 . S
C926 C930 1.350 . S
C927 C930 1.463 . S
C927 C932 1.350 . S
C927 N935 1.427 . S
C928 H919 0.930 . S
C928 C926 1.378 . S
C928 C929 1.367 . S
C929 C928 1.367 . S
C929 C931 1.433 . S
C930 C926 1.350 . S
C930 C927 1.463 . S
C930 N934 1.427 . S
C931 H921 0.929 . S
C931 C929 1.433 . S
C931 N934 1.384 . S
C932 H923 0.929 . S
C932 C924 1.378 . S
C932 C927 1.350 . S
C933 H920 0.929 . S
C933 C925 1.433 . S
C933 N935 1.384 . S
N934 C930 1.427 . S
N934 C931 1.384 . S
N935 C927 1.427 . S
N935 C933 1.384 . S
H936 C942 0.930 . S
H937 C946 0.930 . S
H938 C951 0.929 . S
H939 C949 0.929 . S
H940 C944 0.929 . S
H941 C950 0.929 . S
C942 H936 0.930 . S
C942 C943 1.367 . S
C942 C950 1.378 . S
C943 C942 1.367 . S
C943 C951 1.433 . S
C944 H940 0.929 . S
C944 C946 1.378 . S
C944 C948 1.350 . S
C945 C948 1.463 . S
C945 C950 1.350 . S
C945 N953 1.427 . S
C946 H937 0.930 . S
C946 C944 1.378 . S
C946 C947 1.367 . S
C947 C946 1.367 . S
C947 C949 1.433 . S
C948 C944 1.350 . S
C948 C945 1.463 . S
C948 N952 1.427 . S
C949 H939 0.929 . S
C949 C947 1.433 . S
C949 N952 1.384 . S
C950 H941 0.929 . S
C950 C942 1.378 . S
C950 C945 1.350 . S
C951 H938 0.929 . S
C951 C943 1.433 . S
C951 N953 1.384 . S
N952 C948 1.427 . S
N952 C949 1.384 . S
N953 C945 1.427 . S
N953 C951 1.384 . S
H954 C960 0.930 . S
H955 C964 0.930 . S
H956 C969 0.929 . S
H957 C967 0.929 . S
H958 C962 0.929 . S
H959 C968 0.929 . S
C960 H954 0.930 . S
C960 C961 1.367 . S
C960 C968 1.378 . S
C961 C960 1.367 . S
C961 C969 1.433 . S
C962 H958 0.929 . S
C962 C964 1.378 . S
C962 C966 1.350 . S
C963 C966 1.463 . S
C963 C968 1.350 . S
C963 N971 1.427 . S
C964 H955 0.930 . S
C964 C962 1.378 . S
C964 C965 1.367 . S
C965 C964 1.367 . S
C965 C967 1.433 . S
C966 C962 1.350 . S
C966 C963 1.463 . S
C966 N970 1.427 . S
C967 H957 0.929 . S
C967 C965 1.433 . S
C967 N970 1.384 . S
C968 H959 0.929 . S
C968 C960 1.378 . S
C968 C963 1.350 . S
C969 H956 0.929 . S
C969 C961 1.433 . S
C969 N971 1.384 . S
N970 C966 1.427 . S
N970 C967 1.384 . S
N971 C963 1.427 . S
N971 C969 1.384 . S
H972 C978 0.930 . S
H973 C982 0.930 . S
H974 C987 0.929 . S
H975 C985 0.929 . S
H976 C980 0.929 . S
H977 C986 0.929 . S
C978 H972 0.930 . S
C978 C979 1.367 . S
C978 C986 1.378 . S
C979 C978 1.367 . S
C979 C987 1.433 . S
C980 H976 0.929 . S
C980 C982 1.378 . S
C980 C984 1.350 . S
C981 C984 1.463 . S
C981 C986 1.350 . S
C981 N989 1.427 . S
C982 H973 0.930 . S
C982 C980 1.378 . S
C982 C983 1.367 . S
C983 C982 1.367 . S
C983 C985 1.433 . S
C984 C980 1.350 . S
C984 C981 1.463 . S
C984 N988 1.427 . S
C985 H975 0.929 . S
C985 C983 1.433 . S
C985 N988 1.384 . S
C986 H977 0.929 . S
C986 C978 1.378 . S
C986 C981 1.350 . S
C987 H974 0.929 . S
C987 C979 1.433 . S
C987 N989 1.384 . S
N988 C984 1.427 . S
N988 C985 1.384 . S
N989 C981 1.427 . S
N989 C987 1.384 . S
H990 C996 0.930 . S
H991 C1000 0.930 . S
H992 C1005 0.929 . S
H993 C1003 0.929 . S
H994 C998 0.929 . S
H995 C1004 0.929 . S
C996 H990 0.930 . S
C996 C997 1.367 . S
C996 C1004 1.378 . S
C997 C996 1.367 . S
C997 C1005 1.433 . S
C998 H994 0.929 . S
C998 C1000 1.378 . S
C998 C1002 1.350 . S
C999 C1002 1.463 . S
C999 C1004 1.350 . S
C999 N1007 1.427 . S
C1000 H991 0.930 . S
C1000 C998 1.378 . S
C1000 C1001 1.367 . S
C1001 C1000 1.367 . S
C1001 C1003 1.433 . S
C1002 C998 1.350 . S
C1002 C999 1.463 . S
C1002 N1006 1.427 . S
C1003 H993 0.929 . S
C1003 C1001 1.433 . S
C1003 N1006 1.384 . S
C1004 H995 0.929 . S
C1004 C996 1.378 . S
C1004 C999 1.350 . S
C1005 H992 0.929 . S
C1005 C997 1.433 . S
C1005 N1007 1.384 . S
N1006 C1002 1.427 . S
N1006 C1003 1.384 . S
N1007 C999 1.427 . S
N1007 C1005 1.384 . S
H1008 C1014 0.930 . S
H1009 C1018 0.930 . S
H1010 C1023 0.929 . S
H1011 C1021 0.929 . S
H1012 C1016 0.929 . S
H1013 C1022 0.929 . S
C1014 H1008 0.930 . S
C1014 C1015 1.367 . S
C1014 C1022 1.378 . S
C1015 C1014 1.367 . S
C1015 C1023 1.433 . S
C1016 H1012 0.929 . S
C1016 C1018 1.378 . S
C1016 C1020 1.350 . S
C1017 C1020 1.463 . S
C1017 C1022 1.350 . S
C1017 N1025 1.427 . S
C1018 H1009 0.930 . S
C1018 C1016 1.378 . S
C1018 C1019 1.367 . S
C1019 C1018 1.367 . S
C1019 C1021 1.433 . S
C1020 C1016 1.350 . S
C1020 C1017 1.463 . S
C1020 N1024 1.427 . S
C1021 H1011 0.929 . S
C1021 C1019 1.433 . S
C1021 N1024 1.384 . S
C1022 H1013 0.929 . S
C1022 C1014 1.378 . S
C1022 C1017 1.350 . S
C1023 H1010 0.929 . S
C1023 C1015 1.433 . S
C1023 N1025 1.384 . S
N1024 C1020 1.427 . S
N1024 C1021 1.384 . S
N1025 C1017 1.427 . S
N1025 C1023 1.384 . S
H1026 C1032 0.930 . S
H1027 C1036 0.930 . S
H1028 C1041 0.929 . S
H1029 C1039 0.929 . S
H1030 C1034 0.929 . S
H1031 C1040 0.929 . S
C1032 H1026 0.930 . S
C1032 C1033 1.367 . S
C1032 C1040 1.378 . S
C1033 C1032 1.367 . S
C1033 C1041 1.433 . S
C1034 H1030 0.929 . S
C1034 C1036 1.378 . S
C1034 C1038 1.350 . S
C1035 C1038 1.463 . S
C1035 C1040 1.350 . S
C1035 N1043 1.427 . S
C1036 H1027 0.930 . S
C1036 C1034 1.378 . S
C1036 C1037 1.367 . S
C1037 C1036 1.367 . S
C1037 C1039 1.433 . S
C1038 C1034 1.350 . S
C1038 C1035 1.463 . S
C1038 N1042 1.427 . S
C1039 H1029 0.929 . S
C1039 C1037 1.433 . S
C1039 N1042 1.384 . S
C1040 H1031 0.929 . S
C1040 C1032 1.378 . S
C1040 C1035 1.350 . S
C1041 H1028 0.929 . S
C1041 C1033 1.433 . S
C1041 N1043 1.384 . S
N1042 C1038 1.427 . S
N1042 C1039 1.384 . S
N1043 C1035 1.427 . S
N1043 C1041 1.384 . S
H1044 C1050 0.930 . S
H1045 C1054 0.930 . S
H1046 C1059 0.929 . S
H1047 C1057 0.929 . S
H1048 C1052 0.929 . S
H1049 C1058 0.929 . S
C1050 H1044 0.930 . S
C1050 C1051 1.367 . S
C1050 C1058 1.378 . S
C1051 C1050 1.367 . S
C1051 C1059 1.433 . S
C1052 H1048 0.929 . S
C1052 C1054 1.378 . S
C1052 C1056 1.350 . S
C1053 C1056 1.463 . S
C1053 C1058 1.350 . S
C1053 N1061 1.427 . S
C1054 H1045 0.930 . S
C1054 C1052 1.378 . S
C1054 C1055 1.367 . S
C1055 C1054 1.367 . S
C1055 C1057 1.433 . S
C1056 C1052 1.350 . S
C1056 C1053 1.463 . S
C1056 N1060 1.427 . S
C1057 H1047 0.929 . S
C1057 C1055 1.433 . S
C1057 N1060 1.384 . S
C1058 H1049 0.929 . S
C1058 C1050 1.378 . S
C1058 C1053 1.350 . S
C1059 H1046 0.929 . S
C1059 C1051 1.433 . S
C1059 N1061 1.384 . S
N1060 C1056 1.427 . S
N1060 C1057 1.384 . S
N1061 C1053 1.427 . S
N1061 C1059 1.384 . S
H1062 C1068 0.930 . S
H1063 C1072 0.930 . S
H1064 C1077 0.929 . S
H1065 C1075 0.929 . S
H1066 C1070 0.929 . S
H1067 C1076 0.929 . S
C1068 H1062 0.930 . S
C1068 C1069 1.367 . S
C1068 C1076 1.378 . S
C1069 C1068 1.367 . S
C1069 C1077 1.433 . S
C1070 H1066 0.929 . S
C1070 C1072 1.378 . S
C1070 C1074 1.350 . S
C1071 C1074 1.463 . S
C1071 C1076 1.350 . S
C1071 N1079 1.427 . S
C1072 H1063 0.930 . S
C1072 C1070 1.378 . S
C1072 C1073 1.367 . S
C1073 C1072 1.367 . S
C1073 C1075 1.433 . S
C1074 C1070 1.350 . S
C1074 C1071 1.463 . S
C1074 N1078 1.427 . S
C1075 H1065 0.929 . S
C1075 C1073 1.433 . S
C1075 N1078 1.384 . S
C1076 H1067 0.929 . S
C1076 C1068 1.378 . S
C1076 C1071 1.350 . S
C1077 H1064 0.929 . S
C1077 C1069 1.433 . S
C1077 N1079 1.384 . S
N1078 C1074 1.427 . S
N1078 C1075 1.384 . S
N1079 C1071 1.427 . S
N1079 C1077 1.384 . S
H1080 C1086 0.930 . S
H1081 C1090 0.930 . S
H1082 C1095 0.929 . S
H1083 C1093 0.929 . S
H1084 C1088 0.929 . S
H1085 C1094 0.929 . S
C1086 H1080 0.930 . S
C1086 C1087 1.367 . S
C1086 C1094 1.378 . S
C1087 C1086 1.367 . S
C1087 C1095 1.433 . S
C1088 H1084 0.929 . S
C1088 C1090 1.378 . S
C1088 C1092 1.350 . S
C1089 C1092 1.463 . S
C1089 C1094 1.350 . S
C1089 N1097 1.427 . S
C1090 H1081 0.930 . S
C1090 C1088 1.378 . S
C1090 C1091 1.367 . S
C1091 C1090 1.367 . S
C1091 C1093 1.433 . S
C1092 C1088 1.350 . S
C1092 C1089 1.463 . S
C1092 N1096 1.427 . S
C1093 H1083 0.929 . S
C1093 C1091 1.433 . S
C1093 N1096 1.384 . S
C1094 H1085 0.929 . S
C1094 C1086 1.378 . S
C1094 C1089 1.350 . S
C1095 H1082 0.929 . S
C1095 C1087 1.433 . S
C1095 N1097 1.384 . S
N1096 C1092 1.427 . S
N1096 C1093 1.384 . S
N1097 C1089 1.427 . S
N1097 C1095 1.384 . S
H1098 C1104 0.930 . S
H1099 C1108 0.930 . S
H1100 C1113 0.929 . S
H1101 C1111 0.929 . S
H1102 C1106 0.929 . S
H1103 C1112 0.929 . S
C1104 H1098 0.930 . S
C1104 C1105 1.367 . S
C1104 C1112 1.378 . S
C1105 C1104 1.367 . S
C1105 C1113 1.433 . S
C1106 H1102 0.929 . S
C1106 C1108 1.378 . S
C1106 C1110 1.350 . S
C1107 C1110 1.463 . S
C1107 C1112 1.350 . S
C1107 N1115 1.427 . S
C1108 H1099 0.930 . S
C1108 C1106 1.378 . S
C1108 C1109 1.367 . S
C1109 C1108 1.367 . S
C1109 C1111 1.433 . S
C1110 C1106 1.350 . S
C1110 C1107 1.463 . S
C1110 N1114 1.427 . S
C1111 H1101 0.929 . S
C1111 C1109 1.433 . S
C1111 N1114 1.384 . S
C1112 H1103 0.929 . S
C1112 C1104 1.378 . S
C1112 C1107 1.350 . S
C1113 H1100 0.929 . S
C1113 C1105 1.433 . S
C1113 N1115 1.384 . S
N1114 C1110 1.427 . S
N1114 C1111 1.384 . S
N1115 C1107 1.427 . S
N1115 C1113 1.384 . S
H1116 C1122 0.930 . S
H1117 C1126 0.930 . S
H1118 C1131 0.929 . S
H1119 C1129 0.929 . S
H1120 C1124 0.929 . S
H1121 C1130 0.929 . S
C1122 H1116 0.930 . S
C1122 C1123 1.367 . S
C1122 C1130 1.378 . S
C1123 C1122 1.367 . S
C1123 C1131 1.433 . S
C1124 H1120 0.929 . S
C1124 C1126 1.378 . S
C1124 C1128 1.350 . S
C1125 C1128 1.463 . S
C1125 C1130 1.350 . S
C1125 N1133 1.427 . S
C1126 H1117 0.930 . S
C1126 C1124 1.378 . S
C1126 C1127 1.367 . S
C1127 C1126 1.367 . S
C1127 C1129 1.433 . S
C1128 C1124 1.350 . S
C1128 C1125 1.463 . S
C1128 N1132 1.427 . S
C1129 H1119 0.929 . S
C1129 C1127 1.433 . S
C1129 N1132 1.384 . S
C1130 H1121 0.929 . S
C1130 C1122 1.378 . S
C1130 C1125 1.350 . S
C1131 H1118 0.929 . S
C1131 C1123 1.433 . S
C1131 N1133 1.384 . S
N1132 C1128 1.427 . S
N1132 C1129 1.384 . S
N1133 C1125 1.427 . S
N1133 C1131 1.384 . S
H1134 C1140 0.930 . S
H1135 C1144 0.930 . S
H1136 C1149 0.929 . S
H1137 C1147 0.929 . S
H1138 C1142 0.929 . S
H1139 C1148 0.929 . S
C1140 H1134 0.930 . S
C1140 C1141 1.367 . S
C1140 C1148 1.378 . S
C1141 C1140 1.367 . S
C1141 C1149 1.433 . S
C1142 H1138 0.929 . S
C1142 C1144 1.378 . S
C1142 C1146 1.350 . S
C1143 C1146 1.463 . S
C1143 C1148 1.350 . S
C1143 N1151 1.427 . S
C1144 H1135 0.930 . S
C1144 C1142 1.378 . S
C1144 C1145 1.367 . S
C1145 C1144 1.367 . S
C1145 C1147 1.433 . S
C1146 C1142 1.350 . S
C1146 C1143 1.463 . S
C1146 N1150 1.427 . S
C1147 H1137 0.929 . S
C1147 C1145 1.433 . S
C1147 N1150 1.384 . S
C1148 H1139 0.929 . S
C1148 C1140 1.378 . S
C1148 C1143 1.350 . S
C1149 H1136 0.929 . S
C1149 C1141 1.433 . S
C1149 N1151 1.384 . S
N1150 C1146 1.427 . S
N1150 C1147 1.384 . S
N1151 C1143 1.427 . S
N1151 C1149 1.384 . S
H1152 C1158 0.930 . S
H1153 C1162 0.930 . S
H1154 C1167 0.929 . S
H1155 C1165 0.929 . S
H1156 C1160 0.929 . S
H1157 C1166 0.929 . S
C1158 H1152 0.930 . S
C1158 C1159 1.367 . S
C1158 C1166 1.378 . S
C1159 C1158 1.367 . S
C1159 C1167 1.433 . S
C1160 H1156 0.929 . S
C1160 C1162 1.378 . S
C1160 C1164 1.350 . S
C1161 C1164 1.463 . S
C1161 C1166 1.350 . S
C1161 N1169 1.427 . S
C1162 H1153 0.930 . S
C1162 C1160 1.378 . S
C1162 C1163 1.367 . S
C1163 C1162 1.367 . S
C1163 C1165 1.433 . S
C1164 C1160 1.350 . S
C1164 C1161 1.463 . S
C1164 N1168 1.427 . S
C1165 H1155 0.929 . S
C1165 C1163 1.433 . S
C1165 N1168 1.384 . S
C1166 H1157 0.929 . S
C1166 C1158 1.378 . S
C1166 C1161 1.350 . S
C1167 H1154 0.929 . S
C1167 C1159 1.433 . S
C1167 N1169 1.384 . S
N1168 C1164 1.427 . S
N1168 C1165 1.384 . S
N1169 C1161 1.427 . S
N1169 C1167 1.384 . S
H1170 C1176 0.930 . S
H1171 C1180 0.930 . S
H1172 C1185 0.929 . S
H1173 C1183 0.929 . S
H1174 C1178 0.929 . S
H1175 C1184 0.929 . S
C1176 H1170 0.930 . S
C1176 C1177 1.367 . S
C1176 C1184 1.378 . S
C1177 C1176 1.367 . S
C1177 C1185 1.433 . S
C1178 H1174 0.929 . S
C1178 C1180 1.378 . S
C1178 C1182 1.350 . S
C1179 C1182 1.463 . S
C1179 C1184 1.350 . S
C1179 N1187 1.427 . S
C1180 H1171 0.930 . S
C1180 C1178 1.378 . S
C1180 C1181 1.367 . S
C1181 C1180 1.367 . S
C1181 C1183 1.433 . S
C1182 C1178 1.350 . S
C1182 C1179 1.463 . S
C1182 N1186 1.427 . S
C1183 H1173 0.929 . S
C1183 C1181 1.433 . S
C1183 N1186 1.384 . S
C1184 H1175 0.929 . S
C1184 C1176 1.378 . S
C1184 C1179 1.350 . S
C1185 H1172 0.929 . S
C1185 C1177 1.433 . S
C1185 N1187 1.384 . S
N1186 C1182 1.427 . S
N1186 C1183 1.384 . S
N1187 C1179 1.427 . S
N1187 C1185 1.384 . S
H1188 C1194 0.930 . S
H1189 C1198 0.930 . S
H1190 C1203 0.929 . S
H1191 C1201 0.929 . S
H1192 C1196 0.929 . S
H1193 C1202 0.929 . S
C1194 H1188 0.930 . S
C1194 C1195 1.367 . S
C1194 C1202 1.378 . S
C1195 C1194 1.367 . S
C1195 C1203 1.433 . S
C1196 H1192 0.929 . S
C1196 C1198 1.378 . S
C1196 C1200 1.350 . S
C1197 C1200 1.463 . S
C1197 C1202 1.350 . S
C1197 N1205 1.427 . S
C1198 H1189 0.930 . S
C1198 C1196 1.378 . S
C1198 C1199 1.367 . S
C1199 C1198 1.367 . S
C1199 C1201 1.433 . S
C1200 C1196 1.350 . S
C1200 C1197 1.463 . S
C1200 N1204 1.427 . S
C1201 H1191 0.929 . S
C1201 C1199 1.433 . S
C1201 N1204 1.384 . S
C1202 H1193 0.929 . S
C1202 C1194 1.378 . S
C1202 C1197 1.350 . S
C1203 H1190 0.929 . S
C1203 C1195 1.433 . S
C1203 N1205 1.384 . S
N1204 C1200 1.427 . S
N1204 C1201 1.384 . S
N1205 C1197 1.427 . S
N1205 C1203 1.384 . S
H1206 C1212 0.930 . S
H1207 C1216 0.930 . S
H1208 C1221 0.929 . S
H1209 C1219 0.929 . S
H1210 C1214 0.929 . S
H1211 C1220 0.929 . S
C1212 H1206 0.930 . S
C1212 C1213 1.367 . S
C1212 C1220 1.378 . S
C1213 C1212 1.367 . S
C1213 C1221 1.433 . S
C1214 H1210 0.929 . S
C1214 C1216 1.378 . S
C1214 C1218 1.350 . S
C1215 C1218 1.463 . S
C1215 C1220 1.350 . S
C1215 N1223 1.427 . S
C1216 H1207 0.930 . S
C1216 C1214 1.378 . S
C1216 C1217 1.367 . S
C1217 C1216 1.367 . S
C1217 C1219 1.433 . S
C1218 C1214 1.350 . S
C1218 C1215 1.463 . S
C1218 N1222 1.427 . S
C1219 H1209 0.929 . S
C1219 C1217 1.433 . S
C1219 N1222 1.384 . S
C1220 H1211 0.929 . S
C1220 C1212 1.378 . S
C1220 C1215 1.350 . S
C1221 H1208 0.929 . S
C1221 C1213 1.433 . S
C1221 N1223 1.384 . S
N1222 C1218 1.427 . S
N1222 C1219 1.384 . S
N1223 C1215 1.427 . S
N1223 C1221 1.384 . S
H1224 C1230 0.930 . S
H1225 C1234 0.930 . S
H1226 C1239 0.929 . S
H1227 C1237 0.929 . S
H1228 C1232 0.929 . S
H1229 C1238 0.929 . S
C1230 H1224 0.930 . S
C1230 C1231 1.367 . S
C1230 C1238 1.378 . S
C1231 C1230 1.367 . S
C1231 C1239 1.433 . S
C1232 H1228 0.929 . S
C1232 C1234 1.378 . S
C1232 C1236 1.350 . S
C1233 C1236 1.463 . S
C1233 C1238 1.350 . S
C1233 N1241 1.427 . S
C1234 H1225 0.930 . S
C1234 C1232 1.378 . S
C1234 C1235 1.367 . S
C1235 C1234 1.367 . S
C1235 C1237 1.433 . S
C1236 C1232 1.350 . S
C1236 C1233 1.463 . S
C1236 N1240 1.427 . S
C1237 H1227 0.929 . S
C1237 C1235 1.433 . S
C1237 N1240 1.384 . S
C1238 H1229 0.929 . S
C1238 C1230 1.378 . S
C1238 C1233 1.350 . S
C1239 H1226 0.929 . S
C1239 C1231 1.433 . S
C1239 N1241 1.384 . S
N1240 C1236 1.427 . S
N1240 C1237 1.384 . S
N1241 C1233 1.427 . S
N1241 C1239 1.384 . S
H1242 C1248 0.930 . S
H1243 C1252 0.930 . S
H1244 C1257 0.929 . S
H1245 C1255 0.929 . S
H1246 C1250 0.929 . S
H1247 C1256 0.929 . S
C1248 H1242 0.930 . S
C1248 C1249 1.367 . S
C1248 C1256 1.378 . S
C1249 C1248 1.367 . S
C1249 C1257 1.433 . S
C1250 H1246 0.929 . S
C1250 C1252 1.378 . S
C1250 C1254 1.350 . S
C1251 C1254 1.463 . S
C1251 C1256 1.350 . S
C1251 N1259 1.427 . S
C1252 H1243 0.930 . S
C1252 C1250 1.378 . S
C1252 C1253 1.367 . S
C1253 C1252 1.367 . S
C1253 C1255 1.433 . S
C1254 C1250 1.350 . S
C1254 C1251 1.463 . S
C1254 N1258 1.427 . S
C1255 H1245 0.929 . S
C1255 C1253 1.433 . S
C1255 N1258 1.384 . S
C1256 H1247 0.929 . S
C1256 C1248 1.378 . S
C1256 C1251 1.350 . S
C1257 H1244 0.929 . S
C1257 C1249 1.433 . S
C1257 N1259 1.384 . S
N1258 C1254 1.427 . S
N1258 C1255 1.384 . S
N1259 C1251 1.427 . S
N1259 C1257 1.384 . S
H1260 C1266 0.930 . S
H1261 C1270 0.930 . S
H1262 C1275 0.929 . S
H1263 C1273 0.929 . S
H1264 C1268 0.929 . S
H1265 C1274 0.929 . S
C1266 H1260 0.930 . S
C1266 C1267 1.367 . S
C1266 C1274 1.378 . S
C1267 C1266 1.367 . S
C1267 C1275 1.433 . S
C1268 H1264 0.929 . S
C1268 C1270 1.378 . S
C1268 C1272 1.350 . S
C1269 C1272 1.463 . S
C1269 C1274 1.350 . S
C1269 N1277 1.427 . S
C1270 H1261 0.930 . S
C1270 C1268 1.378 . S
C1270 C1271 1.367 . S
C1271 C1270 1.367 . S
C1271 C1273 1.433 . S
C1272 C1268 1.350 . S
C1272 C1269 1.463 . S
C1272 N1276 1.427 . S
C1273 H1263 0.929 . S
C1273 C1271 1.433 . S
C1273 N1276 1.384 . S
C1274 H1265 0.929 . S
C1274 C1266 1.378 . S
C1274 C1269 1.350 . S
C1275 H1262 0.929 . S
C1275 C1267 1.433 . S
C1275 N1277 1.384 . S
N1276 C1272 1.427 . S
N1276 C1273 1.384 . S
N1277 C1269 1.427 . S
N1277 C1275 1.384 . S
H1278 C1284 0.930 . S
H1279 C1288 0.930 . S
H1280 C1293 0.929 . S
H1281 C1291 0.929 . S
H1282 C1286 0.929 . S
H1283 C1292 0.929 . S
C1284 H1278 0.930 . S
C1284 C1285 1.367 . S
C1284 C1292 1.378 . S
C1285 C1284 1.367 . S
C1285 C1293 1.433 . S
C1286 H1282 0.929 . S
C1286 C1288 1.378 . S
C1286 C1290 1.350 . S
C1287 C1290 1.463 . S
C1287 C1292 1.350 . S
C1287 N1295 1.427 . S
C1288 H1279 0.930 . S
C1288 C1286 1.378 . S
C1288 C1289 1.367 . S
C1289 C1288 1.367 . S
C1289 C1291 1.433 . S
C1290 C1286 1.350 . S
C1290 C1287 1.463 . S
C1290 N1294 1.427 . S
C1291 H1281 0.929 . S
C1291 C1289 1.433 . S
C1291 N1294 1.384 . S
C1292 H1283 0.929 . S
C1292 C1284 1.378 . S
C1292 C1287 1.350 . S
C1293 H1280 0.929 . S
C1293 C1285 1.433 . S
C1293 N1295 1.384 . S
N1294 C1290 1.427 . S
N1294 C1291 1.384 . S
N1295 C1287 1.427 . S
N1295 C1293 1.384 . S
H1296 C1302 0.930 . S
H1297 C1306 0.930 . S
H1298 C1311 0.929 . S
H1299 C1309 0.929 . S
H1300 C1304 0.929 . S
H1301 C1310 0.929 . S
C1302 H1296 0.930 . S
C1302 C1303 1.367 . S
C1302 C1310 1.378 . S
C1303 C1302 1.367 . S
C1303 C1311 1.433 . S
C1304 H1300 0.929 . S
C1304 C1306 1.378 . S
C1304 C1308 1.350 . S
C1305 C1308 1.463 . S
C1305 C1310 1.350 . S
C1305 N1313 1.427 . S
C1306 H1297 0.930 . S
C1306 C1304 1.378 . S
C1306 C1307 1.367 . S
C1307 C1306 1.367 . S
C1307 C1309 1.433 . S
C1308 C1304 1.350 . S
C1308 C1305 1.463 . S
C1308 N1312 1.427 . S
C1309 H1299 0.929 . S
C1309 C1307 1.433 . S
C1309 N1312 1.384 . S
C1310 H1301 0.929 . S
C1310 C1302 1.378 . S
C1310 C1305 1.350 . S
C1311 H1298 0.929 . S
C1311 C1303 1.433 . S
C1311 N1313 1.384 . S
N1312 C1308 1.427 . S
N1312 C1309 1.384 . S
N1313 C1305 1.427 . S
N1313 C1311 1.384 . S
H1314 C1320 0.930 . S
H1315 C1324 0.930 . S
H1316 C1329 0.929 . S
H1317 C1327 0.929 . S
H1318 C1322 0.929 . S
H1319 C1328 0.929 . S
C1320 H1314 0.930 . S
C1320 C1321 1.367 . S
C1320 C1328 1.378 . S
C1321 C1320 1.367 . S
C1321 C1329 1.433 . S
C1322 H1318 0.929 . S
C1322 C1324 1.378 . S
C1322 C1326 1.350 . S
C1323 C1326 1.463 . S
C1323 C1328 1.350 . S
C1323 N1331 1.427 . S
C1324 H1315 0.930 . S
C1324 C1322 1.378 . S
C1324 C1325 1.367 . S
C1325 C1324 1.367 . S
C1325 C1327 1.433 . S
C1326 C1322 1.350 . S
C1326 C1323 1.463 . S
C1326 N1330 1.427 . S
C1327 H1317 0.929 . S
C1327 C1325 1.433 . S
C1327 N1330 1.384 . S
C1328 H1319 0.929 . S
C1328 C1320 1.378 . S
C1328 C1323 1.350 . S
C1329 H1316 0.929 . S
C1329 C1321 1.433 . S
C1329 N1331 1.384 . S
N1330 C1326 1.427 . S
N1330 C1327 1.384 . S
N1331 C1323 1.427 . S
N1331 C1329 1.384 . S
H1332 C1338 0.930 . S
H1333 C1342 0.930 . S
H1334 C1347 0.929 . S
H1335 C1345 0.929 . S
H1336 C1340 0.929 . S
H1337 C1346 0.929 . S
C1338 H1332 0.930 . S
C1338 C1339 1.367 . S
C1338 C1346 1.378 . S
C1339 C1338 1.367 . S
C1339 C1347 1.433 . S
C1340 H1336 0.929 . S
C1340 C1342 1.378 . S
C1340 C1344 1.350 . S
C1341 C1344 1.463 . S
C1341 C1346 1.350 . S
C1341 N1349 1.427 . S
C1342 H1333 0.930 . S
C1342 C1340 1.378 . S
C1342 C1343 1.367 . S
C1343 C1342 1.367 . S
C1343 C1345 1.433 . S
C1344 C1340 1.350 . S
C1344 C1341 1.463 . S
C1344 N1348 1.427 . S
C1345 H1335 0.929 . S
C1345 C1343 1.433 . S
C1345 N1348 1.384 . S
C1346 H1337 0.929 . S
C1346 C1338 1.378 . S
C1346 C1341 1.350 . S
C1347 H1334 0.929 . S
C1347 C1339 1.433 . S
C1347 N1349 1.384 . S
N1348 C1344 1.427 . S
N1348 C1345 1.384 . S
N1349 C1341 1.427 . S
N1349 C1347 1.384 . S
H1350 C1356 0.930 . S
H1351 C1360 0.930 . S
H1352 C1365 0.929 . S
H1353 C1363 0.929 . S
H1354 C1358 0.929 . S
H1355 C1364 0.929 . S
C1356 H1350 0.930 . S
C1356 C1357 1.367 . S
C1356 C1364 1.378 . S
C1357 C1356 1.367 . S
C1357 C1365 1.433 . S
C1358 H1354 0.929 . S
C1358 C1360 1.378 . S
C1358 C1362 1.350 . S
C1359 C1362 1.463 . S
C1359 C1364 1.350 . S
C1359 N1367 1.427 . S
C1360 H1351 0.930 . S
C1360 C1358 1.378 . S
C1360 C1361 1.367 . S
C1361 C1360 1.367 . S
C1361 C1363 1.433 . S
C1362 C1358 1.350 . S
C1362 C1359 1.463 . S
C1362 N1366 1.427 . S
C1363 H1353 0.929 . S
C1363 C1361 1.433 . S
C1363 N1366 1.384 . S
C1364 H1355 0.929 . S
C1364 C1356 1.378 . S
C1364 C1359 1.350 . S
C1365 H1352 0.929 . S
C1365 C1357 1.433 . S
C1365 N1367 1.384 . S
N1366 C1362 1.427 . S
N1366 C1363 1.384 . S
N1367 C1359 1.427 . S
N1367 C1365 1.384 . S
C803 C397 1.464 . S
C799 C15 1.468 . S
C821 C450 1.304 . S
C817 C68 1.305 . S
C839 C513 1.540 . S
C835 C107 1.542 . S
C857 C556 1.246 . S
C853 C160 1.247 . S
C871 C185 1.539 . S
C875 C512 1.539 . S
C893 C549 1.318 . S
C889 C252 1.316 . S
C911 C390 1.467 . S
C907 C277 1.466 . S
C929 C443 1.234 . S
C925 C330 1.234 . S
C947 C496 1.475 . S
C943 C323 1.469 . S
C965 C565 1.796 . S
C961 C192 1.798 . S
C983 C406 1.557 . S
C979 C245 1.556 . S
C1001 C459 1.733 . S
C997 C284 1.733 . S
C1019 C407 1.543 . S
C1015 C61 1.542 . S
C1037 C460 1.804 . S
C1033 C114 1.805 . S
C1055 C503 1.485 . S
C1051 C153 1.483 . S
C1073 C566 1.718 . S
C1069 C22 1.717 . S
C1091 C609 1.437 . S
C1087 C337 1.437 . S
C1105 C206 1.670 . S
C1109 C662 1.668 . S
C1123 C231 1.582 . S
C1127 C724 1.581 . S
C1141 C298 1.680 . S
C1145 C778 1.681 . S
C1159 C47 1.508 . S
C1163 C725 1.507 . S
C1177 C100 1.757 . S
C1181 C777 1.755 . S
C1195 C139 1.502 . S
C1199 C602 1.502 . S
C1217 C655 1.603 . S
C1213 C8 1.602 . S
C1235 C715 1.456 . S
C1231 C1 1.451 . S
C1249 C54 1.360 . S
C1253 C761 1.356 . S
C1267 C93 1.586 . S
C1271 C618 1.587 . S
C1285 C146 1.318 . S
C1289 C671 1.317 . S
C1307 C619 1.522 . S
C1303 C199 1.520 . S
C1325 C672 1.399 . S
C1321 C238 1.401 . S
C1339 C291 1.509 . S
C1343 C708 1.511 . S
C1361 C768 1.289 . S
C1357 C344 1.284 . S
