# Generated by pormake.
# Topology ssa, (4,4)-cn, num edge types: 1
# Building blocks:
#     Node 0, Type 0, BuildingBlock: NAWXER_clean_sbu_0, # of connection points: 4
#     Node 1, Type 0, BuildingBlock: NAWXER_clean_sbu_0, # of connection points: 4
#     Node 2, Type 0, BuildingBlock: NAWXER_clean_sbu_0, # of connection points: 4
#     Node 3, Type 0, BuildingBlock: NAWXER_clean_sbu_0, # of connection points: 4
#     Node 4, Type 0, BuildingBlock: NAWXER_clean_sbu_0, # of connection points: 4
#     Node 5, Type 0, BuildingBlock: NAWXER_clean_sbu_0, # of connection points: 4
#     Node 6, Type 1, BuildingBlock: MUDLON_clean_linker_0, # of connection points: 4
#     Node 7, Type 1, BuildingBlock: MUDLON_clean_linker_0, # of connection points: 4
#     Node 8, Type 1, BuildingBlock: MUDLON_clean_linker_0, # of connection points: 4
#     Node 9, Type 1, BuildingBlock: MUDLON_clean_linker_0, # of connection points: 4
#     Node 10, Type 1, BuildingBlock: MUDLON_clean_linker_0, # of connection points: 4
#     Node 11, Type 1, BuildingBlock: MUDLON_clean_linker_0, # of connection points: 4
#     Edge 12, Type (0, 1), BuildingBlock: AJUNOK_clean_linker_0, # of connection points: 2
#     Edge 13, Type (0, 1), BuildingBlock: AJUNOK_clean_linker_0, # of connection points: 2
#     Edge 14, Type (0, 1), BuildingBlock: AJUNOK_clean_linker_0, # of connection points: 2
#     Edge 15, Type (0, 1), BuildingBlock: AJUNOK_clean_linker_0, # of connection points: 2
#     Edge 16, Type (0, 1), BuildingBlock: AJUNOK_clean_linker_0, # of connection points: 2
#     Edge 17, Type (0, 1), BuildingBlock: AJUNOK_clean_linker_0, # of connection points: 2
#     Edge 18, Type (0, 1), BuildingBlock: AJUNOK_clean_linker_0, # of connection points: 2
#     Edge 19, Type (0, 1), BuildingBlock: AJUNOK_clean_linker_0, # of connection points: 2
#     Edge 20, Type (0, 1), BuildingBlock: AJUNOK_clean_linker_0, # of connection points: 2
#     Edge 21, Type (0, 1), BuildingBlock: AJUNOK_clean_linker_0, # of connection points: 2
#     Edge 22, Type (0, 1), BuildingBlock: AJUNOK_clean_linker_0, # of connection points: 2
#     Edge 23, Type (0, 1), BuildingBlock: AJUNOK_clean_linker_0, # of connection points: 2
#     Edge 24, Type (0, 1), BuildingBlock: AJUNOK_clean_linker_0, # of connection points: 2
#     Edge 25, Type (0, 1), BuildingBlock: AJUNOK_clean_linker_0, # of connection points: 2
#     Edge 26, Type (0, 1), BuildingBlock: AJUNOK_clean_linker_0, # of connection points: 2
#     Edge 27, Type (0, 1), BuildingBlock: AJUNOK_clean_linker_0, # of connection points: 2
#     Edge 28, Type (0, 1), BuildingBlock: AJUNOK_clean_linker_0, # of connection points: 2
#     Edge 29, Type (0, 1), BuildingBlock: AJUNOK_clean_linker_0, # of connection points: 2
#     Edge 30, Type (0, 1), BuildingBlock: AJUNOK_clean_linker_0, # of connection points: 2
#     Edge 31, Type (0, 1), BuildingBlock: AJUNOK_clean_linker_0, # of connection points: 2
#     Edge 32, Type (0, 1), BuildingBlock: AJUNOK_clean_linker_0, # of connection points: 2
#     Edge 33, Type (0, 1), BuildingBlock: AJUNOK_clean_linker_0, # of connection points: 2
#     Edge 34, Type (0, 1), BuildingBlock: AJUNOK_clean_linker_0, # of connection points: 2
#     Edge 35, Type (0, 1), BuildingBlock: AJUNOK_clean_linker_0, # of connection points: 2
# Relax obj value: 0.011
# Max RMSD: 0.048
# Mean RMSD: 0.035
data_MOF--net-ssa--node1-NAWXER_clean_sbu_0--node2-MUDLON_clean_linker_0--edge1-AJUNOK_clean_linker_0
_symmetry_space_group_name_H-M    P1
_symmetry_Int_Tables_number       1
_symmetry_cell_setting            triclinic
loop_
_symmetry_equiv_pos_as_xyz
'x, y, z'
_cell_length_a     55.127215
_cell_length_b     55.190489
_cell_length_c     30.321007
_cell_angle_alpha  89.994181
_cell_angle_beta   89.874558
_cell_angle_gamma 120.05476
loop_
_atom_site_label
_atom_site_type_symbol
_atom_site_fract_x
_atom_site_fract_y
_atom_site_fract_z
_atom_type_partial_charge
C0 C 0.04298 0.54245 0.1072 0.0
C1 C 0.99427 0.45693 0.01815 0.0
O2 O 0.01961 0.52085 0.11666 0.0
Zn3 Zn 0.01833 0.49841 0.06609 0.0
O4 O 0.0566 0.5421 0.07317 0.0
Zn5 Zn 0.05272 0.51521 0.01994 0.0
O6 O 0.05304 0.53801 0.9706 0.0
O7 O 0.0162 0.52336 0.01425 0.0
O8 O 0.01847 0.47501 0.00325 0.0
O9 O 0.98572 0.46181 0.05427 0.0
O10 O 0.05072 0.48935 0.08102 0.0
O11 O 0.08383 0.50863 0.03045 0.0
C12 C 0.03031 0.53747 0.98065 0.0
C13 C 0.07441 0.49425 0.06557 0.0
C14 C 0.53532 0.04619 0.51677 0.0
C15 C 0.56606 0.99285 0.42743 0.0
O16 O 0.5301 0.02292 0.53436 0.0
Zn17 Zn 0.53569 0.98778 0.51989 0.0
O18 O 0.54694 0.05304 0.47898 0.0
Zn19 Zn 0.55091 0.02031 0.47187 0.0
O20 O 0.50783 0.98865 0.46502 0.0
O21 O 0.49713 0.95701 0.51725 0.0
O22 O 0.56842 0.01649 0.41914 0.0
O23 O 0.55462 0.98043 0.46373 0.0
O24 O 0.55937 0.9901 0.56858 0.0
O25 O 0.57969 0.02665 0.52433 0.0
C26 C 0.48979 0.96601 0.48422 0.0
C27 C 0.58032 0.01391 0.5593 0.0
C28 C 0.49999 0.45681 0.94478 0.0
C29 C 0.54445 0.54417 0.02864 0.0
O30 O 0.49938 0.47911 0.93686 0.0
Zn31 Zn 0.52097 0.50058 0.98725 0.0
O32 O 0.5122 0.45535 0.97977 0.0
Zn33 Zn 0.53421 0.48127 0.03478 0.0
O34 O 0.51017 0.46176 0.08443 0.0
O35 O 0.49313 0.48229 0.0422 0.0
O36 O 0.54669 0.52439 0.04683 0.0
O37 O 0.53086 0.53944 0.99278 0.0
O38 O 0.56138 0.5045 0.97553 0.0
O39 O 0.57046 0.48383 0.0303 0.0
C40 C 0.49134 0.46801 0.07662 0.0
C41 C 0.57784 0.49753 0.99432 0.0
C42 C 0.03911 0.53181 0.47801 0.0
C43 C 0.99091 0.44317 0.5597 0.0
O44 O 0.0517 0.53087 0.51282 0.0
Zn45 Zn 0.04708 0.50328 0.56493 0.0
O46 O 0.01606 0.51038 0.46688 0.0
Zn47 Zn 0.01393 0.48651 0.51604 0.0
O48 O 0.00806 0.50776 0.56934 0.0
O49 O 0.0437 0.52352 0.61532 0.0
O50 O 0.98236 0.44868 0.52417 0.0
O51 O 0.01414 0.46164 0.57673 0.0
O52 O 0.07973 0.4989 0.55568 0.0
O53 O 0.04829 0.48023 0.50271 0.0
C54 C 0.02013 0.52084 0.60467 0.0
C55 C 0.07192 0.48581 0.51919 0.0
C56 C 0.49704 0.95875 0.02474 0.0
C57 C 0.46712 0.01435 0.93929 0.0
O58 O 0.5019 0.98145 0.04401 0.0
Zn59 Zn 0.49582 0.01659 0.03218 0.0
O60 O 0.48527 0.95267 0.98713 0.0
Zn61 Zn 0.48089 0.9853 0.98245 0.0
O62 O 0.52396 0.01755 0.97651 0.0
O63 O 0.53407 0.04765 0.03105 0.0
O64 O 0.46408 0.99054 0.92999 0.0
O65 O 0.47821 0.02576 0.97623 0.0
O66 O 0.47164 0.01343 0.08057 0.0
O67 O 0.45146 0.97787 0.0346 0.0
C68 C 0.54162 0.03988 0.99673 0.0
C69 C 0.45058 0.99003 0.07012 0.0
C70 C 0.61411 0.57063 0.58578 0.0
C71 C 0.52746 0.53491 0.50173 0.0
O72 O 0.5923 0.5719 0.59505 0.0
Zn73 Zn 0.57079 0.55343 0.54341 0.0
O74 O 0.6153 0.55974 0.54901 0.0
Zn75 Zn 0.58846 0.54061 0.49291 0.0
O76 O 0.60852 0.56551 0.44472 0.0
O77 O 0.59091 0.58342 0.49108 0.0
O78 O 0.54632 0.53197 0.48161 0.0
O79 O 0.53261 0.54608 0.53976 0.0
O80 O 0.56438 0.51182 0.55027 0.0
O81 O 0.58322 0.50317 0.4923 0.0
C82 C 0.60434 0.58538 0.45539 0.0
C83 C 0.56985 0.49519 0.52852 0.0
H84 H 0.39726 0.49951 0.3097 0.0
N85 N 0.35666 0.44458 0.31794 0.0
H86 H 0.43655 0.52532 0.36004 0.0
H87 H 0.36133 0.42951 0.39948 0.0
H88 H 0.40086 0.45517 0.44994 0.0
H89 H 0.38431 0.41695 0.30926 0.0
H90 H 0.4151 0.42024 0.24903 0.0
H91 H 0.36169 0.47031 0.23799 0.0
H92 H 0.39022 0.47142 0.17566 0.0
H93 H 0.34958 0.49067 0.32747 0.0
H94 H 0.30708 0.40306 0.29314 0.0
H95 H 0.3062 0.49131 0.31916 0.0
H96 H 0.2638 0.40398 0.28169 0.0
H97 H 0.19634 0.49508 0.33392 0.0
H98 H 0.17333 0.50346 0.39661 0.0
H99 H 0.11068 0.41557 0.39862 0.0
H100 H 0.13288 0.4079 0.33426 0.0
H101 H 0.14222 0.41 0.22852 0.0
H102 H 0.11981 0.41978 0.16659 0.0
H103 H 0.16674 0.50792 0.19736 0.0
H104 H 0.18949 0.49808 0.25833 0.0
H105 H 0.22808 0.49003 0.26774 0.0
H106 H 0.27248 0.49026 0.27153 0.0
H107 H 0.22838 0.40519 0.32079 0.0
N108 N 0.17621 0.44606 0.28843 0.0
H109 H 0.18417 0.4048 0.31401 0.0
C110 C 0.37633 0.46249 0.35094 0.0
C111 C 0.39737 0.49004 0.3409 0.0
C112 C 0.41985 0.50473 0.36958 0.0
C113 C 0.42174 0.49221 0.40879 0.0
C114 C 0.39972 0.46549 0.42027 0.0
C115 C 0.37719 0.45079 0.3915 0.0
C116 C 0.37043 0.44305 0.27823 0.0
C117 C 0.38514 0.42844 0.27979 0.0
C118 C 0.40255 0.43013 0.24499 0.0
C119 C 0.40494 0.44577 0.20694 0.0
C120 C 0.3891 0.45936 0.20454 0.0
C121 C 0.37241 0.45843 0.24003 0.0
C122 C 0.33161 0.44647 0.31184 0.0
C123 C 0.33105 0.47151 0.31789 0.0
C124 C 0.30607 0.47197 0.31255 0.0
C125 C 0.28121 0.44764 0.3001 0.0
C126 C 0.28219 0.42298 0.29252 0.0
C127 C 0.307 0.42241 0.2987 0.0
C128 C 0.16578 0.45095 0.32896 0.0
C129 C 0.17771 0.47768 0.34801 0.0
C130 C 0.16479 0.48232 0.38433 0.0
C131 C 0.14012 0.46016 0.40259 0.0
C132 C 0.12946 0.43312 0.38502 0.0
C133 C 0.14208 0.42865 0.34842 0.0
C134 C 0.1673 0.45316 0.24824 0.0
C135 C 0.14813 0.43147 0.22116 0.0
C136 C 0.13524 0.43707 0.1861 0.0
C137 C 0.14116 0.46457 0.17774 0.0
C138 C 0.16177 0.48654 0.20307 0.0
C139 C 0.17473 0.4809 0.23809 0.0
C140 C 0.20279 0.44715 0.28993 0.0
C141 C 0.228 0.47136 0.2787 0.0
C142 C 0.25346 0.47151 0.2814 0.0
C143 C 0.25421 0.44766 0.29623 0.0
C144 C 0.22879 0.42371 0.30808 0.0
C145 C 0.20344 0.42347 0.30463 0.0
H146 H 0.70677 0.09563 0.88133 0.0
N147 N 0.70992 0.12195 0.80638 0.0
H148 H 0.66971 0.07962 0.93756 0.0
H149 H 0.66895 0.13616 0.81105 0.0
H150 H 0.63239 0.12072 0.86722 0.0
H151 H 0.69219 0.14226 0.73911 0.0
H152 H 0.66368 0.11542 0.67605 0.0
H153 H 0.69656 0.07037 0.78333 0.0
H154 H 0.66853 0.04349 0.71978 0.0
H155 H 0.76124 0.13144 0.79125 0.0
H156 H 0.71477 0.17411 0.81284 0.0
H157 H 0.80472 0.17637 0.78775 0.0
H158 H 0.75812 0.21895 0.81221 0.0
H159 H 0.93741 0.31585 0.83919 0.0
H160 H 0.96009 0.3494 0.8992 0.0
H161 H 0.89169 0.36648 0.90012 0.0
H162 H 0.86861 0.33189 0.84116 0.0
H163 H 0.88163 0.34556 0.76531 0.0
H164 H 0.90309 0.37419 0.69967 0.0
H165 H 0.94025 0.32367 0.66734 0.0
H166 H 0.91949 0.29569 0.7342 0.0
H167 H 0.88049 0.256 0.83092 0.0
H168 H 0.8358 0.21224 0.83386 0.0
H169 H 0.7956 0.253 0.77006 0.0
N170 N 0.89092 0.30443 0.79682 0.0
H171 H 0.84022 0.29708 0.76992 0.0
C172 C 0.69082 0.11721 0.84224 0.0
C173 C 0.69102 0.1018 0.8788 0.0
C174 C 0.66991 0.0927 0.91073 0.0
C175 C 0.64843 0.0992 0.90681 0.0
C176 C 0.64905 0.11593 0.87145 0.0
C177 C 0.66995 0.12471 0.83924 0.0
C178 C 0.69655 0.10824 0.76579 0.0
C179 C 0.68753 0.12089 0.73469 0.0
C180 C 0.67136 0.10556 0.69855 0.0
C181 C 0.66403 0.07737 0.69285 0.0
C182 C 0.6738 0.06511 0.72338 0.0
C183 C 0.68992 0.08044 0.75942 0.0
C184 C 0.73477 0.14918 0.80302 0.0
C185 C 0.76048 0.15053 0.79555 0.0
C186 C 0.78534 0.17628 0.79404 0.0
C187 C 0.78516 0.20145 0.80056 0.0
C188 C 0.75919 0.20011 0.80685 0.0
C189 C 0.73423 0.17428 0.80768 0.0
C190 C 0.90159 0.32163 0.83558 0.0
C191 C 0.92708 0.32641 0.85308 0.0
C192 C 0.94 0.34564 0.88715 0.0
C193 C 0.92775 0.36069 0.9043 0.0
C194 C 0.90149 0.35496 0.88806 0.0
C195 C 0.88841 0.33544 0.85407 0.0
C196 C 0.89947 0.31879 0.75505 0.0
C197 C 0.89413 0.34042 0.74395 0.0
C198 C 0.90623 0.35665 0.70618 0.0
C199 C 0.92376 0.35147 0.67882 0.0
C200 C 0.92735 0.32853 0.68834 0.0
C201 C 0.91541 0.31246 0.72627 0.0
C202 C 0.86378 0.27961 0.79978 0.0
C203 C 0.86191 0.25545 0.81798 0.0
C204 C 0.83637 0.23038 0.8191 0.0
C205 C 0.81202 0.22877 0.80138 0.0
C206 C 0.81379 0.25336 0.7842 0.0
C207 C 0.8394 0.27862 0.78375 0.0
H208 H 0.56433 0.86277 0.26731 0.0
N209 N 0.59693 0.88341 0.19334 0.0
H210 H 0.56022 0.89094 0.32612 0.0
H211 H 0.63145 0.93742 0.20839 0.0
H212 H 0.62828 0.96566 0.26807 0.0
H213 H 0.61099 0.9083 0.11496 0.0
H214 H 0.58217 0.92039 0.0685 0.0
H215 H 0.53986 0.86025 0.20001 0.0
H216 H 0.51113 0.87177 0.15349 0.0
H217 H 0.55464 0.82801 0.19645 0.0
H218 H 0.64419 0.88256 0.2024 0.0
H219 H 0.56062 0.78739 0.20172 0.0
H220 H 0.65039 0.84197 0.21009 0.0
H221 H 0.57646 0.67817 0.25944 0.0
H222 H 0.57599 0.65089 0.32275 0.0
H223 H 0.6664 0.69523 0.32324 0.0
H224 H 0.66684 0.72316 0.25969 0.0
H225 H 0.65302 0.70334 0.1604 0.0
H226 H 0.63535 0.66443 0.10793 0.0
H227 H 0.55076 0.64618 0.13346 0.0
H228 H 0.56871 0.68584 0.18461 0.0
H229 H 0.5793 0.72036 0.25049 0.0
H230 H 0.57288 0.76081 0.24793 0.0
H231 H 0.64792 0.80497 0.16855 0.0
N232 N 0.62297 0.71635 0.21333 0.0
H233 H 0.65491 0.76474 0.17334 0.0
C234 C 0.59805 0.89814 0.23321 0.0
C235 C 0.57864 0.88514 0.26764 0.0
C236 C 0.57635 0.90126 0.30125 0.0
C237 C 0.59348 0.93059 0.30104 0.0
C238 C 0.61427 0.94321 0.26839 0.0
C239 C 0.61638 0.92712 0.23469 0.0
C240 C 0.57779 0.88344 0.16096 0.0
C241 C 0.58894 0.89942 0.12256 0.0
C242 C 0.57249 0.90631 0.09614 0.0
C243 C 0.5446 0.89734 0.10793 0.0
C244 C 0.5327 0.87921 0.14405 0.0
C245 C 0.54914 0.87241 0.17049 0.0
C246 C 0.59913 0.85857 0.19821 0.0
C247 C 0.57563 0.83141 0.1991 0.0
C248 C 0.57909 0.80801 0.2026 0.0
C249 C 0.60603 0.81123 0.20596 0.0
C250 C 0.62935 0.83851 0.20643 0.0
C251 C 0.62589 0.8618 0.20239 0.0
C252 C 0.62183 0.70324 0.25507 0.0
C253 C 0.59626 0.6829 0.27381 0.0
C254 C 0.59597 0.66708 0.30996 0.0
C255 C 0.62115 0.67085 0.32761 0.0
C256 C 0.6467 0.6918 0.30996 0.0
C257 C 0.64698 0.70789 0.27406 0.0
C258 C 0.61224 0.69718 0.17681 0.0
C259 C 0.63076 0.6914 0.15369 0.0
C260 C 0.62062 0.66909 0.12412 0.0
C261 C 0.59165 0.65191 0.1176 0.0
C262 C 0.57318 0.65902 0.13812 0.0
C263 C 0.5834 0.68157 0.16751 0.0
C264 C 0.61799 0.73963 0.21262 0.0
C265 C 0.59459 0.73873 0.23295 0.0
C266 C 0.59075 0.76195 0.23105 0.0
C267 C 0.60995 0.78639 0.20825 0.0
C268 C 0.63303 0.78689 0.18733 0.0
C269 C 0.63699 0.76384 0.18971 0.0
H270 H 0.9958 0.6484 0.81579 0.0
N271 N 0.94308 0.6177 0.78786 0.0
H272 H 0.01987 0.63295 0.86677 0.0
H273 H 0.91689 0.57499 0.84787 0.0
H274 H 0.94077 0.55954 0.89829 0.0
H275 H 0.91651 0.56127 0.7718 0.0
H276 H 0.93479 0.53768 0.72627 0.0
H277 H 0.98287 0.64139 0.72652 0.0
H278 H 1.00105 0.61765 0.67986 0.0
H279 H 0.92418 0.63722 0.85276 0.0
H280 H 0.8976 0.59051 0.73072 0.0
H281 H 0.87749 0.63116 0.8619 0.0
H282 H 0.85125 0.58427 0.74057 0.0
H283 H 0.74221 0.60979 0.90016 0.0
H284 H 0.70216 0.58125 0.9486 0.0
H285 H 0.67627 0.51074 0.86148 0.0
H286 H 0.71615 0.53912 0.81349 0.0
H287 H 0.7381 0.56336 0.74621 0.0
H288 H 0.70726 0.56167 0.68738 0.0
H289 H 0.70448 0.63156 0.74595 0.0
H290 H 0.7346 0.6324 0.80602 0.0
H291 H 0.80084 0.64161 0.83213 0.0
H292 H 0.84753 0.64693 0.82441 0.0
H293 H 0.80957 0.55919 0.79202 0.0
N294 N 0.75161 0.59584 0.82077 0.0
H295 H 0.76312 0.55402 0.80018 0.0
C296 C 0.95462 0.61289 0.82759 0.0
C297 C 0.98356 0.62953 0.83496 0.0
C298 C 0.99731 0.62047 0.86343 0.0
C299 C 0.98222 0.59471 0.8854 0.0
C300 C 0.95291 0.5794 0.88146 0.0
C301 C 0.9392 0.58835 0.85281 0.0
C302 C 0.94819 0.60328 0.75231 0.0
C303 C 0.93445 0.5738 0.75089 0.0
C304 C 0.94497 0.5603 0.7249 0.0
C305 C 0.96937 0.57588 0.69969 0.0
C306 C 0.98228 0.6052 0.69926 0.0
C307 C 0.97168 0.61873 0.72523 0.0
C308 C 0.91464 0.61294 0.7926 0.0
C309 C 0.90833 0.62514 0.82841 0.0
C310 C 0.88165 0.62191 0.83345 0.0
C311 C 0.86054 0.60675 0.80239 0.0
C312 C 0.86686 0.59534 0.76575 0.0
C313 C 0.89363 0.59881 0.76041 0.0
C314 C 0.73226 0.5768 0.85317 0.0
C315 C 0.72849 0.58789 0.89247 0.0
C316 C 0.70566 0.57156 0.92009 0.0
C317 C 0.68615 0.54382 0.90867 0.0
C318 C 0.69105 0.53209 0.87097 0.0
C319 C 0.71398 0.54835 0.84356 0.0
C320 C 0.73849 0.59793 0.78096 0.0
C321 C 0.73131 0.57863 0.74624 0.0
C322 C 0.71367 0.57771 0.71243 0.0
C323 C 0.70295 0.59608 0.71258 0.0
C324 C 0.7118 0.61664 0.74559 0.0
C325 C 0.72926 0.6174 0.77956 0.0
C326 C 0.77849 0.59759 0.8166 0.0
C327 C 0.80266 0.62355 0.82353 0.0
C328 C 0.82926 0.6265 0.81927 0.0
C329 C 0.83222 0.60347 0.80757 0.0
C330 C 0.80795 0.57737 0.80063 0.0
C331 C 0.78131 0.57439 0.80536 0.0
H332 H 0.15093 0.67853 0.32532 0.0
N333 N 0.12628 0.70924 0.30208 0.0
H334 H 0.12887 0.63567 0.36904 0.0
H335 H 0.08246 0.69253 0.35574 0.0
H336 H 0.06021 0.64937 0.39982 0.0
H337 H 0.07603 0.68929 0.26518 0.0
H338 H 0.05418 0.64987 0.21368 0.0
H339 H 0.15531 0.69253 0.24844 0.0
H340 H 0.13355 0.65311 0.19749 0.0
H341 H 0.16832 0.72524 0.3654 0.0
H342 H 0.1488 0.74981 0.24089 0.0
H343 H 0.21445 0.76641 0.36383 0.0
H344 H 0.19517 0.79176 0.24048 0.0
H345 H 0.35265 0.86714 0.31388 0.0
H346 H 0.39191 0.88354 0.36497 0.0
H347 H 0.35968 0.92815 0.43895 0.0
H348 H 0.32035 0.91181 0.38728 0.0
H349 H 0.33073 0.93734 0.28909 0.0
H350 H 0.36023 0.96346 0.22607 0.0
H351 H 0.35936 0.88872 0.18136 0.0
H352 H 0.32917 0.86264 0.24363 0.0
H353 H 0.30528 0.8312 0.32099 0.0
H354 H 0.26015 0.78785 0.31695 0.0
H355 H 0.21926 0.83544 0.28913 0.0
N356 N 0.3142 0.88489 0.31182 0.0
H357 H 0.26448 0.87893 0.29414 0.0
C358 C 0.11845 0.68904 0.33749 0.0
C359 C 0.13159 0.6729 0.34252 0.0
C360 C 0.11885 0.64825 0.3672 0.0
C361 C 0.09259 0.63901 0.38687 0.0
C362 C 0.08023 0.65585 0.38417 0.0
C363 C 0.09315 0.68071 0.35981 0.0
C364 C 0.11717 0.69372 0.26118 0.0
C365 C 0.08893 0.6822 0.24915 0.0
C366 C 0.07638 0.6594 0.22045 0.0
C367 C 0.09202 0.64795 0.20289 0.0
C368 C 0.12097 0.66137 0.21103 0.0
C369 C 0.13348 0.68408 0.2399 0.0
C370 C 0.15487 0.73296 0.30171 0.0
C371 C 0.17386 0.73869 0.33684 0.0
C372 C 0.20049 0.76262 0.33632 0.0
C373 C 0.20858 0.78207 0.30175 0.0
C374 C 0.18958 0.77698 0.26741 0.0
C375 C 0.16311 0.75284 0.2675 0.0
C376 C 0.33349 0.88837 0.34668 0.0
C377 C 0.3534 0.87967 0.3418 0.0
C378 C 0.37589 0.88904 0.37108 0.0
C379 C 0.37899 0.90741 0.40545 0.0
C380 C 0.35791 0.91425 0.41236 0.0
C381 C 0.33539 0.90481 0.38314 0.0
C382 C 0.32773 0.89815 0.27095 0.0
C383 C 0.33634 0.9265 0.26496 0.0
C384 C 0.35332 0.94139 0.22922 0.0
C385 C 0.36208 0.92815 0.19872 0.0
C386 C 0.35254 0.8994 0.20381 0.0
C387 C 0.33542 0.88448 0.23953 0.0
C388 C 0.28827 0.85856 0.3085 0.0
C389 C 0.28675 0.83251 0.31423 0.0
C390 C 0.26087 0.80764 0.31189 0.0
C391 C 0.2362 0.80828 0.3028 0.0
C392 C 0.23793 0.83427 0.29588 0.0
C393 C 0.26367 0.85909 0.29894 0.0
H394 H 0.43463 0.10966 0.6264 0.0
N395 N 0.45311 0.13402 0.70436 0.0
H396 H 0.45833 0.09332 0.57592 0.0
H397 H 0.50844 0.14823 0.70818 0.0
H398 H 0.53232 0.13311 0.65731 0.0
H399 H 0.48743 0.15126 0.7768 0.0
H400 H 0.4871 0.12084 0.8358 0.0
H401 H 0.41288 0.08213 0.72171 0.0
H402 H 0.41183 0.05176 0.78155 0.0
H403 H 0.41151 0.14498 0.70563 0.0
H404 H 0.50157 0.18528 0.71209 0.0
H405 H 0.41458 0.19072 0.70771 0.0
H406 H 0.50497 0.2308 0.71171 0.0
H407 H 0.44856 0.34286 0.63807 0.0
H408 H 0.47692 0.38151 0.58723 0.0
H409 H 0.55162 0.38292 0.6331 0.0
H410 H 0.52307 0.34336 0.6823 0.0
H411 H 0.51332 0.35399 0.75205 0.0
H412 H 0.51592 0.38273 0.81429 0.0
H413 H 0.42799 0.35519 0.80049 0.0
H414 H 0.4252 0.32555 0.73777 0.0
H415 H 0.43057 0.27572 0.6598 0.0
H416 H 0.42726 0.22992 0.66239 0.0
H417 H 0.49783 0.26317 0.7515 0.0
N418 N 0.46721 0.32241 0.7 0.0
H419 H 0.50183 0.30887 0.74679 0.0
C420 C 0.46959 0.13018 0.67102 0.0
C421 C 0.45621 0.11546 0.6326 0.0
C422 C 0.46976 0.10622 0.60384 0.0
C423 C 0.49696 0.11162 0.61322 0.0
C424 C 0.51117 0.12832 0.64975 0.0
C425 C 0.49756 0.13726 0.67866 0.0
C426 C 0.45021 0.11884 0.74458 0.0
C427 C 0.47058 0.12974 0.77799 0.0
C428 C 0.47036 0.11231 0.81174 0.0
C429 C 0.44979 0.08375 0.81268 0.0
C430 C 0.42835 0.07347 0.78102 0.0
C431 C 0.42869 0.09085 0.74723 0.0
C432 C 0.45614 0.16148 0.70812 0.0
C433 C 0.43194 0.1637 0.70739 0.0
C434 C 0.43379 0.1899 0.70814 0.0
C435 C 0.46007 0.21463 0.70929 0.0
C436 C 0.48435 0.21232 0.7112 0.0
C437 C 0.48243 0.18606 0.71097 0.0
C438 C 0.48366 0.34054 0.66439 0.0
C439 C 0.47092 0.35082 0.63592 0.0
C440 C 0.48709 0.37281 0.60698 0.0
C441 C 0.51636 0.38509 0.60652 0.0
C442 C 0.52904 0.37367 0.63295 0.0
C443 C 0.51275 0.35121 0.66122 0.0
C444 C 0.46878 0.33699 0.74041 0.0
C445 C 0.49428 0.35324 0.76278 0.0
C446 C 0.49585 0.36993 0.79841 0.0
C447 C 0.47219 0.37121 0.81203 0.0
C448 C 0.44657 0.35465 0.79038 0.0
C449 C 0.44491 0.3376 0.75494 0.0
C450 C 0.46614 0.29579 0.70327 0.0
C451 C 0.4453 0.27304 0.67983 0.0
C452 C 0.44333 0.24681 0.68172 0.0
C453 C 0.46214 0.24264 0.7075 0.0
C454 C 0.48314 0.26556 0.73091 0.0
C455 C 0.48529 0.29189 0.72856 0.0
C456 C 0.12042 0.49829 0.08664 0.0
C457 C 0.09101 0.48441 0.09057 0.0
C458 C 0.13659 0.49138 0.11416 0.0
C459 C 0.1239 0.47005 0.14604 0.0
H460 H 0.13112 0.51531 0.06333 0.0
H461 H 0.1592 0.50309 0.11092 0.0
S462 S 0.04764 0.42643 0.16821 0.0
N463 N 0.04988 0.44747 0.12776 0.0
N464 N 0.08019 0.43475 0.17931 0.0
C465 C 0.0945 0.45543 0.14927 0.0
C466 C 0.0781 0.46254 0.1216 0.0
C467 C 0.60093 0.01863 0.63463 0.0
C468 C 0.60379 0.02857 0.59107 0.0
C469 C 0.62094 0.03415 0.66694 0.0
C470 C 0.64461 0.06023 0.65701 0.0
H471 H 0.58255 0.99923 0.64443 0.0
H472 H 0.61727 0.02614 0.70038 0.0
S473 S 0.66398 0.09403 0.54696 0.0
N474 N 0.63369 0.06513 0.53897 0.0
N475 N 0.6712 0.09406 0.59978 0.0
C476 C 0.64847 0.06979 0.61323 0.0
C477 C 0.62813 0.05401 0.58026 0.0
C478 C 0.54941 0.59172 0.03831 0.0
C479 C 0.55753 0.5721 0.05005 0.0
C480 C 0.56064 0.61766 0.05993 0.0
C481 C 0.58067 0.62503 0.09354 0.0
H482 H 0.53389 0.58684 0.01284 0.0
H483 H 0.5536 0.63204 0.05032 0.0
S484 S 0.60917 0.58141 0.13661 0.0
N485 N 0.58723 0.56223 0.09739 0.0
N486 N 0.60791 0.61063 0.13795 0.0
C487 C 0.58916 0.60577 0.10526 0.0
C488 C 0.5777 0.57941 0.08354 0.0
C489 C 0.02252 0.55595 0.65983 0.0
C490 C 0.00667 0.5336 0.6309 0.0
C491 C 0.0104 0.56976 0.68164 0.0
C492 C 0.98198 0.56153 0.67554 0.0
H493 H 0.04456 0.56322 0.66497 0.0
H494 H 0.0233 0.58687 0.70367 0.0
S495 S 0.93113 0.50384 0.60443 0.0
N496 N 0.96067 0.50341 0.59846 0.0
N497 N 0.93832 0.52968 0.63895 0.0
C498 C 0.96584 0.53903 0.64728 0.0
C499 C 0.97807 0.52499 0.6251 0.0
C500 C 0.42855 0.985 0.14441 0.0
C501 C 0.42632 0.97554 0.10069 0.0
C502 C 0.40733 0.96994 0.17544 0.0
C503 C 0.38297 0.94483 0.16404 0.0
H504 H 0.44725 0.0037 0.15532 0.0
H505 H 0.41052 0.97755 0.20906 0.0
S506 S 0.36519 0.91262 0.05289 0.0
N507 N 0.39659 0.94046 0.04681 0.0
N508 N 0.35669 0.91243 0.10518 0.0
C509 C 0.37988 0.93573 0.12007 0.0
C510 C 0.40151 0.95102 0.08841 0.0
C511 C 0.56184 0.4631 0.5913 0.0
C512 C 0.55977 0.46675 0.54586 0.0
C513 C 0.54921 0.43632 0.61008 0.0
C514 C 0.53351 0.41232 0.58422 0.0
H515 H 0.57273 0.48113 0.61269 0.0
H516 H 0.55051 0.43445 0.64546 0.0
S517 S 0.52238 0.41048 0.46356 0.0
N518 N 0.54195 0.44414 0.47511 0.0
N519 N 0.51727 0.39368 0.51086 0.0
C520 C 0.53188 0.41558 0.53859 0.0
C521 C 0.54532 0.44287 0.51925 0.0
C522 C 0.57829 0.95609 0.40847 0.0
C523 C 0.57513 0.97879 0.39499 0.0
C524 C 0.58481 0.941 0.37815 0.0
C525 C 0.58842 0.94798 0.3331 0.0
H526 H 0.57544 0.94968 0.44275 0.0
H527 H 0.58688 0.92361 0.39004 0.0
S528 S 0.58133 0.0048 0.28024 0.0
N529 N 0.57579 0.00723 0.33316 0.0
N530 N 0.58755 0.97858 0.27617 0.0
C531 C 0.58552 0.97073 0.31914 0.0
C532 C 0.57902 0.98621 0.35005 0.0
C533 C 0.60795 0.50875 0.92764 0.0
C534 C 0.60535 0.50619 0.97379 0.0
C535 C 0.63407 0.51966 0.90695 0.0
C536 C 0.65871 0.52887 0.93164 0.0
H537 H 0.58966 0.50275 0.90729 0.0
H538 H 0.63511 0.52201 0.8714 0.0
S539 S 0.66329 0.52572 0.05325 0.0
N540 N 0.62952 0.51266 0.04356 0.0
N541 N 0.67887 0.53374 0.0045 0.0
C542 C 0.65641 0.52579 0.97773 0.0
C543 C 0.62965 0.51421 0.99884 0.0
C544 C 0.07949 0.57939 0.46297 0.0
C545 C 0.05192 0.55836 0.45258 0.0
C546 C 0.09231 0.60534 0.44171 0.0
C547 C 0.07808 0.6115 0.40935 0.0
H548 H 0.09146 0.57592 0.48792 0.0
H549 H 0.11348 0.62083 0.45098 0.0
S550 S 0.00624 0.56376 0.36812 0.0
N551 N 0.01112 0.54539 0.40653 0.0
N552 N 0.03545 0.59441 0.36631 0.0
C553 C 0.05068 0.59075 0.39806 0.0
C554 C 0.03758 0.56411 0.41963 0.0
C555 C 0.46072 0.05497 0.92013 0.0
C556 C 0.45993 0.03007 0.90698 0.0
C557 C 0.45678 0.07184 0.88974 0.0
C558 C 0.45179 0.06451 0.84494 0.0
H559 H 0.46491 0.06183 0.95413 0.0
H560 H 0.45791 0.09094 0.90135 0.0
S561 S 0.448 0.00178 0.79301 0.0
N562 N 0.4536 0.99894 0.84573 0.0
N563 N 0.44656 0.03084 0.78866 0.0
C564 C 0.45046 0.03947 0.83136 0.0
C565 C 0.45441 0.02222 0.86233 0.0
C566 C 0.49881 0.52264 0.4334 0.0
C567 C 0.50027 0.52561 0.47957 0.0
C568 C 0.47346 0.51272 0.41098 0.0
C569 C 0.44841 0.50508 0.43377 0.0
H570 H 0.51741 0.52785 0.41423 0.0
H571 H 0.47335 0.5102 0.37552 0.0
S572 S 0.44074 0.50962 0.55449 0.0
N573 N 0.47446 0.52085 0.5473 0.0
N574 N 0.42657 0.50185 0.50485 0.0
C575 C 0.4495 0.5083 0.47983 0.0
C576 C 0.47549 0.51874 0.50278 0.0
C577 C 0.98801 0.42661 0.95313 0.0
C578 C 0.97661 0.43128 0.99167 0.0
C579 C 0.97207 0.40368 0.92574 0.0
C580 C 0.94394 0.38422 0.93545 0.0
H581 H 0.00948 0.44098 0.9435 0.0
H582 H 0.98182 0.40151 0.89608 0.0
S583 S 0.90405 0.38578 0.03306 0.0
N584 N 0.93533 0.41386 0.03869 0.0
N585 N 0.90541 0.37047 0.98705 0.0
C586 C 0.9322 0.38826 0.97407 0.0
C587 C 0.94852 0.41176 0.00224 0.0
C588 C 0.99906 0.55784 0.97506 0.0
C589 C 0.02003 0.5537 0.95583 0.0
C590 C 0.98768 0.57194 0.95264 0.0
C591 C 0.99682 0.5826 0.91008 0.0
H592 H 0.99107 0.54994 0.00777 0.0
H593 H 0.97132 0.57422 0.96856 0.0
S594 S 0.05106 0.57754 0.84457 0.0
N595 N 0.04968 0.5618 0.89162 0.0
N596 N 0.02797 0.58815 0.84914 0.0
C597 C 0.01813 0.57918 0.89058 0.0
C598 C 0.02981 0.56478 0.91353 0.0
C599 C 0.44418 0.92181 0.4698 0.0
C600 C 0.46058 0.95118 0.46782 0.0
C601 C 0.4174 0.90761 0.45051 0.0
C602 C 0.40593 0.92238 0.42965 0.0
H603 H 0.45247 0.90968 0.48488 0.0
H604 H 0.40574 0.88494 0.45138 0.0
S605 S 0.43975 0.99949 0.41795 0.0
N606 N 0.46288 0.99454 0.44495 0.0
N607 N 0.41275 0.96795 0.40915 0.0
C608 C 0.42177 0.95176 0.42885 0.0
C609 C 0.44904 0.96613 0.44783 0.0
C610 C 0.49408 0.41104 0.9197 0.0
C611 C 0.48907 0.4334 0.91253 0.0
C612 C 0.4874 0.39034 0.88778 0.0
C613 C 0.47511 0.3909 0.84759 0.0
H614 H 0.50423 0.40995 0.94958 0.0
H615 H 0.49258 0.37414 0.89412 0.0
S616 S 0.45562 0.44338 0.8133 0.0
N617 N 0.46944 0.45376 0.86279 0.0
N618 N 0.45684 0.41464 0.80286 0.0
C619 C 0.46868 0.41224 0.84065 0.0
C620 C 0.47568 0.43354 0.87308 0.0
C621 C 0.07815 0.45992 0.45712 0.0
C622 C 0.0899 0.47787 0.49357 0.0
C623 C 0.09451 0.45394 0.42893 0.0
C624 C 0.12343 0.46551 0.43581 0.0
H625 H 0.05609 0.45076 0.44947 0.0
H626 H 0.08445 0.44079 0.40054 0.0
S627 S 0.16437 0.51207 0.52824 0.0
N628 N 0.1322 0.50614 0.53635 0.0
N629 N 0.16301 0.49446 0.48336 0.0
C630 C 0.13545 0.48278 0.47291 0.0
C631 C 0.11867 0.48895 0.50186 0.0
C632 C 0.58202 0.04141 0.95779 0.0
C633 C 0.57049 0.05591 0.97931 0.0
C634 C 0.608 0.05573 0.93651 0.0
C635 C 0.62325 0.08511 0.9353 0.0
H636 H 0.5706 0.01873 0.95661 0.0
H637 H 0.61562 0.04367 0.91915 0.0
S638 S 0.60313 0.13298 0.98846 0.0
N639 N 0.57698 0.10132 0.00014 0.0
N640 N 0.62577 0.12835 0.9591 0.0
C641 C 0.61246 0.09994 0.95779 0.0
C642 C 0.58612 0.08531 0.9802 0.0
C643 C 0.60046 0.62671 0.43157 0.0
C644 C 0.6121 0.60932 0.425 0.0
C645 C 0.60432 0.64724 0.40069 0.0
C646 C 0.62031 0.65153 0.36234 0.0
H647 H 0.58731 0.62379 0.45997 0.0
H648 H 0.59418 0.65947 0.40638 0.0
S649 S 0.65678 0.61307 0.3304 0.0
N650 N 0.64149 0.59886 0.37785 0.0
N651 N 0.64877 0.6376 0.32001 0.0
C652 C 0.63307 0.6352 0.35612 0.0
C653 C 0.62895 0.61407 0.38736 0.0
C654 C 0.5198 0.08189 0.51896 0.0
C655 C 0.52782 0.06466 0.54131 0.0
C656 C 0.51023 0.09751 0.5423 0.0
C657 C 0.50893 0.0968 0.58868 0.0
H658 H 0.52005 0.08259 0.48325 0.0
H659 H 0.50356 0.11001 0.52401 0.0
S660 S 0.52875 0.05597 0.66262 0.0
N661 N 0.53484 0.0487 0.61243 0.0
N662 N 0.51678 0.07779 0.656 0.0
C663 C 0.51759 0.08022 0.61131 0.0
C664 C 0.52706 0.06422 0.58769 0.0
C665 C 0.46281 0.48216 0.12144 0.0
C666 C 0.46868 0.46119 0.10865 0.0
C667 C 0.44202 0.47683 0.15276 0.0
C668 C 0.42574 0.45008 0.17176 0.0
H669 H 0.47493 0.50312 0.10801 0.0
H670 H 0.43923 0.4941 0.16285 0.0
S671 S 0.43104 0.38716 0.14485 0.0
N672 N 0.45603 0.41246 0.11512 0.0
N673 N 0.41563 0.40171 0.17209 0.0
C674 C 0.43084 0.42862 0.15783 0.0
C675 C 0.45261 0.43434 0.12674 0.0
C676 C 0.94423 0.4036 0.58414 0.0
C677 C 0.97366 0.41668 0.58414 0.0
C678 C 0.92798 0.38168 0.61368 0.0
C679 C 0.9406 0.37185 0.64367 0.0
H680 H 0.93379 0.41132 0.56295 0.0
H681 H 0.90546 0.37289 0.61393 0.0
S682 S 0.01677 0.39763 0.6541 0.0
N683 N 0.01458 0.41692 0.61444 0.0
N684 N 0.98422 0.3761 0.66993 0.0
C685 C 0.9699 0.38385 0.64229 0.0
C686 C 0.98637 0.40616 0.61253 0.0
C687 C 0.51481 0.92487 0.02088 0.0
C688 C 0.50615 0.94056 0.04625 0.0
C689 C 0.52665 0.91024 0.04094 0.0
C690 C 0.52959 0.91033 0.08703 0.0
H691 H 0.51351 0.92482 0.98524 0.0
H692 H 0.53395 0.89916 0.0203 0.0
S693 S 0.50881 0.94693 0.16828 0.0
N694 N 0.50028 0.95429 0.11999 0.0
N695 N 0.52235 0.92683 0.15745 0.0
C696 C 0.52011 0.92514 0.11275 0.0
C697 C 0.50842 0.94023 0.09242 0.0
C698 C 0.66295 0.58216 0.60481 0.0
C699 C 0.63736 0.57986 0.61803 0.0
C700 C 0.68438 0.58827 0.63526 0.0
C701 C 0.68111 0.59234 0.68018 0.0
H702 H 0.66636 0.57874 0.57073 0.0
H703 H 0.70354 0.58945 0.62362 0.0
S704 S 0.61817 0.58834 0.73219 0.0
N705 N 0.61017 0.58242 0.67938 0.0
N706 N 0.65021 0.59339 0.73655 0.0
C707 C 0.65587 0.59063 0.69378 0.0
C708 C 0.63407 0.58453 0.66275 0.0
C709 C 0.07749 0.59334 0.11559 0.0
C710 C 0.05439 0.56886 0.13279 0.0
C711 C 0.08911 0.61885 0.13801 0.0
C712 C 0.07809 0.62107 0.17853 0.0
H713 H 0.08683 0.59295 0.08432 0.0
H714 H 0.10691 0.63701 0.1235 0.0
S715 S 0.0185 0.56347 0.23906 0.0
N716 N 0.0212 0.54859 0.19348 0.0
N717 N 0.04333 0.59667 0.23595 0.0
C718 C 0.055 0.59693 0.19629 0.0
C719 C 0.04309 0.57081 0.17338 0.0
loop_
_geom_bond_atom_site_label_1
_geom_bond_atom_site_label_2
_geom_bond_distance
_geom_bond_site_symmetry_2
_ccdc_geom_bond_type
C0 O2 1.247 . S
C0 O4 1.258 . S
C1 O8 1.247 . S
C1 O9 1.258 . S
O2 C0 1.247 . S
O2 Zn3 2.028 1_455 S
Zn3 O2 2.028 1_655 S
Zn3 O7 2.035 . S
Zn3 O9 2.035 . S
Zn3 O10 2.028 1_655 S
O4 C0 1.258 . S
O4 Zn5 2.035 . S
Zn5 O4 2.035 . S
Zn5 O6 2.028 1_455 S
Zn5 O8 2.028 1_455 S
Zn5 O11 2.035 . S
O6 Zn5 2.028 1_655 S
O6 C12 1.247 . S
O7 Zn3 2.035 . S
O7 C12 1.258 . S
O8 C1 1.247 . S
O8 Zn5 2.028 1_655 S
O9 C1 1.258 . S
O9 Zn3 2.035 . S
O10 Zn3 2.028 1_455 S
O10 C13 1.247 . S
O11 Zn5 2.035 . S
O11 C13 1.258 . S
C12 O6 1.247 . S
C12 O7 1.258 . S
C13 O10 1.247 . S
C13 O11 1.258 . S
C14 O16 1.247 . S
C14 O18 1.258 . S
C15 O22 1.247 . S
C15 O23 1.258 . S
O16 C14 1.247 . S
O16 Zn17 2.028 1_545 S
Zn17 O16 2.028 1_565 S
Zn17 O21 2.035 . S
Zn17 O23 2.035 . S
Zn17 O24 2.028 1_565 S
O18 C14 1.258 . S
O18 Zn19 2.035 . S
Zn19 O18 2.035 . S
Zn19 O20 2.028 1_545 S
Zn19 O22 2.028 1_545 S
Zn19 O25 2.035 . S
O20 Zn19 2.028 1_565 S
O20 C26 1.247 . S
O21 Zn17 2.035 . S
O21 C26 1.258 . S
O22 C15 1.247 . S
O22 Zn19 2.028 1_565 S
O23 C15 1.258 . S
O23 Zn17 2.035 . S
O24 Zn17 2.028 1_545 S
O24 C27 1.247 . S
O25 Zn19 2.035 . S
O25 C27 1.258 . S
C26 O20 1.247 . S
C26 O21 1.258 . S
C27 O24 1.247 . S
C27 O25 1.258 . S
C28 O30 1.247 . S
C28 O32 1.258 1_556 S
C29 O36 1.247 . S
C29 O37 1.258 . S
O30 C28 1.247 . S
O30 Zn31 2.028 . S
Zn31 O30 2.028 . S
Zn31 O35 2.035 1_556 S
Zn31 O37 2.035 1_556 S
Zn31 O38 2.028 . S
O32 C28 1.258 1_554 S
O32 Zn33 2.035 . S
Zn33 O32 2.035 . S
Zn33 O34 2.028 . S
Zn33 O36 2.028 . S
Zn33 O39 2.035 . S
O34 Zn33 2.028 . S
O34 C40 1.247 . S
O35 Zn31 2.035 1_554 S
O35 C40 1.258 . S
O36 C29 1.247 . S
O36 Zn33 2.028 . S
O37 C29 1.258 . S
O37 Zn31 2.035 1_554 S
O38 Zn31 2.028 . S
O38 C41 1.247 . S
O39 Zn33 2.035 . S
O39 C41 1.258 1_554 S
C40 O34 1.247 . S
C40 O35 1.258 . S
C41 O38 1.247 . S
C41 O39 1.258 1_556 S
C42 O44 1.247 . S
C42 O46 1.258 . S
C43 O50 1.247 . S
C43 O51 1.258 . S
O44 C42 1.247 . S
O44 Zn45 2.028 . S
Zn45 O44 2.028 . S
Zn45 O49 2.035 . S
Zn45 O51 2.035 . S
Zn45 O52 2.028 . S
O46 C42 1.258 . S
O46 Zn47 2.035 . S
Zn47 O46 2.035 . S
Zn47 O48 2.028 . S
Zn47 O50 2.028 . S
Zn47 O53 2.035 . S
O48 Zn47 2.028 . S
O48 C54 1.247 . S
O49 Zn45 2.035 . S
O49 C54 1.258 . S
O50 C43 1.247 . S
O50 Zn47 2.028 . S
O51 C43 1.258 . S
O51 Zn45 2.035 . S
O52 Zn45 2.028 . S
O52 C55 1.247 . S
O53 Zn47 2.035 . S
O53 C55 1.258 . S
C54 O48 1.247 . S
C54 O49 1.258 . S
C55 O52 1.247 . S
C55 O53 1.258 . S
C56 O58 1.247 1_565 S
C56 O60 1.258 . S
C57 O64 1.247 . S
C57 O65 1.258 1_556 S
O58 C56 1.247 1_545 S
O58 Zn59 2.028 . S
Zn59 O58 2.028 . S
Zn59 O63 2.035 . S
Zn59 O65 2.035 . S
Zn59 O66 2.028 . S
O60 C56 1.258 . S
O60 Zn61 2.035 1_554 S
Zn61 O60 2.035 1_556 S
Zn61 O62 2.028 1_565 S
Zn61 O64 2.028 1_565 S
Zn61 O67 2.035 1_556 S
O62 Zn61 2.028 1_545 S
O62 C68 1.247 . S
O63 Zn59 2.035 . S
O63 C68 1.258 1_554 S
O64 C57 1.247 . S
O64 Zn61 2.028 1_545 S
O65 C57 1.258 1_554 S
O65 Zn59 2.035 . S
O66 Zn59 2.028 . S
O66 C69 1.247 1_545 S
O67 Zn61 2.035 1_554 S
O67 C69 1.258 . S
C68 O62 1.247 . S
C68 O63 1.258 1_556 S
C69 O66 1.247 1_565 S
C69 O67 1.258 . S
C70 O72 1.247 . S
C70 O74 1.258 . S
C71 O78 1.247 . S
C71 O79 1.258 . S
O72 C70 1.247 . S
O72 Zn73 2.028 . S
Zn73 O72 2.028 . S
Zn73 O77 2.035 . S
Zn73 O79 2.035 . S
Zn73 O80 2.028 . S
O74 C70 1.258 . S
O74 Zn75 2.035 . S
Zn75 O74 2.035 . S
Zn75 O76 2.028 . S
Zn75 O78 2.028 . S
Zn75 O81 2.035 . S
O76 Zn75 2.028 . S
O76 C82 1.247 . S
O77 Zn73 2.035 . S
O77 C82 1.258 . S
O78 C71 1.247 . S
O78 Zn75 2.028 . S
O79 C71 1.258 . S
O79 Zn73 2.035 . S
O80 Zn73 2.028 . S
O80 C83 1.247 . S
O81 Zn75 2.035 . S
O81 C83 1.258 . S
C82 O76 1.247 . S
C82 O77 1.258 . S
C83 O80 1.247 . S
C83 O81 1.258 . S
H84 C111 0.929 . S
N85 C110 1.433 . S
N85 C116 1.435 . S
N85 C122 1.423 . S
H86 C112 0.930 . S
H87 C115 0.931 . S
H88 C114 0.929 . S
H89 C117 0.930 . S
H90 C118 0.932 . S
H91 C121 0.929 . S
H92 C120 0.931 . S
H93 C123 0.929 . S
H94 C127 0.932 . S
H95 C124 0.931 . S
H96 C126 0.929 . S
H97 C129 0.929 . S
H98 C130 0.930 . S
H99 C132 0.929 . S
H100 C133 0.931 . S
H101 C135 0.930 . S
H102 C136 0.932 . S
H103 C138 0.931 . S
H104 C139 0.929 . S
H105 C141 0.929 . S
H106 C142 0.931 . S
H107 C144 0.929 . S
N108 C128 1.433 . S
N108 C134 1.435 . S
N108 C140 1.423 . S
H109 C145 0.932 . S
C110 N85 1.433 . S
C110 C111 1.363 . S
C110 C115 1.370 . S
C111 H84 0.929 . S
C111 C110 1.363 . S
C111 C112 1.385 . S
C112 H86 0.930 . S
C112 C111 1.385 . S
C112 C113 1.357 . S
C113 C112 1.357 . S
C113 C114 1.406 . S
C114 H88 0.929 . S
C114 C113 1.406 . S
C114 C115 1.391 . S
C115 H87 0.931 . S
C115 C110 1.370 . S
C115 C114 1.391 . S
C116 N85 1.435 . S
C116 C117 1.358 . S
C116 C121 1.371 . S
C117 H89 0.930 . S
C117 C116 1.358 . S
C117 C118 1.405 . S
C118 H90 0.932 . S
C118 C117 1.405 . S
C118 C119 1.383 . S
C119 C118 1.383 . S
C119 C120 1.393 . S
C120 H92 0.931 . S
C120 C119 1.393 . S
C120 C121 1.382 . S
C121 H91 0.929 . S
C121 C116 1.371 . S
C121 C120 1.382 . S
C122 N85 1.423 . S
C122 C123 1.362 . S
C122 C127 1.388 . S
C123 H93 0.929 . S
C123 C122 1.362 . S
C123 C124 1.376 . S
C124 H95 0.931 . S
C124 C123 1.376 . S
C124 C125 1.396 . S
C125 C124 1.396 . S
C125 C126 1.348 . S
C125 C143 1.472 . S
C126 H96 0.929 . S
C126 C125 1.348 . S
C126 C127 1.443 . S
C127 H94 0.932 . S
C127 C122 1.388 . S
C127 C126 1.443 . S
C128 N108 1.433 . S
C128 C129 1.363 . S
C128 C133 1.370 . S
C129 H97 0.929 . S
C129 C128 1.363 . S
C129 C130 1.385 . S
C130 H98 0.930 . S
C130 C129 1.385 . S
C130 C131 1.357 . S
C131 C130 1.357 . S
C131 C132 1.406 . S
C132 H99 0.929 . S
C132 C131 1.406 . S
C132 C133 1.391 . S
C133 H100 0.931 . S
C133 C128 1.370 . S
C133 C132 1.391 . S
C134 N108 1.435 . S
C134 C135 1.358 . S
C134 C139 1.371 . S
C135 H101 0.930 . S
C135 C134 1.358 . S
C135 C136 1.405 . S
C136 H102 0.932 . S
C136 C135 1.405 . S
C136 C137 1.383 . S
C137 C136 1.383 . S
C137 C138 1.393 . S
C138 H103 0.931 . S
C138 C137 1.393 . S
C138 C139 1.382 . S
C139 H104 0.929 . S
C139 C134 1.371 . S
C139 C138 1.382 . S
C140 N108 1.423 . S
C140 C141 1.362 . S
C140 C145 1.388 . S
C141 H105 0.929 . S
C141 C140 1.362 . S
C141 C142 1.376 . S
C142 H106 0.931 . S
C142 C141 1.376 . S
C142 C143 1.396 . S
C143 C125 1.472 . S
C143 C142 1.396 . S
C143 C144 1.348 . S
C144 H107 0.929 . S
C144 C143 1.348 . S
C144 C145 1.443 . S
C145 H109 0.932 . S
C145 C140 1.388 . S
C145 C144 1.443 . S
H146 C173 0.929 . S
N147 C172 1.433 . S
N147 C178 1.435 . S
N147 C184 1.423 . S
H148 C174 0.930 . S
H149 C177 0.931 . S
H150 C176 0.929 . S
H151 C179 0.930 . S
H152 C180 0.932 . S
H153 C183 0.929 . S
H154 C182 0.931 . S
H155 C185 0.929 . S
H156 C189 0.932 . S
H157 C186 0.931 . S
H158 C188 0.929 . S
H159 C191 0.929 . S
H160 C192 0.930 . S
H161 C194 0.929 . S
H162 C195 0.931 . S
H163 C197 0.930 . S
H164 C198 0.932 . S
H165 C200 0.931 . S
H166 C201 0.929 . S
H167 C203 0.929 . S
H168 C204 0.931 . S
H169 C206 0.929 . S
N170 C190 1.433 . S
N170 C196 1.435 . S
N170 C202 1.423 . S
H171 C207 0.932 . S
C172 N147 1.433 . S
C172 C173 1.363 . S
C172 C177 1.370 . S
C173 H146 0.929 . S
C173 C172 1.363 . S
C173 C174 1.385 . S
C174 H148 0.930 . S
C174 C173 1.385 . S
C174 C175 1.357 . S
C175 C174 1.357 . S
C175 C176 1.406 . S
C176 H150 0.929 . S
C176 C175 1.406 . S
C176 C177 1.391 . S
C177 H149 0.931 . S
C177 C172 1.370 . S
C177 C176 1.391 . S
C178 N147 1.435 . S
C178 C179 1.358 . S
C178 C183 1.371 . S
C179 H151 0.930 . S
C179 C178 1.358 . S
C179 C180 1.405 . S
C180 H152 0.932 . S
C180 C179 1.405 . S
C180 C181 1.383 . S
C181 C180 1.383 . S
C181 C182 1.393 . S
C182 H154 0.931 . S
C182 C181 1.393 . S
C182 C183 1.382 . S
C183 H153 0.929 . S
C183 C178 1.371 . S
C183 C182 1.382 . S
C184 N147 1.423 . S
C184 C185 1.362 . S
C184 C189 1.388 . S
C185 H155 0.929 . S
C185 C184 1.362 . S
C185 C186 1.376 . S
C186 H157 0.931 . S
C186 C185 1.376 . S
C186 C187 1.396 . S
C187 C186 1.396 . S
C187 C188 1.348 . S
C187 C205 1.472 . S
C188 H158 0.929 . S
C188 C187 1.348 . S
C188 C189 1.443 . S
C189 H156 0.932 . S
C189 C184 1.388 . S
C189 C188 1.443 . S
C190 N170 1.433 . S
C190 C191 1.363 . S
C190 C195 1.370 . S
C191 H159 0.929 . S
C191 C190 1.363 . S
C191 C192 1.385 . S
C192 H160 0.930 . S
C192 C191 1.385 . S
C192 C193 1.357 . S
C193 C192 1.357 . S
C193 C194 1.406 . S
C194 H161 0.929 . S
C194 C193 1.406 . S
C194 C195 1.391 . S
C195 H162 0.931 . S
C195 C190 1.370 . S
C195 C194 1.391 . S
C196 N170 1.435 . S
C196 C197 1.358 . S
C196 C201 1.371 . S
C197 H163 0.930 . S
C197 C196 1.358 . S
C197 C198 1.405 . S
C198 H164 0.932 . S
C198 C197 1.405 . S
C198 C199 1.383 . S
C199 C198 1.383 . S
C199 C200 1.393 . S
C200 H165 0.931 . S
C200 C199 1.393 . S
C200 C201 1.382 . S
C201 H166 0.929 . S
C201 C196 1.371 . S
C201 C200 1.382 . S
C202 N170 1.423 . S
C202 C203 1.362 . S
C202 C207 1.388 . S
C203 H167 0.929 . S
C203 C202 1.362 . S
C203 C204 1.376 . S
C204 H168 0.931 . S
C204 C203 1.376 . S
C204 C205 1.396 . S
C205 C187 1.472 . S
C205 C204 1.396 . S
C205 C206 1.348 . S
C206 H169 0.929 . S
C206 C205 1.348 . S
C206 C207 1.443 . S
C207 H171 0.932 . S
C207 C202 1.388 . S
C207 C206 1.443 . S
H208 C235 0.929 . S
N209 C234 1.433 . S
N209 C240 1.435 . S
N209 C246 1.423 . S
H210 C236 0.930 . S
H211 C239 0.931 . S
H212 C238 0.929 . S
H213 C241 0.930 . S
H214 C242 0.932 . S
H215 C245 0.929 . S
H216 C244 0.931 . S
H217 C247 0.929 . S
H218 C251 0.932 . S
H219 C248 0.931 . S
H220 C250 0.929 . S
H221 C253 0.929 . S
H222 C254 0.930 . S
H223 C256 0.929 . S
H224 C257 0.931 . S
H225 C259 0.930 . S
H226 C260 0.932 . S
H227 C262 0.931 . S
H228 C263 0.929 . S
H229 C265 0.929 . S
H230 C266 0.931 . S
H231 C268 0.929 . S
N232 C252 1.433 . S
N232 C258 1.435 . S
N232 C264 1.423 . S
H233 C269 0.932 . S
C234 N209 1.433 . S
C234 C235 1.363 . S
C234 C239 1.370 . S
C235 H208 0.929 . S
C235 C234 1.363 . S
C235 C236 1.385 . S
C236 H210 0.930 . S
C236 C235 1.385 . S
C236 C237 1.357 . S
C237 C236 1.357 . S
C237 C238 1.406 . S
C238 H212 0.929 . S
C238 C237 1.406 . S
C238 C239 1.391 . S
C239 H211 0.931 . S
C239 C234 1.370 . S
C239 C238 1.391 . S
C240 N209 1.435 . S
C240 C241 1.358 . S
C240 C245 1.371 . S
C241 H213 0.930 . S
C241 C240 1.358 . S
C241 C242 1.405 . S
C242 H214 0.932 . S
C242 C241 1.405 . S
C242 C243 1.383 . S
C243 C242 1.383 . S
C243 C244 1.393 . S
C244 H216 0.931 . S
C244 C243 1.393 . S
C244 C245 1.382 . S
C245 H215 0.929 . S
C245 C240 1.371 . S
C245 C244 1.382 . S
C246 N209 1.423 . S
C246 C247 1.362 . S
C246 C251 1.388 . S
C247 H217 0.929 . S
C247 C246 1.362 . S
C247 C248 1.376 . S
C248 H219 0.931 . S
C248 C247 1.376 . S
C248 C249 1.396 . S
C249 C248 1.396 . S
C249 C250 1.348 . S
C249 C267 1.472 . S
C250 H220 0.929 . S
C250 C249 1.348 . S
C250 C251 1.443 . S
C251 H218 0.932 . S
C251 C246 1.388 . S
C251 C250 1.443 . S
C252 N232 1.433 . S
C252 C253 1.363 . S
C252 C257 1.370 . S
C253 H221 0.929 . S
C253 C252 1.363 . S
C253 C254 1.385 . S
C254 H222 0.930 . S
C254 C253 1.385 . S
C254 C255 1.357 . S
C255 C254 1.357 . S
C255 C256 1.406 . S
C256 H223 0.929 . S
C256 C255 1.406 . S
C256 C257 1.391 . S
C257 H224 0.931 . S
C257 C252 1.370 . S
C257 C256 1.391 . S
C258 N232 1.435 . S
C258 C259 1.358 . S
C258 C263 1.371 . S
C259 H225 0.930 . S
C259 C258 1.358 . S
C259 C260 1.405 . S
C260 H226 0.932 . S
C260 C259 1.405 . S
C260 C261 1.383 . S
C261 C260 1.383 . S
C261 C262 1.393 . S
C262 H227 0.931 . S
C262 C261 1.393 . S
C262 C263 1.382 . S
C263 H228 0.929 . S
C263 C258 1.371 . S
C263 C262 1.382 . S
C264 N232 1.423 . S
C264 C265 1.362 . S
C264 C269 1.388 . S
C265 H229 0.929 . S
C265 C264 1.362 . S
C265 C266 1.376 . S
C266 H230 0.931 . S
C266 C265 1.376 . S
C266 C267 1.396 . S
C267 C249 1.472 . S
C267 C266 1.396 . S
C267 C268 1.348 . S
C268 H231 0.929 . S
C268 C267 1.348 . S
C268 C269 1.443 . S
C269 H233 0.932 . S
C269 C264 1.388 . S
C269 C268 1.443 . S
H270 C297 0.929 . S
N271 C296 1.433 . S
N271 C302 1.435 . S
N271 C308 1.423 . S
H272 C298 0.930 . S
H273 C301 0.931 . S
H274 C300 0.929 . S
H275 C303 0.930 . S
H276 C304 0.932 . S
H277 C307 0.929 . S
H278 C306 0.931 . S
H279 C309 0.929 . S
H280 C313 0.932 . S
H281 C310 0.931 . S
H282 C312 0.929 . S
H283 C315 0.929 . S
H284 C316 0.930 . S
H285 C318 0.929 . S
H286 C319 0.931 . S
H287 C321 0.930 . S
H288 C322 0.932 . S
H289 C324 0.931 . S
H290 C325 0.929 . S
H291 C327 0.929 . S
H292 C328 0.931 . S
H293 C330 0.929 . S
N294 C314 1.433 . S
N294 C320 1.435 . S
N294 C326 1.423 . S
H295 C331 0.932 . S
C296 N271 1.433 . S
C296 C297 1.363 . S
C296 C301 1.370 . S
C297 H270 0.929 . S
C297 C296 1.363 . S
C297 C298 1.385 . S
C298 H272 0.930 . S
C298 C297 1.385 . S
C298 C299 1.357 . S
C299 C298 1.357 . S
C299 C300 1.406 . S
C300 H274 0.929 . S
C300 C299 1.406 . S
C300 C301 1.391 . S
C301 H273 0.931 . S
C301 C296 1.370 . S
C301 C300 1.391 . S
C302 N271 1.435 . S
C302 C303 1.358 . S
C302 C307 1.371 . S
C303 H275 0.930 . S
C303 C302 1.358 . S
C303 C304 1.405 . S
C304 H276 0.932 . S
C304 C303 1.405 . S
C304 C305 1.383 . S
C305 C304 1.383 . S
C305 C306 1.393 . S
C306 H278 0.931 . S
C306 C305 1.393 . S
C306 C307 1.382 . S
C307 H277 0.929 . S
C307 C302 1.371 . S
C307 C306 1.382 . S
C308 N271 1.423 . S
C308 C309 1.362 . S
C308 C313 1.388 . S
C309 H279 0.929 . S
C309 C308 1.362 . S
C309 C310 1.376 . S
C310 H281 0.931 . S
C310 C309 1.376 . S
C310 C311 1.396 . S
C311 C310 1.396 . S
C311 C312 1.348 . S
C311 C329 1.472 . S
C312 H282 0.929 . S
C312 C311 1.348 . S
C312 C313 1.443 . S
C313 H280 0.932 . S
C313 C308 1.388 . S
C313 C312 1.443 . S
C314 N294 1.433 . S
C314 C315 1.363 . S
C314 C319 1.370 . S
C315 H283 0.929 . S
C315 C314 1.363 . S
C315 C316 1.385 . S
C316 H284 0.930 . S
C316 C315 1.385 . S
C316 C317 1.357 . S
C317 C316 1.357 . S
C317 C318 1.406 . S
C318 H285 0.929 . S
C318 C317 1.406 . S
C318 C319 1.391 . S
C319 H286 0.931 . S
C319 C314 1.370 . S
C319 C318 1.391 . S
C320 N294 1.435 . S
C320 C321 1.358 . S
C320 C325 1.371 . S
C321 H287 0.930 . S
C321 C320 1.358 . S
C321 C322 1.405 . S
C322 H288 0.932 . S
C322 C321 1.405 . S
C322 C323 1.383 . S
C323 C322 1.383 . S
C323 C324 1.393 . S
C324 H289 0.931 . S
C324 C323 1.393 . S
C324 C325 1.382 . S
C325 H290 0.929 . S
C325 C320 1.371 . S
C325 C324 1.382 . S
C326 N294 1.423 . S
C326 C327 1.362 . S
C326 C331 1.388 . S
C327 H291 0.929 . S
C327 C326 1.362 . S
C327 C328 1.376 . S
C328 H292 0.931 . S
C328 C327 1.376 . S
C328 C329 1.396 . S
C329 C311 1.472 . S
C329 C328 1.396 . S
C329 C330 1.348 . S
C330 H293 0.929 . S
C330 C329 1.348 . S
C330 C331 1.443 . S
C331 H295 0.932 . S
C331 C326 1.388 . S
C331 C330 1.443 . S
H332 C359 0.929 . S
N333 C358 1.433 . S
N333 C364 1.435 . S
N333 C370 1.423 . S
H334 C360 0.930 . S
H335 C363 0.931 . S
H336 C362 0.929 . S
H337 C365 0.930 . S
H338 C366 0.932 . S
H339 C369 0.929 . S
H340 C368 0.931 . S
H341 C371 0.929 . S
H342 C375 0.932 . S
H343 C372 0.931 . S
H344 C374 0.929 . S
H345 C377 0.929 . S
H346 C378 0.930 . S
H347 C380 0.929 . S
H348 C381 0.931 . S
H349 C383 0.930 . S
H350 C384 0.932 . S
H351 C386 0.931 . S
H352 C387 0.929 . S
H353 C389 0.929 . S
H354 C390 0.931 . S
H355 C392 0.929 . S
N356 C376 1.433 . S
N356 C382 1.435 . S
N356 C388 1.423 . S
H357 C393 0.932 . S
C358 N333 1.433 . S
C358 C359 1.363 . S
C358 C363 1.370 . S
C359 H332 0.929 . S
C359 C358 1.363 . S
C359 C360 1.385 . S
C360 H334 0.930 . S
C360 C359 1.385 . S
C360 C361 1.357 . S
C361 C360 1.357 . S
C361 C362 1.406 . S
C362 H336 0.929 . S
C362 C361 1.406 . S
C362 C363 1.391 . S
C363 H335 0.931 . S
C363 C358 1.370 . S
C363 C362 1.391 . S
C364 N333 1.435 . S
C364 C365 1.358 . S
C364 C369 1.371 . S
C365 H337 0.930 . S
C365 C364 1.358 . S
C365 C366 1.405 . S
C366 H338 0.932 . S
C366 C365 1.405 . S
C366 C367 1.383 . S
C367 C366 1.383 . S
C367 C368 1.393 . S
C368 H340 0.931 . S
C368 C367 1.393 . S
C368 C369 1.382 . S
C369 H339 0.929 . S
C369 C364 1.371 . S
C369 C368 1.382 . S
C370 N333 1.423 . S
C370 C371 1.362 . S
C370 C375 1.388 . S
C371 H341 0.929 . S
C371 C370 1.362 . S
C371 C372 1.376 . S
C372 H343 0.931 . S
C372 C371 1.376 . S
C372 C373 1.396 . S
C373 C372 1.396 . S
C373 C374 1.348 . S
C373 C391 1.472 . S
C374 H344 0.929 . S
C374 C373 1.348 . S
C374 C375 1.443 . S
C375 H342 0.932 . S
C375 C370 1.388 . S
C375 C374 1.443 . S
C376 N356 1.433 . S
C376 C377 1.363 . S
C376 C381 1.370 . S
C377 H345 0.929 . S
C377 C376 1.363 . S
C377 C378 1.385 . S
C378 H346 0.930 . S
C378 C377 1.385 . S
C378 C379 1.357 . S
C379 C378 1.357 . S
C379 C380 1.406 . S
C380 H347 0.929 . S
C380 C379 1.406 . S
C380 C381 1.391 . S
C381 H348 0.931 . S
C381 C376 1.370 . S
C381 C380 1.391 . S
C382 N356 1.435 . S
C382 C383 1.358 . S
C382 C387 1.371 . S
C383 H349 0.930 . S
C383 C382 1.358 . S
C383 C384 1.405 . S
C384 H350 0.932 . S
C384 C383 1.405 . S
C384 C385 1.383 . S
C385 C384 1.383 . S
C385 C386 1.393 . S
C386 H351 0.931 . S
C386 C385 1.393 . S
C386 C387 1.382 . S
C387 H352 0.929 . S
C387 C382 1.371 . S
C387 C386 1.382 . S
C388 N356 1.423 . S
C388 C389 1.362 . S
C388 C393 1.388 . S
C389 H353 0.929 . S
C389 C388 1.362 . S
C389 C390 1.376 . S
C390 H354 0.931 . S
C390 C389 1.376 . S
C390 C391 1.396 . S
C391 C373 1.472 . S
C391 C390 1.396 . S
C391 C392 1.348 . S
C392 H355 0.929 . S
C392 C391 1.348 . S
C392 C393 1.443 . S
C393 H357 0.932 . S
C393 C388 1.388 . S
C393 C392 1.443 . S
H394 C421 0.929 . S
N395 C420 1.433 . S
N395 C426 1.435 . S
N395 C432 1.423 . S
H396 C422 0.930 . S
H397 C425 0.931 . S
H398 C424 0.929 . S
H399 C427 0.930 . S
H400 C428 0.932 . S
H401 C431 0.929 . S
H402 C430 0.931 . S
H403 C433 0.929 . S
H404 C437 0.932 . S
H405 C434 0.931 . S
H406 C436 0.929 . S
H407 C439 0.929 . S
H408 C440 0.930 . S
H409 C442 0.929 . S
H410 C443 0.931 . S
H411 C445 0.930 . S
H412 C446 0.932 . S
H413 C448 0.931 . S
H414 C449 0.929 . S
H415 C451 0.929 . S
H416 C452 0.931 . S
H417 C454 0.929 . S
N418 C438 1.433 . S
N418 C444 1.435 . S
N418 C450 1.423 . S
H419 C455 0.932 . S
C420 N395 1.433 . S
C420 C421 1.363 . S
C420 C425 1.370 . S
C421 H394 0.929 . S
C421 C420 1.363 . S
C421 C422 1.385 . S
C422 H396 0.930 . S
C422 C421 1.385 . S
C422 C423 1.357 . S
C423 C422 1.357 . S
C423 C424 1.406 . S
C424 H398 0.929 . S
C424 C423 1.406 . S
C424 C425 1.391 . S
C425 H397 0.931 . S
C425 C420 1.370 . S
C425 C424 1.391 . S
C426 N395 1.435 . S
C426 C427 1.358 . S
C426 C431 1.371 . S
C427 H399 0.930 . S
C427 C426 1.358 . S
C427 C428 1.405 . S
C428 H400 0.932 . S
C428 C427 1.405 . S
C428 C429 1.383 . S
C429 C428 1.383 . S
C429 C430 1.393 . S
C430 H402 0.931 . S
C430 C429 1.393 . S
C430 C431 1.382 . S
C431 H401 0.929 . S
C431 C426 1.371 . S
C431 C430 1.382 . S
C432 N395 1.423 . S
C432 C433 1.362 . S
C432 C437 1.388 . S
C433 H403 0.929 . S
C433 C432 1.362 . S
C433 C434 1.376 . S
C434 H405 0.931 . S
C434 C433 1.376 . S
C434 C435 1.396 . S
C435 C434 1.396 . S
C435 C436 1.348 . S
C435 C453 1.472 . S
C436 H406 0.929 . S
C436 C435 1.348 . S
C436 C437 1.443 . S
C437 H404 0.932 . S
C437 C432 1.388 . S
C437 C436 1.443 . S
C438 N418 1.433 . S
C438 C439 1.363 . S
C438 C443 1.370 . S
C439 H407 0.929 . S
C439 C438 1.363 . S
C439 C440 1.385 . S
C440 H408 0.930 . S
C440 C439 1.385 . S
C440 C441 1.357 . S
C441 C440 1.357 . S
C441 C442 1.406 . S
C442 H409 0.929 . S
C442 C441 1.406 . S
C442 C443 1.391 . S
C443 H410 0.931 . S
C443 C438 1.370 . S
C443 C442 1.391 . S
C444 N418 1.435 . S
C444 C445 1.358 . S
C444 C449 1.371 . S
C445 H411 0.930 . S
C445 C444 1.358 . S
C445 C446 1.405 . S
C446 H412 0.932 . S
C446 C445 1.405 . S
C446 C447 1.383 . S
C447 C446 1.383 . S
C447 C448 1.393 . S
C448 H413 0.931 . S
C448 C447 1.393 . S
C448 C449 1.382 . S
C449 H414 0.929 . S
C449 C444 1.371 . S
C449 C448 1.382 . S
C450 N418 1.423 . S
C450 C451 1.362 . S
C450 C455 1.388 . S
C451 H415 0.929 . S
C451 C450 1.362 . S
C451 C452 1.376 . S
C452 H416 0.931 . S
C452 C451 1.376 . S
C452 C453 1.396 . S
C453 C435 1.472 . S
C453 C452 1.396 . S
C453 C454 1.348 . S
C454 H417 0.929 . S
C454 C453 1.348 . S
C454 C455 1.443 . S
C455 H419 0.932 . S
C455 C450 1.388 . S
C455 C454 1.443 . S
C456 C457 1.369 . S
C456 C458 1.419 . S
C456 H460 0.930 . S
C457 C456 1.369 . S
C457 C466 1.429 . S
C458 C456 1.419 . S
C458 C459 1.363 . S
C458 H461 0.929 . S
C459 C458 1.363 . S
C459 C465 1.428 . S
H460 C456 0.930 . S
H461 C458 0.929 . S
S462 N463 1.613 . S
S462 N464 1.610 . S
N463 S462 1.613 . S
N463 C466 1.350 . S
N464 S462 1.610 . S
N464 C465 1.351 . S
C465 C459 1.428 . S
C465 N464 1.351 . S
C465 C466 1.434 . S
C466 C457 1.429 . S
C466 N463 1.350 . S
C466 C465 1.434 . S
C467 C468 1.369 . S
C467 C469 1.419 . S
C467 H471 0.930 . S
C468 C467 1.369 . S
C468 C477 1.429 . S
C469 C467 1.419 . S
C469 C470 1.363 . S
C469 H472 0.929 . S
C470 C469 1.363 . S
C470 C476 1.428 . S
H471 C467 0.930 . S
H472 C469 0.929 . S
S473 N474 1.613 . S
S473 N475 1.610 . S
N474 S473 1.613 . S
N474 C477 1.350 . S
N475 S473 1.610 . S
N475 C476 1.351 . S
C476 C470 1.428 . S
C476 N475 1.351 . S
C476 C477 1.434 . S
C477 C468 1.429 . S
C477 N474 1.350 . S
C477 C476 1.434 . S
C478 C479 1.369 . S
C478 C480 1.419 . S
C478 H482 0.930 . S
C479 C478 1.369 . S
C479 C488 1.429 . S
C480 C478 1.419 . S
C480 C481 1.363 . S
C480 H483 0.929 . S
C481 C480 1.363 . S
C481 C487 1.428 . S
H482 C478 0.930 . S
H483 C480 0.929 . S
S484 N485 1.613 . S
S484 N486 1.610 . S
N485 S484 1.613 . S
N485 C488 1.350 . S
N486 S484 1.610 . S
N486 C487 1.351 . S
C487 C481 1.428 . S
C487 N486 1.351 . S
C487 C488 1.434 . S
C488 C479 1.429 . S
C488 N485 1.350 . S
C488 C487 1.434 . S
C489 C490 1.369 . S
C489 C491 1.419 . S
C489 H493 0.930 . S
C490 C489 1.369 . S
C490 C499 1.429 1_455 S
C491 C489 1.419 . S
C491 C492 1.363 1_455 S
C491 H494 0.929 . S
C492 C491 1.363 1_655 S
C492 C498 1.428 . S
H493 C489 0.930 . S
H494 C491 0.929 . S
S495 N496 1.613 . S
S495 N497 1.610 . S
N496 S495 1.613 . S
N496 C499 1.350 . S
N497 S495 1.610 . S
N497 C498 1.351 . S
C498 C492 1.428 . S
C498 N497 1.351 . S
C498 C499 1.434 . S
C499 C490 1.429 1_655 S
C499 N496 1.350 . S
C499 C498 1.434 . S
C500 C501 1.369 . S
C500 C502 1.419 . S
C500 H504 0.930 . S
C501 C500 1.369 . S
C501 C510 1.429 . S
C502 C500 1.419 . S
C502 C503 1.363 . S
C502 H505 0.929 . S
C503 C502 1.363 . S
C503 C509 1.428 . S
H504 C500 0.930 . S
H505 C502 0.929 . S
S506 N507 1.613 1_545 S
S506 N508 1.610 1_545 S
N507 S506 1.613 1_565 S
N507 C510 1.350 . S
N508 S506 1.610 1_565 S
N508 C509 1.351 . S
C509 C503 1.428 . S
C509 N508 1.351 . S
C509 C510 1.434 . S
C510 C501 1.429 . S
C510 N507 1.350 . S
C510 C509 1.434 . S
C511 C512 1.369 . S
C511 C513 1.419 . S
C511 H515 0.930 . S
C512 C511 1.369 . S
C512 C521 1.429 . S
C513 C511 1.419 . S
C513 C514 1.363 . S
C513 H516 0.929 . S
C514 C513 1.363 . S
C514 C520 1.428 . S
H515 C511 0.930 . S
H516 C513 0.929 . S
S517 N518 1.613 . S
S517 N519 1.610 . S
N518 S517 1.613 . S
N518 C521 1.350 . S
N519 S517 1.610 . S
N519 C520 1.351 . S
C520 C514 1.428 . S
C520 N519 1.351 . S
C520 C521 1.434 . S
C521 C512 1.429 . S
C521 N518 1.350 . S
C521 C520 1.434 . S
C522 C523 1.369 . S
C522 C524 1.419 . S
C522 H526 0.930 . S
C523 C522 1.369 . S
C523 C532 1.429 . S
C524 C522 1.419 . S
C524 C525 1.363 . S
C524 H527 0.929 . S
C525 C524 1.363 . S
C525 C531 1.428 . S
H526 C522 0.930 . S
H527 C524 0.929 . S
S528 N529 1.613 . S
S528 N530 1.610 . S
N529 S528 1.613 . S
N529 C532 1.350 . S
N530 S528 1.610 . S
N530 C531 1.351 . S
C531 C525 1.428 . S
C531 N530 1.351 . S
C531 C532 1.434 . S
C532 C523 1.429 . S
C532 N529 1.350 . S
C532 C531 1.434 . S
C533 C534 1.369 . S
C533 C535 1.419 . S
C533 H537 0.930 . S
C534 C533 1.369 . S
C534 C543 1.429 . S
C535 C533 1.419 . S
C535 C536 1.363 . S
C535 H538 0.929 . S
C536 C535 1.363 . S
C536 C542 1.428 . S
H537 C533 0.930 . S
H538 C535 0.929 . S
S539 N540 1.613 . S
S539 N541 1.610 . S
N540 S539 1.613 . S
N540 C543 1.350 . S
N541 S539 1.610 . S
N541 C542 1.351 . S
C542 C536 1.428 . S
C542 N541 1.351 . S
C542 C543 1.434 . S
C543 C534 1.429 . S
C543 N540 1.350 . S
C543 C542 1.434 . S
C544 C545 1.369 . S
C544 C546 1.419 . S
C544 H548 0.930 . S
C545 C544 1.369 . S
C545 C554 1.429 . S
C546 C544 1.419 . S
C546 C547 1.363 . S
C546 H549 0.929 . S
C547 C546 1.363 . S
C547 C553 1.428 . S
H548 C544 0.930 . S
H549 C546 0.929 . S
S550 N551 1.613 . S
S550 N552 1.610 . S
N551 S550 1.613 . S
N551 C554 1.350 . S
N552 S550 1.610 . S
N552 C553 1.351 . S
C553 C547 1.428 . S
C553 N552 1.351 . S
C553 C554 1.434 . S
C554 C545 1.429 . S
C554 N551 1.350 . S
C554 C553 1.434 . S
C555 C556 1.369 . S
C555 C557 1.419 . S
C555 H559 0.930 . S
C556 C555 1.369 . S
C556 C565 1.429 . S
C557 C555 1.419 . S
C557 C558 1.363 . S
C557 H560 0.929 . S
C558 C557 1.363 . S
C558 C564 1.428 . S
H559 C555 0.930 . S
H560 C557 0.929 . S
S561 N562 1.613 . S
S561 N563 1.610 . S
N562 S561 1.613 . S
N562 C565 1.350 . S
N563 S561 1.610 . S
N563 C564 1.351 . S
C564 C558 1.428 . S
C564 N563 1.351 . S
C564 C565 1.434 . S
C565 C556 1.429 . S
C565 N562 1.350 . S
C565 C564 1.434 . S
C566 C567 1.369 . S
C566 C568 1.419 . S
C566 H570 0.930 . S
C567 C566 1.369 . S
C567 C576 1.429 . S
C568 C566 1.419 . S
C568 C569 1.363 . S
C568 H571 0.929 . S
C569 C568 1.363 . S
C569 C575 1.428 . S
H570 C566 0.930 . S
H571 C568 0.929 . S
S572 N573 1.613 . S
S572 N574 1.610 . S
N573 S572 1.613 . S
N573 C576 1.350 . S
N574 S572 1.610 . S
N574 C575 1.351 . S
C575 C569 1.428 . S
C575 N574 1.351 . S
C575 C576 1.434 . S
C576 C567 1.429 . S
C576 N573 1.350 . S
C576 C575 1.434 . S
C577 C578 1.369 . S
C577 C579 1.419 . S
C577 H581 0.930 . S
C578 C577 1.369 . S
C578 C587 1.429 1_556 S
C579 C577 1.419 . S
C579 C580 1.363 . S
C579 H582 0.929 . S
C580 C579 1.363 . S
C580 C586 1.428 1_556 S
H581 C577 0.930 . S
H582 C579 0.929 . S
S583 N584 1.613 . S
S583 N585 1.610 . S
N584 S583 1.613 . S
N584 C587 1.350 . S
N585 S583 1.610 . S
N585 C586 1.351 . S
C586 C580 1.428 1_554 S
C586 N585 1.351 . S
C586 C587 1.434 . S
C587 C578 1.429 1_554 S
C587 N584 1.350 . S
C587 C586 1.434 . S
C588 C589 1.369 1_554 S
C588 C590 1.419 1_554 S
C588 H592 0.930 . S
C589 C588 1.369 1_556 S
C589 C598 1.429 . S
C590 C588 1.419 1_556 S
C590 C591 1.363 . S
C590 H593 0.929 1_556 S
C591 C590 1.363 . S
C591 C597 1.428 . S
H592 C588 0.930 . S
H593 C590 0.929 1_554 S
S594 N595 1.613 . S
S594 N596 1.610 . S
N595 S594 1.613 . S
N595 C598 1.350 . S
N596 S594 1.610 . S
N596 C597 1.351 . S
C597 C591 1.428 . S
C597 N596 1.351 . S
C597 C598 1.434 . S
C598 C589 1.429 . S
C598 N595 1.350 . S
C598 C597 1.434 . S
C599 C600 1.369 . S
C599 C601 1.419 . S
C599 H603 0.930 . S
C600 C599 1.369 . S
C600 C609 1.429 . S
C601 C599 1.419 . S
C601 C602 1.363 . S
C601 H604 0.929 . S
C602 C601 1.363 . S
C602 C608 1.428 . S
H603 C599 0.930 . S
H604 C601 0.929 . S
S605 N606 1.613 1_545 S
S605 N607 1.610 1_545 S
N606 S605 1.613 1_565 S
N606 C609 1.350 . S
N607 S605 1.610 1_565 S
N607 C608 1.351 . S
C608 C602 1.428 . S
C608 N607 1.351 . S
C608 C609 1.434 . S
C609 C600 1.429 . S
C609 N606 1.350 . S
C609 C608 1.434 . S
C610 C611 1.369 . S
C610 C612 1.419 . S
C610 H614 0.930 . S
C611 C610 1.369 . S
C611 C620 1.429 . S
C612 C610 1.419 . S
C612 C613 1.363 . S
C612 H615 0.929 . S
C613 C612 1.363 . S
C613 C619 1.428 . S
H614 C610 0.930 . S
H615 C612 0.929 . S
S616 N617 1.613 . S
S616 N618 1.610 . S
N617 S616 1.613 . S
N617 C620 1.350 . S
N618 S616 1.610 . S
N618 C619 1.351 . S
C619 C613 1.428 . S
C619 N618 1.351 . S
C619 C620 1.434 . S
C620 C611 1.429 . S
C620 N617 1.350 . S
C620 C619 1.434 . S
C621 C622 1.369 . S
C621 C623 1.419 . S
C621 H625 0.930 . S
C622 C621 1.369 . S
C622 C631 1.429 . S
C623 C621 1.419 . S
C623 C624 1.363 . S
C623 H626 0.929 . S
C624 C623 1.363 . S
C624 C630 1.428 . S
H625 C621 0.930 . S
H626 C623 0.929 . S
S627 N628 1.613 . S
S627 N629 1.610 . S
N628 S627 1.613 . S
N628 C631 1.350 . S
N629 S627 1.610 . S
N629 C630 1.351 . S
C630 C624 1.428 . S
C630 N629 1.351 . S
C630 C631 1.434 . S
C631 C622 1.429 . S
C631 N628 1.350 . S
C631 C630 1.434 . S
C632 C633 1.369 . S
C632 C634 1.419 . S
C632 H636 0.930 . S
C633 C632 1.369 . S
C633 C642 1.429 . S
C634 C632 1.419 . S
C634 C635 1.363 . S
C634 H637 0.929 . S
C635 C634 1.363 . S
C635 C641 1.428 . S
H636 C632 0.930 . S
H637 C634 0.929 . S
S638 N639 1.613 . S
S638 N640 1.610 1_554 S
N639 S638 1.613 . S
N639 C642 1.350 1_554 S
N640 S638 1.610 1_556 S
N640 C641 1.351 . S
C641 C635 1.428 . S
C641 N640 1.351 . S
C641 C642 1.434 . S
C642 C633 1.429 . S
C642 N639 1.350 1_556 S
C642 C641 1.434 . S
C643 C644 1.369 . S
C643 C645 1.419 . S
C643 H647 0.930 . S
C644 C643 1.369 . S
C644 C653 1.429 . S
C645 C643 1.419 . S
C645 C646 1.363 . S
C645 H648 0.929 . S
C646 C645 1.363 . S
C646 C652 1.428 . S
H647 C643 0.930 . S
H648 C645 0.929 . S
S649 N650 1.613 . S
S649 N651 1.610 . S
N650 S649 1.613 . S
N650 C653 1.350 . S
N651 S649 1.610 . S
N651 C652 1.351 . S
C652 C646 1.428 . S
C652 N651 1.351 . S
C652 C653 1.434 . S
C653 C644 1.429 . S
C653 N650 1.350 . S
C653 C652 1.434 . S
C654 C655 1.369 . S
C654 C656 1.419 . S
C654 H658 0.930 . S
C655 C654 1.369 . S
C655 C664 1.429 . S
C656 C654 1.419 . S
C656 C657 1.363 . S
C656 H659 0.929 . S
C657 C656 1.363 . S
C657 C663 1.428 . S
H658 C654 0.930 . S
H659 C656 0.929 . S
S660 N661 1.613 . S
S660 N662 1.610 . S
N661 S660 1.613 . S
N661 C664 1.350 . S
N662 S660 1.610 . S
N662 C663 1.351 . S
C663 C657 1.428 . S
C663 N662 1.351 . S
C663 C664 1.434 . S
C664 C655 1.429 . S
C664 N661 1.350 . S
C664 C663 1.434 . S
C665 C666 1.369 . S
C665 C667 1.419 . S
C665 H669 0.930 . S
C666 C665 1.369 . S
C666 C675 1.429 . S
C667 C665 1.419 . S
C667 C668 1.363 . S
C667 H670 0.929 . S
C668 C667 1.363 . S
C668 C674 1.428 . S
H669 C665 0.930 . S
H670 C667 0.929 . S
S671 N672 1.613 . S
S671 N673 1.610 . S
N672 S671 1.613 . S
N672 C675 1.350 . S
N673 S671 1.610 . S
N673 C674 1.351 . S
C674 C668 1.428 . S
C674 N673 1.351 . S
C674 C675 1.434 . S
C675 C666 1.429 . S
C675 N672 1.350 . S
C675 C674 1.434 . S
C676 C677 1.369 1_655 S
C676 C678 1.419 . S
C676 H680 0.930 . S
C677 C676 1.369 1_455 S
C677 C686 1.429 . S
C678 C676 1.419 . S
C678 C679 1.363 . S
C678 H681 0.929 . S
C679 C678 1.363 . S
C679 C685 1.428 1_655 S
H680 C676 0.930 . S
H681 C678 0.929 . S
S682 N683 1.613 . S
S682 N684 1.610 . S
N683 S682 1.613 . S
N683 C686 1.350 . S
N684 S682 1.610 . S
N684 C685 1.351 . S
C685 C679 1.428 1_455 S
C685 N684 1.351 . S
C685 C686 1.434 . S
C686 C677 1.429 . S
C686 N683 1.350 . S
C686 C685 1.434 . S
C687 C688 1.369 . S
C687 C689 1.419 . S
C687 H691 0.930 . S
C688 C687 1.369 . S
C688 C697 1.429 . S
C689 C687 1.419 . S
C689 C690 1.363 . S
C689 H692 0.929 . S
C690 C689 1.363 . S
C690 C696 1.428 . S
H691 C687 0.930 . S
H692 C689 0.929 . S
S693 N694 1.613 . S
S693 N695 1.610 . S
N694 S693 1.613 . S
N694 C697 1.350 . S
N695 S693 1.610 . S
N695 C696 1.351 . S
C696 C690 1.428 . S
C696 N695 1.351 . S
C696 C697 1.434 . S
C697 C688 1.429 . S
C697 N694 1.350 . S
C697 C696 1.434 . S
C698 C699 1.369 . S
C698 C700 1.419 . S
C698 H702 0.930 . S
C699 C698 1.369 . S
C699 C708 1.429 . S
C700 C698 1.419 . S
C700 C701 1.363 . S
C700 H703 0.929 . S
C701 C700 1.363 . S
C701 C707 1.428 . S
H702 C698 0.930 . S
H703 C700 0.929 . S
S704 N705 1.613 . S
S704 N706 1.610 . S
N705 S704 1.613 . S
N705 C708 1.350 . S
N706 S704 1.610 . S
N706 C707 1.351 . S
C707 C701 1.428 . S
C707 N706 1.351 . S
C707 C708 1.434 . S
C708 C699 1.429 . S
C708 N705 1.350 . S
C708 C707 1.434 . S
C709 C710 1.369 . S
C709 C711 1.419 . S
C709 H713 0.930 . S
C710 C709 1.369 . S
C710 C719 1.429 . S
C711 C709 1.419 . S
C711 C712 1.363 . S
C711 H714 0.929 . S
C712 C711 1.363 . S
C712 C718 1.428 . S
H713 C709 0.930 . S
H714 C711 0.929 . S
S715 N716 1.613 . S
S715 N717 1.610 . S
N716 S715 1.613 . S
N716 C719 1.350 . S
N717 S715 1.610 . S
N717 C718 1.351 . S
C718 C712 1.428 . S
C718 N717 1.351 . S
C718 C719 1.434 . S
C719 C710 1.429 . S
C719 N716 1.350 . S
C719 C718 1.434 . S
C457 C13 1.757 . S
C459 C137 1.627 . S
C468 C27 1.927 . S
C470 C181 1.845 . S
C481 C261 1.628 . S
C479 C29 1.721 . S
C492 C305 1.675 . S
C490 C54 1.746 . S
C503 C385 1.762 . S
C501 C69 1.894 . S
C514 C441 1.803 . S
C512 C83 1.985 . S
C523 C15 2.018 . S
C525 C237 1.748 . S
C534 C41 1.770 . S
C536 C317 1.656 . S
C547 C361 1.792 . S
C545 C42 1.995 . S
C558 C429 1.727 . S
C556 C57 1.763 . S
C567 C71 1.806 . S
C569 C113 1.605 . S
C580 C193 1.914 . S
C578 C1 1.990 1_556 S
C591 C299 1.906 . S
C589 C12 1.990 1_556 S
C600 C26 1.805 . S
C602 C379 1.604 . S
C613 C447 1.731 . S
C611 C28 1.759 . S
C622 C55 1.998 . S
C624 C131 1.796 . S
C633 C68 1.772 . S
C635 C175 1.661 . S
C644 C82 2.019 . S
C646 C255 1.748 . S
C655 C14 1.989 . S
C657 C423 1.802 . S
C668 C119 1.762 . S
C666 C40 1.894 . S
C677 C43 1.744 . S
C679 C199 1.674 . S
C688 C56 1.726 . S
C690 C243 1.624 . S
C699 C70 1.921 . S
C701 C323 1.851 . S
C710 C0 1.756 . S
C712 C367 1.626 . S
