# Generated by pormake.
# Topology pto, (3,4)-cn, num edge types: 1
# Building blocks:
#     Node 0, Type 0, BuildingBlock: QEWDON_clean_linker_0, # of connection points: 3
#     Node 1, Type 0, BuildingBlock: QEWDON_clean_linker_0, # of connection points: 3
#     Node 2, Type 0, BuildingBlock: QEWDON_clean_linker_0, # of connection points: 3
#     Node 3, Type 0, BuildingBlock: QEWDON_clean_linker_0, # of connection points: 3
#     Node 4, Type 0, BuildingBlock: QEWDON_clean_linker_0, # of connection points: 3
#     Node 5, Type 0, BuildingBlock: QEWDON_clean_linker_0, # of connection points: 3
#     Node 6, Type 0, BuildingBlock: QEWDON_clean_linker_0, # of connection points: 3
#     Node 7, Type 0, BuildingBlock: QEWDON_clean_linker_0, # of connection points: 3
#     Node 8, Type 1, BuildingBlock: NAWXER_clean_sbu_0, # of connection points: 4
#     Node 9, Type 1, BuildingBlock: NAWXER_clean_sbu_0, # of connection points: 4
#     Node 10, Type 1, BuildingBlock: NAWXER_clean_sbu_0, # of connection points: 4
#     Node 11, Type 1, BuildingBlock: NAWXER_clean_sbu_0, # of connection points: 4
#     Node 12, Type 1, BuildingBlock: NAWXER_clean_sbu_0, # of connection points: 4
#     Node 13, Type 1, BuildingBlock: NAWXER_clean_sbu_0, # of connection points: 4
#     Edge 14, Type (0, 1), BuildingBlock: EZIPEK_clean_linker_0, # of connection points: 2
#     Edge 15, Type (0, 1), BuildingBlock: EZIPEK_clean_linker_0, # of connection points: 2
#     Edge 16, Type (0, 1), BuildingBlock: EZIPEK_clean_linker_0, # of connection points: 2
#     Edge 17, Type (0, 1), BuildingBlock: EZIPEK_clean_linker_0, # of connection points: 2
#     Edge 18, Type (0, 1), BuildingBlock: EZIPEK_clean_linker_0, # of connection points: 2
#     Edge 19, Type (0, 1), BuildingBlock: EZIPEK_clean_linker_0, # of connection points: 2
#     Edge 20, Type (0, 1), BuildingBlock: EZIPEK_clean_linker_0, # of connection points: 2
#     Edge 21, Type (0, 1), BuildingBlock: EZIPEK_clean_linker_0, # of connection points: 2
#     Edge 22, Type (0, 1), BuildingBlock: EZIPEK_clean_linker_0, # of connection points: 2
#     Edge 23, Type (0, 1), BuildingBlock: EZIPEK_clean_linker_0, # of connection points: 2
#     Edge 24, Type (0, 1), BuildingBlock: EZIPEK_clean_linker_0, # of connection points: 2
#     Edge 25, Type (0, 1), BuildingBlock: EZIPEK_clean_linker_0, # of connection points: 2
#     Edge 26, Type (0, 1), BuildingBlock: EZIPEK_clean_linker_0, # of connection points: 2
#     Edge 27, Type (0, 1), BuildingBlock: EZIPEK_clean_linker_0, # of connection points: 2
#     Edge 28, Type (0, 1), BuildingBlock: EZIPEK_clean_linker_0, # of connection points: 2
#     Edge 29, Type (0, 1), BuildingBlock: EZIPEK_clean_linker_0, # of connection points: 2
#     Edge 30, Type (0, 1), BuildingBlock: EZIPEK_clean_linker_0, # of connection points: 2
#     Edge 31, Type (0, 1), BuildingBlock: EZIPEK_clean_linker_0, # of connection points: 2
#     Edge 32, Type (0, 1), BuildingBlock: EZIPEK_clean_linker_0, # of connection points: 2
#     Edge 33, Type (0, 1), BuildingBlock: EZIPEK_clean_linker_0, # of connection points: 2
#     Edge 34, Type (0, 1), BuildingBlock: EZIPEK_clean_linker_0, # of connection points: 2
#     Edge 35, Type (0, 1), BuildingBlock: EZIPEK_clean_linker_0, # of connection points: 2
#     Edge 36, Type (0, 1), BuildingBlock: EZIPEK_clean_linker_0, # of connection points: 2
#     Edge 37, Type (0, 1), BuildingBlock: EZIPEK_clean_linker_0, # of connection points: 2
# Relax obj value: 0.024
# Max RMSD: 0.209
# Mean RMSD: 0.073
data_MOF--net-pto--node1-NAWXER_clean_sbu_0--node2-QEWDON_clean_linker_0--edge1-EZIPEK_clean_linker_0
_symmetry_space_group_name_H-M    P1
_symmetry_Int_Tables_number       1
_symmetry_cell_setting            triclinic
loop_
_symmetry_equiv_pos_as_xyz
'x, y, z'
_cell_length_a     28.950017
_cell_length_b     30.548556
_cell_length_c     29.170516
_cell_angle_alpha  98.105377
_cell_angle_beta   108.28216
_cell_angle_gamma 100.38336
loop_
_atom_site_label
_atom_site_type_symbol
_atom_site_fract_x
_atom_site_fract_y
_atom_site_fract_z
_atom_type_partial_charge
H0 H 0.39255 0.3421 0.22605 0.0
C1 C 0.38499 0.31799 0.24826 0.0
C2 C 0.39277 0.27408 0.23819 0.0
C3 C 0.37006 0.33159 0.28858 0.0
H4 H 0.39442 0.21093 0.26236 0.0
C5 C 0.3862 0.24406 0.26882 0.0
C6 C 0.37244 0.25744 0.30959 0.0
C7 C 0.3627 0.30068 0.31847 0.0
C8 C 0.37074 0.38 0.30459 0.0
H9 H 0.35318 0.31135 0.35073 0.0
C10 C 0.32803 0.39356 0.30922 0.0
C11 C 0.33081 0.43986 0.32641 0.0
C12 C 0.41592 0.41292 0.31763 0.0
H13 H 0.44927 0.40314 0.31483 0.0
C14 C 0.41886 0.45851 0.33547 0.0
H15 H 0.29283 0.36854 0.29876 0.0
C16 C 0.37668 0.47195 0.33992 0.0
H17 H 0.37951 0.50766 0.35312 0.0
H18 H 0.45395 0.48356 0.34572 0.0
H19 H 0.46468 0.84504 0.77443 0.0
C20 C 0.43273 0.82589 0.78078 0.0
C21 C 0.4386 0.81517 0.8273 0.0
C22 C 0.38676 0.80912 0.74167 0.0
H23 H 0.40169 0.7806 0.87075 0.0
C24 C 0.39732 0.78936 0.83513 0.0
C25 C 0.35079 0.77367 0.79654 0.0
C26 C 0.34591 0.78355 0.75006 0.0
C27 C 0.38174 0.81525 0.69104 0.0
H28 H 0.31023 0.77062 0.72007 0.0
C29 C 0.3952 0.85873 0.68148 0.0
C30 C 0.38614 0.86414 0.63254 0.0
C31 C 0.36149 0.77718 0.65153 0.0
H32 H 0.35141 0.74331 0.65809 0.0
C33 C 0.35402 0.7824 0.60321 0.0
H34 H 0.41052 0.8884 0.71157 0.0
C35 C 0.36588 0.82564 0.59364 0.0
H36 H 0.35878 0.82921 0.55576 0.0
H37 H 0.33836 0.75289 0.57302 0.0
H38 H 0.91094 0.71816 0.44692 0.0
C39 C 0.8911 0.72824 0.41342 0.0
C40 C 0.9043 0.719 0.37125 0.0
C41 C 0.85155 0.74917 0.41217 0.0
H42 H 0.88613 0.72302 0.29429 0.0
C43 C 0.87726 0.73114 0.32745 0.0
C44 C 0.83852 0.75348 0.32645 0.0
C45 C 0.82659 0.76298 0.36923 0.0
C46 C 0.83302 0.75314 0.45395 0.0
H47 H 0.79576 0.7789 0.36812 0.0
C48 C 0.82667 0.79509 0.47439 0.0
C49 C 0.80546 0.79809 0.51154 0.0
C50 C 0.8184 0.7142 0.4713 0.0
H51 H 0.82257 0.68143 0.45567 0.0
C52 C 0.79667 0.717 0.5078 0.0
H53 H 0.83842 0.82542 0.46161 0.0
C54 C 0.78982 0.75866 0.52764 0.0
H55 H 0.77324 0.76042 0.55617 0.0
H56 H 0.78495 0.68677 0.52062 0.0
H57 H 0.88305 0.43076 0.87487 0.0
C58 C 0.86597 0.39911 0.84762 0.0
C59 C 0.87759 0.39321 0.80419 0.0
C60 C 0.83566 0.36302 0.85777 0.0
H61 H 0.87112 0.34489 0.73957 0.0
C62 C 0.85898 0.35079 0.77101 0.0
C63 C 0.8294 0.31456 0.78149 0.0
C64 C 0.81577 0.32154 0.82342 0.0
C65 C 0.83412 0.36404 0.90806 0.0
H66 H 0.79527 0.29266 0.83254 0.0
C67 C 0.78862 0.34876 0.91541 0.0
C68 C 0.78866 0.34212 0.96215 0.0
C69 C 0.87943 0.37381 0.94813 0.0
H70 H 0.91495 0.38472 0.94312 0.0
C71 C 0.87956 0.36712 0.99444 0.0
H72 H 0.75344 0.34157 0.88483 0.0
C73 C 0.83459 0.35083 0.00134 0.0
H74 H 0.83547 0.34594 0.03766 0.0
H75 H 0.91467 0.37404 0.02494 0.0
H76 H 0.99827 0.83359 0.93942 0.0
C77 C 0.96398 0.81795 0.94448 0.0
C78 C 0.95124 0.77068 0.941 0.0
C79 C 0.9324 0.84504 0.9537 0.0
H80 H 0.89636 0.71434 0.94494 0.0
C81 C 0.90657 0.75077 0.94755 0.0
C82 C 0.87587 0.77813 0.95902 0.0
C83 C 0.88877 0.82521 0.96162 0.0
C84 C 0.94536 0.89424 0.9553 0.0
H85 H 0.86486 0.84636 0.96986 0.0
C86 C 0.93305 0.91055 0.91139 0.0
C87 C 0.94561 0.95752 0.91299 0.0
C88 C 0.97054 0.92497 1.00073 0.0
H89 H 0.98036 0.9128 0.03484 0.0
C90 C 0.9834 0.97164 0.00232 0.0
H91 H 0.91332 0.88691 0.8762 0.0
C92 C 0.97094 0.98793 0.9587 0.0
H93 H 0.98069 0.02424 0.96053 0.0
H94 H 0.00287 0.99525 0.03747 0.0
H95 H 0.9436 0.32278 0.37315 0.0
C96 C 0.9035 0.31951 0.35809 0.0
C97 C 0.88536 0.35095 0.33097 0.0
C98 C 0.8702 0.28192 0.3624 0.0
H99 H 0.82006 0.369 0.2865 0.0
C100 C 0.83388 0.34581 0.30947 0.0
C101 C 0.80008 0.30914 0.31383 0.0
C102 C 0.81815 0.27774 0.34167 0.0
C103 C 0.89023 0.24363 0.38022 0.0
H104 H 0.79209 0.24791 0.3427 0.0
C105 C 0.87824 0.22462 0.41754 0.0
C106 C 0.8995 0.18916 0.43423 0.0
C107 C 0.9224 0.22596 0.35917 0.0
H108 H 0.93164 0.23953 0.32992 0.0
C109 C 0.94269 0.19046 0.37523 0.0
H110 H 0.85361 0.23787 0.4342 0.0
C111 C 0.93149 0.17222 0.41267 0.0
H112 H 0.94797 0.14492 0.4251 0.0
H113 H 0.96736 0.17718 0.35872 0.0
H114 H 0.34948 0.32394 0.79002 0.0
C115 C 0.32745 0.3466 0.79915 0.0
C116 C 0.34124 0.36952 0.84866 0.0
C117 C 0.28618 0.35397 0.76204 0.0
H118 H 0.32635 0.41894 0.89914 0.0
C119 C 0.31491 0.40049 0.86123 0.0
C120 C 0.27445 0.40842 0.82528 0.0
C121 C 0.25923 0.38441 0.7764 0.0
C122 C 0.27198 0.33211 0.70837 0.0
H123 H 0.22647 0.39025 0.74986 0.0
C124 C 0.2823 0.2899 0.69279 0.0
C125 C 0.26832 0.27081 0.64194 0.0
C126 C 0.24832 0.35446 0.67163 0.0
H127 H 0.24204 0.38787 0.68099 0.0
C128 C 0.23314 0.33475 0.62165 0.0
H129 H 0.30129 0.27195 0.7195 0.0
C130 C 0.24281 0.29317 0.60685 0.0
H131 H 0.23196 0.27909 0.56772 0.0
H132 H 0.21474 0.35234 0.59418 0.0
H133 H 0.33559 0.87454 0.20125 0.0
C134 C 0.31362 0.84504 0.20786 0.0
C135 C 0.29284 0.85005 0.24553 0.0
C136 C 0.30487 0.8015 0.17836 0.0
H137 H 0.24505 0.81631 0.27982 0.0
C138 C 0.26208 0.81212 0.25172 0.0
C139 C 0.25492 0.76861 0.22388 0.0
C140 C 0.27743 0.76345 0.18813 0.0
C141 C 0.31725 0.79455 0.13288 0.0
H142 H 0.27173 0.72983 0.16625 0.0
C143 C 0.36488 0.78925 0.1338 0.0
C144 C 0.37198 0.77253 0.08943 0.0
C145 C 0.27759 0.7847 0.08746 0.0
H146 H 0.24054 0.78787 0.08619 0.0
C147 C 0.2846 0.76852 0.04367 0.0
H148 H 0.39558 0.79645 0.16873 0.0
C149 C 0.33116 0.76174 0.04465 0.0
H150 H 0.33563 0.74862 0.01019 0.0
H151 H 0.25359 0.76037 0.00894 0.0
C152 C 0.01876 0.49269 0.29201 0.0
C153 C 0.13022 0.62035 0.26799 0.0
O154 O 0.05303 0.51574 0.33213 0.0
Zn155 Zn 0.11491 0.57307 0.35532 0.0
O156 O 0.0163 0.50347 0.2509 0.0
Zn157 Zn 0.07262 0.5558 0.27753 0.0
O158 O 0.13551 0.52531 0.30022 0.0
O159 O 0.17166 0.54668 0.3814 0.0
O160 O 0.09017 0.59492 0.23574 0.0
O161 O 0.14274 0.61386 0.31211 0.0
O162 O 0.09479 0.61666 0.39732 0.0
O163 O 0.04551 0.60078 0.31918 0.0
C164 C 0.17013 0.52464 0.34024 0.0
C165 C 0.05678 0.62172 0.36376 0.0
C166 C 0.03204 0.54026 0.80181 0.0
C167 C 0.17496 0.65992 0.81231 0.0
O168 O 0.0639 0.55537 0.84577 0.0
Zn169 Zn 0.1329 0.60682 0.88329 0.0
O170 O 0.03828 0.55746 0.76626 0.0
Zn171 Zn 0.10005 0.60192 0.80582 0.0
O172 O 0.14923 0.55775 0.82765 0.0
O173 O 0.17727 0.56906 0.90941 0.0
O174 O 0.13549 0.64206 0.77499 0.0
O175 O 0.1782 0.64964 0.85405 0.0
O176 O 0.11586 0.64907 0.92791 0.0
O177 O 0.07285 0.64516 0.8498 0.0
C178 C 0.17559 0.54833 0.86767 0.0
C179 C 0.08181 0.66054 0.89568 0.0
C180 C 0.39111 0.02116 0.54648 0.0
C181 C 0.37921 0.13006 0.43905 0.0
O182 O 0.34582 0.02027 0.52102 0.0
Zn183 Zn 0.30697 0.055 0.46844 0.0
O184 O 0.42704 0.0501 0.54362 0.0
Zn185 Zn 0.3868 0.07725 0.49431 0.0
O186 O 0.35112 0.11577 0.53417 0.0
O187 O 0.26961 0.08628 0.50193 0.0
O188 O 0.41925 0.12345 0.46811 0.0
O189 O 0.33648 0.10706 0.4364 0.0
O190 O 0.2726 0.00568 0.4105 0.0
O191 O 0.35479 0.02253 0.43004 0.0
C192 C 0.30665 0.11627 0.53325 0.0
C193 C 0.31134 0.99862 0.40173 0.0
C194 C 0.71077 0.79509 0.14863 0.0
C195 C 0.61106 0.82929 0.99344 0.0
O196 O 0.68356 0.75977 0.11559 0.0
Zn197 Zn 0.63149 0.74317 0.04222 0.0
O198 O 0.70885 0.83456 0.14002 0.0
Zn199 Zn 0.66173 0.81542 0.07206 0.0
O200 O 0.59153 0.78844 0.07926 0.0
O201 O 0.56837 0.71428 0.04892 0.0
O202 O 0.64197 0.85893 0.03076 0.0
O203 O 0.6059 0.78688 0.99404 0.0
O204 O 0.66606 0.70978 0.007 0.0
O205 O 0.70356 0.78293 0.03549 0.0
C206 C 0.55976 0.75024 0.06904 0.0
C207 C 0.70176 0.74347 0.01234 0.0
C208 C 0.89368 0.03705 0.73951 0.0
C209 C 0.88105 0.10117 0.5926 0.0
O210 O 0.84827 0.03323 0.71196 0.0
Zn211 Zn 0.80929 0.0537 0.64552 0.0
O212 O 0.92919 0.05772 0.72782 0.0
Zn213 Zn 0.88888 0.07012 0.66642 0.0
O214 O 0.85883 0.12336 0.69093 0.0
O215 O 0.77683 0.09844 0.66829 0.0
O216 O 0.92074 0.09793 0.62525 0.0
O217 O 0.83814 0.0859 0.59575 0.0
O218 O 0.76966 0.99515 0.60431 0.0
O219 O 0.8514 0.00322 0.62281 0.0
C220 C 0.81619 0.13034 0.68943 0.0
C221 C 0.80649 0.97888 0.60177 0.0
C222 C 0.62609 0.31957 0.15918 0.0
C223 C 0.49845 0.34755 0.0163 0.0
O224 O 0.6011 0.28492 0.12466 0.0
Zn225 Zn 0.54687 0.26686 0.05363 0.0
O226 O 0.61717 0.35851 0.15489 0.0
Zn227 Zn 0.56328 0.33893 0.08961 0.0
O228 O 0.50882 0.29478 0.1057 0.0
O229 O 0.49579 0.22357 0.0666 0.0
O230 O 0.52503 0.37785 0.05497 0.0
O231 O 0.50356 0.3066 0.01259 0.0
O232 O 0.59041 0.25206 0.0161 0.0
O233 O 0.60491 0.3255 0.04477 0.0
C234 C 0.48621 0.25283 0.09591 0.0
C235 C 0.61496 0.29255 0.02075 0.0
C236 C 0.26402 0.4491 0.36382 0.0
C237 C 0.28561 0.45653 0.32722 0.0
C238 C 0.23541 0.51154 0.30346 0.0
C239 C 0.21044 0.5014 0.33697 0.0
N240 N 0.19415 0.45353 0.39199 0.0
N241 N 0.28237 0.48572 0.25398 0.0
C242 C 0.22279 0.46816 0.36524 0.0
C243 C 0.26811 0.48479 0.29436 0.0
N244 N 0.28389 0.42524 0.39824 0.0
N245 N 0.23042 0.5485 0.28245 0.0
H246 H 0.30576 0.466 0.24569 0.0
H247 H 0.26684 0.50229 0.22615 0.0
H248 H 0.20956 0.57098 0.29049 0.0
H249 H 0.25163 0.55991 0.2616 0.0
H250 H 0.27341 0.42305 0.42905 0.0
H251 H 0.31356 0.41037 0.39798 0.0
H252 H 0.19823 0.42614 0.40925 0.0
H253 H 0.16322 0.46603 0.39319 0.0
C254 C 0.29301 0.69713 0.78186 0.0
C255 C 0.30723 0.74441 0.80319 0.0
C256 C 0.2363 0.73593 0.83308 0.0
C257 C 0.21928 0.68958 0.80757 0.0
N258 N 0.22913 0.62633 0.75458 0.0
N259 N 0.28998 0.81041 0.84419 0.0
C260 C 0.24687 0.67034 0.78084 0.0
C261 C 0.27834 0.76424 0.82771 0.0
N262 N 0.32477 0.67752 0.76434 0.0
N263 N 0.21254 0.75283 0.86283 0.0
H264 H 0.32092 0.83212 0.84168 0.0
H265 H 0.26718 0.82768 0.85717 0.0
H266 H 0.18013 0.73406 0.86572 0.0
H267 H 0.22664 0.78443 0.88712 0.0
H268 H 0.31957 0.64254 0.75332 0.0
H269 H 0.359 0.69601 0.76481 0.0
H270 H 0.24397 0.61213 0.72949 0.0
H271 H 0.19764 0.60433 0.75561 0.0
C272 C 0.94317 0.65183 0.38482 0.0
C273 C 0.94589 0.69567 0.37306 0.0
C274 C 0.02468 0.69279 0.35909 0.0
C275 C 0.02377 0.65066 0.3745 0.0
N276 N 0.98826 0.59545 0.41299 0.0
N277 N 0.99615 0.76261 0.36167 0.0
C278 C 0.98516 0.63215 0.39132 0.0
C279 C 0.98877 0.71762 0.364 0.0
N280 N 0.89945 0.62762 0.38667 0.0
N281 N 0.05897 0.70858 0.33847 0.0
H282 H 0.97158 0.78238 0.36665 0.0
H283 H 0.02911 0.7814 0.35987 0.0
H284 H 0.08649 0.69188 0.3353 0.0
H285 H 0.05772 0.73627 0.32135 0.0
H286 H 0.8939 0.59378 0.39018 0.0
H287 H 0.86691 0.63959 0.37949 0.0
H288 H 0.96359 0.58318 0.43023 0.0
H289 H 0.01807 0.57974 0.41746 0.0
C290 C 0.90255 0.46962 0.7842 0.0
C291 C 0.91553 0.42935 0.79755 0.0
C292 C 1.00101 0.45833 0.79962 0.0
C293 C 0.98999 0.50086 0.7933 0.0
N294 N 0.93171 0.54901 0.78293 0.0
N295 N 0.97908 0.38773 0.8248 0.0
C296 C 0.94096 0.507 0.78597 0.0
C297 C 0.96522 0.42413 0.80671 0.0
N298 N 0.85347 0.47182 0.76928 0.0
N299 N 0.04561 0.45049 0.79816 0.0
H300 H 0.95438 0.36217 0.83135 0.0
H301 H 0.01607 0.38491 0.83751 0.0
H302 H 0.07247 0.47481 0.79256 0.0
H303 H 0.05391 0.41867 0.79761 0.0
H304 H 0.84087 0.49837 0.75449 0.0
H305 H 0.82461 0.44511 0.76789 0.0
H306 H 0.89844 0.55715 0.78346 0.0
H307 H 0.95865 0.57676 0.78293 0.0
C308 C 0.34055 0.18249 0.3274 0.0
C309 C 0.37267 0.22669 0.34473 0.0
C310 C 0.40822 0.20894 0.42604 0.0
C311 C 0.38042 0.16308 0.40659 0.0
N312 N 0.33094 0.10394 0.33459 0.0
N313 N 0.44554 0.27851 0.40744 0.0
C314 C 0.34956 0.14917 0.35603 0.0
C315 C 0.40893 0.2391 0.39325 0.0
N316 N 0.30104 0.17244 0.28387 0.0
N317 N 0.43239 0.22437 0.47576 0.0
H318 H 0.44865 0.30102 0.38425 0.0
H319 H 0.47575 0.28657 0.44062 0.0
H320 H 0.43229 0.2038 0.50135 0.0
H321 H 0.44852 0.2587 0.49194 0.0
H322 H 0.27387 0.1418 0.2719 0.0
H323 H 0.29262 0.19646 0.26237 0.0
H324 H 0.31186 0.09203 0.29678 0.0
H325 H 0.33983 0.07833 0.35348 0.0
C326 C 0.52703 0.8063 0.86288 0.0
C327 C 0.48883 0.82825 0.86716 0.0
C328 C 0.54011 0.8646 0.95337 0.0
C329 C 0.5774 0.84125 0.94933 0.0
N330 N 0.61424 0.80364 0.89698 0.0
N331 N 0.46471 0.88782 0.91097 0.0
C332 C 0.57347 0.81706 0.90265 0.0
C333 C 0.49744 0.86077 0.91064 0.0
N334 N 0.51791 0.77288 0.82248 0.0
N335 N 0.54334 0.88752 0.99842 0.0
H336 H 0.43314 0.88561 0.88026 0.0
H337 H 0.47117 0.91507 0.93984 0.0
H338 H 0.5744 0.89247 0.03029 0.0
H339 H 0.5141 0.89976 0.00478 0.0
H340 H 0.54246 0.75231 0.82007 0.0
H341 H 0.48403 0.76291 0.79292 0.0
H342 H 0.61536 0.78906 0.86296 0.0
H343 H 0.64869 0.8116 0.92588 0.0
C344 C 0.76988 0.86748 0.50708 0.0
C345 C 0.80168 0.84304 0.53509 0.0
C346 C 0.82456 0.9031 0.6086 0.0
C347 C 0.79928 0.93057 0.5791 0.0
N348 N 0.75213 0.94117 0.49883 0.0
N349 N 0.86665 0.84165 0.61062 0.0
C350 C 0.77266 0.91332 0.52793 0.0
C351 C 0.83093 0.86184 0.58544 0.0
N352 N 0.7364 0.8466 0.46107 0.0
N353 N 0.84143 0.91591 0.65895 0.0
H354 H 0.87388 0.81206 0.59472 0.0
H355 H 0.89252 0.85678 0.64577 0.0
H356 H 0.83541 0.94502 0.67725 0.0
H357 H 0.85618 0.89516 0.68233 0.0
H358 H 0.70901 0.86126 0.44089 0.0
H359 H 0.73297 0.8129 0.44494 0.0
H360 H 0.73732 0.93194 0.46041 0.0
H361 H 0.7533 0.97487 0.51279 0.0
C362 C 0.73364 0.3593 0.00937 0.0
C363 C 0.74113 0.3296 0.97218 0.0
C364 C 0.6609 0.27761 0.96011 0.0
C365 C 0.65875 0.3034 0.00378 0.0
N366 N 0.70582 0.3624 0.07838 0.0
N367 N 0.71522 0.25595 0.91689 0.0
C368 C 0.69863 0.34251 0.03085 0.0
C369 C 0.70571 0.28734 0.94874 0.0
N370 N 0.7599 0.40379 0.02438 0.0
N371 N 0.61997 0.24555 0.92816 0.0
H372 H 0.74784 0.26149 0.90827 0.0
H373 H 0.69278 0.22296 0.90267 0.0
H374 H 0.58537 0.23946 0.93288 0.0
H375 H 0.61884 0.22884 0.89397 0.0
H376 H 0.75234 0.42756 0.04871 0.0
H377 H 0.78488 0.41792 0.00825 0.0
H378 H 0.7371 0.38843 0.0998 0.0
H379 H 0.6853 0.34957 0.09905 0.0
C380 C 0.36537 0.94033 0.62644 0.0
C381 C 0.39589 0.90993 0.62067 0.0
C382 C 0.42978 0.95642 0.57139 0.0
C383 C 0.40001 0.98734 0.57807 0.0
N384 N 0.35202 0.01617 0.62431 0.0
N385 N 0.46732 0.89616 0.60062 0.0
C386 C 0.37205 0.98174 0.60987 0.0
C387 C 0.43168 0.92055 0.59759 0.0
N388 N 0.32785 0.92854 0.64468 0.0
N389 N 0.45325 0.95895 0.53751 0.0
H390 H 0.46978 0.8699 0.61996 0.0
H391 H 0.49721 0.90496 0.58838 0.0
H392 H 0.45225 0.98388 0.51653 0.0
H393 H 0.47026 0.93388 0.52711 0.0
H394 H 0.30097 0.94718 0.64424 0.0
H395 H 0.32078 0.89819 0.65646 0.0
H396 H 0.335 0.01562 0.65091 0.0
H397 H 0.35725 0.04735 0.61358 0.0
C398 C 0.82746 0.79789 0.25818 0.0
C399 C 0.80706 0.76409 0.27994 0.0
C400 C 0.72306 0.75879 0.22177 0.0
C401 C 0.74399 0.7884 0.19629 0.0
N402 N 0.81782 0.82933 0.18489 0.0
N403 N 0.73689 0.70498 0.27505 0.0
C404 C 0.7967 0.8063 0.21306 0.0
C405 C 0.75522 0.74238 0.25954 0.0
N406 N 0.87567 0.82292 0.28122 0.0
N407 N 0.67236 0.74741 0.21094 0.0
H408 H 0.75953 0.69087 0.30148 0.0
H409 H 0.70037 0.6852 0.25801 0.0
H410 H 0.64763 0.76018 0.18477 0.0
H411 H 0.65541 0.72942 0.23156 0.0
H412 H 0.89075 0.85118 0.26975 0.0
H413 H 0.89926 0.81793 0.31432 0.0
H414 H 0.85635 0.83859 0.19268 0.0
H415 H 0.79694 0.83555 0.15125 0.0
C416 C 0.78697 0.24717 0.71011 0.0
C417 C 0.82408 0.2671 0.75704 0.0
C418 C 0.84784 0.19468 0.76268 0.0
C419 C 0.81464 0.17586 0.71351 0.0
N420 N 0.75833 0.18657 0.63714 0.0
N421 N 0.89592 0.26243 0.82467 0.0
C422 C 0.78532 0.20256 0.68631 0.0
C423 C 0.85619 0.24157 0.7824 0.0
N424 N 0.75304 0.27066 0.68865 0.0
N425 N 0.87057 0.16745 0.79124 0.0
H426 H 0.90339 0.29666 0.84129 0.0
H427 H 0.92416 0.2468 0.84108 0.0
H428 H 0.86617 0.13296 0.7782 0.0
H429 H 0.89007 0.17803 0.8291 0.0
H430 H 0.72177 0.25617 0.65697 0.0
H431 H 0.75412 0.30376 0.70474 0.0
H432 H 0.74076 0.20647 0.61432 0.0
H433 H 0.75688 0.1546 0.61795 0.0
C434 C 0.46489 0.25825 0.21394 0.0
C435 C 0.41398 0.26088 0.19948 0.0
C436 C 0.40569 0.24188 0.11216 0.0
C437 C 0.45664 0.2401 0.12701 0.0
N438 N 0.53012 0.23284 0.18958 0.0
N439 N 0.33279 0.24545 0.13578 0.0
C440 C 0.48438 0.2432 0.17725 0.0
C441 C 0.38323 0.2494 0.14874 0.0
N442 N 0.49545 0.27284 0.26235 0.0
N443 N 0.37972 0.23827 0.06329 0.0
H444 H 0.31549 0.25118 0.16178 0.0
H445 H 0.30765 0.23339 0.09978 0.0
H446 H 0.39507 0.23053 0.03606 0.0
H447 H 0.34416 0.24436 0.04999 0.0
H448 H 0.53407 0.27643 0.2742 0.0
H449 H 0.48313 0.28531 0.29042 0.0
H450 H 0.55093 0.23095 0.22523 0.0
H451 H 0.54478 0.22163 0.16284 0.0
C452 C 0.00607 0.71561 0.96345 0.0
C453 C 0.98499 0.74235 0.93014 0.0
C454 C 0.03634 0.72296 0.88149 0.0
C455 C 0.05097 0.6904 0.90995 0.0
N456 N 0.03778 0.6482 0.97113 0.0
N457 N 0.97143 0.76204 0.85031 0.0
C458 C 0.03269 0.68459 0.94921 0.0
C459 C 0.99755 0.74325 0.88698 0.0
N460 N 1.00218 0.72063 0.00926 0.0
N461 N 0.06066 0.73608 0.8506 0.0
H462 H 0.94104 0.77535 0.85171 0.0
H463 H 0.97649 0.75973 0.81628 0.0
H464 H 0.09164 0.72457 0.84785 0.0
H465 H 0.0539 0.76257 0.83242 0.0
H466 H 0.02096 0.70477 0.03632 0.0
H467 H 0.98494 0.74442 0.02201 0.0
H468 H 0.02096 0.64084 0.99684 0.0
H469 H 0.0533 0.62238 0.95965 0.0
C470 C 0.92206 0.43324 0.33763 0.0
C471 C 0.91963 0.3869 0.32005 0.0
C472 C 0.98068 0.40967 0.2804 0.0
C473 C 0.9805 0.45573 0.29551 0.0
N474 N 0.94161 0.5106 0.32671 0.0
N475 N 0.93708 0.33064 0.26478 0.0
C476 C 0.94825 0.46728 0.32055 0.0
C477 C 0.9462 0.37489 0.28852 0.0
N478 N 0.9008 0.44484 0.37192 0.0
N479 N 0.01476 0.3992 0.25982 0.0
H480 H 0.91128 0.30421 0.26877 0.0
H481 H 0.95162 0.32077 0.23759 0.0
H482 H 0.03973 0.4238 0.25222 0.0
H483 H 0.02054 0.36654 0.25346 0.0
H484 H 0.90584 0.47834 0.38966 0.0
H485 H 0.88199 0.4208 0.38607 0.0
H486 H 0.91452 0.51981 0.34004 0.0
H487 H 0.95959 0.53617 0.31363 0.0
C488 C 0.27122 0.49035 0.83832 0.0
C489 C 0.2503 0.44468 0.83866 0.0
C490 C 0.18687 0.46919 0.86868 0.0
C491 C 0.20494 0.51405 0.86392 0.0
N492 N 0.2627 0.56832 0.84346 0.0
N493 N 0.1874 0.38911 0.85104 0.0
C494 C 0.24689 0.52494 0.84877 0.0
C495 C 0.20801 0.43368 0.85328 0.0
N496 N 0.31484 0.50061 0.82874 0.0
N497 N 0.14962 0.46075 0.88803 0.0
H498 H 0.20283 0.36248 0.84123 0.0
H499 H 0.1535 0.37791 0.85596 0.0
H500 H 0.13255 0.48579 0.89848 0.0
H501 H 0.13761 0.42988 0.89682 0.0
H502 H 0.33528 0.53362 0.83336 0.0
H503 H 0.33264 0.47599 0.81877 0.0
H504 H 0.28864 0.57755 0.82653 0.0
H505 H 0.24826 0.59528 0.85436 0.0
C506 C 0.2354 0.72245 0.28274 0.0
C507 C 0.2248 0.72851 0.23368 0.0
C508 C 0.1603 0.65736 0.20609 0.0
C509 C 0.16294 0.65744 0.25578 0.0
N510 N 0.19651 0.70278 0.3405 0.0
N511 N 0.16733 0.70593 0.14899 0.0
C512 C 0.19869 0.69347 0.29411 0.0
C513 C 0.18425 0.6973 0.19526 0.0
N514 N 0.28038 0.74402 0.31859 0.0
N515 N 0.13811 0.61904 0.16962 0.0
H516 H 0.18169 0.73608 0.14005 0.0
H517 H 0.13528 0.68523 0.12126 0.0
H518 H 0.12652 0.58708 0.1764 0.0
H519 H 0.13848 0.61786 0.13383 0.0
H520 H 0.29047 0.73762 0.35418 0.0
H521 H 0.30944 0.76383 0.31116 0.0
H522 H 0.22064 0.73085 0.36738 0.0
H523 H 0.167 0.6877 0.35042 0.0
C524 C 0.9572 0.97229 0.83407 0.0
C525 C 0.93037 0.97536 0.86704 0.0
C526 C 0.87913 0.01911 0.81711 0.0
C527 C 0.90453 0.01438 0.78261 0.0
N528 N 0.9564 0.97376 0.75117 0.0
N529 N 0.85859 0.99209 0.88427 0.0
C530 C 0.94046 0.98741 0.78909 0.0
C531 C 0.88915 0.99589 0.85681 0.0
N532 N 0.99935 0.95581 0.84612 0.0
N533 N 0.84681 0.04705 0.81344 0.0
H534 H 0.86482 0.97551 0.91377 0.0
H535 H 0.82458 0.00158 0.87506 0.0
H536 H 0.83607 0.06331 0.78428 0.0
H537 H 0.83302 0.05667 0.8413 0.0
H538 H 0.02357 0.95759 0.82614 0.0
H539 H 0.01235 0.94372 0.87836 0.0
H540 H 0.97868 0.95041 0.75222 0.0
H541 H 0.94266 0.98133 0.7164 0.0
C542 C 0.73498 0.27463 0.23216 0.0
C543 C 0.74741 0.30067 0.28022 0.0
C544 C 0.67332 0.33168 0.25108 0.0
C545 C 0.66736 0.31304 0.20151 0.0
N546 N 0.69917 0.27151 0.14524 0.0
N547 N 0.72952 0.35481 0.33651 0.0
C548 C 0.69949 0.28524 0.19209 0.0
C549 C 0.71654 0.32917 0.2901 0.0
N550 N 0.75829 0.24062 0.22439 0.0
N551 N 0.63706 0.35019 0.26108 0.0
H552 H 0.75941 0.35163 0.36616 0.0
H553 H 0.71219 0.38037 0.34489 0.0
H554 H 0.60407 0.35098 0.23365 0.0
H555 H 0.63738 0.36054 0.29678 0.0
H556 H 0.74675 0.21739 0.19085 0.0
H557 H 0.78548 0.23239 0.25261 0.0
H558 H 0.72623 0.25637 0.1377 0.0
H559 H 0.6757 0.27915 0.11399 0.0
C560 C 0.25845 0.18531 0.62103 0.0
C561 C 0.28441 0.23017 0.62346 0.0
C562 C 0.32207 0.20032 0.56536 0.0
C563 C 0.29896 0.15502 0.56508 0.0
N564 N 0.25392 0.10431 0.60138 0.0
N565 N 0.35175 0.27886 0.6096 0.0
C566 C 0.26969 0.14741 0.59557 0.0
C567 C 0.32008 0.23699 0.59971 0.0
N568 N 0.22189 0.17896 0.6414 0.0
N569 N 0.34262 0.20894 0.53033 0.0
H570 H 0.35141 0.30646 0.63496 0.0
H571 H 0.38158 0.28472 0.5967 0.0
H572 H 0.34112 0.18368 0.50158 0.0
H573 H 0.35558 0.24172 0.52615 0.0
H574 H 0.19774 0.14746 0.63599 0.0
H575 H 0.21374 0.20585 0.66128 0.0
H576 H 0.23655 0.09719 0.62671 0.0
H577 H 0.26235 0.07604 0.58418 0.0
C578 C 0.44645 0.73595 0.11179 0.0
C579 C 0.42191 0.76735 0.08794 0.0
C580 C 0.48095 0.7766 0.04388 0.0
C581 C 0.50985 0.75095 0.07272 0.0
N582 N 0.52334 0.70987 0.1385 0.0
N583 N 0.42463 0.82622 0.04085 0.0
C584 C 0.49358 0.73159 0.10805 0.0
C585 C 0.44196 0.79037 0.05697 0.0
N586 N 0.42394 0.70887 0.13596 0.0
N587 N 0.48905 0.78599 0.00229 0.0
H588 H 0.39758 0.8389 0.05154 0.0
H589 H 0.44109 0.84632 0.02142 0.0
H590 H 0.51506 0.7736 0.98962 0.0
H591 H 0.46543 0.80058 0.97728 0.0
H592 H 0.43784 0.68242 0.14978 0.0
H593 H 0.38906 0.71017 0.13845 0.0
H594 H 0.51602 0.69938 0.16851 0.0
H595 H 0.55719 0.70512 0.13557 0.0
C596 C 0.91597 0.19237 0.52474 0.0
C597 C 0.88963 0.16933 0.4749 0.0
C598 C 0.85951 0.10086 0.50219 0.0
C599 C 0.8839 0.12461 0.55207 0.0
N600 N 0.92491 0.19598 0.61069 0.0
N601 N 0.82808 0.10568 0.41598 0.0
C602 C 0.90916 0.17129 0.56337 0.0
C603 C 0.8587 0.12479 0.46361 0.0
N604 N 0.94895 0.23365 0.53527 0.0
N605 N 0.83915 0.05501 0.49163 0.0
H606 H 0.82658 0.12248 0.38697 0.0
H607 H 0.80098 0.07519 0.40595 0.0
H608 H 0.83977 0.0361 0.51883 0.0
H609 H 0.82551 0.03493 0.45608 0.0
H610 H 0.97364 0.24948 0.57072 0.0
H611 H 0.95428 0.25072 0.50811 0.0
H612 H 0.93865 0.2312 0.62016 0.0
H613 H 0.91989 0.18204 0.63993 0.0
C614 C 0.37078 0.33618 0.92265 0.0
C615 C 0.38284 0.3615 0.88908 0.0
C616 C 0.47193 0.3797 0.9402 0.0
C617 C 0.45911 0.35751 0.97561 0.0
N618 N 0.39626 0.32216 0.00558 0.0
N619 N 0.44331 0.41281 0.86853 0.0
C620 C 0.40844 0.3379 0.96824 0.0
C621 C 0.43305 0.38478 0.89851 0.0
N622 N 0.32343 0.30975 0.91036 0.0
N623 N 0.52117 0.39456 0.94562 0.0
H624 H 0.41597 0.41642 0.83699 0.0
H625 H 0.47816 0.4347 0.8766 0.0
H626 H 0.55054 0.39255 0.97642 0.0
H627 H 0.53293 0.4062 0.9183 0.0
H628 H 0.31358 0.28693 0.931 0.0
H629 H 0.29492 0.30751 0.87701 0.0
H630 H 0.35956 0.31184 0.00445 0.0
H631 H 0.42301 0.3236 0.03982 0.0
C632 C 0.27265 0.92439 0.27197 0.0
C633 C 0.30412 0.89367 0.28159 0.0
C634 C 0.33684 0.92947 0.36976 0.0
C635 C 0.30753 0.96203 0.36007 0.0
N636 N 0.25451 0.9957 0.30042 0.0
N637 N 0.37385 0.87301 0.33698 0.0
C638 C 0.27738 0.96103 0.31068 0.0
C639 C 0.33895 0.8985 0.32967 0.0
N640 N 0.23704 0.91756 0.22624 0.0
N641 N 0.36005 0.92603 0.41736 0.0
H642 H 0.37609 0.84981 0.3083 0.0
H643 H 0.40342 0.87803 0.37018 0.0
H644 H 0.35713 0.94616 0.44783 0.0
H645 H 0.37772 0.90004 0.42655 0.0
H646 H 0.20875 0.93508 0.21838 0.0
H647 H 0.23418 0.89238 0.19663 0.0
H648 H 0.23677 0.99948 0.26467 0.0
H649 H 0.25666 0.02292 0.32753 0.0
C650 C 0.78237 0.74948 0.93264 0.0
C651 C 0.83047 0.75823 0.96971 0.0
C652 C 0.79198 0.74385 0.03173 0.0
C653 C 0.74408 0.73827 0.99548 0.0
N654 N 0.69171 0.72638 0.91043 0.0
N655 N 0.88194 0.7555 0.05167 0.0
C656 C 0.73868 0.73764 0.94538 0.0
C657 C 0.83547 0.75237 0.01832 0.0
N658 N 0.77883 0.75423 0.88581 0.0
N659 N 0.79564 0.7429 0.0795 0.0
H660 H 0.91473 0.7637 0.04377 0.0
H661 H 0.88826 0.74748 0.08625 0.0
H662 H 0.76431 0.73362 0.08963 0.0
H663 H 0.82911 0.75229 0.1094 0.0
H664 H 0.74554 0.75305 0.85787 0.0
H665 H 0.81007 0.76081 0.87499 0.0
H666 H 0.68439 0.72229 0.87265 0.0
H667 H 0.65936 0.71805 0.91915 0.0
loop_
_geom_bond_atom_site_label_1
_geom_bond_atom_site_label_2
_geom_bond_distance
_geom_bond_site_symmetry_2
_ccdc_geom_bond_type
H0 C1 0.949 . S
C1 H0 0.949 . S
C1 C2 1.395 . S
C1 C3 1.391 . S
C2 C1 1.395 . S
C2 C5 1.390 . S
C3 C1 1.391 . S
C3 C7 1.387 . S
C3 C8 1.491 . S
H4 C5 0.950 . S
C5 C2 1.390 . S
C5 H4 0.950 . S
C5 C6 1.378 . S
C6 C5 1.378 . S
C6 C7 1.409 . S
C7 C3 1.387 . S
C7 C6 1.409 . S
C7 H9 0.951 . S
C8 C3 1.491 . S
C8 C10 1.382 . S
C8 C12 1.404 . S
H9 C7 0.951 . S
C10 C8 1.382 . S
C10 C11 1.390 . S
C10 H15 0.949 . S
C11 C10 1.390 . S
C11 C16 1.399 . S
C12 C8 1.404 . S
C12 H13 0.950 . S
C12 C14 1.375 . S
H13 C12 0.950 . S
C14 C12 1.375 . S
C14 C16 1.382 . S
C14 H18 0.950 . S
H15 C10 0.949 . S
C16 C11 1.399 . S
C16 C14 1.382 . S
C16 H17 0.952 . S
H17 C16 0.952 . S
H18 C14 0.950 . S
H19 C20 0.949 . S
C20 H19 0.949 . S
C20 C21 1.395 . S
C20 C22 1.391 . S
C21 C20 1.395 . S
C21 C24 1.390 . S
C22 C20 1.391 . S
C22 C26 1.387 . S
C22 C27 1.491 . S
H23 C24 0.950 . S
C24 C21 1.390 . S
C24 H23 0.950 . S
C24 C25 1.378 . S
C25 C24 1.378 . S
C25 C26 1.409 . S
C26 C22 1.387 . S
C26 C25 1.409 . S
C26 H28 0.951 . S
C27 C22 1.491 . S
C27 C29 1.382 . S
C27 C31 1.404 . S
H28 C26 0.951 . S
C29 C27 1.382 . S
C29 C30 1.390 . S
C29 H34 0.949 . S
C30 C29 1.390 . S
C30 C35 1.399 . S
C31 C27 1.404 . S
C31 H32 0.950 . S
C31 C33 1.375 . S
H32 C31 0.950 . S
C33 C31 1.375 . S
C33 C35 1.382 . S
C33 H37 0.950 . S
H34 C29 0.949 . S
C35 C30 1.399 . S
C35 C33 1.382 . S
C35 H36 0.952 . S
H36 C35 0.952 . S
H37 C33 0.950 . S
H38 C39 0.949 . S
C39 H38 0.949 . S
C39 C40 1.395 . S
C39 C41 1.391 . S
C40 C39 1.395 . S
C40 C43 1.390 . S
C41 C39 1.391 . S
C41 C45 1.387 . S
C41 C46 1.491 . S
H42 C43 0.950 . S
C43 C40 1.390 . S
C43 H42 0.950 . S
C43 C44 1.378 . S
C44 C43 1.378 . S
C44 C45 1.409 . S
C45 C41 1.387 . S
C45 C44 1.409 . S
C45 H47 0.951 . S
C46 C41 1.491 . S
C46 C48 1.382 . S
C46 C50 1.404 . S
H47 C45 0.951 . S
C48 C46 1.382 . S
C48 C49 1.390 . S
C48 H53 0.949 . S
C49 C48 1.390 . S
C49 C54 1.399 . S
C50 C46 1.404 . S
C50 H51 0.950 . S
C50 C52 1.375 . S
H51 C50 0.950 . S
C52 C50 1.375 . S
C52 C54 1.382 . S
C52 H56 0.950 . S
H53 C48 0.949 . S
C54 C49 1.399 . S
C54 C52 1.382 . S
C54 H55 0.952 . S
H55 C54 0.952 . S
H56 C52 0.950 . S
H57 C58 0.964 . S
C58 H57 0.964 . S
C58 C59 1.375 1_554 S
C58 C60 1.397 1_554 S
C59 C58 1.375 1_556 S
C59 C62 1.390 . S
C60 C58 1.397 1_556 S
C60 C64 1.387 . S
C60 C65 1.491 1_556 S
H61 C62 0.950 . S
C62 C59 1.390 . S
C62 H61 0.950 . S
C62 C63 1.378 . S
C63 C62 1.378 . S
C63 C64 1.409 . S
C64 C60 1.387 . S
C64 C63 1.409 . S
C64 H66 0.951 . S
C65 C60 1.491 1_554 S
C65 C67 1.382 . S
C65 C69 1.404 . S
H66 C64 0.951 . S
C67 C65 1.382 . S
C67 C68 1.390 . S
C67 H72 0.949 . S
C68 C67 1.390 . S
C68 C73 1.399 . S
C69 C65 1.404 . S
C69 H70 0.950 . S
C69 C71 1.375 . S
H70 C69 0.950 . S
C71 C69 1.375 . S
C71 C73 1.382 . S
C71 H75 0.950 . S
H72 C67 0.949 . S
C73 C68 1.399 . S
C73 C71 1.382 . S
C73 H74 0.952 . S
H74 C73 0.952 . S
H75 C71 0.950 . S
H76 C77 0.949 1_455 S
C77 H76 0.949 1_655 S
C77 C78 1.395 . S
C77 C79 1.391 . S
C78 C77 1.395 . S
C78 C81 1.390 . S
C79 C77 1.391 . S
C79 C83 1.387 . S
C79 C84 1.491 . S
H80 C81 0.950 . S
C81 C78 1.390 . S
C81 H80 0.950 . S
C81 C82 1.378 . S
C82 C81 1.378 . S
C82 C83 1.409 . S
C83 C79 1.387 . S
C83 C82 1.409 . S
C83 H85 0.951 . S
C84 C79 1.491 . S
C84 C86 1.382 . S
C84 C88 1.404 . S
H85 C83 0.951 . S
C86 C84 1.382 . S
C86 C87 1.390 . S
C86 H91 0.949 . S
C87 C86 1.390 . S
C87 C92 1.399 . S
C88 C84 1.404 . S
C88 H89 0.950 . S
C88 C90 1.375 . S
H89 C88 0.950 . S
C90 C88 1.375 . S
C90 C92 1.382 . S
C90 H94 0.950 . S
H91 C86 0.949 . S
C92 C87 1.399 . S
C92 C90 1.382 . S
C92 H93 0.952 1_565 S
H93 C92 0.952 1_545 S
H94 C90 0.950 . S
H95 C96 0.949 . S
C96 H95 0.949 . S
C96 C97 1.395 . S
C96 C98 1.391 . S
C97 C96 1.395 . S
C97 C100 1.390 . S
C98 C96 1.391 . S
C98 C102 1.387 . S
C98 C103 1.491 . S
H99 C100 0.950 . S
C100 C97 1.390 . S
C100 H99 0.950 . S
C100 C101 1.378 . S
C101 C100 1.378 . S
C101 C102 1.409 . S
C102 C98 1.387 . S
C102 C101 1.409 . S
C102 H104 0.951 . S
C103 C98 1.491 . S
C103 C105 1.382 . S
C103 C107 1.404 . S
H104 C102 0.951 . S
C105 C103 1.382 . S
C105 C106 1.390 . S
C105 H110 0.949 . S
C106 C105 1.390 . S
C106 C111 1.399 . S
C107 C103 1.404 . S
C107 H108 0.950 . S
C107 C109 1.375 . S
H108 C107 0.950 . S
C109 C107 1.375 . S
C109 C111 1.382 . S
C109 H113 0.950 . S
H110 C105 0.949 . S
C111 C106 1.399 . S
C111 C109 1.382 . S
C111 H112 0.952 . S
H112 C111 0.952 . S
H113 C109 0.950 . S
H114 C115 0.949 . S
C115 H114 0.949 . S
C115 C116 1.395 . S
C115 C117 1.391 . S
C116 C115 1.395 . S
C116 C119 1.390 . S
C117 C115 1.391 . S
C117 C121 1.387 . S
C117 C122 1.491 . S
H118 C119 0.950 . S
C119 C116 1.390 . S
C119 H118 0.950 . S
C119 C120 1.378 . S
C120 C119 1.378 . S
C120 C121 1.409 . S
C121 C117 1.387 . S
C121 C120 1.409 . S
C121 H123 0.951 . S
C122 C117 1.491 . S
C122 C124 1.382 . S
C122 C126 1.404 . S
H123 C121 0.951 . S
C124 C122 1.382 . S
C124 C125 1.390 . S
C124 H129 0.949 . S
C125 C124 1.390 . S
C125 C130 1.399 . S
C126 C122 1.404 . S
C126 H127 0.950 . S
C126 C128 1.375 . S
H127 C126 0.950 . S
C128 C126 1.375 . S
C128 C130 1.382 . S
C128 H132 0.950 . S
H129 C124 0.949 . S
C130 C125 1.399 . S
C130 C128 1.382 . S
C130 H131 0.952 . S
H131 C130 0.952 . S
H132 C128 0.950 . S
H133 C134 0.949 . S
C134 H133 0.949 . S
C134 C135 1.395 . S
C134 C136 1.391 . S
C135 C134 1.395 . S
C135 C138 1.390 . S
C136 C134 1.391 . S
C136 C140 1.387 . S
C136 C141 1.491 . S
H137 C138 0.950 . S
C138 C135 1.390 . S
C138 H137 0.950 . S
C138 C139 1.378 . S
C139 C138 1.378 . S
C139 C140 1.409 . S
C140 C136 1.387 . S
C140 C139 1.409 . S
C140 H142 0.951 . S
C141 C136 1.491 . S
C141 C143 1.382 . S
C141 C145 1.404 . S
H142 C140 0.951 . S
C143 C141 1.382 . S
C143 C144 1.390 . S
C143 H148 0.949 . S
C144 C143 1.390 . S
C144 C149 1.399 . S
C145 C141 1.404 . S
C145 H146 0.950 . S
C145 C147 1.375 . S
H146 C145 0.950 . S
C147 C145 1.375 . S
C147 C149 1.382 . S
C147 H151 0.950 1_554 S
H148 C143 0.949 . S
C149 C144 1.399 . S
C149 C147 1.382 . S
C149 H150 0.952 1_554 S
H150 C149 0.952 1_556 S
H151 C147 0.950 1_556 S
C152 O154 1.250 . S
C152 O156 1.258 . S
C153 O160 1.247 . S
C153 O161 1.258 . S
O154 C152 1.250 . S
O154 Zn155 2.025 1_655 S
Zn155 O154 2.025 1_455 S
Zn155 O159 2.035 . S
Zn155 O161 2.035 . S
Zn155 O162 2.028 . S
O156 C152 1.258 . S
O156 Zn157 2.035 . S
Zn157 O156 2.035 . S
Zn157 O158 2.028 1_655 S
Zn157 O160 2.028 1_655 S
Zn157 O163 2.035 . S
O158 Zn157 2.028 1_455 S
O158 C164 1.247 . S
O159 Zn155 2.035 . S
O159 C164 1.258 . S
O160 C153 1.247 . S
O160 Zn157 2.028 1_455 S
O161 C153 1.258 . S
O161 Zn155 2.035 . S
O162 Zn155 2.028 . S
O162 C165 1.247 1_455 S
O163 Zn157 2.035 . S
O163 C165 1.258 . S
C164 O158 1.247 . S
C164 O159 1.258 . S
C165 O162 1.247 1_655 S
C165 O163 1.258 . S
C166 O168 1.247 . S
C166 O170 1.258 . S
C167 O174 1.247 . S
C167 O175 1.258 . S
O168 C166 1.247 . S
O168 Zn169 2.028 . S
Zn169 O168 2.028 . S
Zn169 O173 2.035 . S
Zn169 O175 2.035 . S
Zn169 O176 2.028 . S
O170 C166 1.258 . S
O170 Zn171 2.035 . S
Zn171 O170 2.035 . S
Zn171 O172 2.028 . S
Zn171 O174 2.028 . S
Zn171 O177 2.035 . S
O172 Zn171 2.028 . S
O172 C178 1.247 . S
O173 Zn169 2.035 . S
O173 C178 1.258 . S
O174 C167 1.247 . S
O174 Zn171 2.028 . S
O175 C167 1.258 . S
O175 Zn169 2.035 . S
O176 Zn169 2.028 . S
O176 C179 1.247 . S
O177 Zn171 2.035 . S
O177 C179 1.258 . S
C178 O172 1.247 . S
C178 O173 1.258 . S
C179 O176 1.247 . S
C179 O177 1.258 . S
C180 O182 1.247 . S
C180 O184 1.258 . S
C181 O188 1.247 . S
C181 O189 1.258 . S
O182 C180 1.247 . S
O182 Zn183 2.018 1_565 S
Zn183 O182 2.018 1_545 S
Zn183 O187 2.043 . S
Zn183 O189 2.046 . S
Zn183 O190 2.021 1_545 S
O184 C180 1.258 . S
O184 Zn185 2.035 1_565 S
Zn185 O184 2.035 1_545 S
Zn185 O186 2.028 . S
Zn185 O188 2.028 . S
Zn185 O191 2.035 1_545 S
O186 Zn185 2.028 . S
O186 C192 1.247 . S
O187 Zn183 2.043 . S
O187 C192 1.258 . S
O188 C181 1.247 . S
O188 Zn185 2.028 . S
O189 C181 1.258 . S
O189 Zn183 2.046 . S
O190 Zn183 2.021 1_565 S
O190 C193 1.247 . S
O191 Zn185 2.035 1_565 S
O191 C193 1.258 . S
C192 O186 1.247 . S
C192 O187 1.258 . S
C193 O190 1.247 . S
C193 O191 1.258 . S
C194 O196 1.247 . S
C194 O198 1.258 . S
C195 O202 1.247 . S
C195 O203 1.258 . S
O196 C194 1.247 . S
O196 Zn197 2.028 1_554 S
Zn197 O196 2.028 1_556 S
Zn197 O201 2.035 1_556 S
Zn197 O203 2.035 . S
Zn197 O204 2.028 . S
O198 C194 1.258 . S
O198 Zn199 2.035 . S
Zn199 O198 2.035 . S
Zn199 O200 2.028 . S
Zn199 O202 2.028 1_554 S
Zn199 O205 2.035 1_554 S
O200 Zn199 2.028 . S
O200 C206 1.247 . S
O201 Zn197 2.035 1_554 S
O201 C206 1.258 . S
O202 C195 1.247 . S
O202 Zn199 2.028 1_556 S
O203 C195 1.258 . S
O203 Zn197 2.035 . S
O204 Zn197 2.028 . S
O204 C207 1.247 . S
O205 Zn199 2.035 1_556 S
O205 C207 1.258 . S
C206 O200 1.247 . S
C206 O201 1.258 . S
C207 O204 1.247 . S
C207 O205 1.258 . S
C208 O210 1.247 1_455 S
C208 O212 1.258 . S
C209 O216 1.247 1_655 S
C209 O217 1.258 . S
O210 C208 1.247 1_655 S
O210 Zn211 2.028 . S
Zn211 O210 2.028 . S
Zn211 O215 2.035 . S
Zn211 O217 2.035 . S
Zn211 O218 2.028 . S
O212 C208 1.258 . S
O212 Zn213 2.035 . S
Zn213 O212 2.035 . S
Zn213 O214 2.028 . S
Zn213 O216 2.028 . S
Zn213 O219 2.035 . S
O214 Zn213 2.028 . S
O214 C220 1.247 1_455 S
O215 Zn211 2.035 . S
O215 C220 1.258 . S
O216 C209 1.247 1_455 S
O216 Zn213 2.028 . S
O217 C209 1.258 . S
O217 Zn211 2.035 . S
O218 Zn211 2.028 . S
O218 C221 1.226 1_655 S
O219 Zn213 2.035 . S
O219 C221 1.271 . S
C220 O214 1.247 1_655 S
C220 O215 1.258 . S
C221 O218 1.226 1_455 S
C221 O219 1.271 . S
C222 O224 1.247 . S
C222 O226 1.258 . S
C223 O230 1.247 . S
C223 O231 1.258 . S
O224 C222 1.247 . S
O224 Zn225 2.028 . S
Zn225 O224 2.028 . S
Zn225 O229 2.035 . S
Zn225 O231 2.035 . S
Zn225 O232 2.028 . S
O226 C222 1.258 . S
O226 Zn227 2.035 . S
Zn227 O226 2.035 . S
Zn227 O228 2.028 . S
Zn227 O230 2.028 . S
Zn227 O233 2.035 . S
O228 Zn227 2.028 . S
O228 C234 1.247 . S
O229 Zn225 2.035 . S
O229 C234 1.258 . S
O230 C223 1.247 . S
O230 Zn227 2.028 . S
O231 C223 1.258 . S
O231 Zn225 2.035 . S
O232 Zn225 2.028 . S
O232 C235 1.247 . S
O233 Zn227 2.035 . S
O233 C235 1.258 . S
C234 O228 1.247 . S
C234 O229 1.258 . S
C235 O232 1.247 . S
C235 O233 1.258 . S
C236 C237 1.363 . S
C236 C242 1.379 . S
C236 N244 1.356 . S
C237 C236 1.363 . S
C237 C243 1.363 . S
C238 C239 1.363 . S
C238 C243 1.379 . S
C238 N245 1.356 . S
C239 C238 1.363 . S
C239 C242 1.363 . S
N240 C242 1.356 . S
N240 H252 0.984 1_455 S
N240 H253 0.985 . S
N241 C243 1.356 . S
N241 H246 0.984 . S
N241 H247 0.985 . S
C242 C236 1.379 . S
C242 C239 1.363 . S
C242 N240 1.356 . S
C243 C237 1.363 . S
C243 C238 1.379 . S
C243 N241 1.356 . S
N244 C236 1.356 . S
N244 H250 0.984 . S
N244 H251 0.984 . S
N245 C238 1.356 . S
N245 H248 0.984 . S
N245 H249 0.985 . S
H246 N241 0.984 . S
H247 N241 0.985 . S
H248 N245 0.984 . S
H249 N245 0.985 . S
H250 N244 0.984 . S
H251 N244 0.984 . S
H252 N240 0.984 1_655 S
H253 N240 0.985 . S
C254 C255 1.363 . S
C254 C260 1.379 . S
C254 N262 1.356 . S
C255 C254 1.363 . S
C255 C261 1.363 . S
C256 C257 1.363 . S
C256 C261 1.379 . S
C256 N263 1.356 . S
C257 C256 1.363 . S
C257 C260 1.363 . S
N258 C260 1.356 . S
N258 H270 0.984 . S
N258 H271 0.985 . S
N259 C261 1.356 . S
N259 H264 0.984 . S
N259 H265 0.985 . S
C260 C254 1.379 . S
C260 C257 1.363 . S
C260 N258 1.356 . S
C261 C255 1.363 . S
C261 C256 1.379 . S
C261 N259 1.356 . S
N262 C254 1.356 . S
N262 H268 0.984 . S
N262 H269 0.984 . S
N263 C256 1.356 . S
N263 H266 0.984 . S
N263 H267 0.985 . S
H264 N259 0.984 . S
H265 N259 0.985 . S
H266 N263 0.984 . S
H267 N263 0.985 . S
H268 N262 0.984 . S
H269 N262 0.984 . S
H270 N258 0.984 . S
H271 N258 0.985 . S
C272 C273 1.363 . S
C272 C278 1.379 . S
C272 N280 1.356 . S
C273 C272 1.363 . S
C273 C279 1.363 . S
C274 C275 1.363 . S
C274 C279 1.379 . S
C274 N281 1.356 . S
C275 C274 1.363 . S
C275 C278 1.363 . S
N276 C278 1.356 1_455 S
N276 H288 0.984 . S
N276 H289 0.985 . S
N277 C279 1.356 . S
N277 H282 0.984 . S
N277 H283 0.985 . S
C278 C272 1.379 . S
C278 C275 1.363 . S
C278 N276 1.356 1_655 S
C279 C273 1.363 . S
C279 C274 1.379 . S
C279 N277 1.356 . S
N280 C272 1.356 . S
N280 H286 0.984 1_655 S
N280 H287 0.984 . S
N281 C274 1.356 . S
N281 H284 0.984 . S
N281 H285 0.985 . S
H282 N277 0.984 . S
H283 N277 0.985 . S
H284 N281 0.984 . S
H285 N281 0.985 . S
H286 N280 0.984 1_455 S
H287 N280 0.984 . S
H288 N276 0.984 . S
H289 N276 0.985 . S
C290 C291 1.363 . S
C290 C296 1.379 1_655 S
C290 N298 1.356 1_556 S
C291 C290 1.363 . S
C291 C297 1.363 1_655 S
C292 C293 1.363 . S
C292 C297 1.379 . S
C292 N299 1.356 . S
C293 C292 1.363 . S
C293 C296 1.363 . S
N294 C296 1.356 . S
N294 H306 0.984 . S
N294 H307 0.985 . S
N295 C297 1.356 1_655 S
N295 H300 0.984 . S
N295 H301 0.985 1_655 S
C296 C290 1.379 1_455 S
C296 C293 1.363 . S
C296 N294 1.356 . S
C297 C291 1.363 1_455 S
C297 C292 1.379 . S
C297 N295 1.356 1_455 S
N298 C290 1.356 1_554 S
N298 H304 0.984 . S
N298 H305 0.984 . S
N299 C292 1.356 . S
N299 H302 0.984 . S
N299 H303 0.985 . S
H300 N295 0.984 . S
H301 N295 0.985 1_455 S
H302 N299 0.984 . S
H303 N299 0.985 . S
H304 N298 0.984 . S
H305 N298 0.984 . S
H306 N294 0.984 . S
H307 N294 0.985 . S
C308 C309 1.363 . S
C308 C314 1.379 . S
C308 N316 1.356 . S
C309 C308 1.363 . S
C309 C315 1.363 . S
C310 C311 1.363 . S
C310 C315 1.379 . S
C310 N317 1.356 . S
C311 C310 1.363 . S
C311 C314 1.363 . S
N312 C314 1.356 . S
N312 H324 0.984 . S
N312 H325 0.985 . S
N313 C315 1.356 . S
N313 H318 0.984 . S
N313 H319 0.985 . S
C314 C308 1.379 . S
C314 C311 1.363 . S
C314 N312 1.356 . S
C315 C309 1.363 . S
C315 C310 1.379 . S
C315 N313 1.356 . S
N316 C308 1.356 . S
N316 H322 0.984 . S
N316 H323 0.984 . S
N317 C310 1.356 . S
N317 H320 0.984 . S
N317 H321 0.985 . S
H318 N313 0.984 . S
H319 N313 0.985 . S
H320 N317 0.984 . S
H321 N317 0.985 . S
H322 N316 0.984 . S
H323 N316 0.984 . S
H324 N312 0.984 . S
H325 N312 0.985 . S
C326 C327 1.363 . S
C326 C332 1.379 . S
C326 N334 1.356 . S
C327 C326 1.363 . S
C327 C333 1.363 . S
C328 C329 1.363 . S
C328 C333 1.379 . S
C328 N335 1.356 . S
C329 C328 1.363 . S
C329 C332 1.363 . S
N330 C332 1.356 . S
N330 H342 0.984 . S
N330 H343 0.985 . S
N331 C333 1.356 . S
N331 H336 0.984 . S
N331 H337 0.985 . S
C332 C326 1.379 . S
C332 C329 1.363 . S
C332 N330 1.356 . S
C333 C327 1.363 . S
C333 C328 1.379 . S
C333 N331 1.356 . S
N334 C326 1.356 . S
N334 H340 0.984 . S
N334 H341 0.984 . S
N335 C328 1.356 . S
N335 H338 0.984 . S
N335 H339 0.985 . S
H336 N331 0.984 . S
H337 N331 0.985 . S
H338 N335 0.984 . S
H339 N335 0.985 . S
H340 N334 0.984 . S
H341 N334 0.984 . S
H342 N330 0.984 . S
H343 N330 0.985 . S
C344 C345 1.363 1_445 S
C344 C350 1.379 . S
C344 N352 1.356 . S
C345 C344 1.363 1_665 S
C345 C351 1.363 1_565 S
C346 C347 1.363 . S
C346 C351 1.379 . S
C346 N353 1.356 . S
C347 C346 1.363 . S
C347 C350 1.363 1_655 S
N348 C350 1.356 . S
N348 H360 0.984 . S
N348 H361 0.985 . S
N349 C351 1.356 1_565 S
N349 H354 0.984 . S
N349 H355 0.985 . S
C350 C344 1.379 . S
C350 C347 1.363 1_455 S
C350 N348 1.356 . S
C351 C345 1.363 1_545 S
C351 C346 1.379 . S
C351 N349 1.356 1_545 S
N352 C344 1.356 . S
N352 H358 0.984 . S
N352 H359 0.984 1_545 S
N353 C346 1.356 . S
N353 H356 0.984 . S
N353 H357 0.985 . S
H354 N349 0.984 . S
H355 N349 0.985 . S
H356 N353 0.984 . S
H357 N353 0.985 . S
H358 N352 0.984 . S
H359 N352 0.984 1_565 S
H360 N348 0.984 . S
H361 N348 0.985 . S
C362 C363 1.363 . S
C362 C368 1.379 . S
C362 N370 1.356 . S
C363 C362 1.363 . S
C363 C369 1.363 . S
C364 C365 1.363 . S
C364 C369 1.379 . S
C364 N371 1.356 . S
C365 C364 1.363 . S
C365 C368 1.363 . S
N366 C368 1.356 . S
N366 H378 0.984 . S
N366 H379 0.985 . S
N367 C369 1.356 . S
N367 H372 0.984 . S
N367 H373 0.985 . S
C368 C362 1.379 . S
C368 C365 1.363 . S
C368 N366 1.356 . S
C369 C363 1.363 . S
C369 C364 1.379 . S
C369 N367 1.356 . S
N370 C362 1.356 . S
N370 H376 0.984 . S
N370 H377 0.984 . S
N371 C364 1.356 . S
N371 H374 0.984 . S
N371 H375 0.985 . S
H372 N367 0.984 . S
H373 N367 0.985 . S
H374 N371 0.984 . S
H375 N371 0.985 . S
H376 N370 0.984 . S
H377 N370 0.984 . S
H378 N366 0.984 . S
H379 N366 0.985 . S
C380 C381 1.363 . S
C380 C386 1.379 . S
C380 N388 1.356 . S
C381 C380 1.363 . S
C381 C387 1.363 . S
C382 C383 1.363 . S
C382 C387 1.379 . S
C382 N389 1.356 . S
C383 C382 1.363 . S
C383 C386 1.363 . S
N384 C386 1.356 . S
N384 H396 0.984 . S
N384 H397 0.985 . S
N385 C387 1.356 . S
N385 H390 0.984 . S
N385 H391 0.985 . S
C386 C380 1.379 . S
C386 C383 1.363 . S
C386 N384 1.356 . S
C387 C381 1.363 . S
C387 C382 1.379 . S
C387 N385 1.356 . S
N388 C380 1.356 . S
N388 H394 0.984 . S
N388 H395 0.984 . S
N389 C382 1.356 . S
N389 H392 0.984 . S
N389 H393 0.985 . S
H390 N385 0.984 . S
H391 N385 0.985 . S
H392 N389 0.984 . S
H393 N389 0.985 . S
H394 N388 0.984 . S
H395 N388 0.984 . S
H396 N384 0.984 . S
H397 N384 0.985 . S
C398 C399 1.363 . S
C398 C404 1.379 . S
C398 N406 1.356 . S
C399 C398 1.363 . S
C399 C405 1.363 . S
C400 C401 1.363 . S
C400 C405 1.379 . S
C400 N407 1.356 . S
C401 C400 1.363 . S
C401 C404 1.363 . S
N402 C404 1.356 . S
N402 H414 0.984 . S
N402 H415 0.985 . S
N403 C405 1.356 . S
N403 H408 0.984 . S
N403 H409 0.985 . S
C404 C398 1.379 . S
C404 C401 1.363 . S
C404 N402 1.356 . S
C405 C399 1.363 . S
C405 C400 1.379 . S
C405 N403 1.356 . S
N406 C398 1.356 . S
N406 H412 0.984 . S
N406 H413 0.984 . S
N407 C400 1.356 . S
N407 H410 0.984 . S
N407 H411 0.985 . S
H408 N403 0.984 . S
H409 N403 0.985 . S
H410 N407 0.984 . S
H411 N407 0.985 . S
H412 N406 0.984 . S
H413 N406 0.984 . S
H414 N402 0.984 . S
H415 N402 0.985 . S
C416 C417 1.363 . S
C416 C422 1.379 . S
C416 N424 1.356 . S
C417 C416 1.363 . S
C417 C423 1.363 . S
C418 C419 1.363 1_455 S
C418 C423 1.379 1_455 S
C418 N425 1.356 . S
C419 C418 1.363 1_655 S
C419 C422 1.363 . S
N420 C422 1.356 . S
N420 H432 0.984 . S
N420 H433 0.985 . S
N421 C423 1.356 1_455 S
N421 H426 0.984 1_455 S
N421 H427 0.985 . S
C422 C416 1.379 . S
C422 C419 1.363 . S
C422 N420 1.356 . S
C423 C417 1.363 . S
C423 C418 1.379 1_655 S
C423 N421 1.356 1_655 S
N424 C416 1.356 . S
N424 H430 0.984 . S
N424 H431 0.984 . S
N425 C418 1.356 . S
N425 H428 0.984 . S
N425 H429 0.985 . S
H426 N421 0.984 1_655 S
H427 N421 0.985 . S
H428 N425 0.984 . S
H429 N425 0.985 . S
H430 N424 0.984 . S
H431 N424 0.984 . S
H432 N420 0.984 . S
H433 N420 0.985 . S
C434 C435 1.363 . S
C434 C440 1.379 . S
C434 N442 1.356 . S
C435 C434 1.363 . S
C435 C441 1.363 . S
C436 C437 1.363 . S
C436 C441 1.379 . S
C436 N443 1.356 . S
C437 C436 1.363 . S
C437 C440 1.363 . S
N438 C440 1.356 . S
N438 H450 0.984 . S
N438 H451 0.985 . S
N439 C441 1.356 . S
N439 H444 0.984 . S
N439 H445 0.985 . S
C440 C434 1.379 . S
C440 C437 1.363 . S
C440 N438 1.356 . S
C441 C435 1.363 . S
C441 C436 1.379 . S
C441 N439 1.356 . S
N442 C434 1.356 . S
N442 H448 0.984 . S
N442 H449 0.984 . S
N443 C436 1.356 . S
N443 H446 0.984 . S
N443 H447 0.985 . S
H444 N439 0.984 . S
H445 N439 0.985 . S
H446 N443 0.984 . S
H447 N443 0.985 . S
H448 N442 0.984 . S
H449 N442 0.984 . S
H450 N438 0.984 . S
H451 N438 0.985 . S
C452 C453 1.363 . S
C452 C458 1.379 . S
C452 N460 1.356 . S
C453 C452 1.363 . S
C453 C459 1.363 . S
C454 C455 1.363 . S
C454 C459 1.379 . S
C454 N461 1.356 . S
C455 C454 1.363 . S
C455 C458 1.363 . S
N456 C458 1.356 . S
N456 H468 0.984 1_556 S
N456 H469 0.985 . S
N457 C459 1.356 1_655 S
N457 H462 0.984 . S
N457 H463 0.985 . S
C458 C452 1.379 . S
C458 C455 1.363 . S
C458 N456 1.356 . S
C459 C453 1.363 . S
C459 C454 1.379 . S
C459 N457 1.356 1_455 S
N460 C452 1.356 . S
N460 H466 0.984 1_556 S
N460 H467 0.984 . S
N461 C454 1.356 . S
N461 H464 0.984 . S
N461 H465 0.985 . S
H462 N457 0.984 . S
H463 N457 0.985 . S
H464 N461 0.984 . S
H465 N461 0.985 . S
H466 N460 0.984 1_554 S
H467 N460 0.984 . S
H468 N456 0.984 1_554 S
H469 N456 0.985 . S
C470 C471 1.363 . S
C470 C476 1.379 . S
C470 N478 1.356 . S
C471 C470 1.363 . S
C471 C477 1.363 . S
C472 C473 1.363 . S
C472 C477 1.379 . S
C472 N479 1.356 . S
C473 C472 1.363 . S
C473 C476 1.363 . S
N474 C476 1.356 . S
N474 H486 0.984 . S
N474 H487 0.985 . S
N475 C477 1.356 . S
N475 H480 0.984 . S
N475 H481 0.985 . S
C476 C470 1.379 . S
C476 C473 1.363 . S
C476 N474 1.356 . S
C477 C471 1.363 . S
C477 C472 1.379 . S
C477 N475 1.356 . S
N478 C470 1.356 . S
N478 H484 0.984 . S
N478 H485 0.984 . S
N479 C472 1.356 . S
N479 H482 0.984 . S
N479 H483 0.985 . S
H480 N475 0.984 . S
H481 N475 0.985 . S
H482 N479 0.984 . S
H483 N479 0.985 . S
H484 N478 0.984 . S
H485 N478 0.984 . S
H486 N474 0.984 . S
H487 N474 0.985 . S
C488 C489 1.363 . S
C488 C494 1.379 . S
C488 N496 1.356 . S
C489 C488 1.363 . S
C489 C495 1.363 . S
C490 C491 1.363 . S
C490 C495 1.379 . S
C490 N497 1.356 . S
C491 C490 1.363 . S
C491 C494 1.363 . S
N492 C494 1.356 . S
N492 H504 0.984 . S
N492 H505 0.985 . S
N493 C495 1.356 . S
N493 H498 0.984 . S
N493 H499 0.985 . S
C494 C488 1.379 . S
C494 C491 1.363 . S
C494 N492 1.356 . S
C495 C489 1.363 . S
C495 C490 1.379 . S
C495 N493 1.356 . S
N496 C488 1.356 . S
N496 H502 0.984 . S
N496 H503 0.984 . S
N497 C490 1.356 . S
N497 H500 0.984 . S
N497 H501 0.985 . S
H498 N493 0.984 . S
H499 N493 0.985 . S
H500 N497 0.984 . S
H501 N497 0.985 . S
H502 N496 0.984 . S
H503 N496 0.984 . S
H504 N492 0.984 . S
H505 N492 0.985 . S
C506 C507 1.363 . S
C506 C512 1.379 . S
C506 N514 1.356 . S
C507 C506 1.363 . S
C507 C513 1.363 . S
C508 C509 1.363 . S
C508 C513 1.379 . S
C508 N515 1.356 . S
C509 C508 1.363 . S
C509 C512 1.363 . S
N510 C512 1.356 . S
N510 H522 0.984 . S
N510 H523 0.985 . S
N511 C513 1.356 . S
N511 H516 0.984 . S
N511 H517 0.985 . S
C512 C506 1.379 . S
C512 C509 1.363 . S
C512 N510 1.356 . S
C513 C507 1.363 . S
C513 C508 1.379 . S
C513 N511 1.356 . S
N514 C506 1.356 . S
N514 H520 0.984 . S
N514 H521 0.984 . S
N515 C508 1.356 . S
N515 H518 0.984 . S
N515 H519 0.985 . S
H516 N511 0.984 . S
H517 N511 0.985 . S
H518 N515 0.984 . S
H519 N515 0.985 . S
H520 N514 0.984 . S
H521 N514 0.984 . S
H522 N510 0.984 . S
H523 N510 0.985 . S
C524 C525 1.363 . S
C524 C530 1.379 1_565 S
C524 N532 1.356 . S
C525 C524 1.363 . S
C525 C531 1.363 1_465 S
C526 C527 1.363 . S
C526 C531 1.379 1_455 S
C526 N533 1.356 1_455 S
C527 C526 1.363 . S
C527 C530 1.363 . S
N528 C530 1.356 . S
N528 H540 0.984 . S
N528 H541 0.985 . S
N529 C531 1.356 . S
N529 H534 0.984 1_545 S
N529 H535 0.985 . S
C530 C524 1.379 1_545 S
C530 C527 1.363 . S
C530 N528 1.356 . S
C531 C525 1.363 1_645 S
C531 C526 1.379 1_655 S
C531 N529 1.356 . S
N532 C524 1.356 . S
N532 H538 0.984 . S
N532 H539 0.984 . S
N533 C526 1.356 1_655 S
N533 H536 0.984 1_655 S
N533 H537 0.985 . S
H534 N529 0.984 1_565 S
H535 N529 0.985 . S
H536 N533 0.984 1_455 S
H537 N533 0.985 . S
H538 N532 0.984 . S
H539 N532 0.984 . S
H540 N528 0.984 . S
H541 N528 0.985 . S
C542 C543 1.363 . S
C542 C548 1.379 . S
C542 N550 1.356 . S
C543 C542 1.363 . S
C543 C549 1.363 . S
C544 C545 1.363 . S
C544 C549 1.379 . S
C544 N551 1.356 . S
C545 C544 1.363 . S
C545 C548 1.363 . S
N546 C548 1.356 . S
N546 H558 0.984 . S
N546 H559 0.985 . S
N547 C549 1.356 . S
N547 H552 0.984 . S
N547 H553 0.985 . S
C548 C542 1.379 . S
C548 C545 1.363 . S
C548 N546 1.356 . S
C549 C543 1.363 . S
C549 C544 1.379 . S
C549 N547 1.356 . S
N550 C542 1.356 . S
N550 H556 0.984 . S
N550 H557 0.984 . S
N551 C544 1.356 . S
N551 H554 0.984 . S
N551 H555 0.985 . S
H552 N547 0.984 . S
H553 N547 0.985 . S
H554 N551 0.984 . S
H555 N551 0.985 . S
H556 N550 0.984 . S
H557 N550 0.984 . S
H558 N546 0.984 . S
H559 N546 0.985 . S
C560 C561 1.363 . S
C560 C566 1.379 . S
C560 N568 1.356 . S
C561 C560 1.363 . S
C561 C567 1.363 . S
C562 C563 1.363 . S
C562 C567 1.379 . S
C562 N569 1.356 . S
C563 C562 1.363 . S
C563 C566 1.363 . S
N564 C566 1.356 . S
N564 H576 0.984 . S
N564 H577 0.985 . S
N565 C567 1.356 . S
N565 H570 0.984 . S
N565 H571 0.985 . S
C566 C560 1.379 . S
C566 C563 1.363 . S
C566 N564 1.356 . S
C567 C561 1.363 . S
C567 C562 1.379 . S
C567 N565 1.356 . S
N568 C560 1.356 . S
N568 H574 0.984 . S
N568 H575 0.984 . S
N569 C562 1.356 . S
N569 H572 0.984 . S
N569 H573 0.985 . S
H570 N565 0.984 . S
H571 N565 0.985 . S
H572 N569 0.984 . S
H573 N569 0.985 . S
H574 N568 0.984 . S
H575 N568 0.984 . S
H576 N564 0.984 . S
H577 N564 0.985 . S
C578 C579 1.363 . S
C578 C584 1.379 . S
C578 N586 1.356 . S
C579 C578 1.363 . S
C579 C585 1.363 . S
C580 C581 1.363 . S
C580 C585 1.379 . S
C580 N587 1.356 1_554 S
C581 C580 1.363 . S
C581 C584 1.363 . S
N582 C584 1.356 . S
N582 H594 0.984 . S
N582 H595 0.985 . S
N583 C585 1.356 . S
N583 H588 0.984 . S
N583 H589 0.985 1_554 S
C584 C578 1.379 . S
C584 C581 1.363 . S
C584 N582 1.356 . S
C585 C579 1.363 . S
C585 C580 1.379 . S
C585 N583 1.356 . S
N586 C578 1.356 . S
N586 H592 0.984 . S
N586 H593 0.984 . S
N587 C580 1.356 1_556 S
N587 H590 0.984 . S
N587 H591 0.985 . S
H588 N583 0.984 . S
H589 N583 0.985 1_556 S
H590 N587 0.984 . S
H591 N587 0.985 . S
H592 N586 0.984 . S
H593 N586 0.984 . S
H594 N582 0.984 . S
H595 N582 0.985 . S
C596 C597 1.363 . S
C596 C602 1.379 . S
C596 N604 1.356 . S
C597 C596 1.363 . S
C597 C603 1.363 . S
C598 C599 1.363 . S
C598 C603 1.379 . S
C598 N605 1.356 . S
C599 C598 1.363 . S
C599 C602 1.363 . S
N600 C602 1.356 1_455 S
N600 H612 0.984 . S
N600 H613 0.985 . S
N601 C603 1.356 . S
N601 H606 0.984 . S
N601 H607 0.985 . S
C602 C596 1.379 . S
C602 C599 1.363 . S
C602 N600 1.356 1_655 S
C603 C597 1.363 . S
C603 C598 1.379 . S
C603 N601 1.356 . S
N604 C596 1.356 . S
N604 H610 0.984 1_655 S
N604 H611 0.984 . S
N605 C598 1.356 . S
N605 H608 0.984 . S
N605 H609 0.985 . S
H606 N601 0.984 . S
H607 N601 0.985 . S
H608 N605 0.984 . S
H609 N605 0.985 . S
H610 N604 0.984 1_455 S
H611 N604 0.984 . S
H612 N600 0.984 . S
H613 N600 0.985 . S
C614 C615 1.363 . S
C614 C620 1.379 . S
C614 N622 1.356 . S
C615 C614 1.363 . S
C615 C621 1.363 . S
C616 C617 1.363 . S
C616 C621 1.379 . S
C616 N623 1.356 . S
C617 C616 1.363 . S
C617 C620 1.363 . S
N618 C620 1.356 1_554 S
N618 H630 0.984 . S
N618 H631 0.985 . S
N619 C621 1.356 . S
N619 H624 0.984 . S
N619 H625 0.985 . S
C620 C614 1.379 . S
C620 C617 1.363 . S
C620 N618 1.356 1_556 S
C621 C615 1.363 . S
C621 C616 1.379 . S
C621 N619 1.356 . S
N622 C614 1.356 . S
N622 H628 0.984 . S
N622 H629 0.984 . S
N623 C616 1.356 . S
N623 H626 0.984 1_556 S
N623 H627 0.985 . S
H624 N619 0.984 . S
H625 N619 0.985 . S
H626 N623 0.984 1_554 S
H627 N623 0.985 . S
H628 N622 0.984 . S
H629 N622 0.984 . S
H630 N618 0.984 . S
H631 N618 0.985 . S
C632 C633 1.363 . S
C632 C638 1.379 . S
C632 N640 1.356 . S
C633 C632 1.363 . S
C633 C639 1.363 . S
C634 C635 1.363 . S
C634 C639 1.379 . S
C634 N641 1.356 . S
C635 C634 1.363 . S
C635 C638 1.363 . S
N636 C638 1.356 . S
N636 H648 0.984 . S
N636 H649 0.985 . S
N637 C639 1.356 . S
N637 H642 0.984 . S
N637 H643 0.985 . S
C638 C632 1.379 . S
C638 C635 1.363 . S
C638 N636 1.356 . S
C639 C633 1.363 . S
C639 C634 1.379 . S
C639 N637 1.356 . S
N640 C632 1.356 . S
N640 H646 0.984 . S
N640 H647 0.984 . S
N641 C634 1.356 . S
N641 H644 0.984 . S
N641 H645 0.985 . S
H642 N637 0.984 . S
H643 N637 0.985 . S
H644 N641 0.984 . S
H645 N641 0.985 . S
H646 N640 0.984 . S
H647 N640 0.984 . S
H648 N636 0.984 . S
H649 N636 0.985 . S
C650 C651 1.363 . S
C650 C656 1.379 . S
C650 N658 1.356 . S
C651 C650 1.363 . S
C651 C657 1.363 . S
C652 C653 1.363 . S
C652 C657 1.379 . S
C652 N659 1.356 . S
C653 C652 1.363 . S
C653 C656 1.363 . S
N654 C656 1.356 . S
N654 H666 0.984 . S
N654 H667 0.985 . S
N655 C657 1.356 . S
N655 H660 0.984 . S
N655 H661 0.982 1_556 S
C656 C650 1.379 . S
C656 C653 1.363 . S
C656 N654 1.356 . S
C657 C651 1.363 . S
C657 C652 1.379 . S
C657 N655 1.356 . S
N658 C650 1.356 . S
N658 H664 0.984 . S
N658 H665 0.984 . S
N659 C652 1.356 . S
N659 H662 0.984 . S
N659 H663 0.985 1_556 S
H660 N655 0.984 . S
H661 N655 0.982 1_554 S
H662 N659 0.984 . S
H663 N659 0.985 1_554 S
H664 N658 0.984 . S
H665 N658 0.984 . S
H666 N654 0.984 . S
H667 N654 0.985 . S
C239 C164 1.505 . S
C237 C11 1.366 . S
C257 C167 1.738 . S
C255 C25 1.696 . S
C275 C165 1.334 . S
C273 C40 1.271 . S
C293 C166 1.393 . S
C291 C59 1.323 . S
C311 C181 1.777 . S
C309 C6 1.765 . S
C329 C195 1.804 . S
C327 C21 1.754 . S
C345 C49 1.500 . S
C347 C221 1.575 1_655 S
C365 C235 1.536 . S
C363 C68 1.436 . S
C383 C180 1.750 . S
C381 C30 1.526 . S
C399 C44 1.624 . S
C401 C194 1.617 . S
C419 C220 1.607 . S
C417 C63 1.605 . S
C437 C234 1.680 . S
C435 C2 1.672 . S
C453 C78 1.716 1_455 S
C455 C179 1.728 . S
C473 C152 1.671 . S
C471 C97 1.575 . S
C489 C120 1.600 . S
C491 C178 1.615 . S
C507 C139 1.584 . S
C509 C153 1.590 . S
C527 C208 1.495 . S
C525 C87 1.407 1_455 S
C545 C222 1.604 . S
C543 C101 1.552 . S
C563 C192 1.589 . S
C561 C125 1.476 . S
C579 C144 1.651 . S
C581 C206 1.690 . S
C599 C209 1.743 . S
C597 C106 1.510 . S
C617 C223 1.603 1_556 S
C615 C116 1.579 . S
C635 C193 1.670 . S
C633 C135 1.654 . S
C651 C82 1.799 . S
C653 C207 1.782 . S
