# Generated by pormake.
# Topology anh, (6,3)-cn, num edge types: 1
# Building blocks:
#     Node 0, Type 0, BuildingBlock: MIFKUJ_clean_sbu_0, # of connection points: 6
#     Node 1, Type 0, BuildingBlock: MIFKUJ_clean_sbu_0, # of connection points: 6
#     Node 2, Type 0, BuildingBlock: MIFKUJ_clean_sbu_0, # of connection points: 6
#     Node 3, Type 1, BuildingBlock: PAMTOO_clean_linker_0, # of connection points: 3
#     Node 4, Type 1, BuildingBlock: PAMTOO_clean_linker_0, # of connection points: 3
#     Node 5, Type 1, BuildingBlock: PAMTOO_clean_linker_0, # of connection points: 3
#     Node 6, Type 1, BuildingBlock: PAMTOO_clean_linker_0, # of connection points: 3
#     Node 7, Type 1, BuildingBlock: PAMTOO_clean_linker_0, # of connection points: 3
#     Node 8, Type 1, BuildingBlock: PAMTOO_clean_linker_0, # of connection points: 3
#     Edge 9, Type (0, 1), BuildingBlock: KIFKEQ_clean_linker_1, # of connection points: 2
#     Edge 10, Type (0, 1), BuildingBlock: KIFKEQ_clean_linker_1, # of connection points: 2
#     Edge 11, Type (0, 1), BuildingBlock: KIFKEQ_clean_linker_1, # of connection points: 2
#     Edge 12, Type (0, 1), BuildingBlock: KIFKEQ_clean_linker_1, # of connection points: 2
#     Edge 13, Type (0, 1), BuildingBlock: KIFKEQ_clean_linker_1, # of connection points: 2
#     Edge 14, Type (0, 1), BuildingBlock: KIFKEQ_clean_linker_1, # of connection points: 2
#     Edge 15, Type (0, 1), BuildingBlock: KIFKEQ_clean_linker_1, # of connection points: 2
#     Edge 16, Type (0, 1), BuildingBlock: KIFKEQ_clean_linker_1, # of connection points: 2
#     Edge 17, Type (0, 1), BuildingBlock: KIFKEQ_clean_linker_1, # of connection points: 2
#     Edge 18, Type (0, 1), BuildingBlock: KIFKEQ_clean_linker_1, # of connection points: 2
#     Edge 19, Type (0, 1), BuildingBlock: KIFKEQ_clean_linker_1, # of connection points: 2
#     Edge 20, Type (0, 1), BuildingBlock: KIFKEQ_clean_linker_1, # of connection points: 2
#     Edge 21, Type (0, 1), BuildingBlock: KIFKEQ_clean_linker_1, # of connection points: 2
#     Edge 22, Type (0, 1), BuildingBlock: KIFKEQ_clean_linker_1, # of connection points: 2
#     Edge 23, Type (0, 1), BuildingBlock: KIFKEQ_clean_linker_1, # of connection points: 2
#     Edge 24, Type (0, 1), BuildingBlock: KIFKEQ_clean_linker_1, # of connection points: 2
#     Edge 25, Type (0, 1), BuildingBlock: KIFKEQ_clean_linker_1, # of connection points: 2
#     Edge 26, Type (0, 1), BuildingBlock: KIFKEQ_clean_linker_1, # of connection points: 2
# Relax obj value: 0.082
# Max RMSD: 0.147
# Mean RMSD: 0.110
data_MOF--net-anh--node1-MIFKUJ_clean_sbu_0--node2-PAMTOO_clean_linker_0--edge1-KIFKEQ_clean_linker_1
_symmetry_space_group_name_H-M    P1
_symmetry_Int_Tables_number       1
_symmetry_cell_setting            triclinic
loop_
_symmetry_equiv_pos_as_xyz
'x, y, z'
_cell_length_a     32.59246
_cell_length_b     32.136238
_cell_length_c     47.317536
_cell_angle_alpha  88.977018
_cell_angle_beta   93.50648
_cell_angle_gamma 120.03984
loop_
_atom_site_label
_atom_site_type_symbol
_atom_site_fract_x
_atom_site_fract_y
_atom_site_fract_z
_atom_type_partial_charge
Zn0 Zn 0.12545 0.58444 0.16502 0.0
Zn1 Zn 0.97456 0.48877 0.17037 0.0
C2 C 0.19988 0.56447 0.1791 0.0
O3 O 0.2003 0.5856 0.20272 0.0
C4 C 0.88841 0.48709 0.15957 0.0
O5 O 0.8817 0.44926 0.1453 0.0
O6 O 0.1574 0.65517 0.15565 0.0
O7 O 0.06215 0.54291 0.14638 0.0
O8 O 0.99161 0.49381 0.12905 0.0
C9 C 0.19211 0.67305 0.13968 0.0
O10 O 0.20369 0.64425 0.12751 0.0
O11 O 0.16977 0.55893 0.159 0.0
C12 C 0.90683 0.40665 0.1991 0.0
O13 O 0.90808 0.44093 0.21451 0.0
O14 O 0.93625 0.41818 0.17993 0.0
O15 O 0.03296 0.5257 0.19872 0.0
O16 O 0.11036 0.57625 0.20586 0.0
O17 O 0.9287 0.51375 0.17238 0.0
C18 C 0.0349 0.52236 0.12483 0.0
C19 C 0.06974 0.54904 0.21556 0.0
Zn20 Zn 0.61348 0.09071 0.48655 0.0
Zn21 Zn 0.55473 0.94424 0.49237 0.0
C22 C 0.7112 0.14786 0.50559 0.0
O23 O 0.69224 0.14614 0.52961 0.0
C24 C 0.4671 0.85712 0.47675 0.0
O25 O 0.48756 0.8618 0.4529 0.0
O26 O 0.59885 0.14448 0.48573 0.0
O27 O 0.58203 0.05109 0.45109 0.0
O28 O 0.55252 0.97221 0.4544 0.0
C29 C 0.61994 0.17907 0.46886 0.0
O30 O 0.649 0.17756 0.45139 0.0
O31 O 0.68427 0.12387 0.48435 0.0
C32 C 0.61193 0.905 0.51444 0.0
O33 O 0.60157 0.91592 0.53862 0.0
O34 O 0.59748 0.91589 0.49148 0.0
O35 O 0.56802 0.98322 0.52803 0.0
O36 O 0.59715 0.06188 0.52485 0.0
O37 O 0.4892 0.88813 0.49646 0.0
C38 C 0.56127 0.00919 0.44002 0.0
C39 C 0.58198 0.02402 0.53938 0.0
Zn40 Zn 0.63683 0.53159 0.82806 0.0
Zn41 Zn 0.53964 0.57098 0.82192 0.0
C42 C 0.62897 0.44227 0.8383 0.0
O43 O 0.64911 0.46672 0.86196 0.0
C44 C 0.57551 0.66771 0.80054 0.0
O45 O 0.55764 0.64468 0.77623 0.0
O46 O 0.70719 0.56404 0.83618 0.0
O47 O 0.62592 0.56665 0.79532 0.0
O48 O 0.55029 0.54305 0.78693 0.0
C49 C 0.73263 0.56228 0.81745 0.0
O50 O 0.71229 0.54167 0.79285 0.0
O51 O 0.61763 0.46243 0.81833 0.0
C52 C 0.45598 0.56175 0.84166 0.0
O53 O 0.48613 0.58375 0.86335 0.0
O54 O 0.47065 0.55171 0.81995 0.0
O55 O 0.55145 0.5492 0.86009 0.0
O56 O 0.60844 0.53048 0.86481 0.0
O57 O 0.5744 0.64392 0.82252 0.0
C58 C 0.58879 0.54765 0.77882 0.0
C59 C 0.57634 0.53595 0.87515 0.0
H60 H 0.62356 0.08412 0.24132 0.0
H61 H 0.48153 0.97821 0.21236 0.0
H62 H 0.57429 0.08349 0.15471 0.0
H63 H 0.45989 0.03978 0.13633 0.0
C64 C 0.45336 0.01685 0.15528 0.0
O65 O 0.49023 0.00752 0.15991 0.0
H66 H 0.45092 0.03691 0.17348 0.0
C67 C 0.59621 0.06783 0.22431 0.0
C68 C 0.6047 0.08815 0.19731 0.0
C69 C 0.55171 0.02877 0.23008 0.0
C70 C 0.51592 0.00869 0.20826 0.0
C71 C 0.52428 0.02819 0.18107 0.0
C72 C 0.56833 0.06829 0.17571 0.0
H73 H 0.65188 0.64056 0.57657 0.0
H74 H 0.63165 0.50035 0.55904 0.0
H75 H 0.66621 0.60307 0.49235 0.0
H76 H 0.60377 0.50009 0.4696 0.0
C77 C 0.60597 0.48397 0.49022 0.0
O78 O 0.64745 0.51589 0.50524 0.0
H79 H 0.57424 0.47646 0.5018 0.0
C80 C 0.65167 0.61492 0.56188 0.0
C81 C 0.66122 0.62773 0.53354 0.0
C82 C 0.64048 0.56899 0.57132 0.0
C83 C 0.64034 0.53605 0.55219 0.0
C84 C 0.64942 0.54839 0.52376 0.0
C85 C 0.65967 0.59405 0.51442 0.0
H86 H 0.03176 0.59147 0.92455 0.0
H87 H 0.14745 0.56833 0.9094 0.0
H88 H 0.06171 0.57562 0.83914 0.0
H89 H 0.1096 0.51135 0.82586 0.0
C90 C 0.12931 0.52263 0.84689 0.0
O91 O 0.13545 0.567 0.85402 0.0
H92 H 0.10833 0.49491 0.86257 0.0
C93 C 0.05312 0.58638 0.90981 0.0
C94 C 0.04171 0.58431 0.88054 0.0
C95 C 0.09069 0.58001 0.92043 0.0
C96 C 0.1184 0.57341 0.90147 0.0
C97 C 0.10819 0.5726 0.87221 0.0
C98 C 0.06987 0.57775 0.86179 0.0
H99 H 0.9956 0.42602 0.4205 0.0
H100 H 0.1339 0.5496 0.43783 0.0
H101 H 0.05636 0.4611 0.50612 0.0
H102 H 0.13197 0.57041 0.52785 0.0
C103 C 0.13832 0.57735 0.50499 0.0
O104 O 0.13504 0.5372 0.49251 0.0
H105 H 0.11073 0.58528 0.49569 0.0
C106 C 0.02448 0.44901 0.43546 0.0
C107 C 0.02074 0.43835 0.46445 0.0
C108 C 0.06484 0.48911 0.42551 0.0
C109 C 0.10216 0.51873 0.44501 0.0
C110 C 0.09893 0.50844 0.47395 0.0
C111 C 0.05848 0.4683 0.48365 0.0
H112 H 0.6071 0.97374 0.74756 0.0
H113 H 0.61072 0.10706 0.76266 0.0
H114 H 0.6315 0.03055 0.83251 0.0
H115 H 0.58676 0.09739 0.851 0.0
C116 C 0.58906 0.10874 0.82856 0.0
O117 O 0.62681 0.10779 0.81741 0.0
H118 H 0.55481 0.08288 0.81712 0.0
C119 C 0.61103 1.00131 0.76218 0.0
C120 C 0.62045 0.99759 0.79114 0.0
C121 C 0.60708 0.04027 0.75174 0.0
C122 C 0.61318 0.07643 0.77049 0.0
C123 C 0.62124 0.0726 0.79962 0.0
C124 C 0.62459 0.03301 0.81003 0.0
H125 H 0.62755 0.52423 0.08831 0.0
H126 H 0.49358 0.51913 0.09278 0.0
H127 H 0.57615 0.52831 0.16925 0.0
H128 H 0.46939 0.47375 0.17815 0.0
C129 C 0.45943 0.48382 0.15733 0.0
O130 O 0.49807 0.52488 0.14799 0.0
H131 H 0.44826 0.45327 0.14222 0.0
C132 C 0.60056 0.52412 0.10069 0.0
C133 C 0.60702 0.52708 0.13031 0.0
C134 C 0.55965 0.52071 0.08688 0.0
C135 C 0.52528 0.52136 0.10305 0.0
C136 C 0.53116 0.52382 0.13269 0.0
C137 C 0.57181 0.52631 0.14634 0.0
H138 H 0.22196 0.53689 0.13047 0.0
H139 H 0.25788 0.55752 0.22048 0.0
H140 H 0.28371 0.51622 0.12518 0.0
H141 H 0.31828 0.53535 0.21541 0.0
H142 H 0.45814 0.54928 0.19247 0.0
H143 H 0.39454 0.56738 0.19739 0.0
H144 H 0.30629 0.45684 0.13504 0.0
H145 H 0.37087 0.44028 0.12951 0.0
C146 C 0.24267 0.53646 0.14916 0.0
C147 C 0.23525 0.54914 0.17586 0.0
C148 C 0.27793 0.5244 0.14617 0.0
C149 C 0.30627 0.5244 0.16985 0.0
C150 C 0.2979 0.53596 0.19662 0.0
C151 C 0.26301 0.5484 0.19956 0.0
C152 C 0.42506 0.52898 0.17988 0.0
C153 C 0.41931 0.49349 0.16066 0.0
C154 C 0.38847 0.53901 0.1828 0.0
C155 C 0.34509 0.51344 0.16669 0.0
C156 C 0.33937 0.47766 0.14752 0.0
C157 C 0.37617 0.46789 0.14448 0.0
H158 H 0.77974 0.20387 0.54628 0.0
H159 H 0.7558 0.17493 0.45607 0.0
H160 H 0.8579 0.27343 0.53859 0.0
H161 H 0.8334 0.24435 0.44861 0.0
H162 H 0.92909 0.40847 0.4463 0.0
H163 H 0.85808 0.33431 0.45766 0.0
H164 H 0.94137 0.29841 0.51678 0.0
H165 H 0.01351 0.37241 0.50467 0.0
C166 C 0.79146 0.21177 0.52491 0.0
C167 C 0.76135 0.18424 0.50175 0.0
C168 C 0.83617 0.25146 0.52058 0.0
C169 C 0.85113 0.26446 0.49301 0.0
C170 C 0.82227 0.23532 0.47006 0.0
C171 C 0.77795 0.19545 0.47438 0.0
C172 C 0.93254 0.3847 0.46155 0.0
C173 C 0.97714 0.39589 0.47414 0.0
C174 C 0.89183 0.3423 0.46807 0.0
C175 C 0.89455 0.31038 0.48766 0.0
C176 C 0.93856 0.32247 0.50148 0.0
C177 C 0.97966 0.36485 0.49465 0.0
H178 H 0.58936 0.72116 0.8485 0.0
H179 H 0.59663 0.73166 0.75761 0.0
H180 H 0.60816 0.80502 0.85132 0.0
H181 H 0.61535 0.81497 0.76045 0.0
H182 H 0.68164 0.97206 0.77233 0.0
H183 H 0.67841 0.89495 0.77832 0.0
H184 H 0.56655 0.85124 0.83594 0.0
H185 H 0.57024 0.92912 0.83002 0.0
C186 C 0.59564 0.74152 0.82918 0.0
C187 C 0.59152 0.71972 0.80279 0.0
C188 C 0.60608 0.78942 0.83081 0.0
C189 C 0.61338 0.81671 0.80615 0.0
C190 C 0.61059 0.79521 0.77992 0.0
C191 C 0.59959 0.74731 0.77825 0.0
C192 C 0.65719 0.94638 0.78683 0.0
C193 C 0.62588 0.95624 0.80052 0.0
C194 C 0.6551 0.90214 0.79011 0.0
C195 C 0.62156 0.86661 0.80713 0.0
C196 C 0.59282 0.87791 0.82269 0.0
C197 C 0.59496 0.92246 0.81939 0.0
H198 H 0.89185 0.57116 0.17424 0.0
H199 H 0.79458 0.42299 0.15013 0.0
H200 H 0.82481 0.58577 0.17475 0.0
H201 H 0.72821 0.43745 0.15081 0.0
H202 H 0.61231 0.46606 0.16918 0.0
H203 H 0.68265 0.45962 0.18309 0.0
H204 H 0.76882 0.58589 0.13465 0.0
H205 H 0.69865 0.59208 0.1208 0.0
C206 C 0.85621 0.54169 0.16936 0.0
C207 C 0.84849 0.49614 0.16177 0.0
C208 C 0.81794 0.55002 0.16967 0.0
C209 C 0.77131 0.51269 0.16294 0.0
C210 C 0.76362 0.46676 0.15647 0.0
C211 C 0.80176 0.45866 0.15573 0.0
C212 C 0.64659 0.49317 0.16229 0.0
C213 C 0.65023 0.52933 0.14381 0.0
C214 C 0.6867 0.48935 0.17005 0.0
C215 C 0.73108 0.52202 0.15973 0.0
C216 C 0.73521 0.5604 0.14308 0.0
C217 C 0.69508 0.56383 0.13504 0.0
H218 H 0.41707 0.8349 0.52435 0.0
H219 H 0.40799 0.78688 0.43826 0.0
H220 H 0.33765 0.76785 0.53101 0.0
H221 H 0.32869 0.71936 0.44511 0.0
H222 H 0.16853 0.63584 0.4592 0.0
H223 H 0.24799 0.70359 0.4521 0.0
H224 H 0.29679 0.67989 0.53455 0.0
H225 H 0.21716 0.61253 0.54158 0.0
C226 C 0.3982 0.80999 0.50685 0.0
C227 C 0.41889 0.81625 0.48076 0.0
C228 C 0.35277 0.7714 0.51074 0.0
C229 C 0.3269 0.73826 0.4886 0.0
C230 C 0.34752 0.74459 0.46247 0.0
C231 C 0.39307 0.78312 0.45861 0.0
C232 C 0.19633 0.6455 0.47579 0.0
C233 C 0.18678 0.61978 0.50112 0.0
C234 C 0.24181 0.68393 0.47168 0.0
C235 C 0.27863 0.69723 0.49282 0.0
C236 C 0.269 0.67105 0.51807 0.0
C237 C 0.22357 0.6325 0.5221 0.0
H238 H 0.64403 0.38986 0.87902 0.0
H239 H 0.59801 0.38331 0.79082 0.0
H240 H 0.63518 0.3107 0.87483 0.0
H241 H 0.59012 0.3037 0.7864 0.0
H242 H 0.5336 0.14027 0.80008 0.0
H243 H 0.54315 0.22077 0.80093 0.0
H244 H 0.6718 0.27101 0.85451 0.0
H245 H 0.66111 0.19013 0.85426 0.0
C246 C 0.63216 0.37159 0.85862 0.0
C247 C 0.62181 0.3931 0.83523 0.0
C248 C 0.62745 0.32617 0.85617 0.0
C249 C 0.61246 0.30084 0.8302 0.0
C250 C 0.60149 0.32202 0.80678 0.0
C251 C 0.60612 0.36769 0.80927 0.0
C252 C 0.56396 0.16868 0.81193 0.0
C253 C 0.59648 0.15902 0.82731 0.0
C254 C 0.56964 0.21488 0.81227 0.0
C255 C 0.60802 0.25243 0.82799 0.0
C256 C 0.64128 0.24284 0.84265 0.0
C257 C 0.63545 0.19666 0.84238 0.0
H258 H 0.62759 0.86562 0.46824 0.0
H259 H 0.64475 0.87393 0.55963 0.0
H260 H 0.65235 0.80536 0.46826 0.0
H261 H 0.66831 0.8133 0.55968 0.0
H262 H 0.72449 0.71538 0.55664 0.0
H263 H 0.72542 0.79098 0.5481 0.0
H264 H 0.61449 0.72162 0.48175 0.0
H265 H 0.61472 0.64654 0.4899 0.0
C266 C 0.63733 0.85516 0.4883 0.0
C267 C 0.63369 0.87417 0.51397 0.0
C268 C 0.65128 0.82046 0.4883 0.0
C269 C 0.66201 0.80422 0.51395 0.0
C270 C 0.66092 0.82532 0.53948 0.0
C271 C 0.64699 0.85991 0.53948 0.0
C272 C 0.70123 0.71682 0.53976 0.0
C273 C 0.66914 0.67518 0.52413 0.0
C274 C 0.70154 0.75994 0.53496 0.0
C275 C 0.66937 0.76213 0.51465 0.0
C276 C 0.63995 0.72135 0.49746 0.0
C277 C 0.63997 0.67826 0.50212 0.0
H278 H 0.79631 0.56024 0.7832 0.0
H279 H 0.78226 0.59659 0.86825 0.0
H280 H 0.87481 0.57208 0.7975 0.0
H281 H 0.86062 0.6086 0.88233 0.0
H282 H 0.95537 0.542 0.9034 0.0
H283 H 0.88531 0.54583 0.88718 0.0
H284 H 0.95931 0.63291 0.81678 0.0
H285 H 0.0307 0.63035 0.83353 0.0
C286 C 0.81027 0.57158 0.80478 0.0
C287 C 0.78278 0.57674 0.82472 0.0
C288 C 0.85529 0.57858 0.8129 0.0
C289 C 0.87338 0.59059 0.84109 0.0
C290 C 0.84711 0.59859 0.86055 0.0
C291 C 0.80232 0.59187 0.85244 0.0
C292 C 0.95725 0.56283 0.88478 0.0
C293 C -0.00106 0.58645 0.87 0.0
C294 C 0.917 0.56493 0.87547 0.0
C295 C 0.91714 0.59021 0.85096 0.0
C296 C 0.95838 0.61322 0.83578 0.0
C297 C -0.00094 0.61154 0.84529 0.0
H298 H 0.18701 0.74361 0.16834 0.0
H299 H 0.26796 0.72189 0.10717 0.0
H300 H 0.24475 0.82958 0.16984 0.0
H301 H 0.32588 0.80731 0.10909 0.0
H302 H 0.41094 0.96841 0.10534 0.0
H303 H 0.34168 0.88784 0.09864 0.0
H304 H 0.32666 0.8778 0.18902 0.0
H305 H 0.39519 0.95871 0.19542 0.0
C306 C 0.21675 0.75722 0.15494 0.0
C307 C 0.22311 0.72581 0.13783 0.0
C308 C 0.25 0.80643 0.15596 0.0
C309 C 0.29018 0.82529 0.13979 0.0
C310 C 0.29517 0.79415 0.12163 0.0
C311 C 0.26204 0.74503 0.12066 0.0
C312 C 0.39208 0.94918 0.12362 0.0
C313 C 0.40777 0.96981 0.15083 0.0
C314 C 0.35271 0.903 0.11986 0.0
C315 C 0.32858 0.87633 0.14329 0.0
C316 C 0.34384 0.8976 0.17047 0.0
C317 C 0.38316 0.94378 0.17419 0.0
H318 H 0.5607 0.19269 0.50114 0.0
H319 H 0.66755 0.2629 0.44014 0.0
H320 H 0.55492 0.26504 0.50522 0.0
H321 H 0.66274 0.33561 0.44481 0.0
H322 H 0.61202 0.44447 0.44072 0.0
H323 H 0.61231 0.36928 0.43444 0.0
H324 H 0.60132 0.34529 0.52456 0.0
H325 H 0.5995 0.41973 0.53047 0.0
C326 C 0.58291 0.22353 0.48857 0.0
C327 C 0.61461 0.22204 0.47032 0.0
C328 C 0.57984 0.26513 0.49106 0.0
C329 C 0.60852 0.30624 0.47545 0.0
C330 C 0.63968 0.30443 0.45687 0.0
C331 C 0.6426 0.26277 0.45429 0.0
C332 C 0.60935 0.42282 0.45908 0.0
C333 C 0.60546 0.4375 0.48605 0.0
C334 C 0.60984 0.37998 0.45556 0.0
C335 C 0.60678 0.35119 0.479 0.0
C336 C 0.60291 0.36612 0.50599 0.0
C337 C 0.60219 0.40881 0.50945 0.0
H338 H 0.40895 0.55715 0.88814 0.0
H339 H 0.3907 0.54029 0.79708 0.0
H340 H 0.32839 0.5425 0.88977 0.0
H341 H 0.3105 0.5276 0.79852 0.0
H342 H 0.15419 0.4716 0.81303 0.0
H343 H 0.23105 0.47546 0.81219 0.0
H344 H 0.28766 0.5844 0.87842 0.0
H345 H 0.21094 0.5789 0.87998 0.0
C346 C 0.38771 0.55047 0.86844 0.0
C347 C 0.40622 0.55028 0.84246 0.0
C348 C 0.34157 0.54231 0.86934 0.0
C349 C 0.31309 0.53452 0.84424 0.0
C350 C 0.33123 0.53302 0.81828 0.0
C351 C 0.37729 0.54057 0.81742 0.0
C352 C 0.18327 0.49636 0.82731 0.0
C353 C 0.17693 0.52579 0.84604 0.0
C354 C 0.22727 0.49872 0.82679 0.0
C355 C 0.26568 0.5304 0.84515 0.0
C356 C 0.25882 0.5591 0.86424 0.0
C357 C 0.21487 0.5564 0.86491 0.0
H358 H 0.82304 0.37845 0.22283 0.0
H359 H 0.89615 0.32395 0.17572 0.0
H360 H 0.75109 0.30003 0.21902 0.0
H361 H 0.82373 0.24477 0.17239 0.0
H362 H 0.69369 0.10208 0.20911 0.0
H363 H 0.76911 0.17817 0.20837 0.0
H364 H 0.69415 0.24957 0.17585 0.0
H365 H 0.61887 0.17342 0.17626 0.0
C366 C 0.82403 0.34957 0.21203 0.0
C367 C 0.86539 0.35742 0.19962 0.0
C368 C 0.78262 0.30481 0.2096 0.0
C369 C 0.7818 0.26664 0.19512 0.0
C370 C 0.82352 0.27376 0.18359 0.0
C371 C 0.86487 0.31894 0.18557 0.0
C372 C 0.69359 0.13394 0.20132 0.0
C373 C 0.65061 0.13206 0.19276 0.0
C374 C 0.73663 0.1773 0.20085 0.0
C375 C 0.73726 0.21967 0.19232 0.0
C376 C 0.69448 0.2174 0.18275 0.0
C377 C 0.65156 0.17388 0.18275 0.0
H378 H 0.11334 0.60027 0.10582 0.0
H379 H 0.99485 0.46266 0.07885 0.0
H380 H 0.13849 0.61645 0.05717 0.0
H381 H 0.0198 0.47859 0.03033 0.0
H382 H 0.09324 0.5069 0.94877 0.0
H383 H 0.08857 0.49302 -0.00013 0.0
H384 H 0.09746 0.6301 0.01254 0.0
H385 H 0.10174 0.6437 0.96152 0.0
C386 C 0.09339 0.57314 0.08961 0.0
C387 C 0.05236 0.53027 0.09607 0.0
C388 C 0.10753 0.58247 0.06179 0.0
C389 C 0.08119 0.54867 0.04005 0.0
C390 C 0.04113 0.505 0.04674 0.0
C391 C 0.02663 0.49606 0.07445 0.0
C392 C 0.09551 0.53455 0.96263 0.0
C393 C 0.09764 0.57625 0.95134 0.0
C394 C 0.0925 0.52649 0.99176 0.0
C395 C 0.09234 0.56036 0.01007 0.0
C396 C 0.09781 0.60355 -0.00107 0.0
C397 C 0.10007 0.61126 0.96979 0.0
H398 H 0.55018 0.07129 0.40455 0.0
H399 H 0.5468 0.93507 0.40557 0.0
H400 H 0.53825 0.06575 0.35298 0.0
H401 H 0.53572 0.93019 0.35387 0.0
H402 H 0.60158 0.9996 0.26509 0.0
H403 H 0.59479 0.98633 0.31612 0.0
H404 H 0.47559 0.01035 0.31269 0.0
H405 H 0.48191 0.02278 0.26149 0.0
C406 C 0.54641 0.03997 0.3938 0.0
C407 C 0.54967 0.00375 0.40911 0.0
C408 C 0.53926 0.03666 0.36433 0.0
C409 C 0.53605 0.99752 0.34956 0.0
C410 C 0.53812 0.96071 0.36483 0.0
C411 C 0.54435 0.96353 0.39438 0.0
C412 C 0.57323 1.00079 0.2752 0.0
C413 C 0.54227 0.01219 0.25953 0.0
C414 C 0.56925 0.9931 0.30429 0.0
C415 C 0.53483 0.9976 0.31825 0.0
C416 C 0.50251 0.00686 0.30236 0.0
C417 C 0.50591 0.01364 0.27314 0.0
H418 H 0.66893 0.56874 0.75208 0.0
H419 H 0.51811 0.5125 0.73644 0.0
H420 H 0.6771 0.56476 0.7016 0.0
H421 H 0.52636 0.50814 0.68584 0.0
H422 H 0.57796 0.5823 0.59975 0.0
H423 H 0.56232 0.56916 0.64969 0.0
H424 H 0.65705 0.51166 0.65979 0.0
H425 H 0.67346 0.52589 0.60957 0.0
C426 C 0.63736 0.55481 0.73796 0.0
C427 C 0.59293 0.5414 0.74835 0.0
C428 C 0.64204 0.55227 0.70899 0.0
C429 C 0.60242 0.53633 0.6897 0.0
C430 C 0.55767 0.52118 0.70016 0.0
C431 C 0.55296 0.52363 0.72916 0.0
C432 C 0.59525 0.56661 0.61261 0.0
C433 C 0.6274 0.55569 0.60092 0.0
C434 C 0.5859 0.55858 0.64116 0.0
C435 C 0.60856 0.5395 0.65874 0.0
C436 C 0.63941 0.52685 0.64681 0.0
C437 C 0.64855 0.53464 0.61809 0.0
H438 H 0.56223 0.95363 0.57838 0.0
H439 H 0.60147 0.10319 0.57095 0.0
H440 H 0.56493 0.96062 0.62955 0.0
H441 H 0.60265 0.10972 0.62227 0.0
H442 H 0.65818 0.11328 0.71591 0.0
H443 H 0.64912 0.11092 0.66415 0.0
H444 H 0.52437 0.9698 0.66707 0.0
H445 H 0.53463 0.97185 0.71859 0.0
C446 C 0.57092 0.98789 0.58762 0.0
C447 C 0.5817 0.02783 0.57051 0.0
C448 C 0.57213 0.99183 0.61701 0.0
C449 C 0.58374 0.0357 0.63005 0.0
C450 C 0.59405 0.07555 0.61294 0.0
C451 C 0.59313 0.0717 0.5835 0.0
C452 C 0.62842 0.08227 0.70537 0.0
C453 C 0.59734 0.04258 0.72104 0.0
C454 C 0.62313 0.08084 0.67577 0.0
C455 C 0.58641 0.03982 0.66143 0.0
C456 C 0.55374 1.0014 0.67738 0.0
C457 C 0.55934 1.00267 0.70685 0.0
H458 H 0.63014 0.5199 0.9157 0.0
H459 H 0.50557 0.5349 0.90419 0.0
H460 H 0.62063 0.51221 0.96641 0.0
H461 H 0.49558 0.52626 0.95495 0.0
H462 H 0.5345 0.57196 0.05013 0.0
H463 H 0.53418 0.57159 -0.00156 0.0
H464 H 0.57053 0.45931 0.00162 0.0
H465 H 0.57165 0.46045 0.05315 0.0
C466 C 0.60043 0.52109 0.92391 0.0
C467 C 0.56887 0.52844 0.90583 0.0
C468 C 0.5948 0.51638 0.95302 0.0
C469 C 0.55733 0.51864 0.96477 0.0
C470 C 0.52521 0.52505 0.94664 0.0
C471 C 0.5309 0.52987 0.9175 0.0
C472 C 0.54168 0.54676 0.03967 0.0
C473 C 0.55368 0.51667 0.05558 0.0
C474 C 0.54145 0.54645 0.0101 0.0
C475 C 0.55295 0.51583 0.99592 0.0
C476 C 0.56265 0.48413 0.01189 0.0
C477 C 0.56313 0.48465 0.04138 0.0
H478 H 0.13697 0.60411 0.25663 0.0
H479 H 0.99561 0.48125 0.24474 0.0
H480 H 0.13538 0.59113 0.30745 0.0
H481 H 0.99389 0.46865 0.29586 0.0
H482 H 0.03784 0.42581 0.38107 0.0
H483 H 0.03631 0.44233 0.33071 0.0
H484 H 0.09549 0.59328 0.34991 0.0
H485 H 0.09651 0.57669 0.4005 0.0
C486 C 0.10529 0.5746 0.26488 0.0
C487 C 0.06643 0.54354 0.2466 0.0
C488 C 0.10434 0.56738 0.29406 0.0
C489 C 0.06465 0.52874 0.30563 0.0
C490 C 0.02522 0.49841 0.28747 0.0
C491 C 0.02603 0.50584 0.25824 0.0
C492 C 0.05019 0.4625 0.37459 0.0
C493 C 0.06703 0.49991 0.3948 0.0
C494 C 0.04917 0.47191 0.34573 0.0
C495 C 0.06529 0.519 0.33637 0.0
C496 C 0.08303 0.55663 0.35651 0.0
C497 C 0.08384 0.54717 0.38544 0.0
loop_
_geom_bond_atom_site_label_1
_geom_bond_atom_site_label_2
_geom_bond_distance
_geom_bond_site_symmetry_2
_ccdc_geom_bond_type
Zn0 O6 1.969 . S
Zn0 O7 1.965 . S
Zn0 O11 2.024 . S
Zn0 O16 1.969 . S
Zn1 O8 1.969 . S
Zn1 O14 1.969 . S
Zn1 O15 1.965 . S
Zn1 O17 2.024 . S
C2 O3 1.229 . S
C2 O11 1.058 . S
O3 C2 1.229 . S
C4 O5 1.229 . S
C4 O17 1.058 . S
O5 C4 1.229 . S
O6 Zn0 1.969 . S
O6 C9 1.267 . S
O7 Zn0 1.965 . S
O7 C18 1.260 . S
O8 Zn1 1.969 . S
O8 C18 1.258 1_655 S
C9 O6 1.267 . S
C9 O10 1.228 . S
O10 C9 1.228 . S
O11 Zn0 2.024 . S
O11 C2 1.058 . S
C12 O13 1.228 . S
C12 O14 1.267 . S
O13 C12 1.228 . S
O14 Zn1 1.969 . S
O14 C12 1.267 . S
O15 Zn1 1.965 . S
O15 C19 1.260 1_655 S
O16 Zn0 1.969 . S
O16 C19 1.258 . S
O17 Zn1 2.024 . S
O17 C4 1.058 . S
C18 O7 1.260 . S
C18 O8 1.258 1_455 S
C19 O15 1.260 1_455 S
C19 O16 1.258 . S
Zn20 O26 1.969 . S
Zn20 O27 1.965 . S
Zn20 O31 2.024 . S
Zn20 O36 1.969 . S
Zn21 O28 1.969 . S
Zn21 O34 1.969 . S
Zn21 O35 1.965 1_565 S
Zn21 O37 2.024 . S
C22 O23 1.229 . S
C22 O31 1.058 . S
O23 C22 1.229 . S
C24 O25 1.229 . S
C24 O37 1.058 . S
O25 C24 1.229 . S
O26 Zn20 1.969 . S
O26 C29 1.267 . S
O27 Zn20 1.965 . S
O27 C38 1.260 . S
O28 Zn21 1.969 . S
O28 C38 1.258 1_565 S
C29 O26 1.267 . S
C29 O30 1.228 . S
O30 C29 1.228 . S
O31 Zn20 2.024 . S
O31 C22 1.058 . S
C32 O33 1.228 . S
C32 O34 1.267 . S
O33 C32 1.228 . S
O34 Zn21 1.969 . S
O34 C32 1.267 . S
O35 Zn21 1.965 1_545 S
O35 C39 1.260 . S
O36 Zn20 1.969 . S
O36 C39 1.258 . S
O37 Zn21 2.024 . S
O37 C24 1.058 . S
C38 O27 1.260 . S
C38 O28 1.258 1_545 S
C39 O35 1.260 . S
C39 O36 1.258 . S
Zn40 O46 1.969 . S
Zn40 O47 1.965 . S
Zn40 O51 2.024 . S
Zn40 O56 1.969 . S
Zn41 O48 1.969 . S
Zn41 O54 1.969 . S
Zn41 O55 1.965 . S
Zn41 O57 2.024 . S
C42 O43 1.229 . S
C42 O51 1.058 . S
O43 C42 1.229 . S
C44 O45 1.229 . S
C44 O57 1.058 . S
O45 C44 1.229 . S
O46 Zn40 1.969 . S
O46 C49 1.267 . S
O47 Zn40 1.965 . S
O47 C58 1.260 . S
O48 Zn41 1.969 . S
O48 C58 1.258 . S
C49 O46 1.267 . S
C49 O50 1.228 . S
O50 C49 1.228 . S
O51 Zn40 2.024 . S
O51 C42 1.058 . S
C52 O53 1.228 . S
C52 O54 1.267 . S
O53 C52 1.228 . S
O54 Zn41 1.969 . S
O54 C52 1.267 . S
O55 Zn41 1.965 . S
O55 C59 1.260 . S
O56 Zn40 1.969 . S
O56 C59 1.258 . S
O57 Zn41 2.024 . S
O57 C44 1.058 . S
C58 O47 1.260 . S
C58 O48 1.258 . S
C59 O55 1.260 . S
C59 O56 1.258 . S
H60 C67 0.929 . S
H61 C70 0.930 1_565 S
H62 C72 0.929 . S
H63 C64 0.969 . S
C64 H63 0.969 . S
C64 O65 1.550 . S
C64 H66 0.973 . S
O65 C64 1.550 . S
O65 C71 1.412 1_565 S
H66 C64 0.973 . S
C67 H60 0.929 . S
C67 C68 1.400 . S
C67 C69 1.364 . S
C68 C67 1.400 . S
C68 C72 1.377 . S
C69 C67 1.364 . S
C69 C70 1.374 . S
C70 H61 0.930 1_545 S
C70 C69 1.374 . S
C70 C71 1.383 . S
C71 O65 1.412 1_545 S
C71 C70 1.383 . S
C71 C72 1.394 . S
C72 H62 0.929 . S
C72 C68 1.377 . S
C72 C71 1.394 . S
H73 C80 0.929 . S
H74 C83 0.930 . S
H75 C85 0.929 . S
H76 C77 0.969 . S
C77 H76 0.969 . S
C77 O78 1.550 . S
C77 H79 0.973 . S
O78 C77 1.550 . S
O78 C84 1.412 . S
H79 C77 0.973 . S
C80 H73 0.929 . S
C80 C81 1.400 . S
C80 C82 1.364 . S
C81 C80 1.400 . S
C81 C85 1.377 . S
C82 C80 1.364 . S
C82 C83 1.374 . S
C83 H74 0.930 . S
C83 C82 1.374 . S
C83 C84 1.383 . S
C84 O78 1.412 . S
C84 C83 1.383 . S
C84 C85 1.394 . S
C85 H75 0.929 . S
C85 C81 1.377 . S
C85 C84 1.394 . S
H86 C93 0.929 . S
H87 C96 0.930 . S
H88 C98 0.929 . S
H89 C90 0.969 . S
C90 H89 0.969 . S
C90 O91 1.550 . S
C90 H92 0.973 . S
O91 C90 1.550 . S
O91 C97 1.412 . S
H92 C90 0.973 . S
C93 H86 0.929 . S
C93 C94 1.400 . S
C93 C95 1.364 . S
C94 C93 1.400 . S
C94 C98 1.377 . S
C95 C93 1.364 . S
C95 C96 1.374 . S
C96 H87 0.930 . S
C96 C95 1.374 . S
C96 C97 1.383 . S
C97 O91 1.412 . S
C97 C96 1.383 . S
C97 C98 1.394 . S
C98 H88 0.929 . S
C98 C94 1.377 . S
C98 C97 1.394 . S
H99 C106 0.929 . S
H100 C109 0.930 . S
H101 C111 0.929 . S
H102 C103 0.969 . S
C103 H102 0.969 . S
C103 O104 1.550 . S
C103 H105 0.973 . S
O104 C103 1.550 . S
O104 C110 1.412 . S
H105 C103 0.973 . S
C106 H99 0.929 . S
C106 C107 1.400 . S
C106 C108 1.364 . S
C107 C106 1.400 . S
C107 C111 1.377 . S
C108 C106 1.364 . S
C108 C109 1.374 . S
C109 H100 0.930 . S
C109 C108 1.374 . S
C109 C110 1.383 . S
C110 O104 1.412 . S
C110 C109 1.383 . S
C110 C111 1.394 . S
C111 H101 0.929 . S
C111 C107 1.377 . S
C111 C110 1.394 . S
H112 C119 0.929 . S
H113 C122 0.930 . S
H114 C124 0.929 . S
H115 C116 0.969 . S
C116 H115 0.969 . S
C116 O117 1.550 . S
C116 H118 0.973 . S
O117 C116 1.550 . S
O117 C123 1.412 . S
H118 C116 0.973 . S
C119 H112 0.929 . S
C119 C120 1.400 . S
C119 C121 1.364 1_565 S
C120 C119 1.400 . S
C120 C124 1.377 1_565 S
C121 C119 1.364 1_545 S
C121 C122 1.374 . S
C122 H113 0.930 . S
C122 C121 1.374 . S
C122 C123 1.383 . S
C123 O117 1.412 . S
C123 C122 1.383 . S
C123 C124 1.394 . S
C124 H114 0.929 . S
C124 C120 1.377 1_545 S
C124 C123 1.394 . S
H125 C132 0.929 . S
H126 C135 0.930 . S
H127 C137 0.929 . S
H128 C129 0.969 . S
C129 H128 0.969 . S
C129 O130 1.550 . S
C129 H131 0.973 . S
O130 C129 1.550 . S
O130 C136 1.412 . S
H131 C129 0.973 . S
C132 H125 0.929 . S
C132 C133 1.400 . S
C132 C134 1.364 . S
C133 C132 1.400 . S
C133 C137 1.377 . S
C134 C132 1.364 . S
C134 C135 1.374 . S
C135 H126 0.930 . S
C135 C134 1.374 . S
C135 C136 1.383 . S
C136 O130 1.412 . S
C136 C135 1.383 . S
C136 C137 1.394 . S
C137 H127 0.929 . S
C137 C133 1.377 . S
C137 C136 1.394 . S
H138 C146 0.950 . S
H139 C151 0.950 . S
H140 C148 0.950 . S
H141 C150 0.950 . S
H142 C152 0.950 . S
H143 C154 0.950 . S
H144 C156 0.950 . S
H145 C157 0.950 . S
C146 H138 0.950 . S
C146 C147 1.386 . S
C146 C148 1.391 . S
C147 C146 1.386 . S
C147 C151 1.393 . S
C148 H140 0.950 . S
C148 C146 1.391 . S
C148 C149 1.400 . S
C149 C148 1.400 . S
C149 C150 1.398 . S
C149 C155 1.491 . S
C150 H141 0.950 . S
C150 C149 1.398 . S
C150 C151 1.391 . S
C151 H139 0.950 . S
C151 C147 1.393 . S
C151 C150 1.391 . S
C152 H142 0.950 . S
C152 C153 1.386 . S
C152 C154 1.391 . S
C153 C152 1.386 . S
C153 C157 1.393 . S
C154 H143 0.950 . S
C154 C152 1.391 . S
C154 C155 1.400 . S
C155 C149 1.491 . S
C155 C154 1.400 . S
C155 C156 1.398 . S
C156 H144 0.950 . S
C156 C155 1.398 . S
C156 C157 1.391 . S
C157 H145 0.950 . S
C157 C153 1.393 . S
C157 C156 1.391 . S
H158 C166 0.950 . S
H159 C171 0.950 . S
H160 C168 0.950 . S
H161 C170 0.950 . S
H162 C172 0.950 . S
H163 C174 0.950 . S
H164 C176 0.950 . S
H165 C177 0.950 1_455 S
C166 H158 0.950 . S
C166 C167 1.386 . S
C166 C168 1.391 . S
C167 C166 1.386 . S
C167 C171 1.393 . S
C168 H160 0.950 . S
C168 C166 1.391 . S
C168 C169 1.400 . S
C169 C168 1.400 . S
C169 C170 1.398 . S
C169 C175 1.491 . S
C170 H161 0.950 . S
C170 C169 1.398 . S
C170 C171 1.391 . S
C171 H159 0.950 . S
C171 C167 1.393 . S
C171 C170 1.391 . S
C172 H162 0.950 . S
C172 C173 1.386 . S
C172 C174 1.391 . S
C173 C172 1.386 . S
C173 C177 1.393 . S
C174 H163 0.950 . S
C174 C172 1.391 . S
C174 C175 1.400 . S
C175 C169 1.491 . S
C175 C174 1.400 . S
C175 C176 1.398 . S
C176 H164 0.950 . S
C176 C175 1.398 . S
C176 C177 1.391 . S
C177 H165 0.950 1_655 S
C177 C173 1.393 . S
C177 C176 1.391 . S
H178 C186 0.950 . S
H179 C191 0.950 . S
H180 C188 0.950 . S
H181 C190 0.950 . S
H182 C192 0.950 . S
H183 C194 0.950 . S
H184 C196 0.950 . S
H185 C197 0.950 . S
C186 H178 0.950 . S
C186 C187 1.386 . S
C186 C188 1.391 . S
C187 C186 1.386 . S
C187 C191 1.393 . S
C188 H180 0.950 . S
C188 C186 1.391 . S
C188 C189 1.400 . S
C189 C188 1.400 . S
C189 C190 1.398 . S
C189 C195 1.491 . S
C190 H181 0.950 . S
C190 C189 1.398 . S
C190 C191 1.391 . S
C191 H179 0.950 . S
C191 C187 1.393 . S
C191 C190 1.391 . S
C192 H182 0.950 . S
C192 C193 1.386 . S
C192 C194 1.391 . S
C193 C192 1.386 . S
C193 C197 1.393 . S
C194 H183 0.950 . S
C194 C192 1.391 . S
C194 C195 1.400 . S
C195 C189 1.491 . S
C195 C194 1.400 . S
C195 C196 1.398 . S
C196 H184 0.950 . S
C196 C195 1.398 . S
C196 C197 1.391 . S
C197 H185 0.950 . S
C197 C193 1.393 . S
C197 C196 1.391 . S
H198 C206 0.950 . S
H199 C211 0.950 . S
H200 C208 0.950 . S
H201 C210 0.950 . S
H202 C212 0.950 . S
H203 C214 0.950 . S
H204 C216 0.950 . S
H205 C217 0.950 . S
C206 H198 0.950 . S
C206 C207 1.386 . S
C206 C208 1.391 . S
C207 C206 1.386 . S
C207 C211 1.393 . S
C208 H200 0.950 . S
C208 C206 1.391 . S
C208 C209 1.400 . S
C209 C208 1.400 . S
C209 C210 1.398 . S
C209 C215 1.491 . S
C210 H201 0.950 . S
C210 C209 1.398 . S
C210 C211 1.391 . S
C211 H199 0.950 . S
C211 C207 1.393 . S
C211 C210 1.391 . S
C212 H202 0.950 . S
C212 C213 1.386 . S
C212 C214 1.391 . S
C213 C212 1.386 . S
C213 C217 1.393 . S
C214 H203 0.950 . S
C214 C212 1.391 . S
C214 C215 1.400 . S
C215 C209 1.491 . S
C215 C214 1.400 . S
C215 C216 1.398 . S
C216 H204 0.950 . S
C216 C215 1.398 . S
C216 C217 1.391 . S
C217 H205 0.950 . S
C217 C213 1.393 . S
C217 C216 1.391 . S
H218 C226 0.950 . S
H219 C231 0.950 . S
H220 C228 0.950 . S
H221 C230 0.950 . S
H222 C232 0.950 . S
H223 C234 0.950 . S
H224 C236 0.950 . S
H225 C237 0.950 . S
C226 H218 0.950 . S
C226 C227 1.386 . S
C226 C228 1.391 . S
C227 C226 1.386 . S
C227 C231 1.393 . S
C228 H220 0.950 . S
C228 C226 1.391 . S
C228 C229 1.400 . S
C229 C228 1.400 . S
C229 C230 1.398 . S
C229 C235 1.491 . S
C230 H221 0.950 . S
C230 C229 1.398 . S
C230 C231 1.391 . S
C231 H219 0.950 . S
C231 C227 1.393 . S
C231 C230 1.391 . S
C232 H222 0.950 . S
C232 C233 1.386 . S
C232 C234 1.391 . S
C233 C232 1.386 . S
C233 C237 1.393 . S
C234 H223 0.950 . S
C234 C232 1.391 . S
C234 C235 1.400 . S
C235 C229 1.491 . S
C235 C234 1.400 . S
C235 C236 1.398 . S
C236 H224 0.950 . S
C236 C235 1.398 . S
C236 C237 1.391 . S
C237 H225 0.950 . S
C237 C233 1.393 . S
C237 C236 1.391 . S
H238 C246 0.950 . S
H239 C251 0.950 . S
H240 C248 0.950 . S
H241 C250 0.950 . S
H242 C252 0.950 . S
H243 C254 0.950 . S
H244 C256 0.950 . S
H245 C257 0.950 . S
C246 H238 0.950 . S
C246 C247 1.386 . S
C246 C248 1.391 . S
C247 C246 1.386 . S
C247 C251 1.393 . S
C248 H240 0.950 . S
C248 C246 1.391 . S
C248 C249 1.400 . S
C249 C248 1.400 . S
C249 C250 1.398 . S
C249 C255 1.491 . S
C250 H241 0.950 . S
C250 C249 1.398 . S
C250 C251 1.391 . S
C251 H239 0.950 . S
C251 C247 1.393 . S
C251 C250 1.391 . S
C252 H242 0.950 . S
C252 C253 1.386 . S
C252 C254 1.391 . S
C253 C252 1.386 . S
C253 C257 1.393 . S
C254 H243 0.950 . S
C254 C252 1.391 . S
C254 C255 1.400 . S
C255 C249 1.491 . S
C255 C254 1.400 . S
C255 C256 1.398 . S
C256 H244 0.950 . S
C256 C255 1.398 . S
C256 C257 1.391 . S
C257 H245 0.950 . S
C257 C253 1.393 . S
C257 C256 1.391 . S
H258 C266 0.950 . S
H259 C271 0.950 . S
H260 C268 0.950 . S
H261 C270 0.950 . S
H262 C272 0.950 . S
H263 C274 0.950 . S
H264 C276 0.950 . S
H265 C277 0.950 . S
C266 H258 0.950 . S
C266 C267 1.386 . S
C266 C268 1.391 . S
C267 C266 1.386 . S
C267 C271 1.393 . S
C268 H260 0.950 . S
C268 C266 1.391 . S
C268 C269 1.400 . S
C269 C268 1.400 . S
C269 C270 1.398 . S
C269 C275 1.491 . S
C270 H261 0.950 . S
C270 C269 1.398 . S
C270 C271 1.391 . S
C271 H259 0.950 . S
C271 C267 1.393 . S
C271 C270 1.391 . S
C272 H262 0.950 . S
C272 C273 1.386 . S
C272 C274 1.391 . S
C273 C272 1.386 . S
C273 C277 1.393 . S
C274 H263 0.950 . S
C274 C272 1.391 . S
C274 C275 1.400 . S
C275 C269 1.491 . S
C275 C274 1.400 . S
C275 C276 1.398 . S
C276 H264 0.950 . S
C276 C275 1.398 . S
C276 C277 1.391 . S
C277 H265 0.950 . S
C277 C273 1.393 . S
C277 C276 1.391 . S
H278 C286 0.950 . S
H279 C291 0.950 . S
H280 C288 0.950 . S
H281 C290 0.950 . S
H282 C292 0.950 . S
H283 C294 0.950 . S
H284 C296 0.950 . S
H285 C297 0.948 1_455 S
C286 H278 0.950 . S
C286 C287 1.386 . S
C286 C288 1.391 . S
C287 C286 1.386 . S
C287 C291 1.393 . S
C288 H280 0.950 . S
C288 C286 1.391 . S
C288 C289 1.400 . S
C289 C288 1.400 . S
C289 C290 1.398 . S
C289 C295 1.491 . S
C290 H281 0.950 . S
C290 C289 1.398 . S
C290 C291 1.391 . S
C291 H279 0.950 . S
C291 C287 1.393 . S
C291 C290 1.391 . S
C292 H282 0.950 . S
C292 C293 1.374 1_655 S
C292 C294 1.391 . S
C293 C292 1.374 1_455 S
C293 C297 1.385 1_455 S
C294 H283 0.950 . S
C294 C292 1.391 . S
C294 C295 1.400 . S
C295 C289 1.491 . S
C295 C294 1.400 . S
C295 C296 1.398 . S
C296 H284 0.950 . S
C296 C295 1.398 . S
C296 C297 1.394 . S
C297 H285 0.948 1_655 S
C297 C293 1.385 1_655 S
C297 C296 1.394 . S
H298 C306 0.950 . S
H299 C311 0.950 . S
H300 C308 0.950 . S
H301 C310 0.950 . S
H302 C312 0.950 . S
H303 C314 0.950 . S
H304 C316 0.950 . S
H305 C317 0.950 . S
C306 H298 0.950 . S
C306 C307 1.386 . S
C306 C308 1.391 . S
C307 C306 1.386 . S
C307 C311 1.393 . S
C308 H300 0.950 . S
C308 C306 1.391 . S
C308 C309 1.400 . S
C309 C308 1.400 . S
C309 C310 1.398 . S
C309 C315 1.491 . S
C310 H301 0.950 . S
C310 C309 1.398 . S
C310 C311 1.391 . S
C311 H299 0.950 . S
C311 C307 1.393 . S
C311 C310 1.391 . S
C312 H302 0.950 . S
C312 C313 1.386 . S
C312 C314 1.391 . S
C313 C312 1.386 . S
C313 C317 1.393 . S
C314 H303 0.950 . S
C314 C312 1.391 . S
C314 C315 1.400 . S
C315 C309 1.491 . S
C315 C314 1.400 . S
C315 C316 1.398 . S
C316 H304 0.950 . S
C316 C315 1.398 . S
C316 C317 1.391 . S
C317 H305 0.950 . S
C317 C313 1.393 . S
C317 C316 1.391 . S
H318 C326 0.950 . S
H319 C331 0.950 . S
H320 C328 0.950 . S
H321 C330 0.950 . S
H322 C332 0.950 . S
H323 C334 0.950 . S
H324 C336 0.950 . S
H325 C337 0.950 . S
C326 H318 0.950 . S
C326 C327 1.386 . S
C326 C328 1.391 . S
C327 C326 1.386 . S
C327 C331 1.393 . S
C328 H320 0.950 . S
C328 C326 1.391 . S
C328 C329 1.400 . S
C329 C328 1.400 . S
C329 C330 1.398 . S
C329 C335 1.491 . S
C330 H321 0.950 . S
C330 C329 1.398 . S
C330 C331 1.391 . S
C331 H319 0.950 . S
C331 C327 1.393 . S
C331 C330 1.391 . S
C332 H322 0.950 . S
C332 C333 1.386 . S
C332 C334 1.391 . S
C333 C332 1.386 . S
C333 C337 1.393 . S
C334 H323 0.950 . S
C334 C332 1.391 . S
C334 C335 1.400 . S
C335 C329 1.491 . S
C335 C334 1.400 . S
C335 C336 1.398 . S
C336 H324 0.950 . S
C336 C335 1.398 . S
C336 C337 1.391 . S
C337 H325 0.950 . S
C337 C333 1.393 . S
C337 C336 1.391 . S
H338 C346 0.950 . S
H339 C351 0.950 . S
H340 C348 0.950 . S
H341 C350 0.950 . S
H342 C352 0.950 . S
H343 C354 0.950 . S
H344 C356 0.950 . S
H345 C357 0.950 . S
C346 H338 0.950 . S
C346 C347 1.386 . S
C346 C348 1.391 . S
C347 C346 1.386 . S
C347 C351 1.393 . S
C348 H340 0.950 . S
C348 C346 1.391 . S
C348 C349 1.400 . S
C349 C348 1.400 . S
C349 C350 1.398 . S
C349 C355 1.491 . S
C350 H341 0.950 . S
C350 C349 1.398 . S
C350 C351 1.391 . S
C351 H339 0.950 . S
C351 C347 1.393 . S
C351 C350 1.391 . S
C352 H342 0.950 . S
C352 C353 1.386 . S
C352 C354 1.391 . S
C353 C352 1.386 . S
C353 C357 1.393 . S
C354 H343 0.950 . S
C354 C352 1.391 . S
C354 C355 1.400 . S
C355 C349 1.491 . S
C355 C354 1.400 . S
C355 C356 1.398 . S
C356 H344 0.950 . S
C356 C355 1.398 . S
C356 C357 1.391 . S
C357 H345 0.950 . S
C357 C353 1.393 . S
C357 C356 1.391 . S
H358 C366 0.950 . S
H359 C371 0.950 . S
H360 C368 0.950 . S
H361 C370 0.950 . S
H362 C372 0.950 . S
H363 C374 0.950 . S
H364 C376 0.950 . S
H365 C377 0.950 . S
C366 H358 0.950 . S
C366 C367 1.386 . S
C366 C368 1.391 . S
C367 C366 1.386 . S
C367 C371 1.393 . S
C368 H360 0.950 . S
C368 C366 1.391 . S
C368 C369 1.400 . S
C369 C368 1.400 . S
C369 C370 1.398 . S
C369 C375 1.491 . S
C370 H361 0.950 . S
C370 C369 1.398 . S
C370 C371 1.391 . S
C371 H359 0.950 . S
C371 C367 1.393 . S
C371 C370 1.391 . S
C372 H362 0.950 . S
C372 C373 1.386 . S
C372 C374 1.391 . S
C373 C372 1.386 . S
C373 C377 1.393 . S
C374 H363 0.950 . S
C374 C372 1.391 . S
C374 C375 1.400 . S
C375 C369 1.491 . S
C375 C374 1.400 . S
C375 C376 1.398 . S
C376 H364 0.950 . S
C376 C375 1.398 . S
C376 C377 1.391 . S
C377 H365 0.950 . S
C377 C373 1.393 . S
C377 C376 1.391 . S
H378 C386 0.950 . S
H379 C391 0.950 . S
H380 C388 0.950 . S
H381 C390 0.950 . S
H382 C392 0.950 . S
H383 C394 0.950 . S
H384 C396 0.950 . S
H385 C397 0.950 . S
C386 H378 0.950 . S
C386 C387 1.386 . S
C386 C388 1.391 . S
C387 C386 1.386 . S
C387 C391 1.393 . S
C388 H380 0.950 . S
C388 C386 1.391 . S
C388 C389 1.400 . S
C389 C388 1.400 . S
C389 C390 1.398 . S
C389 C395 1.513 . S
C390 H381 0.950 . S
C390 C389 1.398 . S
C390 C391 1.391 . S
C391 H379 0.950 . S
C391 C387 1.393 . S
C391 C390 1.391 . S
C392 H382 0.950 . S
C392 C393 1.386 . S
C392 C394 1.391 . S
C393 C392 1.386 . S
C393 C397 1.393 . S
C394 H383 0.950 . S
C394 C392 1.391 . S
C394 C395 1.387 1_556 S
C395 C389 1.513 . S
C395 C394 1.387 1_554 S
C395 C396 1.388 1_554 S
C396 H384 0.950 . S
C396 C395 1.388 1_556 S
C396 C397 1.391 . S
C397 H385 0.950 . S
C397 C393 1.393 . S
C397 C396 1.391 . S
H398 C406 0.950 . S
H399 C411 0.950 . S
H400 C408 0.950 . S
H401 C410 0.950 . S
H402 C412 0.950 . S
H403 C414 0.950 . S
H404 C416 0.950 . S
H405 C417 0.950 . S
C406 H398 0.950 . S
C406 C407 1.386 . S
C406 C408 1.391 . S
C407 C406 1.386 . S
C407 C411 1.393 . S
C408 H400 0.950 . S
C408 C406 1.391 . S
C408 C409 1.400 . S
C409 C408 1.400 . S
C409 C410 1.398 . S
C409 C415 1.491 . S
C410 H401 0.950 . S
C410 C409 1.398 . S
C410 C411 1.391 . S
C411 H399 0.950 . S
C411 C407 1.393 . S
C411 C410 1.391 . S
C412 H402 0.950 . S
C412 C413 1.386 . S
C412 C414 1.391 . S
C413 C412 1.386 . S
C413 C417 1.393 . S
C414 H403 0.950 . S
C414 C412 1.391 . S
C414 C415 1.400 . S
C415 C409 1.491 . S
C415 C414 1.400 . S
C415 C416 1.398 . S
C416 H404 0.950 . S
C416 C415 1.398 . S
C416 C417 1.391 . S
C417 H405 0.950 . S
C417 C413 1.393 . S
C417 C416 1.391 . S
H418 C426 0.950 . S
H419 C431 0.950 . S
H420 C428 0.950 . S
H421 C430 0.950 . S
H422 C432 0.950 . S
H423 C434 0.950 . S
H424 C436 0.950 . S
H425 C437 0.950 . S
C426 H418 0.950 . S
C426 C427 1.386 . S
C426 C428 1.391 . S
C427 C426 1.386 . S
C427 C431 1.393 . S
C428 H420 0.950 . S
C428 C426 1.391 . S
C428 C429 1.400 . S
C429 C428 1.400 . S
C429 C430 1.398 . S
C429 C435 1.491 . S
C430 H421 0.950 . S
C430 C429 1.398 . S
C430 C431 1.391 . S
C431 H419 0.950 . S
C431 C427 1.393 . S
C431 C430 1.391 . S
C432 H422 0.950 . S
C432 C433 1.386 . S
C432 C434 1.391 . S
C433 C432 1.386 . S
C433 C437 1.393 . S
C434 H423 0.950 . S
C434 C432 1.391 . S
C434 C435 1.400 . S
C435 C429 1.491 . S
C435 C434 1.400 . S
C435 C436 1.398 . S
C436 H424 0.950 . S
C436 C435 1.398 . S
C436 C437 1.391 . S
C437 H425 0.950 . S
C437 C433 1.393 . S
C437 C436 1.391 . S
H438 C446 0.950 . S
H439 C451 0.950 . S
H440 C448 0.950 . S
H441 C450 0.950 . S
H442 C452 0.950 . S
H443 C454 0.950 . S
H444 C456 0.950 1_565 S
H445 C457 0.950 1_565 S
C446 H438 0.950 . S
C446 C447 1.386 1_565 S
C446 C448 1.391 . S
C447 C446 1.386 1_545 S
C447 C451 1.393 . S
C448 H440 0.950 . S
C448 C446 1.391 . S
C448 C449 1.400 1_565 S
C449 C448 1.400 1_545 S
C449 C450 1.398 . S
C449 C455 1.491 . S
C450 H441 0.950 . S
C450 C449 1.398 . S
C450 C451 1.391 . S
C451 H439 0.950 . S
C451 C447 1.393 . S
C451 C450 1.391 . S
C452 H442 0.950 . S
C452 C453 1.386 . S
C452 C454 1.391 . S
C453 C452 1.386 . S
C453 C457 1.393 . S
C454 H443 0.950 . S
C454 C452 1.391 . S
C454 C455 1.400 . S
C455 C449 1.491 . S
C455 C454 1.400 . S
C455 C456 1.398 . S
C456 H444 0.950 1_545 S
C456 C455 1.398 . S
C456 C457 1.391 . S
C457 H445 0.950 1_545 S
C457 C453 1.393 . S
C457 C456 1.391 . S
H458 C466 0.950 . S
H459 C471 0.950 . S
H460 C468 0.950 . S
H461 C470 0.950 . S
H462 C472 0.950 . S
H463 C474 0.950 1_556 S
H464 C476 0.950 . S
H465 C477 0.950 . S
C466 H458 0.950 . S
C466 C467 1.386 . S
C466 C468 1.391 . S
C467 C466 1.386 . S
C467 C471 1.393 . S
C468 H460 0.950 . S
C468 C466 1.391 . S
C468 C469 1.400 . S
C469 C468 1.400 . S
C469 C470 1.398 . S
C469 C475 1.491 . S
C470 H461 0.950 . S
C470 C469 1.398 . S
C470 C471 1.391 . S
C471 H459 0.950 . S
C471 C467 1.393 . S
C471 C470 1.391 . S
C472 H462 0.950 . S
C472 C473 1.386 . S
C472 C474 1.391 . S
C473 C472 1.386 . S
C473 C477 1.393 . S
C474 H463 0.950 1_554 S
C474 C472 1.391 . S
C474 C475 1.400 1_554 S
C475 C469 1.491 . S
C475 C474 1.400 1_556 S
C475 C476 1.398 1_556 S
C476 H464 0.950 . S
C476 C475 1.398 1_554 S
C476 C477 1.391 . S
C477 H465 0.950 . S
C477 C473 1.393 . S
C477 C476 1.391 . S
H478 C486 0.950 . S
H479 C491 0.950 . S
H480 C488 0.950 . S
H481 C490 0.950 1_655 S
H482 C492 0.950 . S
H483 C494 0.950 . S
H484 C496 0.950 . S
H485 C497 0.950 . S
C486 H478 0.950 . S
C486 C487 1.386 . S
C486 C488 1.391 . S
C487 C486 1.386 . S
C487 C491 1.393 1_455 S
C488 H480 0.950 . S
C488 C486 1.391 . S
C488 C489 1.400 . S
C489 C488 1.400 . S
C489 C490 1.398 . S
C489 C495 1.491 . S
C490 H481 0.950 1_455 S
C490 C489 1.398 . S
C490 C491 1.391 1_455 S
C491 H479 0.950 . S
C491 C487 1.393 1_655 S
C491 C490 1.391 1_655 S
C492 H482 0.950 . S
C492 C493 1.386 . S
C492 C494 1.391 . S
C493 C492 1.386 . S
C493 C497 1.393 . S
C494 H483 0.950 . S
C494 C492 1.391 . S
C494 C495 1.400 . S
C495 C489 1.491 . S
C495 C494 1.400 . S
C495 C496 1.398 . S
C496 H484 0.950 . S
C496 C495 1.398 . S
C496 C497 1.391 . S
C497 H485 0.950 . S
C497 C493 1.393 . S
C497 C496 1.391 . S
C147 C2 1.408 . S
C153 C129 1.404 . S
C167 C22 1.311 . S
C173 C107 1.402 1_655 S
C187 C44 1.338 . S
C193 C120 1.405 . S
C207 C4 1.437 . S
C213 C133 1.528 . S
C233 C103 1.541 . S
C227 C24 1.619 . S
C253 C116 1.490 . S
C247 C42 1.553 . S
C267 C32 1.237 . S
C273 C81 1.237 . S
C287 C49 1.149 . S
C293 C94 1.188 . S
C307 C9 1.301 . S
C313 C64 1.210 . S
C333 C77 1.196 . S
C327 C29 1.258 . S
C353 C90 1.237 . S
C347 C52 1.318 . S
C367 C12 1.193 . S
C373 C68 1.220 . S
C393 C95 1.500 . S
C387 C18 1.513 . S
C407 C38 1.520 . S
C413 C69 1.547 . S
C427 C58 1.509 . S
C433 C82 1.507 . S
C453 C121 1.594 . S
C447 C39 1.576 . S
C473 C134 1.535 . S
C467 C59 1.520 . S
C487 C19 1.541 . S
C493 C108 1.574 . S
