# Generated by pormake.
# Topology pyr, (3,6)-cn, num edge types: 1
# Building blocks:
#     Node 0, Type 0, BuildingBlock: BETDAH_clean_linker_0, # of connection points: 3
#     Node 1, Type 0, BuildingBlock: BETDAH_clean_linker_0, # of connection points: 3
#     Node 2, Type 0, BuildingBlock: BETDAH_clean_linker_0, # of connection points: 3
#     Node 3, Type 0, BuildingBlock: BETDAH_clean_linker_0, # of connection points: 3
#     Node 4, Type 0, BuildingBlock: BETDAH_clean_linker_0, # of connection points: 3
#     Node 5, Type 0, BuildingBlock: BETDAH_clean_linker_0, # of connection points: 3
#     Node 6, Type 0, BuildingBlock: BETDAH_clean_linker_0, # of connection points: 3
#     Node 7, Type 0, BuildingBlock: BETDAH_clean_linker_0, # of connection points: 3
#     Node 8, Type 1, BuildingBlock: BETFAJ_clean_sbu_0, # of connection points: 6
#     Node 9, Type 1, BuildingBlock: BETFAJ_clean_sbu_0, # of connection points: 6
#     Node 10, Type 1, BuildingBlock: BETFAJ_clean_sbu_0, # of connection points: 6
#     Node 11, Type 1, BuildingBlock: BETFAJ_clean_sbu_0, # of connection points: 6
#     Edge 12, Type (0, 1), BuildingBlock: CIFDUS_clean_linker_0, # of connection points: 2
#     Edge 13, Type (0, 1), BuildingBlock: CIFDUS_clean_linker_0, # of connection points: 2
#     Edge 14, Type (0, 1), BuildingBlock: CIFDUS_clean_linker_0, # of connection points: 2
#     Edge 15, Type (0, 1), BuildingBlock: CIFDUS_clean_linker_0, # of connection points: 2
#     Edge 16, Type (0, 1), BuildingBlock: CIFDUS_clean_linker_0, # of connection points: 2
#     Edge 17, Type (0, 1), BuildingBlock: CIFDUS_clean_linker_0, # of connection points: 2
#     Edge 18, Type (0, 1), BuildingBlock: CIFDUS_clean_linker_0, # of connection points: 2
#     Edge 19, Type (0, 1), BuildingBlock: CIFDUS_clean_linker_0, # of connection points: 2
#     Edge 20, Type (0, 1), BuildingBlock: CIFDUS_clean_linker_0, # of connection points: 2
#     Edge 21, Type (0, 1), BuildingBlock: CIFDUS_clean_linker_0, # of connection points: 2
#     Edge 22, Type (0, 1), BuildingBlock: CIFDUS_clean_linker_0, # of connection points: 2
#     Edge 23, Type (0, 1), BuildingBlock: CIFDUS_clean_linker_0, # of connection points: 2
#     Edge 24, Type (0, 1), BuildingBlock: CIFDUS_clean_linker_0, # of connection points: 2
#     Edge 25, Type (0, 1), BuildingBlock: CIFDUS_clean_linker_0, # of connection points: 2
#     Edge 26, Type (0, 1), BuildingBlock: CIFDUS_clean_linker_0, # of connection points: 2
#     Edge 27, Type (0, 1), BuildingBlock: CIFDUS_clean_linker_0, # of connection points: 2
#     Edge 28, Type (0, 1), BuildingBlock: CIFDUS_clean_linker_0, # of connection points: 2
#     Edge 29, Type (0, 1), BuildingBlock: CIFDUS_clean_linker_0, # of connection points: 2
#     Edge 30, Type (0, 1), BuildingBlock: CIFDUS_clean_linker_0, # of connection points: 2
#     Edge 31, Type (0, 1), BuildingBlock: CIFDUS_clean_linker_0, # of connection points: 2
#     Edge 32, Type (0, 1), BuildingBlock: CIFDUS_clean_linker_0, # of connection points: 2
#     Edge 33, Type (0, 1), BuildingBlock: CIFDUS_clean_linker_0, # of connection points: 2
#     Edge 34, Type (0, 1), BuildingBlock: CIFDUS_clean_linker_0, # of connection points: 2
#     Edge 35, Type (0, 1), BuildingBlock: CIFDUS_clean_linker_0, # of connection points: 2
# Relax obj value: 0.170
# Max RMSD: 0.194
# Mean RMSD: 0.141
data_MOF--net-pyr--node1-BETFAJ_clean_sbu_0--node2-BETDAH_clean_linker_0--edge1-CIFDUS_clean_linker_0
_symmetry_space_group_name_H-M    P1
_symmetry_Int_Tables_number       1
_symmetry_cell_setting            triclinic
loop_
_symmetry_equiv_pos_as_xyz
'x, y, z'
_cell_length_a     32.732167
_cell_length_b     35.935436
_cell_length_c     33.118261
_cell_angle_alpha  91.686675
_cell_angle_beta   89.754109
_cell_angle_gamma 108.50237
loop_
_atom_site_label
_atom_site_type_symbol
_atom_site_fract_x
_atom_site_fract_y
_atom_site_fract_z
_atom_type_partial_charge
H0 H 0.40393 0.28194 0.2976 0.0
H1 H 0.46538 0.3604 0.20366 0.0
H2 H 0.36766 0.38463 0.27727 0.0
C3 C 0.40855 0.30888 0.28163 0.0
C4 C 0.38324 0.33274 0.29169 0.0
C5 C 0.43785 0.31819 0.24956 0.0
C6 C 0.44342 0.35309 0.22894 0.0
C7 C 0.41803 0.37702 0.23843 0.0
C8 C 0.38777 0.3666 0.26983 0.0
N9 N 0.42187 0.41012 0.21458 0.0
C10 C 0.38846 0.42585 0.2107 0.0
H11 H 0.27734 0.83428 0.74579 0.0
H12 H 0.16398 0.86996 0.74294 0.0
H13 H 0.18193 0.78772 0.65288 0.0
C14 C 0.24667 0.83241 0.7321 0.0
C15 C 0.23269 0.80856 0.69741 0.0
C16 C 0.22203 0.85438 0.74892 0.0
C17 C 0.18266 0.85213 0.73088 0.0
C18 C 0.16811 0.828 0.69624 0.0
C19 C 0.19263 0.80545 0.68021 0.0
N20 N 0.13106 0.82905 0.67512 0.0
C21 C 0.12569 0.86485 0.66684 0.0
H22 H 0.72085 0.39539 0.98811 0.0
H23 H 0.73087 0.47267 0.88753 0.0
H24 H 0.62246 0.36802 0.897 0.0
C25 C 0.70888 0.40261 0.95997 0.0
C26 C 0.66919 0.37751 0.94501 0.0
C27 C 0.73202 0.43747 0.94003 0.0
C28 C 0.7137 0.44695 0.90415 0.0
C29 C 0.67392 0.42184 0.88862 0.0
C30 C 0.65258 0.38749 0.90928 0.0
N31 N 0.65548 0.42692 0.85069 0.0
C32 C 0.65806 0.46085 0.82934 0.0
H33 H 0.85599 0.7873 0.4856 0.0
H34 H 0.92764 0.79728 0.37468 0.0
H35 H 0.82025 0.69389 0.39536 0.0
C36 C 0.86228 0.77442 0.45722 0.0
C37 C 0.83456 0.7371 0.4446 0.0
C38 C 0.89621 0.79665 0.43273 0.0
C39 C 0.90275 0.78036 0.39458 0.0
C40 C 0.87572 0.74288 0.38122 0.0
C41 C 0.84163 0.722 0.40627 0.0
N42 N 0.87598 0.72935 0.3401 0.0
C43 C 0.90861 0.7185 0.32004 0.0
H44 H 0.77734 0.81492 0.90421 0.0
H45 H 0.66585 0.77501 0.9798 0.0
H46 H 0.68069 0.87219 0.90165 0.0
C47 C 0.74604 0.8163 0.91353 0.0
C48 C 0.73105 0.84551 0.89818 0.0
C49 C 0.72291 0.79058 0.94273 0.0
C50 C 0.68381 0.79425 0.95677 0.0
C51 C 0.66871 0.8239 0.94242 0.0
C52 C 0.6924 0.84947 0.91304 0.0
N53 N 0.63042 0.82834 0.95893 0.0
C54 C 0.62438 0.86482 0.96301 0.0
H55 H 0.8088 0.18041 0.46795 0.0
H56 H 0.8042 0.19719 0.59642 0.0
H57 H 0.7203 0.23504 0.51941 0.0
C58 C 0.79571 0.1918 0.49387 0.0
C59 C 0.76268 0.20842 0.4888 0.0
C60 C 0.81071 0.18777 0.53241 0.0
C61 C 0.79264 0.20031 0.56647 0.0
C62 C 0.76053 0.21786 0.56216 0.0
C63 C 0.74548 0.22185 0.52315 0.0
N64 N 0.74409 0.2312 0.5975 0.0
C65 C 0.71858 0.25539 0.59592 0.0
H66 H 0.34507 0.81706 0.20223 0.0
H67 H 0.36044 0.72492 0.27686 0.0
H68 H 0.45531 0.83863 0.27984 0.0
C69 C 0.36322 0.80635 0.22365 0.0
C70 C 0.40211 0.83289 0.2391 0.0
C71 C 0.34706 0.76689 0.23659 0.0
C72 C 0.37076 0.75484 0.26688 0.0
C73 C 0.40946 0.78102 0.28296 0.0
C74 C 0.42479 0.81929 0.2683 0.0
N75 N 0.43645 0.76998 0.31118 0.0
C76 C 0.42608 0.74084 0.34038 0.0
H77 H 0.23876 0.3926 0.68685 0.0
H78 H 0.24983 0.47642 0.78565 0.0
H79 H 0.15605 0.36233 0.79058 0.0
C80 C 0.22767 0.40015 0.71579 0.0
C81 C 0.19325 0.37222 0.73521 0.0
C82 C 0.24911 0.4376 0.73375 0.0
C83 C 0.23387 0.44805 0.77131 0.0
C84 C 0.19923 0.42103 0.79118 0.0
C85 C 0.18049 0.38332 0.77344 0.0
N86 N 0.18576 0.4279 0.83128 0.0
C87 C 0.18086 0.46223 0.84913 0.0
Sm88 Sm 0.06492 0.09852 0.54258 0.0
Sm89 Sm 0.04448 0.06491 0.62627 0.0
C90 C 0.07142 0.1399 0.47654 0.0
C91 C 0.10622 0.16866 0.45513 0.0
C92 C 0.09826 0.2004 0.43689 0.0
C93 C 0.13103 0.22772 0.41606 0.0
C94 C 0.17229 0.22359 0.41302 0.0
C95 C 0.18011 0.19187 0.43183 0.0
C96 C 0.14751 0.16485 0.4529 0.0
C97 C 0.12059 0.06016 0.56742 0.0
C98 C 0.10436 0.15847 0.61988 0.0
C99 C 0.03464 0.03884 0.7005 0.0
C100 C 0.99674 1.01421 0.72217 0.0
C101 C 0.99878 0.98065 0.74145 0.0
C102 C 0.96211 0.95554 0.75956 0.0
C103 C 0.92286 0.96375 0.75886 0.0
C104 C 0.92103 0.99766 0.74004 0.0
C105 C 0.95753 1.02253 0.72162 0.0
C106 C 0.97519 0.07608 0.58764 0.0
C107 C 1.01463 1.00497 0.54865 0.0
O108 O 0.06091 0.15145 0.51168 0.0
O109 O 0.07271 0.10393 0.47631 0.0
O110 O 0.10508 0.08139 0.58973 0.0
O111 O 0.11137 0.06335 0.52989 0.0
O112 O 0.10694 0.1523 0.58047 0.0
O113 O 0.08148 0.1303 0.64344 0.0
O114 O 0.04879 1.02126 0.67102 0.0
O115 O 0.03412 0.07387 0.69142 0.0
O116 O 1.01329 0.0988 0.58744 0.0
O117 O 0.97201 0.04705 0.61092 0.0
O118 O 0.03132 1.00908 0.58549 0.0
O119 O 1.01565 1.03644 0.52811 0.0
H120 H 0.06664 0.20397 0.43867 0.0
H121 H 0.12405 0.25204 0.40238 0.0
H122 H 0.21119 0.18729 0.42953 0.0
H123 H 0.15448 0.14072 0.46705 0.0
H124 H 0.02858 0.97356 0.74197 0.0
H125 H 0.96446 0.92975 0.77425 0.0
H126 H 0.8911 1.00445 0.73874 0.0
H127 H 0.95478 0.04791 0.7064 0.0
Sm128 Sm 0.57094 0.10684 0.1066 0.0
Sm129 Sm 0.4938 0.09692 0.06091 0.0
C130 C 0.64877 0.12808 0.13951 0.0
C131 C 0.66726 0.14195 0.1797 0.0
C132 C 0.70343 0.17566 0.1831 0.0
C133 C 0.72014 0.19071 0.22106 0.0
C134 C 0.70106 0.17213 0.25637 0.0
C135 C 0.66487 0.13818 0.25276 0.0
C136 C 0.64796 0.12337 0.21482 0.0
C137 C 0.50317 0.04386 0.13451 0.0
C138 C 0.50104 0.14272 0.14466 0.0
C139 C 0.42366 0.08054 1.01533 0.0
C140 C 0.39986 0.05348 0.98295 0.0
C141 C 0.37906 1.01338 0.98917 0.0
C142 C 0.35763 0.98873 0.95712 0.0
C143 C 0.35718 1.00384 0.91853 0.0
C144 C 0.37726 0.04399 0.91268 0.0
C145 C 0.3981 0.06859 0.94463 0.0
C146 C 0.55503 0.17026 0.05081 0.0
C147 C 0.55854 0.05078 1.02629 0.0
O148 O 0.63353 0.15226 0.12061 0.0
O149 O 0.62427 0.09146 0.13559 0.0
O150 O 0.51182 0.05198 0.09786 0.0
O151 O 0.52993 0.07013 0.15773 0.0
O152 O 0.54265 0.15043 0.13899 0.0
O153 O 0.47349 0.11502 0.12269 0.0
O154 O 0.42328 0.06748 0.05191 0.0
O155 O 0.46116 0.10449 1.00514 0.0
O156 O 0.56245 0.13773 0.05004 0.0
O157 O 0.51497 0.16468 0.0592 0.0
O158 O 0.51992 0.05457 1.02345 0.0
O159 O 0.58619 0.07072 0.054 0.0
H160 H 0.71845 0.19067 0.15633 0.0
H161 H 0.74769 0.21715 0.22273 0.0
H162 H 0.64982 0.1227 0.27925 0.0
H163 H 0.61972 0.0975 0.21303 0.0
H164 H 0.37974 1.001 1.01849 0.0
H165 H 0.3424 0.95775 0.96217 0.0
H166 H 0.37687 0.05634 0.88328 0.0
H167 H 0.41336 0.09951 0.93924 0.0
Sm168 Sm 0.52786 0.55056 0.55149 0.0
Sm169 Sm 0.53682 0.61784 0.60152 0.0
C170 C 0.53718 0.48936 0.51066 0.0
C171 C 0.56458 0.46464 0.51654 0.0
C172 C 0.60577 0.48062 0.53386 0.0
C173 C 0.63061 0.45651 0.54185 0.0
C174 C 0.61447 0.41601 0.53303 0.0
C175 C 0.57333 0.40013 0.51548 0.0
C176 C 0.54858 0.42433 0.50724 0.0
C177 C 0.45151 0.54461 0.59172 0.0
C178 C 0.57617 0.55549 0.64046 0.0
C179 C 0.52455 0.67707 0.64396 0.0
C180 C 0.49373 0.69889 0.64192 0.0
C181 C 0.45714 0.68518 0.61699 0.0
C182 C 0.42666 0.70493 0.61674 0.0
C183 C 0.43228 0.7386 0.64155 0.0
C184 C 0.46954 0.75262 0.66586 0.0
C185 C 0.50004 0.73289 0.66599 0.0
C186 C 0.61173 0.62505 0.5581 0.0
C187 C 0.4949 0.6149 0.50937 0.0
O188 O 0.55701 0.52568 0.50129 0.0
O189 O 0.50735 0.48632 0.53777 0.0
O190 O 0.48879 0.55655 0.60763 0.0
O191 O 0.45439 0.53716 0.55345 0.0
O192 O 0.57185 0.54123 0.60291 0.0
O193 O 0.56161 0.58483 0.65003 0.0
O194 O 0.50828 0.64041 0.65374 0.0
O195 O 0.55191 0.68193 0.6143 0.0
O196 O 0.57364 0.61194 0.54451 0.0
O197 O 0.61121 0.63449 0.59622 0.0
O198 O 0.4961 0.62904 0.54698 0.0
O199 O 0.50981 0.58548 0.5018 0.0
H200 H 0.61849 0.51163 0.54184 0.0
H201 H 0.66198 0.46938 0.55586 0.0
H202 H 0.56033 0.36901 0.50813 0.0
H203 H 0.51673 0.41153 0.49414 0.0
H204 H 0.45173 0.65883 0.59829 0.0
H205 H 0.39855 0.69365 0.59744 0.0
H206 H 0.47448 0.77814 0.68577 0.0
H207 H 0.52808 0.74372 0.68548 0.0
Sm208 Sm 0.04821 0.56099 0.11044 0.0
Sm209 Sm 0.04421 0.62779 0.05676 0.0
C210 C 0.05523 0.49562 0.1402 0.0
C211 C 0.09246 0.48331 0.15069 0.0
C212 C 0.13313 0.50264 0.13459 0.0
C213 C 0.16862 0.49102 0.1444 0.0
C214 C 0.16421 0.46001 0.17077 0.0
C215 C 0.12335 0.44092 0.18709 0.0
C216 C 0.08776 0.4525 0.17709 0.0
C217 C 1.01728 0.61547 0.15026 0.0
C218 C 0.13075 0.64108 0.1136 0.0
C219 C 0.02613 0.6892 1.02971 0.0
C220 C 0.9859 0.69745 1.0215 0.0
C221 C 0.947 0.67525 1.03913 0.0
C222 C 0.90804 0.68017 1.02744 0.0
C223 C 0.90754 0.70661 0.99726 0.0
C224 C 0.94659 0.72911 0.9801 0.0
C225 C 0.9855 0.72465 0.99226 0.0
C226 C 0.09005 0.58517 1.01429 0.0
C227 C 0.96166 0.5467 0.05124 0.0
O228 O 0.05021 0.50019 0.10174 0.0
O229 O 0.04945 0.52391 0.1628 0.0
O230 O 1.0077 0.6024 0.11412 0.0
O231 O 0.04282 0.59875 0.16623 0.0
O232 O 0.1182 0.60267 0.11852 0.0
O233 O 0.1062 0.65799 0.09439 0.0
O234 O 0.03558 0.68618 0.06767 0.0
O235 O 0.03283 0.662 1.00605 0.0
O236 O 0.07398 0.57896 0.04921 0.0
O237 O 0.08272 0.61594 1.00082 0.0
O238 O 0.97806 0.58325 1.0396 0.0
O239 O 0.98208 0.53182 0.07781 0.0
H240 H 0.13739 0.52662 0.11421 0.0
H241 H 0.19938 0.50596 0.13077 0.0
H242 H 0.11894 0.41727 0.20787 0.0
H243 H 0.05662 0.43746 0.18999 0.0
H244 H 0.94663 0.65331 0.06091 0.0
H245 H 0.87826 0.66237 0.04084 0.0
H246 H 0.94691 0.74988 0.95694 0.0
H247 H 1.01514 0.7416 0.97796 0.0
H248 H 0.2983 0.32198 0.2823 0.0
H249 H 0.3923 0.31307 0.36903 0.0
H250 H 0.33483 0.2822 0.41649 0.0
H251 H 0.25801 0.25259 0.43051 0.0
H252 H 0.16388 0.25619 0.34102 0.0
H253 H 0.22114 0.29536 0.29798 0.0
C254 C 0.30608 0.31399 0.31196 0.0
C255 C 0.34923 0.31968 0.32237 0.0
C256 C 0.27287 0.29519 0.33845 0.0
C257 C 0.35916 0.30878 0.36054 0.0
C258 C 0.32637 0.2911 0.38754 0.0
C259 C 0.24996 0.26186 0.40157 0.0
C260 C 0.20667 0.25103 0.38892 0.0
C261 C 0.2831 0.28319 0.37633 0.0
C262 C 0.19683 0.26428 0.35176 0.0
C263 C 0.22961 0.28642 0.32691 0.0
H264 H 0.30114 0.90737 0.7555 0.0
H265 H 0.18165 0.86191 0.81978 0.0
H266 H 0.21316 0.90388 0.87889 0.0
H267 H 0.27587 0.95247 0.91256 0.0
H268 H 0.39445 0.99786 0.84669 0.0
H269 H 0.36237 0.9565 0.7879 0.0
C270 C 0.28207 0.90661 0.78254 0.0
C271 C 0.23941 0.88145 0.78366 0.0
C272 C 0.30035 0.93055 0.81606 0.0
C273 C 0.2146 0.88121 0.81839 0.0
C274 C 0.23268 0.90497 0.85216 0.0
C275 C 0.29455 0.95299 0.88533 0.0
C276 C 0.33737 0.9779 0.88376 0.0
C277 C 0.27569 0.92948 0.85145 0.0
C278 C 0.36133 0.97893 0.84832 0.0
C279 C 0.34307 0.95533 0.8148 0.0
H280 H 0.65764 0.45208 0.74811 0.0
H281 H 0.63465 0.52654 0.84372 0.0
H282 H 0.60865 0.56361 0.79417 0.0
H283 H 0.58826 0.57247 0.72318 0.0
H284 H 0.61093 0.49628 0.62851 0.0
H285 H 0.64091 0.46287 0.67754 0.0
C286 C 0.64777 0.47696 0.75801 0.0
C287 C 0.64887 0.48691 0.79963 0.0
C288 C 0.63215 0.49774 0.72926 0.0
C289 C 0.63495 0.51865 0.81192 0.0
C290 C 0.61971 0.53968 0.78349 0.0
C291 C 0.60006 0.54879 0.71317 0.0
C292 C 0.59691 0.53717 0.67166 0.0
C293 C 0.6175 0.52918 0.74199 0.0
C294 C 0.61252 0.50618 0.65983 0.0
C295 C 0.62983 0.48685 0.68805 0.0
H296 H 0.89533 0.69927 0.24028 0.0
H297 H 0.98111 0.70111 0.3391 0.0
H298 H 0.02296 0.67082 0.29494 0.0
H299 H 0.03394 0.64177 0.22865 0.0
H300 H 0.94751 0.63859 0.12993 0.0
H301 H 0.90763 0.67162 0.17305 0.0
C302 C 0.92345 0.69332 0.25199 0.0
C303 C 0.93525 0.70268 0.293 0.0
C304 C 0.94726 0.67559 0.22628 0.0
C305 C 0.9715 0.69448 0.30775 0.0
C306 C 0.99536 0.67704 0.28244 0.0
C307 C 1.00651 0.64846 0.21639 0.0
C308 C 0.99402 0.6377 0.17567 0.0
C309 C 0.9834 0.66716 0.24171 0.0
C310 C 0.95828 0.64675 0.1607 0.0
C311 C 0.93527 0.6655 0.18558 0.0
H312 H 0.39937 0.24029 0.2369 0.0
H313 H 0.52199 0.33121 0.22759 0.0
H314 H 0.5537 0.28352 0.19782 0.0
H315 H 0.54491 0.21705 0.17034 0.0
H316 H 0.42095 0.12736 0.17692 0.0
H317 H 0.39156 0.17341 0.21289 0.0
C318 C 0.43328 0.24953 0.22914 0.0
C319 C 0.4584 0.28915 0.2346 0.0
C320 C 0.45095 0.2222 0.21158 0.0
C321 C 0.502 0.30089 0.22348 0.0
C322 C 0.52011 0.27364 0.20658 0.0
C323 C 0.51167 0.20739 0.18029 0.0
C324 C 0.48509 0.16887 0.17101 0.0
C325 C 0.49468 0.23435 0.19992 0.0
C326 C 0.44198 0.1569 0.18363 0.0
C327 C 0.42515 0.18323 0.20408 0.0
H328 H 0.13544 0.89261 0.59281 0.0
H329 H 0.11719 0.9227 0.71684 0.0
H330 H 0.11963 0.98896 0.6977 0.0
H331 H 0.12514 1.03752 0.64468 0.0
H332 H 0.13913 1.00478 0.52035 0.0
H333 H 0.14238 0.94116 0.54054 0.0
C334 C 0.13185 0.91378 0.61547 0.0
C335 C 0.12556 0.90322 0.65587 0.0
C336 C 0.13333 0.95146 0.6042 0.0
C337 C 0.1215 0.93053 0.68539 0.0
C338 C 0.12319 0.96833 0.67449 0.0
C339 C 0.12875 1.01632 0.62217 0.0
C340 C 0.13084 1.02542 0.58111 0.0
C341 C 0.12885 0.97905 0.63388 0.0
C342 C 0.13709 0.99835 0.55218 0.0
C343 C 0.13858 0.9618 0.56363 0.0
H344 H 0.79353 0.41632 0.98274 0.0
H345 H 0.76846 0.51831 0.93687 0.0
H346 H 0.83636 0.56035 0.96604 0.0
H347 H 0.90286 0.5689 1.00613 0.0
H348 H 0.9248 0.46695 0.0554 0.0
H349 H 0.85784 0.42487 1.02455 0.0
C350 C 0.80217 0.44776 0.97946 0.0
C351 C 0.77484 0.46356 0.95728 0.0
C352 C 0.841 0.47217 0.99739 0.0
C353 C 0.78837 0.50462 0.95291 0.0
C354 C 0.8273 0.52896 0.97005 0.0
C355 C 0.89305 0.53747 1.01025 0.0
C356 C 0.9194 0.52139 1.03332 0.0
C357 C 0.8539 0.51314 0.99253 0.0
C358 C 0.90556 0.48049 1.03817 0.0
C359 C 0.86714 0.45624 1.02032 0.0
H360 H 0.75189 0.69144 0.42229 0.0
H361 H 0.83303 0.73266 0.52737 0.0
H362 H 0.7726 0.70151 0.57121 0.0
H363 H 0.69554 0.66408 0.58055 0.0
H364 H 0.61491 0.62119 0.47567 0.0
H365 H 0.67604 0.65055 0.43151 0.0
C366 C 0.75673 0.69321 0.45472 0.0
C367 C 0.79746 0.71509 0.47108 0.0
C368 C 0.7216 0.67476 0.48014 0.0
C369 C 0.80224 0.717 0.51349 0.0
C370 C 0.76758 0.69888 0.53879 0.0
C371 C 0.6914 0.6609 0.54803 0.0
C372 C 0.65036 0.6405 0.53164 0.0
C373 C 0.72692 0.67801 0.52257 0.0
C374 C 0.64589 0.6367 0.48932 0.0
C375 C 0.68095 0.65362 0.46393 0.0
H376 H 0.30702 0.37975 0.20263 0.0
H377 H 0.38776 0.50056 0.20806 0.0
H378 H 0.32465 0.52218 0.19764 0.0
H379 H 0.24687 0.50629 0.18562 0.0
H380 H 0.16654 0.38501 0.17772 0.0
H381 H 0.22891 0.36389 0.19126 0.0
C382 C 0.31051 0.41077 0.20159 0.0
C383 C 0.35144 0.43871 0.2059 0.0
C384 C 0.27425 0.42278 0.19534 0.0
C385 C 0.35621 0.47878 0.2047 0.0
C386 C 0.32025 0.49104 0.19875 0.0
C387 C 0.24302 0.47522 0.18656 0.0
C388 C 0.20201 0.44731 0.18053 0.0
C389 C 0.27915 0.46326 0.1937 0.0
C390 C 0.19755 0.40718 0.18271 0.0
C391 C 0.23327 0.39503 0.19015 0.0
H392 H 0.6956 0.31668 0.97261 0.0
H393 H 0.58498 0.35697 0.96695 0.0
H394 H 0.54112 0.29804 1.00032 0.0
H395 H 0.53297 0.23405 1.02961 0.0
H396 H 0.64146 0.19072 1.03254 0.0
H397 H 0.68707 0.25137 1.0022 0.0
C398 C 0.66197 0.31263 0.97897 0.0
C399 C 0.64373 0.34149 0.96711 0.0
C400 C 0.63639 0.27789 0.99766 0.0
C401 C 0.59991 0.33536 0.97534 0.0
C402 C 0.57474 0.30159 0.99455 0.0
C403 C 0.56666 0.23784 1.02381 0.0
C404 C 0.58365 0.20764 1.03352 0.0
C405 C 0.59245 0.27249 1.00559 0.0
C406 C 0.6274 0.21328 1.02544 0.0
C407 C 0.65352 0.24806 1.00802 0.0
H408 H 0.92898 0.82246 0.50831 0.0
H409 H 0.92146 0.86427 0.38881 0.0
H410 H 0.9569 0.93193 0.41321 0.0
H411 H 0.9878 0.98023 0.4698 0.0
H412 H 0.99544 0.93647 0.58864 0.0
H413 H 0.96208 0.86952 0.56336 0.0
C414 C 0.93509 0.84629 0.48745 0.0
C415 C 0.92217 0.83782 0.44663 0.0
C416 C 0.95534 0.88529 0.50178 0.0
C417 C 0.93123 0.86944 0.42022 0.0
C418 C 0.95124 0.90837 0.43431 0.0
C419 C 0.98213 0.95608 0.49018 0.0
C420 C 0.99408 0.96402 0.53139 0.0
C421 C 0.96305 0.91684 0.47523 0.0
C422 C 0.98671 0.93187 0.55695 0.0
C423 C 0.96753 0.89325 0.54248 0.0
H424 H 0.31458 0.84403 0.67552 0.0
H425 H 0.21654 0.73088 0.67706 0.0
H426 H 0.26961 0.69903 0.65571 0.0
H427 H 0.34548 0.70338 0.64479 0.0
H428 H 0.44319 0.81713 0.6442 0.0
H429 H 0.38858 0.84892 0.65744 0.0
C430 C 0.30484 0.81241 0.6707 0.0
C431 C 0.26213 0.78961 0.67832 0.0
C432 C 0.33549 0.79454 0.6592 0.0
C433 C 0.2494 0.74883 0.6714 0.0
C434 C 0.27975 0.73072 0.6595 0.0
C435 C 0.35469 0.73516 0.64664 0.0
C436 C 0.39842 0.75786 0.64407 0.0
C437 C 0.32314 0.75323 0.65446 0.0
C438 C 0.40988 0.79899 0.64689 0.0
C439 C 0.37868 0.81719 0.65429 0.0
H440 H 0.77325 0.82748 0.83386 0.0
H441 H 0.75037 0.92556 0.89724 0.0
H442 H 0.80556 0.97123 0.85669 0.0
H443 H 0.86631 0.98292 0.80918 0.0
H444 H 0.89209 0.88423 0.74993 0.0
H445 H 0.8305 0.83904 0.78376 0.0
C446 C 0.78018 0.85888 0.83866 0.0
C447 C 0.7582 0.8731 0.86889 0.0
C448 C 0.81309 0.88479 0.81659 0.0
C449 C 0.76671 0.91382 0.87407 0.0
C450 C 0.79862 0.93994 0.85123 0.0
C451 C 0.85801 0.95153 0.80333 0.0
C452 C 0.88389 0.93682 0.77751 0.0
C453 C 0.82294 0.92572 0.82334 0.0
C454 C 0.87304 0.89613 0.77027 0.0
C455 C 0.83774 0.87034 0.78938 0.0
H456 H 0.80658 0.22514 0.41815 0.0
H457 H 0.67801 0.19232 0.46717 0.0
H458 H 0.64776 0.1826 0.39901 0.0
H459 H 0.65758 0.17613 0.32593 0.0
H460 H 0.78613 0.20231 0.27775 0.0
H461 H 0.8165 0.22186 0.34506 0.0
C462 C 0.77191 0.21589 0.41396 0.0
C463 C 0.74465 0.2089 0.44779 0.0
C464 C 0.75468 0.20875 0.37478 0.0
C465 C 0.69984 0.19812 0.44177 0.0
C466 C 0.68246 0.19211 0.40276 0.0
C467 C 0.69225 0.186 0.33014 0.0
C468 C 0.71944 0.18728 0.2968 0.0
C469 C 0.70954 0.19609 0.36913 0.0
C470 C 0.76435 0.20122 0.30271 0.0
C471 C 0.7818 0.21217 0.34128 0.0
H472 H 0.44899 0.67449 0.34102 0.0
H473 H 0.41244 0.75637 0.41893 0.0
H474 H 0.42899 0.72469 0.47864 0.0
H475 H 0.45869 0.67571 0.50913 0.0
H476 H 0.49471 0.59409 0.42958 0.0
H477 H 0.47368 0.62319 0.37119 0.0
C478 C 0.44371 0.6848 0.37109 0.0
C479 C 0.42874 0.7174 0.37539 0.0
C480 C 0.45386 0.66663 0.40543 0.0
C481 C 0.42312 0.73091 0.41466 0.0
C482 C 0.43299 0.71295 0.44891 0.0
C483 C 0.46164 0.66407 0.47908 0.0
C484 C 0.4787 0.63255 0.4744 0.0
C485 C 0.44916 0.68109 0.4448 0.0
C486 C 0.48196 0.61817 0.4348 0.0
C487 C 0.46988 0.63489 0.401 0.0
H488 H 0.15976 0.45563 0.92836 0.0
H489 H 0.17302 0.53257 0.82846 0.0
H490 H 0.14746 0.57777 0.87101 0.0
H491 H 0.11883 0.59447 0.93625 0.0
H492 H 0.10502 0.51725 1.03612 0.0
H493 H 0.13323 0.47347 0.99443 0.0
C494 C 0.15745 0.48254 0.91605 0.0
C495 C 0.16864 0.49085 0.87522 0.0
C496 C 0.14234 0.5083 0.94082 0.0
C497 C 0.165 0.52558 0.8597 0.0
C498 C 0.15021 0.55138 0.8841 0.0
C499 C 0.12221 0.56817 0.94905 0.0
C500 C 0.10954 0.5593 0.98956 0.0
C501 C 0.13843 0.54295 0.92464 0.0
C502 C 0.11425 0.52496 1.00529 0.0
C503 C 0.13044 0.49983 0.98131 0.0
H504 H 0.55874 0.89096 0.9434 0.0
H505 H 0.6835 0.92443 1.00078 0.0
H506 H 0.67666 0.98825 1.0212 0.0
H507 H 0.63229 1.03142 1.02825 0.0
H508 H 0.50625 0.99753 0.97255 0.0
H509 H 0.51684 0.93749 0.94507 0.0
C510 C 0.5845 0.9126 0.95991 0.0
C511 C 0.6214 0.90345 0.97099 0.0
C512 C 0.5801 0.94903 0.97178 0.0
C513 C 0.65479 0.93124 0.99224 0.0
C514 C 0.65086 0.96759 1.00387 0.0
C515 C 0.60737 1.01131 1.00952 0.0
C516 C 0.56834 1.01887 1.0029 0.0
C517 C 0.61325 0.97644 0.99459 0.0
C518 C 0.53658 0.99247 0.97831 0.0
C519 C 0.54247 0.95793 0.96277 0.0
H520 H 0.80678 0.12307 0.57349 0.0
H521 H 0.89076 0.21266 0.50038 0.0
H522 H 0.94887 0.18416 0.50877 0.0
H523 H 0.97637 0.13563 0.53971 0.0
H524 H 0.89177 0.0447 0.61119 0.0
H525 H 0.83279 0.07136 0.60013 0.0
C526 C 0.83789 0.13619 0.55952 0.0
C527 C 0.84508 0.17 0.53688 0.0
C528 C 0.87069 0.11933 0.56397 0.0
C529 C 0.88498 0.18664 0.51812 0.0
C530 C 0.91802 0.17039 0.52288 0.0
C531 C 0.94487 0.12148 0.55246 0.0
C532 C 0.93835 0.08863 0.5765 0.0
C533 C 0.91133 0.13698 0.54606 0.0
C534 C 0.89742 0.07015 0.59261 0.0
C535 C 0.86382 0.08548 0.58651 0.0
H536 H 0.31046 0.76715 0.16085 0.0
H537 H 0.28847 0.70158 0.27068 0.0
H538 H 0.2232 0.65573 0.24145 0.0
H539 H 0.16968 0.63469 0.18542 0.0
H540 H 0.18718 0.70535 0.07991 0.0
H541 H 0.25563 0.7488 0.10716 0.0
C542 C 0.29138 0.74346 0.17913 0.0
C543 C 0.30576 0.73857 0.21841 0.0
C544 C 0.25235 0.71772 0.16275 0.0
C545 C 0.27992 0.70639 0.24022 0.0
C546 C 0.24188 0.68003 0.2236 0.0
C547 C 0.18868 0.65945 0.16829 0.0
C548 C 0.1733 0.6664 0.13034 0.0
C549 C 0.22759 0.68537 0.18491 0.0
C550 C 0.19807 0.69914 0.10903 0.0
C551 C 0.23733 0.72407 0.12467 0.0
H552 H 0.263 0.45461 0.65343 0.0
H553 H 0.32622 0.48013 0.76958 0.0
H554 H 0.39371 0.51711 0.73712 0.0
H555 H 0.43675 0.53882 0.67455 0.0
H556 H 0.37186 0.51267 0.55906 0.0
H557 H 0.30404 0.47964 0.5922 0.0
C558 C 0.29145 0.46834 0.67178 0.0
C559 C 0.28912 0.46415 0.7141 0.0
C560 C 0.33042 0.48945 0.65283 0.0
C561 C 0.32653 0.48292 0.7371 0.0
C562 C 0.36543 0.50391 0.71844 0.0
C563 C 0.40768 0.52624 0.65671 0.0
C564 C 0.4099 0.52812 0.61409 0.0
C565 C 0.36808 0.50693 0.67617 0.0
C566 C 0.37159 0.51162 0.59172 0.0
C567 C 0.33254 0.49258 0.6107 0.0
H568 H 0.76039 0.74328 0.90307 0.0
H569 H 0.73225 0.77822 1.02287 0.0
H570 H 0.78349 0.74914 0.0516 0.0
H571 H 0.84579 0.72493 0.04112 0.0
H572 H 0.87825 0.69697 0.9202 0.0
H573 H 0.81639 0.71249 0.89326 0.0
C574 C 0.76488 0.74378 0.93555 0.0
C575 C 0.74318 0.76339 0.96076 0.0
C576 C 0.796 0.72907 0.9515 0.0
C577 C 0.74856 0.76325 1.00283 0.0
C578 C 0.77832 0.74712 1.0192 0.0
C579 C 0.8386 0.72152 1.00902 0.0
C580 C 0.86658 0.71039 0.98249 0.0
C581 C 0.80372 0.7317 0.99364 0.0
C582 C 0.8573 0.70606 0.94096 0.0
C583 C 0.82197 0.71484 0.92561 0.0
H584 H 0.40306 0.86248 0.16225 0.0
H585 H 0.44043 0.89923 0.28558 0.0
H586 H 0.47327 0.96663 0.26485 0.0
H587 H 0.49419 1.01579 0.21153 0.0
H588 H 0.45677 0.98002 0.08818 0.0
H589 H 0.42109 0.91265 0.10906 0.0
C590 C 0.41792 0.88524 0.18474 0.0
C591 C 0.41945 0.87499 0.22559 0.0
C592 C 0.43701 0.9246 0.17254 0.0
C593 C 0.4393 0.90544 0.25389 0.0
C594 C 0.45801 0.94434 0.24206 0.0
C595 C 0.47795 0.99336 0.1892 0.0
C596 C 0.47844 1.00335 0.14819 0.0
C597 C 0.45758 0.95433 0.20144 0.0
C598 C 0.45709 0.97354 0.1199 0.0
C599 C 0.43667 0.93479 0.13186 0.0
H600 H 0.22451 0.328 0.67896 0.0
H601 H 0.10999 0.32282 0.74742 0.0
H602 H 0.07511 0.25675 0.72131 0.0
H603 H 0.07528 0.19953 0.67796 0.0
H604 H 0.18468 0.20785 0.6019 0.0
H605 H 0.22232 0.27326 0.63114 0.0
C606 C 0.1917 0.31313 0.68798 0.0
C607 C 0.17104 0.33144 0.71649 0.0
C608 C 0.1704 0.27506 0.67117 0.0
C609 C 0.1283 0.31011 0.7272 0.0
C610 C 0.1077 0.27199 0.71173 0.0
C611 C 0.10747 0.2156 0.66793 0.0
C612 C 0.12729 0.19836 0.63809 0.0
C613 C 0.12837 0.254 0.68383 0.0
C614 C 0.16866 0.22014 0.62489 0.0
C615 C 0.19022 0.25766 0.64167 0.0
H616 H 0.74714 0.32467 0.56158 0.0
H617 H 0.63562 0.24357 0.61577 0.0
H618 H 0.59288 0.28675 0.60102 0.0
H619 H 0.58746 0.34699 0.57142 0.0
H620 H 0.69929 0.42795 0.51696 0.0
H621 H 0.7421 0.38561 0.53326 0.0
C622 C 0.71355 0.31685 0.57038 0.0
C623 C 0.69418 0.28157 0.58979 0.0
C624 C 0.68945 0.34162 0.5616 0.0
C625 C 0.65081 0.27099 0.60096 0.0
C626 C 0.62651 0.29552 0.59242 0.0
C627 C 0.62112 0.35514 0.56292 0.0
C628 C 0.64022 0.39031 0.54286 0.0
C629 C 0.64545 0.33075 0.57246 0.0
C630 C 0.68404 0.40104 0.53261 0.0
C631 C 0.70845 0.37685 0.5418 0.0
loop_
_geom_bond_atom_site_label_1
_geom_bond_atom_site_label_2
_geom_bond_distance
_geom_bond_site_symmetry_2
_ccdc_geom_bond_type
H0 C3 0.929 . S
H1 C6 0.929 . S
H2 C8 0.930 . S
C3 H0 0.929 . S
C3 C4 1.398 . S
C3 C5 1.396 . S
C4 C3 1.398 . S
C4 C8 1.407 . S
C5 C3 1.396 . S
C5 C6 1.394 . S
C6 H1 0.929 . S
C6 C5 1.394 . S
C6 C7 1.382 . S
C7 C6 1.382 . S
C7 C8 1.392 . S
C7 N9 1.420 . S
C8 H2 0.930 . S
C8 C4 1.407 . S
C8 C7 1.392 . S
N9 C7 1.420 . S
N9 C10 1.244 . S
C10 N9 1.244 . S
H11 C14 0.929 . S
H12 C17 0.929 . S
H13 C19 0.930 . S
C14 H11 0.929 . S
C14 C15 1.398 . S
C14 C16 1.396 . S
C15 C14 1.398 . S
C15 C19 1.407 . S
C16 C14 1.396 . S
C16 C17 1.394 . S
C17 H12 0.929 . S
C17 C16 1.394 . S
C17 C18 1.382 . S
C18 C17 1.382 . S
C18 C19 1.392 . S
C18 N20 1.420 . S
C19 H13 0.930 . S
C19 C15 1.407 . S
C19 C18 1.392 . S
N20 C18 1.420 . S
N20 C21 1.244 . S
C21 N20 1.244 . S
H22 C25 0.929 . S
H23 C28 0.929 . S
H24 C30 0.930 . S
C25 H22 0.929 . S
C25 C26 1.398 . S
C25 C27 1.396 . S
C26 C25 1.398 . S
C26 C30 1.407 . S
C27 C25 1.396 . S
C27 C28 1.394 . S
C28 H23 0.929 . S
C28 C27 1.394 . S
C28 C29 1.382 . S
C29 C28 1.382 . S
C29 C30 1.392 . S
C29 N31 1.420 . S
C30 H24 0.930 . S
C30 C26 1.407 . S
C30 C29 1.392 . S
N31 C29 1.420 . S
N31 C32 1.244 . S
C32 N31 1.244 . S
H33 C36 0.929 . S
H34 C39 0.929 . S
H35 C41 0.930 . S
C36 H33 0.929 . S
C36 C37 1.398 . S
C36 C38 1.396 . S
C37 C36 1.398 . S
C37 C41 1.407 . S
C38 C36 1.396 . S
C38 C39 1.394 . S
C39 H34 0.929 . S
C39 C38 1.394 . S
C39 C40 1.382 . S
C40 C39 1.382 . S
C40 C41 1.392 . S
C40 N42 1.420 . S
C41 H35 0.930 . S
C41 C37 1.407 . S
C41 C40 1.392 . S
N42 C40 1.420 . S
N42 C43 1.244 . S
C43 N42 1.244 . S
H44 C47 0.929 . S
H45 C50 0.929 . S
H46 C52 0.930 . S
C47 H44 0.929 . S
C47 C48 1.398 . S
C47 C49 1.396 . S
C48 C47 1.398 . S
C48 C52 1.407 . S
C49 C47 1.396 . S
C49 C50 1.394 . S
C50 H45 0.929 . S
C50 C49 1.394 . S
C50 C51 1.382 . S
C51 C50 1.382 . S
C51 C52 1.392 . S
C51 N53 1.420 . S
C52 H46 0.930 . S
C52 C48 1.407 . S
C52 C51 1.392 . S
N53 C51 1.420 . S
N53 C54 1.244 . S
C54 N53 1.244 . S
H55 C58 0.929 . S
H56 C61 0.929 . S
H57 C63 0.930 . S
C58 H55 0.929 . S
C58 C59 1.398 . S
C58 C60 1.396 . S
C59 C58 1.398 . S
C59 C63 1.407 . S
C60 C58 1.396 . S
C60 C61 1.394 . S
C61 H56 0.929 . S
C61 C60 1.394 . S
C61 C62 1.382 . S
C62 C61 1.382 . S
C62 C63 1.392 . S
C62 N64 1.420 . S
C63 H57 0.930 . S
C63 C59 1.407 . S
C63 C62 1.392 . S
N64 C62 1.420 . S
N64 C65 1.244 . S
C65 N64 1.244 . S
H66 C69 0.929 . S
H67 C72 0.929 . S
H68 C74 0.930 . S
C69 H66 0.929 . S
C69 C70 1.398 . S
C69 C71 1.396 . S
C70 C69 1.398 . S
C70 C74 1.407 . S
C71 C69 1.396 . S
C71 C72 1.394 . S
C72 H67 0.929 . S
C72 C71 1.394 . S
C72 C73 1.382 . S
C73 C72 1.382 . S
C73 C74 1.392 . S
C73 N75 1.420 . S
C74 H68 0.930 . S
C74 C70 1.407 . S
C74 C73 1.392 . S
N75 C73 1.420 . S
N75 C76 1.244 . S
C76 N75 1.244 . S
H77 C80 0.929 . S
H78 C83 0.929 . S
H79 C85 0.930 . S
C80 H77 0.929 . S
C80 C81 1.398 . S
C80 C82 1.396 . S
C81 C80 1.398 . S
C81 C85 1.407 . S
C82 C80 1.396 . S
C82 C83 1.394 . S
C83 H78 0.929 . S
C83 C82 1.394 . S
C83 C84 1.382 . S
C84 C83 1.382 . S
C84 C85 1.392 . S
C84 N86 1.420 . S
C85 H79 0.930 . S
C85 C81 1.407 . S
C85 C84 1.392 . S
N86 C84 1.420 . S
N86 C87 1.244 . S
C87 N86 1.244 . S
Sm88 C90 2.846 . S
Sm88 O108 2.543 . S
Sm88 O109 2.450 . S
Sm88 O110 2.681 . S
Sm88 O111 2.464 . S
Sm88 O112 2.396 . S
Sm88 O116 2.386 1_455 S
Sm88 O119 2.408 1_445 S
Sm89 C99 2.846 1_545 S
Sm89 O110 2.386 1_655 S
Sm89 O113 2.408 1_655 S
Sm89 O114 2.543 1_545 S
Sm89 O115 2.450 1_545 S
Sm89 O116 2.681 . S
Sm89 O117 2.464 . S
Sm89 O118 2.396 1_545 S
C90 Sm88 2.846 . S
C90 C91 1.506 . S
C90 O108 1.261 . S
C90 O109 1.242 . S
C91 C90 1.506 . S
C91 C92 1.358 . S
C91 C96 1.382 . S
C92 C91 1.358 . S
C92 C93 1.385 . S
C92 H120 0.930 . S
C93 C92 1.385 . S
C93 C94 1.395 . S
C93 H121 0.929 . S
C94 C93 1.395 . S
C94 C95 1.335 . S
C95 C94 1.335 . S
C95 C96 1.398 . S
C95 H122 0.930 . S
C96 C91 1.382 . S
C96 C95 1.398 . S
C96 H123 0.929 . S
C97 O110 1.271 1_565 S
C97 O111 1.251 1_565 S
C98 O112 1.252 . S
C98 O113 1.272 . S
C99 Sm89 2.846 1_565 S
C99 C100 1.506 . S
C99 O114 1.261 . S
C99 O115 1.242 . S
C100 C99 1.506 . S
C100 C101 1.358 . S
C100 C105 1.382 . S
C101 C100 1.358 . S
C101 C102 1.385 . S
C101 H124 0.930 . S
C102 C101 1.385 . S
C102 C103 1.395 . S
C102 H125 0.929 . S
C103 C102 1.395 . S
C103 C104 1.335 . S
C104 C103 1.335 . S
C104 C105 1.398 . S
C104 H126 0.930 . S
C105 C100 1.382 . S
C105 C104 1.398 . S
C105 H127 0.929 . S
C106 O116 1.271 . S
C106 O117 1.251 . S
C107 O118 1.252 . S
C107 O119 1.272 . S
O108 Sm88 2.543 . S
O108 C90 1.261 . S
O109 Sm88 2.450 . S
O109 C90 1.242 . S
O110 Sm88 2.681 . S
O110 Sm89 2.386 1_455 S
O110 C97 1.271 1_545 S
O111 Sm88 2.464 . S
O111 C97 1.251 1_545 S
O112 Sm88 2.396 . S
O112 C98 1.252 . S
O113 Sm89 2.408 1_455 S
O113 C98 1.272 . S
O114 Sm89 2.543 1_565 S
O114 C99 1.261 . S
O115 Sm89 2.450 1_565 S
O115 C99 1.242 . S
O116 Sm88 2.386 1_655 S
O116 Sm89 2.681 . S
O116 C106 1.271 . S
O117 Sm89 2.464 . S
O117 C106 1.251 . S
O118 Sm89 2.396 1_565 S
O118 C107 1.252 . S
O119 Sm88 2.408 1_665 S
O119 C107 1.272 . S
H120 C92 0.930 . S
H121 C93 0.929 . S
H122 C95 0.930 . S
H123 C96 0.929 . S
H124 C101 0.930 . S
H125 C102 0.929 . S
H126 C104 0.930 . S
H127 C105 0.929 . S
Sm128 C130 2.846 . S
Sm128 O148 2.543 . S
Sm128 O149 2.450 . S
Sm128 O150 2.681 1_545 S
Sm128 O151 2.464 1_545 S
Sm128 O152 2.396 . S
Sm128 O156 2.386 . S
Sm128 O159 2.408 1_545 S
Sm129 C139 2.846 1_544 S
Sm129 O150 2.386 1_545 S
Sm129 O153 2.408 . S
Sm129 O154 2.543 1_544 S
Sm129 O155 2.450 1_554 S
Sm129 O156 2.681 . S
Sm129 O157 2.464 1_554 S
Sm129 O158 2.396 1_554 S
C130 Sm128 2.846 . S
C130 C131 1.506 . S
C130 O148 1.261 . S
C130 O149 1.242 . S
C131 C130 1.506 . S
C131 C132 1.358 . S
C131 C136 1.382 . S
C132 C131 1.358 . S
C132 C133 1.385 . S
C132 H160 0.930 . S
C133 C132 1.385 . S
C133 C134 1.395 . S
C133 H161 0.929 . S
C134 C133 1.395 . S
C134 C135 1.335 . S
C135 C134 1.335 . S
C135 C136 1.398 . S
C135 H162 0.930 . S
C136 C131 1.382 . S
C136 C135 1.398 . S
C136 H163 0.929 . S
C137 O150 1.271 . S
C137 O151 1.251 . S
C138 O152 1.252 . S
C138 O153 1.272 . S
C139 Sm129 2.846 1_566 S
C139 C140 1.506 . S
C139 O154 1.261 . S
C139 O155 1.242 1_565 S
C140 C139 1.506 . S
C140 C141 1.358 . S
C140 C145 1.382 . S
C141 C140 1.358 . S
C141 C142 1.385 . S
C141 H164 0.930 . S
C142 C141 1.385 . S
C142 C143 1.395 . S
C142 H165 0.929 . S
C143 C142 1.395 . S
C143 C144 1.335 . S
C144 C143 1.335 . S
C144 C145 1.398 . S
C144 H166 0.930 . S
C145 C140 1.382 . S
C145 C144 1.398 . S
C145 H167 0.929 1_565 S
C146 O156 1.271 . S
C146 O157 1.251 1_554 S
C147 O158 1.252 1_564 S
C147 O159 1.272 . S
O148 Sm128 2.543 . S
O148 C130 1.261 . S
O149 Sm128 2.450 . S
O149 C130 1.242 . S
O150 Sm128 2.681 1_565 S
O150 Sm129 2.386 1_565 S
O150 C137 1.271 . S
O151 Sm128 2.464 1_565 S
O151 C137 1.251 . S
O152 Sm128 2.396 . S
O152 C138 1.252 . S
O153 Sm129 2.408 . S
O153 C138 1.272 . S
O154 Sm129 2.543 1_566 S
O154 C139 1.261 . S
O155 Sm129 2.450 1_556 S
O155 C139 1.242 1_545 S
O156 Sm128 2.386 . S
O156 Sm129 2.681 . S
O156 C146 1.271 . S
O157 Sm129 2.464 1_556 S
O157 C146 1.251 1_556 S
O158 Sm129 2.396 1_556 S
O158 C147 1.252 1_546 S
O159 Sm128 2.408 1_565 S
O159 C147 1.272 . S
H160 C132 0.930 . S
H161 C133 0.929 . S
H162 C135 0.930 . S
H163 C136 0.929 . S
H164 C141 0.930 . S
H165 C142 0.929 . S
H166 C144 0.930 . S
H167 C145 0.929 1_545 S
Sm168 C170 2.846 . S
Sm168 O188 2.543 . S
Sm168 O189 2.450 . S
Sm168 O190 2.681 . S
Sm168 O191 2.464 . S
Sm168 O192 2.396 . S
Sm168 O196 2.386 . S
Sm168 O199 2.408 . S
Sm169 C179 2.846 . S
Sm169 O190 2.386 . S
Sm169 O193 2.408 . S
Sm169 O194 2.543 . S
Sm169 O195 2.450 . S
Sm169 O196 2.681 . S
Sm169 O197 2.464 . S
Sm169 O198 2.396 . S
C170 Sm168 2.846 . S
C170 C171 1.506 . S
C170 O188 1.261 . S
C170 O189 1.242 . S
C171 C170 1.506 . S
C171 C172 1.358 . S
C171 C176 1.382 . S
C172 C171 1.358 . S
C172 C173 1.385 . S
C172 H200 0.930 . S
C173 C172 1.385 . S
C173 C174 1.395 . S
C173 H201 0.929 . S
C174 C173 1.395 . S
C174 C175 1.335 . S
C175 C174 1.335 . S
C175 C176 1.398 . S
C175 H202 0.930 . S
C176 C171 1.382 . S
C176 C175 1.398 . S
C176 H203 0.929 . S
C177 O190 1.271 . S
C177 O191 1.251 . S
C178 O192 1.252 . S
C178 O193 1.272 . S
C179 Sm169 2.846 . S
C179 C180 1.506 . S
C179 O194 1.261 . S
C179 O195 1.242 . S
C180 C179 1.506 . S
C180 C181 1.358 . S
C180 C185 1.382 . S
C181 C180 1.358 . S
C181 C182 1.385 . S
C181 H204 0.930 . S
C182 C181 1.385 . S
C182 C183 1.395 . S
C182 H205 0.929 . S
C183 C182 1.395 . S
C183 C184 1.335 . S
C184 C183 1.335 . S
C184 C185 1.398 . S
C184 H206 0.930 . S
C185 C180 1.382 . S
C185 C184 1.398 . S
C185 H207 0.929 . S
C186 O196 1.271 . S
C186 O197 1.251 . S
C187 O198 1.252 . S
C187 O199 1.272 . S
O188 Sm168 2.543 . S
O188 C170 1.261 . S
O189 Sm168 2.450 . S
O189 C170 1.242 . S
O190 Sm168 2.681 . S
O190 Sm169 2.386 . S
O190 C177 1.271 . S
O191 Sm168 2.464 . S
O191 C177 1.251 . S
O192 Sm168 2.396 . S
O192 C178 1.252 . S
O193 Sm169 2.408 . S
O193 C178 1.272 . S
O194 Sm169 2.543 . S
O194 C179 1.261 . S
O195 Sm169 2.450 . S
O195 C179 1.242 . S
O196 Sm168 2.386 . S
O196 Sm169 2.681 . S
O196 C186 1.271 . S
O197 Sm169 2.464 . S
O197 C186 1.251 . S
O198 Sm169 2.396 . S
O198 C187 1.252 . S
O199 Sm168 2.408 . S
O199 C187 1.272 . S
H200 C172 0.930 . S
H201 C173 0.929 . S
H202 C175 0.930 . S
H203 C176 0.929 . S
H204 C181 0.930 . S
H205 C182 0.929 . S
H206 C184 0.930 . S
H207 C185 0.929 . S
Sm208 C210 2.846 . S
Sm208 O228 2.543 . S
Sm208 O229 2.450 . S
Sm208 O230 2.681 . S
Sm208 O231 2.476 . S
Sm208 O232 2.396 . S
Sm208 O236 2.386 1_554 S
Sm208 O239 2.408 1_455 S
Sm209 C219 2.846 1_455 S
Sm209 O230 2.386 1_556 S
Sm209 O233 2.408 1_556 S
Sm209 O234 2.543 1_455 S
Sm209 O235 2.450 1_455 S
Sm209 O236 2.681 . S
Sm209 O237 2.464 . S
Sm209 O238 2.396 1_455 S
C210 Sm208 2.846 . S
C210 C211 1.506 . S
C210 O228 1.261 . S
C210 O229 1.242 . S
C211 C210 1.506 . S
C211 C212 1.358 . S
C211 C216 1.382 . S
C212 C211 1.358 . S
C212 C213 1.385 . S
C212 H240 0.930 . S
C213 C212 1.385 . S
C213 C214 1.395 . S
C213 H241 0.929 . S
C214 C213 1.395 . S
C214 C215 1.335 . S
C215 C214 1.335 . S
C215 C216 1.398 . S
C215 H242 0.930 . S
C216 C211 1.382 . S
C216 C215 1.398 . S
C216 H243 0.929 . S
C217 O230 1.271 1_655 S
C217 O231 1.242 1_655 S
C218 O232 1.252 . S
C218 O233 1.272 . S
C219 Sm209 2.846 1_655 S
C219 C220 1.506 . S
C219 O234 1.261 . S
C219 O235 1.242 . S
C220 C219 1.506 . S
C220 C221 1.358 . S
C220 C225 1.382 . S
C221 C220 1.358 . S
C221 C222 1.385 . S
C221 H244 0.930 . S
C222 C221 1.385 . S
C222 C223 1.395 . S
C222 H245 0.929 . S
C223 C222 1.395 . S
C223 C224 1.335 . S
C224 C223 1.335 . S
C224 C225 1.398 . S
C224 H246 0.930 . S
C225 C220 1.382 . S
C225 C224 1.398 . S
C225 H247 0.929 . S
C226 O236 1.271 . S
C226 O237 1.251 . S
C227 O238 1.252 . S
C227 O239 1.272 1_556 S
O228 Sm208 2.543 . S
O228 C210 1.261 . S
O229 Sm208 2.450 . S
O229 C210 1.242 . S
O230 Sm208 2.681 . S
O230 Sm209 2.386 1_554 S
O230 C217 1.271 1_455 S
O231 Sm208 2.476 . S
O231 C217 1.242 1_455 S
O232 Sm208 2.396 . S
O232 C218 1.252 . S
O233 Sm209 2.408 1_554 S
O233 C218 1.272 . S
O234 Sm209 2.543 1_655 S
O234 C219 1.261 . S
O235 Sm209 2.450 1_655 S
O235 C219 1.242 . S
O236 Sm208 2.386 1_556 S
O236 Sm209 2.681 . S
O236 C226 1.271 . S
O237 Sm209 2.464 . S
O237 C226 1.251 . S
O238 Sm209 2.396 1_655 S
O238 C227 1.252 . S
O239 Sm208 2.408 1_655 S
O239 C227 1.272 1_554 S
H240 C212 0.930 . S
H241 C213 0.929 . S
H242 C215 0.930 . S
H243 C216 0.929 . S
H244 C221 0.930 . S
H245 C222 0.929 . S
H246 C224 0.930 . S
H247 C225 0.929 . S
H248 C254 0.930 . S
H249 C257 0.930 . S
H250 C258 0.930 . S
H251 C259 0.930 . S
H252 C262 0.930 . S
H253 C263 0.930 . S
C254 H248 0.930 . S
C254 C255 1.355 . S
C254 C256 1.415 . S
C255 C254 1.355 . S
C255 C257 1.419 . S
C256 C254 1.415 . S
C256 C261 1.425 . S
C256 C263 1.409 . S
C257 H249 0.930 . S
C257 C255 1.419 . S
C257 C258 1.362 . S
C258 H250 0.930 . S
C258 C257 1.362 . S
C258 C261 1.409 . S
C259 H251 0.930 . S
C259 C260 1.355 . S
C259 C261 1.415 . S
C260 C259 1.355 . S
C260 C262 1.419 . S
C261 C256 1.425 . S
C261 C258 1.409 . S
C261 C259 1.415 . S
C262 H252 0.930 . S
C262 C260 1.419 . S
C262 C263 1.362 . S
C263 H253 0.930 . S
C263 C256 1.409 . S
C263 C262 1.362 . S
H264 C270 0.930 . S
H265 C273 0.930 . S
H266 C274 0.930 . S
H267 C275 0.930 . S
H268 C278 0.930 . S
H269 C279 0.930 . S
C270 H264 0.930 . S
C270 C271 1.355 . S
C270 C272 1.415 . S
C271 C270 1.355 . S
C271 C273 1.419 . S
C272 C270 1.415 . S
C272 C277 1.425 . S
C272 C279 1.409 . S
C273 H265 0.930 . S
C273 C271 1.419 . S
C273 C274 1.362 . S
C274 H266 0.930 . S
C274 C273 1.362 . S
C274 C277 1.409 . S
C275 H267 0.930 . S
C275 C276 1.355 . S
C275 C277 1.415 . S
C276 C275 1.355 . S
C276 C278 1.419 . S
C277 C272 1.425 . S
C277 C274 1.409 . S
C277 C275 1.415 . S
C278 H268 0.930 . S
C278 C276 1.419 . S
C278 C279 1.362 . S
C279 H269 0.930 . S
C279 C272 1.409 . S
C279 C278 1.362 . S
H280 C286 0.930 . S
H281 C289 0.930 . S
H282 C290 0.930 . S
H283 C291 0.930 . S
H284 C294 0.930 . S
H285 C295 0.930 . S
C286 H280 0.930 . S
C286 C287 1.355 . S
C286 C288 1.415 . S
C287 C286 1.355 . S
C287 C289 1.419 . S
C288 C286 1.415 . S
C288 C293 1.425 . S
C288 C295 1.409 . S
C289 H281 0.930 . S
C289 C287 1.419 . S
C289 C290 1.362 . S
C290 H282 0.930 . S
C290 C289 1.362 . S
C290 C293 1.409 . S
C291 H283 0.930 . S
C291 C292 1.355 . S
C291 C293 1.415 . S
C292 C291 1.355 . S
C292 C294 1.419 . S
C293 C288 1.425 . S
C293 C290 1.409 . S
C293 C291 1.415 . S
C294 H284 0.930 . S
C294 C292 1.419 . S
C294 C295 1.362 . S
C295 H285 0.930 . S
C295 C288 1.409 . S
C295 C294 1.362 . S
H296 C302 0.930 . S
H297 C305 0.930 . S
H298 C306 0.930 1_455 S
H299 C307 0.930 1_455 S
H300 C310 0.930 . S
H301 C311 0.930 . S
C302 H296 0.930 . S
C302 C303 1.355 . S
C302 C304 1.415 . S
C303 C302 1.355 . S
C303 C305 1.419 . S
C304 C302 1.415 . S
C304 C309 1.425 . S
C304 C311 1.409 . S
C305 H297 0.930 . S
C305 C303 1.419 . S
C305 C306 1.362 . S
C306 H298 0.930 1_655 S
C306 C305 1.362 . S
C306 C309 1.409 . S
C307 H299 0.930 1_655 S
C307 C308 1.355 . S
C307 C309 1.415 . S
C308 C307 1.355 . S
C308 C310 1.419 . S
C309 C304 1.425 . S
C309 C306 1.409 . S
C309 C307 1.415 . S
C310 H300 0.930 . S
C310 C308 1.419 . S
C310 C311 1.362 . S
C311 H301 0.930 . S
C311 C304 1.409 . S
C311 C310 1.362 . S
H312 C318 0.930 . S
H313 C321 0.930 . S
H314 C322 0.930 . S
H315 C323 0.930 . S
H316 C326 0.930 . S
H317 C327 0.930 . S
C318 H312 0.930 . S
C318 C319 1.355 . S
C318 C320 1.415 . S
C319 C318 1.355 . S
C319 C321 1.419 . S
C320 C318 1.415 . S
C320 C325 1.425 . S
C320 C327 1.409 . S
C321 H313 0.930 . S
C321 C319 1.419 . S
C321 C322 1.362 . S
C322 H314 0.930 . S
C322 C321 1.362 . S
C322 C325 1.409 . S
C323 H315 0.930 . S
C323 C324 1.355 . S
C323 C325 1.415 . S
C324 C323 1.355 . S
C324 C326 1.419 . S
C325 C320 1.425 . S
C325 C322 1.409 . S
C325 C323 1.415 . S
C326 H316 0.930 . S
C326 C324 1.419 . S
C326 C327 1.362 . S
C327 H317 0.930 . S
C327 C320 1.409 . S
C327 C326 1.362 . S
H328 C334 0.930 . S
H329 C337 0.930 . S
H330 C338 0.930 . S
H331 C339 0.930 . S
H332 C342 0.929 . S
H333 C343 0.930 . S
C334 H328 0.930 . S
C334 C335 1.355 . S
C334 C336 1.415 . S
C335 C334 1.355 . S
C335 C337 1.419 . S
C336 C334 1.415 . S
C336 C341 1.425 . S
C336 C343 1.409 . S
C337 H329 0.930 . S
C337 C335 1.419 . S
C337 C338 1.362 . S
C338 H330 0.930 . S
C338 C337 1.362 . S
C338 C341 1.409 . S
C339 H331 0.930 . S
C339 C340 1.355 . S
C339 C341 1.415 . S
C340 C339 1.355 . S
C340 C342 1.419 1_565 S
C341 C336 1.425 . S
C341 C338 1.409 . S
C341 C339 1.415 . S
C342 H332 0.929 . S
C342 C340 1.419 1_545 S
C342 C343 1.363 1_545 S
C343 H333 0.930 . S
C343 C336 1.409 . S
C343 C342 1.363 1_565 S
H344 C350 0.930 . S
H345 C353 0.930 . S
H346 C354 0.930 . S
H347 C355 0.930 . S
H348 C358 0.930 1_554 S
H349 C359 0.930 . S
C350 H344 0.930 . S
C350 C351 1.355 . S
C350 C352 1.415 . S
C351 C350 1.355 . S
C351 C353 1.419 . S
C352 C350 1.415 . S
C352 C357 1.425 . S
C352 C359 1.409 . S
C353 H345 0.930 . S
C353 C351 1.419 . S
C353 C354 1.362 . S
C354 H346 0.930 . S
C354 C353 1.362 . S
C354 C357 1.409 . S
C355 H347 0.930 . S
C355 C356 1.355 . S
C355 C357 1.415 . S
C356 C355 1.355 . S
C356 C358 1.419 . S
C357 C352 1.425 . S
C357 C354 1.409 . S
C357 C355 1.415 . S
C358 H348 0.930 1_556 S
C358 C356 1.419 . S
C358 C359 1.362 . S
C359 H349 0.930 . S
C359 C352 1.409 . S
C359 C358 1.362 . S
H360 C366 0.930 . S
H361 C369 0.930 . S
H362 C370 0.930 . S
H363 C371 0.930 . S
H364 C374 0.930 . S
H365 C375 0.930 . S
C366 H360 0.930 . S
C366 C367 1.355 . S
C366 C368 1.415 . S
C367 C366 1.355 . S
C367 C369 1.419 . S
C368 C366 1.415 . S
C368 C373 1.425 . S
C368 C375 1.409 . S
C369 H361 0.930 . S
C369 C367 1.419 . S
C369 C370 1.362 . S
C370 H362 0.930 . S
C370 C369 1.362 . S
C370 C373 1.409 . S
C371 H363 0.930 . S
C371 C372 1.355 . S
C371 C373 1.415 . S
C372 C371 1.355 . S
C372 C374 1.419 . S
C373 C368 1.425 . S
C373 C370 1.409 . S
C373 C371 1.415 . S
C374 H364 0.930 . S
C374 C372 1.419 . S
C374 C375 1.362 . S
C375 H365 0.930 . S
C375 C368 1.409 . S
C375 C374 1.362 . S
H376 C382 0.930 . S
H377 C385 0.930 . S
H378 C386 0.930 . S
H379 C387 0.930 . S
H380 C390 0.930 . S
H381 C391 0.930 . S
C382 H376 0.930 . S
C382 C383 1.355 . S
C382 C384 1.415 . S
C383 C382 1.355 . S
C383 C385 1.419 . S
C384 C382 1.415 . S
C384 C389 1.425 . S
C384 C391 1.409 . S
C385 H377 0.930 . S
C385 C383 1.419 . S
C385 C386 1.362 . S
C386 H378 0.930 . S
C386 C385 1.362 . S
C386 C389 1.409 . S
C387 H379 0.930 . S
C387 C388 1.355 . S
C387 C389 1.415 . S
C388 C387 1.355 . S
C388 C390 1.419 . S
C389 C384 1.425 . S
C389 C386 1.409 . S
C389 C387 1.415 . S
C390 H380 0.930 . S
C390 C388 1.419 . S
C390 C391 1.362 . S
C391 H381 0.930 . S
C391 C384 1.409 . S
C391 C390 1.362 . S
H392 C398 0.930 . S
H393 C401 0.930 . S
H394 C402 0.930 . S
H395 C403 0.930 . S
H396 C406 0.930 . S
H397 C407 0.930 . S
C398 H392 0.930 . S
C398 C399 1.355 . S
C398 C400 1.415 . S
C399 C398 1.355 . S
C399 C401 1.419 . S
C400 C398 1.415 . S
C400 C405 1.425 . S
C400 C407 1.409 . S
C401 H393 0.930 . S
C401 C399 1.419 . S
C401 C402 1.362 . S
C402 H394 0.930 . S
C402 C401 1.362 . S
C402 C405 1.409 . S
C403 H395 0.930 . S
C403 C404 1.355 . S
C403 C405 1.415 . S
C404 C403 1.355 . S
C404 C406 1.419 1_556 S
C405 C400 1.425 . S
C405 C402 1.409 . S
C405 C403 1.415 . S
C406 H396 0.930 . S
C406 C404 1.419 1_554 S
C406 C407 1.362 1_554 S
C407 H397 0.930 . S
C407 C400 1.409 . S
C407 C406 1.362 1_556 S
H408 C414 0.930 . S
H409 C417 0.930 . S
H410 C418 0.930 . S
H411 C419 0.930 . S
H412 C422 0.930 . S
H413 C423 0.930 . S
C414 H408 0.930 . S
C414 C415 1.355 . S
C414 C416 1.415 . S
C415 C414 1.355 . S
C415 C417 1.419 . S
C416 C414 1.415 . S
C416 C421 1.425 . S
C416 C423 1.409 . S
C417 H409 0.930 . S
C417 C415 1.419 . S
C417 C418 1.362 . S
C418 H410 0.930 . S
C418 C417 1.362 . S
C418 C421 1.409 . S
C419 H411 0.930 . S
C419 C420 1.355 . S
C419 C421 1.415 . S
C420 C419 1.355 . S
C420 C422 1.419 . S
C421 C416 1.425 . S
C421 C418 1.409 . S
C421 C419 1.415 . S
C422 H412 0.930 . S
C422 C420 1.419 . S
C422 C423 1.362 . S
C423 H413 0.930 . S
C423 C416 1.409 . S
C423 C422 1.362 . S
H424 C430 0.930 . S
H425 C433 0.930 . S
H426 C434 0.930 . S
H427 C435 0.930 . S
H428 C438 0.930 . S
H429 C439 0.930 . S
C430 H424 0.930 . S
C430 C431 1.355 . S
C430 C432 1.415 . S
C431 C430 1.355 . S
C431 C433 1.419 . S
C432 C430 1.415 . S
C432 C437 1.425 . S
C432 C439 1.409 . S
C433 H425 0.930 . S
C433 C431 1.419 . S
C433 C434 1.362 . S
C434 H426 0.930 . S
C434 C433 1.362 . S
C434 C437 1.409 . S
C435 H427 0.930 . S
C435 C436 1.355 . S
C435 C437 1.415 . S
C436 C435 1.355 . S
C436 C438 1.419 . S
C437 C432 1.425 . S
C437 C434 1.409 . S
C437 C435 1.415 . S
C438 H428 0.930 . S
C438 C436 1.419 . S
C438 C439 1.362 . S
C439 H429 0.930 . S
C439 C432 1.409 . S
C439 C438 1.362 . S
H440 C446 0.930 . S
H441 C449 0.930 . S
H442 C450 0.930 . S
H443 C451 0.930 . S
H444 C454 0.930 . S
H445 C455 0.930 . S
C446 H440 0.930 . S
C446 C447 1.355 . S
C446 C448 1.415 . S
C447 C446 1.355 . S
C447 C449 1.419 . S
C448 C446 1.415 . S
C448 C453 1.425 . S
C448 C455 1.409 . S
C449 H441 0.930 . S
C449 C447 1.419 . S
C449 C450 1.362 . S
C450 H442 0.930 . S
C450 C449 1.362 . S
C450 C453 1.409 . S
C451 H443 0.930 . S
C451 C452 1.355 . S
C451 C453 1.415 . S
C452 C451 1.355 . S
C452 C454 1.419 . S
C453 C448 1.425 . S
C453 C450 1.409 . S
C453 C451 1.415 . S
C454 H444 0.930 . S
C454 C452 1.419 . S
C454 C455 1.362 . S
C455 H445 0.930 . S
C455 C448 1.409 . S
C455 C454 1.362 . S
H456 C462 0.930 . S
H457 C465 0.930 . S
H458 C466 0.930 . S
H459 C467 0.930 . S
H460 C470 0.930 . S
H461 C471 0.930 . S
C462 H456 0.930 . S
C462 C463 1.355 . S
C462 C464 1.415 . S
C463 C462 1.355 . S
C463 C465 1.419 . S
C464 C462 1.415 . S
C464 C469 1.425 . S
C464 C471 1.409 . S
C465 H457 0.930 . S
C465 C463 1.419 . S
C465 C466 1.362 . S
C466 H458 0.930 . S
C466 C465 1.362 . S
C466 C469 1.409 . S
C467 H459 0.930 . S
C467 C468 1.355 . S
C467 C469 1.415 . S
C468 C467 1.355 . S
C468 C470 1.419 . S
C469 C464 1.425 . S
C469 C466 1.409 . S
C469 C467 1.415 . S
C470 H460 0.930 . S
C470 C468 1.419 . S
C470 C471 1.362 . S
C471 H461 0.930 . S
C471 C464 1.409 . S
C471 C470 1.362 . S
H472 C478 0.930 . S
H473 C481 0.930 . S
H474 C482 0.930 . S
H475 C483 0.930 . S
H476 C486 0.930 . S
H477 C487 0.930 . S
C478 H472 0.930 . S
C478 C479 1.355 . S
C478 C480 1.415 . S
C479 C478 1.355 . S
C479 C481 1.419 . S
C480 C478 1.415 . S
C480 C485 1.425 . S
C480 C487 1.409 . S
C481 H473 0.930 . S
C481 C479 1.419 . S
C481 C482 1.362 . S
C482 H474 0.930 . S
C482 C481 1.362 . S
C482 C485 1.409 . S
C483 H475 0.930 . S
C483 C484 1.355 . S
C483 C485 1.415 . S
C484 C483 1.355 . S
C484 C486 1.419 . S
C485 C480 1.425 . S
C485 C482 1.409 . S
C485 C483 1.415 . S
C486 H476 0.930 . S
C486 C484 1.419 . S
C486 C487 1.362 . S
C487 H477 0.930 . S
C487 C480 1.409 . S
C487 C486 1.362 . S
H488 C494 0.930 . S
H489 C497 0.930 . S
H490 C498 0.930 . S
H491 C499 0.930 . S
H492 C502 0.930 . S
H493 C503 0.930 . S
C494 H488 0.930 . S
C494 C495 1.355 . S
C494 C496 1.415 . S
C495 C494 1.355 . S
C495 C497 1.419 . S
C496 C494 1.415 . S
C496 C501 1.425 . S
C496 C503 1.409 . S
C497 H489 0.930 . S
C497 C495 1.419 . S
C497 C498 1.362 . S
C498 H490 0.930 . S
C498 C497 1.362 . S
C498 C501 1.409 . S
C499 H491 0.930 . S
C499 C500 1.355 . S
C499 C501 1.415 . S
C500 C499 1.355 . S
C500 C502 1.419 . S
C501 C496 1.425 . S
C501 C498 1.409 . S
C501 C499 1.415 . S
C502 H492 0.930 . S
C502 C500 1.419 . S
C502 C503 1.362 . S
C503 H493 0.930 . S
C503 C496 1.409 . S
C503 C502 1.362 . S
H504 C510 0.930 . S
H505 C513 0.930 . S
H506 C514 0.930 . S
H507 C515 0.930 1_554 S
H508 C518 0.930 . S
H509 C519 0.930 . S
C510 H504 0.930 . S
C510 C511 1.355 . S
C510 C512 1.415 . S
C511 C510 1.355 . S
C511 C513 1.419 . S
C512 C510 1.415 . S
C512 C517 1.425 . S
C512 C519 1.409 . S
C513 H505 0.930 . S
C513 C511 1.419 . S
C513 C514 1.362 . S
C514 H506 0.930 . S
C514 C513 1.362 . S
C514 C517 1.409 . S
C515 H507 0.930 1_556 S
C515 C516 1.355 . S
C515 C517 1.415 . S
C516 C515 1.355 . S
C516 C518 1.419 . S
C517 C512 1.425 . S
C517 C514 1.409 . S
C517 C515 1.415 . S
C518 H508 0.930 . S
C518 C516 1.419 . S
C518 C519 1.362 . S
C519 H509 0.930 . S
C519 C512 1.409 . S
C519 C518 1.362 . S
H520 C526 0.930 . S
H521 C529 0.930 . S
H522 C530 0.930 . S
H523 C531 0.930 . S
H524 C534 0.930 . S
H525 C535 0.930 . S
C526 H520 0.930 . S
C526 C527 1.355 . S
C526 C528 1.415 . S
C527 C526 1.355 . S
C527 C529 1.419 . S
C528 C526 1.415 . S
C528 C533 1.425 . S
C528 C535 1.409 . S
C529 H521 0.930 . S
C529 C527 1.419 . S
C529 C530 1.362 . S
C530 H522 0.930 . S
C530 C529 1.362 . S
C530 C533 1.409 . S
C531 H523 0.930 . S
C531 C532 1.355 . S
C531 C533 1.415 . S
C532 C531 1.355 . S
C532 C534 1.419 . S
C533 C528 1.425 . S
C533 C530 1.409 . S
C533 C531 1.415 . S
C534 H524 0.930 . S
C534 C532 1.419 . S
C534 C535 1.362 . S
C535 H525 0.930 . S
C535 C528 1.409 . S
C535 C534 1.362 . S
H536 C542 0.930 . S
H537 C545 0.930 . S
H538 C546 0.930 . S
H539 C547 0.930 . S
H540 C550 0.930 . S
H541 C551 0.930 . S
C542 H536 0.930 . S
C542 C543 1.355 . S
C542 C544 1.415 . S
C543 C542 1.355 . S
C543 C545 1.419 . S
C544 C542 1.415 . S
C544 C549 1.425 . S
C544 C551 1.409 . S
C545 H537 0.930 . S
C545 C543 1.419 . S
C545 C546 1.362 . S
C546 H538 0.930 . S
C546 C545 1.362 . S
C546 C549 1.409 . S
C547 H539 0.930 . S
C547 C548 1.355 . S
C547 C549 1.415 . S
C548 C547 1.355 . S
C548 C550 1.419 . S
C549 C544 1.425 . S
C549 C546 1.409 . S
C549 C547 1.415 . S
C550 H540 0.930 . S
C550 C548 1.419 . S
C550 C551 1.362 . S
C551 H541 0.930 . S
C551 C544 1.409 . S
C551 C550 1.362 . S
H552 C558 0.930 . S
H553 C561 0.930 . S
H554 C562 0.930 . S
H555 C563 0.930 . S
H556 C566 0.930 . S
H557 C567 0.930 . S
C558 H552 0.930 . S
C558 C559 1.355 . S
C558 C560 1.415 . S
C559 C558 1.355 . S
C559 C561 1.419 . S
C560 C558 1.415 . S
C560 C565 1.425 . S
C560 C567 1.409 . S
C561 H553 0.930 . S
C561 C559 1.419 . S
C561 C562 1.362 . S
C562 H554 0.930 . S
C562 C561 1.362 . S
C562 C565 1.409 . S
C563 H555 0.930 . S
C563 C564 1.355 . S
C563 C565 1.415 . S
C564 C563 1.355 . S
C564 C566 1.419 . S
C565 C560 1.425 . S
C565 C562 1.409 . S
C565 C563 1.415 . S
C566 H556 0.930 . S
C566 C564 1.419 . S
C566 C567 1.362 . S
C567 H557 0.930 . S
C567 C560 1.409 . S
C567 C566 1.362 . S
H568 C574 0.930 . S
H569 C577 0.930 . S
H570 C578 0.930 . S
H571 C579 0.930 . S
H572 C582 0.930 . S
H573 C583 0.930 . S
C574 H568 0.930 . S
C574 C575 1.355 . S
C574 C576 1.415 . S
C575 C574 1.355 . S
C575 C577 1.419 . S
C576 C574 1.415 . S
C576 C581 1.425 . S
C576 C583 1.409 . S
C577 H569 0.930 . S
C577 C575 1.419 . S
C577 C578 1.362 . S
C578 H570 0.930 . S
C578 C577 1.362 . S
C578 C581 1.409 . S
C579 H571 0.930 . S
C579 C580 1.355 . S
C579 C581 1.415 . S
C580 C579 1.355 . S
C580 C582 1.419 . S
C581 C576 1.425 . S
C581 C578 1.409 . S
C581 C579 1.415 . S
C582 H572 0.930 . S
C582 C580 1.419 . S
C582 C583 1.362 . S
C583 H573 0.930 . S
C583 C576 1.409 . S
C583 C582 1.362 . S
H584 C590 0.930 . S
H585 C593 0.930 . S
H586 C594 0.930 . S
H587 C595 0.930 . S
H588 C598 0.930 . S
H589 C599 0.930 . S
C590 H584 0.930 . S
C590 C591 1.355 . S
C590 C592 1.415 . S
C591 C590 1.355 . S
C591 C593 1.419 . S
C592 C590 1.415 . S
C592 C597 1.425 . S
C592 C599 1.409 . S
C593 H585 0.930 . S
C593 C591 1.419 . S
C593 C594 1.362 . S
C594 H586 0.930 . S
C594 C593 1.362 . S
C594 C597 1.409 . S
C595 H587 0.930 . S
C595 C596 1.355 . S
C595 C597 1.415 . S
C596 C595 1.355 . S
C596 C598 1.419 . S
C597 C592 1.425 . S
C597 C594 1.409 . S
C597 C595 1.415 . S
C598 H588 0.930 . S
C598 C596 1.419 . S
C598 C599 1.362 . S
C599 H589 0.930 . S
C599 C592 1.409 . S
C599 C598 1.362 . S
H600 C606 0.930 . S
H601 C609 0.930 . S
H602 C610 0.930 . S
H603 C611 0.930 . S
H604 C614 0.930 . S
H605 C615 0.930 . S
C606 H600 0.930 . S
C606 C607 1.355 . S
C606 C608 1.415 . S
C607 C606 1.355 . S
C607 C609 1.419 . S
C608 C606 1.415 . S
C608 C613 1.425 . S
C608 C615 1.409 . S
C609 H601 0.930 . S
C609 C607 1.419 . S
C609 C610 1.362 . S
C610 H602 0.930 . S
C610 C609 1.362 . S
C610 C613 1.409 . S
C611 H603 0.930 . S
C611 C612 1.355 . S
C611 C613 1.415 . S
C612 C611 1.355 . S
C612 C614 1.419 . S
C613 C608 1.425 . S
C613 C610 1.409 . S
C613 C611 1.415 . S
C614 H604 0.930 . S
C614 C612 1.419 . S
C614 C615 1.362 . S
C615 H605 0.930 . S
C615 C608 1.409 . S
C615 C614 1.362 . S
H616 C622 0.930 . S
H617 C625 0.930 . S
H618 C626 0.930 . S
H619 C627 0.930 . S
H620 C630 0.930 . S
H621 C631 0.930 . S
C622 H616 0.930 . S
C622 C623 1.355 . S
C622 C624 1.415 . S
C623 C622 1.355 . S
C623 C625 1.419 . S
C624 C622 1.415 . S
C624 C629 1.425 . S
C624 C631 1.409 . S
C625 H617 0.930 . S
C625 C623 1.419 . S
C625 C626 1.362 . S
C626 H618 0.930 . S
C626 C625 1.362 . S
C626 C629 1.409 . S
C627 H619 0.930 . S
C627 C628 1.355 . S
C627 C629 1.415 . S
C628 C627 1.355 . S
C628 C630 1.419 . S
C629 C624 1.425 . S
C629 C626 1.409 . S
C629 C627 1.415 . S
C630 H620 0.930 . S
C630 C628 1.419 . S
C630 C631 1.362 . S
C631 H621 0.930 . S
C631 C624 1.409 . S
C631 C630 1.362 . S
C255 C4 1.129 . S
C260 C94 1.107 . S
C271 C16 1.212 . S
C276 C143 1.215 . S
C292 C178 2.118 . S
C287 C32 2.137 . S
C303 C43 2.319 . S
C308 C217 2.278 . S
C324 C138 2.565 . S
C319 C5 2.426 . S
C340 C97 0.377 . S
C335 C21 0.434 . S
C356 C227 1.895 . S
C351 C27 1.959 . S
C372 C186 1.655 . S
C367 C37 1.652 . S
C383 C10 1.464 . S
C388 C214 1.464 . S
C404 C146 2.524 1_556 S
C399 C26 2.594 . S
C415 C38 2.105 . S
C420 C107 2.111 . S
C431 C15 1.160 . S
C436 C183 1.183 . S
C452 C103 1.244 . S
C447 C48 1.192 . S
C463 C59 1.095 . S
C468 C134 1.099 . S
C479 C76 2.484 . S
C484 C187 2.433 . S
C495 C87 2.162 . S
C500 C226 2.165 . S
C511 C54 1.859 . S
C516 C147 2.002 1_556 S
C532 C106 1.280 . S
C527 C60 1.352 . S
C548 C218 1.822 . S
C543 C71 1.841 . S
C564 C177 1.622 . S
C559 C82 1.678 . S
C575 C49 1.652 . S
C580 C223 1.777 . S
C596 C137 1.980 . S
C591 C70 2.080 . S
C612 C98 2.522 . S
C607 C81 2.535 . S
C623 C65 0.930 . S
C628 C174 0.919 . S
