# Generated by pormake.
# Topology rtl, (3,6)-cn, num edge types: 1
# Building blocks:
#     Node 0, Type 0, BuildingBlock: BELTOD_clean_linker_0, # of connection points: 3
#     Node 1, Type 0, BuildingBlock: BELTOD_clean_linker_0, # of connection points: 3
#     Node 2, Type 0, BuildingBlock: BELTOD_clean_linker_0, # of connection points: 3
#     Node 3, Type 0, BuildingBlock: BELTOD_clean_linker_0, # of connection points: 3
#     Node 4, Type 1, BuildingBlock: KUMBOL_clean_sbu_1, # of connection points: 6
#     Node 5, Type 1, BuildingBlock: KUMBOL_clean_sbu_1, # of connection points: 6
#     Edge 6, Type (0, 1), BuildingBlock: XIVTED_clean_linker_0, # of connection points: 2
#     Edge 7, Type (0, 1), BuildingBlock: XIVTED_clean_linker_0, # of connection points: 2
#     Edge 8, Type (0, 1), BuildingBlock: XIVTED_clean_linker_0, # of connection points: 2
#     Edge 9, Type (0, 1), BuildingBlock: XIVTED_clean_linker_0, # of connection points: 2
#     Edge 10, Type (0, 1), BuildingBlock: XIVTED_clean_linker_0, # of connection points: 2
#     Edge 11, Type (0, 1), BuildingBlock: XIVTED_clean_linker_0, # of connection points: 2
#     Edge 12, Type (0, 1), BuildingBlock: XIVTED_clean_linker_0, # of connection points: 2
#     Edge 13, Type (0, 1), BuildingBlock: XIVTED_clean_linker_0, # of connection points: 2
#     Edge 14, Type (0, 1), BuildingBlock: XIVTED_clean_linker_0, # of connection points: 2
#     Edge 15, Type (0, 1), BuildingBlock: XIVTED_clean_linker_0, # of connection points: 2
#     Edge 16, Type (0, 1), BuildingBlock: XIVTED_clean_linker_0, # of connection points: 2
#     Edge 17, Type (0, 1), BuildingBlock: XIVTED_clean_linker_0, # of connection points: 2
# Relax obj value: 0.019
# Max RMSD: 0.099
# Mean RMSD: 0.063
data_MOF--net-rtl--node1-KUMBOL_clean_sbu_1--node2-BELTOD_clean_linker_0--edge1-XIVTED_clean_linker_0
_symmetry_space_group_name_H-M    P1
_symmetry_Int_Tables_number       1
_symmetry_cell_setting            triclinic
loop_
_symmetry_equiv_pos_as_xyz
'x, y, z'
_cell_length_a     37.478634
_cell_length_b     38.009787
_cell_length_c     32.99412
_cell_angle_alpha  78.69427
_cell_angle_beta   100.05977
_cell_angle_gamma 90.463041
loop_
_atom_site_label
_atom_site_type_symbol
_atom_site_fract_x
_atom_site_fract_y
_atom_site_fract_z
_atom_type_partial_charge
P0 P 0.2631 0.89655 0.02556 0.0
H1 H 0.28285 0.9068 0.11174 0.0
H2 H 0.24738 0.90945 0.16678 0.0
H3 H 0.15039 0.88779 0.08424 0.0
H4 H 0.18593 0.88555 0.02937 0.0
H5 H 0.32323 0.87643 0.98963 0.0
H6 H 0.35278 0.81877 0.99207 0.0
H7 H 0.28369 0.76616 0.07628 0.0
H8 H 0.25438 0.82404 0.07384 0.0
H9 H 0.23297 0.96291 0.97013 0.0
H10 H 0.229 0.84953 0.96985 0.0
O11 O 0.29337 0.9289 0.02736 0.0
H12 H 0.19473 0.97552 0.9006 0.0
H13 H 0.19193 0.86188 0.89992 0.0
C14 C 0.23689 0.89676 0.06627 0.0
C15 C 0.25393 0.90265 0.10557 0.0
C16 C 0.23368 0.90392 0.13706 0.0
C17 C 0.196 0.89917 0.12974 0.0
C18 C 0.17924 0.89226 0.09058 0.0
C19 C 0.19956 0.89088 0.05919 0.0
C20 C 0.28716 0.85455 0.03214 0.0
C21 C 0.31487 0.85254 0.00913 0.0
C22 C 0.33144 0.81955 0.01021 0.0
C23 C 0.32047 0.78792 0.03428 0.0
C24 C 0.29299 0.79013 0.05784 0.0
C25 C 0.27625 0.8232 0.05651 0.0
C26 C 0.23452 0.90542 0.97466 0.0
C27 C 0.22412 0.94077 0.95491 0.0
C28 C 0.2024 0.94791 0.91508 0.0
C29 C 0.19059 0.91973 0.89439 0.0
C30 C 0.20034 0.88421 0.91496 0.0
C31 C 0.22191 0.87713 0.95485 0.0
P32 P 0.7063 0.66828 0.6301 0.0
H33 H 0.73474 0.63044 0.57352 0.0
H34 H 0.70846 0.61528 0.5063 0.0
H35 H 0.6086 0.67066 0.50783 0.0
H36 H 0.63524 0.68576 0.57543 0.0
H37 H 0.76824 0.69657 0.67912 0.0
H38 H 0.80415 0.75 0.66408 0.0
H39 H 0.72959 0.78649 0.5479 0.0
H40 H 0.69372 0.7331 0.56319 0.0
H41 H 0.64114 0.62648 0.6377 0.0
H42 H 0.70196 0.70271 0.70137 0.0
O43 O 0.73785 0.63654 0.6533 0.0
H44 H 0.60318 0.61548 0.69154 0.0
H45 H 0.66452 0.6909 0.75619 0.0
C46 C 0.68652 0.6582 0.58002 0.0
C47 C 0.70715 0.63924 0.55949 0.0
C48 C 0.69221 0.6309 0.52084 0.0
C49 C 0.65637 0.64159 0.50189 0.0
C50 C 0.63609 0.66158 0.522 0.0
C51 C 0.65122 0.67015 0.5606 0.0
C52 C 0.72871 0.71052 0.62196 0.0
C53 C 0.75933 0.71633 0.65071 0.0
C54 C 0.77975 0.74695 0.64215 0.0
C55 C 0.76992 0.77223 0.60454 0.0
C56 C 0.73816 0.76717 0.57679 0.0
C57 C 0.71756 0.73668 0.58559 0.0
C58 C 0.67374 0.66631 0.66466 0.0
C59 C 0.64556 0.64186 0.66239 0.0
C60 C 0.6239 0.63544 0.69334 0.0
C61 C 0.63078 0.65249 0.72789 0.0
C62 C 0.65856 0.67751 0.72976 0.0
C63 C 0.67984 0.6844 0.69833 0.0
P64 P 0.81544 0.19543 0.03423 0.0
H65 H 0.78719 0.2187 0.94509 0.0
H66 H 0.79037 0.19156 0.88455 0.0
H67 H 0.83808 0.09496 0.96836 0.0
H68 H 0.83257 0.12129 0.02813 0.0
H69 H 0.80633 0.2571 0.07104 0.0
H70 H 0.75353 0.29318 0.07369 0.0
H71 H 0.68441 0.22655 0.00295 0.0
H72 H 0.73763 0.19033 0.00054 0.0
H73 H 0.88301 0.15659 0.07365 0.0
H74 H 0.77712 0.16857 0.10461 0.0
O75 O 0.84911 0.22378 0.02757 0.0
H76 H 0.90343 0.11935 0.1433 0.0
H77 H 0.79786 0.13228 0.17471 0.0
C78 C 0.80971 0.17214 0.99114 0.0
C79 C 0.79722 0.19124 0.95032 0.0
C80 C 0.79946 0.1758 0.91572 0.0
C81 C 0.81509 0.14123 0.92137 0.0
C82 C 0.82555 0.12146 0.96253 0.0
C83 C 0.82277 0.13675 0.99704 0.0
C84 C 0.77593 0.2217 0.03472 0.0
C85 C 0.77983 0.25038 0.0559 0.0
C86 C 0.74961 0.27075 0.05772 0.0
C87 C 0.71485 0.2627 0.03847 0.0
C88 C 0.71094 0.2336 0.01762 0.0
C89 C 0.74129 0.21297 0.01616 0.0
C90 C 0.82875 0.16565 0.08416 0.0
C91 C 0.86411 0.15098 0.09533 0.0
C92 C 0.87567 0.12957 0.13492 0.0
C93 C 0.85216 0.12307 0.1642 0.0
C94 C 0.81645 0.13706 0.15261 0.0
C95 C 0.80468 0.15788 0.11264 0.0
P96 P 0.37977 0.25825 0.48431 0.0
H97 H 0.3883 0.24151 0.57525 0.0
H98 H 0.3936 0.27866 0.62855 0.0
H99 H 0.38584 0.37408 0.53105 0.0
H100 H 0.37933 0.33674 0.47805 0.0
H101 H 0.35535 0.19105 0.46032 0.0
H102 H 0.29804 0.15984 0.46024 0.0
H103 H 0.25128 0.24871 0.49897 0.0
H104 H 0.30883 0.27953 0.49939 0.0
H105 H 0.44445 0.28692 0.45471 0.0
H106 H 0.33039 0.28564 0.40428 0.0
O107 O 0.41206 0.22612 0.50062 0.0
H108 H 0.45545 0.32121 0.38757 0.0
H109 H 0.34124 0.31918 0.33645 0.0
C110 C 0.38404 0.28633 0.52284 0.0
C111 C 0.38784 0.27045 0.56546 0.0
C112 C 0.39105 0.29175 0.59588 0.0
C113 C 0.39045 0.32942 0.58418 0.0
C114 C 0.38611 0.3452 0.54122 0.0
C115 C 0.38273 0.32383 0.51082 0.0
C116 C 0.33654 0.23712 0.48087 0.0
C117 C 0.33269 0.20383 0.46864 0.0
C118 C 0.29982 0.18616 0.4683 0.0
C119 C 0.27019 0.20163 0.48003 0.0
C120 C 0.2738 0.23577 0.49056 0.0
C121 C 0.30666 0.25345 0.49075 0.0
C122 C 0.38679 0.28322 0.4342 0.0
C123 C 0.42183 0.29374 0.42896 0.0
C124 C 0.42806 0.31321 0.39047 0.0
C125 C 0.39928 0.32259 0.35638 0.0
C126 C 0.36398 0.31254 0.36206 0.0
C127 C 0.35778 0.29309 0.40075 0.0
C128 C 0.95238 0.11341 0.49024 0.0
C129 C 0.89363 0.10313 0.45056 0.0
C130 C 0.92451 0.09039 0.48085 0.0
C131 C 0.89119 0.13926 0.42987 0.0
C132 C 0.95005 0.14968 0.46949 0.0
C133 C 0.91932 0.16246 0.4393 0.0
N134 N 0.98201 0.10019 0.51913 0.0
C135 C 0.00993 0.12184 0.52947 0.0
C136 C 0.97882 0.17198 0.47953 0.0
C137 C 0.00885 0.158 0.50974 0.0
Gd138 Gd 0.03456 0.9608 0.51553 0.0
Gd139 Gd 0.98159 0.03923 0.54976 0.0
N140 N 0.92825 0.05522 0.50028 0.0
C141 C 0.86626 0.07907 0.44168 0.0
C142 C 0.90106 0.03201 0.49292 0.0
C143 C 0.86989 0.04343 0.4632 0.0
H144 H 0.90309 0.00474 0.50994 0.0
H145 H 0.84861 0.02477 0.45705 0.0
H146 H 0.115 0.00239 0.51176 0.0
H147 H 0.03275 0.11137 0.55352 0.0
H148 H 0.17547 0.99955 0.55537 0.0
H149 H 0.84215 0.08779 0.41854 0.0
H150 H 0.86772 0.14949 0.40639 0.0
H151 H 0.99278 0.88696 0.55376 0.0
H152 H 0.97807 0.2 0.46427 0.0
H153 H 0.03107 0.1751 0.51798 0.0
H154 H 0.17383 0.89444 0.66232 0.0
H155 H 0.91709 0.19023 0.42298 0.0
H156 H 0.06626 0.82524 0.65678 0.0
H157 H 0.00602 0.83343 0.61083 0.0
N158 N 0.04476 0.90879 0.56788 0.0
C159 C 0.07842 0.90437 0.59194 0.0
C160 C 0.01904 0.88362 0.57386 0.0
C161 C 0.06064 0.84867 0.63174 0.0
C162 C 0.02654 0.85325 0.60596 0.0
C163 C 0.08709 0.87435 0.62493 0.0
H164 H 0.12861 0.84842 0.67606 0.0
N165 N 0.0945 0.95961 0.55251 0.0
C166 C 0.10376 0.93076 0.58446 0.0
C167 C 0.16425 0.95295 0.59965 0.0
C168 C 0.13868 0.9271 0.6094 0.0
C169 C 0.12045 0.9828 0.54053 0.0
C170 C 0.1553 0.9805 0.56452 0.0
O171 O 0.981 0.04356 0.48043 0.0
O172 O 0.98513 0.98565 0.46959 0.0
O173 O 0.06373 0.95879 0.46439 0.0
O174 O 0.03483 0.91267 0.48963 0.0
O175 O 0.96148 0.98236 0.56313 0.0
O176 O 0.97474 0.95249 0.51249 0.0
O177 O 0.02899 0.95825 0.5836 0.0
O178 O 0.03363 0.01656 0.59091 0.0
O179 O 0.94475 0.02815 0.5942 0.0
O180 O 0.97743 0.07545 0.59228 0.0
O181 O 0.05131 0.01865 0.49626 0.0
O182 O 0.04136 0.04594 0.55015 0.0
C183 C 0.97617 0.01983 0.45605 0.0
C184 C 0.95544 0.95694 0.54092 0.0
C185 C 0.03557 0.92369 0.41703 0.0
C186 C 0.04238 0.91956 0.34578 0.0
C187 C 0.98241 0.91929 0.36464 0.0
C188 C 0.99781 0.92201 0.40552 0.0
C189 C 0.00445 0.91803 0.33493 0.0
C190 C 0.05773 0.92245 0.38711 0.0
C191 C 0.05205 0.9272 0.4599 0.0
C192 C 0.14724 0.89747 0.64266 0.0
C193 C 0.12154 0.87117 0.65037 0.0
H194 H 0.19136 0.9511 0.61803 0.0
C195 C 0.041 0.98238 0.60563 0.0
C196 C 0.05779 0.04413 0.51844 0.0
C197 C 0.96326 0.04747 0.65761 0.0
C198 C 0.94512 0.04885 0.72466 0.0
C199 C 0.00205 0.01956 0.72264 0.0
C200 C 0.99523 0.0286 0.67888 0.0
C201 C 0.97709 0.02949 0.74552 0.0
C202 C 0.93838 0.05768 0.68054 0.0
C203 C 0.9548 0.05542 0.6116 0.0
H204 H 0.95327 0.91803 0.35599 0.0
H205 H 0.9802 0.92286 0.42811 0.0
H206 H 0.99179 0.91532 0.30362 0.0
H207 H 0.08684 0.92421 0.39596 0.0
H208 H 0.02676 0.00492 0.73885 0.0
H209 H 0.01477 0.0208 0.66168 0.0
H210 H 0.98313 0.02266 0.77949 0.0
H211 H 0.91356 0.07209 0.66402 0.0
C212 C 0.5974 0.55498 0.02586 0.0
C213 C 0.58291 0.61745 0.99389 0.0
C214 C 0.57354 0.58442 0.01698 0.0
C215 C 0.61586 0.62011 0.97886 0.0
C216 C 0.63066 0.55763 0.01118 0.0
C217 C 0.63967 0.5903 0.9875 0.0
N218 N 0.58741 0.52333 0.04755 0.0
C219 C 0.60975 0.49364 0.05678 0.0
C220 C 0.65359 0.52715 0.02014 0.0
C221 C 0.64313 0.49506 0.04318 0.0
Gd222 Gd 0.44644 0.48742 0.9938 0.0
Gd223 Gd 0.5306 0.52307 0.06785 0.0
N224 N 0.54137 0.58081 0.03108 0.0
C225 C 0.55911 0.64701 0.98715 0.0
C226 C 0.51978 0.61033 0.02772 0.0
C227 C 0.52776 0.64358 0.00486 0.0
H228 H 0.49718 0.60894 0.04387 0.0
H229 H 0.51008 0.66671 0.00164 0.0
H230 H 0.47586 0.40052 0.0272 0.0
H231 H 0.60197 0.46897 0.07503 0.0
H232 H 0.45606 0.34498 0.06778 0.0
H233 H 0.56531 0.67286 0.9696 0.0
H234 H 0.62331 0.6452 0.96078 0.0
H235 H 0.37786 0.54714 0.9782 0.0
H236 H 0.67936 0.5281 0.00939 0.0
H237 H 0.66075 0.47141 0.05045 0.0
H238 H 0.33896 0.37588 0.09224 0.0
H239 H 0.66498 0.59279 0.97569 0.0
H240 H 0.29277 0.49614 0.03732 0.0
H241 H 0.31725 0.5501 0.99729 0.0
N242 N 0.388 0.49259 0.00843 0.0
C243 C 0.37475 0.46234 0.0295 0.0
C244 C 0.36771 0.52372 0.99642 0.0
C245 C 0.31946 0.49477 0.02923 0.0
C246 C 0.33323 0.52533 0.00677 0.0
C247 C 0.34019 0.46274 0.04081 0.0
H248 H 0.30111 0.4312 0.07258 0.0
N249 N 0.42997 0.43178 0.03039 0.0
C250 C 0.39628 0.43107 0.04074 0.0
C251 C 0.40564 0.36845 0.0738 0.0
C252 C 0.38349 0.39949 0.06332 0.0
C253 C 0.45074 0.40104 0.03851 0.0
C254 C 0.4392 0.36914 0.06089 0.0
O255 O 0.53436 0.52128 0.0006 0.0
O256 O 0.47655 0.53501 0.96507 0.0
O257 O 0.44924 0.4582 0.94393 0.0
O258 O 0.40354 0.49397 0.93931 0.0
O259 O 0.47438 0.54758 0.06171 0.0
O260 O 0.44657 0.54654 0.99387 0.0
O261 O 0.44331 0.48409 0.06268 0.0
O262 O 0.50227 0.47475 0.09706 0.0
O263 O 0.5317 0.55252 0.11821 0.0
O264 O 0.57445 0.51378 0.12156 0.0
O265 O 0.50123 0.45881 0.00287 0.0
O266 O 0.53258 0.46377 0.06866 0.0
C267 C 0.51175 0.53572 0.96653 0.0
C268 C 0.4499 0.55992 0.02814 0.0
C269 C 0.42323 0.48951 0.87648 0.0
C270 C 0.42212 0.48189 0.8045 0.0
C271 C 0.43333 0.54041 0.82295 0.0
C272 C 0.43021 0.52604 0.86444 0.0
C273 C 0.42923 0.51857 0.79308 0.0
C274 C 0.41934 0.46752 0.84652 0.0
C275 C 0.42008 0.47403 0.92016 0.0
C276 C 0.34913 0.39986 0.07474 0.0
C277 C 0.32755 0.43137 0.06351 0.0
H278 H 0.39682 0.34367 0.09118 0.0
C279 C 0.46739 0.4702 0.09572 0.0
C280 C 0.52682 0.44802 0.03597 0.0
C281 C 0.55688 0.51988 0.18501 0.0
C282 C 0.562 0.52716 0.25763 0.0
C283 C 0.53958 0.47172 0.23737 0.0
C284 C 0.54392 0.48522 0.1961 0.0
C285 C 0.54851 0.4925 0.26801 0.0
C286 C 0.56593 0.54072 0.21581 0.0
C287 C 0.56016 0.5349 0.1413 0.0
H288 H 0.43889 0.56858 0.81392 0.0
H289 H 0.43306 0.54344 0.88706 0.0
H290 H 0.43198 0.53029 0.76114 0.0
H291 H 0.41357 0.43938 0.85583 0.0
H292 H 0.5295 0.44497 0.24568 0.0
H293 H 0.53728 0.46861 0.17292 0.0
H294 H 0.54557 0.48116 0.29999 0.0
H295 H 0.5757 0.56759 0.20707 0.0
H296 H 0.22929 0.19588 0.54191 0.0
H297 H 0.08777 0.06114 0.44714 0.0
H298 H 0.23432 0.16094 0.42616 0.0
H299 H 0.09467 0.08464 0.57102 0.0
H300 H 0.13779 0.10165 0.43555 0.0
H301 H 0.17571 0.15999 0.54926 0.0
C302 C 0.21888 0.18099 0.51775 0.0
C303 C 0.23638 0.18143 0.48337 0.0
C304 C 0.12818 0.09808 0.46515 0.0
C305 C 0.17519 0.13976 0.49192 0.0
C306 C 0.09965 0.07498 0.47178 0.0
C307 C 0.0869 0.06963 0.51002 0.0
C308 C 0.14397 0.11603 0.49696 0.0
C309 C 0.10325 0.08828 0.54083 0.0
C310 C 0.18842 0.16025 0.52215 0.0
C311 C 0.22195 0.16106 0.45343 0.0
N312 N 0.13091 0.11058 0.53364 0.0
N313 N 0.19222 0.14101 0.45842 0.0
H314 H 0.34292 0.73272 0.10096 0.0
H315 H 0.41366 0.60762 0.96059 0.0
H316 H 0.33575 0.76303 0.96667 0.0
H317 H 0.43521 0.58448 0.09611 0.0
H318 H 0.37961 0.66187 0.96187 0.0
H319 H 0.37156 0.67544 0.09946 0.0
C320 C 0.34718 0.72722 0.07114 0.0
C321 C 0.33717 0.75276 0.03393 0.0
C322 C 0.39165 0.64484 0.99133 0.0
C323 C 0.36997 0.6874 0.03195 0.0
C324 C 0.41091 0.61377 0.99061 0.0
C325 C 0.42728 0.59154 0.0283 0.0
C326 C 0.38866 0.65369 0.03003 0.0
C327 C 0.42315 0.60098 0.06631 0.0
C328 C 0.36367 0.69462 0.07032 0.0
C329 C 0.34358 0.74434 0.99619 0.0
N330 N 0.4043 0.63137 0.0662 0.0
N331 N 0.35957 0.71242 0.99618 0.0
H332 H 0.79104 0.79589 0.52881 0.0
H333 H 0.9191 0.94752 0.60721 0.0
H334 H 0.80427 0.81667 0.65447 0.0
H335 H 0.92482 0.90883 0.49381 0.0
H336 H 0.87169 0.9048 0.62146 0.0
H337 H 0.83428 0.84266 0.51183 0.0
C338 C 0.8027 0.81062 0.55268 0.0
C339 C 0.79406 0.80236 0.59315 0.0
C340 C 0.88329 0.9057 0.59344 0.0
C341 C 0.84385 0.85565 0.57403 0.0
C342 C 0.91031 0.93016 0.58518 0.0
C343 C 0.92612 0.93168 0.54931 0.0
C344 C 0.87169 0.88275 0.56548 0.0
C345 C 0.9136 0.90845 0.52198 0.0
C346 C 0.82761 0.83709 0.54306 0.0
C347 C 0.81043 0.82194 0.62301 0.0
N348 N 0.88711 0.88496 0.53062 0.0
N349 N 0.83454 0.84768 0.61286 0.0
H350 H 0.69828 0.28688 0.10582 0.0
H351 H 0.53535 0.41646 0.97016 0.0
H352 H 0.65941 0.28982 0.97414 0.0
H353 H 0.57165 0.4082 0.10337 0.0
H354 H 0.57756 0.36732 0.9715 0.0
H355 H 0.64921 0.32855 0.10614 0.0
C356 C 0.67929 0.29624 0.07698 0.0
C357 C 0.68311 0.28518 0.0398 0.0
C358 C 0.57612 0.37615 0.00046 0.0
C359 C 0.62678 0.33293 0.03986 0.0
C360 C 0.55201 0.40418 0.99973 0.0
C361 C 0.55034 0.41681 0.0366 0.0
C362 C 0.5987 0.36066 0.03833 0.0
C363 C 0.57243 0.39976 0.07404 0.0
C364 C 0.65118 0.31993 0.07719 0.0
C365 C 0.65736 0.29762 0.00351 0.0
N366 N 0.59586 0.37277 0.07387 0.0
N367 N 0.63046 0.32113 0.00434 0.0
H368 H 0.21238 0.87237 0.2146 0.0
H369 H 0.03044 0.95216 0.26255 0.0
H370 H 0.12988 0.93302 0.11939 0.0
H371 H 0.10758 0.8833 0.35657 0.0
H372 H 0.06796 0.94745 0.21031 0.0
H373 H 0.17597 0.87832 0.26777 0.0
C374 C 0.18668 0.88705 0.2049 0.0
C375 C 0.17412 0.90213 0.16244 0.0
C376 C 0.07672 0.93338 0.24237 0.0
C377 C 0.13223 0.90892 0.22309 0.0
C378 C 0.0552 0.93592 0.27221 0.0
C379 C 0.06572 0.91794 0.31405 0.0
C380 C 0.10913 0.91275 0.25432 0.0
C381 C 0.09853 0.89791 0.32483 0.0
C382 C 0.16582 0.89029 0.23524 0.0
C383 C 0.1404 0.92051 0.15164 0.0
N384 N 0.11901 0.89578 0.29514 0.0
N385 N 0.12069 0.92342 0.18174 0.0
H386 H 0.6611 0.63275 0.81046 0.0
H387 H 0.47897 0.58733 0.90004 0.0
H388 H 0.5577 0.64484 0.72706 0.0
H389 H 0.57921 0.52667 0.94966 0.0
H390 H 0.50665 0.61928 0.8414 0.0
H391 H 0.6307 0.60642 0.86875 0.0
C392 C 0.6319 0.63047 0.8046 0.0
C393 C 0.61184 0.64091 0.76394 0.0
C394 C 0.52243 0.59899 0.86532 0.0
C395 C 0.57705 0.61065 0.83028 0.0
C396 C 0.50664 0.58058 0.89851 0.0
C397 C 0.5269 0.55443 0.9299 0.0
C398 C 0.55886 0.59165 0.86422 0.0
C399 C 0.56284 0.54717 0.92671 0.0
C400 C 0.61467 0.61515 0.83773 0.0
C401 C 0.5741 0.63689 0.75796 0.0
N402 N 0.57777 0.5659 0.89474 0.0
N403 N 0.55783 0.62204 0.79085 0.0
H404 H 0.84833 0.1469 0.23571 0.0
H405 H 0.94565 0.97961 0.39856 0.0
H406 H 0.88814 0.0579 0.19132 0.0
H407 H 0.96396 0.08898 0.41356 0.0
H408 H 0.913 0.0023 0.32687 0.0
H409 H 0.87717 0.11952 0.30736 0.0
C410 C 0.86264 0.12127 0.24124 0.0
C411 C 0.86603 0.10458 0.20778 0.0
C412 C 0.92419 0.02111 0.34616 0.0
C413 C 0.89887 0.0733 0.28922 0.0
C414 C 0.94301 0.00826 0.38685 0.0
C415 C 0.95741 0.03238 0.41229 0.0
C416 C 0.9191 0.05825 0.33146 0.0
C417 C 0.95268 0.06931 0.39561 0.0
C418 C 0.87926 0.10587 0.28192 0.0
C419 C 0.88518 0.0716 0.21644 0.0
N420 N 0.93361 0.0811 0.35647 0.0
N421 N 0.90093 0.05688 0.2565 0.0
H422 H 0.3553 0.39337 0.58104 0.0
H423 H 0.44973 0.41382 0.81217 0.0
H424 H 0.43475 0.31729 0.66153 0.0
H425 H 0.38374 0.49732 0.7242 0.0
H426 H 0.4416 0.37635 0.75899 0.0
H427 H 0.36292 0.43042 0.63446 0.0
C428 C 0.37451 0.38451 0.60981 0.0
C429 C 0.39446 0.35211 0.61665 0.0
C430 C 0.42893 0.40289 0.7513 0.0
C431 C 0.40291 0.39427 0.67833 0.0
C432 C 0.43338 0.4242 0.78172 0.0
C433 C 0.41742 0.45878 0.7726 0.0
C434 C 0.40815 0.41611 0.7115 0.0
C435 C 0.39689 0.47101 0.73243 0.0
C436 C 0.3787 0.40562 0.64042 0.0
C437 C 0.4184 0.34176 0.65501 0.0
N438 N 0.39278 0.44968 0.70343 0.0
N439 N 0.42194 0.36274 0.68435 0.0
H440 H 0.68691 0.64266 0.43206 0.0
H441 H 0.52641 0.53548 0.32121 0.0
H442 H 0.5888 0.61521 0.48139 0.0
H443 H 0.62238 0.56757 0.26928 0.0
H444 H 0.54695 0.56775 0.3779 0.0
H445 H 0.66182 0.61885 0.36977 0.0
C446 C 0.66 0.63174 0.42968 0.0
C447 C 0.64004 0.63062 0.46212 0.0
C448 C 0.5634 0.56795 0.35395 0.0
C449 C 0.61111 0.6033 0.39089 0.0
C450 C 0.55178 0.54936 0.32171 0.0
C451 C 0.57284 0.54861 0.29062 0.0
C452 C 0.59645 0.58575 0.3553 0.0
C453 C 0.60517 0.56762 0.29241 0.0
C454 C 0.64563 0.61827 0.39404 0.0
C455 C 0.60507 0.61675 0.45705 0.0
N456 N 0.61611 0.58517 0.32438 0.0
N457 N 0.59185 0.60332 0.4223 0.0
H458 H 0.83792 0.17973 0.85154 0.0
H459 H 0.9193 0.00963 0.79184 0.0
H460 H 0.81533 0.07148 0.90888 0.0
H461 H 0.91256 0.115 0.71264 0.0
H462 H 0.88013 0.03123 0.83443 0.0
H463 H 0.8627 0.15637 0.79858 0.0
C464 C 0.83733 0.15109 0.8526 0.0
C465 C 0.82471 0.12758 0.88523 0.0
C466 C 0.88686 0.04949 0.80743 0.0
C467 C 0.85443 0.10053 0.82508 0.0
C468 C 0.90942 0.03726 0.78335 0.0
C469 C 0.91937 0.06067 0.74892 0.0
C470 C 0.87466 0.08551 0.79733 0.0
C471 C 0.90543 0.09605 0.73887 0.0
C472 C 0.85186 0.13773 0.8224 0.0
C473 C 0.82552 0.09063 0.88504 0.0
N474 N 0.88413 0.10752 0.76326 0.0
N475 N 0.84066 0.0782 0.85583 0.0
H476 H 0.35842 0.37747 0.30126 0.0
H477 H 0.50561 0.41502 0.15056 0.0
H478 H 0.45633 0.31336 0.31742 0.0
H479 H 0.40184 0.47099 0.12204 0.0
H480 H 0.48723 0.37749 0.21176 0.0
H481 H 0.37262 0.41157 0.23519 0.0
C482 C 0.38272 0.37033 0.29079 0.0
C483 C 0.40639 0.34266 0.31522 0.0
C484 C 0.46834 0.39786 0.19215 0.0
C485 C 0.42296 0.38187 0.23991 0.0
C486 C 0.47894 0.41949 0.15734 0.0
C487 C 0.45542 0.44653 0.13165 0.0
C488 C 0.43393 0.4033 0.20159 0.0
C489 C 0.42084 0.45054 0.14127 0.0
C490 C 0.39087 0.38993 0.25316 0.0
C491 C 0.43766 0.33491 0.3002 0.0
N492 N 0.4112 0.42932 0.17573 0.0
N493 N 0.44508 0.35449 0.26373 0.0
H494 H 0.13317 0.8824 0.86119 0.0
H495 H 0.09503 0.0204 0.64104 0.0
H496 H 0.19837 0.97445 0.82905 0.0
H497 H 0.03991 0.92036 0.66402 0.0
H498 H 0.13234 0.00415 0.71066 0.0
H499 H 0.09805 0.89574 0.78991 0.0
C500 C 0.14027 0.90529 0.83914 0.0
C501 C 0.16875 0.92742 0.8513 0.0
C502 C 0.11224 0.98559 0.70054 0.0
C503 C 0.12833 0.94303 0.76979 0.0
C504 C 0.09087 0.99493 0.66086 0.0
C505 C 0.06445 0.97163 0.64696 0.0
C506 C 0.10691 0.95284 0.72676 0.0
C507 C 0.06026 0.93888 0.67362 0.0
C508 C 0.1201 0.91295 0.79849 0.0
C509 C 0.17629 0.957 0.82146 0.0
N510 N 0.08118 0.93048 0.71245 0.0
N511 N 0.15617 0.96396 0.78221 0.0
loop_
_geom_bond_atom_site_label_1
_geom_bond_atom_site_label_2
_geom_bond_distance
_geom_bond_site_symmetry_2
_ccdc_geom_bond_type
P0 O11 1.490 . S
P0 C14 1.812 . S
P0 C20 1.803 . S
P0 C26 1.819 1_554 S
H1 C15 0.941 . S
H2 C16 0.939 . S
H3 C18 0.940 . S
H4 C19 0.940 . S
H5 C21 0.939 . S
H6 C22 0.942 . S
H7 C24 0.940 . S
H8 C25 0.939 . S
H9 C27 0.941 . S
H10 C31 0.939 . S
O11 P0 1.490 . S
H12 C28 0.939 . S
H13 C30 0.940 . S
C14 P0 1.812 . S
C14 C15 1.389 . S
C14 C19 1.391 . S
C15 H1 0.941 . S
C15 C14 1.389 . S
C15 C16 1.397 . S
C16 H2 0.939 . S
C16 C15 1.397 . S
C16 C17 1.378 . S
C17 C16 1.378 . S
C17 C18 1.378 . S
C18 H3 0.940 . S
C18 C17 1.378 . S
C18 C19 1.396 . S
C19 H4 0.940 . S
C19 C14 1.391 . S
C19 C18 1.396 . S
C20 P0 1.803 . S
C20 C21 1.378 . S
C20 C25 1.400 . S
C21 H5 0.939 . S
C21 C20 1.378 . S
C21 C22 1.361 . S
C22 H6 0.942 . S
C22 C21 1.361 . S
C22 C23 1.369 . S
C23 C22 1.369 . S
C23 C24 1.404 . S
C24 H7 0.940 . S
C24 C23 1.404 . S
C24 C25 1.389 . S
C25 H8 0.939 . S
C25 C20 1.400 . S
C25 C24 1.389 . S
C26 P0 1.819 1_556 S
C26 C27 1.391 . S
C26 C31 1.391 . S
C27 H9 0.941 . S
C27 C26 1.391 . S
C27 C28 1.396 . S
C28 H12 0.939 . S
C28 C27 1.396 . S
C28 C29 1.397 . S
C29 C28 1.397 . S
C29 C30 1.385 . S
C30 H13 0.940 . S
C30 C29 1.385 . S
C30 C31 1.388 . S
C31 H10 0.939 . S
C31 C26 1.391 . S
C31 C30 1.388 . S
P32 O43 1.490 . S
P32 C46 1.812 . S
P32 C52 1.803 . S
P32 C58 1.819 . S
H33 C47 0.941 . S
H34 C48 0.939 . S
H35 C50 0.940 . S
H36 C51 0.940 . S
H37 C53 0.939 . S
H38 C54 0.942 . S
H39 C56 0.940 . S
H40 C57 0.939 . S
H41 C59 0.941 . S
H42 C63 0.939 . S
O43 P32 1.490 . S
H44 C60 0.939 . S
H45 C62 0.940 . S
C46 P32 1.812 . S
C46 C47 1.389 . S
C46 C51 1.391 . S
C47 H33 0.941 . S
C47 C46 1.389 . S
C47 C48 1.397 . S
C48 H34 0.939 . S
C48 C47 1.397 . S
C48 C49 1.378 . S
C49 C48 1.378 . S
C49 C50 1.378 . S
C50 H35 0.940 . S
C50 C49 1.378 . S
C50 C51 1.396 . S
C51 H36 0.940 . S
C51 C46 1.391 . S
C51 C50 1.396 . S
C52 P32 1.803 . S
C52 C53 1.378 . S
C52 C57 1.400 . S
C53 H37 0.939 . S
C53 C52 1.378 . S
C53 C54 1.361 . S
C54 H38 0.942 . S
C54 C53 1.361 . S
C54 C55 1.369 . S
C55 C54 1.369 . S
C55 C56 1.404 . S
C56 H39 0.940 . S
C56 C55 1.404 . S
C56 C57 1.389 . S
C57 H40 0.939 . S
C57 C52 1.400 . S
C57 C56 1.389 . S
C58 P32 1.819 . S
C58 C59 1.391 . S
C58 C63 1.391 . S
C59 H41 0.941 . S
C59 C58 1.391 . S
C59 C60 1.396 . S
C60 H44 0.939 . S
C60 C59 1.396 . S
C60 C61 1.397 . S
C61 C60 1.397 . S
C61 C62 1.385 . S
C62 H45 0.940 . S
C62 C61 1.385 . S
C62 C63 1.388 . S
C63 H42 0.939 . S
C63 C58 1.391 . S
C63 C62 1.388 . S
P64 O75 1.490 . S
P64 C78 1.812 . S
P64 C84 1.803 . S
P64 C90 1.819 . S
H65 C79 0.941 . S
H66 C80 0.939 . S
H67 C82 0.940 . S
H68 C83 0.940 . S
H69 C85 0.939 . S
H70 C86 0.942 . S
H71 C88 0.940 . S
H72 C89 0.939 . S
H73 C91 0.941 . S
H74 C95 0.939 . S
O75 P64 1.490 . S
H76 C92 0.939 . S
H77 C94 0.940 . S
C78 P64 1.812 . S
C78 C79 1.389 1_554 S
C78 C83 1.391 . S
C79 H65 0.941 . S
C79 C78 1.389 1_556 S
C79 C80 1.397 . S
C80 H66 0.939 . S
C80 C79 1.397 . S
C80 C81 1.378 . S
C81 C80 1.378 . S
C81 C82 1.378 . S
C82 H67 0.940 . S
C82 C81 1.378 . S
C82 C83 1.396 1_556 S
C83 H68 0.940 . S
C83 C78 1.391 . S
C83 C82 1.396 1_554 S
C84 P64 1.803 . S
C84 C85 1.378 . S
C84 C89 1.400 . S
C85 H69 0.939 . S
C85 C84 1.378 . S
C85 C86 1.361 . S
C86 H70 0.942 . S
C86 C85 1.361 . S
C86 C87 1.369 . S
C87 C86 1.369 . S
C87 C88 1.404 . S
C88 H71 0.940 . S
C88 C87 1.404 . S
C88 C89 1.389 . S
C89 H72 0.939 . S
C89 C84 1.400 . S
C89 C88 1.389 . S
C90 P64 1.819 . S
C90 C91 1.391 . S
C90 C95 1.391 . S
C91 H73 0.941 . S
C91 C90 1.391 . S
C91 C92 1.396 . S
C92 H76 0.939 . S
C92 C91 1.396 . S
C92 C93 1.397 . S
C93 C92 1.397 . S
C93 C94 1.385 . S
C94 H77 0.940 . S
C94 C93 1.385 . S
C94 C95 1.388 . S
C95 H74 0.939 . S
C95 C90 1.391 . S
C95 C94 1.388 . S
P96 O107 1.490 . S
P96 C110 1.812 . S
P96 C116 1.803 . S
P96 C122 1.819 . S
H97 C111 0.941 . S
H98 C112 0.939 . S
H99 C114 0.940 . S
H100 C115 0.940 . S
H101 C117 0.939 . S
H102 C118 0.942 . S
H103 C120 0.940 . S
H104 C121 0.939 . S
H105 C123 0.941 . S
H106 C127 0.939 . S
O107 P96 1.490 . S
H108 C124 0.939 . S
H109 C126 0.940 . S
C110 P96 1.812 . S
C110 C111 1.389 . S
C110 C115 1.391 . S
C111 H97 0.941 . S
C111 C110 1.389 . S
C111 C112 1.397 . S
C112 H98 0.939 . S
C112 C111 1.397 . S
C112 C113 1.378 . S
C113 C112 1.378 . S
C113 C114 1.378 . S
C114 H99 0.940 . S
C114 C113 1.378 . S
C114 C115 1.396 . S
C115 H100 0.940 . S
C115 C110 1.391 . S
C115 C114 1.396 . S
C116 P96 1.803 . S
C116 C117 1.378 . S
C116 C121 1.400 . S
C117 H101 0.939 . S
C117 C116 1.378 . S
C117 C118 1.361 . S
C118 H102 0.942 . S
C118 C117 1.361 . S
C118 C119 1.369 . S
C119 C118 1.369 . S
C119 C120 1.404 . S
C120 H103 0.940 . S
C120 C119 1.404 . S
C120 C121 1.389 . S
C121 H104 0.939 . S
C121 C116 1.400 . S
C121 C120 1.389 . S
C122 P96 1.819 . S
C122 C123 1.391 . S
C122 C127 1.391 . S
C123 H105 0.941 . S
C123 C122 1.391 . S
C123 C124 1.396 . S
C124 H108 0.939 . S
C124 C123 1.396 . S
C124 C125 1.397 . S
C125 C124 1.397 . S
C125 C126 1.385 . S
C126 H109 0.940 . S
C126 C125 1.385 . S
C126 C127 1.388 . S
C127 H106 0.939 . S
C127 C122 1.391 . S
C127 C126 1.388 . S
C128 C130 1.422 . S
C128 C132 1.415 . S
C128 N134 1.369 . S
C129 C130 1.421 . S
C129 C131 1.417 . S
C129 C141 1.422 . S
C130 C128 1.422 . S
C130 C129 1.421 . S
C130 N140 1.359 . S
C131 C129 1.417 . S
C131 C133 1.329 . S
C131 H150 0.930 . S
C132 C128 1.415 . S
C132 C133 1.437 . S
C132 C136 1.413 . S
C133 C131 1.329 . S
C133 C132 1.437 . S
C133 H155 0.929 . S
N134 C128 1.369 . S
N134 C135 1.318 1_655 S
N134 Gd139 2.622 . S
C135 N134 1.318 1_455 S
C135 C137 1.378 1_455 S
C135 H147 0.950 . S
C136 C132 1.413 . S
C136 C137 1.348 . S
C136 H152 0.931 . S
C137 C135 1.378 1_655 S
C137 C136 1.348 . S
C137 H153 0.930 1_655 S
Gd138 N158 2.622 . S
Gd138 N165 2.570 . S
Gd138 O172 2.346 1_465 S
Gd138 O173 2.468 . S
Gd138 O174 2.427 . S
Gd138 O176 2.388 1_455 S
Gd138 O177 2.386 . S
Gd138 O181 2.307 1_565 S
Gd138 C191 2.805 . S
Gd139 N134 2.622 . S
Gd139 N140 2.570 . S
Gd139 O171 2.386 . S
Gd139 O175 2.307 1_545 S
Gd139 O178 2.353 1_655 S
Gd139 O179 2.468 . S
Gd139 O180 2.427 . S
Gd139 O182 2.388 1_655 S
Gd139 C203 2.805 . S
N140 C130 1.359 . S
N140 Gd139 2.570 . S
N140 C142 1.343 . S
C141 C129 1.422 . S
C141 C143 1.321 . S
C141 H149 0.931 . S
C142 N140 1.343 . S
C142 C143 1.390 . S
C142 H144 0.931 . S
C143 C141 1.321 . S
C143 C142 1.390 . S
C143 H145 0.930 . S
H144 C142 0.931 . S
H145 C143 0.930 . S
H146 C169 0.931 . S
H147 C135 0.950 . S
H148 C170 0.930 . S
H149 C141 0.931 . S
H150 C131 0.930 . S
H151 C160 0.929 1_655 S
H152 C136 0.931 . S
H153 C137 0.930 1_455 S
H154 C192 0.930 . S
H155 C133 0.929 . S
H156 C161 0.931 . S
H157 C162 0.930 1_655 S
N158 Gd138 2.622 . S
N158 C159 1.369 . S
N158 C160 1.338 . S
C159 N158 1.369 . S
C159 C163 1.415 . S
C159 C166 1.422 . S
C160 H151 0.929 1_455 S
C160 N158 1.338 . S
C160 C162 1.378 . S
C161 H156 0.931 . S
C161 C162 1.348 . S
C161 C163 1.413 . S
C162 H157 0.930 1_455 S
C162 C160 1.378 . S
C162 C161 1.348 . S
C163 C159 1.415 . S
C163 C161 1.413 . S
C163 C193 1.437 . S
H164 C193 0.929 . S
N165 Gd138 2.570 . S
N165 C166 1.359 . S
N165 C169 1.343 . S
C166 C159 1.422 . S
C166 N165 1.359 . S
C166 C168 1.421 . S
C167 C168 1.422 . S
C167 C170 1.321 . S
C167 H194 0.931 . S
C168 C166 1.421 . S
C168 C167 1.422 . S
C168 C192 1.417 . S
C169 H146 0.931 . S
C169 N165 1.343 . S
C169 C170 1.390 . S
C170 H148 0.930 . S
C170 C167 1.321 . S
C170 C169 1.390 . S
O171 Gd139 2.386 . S
O171 C183 1.265 . S
O172 Gd138 2.346 1_645 S
O172 C183 1.253 . S
O173 Gd138 2.468 . S
O173 C191 1.263 . S
O174 Gd138 2.427 . S
O174 C191 1.252 . S
O175 Gd139 2.307 1_565 S
O175 C184 1.261 . S
O176 Gd138 2.388 1_655 S
O176 C184 1.252 . S
O177 Gd138 2.386 . S
O177 C195 1.265 . S
O178 Gd139 2.353 1_455 S
O178 C195 1.242 1_545 S
O179 Gd139 2.468 . S
O179 C203 1.263 . S
O180 Gd139 2.427 . S
O180 C203 1.252 . S
O181 Gd138 2.307 1_545 S
O181 C196 1.261 . S
O182 Gd139 2.388 1_455 S
O182 C196 1.252 . S
C183 O171 1.265 . S
C183 O172 1.253 . S
C184 O175 1.261 . S
C184 O176 1.252 . S
C185 C188 1.394 . S
C185 C190 1.370 . S
C185 C191 1.500 . S
C186 C189 1.383 . S
C186 C190 1.395 . S
C187 C188 1.396 . S
C187 C189 1.365 . S
C187 H204 0.929 . S
C188 C185 1.394 . S
C188 C187 1.396 . S
C188 H205 0.930 . S
C189 C186 1.383 . S
C189 C187 1.365 . S
C189 H206 0.931 . S
C190 C185 1.370 . S
C190 C186 1.395 . S
C190 H207 0.930 . S
C191 Gd138 2.805 . S
C191 O173 1.263 . S
C191 O174 1.252 . S
C191 C185 1.500 . S
C192 H154 0.930 . S
C192 C168 1.417 . S
C192 C193 1.329 . S
C193 C163 1.437 . S
C193 H164 0.929 . S
C193 C192 1.329 . S
H194 C167 0.931 . S
C195 O177 1.265 . S
C195 O178 1.242 1_565 S
C196 O181 1.261 . S
C196 O182 1.252 . S
C197 C200 1.394 . S
C197 C202 1.370 . S
C197 C203 1.500 . S
C198 C201 1.383 . S
C198 C202 1.395 . S
C199 C200 1.396 . S
C199 C201 1.365 . S
C199 H208 0.929 . S
C200 C197 1.394 . S
C200 C199 1.396 . S
C200 H209 0.930 . S
C201 C198 1.383 . S
C201 C199 1.365 . S
C201 H210 0.931 . S
C202 C197 1.370 . S
C202 C198 1.395 . S
C202 H211 0.930 . S
C203 Gd139 2.805 . S
C203 O179 1.263 . S
C203 O180 1.252 . S
C203 C197 1.500 . S
H204 C187 0.929 . S
H205 C188 0.930 . S
H206 C189 0.931 . S
H207 C190 0.930 . S
H208 C199 0.929 . S
H209 C200 0.930 . S
H210 C201 0.931 . S
H211 C202 0.930 . S
C212 C214 1.422 . S
C212 C216 1.415 . S
C212 N218 1.369 . S
C213 C214 1.421 . S
C213 C215 1.417 . S
C213 C225 1.422 . S
C214 C212 1.422 . S
C214 C213 1.421 . S
C214 N224 1.359 . S
C215 C213 1.417 . S
C215 C217 1.329 . S
C215 H234 0.930 . S
C216 C212 1.415 . S
C216 C217 1.437 . S
C216 C220 1.413 . S
C217 C215 1.329 . S
C217 C216 1.437 . S
C217 H239 0.929 . S
N218 C212 1.369 . S
N218 C219 1.338 . S
N218 Gd223 2.622 . S
C219 N218 1.338 . S
C219 C221 1.378 . S
C219 H231 0.929 . S
C220 C216 1.413 . S
C220 C221 1.348 . S
C220 H236 0.931 . S
C221 C219 1.378 . S
C221 C220 1.348 . S
C221 H237 0.930 . S
Gd222 N242 2.622 . S
Gd222 N249 2.570 1_556 S
Gd222 O256 2.353 . S
Gd222 O257 2.468 . S
Gd222 O258 2.427 . S
Gd222 O260 2.386 1_556 S
Gd222 O261 2.386 1_556 S
Gd222 O265 2.307 1_556 S
Gd222 C275 2.805 . S
Gd223 N218 2.622 . S
Gd223 N224 2.570 . S
Gd223 O255 2.372 1_554 S
Gd223 O259 2.307 . S
Gd223 O262 2.353 . S
Gd223 O263 2.468 . S
Gd223 O264 2.427 . S
Gd223 O266 2.388 . S
Gd223 C287 2.805 . S
N224 C214 1.359 . S
N224 Gd223 2.570 . S
N224 C226 1.343 . S
C225 C213 1.422 . S
C225 C227 1.321 . S
C225 H233 0.931 . S
C226 N224 1.343 . S
C226 C227 1.390 . S
C226 H228 0.931 . S
C227 C225 1.321 . S
C227 C226 1.390 . S
C227 H229 0.930 . S
H228 C226 0.931 . S
H229 C227 0.930 . S
H230 C253 0.931 . S
H231 C219 0.929 . S
H232 C254 0.930 . S
H233 C225 0.931 . S
H234 C215 0.930 . S
H235 C244 0.929 . S
H236 C220 0.931 . S
H237 C221 0.930 . S
H238 C276 0.930 . S
H239 C217 0.929 . S
H240 C245 0.931 . S
H241 C246 0.930 . S
N242 Gd222 2.622 . S
N242 C243 1.369 1_556 S
N242 C244 1.338 . S
C243 N242 1.369 1_554 S
C243 C247 1.415 . S
C243 C250 1.422 . S
C244 H235 0.929 . S
C244 N242 1.338 . S
C244 C246 1.378 . S
C245 H240 0.931 . S
C245 C246 1.348 1_554 S
C245 C247 1.413 . S
C246 H241 0.930 . S
C246 C244 1.378 . S
C246 C245 1.348 1_556 S
C247 C243 1.415 . S
C247 C245 1.413 . S
C247 C277 1.437 . S
H248 C277 0.929 . S
N249 Gd222 2.570 1_554 S
N249 C250 1.359 . S
N249 C253 1.343 . S
C250 C243 1.422 . S
C250 N249 1.359 . S
C250 C252 1.421 . S
C251 C252 1.422 . S
C251 C254 1.321 . S
C251 H278 0.931 . S
C252 C250 1.421 . S
C252 C251 1.422 . S
C252 C276 1.417 . S
C253 H230 0.931 . S
C253 N249 1.343 . S
C253 C254 1.390 . S
C254 H232 0.930 . S
C254 C251 1.321 . S
C254 C253 1.390 . S
O255 Gd223 2.372 1_556 S
O255 C267 1.276 . S
O256 Gd222 2.353 . S
O256 C267 1.242 . S
O257 Gd222 2.468 . S
O257 C275 1.263 . S
O258 Gd222 2.427 . S
O258 C275 1.252 . S
O259 Gd223 2.307 . S
O259 C268 1.261 . S
O260 Gd222 2.386 1_554 S
O260 C268 1.255 . S
O261 Gd222 2.386 1_554 S
O261 C279 1.265 . S
O262 Gd223 2.353 . S
O262 C279 1.242 . S
O263 Gd223 2.468 . S
O263 C287 1.263 . S
O264 Gd223 2.427 . S
O264 C287 1.252 . S
O265 Gd222 2.307 1_554 S
O265 C280 1.261 . S
O266 Gd223 2.388 . S
O266 C280 1.252 . S
C267 O255 1.276 . S
C267 O256 1.242 . S
C268 O259 1.261 . S
C268 O260 1.255 . S
C269 C272 1.394 . S
C269 C274 1.370 . S
C269 C275 1.500 . S
C270 C273 1.383 . S
C270 C274 1.395 . S
C271 C272 1.396 . S
C271 C273 1.365 . S
C271 H288 0.929 . S
C272 C269 1.394 . S
C272 C271 1.396 . S
C272 H289 0.930 . S
C273 C270 1.383 . S
C273 C271 1.365 . S
C273 H290 0.931 . S
C274 C269 1.370 . S
C274 C270 1.395 . S
C274 H291 0.930 . S
C275 Gd222 2.805 . S
C275 O257 1.263 . S
C275 O258 1.252 . S
C275 C269 1.500 . S
C276 H238 0.930 . S
C276 C252 1.417 . S
C276 C277 1.329 . S
C277 C247 1.437 . S
C277 H248 0.929 . S
C277 C276 1.329 . S
H278 C251 0.931 . S
C279 O261 1.265 . S
C279 O262 1.242 . S
C280 O265 1.261 . S
C280 O266 1.252 . S
C281 C284 1.394 . S
C281 C286 1.370 . S
C281 C287 1.500 . S
C282 C285 1.383 . S
C282 C286 1.395 . S
C283 C284 1.396 . S
C283 C285 1.365 . S
C283 H292 0.929 . S
C284 C281 1.394 . S
C284 C283 1.396 . S
C284 H293 0.930 . S
C285 C282 1.383 . S
C285 C283 1.365 . S
C285 H294 0.931 . S
C286 C281 1.370 . S
C286 C282 1.395 . S
C286 H295 0.930 . S
C287 Gd223 2.805 . S
C287 O263 1.263 . S
C287 O264 1.252 . S
C287 C281 1.500 . S
H288 C271 0.929 . S
H289 C272 0.930 . S
H290 C273 0.931 . S
H291 C274 0.930 . S
H292 C283 0.929 . S
H293 C284 0.930 . S
H294 C285 0.931 . S
H295 C286 0.930 . S
H296 C302 0.930 . S
H297 C306 0.930 . S
H298 C311 0.929 . S
H299 C309 0.929 . S
H300 C304 0.929 . S
H301 C310 0.929 . S
C302 H296 0.930 . S
C302 C303 1.367 . S
C302 C310 1.378 . S
C303 C302 1.367 . S
C303 C311 1.433 . S
C304 H300 0.929 . S
C304 C306 1.378 . S
C304 C308 1.350 . S
C305 C308 1.463 . S
C305 C310 1.350 . S
C305 N313 1.427 . S
C306 H297 0.930 . S
C306 C304 1.378 . S
C306 C307 1.367 . S
C307 C306 1.367 . S
C307 C309 1.433 . S
C308 C304 1.350 . S
C308 C305 1.463 . S
C308 N312 1.427 . S
C309 H299 0.929 . S
C309 C307 1.433 . S
C309 N312 1.384 . S
C310 H301 0.929 . S
C310 C302 1.378 . S
C310 C305 1.350 . S
C311 H298 0.929 . S
C311 C303 1.433 . S
C311 N313 1.384 . S
N312 C308 1.427 . S
N312 C309 1.384 . S
N313 C305 1.427 . S
N313 C311 1.384 . S
H314 C320 0.930 . S
H315 C324 0.930 1_556 S
H316 C329 0.929 1_556 S
H317 C327 0.929 . S
H318 C322 0.929 1_556 S
H319 C328 0.929 . S
C320 H314 0.930 . S
C320 C321 1.367 . S
C320 C328 1.378 . S
C321 C320 1.367 . S
C321 C329 1.433 . S
C322 H318 0.929 1_554 S
C322 C324 1.378 . S
C322 C326 1.350 . S
C323 C326 1.463 . S
C323 C328 1.350 . S
C323 N331 1.427 . S
C324 H315 0.930 1_554 S
C324 C322 1.378 . S
C324 C325 1.367 . S
C325 C324 1.367 . S
C325 C327 1.433 . S
C326 C322 1.350 . S
C326 C323 1.463 . S
C326 N330 1.427 . S
C327 H317 0.929 . S
C327 C325 1.433 . S
C327 N330 1.384 . S
C328 H319 0.929 . S
C328 C320 1.378 . S
C328 C323 1.350 . S
C329 H316 0.929 1_554 S
C329 C321 1.433 . S
C329 N331 1.384 . S
N330 C326 1.427 . S
N330 C327 1.384 . S
N331 C323 1.427 . S
N331 C329 1.384 . S
H332 C338 0.930 . S
H333 C342 0.930 . S
H334 C347 0.929 . S
H335 C345 0.929 . S
H336 C340 0.929 . S
H337 C346 0.929 . S
C338 H332 0.930 . S
C338 C339 1.367 . S
C338 C346 1.378 . S
C339 C338 1.367 . S
C339 C347 1.433 . S
C340 H336 0.929 . S
C340 C342 1.378 . S
C340 C344 1.350 . S
C341 C344 1.463 . S
C341 C346 1.350 . S
C341 N349 1.427 . S
C342 H333 0.930 . S
C342 C340 1.378 . S
C342 C343 1.367 . S
C343 C342 1.367 . S
C343 C345 1.433 . S
C344 C340 1.350 . S
C344 C341 1.463 . S
C344 N348 1.427 . S
C345 H335 0.929 . S
C345 C343 1.433 . S
C345 N348 1.384 . S
C346 H337 0.929 . S
C346 C338 1.378 . S
C346 C341 1.350 . S
C347 H334 0.929 . S
C347 C339 1.433 . S
C347 N349 1.384 . S
N348 C344 1.427 . S
N348 C345 1.384 . S
N349 C341 1.427 . S
N349 C347 1.384 . S
H350 C356 0.930 . S
H351 C360 0.930 . S
H352 C365 0.929 . S
H353 C363 0.929 . S
H354 C358 0.929 . S
H355 C364 0.929 . S
C356 H350 0.930 . S
C356 C357 1.367 . S
C356 C364 1.378 . S
C357 C356 1.367 . S
C357 C365 1.433 1_554 S
C358 H354 0.929 . S
C358 C360 1.378 . S
C358 C362 1.350 1_556 S
C359 C362 1.463 . S
C359 C364 1.350 . S
C359 N367 1.427 1_554 S
C360 H351 0.930 . S
C360 C358 1.378 . S
C360 C361 1.367 1_556 S
C361 C360 1.367 1_554 S
C361 C363 1.433 . S
C362 C358 1.350 1_554 S
C362 C359 1.463 . S
C362 N366 1.427 . S
C363 H353 0.929 . S
C363 C361 1.433 . S
C363 N366 1.384 . S
C364 H355 0.929 . S
C364 C356 1.378 . S
C364 C359 1.350 . S
C365 H352 0.929 . S
C365 C357 1.433 1_556 S
C365 N367 1.384 . S
N366 C362 1.427 . S
N366 C363 1.384 . S
N367 C359 1.427 1_556 S
N367 C365 1.384 . S
H368 C374 0.930 . S
H369 C378 0.930 . S
H370 C383 0.929 . S
H371 C381 0.929 . S
H372 C376 0.929 . S
H373 C382 0.929 . S
C374 H368 0.930 . S
C374 C375 1.367 . S
C374 C382 1.378 . S
C375 C374 1.367 . S
C375 C383 1.433 . S
C376 H372 0.929 . S
C376 C378 1.378 . S
C376 C380 1.350 . S
C377 C380 1.463 . S
C377 C382 1.350 . S
C377 N385 1.427 . S
C378 H369 0.930 . S
C378 C376 1.378 . S
C378 C379 1.367 . S
C379 C378 1.367 . S
C379 C381 1.433 . S
C380 C376 1.350 . S
C380 C377 1.463 . S
C380 N384 1.427 . S
C381 H371 0.929 . S
C381 C379 1.433 . S
C381 N384 1.384 . S
C382 H373 0.929 . S
C382 C374 1.378 . S
C382 C377 1.350 . S
C383 H370 0.929 . S
C383 C375 1.433 . S
C383 N385 1.384 . S
N384 C380 1.427 . S
N384 C381 1.384 . S
N385 C377 1.427 . S
N385 C383 1.384 . S
H386 C392 0.930 . S
H387 C396 0.930 . S
H388 C401 0.929 . S
H389 C399 0.929 . S
H390 C394 0.929 . S
H391 C400 0.929 . S
C392 H386 0.930 . S
C392 C393 1.367 . S
C392 C400 1.378 . S
C393 C392 1.367 . S
C393 C401 1.433 . S
C394 H390 0.929 . S
C394 C396 1.378 . S
C394 C398 1.350 . S
C395 C398 1.463 . S
C395 C400 1.350 . S
C395 N403 1.427 . S
C396 H387 0.930 . S
C396 C394 1.378 . S
C396 C397 1.367 . S
C397 C396 1.367 . S
C397 C399 1.433 . S
C398 C394 1.350 . S
C398 C395 1.463 . S
C398 N402 1.427 . S
C399 H389 0.929 . S
C399 C397 1.433 . S
C399 N402 1.384 . S
C400 H391 0.929 . S
C400 C392 1.378 . S
C400 C395 1.350 . S
C401 H388 0.929 . S
C401 C393 1.433 . S
C401 N403 1.384 . S
N402 C398 1.427 . S
N402 C399 1.384 . S
N403 C395 1.427 . S
N403 C401 1.384 . S
H404 C410 0.930 . S
H405 C414 0.930 1_565 S
H406 C419 0.929 . S
H407 C417 0.929 . S
H408 C412 0.929 1_565 S
H409 C418 0.929 . S
C410 H404 0.930 . S
C410 C411 1.367 . S
C410 C418 1.378 . S
C411 C410 1.367 . S
C411 C419 1.433 . S
C412 H408 0.929 1_545 S
C412 C414 1.378 . S
C412 C416 1.350 . S
C413 C416 1.463 . S
C413 C418 1.350 . S
C413 N421 1.427 . S
C414 H405 0.930 1_545 S
C414 C412 1.378 . S
C414 C415 1.367 . S
C415 C414 1.367 . S
C415 C417 1.433 . S
C416 C412 1.350 . S
C416 C413 1.463 . S
C416 N420 1.427 . S
C417 H407 0.929 . S
C417 C415 1.433 . S
C417 N420 1.384 . S
C418 H409 0.929 . S
C418 C410 1.378 . S
C418 C413 1.350 . S
C419 H406 0.929 . S
C419 C411 1.433 . S
C419 N421 1.384 . S
N420 C416 1.427 . S
N420 C417 1.384 . S
N421 C413 1.427 . S
N421 C419 1.384 . S
H422 C428 0.930 . S
H423 C432 0.930 . S
H424 C437 0.929 . S
H425 C435 0.929 . S
H426 C430 0.929 . S
H427 C436 0.929 . S
C428 H422 0.930 . S
C428 C429 1.367 . S
C428 C436 1.378 . S
C429 C428 1.367 . S
C429 C437 1.433 . S
C430 H426 0.929 . S
C430 C432 1.378 . S
C430 C434 1.350 . S
C431 C434 1.463 . S
C431 C436 1.350 . S
C431 N439 1.427 . S
C432 H423 0.930 . S
C432 C430 1.378 . S
C432 C433 1.367 . S
C433 C432 1.367 . S
C433 C435 1.433 . S
C434 C430 1.350 . S
C434 C431 1.463 . S
C434 N438 1.427 . S
C435 H425 0.929 . S
C435 C433 1.433 . S
C435 N438 1.384 . S
C436 H427 0.929 . S
C436 C428 1.378 . S
C436 C431 1.350 . S
C437 H424 0.929 . S
C437 C429 1.433 . S
C437 N439 1.384 . S
N438 C434 1.427 . S
N438 C435 1.384 . S
N439 C431 1.427 . S
N439 C437 1.384 . S
H440 C446 0.930 . S
H441 C450 0.930 . S
H442 C455 0.929 . S
H443 C453 0.929 . S
H444 C448 0.929 . S
H445 C454 0.929 . S
C446 H440 0.930 . S
C446 C447 1.367 . S
C446 C454 1.378 . S
C447 C446 1.367 . S
C447 C455 1.433 . S
C448 H444 0.929 . S
C448 C450 1.378 . S
C448 C452 1.350 . S
C449 C452 1.463 . S
C449 C454 1.350 . S
C449 N457 1.427 . S
C450 H441 0.930 . S
C450 C448 1.378 . S
C450 C451 1.367 . S
C451 C450 1.367 . S
C451 C453 1.433 . S
C452 C448 1.350 . S
C452 C449 1.463 . S
C452 N456 1.427 . S
C453 H443 0.929 . S
C453 C451 1.433 . S
C453 N456 1.384 . S
C454 H445 0.929 . S
C454 C446 1.378 . S
C454 C449 1.350 . S
C455 H442 0.929 . S
C455 C447 1.433 . S
C455 N457 1.384 . S
N456 C452 1.427 . S
N456 C453 1.384 . S
N457 C449 1.427 . S
N457 C455 1.384 . S
H458 C464 0.930 . S
H459 C468 0.930 . S
H460 C473 0.929 . S
H461 C471 0.929 . S
H462 C466 0.929 . S
H463 C472 0.929 . S
C464 H458 0.930 . S
C464 C465 1.367 . S
C464 C472 1.378 . S
C465 C464 1.367 . S
C465 C473 1.433 . S
C466 H462 0.929 . S
C466 C468 1.378 . S
C466 C470 1.350 . S
C467 C470 1.463 . S
C467 C472 1.350 . S
C467 N475 1.427 . S
C468 H459 0.930 . S
C468 C466 1.378 . S
C468 C469 1.367 . S
C469 C468 1.367 . S
C469 C471 1.433 . S
C470 C466 1.350 . S
C470 C467 1.463 . S
C470 N474 1.427 . S
C471 H461 0.929 . S
C471 C469 1.433 . S
C471 N474 1.384 . S
C472 H463 0.929 . S
C472 C464 1.378 . S
C472 C467 1.350 . S
C473 H460 0.929 . S
C473 C465 1.433 . S
C473 N475 1.384 . S
N474 C470 1.427 . S
N474 C471 1.384 . S
N475 C467 1.427 . S
N475 C473 1.384 . S
H476 C482 0.930 . S
H477 C486 0.930 . S
H478 C491 0.929 . S
H479 C489 0.929 . S
H480 C484 0.929 . S
H481 C490 0.929 . S
C482 H476 0.930 . S
C482 C483 1.367 . S
C482 C490 1.378 . S
C483 C482 1.367 . S
C483 C491 1.433 . S
C484 H480 0.929 . S
C484 C486 1.378 . S
C484 C488 1.350 . S
C485 C488 1.463 . S
C485 C490 1.350 . S
C485 N493 1.427 . S
C486 H477 0.930 . S
C486 C484 1.378 . S
C486 C487 1.367 . S
C487 C486 1.367 . S
C487 C489 1.433 . S
C488 C484 1.350 . S
C488 C485 1.463 . S
C488 N492 1.427 . S
C489 H479 0.929 . S
C489 C487 1.433 . S
C489 N492 1.384 . S
C490 H481 0.929 . S
C490 C482 1.378 . S
C490 C485 1.350 . S
C491 H478 0.929 . S
C491 C483 1.433 . S
C491 N493 1.384 . S
N492 C488 1.427 . S
N492 C489 1.384 . S
N493 C485 1.427 . S
N493 C491 1.384 . S
H494 C500 0.930 . S
H495 C504 0.930 1_545 S
H496 C509 0.929 . S
H497 C507 0.929 . S
H498 C502 0.929 1_545 S
H499 C508 0.929 . S
C500 H494 0.930 . S
C500 C501 1.367 . S
C500 C508 1.378 . S
C501 C500 1.367 . S
C501 C509 1.433 . S
C502 H498 0.929 1_565 S
C502 C504 1.378 . S
C502 C506 1.350 . S
C503 C506 1.463 . S
C503 C508 1.350 . S
C503 N511 1.427 . S
C504 H495 0.930 1_565 S
C504 C502 1.378 . S
C504 C505 1.367 . S
C505 C504 1.367 . S
C505 C507 1.433 . S
C506 C502 1.350 . S
C506 C503 1.463 . S
C506 N510 1.427 . S
C507 H497 0.929 . S
C507 C505 1.433 . S
C507 N510 1.384 . S
C508 H499 0.929 . S
C508 C500 1.378 . S
C508 C503 1.350 . S
C509 H496 0.929 . S
C509 C501 1.433 . S
C509 N511 1.384 . S
N510 C506 1.427 . S
N510 C507 1.384 . S
N511 C503 1.427 . S
N511 C509 1.384 . S
C307 C196 1.625 . S
C303 C119 1.613 . S
C321 C23 1.612 . S
C325 C268 1.589 . S
C339 C55 1.559 . S
C343 C184 1.625 . S
C357 C87 1.529 . S
C361 C280 1.596 . S
C379 C186 1.395 . S
C375 C17 1.541 . S
C397 C267 1.605 . S
C393 C61 1.537 . S
C411 C93 1.490 . S
C415 C183 1.597 . S
C429 C113 1.524 . S
C433 C270 1.405 . S
C451 C282 1.396 . S
C447 C49 1.490 . S
C469 C198 1.404 . S
C465 C81 1.493 . S
C487 C279 1.606 . S
C483 C125 1.597 . S
C501 C29 1.592 . S
C505 C195 1.597 . S
