# Generated by pormake.
# Topology nom, (4,4)-cn, num edge types: 1
# Building blocks:
#     Node 0, Type 0, BuildingBlock: KUFVIS_clean_linker_0, # of connection points: 4
#     Node 1, Type 0, BuildingBlock: KUFVIS_clean_linker_0, # of connection points: 4
#     Node 2, Type 0, BuildingBlock: KUFVIS_clean_linker_0, # of connection points: 4
#     Node 3, Type 0, BuildingBlock: KUFVIS_clean_linker_0, # of connection points: 4
#     Node 4, Type 0, BuildingBlock: KUFVIS_clean_linker_0, # of connection points: 4
#     Node 5, Type 0, BuildingBlock: KUFVIS_clean_linker_0, # of connection points: 4
#     Node 6, Type 1, BuildingBlock: QUQFOY_clean_sbu_1, # of connection points: 4
#     Node 7, Type 1, BuildingBlock: QUQFOY_clean_sbu_1, # of connection points: 4
#     Node 8, Type 1, BuildingBlock: QUQFOY_clean_sbu_1, # of connection points: 4
#     Node 9, Type 1, BuildingBlock: QUQFOY_clean_sbu_1, # of connection points: 4
#     Node 10, Type 1, BuildingBlock: QUQFOY_clean_sbu_1, # of connection points: 4
#     Node 11, Type 1, BuildingBlock: QUQFOY_clean_sbu_1, # of connection points: 4
#     Edge 12, Type (0, 1), BuildingBlock: EYOCIG_clean_linker_4, # of connection points: 2
#     Edge 13, Type (0, 1), BuildingBlock: EYOCIG_clean_linker_4, # of connection points: 2
#     Edge 14, Type (0, 1), BuildingBlock: EYOCIG_clean_linker_4, # of connection points: 2
#     Edge 15, Type (0, 1), BuildingBlock: EYOCIG_clean_linker_4, # of connection points: 2
#     Edge 16, Type (0, 1), BuildingBlock: EYOCIG_clean_linker_4, # of connection points: 2
#     Edge 17, Type (0, 1), BuildingBlock: EYOCIG_clean_linker_4, # of connection points: 2
#     Edge 18, Type (0, 1), BuildingBlock: EYOCIG_clean_linker_4, # of connection points: 2
#     Edge 19, Type (0, 1), BuildingBlock: EYOCIG_clean_linker_4, # of connection points: 2
#     Edge 20, Type (0, 1), BuildingBlock: EYOCIG_clean_linker_4, # of connection points: 2
#     Edge 21, Type (0, 1), BuildingBlock: EYOCIG_clean_linker_4, # of connection points: 2
#     Edge 22, Type (0, 1), BuildingBlock: EYOCIG_clean_linker_4, # of connection points: 2
#     Edge 23, Type (0, 1), BuildingBlock: EYOCIG_clean_linker_4, # of connection points: 2
#     Edge 24, Type (0, 1), BuildingBlock: EYOCIG_clean_linker_4, # of connection points: 2
#     Edge 25, Type (0, 1), BuildingBlock: EYOCIG_clean_linker_4, # of connection points: 2
#     Edge 26, Type (0, 1), BuildingBlock: EYOCIG_clean_linker_4, # of connection points: 2
#     Edge 27, Type (0, 1), BuildingBlock: EYOCIG_clean_linker_4, # of connection points: 2
#     Edge 28, Type (0, 1), BuildingBlock: EYOCIG_clean_linker_4, # of connection points: 2
#     Edge 29, Type (0, 1), BuildingBlock: EYOCIG_clean_linker_4, # of connection points: 2
#     Edge 30, Type (0, 1), BuildingBlock: EYOCIG_clean_linker_4, # of connection points: 2
#     Edge 31, Type (0, 1), BuildingBlock: EYOCIG_clean_linker_4, # of connection points: 2
#     Edge 32, Type (0, 1), BuildingBlock: EYOCIG_clean_linker_4, # of connection points: 2
#     Edge 33, Type (0, 1), BuildingBlock: EYOCIG_clean_linker_4, # of connection points: 2
#     Edge 34, Type (0, 1), BuildingBlock: EYOCIG_clean_linker_4, # of connection points: 2
#     Edge 35, Type (0, 1), BuildingBlock: EYOCIG_clean_linker_4, # of connection points: 2
# Relax obj value: 0.004
# Max RMSD: 0.086
# Mean RMSD: 0.069
data_MOF--net-nom--node1-QUQFOY_clean_sbu_1--node2-KUFVIS_clean_linker_0--edge1-EYOCIG_clean_linker_4
_symmetry_space_group_name_H-M    P1
_symmetry_Int_Tables_number       1
_symmetry_cell_setting            triclinic
loop_
_symmetry_equiv_pos_as_xyz
'x, y, z'
_cell_length_a     36.857773
_cell_length_b     36.854264
_cell_length_c     38.518308
_cell_angle_alpha  89.997948
_cell_angle_beta   89.993645
_cell_angle_gamma 119.98586
loop_
_atom_site_label
_atom_site_type_symbol
_atom_site_fract_x
_atom_site_fract_y
_atom_site_fract_z
_atom_type_partial_charge
H0 H 0.20606 0.64769 0.29333 0.0
H1 H 0.10496 0.61665 0.22239 0.0
H2 H 0.07974 0.56838 0.32752 0.0
H3 H 1.02131 0.57478 0.31851 0.0
H4 H 0.92024 0.50471 0.24754 0.0
H5 H 1.0466 0.55183 0.21337 0.0
C6 C 0.17269 0.63141 0.28784 0.0
C7 C 0.14424 0.60828 0.31391 0.0
C8 C 0.15858 0.63393 0.25483 0.0
C9 C 0.11544 0.61347 0.24789 0.0
C10 C 0.08614 0.58951 0.27404 0.0
C11 C 0.10122 0.58705 0.3071 0.0
C12 C 1.04016 0.5665 0.26685 0.0
C13 C 1.01084 0.56112 0.293 0.0
C14 C 0.9677 0.53843 0.28606 0.0
C15 C 0.95361 0.52181 0.25304 0.0
C16 C 0.98208 0.52718 0.22697 0.0
C17 C 1.0251 0.54899 0.23379 0.0
H18 H 0.60337 0.18753 0.45999 0.0
H19 H 0.53319 0.08639 0.38911 0.0
H20 H 0.55647 0.06121 0.49418 0.0
H21 H 0.49163 1.00278 0.48524 0.0
H22 H 0.46049 0.90167 0.41425 0.0
H23 H 0.53968 1.02802 0.38004 0.0
C24 C 0.58628 0.15416 0.45451 0.0
C25 C 0.58102 0.12571 0.48057 0.0
C26 C 0.56958 0.14003 0.42151 0.0
C27 C 0.54691 0.09689 0.41459 0.0
C28 C 0.54164 0.06759 0.44073 0.0
C29 C 0.55923 0.08268 0.47377 0.0
C30 C 0.51866 1.0216 0.43356 0.0
C31 C 0.49477 0.99229 0.45973 0.0
C32 C 0.47431 0.94915 0.45279 0.0
C33 C 0.47677 0.93505 0.41975 0.0
C34 C 0.49984 0.96351 0.39366 0.0
C35 C 0.52106 1.00653 0.40047 0.0
H36 H 0.60321 0.44162 0.58103 0.0
H37 H 0.53298 0.47253 0.65195 0.0
H38 H 0.55599 0.52077 0.54681 0.0
H39 H 0.49109 0.51419 0.55579 0.0
H40 H 0.45998 0.58432 0.62664 0.0
H41 H 0.53934 0.53737 0.66092 0.0
C42 C 0.58607 0.45786 0.58652 0.0
C43 C 0.58071 0.48095 0.56044 0.0
C44 C 0.56941 0.45531 0.61953 0.0
C45 C 0.54667 0.47572 0.62645 0.0
C46 C 0.54128 0.49964 0.60028 0.0
C47 C 0.55884 0.50212 0.56723 0.0
C48 C 0.51822 0.52259 0.60745 0.0
C49 C 0.49425 0.52788 0.58128 0.0
C50 C 0.47376 0.55056 0.58818 0.0
C51 C 0.47627 0.56723 0.62118 0.0
C52 C 0.49941 0.56195 0.64726 0.0
C53 C 0.52066 0.54015 0.64049 0.0
H54 H 0.2063 0.58517 0.74766 0.0
H55 H 0.10518 0.51511 0.81861 0.0
H56 H 0.07998 0.53795 0.71342 0.0
H57 H 1.02165 0.47314 0.72243 0.0
H58 H 0.92043 0.44191 0.79331 0.0
H59 H 1.04668 0.52136 0.82757 0.0
C60 C 0.17293 0.56806 0.75315 0.0
C61 C 0.14448 0.56265 0.72706 0.0
C62 C 0.15881 0.55147 0.78618 0.0
C63 C 0.11567 0.52876 0.7931 0.0
C64 C 0.08637 0.52333 0.76693 0.0
C65 C 0.10145 0.54082 0.73385 0.0
C66 C 1.04038 0.50027 0.77409 0.0
C67 C 1.01112 0.47629 0.74792 0.0
C68 C 0.96797 0.45577 0.75483 0.0
C69 C 0.95381 0.45824 0.78784 0.0
C70 C 0.98221 0.48138 0.81392 0.0
C71 C 1.02524 0.50268 0.80714 0.0
H72 H 0.52325 0.90185 -0.04001 0.0
H73 H 0.59349 1.00299 0.88909 0.0
H74 H 0.57025 1.02819 -0.00584 0.0
H75 H 0.63508 0.08659 -0.01477 0.0
H76 H 0.66633 0.18772 0.91423 0.0
H77 H 0.58712 0.0614 0.88001 0.0
C78 C 0.54036 0.93523 -0.0455 0.0
C79 C 0.54565 0.96368 -0.01944 0.0
C80 C 0.55706 0.94935 0.9215 0.0
C81 C 0.57977 0.99249 0.91457 0.0
C82 C 0.58507 1.02179 0.94071 0.0
C83 C 0.56747 1.00671 -0.02624 0.0
C84 C 0.60809 0.06779 0.93353 0.0
C85 C 0.63197 0.09708 -0.04029 0.0
C86 C 0.65245 0.14023 -0.04723 0.0
C87 C 0.65003 0.15435 0.91973 0.0
C88 C 0.62698 0.1259 0.89364 0.0
C89 C 0.60573 0.08287 0.90045 0.0
H90 H 0.52303 0.64748 0.08083 0.0
H91 H 0.59297 0.61634 0.15185 0.0
H92 H 0.57006 0.56813 0.04671 0.0
H93 H 0.63484 0.57451 0.05576 0.0
H94 H 0.66586 0.50444 0.12675 0.0
H95 H 0.58656 0.55152 0.16088 0.0
C96 C 0.5401 0.63117 0.08634 0.0
C97 C 0.54545 0.60805 0.06028 0.0
C98 C 0.55668 0.63366 0.11938 0.0
C99 C 0.57933 0.61318 0.12634 0.0
C100 C 0.5847 0.58922 0.1002 0.0
C101 C 0.56723 0.58679 0.06712 0.0
C102 C 0.60769 0.56621 0.1074 0.0
C103 C 0.63165 0.56084 0.08126 0.0
C104 C 0.65211 0.53815 0.08822 0.0
C105 C 0.64958 0.52153 0.12124 0.0
C106 C 0.62645 0.52689 0.1473 0.0
C107 C 0.60523 0.54869 0.14047 0.0
O108 O 0.63021 0.41867 0.39789 0.0
Cd109 Cd 0.63837 0.39266 0.35332 0.0
Cd110 Cd 0.71502 0.46932 0.35435 0.0
O111 O 0.69202 0.47676 0.40075 0.0
O112 O 0.59304 0.33278 0.35502 0.0
O113 O 0.66066 0.3528 0.35604 0.0
C114 C 0.62205 0.32312 0.35691 0.0
C115 C 0.78457 0.48566 0.35071 0.0
C116 C 0.65576 0.45264 0.41291 0.0
C117 C 0.655 0.45198 0.29481 0.0
O118 O 0.68898 0.47752 0.30981 0.0
O119 O 0.63089 0.4157 0.30696 0.0
O120 O 0.7749 0.51467 0.35264 0.0
O121 O 0.75489 0.44704 0.35156 0.0
O122 O 0.25614 0.61164 0.56441 0.0
Cd123 Cd 0.2903 0.61975 0.51984 0.0
Cd124 Cd 0.29053 0.69653 0.52092 0.0
O125 O 0.26006 0.67355 0.5673 0.0
O126 O 0.30475 0.57434 0.52151 0.0
O127 O 0.35242 0.64194 0.52258 0.0
C128 C 0.34343 0.6033 0.52343 0.0
C129 C 0.34383 0.76603 0.51733 0.0
C130 C 0.24781 0.63726 0.57945 0.0
C131 C 0.24775 0.63658 0.46134 0.0
O132 O 0.25628 0.67059 0.47637 0.0
O133 O 0.25982 0.61239 0.47348 0.0
O134 O 0.30519 0.75645 0.51925 0.0
O135 O 0.35269 0.73629 0.51815 0.0
O136 O 0.68957 0.23772 0.73101 0.0
Cd137 Cd 0.71554 0.27194 0.68645 0.0
Cd138 Cd 0.63886 0.2719 0.68755 0.0
O139 O 0.63147 0.24143 0.73393 0.0
O140 O 0.77544 0.28655 0.68812 0.0
O141 O 0.75532 0.33409 0.68922 0.0
C142 C 0.78504 0.3252 0.69006 0.0
C143 C 0.6224 0.32504 0.684 0.0
C144 C 0.6556 0.22928 0.74606 0.0
C145 C 0.65623 0.22928 0.62795 0.0
O146 O 0.63068 0.2377 0.643 0.0
O147 O 0.69251 0.24146 0.64008 0.0
O148 O 0.59344 0.28635 0.68591 0.0
O149 O 0.66103 0.33403 0.68482 0.0
O150 O 0.4963 0.67068 0.89771 0.0
Cd151 Cd 0.48811 0.69672 0.85317 0.0
Cd152 Cd 0.41138 0.62023 0.8543 0.0
O153 O 0.43439 0.61272 0.90066 0.0
O154 O 0.53347 0.75659 0.85482 0.0
O155 O 0.46586 0.73661 0.85597 0.0
C156 C 0.50448 0.76628 0.85679 0.0
C157 C 0.34188 0.60407 0.85076 0.0
C158 C 0.47071 0.63675 0.91277 0.0
C159 C 0.47125 0.63736 0.79466 0.0
O160 O 0.43727 0.61189 0.80973 0.0
O161 O 0.49544 0.67363 0.80678 0.0
O162 O 0.35146 0.57499 0.85267 0.0
O163 O 0.37163 0.64266 0.85158 0.0
O164 O 0.87024 0.41882 -0.02357 0.0
Cd165 Cd 0.83603 0.39283 0.021 0.0
Cd166 Cd 0.83598 0.46943 0.01991 0.0
O167 O 0.86644 0.47688 -0.02648 0.0
O168 O 0.82144 0.33293 0.01933 0.0
O169 O 0.77389 0.35303 0.01825 0.0
C170 C 0.78279 0.32331 0.01742 0.0
C171 C 0.78268 0.48564 0.02353 0.0
C172 C 0.87863 0.45278 -0.03861 0.0
C173 C 0.87867 0.45216 0.07949 0.0
O174 O 0.87023 0.47769 0.06445 0.0
O175 O 0.86651 0.41587 0.06737 0.0
O176 O 0.82132 0.5147 0.02158 0.0
O177 O 0.77383 0.44705 0.02269 0.0
O178 O 0.496 0.85171 0.14301 0.0
Cd179 Cd 0.48779 0.81747 0.18756 0.0
Cd180 Cd 0.41119 0.81755 0.18653 0.0
O181 O 0.43421 0.84805 0.14016 0.0
O182 O 0.53309 0.80286 0.18585 0.0
O183 O 0.46546 0.75532 0.1848 0.0
C184 C 0.50406 0.76421 0.18394 0.0
C185 C 0.34166 0.76435 0.19015 0.0
C186 C 0.47048 0.86018 0.128 0.0
C187 C 0.47118 0.86013 0.2461 0.0
O188 O 0.43721 0.85174 0.23109 0.0
O189 O 0.49527 0.84794 0.23394 0.0
O190 O 0.35131 0.80302 0.18824 0.0
O191 O 0.37135 0.75541 0.18928 0.0
C192 C 0.22133 0.68007 0.21296 0.0
C193 C 0.18956 0.65825 0.22895 0.0
C194 C 0.26245 0.70743 0.20106 0.0
C195 C 0.29892 0.7325 0.19607 0.0
C196 C 0.58606 0.20277 0.37967 0.0
C197 C 0.57616 0.171 0.39565 0.0
C198 C 0.59978 0.24389 0.36779 0.0
C199 C 0.61117 0.28036 0.36282 0.0
C200 C 0.42763 0.56713 0.54627 0.0
C201 C 0.44944 0.55719 0.56228 0.0
C202 C 0.40028 0.5809 0.53435 0.0
C203 C 0.37524 0.59234 0.52936 0.0
C204 C 0.90531 0.40959 0.71292 0.0
C205 C 0.93704 0.43143 0.72893 0.0
C206 C 0.86421 0.38219 0.701 0.0
C207 C 0.82776 0.35709 0.696 0.0
C208 C 0.54053 0.88661 0.87964 0.0
C209 C 0.55045 0.91837 0.89563 0.0
C210 C 0.52679 0.8455 0.86773 0.0
C211 C 0.51539 0.80903 0.86273 0.0
C212 C 0.69827 0.52155 0.04637 0.0
C213 C 0.67645 0.53149 0.06235 0.0
C214 C 0.72568 0.50783 0.03447 0.0
C215 C 0.75078 0.49647 0.02947 0.0
C216 C 0.42822 0.88637 0.49464 0.0
C217 C 0.45002 0.91816 0.47867 0.0
C218 C 0.40083 0.84523 0.50649 0.0
C219 C 0.37574 0.80876 0.51144 0.0
C220 C 0.58611 0.40921 0.66137 0.0
C221 C 0.5761 0.43101 0.64541 0.0
C222 C 0.59995 0.38188 0.67321 0.0
C223 C 0.61142 0.35685 0.67814 0.0
C224 C 0.22156 0.56816 0.82805 0.0
C225 C 0.18979 0.55817 0.81207 0.0
C226 C 0.2627 0.58191 0.83992 0.0
C227 C 0.29916 0.59327 0.84487 0.0
C228 C 0.69849 0.20297 -0.00535 0.0
C229 C 0.67671 0.1712 -0.02134 0.0
C230 C 0.72585 0.24411 0.00654 0.0
C231 C 0.75091 0.28057 0.01151 0.0
C232 C 0.54005 0.67983 0.1612 0.0
C233 C 0.55001 0.658 0.14524 0.0
C234 C 0.52631 0.70723 0.17307 0.0
C235 C 0.51492 0.73232 0.17804 0.0
C236 C 0.90493 0.52176 0.32791 0.0
C237 C 0.93671 0.53174 0.31194 0.0
C238 C 0.86379 0.50798 0.3398 0.0
C239 C 0.82732 0.49656 0.34479 0.0
C240 C 0.17758 0.60973 0.37466 0.0
C241 C 0.16 0.6075 0.34779 0.0
C242 C 0.20136 0.61648 0.40499 0.0
C243 C 0.2226 0.6247 0.43066 0.0
C244 C 0.613 0.15909 0.54128 0.0
C245 C 0.59762 0.14149 0.51443 0.0
C246 C 0.63004 0.18289 0.5716 0.0
C247 C 0.64302 0.20413 0.59727 0.0
C248 C 0.49799 0.59395 0.70797 0.0
C249 C 0.5002 0.57855 0.68112 0.0
C250 C 0.49128 0.61103 0.73829 0.0
C251 C 0.4831 0.62406 0.76397 0.0
C252 C 0.94879 0.47981 0.87467 0.0
C253 C 0.9664 0.48209 0.8478 0.0
C254 C 0.925 0.47299 0.905 0.0
C255 C 0.90377 0.46472 0.93069 0.0
C256 C 0.51369 0.93033 0.0413 0.0
C257 C 0.52906 0.94791 0.01443 0.0
C258 C 0.49666 0.90656 0.07163 0.0
C259 C 0.48369 0.88533 0.0973 0.0
C260 C 0.62795 0.49508 0.20809 0.0
C261 C 0.6257 0.51039 0.1812 0.0
C262 C 0.63475 0.47812 0.23843 0.0
C263 C 0.64304 0.46517 0.26411 0.0
C264 C 0.49825 0.9302 0.33286 0.0
C265 C 0.50054 0.94775 0.35976 0.0
C266 C 0.49143 0.90645 0.30251 0.0
C267 C 0.48314 0.88524 0.27681 0.0
C268 C 0.61262 0.47954 0.49968 0.0
C269 C 0.59726 0.48175 0.52656 0.0
C270 C 0.62963 0.47281 0.46933 0.0
C271 C 0.64258 0.46457 0.44363 0.0
C272 C 0.17779 0.59435 0.66625 0.0
C273 C 0.16024 0.57909 0.69315 0.0
C274 C 0.20153 0.61125 0.63588 0.0
C275 C 0.22272 0.62413 0.61018 0.0
C276 C 0.62861 0.15922 0.83283 0.0
C277 C 0.62631 0.14166 0.85973 0.0
C278 C 0.63543 0.18296 0.80246 0.0
C279 C 0.6437 0.20417 0.77677 0.0
C280 C 0.51372 0.60962 -0.00051 0.0
C281 C 0.529 0.60733 0.02638 0.0
C282 C 0.49679 0.61646 -0.03086 0.0
C283 C 0.48387 0.62477 0.94346 0.0
C284 C 0.94878 0.49535 0.1662 0.0
C285 C 0.96634 0.51067 0.19308 0.0
C286 C 0.92502 0.47835 0.13586 0.0
C287 C 0.9038 0.46538 0.11018 0.0
loop_
_geom_bond_atom_site_label_1
_geom_bond_atom_site_label_2
_geom_bond_distance
_geom_bond_site_symmetry_2
_ccdc_geom_bond_type
H0 C6 0.930 . S
H1 C9 0.931 . S
H2 C11 0.931 . S
H3 C13 0.930 . S
H4 C15 0.930 . S
H5 C17 0.944 . S
C6 H0 0.930 . S
C6 C7 1.380 . S
C6 C8 1.394 . S
C7 C6 1.380 . S
C7 C11 1.382 . S
C8 C6 1.394 . S
C8 C9 1.400 . S
C9 H1 0.931 . S
C9 C8 1.400 . S
C9 C10 1.375 . S
C10 C9 1.375 . S
C10 C11 1.415 . S
C10 C12 1.501 1_455 S
C11 H2 0.931 . S
C11 C7 1.382 . S
C11 C10 1.415 . S
C12 C10 1.501 1_655 S
C12 C13 1.384 . S
C12 C17 1.408 . S
C13 H3 0.930 . S
C13 C12 1.384 . S
C13 C14 1.389 . S
C14 C13 1.389 . S
C14 C15 1.405 . S
C15 H4 0.930 . S
C15 C14 1.405 . S
C15 C16 1.364 . S
C16 C15 1.364 . S
C16 C17 1.400 . S
C17 H5 0.944 . S
C17 C12 1.408 . S
C17 C16 1.400 . S
H18 C24 0.930 . S
H19 C27 0.931 . S
H20 C29 0.931 . S
H21 C31 0.930 . S
H22 C33 0.930 . S
H23 C35 0.931 . S
C24 H18 0.930 . S
C24 C25 1.380 . S
C24 C26 1.394 . S
C25 C24 1.380 . S
C25 C29 1.382 . S
C26 C24 1.394 . S
C26 C27 1.400 . S
C27 H19 0.931 . S
C27 C26 1.400 . S
C27 C28 1.375 . S
C28 C27 1.375 . S
C28 C29 1.415 . S
C28 C30 1.501 1_545 S
C29 H20 0.931 . S
C29 C25 1.382 . S
C29 C28 1.415 . S
C30 C28 1.501 1_565 S
C30 C31 1.384 . S
C30 C35 1.408 . S
C31 H21 0.930 . S
C31 C30 1.384 . S
C31 C32 1.389 . S
C32 C31 1.389 . S
C32 C33 1.405 . S
C33 H22 0.930 . S
C33 C32 1.405 . S
C33 C34 1.364 . S
C34 C33 1.364 . S
C34 C35 1.400 . S
C35 H23 0.931 . S
C35 C30 1.408 . S
C35 C34 1.400 . S
H36 C42 0.930 . S
H37 C45 0.931 . S
H38 C47 0.931 . S
H39 C49 0.930 . S
H40 C51 0.930 . S
H41 C53 0.931 . S
C42 H36 0.930 . S
C42 C43 1.380 . S
C42 C44 1.394 . S
C43 C42 1.380 . S
C43 C47 1.382 . S
C44 C42 1.394 . S
C44 C45 1.400 . S
C45 H37 0.931 . S
C45 C44 1.400 . S
C45 C46 1.375 . S
C46 C45 1.375 . S
C46 C47 1.415 . S
C46 C48 1.501 . S
C47 H38 0.931 . S
C47 C43 1.382 . S
C47 C46 1.415 . S
C48 C46 1.501 . S
C48 C49 1.384 . S
C48 C53 1.408 . S
C49 H39 0.930 . S
C49 C48 1.384 . S
C49 C50 1.389 . S
C50 C49 1.389 . S
C50 C51 1.405 . S
C51 H40 0.930 . S
C51 C50 1.405 . S
C51 C52 1.364 . S
C52 C51 1.364 . S
C52 C53 1.400 . S
C53 H41 0.931 . S
C53 C48 1.408 . S
C53 C52 1.400 . S
H54 C60 0.930 . S
H55 C63 0.931 . S
H56 C65 0.931 . S
H57 C67 0.930 . S
H58 C69 0.930 . S
H59 C71 0.942 . S
C60 H54 0.930 . S
C60 C61 1.380 . S
C60 C62 1.394 . S
C61 C60 1.380 . S
C61 C65 1.382 . S
C62 C60 1.394 . S
C62 C63 1.400 . S
C63 H55 0.931 . S
C63 C62 1.400 . S
C63 C64 1.375 . S
C64 C63 1.375 . S
C64 C65 1.415 . S
C64 C66 1.501 1_455 S
C65 H56 0.931 . S
C65 C61 1.382 . S
C65 C64 1.415 . S
C66 C64 1.501 1_655 S
C66 C67 1.384 . S
C66 C71 1.408 . S
C67 H57 0.930 . S
C67 C66 1.384 . S
C67 C68 1.389 . S
C68 C67 1.389 . S
C68 C69 1.405 . S
C69 H58 0.930 . S
C69 C68 1.405 . S
C69 C70 1.364 . S
C70 C69 1.364 . S
C70 C71 1.400 . S
C71 H59 0.942 . S
C71 C66 1.408 . S
C71 C70 1.400 . S
H72 C78 0.930 . S
H73 C81 0.931 . S
H74 C83 0.931 . S
H75 C85 0.930 . S
H76 C87 0.930 . S
H77 C89 0.931 . S
C78 H72 0.930 . S
C78 C79 1.380 . S
C78 C80 1.394 1_554 S
C79 C78 1.380 . S
C79 C83 1.382 . S
C80 C78 1.394 1_556 S
C80 C81 1.400 . S
C81 H73 0.931 . S
C81 C80 1.400 . S
C81 C82 1.375 . S
C82 C81 1.375 . S
C82 C83 1.415 1_556 S
C82 C84 1.501 1_565 S
C83 H74 0.931 . S
C83 C79 1.382 . S
C83 C82 1.415 1_554 S
C84 C82 1.501 1_545 S
C84 C85 1.384 1_556 S
C84 C89 1.408 . S
C85 H75 0.930 . S
C85 C84 1.384 1_554 S
C85 C86 1.389 . S
C86 C85 1.389 . S
C86 C87 1.405 1_554 S
C87 H76 0.930 . S
C87 C86 1.405 1_556 S
C87 C88 1.364 . S
C88 C87 1.364 . S
C88 C89 1.400 . S
C89 H77 0.931 . S
C89 C84 1.408 . S
C89 C88 1.400 . S
H90 C96 0.930 . S
H91 C99 0.931 . S
H92 C101 0.931 . S
H93 C103 0.930 . S
H94 C105 0.930 . S
H95 C107 0.931 . S
C96 H90 0.930 . S
C96 C97 1.380 . S
C96 C98 1.394 . S
C97 C96 1.380 . S
C97 C101 1.382 . S
C98 C96 1.394 . S
C98 C99 1.400 . S
C99 H91 0.931 . S
C99 C98 1.400 . S
C99 C100 1.375 . S
C100 C99 1.375 . S
C100 C101 1.415 . S
C100 C102 1.501 . S
C101 H92 0.931 . S
C101 C97 1.382 . S
C101 C100 1.415 . S
C102 C100 1.501 . S
C102 C103 1.384 . S
C102 C107 1.408 . S
C103 H93 0.930 . S
C103 C102 1.384 . S
C103 C104 1.389 . S
C104 C103 1.389 . S
C104 C105 1.405 . S
C105 H94 0.930 . S
C105 C104 1.405 . S
C105 C106 1.364 . S
C106 C105 1.364 . S
C106 C107 1.400 . S
C107 H95 0.931 . S
C107 C102 1.408 . S
C107 C106 1.400 . S
O108 Cd109 2.223 . S
O108 C116 1.315 . S
Cd109 O108 2.223 . S
Cd109 O112 2.297 . S
Cd109 O113 2.439 . S
Cd109 O119 2.240 . S
Cd110 O111 2.240 . S
Cd110 O118 2.223 . S
Cd110 O120 2.297 . S
Cd110 O121 2.439 . S
O111 Cd110 2.240 . S
O111 C116 1.279 . S
O112 Cd109 2.297 . S
O112 C114 1.247 . S
O113 Cd109 2.439 . S
O113 C114 1.208 . S
C114 O112 1.247 . S
C114 O113 1.208 . S
C115 O120 1.247 . S
C115 O121 1.208 . S
C116 O108 1.315 . S
C116 O111 1.279 . S
C117 O118 1.315 . S
C117 O119 1.279 . S
O118 Cd110 2.223 . S
O118 C117 1.315 . S
O119 Cd109 2.240 . S
O119 C117 1.279 . S
O120 Cd110 2.297 . S
O120 C115 1.247 . S
O121 Cd110 2.439 . S
O121 C115 1.208 . S
O122 Cd123 2.223 . S
O122 C130 1.315 . S
Cd123 O122 2.223 . S
Cd123 O126 2.297 . S
Cd123 O127 2.439 . S
Cd123 O133 2.240 . S
Cd124 O125 2.240 . S
Cd124 O132 2.223 . S
Cd124 O134 2.297 . S
Cd124 O135 2.439 . S
O125 Cd124 2.240 . S
O125 C130 1.279 . S
O126 Cd123 2.297 . S
O126 C128 1.247 . S
O127 Cd123 2.439 . S
O127 C128 1.208 . S
C128 O126 1.247 . S
C128 O127 1.208 . S
C129 O134 1.247 . S
C129 O135 1.208 . S
C130 O122 1.315 . S
C130 O125 1.279 . S
C131 O132 1.315 . S
C131 O133 1.279 . S
O132 Cd124 2.223 . S
O132 C131 1.315 . S
O133 Cd123 2.240 . S
O133 C131 1.279 . S
O134 Cd124 2.297 . S
O134 C129 1.247 . S
O135 Cd124 2.439 . S
O135 C129 1.208 . S
O136 Cd137 2.223 . S
O136 C144 1.315 . S
Cd137 O136 2.223 . S
Cd137 O140 2.297 . S
Cd137 O141 2.439 . S
Cd137 O147 2.240 . S
Cd138 O139 2.240 . S
Cd138 O146 2.223 . S
Cd138 O148 2.297 . S
Cd138 O149 2.439 . S
O139 Cd138 2.240 . S
O139 C144 1.279 . S
O140 Cd137 2.297 . S
O140 C142 1.247 . S
O141 Cd137 2.439 . S
O141 C142 1.208 . S
C142 O140 1.247 . S
C142 O141 1.208 . S
C143 O148 1.247 . S
C143 O149 1.208 . S
C144 O136 1.315 . S
C144 O139 1.279 . S
C145 O146 1.315 . S
C145 O147 1.279 . S
O146 Cd138 2.223 . S
O146 C145 1.315 . S
O147 Cd137 2.240 . S
O147 C145 1.279 . S
O148 Cd138 2.297 . S
O148 C143 1.247 . S
O149 Cd138 2.439 . S
O149 C143 1.208 . S
O150 Cd151 2.223 . S
O150 C158 1.315 . S
Cd151 O150 2.223 . S
Cd151 O154 2.297 . S
Cd151 O155 2.439 . S
Cd151 O161 2.240 . S
Cd152 O153 2.240 . S
Cd152 O160 2.223 . S
Cd152 O162 2.297 . S
Cd152 O163 2.439 . S
O153 Cd152 2.240 . S
O153 C158 1.279 . S
O154 Cd151 2.297 . S
O154 C156 1.247 . S
O155 Cd151 2.439 . S
O155 C156 1.208 . S
C156 O154 1.247 . S
C156 O155 1.208 . S
C157 O162 1.247 . S
C157 O163 1.208 . S
C158 O150 1.315 . S
C158 O153 1.279 . S
C159 O160 1.315 . S
C159 O161 1.279 . S
O160 Cd152 2.223 . S
O160 C159 1.315 . S
O161 Cd151 2.240 . S
O161 C159 1.279 . S
O162 Cd152 2.297 . S
O162 C157 1.247 . S
O163 Cd152 2.439 . S
O163 C157 1.208 . S
O164 Cd165 2.223 . S
O164 C172 1.315 . S
Cd165 O164 2.223 . S
Cd165 O168 2.297 . S
Cd165 O169 2.439 . S
Cd165 O175 2.240 . S
Cd166 O167 2.240 . S
Cd166 O174 2.223 . S
Cd166 O176 2.297 . S
Cd166 O177 2.439 . S
O167 Cd166 2.240 . S
O167 C172 1.279 . S
O168 Cd165 2.297 . S
O168 C170 1.247 . S
O169 Cd165 2.439 . S
O169 C170 1.208 . S
C170 O168 1.247 . S
C170 O169 1.208 . S
C171 O176 1.247 . S
C171 O177 1.208 . S
C172 O164 1.315 . S
C172 O167 1.279 . S
C173 O174 1.315 . S
C173 O175 1.279 . S
O174 Cd166 2.223 . S
O174 C173 1.315 . S
O175 Cd165 2.240 . S
O175 C173 1.279 . S
O176 Cd166 2.297 . S
O176 C171 1.247 . S
O177 Cd166 2.439 . S
O177 C171 1.208 . S
O178 Cd179 2.223 . S
O178 C186 1.315 . S
Cd179 O178 2.223 . S
Cd179 O182 2.297 . S
Cd179 O183 2.439 . S
Cd179 O189 2.240 . S
Cd180 O181 2.240 . S
Cd180 O188 2.223 . S
Cd180 O190 2.297 . S
Cd180 O191 2.439 . S
O181 Cd180 2.240 . S
O181 C186 1.279 . S
O182 Cd179 2.297 . S
O182 C184 1.247 . S
O183 Cd179 2.439 . S
O183 C184 1.208 . S
C184 O182 1.247 . S
C184 O183 1.208 . S
C185 O190 1.247 . S
C185 O191 1.208 . S
C186 O178 1.315 . S
C186 O181 1.279 . S
C187 O188 1.315 . S
C187 O189 1.279 . S
O188 Cd180 2.223 . S
O188 C187 1.315 . S
O189 Cd179 2.240 . S
O189 C187 1.279 . S
O190 Cd180 2.297 . S
O190 C185 1.247 . S
O191 Cd180 2.439 . S
O191 C185 1.208 . S
C192 C193 1.170 . S
C192 C194 1.380 . S
C193 C192 1.170 . S
C194 C192 1.380 . S
C194 C195 1.170 . S
C195 C194 1.170 . S
C196 C197 1.170 . S
C196 C198 1.380 . S
C197 C196 1.170 . S
C198 C196 1.380 . S
C198 C199 1.170 . S
C199 C198 1.170 . S
C200 C201 1.170 . S
C200 C202 1.380 . S
C201 C200 1.170 . S
C202 C200 1.380 . S
C202 C203 1.170 . S
C203 C202 1.170 . S
C204 C205 1.170 . S
C204 C206 1.380 . S
C205 C204 1.170 . S
C206 C204 1.380 . S
C206 C207 1.170 . S
C207 C206 1.170 . S
C208 C209 1.170 . S
C208 C210 1.380 . S
C209 C208 1.170 . S
C210 C208 1.380 . S
C210 C211 1.170 . S
C211 C210 1.170 . S
C212 C213 1.170 . S
C212 C214 1.380 . S
C213 C212 1.170 . S
C214 C212 1.380 . S
C214 C215 1.170 . S
C215 C214 1.170 . S
C216 C217 1.170 . S
C216 C218 1.380 . S
C217 C216 1.170 . S
C218 C216 1.380 . S
C218 C219 1.170 . S
C219 C218 1.170 . S
C220 C221 1.170 . S
C220 C222 1.380 . S
C221 C220 1.170 . S
C222 C220 1.380 . S
C222 C223 1.170 . S
C223 C222 1.170 . S
C224 C225 1.170 . S
C224 C226 1.380 . S
C225 C224 1.170 . S
C226 C224 1.380 . S
C226 C227 1.170 . S
C227 C226 1.170 . S
C228 C229 1.170 . S
C228 C230 1.380 . S
C229 C228 1.170 . S
C230 C228 1.380 . S
C230 C231 1.170 . S
C231 C230 1.170 . S
C232 C233 1.170 . S
C232 C234 1.380 . S
C233 C232 1.170 . S
C234 C232 1.380 . S
C234 C235 1.170 . S
C235 C234 1.170 . S
C236 C237 1.170 . S
C236 C238 1.380 . S
C237 C236 1.170 . S
C238 C236 1.380 . S
C238 C239 1.170 . S
C239 C238 1.170 . S
C240 C241 1.170 . S
C240 C242 1.380 . S
C241 C240 1.170 . S
C242 C240 1.380 . S
C242 C243 1.170 . S
C243 C242 1.170 . S
C244 C245 1.170 . S
C244 C246 1.380 . S
C245 C244 1.170 . S
C246 C244 1.380 . S
C246 C247 1.170 . S
C247 C246 1.170 . S
C248 C249 1.170 . S
C248 C250 1.380 . S
C249 C248 1.170 . S
C250 C248 1.380 . S
C250 C251 1.170 . S
C251 C250 1.170 . S
C252 C253 1.170 . S
C252 C254 1.380 . S
C253 C252 1.170 . S
C254 C252 1.380 . S
C254 C255 1.170 . S
C255 C254 1.170 . S
C256 C257 1.170 . S
C256 C258 1.380 . S
C257 C256 1.170 . S
C258 C256 1.380 . S
C258 C259 1.170 . S
C259 C258 1.170 . S
C260 C261 1.170 . S
C260 C262 1.380 . S
C261 C260 1.170 . S
C262 C260 1.380 . S
C262 C263 1.170 . S
C263 C262 1.170 . S
C264 C265 1.170 . S
C264 C266 1.380 . S
C265 C264 1.170 . S
C266 C264 1.380 . S
C266 C267 1.170 . S
C267 C266 1.170 . S
C268 C269 1.170 . S
C268 C270 1.380 . S
C269 C268 1.170 . S
C270 C268 1.380 . S
C270 C271 1.170 . S
C271 C270 1.170 . S
C272 C273 1.170 . S
C272 C274 1.380 . S
C273 C272 1.170 . S
C274 C272 1.380 . S
C274 C275 1.170 . S
C275 C274 1.170 . S
C276 C277 1.170 . S
C276 C278 1.380 . S
C277 C276 1.170 . S
C278 C276 1.380 . S
C278 C279 1.170 . S
C279 C278 1.170 . S
C280 C281 1.170 . S
C280 C282 1.380 . S
C281 C280 1.170 . S
C282 C280 1.380 . S
C282 C283 1.170 1_554 S
C283 C282 1.170 1_556 S
C284 C285 1.170 . S
C284 C286 1.380 . S
C285 C284 1.170 . S
C286 C284 1.380 . S
C286 C287 1.170 . S
C287 C286 1.170 . S
C195 C185 1.458 . S
C193 C8 1.438 . S
C197 C26 1.441 . S
C199 C114 1.460 . S
C201 C50 1.444 . S
C203 C128 1.467 . S
C205 C68 1.440 . S
C207 C142 1.460 . S
C211 C156 1.480 . S
C209 C80 1.431 . S
C213 C104 1.431 . S
C215 C171 1.470 . S
C217 C32 1.475 . S
C219 C129 1.490 . S
C221 C44 1.467 . S
C223 C143 1.462 . S
C225 C62 1.452 . S
C227 C157 1.490 . S
C231 C170 1.477 . S
C229 C86 1.473 . S
C235 C184 1.462 . S
C233 C98 1.436 . S
C239 C115 1.492 . S
C237 C14 1.444 . S
C241 C7 1.491 . S
C243 C131 1.510 . S
C245 C25 1.467 . S
C247 C145 1.530 . S
C251 C159 1.511 . S
C249 C52 1.480 . S
C253 C70 1.510 . S
C255 C172 1.511 1_556 S
C259 C186 1.511 . S
C257 C79 1.504 . S
C263 C117 1.528 . S
C261 C106 1.485 . S
C267 C187 1.505 . S
C265 C34 1.505 . S
C269 C43 1.471 . S
C271 C116 1.518 . S
C275 C130 1.518 . S
C273 C61 1.475 . S
C277 C88 1.499 . S
C279 C144 1.504 . S
C281 C97 1.496 . S
C283 C158 1.520 . S
C285 C16 1.508 . S
C287 C173 1.509 . S
