# Generated by pormake.
# Topology pyr, (3,6)-cn, num edge types: 1
# Building blocks:
#     Node 0, Type 0, BuildingBlock: QEWDON_clean_linker_0, # of connection points: 3
#     Node 1, Type 0, BuildingBlock: QEWDON_clean_linker_0, # of connection points: 3
#     Node 2, Type 0, BuildingBlock: QEWDON_clean_linker_0, # of connection points: 3
#     Node 3, Type 0, BuildingBlock: QEWDON_clean_linker_0, # of connection points: 3
#     Node 4, Type 0, BuildingBlock: QEWDON_clean_linker_0, # of connection points: 3
#     Node 5, Type 0, BuildingBlock: QEWDON_clean_linker_0, # of connection points: 3
#     Node 6, Type 0, BuildingBlock: QEWDON_clean_linker_0, # of connection points: 3
#     Node 7, Type 0, BuildingBlock: QEWDON_clean_linker_0, # of connection points: 3
#     Node 8, Type 1, BuildingBlock: MIFKUJ_clean_sbu_0, # of connection points: 6
#     Node 9, Type 1, BuildingBlock: MIFKUJ_clean_sbu_0, # of connection points: 6
#     Node 10, Type 1, BuildingBlock: MIFKUJ_clean_sbu_0, # of connection points: 6
#     Node 11, Type 1, BuildingBlock: MIFKUJ_clean_sbu_0, # of connection points: 6
#     Edge 12, Type (0, 1), BuildingBlock: MIFKUJ_clean_linker_0, # of connection points: 2
#     Edge 13, Type (0, 1), BuildingBlock: MIFKUJ_clean_linker_0, # of connection points: 2
#     Edge 14, Type (0, 1), BuildingBlock: MIFKUJ_clean_linker_0, # of connection points: 2
#     Edge 15, Type (0, 1), BuildingBlock: MIFKUJ_clean_linker_0, # of connection points: 2
#     Edge 16, Type (0, 1), BuildingBlock: MIFKUJ_clean_linker_0, # of connection points: 2
#     Edge 17, Type (0, 1), BuildingBlock: MIFKUJ_clean_linker_0, # of connection points: 2
#     Edge 18, Type (0, 1), BuildingBlock: MIFKUJ_clean_linker_0, # of connection points: 2
#     Edge 19, Type (0, 1), BuildingBlock: MIFKUJ_clean_linker_0, # of connection points: 2
#     Edge 20, Type (0, 1), BuildingBlock: MIFKUJ_clean_linker_0, # of connection points: 2
#     Edge 21, Type (0, 1), BuildingBlock: MIFKUJ_clean_linker_0, # of connection points: 2
#     Edge 22, Type (0, 1), BuildingBlock: MIFKUJ_clean_linker_0, # of connection points: 2
#     Edge 23, Type (0, 1), BuildingBlock: MIFKUJ_clean_linker_0, # of connection points: 2
#     Edge 24, Type (0, 1), BuildingBlock: MIFKUJ_clean_linker_0, # of connection points: 2
#     Edge 25, Type (0, 1), BuildingBlock: MIFKUJ_clean_linker_0, # of connection points: 2
#     Edge 26, Type (0, 1), BuildingBlock: MIFKUJ_clean_linker_0, # of connection points: 2
#     Edge 27, Type (0, 1), BuildingBlock: MIFKUJ_clean_linker_0, # of connection points: 2
#     Edge 28, Type (0, 1), BuildingBlock: MIFKUJ_clean_linker_0, # of connection points: 2
#     Edge 29, Type (0, 1), BuildingBlock: MIFKUJ_clean_linker_0, # of connection points: 2
#     Edge 30, Type (0, 1), BuildingBlock: MIFKUJ_clean_linker_0, # of connection points: 2
#     Edge 31, Type (0, 1), BuildingBlock: MIFKUJ_clean_linker_0, # of connection points: 2
#     Edge 32, Type (0, 1), BuildingBlock: MIFKUJ_clean_linker_0, # of connection points: 2
#     Edge 33, Type (0, 1), BuildingBlock: MIFKUJ_clean_linker_0, # of connection points: 2
#     Edge 34, Type (0, 1), BuildingBlock: MIFKUJ_clean_linker_0, # of connection points: 2
#     Edge 35, Type (0, 1), BuildingBlock: MIFKUJ_clean_linker_0, # of connection points: 2
# Relax obj value: 0.095
# Max RMSD: 0.268
# Mean RMSD: 0.180
data_MOF--net-pyr--node1-MIFKUJ_clean_sbu_0--node2-QEWDON_clean_linker_0--edge1-MIFKUJ_clean_linker_0
_symmetry_space_group_name_H-M    P1
_symmetry_Int_Tables_number       1
_symmetry_cell_setting            triclinic
loop_
_symmetry_equiv_pos_as_xyz
'x, y, z'
_cell_length_a     49.865204
_cell_length_b     44.867698
_cell_length_c     52.068948
_cell_angle_alpha  86.548679
_cell_angle_beta   88.247858
_cell_angle_gamma 106.75166
loop_
_atom_site_label
_atom_site_type_symbol
_atom_site_fract_x
_atom_site_fract_y
_atom_site_fract_z
_atom_type_partial_charge
H0 H 0.25694 0.26244 0.195 0.0
C1 C 0.24274 0.2499 0.21081 0.0
C2 C 0.2438 0.22025 0.2203 0.0
C3 C 0.22396 0.26408 0.22195 0.0
H4 H 0.22658 0.1824 0.24928 0.0
C5 C 0.22556 0.2049 0.24131 0.0
C6 C 0.20652 0.21872 0.25269 0.0
C7 C 0.20562 0.24823 0.24259 0.0
C8 C 0.2274 0.29751 0.21508 0.0
H9 H 0.19196 0.25976 0.25182 0.0
C10 C 0.20756 0.30782 0.20102 0.0
C11 C 0.21261 0.33996 0.19393 0.0
C12 C 0.25168 0.31941 0.22248 0.0
H13 H 0.26708 0.31189 0.23331 0.0
C14 C 0.25629 0.35112 0.21614 0.0
H15 H 0.18895 0.29097 0.19498 0.0
C16 C 0.237 0.36135 0.20196 0.0
H17 H 0.24115 0.38618 0.1973 0.0
H18 H 0.27499 0.36784 0.22211 0.0
H19 H 0.30996 0.88242 0.76538 0.0
C20 C 0.323 0.87217 0.75387 0.0
C21 C 0.34885 0.87032 0.76285 0.0
C22 C 0.3127 0.85822 0.7313 0.0
H23 H 0.38453 0.85347 0.75533 0.0
C24 C 0.36459 0.85502 0.74858 0.0
C25 C 0.35466 0.84122 0.72591 0.0
C26 C 0.32877 0.84312 0.71726 0.0
C27 C 0.28285 0.85285 0.7259 0.0
H28 H 0.32024 0.83111 0.70054 0.0
C29 C 0.27297 0.87537 0.71226 0.0
C30 C 0.24403 0.86924 0.7084 0.0
C31 C 0.26389 0.82428 0.73513 0.0
H32 H 0.27119 0.80673 0.74558 0.0
C33 C 0.23539 0.81817 0.7312 0.0
H34 H 0.28753 0.89747 0.70505 0.0
C35 C 0.22548 0.84047 0.71803 0.0
H36 H 0.20321 0.8351 0.71512 0.0
H37 H 0.2209 0.79608 0.73843 0.0
H38 H 0.70717 0.41937 0.84334 0.0
C39 C 0.70102 0.39572 0.85214 0.0
C40 C 0.72052 0.38448 0.86567 0.0
C41 C 0.67321 0.37695 0.85104 0.0
H42 H 0.72632 0.34582 0.88953 0.0
C43 C 0.71193 0.35424 0.87796 0.0
C44 C 0.68438 0.33529 0.87652 0.0
C45 C 0.66526 0.34653 0.86277 0.0
C46 C 0.65161 0.38968 0.83982 0.0
H47 H 0.64372 0.33207 0.86228 0.0
C48 C 0.65565 0.40462 0.81491 0.0
C49 C 0.63424 0.41516 0.8041 0.0
C50 C 0.62636 0.38622 0.85409 0.0
H51 H 0.62294 0.37512 0.87346 0.0
C52 C 0.60535 0.39719 0.8436 0.0
H53 H 0.67492 0.40701 0.80368 0.0
C54 C 0.60916 0.41147 0.81873 0.0
H55 H 0.59254 0.41985 0.81096 0.0
H56 H 0.58601 0.39452 0.85474 0.0
H57 H 0.84555 0.76403 0.27333 0.0
C58 C 0.83025 0.7505 0.28799 0.0
C59 C 0.83327 0.75745 0.31382 0.0
C60 C 0.80686 0.7268 0.28108 0.0
H61 H 0.815 0.74744 0.35237 0.0
C62 C 0.813 0.74078 0.33268 0.0
C63 C 0.78949 0.71718 0.32611 0.0
C64 C 0.78677 0.7101 0.30023 0.0
C65 C 0.80236 0.72033 0.25378 0.0
H66 H 0.7689 0.69167 0.29487 0.0
C67 C 0.82351 0.71454 0.23813 0.0
C68 C 0.81863 0.70719 0.21244 0.0
C69 C 0.77641 0.71921 0.24346 0.0
H70 H 0.75986 0.72376 0.25514 0.0
C71 C 0.77161 0.71236 0.21795 0.0
H72 H 0.84353 0.71534 0.24606 0.0
C73 C 0.79249 0.70627 0.20253 0.0
H74 H 0.78794 0.70018 0.18299 0.0
H75 H 0.75154 0.71146 0.21017 0.0
H76 H 0.79802 0.82277 0.85741 0.0
C77 C 0.8085 0.83464 0.83952 0.0
C78 C 0.83553 0.83303 0.83232 0.0
C79 C 0.79432 0.85028 0.82309 0.0
H80 H 0.86894 0.84666 0.80273 0.0
C81 C 0.84836 0.84807 0.80865 0.0
C82 C 0.83461 0.86415 0.79211 0.0
C83 C 0.80756 0.86511 0.79958 0.0
C84 C 0.76418 0.84702 0.8283 0.0
H85 H 0.79621 0.8763 0.7866 0.0
C86 C 0.75439 0.85949 0.84972 0.0
C87 C 0.72539 0.85569 0.85385 0.0
C88 C 0.74488 0.83088 0.81121 0.0
H89 H 0.75196 0.82108 0.79469 0.0
C90 C 0.71632 0.82697 0.81532 0.0
H91 H 0.76917 0.87213 0.86292 0.0
C92 C 0.70661 0.83924 0.83642 0.0
H93 H 0.68433 0.8364 0.83882 0.0
H94 H 0.70164 0.81451 0.80199 0.0
H95 H 0.70923 0.21519 0.41825 0.0
C96 C 0.70245 0.21118 0.39883 0.0
C97 C 0.71771 0.19834 0.38175 0.0
C98 C 0.67786 0.21775 0.39139 0.0
H99 H 0.71908 0.18094 0.3441 0.0
C100 C 0.70807 0.1921 0.35695 0.0
C101 C 0.68286 0.19757 0.3496 0.0
C102 C 0.66819 0.21098 0.36681 0.0
C103 C 0.65959 0.22604 0.41081 0.0
H104 H 0.64844 0.21466 0.36158 0.0
C105 C 0.65667 0.25634 0.41094 0.0
C106 C 0.6379 0.26279 0.42908 0.0
C107 C 0.64407 0.20259 0.42899 0.0
H108 H 0.64608 0.17917 0.42908 0.0
C109 C 0.62551 0.20898 0.44689 0.0
H110 H 0.66866 0.27458 0.39699 0.0
C111 C 0.62233 0.23884 0.44691 0.0
H112 H 0.60793 0.24338 0.46111 0.0
H113 H 0.61351 0.19073 0.46078 0.0
H114 H 0.35645 0.71387 0.27313 0.0
C115 C 0.3373 0.70903 0.26283 0.0
C116 C 0.33327 0.73218 0.24523 0.0
C117 C 0.31674 0.67975 0.26679 0.0
H118 H 0.30686 0.74298 0.21634 0.0
C119 C 0.30922 0.72566 0.23086 0.0
C120 C 0.28911 0.69648 0.23392 0.0
C121 C 0.29255 0.67407 0.25237 0.0
C122 C 0.32026 0.65477 0.28551 0.0
H123 H 0.27613 0.65214 0.25538 0.0
C124 C 0.33431 0.66212 0.30842 0.0
C125 C 0.33626 0.63827 0.32638 0.0
C126 C 0.30895 0.62304 0.28076 0.0
H127 H 0.299 0.61623 0.26298 0.0
C128 C 0.3105 0.59946 0.29881 0.0
H129 H 0.34329 0.6862 0.31267 0.0
C130 C 0.32392 0.60697 0.32159 0.0
H131 H 0.32543 0.5883 0.33516 0.0
H132 H 0.30154 0.57524 0.29498 0.0
H133 H 0.22109 0.38406 0.77687 0.0
C134 C 0.20965 0.36639 0.76473 0.0
C135 C 0.2202 0.36495 0.73971 0.0
C136 C 0.18462 0.34463 0.77435 0.0
H137 H 0.21483 0.33934 0.70592 0.0
C138 C 0.20548 0.34136 0.72451 0.0
C139 C 0.1796 0.32012 0.73331 0.0
C140 C 0.16942 0.32211 0.7585 0.0
C141 C 0.17506 0.34411 0.80153 0.0
H142 H 0.14955 0.30645 0.76603 0.0
C143 C 0.16931 0.37026 0.81132 0.0
C144 C 0.15985 0.36922 0.83722 0.0
C145 C 0.17175 0.31708 0.81781 0.0
H146 H 0.1762 0.29676 0.81059 0.0
C147 C 0.16312 0.31622 0.84361 0.0
H148 H 0.17125 0.39084 0.79854 0.0
C149 C 0.15724 0.34206 0.85331 0.0
H150 H 0.15062 0.34075 0.87345 0.0
H151 H 0.1609 0.29541 0.85613 0.0
Zn152 Zn 0.03298 0.03608 0.53395 0.0
Zn153 Zn 0.97239 0.04842 0.50085 0.0
C154 C 0.059 0.09345 0.55438 0.0
O155 O 0.07772 0.09274 0.53629 0.0
C156 C 0.96968 0.99019 0.4767 0.0
O157 O 0.99461 0.99326 0.48563 0.0
O158 O 0.06225 0.01611 0.54732 0.0
O159 O 0.99503 0.00415 0.54088 0.0
O160 O 0.96855 0.03597 0.53957 0.0
C161 C 0.06195 0.01042 0.57161 0.0
O162 O 0.04229 0.01628 0.58611 0.0
O163 O 0.03607 0.07158 0.55674 0.0
C164 C 0.94593 0.08783 0.47091 0.0
O165 O 0.96597 0.08794 0.45391 0.0
O166 O 0.94503 0.07358 0.49298 0.0
O167 O 0.01003 0.07074 0.48229 0.0
O168 O 0.04507 0.05456 0.49749 0.0
O169 O 0.95678 0.00995 0.48171 0.0
C170 C 0.97506 0.01297 0.55041 0.0
C171 C 0.03535 0.06986 0.48062 0.0
Zn172 Zn 0.50876 0.0041 0.0336 0.0
Zn173 Zn 0.49044 0.05987 0.0943 0.0
C174 C 0.47001 0.96402 0.0022 0.0
O175 O 0.47966 0.94327 0.01472 0.0
C176 C 0.5399 0.08295 0.12347 0.0
O177 O 0.54979 0.09744 0.101 0.0
O178 O 0.54335 0.99304 0.01943 0.0
O179 O 0.51751 0.05043 0.03974 0.0
O180 O 0.51335 0.08767 0.06427 0.0
C181 C 0.54661 0.99125 0.99526 0.0
O182 O 0.52893 0.99892 0.97985 0.0
O183 O 0.47861 0.99235 0.00773 0.0
C184 C 0.4408 0.06827 0.12218 0.0
O185 O 0.44265 0.04461 0.13736 0.0
O186 O 0.45789 0.07766 0.10271 0.0
O187 O 0.48065 0.01757 0.07935 0.0
O188 O 0.49473 0.97876 0.06736 0.0
O189 O 0.51519 0.06405 0.12532 0.0
C190 C 0.52287 0.07929 0.04371 0.0
C191 C 0.48453 0.99118 0.08507 0.0
Zn192 Zn 0.52881 0.55197 0.5491 0.0
Zn193 Zn 0.51688 0.60195 0.58397 0.0
C194 C 0.55977 0.59179 0.50924 0.0
O195 O 0.53811 0.57472 0.49777 0.0
C196 C 0.48149 0.55918 0.62181 0.0
O197 O 0.50148 0.57386 0.63633 0.0
O198 O 0.53533 0.51536 0.53116 0.0
O199 O 0.53362 0.54367 0.58644 0.0
O200 O 0.55249 0.59264 0.59477 0.0
C201 C 0.56021 0.51332 0.53294 0.0
O202 O 0.57761 0.53301 0.5468 0.0
O203 O 0.56065 0.58777 0.53354 0.0
C204 C 0.49972 0.65759 0.59151 0.0
O205 O 0.49508 0.65595 0.56688 0.0
O206 O 0.51069 0.63824 0.60265 0.0
O207 O 0.51269 0.60994 0.54607 0.0
O208 O 0.49277 0.56051 0.53962 0.0
O209 O 0.48384 0.56622 0.59766 0.0
C210 C 0.55079 0.56389 0.59857 0.0
C211 C 0.49499 0.58925 0.53473 0.0
Zn212 Zn 0.01246 0.60368 0.98745 0.0
Zn213 Zn 0.03657 0.56376 0.03458 0.0
C214 C 0.98095 0.55362 0.96111 0.0
O215 O 1.00103 0.56722 0.94365 0.0
C216 C 0.0726 0.61809 0.05656 0.0
O217 O 0.04936 0.61829 0.06894 0.0
O218 O 1.00117 0.63531 0.96325 0.0
O219 O 0.00806 0.61753 0.02274 0.0
O220 O 1.00246 0.57452 0.04819 0.0
C221 C 0.97515 0.63335 0.96574 0.0
O222 O 0.9594 0.61275 0.98311 0.0
O223 O 0.98209 0.56388 0.98339 0.0
C224 C 0.06741 0.52359 0.05112 0.0
O225 O 0.08306 0.54095 0.03188 0.0
O226 O 0.04372 0.52777 0.05665 0.0
O227 O 0.03598 0.55108 0.99839 0.0
O228 O 0.04936 0.59671 0.97616 0.0
O229 O 0.07161 0.59884 0.03942 0.0
C230 C 0.99732 0.60035 0.04293 0.0
C231 C 0.0503 0.56872 0.97979 0.0
H232 H 0.15066 0.21126 0.26309 0.0
H233 H 0.12219 0.18645 0.30196 0.0
H234 H 0.19456 0.16737 0.33458 0.0
H235 H 0.22285 0.19143 0.29551 0.0
H236 H 0.15179 0.11894 0.34464 0.0
H237 H 0.16776 0.22824 0.35349 0.0
H238 H 0.16791 0.282 0.34024 0.0
H239 H 0.07846 0.25137 0.33508 0.0
H240 H 0.07782 0.19734 0.34797 0.0
H241 H 0.09216 0.08035 0.47264 0.0
H242 H 0.12181 0.10646 0.43482 0.0
H243 H 0.04975 0.1221 0.39894 0.0
H244 H 0.02014 0.09672 0.43684 0.0
H245 H 0.0932 0.17275 0.39128 0.0
H246 H 0.07831 0.06271 0.38208 0.0
H247 H 0.07914 0.00961 0.3965 0.0
H248 H 0.16822 0.04293 0.40371 0.0
H249 H 0.16784 0.0963 0.38962 0.0
C250 C 0.16048 0.20182 0.27859 0.0
C251 C 0.18899 0.20329 0.27618 0.0
C252 C 0.14422 0.18772 0.30088 0.0
C253 C 0.15624 0.17537 0.32152 0.0
C254 C 0.18469 0.17662 0.31901 0.0
C255 C 0.20086 0.19036 0.29661 0.0
C256 C 0.13921 0.16097 0.34563 0.0
C257 C 0.1393 0.13096 0.35498 0.0
C258 C 0.12246 0.17624 0.3591 0.0
C259 C 0.12278 0.20872 0.35148 0.0
C260 C 0.14815 0.23295 0.34937 0.0
C261 C 0.14831 0.26346 0.34194 0.0
C262 C 0.12322 0.27008 0.33677 0.0
C263 C 0.09788 0.24621 0.33907 0.0
C264 C 0.0976 0.21564 0.34645 0.0
C265 C 0.08259 0.08936 0.45673 0.0
C266 C 0.05366 0.08626 0.45785 0.0
C267 C 0.09959 0.10421 0.43503 0.0
C268 C 0.08801 0.11592 0.41377 0.0
C269 C 0.05924 0.11329 0.41503 0.0
C270 C 0.04228 0.09867 0.43677 0.0
C271 C 0.10571 0.13074 0.39015 0.0
C272 C 0.10574 0.16081 0.38091 0.0
C273 C 0.12273 0.11564 0.3769 0.0
C274 C 0.12301 0.0835 0.38499 0.0
C275 C 0.09804 0.05872 0.38686 0.0
C276 C 0.09844 0.02858 0.39497 0.0
C277 C 0.12371 0.02291 0.40107 0.0
C278 C 0.14866 0.04736 0.39899 0.0
C279 C 0.14837 0.07754 0.39092 0.0
H280 H 0.12397 0.99957 0.40736 0.0
H281 H 0.12339 0.29373 0.33103 0.0
H282 H 0.36909 0.83996 0.80111 0.0
H283 H 0.38545 0.85854 0.8426 0.0
H284 H 0.36633 0.94489 0.82386 0.0
H285 H 0.35006 0.92641 0.78194 0.0
H286 H 0.41904 0.95361 0.84439 0.0
H287 H 0.32427 0.89322 0.86586 0.0
H288 H 0.28286 0.84702 0.86685 0.0
H289 H 0.32779 0.79211 0.90759 0.0
H290 H 0.36965 0.83788 0.90651 0.0
H291 H 0.4477 0.00124 0.97095 0.0
H292 H 0.42266 0.98756 0.93165 0.0
H293 H 0.42872 0.89371 0.94283 0.0
H294 H 0.45309 0.90695 0.98236 0.0
H295 H 0.37889 0.89245 0.92629 0.0
H296 H 0.4745 0.94991 0.90121 0.0
H297 H 0.51689 0.99501 0.90019 0.0
H298 H 0.47161 0.05411 0.86591 0.0
H299 H 0.4288 0.0094 0.86711 0.0
C300 C 0.36851 0.86299 0.80572 0.0
C301 C 0.35842 0.88181 0.78819 0.0
C302 C 0.37765 0.87348 0.82954 0.0
C303 C 0.3769 0.903 0.83642 0.0
C304 C 0.36701 0.92199 0.81894 0.0
C305 C 0.3576 0.91137 0.7951 0.0
C306 C 0.38687 0.91392 0.86179 0.0
C307 C 0.40992 0.94061 0.86235 0.0
C308 C 0.37536 0.89655 0.88517 0.0
C309 C 0.35019 0.86896 0.88592 0.0
C310 C 0.32541 0.87124 0.87485 0.0
C311 C 0.30184 0.84514 0.87546 0.0
C312 C 0.30271 0.81664 0.88723 0.0
C313 C 0.32715 0.8142 0.89846 0.0
C314 C 0.3508 0.84023 0.89788 0.0
C315 C 0.44341 0.97759 0.9652 0.0
C316 C 0.45256 0.95525 0.97974 0.0
C317 C 0.42922 0.96984 0.94264 0.0
C318 C 0.42419 0.93973 0.93401 0.0
C319 C 0.43238 0.91711 0.94903 0.0
C320 C 0.4464 0.92477 0.97164 0.0
C321 C 0.41137 0.93189 0.90892 0.0
C322 C 0.3878 0.90571 0.90838 0.0
C323 C 0.42257 0.94958 0.88554 0.0
C324 C 0.44837 0.97639 0.8845 0.0
C325 C 0.47353 0.97256 0.89361 0.0
C326 C 0.49764 0.99805 0.89299 0.0
C327 C 0.49692 0.02743 0.88305 0.0
C328 C 0.47212 0.03135 0.87365 0.0
C329 C 0.44793 0.00595 0.87429 0.0
H330 H 0.51561 0.04713 0.88258 0.0
H331 H 0.28443 0.79646 0.88769 0.0
H332 H 0.59673 0.40172 0.76681 0.0
H333 H 0.5986 0.43006 0.72518 0.0
H334 H 0.68105 0.48941 0.73924 0.0
H335 H 0.6789 0.4613 0.7816 0.0
H336 H 0.64693 0.52296 0.72622 0.0
H337 H 0.67258 0.44135 0.68894 0.0
H338 H 0.67179 0.38733 0.68168 0.0
H339 H 0.58741 0.36795 0.6572 0.0
H340 H 0.58749 0.42167 0.66468 0.0
H341 H 0.60366 0.59482 0.61247 0.0
H342 H 0.63352 0.57363 0.64063 0.0
H343 H 0.56621 0.48791 0.65462 0.0
H344 H 0.53714 0.50834 0.62601 0.0
H345 H 0.61321 0.47501 0.64545 0.0
H346 H 0.58417 0.54987 0.69813 0.0
H347 H 0.58356 0.60315 0.70688 0.0
H348 H 0.67362 0.63386 0.70277 0.0
H349 H 0.67468 0.58079 0.69376 0.0
C350 C 0.61541 0.42056 0.7609 0.0
C351 C 0.6375 0.42962 0.77749 0.0
C352 C 0.61665 0.43648 0.73694 0.0
C353 C 0.64014 0.46163 0.72894 0.0
C354 C 0.66285 0.46991 0.74499 0.0
C355 C 0.66162 0.45384 0.76909 0.0
C356 C 0.63879 0.48134 0.70547 0.0
C357 C 0.64037 0.51272 0.70825 0.0
C358 C 0.6303 0.46806 0.68202 0.0
C359 C 0.63009 0.43564 0.67738 0.0
C360 C 0.6538 0.42554 0.68213 0.0
C361 C 0.65347 0.39495 0.67796 0.0
C362 C 0.62957 0.37423 0.66897 0.0
C363 C 0.60594 0.38405 0.66411 0.0
C364 C 0.60614 0.4146 0.66826 0.0
C365 C 0.59535 0.57157 0.62179 0.0
C366 C 0.56819 0.55315 0.61715 0.0
C367 C 0.61238 0.55947 0.63776 0.0
C368 C 0.60213 0.52914 0.64968 0.0
C369 C 0.57476 0.51118 0.64536 0.0
C370 C 0.55807 0.52296 0.62916 0.0
C371 C 0.61901 0.51552 0.66721 0.0
C372 C 0.62071 0.48547 0.66311 0.0
C373 C 0.63025 0.52988 0.68951 0.0
C374 C 0.6295 0.56159 0.69497 0.0
C375 C 0.60381 0.56807 0.69895 0.0
C376 C 0.60339 0.59819 0.70397 0.0
C377 C 0.62854 0.6219 0.70529 0.0
C378 C 0.65416 0.6155 0.70167 0.0
C379 C 0.65469 0.58543 0.69662 0.0
H380 H 0.62817 0.64521 0.70918 0.0
H381 H 0.62937 0.35056 0.66576 0.0
H382 H 0.83355 0.72546 0.16173 0.0
H383 H 0.86567 0.70832 0.13385 0.0
H384 H 0.88468 0.65414 0.19828 0.0
H385 H 0.8523 0.6709 0.22631 0.0
H386 H 0.93173 0.6858 0.16769 0.0
H387 H 0.83851 0.61892 0.15636 0.0
H388 H 0.78858 0.60713 0.14668 0.0
H389 H 0.8114 0.65367 0.07127 0.0
H390 H 0.86146 0.66616 0.08065 0.0
H391 H 0.98654 0.58396 0.09458 0.0
H392 H 0.95824 0.60427 0.12448 0.0
H393 H 0.94081 0.6626 0.06212 0.0
H394 H 0.96926 0.64288 0.03229 0.0
H395 H 0.8933 0.62854 0.09204 0.0
H396 H 0.9848 0.69568 0.10143 0.0
H397 H 0.03518 0.71072 0.10952 0.0
H398 H 0.01668 0.66788 0.1865 0.0
H399 H 0.96615 0.65176 0.17862 0.0
C400 C 0.84455 0.70989 0.16998 0.0
C401 C 0.84017 0.69927 0.19616 0.0
C402 C 0.86292 0.70019 0.15404 0.0
C403 C 0.87715 0.67959 0.16396 0.0
C404 C 0.8738 0.66999 0.19029 0.0
C405 C 0.85539 0.67968 0.20628 0.0
C406 C 0.89478 0.66728 0.14663 0.0
C407 C 0.92328 0.67283 0.15139 0.0
C408 C 0.88382 0.6512 0.12495 0.0
C409 C 0.85371 0.64375 0.11932 0.0
C410 C 0.83287 0.62688 0.1378 0.0
C411 C 0.80454 0.62003 0.13235 0.0
C412 C 0.79682 0.62972 0.10841 0.0
C413 C 0.81741 0.64623 0.08983 0.0
C414 C 0.84576 0.65319 0.0952 0.0
C415 C 0.97663 0.60107 0.08729 0.0
C416 C 0.98008 0.61186 0.06115 0.0
C417 C 0.96065 0.61274 0.10436 0.0
C418 C 0.94764 0.63499 0.09543 0.0
C419 C 0.95078 0.64547 0.06932 0.0
C420 C 0.96707 0.63424 0.05236 0.0
C421 C 0.93019 0.64694 0.11315 0.0
C422 C 0.90172 0.64133 0.10845 0.0
C423 C 0.94127 0.66324 0.13467 0.0
C424 C 0.97168 0.67208 0.1393 0.0
C425 C 0.99147 0.68898 0.11994 0.0
C426 C 0.02006 0.69777 0.1245 0.0
C427 C 0.02913 0.69015 0.14846 0.0
C428 C 0.00963 0.67363 0.1679 0.0
C429 C 0.981 0.66461 0.16338 0.0
H430 H 0.05126 0.69724 0.15198 0.0
H431 H 0.77488 0.62437 0.10422 0.0
H432 H 0.29853 0.24926 0.20344 0.0
H433 H 0.33262 0.22564 0.18523 0.0
H434 H 0.27117 0.13521 0.19414 0.0
H435 H 0.23673 0.15866 0.21187 0.0
H436 H 0.32208 0.13403 0.21174 0.0
H437 H 0.28834 0.17603 0.135 0.0
H438 H 0.27922 0.21865 0.10779 0.0
H439 H 0.36685 0.26899 0.10463 0.0
H440 H 0.37642 0.22684 0.13211 0.0
H441 H 0.38826 0.0434 0.144 0.0
H442 H 0.35545 0.07093 0.1583 0.0
H443 H 0.41511 0.15897 0.13211 0.0
H444 H 0.44714 0.13107 0.11597 0.0
H445 H 0.36749 0.1648 0.12422 0.0
H446 H 0.4037 0.12774 0.19904 0.0
H447 H 0.41641 0.08955 0.22864 0.0
H448 H 0.32979 0.03601 0.23914 0.0
H449 H 0.3166 0.0737 0.20934 0.0
C450 C 0.29205 0.22441 0.20117 0.0
C451 C 0.2647 0.20594 0.20904 0.0
C452 C 0.31166 0.21092 0.19083 0.0
C453 C 0.3044 0.17867 0.18806 0.0
C454 C 0.27727 0.16014 0.19608 0.0
C455 C 0.25761 0.1736 0.20633 0.0
C456 C 0.32514 0.164 0.1773 0.0
C457 C 0.33174 0.14046 0.19247 0.0
C458 C 0.33878 0.17338 0.15263 0.0
C459 C 0.33305 0.19841 0.13576 0.0
C460 C 0.30563 0.19627 0.12861 0.0
C461 C 0.30039 0.22033 0.11313 0.0
C462 C 0.32243 0.24654 0.10453 0.0
C463 C 0.34979 0.24869 0.11132 0.0
C464 C 0.35513 0.22471 0.12682 0.0
C465 C 0.39422 0.06861 0.14105 0.0
C466 C 0.42028 0.08509 0.129 0.0
C467 C 0.37557 0.08443 0.14949 0.0
C468 C 0.38302 0.11725 0.14718 0.0
C469 C 0.40878 0.13371 0.13436 0.0
C470 C 0.42712 0.11776 0.12513 0.0
C471 C 0.3641 0.13415 0.15847 0.0
C472 C 0.35793 0.15827 0.1435 0.0
C473 C 0.35142 0.12595 0.18369 0.0
C474 C 0.35921 0.10339 0.2018 0.0
C475 C 0.38739 0.10773 0.20756 0.0
C476 C 0.39467 0.08618 0.22438 0.0
C477 C 0.37393 0.06033 0.23572 0.0
C478 C 0.34584 0.05603 0.23033 0.0
C479 C 0.33844 0.07749 0.2135 0.0
H480 H 0.37961 0.04366 0.24872 0.0
H481 H 0.31832 0.26516 0.09257 0.0
H482 H 0.25805 0.89656 0.65937 0.0
H483 H 0.2313 0.9249 0.63382 0.0
H484 H 0.17634 0.92068 0.70045 0.0
H485 H 0.2026 0.89203 0.72566 0.0
H486 H 0.14686 0.8989 0.66138 0.0
H487 H 0.22354 0.98999 0.67379 0.0
H488 H 0.2729 0.0223 0.67174 0.0
H489 H 0.27672 0.01946 0.58945 0.0
H490 H 0.22747 0.98674 0.59105 0.0
H491 H 0.06613 0.99654 0.62269 0.0
H492 H 0.10094 0.97594 0.64326 0.0
H493 H 0.14229 0.97654 0.5692 0.0
H494 H 0.10717 0.99719 0.54828 0.0
H495 H 0.18006 0.99894 0.60779 0.0
H496 H 0.1031 0.90955 0.59537 0.0
H497 H 0.05366 0.87751 0.59733 0.0
H498 H 0.05073 0.87712 0.67986 0.0
H499 H 0.10002 0.90965 0.67837 0.0
C500 C 0.24073 0.90251 0.66864 0.0
C501 C 0.23228 0.89204 0.69442 0.0
C502 C 0.2254 0.91863 0.65405 0.0
C503 C 0.20164 0.92482 0.66515 0.0
C504 C 0.19439 0.91598 0.69135 0.0
C505 C 0.20948 0.89975 0.70579 0.0
C506 C 0.18272 0.93787 0.6493 0.0
C507 C 0.15416 0.921 0.64995 0.0
C508 C 0.19227 0.9661 0.63353 0.0
C509 C 0.22192 0.98561 0.63257 0.0
C510 C 0.23499 0.99599 0.65528 0.0
C511 C 0.26293 0.01444 0.6542 0.0
C512 C 0.27797 0.02285 0.63049 0.0
C513 C 0.26507 0.01288 0.60781 0.0
C514 C 0.23713 0.9944 0.60879 0.0
C515 C 0.08249 0.99219 0.61067 0.0
C516 C 0.08358 0.99814 0.58377 0.0
C517 C 0.10246 0.98046 0.62251 0.0
C518 C 0.12408 0.9744 0.60776 0.0
C519 C 0.12575 0.981 0.58094 0.0
C520 C 0.10558 0.99263 0.56901 0.0
C521 C 0.14427 0.96033 0.62057 0.0
C522 C 0.17293 0.97683 0.6192 0.0
C523 C 0.13491 0.93172 0.63575 0.0
C524 C 0.10521 0.91223 0.63674 0.0
C525 C 0.09184 0.90286 0.61393 0.0
C526 C 0.06386 0.88458 0.61495 0.0
C527 C 0.04907 0.87528 0.6387 0.0
C528 C 0.06223 0.8843 0.66147 0.0
C529 C 0.09019 0.90267 0.66055 0.0
H530 H 0.02742 0.86108 0.63945 0.0
H531 H 0.29959 0.03715 0.62969 0.0
H532 H 0.76983 0.37008 0.86108 0.0
H533 H 0.81543 0.39996 0.87527 0.0
H534 H 0.78115 0.47455 0.89353 0.0
H535 H 0.73542 0.44473 0.87933 0.0
H536 H 0.83611 0.49707 0.87472 0.0
H537 H 0.78212 0.42293 0.93952 0.0
H538 H 0.75299 0.37126 0.95749 0.0
H539 H 0.82183 0.33342 0.94515 0.0
H540 H 0.85123 0.38478 0.92659 0.0
H541 H 0.92876 0.53808 0.98505 0.0
H542 H 0.8847 0.50822 0.96775 0.0
H543 H 0.93052 0.48927 0.90222 0.0
H544 H 0.97466 0.51947 0.91909 0.0
H545 H 0.8688 0.4407 0.94671 0.0
H546 H 0.91203 0.51938 0.86597 0.0
H547 H 0.93928 0.57407 0.85374 0.0
H548 H 0.88704 0.60611 0.90598 0.0
H549 H 0.85977 0.55155 0.91868 0.0
C550 C 0.77217 0.39308 0.8677 0.0
C551 C 0.74905 0.40494 0.86943 0.0
C552 C 0.79818 0.41012 0.87575 0.0
C553 C 0.80145 0.43916 0.88588 0.0
C554 C 0.779 0.45214 0.88581 0.0
C555 C 0.75292 0.43511 0.87765 0.0
C556 C 0.82729 0.45427 0.89895 0.0
C557 C 0.84323 0.48463 0.89035 0.0
C558 C 0.83623 0.43847 0.91991 0.0
C559 C 0.81879 0.40763 0.93142 0.0
C560 C 0.79099 0.40354 0.94045 0.0
C561 C 0.77443 0.37431 0.95075 0.0
C562 C 0.78553 0.34905 0.95241 0.0
C563 C 0.81325 0.353 0.94381 0.0
C564 C 0.82988 0.38217 0.9334 0.0
C565 C 0.92952 0.52697 0.96725 0.0
C566 C 0.95511 0.53121 0.95331 0.0
C567 C 0.90436 0.51004 0.9574 0.0
C568 C 0.90454 0.49698 0.93365 0.0
C569 C 0.93011 0.49956 0.92047 0.0
C570 C 0.95523 0.51671 0.93015 0.0
C571 C 0.87797 0.48264 0.92165 0.0
C572 C 0.86174 0.45272 0.93077 0.0
C573 C 0.86842 0.499 0.90164 0.0
C574 C 0.88392 0.5316 0.89316 0.0
C575 C 0.90635 0.53816 0.87472 0.0
C576 C 0.92184 0.56908 0.86779 0.0
C577 C 0.91489 0.59356 0.87907 0.0
C578 C 0.8924 0.58715 0.89727 0.0
C579 C 0.87695 0.55626 0.90434 0.0
H580 H 0.92692 0.61747 0.87373 0.0
H581 H 0.77268 0.32644 0.9604 0.0
H582 H 0.73276 0.70073 0.32071 0.0
H583 H 0.6957 0.6805 0.35421 0.0
H584 H 0.75758 0.68089 0.41041 0.0
H585 H 0.79489 0.69946 0.37666 0.0
H586 H 0.71273 0.63036 0.41914 0.0
H587 H 0.7285 0.74062 0.40419 0.0
H588 H 0.73404 0.7897 0.37777 0.0
H589 H 0.65 0.7547 0.35319 0.0
H590 H 0.64411 0.7052 0.37917 0.0
H591 H 0.61375 0.61519 0.52366 0.0
H592 H 0.65515 0.64041 0.49513 0.0
H593 H 0.6022 0.63737 0.43075 0.0
H594 H 0.56088 0.61245 0.45903 0.0
H595 H 0.64551 0.69219 0.42955 0.0
H596 H 0.63096 0.5809 0.44265 0.0
H597 H 0.62482 0.53247 0.47009 0.0
H598 H 0.70691 0.56961 0.49839 0.0
H599 H 0.71316 0.61877 0.47177 0.0
C600 C 0.73857 0.69577 0.34002 0.0
C601 C 0.76688 0.70194 0.34598 0.0
C602 C 0.71732 0.68458 0.35924 0.0
C603 C 0.72394 0.67989 0.38489 0.0
C604 C 0.75205 0.68462 0.39076 0.0
C605 C 0.77334 0.6955 0.37148 0.0
C606 C 0.70153 0.67133 0.40564 0.0
C607 C 0.69831 0.64413 0.42169 0.0
C608 C 0.68259 0.6892 0.40883 0.0
C609 C 0.68593 0.71914 0.39351 0.0
C610 C 0.71125 0.74333 0.39305 0.0
C611 C 0.71446 0.77123 0.37815 0.0
C612 C 0.6924 0.7753 0.36378 0.0
C613 C 0.66707 0.75151 0.36433 0.0
C614 C 0.66377 0.72354 0.37916 0.0
C615 C 0.61092 0.62056 0.50354 0.0
C616 C 0.58416 0.61161 0.49348 0.0
C617 C 0.63455 0.63481 0.48728 0.0
C618 C 0.63167 0.64031 0.46082 0.0
C619 C 0.60483 0.63323 0.45111 0.0
C620 C 0.58127 0.61888 0.46728 0.0
C621 C 0.65651 0.65106 0.44273 0.0
C622 C 0.66016 0.67865 0.42717 0.0
C623 C 0.67583 0.63357 0.44005 0.0
C624 C 0.67241 0.60365 0.45543 0.0
C625 C 0.64763 0.57884 0.45486 0.0
C626 C 0.64412 0.55124 0.47026 0.0
C627 C 0.66547 0.54793 0.48594 0.0
C628 C 0.69038 0.57222 0.48625 0.0
C629 C 0.69389 0.59999 0.47105 0.0
H630 H 0.66274 0.52654 0.49783 0.0
H631 H 0.69492 0.79691 0.35226 0.0
H632 H 0.22671 0.3809 0.15171 0.0
H633 H 0.19718 0.4076 0.12911 0.0
H634 H 0.12535 0.35381 0.17691 0.0
H635 H 0.15512 0.32672 0.19978 0.0
H636 H 0.11229 0.36335 0.12558 0.0
H637 H 0.1581 0.42552 0.19176 0.0
H638 H 0.19795 0.45248 0.21682 0.0
H639 H 0.23707 0.50999 0.14923 0.0
H640 H 0.19767 0.48301 0.12364 0.0
H641 H 0.03976 0.47787 0.08866 0.0
H642 H 0.05967 0.44214 0.11418 0.0
H643 H 0.14002 0.48354 0.07411 0.0
H644 H 0.1205 0.51877 0.04865 0.0
H645 H 0.14403 0.47876 0.1265 0.0
H646 H 0.10103 0.41409 0.05974 0.0
H647 H 0.06201 0.38702 0.03382 0.0
H648 H 0.01803 0.33479 0.10193 0.0
H649 H 0.05665 0.36192 0.12834 0.0
C650 C 0.20457 0.3745 0.1573 0.0
C651 C 0.19333 0.35206 0.17781 0.0
C652 C 0.1877 0.38982 0.14436 0.0
C653 C 0.15917 0.38327 0.1517 0.0
C654 C 0.14738 0.35942 0.17107 0.0
C655 C 0.16435 0.3439 0.18406 0.0
C656 C 0.14246 0.40273 0.13991 0.0
C657 C 0.11887 0.38854 0.1262 0.0
C658 C 0.15126 0.43567 0.14039 0.0
C659 C 0.175 0.45205 0.15574 0.0
C660 C 0.17529 0.44375 0.18219 0.0
C661 C 0.1978 0.45906 0.1965 0.0
C662 C 0.22005 0.4829 0.18462 0.0
C663 C 0.21983 0.4915 0.1584 0.0
C664 C 0.1974 0.47622 0.14399 0.0
C665 C 0.06162 0.47922 0.08526 0.0
C666 C 0.07848 0.50118 0.06657 0.0
C667 C 0.07295 0.45875 0.09979 0.0
C668 C 0.10135 0.46013 0.09602 0.0
C669 C 0.11809 0.48204 0.07741 0.0
C670 C 0.1068 0.50215 0.06278 0.0
C671 C 0.11422 0.43949 0.11169 0.0
C672 C 0.13715 0.45353 0.12618 0.0
C673 C 0.10481 0.40653 0.11186 0.0
C674 C 0.08153 0.39035 0.09606 0.0
C675 C 0.0829 0.39708 0.06924 0.0
C676 C 0.06089 0.38168 0.05444 0.0
C677 C 0.03751 0.35929 0.06623 0.0
C678 C 0.03612 0.3522 0.09284 0.0
C679 C 0.05807 0.36758 0.10772 0.0
H680 H 0.0205 0.34736 0.05474 0.0
H681 H 0.23744 0.49474 0.19574 0.0
H682 H 0.66211 0.27745 0.85965 0.0
H683 H 0.63902 0.22926 0.88618 0.0
H684 H 0.65849 0.2791 0.95489 0.0
H685 H 0.68301 0.32657 0.92838 0.0
H686 H 0.66108 0.22402 0.96506 0.0
H687 H 0.59381 0.2665 0.92428 0.0
H688 H 0.572 0.28577 0.88743 0.0
H689 H 0.5533 0.19576 0.85668 0.0
H690 H 0.57546 0.17611 0.89315 0.0
H691 H 0.54744 0.14076 0.05063 0.0
H692 H 0.57807 0.1803 0.02007 0.0
H693 H 0.56955 0.11223 0.96352 0.0
H694 H 0.53898 0.0722 0.99414 0.0
H695 H 0.56261 0.17194 0.94514 0.0
H696 H 0.62728 0.13008 0.99209 0.0
H697 H 0.64728 0.11442 0.03162 0.0
H698 H 0.66786 0.2085 0.05429 0.0
H699 H 0.64759 0.22462 0.01507 0.0
C700 C 0.66195 0.2777 0.88045 0.0
C701 C 0.67422 0.30542 0.89212 0.0
C702 C 0.64859 0.25036 0.89558 0.0
C703 C 0.64635 0.25071 0.92254 0.0
C704 C 0.65986 0.27818 0.93416 0.0
C705 C 0.67385 0.30528 0.91906 0.0
C706 C 0.62849 0.22331 0.93864 0.0
C707 C 0.63952 0.21279 0.96072 0.0
C708 C 0.60036 0.20836 0.93295 0.0
C709 C 0.58655 0.21994 0.91128 0.0
C710 C 0.58517 0.25087 0.90959 0.0
C711 C 0.57276 0.26186 0.88877 0.0
C712 C 0.56133 0.24202 0.86969 0.0
C713 C 0.56221 0.21111 0.87145 0.0
C714 C 0.57469 0.20003 0.89218 0.0
C715 C 0.55197 0.13414 0.03168 0.0
C716 C 0.5408 0.10331 0.02483 0.0
C717 C 0.56956 0.15675 0.01429 0.0
C718 C 0.57619 0.14905 0.98967 0.0
C719 C 0.56469 0.11852 0.9825 0.0
C720 C 0.54731 0.09572 1.00002 0.0
C721 C 0.59519 0.1731 0.97153 0.0
C722 C 0.58431 0.18298 0.94917 0.0
C723 C 0.62317 0.18805 0.97734 0.0
C724 C 0.63572 0.17848 1.00074 0.0
C725 C 0.6359 0.14738 0.00559 0.0
C726 C 0.64731 0.13843 0.02793 0.0
C727 C 0.65878 0.16044 0.04548 0.0
C728 C 0.65895 0.19147 0.04069 0.0
C729 C 0.64753 0.20053 0.01839 0.0
H730 H 0.66759 0.15346 0.06278 0.0
H731 H 0.55174 0.25058 0.85358 0.0
H732 H 0.87899 0.75467 0.33945 0.0
H733 H 0.90875 0.79636 0.3631 0.0
H734 H 0.86587 0.86029 0.33185 0.0
H735 H 0.83684 0.81878 0.30749 0.0
H736 H 0.91941 0.89095 0.33952 0.0
H737 H 0.84263 0.81878 0.38771 0.0
H738 H 0.81317 0.76634 0.40366 0.0
H739 H 0.88249 0.75016 0.44332 0.0
H740 H 0.91255 0.80231 0.42715 0.0
H741 H 0.92679 0.98723 0.44469 0.0
H742 H 0.9086 0.94828 0.41381 0.0
H743 H 0.96677 0.89854 0.43793 0.0
H744 H 0.98548 0.93775 0.46873 0.0
H745 H 0.90799 0.86083 0.43346 0.0
H746 H 0.98303 0.94029 0.38501 0.0
H747 H 0.00683 0.99472 0.36907 0.0
H748 H 0.93289 0.99969 0.33099 0.0
H749 H 0.90861 0.94538 0.34683 0.0
C750 C 0.87686 0.778 0.33685 0.0
C751 C 0.85595 0.78382 0.32165 0.0
C752 C 0.89361 0.80169 0.3505 0.0
C753 C 0.88906 0.83121 0.3497 0.0
C754 C 0.86971 0.83769 0.33279 0.0
C755 C 0.85321 0.81407 0.31884 0.0
C756 C 0.90174 0.8538 0.36874 0.0
C757 C 0.91689 0.88438 0.36005 0.0
C758 C 0.89817 0.8453 0.39557 0.0
C759 C 0.87992 0.81433 0.40603 0.0
C760 C 0.85163 0.80398 0.39974 0.0
C761 C 0.83483 0.77431 0.40879 0.0
C762 C 0.84597 0.75491 0.42445 0.0
C763 C 0.87391 0.7652 0.43116 0.0
C764 C 0.89084 0.79482 0.42205 0.0
C765 C 0.93564 0.96792 0.44357 0.0
C766 C 0.95764 0.96559 0.45912 0.0
C767 C 0.92529 0.94578 0.42583 0.0
C768 C 0.93653 0.92075 0.42349 0.0
C769 C 0.95793 0.91781 0.43944 0.0
C770 C 0.9686 0.94022 0.45696 0.0
C771 C 0.92598 0.8978 0.4042 0.0
C772 C 0.91094 0.8672 0.41291 0.0
C773 C 0.92893 0.90657 0.37746 0.0
C774 C 0.94394 0.93886 0.36727 0.0
C775 C 0.97182 0.95303 0.37331 0.0
C776 C 0.98542 0.98384 0.36425 0.0
C777 C 0.97137 0.00066 0.34905 0.0
C778 C 0.94376 0.98663 0.34273 0.0
C779 C 0.93011 0.95582 0.35169 0.0
H780 H 0.98188 0.02455 0.34214 0.0
H781 H 0.83294 0.73192 0.43141 0.0
H782 H 0.37507 0.79574 0.74717 0.0
H783 H 0.40054 0.76469 0.72534 0.0
H784 H 0.39548 0.81412 0.65275 0.0
H785 H 0.36894 0.84439 0.67451 0.0
H786 H 0.38534 0.7554 0.64611 0.0
H787 H 0.45758 0.82867 0.68947 0.0
H788 H 0.47919 0.85498 0.72719 0.0
H789 H 0.47984 0.76683 0.76376 0.0
H790 H 0.45792 0.73996 0.72639 0.0
H791 H 0.48407 0.70787 0.57302 0.0
H792 H 0.46122 0.73973 0.59688 0.0
H793 H 0.46634 0.68682 0.6676 0.0
H794 H 0.49014 0.65542 0.64388 0.0
H795 H 0.47619 0.746 0.67624 0.0
H796 H 0.40473 0.67256 0.63405 0.0
H797 H 0.38216 0.64475 0.59736 0.0
H798 H 0.37875 0.73135 0.5598 0.0
H799 H 0.40164 0.75974 0.59613 0.0
C800 C 0.37957 0.80008 0.72657 0.0
C801 C 0.37032 0.82268 0.71253 0.0
C802 C 0.39423 0.78241 0.71412 0.0
C803 C 0.40056 0.7875 0.68745 0.0
C804 C 0.391 0.80984 0.67335 0.0
C805 C 0.37588 0.82715 0.68576 0.0
C806 C 0.41666 0.76919 0.67412 0.0
C807 C 0.40542 0.75378 0.65248 0.0
C808 C 0.44242 0.76608 0.68291 0.0
C809 C 0.45593 0.7823 0.70522 0.0
C810 C 0.46221 0.8149 0.70561 0.0
C811 C 0.47452 0.82991 0.72692 0.0
C812 C 0.48083 0.81258 0.74788 0.0
C813 C 0.47492 0.78022 0.74753 0.0
C814 C 0.4626 0.7651 0.72627 0.0
C815 C 0.48064 0.70321 0.5937 0.0
C816 C 0.4888 0.679 0.60653 0.0
C817 C 0.46737 0.72132 0.6073 0.0
C818 C 0.4614 0.7152 0.63396 0.0
C819 C 0.47056 0.69187 0.64702 0.0
C820 C 0.4842 0.67397 0.63344 0.0
C821 C 0.44506 0.73268 0.64801 0.0
C822 C 0.45616 0.74775 0.66982 0.0
C823 C 0.41907 0.73534 0.6395 0.0
C824 C 0.40513 0.7183 0.61771 0.0
C825 C 0.39934 0.68569 0.61789 0.0
C826 C 0.38646 0.66983 0.59717 0.0
C827 C 0.37909 0.68628 0.57623 0.0
C828 C 0.3845 0.71864 0.57601 0.0
C829 C 0.3974 0.73463 0.59668 0.0
H830 H 0.36914 0.67396 0.5602 0.0
H831 H 0.49034 0.82424 0.76436 0.0
H832 H 0.83514 0.92072 0.76847 0.0
H833 H 0.85754 0.94451 0.72676 0.0
H834 H 0.88661 0.86418 0.71607 0.0
H835 H 0.86423 0.84025 0.75765 0.0
H836 H 0.92759 0.9158 0.70379 0.0
H837 H 0.83174 0.87707 0.68275 0.0
H838 H 0.78083 0.86985 0.68688 0.0
H839 H 0.79496 0.96852 0.67221 0.0
H840 H 0.846 0.97639 0.66837 0.0
H841 H 0.97469 0.956 0.5728 0.0
H842 H 0.94963 0.92938 0.61259 0.0
H843 H 0.91627 0.00675 0.62311 0.0
H844 H 0.94032 0.03285 0.58269 0.0
H845 H 0.87705 0.95536 0.63529 0.0
H846 H 0.97438 0.99301 0.65667 0.0
H847 H 0.02492 0.99808 0.65237 0.0
H848 H 0.00738 0.89883 0.66617 0.0
H849 H 0.95681 0.89312 0.67002 0.0
C850 C 0.84608 0.90798 0.75714 0.0
C851 C 0.84796 0.87861 0.76653 0.0
C852 C 0.85889 0.92162 0.73325 0.0
C853 C 0.87363 0.90608 0.71808 0.0
C854 C 0.87548 0.87673 0.7274 0.0
C855 C 0.86275 0.86313 0.75128 0.0
C856 C 0.88773 0.92068 0.69282 0.0
C857 C 0.91644 0.9241 0.68869 0.0
C858 C 0.87338 0.93201 0.6732 0.0
C859 C 0.84271 0.92735 0.67553 0.0
C860 C 0.82401 0.89726 0.68062 0.0
C861 C 0.79512 0.89305 0.68287 0.0
C862 C 0.78467 0.91872 0.67988 0.0
C863 C 0.80308 0.94866 0.67457 0.0
C864 C 0.83199 0.95301 0.67233 0.0
C865 C 0.96199 0.96735 0.58355 0.0
C866 C 0.95963 0.99666 0.57456 0.0
C867 C 0.94777 0.95216 0.60646 0.0
C868 C 0.93143 0.96625 0.6213 0.0
C869 C 0.92876 0.99534 0.61215 0.0
C870 C 0.9426 0.01031 0.58901 0.0
C871 C 0.91706 0.95077 0.64629 0.0
C872 C 0.88825 0.94714 0.65038 0.0
C873 C 0.9313 0.93905 0.66584 0.0
C874 C 0.96179 0.94262 0.6634 0.0
C875 C 0.98132 0.97225 0.65855 0.0
C876 C 0.01 0.97523 0.65617 0.0
C877 C 0.01941 0.94877 0.65883 0.0
C878 C 1.00014 0.9193 0.66393 0.0
C879 C 0.97147 0.91618 0.66624 0.0
H880 H 0.04161 0.95107 0.65705 0.0
H881 H 0.7623 0.91541 0.68161 0.0
H882 H 0.62995 0.16039 0.34433 0.0
H883 H 0.6085 0.13984 0.30498 0.0
H884 H 0.68506 0.18753 0.26087 0.0
H885 H 0.70689 0.20789 0.3005 0.0
H886 H 0.63337 0.1947 0.23957 0.0
H887 H 0.67364 0.1155 0.27007 0.0
H888 H 0.68361 0.07774 0.30197 0.0
H889 H 0.59581 0.0286 0.31124 0.0
H890 H 0.58525 0.06643 0.27971 0.0
H891 H 0.59311 0.12169 0.1248 0.0
H892 H 0.61912 0.13985 0.16249 0.0
H893 H 0.5505 0.08253 0.21219 0.0
H894 H 0.52429 0.06382 0.17435 0.0
H895 H 0.60041 0.08066 0.22996 0.0
H896 H 0.55962 0.16041 0.20112 0.0
H897 H 0.5489 0.19826 0.16977 0.0
H898 H 0.63667 0.24663 0.15799 0.0
H899 H 0.64795 0.20874 0.189 0.0
C900 C 0.64217 0.16666 0.32622 0.0
C901 C 0.67003 0.1859 0.32541 0.0
C902 C 0.62995 0.15476 0.3038 0.0
C903 C 0.64521 0.16208 0.28005 0.0
C904 C 0.67295 0.18161 0.27904 0.0
C905 C 0.6854 0.19313 0.30162 0.0
C906 C 0.63192 0.14925 0.25638 0.0
C907 C 0.6266 0.16982 0.23721 0.0
C908 C 0.62242 0.11673 0.2537 0.0
C909 C 0.62863 0.09401 0.27274 0.0
C910 C 0.65642 0.09685 0.27912 0.0
C911 C 0.66219 0.07539 0.29709 0.0
C912 C 0.64035 0.05083 0.30868 0.0
C913 C 0.6127 0.04766 0.30228 0.0
C914 C 0.60681 0.06911 0.28435 0.0
C915 C 0.58354 0.11267 0.14372 0.0
C916 C 0.55647 0.09141 0.14653 0.0
C917 C 0.59845 0.12324 0.16528 0.0
C918 C 0.58659 0.11304 0.1902 0.0
C919 C 0.56002 0.09087 0.19314 0.0
C920 C 0.54505 0.08019 0.1715 0.0
C921 C 0.60171 0.12609 0.2131 0.0
C922 C 0.60731 0.10557 0.23218 0.0
C923 C 0.61135 0.15868 0.21577 0.0
C924 C 0.60464 0.18154 0.19717 0.0
C925 C 0.57665 0.17896 0.19168 0.0
C926 C 0.57047 0.20044 0.174 0.0
C927 C 0.5921 0.22478 0.16184 0.0
C928 C 0.61995 0.22773 0.16739 0.0
C929 C 0.62625 0.20627 0.18503 0.0
H930 H 0.58727 0.2414 0.14816 0.0
H931 H 0.64486 0.03421 0.32257 0.0
H932 H 0.31825 0.62154 0.37642 0.0
H933 H 0.34766 0.62423 0.41362 0.0
H934 H 0.42087 0.67184 0.36492 0.0
H935 H 0.39137 0.66986 0.32779 0.0
H936 H 0.4211 0.61335 0.39065 0.0
H937 H 0.40789 0.71048 0.40826 0.0
H938 H 0.38289 0.74934 0.41608 0.0
H939 H 0.34065 0.69415 0.48365 0.0
H940 H 0.36498 0.65459 0.47595 0.0
H941 H 0.51334 0.63849 0.4994 0.0
H942 H 0.48684 0.65413 0.46473 0.0
H943 H 0.41399 0.57826 0.49036 0.0
H944 H 0.44076 0.56165 0.52442 0.0
H945 H 0.41742 0.65656 0.47581 0.0
H946 H 0.42328 0.5538 0.44916 0.0
H947 H 0.45079 0.5171 0.44184 0.0
H948 H 0.50894 0.58658 0.39103 0.0
H949 H 0.482 0.62389 0.39856 0.0
C950 C 0.3405 0.63342 0.37392 0.0
C951 C 0.35269 0.64548 0.34942 0.0
C952 C 0.35722 0.63503 0.3951 0.0
C953 C 0.38635 0.64824 0.3919 0.0
C954 C 0.39837 0.66174 0.36769 0.0
C955 C 0.38157 0.66069 0.3466 0.0
C956 C 0.40435 0.6436 0.41281 0.0
C957 C 0.42055 0.6232 0.40913 0.0
C958 C 0.40331 0.6561 0.43698 0.0
C959 C 0.38799 0.67934 0.44131 0.0
C960 C 0.39295 0.70637 0.42456 0.0
C961 C 0.37897 0.72859 0.42903 0.0
C962 C 0.36011 0.72417 0.45029 0.0
C963 C 0.3552 0.6975 0.46714 0.0
C964 C 0.36908 0.67517 0.46273 0.0
C965 C 0.49165 0.62523 0.49761 0.0
C966 C 0.47898 0.59883 0.51433 0.0
C967 C 0.47662 0.6342 0.47793 0.0
C968 C 0.44862 0.61727 0.47518 0.0
C969 C 0.43567 0.59142 0.49229 0.0
C970 C 0.45093 0.58192 0.51154 0.0
C971 C 0.43329 0.62582 0.45365 0.0
C972 C 0.41783 0.64694 0.45723 0.0
C973 C 0.43487 0.61402 0.42936 0.0
C974 C 0.45098 0.59171 0.42477 0.0
C975 C 0.44216 0.56135 0.43673 0.0
C976 C 0.45759 0.54042 0.43248 0.0
C977 C 0.48168 0.54955 0.41607 0.0
C978 C 0.49034 0.57959 0.40382 0.0
C979 C 0.47502 0.60063 0.40809 0.0
H980 H 0.49359 0.5333 0.41277 0.0
H981 H 0.34937 0.74145 0.45376 0.0
H982 H 0.11463 0.36588 0.86909 0.0
H983 H 0.10091 0.40847 0.88681 0.0
H984 H 0.17113 0.47524 0.84533 0.0
H985 H 0.18589 0.43226 0.82824 0.0
H986 H 0.16476 0.49072 0.89456 0.0
H987 H 0.10612 0.46554 0.82412 0.0
H988 H 0.07408 0.43144 0.79577 0.0
H989 H 0.01301 0.39863 0.85881 0.0
H990 H 0.04484 0.43217 0.88764 0.0
H991 H 0.08957 0.59843 0.94103 0.0
H992 H 0.1132 0.5735 0.91018 0.0
H993 H 0.06678 0.48293 0.94499 0.0
H994 H 0.04367 0.50715 0.97569 0.0
H995 H 0.06572 0.49134 0.88933 0.0
H996 H 0.1291 0.5087 0.96052 0.0
H997 H 0.16125 0.54223 0.98915 0.0
H998 H 0.21326 0.59078 0.92355 0.0
H999 H 0.18113 0.55778 0.8945 0.0
C1000 C 0.12742 0.38956 0.86391 0.0
C1001 C 0.15146 0.39563 0.84735 0.0
C1002 C 0.11933 0.41394 0.87382 0.0
C1003 C 0.13473 0.44504 0.86704 0.0
C1004 C 0.15887 0.45138 0.85064 0.0
C1005 C 0.16712 0.42684 0.84076 0.0
C1006 C 0.12531 0.4705 0.87756 0.0
C1007 C 0.14333 0.49145 0.89286 0.0
C1008 C 0.09733 0.47141 0.87537 0.0
C1009 C 0.07793 0.45136 0.85806 0.0
C1010 C 0.08592 0.45094 0.83197 0.0
C1011 C 0.06778 0.43171 0.81581 0.0
C1012 C 0.04153 0.41288 0.82548 0.0
C1013 C 0.03334 0.41326 0.85133 0.0
C1014 C 0.0514 0.43243 0.86759 0.0
C1015 C 0.08447 0.57322 0.94201 0.0
C1016 C 0.06474 0.55478 0.96075 0.0
C1017 C 0.09799 0.55909 0.92449 0.0
C1018 C 0.09158 0.52645 0.92539 0.0
C1019 C 0.07187 0.50816 0.94398 0.0
C1020 C 0.05875 0.52212 0.96156 0.0
C1021 C 0.10479 0.5105 0.90704 0.0
C1022 C 0.08742 0.49131 0.89028 0.0
C1023 C 0.13329 0.51133 0.90786 0.0
C1024 C 0.15251 0.53112 0.92533 0.0
C1025 C 0.14721 0.52676 0.95219 0.0
C1026 C 0.16547 0.54561 0.96849 0.0
C1027 C 0.18923 0.56871 0.95817 0.0
C1028 C 0.19481 0.57294 0.93152 0.0
C1029 C 0.17659 0.55418 0.91513 0.0
H1030 H 0.20336 0.58326 0.97082 0.0
H1031 H 0.02752 0.39801 0.81294 0.0
H1032 H 0.68089 0.82751 0.88728 0.0
H1033 H 0.65631 0.85267 0.91653 0.0
H1034 H 0.71902 0.9408 0.89786 0.0
H1035 H 0.74363 0.91572 0.86826 0.0
H1036 H 0.67049 0.89043 0.95984 0.0
H1037 H 0.69036 0.98633 0.88329 0.0
H1038 H 0.69704 0.99575 0.83592 0.0
H1039 H 0.63625 0.90763 0.82676 0.0
H1040 H 0.62956 0.89767 0.87406 0.0
H1041 H 0.59677 0.98967 0.01536 0.0
H1042 H 0.6326 0.96906 0.99586 0.0
H1043 H 0.58005 0.94098 0.93199 0.0
H1044 H 0.54535 0.96304 0.95054 0.0
H1045 H 0.62837 0.96414 0.91311 0.0
H1046 H 0.59091 0.88889 0.9855 0.0
H1047 H 0.57916 0.87135 0.03137 0.0
H1048 H 0.66588 0.90684 0.04828 0.0
H1049 H 0.67808 0.92487 0.00255 0.0
C1050 C 0.68975 0.85214 0.8898 0.0
C1051 C 0.71408 0.8697 0.87533 0.0
C1052 C 0.67575 0.86644 0.90661 0.0
C1053 C 0.68569 0.89863 0.90921 0.0
C1054 C 0.71092 0.91593 0.89602 0.0
C1055 C 0.72507 0.90156 0.87926 0.0
C1056 C 0.66799 0.91443 0.92338 0.0
C1057 C 0.66152 0.9069 0.94982 0.0
C1058 C 0.65572 0.93519 0.91021 0.0
C1059 C 0.65949 0.94134 0.88198 0.0
C1060 C 0.67841 0.96909 0.87109 0.0
C1061 C 0.68227 0.97445 0.84431 0.0
C1062 C 0.66707 0.95231 0.82834 0.0
C1063 C 0.64804 0.92473 0.83913 0.0
C1064 C 0.64427 0.91918 0.86589 0.0
C1065 C 0.593 0.97913 0.99714 0.0
C1066 C 0.56834 0.97821 0.9844 0.0
C1067 C 0.6134 0.96712 0.98606 0.0
C1068 C 0.60911 0.95313 0.96243 0.0
C1069 C 0.5842 0.95187 0.95005 0.0
C1070 C 0.56425 0.96447 0.96074 0.0
C1071 C 0.63044 0.94028 0.94999 0.0
C1072 C 0.63762 0.94826 0.92361 0.0
C1073 C 0.64271 0.9193 0.96326 0.0
C1074 C 0.63534 0.90853 0.9907 0.0
C1075 C 0.60742 0.89314 0.99905 0.0
C1076 C 0.60069 0.88308 0.02501 0.0
C1077 C 0.62174 0.88807 0.04274 0.0
C1078 C 0.64958 0.90305 0.03454 0.0
C1079 C 0.65642 0.91317 0.00861 0.0
H1080 H 0.61649 0.88026 0.06283 0.0
H1081 H 0.67005 0.95652 0.80762 0.0
H1082 H 0.77074 0.21317 0.35943 0.0
H1083 H 0.81069 0.19703 0.37507 0.0
H1084 H 0.75855 0.14383 0.43954 0.0
H1085 H 0.71923 0.16132 0.42464 0.0
H1086 H 0.80592 0.17061 0.45622 0.0
H1087 H 0.7784 0.11096 0.38238 0.0
H1088 H 0.76792 0.10373 0.33678 0.0
H1089 H 0.85174 0.15887 0.31338 0.0
H1090 H 0.86261 0.16677 0.35883 0.0
H1091 H 0.89332 0.07658 0.49376 0.0
H1092 H 0.85526 0.09648 0.47891 0.0
H1093 H 0.90988 0.15124 0.41659 0.0
H1094 H 0.94755 0.13032 0.4307 0.0
H1095 H 0.86206 0.12482 0.39867 0.0
H1096 H 0.88939 0.18309 0.4734 0.0
H1097 H 0.89921 0.18922 0.51924 0.0
H1098 H 0.81472 0.13497 0.54122 0.0
H1099 H 0.80451 0.1282 0.49552 0.0
C1100 C 0.76795 0.19807 0.37694 0.0
C1101 C 0.74199 0.18852 0.39086 0.0
C1102 C 0.79071 0.18866 0.38581 0.0
C1103 C 0.78765 0.16868 0.40832 0.0
C1104 C 0.76161 0.15925 0.42219 0.0
C1105 C 0.73911 0.16921 0.41365 0.0
C1106 C 0.81142 0.15765 0.41765 0.0
C1107 C 0.81794 0.16025 0.44365 0.0
C1108 C 0.82768 0.14471 0.40127 0.0
C1109 C 0.82124 0.13966 0.37398 0.0
C1110 C 0.79455 0.12167 0.36749 0.0
C1111 C 0.78854 0.11745 0.34168 0.0
C1112 C 0.80913 0.13088 0.3222 0.0
C1113 C 0.8358 0.1485 0.32849 0.0
C1114 C 0.8419 0.15283 0.35427 0.0
C1115 C 0.8973 0.09311 0.47705 0.0
C1116 C 0.92352 0.10194 0.46347 0.0
C1117 C 0.87551 0.10459 0.4686 0.0
C1118 C 0.87968 0.12578 0.44676 0.0
C1119 C 0.90602 0.13492 0.43344 0.0
C1120 C 0.92762 0.12304 0.44161 0.0
C1121 C 0.85647 0.1377 0.43725 0.0
C1122 C 0.85006 0.13524 0.41121 0.0
C1123 C 0.8402 0.15058 0.45362 0.0
C1124 C 0.84626 0.15496 0.48107 0.0
C1125 C 0.87296 0.17234 0.48802 0.0
C1126 C 0.87858 0.17594 0.51398 0.0
C1127 C 0.85762 0.16244 0.53313 0.0
C1128 C 0.83095 0.1454 0.52637 0.0
C1129 C 0.82522 0.14171 0.50045 0.0
H1130 H 0.86202 0.16524 0.55321 0.0
H1131 H 0.80444 0.1276 0.30223 0.0
H1132 H 0.27112 0.64394 0.20804 0.0
H1133 H 0.23549 0.63317 0.17581 0.0
H1134 H 0.21918 0.72084 0.18749 0.0
H1135 H 0.25467 0.73166 0.21996 0.0
H1136 H 0.1703 0.66833 0.18475 0.0
H1137 H 0.26013 0.71749 0.13811 0.0
H1138 H 0.30925 0.7206 0.12658 0.0
H1139 H 0.2826 0.62928 0.09821 0.0
H1140 H 0.23335 0.62545 0.10993 0.0
H1141 H 0.08599 0.67132 0.08187 0.0
H1142 H 0.12596 0.68922 0.10889 0.0
H1143 H 0.15843 0.61527 0.08503 0.0
H1144 H 0.11943 0.59848 0.05695 0.0
H1145 H 0.20012 0.66135 0.09402 0.0
H1146 H 0.11461 0.6072 0.13966 0.0
H1147 H 0.0649 0.59485 0.15428 0.0
H1148 H 0.08162 0.68281 0.18828 0.0
H1149 H 0.13132 0.6961 0.17319 0.0
C1150 C 0.2596 0.66066 0.20404 0.0
C1151 C 0.26566 0.68869 0.21641 0.0
C1152 C 0.23947 0.6546 0.18551 0.0
C1153 C 0.22508 0.67643 0.17911 0.0
C1154 C 0.23026 0.70384 0.19213 0.0
C1155 C 0.25054 0.71003 0.21054 0.0
C1156 C 0.20507 0.67106 0.15837 0.0
C1157 C 0.17679 0.66733 0.16481 0.0
C1158 C 0.21355 0.66839 0.13267 0.0
C1159 C 0.24309 0.67112 0.12503 0.0
C1160 C 0.26477 0.69803 0.12952 0.0
C1161 C 0.29263 0.69991 0.12295 0.0
C1162 C 0.29905 0.67514 0.1117 0.0
C1163 C 0.27761 0.64846 0.10693 0.0
C1164 C 0.24972 0.64643 0.11349 0.0
C1165 C 0.10218 0.65958 0.08179 0.0
C1166 C 0.09955 0.63341 0.06753 0.0
C1167 C 0.12486 0.66961 0.09739 0.0
C1168 C 0.14468 0.65293 0.09966 0.0
C1169 C 0.14331 0.62839 0.08376 0.0
C1170 C 0.12101 0.61884 0.06766 0.0
C1171 C 0.16514 0.65907 0.12022 0.0
C1172 C 0.19351 0.66271 0.11385 0.0
C1173 C 0.15658 0.66049 0.14624 0.0
C1174 C 0.12662 0.65281 0.15502 0.0
C1175 C 0.10763 0.62408 0.14998 0.0
C1176 C 0.07945 0.61691 0.15836 0.0
C1177 C 0.0701 0.63807 0.17213 0.0
C1178 C 0.08889 0.66648 0.17753 0.0
C1179 C 0.11705 0.67389 0.16901 0.0
H1180 H 0.0483 0.63237 0.17871 0.0
H1181 H 0.32064 0.67663 0.10666 0.0
H1182 H 0.26978 0.38526 0.7637 0.0
H1183 H 0.31459 0.41922 0.74479 0.0
H1184 H 0.27555 0.42923 0.67323 0.0
H1185 H 0.23085 0.39543 0.69199 0.0
H1186 H 0.32294 0.41422 0.66517 0.0
H1187 H 0.29411 0.48893 0.71304 0.0
H1188 H 0.27844 0.5097 0.7517 0.0
H1189 H 0.35374 0.50713 0.78847 0.0
H1190 H 0.36967 0.48588 0.75016 0.0
H1191 H 0.43138 0.53576 0.59972 0.0
H1192 H 0.38749 0.50287 0.62075 0.0
H1193 H 0.42897 0.49943 0.69194 0.0
H1194 H 0.47275 0.53316 0.67122 0.0
H1195 H 0.381 0.51029 0.70121 0.0
H1196 H 0.41009 0.43599 0.6533 0.0
H1197 H 0.42578 0.41509 0.61472 0.0
H1198 H 0.35 0.4164 0.57825 0.0
H1199 H 0.33403 0.43772 0.61649 0.0
C1200 C 0.27069 0.39513 0.74408 0.0
C1201 C 0.24687 0.38752 0.72926 0.0
C1202 C 0.29629 0.4145 0.73329 0.0
C1203 C 0.2984 0.42678 0.70759 0.0
C1204 C 0.27445 0.41985 0.69303 0.0
C1205 C 0.24895 0.4005 0.70376 0.0
C1206 C 0.32576 0.44561 0.69534 0.0
C1207 C 0.33548 0.43546 0.67287 0.0
C1208 C 0.34249 0.47278 0.7058 0.0
C1209 C 0.33292 0.48548 0.72886 0.0
C1210 C 0.3072 0.49252 0.72947 0.0
C1211 C 0.2983 0.50443 0.75129 0.0
C1212 C 0.31504 0.50964 0.77256 0.0
C1213 C 0.34076 0.50302 0.77201 0.0
C1214 C 0.34974 0.49106 0.75024 0.0
C1215 C 0.43124 0.52773 0.61978 0.0
C1216 C 0.45554 0.53701 0.6338 0.0
C1217 C 0.40613 0.50884 0.63178 0.0
C1218 C 0.40496 0.49837 0.65789 0.0
C1219 C 0.42934 0.50725 0.6718 0.0
C1220 C 0.45437 0.52642 0.65989 0.0
C1221 C 0.37813 0.47899 0.6709 0.0
C1222 C 0.36852 0.489 0.69353 0.0
C1223 C 0.36148 0.45161 0.66063 0.0
C1224 C 0.37101 0.43873 0.63765 0.0
C1225 C 0.39688 0.43204 0.63698 0.0
C1226 C 0.4058 0.42009 0.61518 0.0
C1227 C 0.38893 0.4145 0.59402 0.0
C1228 C 0.36306 0.42078 0.59464 0.0
C1229 C 0.35406 0.43277 0.61637 0.0
H1230 H 0.39588 0.40524 0.57717 0.0
H1231 H 0.30811 0.51888 0.78943 0.0
H1232 H 0.89147 0.84653 0.84191 0.0
H1233 H 0.91542 0.81303 0.86437 0.0
H1234 H 0.8362 0.7431 0.88207 0.0
H1235 H 0.81205 0.7761 0.85901 0.0
H1236 H 0.87039 0.75128 0.92352 0.0
H1237 H 0.87724 0.7335 0.83419 0.0
H1238 H 0.88814 0.74874 0.78791 0.0
H1239 H 0.9747 0.79003 0.80286 0.0
H1240 H 0.96422 0.77545 0.84933 0.0
H1241 H 0.91969 0.62375 0.95856 0.0
H1242 H 0.89706 0.65812 0.93578 0.0
H1243 H 0.97789 0.72368 0.91477 0.0
H1244 H 1.00092 0.68871 0.93725 0.0
H1245 H 0.94347 0.71879 0.87531 0.0
H1246 H 0.93617 0.73505 0.96522 0.0
H1247 H 0.92449 0.71899 0.01131 0.0
H1248 H 0.83794 0.67991 0.99521 0.0
H1249 H 0.84918 0.6953 0.94894 0.0
C1250 C 0.87907 0.82399 0.85048 0.0
C1251 C 0.84978 0.814 0.84839 0.0
C1252 C 0.89283 0.80489 0.8634 0.0
C1253 C 0.87766 0.77538 0.87463 0.0
C1254 C 0.84834 0.76579 0.87354 0.0
C1255 C 0.83454 0.78481 0.86045 0.0
C1256 C 0.89252 0.75425 0.88689 0.0
C1257 C 0.88614 0.74389 0.91291 0.0
C1258 C 0.91347 0.74508 0.87319 0.0
C1259 C 0.9199 0.75366 0.84526 0.0
C1260 C 0.89856 0.74605 0.82764 0.0
C1261 C 0.90466 0.75453 0.80137 0.0
C1262 C 0.93208 0.77041 0.79246 0.0
C1263 C 0.95346 0.77777 0.8098 0.0
C1264 C 0.94746 0.76938 0.8361 0.0
C1265 C 0.93277 0.64544 0.94907 0.0
C1266 C 0.96215 0.6537 0.95005 0.0
C1267 C 0.91973 0.66515 0.93609 0.0
C1268 C 0.93568 0.6939 0.92408 0.0
C1269 C 0.96512 0.70173 0.92408 0.0
C1270 C 0.97827 0.68176 0.93693 0.0
C1271 C 0.92142 0.71583 0.91202 0.0
C1272 C 0.92785 0.7263 0.88599 0.0
C1273 C 0.90044 0.72505 0.92572 0.0
C1274 C 0.89357 0.71612 0.95358 0.0
C1275 C 0.91467 0.72286 0.97148 0.0
C1276 C 0.90813 0.71389 0.99764 0.0
C1277 C 0.8805 0.69839 0.00618 0.0
C1278 C 0.85934 0.6919 0.98857 0.0
C1279 C 0.86578 0.70076 0.96238 0.0
H1280 H 0.87548 0.69145 0.02644 0.0
H1281 H 0.93677 0.77696 0.77211 0.0
H1282 H 0.38756 0.74397 0.22737 0.0
H1283 H 0.41815 0.79417 0.20859 0.0
H1284 H 0.35669 0.83934 0.23199 0.0
H1285 H 0.32593 0.7891 0.25009 0.0
H1286 H 0.36882 0.8496 0.18216 0.0
H1287 H 0.42331 0.85582 0.25742 0.0
H1288 H 0.45044 0.83634 0.28981 0.0
H1289 H 0.50932 0.82903 0.23035 0.0
H1290 H 0.48234 0.84808 0.19755 0.0
H1291 H 0.44227 0.99391 0.11887 0.0
H1292 H 0.42088 0.95622 0.15513 0.0
H1293 H 0.4818 0.90674 0.14126 0.0
H1294 H 0.50416 0.94546 0.10643 0.0
H1295 H 0.47013 0.90157 0.19 0.0
H1296 H 0.41478 0.88683 0.11514 0.0
H1297 H 0.38704 0.90065 0.08038 0.0
H1298 H 0.32955 0.91824 0.13647 0.0
H1299 H 0.35716 0.90489 0.17156 0.0
C1300 C 0.38113 0.76487 0.22924 0.0
C1301 C 0.3545 0.76285 0.2401 0.0
C1302 C 0.39857 0.79354 0.21852 0.0
C1303 C 0.38973 0.82061 0.21884 0.0
C1304 C 0.36394 0.81881 0.23142 0.0
C1305 C 0.34644 0.79019 0.24185 0.0
C1306 C 0.40532 0.84966 0.20323 0.0
C1307 C 0.39083 0.86141 0.18434 0.0
C1308 C 0.43429 0.86431 0.20528 0.0
C1309 C 0.4507 0.85321 0.22502 0.0
C1310 C 0.44195 0.84988 0.25124 0.0
C1311 C 0.45732 0.83895 0.26967 0.0
C1312 C 0.48156 0.83141 0.26214 0.0
C1313 C 0.49054 0.83488 0.23616 0.0
C1314 C 0.47524 0.84579 0.21764 0.0
C1315 C 0.45191 0.97599 0.1245 0.0
C1316 C 0.47515 0.97304 0.1101 0.0
C1317 C 0.43931 0.95395 0.14483 0.0
C1318 C 0.44933 0.92813 0.15065 0.0
C1319 C 0.47358 0.92631 0.13725 0.0
C1320 C 0.48634 0.9485 0.11725 0.0
C1321 C 0.43351 0.90169 0.16907 0.0
C1322 C 0.44797 0.89018 0.18825 0.0
C1323 C 0.40454 0.88674 0.16701 0.0
C1324 C 0.38826 0.89535 0.14593 0.0
C1325 C 0.39639 0.89397 0.12004 0.0
C1326 C 0.38066 0.90164 0.10028 0.0
C1327 C 0.35662 0.91045 0.10621 0.0
C1328 C 0.34822 0.91153 0.1319 0.0
C1329 C 0.36391 0.90393 0.15172 0.0
H1330 H 0.34444 0.91633 0.09089 0.0
H1331 H 0.49342 0.82293 0.27644 0.0
H1332 H 0.1807 0.32294 0.68007 0.0
H1333 H 0.15741 0.28334 0.65255 0.0
H1334 H 0.11459 0.22466 0.71884 0.0
H1335 H 0.14157 0.26202 0.74703 0.0
H1336 H 0.12411 0.18895 0.6887 0.0
H1337 H 0.08337 0.27193 0.67349 0.0
H1338 H 0.08258 0.32614 0.6637 0.0
H1339 H 0.12414 0.32821 0.58987 0.0
H1340 H 0.1255 0.27416 0.59934 0.0
H1341 H 0.03307 0.09312 0.60167 0.0
H1342 H 0.04802 0.13103 0.63427 0.0
H1343 H 0.11585 0.18561 0.58241 0.0
H1344 H 0.10122 0.14795 0.5499 0.0
H1345 H 0.08631 0.22121 0.60805 0.0
H1346 H 0.12825 0.1369 0.62754 0.0
H1347 H 0.12471 0.08154 0.63824 0.0
H1348 H 0.07379 0.08117 0.70634 0.0
H1349 H 0.07668 0.13642 0.69581 0.0
C1350 C 0.16709 0.30138 0.68918 0.0
C1351 C 0.16352 0.29614 0.71621 0.0
C1352 C 0.15294 0.27888 0.67312 0.0
C1353 C 0.13326 0.25126 0.68336 0.0
C1354 C 0.1294 0.24586 0.71027 0.0
C1355 C 0.14461 0.26775 0.72647 0.0
C1356 C 0.11744 0.22783 0.66593 0.0
C1357 C 0.11536 0.19612 0.67139 0.0
C1358 C 0.10588 0.23673 0.64314 0.0
C1359 C 0.10464 0.26905 0.63719 0.0
C1360 C 0.09241 0.28399 0.6552 0.0
C1361 C 0.09188 0.31469 0.64971 0.0
C1362 C 0.10333 0.33062 0.6262 0.0
C1363 C 0.11526 0.31584 0.60808 0.0
C1364 C 0.11587 0.28516 0.61347 0.0
C1365 C 0.05095 0.11342 0.59712 0.0
C1366 C 0.06602 0.11756 0.57323 0.0
C1367 C 0.05953 0.13493 0.61579 0.0
C1368 C 0.08315 0.16095 0.61077 0.0
C1369 C 0.09757 0.16565 0.58664 0.0
C1370 C 0.08921 0.14408 0.56811 0.0
C1371 C 0.09366 0.183 0.63074 0.0
C1372 C 0.09469 0.21431 0.62569 0.0
C1373 C 0.10352 0.17361 0.65415 0.0
C1374 C 0.10244 0.14067 0.66075 0.0
C1375 C 0.11617 0.12495 0.64471 0.0
C1376 C 0.11429 0.0936 0.65075 0.0
C1377 C 0.09897 0.07782 0.67292 0.0
C1378 C 0.08561 0.09341 0.68916 0.0
C1379 C 0.08737 0.12473 0.68317 0.0
H1380 H 0.0975 0.05354 0.67753 0.0
H1381 H 0.10293 0.3544 0.622 0.0
H1382 H 0.67748 0.31648 0.43911 0.0
H1383 H 0.6688 0.36516 0.45121 0.0
H1384 H 0.58157 0.328 0.43519 0.0
H1385 H 0.59015 0.27938 0.42339 0.0
H1386 H 0.6048 0.39384 0.42096 0.0
H1387 H 0.59963 0.31743 0.49343 0.0
H1388 H 0.61957 0.28314 0.52074 0.0
H1389 H 0.687 0.36226 0.53835 0.0
H1390 H 0.66767 0.39694 0.51076 0.0
H1391 H 0.53134 0.46999 0.50079 0.0
H1392 H 0.54884 0.43249 0.47812 0.0
H1393 H 0.62947 0.46769 0.51066 0.0
H1394 H 0.61214 0.50477 0.53352 0.0
H1395 H 0.61457 0.4068 0.51454 0.0
H1396 H 0.62177 0.48414 0.44705 0.0
H1397 H 0.60639 0.52188 0.41919 0.0
H1398 H 0.54206 0.44688 0.39088 0.0
H1399 H 0.55678 0.40875 0.41897 0.0
C1400 C 0.6567 0.3192 0.43741 0.0
C1401 C 0.63444 0.29432 0.4304 0.0
C1402 C 0.65172 0.34687 0.44443 0.0
C1403 C 0.62447 0.35002 0.44432 0.0
C1404 C 0.60273 0.32607 0.43537 0.0
C1405 C 0.60762 0.29834 0.42868 0.0
C1406 C 0.61772 0.37627 0.4564 0.0
C1407 C 0.60677 0.39663 0.44143 0.0
C1408 C 0.6211 0.38048 0.48295 0.0
C1409 C 0.6324 0.35969 0.49983 0.0
C1410 C 0.61882 0.32746 0.50298 0.0
C1411 C 0.63 0.30797 0.51852 0.0
C1412 C 0.65458 0.3205 0.53122 0.0
C1413 C 0.66799 0.35258 0.52847 0.0
C1414 C 0.65694 0.37215 0.51288 0.0
C1415 C 0.55277 0.46971 0.50312 0.0
C1416 C 0.57025 0.4903 0.51909 0.0
C1417 C 0.56284 0.44842 0.49 0.0
C1418 C 0.59059 0.44743 0.49249 0.0
C1419 C 0.608 0.46796 0.50844 0.0
C1420 C 0.598 0.48918 0.52151 0.0
C1421 C 0.60121 0.42431 0.47921 0.0
C1422 C 0.61282 0.40439 0.494 0.0
C1423 C 0.59905 0.42102 0.45241 0.0
C1424 C 0.59014 0.44368 0.43534 0.0
C1425 C 0.60415 0.47576 0.43507 0.0
C1426 C 0.5956 0.4972 0.41921 0.0
C1427 C 0.57319 0.48679 0.40333 0.0
C1428 C 0.55937 0.45491 0.40323 0.0
C1429 C 0.56782 0.43337 0.41911 0.0
H1430 H 0.56658 0.50342 0.39105 0.0
H1431 H 0.66321 0.30537 0.54324 0.0
loop_
_geom_bond_atom_site_label_1
_geom_bond_atom_site_label_2
_geom_bond_distance
_geom_bond_site_symmetry_2
_ccdc_geom_bond_type
H0 C1 0.949 . S
C1 H0 0.949 . S
C1 C2 1.395 . S
C1 C3 1.391 . S
C2 C1 1.395 . S
C2 C5 1.390 . S
C3 C1 1.391 . S
C3 C7 1.387 . S
C3 C8 1.491 . S
H4 C5 0.950 . S
C5 C2 1.390 . S
C5 H4 0.950 . S
C5 C6 1.378 . S
C6 C5 1.378 . S
C6 C7 1.409 . S
C7 C3 1.387 . S
C7 C6 1.409 . S
C7 H9 0.951 . S
C8 C3 1.491 . S
C8 C10 1.382 . S
C8 C12 1.404 . S
H9 C7 0.951 . S
C10 C8 1.382 . S
C10 C11 1.390 . S
C10 H15 0.949 . S
C11 C10 1.390 . S
C11 C16 1.399 . S
C12 C8 1.404 . S
C12 H13 0.950 . S
C12 C14 1.375 . S
H13 C12 0.950 . S
C14 C12 1.375 . S
C14 C16 1.382 . S
C14 H18 0.950 . S
H15 C10 0.949 . S
C16 C11 1.399 . S
C16 C14 1.382 . S
C16 H17 0.952 . S
H17 C16 0.952 . S
H18 C14 0.950 . S
H19 C20 0.949 . S
C20 H19 0.949 . S
C20 C21 1.395 . S
C20 C22 1.391 . S
C21 C20 1.395 . S
C21 C24 1.390 . S
C22 C20 1.391 . S
C22 C26 1.387 . S
C22 C27 1.491 . S
H23 C24 0.950 . S
C24 C21 1.390 . S
C24 H23 0.950 . S
C24 C25 1.378 . S
C25 C24 1.378 . S
C25 C26 1.409 . S
C26 C22 1.387 . S
C26 C25 1.409 . S
C26 H28 0.951 . S
C27 C22 1.491 . S
C27 C29 1.382 . S
C27 C31 1.404 . S
H28 C26 0.951 . S
C29 C27 1.382 . S
C29 C30 1.390 . S
C29 H34 0.949 . S
C30 C29 1.390 . S
C30 C35 1.399 . S
C31 C27 1.404 . S
C31 H32 0.950 . S
C31 C33 1.375 . S
H32 C31 0.950 . S
C33 C31 1.375 . S
C33 C35 1.382 . S
C33 H37 0.950 . S
H34 C29 0.949 . S
C35 C30 1.399 . S
C35 C33 1.382 . S
C35 H36 0.952 . S
H36 C35 0.952 . S
H37 C33 0.950 . S
H38 C39 0.949 . S
C39 H38 0.949 . S
C39 C40 1.395 . S
C39 C41 1.391 . S
C40 C39 1.395 . S
C40 C43 1.390 . S
C41 C39 1.391 . S
C41 C45 1.387 . S
C41 C46 1.491 . S
H42 C43 0.950 . S
C43 C40 1.390 . S
C43 H42 0.950 . S
C43 C44 1.378 . S
C44 C43 1.378 . S
C44 C45 1.409 . S
C45 C41 1.387 . S
C45 C44 1.409 . S
C45 H47 0.951 . S
C46 C41 1.491 . S
C46 C48 1.382 . S
C46 C50 1.404 . S
H47 C45 0.951 . S
C48 C46 1.382 . S
C48 C49 1.390 . S
C48 H53 0.949 . S
C49 C48 1.390 . S
C49 C54 1.399 . S
C50 C46 1.404 . S
C50 H51 0.950 . S
C50 C52 1.375 . S
H51 C50 0.950 . S
C52 C50 1.375 . S
C52 C54 1.382 . S
C52 H56 0.950 . S
H53 C48 0.949 . S
C54 C49 1.399 . S
C54 C52 1.382 . S
C54 H55 0.952 . S
H55 C54 0.952 . S
H56 C52 0.950 . S
H57 C58 0.949 . S
C58 H57 0.949 . S
C58 C59 1.395 . S
C58 C60 1.391 . S
C59 C58 1.395 . S
C59 C62 1.390 . S
C60 C58 1.391 . S
C60 C64 1.387 . S
C60 C65 1.491 . S
H61 C62 0.950 . S
C62 C59 1.390 . S
C62 H61 0.950 . S
C62 C63 1.378 . S
C63 C62 1.378 . S
C63 C64 1.409 . S
C64 C60 1.387 . S
C64 C63 1.409 . S
C64 H66 0.951 . S
C65 C60 1.491 . S
C65 C67 1.382 . S
C65 C69 1.404 . S
H66 C64 0.951 . S
C67 C65 1.382 . S
C67 C68 1.390 . S
C67 H72 0.949 . S
C68 C67 1.390 . S
C68 C73 1.399 . S
C69 C65 1.404 . S
C69 H70 0.950 . S
C69 C71 1.375 . S
H70 C69 0.950 . S
C71 C69 1.375 . S
C71 C73 1.382 . S
C71 H75 0.950 . S
H72 C67 0.949 . S
C73 C68 1.399 . S
C73 C71 1.382 . S
C73 H74 0.952 . S
H74 C73 0.952 . S
H75 C71 0.950 . S
H76 C77 0.949 . S
C77 H76 0.949 . S
C77 C78 1.395 . S
C77 C79 1.391 . S
C78 C77 1.395 . S
C78 C81 1.390 . S
C79 C77 1.391 . S
C79 C83 1.387 . S
C79 C84 1.491 . S
H80 C81 0.950 . S
C81 C78 1.390 . S
C81 H80 0.950 . S
C81 C82 1.378 . S
C82 C81 1.378 . S
C82 C83 1.409 . S
C83 C79 1.387 . S
C83 C82 1.409 . S
C83 H85 0.951 . S
C84 C79 1.491 . S
C84 C86 1.382 . S
C84 C88 1.404 . S
H85 C83 0.951 . S
C86 C84 1.382 . S
C86 C87 1.390 . S
C86 H91 0.949 . S
C87 C86 1.390 . S
C87 C92 1.399 . S
C88 C84 1.404 . S
C88 H89 0.950 . S
C88 C90 1.375 . S
H89 C88 0.950 . S
C90 C88 1.375 . S
C90 C92 1.382 . S
C90 H94 0.950 . S
H91 C86 0.949 . S
C92 C87 1.399 . S
C92 C90 1.382 . S
C92 H93 0.952 . S
H93 C92 0.952 . S
H94 C90 0.950 . S
H95 C96 0.949 . S
C96 H95 0.949 . S
C96 C97 1.395 . S
C96 C98 1.391 . S
C97 C96 1.395 . S
C97 C100 1.390 . S
C98 C96 1.391 . S
C98 C102 1.387 . S
C98 C103 1.491 . S
H99 C100 0.950 . S
C100 C97 1.390 . S
C100 H99 0.950 . S
C100 C101 1.378 . S
C101 C100 1.378 . S
C101 C102 1.409 . S
C102 C98 1.387 . S
C102 C101 1.409 . S
C102 H104 0.951 . S
C103 C98 1.491 . S
C103 C105 1.382 . S
C103 C107 1.404 . S
H104 C102 0.951 . S
C105 C103 1.382 . S
C105 C106 1.390 . S
C105 H110 0.949 . S
C106 C105 1.390 . S
C106 C111 1.399 . S
C107 C103 1.404 . S
C107 H108 0.950 . S
C107 C109 1.375 . S
H108 C107 0.950 . S
C109 C107 1.375 . S
C109 C111 1.382 . S
C109 H113 0.950 . S
H110 C105 0.949 . S
C111 C106 1.399 . S
C111 C109 1.382 . S
C111 H112 0.952 . S
H112 C111 0.952 . S
H113 C109 0.950 . S
H114 C115 0.949 . S
C115 H114 0.949 . S
C115 C116 1.395 . S
C115 C117 1.391 . S
C116 C115 1.395 . S
C116 C119 1.390 . S
C117 C115 1.391 . S
C117 C121 1.387 . S
C117 C122 1.491 . S
H118 C119 0.950 . S
C119 C116 1.390 . S
C119 H118 0.950 . S
C119 C120 1.378 . S
C120 C119 1.378 . S
C120 C121 1.409 . S
C121 C117 1.387 . S
C121 C120 1.409 . S
C121 H123 0.951 . S
C122 C117 1.491 . S
C122 C124 1.382 . S
C122 C126 1.404 . S
H123 C121 0.951 . S
C124 C122 1.382 . S
C124 C125 1.390 . S
C124 H129 0.949 . S
C125 C124 1.390 . S
C125 C130 1.399 . S
C126 C122 1.404 . S
C126 H127 0.950 . S
C126 C128 1.375 . S
H127 C126 0.950 . S
C128 C126 1.375 . S
C128 C130 1.382 . S
C128 H132 0.950 . S
H129 C124 0.949 . S
C130 C125 1.399 . S
C130 C128 1.382 . S
C130 H131 0.952 . S
H131 C130 0.952 . S
H132 C128 0.950 . S
H133 C134 0.949 . S
C134 H133 0.949 . S
C134 C135 1.395 . S
C134 C136 1.391 . S
C135 C134 1.395 . S
C135 C138 1.390 . S
C136 C134 1.391 . S
C136 C140 1.387 . S
C136 C141 1.491 . S
H137 C138 0.950 . S
C138 C135 1.390 . S
C138 H137 0.950 . S
C138 C139 1.378 . S
C139 C138 1.378 . S
C139 C140 1.409 . S
C140 C136 1.387 . S
C140 C139 1.409 . S
C140 H142 0.951 . S
C141 C136 1.491 . S
C141 C143 1.382 . S
C141 C145 1.404 . S
H142 C140 0.951 . S
C143 C141 1.382 . S
C143 C144 1.390 . S
C143 H148 0.949 . S
C144 C143 1.390 . S
C144 C149 1.399 . S
C145 C141 1.404 . S
C145 H146 0.950 . S
C145 C147 1.375 . S
H146 C145 0.950 . S
C147 C145 1.375 . S
C147 C149 1.382 . S
C147 H151 0.950 . S
H148 C143 0.949 . S
C149 C144 1.399 . S
C149 C147 1.382 . S
C149 H150 0.952 . S
H150 C149 0.952 . S
H151 C147 0.950 . S
Zn152 O158 1.969 . S
Zn152 O159 1.965 . S
Zn152 O163 2.024 . S
Zn152 O168 1.969 . S
Zn153 O160 1.969 . S
Zn153 O166 1.969 . S
Zn153 O167 1.965 1_655 S
Zn153 O169 2.024 1_545 S
C154 O155 1.229 . S
C154 O163 1.058 . S
O155 C154 1.229 . S
C156 O157 1.229 . S
C156 O169 1.058 . S
O157 C156 1.229 . S
O158 Zn152 1.969 . S
O158 C161 1.267 . S
O159 Zn152 1.965 . S
O159 C170 1.260 1_455 S
O160 Zn153 1.969 . S
O160 C170 1.258 . S
C161 O158 1.267 . S
C161 O162 1.228 . S
O162 C161 1.228 . S
O163 Zn152 2.024 . S
O163 C154 1.058 . S
C164 O165 1.228 . S
C164 O166 1.267 . S
O165 C164 1.228 . S
O166 Zn153 1.969 . S
O166 C164 1.267 . S
O167 Zn153 1.965 1_455 S
O167 C171 1.260 . S
O168 Zn152 1.969 . S
O168 C171 1.258 . S
O169 Zn153 2.024 1_565 S
O169 C156 1.058 . S
C170 O159 1.260 1_655 S
C170 O160 1.258 . S
C171 O167 1.260 . S
C171 O168 1.258 . S
Zn172 O178 1.969 . S
Zn172 O179 1.965 1_565 S
Zn172 O183 2.024 . S
Zn172 O188 1.969 . S
Zn173 O180 1.969 . S
Zn173 O186 1.969 . S
Zn173 O187 1.965 . S
Zn173 O189 2.024 . S
C174 O175 1.234 . S
C174 O183 1.067 . S
O175 C174 1.234 . S
C176 O177 1.229 . S
C176 O189 1.058 . S
O177 C176 1.229 . S
O178 Zn172 1.969 . S
O178 C181 1.267 . S
O179 Zn172 1.965 1_545 S
O179 C190 1.260 . S
O180 Zn173 1.969 . S
O180 C190 1.258 . S
C181 O178 1.267 . S
C181 O182 1.228 1_554 S
O182 C181 1.228 1_556 S
O183 Zn172 2.024 . S
O183 C174 1.067 . S
C184 O185 1.228 . S
C184 O186 1.267 . S
O185 C184 1.228 . S
O186 Zn173 1.969 . S
O186 C184 1.267 . S
O187 Zn173 1.965 . S
O187 C191 1.260 1_545 S
O188 Zn172 1.969 . S
O188 C191 1.258 . S
O189 Zn173 2.024 . S
O189 C176 1.058 . S
C190 O179 1.260 . S
C190 O180 1.258 . S
C191 O187 1.260 1_565 S
C191 O188 1.258 . S
Zn192 O198 1.969 . S
Zn192 O199 1.965 . S
Zn192 O203 2.024 . S
Zn192 O208 1.969 . S
Zn193 O200 1.969 . S
Zn193 O206 1.969 . S
Zn193 O207 1.965 . S
Zn193 O209 2.024 . S
C194 O195 1.229 . S
C194 O203 1.058 . S
O195 C194 1.229 . S
C196 O197 1.229 . S
C196 O209 1.058 . S
O197 C196 1.229 . S
O198 Zn192 1.969 . S
O198 C201 1.267 . S
O199 Zn192 1.965 . S
O199 C210 1.260 . S
O200 Zn193 1.969 . S
O200 C210 1.258 . S
C201 O198 1.267 . S
C201 O202 1.228 . S
O202 C201 1.228 . S
O203 Zn192 2.024 . S
O203 C194 1.058 . S
C204 O205 1.228 . S
C204 O206 1.267 . S
O205 C204 1.228 . S
O206 Zn193 1.969 . S
O206 C204 1.267 . S
O207 Zn193 1.965 . S
O207 C211 1.260 . S
O208 Zn192 1.969 . S
O208 C211 1.258 . S
O209 Zn193 2.024 . S
O209 C196 1.058 . S
C210 O199 1.260 . S
C210 O200 1.258 . S
C211 O207 1.260 . S
C211 O208 1.258 . S
Zn212 O218 1.969 1_655 S
Zn212 O219 1.965 1_656 S
Zn212 O223 2.024 . S
Zn212 O228 1.969 1_655 S
Zn213 O220 1.969 . S
Zn213 O226 1.969 . S
Zn213 O227 1.965 . S
Zn213 O229 2.024 . S
C214 O215 1.229 . S
C214 O223 1.058 . S
O215 C214 1.229 . S
C216 O217 1.229 . S
C216 O229 1.058 . S
O217 C216 1.229 . S
O218 Zn212 1.969 1_455 S
O218 C221 1.267 1_455 S
O219 Zn212 1.965 1_454 S
O219 C230 1.260 . S
O220 Zn213 1.969 . S
O220 C230 1.258 . S
C221 O218 1.267 1_655 S
C221 O222 1.228 . S
O222 C221 1.228 . S
O223 Zn212 2.024 . S
O223 C214 1.058 . S
C224 O225 1.228 . S
C224 O226 1.267 . S
O225 C224 1.228 . S
O226 Zn213 1.969 . S
O226 C224 1.267 . S
O227 Zn213 1.965 . S
O227 C231 1.260 1_554 S
O228 Zn212 1.969 1_455 S
O228 C231 1.258 . S
O229 Zn213 2.024 . S
O229 C216 1.058 . S
C230 O219 1.260 . S
C230 O220 1.258 . S
C231 O227 1.260 1_556 S
C231 O228 1.258 . S
H232 C250 0.951 . S
H233 C252 0.951 . S
H234 C254 0.950 . S
H235 C255 0.950 . S
H236 C257 0.950 . S
H237 C260 0.950 . S
H238 C261 0.950 . S
H239 C263 0.950 . S
H240 C264 0.950 . S
H241 C265 0.951 . S
H242 C267 0.951 . S
H243 C269 0.950 . S
H244 C270 0.950 . S
H245 C272 0.950 . S
H246 C275 0.950 . S
H247 C276 0.950 . S
H248 C278 0.950 . S
H249 C279 0.950 . S
C250 H232 0.951 . S
C250 C251 1.366 . S
C250 C252 1.388 . S
C251 C250 1.366 . S
C251 C255 1.385 . S
C252 H233 0.951 . S
C252 C250 1.388 . S
C252 C253 1.366 . S
C253 C252 1.366 . S
C253 C254 1.414 . S
C253 C256 1.499 . S
C254 H234 0.950 . S
C254 C253 1.414 . S
C254 C255 1.374 . S
C255 H235 0.950 . S
C255 C251 1.385 . S
C255 C254 1.374 . S
C256 C253 1.499 . S
C256 C257 1.373 . S
C256 C258 1.389 . S
C257 H236 0.950 . S
C257 C256 1.373 . S
C257 C273 1.377 . S
C258 C256 1.389 . S
C258 C259 1.524 . S
C258 C272 1.377 . S
C259 C258 1.524 . S
C259 C260 1.397 . S
C259 C264 1.363 . S
C260 H237 0.950 . S
C260 C259 1.397 . S
C260 C261 1.334 . S
C261 H238 0.950 . S
C261 C260 1.334 . S
C261 C262 1.287 . S
C262 C261 1.287 . S
C262 C263 1.524 . S
C262 H281 0.913 . S
C263 H239 0.950 . S
C263 C262 1.524 . S
C263 C264 1.415 . S
C264 H240 0.950 . S
C264 C259 1.363 . S
C264 C263 1.415 . S
C265 H241 0.951 . S
C265 C266 1.366 . S
C265 C267 1.388 . S
C266 C265 1.366 . S
C266 C270 1.385 . S
C267 H242 0.951 . S
C267 C265 1.388 . S
C267 C268 1.366 . S
C268 C267 1.366 . S
C268 C269 1.414 . S
C268 C271 1.499 . S
C269 H243 0.950 . S
C269 C268 1.414 . S
C269 C270 1.374 . S
C270 H244 0.950 . S
C270 C266 1.385 . S
C270 C269 1.374 . S
C271 C268 1.499 . S
C271 C272 1.373 . S
C271 C273 1.389 . S
C272 H245 0.950 . S
C272 C258 1.377 . S
C272 C271 1.373 . S
C273 C257 1.377 . S
C273 C271 1.389 . S
C273 C274 1.524 . S
C274 C273 1.524 . S
C274 C275 1.397 . S
C274 C279 1.363 . S
C275 H246 0.950 . S
C275 C274 1.397 . S
C275 C276 1.334 . S
C276 H247 0.950 . S
C276 C275 1.334 . S
C276 C277 1.287 . S
C277 C276 1.287 . S
C277 C278 1.524 . S
C277 H280 0.999 . S
C278 H248 0.950 . S
C278 C277 1.524 . S
C278 C279 1.415 . S
C279 H249 0.950 . S
C279 C274 1.363 . S
C279 C278 1.415 . S
H280 C277 0.999 . S
H281 C262 0.913 . S
H282 C300 0.951 . S
H283 C302 0.951 . S
H284 C304 0.950 . S
H285 C305 0.950 . S
H286 C307 0.950 . S
H287 C310 0.950 . S
H288 C311 0.950 . S
H289 C313 0.950 . S
H290 C314 0.950 . S
H291 C315 0.951 1_545 S
H292 C317 0.951 . S
H293 C319 0.950 . S
H294 C320 0.950 . S
H295 C322 0.950 . S
H296 C325 0.950 . S
H297 C326 0.950 . S
H298 C328 0.950 . S
H299 C329 0.950 . S
C300 H282 0.951 . S
C300 C301 1.366 . S
C300 C302 1.388 . S
C301 C300 1.366 . S
C301 C305 1.385 . S
C302 H283 0.951 . S
C302 C300 1.388 . S
C302 C303 1.366 . S
C303 C302 1.366 . S
C303 C304 1.414 . S
C303 C306 1.499 . S
C304 H284 0.950 . S
C304 C303 1.414 . S
C304 C305 1.374 . S
C305 H285 0.950 . S
C305 C301 1.385 . S
C305 C304 1.374 . S
C306 C303 1.499 . S
C306 C307 1.373 . S
C306 C308 1.389 . S
C307 H286 0.950 . S
C307 C306 1.373 . S
C307 C323 1.377 . S
C308 C306 1.389 . S
C308 C309 1.524 . S
C308 C322 1.377 . S
C309 C308 1.524 . S
C309 C310 1.397 . S
C309 C314 1.363 . S
C310 H287 0.950 . S
C310 C309 1.397 . S
C310 C311 1.334 . S
C311 H288 0.950 . S
C311 C310 1.334 . S
C311 C312 1.287 . S
C312 C311 1.287 . S
C312 C313 1.524 . S
C312 H331 0.913 . S
C313 H289 0.950 . S
C313 C312 1.524 . S
C313 C314 1.415 . S
C314 H290 0.950 . S
C314 C309 1.363 . S
C314 C313 1.415 . S
C315 H291 0.951 1_565 S
C315 C316 1.366 . S
C315 C317 1.388 . S
C316 C315 1.366 . S
C316 C320 1.385 . S
C317 H292 0.951 . S
C317 C315 1.388 . S
C317 C318 1.366 . S
C318 C317 1.366 . S
C318 C319 1.414 . S
C318 C321 1.499 . S
C319 H293 0.950 . S
C319 C318 1.414 . S
C319 C320 1.374 . S
C320 H294 0.950 . S
C320 C316 1.385 . S
C320 C319 1.374 . S
C321 C318 1.499 . S
C321 C322 1.373 . S
C321 C323 1.389 . S
C322 H295 0.950 . S
C322 C308 1.377 . S
C322 C321 1.373 . S
C323 C307 1.377 . S
C323 C321 1.389 . S
C323 C324 1.524 . S
C324 C323 1.524 . S
C324 C325 1.397 . S
C324 C329 1.363 1_565 S
C325 H296 0.950 . S
C325 C324 1.397 . S
C325 C326 1.334 1_565 S
C326 H297 0.950 . S
C326 C325 1.334 1_545 S
C326 C327 1.287 . S
C327 C326 1.287 . S
C327 C328 1.524 . S
C327 H330 0.999 . S
C328 H298 0.950 . S
C328 C327 1.524 . S
C328 C329 1.415 . S
C329 H299 0.950 . S
C329 C324 1.363 1_545 S
C329 C328 1.415 . S
H330 C327 0.999 . S
H331 C312 0.913 . S
H332 C350 0.951 . S
H333 C352 0.951 . S
H334 C354 0.950 . S
H335 C355 0.950 . S
H336 C357 0.950 . S
H337 C360 0.950 . S
H338 C361 0.950 . S
H339 C363 0.950 . S
H340 C364 0.950 . S
H341 C365 0.951 . S
H342 C367 0.951 . S
H343 C369 0.950 . S
H344 C370 0.950 . S
H345 C372 0.950 . S
H346 C375 0.950 . S
H347 C376 0.950 . S
H348 C378 0.950 . S
H349 C379 0.950 . S
C350 H332 0.951 . S
C350 C351 1.366 . S
C350 C352 1.388 . S
C351 C350 1.366 . S
C351 C355 1.385 . S
C352 H333 0.951 . S
C352 C350 1.388 . S
C352 C353 1.366 . S
C353 C352 1.366 . S
C353 C354 1.414 . S
C353 C356 1.499 . S
C354 H334 0.950 . S
C354 C353 1.414 . S
C354 C355 1.374 . S
C355 H335 0.950 . S
C355 C351 1.385 . S
C355 C354 1.374 . S
C356 C353 1.499 . S
C356 C357 1.373 . S
C356 C358 1.389 . S
C357 H336 0.950 . S
C357 C356 1.373 . S
C357 C373 1.377 . S
C358 C356 1.389 . S
C358 C359 1.524 . S
C358 C372 1.377 . S
C359 C358 1.524 . S
C359 C360 1.397 . S
C359 C364 1.363 . S
C360 H337 0.950 . S
C360 C359 1.397 . S
C360 C361 1.334 . S
C361 H338 0.950 . S
C361 C360 1.334 . S
C361 C362 1.287 . S
C362 C361 1.287 . S
C362 C363 1.524 . S
C362 H381 0.913 . S
C363 H339 0.950 . S
C363 C362 1.524 . S
C363 C364 1.415 . S
C364 H340 0.950 . S
C364 C359 1.363 . S
C364 C363 1.415 . S
C365 H341 0.951 . S
C365 C366 1.366 . S
C365 C367 1.388 . S
C366 C365 1.366 . S
C366 C370 1.385 . S
C367 H342 0.951 . S
C367 C365 1.388 . S
C367 C368 1.366 . S
C368 C367 1.366 . S
C368 C369 1.414 . S
C368 C371 1.499 . S
C369 H343 0.950 . S
C369 C368 1.414 . S
C369 C370 1.374 . S
C370 H344 0.950 . S
C370 C366 1.385 . S
C370 C369 1.374 . S
C371 C368 1.499 . S
C371 C372 1.373 . S
C371 C373 1.389 . S
C372 H345 0.950 . S
C372 C358 1.377 . S
C372 C371 1.373 . S
C373 C357 1.377 . S
C373 C371 1.389 . S
C373 C374 1.524 . S
C374 C373 1.524 . S
C374 C375 1.397 . S
C374 C379 1.363 . S
C375 H346 0.950 . S
C375 C374 1.397 . S
C375 C376 1.334 . S
C376 H347 0.950 . S
C376 C375 1.334 . S
C376 C377 1.287 . S
C377 C376 1.287 . S
C377 C378 1.524 . S
C377 H380 0.999 . S
C378 H348 0.950 . S
C378 C377 1.524 . S
C378 C379 1.415 . S
C379 H349 0.950 . S
C379 C374 1.363 . S
C379 C378 1.415 . S
H380 C377 0.999 . S
H381 C362 0.913 . S
H382 C400 0.951 . S
H383 C402 0.951 . S
H384 C404 0.950 . S
H385 C405 0.950 . S
H386 C407 0.950 . S
H387 C410 0.950 . S
H388 C411 0.950 . S
H389 C413 0.950 . S
H390 C414 0.950 . S
H391 C415 0.951 . S
H392 C417 0.951 . S
H393 C419 0.950 . S
H394 C420 0.950 . S
H395 C422 0.950 . S
H396 C425 0.950 1_655 S
H397 C426 0.950 . S
H398 C428 0.950 . S
H399 C429 0.950 . S
C400 H382 0.951 . S
C400 C401 1.366 . S
C400 C402 1.388 . S
C401 C400 1.366 . S
C401 C405 1.385 . S
C402 H383 0.951 . S
C402 C400 1.388 . S
C402 C403 1.366 . S
C403 C402 1.366 . S
C403 C404 1.414 . S
C403 C406 1.499 . S
C404 H384 0.950 . S
C404 C403 1.414 . S
C404 C405 1.374 . S
C405 H385 0.950 . S
C405 C401 1.385 . S
C405 C404 1.374 . S
C406 C403 1.499 . S
C406 C407 1.373 . S
C406 C408 1.389 . S
C407 H386 0.950 . S
C407 C406 1.373 . S
C407 C423 1.377 . S
C408 C406 1.389 . S
C408 C409 1.524 . S
C408 C422 1.377 . S
C409 C408 1.524 . S
C409 C410 1.397 . S
C409 C414 1.363 . S
C410 H387 0.950 . S
C410 C409 1.397 . S
C410 C411 1.334 . S
C411 H388 0.950 . S
C411 C410 1.334 . S
C411 C412 1.287 . S
C412 C411 1.287 . S
C412 C413 1.524 . S
C412 H431 0.913 . S
C413 H389 0.950 . S
C413 C412 1.524 . S
C413 C414 1.415 . S
C414 H390 0.950 . S
C414 C409 1.363 . S
C414 C413 1.415 . S
C415 H391 0.951 . S
C415 C416 1.366 . S
C415 C417 1.388 . S
C416 C415 1.366 . S
C416 C420 1.385 . S
C417 H392 0.951 . S
C417 C415 1.388 . S
C417 C418 1.366 . S
C418 C417 1.366 . S
C418 C419 1.414 . S
C418 C421 1.499 . S
C419 H393 0.950 . S
C419 C418 1.414 . S
C419 C420 1.374 . S
C420 H394 0.950 . S
C420 C416 1.385 . S
C420 C419 1.374 . S
C421 C418 1.499 . S
C421 C422 1.373 . S
C421 C423 1.389 . S
C422 H395 0.950 . S
C422 C408 1.377 . S
C422 C421 1.373 . S
C423 C407 1.377 . S
C423 C421 1.389 . S
C423 C424 1.524 . S
C424 C423 1.524 . S
C424 C425 1.397 1_655 S
C424 C429 1.363 . S
C425 H396 0.950 1_455 S
C425 C424 1.397 1_455 S
C425 C426 1.334 . S
C426 H397 0.950 . S
C426 C425 1.334 . S
C426 C427 1.287 . S
C427 C426 1.287 . S
C427 C428 1.524 . S
C427 H430 0.999 . S
C428 H398 0.950 . S
C428 C427 1.524 . S
C428 C429 1.415 1_455 S
C429 H399 0.950 . S
C429 C424 1.363 . S
C429 C428 1.415 1_655 S
H430 C427 0.999 . S
H431 C412 0.913 . S
H432 C450 0.951 . S
H433 C452 0.951 . S
H434 C454 0.950 . S
H435 C455 0.950 . S
H436 C457 0.950 . S
H437 C460 0.950 . S
H438 C461 0.950 . S
H439 C463 0.950 . S
H440 C464 0.950 . S
H441 C465 0.951 . S
H442 C467 0.951 . S
H443 C469 0.950 . S
H444 C470 0.950 . S
H445 C472 0.950 . S
H446 C475 0.950 . S
H447 C476 0.950 . S
H448 C478 0.950 . S
H449 C479 0.950 . S
C450 H432 0.951 . S
C450 C451 1.366 . S
C450 C452 1.388 . S
C451 C450 1.366 . S
C451 C455 1.385 . S
C452 H433 0.951 . S
C452 C450 1.388 . S
C452 C453 1.366 . S
C453 C452 1.366 . S
C453 C454 1.414 . S
C453 C456 1.499 . S
C454 H434 0.950 . S
C454 C453 1.414 . S
C454 C455 1.374 . S
C455 H435 0.950 . S
C455 C451 1.385 . S
C455 C454 1.374 . S
C456 C453 1.499 . S
C456 C457 1.373 . S
C456 C458 1.389 . S
C457 H436 0.950 . S
C457 C456 1.373 . S
C457 C473 1.377 . S
C458 C456 1.389 . S
C458 C459 1.524 . S
C458 C472 1.377 . S
C459 C458 1.524 . S
C459 C460 1.397 . S
C459 C464 1.363 . S
C460 H437 0.950 . S
C460 C459 1.397 . S
C460 C461 1.334 . S
C461 H438 0.950 . S
C461 C460 1.334 . S
C461 C462 1.287 . S
C462 C461 1.287 . S
C462 C463 1.524 . S
C462 H481 0.913 . S
C463 H439 0.950 . S
C463 C462 1.524 . S
C463 C464 1.415 . S
C464 H440 0.950 . S
C464 C459 1.363 . S
C464 C463 1.415 . S
C465 H441 0.951 . S
C465 C466 1.366 . S
C465 C467 1.388 . S
C466 C465 1.366 . S
C466 C470 1.385 . S
C467 H442 0.951 . S
C467 C465 1.388 . S
C467 C468 1.366 . S
C468 C467 1.366 . S
C468 C469 1.414 . S
C468 C471 1.499 . S
C469 H443 0.950 . S
C469 C468 1.414 . S
C469 C470 1.374 . S
C470 H444 0.950 . S
C470 C466 1.385 . S
C470 C469 1.374 . S
C471 C468 1.499 . S
C471 C472 1.373 . S
C471 C473 1.389 . S
C472 H445 0.950 . S
C472 C458 1.377 . S
C472 C471 1.373 . S
C473 C457 1.377 . S
C473 C471 1.389 . S
C473 C474 1.524 . S
C474 C473 1.524 . S
C474 C475 1.397 . S
C474 C479 1.363 . S
C475 H446 0.950 . S
C475 C474 1.397 . S
C475 C476 1.334 . S
C476 H447 0.950 . S
C476 C475 1.334 . S
C476 C477 1.287 . S
C477 C476 1.287 . S
C477 C478 1.524 . S
C477 H480 0.999 . S
C478 H448 0.950 . S
C478 C477 1.524 . S
C478 C479 1.415 . S
C479 H449 0.950 . S
C479 C474 1.363 . S
C479 C478 1.415 . S
H480 C477 0.999 . S
H481 C462 0.913 . S
H482 C500 0.951 . S
H483 C502 0.951 . S
H484 C504 0.950 . S
H485 C505 0.950 . S
H486 C507 0.950 . S
H487 C510 0.950 . S
H488 C511 0.950 . S
H489 C513 0.950 . S
H490 C514 0.950 . S
H491 C515 0.951 . S
H492 C517 0.951 . S
H493 C519 0.950 . S
H494 C520 0.950 . S
H495 C522 0.950 . S
H496 C525 0.950 . S
H497 C526 0.950 . S
H498 C528 0.950 . S
H499 C529 0.950 . S
C500 H482 0.951 . S
C500 C501 1.366 . S
C500 C502 1.388 . S
C501 C500 1.366 . S
C501 C505 1.385 . S
C502 H483 0.951 . S
C502 C500 1.388 . S
C502 C503 1.366 . S
C503 C502 1.366 . S
C503 C504 1.414 . S
C503 C506 1.499 . S
C504 H484 0.950 . S
C504 C503 1.414 . S
C504 C505 1.374 . S
C505 H485 0.950 . S
C505 C501 1.385 . S
C505 C504 1.374 . S
C506 C503 1.499 . S
C506 C507 1.373 . S
C506 C508 1.389 . S
C507 H486 0.950 . S
C507 C506 1.373 . S
C507 C523 1.377 . S
C508 C506 1.389 . S
C508 C509 1.524 . S
C508 C522 1.377 . S
C509 C508 1.524 . S
C509 C510 1.400 . S
C509 C514 1.363 . S
C510 H487 0.950 . S
C510 C509 1.400 . S
C510 C511 1.331 1_565 S
C511 H488 0.950 . S
C511 C510 1.331 1_545 S
C511 C512 1.287 . S
C512 C511 1.287 . S
C512 C513 1.524 . S
C512 H531 0.913 . S
C513 H489 0.950 . S
C513 C512 1.524 . S
C513 C514 1.415 1_545 S
C514 H490 0.950 . S
C514 C509 1.363 . S
C514 C513 1.415 1_565 S
C515 H491 0.951 . S
C515 C516 1.366 . S
C515 C517 1.388 . S
C516 C515 1.366 . S
C516 C520 1.385 . S
C517 H492 0.951 . S
C517 C515 1.388 . S
C517 C518 1.366 . S
C518 C517 1.366 . S
C518 C519 1.414 . S
C518 C521 1.499 . S
C519 H493 0.950 . S
C519 C518 1.414 . S
C519 C520 1.374 . S
C520 H494 0.950 . S
C520 C516 1.385 . S
C520 C519 1.374 . S
C521 C518 1.499 . S
C521 C522 1.373 . S
C521 C523 1.389 . S
C522 H495 0.950 . S
C522 C508 1.377 . S
C522 C521 1.373 . S
C523 C507 1.377 . S
C523 C521 1.389 . S
C523 C524 1.524 . S
C524 C523 1.524 . S
C524 C525 1.397 . S
C524 C529 1.363 . S
C525 H496 0.950 . S
C525 C524 1.397 . S
C525 C526 1.334 . S
C526 H497 0.950 . S
C526 C525 1.334 . S
C526 C527 1.287 . S
C527 C526 1.287 . S
C527 C528 1.524 . S
C527 H530 0.999 . S
C528 H498 0.950 . S
C528 C527 1.524 . S
C528 C529 1.415 . S
C529 H499 0.950 . S
C529 C524 1.363 . S
C529 C528 1.415 . S
H530 C527 0.999 . S
H531 C512 0.913 . S
H532 C550 0.951 . S
H533 C552 0.951 . S
H534 C554 0.950 . S
H535 C555 0.950 . S
H536 C557 0.950 . S
H537 C560 0.950 . S
H538 C561 0.950 . S
H539 C563 0.950 . S
H540 C564 0.950 . S
H541 C565 0.951 . S
H542 C567 0.951 . S
H543 C569 0.950 . S
H544 C570 0.950 . S
H545 C572 0.950 . S
H546 C575 0.950 . S
H547 C576 0.950 . S
H548 C578 0.950 . S
H549 C579 0.950 . S
C550 H532 0.951 . S
C550 C551 1.366 . S
C550 C552 1.388 . S
C551 C550 1.366 . S
C551 C555 1.385 . S
C552 H533 0.951 . S
C552 C550 1.388 . S
C552 C553 1.366 . S
C553 C552 1.366 . S
C553 C554 1.414 . S
C553 C556 1.499 . S
C554 H534 0.950 . S
C554 C553 1.414 . S
C554 C555 1.374 . S
C555 H535 0.950 . S
C555 C551 1.385 . S
C555 C554 1.374 . S
C556 C553 1.499 . S
C556 C557 1.373 . S
C556 C558 1.389 . S
C557 H536 0.950 . S
C557 C556 1.373 . S
C557 C573 1.377 . S
C558 C556 1.389 . S
C558 C559 1.524 . S
C558 C572 1.377 . S
C559 C558 1.524 . S
C559 C560 1.397 . S
C559 C564 1.363 . S
C560 H537 0.950 . S
C560 C559 1.397 . S
C560 C561 1.334 . S
C561 H538 0.950 . S
C561 C560 1.334 . S
C561 C562 1.287 . S
C562 C561 1.287 . S
C562 C563 1.524 . S
C562 H581 0.913 . S
C563 H539 0.950 . S
C563 C562 1.524 . S
C563 C564 1.415 . S
C564 H540 0.950 . S
C564 C559 1.363 . S
C564 C563 1.415 . S
C565 H541 0.951 . S
C565 C566 1.366 . S
C565 C567 1.388 . S
C566 C565 1.366 . S
C566 C570 1.385 . S
C567 H542 0.951 . S
C567 C565 1.388 . S
C567 C568 1.366 . S
C568 C567 1.366 . S
C568 C569 1.414 . S
C568 C571 1.499 . S
C569 H543 0.950 . S
C569 C568 1.414 . S
C569 C570 1.374 . S
C570 H544 0.950 . S
C570 C566 1.385 . S
C570 C569 1.374 . S
C571 C568 1.499 . S
C571 C572 1.373 . S
C571 C573 1.389 . S
C572 H545 0.950 . S
C572 C558 1.377 . S
C572 C571 1.373 . S
C573 C557 1.377 . S
C573 C571 1.389 . S
C573 C574 1.524 . S
C574 C573 1.524 . S
C574 C575 1.397 . S
C574 C579 1.363 . S
C575 H546 0.950 . S
C575 C574 1.397 . S
C575 C576 1.334 . S
C576 H547 0.950 . S
C576 C575 1.334 . S
C576 C577 1.287 . S
C577 C576 1.287 . S
C577 C578 1.524 . S
C577 H580 0.999 . S
C578 H548 0.950 . S
C578 C577 1.524 . S
C578 C579 1.415 . S
C579 H549 0.950 . S
C579 C574 1.363 . S
C579 C578 1.415 . S
H580 C577 0.999 . S
H581 C562 0.913 . S
H582 C600 0.951 . S
H583 C602 0.951 . S
H584 C604 0.950 . S
H585 C605 0.950 . S
H586 C607 0.950 . S
H587 C610 0.950 . S
H588 C611 0.950 . S
H589 C613 0.950 . S
H590 C614 0.950 . S
H591 C615 0.951 . S
H592 C617 0.951 . S
H593 C619 0.950 . S
H594 C620 0.950 . S
H595 C622 0.950 . S
H596 C625 0.950 . S
H597 C626 0.950 . S
H598 C628 0.950 . S
H599 C629 0.950 . S
C600 H582 0.951 . S
C600 C601 1.366 . S
C600 C602 1.388 . S
C601 C600 1.366 . S
C601 C605 1.385 . S
C602 H583 0.951 . S
C602 C600 1.388 . S
C602 C603 1.366 . S
C603 C602 1.366 . S
C603 C604 1.414 . S
C603 C606 1.499 . S
C604 H584 0.950 . S
C604 C603 1.414 . S
C604 C605 1.374 . S
C605 H585 0.950 . S
C605 C601 1.385 . S
C605 C604 1.374 . S
C606 C603 1.499 . S
C606 C607 1.373 . S
C606 C608 1.389 . S
C607 H586 0.950 . S
C607 C606 1.373 . S
C607 C623 1.377 . S
C608 C606 1.389 . S
C608 C609 1.524 . S
C608 C622 1.377 . S
C609 C608 1.524 . S
C609 C610 1.397 . S
C609 C614 1.363 . S
C610 H587 0.950 . S
C610 C609 1.397 . S
C610 C611 1.334 . S
C611 H588 0.950 . S
C611 C610 1.334 . S
C611 C612 1.287 . S
C612 C611 1.287 . S
C612 C613 1.524 . S
C612 H631 0.913 . S
C613 H589 0.950 . S
C613 C612 1.524 . S
C613 C614 1.415 . S
C614 H590 0.950 . S
C614 C609 1.363 . S
C614 C613 1.415 . S
C615 H591 0.951 . S
C615 C616 1.366 . S
C615 C617 1.388 . S
C616 C615 1.366 . S
C616 C620 1.385 . S
C617 H592 0.951 . S
C617 C615 1.388 . S
C617 C618 1.366 . S
C618 C617 1.366 . S
C618 C619 1.414 . S
C618 C621 1.499 . S
C619 H593 0.950 . S
C619 C618 1.414 . S
C619 C620 1.374 . S
C620 H594 0.950 . S
C620 C616 1.385 . S
C620 C619 1.374 . S
C621 C618 1.499 . S
C621 C622 1.373 . S
C621 C623 1.389 . S
C622 H595 0.950 . S
C622 C608 1.377 . S
C622 C621 1.373 . S
C623 C607 1.377 . S
C623 C621 1.389 . S
C623 C624 1.524 . S
C624 C623 1.524 . S
C624 C625 1.397 . S
C624 C629 1.363 . S
C625 H596 0.950 . S
C625 C624 1.397 . S
C625 C626 1.334 . S
C626 H597 0.950 . S
C626 C625 1.334 . S
C626 C627 1.287 . S
C627 C626 1.287 . S
C627 C628 1.524 . S
C627 H630 0.999 . S
C628 H598 0.950 . S
C628 C627 1.524 . S
C628 C629 1.415 . S
C629 H599 0.950 . S
C629 C624 1.363 . S
C629 C628 1.415 . S
H630 C627 0.999 . S
H631 C612 0.913 . S
H632 C650 0.951 . S
H633 C652 0.951 . S
H634 C654 0.950 . S
H635 C655 0.950 . S
H636 C657 0.950 . S
H637 C660 0.950 . S
H638 C661 0.950 . S
H639 C663 0.950 . S
H640 C664 0.950 . S
H641 C665 0.951 . S
H642 C667 0.951 . S
H643 C669 0.950 . S
H644 C670 0.950 . S
H645 C672 0.950 . S
H646 C675 0.950 . S
H647 C676 0.950 . S
H648 C678 0.950 . S
H649 C679 0.950 . S
C650 H632 0.951 . S
C650 C651 1.366 . S
C650 C652 1.388 . S
C651 C650 1.366 . S
C651 C655 1.385 . S
C652 H633 0.951 . S
C652 C650 1.388 . S
C652 C653 1.366 . S
C653 C652 1.366 . S
C653 C654 1.414 . S
C653 C656 1.499 . S
C654 H634 0.950 . S
C654 C653 1.414 . S
C654 C655 1.374 . S
C655 H635 0.950 . S
C655 C651 1.385 . S
C655 C654 1.374 . S
C656 C653 1.499 . S
C656 C657 1.373 . S
C656 C658 1.389 . S
C657 H636 0.950 . S
C657 C656 1.373 . S
C657 C673 1.377 . S
C658 C656 1.389 . S
C658 C659 1.524 . S
C658 C672 1.377 . S
C659 C658 1.524 . S
C659 C660 1.397 . S
C659 C664 1.363 . S
C660 H637 0.950 . S
C660 C659 1.397 . S
C660 C661 1.334 . S
C661 H638 0.950 . S
C661 C660 1.334 . S
C661 C662 1.287 . S
C662 C661 1.287 . S
C662 C663 1.524 . S
C662 H681 0.913 . S
C663 H639 0.950 . S
C663 C662 1.524 . S
C663 C664 1.415 . S
C664 H640 0.950 . S
C664 C659 1.363 . S
C664 C663 1.415 . S
C665 H641 0.951 . S
C665 C666 1.366 . S
C665 C667 1.388 . S
C666 C665 1.366 . S
C666 C670 1.385 . S
C667 H642 0.951 . S
C667 C665 1.388 . S
C667 C668 1.366 . S
C668 C667 1.366 . S
C668 C669 1.414 . S
C668 C671 1.499 . S
C669 H643 0.950 . S
C669 C668 1.414 . S
C669 C670 1.374 . S
C670 H644 0.950 . S
C670 C666 1.385 . S
C670 C669 1.374 . S
C671 C668 1.499 . S
C671 C672 1.373 . S
C671 C673 1.389 . S
C672 H645 0.950 . S
C672 C658 1.377 . S
C672 C671 1.373 . S
C673 C657 1.377 . S
C673 C671 1.389 . S
C673 C674 1.524 . S
C674 C673 1.524 . S
C674 C675 1.397 . S
C674 C679 1.363 . S
C675 H646 0.950 . S
C675 C674 1.397 . S
C675 C676 1.334 . S
C676 H647 0.950 . S
C676 C675 1.334 . S
C676 C677 1.287 . S
C677 C676 1.287 . S
C677 C678 1.524 . S
C677 H680 0.999 . S
C678 H648 0.950 . S
C678 C677 1.524 . S
C678 C679 1.415 . S
C679 H649 0.950 . S
C679 C674 1.363 . S
C679 C678 1.415 . S
H680 C677 0.999 . S
H681 C662 0.913 . S
H682 C700 0.951 . S
H683 C702 0.951 . S
H684 C704 0.950 . S
H685 C705 0.950 . S
H686 C707 0.950 . S
H687 C710 0.950 . S
H688 C711 0.950 . S
H689 C713 0.950 . S
H690 C714 0.950 . S
H691 C715 0.951 . S
H692 C717 0.951 . S
H693 C719 0.950 . S
H694 C720 0.950 . S
H695 C722 0.950 . S
H696 C725 0.950 . S
H697 C726 0.950 . S
H698 C728 0.950 . S
H699 C729 0.950 . S
C700 H682 0.951 . S
C700 C701 1.366 . S
C700 C702 1.388 . S
C701 C700 1.366 . S
C701 C705 1.385 . S
C702 H683 0.951 . S
C702 C700 1.388 . S
C702 C703 1.366 . S
C703 C702 1.366 . S
C703 C704 1.414 . S
C703 C706 1.499 . S
C704 H684 0.950 . S
C704 C703 1.414 . S
C704 C705 1.374 . S
C705 H685 0.950 . S
C705 C701 1.385 . S
C705 C704 1.374 . S
C706 C703 1.499 . S
C706 C707 1.373 . S
C706 C708 1.389 . S
C707 H686 0.950 . S
C707 C706 1.373 . S
C707 C723 1.377 . S
C708 C706 1.389 . S
C708 C709 1.524 . S
C708 C722 1.377 . S
C709 C708 1.524 . S
C709 C710 1.397 . S
C709 C714 1.363 . S
C710 H687 0.950 . S
C710 C709 1.397 . S
C710 C711 1.334 . S
C711 H688 0.950 . S
C711 C710 1.334 . S
C711 C712 1.287 . S
C712 C711 1.287 . S
C712 C713 1.524 . S
C712 H731 0.913 . S
C713 H689 0.950 . S
C713 C712 1.524 . S
C713 C714 1.415 . S
C714 H690 0.950 . S
C714 C709 1.363 . S
C714 C713 1.415 . S
C715 H691 0.951 . S
C715 C716 1.366 . S
C715 C717 1.388 . S
C716 C715 1.366 . S
C716 C720 1.385 1_554 S
C717 H692 0.951 . S
C717 C715 1.388 . S
C717 C718 1.366 1_554 S
C718 C717 1.366 1_556 S
C718 C719 1.414 . S
C718 C721 1.499 . S
C719 H693 0.950 . S
C719 C718 1.414 . S
C719 C720 1.374 . S
C720 H694 0.950 . S
C720 C716 1.385 1_556 S
C720 C719 1.374 . S
C721 C718 1.499 . S
C721 C722 1.373 . S
C721 C723 1.389 . S
C722 H695 0.950 . S
C722 C708 1.377 . S
C722 C721 1.373 . S
C723 C707 1.377 . S
C723 C721 1.389 . S
C723 C724 1.524 . S
C724 C723 1.524 . S
C724 C725 1.397 . S
C724 C729 1.363 1_556 S
C725 H696 0.950 . S
C725 C724 1.397 . S
C725 C726 1.334 1_556 S
C726 H697 0.950 . S
C726 C725 1.334 1_554 S
C726 C727 1.287 . S
C727 C726 1.287 . S
C727 C728 1.524 . S
C727 H730 0.999 . S
C728 H698 0.950 . S
C728 C727 1.524 . S
C728 C729 1.415 . S
C729 H699 0.950 . S
C729 C724 1.363 1_554 S
C729 C728 1.415 . S
H730 C727 0.999 . S
H731 C712 0.913 . S
H732 C750 0.951 . S
H733 C752 0.951 . S
H734 C754 0.950 . S
H735 C755 0.950 . S
H736 C757 0.950 . S
H737 C760 0.950 . S
H738 C761 0.950 . S
H739 C763 0.950 . S
H740 C764 0.950 . S
H741 C765 0.951 . S
H742 C767 0.951 . S
H743 C769 0.950 . S
H744 C770 0.950 . S
H745 C772 0.950 . S
H746 C775 0.950 . S
H747 C776 0.950 . S
H748 C778 0.950 . S
H749 C779 0.950 . S
C750 H732 0.951 . S
C750 C751 1.366 . S
C750 C752 1.388 . S
C751 C750 1.366 . S
C751 C755 1.385 . S
C752 H733 0.951 . S
C752 C750 1.388 . S
C752 C753 1.366 . S
C753 C752 1.366 . S
C753 C754 1.414 . S
C753 C756 1.499 . S
C754 H734 0.950 . S
C754 C753 1.414 . S
C754 C755 1.374 . S
C755 H735 0.950 . S
C755 C751 1.385 . S
C755 C754 1.374 . S
C756 C753 1.499 . S
C756 C757 1.373 . S
C756 C758 1.389 . S
C757 H736 0.950 . S
C757 C756 1.373 . S
C757 C773 1.377 . S
C758 C756 1.389 . S
C758 C759 1.524 . S
C758 C772 1.377 . S
C759 C758 1.524 . S
C759 C760 1.397 . S
C759 C764 1.363 . S
C760 H737 0.950 . S
C760 C759 1.397 . S
C760 C761 1.334 . S
C761 H738 0.950 . S
C761 C760 1.334 . S
C761 C762 1.287 . S
C762 C761 1.287 . S
C762 C763 1.524 . S
C762 H781 0.913 . S
C763 H739 0.950 . S
C763 C762 1.524 . S
C763 C764 1.415 . S
C764 H740 0.950 . S
C764 C759 1.363 . S
C764 C763 1.415 . S
C765 H741 0.951 . S
C765 C766 1.366 . S
C765 C767 1.388 . S
C766 C765 1.366 . S
C766 C770 1.385 . S
C767 H742 0.951 . S
C767 C765 1.388 . S
C767 C768 1.366 . S
C768 C767 1.366 . S
C768 C769 1.414 . S
C768 C771 1.499 . S
C769 H743 0.950 . S
C769 C768 1.414 . S
C769 C770 1.374 . S
C770 H744 0.950 . S
C770 C766 1.385 . S
C770 C769 1.374 . S
C771 C768 1.499 . S
C771 C772 1.373 . S
C771 C773 1.389 . S
C772 H745 0.950 . S
C772 C758 1.377 . S
C772 C771 1.373 . S
C773 C757 1.377 . S
C773 C771 1.389 . S
C773 C774 1.524 . S
C774 C773 1.524 . S
C774 C775 1.397 . S
C774 C779 1.363 . S
C775 H746 0.950 . S
C775 C774 1.397 . S
C775 C776 1.334 . S
C776 H747 0.950 . S
C776 C775 1.334 . S
C776 C777 1.287 . S
C777 C776 1.287 . S
C777 C778 1.524 . S
C777 H780 0.999 1_565 S
C778 H748 0.950 . S
C778 C777 1.524 . S
C778 C779 1.415 . S
C779 H749 0.950 . S
C779 C774 1.363 . S
C779 C778 1.415 . S
H780 C777 0.999 1_545 S
H781 C762 0.913 . S
H782 C800 0.951 . S
H783 C802 0.951 . S
H784 C804 0.950 . S
H785 C805 0.950 . S
H786 C807 0.950 . S
H787 C810 0.950 . S
H788 C811 0.950 . S
H789 C813 0.950 . S
H790 C814 0.950 . S
H791 C815 0.951 . S
H792 C817 0.951 . S
H793 C819 0.950 . S
H794 C820 0.950 . S
H795 C822 0.950 . S
H796 C825 0.950 . S
H797 C826 0.950 . S
H798 C828 0.950 . S
H799 C829 0.950 . S
C800 H782 0.951 . S
C800 C801 1.366 . S
C800 C802 1.388 . S
C801 C800 1.366 . S
C801 C805 1.385 . S
C802 H783 0.951 . S
C802 C800 1.388 . S
C802 C803 1.366 . S
C803 C802 1.366 . S
C803 C804 1.414 . S
C803 C806 1.499 . S
C804 H784 0.950 . S
C804 C803 1.414 . S
C804 C805 1.374 . S
C805 H785 0.950 . S
C805 C801 1.385 . S
C805 C804 1.374 . S
C806 C803 1.499 . S
C806 C807 1.373 . S
C806 C808 1.389 . S
C807 H786 0.950 . S
C807 C806 1.373 . S
C807 C823 1.377 . S
C808 C806 1.389 . S
C808 C809 1.524 . S
C808 C822 1.377 . S
C809 C808 1.524 . S
C809 C810 1.397 . S
C809 C814 1.363 . S
C810 H787 0.950 . S
C810 C809 1.397 . S
C810 C811 1.334 . S
C811 H788 0.950 . S
C811 C810 1.334 . S
C811 C812 1.287 . S
C812 C811 1.287 . S
C812 C813 1.524 . S
C812 H831 0.913 . S
C813 H789 0.950 . S
C813 C812 1.524 . S
C813 C814 1.415 . S
C814 H790 0.950 . S
C814 C809 1.363 . S
C814 C813 1.415 . S
C815 H791 0.951 . S
C815 C816 1.366 . S
C815 C817 1.388 . S
C816 C815 1.366 . S
C816 C820 1.385 . S
C817 H792 0.951 . S
C817 C815 1.388 . S
C817 C818 1.366 . S
C818 C817 1.366 . S
C818 C819 1.414 . S
C818 C821 1.499 . S
C819 H793 0.950 . S
C819 C818 1.414 . S
C819 C820 1.374 . S
C820 H794 0.950 . S
C820 C816 1.385 . S
C820 C819 1.374 . S
C821 C818 1.499 . S
C821 C822 1.373 . S
C821 C823 1.389 . S
C822 H795 0.950 . S
C822 C808 1.377 . S
C822 C821 1.373 . S
C823 C807 1.377 . S
C823 C821 1.389 . S
C823 C824 1.524 . S
C824 C823 1.524 . S
C824 C825 1.397 . S
C824 C829 1.363 . S
C825 H796 0.950 . S
C825 C824 1.397 . S
C825 C826 1.334 . S
C826 H797 0.950 . S
C826 C825 1.334 . S
C826 C827 1.287 . S
C827 C826 1.287 . S
C827 C828 1.524 . S
C827 H830 0.999 . S
C828 H798 0.950 . S
C828 C827 1.524 . S
C828 C829 1.415 . S
C829 H799 0.950 . S
C829 C824 1.363 . S
C829 C828 1.415 . S
H830 C827 0.999 . S
H831 C812 0.913 . S
H832 C850 0.951 . S
H833 C852 0.951 . S
H834 C854 0.950 . S
H835 C855 0.950 . S
H836 C857 0.950 . S
H837 C860 0.950 . S
H838 C861 0.950 . S
H839 C863 0.950 . S
H840 C864 0.950 . S
H841 C865 0.951 . S
H842 C867 0.951 . S
H843 C869 0.950 . S
H844 C870 0.950 1_545 S
H845 C872 0.950 . S
H846 C875 0.950 . S
H847 C876 0.938 1_455 S
H848 C878 0.950 . S
H849 C879 0.950 . S
C850 H832 0.951 . S
C850 C851 1.366 . S
C850 C852 1.388 . S
C851 C850 1.366 . S
C851 C855 1.385 . S
C852 H833 0.951 . S
C852 C850 1.388 . S
C852 C853 1.366 . S
C853 C852 1.366 . S
C853 C854 1.414 . S
C853 C856 1.499 . S
C854 H834 0.950 . S
C854 C853 1.414 . S
C854 C855 1.374 . S
C855 H835 0.950 . S
C855 C851 1.385 . S
C855 C854 1.374 . S
C856 C853 1.499 . S
C856 C857 1.373 . S
C856 C858 1.389 . S
C857 H836 0.950 . S
C857 C856 1.373 . S
C857 C873 1.377 . S
C858 C856 1.389 . S
C858 C859 1.524 . S
C858 C872 1.377 . S
C859 C858 1.524 . S
C859 C860 1.397 . S
C859 C864 1.363 . S
C860 H837 0.950 . S
C860 C859 1.397 . S
C860 C861 1.334 . S
C861 H838 0.950 . S
C861 C860 1.334 . S
C861 C862 1.287 . S
C862 C861 1.287 . S
C862 C863 1.524 . S
C862 H881 0.913 . S
C863 H839 0.950 . S
C863 C862 1.524 . S
C863 C864 1.415 . S
C864 H840 0.950 . S
C864 C859 1.363 . S
C864 C863 1.415 . S
C865 H841 0.951 . S
C865 C866 1.366 . S
C865 C867 1.388 . S
C866 C865 1.366 . S
C866 C870 1.385 . S
C867 H842 0.951 . S
C867 C865 1.388 . S
C867 C868 1.366 . S
C868 C867 1.366 . S
C868 C869 1.414 . S
C868 C871 1.499 . S
C869 H843 0.950 . S
C869 C868 1.414 . S
C869 C870 1.374 . S
C870 H844 0.950 1_565 S
C870 C866 1.385 . S
C870 C869 1.374 . S
C871 C868 1.499 . S
C871 C872 1.373 . S
C871 C873 1.389 . S
C872 H845 0.950 . S
C872 C858 1.377 . S
C872 C871 1.373 . S
C873 C857 1.377 . S
C873 C871 1.389 . S
C873 C874 1.524 . S
C874 C873 1.524 . S
C874 C875 1.397 . S
C874 C879 1.363 . S
C875 H846 0.950 . S
C875 C874 1.397 . S
C875 C876 1.359 . S
C876 H847 0.938 1_655 S
C876 C875 1.359 . S
C876 C877 1.274 1_655 S
C877 C876 1.274 1_455 S
C877 C878 1.524 1_455 S
C877 H880 0.999 . S
C878 H848 0.950 . S
C878 C877 1.524 1_655 S
C878 C879 1.415 . S
C879 H849 0.950 . S
C879 C874 1.363 . S
C879 C878 1.415 . S
H880 C877 0.999 . S
H881 C862 0.913 . S
H882 C900 0.951 . S
H883 C902 0.951 . S
H884 C904 0.950 . S
H885 C905 0.950 . S
H886 C907 0.950 . S
H887 C910 0.950 . S
H888 C911 0.950 . S
H889 C913 0.950 . S
H890 C914 0.950 . S
H891 C915 0.951 . S
H892 C917 0.951 . S
H893 C919 0.950 . S
H894 C920 0.950 . S
H895 C922 0.950 . S
H896 C925 0.950 . S
H897 C926 0.950 . S
H898 C928 0.950 . S
H899 C929 0.950 . S
C900 H882 0.951 . S
C900 C901 1.366 . S
C900 C902 1.388 . S
C901 C900 1.366 . S
C901 C905 1.385 . S
C902 H883 0.951 . S
C902 C900 1.388 . S
C902 C903 1.366 . S
C903 C902 1.366 . S
C903 C904 1.414 . S
C903 C906 1.499 . S
C904 H884 0.950 . S
C904 C903 1.414 . S
C904 C905 1.374 . S
C905 H885 0.950 . S
C905 C901 1.385 . S
C905 C904 1.374 . S
C906 C903 1.499 . S
C906 C907 1.373 . S
C906 C908 1.389 . S
C907 H886 0.950 . S
C907 C906 1.373 . S
C907 C923 1.377 . S
C908 C906 1.389 . S
C908 C909 1.524 . S
C908 C922 1.377 . S
C909 C908 1.524 . S
C909 C910 1.397 . S
C909 C914 1.363 . S
C910 H887 0.950 . S
C910 C909 1.397 . S
C910 C911 1.334 . S
C911 H888 0.950 . S
C911 C910 1.334 . S
C911 C912 1.287 . S
C912 C911 1.287 . S
C912 C913 1.524 . S
C912 H931 0.913 . S
C913 H889 0.950 . S
C913 C912 1.524 . S
C913 C914 1.415 . S
C914 H890 0.950 . S
C914 C909 1.363 . S
C914 C913 1.415 . S
C915 H891 0.951 . S
C915 C916 1.366 . S
C915 C917 1.388 . S
C916 C915 1.366 . S
C916 C920 1.385 . S
C917 H892 0.951 . S
C917 C915 1.388 . S
C917 C918 1.366 . S
C918 C917 1.366 . S
C918 C919 1.414 . S
C918 C921 1.499 . S
C919 H893 0.950 . S
C919 C918 1.414 . S
C919 C920 1.374 . S
C920 H894 0.950 . S
C920 C916 1.385 . S
C920 C919 1.374 . S
C921 C918 1.499 . S
C921 C922 1.373 . S
C921 C923 1.389 . S
C922 H895 0.950 . S
C922 C908 1.377 . S
C922 C921 1.373 . S
C923 C907 1.377 . S
C923 C921 1.389 . S
C923 C924 1.524 . S
C924 C923 1.524 . S
C924 C925 1.397 . S
C924 C929 1.363 . S
C925 H896 0.950 . S
C925 C924 1.397 . S
C925 C926 1.334 . S
C926 H897 0.950 . S
C926 C925 1.334 . S
C926 C927 1.287 . S
C927 C926 1.287 . S
C927 C928 1.524 . S
C927 H930 0.999 . S
C928 H898 0.950 . S
C928 C927 1.524 . S
C928 C929 1.415 . S
C929 H899 0.950 . S
C929 C924 1.363 . S
C929 C928 1.415 . S
H930 C927 0.999 . S
H931 C912 0.913 . S
H932 C950 0.951 . S
H933 C952 0.951 . S
H934 C954 0.950 . S
H935 C955 0.950 . S
H936 C957 0.950 . S
H937 C960 0.950 . S
H938 C961 0.950 . S
H939 C963 0.950 . S
H940 C964 0.950 . S
H941 C965 0.951 . S
H942 C967 0.951 . S
H943 C969 0.950 . S
H944 C970 0.950 . S
H945 C972 0.950 . S
H946 C975 0.950 . S
H947 C976 0.950 . S
H948 C978 0.950 . S
H949 C979 0.950 . S
C950 H932 0.951 . S
C950 C951 1.366 . S
C950 C952 1.388 . S
C951 C950 1.366 . S
C951 C955 1.385 . S
C952 H933 0.951 . S
C952 C950 1.388 . S
C952 C953 1.366 . S
C953 C952 1.366 . S
C953 C954 1.414 . S
C953 C956 1.499 . S
C954 H934 0.950 . S
C954 C953 1.414 . S
C954 C955 1.374 . S
C955 H935 0.950 . S
C955 C951 1.385 . S
C955 C954 1.374 . S
C956 C953 1.499 . S
C956 C957 1.373 . S
C956 C958 1.389 . S
C957 H936 0.950 . S
C957 C956 1.373 . S
C957 C973 1.377 . S
C958 C956 1.389 . S
C958 C959 1.524 . S
C958 C972 1.377 . S
C959 C958 1.524 . S
C959 C960 1.397 . S
C959 C964 1.363 . S
C960 H937 0.950 . S
C960 C959 1.397 . S
C960 C961 1.334 . S
C961 H938 0.950 . S
C961 C960 1.334 . S
C961 C962 1.287 . S
C962 C961 1.287 . S
C962 C963 1.524 . S
C962 H981 0.913 . S
C963 H939 0.950 . S
C963 C962 1.524 . S
C963 C964 1.415 . S
C964 H940 0.950 . S
C964 C959 1.363 . S
C964 C963 1.415 . S
C965 H941 0.951 . S
C965 C966 1.366 . S
C965 C967 1.388 . S
C966 C965 1.366 . S
C966 C970 1.385 . S
C967 H942 0.951 . S
C967 C965 1.388 . S
C967 C968 1.366 . S
C968 C967 1.366 . S
C968 C969 1.414 . S
C968 C971 1.499 . S
C969 H943 0.950 . S
C969 C968 1.414 . S
C969 C970 1.374 . S
C970 H944 0.950 . S
C970 C966 1.385 . S
C970 C969 1.374 . S
C971 C968 1.499 . S
C971 C972 1.373 . S
C971 C973 1.389 . S
C972 H945 0.950 . S
C972 C958 1.377 . S
C972 C971 1.373 . S
C973 C957 1.377 . S
C973 C971 1.389 . S
C973 C974 1.524 . S
C974 C973 1.524 . S
C974 C975 1.397 . S
C974 C979 1.363 . S
C975 H946 0.950 . S
C975 C974 1.397 . S
C975 C976 1.334 . S
C976 H947 0.950 . S
C976 C975 1.334 . S
C976 C977 1.287 . S
C977 C976 1.287 . S
C977 C978 1.524 . S
C977 H980 0.999 . S
C978 H948 0.950 . S
C978 C977 1.524 . S
C978 C979 1.415 . S
C979 H949 0.950 . S
C979 C974 1.363 . S
C979 C978 1.415 . S
H980 C977 0.999 . S
H981 C962 0.913 . S
H982 C1000 0.951 . S
H983 C1002 0.951 . S
H984 C1004 0.950 . S
H985 C1005 0.950 . S
H986 C1007 0.950 . S
H987 C1010 0.950 . S
H988 C1011 0.950 . S
H989 C1013 0.950 . S
H990 C1014 0.950 . S
H991 C1015 0.951 . S
H992 C1017 0.951 . S
H993 C1019 0.950 . S
H994 C1020 0.950 . S
H995 C1022 0.950 . S
H996 C1025 0.950 . S
H997 C1026 0.950 . S
H998 C1028 0.950 . S
H999 C1029 0.950 . S
C1000 H982 0.951 . S
C1000 C1001 1.366 . S
C1000 C1002 1.388 . S
C1001 C1000 1.366 . S
C1001 C1005 1.385 . S
C1002 H983 0.951 . S
C1002 C1000 1.388 . S
C1002 C1003 1.366 . S
C1003 C1002 1.366 . S
C1003 C1004 1.414 . S
C1003 C1006 1.499 . S
C1004 H984 0.950 . S
C1004 C1003 1.414 . S
C1004 C1005 1.374 . S
C1005 H985 0.950 . S
C1005 C1001 1.385 . S
C1005 C1004 1.374 . S
C1006 C1003 1.499 . S
C1006 C1007 1.373 . S
C1006 C1008 1.389 . S
C1007 H986 0.950 . S
C1007 C1006 1.373 . S
C1007 C1023 1.377 . S
C1008 C1006 1.389 . S
C1008 C1009 1.524 . S
C1008 C1022 1.377 . S
C1009 C1008 1.524 . S
C1009 C1010 1.397 . S
C1009 C1014 1.363 . S
C1010 H987 0.950 . S
C1010 C1009 1.397 . S
C1010 C1011 1.334 . S
C1011 H988 0.950 . S
C1011 C1010 1.334 . S
C1011 C1012 1.287 . S
C1012 C1011 1.287 . S
C1012 C1013 1.524 . S
C1012 H1031 0.913 . S
C1013 H989 0.950 . S
C1013 C1012 1.524 . S
C1013 C1014 1.415 . S
C1014 H990 0.950 . S
C1014 C1009 1.363 . S
C1014 C1013 1.415 . S
C1015 H991 0.951 . S
C1015 C1016 1.366 . S
C1015 C1017 1.388 . S
C1016 C1015 1.366 . S
C1016 C1020 1.385 . S
C1017 H992 0.951 . S
C1017 C1015 1.388 . S
C1017 C1018 1.366 . S
C1018 C1017 1.366 . S
C1018 C1019 1.414 . S
C1018 C1021 1.499 . S
C1019 H993 0.950 . S
C1019 C1018 1.414 . S
C1019 C1020 1.374 . S
C1020 H994 0.950 . S
C1020 C1016 1.385 . S
C1020 C1019 1.374 . S
C1021 C1018 1.499 . S
C1021 C1022 1.373 . S
C1021 C1023 1.389 . S
C1022 H995 0.950 . S
C1022 C1008 1.377 . S
C1022 C1021 1.373 . S
C1023 C1007 1.377 . S
C1023 C1021 1.389 . S
C1023 C1024 1.524 . S
C1024 C1023 1.524 . S
C1024 C1025 1.397 . S
C1024 C1029 1.363 . S
C1025 H996 0.950 . S
C1025 C1024 1.397 . S
C1025 C1026 1.334 . S
C1026 H997 0.950 . S
C1026 C1025 1.334 . S
C1026 C1027 1.287 . S
C1027 C1026 1.287 . S
C1027 C1028 1.524 . S
C1027 H1030 0.999 . S
C1028 H998 0.950 . S
C1028 C1027 1.524 . S
C1028 C1029 1.415 . S
C1029 H999 0.950 . S
C1029 C1024 1.363 . S
C1029 C1028 1.415 . S
H1030 C1027 0.999 . S
H1031 C1012 0.913 . S
H1032 C1050 0.951 . S
H1033 C1052 0.951 . S
H1034 C1054 0.950 . S
H1035 C1055 0.950 . S
H1036 C1057 0.950 . S
H1037 C1060 0.950 . S
H1038 C1061 0.950 . S
H1039 C1063 0.950 . S
H1040 C1064 0.950 . S
H1041 C1065 0.951 . S
H1042 C1067 0.951 . S
H1043 C1069 0.950 . S
H1044 C1070 0.950 . S
H1045 C1072 0.950 . S
H1046 C1075 0.950 1_556 S
H1047 C1076 0.950 . S
H1048 C1078 0.950 . S
H1049 C1079 0.950 1_556 S
C1050 H1032 0.951 . S
C1050 C1051 1.366 . S
C1050 C1052 1.388 . S
C1051 C1050 1.366 . S
C1051 C1055 1.385 . S
C1052 H1033 0.951 . S
C1052 C1050 1.388 . S
C1052 C1053 1.366 . S
C1053 C1052 1.366 . S
C1053 C1054 1.414 . S
C1053 C1056 1.499 . S
C1054 H1034 0.950 . S
C1054 C1053 1.414 . S
C1054 C1055 1.374 . S
C1055 H1035 0.950 . S
C1055 C1051 1.385 . S
C1055 C1054 1.374 . S
C1056 C1053 1.499 . S
C1056 C1057 1.373 . S
C1056 C1058 1.389 . S
C1057 H1036 0.950 . S
C1057 C1056 1.373 . S
C1057 C1073 1.377 . S
C1058 C1056 1.389 . S
C1058 C1059 1.524 . S
C1058 C1072 1.377 . S
C1059 C1058 1.524 . S
C1059 C1060 1.397 . S
C1059 C1064 1.363 . S
C1060 H1037 0.950 . S
C1060 C1059 1.397 . S
C1060 C1061 1.334 . S
C1061 H1038 0.950 . S
C1061 C1060 1.334 . S
C1061 C1062 1.287 . S
C1062 C1061 1.287 . S
C1062 C1063 1.524 . S
C1062 H1081 0.913 . S
C1063 H1039 0.950 . S
C1063 C1062 1.524 . S
C1063 C1064 1.415 . S
C1064 H1040 0.950 . S
C1064 C1059 1.363 . S
C1064 C1063 1.415 . S
C1065 H1041 0.951 . S
C1065 C1066 1.366 . S
C1065 C1067 1.388 1_554 S
C1066 C1065 1.366 . S
C1066 C1070 1.385 1_554 S
C1067 H1042 0.951 . S
C1067 C1065 1.388 1_556 S
C1067 C1068 1.366 . S
C1068 C1067 1.366 . S
C1068 C1069 1.414 . S
C1068 C1071 1.499 . S
C1069 H1043 0.950 . S
C1069 C1068 1.414 . S
C1069 C1070 1.374 . S
C1070 H1044 0.950 . S
C1070 C1066 1.385 1_556 S
C1070 C1069 1.374 . S
C1071 C1068 1.499 . S
C1071 C1072 1.373 . S
C1071 C1073 1.389 . S
C1072 H1045 0.950 . S
C1072 C1058 1.377 . S
C1072 C1071 1.373 . S
C1073 C1057 1.377 . S
C1073 C1071 1.389 . S
C1073 C1074 1.524 . S
C1074 C1073 1.524 . S
C1074 C1075 1.397 1_556 S
C1074 C1079 1.363 1_556 S
C1075 H1046 0.950 1_554 S
C1075 C1074 1.397 1_554 S
C1075 C1076 1.334 . S
C1076 H1047 0.950 . S
C1076 C1075 1.334 . S
C1076 C1077 1.287 . S
C1077 C1076 1.287 . S
C1077 C1078 1.524 . S
C1077 H1080 0.999 . S
C1078 H1048 0.950 . S
C1078 C1077 1.524 . S
C1078 C1079 1.415 . S
C1079 H1049 0.950 1_554 S
C1079 C1074 1.363 1_554 S
C1079 C1078 1.415 . S
H1080 C1077 0.999 . S
H1081 C1062 0.913 . S
H1082 C1100 0.951 . S
H1083 C1102 0.951 . S
H1084 C1104 0.950 . S
H1085 C1105 0.950 . S
H1086 C1107 0.950 . S
H1087 C1110 0.950 . S
H1088 C1111 0.950 . S
H1089 C1113 0.950 . S
H1090 C1114 0.950 . S
H1091 C1115 0.951 . S
H1092 C1117 0.951 . S
H1093 C1119 0.950 . S
H1094 C1120 0.950 . S
H1095 C1122 0.950 . S
H1096 C1125 0.950 . S
H1097 C1126 0.950 . S
H1098 C1128 0.950 . S
H1099 C1129 0.950 . S
C1100 H1082 0.951 . S
C1100 C1101 1.366 . S
C1100 C1102 1.388 . S
C1101 C1100 1.366 . S
C1101 C1105 1.385 . S
C1102 H1083 0.951 . S
C1102 C1100 1.388 . S
C1102 C1103 1.366 . S
C1103 C1102 1.366 . S
C1103 C1104 1.414 . S
C1103 C1106 1.499 . S
C1104 H1084 0.950 . S
C1104 C1103 1.414 . S
C1104 C1105 1.374 . S
C1105 H1085 0.950 . S
C1105 C1101 1.385 . S
C1105 C1104 1.374 . S
C1106 C1103 1.499 . S
C1106 C1107 1.373 . S
C1106 C1108 1.389 . S
C1107 H1086 0.950 . S
C1107 C1106 1.373 . S
C1107 C1123 1.377 . S
C1108 C1106 1.389 . S
C1108 C1109 1.524 . S
C1108 C1122 1.377 . S
C1109 C1108 1.524 . S
C1109 C1110 1.397 . S
C1109 C1114 1.363 . S
C1110 H1087 0.950 . S
C1110 C1109 1.397 . S
C1110 C1111 1.334 . S
C1111 H1088 0.950 . S
C1111 C1110 1.334 . S
C1111 C1112 1.287 . S
C1112 C1111 1.287 . S
C1112 C1113 1.524 . S
C1112 H1131 0.913 . S
C1113 H1089 0.950 . S
C1113 C1112 1.524 . S
C1113 C1114 1.415 . S
C1114 H1090 0.950 . S
C1114 C1109 1.363 . S
C1114 C1113 1.415 . S
C1115 H1091 0.951 . S
C1115 C1116 1.366 . S
C1115 C1117 1.388 . S
C1116 C1115 1.366 . S
C1116 C1120 1.385 . S
C1117 H1092 0.951 . S
C1117 C1115 1.388 . S
C1117 C1118 1.366 . S
C1118 C1117 1.366 . S
C1118 C1119 1.414 . S
C1118 C1121 1.499 . S
C1119 H1093 0.950 . S
C1119 C1118 1.414 . S
C1119 C1120 1.374 . S
C1120 H1094 0.950 . S
C1120 C1116 1.385 . S
C1120 C1119 1.374 . S
C1121 C1118 1.499 . S
C1121 C1122 1.373 . S
C1121 C1123 1.389 . S
C1122 H1095 0.950 . S
C1122 C1108 1.377 . S
C1122 C1121 1.373 . S
C1123 C1107 1.377 . S
C1123 C1121 1.389 . S
C1123 C1124 1.524 . S
C1124 C1123 1.524 . S
C1124 C1125 1.397 . S
C1124 C1129 1.363 . S
C1125 H1096 0.950 . S
C1125 C1124 1.397 . S
C1125 C1126 1.334 . S
C1126 H1097 0.950 . S
C1126 C1125 1.334 . S
C1126 C1127 1.287 . S
C1127 C1126 1.287 . S
C1127 C1128 1.524 . S
C1127 H1130 0.999 . S
C1128 H1098 0.950 . S
C1128 C1127 1.524 . S
C1128 C1129 1.415 . S
C1129 H1099 0.950 . S
C1129 C1124 1.363 . S
C1129 C1128 1.415 . S
H1130 C1127 0.999 . S
H1131 C1112 0.913 . S
H1132 C1150 0.951 . S
H1133 C1152 0.951 . S
H1134 C1154 0.950 . S
H1135 C1155 0.950 . S
H1136 C1157 0.950 . S
H1137 C1160 0.950 . S
H1138 C1161 0.950 . S
H1139 C1163 0.950 . S
H1140 C1164 0.950 . S
H1141 C1165 0.951 . S
H1142 C1167 0.951 . S
H1143 C1169 0.950 . S
H1144 C1170 0.950 . S
H1145 C1172 0.950 . S
H1146 C1175 0.950 . S
H1147 C1176 0.950 . S
H1148 C1178 0.950 . S
H1149 C1179 0.950 . S
C1150 H1132 0.951 . S
C1150 C1151 1.366 . S
C1150 C1152 1.388 . S
C1151 C1150 1.366 . S
C1151 C1155 1.385 . S
C1152 H1133 0.951 . S
C1152 C1150 1.388 . S
C1152 C1153 1.366 . S
C1153 C1152 1.366 . S
C1153 C1154 1.414 . S
C1153 C1156 1.499 . S
C1154 H1134 0.950 . S
C1154 C1153 1.414 . S
C1154 C1155 1.374 . S
C1155 H1135 0.950 . S
C1155 C1151 1.385 . S
C1155 C1154 1.374 . S
C1156 C1153 1.499 . S
C1156 C1157 1.373 . S
C1156 C1158 1.389 . S
C1157 H1136 0.950 . S
C1157 C1156 1.373 . S
C1157 C1173 1.377 . S
C1158 C1156 1.389 . S
C1158 C1159 1.524 . S
C1158 C1172 1.377 . S
C1159 C1158 1.524 . S
C1159 C1160 1.397 . S
C1159 C1164 1.363 . S
C1160 H1137 0.950 . S
C1160 C1159 1.397 . S
C1160 C1161 1.334 . S
C1161 H1138 0.950 . S
C1161 C1160 1.334 . S
C1161 C1162 1.287 . S
C1162 C1161 1.287 . S
C1162 C1163 1.524 . S
C1162 H1181 0.913 . S
C1163 H1139 0.950 . S
C1163 C1162 1.524 . S
C1163 C1164 1.415 . S
C1164 H1140 0.950 . S
C1164 C1159 1.363 . S
C1164 C1163 1.415 . S
C1165 H1141 0.951 . S
C1165 C1166 1.366 . S
C1165 C1167 1.388 . S
C1166 C1165 1.366 . S
C1166 C1170 1.385 . S
C1167 H1142 0.951 . S
C1167 C1165 1.388 . S
C1167 C1168 1.366 . S
C1168 C1167 1.366 . S
C1168 C1169 1.414 . S
C1168 C1171 1.499 . S
C1169 H1143 0.950 . S
C1169 C1168 1.414 . S
C1169 C1170 1.374 . S
C1170 H1144 0.950 . S
C1170 C1166 1.385 . S
C1170 C1169 1.374 . S
C1171 C1168 1.499 . S
C1171 C1172 1.373 . S
C1171 C1173 1.389 . S
C1172 H1145 0.950 . S
C1172 C1158 1.377 . S
C1172 C1171 1.373 . S
C1173 C1157 1.377 . S
C1173 C1171 1.389 . S
C1173 C1174 1.524 . S
C1174 C1173 1.524 . S
C1174 C1175 1.397 . S
C1174 C1179 1.363 . S
C1175 H1146 0.950 . S
C1175 C1174 1.397 . S
C1175 C1176 1.334 . S
C1176 H1147 0.950 . S
C1176 C1175 1.334 . S
C1176 C1177 1.287 . S
C1177 C1176 1.287 . S
C1177 C1178 1.524 . S
C1177 H1180 0.999 . S
C1178 H1148 0.950 . S
C1178 C1177 1.524 . S
C1178 C1179 1.415 . S
C1179 H1149 0.950 . S
C1179 C1174 1.363 . S
C1179 C1178 1.415 . S
H1180 C1177 0.999 . S
H1181 C1162 0.913 . S
H1182 C1200 0.951 . S
H1183 C1202 0.951 . S
H1184 C1204 0.950 . S
H1185 C1205 0.950 . S
H1186 C1207 0.950 . S
H1187 C1210 0.950 . S
H1188 C1211 0.950 . S
H1189 C1213 0.950 . S
H1190 C1214 0.950 . S
H1191 C1215 0.951 . S
H1192 C1217 0.951 . S
H1193 C1219 0.950 . S
H1194 C1220 0.950 . S
H1195 C1222 0.950 . S
H1196 C1225 0.950 . S
H1197 C1226 0.950 . S
H1198 C1228 0.950 . S
H1199 C1229 0.950 . S
C1200 H1182 0.951 . S
C1200 C1201 1.366 . S
C1200 C1202 1.388 . S
C1201 C1200 1.366 . S
C1201 C1205 1.385 . S
C1202 H1183 0.951 . S
C1202 C1200 1.388 . S
C1202 C1203 1.366 . S
C1203 C1202 1.366 . S
C1203 C1204 1.414 . S
C1203 C1206 1.499 . S
C1204 H1184 0.950 . S
C1204 C1203 1.414 . S
C1204 C1205 1.374 . S
C1205 H1185 0.950 . S
C1205 C1201 1.385 . S
C1205 C1204 1.374 . S
C1206 C1203 1.499 . S
C1206 C1207 1.373 . S
C1206 C1208 1.389 . S
C1207 H1186 0.950 . S
C1207 C1206 1.373 . S
C1207 C1223 1.377 . S
C1208 C1206 1.389 . S
C1208 C1209 1.524 . S
C1208 C1222 1.377 . S
C1209 C1208 1.524 . S
C1209 C1210 1.397 . S
C1209 C1214 1.363 . S
C1210 H1187 0.950 . S
C1210 C1209 1.397 . S
C1210 C1211 1.334 . S
C1211 H1188 0.950 . S
C1211 C1210 1.334 . S
C1211 C1212 1.287 . S
C1212 C1211 1.287 . S
C1212 C1213 1.524 . S
C1212 H1231 0.913 . S
C1213 H1189 0.950 . S
C1213 C1212 1.524 . S
C1213 C1214 1.415 . S
C1214 H1190 0.950 . S
C1214 C1209 1.363 . S
C1214 C1213 1.415 . S
C1215 H1191 0.951 . S
C1215 C1216 1.366 . S
C1215 C1217 1.388 . S
C1216 C1215 1.366 . S
C1216 C1220 1.385 . S
C1217 H1192 0.951 . S
C1217 C1215 1.388 . S
C1217 C1218 1.366 . S
C1218 C1217 1.366 . S
C1218 C1219 1.414 . S
C1218 C1221 1.499 . S
C1219 H1193 0.950 . S
C1219 C1218 1.414 . S
C1219 C1220 1.374 . S
C1220 H1194 0.950 . S
C1220 C1216 1.385 . S
C1220 C1219 1.374 . S
C1221 C1218 1.499 . S
C1221 C1222 1.373 . S
C1221 C1223 1.389 . S
C1222 H1195 0.950 . S
C1222 C1208 1.377 . S
C1222 C1221 1.373 . S
C1223 C1207 1.377 . S
C1223 C1221 1.389 . S
C1223 C1224 1.524 . S
C1224 C1223 1.524 . S
C1224 C1225 1.397 . S
C1224 C1229 1.363 . S
C1225 H1196 0.950 . S
C1225 C1224 1.397 . S
C1225 C1226 1.334 . S
C1226 H1197 0.950 . S
C1226 C1225 1.334 . S
C1226 C1227 1.287 . S
C1227 C1226 1.287 . S
C1227 C1228 1.524 . S
C1227 H1230 0.999 . S
C1228 H1198 0.950 . S
C1228 C1227 1.524 . S
C1228 C1229 1.415 . S
C1229 H1199 0.950 . S
C1229 C1224 1.363 . S
C1229 C1228 1.415 . S
H1230 C1227 0.999 . S
H1231 C1212 0.913 . S
H1232 C1250 0.951 . S
H1233 C1252 0.951 . S
H1234 C1254 0.950 . S
H1235 C1255 0.950 . S
H1236 C1257 0.950 . S
H1237 C1260 0.950 . S
H1238 C1261 0.950 . S
H1239 C1263 0.950 . S
H1240 C1264 0.950 . S
H1241 C1265 0.951 . S
H1242 C1267 0.951 . S
H1243 C1269 0.950 . S
H1244 C1270 0.950 1_455 S
H1245 C1272 0.950 . S
H1246 C1275 0.950 . S
H1247 C1276 0.950 1_554 S
H1248 C1278 0.950 . S
H1249 C1279 0.950 . S
C1250 H1232 0.951 . S
C1250 C1251 1.366 . S
C1250 C1252 1.388 . S
C1251 C1250 1.366 . S
C1251 C1255 1.385 . S
C1252 H1233 0.951 . S
C1252 C1250 1.388 . S
C1252 C1253 1.366 . S
C1253 C1252 1.366 . S
C1253 C1254 1.414 . S
C1253 C1256 1.499 . S
C1254 H1234 0.950 . S
C1254 C1253 1.414 . S
C1254 C1255 1.374 . S
C1255 H1235 0.950 . S
C1255 C1251 1.385 . S
C1255 C1254 1.374 . S
C1256 C1253 1.499 . S
C1256 C1257 1.373 . S
C1256 C1258 1.389 . S
C1257 H1236 0.950 . S
C1257 C1256 1.373 . S
C1257 C1273 1.377 . S
C1258 C1256 1.389 . S
C1258 C1259 1.524 . S
C1258 C1272 1.377 . S
C1259 C1258 1.524 . S
C1259 C1260 1.397 . S
C1259 C1264 1.363 . S
C1260 H1237 0.950 . S
C1260 C1259 1.397 . S
C1260 C1261 1.334 . S
C1261 H1238 0.950 . S
C1261 C1260 1.334 . S
C1261 C1262 1.287 . S
C1262 C1261 1.287 . S
C1262 C1263 1.524 . S
C1262 H1281 0.913 . S
C1263 H1239 0.950 . S
C1263 C1262 1.524 . S
C1263 C1264 1.415 . S
C1264 H1240 0.950 . S
C1264 C1259 1.363 . S
C1264 C1263 1.415 . S
C1265 H1241 0.951 . S
C1265 C1266 1.366 . S
C1265 C1267 1.388 . S
C1266 C1265 1.366 . S
C1266 C1270 1.385 . S
C1267 H1242 0.951 . S
C1267 C1265 1.388 . S
C1267 C1268 1.366 . S
C1268 C1267 1.366 . S
C1268 C1269 1.414 . S
C1268 C1271 1.499 . S
C1269 H1243 0.950 . S
C1269 C1268 1.414 . S
C1269 C1270 1.374 . S
C1270 H1244 0.950 1_655 S
C1270 C1266 1.385 . S
C1270 C1269 1.374 . S
C1271 C1268 1.499 . S
C1271 C1272 1.373 . S
C1271 C1273 1.389 . S
C1272 H1245 0.950 . S
C1272 C1258 1.377 . S
C1272 C1271 1.373 . S
C1273 C1257 1.377 . S
C1273 C1271 1.389 . S
C1273 C1274 1.524 . S
C1274 C1273 1.524 . S
C1274 C1275 1.397 . S
C1274 C1279 1.363 . S
C1275 H1246 0.950 . S
C1275 C1274 1.397 . S
C1275 C1276 1.334 . S
C1276 H1247 0.950 1_556 S
C1276 C1275 1.334 . S
C1276 C1277 1.287 . S
C1277 C1276 1.287 . S
C1277 C1278 1.524 . S
C1277 H1280 0.999 1_556 S
C1278 H1248 0.950 . S
C1278 C1277 1.524 . S
C1278 C1279 1.415 . S
C1279 H1249 0.950 . S
C1279 C1274 1.363 . S
C1279 C1278 1.415 . S
H1280 C1277 0.999 1_554 S
H1281 C1262 0.913 . S
H1282 C1300 0.951 . S
H1283 C1302 0.951 . S
H1284 C1304 0.950 . S
H1285 C1305 0.950 . S
H1286 C1307 0.950 . S
H1287 C1310 0.950 . S
H1288 C1311 0.950 . S
H1289 C1313 0.950 . S
H1290 C1314 0.950 . S
H1291 C1315 0.951 . S
H1292 C1317 0.951 . S
H1293 C1319 0.950 . S
H1294 C1320 0.950 . S
H1295 C1322 0.950 . S
H1296 C1325 0.950 . S
H1297 C1326 0.950 . S
H1298 C1328 0.950 . S
H1299 C1329 0.950 . S
C1300 H1282 0.951 . S
C1300 C1301 1.366 . S
C1300 C1302 1.388 . S
C1301 C1300 1.366 . S
C1301 C1305 1.385 . S
C1302 H1283 0.951 . S
C1302 C1300 1.388 . S
C1302 C1303 1.366 . S
C1303 C1302 1.366 . S
C1303 C1304 1.414 . S
C1303 C1306 1.499 . S
C1304 H1284 0.950 . S
C1304 C1303 1.414 . S
C1304 C1305 1.374 . S
C1305 H1285 0.950 . S
C1305 C1301 1.385 . S
C1305 C1304 1.374 . S
C1306 C1303 1.499 . S
C1306 C1307 1.373 . S
C1306 C1308 1.389 . S
C1307 H1286 0.950 . S
C1307 C1306 1.373 . S
C1307 C1323 1.377 . S
C1308 C1306 1.389 . S
C1308 C1309 1.524 . S
C1308 C1322 1.377 . S
C1309 C1308 1.524 . S
C1309 C1310 1.397 . S
C1309 C1314 1.363 . S
C1310 H1287 0.950 . S
C1310 C1309 1.397 . S
C1310 C1311 1.334 . S
C1311 H1288 0.950 . S
C1311 C1310 1.334 . S
C1311 C1312 1.287 . S
C1312 C1311 1.287 . S
C1312 C1313 1.524 . S
C1312 H1331 0.913 . S
C1313 H1289 0.950 . S
C1313 C1312 1.524 . S
C1313 C1314 1.415 . S
C1314 H1290 0.950 . S
C1314 C1309 1.363 . S
C1314 C1313 1.415 . S
C1315 H1291 0.951 . S
C1315 C1316 1.366 . S
C1315 C1317 1.388 . S
C1316 C1315 1.366 . S
C1316 C1320 1.385 . S
C1317 H1292 0.951 . S
C1317 C1315 1.388 . S
C1317 C1318 1.366 . S
C1318 C1317 1.366 . S
C1318 C1319 1.414 . S
C1318 C1321 1.499 . S
C1319 H1293 0.950 . S
C1319 C1318 1.414 . S
C1319 C1320 1.374 . S
C1320 H1294 0.950 . S
C1320 C1316 1.385 . S
C1320 C1319 1.374 . S
C1321 C1318 1.499 . S
C1321 C1322 1.373 . S
C1321 C1323 1.389 . S
C1322 H1295 0.950 . S
C1322 C1308 1.377 . S
C1322 C1321 1.373 . S
C1323 C1307 1.377 . S
C1323 C1321 1.389 . S
C1323 C1324 1.524 . S
C1324 C1323 1.524 . S
C1324 C1325 1.397 . S
C1324 C1329 1.363 . S
C1325 H1296 0.950 . S
C1325 C1324 1.397 . S
C1325 C1326 1.334 . S
C1326 H1297 0.950 . S
C1326 C1325 1.334 . S
C1326 C1327 1.287 . S
C1327 C1326 1.287 . S
C1327 C1328 1.524 . S
C1327 H1330 0.999 . S
C1328 H1298 0.950 . S
C1328 C1327 1.524 . S
C1328 C1329 1.415 . S
C1329 H1299 0.950 . S
C1329 C1324 1.363 . S
C1329 C1328 1.415 . S
H1330 C1327 0.999 . S
H1331 C1312 0.913 . S
H1332 C1350 0.951 . S
H1333 C1352 0.951 . S
H1334 C1354 0.950 . S
H1335 C1355 0.950 . S
H1336 C1357 0.950 . S
H1337 C1360 0.950 . S
H1338 C1361 0.950 . S
H1339 C1363 0.950 . S
H1340 C1364 0.950 . S
H1341 C1365 0.951 . S
H1342 C1367 0.951 . S
H1343 C1369 0.950 . S
H1344 C1370 0.950 . S
H1345 C1372 0.950 . S
H1346 C1375 0.950 . S
H1347 C1376 0.950 . S
H1348 C1378 0.950 . S
H1349 C1379 0.950 . S
C1350 H1332 0.951 . S
C1350 C1351 1.366 . S
C1350 C1352 1.388 . S
C1351 C1350 1.366 . S
C1351 C1355 1.385 . S
C1352 H1333 0.951 . S
C1352 C1350 1.388 . S
C1352 C1353 1.366 . S
C1353 C1352 1.366 . S
C1353 C1354 1.414 . S
C1353 C1356 1.499 . S
C1354 H1334 0.950 . S
C1354 C1353 1.414 . S
C1354 C1355 1.374 . S
C1355 H1335 0.950 . S
C1355 C1351 1.385 . S
C1355 C1354 1.374 . S
C1356 C1353 1.499 . S
C1356 C1357 1.373 . S
C1356 C1358 1.389 . S
C1357 H1336 0.950 . S
C1357 C1356 1.373 . S
C1357 C1373 1.377 . S
C1358 C1356 1.389 . S
C1358 C1359 1.524 . S
C1358 C1372 1.377 . S
C1359 C1358 1.524 . S
C1359 C1360 1.397 . S
C1359 C1364 1.363 . S
C1360 H1337 0.950 . S
C1360 C1359 1.397 . S
C1360 C1361 1.334 . S
C1361 H1338 0.950 . S
C1361 C1360 1.334 . S
C1361 C1362 1.287 . S
C1362 C1361 1.287 . S
C1362 C1363 1.524 . S
C1362 H1381 0.913 . S
C1363 H1339 0.950 . S
C1363 C1362 1.524 . S
C1363 C1364 1.415 . S
C1364 H1340 0.950 . S
C1364 C1359 1.363 . S
C1364 C1363 1.415 . S
C1365 H1341 0.951 . S
C1365 C1366 1.366 . S
C1365 C1367 1.388 . S
C1366 C1365 1.366 . S
C1366 C1370 1.385 . S
C1367 H1342 0.951 . S
C1367 C1365 1.388 . S
C1367 C1368 1.366 . S
C1368 C1367 1.366 . S
C1368 C1369 1.414 . S
C1368 C1371 1.499 . S
C1369 H1343 0.950 . S
C1369 C1368 1.414 . S
C1369 C1370 1.374 . S
C1370 H1344 0.950 . S
C1370 C1366 1.385 . S
C1370 C1369 1.374 . S
C1371 C1368 1.499 . S
C1371 C1372 1.373 . S
C1371 C1373 1.389 . S
C1372 H1345 0.950 . S
C1372 C1358 1.377 . S
C1372 C1371 1.373 . S
C1373 C1357 1.377 . S
C1373 C1371 1.389 . S
C1373 C1374 1.524 . S
C1374 C1373 1.524 . S
C1374 C1375 1.397 . S
C1374 C1379 1.363 . S
C1375 H1346 0.950 . S
C1375 C1374 1.397 . S
C1375 C1376 1.334 . S
C1376 H1347 0.950 . S
C1376 C1375 1.334 . S
C1376 C1377 1.287 . S
C1377 C1376 1.287 . S
C1377 C1378 1.524 . S
C1377 H1380 0.999 . S
C1378 H1348 0.950 . S
C1378 C1377 1.524 . S
C1378 C1379 1.415 . S
C1379 H1349 0.950 . S
C1379 C1374 1.363 . S
C1379 C1378 1.415 . S
H1380 C1377 0.999 . S
H1381 C1362 0.913 . S
H1382 C1400 0.951 . S
H1383 C1402 0.951 . S
H1384 C1404 0.950 . S
H1385 C1405 0.950 . S
H1386 C1407 0.950 . S
H1387 C1410 0.950 . S
H1388 C1411 0.950 . S
H1389 C1413 0.950 . S
H1390 C1414 0.950 . S
H1391 C1415 0.951 . S
H1392 C1417 0.951 . S
H1393 C1419 0.950 . S
H1394 C1420 0.950 . S
H1395 C1422 0.950 . S
H1396 C1425 0.950 . S
H1397 C1426 0.950 . S
H1398 C1428 0.950 . S
H1399 C1429 0.950 . S
C1400 H1382 0.951 . S
C1400 C1401 1.366 . S
C1400 C1402 1.388 . S
C1401 C1400 1.366 . S
C1401 C1405 1.385 . S
C1402 H1383 0.951 . S
C1402 C1400 1.388 . S
C1402 C1403 1.366 . S
C1403 C1402 1.366 . S
C1403 C1404 1.414 . S
C1403 C1406 1.499 . S
C1404 H1384 0.950 . S
C1404 C1403 1.414 . S
C1404 C1405 1.374 . S
C1405 H1385 0.950 . S
C1405 C1401 1.385 . S
C1405 C1404 1.374 . S
C1406 C1403 1.499 . S
C1406 C1407 1.373 . S
C1406 C1408 1.389 . S
C1407 H1386 0.950 . S
C1407 C1406 1.373 . S
C1407 C1423 1.377 . S
C1408 C1406 1.389 . S
C1408 C1409 1.524 . S
C1408 C1422 1.377 . S
C1409 C1408 1.524 . S
C1409 C1410 1.397 . S
C1409 C1414 1.363 . S
C1410 H1387 0.950 . S
C1410 C1409 1.397 . S
C1410 C1411 1.334 . S
C1411 H1388 0.950 . S
C1411 C1410 1.334 . S
C1411 C1412 1.287 . S
C1412 C1411 1.287 . S
C1412 C1413 1.524 . S
C1412 H1431 0.913 . S
C1413 H1389 0.950 . S
C1413 C1412 1.524 . S
C1413 C1414 1.415 . S
C1414 H1390 0.950 . S
C1414 C1409 1.363 . S
C1414 C1413 1.415 . S
C1415 H1391 0.951 . S
C1415 C1416 1.366 . S
C1415 C1417 1.388 . S
C1416 C1415 1.366 . S
C1416 C1420 1.385 . S
C1417 H1392 0.951 . S
C1417 C1415 1.388 . S
C1417 C1418 1.366 . S
C1418 C1417 1.366 . S
C1418 C1419 1.414 . S
C1418 C1421 1.499 . S
C1419 H1393 0.950 . S
C1419 C1418 1.414 . S
C1419 C1420 1.374 . S
C1420 H1394 0.950 . S
C1420 C1416 1.385 . S
C1420 C1419 1.374 . S
C1421 C1418 1.499 . S
C1421 C1422 1.373 . S
C1421 C1423 1.389 . S
C1422 H1395 0.950 . S
C1422 C1408 1.377 . S
C1422 C1421 1.373 . S
C1423 C1407 1.377 . S
C1423 C1421 1.389 . S
C1423 C1424 1.524 . S
C1424 C1423 1.524 . S
C1424 C1425 1.397 . S
C1424 C1429 1.363 . S
C1425 H1396 0.950 . S
C1425 C1424 1.397 . S
C1425 C1426 1.334 . S
C1426 H1397 0.950 . S
C1426 C1425 1.334 . S
C1426 C1427 1.287 . S
C1427 C1426 1.287 . S
C1427 C1428 1.524 . S
C1427 H1430 0.999 . S
C1428 H1398 0.950 . S
C1428 C1427 1.524 . S
C1428 C1429 1.415 . S
C1429 H1399 0.950 . S
C1429 C1424 1.363 . S
C1429 C1428 1.415 . S
H1430 C1427 0.999 . S
H1431 C1412 0.913 . S
C251 C6 1.773 . S
C266 C171 1.762 . S
C301 C21 1.853 . S
C316 C174 1.778 1_556 S
C366 C210 0.982 . S
C351 C49 0.930 . S
C401 C68 1.374 . S
C416 C230 1.408 1_655 S
C466 C184 2.569 . S
C451 C2 2.574 . S
C516 C161 1.223 1_565 S
C501 C30 1.163 . S
C566 C214 1.253 . S
C551 C40 1.302 . S
C616 C194 1.172 . S
C601 C63 1.286 . S
C651 C11 1.322 . S
C666 C224 1.361 . S
C716 C190 1.850 . S
C701 C44 1.866 . S
C751 C59 1.312 . S
C766 C156 1.280 . S
C801 C25 1.635 . S
C816 C204 1.556 . S
C866 C170 1.948 1_565 S
C851 C82 1.955 . S
C901 C101 1.512 . S
C916 C176 1.451 . S
C951 C125 1.412 . S
C966 C211 1.497 . S
C1001 C144 1.058 . S
C1016 C231 1.061 . S
C1051 C87 1.431 . S
C1066 C181 1.454 . S
C1116 C164 2.396 . S
C1101 C97 2.389 . S
C1166 C216 1.237 . S
C1151 C120 1.401 . S
C1216 C196 1.171 . S
C1201 C135 1.202 . S
C1251 C78 1.773 . S
C1266 C221 1.668 . S
C1316 C191 1.264 . S
C1301 C116 1.259 . S
C1366 C154 1.855 . S
C1351 C139 1.919 . S
C1401 C106 1.195 . S
C1416 C201 1.282 . S
