# Generated by pormake.
# Topology zzz, (3,6)-cn, num edge types: 1
# Building blocks:
#     Node 0, Type 0, BuildingBlock: QEWDON_clean_linker_0, # of connection points: 3
#     Node 1, Type 0, BuildingBlock: QEWDON_clean_linker_0, # of connection points: 3
#     Node 2, Type 0, BuildingBlock: QEWDON_clean_linker_0, # of connection points: 3
#     Node 3, Type 0, BuildingBlock: QEWDON_clean_linker_0, # of connection points: 3
#     Node 4, Type 0, BuildingBlock: QEWDON_clean_linker_0, # of connection points: 3
#     Node 5, Type 0, BuildingBlock: QEWDON_clean_linker_0, # of connection points: 3
#     Node 6, Type 0, BuildingBlock: QEWDON_clean_linker_0, # of connection points: 3
#     Node 7, Type 0, BuildingBlock: QEWDON_clean_linker_0, # of connection points: 3
#     Node 8, Type 1, BuildingBlock: VOLQOD_clean_sbu_1, # of connection points: 6
#     Node 9, Type 1, BuildingBlock: VOLQOD_clean_sbu_1, # of connection points: 6
#     Node 10, Type 1, BuildingBlock: VOLQOD_clean_sbu_1, # of connection points: 6
#     Node 11, Type 1, BuildingBlock: VOLQOD_clean_sbu_1, # of connection points: 6
#     Edge 12, Type (0, 1), BuildingBlock: EZIPEK_clean_linker_0, # of connection points: 2
#     Edge 13, Type (0, 1), BuildingBlock: EZIPEK_clean_linker_0, # of connection points: 2
#     Edge 14, Type (0, 1), BuildingBlock: EZIPEK_clean_linker_0, # of connection points: 2
#     Edge 15, Type (0, 1), BuildingBlock: EZIPEK_clean_linker_0, # of connection points: 2
#     Edge 16, Type (0, 1), BuildingBlock: EZIPEK_clean_linker_0, # of connection points: 2
#     Edge 17, Type (0, 1), BuildingBlock: EZIPEK_clean_linker_0, # of connection points: 2
#     Edge 18, Type (0, 1), BuildingBlock: EZIPEK_clean_linker_0, # of connection points: 2
#     Edge 19, Type (0, 1), BuildingBlock: EZIPEK_clean_linker_0, # of connection points: 2
#     Edge 20, Type (0, 1), BuildingBlock: EZIPEK_clean_linker_0, # of connection points: 2
#     Edge 21, Type (0, 1), BuildingBlock: EZIPEK_clean_linker_0, # of connection points: 2
#     Edge 22, Type (0, 1), BuildingBlock: EZIPEK_clean_linker_0, # of connection points: 2
#     Edge 23, Type (0, 1), BuildingBlock: EZIPEK_clean_linker_0, # of connection points: 2
#     Edge 24, Type (0, 1), BuildingBlock: EZIPEK_clean_linker_0, # of connection points: 2
#     Edge 25, Type (0, 1), BuildingBlock: EZIPEK_clean_linker_0, # of connection points: 2
#     Edge 26, Type (0, 1), BuildingBlock: EZIPEK_clean_linker_0, # of connection points: 2
#     Edge 27, Type (0, 1), BuildingBlock: EZIPEK_clean_linker_0, # of connection points: 2
#     Edge 28, Type (0, 1), BuildingBlock: EZIPEK_clean_linker_0, # of connection points: 2
#     Edge 29, Type (0, 1), BuildingBlock: EZIPEK_clean_linker_0, # of connection points: 2
#     Edge 30, Type (0, 1), BuildingBlock: EZIPEK_clean_linker_0, # of connection points: 2
#     Edge 31, Type (0, 1), BuildingBlock: EZIPEK_clean_linker_0, # of connection points: 2
#     Edge 32, Type (0, 1), BuildingBlock: EZIPEK_clean_linker_0, # of connection points: 2
#     Edge 33, Type (0, 1), BuildingBlock: EZIPEK_clean_linker_0, # of connection points: 2
#     Edge 34, Type (0, 1), BuildingBlock: EZIPEK_clean_linker_0, # of connection points: 2
#     Edge 35, Type (0, 1), BuildingBlock: EZIPEK_clean_linker_0, # of connection points: 2
# Relax obj value: 0.136
# Max RMSD: 0.231
# Mean RMSD: 0.093
data_MOF--net-zzz--node1-VOLQOD_clean_sbu_1--node2-QEWDON_clean_linker_0--edge1-EZIPEK_clean_linker_0
_symmetry_space_group_name_H-M    P1
_symmetry_Int_Tables_number       1
_symmetry_cell_setting            triclinic
loop_
_symmetry_equiv_pos_as_xyz
'x, y, z'
_cell_length_a     41.033357
_cell_length_b     40.822571
_cell_length_c     13.036485
_cell_angle_alpha  90.068962
_cell_angle_beta   90.19322
_cell_angle_gamma 90.503647
loop_
_atom_site_label
_atom_site_type_symbol
_atom_site_fract_x
_atom_site_fract_y
_atom_site_fract_z
_atom_type_partial_charge
H0 H 0.7974 0.47 0.05458 0.0
C1 C 0.81091 0.48226 0.11525 0.0
C2 C 0.84508 0.48207 0.11383 0.0
C3 C 0.79442 0.49855 0.1949 0.0
H4 H 0.88906 0.4957 0.19246 0.0
C5 C 0.86261 0.49665 0.19357 0.0
C6 C 0.84702 0.51403 0.27111 0.0
C7 C 0.81277 0.51562 0.27035 0.0
C8 C 0.75835 0.49601 0.20335 0.0
H9 H 0.80046 0.5294 0.32957 0.0
C10 C 0.73773 0.50014 0.11734 0.0
C11 C 0.7037 0.49605 0.12708 0.0
C12 C 0.74441 0.488 0.29859 0.0
H13 H 0.75962 0.48426 0.36558 0.0
C14 C 0.7108 0.48383 0.30806 0.0
H15 H 0.74797 0.50674 0.0436 0.0
C16 C 0.69056 0.48771 0.22299 0.0
H17 H 0.66449 0.48448 0.23205 0.0
H18 H 0.70039 0.47745 0.38164 0.0
H19 H 0.04285 0.77815 0.03026 0.0
C20 C 0.0286 0.79283 0.08252 0.0
C21 C 0.028 0.82694 0.06949 0.0
C22 C 0.0113 0.77796 0.16385 0.0
H23 H 0.01175 0.87274 0.13225 0.0
C24 C 0.0113 0.84625 0.14003 0.0
C25 C 0.99626 0.83239 0.22508 0.0
C26 C 0.99506 0.79818 0.23531 0.0
C27 C 0.01174 0.74166 0.17703 0.0
H28 H 0.98271 0.78771 0.30097 0.0
C29 C 0.0113 0.72051 0.09115 0.0
C30 C 0.0123 0.68636 0.10436 0.0
C31 C 0.01318 0.72782 0.27588 0.0
H32 H 0.01443 0.74315 0.34361 0.0
C33 C 0.01379 0.69389 0.28875 0.0
H34 H 0.00999 0.73038 0.01414 0.0
C35 C 0.01335 0.67322 0.20356 0.0
H36 H 0.01412 0.64694 0.21484 0.0
H37 H 0.01493 0.68358 0.36514 0.0
H38 H 0.72072 0.04778 0.01655 0.0
C39 C 0.70836 0.03142 0.06936 0.0
C40 C 0.67419 0.02794 0.06524 0.0
C41 C 0.72639 0.01468 0.14501 0.0
H42 H 0.63215 1.00618 0.13722 0.0
C43 C 0.65857 0.00819 0.13783 0.0
C44 C 0.67575 0.99426 0.21868 0.0
C45 C 0.70984 0.99611 0.21985 0.0
C46 C 0.76198 0.01997 0.15495 0.0
H47 H 0.72319 0.9853 0.28307 0.0
C48 C 0.78349 0.01091 0.07605 0.0
C49 C 0.81733 0.01579 0.08829 0.0
C50 C 0.77456 0.03383 0.24563 0.0
H51 H 0.75841 0.04098 0.30717 0.0
C52 C 0.80801 0.03887 0.25741 0.0
H53 H 0.77406 0.99985 0.00626 0.0
C54 C 0.8293 0.02994 0.17933 0.0
H55 H 0.85524 0.03391 0.19 0.0
H56 H 0.81748 0.04968 0.32741 0.0
H57 H 0.51122 0.71572 0.00423 0.0
C58 C 0.51205 0.71047 0.08568 0.0
C59 C 0.50055 0.68004 0.12166 0.0
C60 C 0.52796 0.73245 0.15349 0.0
H61 H 0.495 0.64879 0.25234 0.0
C62 C 0.50299 0.67279 0.22591 0.0
C63 C 0.52259 0.69193 0.28999 0.0
C64 C 0.53346 0.7227 0.25612 0.0
C65 C 0.54352 0.7629 0.11368 0.0
H66 H 0.54814 0.73776 0.30719 0.0
C67 C 0.52647 0.78458 0.04894 0.0
C68 C 0.54189 0.81324 0.0124 0.0
C69 C 0.57615 0.77012 0.13948 0.0
H70 H 0.59013 0.75364 0.18715 0.0
C71 C 0.59138 0.79839 0.10264 0.0
H72 H 0.50133 0.77949 0.02826 0.0
C73 C 0.57437 0.81987 0.03962 0.0
H74 H 0.58653 0.84182 0.01211 0.0
H75 H 0.61649 0.80364 0.12296 0.0
H76 H 0.24252 0.55447 0.34617 0.0
C77 C 0.23021 0.54573 0.27754 0.0
C78 C 0.19674 0.53907 0.28016 0.0
C79 C 0.2476 0.54157 0.18555 0.0
H80 H 0.15488 0.5222 0.19565 0.0
C81 C 0.1808 0.52782 0.19233 0.0
C82 C 0.19773 0.52193 0.1021 0.0
C83 C 0.23129 0.52938 0.09738 0.0
C84 C 0.28171 0.55343 0.18092 0.0
H85 H 0.24443 0.52595 0.02628 0.0
C86 C 0.30614 0.53977 0.24378 0.0
C87 C 0.33678 0.55552 0.25446 0.0
C88 C 0.28864 0.5818 0.12433 0.0
H89 H 0.27011 0.59275 0.07625 0.0
C90 C 0.31885 0.59738 0.13406 0.0
H91 H 0.30096 0.51756 0.28643 0.0
C92 C 0.34243 0.58484 0.20016 0.0
H93 H 0.36541 0.5979 0.20805 0.0
H94 H 0.32375 0.61972 0.09198 0.0
H95 H 0.00986 0.23212 0.35551 0.0
C96 C 0.02114 0.21583 0.30065 0.0
C97 C 0.02333 0.18263 0.32458 0.0
C98 C 0.03069 0.22725 0.20305 0.0
H99 H 0.03799 0.13513 0.27401 0.0
C100 C 0.03706 0.16101 0.25486 0.0
C101 C 0.04323 0.17079 0.15436 0.0
C102 C 0.04092 0.20418 0.12861 0.0
C103 C 0.02574 0.26243 0.17741 0.0
H104 H 0.0456 0.21168 0.05037 0.0
C105 C 0.03044 0.28674 0.2532 0.0
C106 C 0.02078 0.31918 0.23587 0.0
C107 C 0.01329 0.27174 0.08114 0.0
H108 H 0.0088 0.25377 0.02152 0.0
C109 C 1.00491 0.30429 0.06229 0.0
H110 H 0.04046 0.28032 0.32747 0.0
C111 C 1.00814 0.32782 0.13954 0.0
H112 H 1.00053 0.35271 0.1246 0.0
H113 H 0.99498 0.31111 -0.01161 0.0
H114 H 0.28514 0.04166 0.33098 0.0
C115 C 0.29381 0.037 0.25397 0.0
C116 C 0.32567 0.02559 0.23984 0.0
C117 C 0.27379 0.04358 0.16791 0.0
H118 H 0.36193 0.01199 0.13024 0.0
C119 C 0.33718 0.02062 0.14084 0.0
C120 C 0.31915 0.02971 0.05543 0.0
C121 C 0.28699 0.04029 0.06806 0.0
C122 C 0.23984 0.05542 0.18222 0.0
H123 H 0.27267 0.04619 0.00074 0.0
C124 C 0.21953 0.04207 0.25911 0.0
C125 C 0.18742 0.05329 0.27116 0.0
C126 C 0.22749 0.08031 0.11871 0.0
H127 H 0.24257 0.09158 0.06033 0.0
C128 C 0.19566 0.0914 0.13083 0.0
H129 H 0.22837 0.02276 0.30865 0.0
C130 C 0.1757 0.078 0.20653 0.0
H131 H 0.15106 0.08693 0.21495 0.0
H132 H 0.18646 0.11057 0.08156 0.0
H133 H 0.53383 0.29105 0.31401 0.0
C134 C 0.5222 0.30342 0.25039 0.0
C135 C 0.52383 0.3377 0.2451 0.0
C136 C 0.5051 0.28547 0.17453 0.0
H137 H 0.51181 0.38051 0.15841 0.0
C138 C 0.50995 0.35398 0.16216 0.0
C139 C 0.49229 0.33701 0.08712 0.0
C140 C 0.48917 0.30273 0.09479 0.0
C141 C 0.50501 0.24888 0.17604 0.0
H142 H 0.47482 0.28962 0.03788 0.0
C143 C 0.50313 0.23104 0.26894 0.0
C144 C 0.50489 0.19655 0.2683 0.0
C145 C 0.50823 0.23149 0.08333 0.0
H146 H 0.51041 0.24429 0.01092 0.0
C147 C 0.50965 0.19737 0.08288 0.0
H148 H 0.50033 0.24372 0.34138 0.0
C149 C 0.50808 0.17998 0.17466 0.0
H150 H 0.50938 0.15348 0.17279 0.0
H151 H 0.51227 0.18435 0.01104 0.0
O152 O 0.0865 0.01099 0.64465 0.0
Zn153 Zn 0.05124 1.00186 0.74992 0.0
O154 O 1.00726 1.00238 0.68563 0.0
Zn155 Zn 0.9815 0.03775 0.73942 0.0
Zn156 Zn 0.0116 0.00795 0.53787 0.0
Zn157 Zn 0.9826 0.96279 0.71569 0.0
O158 O 0.93964 0.02406 0.80531 0.0
O159 O 0.93946 0.97001 0.78915 0.0
O160 O 0.05566 0.03751 0.86067 0.0
O161 O 1.00739 0.06102 0.84259 0.0
O162 O 0.97359 0.07257 0.63843 0.0
O163 O 0.99619 0.05287 0.49679 0.0
O164 O 0.99239 0.96915 0.4598 0.0
O165 O 0.05983 0.95653 0.80858 0.0
O166 O 0.97533 0.93712 0.5872 0.0
O167 O 0.01049 0.93358 0.79954 0.0
C168 C 0.08549 0.01291 0.54715 0.0
C169 C 0.92627 0.99631 0.82051 0.0
C170 C 0.9827 0.07597 0.54635 0.0
C171 C 0.03539 0.05987 0.88372 0.0
C172 C 0.98014 0.94226 0.4923 0.0
C173 C 0.04039 0.93262 0.8258 0.0
O174 O 0.05878 0.01039 0.49794 0.0
O175 O 0.49286 0.08799 0.64894 0.0
Zn176 Zn 0.49667 0.04752 0.74168 0.0
O177 O 0.50361 0.00762 0.65989 0.0
Zn178 Zn 0.4675 0.97632 0.6623 0.0
Zn179 Zn 0.50746 0.02148 0.52124 0.0
Zn180 Zn 0.54157 0.98416 0.69926 0.0
O181 O 0.47922 0.93286 0.72993 0.0
O182 O 0.53148 0.94137 0.7682 0.0
O183 O 0.45326 0.04208 0.82031 0.0
O184 O 0.43334 0.99688 0.74619 0.0
O185 O 0.44461 0.97048 0.52571 0.0
O186 O 0.46297 0.01711 0.46379 0.0
O187 O 0.54363 0.99809 0.44654 0.0
O188 O 0.53802 0.05671 0.82825 0.0
O189 O 0.57026 0.97652 0.57877 0.0
O190 O 0.5673 0.01262 0.7912 0.0
C191 C 0.50445 0.09279 0.55941 0.0
C192 C 0.50582 0.9237 0.7714 0.0
C193 C 0.44081 0.99529 0.46833 0.0
C194 C 0.43009 0.02124 0.80592 0.0
C195 C 0.56791 0.98271 0.48356 0.0
C196 C 0.56432 0.04024 0.8352 0.0
O197 O 0.51589 0.0694 0.50677 0.0
O198 O 0.44348 0.52084 0.61601 0.0
Zn199 Zn 0.47581 0.51019 0.73094 0.0
O200 O 0.52098 0.50967 0.67687 0.0
Zn201 Zn 0.54405 0.47111 0.72155 0.0
Zn202 Zn 0.51913 0.51211 0.52784 0.0
Zn203 Zn 0.5469 0.54604 0.72656 0.0
O204 O 0.5847 0.4803 0.8068 0.0
O205 O 0.58958 0.53421 0.79367 0.0
O206 O 0.46475 0.4653 0.79622 0.0
O207 O 0.51418 0.44336 0.80397 0.0
O208 O 0.55367 0.44306 0.60027 0.0
O209 O 0.54083 0.47288 0.46329 0.0
O210 O 0.53457 0.55723 0.47894 0.0
O211 O 0.47118 0.54638 0.83782 0.0
O212 O 0.55331 0.58033 0.62214 0.0
O213 O 0.52085 0.5686 0.82936 0.0
C214 C 0.44559 0.51755 0.5189 0.0
C215 C 0.60003 0.50687 0.82634 0.0
C216 C 0.55125 0.44647 0.50361 0.0
C217 C 0.48387 0.4423 0.82384 0.0
C218 C 0.54652 0.58175 0.52744 0.0
C219 C 0.49215 0.56792 0.86525 0.0
O220 O 0.47255 0.50988 0.4778 0.0
O221 O 0.97943 0.54688 0.53738 0.0
Zn222 Zn 0.02137 0.54053 0.62186 0.0
O223 O 0.01981 0.49838 0.69797 0.0
Zn224 Zn 0.01853 0.50622 0.84422 0.0
Zn225 Zn 0.98286 0.47232 0.65399 0.0
Zn226 Zn 0.05788 0.47173 0.6743 0.0
O227 O 0.06301 0.4975 0.90577 0.0
O228 O 0.08555 0.4625 0.79762 0.0
O229 O 0.02202 0.57876 0.72236 0.0
O230 O 0.01266 0.55403 0.87164 0.0
O231 O 0.97961 0.48309 0.90843 0.0
O232 O 0.95462 0.461 0.77268 0.0
O233 O 0.99483 0.43259 0.57132 0.0
O234 O 0.0631 0.54273 0.5345 0.0
O235 O 0.04873 0.43163 0.58636 0.0
O236 O 0.08792 0.49874 0.59555 0.0
C237 C 0.95499 0.52766 0.52534 0.0
C238 C 0.08678 0.47954 0.87915 0.0
C239 C 0.95582 0.46724 0.86814 0.0
C240 C 0.01656 0.57986 0.81854 0.0
C241 C 0.02219 0.41983 0.5505 0.0
C242 C 0.08814 0.52437 0.54102 0.0
O243 O 0.95449 0.49931 0.56547 0.0
C244 C 0.1488 0.00968 0.336 0.0
C245 C 0.1656 0.0398 0.35207 0.0
C246 C 0.1318 0.05111 0.50262 0.0
C247 C 0.11553 0.02056 0.48833 0.0
N248 N 0.11331 0.96759 0.40689 0.0
N249 N 0.17887 0.08515 0.46329 0.0
C250 C 0.1256 0.99881 0.40977 0.0
C251 C 0.159 0.05913 0.43987 0.0
N252 N 0.15391 0.99221 0.24807 0.0
N253 N 0.12003 0.07346 0.5711 0.0
H254 H 0.19895 0.09169 0.4186 0.0
H255 H 0.17733 0.09824 0.53171 0.0
H256 H 0.09991 0.069 0.61777 0.0
H257 H 0.1285 0.09754 0.57576 0.0
H258 H 0.13963 0.97219 0.226 0.0
H259 H 0.17114 0.99904 0.19331 0.0
H260 H 0.12183 0.94953 0.35753 0.0
H261 H 0.09663 0.95882 0.46075 0.0
C262 C 0.47329 0.16155 0.39222 0.0
C263 C 0.5032 0.17682 0.36445 0.0
C264 C 0.53274 0.14221 0.48682 0.0
C265 C 0.50314 0.12558 0.51005 0.0
N266 N 0.44446 0.12321 0.50291 0.0
N267 N 0.55988 0.18748 0.39972 0.0
C268 C 0.47308 0.13678 0.46933 0.0
C269 C 0.53244 0.16913 0.41721 0.0
N270 N 0.44541 0.16972 0.34085 0.0
N271 N 0.56126 0.13127 0.52858 0.0
H272 H 0.56039 0.20699 0.34813 0.0
H273 H 0.58143 0.18518 0.44121 0.0
H274 H 0.56193 0.11296 0.58437 0.0
H275 H 0.58426 0.13936 0.50619 0.0
H276 H 0.42344 0.15699 0.34705 0.0
H277 H 0.44453 0.18888 0.28804 0.0
H278 H 0.42152 0.13193 0.48341 0.0
H279 H 0.44347 0.10439 0.55677 0.0
C280 C 0.35826 0.53389 0.4261 0.0
C281 C 0.36344 0.54204 0.32122 0.0
C282 C 0.42214 0.53822 0.35048 0.0
C283 C 0.417 0.52516 0.45063 0.0
N284 N 0.37768 0.50141 0.56818 0.0
N285 N 0.40077 0.53984 0.17817 0.0
C286 C 0.3843 0.52014 0.48401 0.0
C287 C 0.39551 0.54005 0.28152 0.0
N288 N 0.32938 0.54074 0.47279 0.0
N289 N 0.4515 0.55144 0.32252 0.0
H290 H 0.38173 0.53933 0.1249 0.0
H291 H 0.42383 0.53628 0.14677 0.0
H292 H 0.47054 0.55562 0.37405 0.0
H293 H 0.45505 0.56288 0.25184 0.0
H294 H 0.32584 0.53758 0.55135 0.0
H295 H 0.31046 0.55299 0.43621 0.0
H296 H 0.35395 0.49542 0.59008 0.0
H297 H 0.39552 0.48843 0.60759 0.0
C298 C 1.00331 0.34006 0.40971 0.0
C299 C 0.02259 0.34395 0.31992 0.0
C300 C 0.0393 0.39857 0.37837 0.0
C301 C 0.02324 0.39314 0.47321 0.0
N302 N 0.99441 0.35641 0.5863 0.0
N303 N 0.06471 0.37395 0.23037 0.0
C304 C 1.00659 0.36313 0.49113 0.0
C305 C 0.04245 0.37229 0.30794 0.0
N306 N 0.98065 0.31538 0.41531 0.0
N307 N 0.04962 0.42934 0.35226 0.0
H308 H 0.06822 0.35487 0.17837 0.0
H309 H 0.08187 0.39282 0.22421 0.0
H310 H 0.04549 0.44976 0.39837 0.0
H311 H 0.0588 0.43518 0.28005 0.0
H312 H 0.9637 0.31347 0.47434 0.0
H313 H 0.97659 0.29859 0.35623 0.0
H314 H 0.98498 0.33357 0.60671 0.0
H315 H 0.99647 0.37275 0.64765 0.0
C316 C 0.84388 0.02366 0.91539 0.0
C317 C 0.84102 1.0057 0.00809 0.0
C318 C 0.89245 0.97779 0.9719 0.0
C319 C 0.89507 0.99538 0.8782 0.0
N320 N 0.86874 0.02743 0.74732 0.0
N321 N 0.85716 0.95923 0.10935 0.0
C322 C 0.86921 0.01583 0.8456 0.0
C323 C 0.86352 0.98052 0.03094 0.0
N324 N 0.82368 0.04941 0.89646 0.0
N325 N 0.91828 0.96035 0.00856 0.0
H326 H 0.836 0.9605 0.15334 0.0
H327 H 0.87109 0.93852 0.12384 0.0
H328 H 0.94026 0.9581 0.96956 0.0
H329 H 0.91895 0.95031 0.08197 0.0
H330 H 0.82715 0.06573 0.83602 0.0
H331 H 0.80484 0.05607 0.94546 0.0
H332 H 0.84906 0.03996 0.71611 0.0
H333 H 0.8866 0.02149 0.69373 0.0
C334 C 0.52965 0.83653 0.83906 0.0
C335 C 0.5246 0.83729 0.94656 0.0
C336 C 0.49773 0.89057 0.93098 0.0
C337 C 0.50746 0.89204 0.82674 0.0
N338 N 0.5319 0.86692 0.67897 0.0
N339 N 0.50363 0.86408 0.0968 0.0
C340 C 0.52281 0.86491 0.77961 0.0
C341 C 0.50798 0.8638 -0.00716 0.0
N342 N 0.54105 0.80857 0.79447 0.0
N343 N 0.47909 0.91506 0.97081 0.0
H344 H 0.50969 0.84432 0.14356 0.0
H345 H 0.49539 0.88426 0.13771 0.0
H346 H 0.4722 0.93548 0.92825 0.0
H347 H 0.46844 0.91417 0.04309 0.0
H348 H 0.54284 0.80514 0.7156 0.0
H349 H 0.54628 0.78754 0.83667 0.0
H350 H 0.54657 0.84983 0.64259 0.0
H351 H 0.52577 0.88669 0.63224 0.0
C352 C 0.65847 0.52776 0.04633 0.0
C353 C 0.68091 0.50167 0.03947 0.0
C354 C 0.65455 0.48374 0.87919 0.0
C355 C 0.62893 0.50631 0.89622 0.0
N356 N 0.60378 0.54562 0.01013 0.0
N357 N 0.69839 0.45231 0.95464 0.0
C358 C 0.63026 0.52748 0.98304 0.0
C359 C 0.67863 0.47906 0.95683 0.0
N360 N 0.66415 0.5529 0.11353 0.0
N361 N 0.65642 0.46744 0.78783 0.0
H362 H 0.71636 0.44804 0.00965 0.0
H363 H 0.69529 0.4331 0.90274 0.0
H364 H 0.63982 0.47098 0.72818 0.0
H365 H 0.67622 0.45306 0.76739 0.0
H366 H 0.65021 0.57412 0.11491 0.0
H367 H 0.68484 0.55405 0.16024 0.0
H368 H 0.60252 0.55872 0.07863 0.0
H369 H 0.58166 0.54478 0.97084 0.0
C370 C 0.04339 0.65369 0.9745 0.0
C371 C 0.01297 0.66377 0.01482 0.0
C372 C 0.98436 0.62259 0.91013 0.0
C373 C 0.01485 0.61175 0.87247 0.0
N374 N 0.07263 0.62018 0.85153 0.0
N375 N 0.95436 0.66316 0.0076 0.0
C376 C 0.04413 0.62857 0.89857 0.0
C377 C 0.98335 0.64994 0.97791 0.0
N378 N 0.0716 0.66715 0.01253 0.0
N379 N 0.95651 0.606 0.88313 0.0
H380 H 0.95294 0.68297 0.05801 0.0
H381 H 0.93185 0.65632 0.97709 0.0
H382 H 0.95621 0.58738 0.82822 0.0
H383 H 0.93394 0.60971 0.91713 0.0
H384 H 0.09475 0.65843 -0.00379 0.0
H385 H 0.07188 0.68645 0.06509 0.0
H386 H 0.09436 0.63325 0.85954 0.0
H387 H 0.07416 0.60126 0.79801 0.0
C388 C 0.02618 0.15589 0.49337 0.0
C389 C 1.00652 0.16781 0.41316 0.0
C390 C 0.96638 0.12402 0.43936 0.0
C391 C 0.98806 0.10967 0.51033 0.0
N392 N 0.03477 0.11462 0.62398 0.0
N393 N 0.954 0.17109 0.33244 0.0
C394 C 0.01653 0.1268 0.54481 0.0
C395 C 0.97497 0.15464 0.39502 0.0
N396 N 0.05526 0.17121 0.51355 0.0
N397 N 0.93855 0.10763 0.41136 0.0
H398 H 0.96016 0.19362 0.29989 0.0
H399 H 0.9299 0.16405 0.31953 0.0
H400 H 0.93139 0.08562 0.44552 0.0
H401 H 0.9232 0.11499 0.35221 0.0
H402 H 0.0731 0.16219 0.56252 0.0
H403 H 0.06163 0.19333 0.47839 0.0
H404 H 0.05409 0.12716 0.65837 0.0
H405 H 0.02981 0.09232 0.65966 0.0
C406 C 0.34969 0.99656 0.39368 0.0
C407 C 0.35027 0.02283 0.32304 0.0
C408 C 0.40906 0.02568 0.33556 0.0
C409 C 0.4091 1.00205 0.41561 0.0
N410 N 0.37542 0.97414 0.54394 0.0
N411 N 0.37923 0.07029 0.2605 0.0
C412 C 0.3783 0.98997 0.45214 0.0
C413 C 0.37953 0.04061 0.30851 0.0
N414 N 0.32248 0.97742 0.40355 0.0
N415 N 0.4364 0.03216 0.27933 0.0
H416 H 0.35747 0.08147 0.23874 0.0
H417 H 0.40019 0.0847 0.25247 0.0
H418 H 0.45748 0.01818 0.28516 0.0
H419 H 0.43633 0.04806 0.21674 0.0
H420 H 0.32225 0.95586 0.44637 0.0
H421 H 0.30092 0.98205 0.36378 0.0
H422 H 0.35286 0.96749 0.57451 0.0
H423 H 0.39434 0.97145 0.59619 0.0
C424 C 0.51168 0.36951 0.40026 0.0
C425 C 0.53556 0.3583 0.33123 0.0
C426 C 0.57297 0.402 0.38843 0.0
C427 C 0.54701 0.41601 0.44419 0.0
N428 N 0.48994 0.41587 0.49086 0.0
N429 N 0.58891 0.36302 0.25678 0.0
C430 C 0.51596 0.40038 0.44753 0.0
C431 C 0.56648 0.37407 0.32546 0.0
N432 N 0.48452 0.35086 0.41896 0.0
N433 N 0.60348 0.41547 0.3954 0.0
H434 H 0.58508 0.34176 0.21365 0.0
H435 H 0.61053 0.37538 0.23999 0.0
H436 H 0.60841 0.4364 0.43905 0.0
H437 H 0.62409 0.40488 0.36353 0.0
H438 H 0.46779 0.35633 0.4763 0.0
H439 H 0.48048 0.32812 0.38444 0.0
H440 H 0.466 0.40746 0.48332 0.0
H441 H 0.49165 0.43842 0.52824 0.0
C442 C 0.16796 0.50743 0.40927 0.0
C443 C 0.17762 0.5387 0.37563 0.0
C444 C 0.13207 0.56253 0.46995 0.0
C445 C 0.11832 0.53058 0.4811 0.0
N446 N 0.12106 0.47308 0.43272 0.0
N447 N 0.16886 0.59682 0.37046 0.0
C448 C 0.13584 0.503 0.44393 0.0
C449 C 0.15985 0.56666 0.40583 0.0
N450 N 0.18861 0.48159 0.39954 0.0
N451 N 0.11965 0.58849 0.52257 0.0
H452 H 0.18991 0.60042 0.32698 0.0
H453 H 0.15469 0.61764 0.38042 0.0
H454 H 0.10052 0.5862 0.57449 0.0
H455 H 0.13062 0.61161 0.52266 0.0
H456 H 0.18325 0.45841 0.42888 0.0
H457 H 0.21229 0.48453 0.37171 0.0
H458 H 0.13241 0.45319 0.39809 0.0
H459 H 0.09627 0.4693 0.44462 0.0
C460 C 0.03344 0.84447 0.886 0.0
C461 C 0.04598 0.8444 -0.01285 0.0
C462 C 0.06852 0.89955 0.96475 0.0
C463 C 0.05207 0.9012 0.86905 0.0
N464 N 0.03353 0.87134 0.72039 0.0
N465 N 0.08679 0.86448 0.10393 0.0
C466 C 0.03985 0.87203 0.82319 0.0
C467 C 0.06813 0.8693 0.01856 0.0
N468 N 0.01319 0.8199 0.853 0.0
N469 N 0.08193 0.92698 0.00824 0.0
H470 H 0.08585 0.84242 0.14443 0.0
H471 H 0.10495 0.88076 0.12808 0.0
H472 H 0.08333 0.94944 0.9709 0.0
H473 H 0.09055 0.92777 0.08345 0.0
H474 H 1.00007 0.821 0.78456 0.0
H475 H 0.00843 0.79896 0.89609 0.0
H476 H 0.0267 0.85016 0.68085 0.0
H477 H 0.0386 0.89148 0.67374 0.0
C478 C 0.6264 0.06412 0.03834 0.0
C479 C 0.65275 0.04666 -0.00586 0.0
C480 C 0.62407 0.04794 0.83072 0.0
C481 C 0.59451 0.05369 0.8836 0.0
N482 N 0.56786 0.07179 0.03813 0.0
N483 N 0.67727 0.02351 0.84216 0.0
C484 C 0.59574 0.06419 -0.01301 0.0
C485 C 0.65235 0.03996 0.8876 0.0
N486 N 0.63051 0.07873 0.13173 0.0
N487 N 0.62443 0.04895 0.72619 0.0
H488 H 0.69842 0.01685 0.88081 0.0
H489 H 0.67601 0.01477 0.76708 0.0
H490 H 0.60375 0.05559 0.68455 0.0
H491 H 0.64569 0.04693 0.68315 0.0
H492 H 0.61294 0.09345 0.16566 0.0
H493 H 0.65294 0.07844 0.1699 0.0
H494 H 0.5671 0.07575 0.11704 0.0
H495 H 0.5452 0.07294 0.0022 0.0
C496 C 0.46822 0.64841 -0.01362 0.0
C497 C 0.49573 0.65155 0.05199 0.0
C498 C 0.50839 0.59408 0.02472 0.0
C499 C 0.4853 0.59245 0.94492 0.0
N500 N 0.44387 0.61872 0.84327 0.0
N501 N 0.54754 0.62947 0.10653 0.0
C502 C 0.46497 0.61969 0.92436 0.0
C503 C 0.51744 0.6249 0.0635 0.0
N504 N 0.44534 0.67245 0.98395 0.0
N505 N 0.52272 0.56619 0.05985 0.0
H506 H 0.55645 0.65266 0.126 0.0
H507 H 0.56493 0.61104 0.11027 0.0
H508 H 0.51621 0.54307 0.03157 0.0
H509 H 0.53823 0.566 0.12339 0.0
H510 H 0.42332 0.67006 0.94453 0.0
H511 H 0.44756 0.69387 0.02729 0.0
H512 H 0.43115 0.63913 0.81762 0.0
H513 H 0.44037 0.59774 0.79873 0.0
C514 C 0.87286 0.49536 0.95337 0.0
C515 C 0.86439 0.47093 0.02505 0.0
C516 C 0.91294 0.43969 0.97728 0.0
C517 C 0.92431 0.46735 0.92204 0.0
N518 N 0.91666 0.52331 0.86626 0.0
N519 N 0.87458 0.41894 0.1041 0.0
C520 C 0.90454 0.49556 0.91141 0.0
C521 C 0.88365 0.4424 0.03512 0.0
N522 N 0.85087 0.51898 0.92828 0.0
N523 N 0.93028 0.4113 0.97531 0.0
H524 H 0.85247 0.42008 0.14334 0.0
H525 H 0.88914 0.39922 0.1245 0.0
H526 H 0.95224 0.40923 0.93574 0.0
H527 H 0.92199 0.38941 0.00721 0.0
H528 H 0.85465 0.5359 0.86963 0.0
H529 H 0.82741 0.51935 0.95871 0.0
H530 H 0.90477 0.54574 0.86829 0.0
H531 H 0.93973 0.52481 0.83318 0.0
C532 C 0.01449 0.12405 0.07232 0.0
C533 C 0.04272 0.14429 0.07597 0.0
C534 C 0.06938 0.10737 0.95416 0.0
C535 C 0.04239 0.08532 0.96214 0.0
N536 N 0.99452 0.06865 0.05616 0.0
N537 N 0.09922 0.15266 0.03282 0.0
C538 C 0.01674 0.09238 0.03062 0.0
C539 C 0.07095 0.13521 0.02066 0.0
N540 N 0.98531 0.13532 0.10751 0.0
N541 N 0.0925 0.10284 0.88059 0.0
H542 H 0.10074 0.17352 0.079 0.0
H543 H 0.12142 0.14511 0.00272 0.0
H544 H 0.09227 0.08294 0.83051 0.0
H545 H 0.11063 0.12011 0.86475 0.0
H546 H 0.96356 0.12216 0.09956 0.0
H547 H 0.98231 0.15927 0.13373 0.0
H548 H 0.97679 0.07203 0.11221 0.0
H549 H 0.99631 0.04457 0.02974 0.0
C550 C 0.35327 0.05812 0.9236 0.0
C551 C 0.33692 0.02925 0.95652 0.0
C552 C 0.38128 0.99596 0.89269 0.0
C553 C 0.39792 0.02461 0.85762 0.0
N554 N 0.3934 0.08164 0.80885 0.0
N555 N 0.32929 0.97138 0.93796 0.0
C556 C 0.38199 0.0554 0.86326 0.0
C557 C 0.34861 0.99845 0.92596 0.0
N558 N 0.34243 0.08804 0.95458 0.0
N559 N 0.39733 0.96696 0.90344 0.0
H560 H 0.30548 0.97319 0.96549 0.0
H561 H 0.33575 0.94827 0.91114 0.0
H562 H 0.42232 0.96466 0.89204 0.0
H563 H 0.38673 0.94624 0.93653 0.0
H564 H 0.35576 0.10963 0.94407 0.0
H565 H 0.32076 0.09092 -0.00503 0.0
H566 H 0.38095 0.10374 0.80418 0.0
H567 H 0.41323 0.08028 0.75934 0.0
C568 C 0.48973 0.3554 0.90212 0.0
C569 C 0.47732 0.35685 0.0034 0.0
C570 C 0.45684 0.41233 0.97185 0.0
C571 C 0.47181 0.41178 0.87408 0.0
N572 N 0.48897 0.37892 0.73158 0.0
N573 N 0.43864 0.38067 0.11913 0.0
C574 C 0.4833 0.3817 0.83422 0.0
C575 C 0.45686 0.38323 0.03205 0.0
N576 N 0.50991 0.33066 0.87304 0.0
N577 N 0.44497 0.44092 0.01046 0.0
H578 H 0.43861 0.35944 0.16378 0.0
H579 H 0.42152 0.398 0.141 0.0
H580 H 0.44392 0.46245 0.96787 0.0
H581 H 0.43751 0.44363 0.08627 0.0
H582 H 0.52275 0.33085 0.80421 0.0
H583 H 0.51556 0.31089 0.9199 0.0
H584 H 0.49508 0.35695 0.696 0.0
H585 H 0.48388 0.39808 0.68141 0.0
C586 C 0.16235 0.52926 0.94814 0.0
C587 C 0.17827 0.50769 0.01634 0.0
C588 C 0.13642 0.46531 0.98479 0.0
C589 C 0.1195 0.48764 0.92141 0.0
N590 N 0.12075 0.53687 0.81828 0.0
N591 N 0.18606 0.45319 0.07998 0.0
C592 C 0.13398 0.51833 0.89498 0.0
C593 C 0.16721 0.47482 0.02696 0.0
N594 N 0.17317 0.5609 0.93962 0.0
N595 N 0.12234 0.43582 0.00833 0.0
H596 H 0.20862 0.46002 0.11098 0.0
H597 H 0.18088 0.42828 0.08594 0.0
H598 H 0.10003 0.42823 0.97733 0.0
H599 H 0.13169 0.41963 0.06227 0.0
H600 H 0.16014 0.57927 0.90287 0.0
H601 H 0.19479 0.56911 0.9737 0.0
H602 H 0.13204 0.55766 0.78816 0.0
H603 H 0.0997 0.53008 0.77833 0.0
C604 C 0.01288 0.86418 0.37834 0.0
C605 C 0.98763 0.85509 0.30943 0.0
C606 C 0.95502 0.90173 0.368 0.0
C607 C 0.98214 0.91296 0.42616 0.0
N608 N 0.03875 0.90777 0.47493 0.0
N609 N 0.93521 0.86527 0.23335 0.0
C610 C 0.01153 0.89489 0.42854 0.0
C611 C 0.95863 0.87375 0.30342 0.0
N612 N 0.03843 0.84354 0.395 0.0
N613 N 0.92603 0.91776 0.37476 0.0
H614 H 0.93666 0.84401 0.18907 0.0
H615 H 0.9152 0.87981 0.21614 0.0
H616 H 0.9232 0.93886 0.41904 0.0
H617 H 0.90445 0.90919 0.3417 0.0
H618 H 0.05574 0.84724 0.45257 0.0
H619 H 0.04066 0.82101 0.35817 0.0
H620 H 0.06185 0.89766 0.4678 0.0
H621 H 0.03901 0.93003 0.51424 0.0
C622 C 0.63606 0.95644 0.30437 0.0
C623 C 0.65628 0.98478 0.30955 0.0
C624 C 0.61892 0.01044 0.42976 0.0
C625 C 0.59838 0.98234 0.42422 0.0
N626 N 0.58991 0.92611 0.3745 0.0
N627 N 0.67235 0.03384 0.40051 0.0
C628 C 0.60789 0.95434 0.36784 0.0
C629 C 0.64962 0.00994 0.38105 0.0
N630 N 0.64316 0.93244 0.23514 0.0
N631 N 0.60839 0.03835 0.4771 0.0
H632 H 0.69511 0.03452 0.36557 0.0
H633 H 0.67006 0.05097 0.45929 0.0
H634 H 0.58605 0.04003 0.51453 0.0
H635 H 0.62056 0.06079 0.47219 0.0
H636 H 0.62766 0.91284 0.21829 0.0
H637 H 0.66454 0.93299 0.1919 0.0
H638 H 0.59698 0.90398 0.34211 0.0
H639 H 0.56874 0.92442 0.41843 0.0
C640 C 0.5659 0.65721 0.36742 0.0
C641 C 0.53645 0.67486 0.38055 0.0
C642 C 0.51682 0.63428 0.50345 0.0
C643 C 0.54454 0.61474 0.48167 0.0
N644 N 0.59906 0.61052 0.41641 0.0
N645 N 0.49007 0.68694 0.48341 0.0
C646 C 0.57041 0.62728 0.42151 0.0
C647 C 0.51424 0.6657 0.45771 0.0
N648 N 0.5885 0.66814 0.29851 0.0
N649 N 0.49223 0.62206 0.56336 0.0
H650 H 0.48829 0.70992 0.44872 0.0
H651 H 0.474 0.68327 0.54397 0.0
H652 H 0.49314 0.59919 0.59882 0.0
H653 H 0.47 0.63365 0.57366 0.0
H654 H 0.60843 0.65461 0.27447 0.0
H655 H 0.58686 0.6909 0.26298 0.0
H656 H 0.62002 0.61942 0.38105 0.0
H657 H 0.60256 0.58824 0.45388 0.0
C658 C 0.86788 0.51984 0.45352 0.0
C659 C 0.86826 0.53021 0.34978 0.0
C660 C 0.92442 0.55057 0.37059 0.0
C661 C 0.92457 0.53799 0.47191 0.0
N662 N 0.89231 0.52651 0.62141 0.0
N663 N 0.89126 0.56716 0.22516 0.0
C664 C 0.89464 0.52831 0.51728 0.0
C665 C 0.89459 0.55008 0.31448 0.0
N666 N 0.84383 0.49963 0.48959 0.0
N667 N 0.95268 0.56065 0.32508 0.0
H668 H 0.86946 0.5669 0.18353 0.0
H669 H 0.90869 0.58379 0.19865 0.0
H670 H 0.97492 0.56182 0.36346 0.0
H671 H 0.95429 0.56625 0.2473 0.0
H672 H 0.84492 0.48863 0.56163 0.0
H673 H 0.82405 0.49176 0.44572 0.0
H674 H 0.87048 0.52167 0.65946 0.0
H675 H 0.91161 0.53384 0.66856 0.0
loop_
_geom_bond_atom_site_label_1
_geom_bond_atom_site_label_2
_geom_bond_distance
_geom_bond_site_symmetry_2
_ccdc_geom_bond_type
H0 C1 0.949 . S
C1 H0 0.949 . S
C1 C2 1.395 . S
C1 C3 1.391 1_556 S
C2 C1 1.395 . S
C2 C5 1.390 1_556 S
C3 C1 1.391 1_554 S
C3 C7 1.387 . S
C3 C8 1.491 . S
H4 C5 0.950 . S
C5 C2 1.390 1_554 S
C5 H4 0.950 . S
C5 C6 1.378 . S
C6 C5 1.378 . S
C6 C7 1.409 . S
C7 C3 1.387 . S
C7 C6 1.409 . S
C7 H9 0.951 . S
C8 C3 1.491 . S
C8 C10 1.382 1_554 S
C8 C12 1.404 . S
H9 C7 0.951 . S
C10 C8 1.382 1_556 S
C10 C11 1.390 . S
C10 H15 0.949 . S
C11 C10 1.390 . S
C11 C16 1.399 1_556 S
C12 C8 1.404 . S
C12 H13 0.950 . S
C12 C14 1.375 . S
H13 C12 0.950 . S
C14 C12 1.375 . S
C14 C16 1.382 . S
C14 H18 0.950 . S
H15 C10 0.949 . S
C16 C11 1.399 1_554 S
C16 C14 1.382 . S
C16 H17 0.952 . S
H17 C16 0.952 . S
H18 C14 0.950 . S
H19 C20 0.949 1_556 S
C20 H19 0.949 1_554 S
C20 C21 1.395 1_655 S
C20 C22 1.391 . S
C21 C20 1.395 1_455 S
C21 C24 1.390 . S
C22 C20 1.391 . S
C22 C26 1.387 . S
C22 C27 1.491 . S
H23 C24 0.950 . S
C24 C21 1.390 . S
C24 H23 0.950 . S
C24 C25 1.380 . S
C25 C24 1.380 . S
C25 C26 1.406 1_455 S
C26 C22 1.387 . S
C26 C25 1.406 1_655 S
C26 H28 0.951 . S
C27 C22 1.491 . S
C27 C29 1.382 . S
C27 C31 1.404 . S
H28 C26 0.951 . S
C29 C27 1.382 . S
C29 C30 1.390 . S
C29 H34 0.949 1_655 S
C30 C29 1.390 . S
C30 C35 1.399 . S
C31 C27 1.404 . S
C31 H32 0.950 . S
C31 C33 1.375 . S
H32 C31 0.950 . S
C33 C31 1.375 . S
C33 C35 1.382 . S
C33 H37 0.950 . S
H34 C29 0.949 1_455 S
C35 C30 1.399 . S
C35 C33 1.382 . S
C35 H36 0.952 . S
H36 C35 0.952 . S
H37 C33 0.950 . S
H38 C39 0.949 1_556 S
C39 H38 0.949 1_554 S
C39 C40 1.392 1_565 S
C39 C41 1.391 . S
C40 C39 1.392 1_545 S
C40 C43 1.391 . S
C41 C39 1.391 . S
C41 C45 1.387 . S
C41 C46 1.491 . S
H42 C43 0.950 . S
C43 C40 1.391 . S
C43 H42 0.950 . S
C43 C44 1.378 . S
C44 C43 1.378 . S
C44 C45 1.410 1_545 S
C45 C41 1.387 . S
C45 C44 1.410 1_565 S
C45 H47 0.951 . S
C46 C41 1.491 . S
C46 C48 1.382 . S
C46 C50 1.404 . S
H47 C45 0.951 . S
C48 C46 1.382 . S
C48 C49 1.390 . S
C48 H53 0.949 1_564 S
C49 C48 1.390 . S
C49 C54 1.399 . S
C50 C46 1.404 . S
C50 H51 0.950 . S
C50 C52 1.375 . S
H51 C50 0.950 . S
C52 C50 1.375 . S
C52 C54 1.382 . S
C52 H56 0.950 . S
H53 C48 0.949 1_546 S
C54 C49 1.399 . S
C54 C52 1.382 . S
C54 H55 0.952 . S
H55 C54 0.952 . S
H56 C52 0.950 . S
H57 C58 0.949 . S
C58 H57 0.949 . S
C58 C59 1.395 . S
C58 C60 1.391 1_556 S
C59 C58 1.395 . S
C59 C62 1.390 1_556 S
C60 C58 1.391 1_554 S
C60 C64 1.387 . S
C60 C65 1.491 . S
H61 C62 0.950 . S
C62 C59 1.390 1_554 S
C62 H61 0.950 . S
C62 C63 1.378 . S
C63 C62 1.378 . S
C63 C64 1.409 . S
C64 C60 1.387 . S
C64 C63 1.409 . S
C64 H66 0.951 . S
C65 C60 1.491 . S
C65 C67 1.382 1_554 S
C65 C69 1.404 . S
H66 C64 0.951 . S
C67 C65 1.382 1_556 S
C67 C68 1.390 . S
C67 H72 0.949 . S
C68 C67 1.390 . S
C68 C73 1.399 1_556 S
C69 C65 1.404 . S
C69 H70 0.950 . S
C69 C71 1.375 . S
H70 C69 0.950 . S
C71 C69 1.375 . S
C71 C73 1.382 . S
C71 H75 0.950 . S
H72 C67 0.949 . S
C73 C68 1.399 1_554 S
C73 C71 1.382 . S
C73 H74 0.952 . S
H74 C73 0.952 . S
H75 C71 0.950 . S
H76 C77 0.949 . S
C77 H76 0.949 . S
C77 C78 1.395 . S
C77 C79 1.391 . S
C78 C77 1.395 . S
C78 C81 1.390 . S
C79 C77 1.391 . S
C79 C83 1.387 . S
C79 C84 1.491 . S
H80 C81 0.950 . S
C81 C78 1.390 . S
C81 H80 0.950 . S
C81 C82 1.378 . S
C82 C81 1.378 . S
C82 C83 1.409 . S
C83 C79 1.387 . S
C83 C82 1.409 . S
C83 H85 0.951 . S
C84 C79 1.491 . S
C84 C86 1.382 . S
C84 C88 1.404 . S
H85 C83 0.951 . S
C86 C84 1.382 . S
C86 C87 1.390 . S
C86 H91 0.949 . S
C87 C86 1.390 . S
C87 C92 1.399 . S
C88 C84 1.404 . S
C88 H89 0.950 . S
C88 C90 1.375 . S
H89 C88 0.950 . S
C90 C88 1.375 . S
C90 C92 1.382 . S
C90 H94 0.950 . S
H91 C86 0.949 . S
C92 C87 1.399 . S
C92 C90 1.382 . S
C92 H93 0.952 . S
H93 C92 0.952 . S
H94 C90 0.950 . S
H95 C96 0.949 . S
C96 H95 0.949 . S
C96 C97 1.395 . S
C96 C98 1.391 . S
C97 C96 1.395 . S
C97 C100 1.390 . S
C98 C96 1.391 . S
C98 C102 1.387 . S
C98 C103 1.491 . S
H99 C100 0.950 . S
C100 C97 1.390 . S
C100 H99 0.950 . S
C100 C101 1.378 . S
C101 C100 1.378 . S
C101 C102 1.409 . S
C102 C98 1.387 . S
C102 C101 1.409 . S
C102 H104 0.951 . S
C103 C98 1.491 . S
C103 C105 1.382 . S
C103 C107 1.404 1_455 S
H104 C102 0.951 . S
C105 C103 1.382 . S
C105 C106 1.390 . S
C105 H110 0.949 . S
C106 C105 1.390 . S
C106 C111 1.399 . S
C107 C103 1.404 1_655 S
C107 H108 0.950 . S
C107 C109 1.375 . S
H108 C107 0.950 . S
C109 C107 1.375 . S
C109 C111 1.382 1_655 S
C109 H113 0.950 . S
H110 C105 0.949 . S
C111 C106 1.399 . S
C111 C109 1.382 1_455 S
C111 H112 0.952 1_455 S
H112 C111 0.952 1_655 S
H113 C109 0.950 . S
H114 C115 0.949 . S
C115 H114 0.949 . S
C115 C116 1.395 . S
C115 C117 1.391 . S
C116 C115 1.395 . S
C116 C119 1.390 . S
C117 C115 1.391 . S
C117 C121 1.387 . S
C117 C122 1.491 1_545 S
H118 C119 0.950 . S
C119 C116 1.390 . S
C119 H118 0.950 . S
C119 C120 1.378 . S
C120 C119 1.378 . S
C120 C121 1.409 . S
C121 C117 1.387 . S
C121 C120 1.409 . S
C121 H123 0.951 . S
C122 C117 1.491 1_565 S
C122 C124 1.382 1_565 S
C122 C126 1.404 . S
H123 C121 0.951 . S
C124 C122 1.382 1_545 S
C124 C125 1.397 . S
C124 H129 0.949 . S
C125 C124 1.397 . S
C125 C130 1.377 1_545 S
C126 C122 1.404 . S
C126 H127 0.950 . S
C126 C128 1.375 . S
H127 C126 0.950 . S
C128 C126 1.375 . S
C128 C130 1.382 . S
C128 H132 0.950 . S
H129 C124 0.949 . S
C130 C125 1.377 1_565 S
C130 C128 1.382 . S
C130 H131 0.952 . S
H131 C130 0.952 . S
H132 C128 0.950 . S
H133 C134 0.949 . S
C134 H133 0.949 . S
C134 C135 1.395 . S
C134 C136 1.391 . S
C135 C134 1.395 . S
C135 C138 1.390 . S
C136 C134 1.391 . S
C136 C140 1.387 . S
C136 C141 1.491 . S
H137 C138 0.950 . S
C138 C135 1.390 . S
C138 H137 0.950 . S
C138 C139 1.378 . S
C139 C138 1.378 . S
C139 C140 1.409 . S
C140 C136 1.387 . S
C140 C139 1.409 . S
C140 H142 0.951 . S
C141 C136 1.491 . S
C141 C143 1.382 . S
C141 C145 1.404 . S
H142 C140 0.951 . S
C143 C141 1.382 . S
C143 C144 1.390 . S
C143 H148 0.949 . S
C144 C143 1.390 . S
C144 C149 1.399 . S
C145 C141 1.404 . S
C145 H146 0.950 . S
C145 C147 1.375 . S
H146 C145 0.950 . S
C147 C145 1.375 . S
C147 C149 1.382 . S
C147 H151 0.950 . S
H148 C143 0.949 . S
C149 C144 1.399 . S
C149 C147 1.382 . S
C149 H150 0.952 . S
H150 C149 0.952 . S
H151 C147 0.950 . S
O152 Zn153 1.955 . S
O152 C168 1.225 1_545 S
Zn153 O152 1.955 . S
Zn153 O154 1.948 1_545 S
Zn153 O160 1.938 . S
Zn153 O165 1.900 1_545 S
O154 Zn153 1.948 1_565 S
O154 Zn155 1.900 1_465 S
O154 Zn156 1.952 . S
O154 Zn157 1.967 1_455 S
Zn155 O154 1.900 1_645 S
Zn155 O158 1.933 . S
Zn155 O161 1.941 1_655 S
Zn155 O162 1.965 . S
Zn156 O154 1.952 . S
Zn156 O163 1.938 1_565 S
Zn156 O164 1.906 . S
Zn156 O174 1.953 . S
Zn157 O154 1.967 1_655 S
Zn157 O159 1.932 . S
Zn157 O166 1.977 . S
Zn157 O167 1.910 1_655 S
O158 Zn155 1.933 . S
O158 C169 1.226 . S
O159 Zn157 1.932 . S
O159 C169 1.307 1_565 S
O160 Zn153 1.938 . S
O160 C171 1.253 . S
O161 Zn155 1.941 1_455 S
O161 C171 1.283 . S
O162 Zn155 1.965 . S
O162 C170 1.303 1_655 S
O163 Zn156 1.938 1_545 S
O163 C170 1.247 . S
O164 Zn156 1.906 . S
O164 C172 1.304 1_455 S
O165 Zn153 1.900 1_565 S
O165 C173 1.311 . S
O166 Zn157 1.977 . S
O166 C172 1.272 . S
O167 Zn157 1.910 1_455 S
O167 C173 1.231 . S
C168 O152 1.225 1_565 S
C168 O174 1.298 . S
C169 O158 1.226 . S
C169 O159 1.307 1_545 S
C170 O162 1.303 1_455 S
C170 O163 1.247 . S
C171 O160 1.253 . S
C171 O161 1.283 . S
C172 O164 1.304 1_655 S
C172 O166 1.272 . S
C173 O165 1.311 . S
C173 O167 1.231 . S
O174 Zn156 1.953 . S
O174 C168 1.298 . S
O175 Zn176 1.953 . S
O175 C191 1.225 . S
Zn176 O175 1.953 . S
Zn176 O177 1.949 . S
Zn176 O183 1.919 . S
Zn176 O188 1.924 . S
O177 Zn176 1.949 . S
O177 Zn178 1.923 1_545 S
O177 Zn179 1.950 . S
O177 Zn180 1.945 1_545 S
Zn178 O177 1.923 1_565 S
Zn178 O181 1.933 . S
Zn178 O184 1.941 . S
Zn178 O185 1.965 . S
Zn179 O177 1.950 . S
Zn179 O186 1.938 . S
Zn179 O187 1.906 . S
Zn179 O197 1.953 . S
Zn180 O177 1.945 1_565 S
Zn180 O182 1.932 . S
Zn180 O189 1.977 . S
Zn180 O190 1.910 1_565 S
O181 Zn178 1.933 . S
O181 C192 1.226 . S
O182 Zn180 1.932 . S
O182 C192 1.307 . S
O183 Zn176 1.919 . S
O183 C194 1.253 . S
O184 Zn178 1.941 . S
O184 C194 1.283 1_565 S
O185 Zn178 1.965 . S
O185 C193 1.303 1_565 S
O186 Zn179 1.938 . S
O186 C193 1.247 . S
O187 Zn179 1.906 . S
O187 C195 1.304 1_545 S
O188 Zn176 1.924 . S
O188 C196 1.311 . S
O189 Zn180 1.977 . S
O189 C195 1.272 . S
O190 Zn180 1.910 1_545 S
O190 C196 1.231 . S
C191 O175 1.225 . S
C191 O197 1.298 . S
C192 O181 1.226 . S
C192 O182 1.307 . S
C193 O185 1.303 1_545 S
C193 O186 1.247 . S
C194 O183 1.253 . S
C194 O184 1.283 1_545 S
C195 O187 1.304 1_565 S
C195 O189 1.272 . S
C196 O188 1.311 . S
C196 O190 1.231 . S
O197 Zn179 1.953 . S
O197 C191 1.298 . S
O198 Zn199 1.953 . S
O198 C214 1.225 . S
Zn199 O198 1.953 . S
Zn199 O200 1.949 . S
Zn199 O206 1.919 . S
Zn199 O211 1.924 . S
O200 Zn199 1.949 . S
O200 Zn201 1.923 . S
O200 Zn202 1.950 . S
O200 Zn203 1.945 . S
Zn201 O200 1.923 . S
Zn201 O204 1.933 . S
Zn201 O207 1.941 . S
Zn201 O208 1.965 . S
Zn202 O200 1.950 . S
Zn202 O209 1.938 . S
Zn202 O210 1.906 . S
Zn202 O220 1.953 . S
Zn203 O200 1.945 . S
Zn203 O205 1.932 . S
Zn203 O212 1.977 . S
Zn203 O213 1.910 . S
O204 Zn201 1.933 . S
O204 C215 1.226 . S
O205 Zn203 1.932 . S
O205 C215 1.307 . S
O206 Zn199 1.919 . S
O206 C217 1.253 . S
O207 Zn201 1.941 . S
O207 C217 1.283 . S
O208 Zn201 1.965 . S
O208 C216 1.303 . S
O209 Zn202 1.938 . S
O209 C216 1.247 . S
O210 Zn202 1.906 . S
O210 C218 1.304 . S
O211 Zn199 1.924 . S
O211 C219 1.311 . S
O212 Zn203 1.977 . S
O212 C218 1.272 . S
O213 Zn203 1.910 . S
O213 C219 1.231 . S
C214 O198 1.225 . S
C214 O220 1.298 . S
C215 O204 1.226 . S
C215 O205 1.307 . S
C216 O208 1.303 . S
C216 O209 1.247 . S
C217 O206 1.253 . S
C217 O207 1.283 . S
C218 O210 1.304 . S
C218 O212 1.272 . S
C219 O211 1.311 . S
C219 O213 1.231 . S
O220 Zn202 1.953 . S
O220 C214 1.298 . S
O221 Zn222 1.953 1_655 S
O221 C237 1.225 . S
Zn222 O221 1.953 1_455 S
Zn222 O223 1.949 . S
Zn222 O229 1.919 . S
Zn222 O234 1.924 . S
O223 Zn222 1.949 . S
O223 Zn224 1.917 1_455 S
O223 Zn225 1.929 1_455 S
O223 Zn226 1.973 . S
Zn224 O223 1.917 1_655 S
Zn224 O227 1.933 1_655 S
Zn224 O230 1.941 . S
Zn224 O231 1.965 . S
Zn225 O223 1.929 1_655 S
Zn225 O232 1.938 . S
Zn225 O233 1.906 . S
Zn225 O243 1.953 . S
Zn226 O223 1.973 . S
Zn226 O228 1.932 . S
Zn226 O235 1.977 . S
Zn226 O236 1.910 . S
O227 Zn224 1.933 1_455 S
O227 C238 1.226 . S
O228 Zn226 1.932 . S
O228 C238 1.307 . S
O229 Zn222 1.919 . S
O229 C240 1.254 . S
O230 Zn224 1.941 . S
O230 C240 1.277 1_655 S
O231 Zn224 1.965 . S
O231 C239 1.303 . S
O232 Zn225 1.938 . S
O232 C239 1.247 . S
O233 Zn225 1.906 . S
O233 C241 1.304 1_655 S
O234 Zn222 1.924 . S
O234 C242 1.311 . S
O235 Zn226 1.977 . S
O235 C241 1.272 . S
O236 Zn226 1.910 . S
O236 C242 1.231 . S
C237 O221 1.225 . S
C237 O243 1.298 . S
C238 O227 1.226 . S
C238 O228 1.307 . S
C239 O231 1.303 . S
C239 O232 1.247 . S
C240 O229 1.254 . S
C240 O230 1.277 1_455 S
C241 O233 1.304 1_455 S
C241 O235 1.272 . S
C242 O234 1.311 . S
C242 O236 1.231 . S
O243 Zn225 1.953 . S
O243 C237 1.298 . S
C244 C245 1.363 1_565 S
C244 C250 1.379 . S
C244 N252 1.356 . S
C245 C244 1.363 1_545 S
C245 C251 1.363 . S
C246 C247 1.361 . S
C246 C251 1.379 . S
C246 N253 1.356 . S
C247 C246 1.361 . S
C247 C250 1.365 1_545 S
N248 C250 1.356 . S
N248 H260 0.984 . S
N248 H261 0.985 . S
N249 C251 1.356 . S
N249 H254 0.984 . S
N249 H255 0.985 . S
C250 C244 1.379 . S
C250 C247 1.365 1_565 S
C250 N248 1.356 . S
C251 C245 1.363 . S
C251 C246 1.379 . S
C251 N249 1.356 . S
N252 C244 1.356 . S
N252 H258 0.984 . S
N252 H259 0.984 . S
N253 C246 1.356 . S
N253 H256 0.984 . S
N253 H257 0.985 . S
H254 N249 0.984 . S
H255 N249 0.985 . S
H256 N253 0.984 . S
H257 N253 0.985 . S
H258 N252 0.984 . S
H259 N252 0.984 . S
H260 N248 0.984 . S
H261 N248 0.985 . S
C262 C263 1.363 . S
C262 C268 1.379 . S
C262 N270 1.356 . S
C263 C262 1.363 . S
C263 C269 1.363 . S
C264 C265 1.363 . S
C264 C269 1.379 . S
C264 N271 1.356 . S
C265 C264 1.363 . S
C265 C268 1.363 . S
N266 C268 1.356 . S
N266 H278 0.984 . S
N266 H279 0.985 . S
N267 C269 1.356 . S
N267 H272 0.984 . S
N267 H273 0.985 . S
C268 C262 1.379 . S
C268 C265 1.363 . S
C268 N266 1.356 . S
C269 C263 1.363 . S
C269 C264 1.379 . S
C269 N267 1.356 . S
N270 C262 1.356 . S
N270 H276 0.984 . S
N270 H277 0.984 . S
N271 C264 1.356 . S
N271 H274 0.984 . S
N271 H275 0.985 . S
H272 N267 0.984 . S
H273 N267 0.985 . S
H274 N271 0.984 . S
H275 N271 0.985 . S
H276 N270 0.984 . S
H277 N270 0.984 . S
H278 N266 0.984 . S
H279 N266 0.985 . S
C280 C281 1.363 . S
C280 C286 1.379 . S
C280 N288 1.356 . S
C281 C280 1.363 . S
C281 C287 1.363 . S
C282 C283 1.363 . S
C282 C287 1.379 . S
C282 N289 1.356 . S
C283 C282 1.363 . S
C283 C286 1.363 . S
N284 C286 1.356 . S
N284 H296 0.984 . S
N284 H297 0.985 . S
N285 C287 1.356 . S
N285 H290 0.984 . S
N285 H291 0.985 . S
C286 C280 1.379 . S
C286 C283 1.363 . S
C286 N284 1.356 . S
C287 C281 1.363 . S
C287 C282 1.379 . S
C287 N285 1.356 . S
N288 C280 1.356 . S
N288 H294 0.984 . S
N288 H295 0.984 . S
N289 C282 1.356 . S
N289 H292 0.984 . S
N289 H293 0.985 . S
H290 N285 0.984 . S
H291 N285 0.985 . S
H292 N289 0.984 . S
H293 N289 0.985 . S
H294 N288 0.984 . S
H295 N288 0.984 . S
H296 N284 0.984 . S
H297 N284 0.985 . S
C298 C299 1.363 . S
C298 C304 1.379 . S
C298 N306 1.356 . S
C299 C298 1.363 . S
C299 C305 1.363 . S
C300 C301 1.363 . S
C300 C305 1.379 . S
C300 N307 1.356 . S
C301 C300 1.363 . S
C301 C304 1.363 . S
N302 C304 1.356 1_655 S
N302 H314 0.984 . S
N302 H315 0.985 . S
N303 C305 1.356 . S
N303 H308 0.984 . S
N303 H309 0.985 . S
C304 C298 1.379 . S
C304 C301 1.363 . S
C304 N302 1.356 1_455 S
C305 C299 1.363 . S
C305 C300 1.379 . S
C305 N303 1.356 . S
N306 C298 1.356 . S
N306 H312 0.984 1_455 S
N306 H313 0.984 . S
N307 C300 1.356 . S
N307 H310 0.984 . S
N307 H311 0.985 . S
H308 N303 0.984 . S
H309 N303 0.985 . S
H310 N307 0.984 . S
H311 N307 0.985 . S
H312 N306 0.984 1_655 S
H313 N306 0.984 . S
H314 N302 0.984 . S
H315 N302 0.985 . S
C316 C317 1.341 1_545 S
C316 C322 1.379 . S
C316 N324 1.356 . S
C317 C316 1.341 1_565 S
C317 C323 1.385 . S
C318 C319 1.363 1_565 S
C318 C323 1.379 . S
C318 N325 1.356 . S
C319 C318 1.363 1_545 S
C319 C322 1.363 . S
N320 C322 1.356 . S
N320 H332 0.984 . S
N320 H333 0.985 . S
N321 C323 1.356 1_554 S
N321 H326 0.984 . S
N321 H327 0.985 . S
C322 C316 1.379 . S
C322 C319 1.363 . S
C322 N320 1.356 . S
C323 C317 1.385 . S
C323 C318 1.379 . S
C323 N321 1.356 1_556 S
N324 C316 1.356 . S
N324 H330 0.984 . S
N324 H331 0.984 . S
N325 C318 1.356 . S
N325 H328 0.984 . S
N325 H329 0.985 . S
H326 N321 0.984 . S
H327 N321 0.985 . S
H328 N325 0.984 . S
H329 N325 0.985 . S
H330 N324 0.984 . S
H331 N324 0.984 . S
H332 N320 0.984 . S
H333 N320 0.985 . S
C334 C335 1.363 . S
C334 C340 1.379 . S
C334 N342 1.356 . S
C335 C334 1.363 . S
C335 C341 1.363 . S
C336 C337 1.363 . S
C336 C341 1.379 . S
C336 N343 1.356 . S
C337 C336 1.363 . S
C337 C340 1.363 . S
N338 C340 1.356 . S
N338 H350 0.984 . S
N338 H351 0.985 . S
N339 C341 1.356 1_554 S
N339 H344 0.984 . S
N339 H345 0.985 . S
C340 C334 1.379 . S
C340 C337 1.363 . S
C340 N338 1.356 . S
C341 C335 1.363 . S
C341 C336 1.379 . S
C341 N339 1.356 1_556 S
N342 C334 1.356 . S
N342 H348 0.984 . S
N342 H349 0.984 . S
N343 C336 1.356 . S
N343 H346 0.984 . S
N343 H347 0.985 . S
H344 N339 0.984 . S
H345 N339 0.985 . S
H346 N343 0.984 . S
H347 N343 0.985 . S
H348 N342 0.984 . S
H349 N342 0.984 . S
H350 N338 0.984 . S
H351 N338 0.985 . S
C352 C353 1.363 . S
C352 C358 1.379 . S
C352 N360 1.356 . S
C353 C352 1.363 . S
C353 C359 1.363 . S
C354 C355 1.363 . S
C354 C359 1.379 . S
C354 N361 1.356 . S
C355 C354 1.363 . S
C355 C358 1.363 . S
N356 C358 1.356 . S
N356 H368 0.984 . S
N356 H369 0.985 . S
N357 C359 1.356 . S
N357 H362 0.984 . S
N357 H363 0.985 . S
C358 C352 1.379 . S
C358 C355 1.363 . S
C358 N356 1.356 . S
C359 C353 1.363 . S
C359 C354 1.379 . S
C359 N357 1.356 . S
N360 C352 1.356 . S
N360 H366 0.984 . S
N360 H367 0.984 . S
N361 C354 1.356 . S
N361 H364 0.984 . S
N361 H365 0.985 . S
H362 N357 0.984 . S
H363 N357 0.985 . S
H364 N361 0.984 . S
H365 N361 0.985 . S
H366 N360 0.984 . S
H367 N360 0.984 . S
H368 N356 0.984 . S
H369 N356 0.985 . S
C370 C371 1.367 1_455 S
C370 C376 1.386 . S
C370 N378 1.345 1_556 S
C371 C370 1.367 1_655 S
C371 C377 1.363 . S
C372 C373 1.363 . S
C372 C377 1.379 1_455 S
C372 N379 1.356 . S
C373 C372 1.363 . S
C373 C376 1.363 . S
N374 C376 1.356 . S
N374 H386 0.984 1_556 S
N374 H387 0.985 . S
N375 C377 1.356 . S
N375 H380 0.984 . S
N375 H381 0.985 . S
C376 C370 1.386 . S
C376 C373 1.363 . S
C376 N374 1.356 . S
C377 C371 1.363 . S
C377 C372 1.379 1_655 S
C377 N375 1.356 . S
N378 C370 1.345 1_554 S
N378 H384 0.984 . S
N378 H385 0.982 1_455 S
N379 C372 1.356 . S
N379 H382 0.984 . S
N379 H383 0.984 1_455 S
H380 N375 0.984 . S
H381 N375 0.985 . S
H382 N379 0.984 . S
H383 N379 0.984 1_655 S
H384 N378 0.984 . S
H385 N378 0.982 1_655 S
H386 N374 0.984 1_554 S
H387 N374 0.985 . S
C388 C389 1.363 . S
C388 C394 1.379 . S
C388 N396 1.356 . S
C389 C388 1.363 . S
C389 C395 1.363 . S
C390 C391 1.363 . S
C390 C395 1.379 . S
C390 N397 1.358 . S
C391 C390 1.363 . S
C391 C394 1.363 . S
N392 C394 1.356 . S
N392 H404 0.984 . S
N392 H405 0.985 . S
N393 C395 1.356 . S
N393 H398 0.984 . S
N393 H399 0.985 . S
C394 C388 1.379 . S
C394 C391 1.363 . S
C394 N392 1.356 . S
C395 C389 1.363 . S
C395 C390 1.379 . S
C395 N393 1.356 . S
N396 C388 1.356 . S
N396 H402 0.984 . S
N396 H403 0.984 . S
N397 C390 1.358 . S
N397 H400 0.984 1_455 S
N397 H401 0.983 1_455 S
H398 N393 0.984 . S
H399 N393 0.985 . S
H400 N397 0.984 1_655 S
H401 N397 0.983 1_655 S
H402 N396 0.984 . S
H403 N396 0.984 . S
H404 N392 0.984 . S
H405 N392 0.985 . S
C406 C407 1.363 1_565 S
C406 C412 1.379 . S
C406 N414 1.356 . S
C407 C406 1.363 1_545 S
C407 C413 1.363 . S
C408 C409 1.363 . S
C408 C413 1.379 . S
C408 N415 1.356 . S
C409 C408 1.363 . S
C409 C412 1.363 1_545 S
N410 C412 1.356 . S
N410 H422 0.984 . S
N410 H423 0.985 . S
N411 C413 1.356 . S
N411 H416 0.984 . S
N411 H417 0.985 . S
C412 C406 1.379 . S
C412 C409 1.363 1_565 S
C412 N410 1.356 . S
C413 C407 1.363 . S
C413 C408 1.379 . S
C413 N411 1.356 . S
N414 C406 1.356 . S
N414 H420 0.984 . S
N414 H421 0.984 . S
N415 C408 1.356 . S
N415 H418 0.984 . S
N415 H419 0.985 . S
H416 N411 0.984 . S
H417 N411 0.985 . S
H418 N415 0.984 . S
H419 N415 0.985 . S
H420 N414 0.984 . S
H421 N414 0.984 . S
H422 N410 0.984 . S
H423 N410 0.985 . S
C424 C425 1.363 . S
C424 C430 1.379 . S
C424 N432 1.356 . S
C425 C424 1.363 . S
C425 C431 1.363 . S
C426 C427 1.363 . S
C426 C431 1.379 . S
C426 N433 1.356 . S
C427 C426 1.363 . S
C427 C430 1.363 . S
N428 C430 1.356 . S
N428 H440 0.984 . S
N428 H441 0.985 . S
N429 C431 1.356 . S
N429 H434 0.984 . S
N429 H435 0.985 . S
C430 C424 1.379 . S
C430 C427 1.363 . S
C430 N428 1.356 . S
C431 C425 1.363 . S
C431 C426 1.379 . S
C431 N429 1.356 . S
N432 C424 1.356 . S
N432 H438 0.984 . S
N432 H439 0.984 . S
N433 C426 1.356 . S
N433 H436 0.984 . S
N433 H437 0.985 . S
H434 N429 0.984 . S
H435 N429 0.985 . S
H436 N433 0.984 . S
H437 N433 0.985 . S
H438 N432 0.984 . S
H439 N432 0.984 . S
H440 N428 0.984 . S
H441 N428 0.985 . S
C442 C443 1.363 . S
C442 C448 1.379 . S
C442 N450 1.356 . S
C443 C442 1.363 . S
C443 C449 1.363 . S
C444 C445 1.363 . S
C444 C449 1.379 . S
C444 N451 1.356 . S
C445 C444 1.363 . S
C445 C448 1.363 . S
N446 C448 1.356 . S
N446 H458 0.984 . S
N446 H459 0.985 . S
N447 C449 1.356 . S
N447 H452 0.984 . S
N447 H453 0.985 . S
C448 C442 1.379 . S
C448 C445 1.363 . S
C448 N446 1.356 . S
C449 C443 1.363 . S
C449 C444 1.379 . S
C449 N447 1.356 . S
N450 C442 1.356 . S
N450 H456 0.984 . S
N450 H457 0.984 . S
N451 C444 1.356 . S
N451 H454 0.984 . S
N451 H455 0.985 . S
H452 N447 0.984 . S
H453 N447 0.985 . S
H454 N451 0.984 . S
H455 N451 0.985 . S
H456 N450 0.984 . S
H457 N450 0.984 . S
H458 N446 0.984 . S
H459 N446 0.985 . S
C460 C461 1.363 1_556 S
C460 C466 1.379 . S
C460 N468 1.356 1_455 S
C461 C460 1.363 1_554 S
C461 C467 1.363 . S
C462 C463 1.363 1_554 S
C462 C467 1.379 . S
C462 N469 1.356 . S
C463 C462 1.363 1_556 S
C463 C466 1.363 . S
N464 C466 1.356 . S
N464 H476 0.984 . S
N464 H477 0.985 . S
N465 C467 1.356 . S
N465 H470 0.984 1_455 S
N465 H471 0.985 . S
C466 C460 1.379 . S
C466 C463 1.363 . S
C466 N464 1.356 . S
C467 C461 1.363 . S
C467 C462 1.379 . S
C467 N465 1.356 . S
N468 C460 1.356 1_655 S
N468 H474 0.984 . S
N468 H475 0.984 . S
N469 C462 1.356 . S
N469 H472 0.984 . S
N469 H473 0.985 . S
H470 N465 0.984 1_655 S
H471 N465 0.985 . S
H472 N469 0.984 . S
H473 N469 0.985 . S
H474 N468 0.984 . S
H475 N468 0.984 . S
H476 N464 0.984 . S
H477 N464 0.985 . S
C478 C479 1.363 1_554 S
C478 C484 1.379 1_554 S
C478 N486 1.356 . S
C479 C478 1.363 1_556 S
C479 C485 1.363 . S
C480 C481 1.363 . S
C480 C485 1.379 . S
C480 N487 1.356 . S
C481 C480 1.363 . S
C481 C484 1.363 . S
N482 C484 1.356 1_554 S
N482 H494 0.984 . S
N482 H495 0.985 1_554 S
N483 C485 1.356 1_565 S
N483 H488 0.984 . S
N483 H489 0.985 . S
C484 C478 1.379 1_556 S
C484 C481 1.363 . S
C484 N482 1.356 1_556 S
C485 C479 1.363 . S
C485 C480 1.379 . S
C485 N483 1.356 1_545 S
N486 C478 1.356 . S
N486 H492 0.984 . S
N486 H493 0.990 . S
N487 C480 1.356 . S
N487 H490 0.984 . S
N487 H491 0.985 . S
H488 N483 0.984 . S
H489 N483 0.985 . S
H490 N487 0.984 . S
H491 N487 0.985 . S
H492 N486 0.984 . S
H493 N486 0.990 . S
H494 N482 0.984 . S
H495 N482 0.985 1_556 S
C496 C497 1.363 . S
C496 C502 1.379 . S
C496 N504 1.356 . S
C497 C496 1.363 . S
C497 C503 1.363 . S
C498 C499 1.363 . S
C498 C503 1.379 . S
C498 N505 1.356 . S
C499 C498 1.363 . S
C499 C502 1.363 . S
N500 C502 1.356 . S
N500 H512 0.984 . S
N500 H513 0.985 . S
N501 C503 1.356 1_554 S
N501 H506 0.984 . S
N501 H507 0.985 . S
C502 C496 1.379 . S
C502 C499 1.363 . S
C502 N500 1.356 . S
C503 C497 1.363 . S
C503 C498 1.379 . S
C503 N501 1.356 1_556 S
N504 C496 1.356 . S
N504 H510 0.984 . S
N504 H511 0.984 . S
N505 C498 1.356 . S
N505 H508 0.984 . S
N505 H509 0.985 1_556 S
H506 N501 0.984 . S
H507 N501 0.985 . S
H508 N505 0.984 . S
H509 N505 0.985 1_554 S
H510 N504 0.984 . S
H511 N504 0.984 . S
H512 N500 0.984 . S
H513 N500 0.985 . S
C514 C515 1.363 . S
C514 C520 1.379 . S
C514 N522 1.356 . S
C515 C514 1.363 . S
C515 C521 1.363 . S
C516 C517 1.363 . S
C516 C521 1.379 . S
C516 N523 1.356 . S
C517 C516 1.363 . S
C517 C520 1.363 . S
N518 C520 1.356 . S
N518 H530 0.984 . S
N518 H531 0.985 . S
N519 C521 1.356 . S
N519 H524 0.984 . S
N519 H525 0.985 . S
C520 C514 1.379 . S
C520 C517 1.363 . S
C520 N518 1.356 . S
C521 C515 1.363 . S
C521 C516 1.379 . S
C521 N519 1.356 . S
N522 C514 1.356 . S
N522 H528 0.984 . S
N522 H529 0.984 . S
N523 C516 1.356 . S
N523 H526 0.984 . S
N523 H527 0.985 . S
H524 N519 0.984 . S
H525 N519 0.985 . S
H526 N523 0.984 . S
H527 N523 0.985 . S
H528 N522 0.984 . S
H529 N522 0.984 . S
H530 N518 0.984 . S
H531 N518 0.985 . S
C532 C533 1.363 . S
C532 C538 1.379 1_455 S
C532 N540 1.356 1_455 S
C533 C532 1.363 . S
C533 C539 1.363 . S
C534 C535 1.363 . S
C534 C539 1.379 . S
C534 N541 1.356 . S
C535 C534 1.363 . S
C535 C538 1.363 1_455 S
N536 C538 1.356 1_556 S
N536 H548 0.984 . S
N536 H549 0.985 . S
N537 C539 1.356 . S
N537 H542 0.984 . S
N537 H543 0.985 . S
C538 C532 1.379 1_655 S
C538 C535 1.363 1_655 S
C538 N536 1.356 1_554 S
C539 C533 1.363 . S
C539 C534 1.379 . S
C539 N537 1.356 . S
N540 C532 1.356 1_655 S
N540 H546 0.984 . S
N540 H547 0.984 1_655 S
N541 C534 1.356 . S
N541 H544 0.984 . S
N541 H545 0.985 . S
H542 N537 0.984 . S
H543 N537 0.985 . S
H544 N541 0.984 . S
H545 N541 0.985 . S
H546 N540 0.984 . S
H547 N540 0.984 1_455 S
H548 N536 0.984 . S
H549 N536 0.985 . S
C550 C551 1.363 . S
C550 C556 1.379 1_554 S
C550 N558 1.356 . S
C551 C550 1.363 . S
C551 C557 1.363 1_545 S
C552 C553 1.363 1_564 S
C552 C557 1.379 . S
C552 N559 1.356 . S
C553 C552 1.363 1_546 S
C553 C556 1.363 . S
N554 C556 1.356 . S
N554 H566 0.984 . S
N554 H567 0.985 . S
N555 C557 1.356 . S
N555 H560 0.984 . S
N555 H561 0.985 . S
C556 C550 1.379 1_556 S
C556 C553 1.363 . S
C556 N554 1.356 . S
C557 C551 1.363 1_565 S
C557 C552 1.379 . S
C557 N555 1.356 . S
N558 C550 1.356 . S
N558 H564 0.984 1_554 S
N558 H565 0.984 . S
N559 C552 1.356 . S
N559 H562 0.984 . S
N559 H563 0.985 . S
H560 N555 0.984 . S
H561 N555 0.985 . S
H562 N559 0.984 . S
H563 N559 0.985 . S
H564 N558 0.984 1_556 S
H565 N558 0.984 . S
H566 N554 0.984 . S
H567 N554 0.985 . S
C568 C569 1.363 1_556 S
C568 C574 1.379 . S
C568 N576 1.356 . S
C569 C568 1.363 1_554 S
C569 C575 1.363 . S
C570 C571 1.363 1_554 S
C570 C575 1.379 . S
C570 N577 1.356 . S
C571 C570 1.363 1_556 S
C571 C574 1.363 . S
N572 C574 1.356 . S
N572 H584 0.984 . S
N572 H585 0.985 . S
N573 C575 1.356 . S
N573 H578 0.984 . S
N573 H579 0.985 . S
C574 C568 1.379 . S
C574 C571 1.363 . S
C574 N572 1.356 . S
C575 C569 1.363 . S
C575 C570 1.379 . S
C575 N573 1.356 . S
N576 C568 1.356 . S
N576 H582 0.984 . S
N576 H583 0.984 1_556 S
N577 C570 1.356 . S
N577 H580 0.984 1_554 S
N577 H581 0.985 . S
H578 N573 0.984 . S
H579 N573 0.985 . S
H580 N577 0.984 1_556 S
H581 N577 0.985 . S
H582 N576 0.984 . S
H583 N576 0.984 1_554 S
H584 N572 0.984 . S
H585 N572 0.985 . S
C586 C587 1.363 . S
C586 C592 1.379 . S
C586 N594 1.356 . S
C587 C586 1.363 . S
C587 C593 1.363 . S
C588 C589 1.363 . S
C588 C593 1.379 1_556 S
C588 N595 1.356 . S
C589 C588 1.363 . S
C589 C592 1.363 1_556 S
N590 C592 1.356 1_556 S
N590 H602 0.984 1_556 S
N590 H603 0.985 . S
N591 C593 1.356 . S
N591 H596 0.984 . S
N591 H597 0.985 . S
C592 C586 1.379 . S
C592 C589 1.363 1_554 S
C592 N590 1.356 1_554 S
C593 C587 1.363 . S
C593 C588 1.379 1_554 S
C593 N591 1.356 . S
N594 C586 1.356 . S
N594 H600 0.984 . S
N594 H601 0.984 . S
N595 C588 1.356 . S
N595 H598 0.984 . S
N595 H599 0.985 . S
H596 N591 0.984 . S
H597 N591 0.985 . S
H598 N595 0.984 . S
H599 N595 0.985 . S
H600 N594 0.984 . S
H601 N594 0.984 . S
H602 N590 0.984 1_554 S
H603 N590 0.985 . S
C604 C605 1.363 1_455 S
C604 C610 1.379 1_455 S
C604 N612 1.356 . S
C605 C604 1.363 1_655 S
C605 C611 1.363 . S
C606 C607 1.363 . S
C606 C611 1.379 . S
C606 N613 1.356 . S
C607 C606 1.363 . S
C607 C610 1.363 . S
N608 C610 1.356 1_455 S
N608 H620 0.984 . S
N608 H621 0.985 1_455 S
N609 C611 1.356 . S
N609 H614 0.984 . S
N609 H615 0.985 . S
C610 C604 1.379 1_655 S
C610 C607 1.363 . S
C610 N608 1.356 1_655 S
C611 C605 1.363 . S
C611 C606 1.379 . S
C611 N609 1.356 . S
N612 C604 1.356 . S
N612 H618 0.984 . S
N612 H619 0.984 . S
N613 C606 1.356 . S
N613 H616 0.984 . S
N613 H617 0.985 . S
H614 N609 0.984 . S
H615 N609 0.985 . S
H616 N613 0.984 . S
H617 N613 0.985 . S
H618 N612 0.984 . S
H619 N612 0.984 . S
H620 N608 0.984 . S
H621 N608 0.985 1_655 S
C622 C623 1.363 . S
C622 C628 1.379 . S
C622 N630 1.356 . S
C623 C622 1.363 . S
C623 C629 1.363 1_565 S
C624 C625 1.363 1_545 S
C624 C629 1.379 . S
C624 N631 1.356 . S
C625 C624 1.363 1_565 S
C625 C628 1.363 . S
N626 C628 1.356 . S
N626 H638 0.984 . S
N626 H639 0.985 . S
N627 C629 1.356 . S
N627 H632 0.984 . S
N627 H633 0.985 . S
C628 C622 1.379 . S
C628 C625 1.363 . S
C628 N626 1.356 . S
C629 C623 1.363 1_545 S
C629 C624 1.379 . S
C629 N627 1.356 . S
N630 C622 1.356 . S
N630 H636 0.984 . S
N630 H637 0.984 . S
N631 C624 1.356 . S
N631 H634 0.984 . S
N631 H635 0.985 . S
H632 N627 0.984 . S
H633 N627 0.985 . S
H634 N631 0.984 . S
H635 N631 0.985 . S
H636 N630 0.984 . S
H637 N630 0.984 . S
H638 N626 0.984 . S
H639 N626 0.985 . S
C640 C641 1.363 . S
C640 C646 1.379 . S
C640 N648 1.356 . S
C641 C640 1.363 . S
C641 C647 1.363 . S
C642 C643 1.363 . S
C642 C647 1.379 . S
C642 N649 1.356 . S
C643 C642 1.363 . S
C643 C646 1.363 . S
N644 C646 1.356 . S
N644 H656 0.984 . S
N644 H657 0.985 . S
N645 C647 1.356 . S
N645 H650 0.984 . S
N645 H651 0.985 . S
C646 C640 1.379 . S
C646 C643 1.363 . S
C646 N644 1.356 . S
C647 C641 1.363 . S
C647 C642 1.379 . S
C647 N645 1.356 . S
N648 C640 1.356 . S
N648 H654 0.984 . S
N648 H655 0.984 . S
N649 C642 1.356 . S
N649 H652 0.984 . S
N649 H653 0.985 . S
H650 N645 0.984 . S
H651 N645 0.985 . S
H652 N649 0.984 . S
H653 N649 0.985 . S
H654 N648 0.984 . S
H655 N648 0.984 . S
H656 N644 0.984 . S
H657 N644 0.985 . S
C658 C659 1.363 . S
C658 C664 1.379 . S
C658 N666 1.356 . S
C659 C658 1.363 . S
C659 C665 1.363 . S
C660 C661 1.363 . S
C660 C665 1.379 . S
C660 N667 1.356 . S
C661 C660 1.363 . S
C661 C664 1.363 . S
N662 C664 1.356 . S
N662 H674 0.984 . S
N662 H675 0.985 . S
N663 C665 1.356 . S
N663 H668 0.984 . S
N663 H669 0.985 . S
C664 C658 1.379 . S
C664 C661 1.363 . S
C664 N662 1.356 . S
C665 C659 1.363 . S
C665 C660 1.379 . S
C665 N663 1.356 . S
N666 C658 1.356 . S
N666 H672 0.984 . S
N666 H673 0.984 . S
N667 C660 1.356 . S
N667 H670 0.984 . S
N667 H671 0.985 . S
H668 N663 0.984 . S
H669 N663 0.985 . S
H670 N667 0.984 . S
H671 N667 0.985 . S
H672 N666 0.984 . S
H673 N666 0.984 . S
H674 N662 0.984 . S
H675 N662 0.985 . S
C245 C125 1.588 . S
C247 C168 1.615 1_545 S
C265 C191 1.633 . S
C263 C144 1.583 . S
C283 C214 1.638 . S
C281 C87 1.598 . S
C301 C241 1.524 . S
C299 C106 1.518 . S
C319 C169 1.572 . S
C317 C49 1.524 1_556 S
C335 C68 1.495 . S
C337 C192 1.532 . S
C353 C11 1.494 . S
C355 C215 1.531 . S
C371 C30 1.602 1_556 S
C373 C240 1.595 . S
C391 C170 0.841 . S
C389 C97 0.812 . S
C409 C193 0.809 . S
C407 C116 0.798 . S
C427 C216 0.828 . S
C425 C135 0.813 . S
C443 C78 0.949 . S
C445 C242 0.932 . S
C461 C21 1.060 . S
C463 C173 1.018 . S
C481 C196 1.006 . S
C479 C40 1.051 1_556 S
C499 C219 0.971 . S
C497 C59 1.013 . S
C515 C2 0.784 . S
C517 C239 0.796 . S
C533 C101 1.583 . S
C535 C171 1.544 1_554 S
C551 C120 1.547 . S
C553 C194 1.528 . S
C571 C217 1.538 . S
C569 C139 1.559 . S
C589 C238 1.458 . S
C587 C82 1.420 . S
C605 C25 1.636 1_655 S
C607 C172 1.551 . S
C625 C195 1.507 . S
C623 C44 1.603 1_565 S
C643 C218 1.493 . S
C641 C63 1.582 . S
C659 C6 1.666 . S
C661 C237 1.700 . S
