# Generated by pormake.
# Topology nom, (4,4)-cn, num edge types: 1
# Building blocks:
#     Node 0, Type 0, BuildingBlock: MIFKUJ_clean_linker_1, # of connection points: 4
#     Node 1, Type 0, BuildingBlock: MIFKUJ_clean_linker_1, # of connection points: 4
#     Node 2, Type 0, BuildingBlock: MIFKUJ_clean_linker_1, # of connection points: 4
#     Node 3, Type 0, BuildingBlock: MIFKUJ_clean_linker_1, # of connection points: 4
#     Node 4, Type 0, BuildingBlock: MIFKUJ_clean_linker_1, # of connection points: 4
#     Node 5, Type 0, BuildingBlock: MIFKUJ_clean_linker_1, # of connection points: 4
#     Node 6, Type 1, BuildingBlock: QUQFOY_clean_sbu_1, # of connection points: 4
#     Node 7, Type 1, BuildingBlock: QUQFOY_clean_sbu_1, # of connection points: 4
#     Node 8, Type 1, BuildingBlock: QUQFOY_clean_sbu_1, # of connection points: 4
#     Node 9, Type 1, BuildingBlock: QUQFOY_clean_sbu_1, # of connection points: 4
#     Node 10, Type 1, BuildingBlock: QUQFOY_clean_sbu_1, # of connection points: 4
#     Node 11, Type 1, BuildingBlock: QUQFOY_clean_sbu_1, # of connection points: 4
#     Edge 12, Type (0, 1), BuildingBlock: EZIPEK_clean_linker_0, # of connection points: 2
#     Edge 13, Type (0, 1), BuildingBlock: EZIPEK_clean_linker_0, # of connection points: 2
#     Edge 14, Type (0, 1), BuildingBlock: EZIPEK_clean_linker_0, # of connection points: 2
#     Edge 15, Type (0, 1), BuildingBlock: EZIPEK_clean_linker_0, # of connection points: 2
#     Edge 16, Type (0, 1), BuildingBlock: EZIPEK_clean_linker_0, # of connection points: 2
#     Edge 17, Type (0, 1), BuildingBlock: EZIPEK_clean_linker_0, # of connection points: 2
#     Edge 18, Type (0, 1), BuildingBlock: EZIPEK_clean_linker_0, # of connection points: 2
#     Edge 19, Type (0, 1), BuildingBlock: EZIPEK_clean_linker_0, # of connection points: 2
#     Edge 20, Type (0, 1), BuildingBlock: EZIPEK_clean_linker_0, # of connection points: 2
#     Edge 21, Type (0, 1), BuildingBlock: EZIPEK_clean_linker_0, # of connection points: 2
#     Edge 22, Type (0, 1), BuildingBlock: EZIPEK_clean_linker_0, # of connection points: 2
#     Edge 23, Type (0, 1), BuildingBlock: EZIPEK_clean_linker_0, # of connection points: 2
#     Edge 24, Type (0, 1), BuildingBlock: EZIPEK_clean_linker_0, # of connection points: 2
#     Edge 25, Type (0, 1), BuildingBlock: EZIPEK_clean_linker_0, # of connection points: 2
#     Edge 26, Type (0, 1), BuildingBlock: EZIPEK_clean_linker_0, # of connection points: 2
#     Edge 27, Type (0, 1), BuildingBlock: EZIPEK_clean_linker_0, # of connection points: 2
#     Edge 28, Type (0, 1), BuildingBlock: EZIPEK_clean_linker_0, # of connection points: 2
#     Edge 29, Type (0, 1), BuildingBlock: EZIPEK_clean_linker_0, # of connection points: 2
#     Edge 30, Type (0, 1), BuildingBlock: EZIPEK_clean_linker_0, # of connection points: 2
#     Edge 31, Type (0, 1), BuildingBlock: EZIPEK_clean_linker_0, # of connection points: 2
#     Edge 32, Type (0, 1), BuildingBlock: EZIPEK_clean_linker_0, # of connection points: 2
#     Edge 33, Type (0, 1), BuildingBlock: EZIPEK_clean_linker_0, # of connection points: 2
#     Edge 34, Type (0, 1), BuildingBlock: EZIPEK_clean_linker_0, # of connection points: 2
#     Edge 35, Type (0, 1), BuildingBlock: EZIPEK_clean_linker_0, # of connection points: 2
# Relax obj value: 0.014
# Max RMSD: 0.117
# Mean RMSD: 0.112
data_MOF--net-nom--node1-QUQFOY_clean_sbu_1--node2-MIFKUJ_clean_linker_1--edge1-EZIPEK_clean_linker_0
_symmetry_space_group_name_H-M    P1
_symmetry_Int_Tables_number       1
_symmetry_cell_setting            triclinic
loop_
_symmetry_equiv_pos_as_xyz
'x, y, z'
_cell_length_a     43.530937
_cell_length_b     43.544641
_cell_length_c     41.511665
_cell_angle_alpha  90.040812
_cell_angle_beta   90.014786
_cell_angle_gamma 119.98668
loop_
_atom_site_label
_atom_site_type_symbol
_atom_site_fract_x
_atom_site_fract_y
_atom_site_fract_z
_atom_type_partial_charge
H0 H 0.97994 0.47086 0.25793 0.0
H1 H 0.93308 0.44458 0.21696 0.0
H2 H 0.88691 0.50501 0.25387 0.0
H3 H 0.93405 0.53168 0.29479 0.0
H4 H 0.02966 0.54325 0.26883 0.0
H5 H 0.92731 0.44494 0.32695 0.0
H6 H 0.86477 0.41855 0.3433 0.0
H7 H 0.88892 0.51593 0.39136 0.0
H8 H 0.95122 0.54227 0.37513 0.0
H9 H 0.05202 0.58149 0.40554 0.0
H10 H 0.09895 0.59988 0.4462 0.0
H11 H 0.14703 0.55126 0.39078 0.0
H12 H 0.0996 0.53191 0.35039 0.0
H13 H 1.00247 0.52124 0.38535 0.0
H14 H 0.10281 0.61627 0.342 0.0
H15 H 0.16369 0.65386 0.32423 0.0
H16 H 0.14439 0.58494 0.24279 0.0
H17 H 0.08483 0.5442 0.26321 0.0
C18 C 0.96038 0.50308 0.27947 0.0
C19 C 0.95979 0.47852 0.2572 0.0
C20 C 0.93301 0.46337 0.23404 0.0
C21 C 0.90651 0.47269 0.23269 0.0
C22 C 0.90704 0.49733 0.25482 0.0
C23 C 0.93388 0.51252 0.27804 0.0
C24 C 0.98862 0.51824 0.30432 0.0
C25 C 0.02411 0.53803 0.29432 0.0
C26 C 0.98077 0.51323 0.33757 0.0
C27 C 0.94379 0.49565 0.34965 0.0
C28 C 0.91917 0.46046 0.34123 0.0
C29 C 0.88363 0.44543 0.35054 0.0
C30 C 0.87236 0.46546 0.36831 0.0
C31 C 0.89719 0.50017 0.37759 0.0
C32 C 0.93266 0.5151 0.36844 0.0
C33 C 0.07236 0.55547 0.37479 0.0
C34 C 0.07245 0.5745 0.40219 0.0
C35 C 0.09928 0.58521 0.42524 0.0
C36 C 0.12642 0.57711 0.4212 0.0
C37 C 0.12637 0.55794 0.39403 0.0
C38 C 0.09936 0.54695 0.37109 0.0
C39 C 0.04425 0.5449 0.34994 0.0
C40 C 0.00864 0.52626 0.35991 0.0
C41 C 0.05221 0.55235 0.31667 0.0
C42 C 0.08912 0.57637 0.30479 0.0
C43 C 0.11184 0.60815 0.3211 0.0
C44 C 0.14658 0.63009 0.31061 0.0
C45 C 0.15883 0.62223 0.28221 0.0
C46 C 0.13576 0.59138 0.26497 0.0
C47 C 0.10155 0.56832 0.2765 0.0
H48 H 0.42073 0.9487 0.54336 0.0
H49 H 0.38637 0.88637 0.55991 0.0
H50 H 0.45775 0.86341 0.50701 0.0
H51 H 0.49227 0.92598 0.49024 0.0
H52 H 0.49274 1.00073 0.55038 0.0
H53 H 0.41139 0.92518 0.46696 0.0
H54 H 0.39145 0.87686 0.42776 0.0
H55 H 0.48735 0.93833 0.37302 0.0
H56 H 0.50923 0.98473 0.41399 0.0
H57 H 0.57889 0.10158 0.48671 0.0
H58 H 0.6056 0.16423 0.47097 0.0
H59 H 0.50422 0.14447 0.43551 0.0
H60 H 0.47742 0.08184 0.4512 0.0
H61 H 0.49293 0.02841 0.43444 0.0
H62 H 0.56431 0.05503 0.55424 0.0
H63 H 0.59238 0.10157 0.59535 0.0
H64 H 0.52024 0.13913 0.57213 0.0
H65 H 0.49221 0.09265 0.5308 0.0
C66 C 0.45882 0.94186 0.51532 0.0
C67 C 0.42938 0.93043 0.53574 0.0
C68 C 0.40976 0.89495 0.54512 0.0
C69 C 0.41953 0.87044 0.53457 0.0
C70 C 0.44993 0.88206 0.51538 0.0
C71 C 0.4695 0.91761 0.50581 0.0
C72 C 0.47677 0.97869 0.50276 0.0
C73 C 0.49297 0.00665 0.52496 0.0
C74 C 0.47706 0.98646 0.46949 0.0
C75 C 0.46248 0.95831 0.44422 0.0
C76 C 0.42864 0.928 0.44705 0.0
C77 C 0.41697 0.90057 0.42443 0.0
C78 C 0.43798 0.90386 0.39754 0.0
C79 C 0.47079 0.93506 0.39369 0.0
C80 C 0.48314 0.96169 0.417 0.0
C81 C 0.52611 0.08715 0.47032 0.0
C82 C 0.56246 0.11068 0.47536 0.0
C83 C 0.57771 0.14628 0.46635 0.0
C84 C 0.55678 0.15879 0.45219 0.0
C85 C 0.52069 0.13516 0.4464 0.0
C86 C 0.50549 0.09953 0.45525 0.0
C87 C 0.5092 0.05002 0.482 0.0
C88 C 0.49292 0.02215 0.45973 0.0
C89 C 0.50937 0.04214 0.51497 0.0
C90 C 0.52623 0.07045 0.53954 0.0
C91 C 0.55459 0.07332 0.55794 0.0
C92 C 0.5707 0.09991 0.58117 0.0
C93 C 0.55841 0.12375 0.58656 0.0
C94 C 0.53016 0.12106 0.56809 0.0
C95 C 0.51419 0.09458 0.54466 0.0
H96 H 0.51077 0.5385 0.73974 0.0
H97 H 0.48877 0.56284 0.7808 0.0
H98 H 0.396 0.53446 0.72299 0.0
H99 H 0.41563 0.50589 0.68383 0.0
H100 H 0.49191 0.47813 0.71737 0.0
H101 H 0.49624 0.5842 0.66275 0.0
H102 H 0.46172 0.6121 0.64534 0.0
H103 H 0.39272 0.51867 0.59013 0.0
H104 H 0.42699 0.49089 0.60735 0.0
H105 H 0.48773 0.45167 0.58004 0.0
H106 H 0.51798 0.43464 0.54002 0.0
H107 H 0.61125 0.47873 0.60007 0.0
H108 H 0.5814 0.49667 0.63995 0.0
H109 H 0.49963 0.51224 0.60251 0.0
H110 H 0.49989 0.41216 0.64223 0.0
H111 H 0.52392 0.37484 0.65901 0.0
H112 H 0.56684 0.43829 0.74473 0.0
H113 H 0.54736 0.47899 0.72557 0.0
C114 C 0.46552 0.52117 0.70794 0.0
C115 C 0.48532 0.53677 0.73604 0.0
C116 C 0.47292 0.551 0.7594 0.0
C117 C 0.44103 0.55116 0.75475 0.0
C118 C 0.42088 0.53507 0.72696 0.0
C119 C 0.43243 0.51921 0.70434 0.0
C120 C 0.48023 0.50762 0.6827 0.0
C121 C 0.49435 0.48619 0.69236 0.0
C122 C 0.48135 0.5162 0.64959 0.0
C123 C 0.46385 0.53533 0.63663 0.0
C124 C 0.474 0.56999 0.64654 0.0
C125 C 0.45443 0.58587 0.63662 0.0
C126 C 0.4246 0.56724 0.61667 0.0
C127 C 0.41561 0.53336 0.60555 0.0
C128 C 0.43517 0.51759 0.61534 0.0
C129 C 0.53221 0.47528 0.61309 0.0
C130 C 0.51478 0.45799 0.58453 0.0
C131 C 0.53187 0.44805 0.56185 0.0
C132 C 0.5666 0.45524 0.56737 0.0
C133 C 0.5843 0.4728 0.59566 0.0
C134 C 0.5673 0.48299 0.61829 0.0
C135 C 0.51335 0.48462 0.63757 0.0
C136 C 0.49807 0.50481 0.62766 0.0
C137 C 0.51045 0.47403 0.67028 0.0
C138 C 0.52284 0.44949 0.68184 0.0
C139 C 0.51566 0.41912 0.66399 0.0
C140 C 0.5289 0.39734 0.67387 0.0
C141 C 0.54747 0.40381 0.70308 0.0
C142 C 0.55304 0.433 0.7219 0.0
C143 C 0.54151 0.456 0.71109 0.0
H144 H 0.04826 0.54627 0.74799 0.0
H145 H 0.09536 0.57045 0.70773 0.0
H146 H 0.15656 0.5379 0.76532 0.0
H147 H 0.1073 0.5091 0.80336 0.0
H148 H 1.00468 0.48646 0.76793 0.0
H149 H 0.10641 0.58665 0.82564 0.0
H150 H 0.16852 0.6129 0.84346 0.0
H151 H 0.14105 0.51892 0.89883 0.0
H152 H 0.07935 0.49246 0.88076 0.0
H153 H 0.97778 0.45041 0.90408 0.0
H154 H 0.92991 0.4334 0.94351 0.0
H155 H 0.88444 0.48211 0.8847 0.0
H156 H 0.9328 0.50014 0.84563 0.0
H157 H 0.02839 0.51186 0.88461 0.0
H158 H 0.93459 0.41161 0.83318 0.0
H159 H 0.87323 0.37403 0.81489 0.0
H160 H 0.88471 0.4567 0.7504 0.0
H161 H 0.94628 0.49455 0.76877 0.0
C162 C 0.07435 0.52662 0.77949 0.0
C163 C 0.07141 0.54356 0.75179 0.0
C164 C 0.0985 0.55773 0.72889 0.0
C165 C 0.12988 0.55661 0.7337 0.0
C166 C 0.13279 0.53941 0.76119 0.0
C167 C 0.1048 0.52345 0.78321 0.0
C168 C 0.0454 0.51262 0.80408 0.0
C169 C 0.01004 0.49263 0.79335 0.0
C170 C 0.05202 0.51893 0.83767 0.0
C171 C 0.08838 0.53736 0.85147 0.0
C172 C 0.11367 0.57193 0.84196 0.0
C173 C 0.14897 0.58691 0.85215 0.0
C174 C 0.1592 0.5677 0.87232 0.0
C175 C 0.13356 0.53409 0.88331 0.0
C176 C 0.09841 0.51907 0.87303 0.0
C177 C 0.95879 0.47633 0.87174 0.0
C178 C 0.95761 0.45755 0.89965 0.0
C179 C 0.93028 0.44767 0.92201 0.0
C180 C 0.90371 0.45637 0.91677 0.0
C181 C 0.90466 0.475 0.88891 0.0
C182 C 0.93215 0.48513 0.86666 0.0
C183 C 0.98809 0.48711 0.84813 0.0
C184 C 0.02327 0.50622 0.85909 0.0
C185 C 0.98143 0.47932 0.81493 0.0
C186 C 0.94492 0.456 0.80252 0.0
C187 C 0.92398 0.42169 0.81509 0.0
C188 C 0.88906 0.40026 0.80465 0.0
C189 C 0.87455 0.41268 0.78138 0.0
C190 C 0.89555 0.44672 0.76837 0.0
C191 C 0.9306 0.46817 0.77875 0.0
H192 H 0.62549 0.08128 0.03795 0.0
H193 H 0.66146 0.14379 0.05406 0.0
H194 H 0.58002 0.16406 0.01906 0.0
H195 H 0.54397 0.10154 0.00287 0.0
H196 H 0.55478 0.02706 0.05374 0.0
H197 H 0.62311 0.0936 0.95854 0.0
H198 H 0.64228 0.14124 0.91839 0.0
H199 H 0.53293 0.10527 0.89488 0.0
H200 H 0.51377 0.05748 0.93473 0.0
H201 H 0.46814 0.94432 0.94425 0.0
H202 H 0.44051 0.88235 0.92572 0.0
H203 H 0.52037 0.87027 0.97623 0.0
H204 H 0.54819 0.93201 0.99445 0.0
H205 H 0.53272 1.00257 0.93663 0.0
H206 H 0.46217 0.93509 0.02311 0.0
H207 H 0.43593 0.88749 0.06322 0.0
H208 H 0.53893 0.92523 0.10603 0.0
H209 H 0.56549 0.97276 0.06558 0.0
C210 C 0.58222 0.08688 0.01903 0.0
C211 C 0.61514 0.09904 0.03418 0.0
C212 C 0.63565 0.13459 0.04327 0.0
C213 C 0.62332 0.15835 0.03764 0.0
C214 C 0.58985 0.146 0.02358 0.0
C215 C 0.56942 0.11047 0.01431 0.0
C216 C 0.56235 0.05008 0.0065 0.0
C217 C 0.55032 0.02166 0.02814 0.0
C218 C 0.5552 0.04304 0.97325 0.0
C219 C 0.56703 0.07204 0.94945 0.0
C220 C 0.6033 0.09612 0.94485 0.0
C221 C 0.61421 0.12329 0.92214 0.0
C222 C 0.58896 0.12675 0.9039 0.0
C223 C 0.55272 0.10303 0.9089 0.0
C224 C 0.54184 0.07572 0.93137 0.0
C225 C 0.51003 0.9427 0.97099 0.0
C226 C 0.47989 0.92844 0.95107 0.0
C227 C 0.46408 0.89317 0.94062 0.0
C228 C 0.47842 0.87189 0.94975 0.0
C229 C 0.50893 0.88633 0.96905 0.0
C230 C 0.52469 0.92146 0.97947 0.0
C231 C 0.52585 0.9794 0.98381 0.0
C232 C 0.5371 0.00782 0.96226 0.0
C233 C 0.53143 0.98641 0.01725 0.0
C234 C 0.51584 0.95735 0.04126 0.0
C235 C 0.47925 0.93288 0.04081 0.0
C236 C 0.46427 0.90577 0.0636 0.0
C237 C 0.48562 0.90288 0.08728 0.0
C238 C 0.52221 0.92705 0.08769 0.0
C239 C 0.53723 0.95421 0.06485 0.0
H240 H 0.51533 0.48293 0.23781 0.0
H241 H 0.53773 0.45869 0.27849 0.0
H242 H 0.63232 0.49157 0.22212 0.0
H243 H 0.61248 0.52062 0.18381 0.0
H244 H 0.53127 0.54227 0.21874 0.0
H245 H 0.53338 0.44404 0.15954 0.0
H246 H 0.56833 0.41669 0.14205 0.0
H247 H 0.63845 0.51147 0.08922 0.0
H248 H 0.60406 0.53899 0.10692 0.0
H249 H 0.5482 0.58606 0.08471 0.0
H250 H 0.51988 0.60539 0.0446 0.0
H251 H 0.42199 0.55304 0.09804 0.0
H252 H 0.44979 0.53276 0.13771 0.0
H253 H 0.53495 0.52234 0.10151 0.0
H254 H 0.53916 0.62053 0.15717 0.0
H255 H 0.51349 0.6563 0.17597 0.0
H256 H 0.43776 0.56847 0.23342 0.0
H257 H 0.46351 0.53254 0.21466 0.0
C258 C 0.5616 0.50291 0.20694 0.0
C259 C 0.54125 0.48568 0.23435 0.0
C260 C 0.55387 0.47146 0.25749 0.0
C261 C 0.5865 0.47272 0.25318 0.0
C262 C 0.60694 0.48996 0.22588 0.0
C263 C 0.59525 0.50605 0.20367 0.0
C264 C 0.54735 0.51763 0.18236 0.0
C265 C 0.53162 0.53724 0.19318 0.0
C266 C 0.54893 0.51262 0.14866 0.0
C267 C 0.56646 0.49377 0.13493 0.0
C268 C 0.55597 0.45872 0.14383 0.0
C269 C 0.57576 0.44311 0.13382 0.0
C270 C 0.60596 0.46221 0.11449 0.0
C271 C 0.61519 0.49638 0.10409 0.0
C272 C 0.59555 0.51201 0.11416 0.0
C273 C 0.50123 0.55817 0.11437 0.0
C274 C 0.52065 0.57871 0.08784 0.0
C275 C 0.50465 0.58994 0.06513 0.0
C276 C 0.46905 0.58082 0.06866 0.0
C277 C 0.44961 0.56056 0.09521 0.0
C278 C 0.46552 0.54911 0.11779 0.0
C279 C 0.5181 0.54572 0.13818 0.0
C280 C 0.53432 0.52678 0.12716 0.0
C281 C 0.51738 0.55161 0.17159 0.0
C282 C 0.50308 0.57381 0.18437 0.0
C283 C 0.51711 0.60897 0.17389 0.0
C284 C 0.50255 0.62936 0.18461 0.0
C285 C 0.47377 0.61495 0.20602 0.0
C286 C 0.46001 0.57999 0.21693 0.0
C287 C 0.47474 0.55962 0.20634 0.0
O288 O 0.60503 0.38574 0.44828 0.0
Cd289 Cd 0.61676 0.36246 0.40997 0.0
Cd290 Cd 0.67544 0.42362 0.41327 0.0
O291 O 0.65955 0.42876 0.45834 0.0
O292 O 0.57975 0.31128 0.41234 0.0
O293 O 0.63701 0.33088 0.42008 0.0
C294 C 0.60478 0.30477 0.41935 0.0
C295 C 0.72992 0.42833 0.40299 0.0
C296 C 0.62695 0.41133 0.46582 0.0
C297 C 0.62925 0.4125 0.35691 0.0
O298 O 0.65176 0.43531 0.37615 0.0
O299 O 0.61537 0.37971 0.3635 0.0
O300 O 0.72741 0.4561 0.40882 0.0
O301 O 0.70155 0.39753 0.40394 0.0
O302 O 0.23328 0.59547 0.61127 0.0
Cd303 Cd 0.26811 0.60751 0.57362 0.0
Cd304 Cd 0.27146 0.66869 0.57833 0.0
O305 O 0.25304 0.65096 0.62478 0.0
O306 O 0.28815 0.57539 0.57704 0.0
O307 O 0.32043 0.63395 0.58227 0.0
C308 C 0.31837 0.60332 0.5827 0.0
C309 C 0.31851 0.72568 0.5687 0.0
C310 C 0.23388 0.61808 0.63096 0.0
C311 C 0.23138 0.62101 0.52233 0.0
O312 O 0.23565 0.64647 0.54039 0.0
O313 O 0.24633 0.60316 0.529 0.0
O314 O 0.28761 0.7204 0.57662 0.0
O315 O 0.32326 0.69872 0.56732 0.0
O316 O 0.65329 0.23015 0.78077 0.0
Cd317 Cd 0.67282 0.26333 0.74139 0.0
Cd318 Cd 0.61142 0.2621 0.74818 0.0
O319 O 0.61221 0.24346 0.79376 0.0
O320 O 0.72466 0.28054 0.74126 0.0
O321 O 0.70224 0.31586 0.74904 0.0
C322 C 0.72959 0.31165 0.74769 0.0
C323 C 0.59552 0.30548 0.7397 0.0
C324 C 0.62991 0.22829 0.80021 0.0
C325 C 0.6193 0.22415 0.69135 0.0
O326 O 0.5978 0.22636 0.71063 0.0
O327 O 0.65242 0.24063 0.69705 0.0
O328 O 0.57317 0.27449 0.75056 0.0
O329 O 0.62778 0.31255 0.73523 0.0
O330 O 0.4279 0.64644 0.94773 0.0
Cd331 Cd 0.41459 0.66741 0.90867 0.0
Cd332 Cd 0.35602 0.60641 0.91475 0.0
O333 O 0.37396 0.6033 0.95957 0.0
O334 O 0.45138 0.71876 0.90849 0.0
O335 O 0.39446 0.69924 0.91804 0.0
C336 C 0.42657 0.72543 0.91598 0.0
C337 C 0.30148 0.60229 0.90568 0.0
C338 C 0.40675 0.62156 0.96626 0.0
C339 C 0.40032 0.6146 0.8575 0.0
O340 O 0.37806 0.59277 0.87749 0.0
O341 O 0.41469 0.64769 0.86297 0.0
O342 O 0.30374 0.57445 0.91187 0.0
O343 O 0.33017 0.63285 0.90552 0.0
O344 O 0.79873 0.38637 0.03517 0.0
Cd345 Cd 0.76835 0.36267 0.0755 0.0
Cd346 Cd 0.76322 0.42154 0.07494 0.0
O347 O 0.78756 0.43042 0.03053 0.0
O348 O 0.75484 0.31182 0.07195 0.0
O349 O 0.7158 0.33041 0.07002 0.0
C350 C 0.72252 0.30471 0.06837 0.0
C351 C 0.71264 0.42587 0.08268 0.0
C352 C 0.80211 0.41328 0.02014 0.0
C353 C 0.80379 0.41279 0.12951 0.0
O354 O 0.79607 0.43337 0.11436 0.0
O355 O 0.79304 0.38142 0.11955 0.0
O356 O 0.74332 0.45376 0.07904 0.0
O357 O 0.71022 0.39512 0.08096 0.0
O358 O 0.43721 0.79656 0.21069 0.0
Cd359 Cd 0.41697 0.7603 0.24803 0.0
Cd360 Cd 0.36242 0.76678 0.23526 0.0
O361 O 0.38525 0.78375 0.19079 0.0
O362 O 0.45071 0.7422 0.25189 0.0
O363 O 0.39466 0.70867 0.23661 0.0
C364 C 0.42559 0.71216 0.24147 0.0
C365 C 0.30372 0.72258 0.24337 0.0
C366 C 0.41874 0.79923 0.18836 0.0
C367 C 0.40121 0.8009 0.29481 0.0
O368 O 0.38379 0.80382 0.27162 0.0
O369 O 0.4123 0.77893 0.29272 0.0
O370 O 0.31153 0.75264 0.23064 0.0
O371 O 0.32951 0.71687 0.24973 0.0
C372 C 0.21989 0.63532 0.26387 0.0
C373 C 0.19542 0.64717 0.27026 0.0
C374 C 0.24318 0.70834 0.26329 0.0
C375 C 0.26629 0.69635 0.25209 0.0
N376 N 0.27188 0.64658 0.2336 0.0
N377 N 0.18235 0.69484 0.26572 0.0
C378 C 0.25332 0.65926 0.24995 0.0
C379 C 0.20658 0.68364 0.26662 0.0
N380 N 0.21214 0.60189 0.27226 0.0
N381 N 0.25605 0.74263 0.27295 0.0
H382 H 0.15505 0.67736 0.26629 0.0
H383 H 0.18943 0.72101 0.26059 0.0
H384 H 0.28302 0.761 0.27472 0.0
H385 H 0.24 0.75133 0.28349 0.0
H386 H 0.23063 0.59338 0.27059 0.0
H387 H 0.18887 0.58409 0.28415 0.0
H388 H 0.26183 0.61961 0.22938 0.0
H389 H 0.29507 0.66287 0.22088 0.0
C390 C 0.58597 0.20971 0.4133 0.0
C391 C 0.57219 0.19702 0.44453 0.0
C392 C 0.58172 0.25561 0.45973 0.0
C393 C 0.59603 0.26847 0.42867 0.0
N394 N 0.61731 0.26037 0.37764 0.0
N395 N 0.56229 0.20843 0.49928 0.0
C396 C 0.59998 0.2463 0.40601 0.0
C397 C 0.57175 0.2202 0.46833 0.0
N398 N 0.58462 0.18649 0.39038 0.0
N399 N 0.5769 0.27708 0.48072 0.0
H400 H 0.55382 0.18239 0.50627 0.0
H401 H 0.56517 0.22487 0.51863 0.0
H402 H 0.58556 0.3037 0.47598 0.0
H403 H 0.56271 0.26825 0.50213 0.0
H404 H 0.5904 0.19292 0.36617 0.0
H405 H 0.5757 0.15983 0.39523 0.0
H406 H 0.62433 0.24673 0.36138 0.0
H407 H 0.62701 0.28681 0.37127 0.0
C408 C 0.37709 0.58097 0.6327 0.0
C409 C 0.40096 0.58174 0.60896 0.0
C410 C 0.37243 0.59977 0.568 0.0
C411 C 0.34917 0.59966 0.59193 0.0
N412 N 0.33411 0.59831 0.64795 0.0
N413 N 0.4264 0.59849 0.55593 0.0
C414 C 0.35315 0.59297 0.62462 0.0
C415 C 0.40021 0.59328 0.57714 0.0
N416 N 0.37592 0.56691 0.66243 0.0
N417 N 0.36724 0.60501 0.53647 0.0
H418 H 0.4471 0.59403 0.56204 0.0
H419 H 0.42936 0.60995 0.53332 0.0
H420 H 0.34798 0.61114 0.52921 0.0
H421 H 0.38057 0.60138 0.51734 0.0
H422 H 0.35636 0.56175 0.67945 0.0
H423 H 0.39293 0.55775 0.66936 0.0
H424 H 0.33841 0.5974 0.67252 0.0
H425 H 0.31613 0.60686 0.64279 0.0
C426 C 0.80938 0.38396 0.79287 0.0
C427 C 0.83701 0.38993 0.77118 0.0
C428 C 0.79298 0.35082 0.73152 0.0
C429 C 0.76584 0.34114 0.75483 0.0
N430 N 0.74865 0.34488 0.80941 0.0
N431 N 0.85586 0.37626 0.72119 0.0
C432 C 0.77404 0.357 0.7859 0.0
C433 C 0.82903 0.3728 0.74073 0.0
N434 N 0.81692 0.40438 0.81996 0.0
N435 N 0.78415 0.33963 0.70037 0.0
H436 H 0.88261 0.3922 0.727 0.0
H437 H 0.85167 0.36122 0.70043 0.0
H438 H 0.75794 0.32394 0.69275 0.0
H439 H 0.80239 0.34862 0.68154 0.0
H440 H 0.7975 0.40379 0.83503 0.0
H441 H 0.84253 0.42432 0.82588 0.0
H442 H 0.75414 0.35249 0.83347 0.0
H443 H 0.72251 0.32491 0.80561 0.0
C444 C 0.46672 0.82509 0.90825 0.0
C445 C 0.46133 0.83408 0.93979 0.0
C446 C 0.43132 0.7714 0.95546 0.0
C447 C 0.43547 0.76226 0.92353 0.0
N448 N 0.45027 0.77902 0.86797 0.0
N449 N 0.43256 0.81594 0.99147 0.0
C450 C 0.45111 0.78875 0.89942 0.0
C451 C 0.44165 0.8072 0.96277 0.0
N452 N 0.48798 0.85128 0.88716 0.0
N453 N 0.41944 0.74632 0.97923 0.0
H454 H 0.43991 0.84195 0.99771 0.0
H455 H 0.41523 0.79726 0.00791 0.0
H456 H 0.41166 0.71981 0.97503 0.0
H457 H 0.41991 0.75223 0.0036 0.0
H458 H 0.49632 0.84643 0.8652 0.0
H459 H 0.49948 0.87819 0.89257 0.0
H460 H 0.45799 0.79675 0.8488 0.0
H461 H 0.43875 0.75259 0.86071 0.0
C462 C 0.62954 0.43386 0.07652 0.0
C463 C 0.63007 0.44811 0.10741 0.0
C464 C 0.67939 0.43949 0.12367 0.0
C465 C 0.68183 0.42969 0.09162 0.0
N466 N 0.66086 0.41866 0.03684 0.0
N467 N 0.65724 0.46776 0.15969 0.0
C468 C 0.65711 0.42681 0.06787 0.0
C469 C 0.65526 0.45149 0.13094 0.0
N470 N 0.60242 0.42675 0.05571 0.0
N471 N 0.69991 0.43683 0.14724 0.0
H472 H 0.63986 0.47666 0.16608 0.0
H473 H 0.67763 0.47483 0.17629 0.0
H474 H 0.71801 0.42827 0.14269 0.0
H475 H 0.69683 0.44001 0.17167 0.0
H476 H 0.59849 0.41331 0.034 0.0
H477 H 0.58206 0.43188 0.06137 0.0
H478 H 0.64635 0.42005 0.01754 0.0
H479 H 0.6801 0.41231 0.03003 0.0
C480 C 0.36881 0.81061 0.51994 0.0
C481 C 0.39619 0.83216 0.54192 0.0
C482 C 0.37613 0.78184 0.57912 0.0
C483 C 0.34669 0.76146 0.55866 0.0
N484 N 0.31387 0.75564 0.51001 0.0
N485 N 0.42582 0.83985 0.59277 0.0
C486 C 0.34282 0.7756 0.52908 0.0
C487 C 0.40001 0.8181 0.57153 0.0
N488 N 0.36799 0.82361 0.49013 0.0
N489 N 0.3812 0.76642 0.60576 0.0
H490 H 0.44456 0.86608 0.5874 0.0
H491 H 0.42777 0.83273 0.61627 0.0
H492 H 0.36352 0.74037 0.61261 0.0
H493 H 0.4039 0.77844 0.62 0.0
H494 H 0.35129 0.80834 0.47155 0.0
H495 H 0.38584 0.84949 0.48301 0.0
H496 H 0.30685 0.76556 0.49029 0.0
H497 H 0.29558 0.72909 0.51467 0.0
C498 C 0.5962 0.3921 0.72199 0.0
C499 C 0.56 0.37923 0.71409 0.0
C500 C 0.54908 0.31863 0.71812 0.0
C501 C 0.58365 0.33122 0.73101 0.0
N502 N 0.63667 0.38117 0.75307 0.0
N503 N 0.50006 0.32951 0.71469 0.0
C504 C 0.60632 0.36835 0.73528 0.0
C505 C 0.53579 0.34226 0.71538 0.0
N506 N 0.62126 0.42643 0.71566 0.0
N507 N 0.52958 0.2849 0.7064 0.0
H508 H 0.48909 0.34603 0.71454 0.0
H509 H 0.48159 0.30275 0.7181 0.0
H510 H 0.53955 0.26766 0.70416 0.0
H511 H 0.50536 0.27592 0.69471 0.0
H512 H 0.64834 0.43591 0.71847 0.0
H513 H 0.61542 0.44424 0.70429 0.0
H514 H 0.65233 0.40796 0.75881 0.0
H515 H 0.64383 0.36486 0.7654 0.0
C516 C 0.21864 0.57617 0.85685 0.0
C517 C 0.19721 0.58101 0.87975 0.0
C518 C 0.24544 0.60269 0.91945 0.0
C519 C 0.26698 0.5985 0.89626 0.0
N520 N 0.27765 0.58937 0.84111 0.0
N521 N 0.19155 0.60459 0.93046 0.0
C522 C 0.25466 0.58781 0.86435 0.0
C523 C 0.2111 0.59614 0.91036 0.0
N524 N 0.20412 0.55895 0.8285 0.0
N525 N 0.25742 0.61177 0.95038 0.0
H526 H 0.16625 0.59984 0.92448 0.0
H527 H 0.20127 0.61871 0.95183 0.0
H528 H 0.28286 0.61786 0.95744 0.0
H529 H 0.24169 0.61143 0.9694 0.0
H530 H 0.21712 0.55087 0.81251 0.0
H531 H 0.17792 0.55025 0.82196 0.0
H532 H 0.27132 0.58532 0.81671 0.0
H533 H 0.30429 0.59803 0.84582 0.0
C534 C 0.66924 0.21952 0.02051 0.0
C535 C 0.64651 0.19663 0.04492 0.0
C536 C 0.66951 0.24632 0.08321 0.0
C537 C 0.69459 0.26829 0.05977 0.0
N538 N 0.71968 0.27669 0.0065 0.0
N539 N 0.62545 0.18669 0.09968 0.0
C540 C 0.6947 0.25515 0.02845 0.0
C541 C 0.64659 0.20967 0.0763 0.0
N542 N 0.66607 0.20718 0.98964 0.0
N543 N 0.66762 0.26061 0.11197 0.0
H544 H 0.60746 0.16002 0.09513 0.0
H545 H 0.62691 0.19332 0.12393 0.0
H546 H 0.68478 0.28704 0.11814 0.0
H547 H 0.64774 0.24717 0.12894 0.0
H548 H 0.67884 0.22323 0.9699 0.0
H549 H 0.64869 0.18091 0.98316 0.0
H550 H 0.72429 0.26784 0.98474 0.0
H551 H 0.73722 0.30358 0.0106 0.0
C552 C 0.43845 0.64464 0.19361 0.0
C553 C 0.45772 0.63654 0.21631 0.0
C554 C 0.44795 0.67133 0.25733 0.0
C555 C 0.43322 0.68344 0.23344 0.0
N556 N 0.41917 0.68569 0.17741 0.0
N557 N 0.48459 0.64525 0.26886 0.0
C558 C 0.42935 0.67093 0.20122 0.0
C559 C 0.4633 0.6505 0.24804 0.0
N560 N 0.42852 0.62689 0.16488 0.0
N561 N 0.44654 0.67911 0.28901 0.0
H562 H 0.49635 0.63019 0.26299 0.0
H563 H 0.4929 0.65811 0.29098 0.0
H564 H 0.43493 0.69381 0.29665 0.0
H565 H 0.45367 0.66817 0.30788 0.0
H566 H 0.41139 0.62907 0.14872 0.0
H567 H 0.43471 0.60743 0.15849 0.0
H568 H 0.41998 0.68054 0.15301 0.0
H569 H 0.41289 0.70552 0.18157 0.0
C570 C 0.81013 0.44855 0.35234 0.0
C571 C 0.83434 0.45089 0.37649 0.0
C572 C 0.78881 0.43525 0.41805 0.0
C573 C 0.76453 0.43231 0.39383 0.0
N574 N 0.749 0.4286 0.33769 0.0
N575 N 0.84521 0.43941 0.43085 0.0
C576 C 0.77422 0.4364 0.36084 0.0
C577 C 0.82315 0.44201 0.40895 0.0
N578 N 0.82189 0.45971 0.32166 0.0
N579 N 0.77933 0.43257 0.44976 0.0
H580 H 0.87044 0.44403 0.42484 0.0
H581 H 0.83754 0.4298 0.45415 0.0
H582 H 0.75389 0.42613 0.45715 0.0
H583 H 0.79706 0.43861 0.46876 0.0
H584 H 0.80658 0.46251 0.30389 0.0
H585 H 0.84794 0.46876 0.31437 0.0
H586 H 0.75347 0.42751 0.31319 0.0
H587 H 0.72257 0.42019 0.34315 0.0
C588 C 0.18567 0.62147 0.44424 0.0
C589 C 0.15432 0.58784 0.44616 0.0
C590 C 0.17304 0.57678 0.49844 0.0
C591 C 0.20541 0.60941 0.49564 0.0
N592 N 0.24515 0.66075 0.46451 0.0
N593 N 0.12019 0.53103 0.47204 0.0
C594 C 0.21247 0.63126 0.46815 0.0
C595 C 0.14868 0.56472 0.47234 0.0
N596 N 0.18943 0.64424 0.41989 0.0
N597 N 0.16473 0.55819 0.52673 0.0
H598 H 0.10111 0.52156 0.45383 0.0
H599 H 0.11685 0.51154 0.48847 0.0
H600 H 0.18164 0.56616 0.54661 0.0
H601 H 0.13988 0.53646 0.5316 0.0
H602 H 0.20966 0.67058 0.419 0.0
H603 H 0.17093 0.63742 0.40135 0.0
H604 H 0.25338 0.67596 0.44362 0.0
H605 H 0.26528 0.66862 0.48163 0.0
C606 C 0.56732 0.13802 0.64539 0.0
C607 C 0.57385 0.15008 0.61305 0.0
C608 C 0.60907 0.21159 0.63192 0.0
C609 C 0.60506 0.19901 0.66402 0.0
N610 N 0.58745 0.15009 0.70064 0.0
N611 N 0.60488 0.19754 0.57489 0.0
C612 C 0.58615 0.16215 0.67058 0.0
C613 C 0.59583 0.18671 0.60608 0.0
N614 N 0.54229 0.10372 0.65214 0.0
N615 N 0.62465 0.24718 0.62624 0.0
H616 H 0.59565 0.18006 0.5554 0.0
H617 H 0.62363 0.22333 0.56844 0.0
H618 H 0.63512 0.26606 0.6446 0.0
H619 H 0.62494 0.25788 0.60374 0.0
H620 H 0.53381 0.09452 0.67544 0.0
H621 H 0.52748 0.08523 0.63437 0.0
H622 H 0.57706 0.12335 0.70608 0.0
H623 H 0.60235 0.16702 0.71931 0.0
C624 C 0.39526 0.55009 0.79324 0.0
C625 C 0.42935 0.56873 0.77888 0.0
C626 C 0.44555 0.61758 0.8168 0.0
C627 C 0.41009 0.60079 0.82859 0.0
N628 N 0.34883 0.55615 0.81881 0.0
N629 N 0.48228 0.62545 0.77043 0.0
C630 C 0.38414 0.56861 0.81394 0.0
C631 C 0.45299 0.60422 0.78848 0.0
N632 N 0.37403 0.51445 0.78866 0.0
N633 N 0.47279 0.64449 0.83346 0.0
H634 H 0.48773 0.6172 0.74864 0.0
H635 H 0.49865 0.65238 0.77529 0.0
H636 H 0.46989 0.65313 0.85602 0.0
H637 H 0.49925 0.65511 0.82665 0.0
H638 H 0.35024 0.49952 0.80106 0.0
H639 H 0.38192 0.49921 0.77546 0.0
H640 H 0.32913 0.53417 0.80658 0.0
H641 H 0.33937 0.57027 0.83168 0.0
C642 C 0.84326 0.4145 0.93911 0.0
C643 C 0.8757 0.44709 0.94135 0.0
C644 C 0.85892 0.45856 0.99442 0.0
C645 C 0.82601 0.42641 0.99191 0.0
N646 N 0.78382 0.37684 0.96017 0.0
N647 N 0.91172 0.50351 0.9674 0.0
C648 C 0.81726 0.40527 0.96367 0.0
C649 C 0.88261 0.47022 0.96783 0.0
N650 N 0.8378 0.39204 0.91394 0.0
N651 N 0.86849 0.47691 0.02287 0.0
H652 H 0.93012 0.5127 0.94864 0.0
H653 H 0.91614 0.52304 0.98423 0.0
H654 H 0.852 0.46951 0.043 0.0
H655 H 0.89384 0.49798 0.0275 0.0
H656 H 0.81658 0.36621 0.91261 0.0
H657 H 0.85573 0.39855 0.89497 0.0
H658 H 0.7745 0.36219 0.93903 0.0
H659 H 0.76423 0.36957 0.97772 0.0
C660 C 0.45816 0.83999 0.10687 0.0
C661 C 0.46909 0.87608 0.11317 0.0
C662 C 0.44964 0.86183 0.16925 0.0
C663 C 0.43651 0.82541 0.16242 0.0
N664 N 0.42454 0.77868 0.1247 0.0
N665 N 0.47025 0.92085 0.14824 0.0
C666 C 0.43965 0.81412 0.13116 0.0
C667 C 0.4636 0.88691 0.14383 0.0
N668 N 0.46635 0.83074 0.07797 0.0
N669 N 0.44898 0.87251 0.20014 0.0
H670 H 0.48059 0.94014 0.13027 0.0
H671 H 0.46288 0.9293 0.16879 0.0
H672 H 0.43723 0.85492 0.21926 0.0
H673 H 0.46215 0.89894 0.20739 0.0
H674 H 0.46227 0.80558 0.07281 0.0
H675 H 0.47961 0.84901 0.05961 0.0
H676 H 0.42249 0.76834 0.10169 0.0
H677 H 0.412 0.75922 0.14231 0.0
C678 C 0.63289 0.47497 0.29168 0.0
C679 C 0.59881 0.45571 0.27732 0.0
C680 C 0.58354 0.40736 0.31553 0.0
C681 C 0.619 0.42495 0.32741 0.0
N682 N 0.67999 0.46981 0.31695 0.0
N683 N 0.5468 0.39824 0.26883 0.0
C684 C 0.64456 0.45696 0.31236 0.0
C685 C 0.57578 0.42012 0.28699 0.0
N686 N 0.65353 0.51069 0.28725 0.0
N687 N 0.55657 0.38027 0.33219 0.0
H688 H 0.54125 0.40605 0.24686 0.0
H689 H 0.53091 0.37128 0.2738 0.0
H690 H 0.5596 0.3719 0.35482 0.0
H691 H 0.53009 0.3691 0.32524 0.0
H692 H 0.67732 0.52591 0.2996 0.0
H693 H 0.64508 0.52568 0.27439 0.0
H694 H 0.69936 0.49181 0.30452 0.0
H695 H 0.68981 0.45592 0.3297 0.0
C696 C 0.44935 0.86087 0.36663 0.0
C697 C 0.42654 0.8745 0.37366 0.0
C698 C 0.38341 0.83212 0.33538 0.0
C699 C 0.4093 0.82411 0.32365 0.0
N700 N 0.47088 0.83846 0.32455 0.0
N701 N 0.37395 0.87715 0.35956 0.0
C702 C 0.44336 0.84031 0.33839 0.0
C703 C 0.394 0.86118 0.35672 0.0
N704 N 0.47647 0.86709 0.38706 0.0
N705 N 0.34856 0.81144 0.32705 0.0
H706 H 0.38153 0.89971 0.37354 0.0
H707 H 0.3517 0.87016 0.34527 0.0
H708 H 0.33928 0.7884 0.31332 0.0
H709 H 0.32845 0.81475 0.33711 0.0
H710 H 0.49193 0.85515 0.38416 0.0
H711 H 0.48078 0.88078 0.40875 0.0
H712 H 0.49676 0.85266 0.33333 0.0
H713 H 0.46914 0.8266 0.30233 0.0
C714 C 0.58192 0.41115 0.54445 0.0
C715 C 0.58458 0.44496 0.54286 0.0
C716 C 0.6146 0.4564 0.4907 0.0
C717 C 0.61365 0.42338 0.49301 0.0
N718 N 0.60174 0.37173 0.52379 0.0
N719 N 0.60858 0.50239 0.51792 0.0
C720 C 0.59878 0.40138 0.52041 0.0
C721 C 0.60262 0.46843 0.51705 0.0
N722 N 0.56256 0.38814 0.56852 0.0
N723 N 0.62513 0.47536 0.46263 0.0
H724 H 0.59941 0.5119 0.53646 0.0
H725 H 0.62503 0.52199 0.50172 0.0
H726 H 0.63379 0.46742 0.44254 0.0
H727 H 0.62247 0.49744 0.45814 0.0
H728 H 0.55614 0.36169 0.56908 0.0
H729 H 0.55094 0.3949 0.58714 0.0
H730 H 0.59462 0.35635 0.54459 0.0
H731 H 0.61404 0.36397 0.50664 0.0
C732 C 0.17457 0.55483 0.69558 0.0
C733 C 0.15958 0.57392 0.70998 0.0
C734 C 0.1931 0.62278 0.67236 0.0
C735 C 0.21102 0.6053 0.66035 0.0
N736 N 0.22683 0.5601 0.67021 0.0
N737 N 0.1649 0.63124 0.71896 0.0
C738 C 0.20435 0.57303 0.67504 0.0
C739 C 0.17226 0.60964 0.70067 0.0
N740 N 0.15952 0.51908 0.69984 0.0
N741 N 0.19345 0.65015 0.65596 0.0
H742 H 0.15121 0.6231 0.74075 0.0
H743 H 0.17604 0.65827 0.7143 0.0
H744 H 0.20514 0.65886 0.63348 0.0
H745 H 0.17809 0.66124 0.66294 0.0
H746 H 0.16813 0.50395 0.68742 0.0
H747 H 0.13612 0.50402 0.71272 0.0
H748 H 0.22415 0.53796 0.68241 0.0
H749 H 0.25051 0.57402 0.65744 0.0
C750 C 0.61584 0.19013 0.88512 0.0
C751 C 0.60029 0.15346 0.87776 0.0
C752 C 0.59998 0.16624 0.82048 0.0
C753 C 0.6189 0.20305 0.82737 0.0
N754 N 0.64867 0.25074 0.86546 0.0
N755 N 0.58435 0.10732 0.83807 0.0
C756 C 0.62794 0.21527 0.85952 0.0
C757 C 0.59433 0.14171 0.84531 0.0
N758 N 0.61795 0.20074 0.91644 0.0
N759 N 0.58609 0.15465 0.79045 0.0
H760 H 0.58052 0.08853 0.85555 0.0
H761 H 0.58326 0.09831 0.81461 0.0
H762 H 0.58843 0.17191 0.772 0.0
H763 H 0.56907 0.12805 0.78488 0.0
H764 H 0.62582 0.22667 0.92319 0.0
H765 H 0.60913 0.18301 0.93571 0.0
H766 H 0.65935 0.26112 0.88799 0.0
H767 H 0.65732 0.26976 0.84723 0.0
C768 C 0.45006 0.62241 0.04625 0.0
C769 C 0.45152 0.59068 0.04332 0.0
C770 C 0.42444 0.57991 0.98974 0.0
C771 C 0.42127 0.61064 0.99328 0.0
N772 N 0.42652 0.65885 0.02578 0.0
N773 N 0.43514 0.53608 0.01529 0.0
C774 C 0.43283 0.63131 0.02182 0.0
C775 C 0.43718 0.56847 0.01595 0.0
N776 N 0.46583 0.64431 0.07205 0.0
N777 N 0.41673 0.56254 0.9608 0.0
H778 H 0.44495 0.52707 0.0337 0.0
H779 H 0.42127 0.51692 0.9978 0.0
H780 H 0.40706 0.56985 0.94099 0.0
H781 H 0.4225 0.54261 0.95544 0.0
H782 H 0.46909 0.66958 0.07411 0.0
H783 H 0.47769 0.63802 0.0908 0.0
H784 H 0.43099 0.67291 0.04719 0.0
H785 H 0.41433 0.66619 0.00814 0.0
C786 C 0.84445 0.43013 0.21366 0.0
C787 C 0.87937 0.4579 0.20679 0.0
C788 C 0.86526 0.45327 0.14926 0.0
C789 C 0.82962 0.42743 0.1563 0.0
N790 N 0.78361 0.39433 0.19508 0.0
N791 N 0.92133 0.50055 0.16934 0.0
C792 C 0.8187 0.41663 0.18851 0.0
C793 C 0.88928 0.47083 0.17493 0.0
N794 N 0.83624 0.41607 0.24399 0.0
N795 N 0.87655 0.46003 0.11796 0.0
H796 H 0.9397 0.51422 0.18755 0.0
H797 H 0.92844 0.51355 0.14723 0.0
H798 H 0.85992 0.44741 0.09839 0.0
H799 H 0.90306 0.47567 0.11141 0.0
H800 H 0.81248 0.3934 0.24983 0.0
H801 H 0.85426 0.4257 0.26307 0.0
H802 H 0.77327 0.38841 0.21831 0.0
H803 H 0.76424 0.38366 0.17715 0.0
loop_
_geom_bond_atom_site_label_1
_geom_bond_atom_site_label_2
_geom_bond_distance
_geom_bond_site_symmetry_2
_ccdc_geom_bond_type
H0 C19 0.949 . S
H1 C20 0.950 . S
H2 C22 0.950 . S
H3 C23 0.950 . S
H4 C25 0.950 . S
H5 C28 0.950 . S
H6 C29 0.950 . S
H7 C31 0.951 . S
H8 C32 0.949 . S
H9 C34 0.949 . S
H10 C35 0.950 . S
H11 C37 0.950 . S
H12 C38 0.950 . S
H13 C40 0.942 1_655 S
H14 C43 0.950 . S
H15 C44 0.950 . S
H16 C46 0.951 . S
H17 C47 0.949 . S
C18 C19 1.376 . S
C18 C23 1.386 . S
C18 C24 1.483 . S
C19 H0 0.949 . S
C19 C18 1.376 . S
C19 C20 1.397 . S
C20 H1 0.950 . S
C20 C19 1.397 . S
C20 C21 1.391 . S
C21 C20 1.391 . S
C21 C22 1.405 . S
C22 H2 0.950 . S
C22 C21 1.405 . S
C22 C23 1.367 . S
C23 H3 0.950 . S
C23 C18 1.386 . S
C23 C22 1.367 . S
C24 C18 1.483 . S
C24 C25 1.382 1_655 S
C24 C26 1.403 . S
C25 H4 0.950 . S
C25 C24 1.382 1_455 S
C25 C41 1.411 . S
C26 C24 1.403 . S
C26 C27 1.489 . S
C26 C40 1.395 1_655 S
C27 C26 1.489 . S
C27 C28 1.383 . S
C27 C32 1.382 . S
C28 H5 0.950 . S
C28 C27 1.383 . S
C28 C29 1.395 . S
C29 H6 0.950 . S
C29 C28 1.395 . S
C29 C30 1.288 . S
C30 C29 1.288 . S
C30 C31 1.392 . S
C31 H7 0.951 . S
C31 C30 1.392 . S
C31 C32 1.392 . S
C32 H8 0.949 . S
C32 C27 1.382 . S
C32 C31 1.392 . S
C33 C34 1.376 . S
C33 C38 1.386 . S
C33 C39 1.483 . S
C34 H9 0.949 . S
C34 C33 1.376 . S
C34 C35 1.397 . S
C35 H10 0.950 . S
C35 C34 1.397 . S
C35 C36 1.391 . S
C36 C35 1.391 . S
C36 C37 1.405 . S
C37 H11 0.950 . S
C37 C36 1.405 . S
C37 C38 1.367 . S
C38 H12 0.950 . S
C38 C33 1.386 . S
C38 C37 1.367 . S
C39 C33 1.483 . S
C39 C40 1.406 . S
C39 C41 1.403 . S
C40 H13 0.942 1_455 S
C40 C26 1.395 1_455 S
C40 C39 1.406 . S
C41 C25 1.411 . S
C41 C39 1.403 . S
C41 C42 1.489 . S
C42 C41 1.489 . S
C42 C43 1.383 . S
C42 C47 1.382 . S
C43 H14 0.950 . S
C43 C42 1.383 . S
C43 C44 1.395 . S
C44 H15 0.950 . S
C44 C43 1.395 . S
C44 C45 1.288 . S
C45 C44 1.288 . S
C45 C46 1.392 . S
C46 H16 0.951 . S
C46 C45 1.392 . S
C46 C47 1.392 . S
C47 H17 0.949 . S
C47 C42 1.382 . S
C47 C46 1.392 . S
H48 C67 0.949 . S
H49 C68 0.950 . S
H50 C70 0.950 . S
H51 C71 0.950 . S
H52 C73 0.957 . S
H53 C76 0.950 . S
H54 C77 0.950 . S
H55 C79 0.951 . S
H56 C80 0.949 . S
H57 C82 0.949 . S
H58 C83 0.950 . S
H59 C85 0.950 . S
H60 C86 0.950 . S
H61 C88 0.950 . S
H62 C91 0.950 . S
H63 C92 0.950 . S
H64 C94 0.951 . S
H65 C95 0.949 . S
C66 C67 1.376 . S
C66 C71 1.386 . S
C66 C72 1.483 . S
C67 H48 0.949 . S
C67 C66 1.376 . S
C67 C68 1.397 . S
C68 H49 0.950 . S
C68 C67 1.397 . S
C68 C69 1.391 . S
C69 C68 1.391 . S
C69 C70 1.405 . S
C70 H50 0.950 . S
C70 C69 1.405 . S
C70 C71 1.367 . S
C71 H51 0.950 . S
C71 C66 1.386 . S
C71 C70 1.367 . S
C72 C66 1.483 . S
C72 C73 1.403 . S
C72 C74 1.403 . S
C73 H52 0.957 . S
C73 C72 1.403 . S
C73 C89 1.384 1_565 S
C74 C72 1.403 . S
C74 C75 1.489 . S
C74 C88 1.411 1_565 S
C75 C74 1.489 . S
C75 C76 1.383 . S
C75 C80 1.382 . S
C76 H53 0.950 . S
C76 C75 1.383 . S
C76 C77 1.395 . S
C77 H54 0.950 . S
C77 C76 1.395 . S
C77 C78 1.288 . S
C78 C77 1.288 . S
C78 C79 1.392 . S
C79 H55 0.951 . S
C79 C78 1.392 . S
C79 C80 1.392 . S
C80 H56 0.949 . S
C80 C75 1.382 . S
C80 C79 1.392 . S
C81 C82 1.376 . S
C81 C86 1.386 . S
C81 C87 1.483 . S
C82 H57 0.949 . S
C82 C81 1.376 . S
C82 C83 1.397 . S
C83 H58 0.950 . S
C83 C82 1.397 . S
C83 C84 1.391 . S
C84 C83 1.391 . S
C84 C85 1.405 . S
C85 H59 0.950 . S
C85 C84 1.405 . S
C85 C86 1.367 . S
C86 H60 0.950 . S
C86 C81 1.386 . S
C86 C85 1.367 . S
C87 C81 1.483 . S
C87 C88 1.382 . S
C87 C89 1.403 . S
C88 H61 0.950 . S
C88 C74 1.411 1_545 S
C88 C87 1.382 . S
C89 C73 1.384 1_545 S
C89 C87 1.403 . S
C89 C90 1.489 . S
C90 C89 1.489 . S
C90 C91 1.383 . S
C90 C95 1.382 . S
C91 H62 0.950 . S
C91 C90 1.383 . S
C91 C92 1.395 . S
C92 H63 0.950 . S
C92 C91 1.395 . S
C92 C93 1.288 . S
C93 C92 1.288 . S
C93 C94 1.392 . S
C94 H64 0.951 . S
C94 C93 1.392 . S
C94 C95 1.392 . S
C95 H65 0.949 . S
C95 C90 1.382 . S
C95 C94 1.392 . S
H96 C115 0.949 . S
H97 C116 0.950 . S
H98 C118 0.950 . S
H99 C119 0.950 . S
H100 C121 0.950 . S
H101 C124 0.950 . S
H102 C125 0.950 . S
H103 C127 0.951 . S
H104 C128 0.949 . S
H105 C130 0.949 . S
H106 C131 0.950 . S
H107 C133 0.950 . S
H108 C134 0.950 . S
H109 C136 0.950 . S
H110 C139 0.950 . S
H111 C140 0.950 . S
H112 C142 0.951 . S
H113 C143 0.949 . S
C114 C115 1.376 . S
C114 C119 1.386 . S
C114 C120 1.483 . S
C115 H96 0.949 . S
C115 C114 1.376 . S
C115 C116 1.397 . S
C116 H97 0.950 . S
C116 C115 1.397 . S
C116 C117 1.391 . S
C117 C116 1.391 . S
C117 C118 1.405 . S
C118 H98 0.950 . S
C118 C117 1.405 . S
C118 C119 1.367 . S
C119 H99 0.950 . S
C119 C114 1.386 . S
C119 C118 1.367 . S
C120 C114 1.483 . S
C120 C121 1.382 . S
C120 C122 1.403 . S
C121 H100 0.950 . S
C121 C120 1.382 . S
C121 C137 1.411 . S
C122 C120 1.403 . S
C122 C123 1.489 . S
C122 C136 1.411 . S
C123 C122 1.489 . S
C123 C124 1.383 . S
C123 C128 1.382 . S
C124 H101 0.950 . S
C124 C123 1.383 . S
C124 C125 1.395 . S
C125 H102 0.950 . S
C125 C124 1.395 . S
C125 C126 1.288 . S
C126 C125 1.288 . S
C126 C127 1.392 . S
C127 H103 0.951 . S
C127 C126 1.392 . S
C127 C128 1.392 . S
C128 H104 0.949 . S
C128 C123 1.382 . S
C128 C127 1.392 . S
C129 C130 1.376 . S
C129 C134 1.386 . S
C129 C135 1.483 . S
C130 H105 0.949 . S
C130 C129 1.376 . S
C130 C131 1.397 . S
C131 H106 0.950 . S
C131 C130 1.397 . S
C131 C132 1.391 . S
C132 C131 1.391 . S
C132 C133 1.405 . S
C133 H107 0.950 . S
C133 C132 1.405 . S
C133 C134 1.367 . S
C134 H108 0.950 . S
C134 C129 1.386 . S
C134 C133 1.367 . S
C135 C129 1.483 . S
C135 C136 1.382 . S
C135 C137 1.403 . S
C136 H109 0.950 . S
C136 C122 1.411 . S
C136 C135 1.382 . S
C137 C121 1.411 . S
C137 C135 1.403 . S
C137 C138 1.489 . S
C138 C137 1.489 . S
C138 C139 1.383 . S
C138 C143 1.382 . S
C139 H110 0.950 . S
C139 C138 1.383 . S
C139 C140 1.395 . S
C140 H111 0.950 . S
C140 C139 1.395 . S
C140 C141 1.288 . S
C141 C140 1.288 . S
C141 C142 1.392 . S
C142 H112 0.951 . S
C142 C141 1.392 . S
C142 C143 1.392 . S
C143 H113 0.949 . S
C143 C138 1.382 . S
C143 C142 1.392 . S
H144 C163 0.949 . S
H145 C164 0.950 . S
H146 C166 0.950 . S
H147 C167 0.950 . S
H148 C169 0.939 1_655 S
H149 C172 0.950 . S
H150 C173 0.950 . S
H151 C175 0.951 . S
H152 C176 0.949 . S
H153 C178 0.949 . S
H154 C179 0.950 . S
H155 C181 0.950 . S
H156 C182 0.950 . S
H157 C184 0.950 . S
H158 C187 0.950 . S
H159 C188 0.950 . S
H160 C190 0.951 . S
H161 C191 0.949 . S
C162 C163 1.376 . S
C162 C167 1.386 . S
C162 C168 1.483 . S
C163 H144 0.949 . S
C163 C162 1.376 . S
C163 C164 1.397 . S
C164 H145 0.950 . S
C164 C163 1.397 . S
C164 C165 1.391 . S
C165 C164 1.391 . S
C165 C166 1.405 . S
C166 H146 0.950 . S
C166 C165 1.405 . S
C166 C167 1.367 . S
C167 H147 0.950 . S
C167 C162 1.386 . S
C167 C166 1.367 . S
C168 C162 1.483 . S
C168 C169 1.414 . S
C168 C170 1.403 . S
C169 H148 0.939 1_455 S
C169 C168 1.414 . S
C169 C185 1.390 1_455 S
C170 C168 1.403 . S
C170 C171 1.489 . S
C170 C184 1.411 . S
C171 C170 1.489 . S
C171 C172 1.383 . S
C171 C176 1.382 . S
C172 H149 0.950 . S
C172 C171 1.383 . S
C172 C173 1.395 . S
C173 H150 0.950 . S
C173 C172 1.395 . S
C173 C174 1.288 . S
C174 C173 1.288 . S
C174 C175 1.392 . S
C175 H151 0.951 . S
C175 C174 1.392 . S
C175 C176 1.392 . S
C176 H152 0.949 . S
C176 C171 1.382 . S
C176 C175 1.392 . S
C177 C178 1.376 . S
C177 C182 1.386 . S
C177 C183 1.483 . S
C178 H153 0.949 . S
C178 C177 1.376 . S
C178 C179 1.397 . S
C179 H154 0.950 . S
C179 C178 1.397 . S
C179 C180 1.391 . S
C180 C179 1.391 . S
C180 C181 1.405 . S
C181 H155 0.950 . S
C181 C180 1.405 . S
C181 C182 1.367 . S
C182 H156 0.950 . S
C182 C177 1.386 . S
C182 C181 1.367 . S
C183 C177 1.483 . S
C183 C184 1.382 1_655 S
C183 C185 1.403 . S
C184 H157 0.950 . S
C184 C170 1.411 . S
C184 C183 1.382 1_455 S
C185 C169 1.390 1_655 S
C185 C183 1.403 . S
C185 C186 1.489 . S
C186 C185 1.489 . S
C186 C187 1.383 . S
C186 C191 1.382 . S
C187 H158 0.950 . S
C187 C186 1.383 . S
C187 C188 1.395 . S
C188 H159 0.950 . S
C188 C187 1.395 . S
C188 C189 1.288 . S
C189 C188 1.288 . S
C189 C190 1.392 . S
C190 H160 0.951 . S
C190 C189 1.392 . S
C190 C191 1.392 . S
C191 H161 0.949 . S
C191 C186 1.382 . S
C191 C190 1.392 . S
H192 C211 0.949 . S
H193 C212 0.950 . S
H194 C214 0.950 . S
H195 C215 0.950 1_556 S
H196 C217 0.950 . S
H197 C220 0.950 . S
H198 C221 0.950 . S
H199 C223 0.951 . S
H200 C224 0.949 . S
H201 C226 0.949 . S
H202 C227 0.950 . S
H203 C229 0.950 . S
H204 C230 0.950 . S
H205 C232 0.957 . S
H206 C235 0.950 . S
H207 C236 0.950 . S
H208 C238 0.951 . S
H209 C239 0.949 . S
C210 C211 1.376 . S
C210 C215 1.386 . S
C210 C216 1.478 1_554 S
C211 H192 0.949 . S
C211 C210 1.376 . S
C211 C212 1.397 . S
C212 H193 0.950 . S
C212 C211 1.397 . S
C212 C213 1.391 . S
C213 C212 1.391 . S
C213 C214 1.405 . S
C214 H194 0.950 . S
C214 C213 1.405 . S
C214 C215 1.367 . S
C215 H195 0.950 1_554 S
C215 C210 1.386 . S
C215 C214 1.367 . S
C216 C210 1.478 1_556 S
C216 C217 1.367 1_556 S
C216 C218 1.422 . S
C217 H196 0.950 . S
C217 C216 1.367 1_554 S
C217 C233 1.411 1_545 S
C218 C216 1.422 . S
C218 C219 1.489 . S
C218 C232 1.384 1_545 S
C219 C218 1.489 . S
C219 C220 1.383 . S
C219 C224 1.382 . S
C220 H197 0.950 . S
C220 C219 1.383 . S
C220 C221 1.395 . S
C221 H198 0.950 . S
C221 C220 1.395 . S
C221 C222 1.288 . S
C222 C221 1.288 . S
C222 C223 1.392 . S
C223 H199 0.951 . S
C223 C222 1.392 . S
C223 C224 1.392 . S
C224 H200 0.949 . S
C224 C219 1.382 . S
C224 C223 1.392 . S
C225 C226 1.376 . S
C225 C230 1.386 . S
C225 C231 1.483 . S
C226 H201 0.949 . S
C226 C225 1.376 . S
C226 C227 1.397 . S
C227 H202 0.950 . S
C227 C226 1.397 . S
C227 C228 1.391 . S
C228 C227 1.391 . S
C228 C229 1.405 . S
C229 H203 0.950 . S
C229 C228 1.405 . S
C229 C230 1.367 . S
C230 H204 0.950 . S
C230 C225 1.386 . S
C230 C229 1.367 . S
C231 C225 1.483 . S
C231 C232 1.402 . S
C231 C233 1.403 1_556 S
C232 H205 0.957 . S
C232 C218 1.384 1_565 S
C232 C231 1.402 . S
C233 C217 1.411 1_565 S
C233 C231 1.403 1_554 S
C233 C234 1.489 . S
C234 C233 1.489 . S
C234 C235 1.383 . S
C234 C239 1.382 . S
C235 H206 0.950 . S
C235 C234 1.383 . S
C235 C236 1.395 . S
C236 H207 0.950 . S
C236 C235 1.395 . S
C236 C237 1.288 . S
C237 C236 1.288 . S
C237 C238 1.392 . S
C238 H208 0.951 . S
C238 C237 1.392 . S
C238 C239 1.392 . S
C239 H209 0.949 . S
C239 C234 1.382 . S
C239 C238 1.392 . S
H240 C259 0.949 . S
H241 C260 0.950 . S
H242 C262 0.950 . S
H243 C263 0.950 . S
H244 C265 0.950 . S
H245 C268 0.950 . S
H246 C269 0.950 . S
H247 C271 0.951 . S
H248 C272 0.949 . S
H249 C274 0.949 . S
H250 C275 0.950 . S
H251 C277 0.950 . S
H252 C278 0.950 . S
H253 C280 0.950 . S
H254 C283 0.950 . S
H255 C284 0.950 . S
H256 C286 0.951 . S
H257 C287 0.949 . S
C258 C259 1.376 . S
C258 C263 1.386 . S
C258 C264 1.483 . S
C259 H240 0.949 . S
C259 C258 1.376 . S
C259 C260 1.397 . S
C260 H241 0.950 . S
C260 C259 1.397 . S
C260 C261 1.391 . S
C261 C260 1.391 . S
C261 C262 1.405 . S
C262 H242 0.950 . S
C262 C261 1.405 . S
C262 C263 1.367 . S
C263 H243 0.950 . S
C263 C258 1.386 . S
C263 C262 1.367 . S
C264 C258 1.483 . S
C264 C265 1.382 . S
C264 C266 1.403 . S
C265 H244 0.950 . S
C265 C264 1.382 . S
C265 C281 1.411 . S
C266 C264 1.403 . S
C266 C267 1.489 . S
C266 C280 1.411 . S
C267 C266 1.489 . S
C267 C268 1.383 . S
C267 C272 1.382 . S
C268 H245 0.950 . S
C268 C267 1.383 . S
C268 C269 1.395 . S
C269 H246 0.950 . S
C269 C268 1.395 . S
C269 C270 1.288 . S
C270 C269 1.288 . S
C270 C271 1.392 . S
C271 H247 0.951 . S
C271 C270 1.392 . S
C271 C272 1.392 . S
C272 H248 0.949 . S
C272 C267 1.382 . S
C272 C271 1.392 . S
C273 C274 1.376 . S
C273 C278 1.386 . S
C273 C279 1.483 . S
C274 H249 0.949 . S
C274 C273 1.376 . S
C274 C275 1.397 . S
C275 H250 0.950 . S
C275 C274 1.397 . S
C275 C276 1.391 . S
C276 C275 1.391 . S
C276 C277 1.405 . S
C277 H251 0.950 . S
C277 C276 1.405 . S
C277 C278 1.367 . S
C278 H252 0.950 . S
C278 C273 1.386 . S
C278 C277 1.367 . S
C279 C273 1.483 . S
C279 C280 1.382 . S
C279 C281 1.403 . S
C280 H253 0.950 . S
C280 C266 1.411 . S
C280 C279 1.382 . S
C281 C265 1.411 . S
C281 C279 1.403 . S
C281 C282 1.489 . S
C282 C281 1.489 . S
C282 C283 1.383 . S
C282 C287 1.382 . S
C283 H254 0.950 . S
C283 C282 1.383 . S
C283 C284 1.395 . S
C284 H255 0.950 . S
C284 C283 1.395 . S
C284 C285 1.288 . S
C285 C284 1.288 . S
C285 C286 1.392 . S
C286 H256 0.951 . S
C286 C285 1.392 . S
C286 C287 1.392 . S
C287 H257 0.949 . S
C287 C282 1.382 . S
C287 C286 1.392 . S
O288 Cd289 2.223 . S
O288 C296 1.315 . S
Cd289 O288 2.223 . S
Cd289 O292 2.297 . S
Cd289 O293 2.439 . S
Cd289 O299 2.240 . S
Cd290 O291 2.240 . S
Cd290 O298 2.223 . S
Cd290 O300 2.297 . S
Cd290 O301 2.439 . S
O291 Cd290 2.240 . S
O291 C296 1.279 . S
O292 Cd289 2.297 . S
O292 C294 1.247 . S
O293 Cd289 2.439 . S
O293 C294 1.208 . S
C294 O292 1.247 . S
C294 O293 1.208 . S
C295 O300 1.247 . S
C295 O301 1.208 . S
C296 O288 1.315 . S
C296 O291 1.279 . S
C297 O298 1.315 . S
C297 O299 1.279 . S
O298 Cd290 2.223 . S
O298 C297 1.315 . S
O299 Cd289 2.240 . S
O299 C297 1.279 . S
O300 Cd290 2.297 . S
O300 C295 1.247 . S
O301 Cd290 2.439 . S
O301 C295 1.208 . S
O302 Cd303 2.223 . S
O302 C310 1.315 . S
Cd303 O302 2.223 . S
Cd303 O306 2.297 . S
Cd303 O307 2.439 . S
Cd303 O313 2.240 . S
Cd304 O305 2.240 . S
Cd304 O312 2.223 . S
Cd304 O314 2.297 . S
Cd304 O315 2.439 . S
O305 Cd304 2.240 . S
O305 C310 1.279 . S
O306 Cd303 2.297 . S
O306 C308 1.247 . S
O307 Cd303 2.439 . S
O307 C308 1.208 . S
C308 O306 1.247 . S
C308 O307 1.208 . S
C309 O314 1.247 . S
C309 O315 1.208 . S
C310 O302 1.315 . S
C310 O305 1.279 . S
C311 O312 1.315 . S
C311 O313 1.279 . S
O312 Cd304 2.223 . S
O312 C311 1.315 . S
O313 Cd303 2.240 . S
O313 C311 1.279 . S
O314 Cd304 2.297 . S
O314 C309 1.247 . S
O315 Cd304 2.439 . S
O315 C309 1.208 . S
O316 Cd317 2.223 . S
O316 C324 1.315 . S
Cd317 O316 2.223 . S
Cd317 O320 2.297 . S
Cd317 O321 2.439 . S
Cd317 O327 2.240 . S
Cd318 O319 2.240 . S
Cd318 O326 2.223 . S
Cd318 O328 2.297 . S
Cd318 O329 2.439 . S
O319 Cd318 2.240 . S
O319 C324 1.279 . S
O320 Cd317 2.297 . S
O320 C322 1.247 . S
O321 Cd317 2.439 . S
O321 C322 1.208 . S
C322 O320 1.247 . S
C322 O321 1.208 . S
C323 O328 1.247 . S
C323 O329 1.208 . S
C324 O316 1.315 . S
C324 O319 1.279 . S
C325 O326 1.315 . S
C325 O327 1.279 . S
O326 Cd318 2.223 . S
O326 C325 1.315 . S
O327 Cd317 2.240 . S
O327 C325 1.279 . S
O328 Cd318 2.297 . S
O328 C323 1.247 . S
O329 Cd318 2.439 . S
O329 C323 1.208 . S
O330 Cd331 2.223 . S
O330 C338 1.315 . S
Cd331 O330 2.223 . S
Cd331 O334 2.297 . S
Cd331 O335 2.439 . S
Cd331 O341 2.240 . S
Cd332 O333 2.240 . S
Cd332 O340 2.223 . S
Cd332 O342 2.297 . S
Cd332 O343 2.439 . S
O333 Cd332 2.240 . S
O333 C338 1.279 . S
O334 Cd331 2.297 . S
O334 C336 1.247 . S
O335 Cd331 2.439 . S
O335 C336 1.208 . S
C336 O334 1.247 . S
C336 O335 1.208 . S
C337 O342 1.247 . S
C337 O343 1.208 . S
C338 O330 1.315 . S
C338 O333 1.279 . S
C339 O340 1.315 . S
C339 O341 1.279 . S
O340 Cd332 2.223 . S
O340 C339 1.315 . S
O341 Cd331 2.240 . S
O341 C339 1.279 . S
O342 Cd332 2.297 . S
O342 C337 1.247 . S
O343 Cd332 2.439 . S
O343 C337 1.208 . S
O344 Cd345 2.223 . S
O344 C352 1.315 . S
Cd345 O344 2.223 . S
Cd345 O348 2.297 . S
Cd345 O349 2.439 . S
Cd345 O355 2.240 . S
Cd346 O347 2.240 . S
Cd346 O354 2.223 . S
Cd346 O356 2.297 . S
Cd346 O357 2.439 . S
O347 Cd346 2.240 . S
O347 C352 1.279 . S
O348 Cd345 2.297 . S
O348 C350 1.247 . S
O349 Cd345 2.439 . S
O349 C350 1.208 . S
C350 O348 1.247 . S
C350 O349 1.208 . S
C351 O356 1.247 . S
C351 O357 1.208 . S
C352 O344 1.315 . S
C352 O347 1.279 . S
C353 O354 1.315 . S
C353 O355 1.279 . S
O354 Cd346 2.223 . S
O354 C353 1.315 . S
O355 Cd345 2.240 . S
O355 C353 1.279 . S
O356 Cd346 2.297 . S
O356 C351 1.247 . S
O357 Cd346 2.439 . S
O357 C351 1.208 . S
O358 Cd359 2.223 . S
O358 C366 1.315 . S
Cd359 O358 2.223 . S
Cd359 O362 2.297 . S
Cd359 O363 2.439 . S
Cd359 O369 2.240 . S
Cd360 O361 2.240 . S
Cd360 O368 2.223 . S
Cd360 O370 2.297 . S
Cd360 O371 2.439 . S
O361 Cd360 2.240 . S
O361 C366 1.279 . S
O362 Cd359 2.297 . S
O362 C364 1.247 . S
O363 Cd359 2.439 . S
O363 C364 1.208 . S
C364 O362 1.247 . S
C364 O363 1.208 . S
C365 O370 1.247 . S
C365 O371 1.208 . S
C366 O358 1.315 . S
C366 O361 1.279 . S
C367 O368 1.315 . S
C367 O369 1.279 . S
O368 Cd360 2.223 . S
O368 C367 1.315 . S
O369 Cd359 2.240 . S
O369 C367 1.279 . S
O370 Cd360 2.297 . S
O370 C365 1.247 . S
O371 Cd360 2.439 . S
O371 C365 1.208 . S
C372 C373 1.363 . S
C372 C378 1.379 . S
C372 N380 1.356 . S
C373 C372 1.363 . S
C373 C379 1.363 . S
C374 C375 1.363 . S
C374 C379 1.379 . S
C374 N381 1.356 . S
C375 C374 1.363 . S
C375 C378 1.363 . S
N376 C378 1.356 . S
N376 H388 0.984 . S
N376 H389 0.985 . S
N377 C379 1.356 . S
N377 H382 0.984 . S
N377 H383 0.985 . S
C378 C372 1.379 . S
C378 C375 1.363 . S
C378 N376 1.356 . S
C379 C373 1.363 . S
C379 C374 1.379 . S
C379 N377 1.356 . S
N380 C372 1.356 . S
N380 H386 0.984 . S
N380 H387 0.984 . S
N381 C374 1.356 . S
N381 H384 0.984 . S
N381 H385 0.985 . S
H382 N377 0.984 . S
H383 N377 0.985 . S
H384 N381 0.984 . S
H385 N381 0.985 . S
H386 N380 0.984 . S
H387 N380 0.984 . S
H388 N376 0.984 . S
H389 N376 0.985 . S
C390 C391 1.363 . S
C390 C396 1.379 . S
C390 N398 1.356 . S
C391 C390 1.363 . S
C391 C397 1.363 . S
C392 C393 1.363 . S
C392 C397 1.379 . S
C392 N399 1.356 . S
C393 C392 1.363 . S
C393 C396 1.363 . S
N394 C396 1.356 . S
N394 H406 0.984 . S
N394 H407 0.985 . S
N395 C397 1.356 . S
N395 H400 0.984 . S
N395 H401 0.985 . S
C396 C390 1.379 . S
C396 C393 1.363 . S
C396 N394 1.356 . S
C397 C391 1.363 . S
C397 C392 1.379 . S
C397 N395 1.356 . S
N398 C390 1.356 . S
N398 H404 0.984 . S
N398 H405 0.984 . S
N399 C392 1.356 . S
N399 H402 0.984 . S
N399 H403 0.985 . S
H400 N395 0.984 . S
H401 N395 0.985 . S
H402 N399 0.984 . S
H403 N399 0.985 . S
H404 N398 0.984 . S
H405 N398 0.984 . S
H406 N394 0.984 . S
H407 N394 0.985 . S
C408 C409 1.363 . S
C408 C414 1.379 . S
C408 N416 1.356 . S
C409 C408 1.363 . S
C409 C415 1.363 . S
C410 C411 1.363 . S
C410 C415 1.379 . S
C410 N417 1.356 . S
C411 C410 1.363 . S
C411 C414 1.363 . S
N412 C414 1.356 . S
N412 H424 0.984 . S
N412 H425 0.985 . S
N413 C415 1.356 . S
N413 H418 0.984 . S
N413 H419 0.985 . S
C414 C408 1.379 . S
C414 C411 1.363 . S
C414 N412 1.356 . S
C415 C409 1.363 . S
C415 C410 1.379 . S
C415 N413 1.356 . S
N416 C408 1.356 . S
N416 H422 0.984 . S
N416 H423 0.984 . S
N417 C410 1.356 . S
N417 H420 0.984 . S
N417 H421 0.985 . S
H418 N413 0.984 . S
H419 N413 0.985 . S
H420 N417 0.984 . S
H421 N417 0.985 . S
H422 N416 0.984 . S
H423 N416 0.984 . S
H424 N412 0.984 . S
H425 N412 0.985 . S
C426 C427 1.363 . S
C426 C432 1.379 . S
C426 N434 1.356 . S
C427 C426 1.363 . S
C427 C433 1.363 . S
C428 C429 1.363 . S
C428 C433 1.379 . S
C428 N435 1.356 . S
C429 C428 1.363 . S
C429 C432 1.363 . S
N430 C432 1.356 . S
N430 H442 0.984 . S
N430 H443 0.985 . S
N431 C433 1.356 . S
N431 H436 0.984 . S
N431 H437 0.985 . S
C432 C426 1.379 . S
C432 C429 1.363 . S
C432 N430 1.356 . S
C433 C427 1.363 . S
C433 C428 1.379 . S
C433 N431 1.356 . S
N434 C426 1.356 . S
N434 H440 0.984 . S
N434 H441 0.984 . S
N435 C428 1.356 . S
N435 H438 0.984 . S
N435 H439 0.985 . S
H436 N431 0.984 . S
H437 N431 0.985 . S
H438 N435 0.984 . S
H439 N435 0.985 . S
H440 N434 0.984 . S
H441 N434 0.984 . S
H442 N430 0.984 . S
H443 N430 0.985 . S
C444 C445 1.363 . S
C444 C450 1.379 . S
C444 N452 1.356 . S
C445 C444 1.363 . S
C445 C451 1.363 . S
C446 C447 1.363 . S
C446 C451 1.379 . S
C446 N453 1.356 . S
C447 C446 1.363 . S
C447 C450 1.363 . S
N448 C450 1.356 . S
N448 H460 0.984 . S
N448 H461 0.985 . S
N449 C451 1.356 . S
N449 H454 0.984 . S
N449 H455 0.985 1_556 S
C450 C444 1.379 . S
C450 C447 1.363 . S
C450 N448 1.356 . S
C451 C445 1.363 . S
C451 C446 1.379 . S
C451 N449 1.356 . S
N452 C444 1.356 . S
N452 H458 0.984 . S
N452 H459 0.984 . S
N453 C446 1.356 . S
N453 H456 0.984 . S
N453 H457 0.963 1_556 S
H454 N449 0.984 . S
H455 N449 0.985 1_554 S
H456 N453 0.984 . S
H457 N453 0.963 1_554 S
H458 N452 0.984 . S
H459 N452 0.984 . S
H460 N448 0.984 . S
H461 N448 0.985 . S
C462 C463 1.363 . S
C462 C468 1.379 . S
C462 N470 1.356 . S
C463 C462 1.363 . S
C463 C469 1.363 . S
C464 C465 1.363 . S
C464 C469 1.379 . S
C464 N471 1.356 . S
C465 C464 1.363 . S
C465 C468 1.363 . S
N466 C468 1.356 . S
N466 H478 0.984 . S
N466 H479 0.985 . S
N467 C469 1.356 . S
N467 H472 0.984 . S
N467 H473 0.985 . S
C468 C462 1.379 . S
C468 C465 1.363 . S
C468 N466 1.356 . S
C469 C463 1.363 . S
C469 C464 1.379 . S
C469 N467 1.356 . S
N470 C462 1.356 . S
N470 H476 0.984 . S
N470 H477 0.984 . S
N471 C464 1.356 . S
N471 H474 0.984 . S
N471 H475 0.985 . S
H472 N467 0.984 . S
H473 N467 0.985 . S
H474 N471 0.984 . S
H475 N471 0.985 . S
H476 N470 0.984 . S
H477 N470 0.984 . S
H478 N466 0.984 . S
H479 N466 0.985 . S
C480 C481 1.363 . S
C480 C486 1.379 . S
C480 N488 1.356 . S
C481 C480 1.363 . S
C481 C487 1.363 . S
C482 C483 1.363 . S
C482 C487 1.379 . S
C482 N489 1.356 . S
C483 C482 1.363 . S
C483 C486 1.363 . S
N484 C486 1.356 . S
N484 H496 0.984 . S
N484 H497 0.985 . S
N485 C487 1.356 . S
N485 H490 0.984 . S
N485 H491 0.985 . S
C486 C480 1.379 . S
C486 C483 1.363 . S
C486 N484 1.356 . S
C487 C481 1.363 . S
C487 C482 1.379 . S
C487 N485 1.356 . S
N488 C480 1.356 . S
N488 H494 0.984 . S
N488 H495 0.984 . S
N489 C482 1.356 . S
N489 H492 0.984 . S
N489 H493 0.985 . S
H490 N485 0.984 . S
H491 N485 0.985 . S
H492 N489 0.984 . S
H493 N489 0.985 . S
H494 N488 0.984 . S
H495 N488 0.984 . S
H496 N484 0.984 . S
H497 N484 0.985 . S
C498 C499 1.363 . S
C498 C504 1.379 . S
C498 N506 1.356 . S
C499 C498 1.363 . S
C499 C505 1.363 . S
C500 C501 1.363 . S
C500 C505 1.379 . S
C500 N507 1.356 . S
C501 C500 1.363 . S
C501 C504 1.363 . S
N502 C504 1.356 . S
N502 H514 0.984 . S
N502 H515 0.985 . S
N503 C505 1.356 . S
N503 H508 0.984 . S
N503 H509 0.985 . S
C504 C498 1.379 . S
C504 C501 1.363 . S
C504 N502 1.356 . S
C505 C499 1.363 . S
C505 C500 1.379 . S
C505 N503 1.356 . S
N506 C498 1.356 . S
N506 H512 0.984 . S
N506 H513 0.984 . S
N507 C500 1.356 . S
N507 H510 0.984 . S
N507 H511 0.985 . S
H508 N503 0.984 . S
H509 N503 0.985 . S
H510 N507 0.984 . S
H511 N507 0.985 . S
H512 N506 0.984 . S
H513 N506 0.984 . S
H514 N502 0.984 . S
H515 N502 0.985 . S
C516 C517 1.363 . S
C516 C522 1.379 . S
C516 N524 1.356 . S
C517 C516 1.363 . S
C517 C523 1.363 . S
C518 C519 1.363 . S
C518 C523 1.379 . S
C518 N525 1.356 . S
C519 C518 1.363 . S
C519 C522 1.363 . S
N520 C522 1.356 . S
N520 H532 0.984 . S
N520 H533 0.985 . S
N521 C523 1.356 . S
N521 H526 0.984 . S
N521 H527 0.985 . S
C522 C516 1.379 . S
C522 C519 1.363 . S
C522 N520 1.356 . S
C523 C517 1.363 . S
C523 C518 1.379 . S
C523 N521 1.356 . S
N524 C516 1.356 . S
N524 H530 0.984 . S
N524 H531 0.984 . S
N525 C518 1.356 . S
N525 H528 0.984 . S
N525 H529 0.985 . S
H526 N521 0.984 . S
H527 N521 0.985 . S
H528 N525 0.984 . S
H529 N525 0.985 . S
H530 N524 0.984 . S
H531 N524 0.984 . S
H532 N520 0.984 . S
H533 N520 0.985 . S
C534 C535 1.363 . S
C534 C540 1.379 . S
C534 N542 1.374 . S
C535 C534 1.363 . S
C535 C541 1.363 . S
C536 C537 1.363 . S
C536 C541 1.379 . S
C536 N543 1.356 . S
C537 C536 1.363 . S
C537 C540 1.363 . S
N538 C540 1.356 . S
N538 H550 0.984 1_554 S
N538 H551 0.985 . S
N539 C541 1.356 . S
N539 H544 0.984 . S
N539 H545 0.985 . S
C540 C534 1.379 . S
C540 C537 1.363 . S
C540 N538 1.356 . S
C541 C535 1.363 . S
C541 C536 1.379 . S
C541 N539 1.356 . S
N542 C534 1.374 . S
N542 H548 0.964 1_554 S
N542 H549 0.988 . S
N543 C536 1.356 . S
N543 H546 0.984 . S
N543 H547 0.985 . S
H544 N539 0.984 . S
H545 N539 0.985 . S
H546 N543 0.984 . S
H547 N543 0.985 . S
H548 N542 0.964 1_556 S
H549 N542 0.988 . S
H550 N538 0.984 1_556 S
H551 N538 0.985 . S
C552 C553 1.363 . S
C552 C558 1.379 . S
C552 N560 1.356 . S
C553 C552 1.363 . S
C553 C559 1.363 . S
C554 C555 1.363 . S
C554 C559 1.379 . S
C554 N561 1.356 . S
C555 C554 1.363 . S
C555 C558 1.363 . S
N556 C558 1.356 . S
N556 H568 0.984 . S
N556 H569 0.985 . S
N557 C559 1.356 . S
N557 H562 0.984 . S
N557 H563 0.985 . S
C558 C552 1.379 . S
C558 C555 1.363 . S
C558 N556 1.356 . S
C559 C553 1.363 . S
C559 C554 1.379 . S
C559 N557 1.356 . S
N560 C552 1.356 . S
N560 H566 0.984 . S
N560 H567 0.984 . S
N561 C554 1.356 . S
N561 H564 0.984 . S
N561 H565 0.985 . S
H562 N557 0.984 . S
H563 N557 0.985 . S
H564 N561 0.984 . S
H565 N561 0.985 . S
H566 N560 0.984 . S
H567 N560 0.984 . S
H568 N556 0.984 . S
H569 N556 0.985 . S
C570 C571 1.363 . S
C570 C576 1.379 . S
C570 N578 1.356 . S
C571 C570 1.363 . S
C571 C577 1.363 . S
C572 C573 1.363 . S
C572 C577 1.379 . S
C572 N579 1.356 . S
C573 C572 1.363 . S
C573 C576 1.363 . S
N574 C576 1.356 . S
N574 H586 0.984 . S
N574 H587 0.985 . S
N575 C577 1.356 . S
N575 H580 0.984 . S
N575 H581 0.985 . S
C576 C570 1.379 . S
C576 C573 1.363 . S
C576 N574 1.356 . S
C577 C571 1.363 . S
C577 C572 1.379 . S
C577 N575 1.356 . S
N578 C570 1.356 . S
N578 H584 0.984 . S
N578 H585 0.984 . S
N579 C572 1.356 . S
N579 H582 0.984 . S
N579 H583 0.985 . S
H580 N575 0.984 . S
H581 N575 0.985 . S
H582 N579 0.984 . S
H583 N579 0.985 . S
H584 N578 0.984 . S
H585 N578 0.984 . S
H586 N574 0.984 . S
H587 N574 0.985 . S
C588 C589 1.363 . S
C588 C594 1.379 . S
C588 N596 1.356 . S
C589 C588 1.363 . S
C589 C595 1.363 . S
C590 C591 1.363 . S
C590 C595 1.379 . S
C590 N597 1.356 . S
C591 C590 1.363 . S
C591 C594 1.363 . S
N592 C594 1.356 . S
N592 H604 0.984 . S
N592 H605 0.985 . S
N593 C595 1.356 . S
N593 H598 0.984 . S
N593 H599 0.985 . S
C594 C588 1.379 . S
C594 C591 1.363 . S
C594 N592 1.356 . S
C595 C589 1.363 . S
C595 C590 1.379 . S
C595 N593 1.356 . S
N596 C588 1.356 . S
N596 H602 0.984 . S
N596 H603 0.984 . S
N597 C590 1.356 . S
N597 H600 0.984 . S
N597 H601 0.985 . S
H598 N593 0.984 . S
H599 N593 0.985 . S
H600 N597 0.984 . S
H601 N597 0.985 . S
H602 N596 0.984 . S
H603 N596 0.984 . S
H604 N592 0.984 . S
H605 N592 0.985 . S
C606 C607 1.363 . S
C606 C612 1.379 . S
C606 N614 1.356 . S
C607 C606 1.363 . S
C607 C613 1.363 . S
C608 C609 1.363 . S
C608 C613 1.379 . S
C608 N615 1.356 . S
C609 C608 1.363 . S
C609 C612 1.363 . S
N610 C612 1.356 . S
N610 H622 0.984 . S
N610 H623 0.985 . S
N611 C613 1.356 . S
N611 H616 0.984 . S
N611 H617 0.985 . S
C612 C606 1.379 . S
C612 C609 1.363 . S
C612 N610 1.356 . S
C613 C607 1.363 . S
C613 C608 1.379 . S
C613 N611 1.356 . S
N614 C606 1.356 . S
N614 H620 0.984 . S
N614 H621 0.984 . S
N615 C608 1.356 . S
N615 H618 0.984 . S
N615 H619 0.985 . S
H616 N611 0.984 . S
H617 N611 0.985 . S
H618 N615 0.984 . S
H619 N615 0.985 . S
H620 N614 0.984 . S
H621 N614 0.984 . S
H622 N610 0.984 . S
H623 N610 0.985 . S
C624 C625 1.363 . S
C624 C630 1.379 . S
C624 N632 1.356 . S
C625 C624 1.363 . S
C625 C631 1.363 . S
C626 C627 1.363 . S
C626 C631 1.379 . S
C626 N633 1.356 . S
C627 C626 1.363 . S
C627 C630 1.363 . S
N628 C630 1.356 . S
N628 H640 0.984 . S
N628 H641 0.985 . S
N629 C631 1.356 . S
N629 H634 0.984 . S
N629 H635 0.985 . S
C630 C624 1.379 . S
C630 C627 1.363 . S
C630 N628 1.356 . S
C631 C625 1.363 . S
C631 C626 1.379 . S
C631 N629 1.356 . S
N632 C624 1.356 . S
N632 H638 0.984 . S
N632 H639 0.984 . S
N633 C626 1.356 . S
N633 H636 0.984 . S
N633 H637 0.985 . S
H634 N629 0.984 . S
H635 N629 0.985 . S
H636 N633 0.984 . S
H637 N633 0.985 . S
H638 N632 0.984 . S
H639 N632 0.984 . S
H640 N628 0.984 . S
H641 N628 0.985 . S
C642 C643 1.363 . S
C642 C648 1.379 . S
C642 N650 1.356 . S
C643 C642 1.363 . S
C643 C649 1.363 . S
C644 C645 1.363 . S
C644 C649 1.379 1_554 S
C644 N651 1.356 . S
C645 C644 1.363 . S
C645 C648 1.363 1_554 S
N646 C648 1.354 1_554 S
N646 H658 0.982 1_554 S
N646 H659 0.989 . S
N647 C649 1.356 . S
N647 H652 0.984 . S
N647 H653 0.985 . S
C648 C642 1.379 . S
C648 C645 1.363 1_556 S
C648 N646 1.354 1_556 S
C649 C643 1.363 . S
C649 C644 1.379 1_556 S
C649 N647 1.356 . S
N650 C642 1.356 . S
N650 H656 0.984 . S
N650 H657 0.984 . S
N651 C644 1.356 . S
N651 H654 0.984 . S
N651 H655 0.985 . S
H652 N647 0.984 . S
H653 N647 0.985 . S
H654 N651 0.984 . S
H655 N651 0.985 . S
H656 N650 0.984 . S
H657 N650 0.984 . S
H658 N646 0.982 1_556 S
H659 N646 0.989 . S
C660 C661 1.363 . S
C660 C666 1.379 . S
C660 N668 1.356 . S
C661 C660 1.363 . S
C661 C667 1.363 . S
C662 C663 1.363 . S
C662 C667 1.379 . S
C662 N669 1.356 . S
C663 C662 1.363 . S
C663 C666 1.363 . S
N664 C666 1.356 . S
N664 H676 0.984 . S
N664 H677 0.985 . S
N665 C667 1.356 . S
N665 H670 0.984 . S
N665 H671 0.985 . S
C666 C660 1.379 . S
C666 C663 1.363 . S
C666 N664 1.356 . S
C667 C661 1.363 . S
C667 C662 1.379 . S
C667 N665 1.356 . S
N668 C660 1.356 . S
N668 H674 0.984 . S
N668 H675 0.984 . S
N669 C662 1.356 . S
N669 H672 0.984 . S
N669 H673 0.985 . S
H670 N665 0.984 . S
H671 N665 0.985 . S
H672 N669 0.984 . S
H673 N669 0.985 . S
H674 N668 0.984 . S
H675 N668 0.984 . S
H676 N664 0.984 . S
H677 N664 0.985 . S
C678 C679 1.363 . S
C678 C684 1.379 . S
C678 N686 1.356 . S
C679 C678 1.363 . S
C679 C685 1.363 . S
C680 C681 1.363 . S
C680 C685 1.379 . S
C680 N687 1.356 . S
C681 C680 1.363 . S
C681 C684 1.363 . S
N682 C684 1.356 . S
N682 H694 0.984 . S
N682 H695 0.985 . S
N683 C685 1.356 . S
N683 H688 0.984 . S
N683 H689 0.985 . S
C684 C678 1.379 . S
C684 C681 1.363 . S
C684 N682 1.356 . S
C685 C679 1.363 . S
C685 C680 1.379 . S
C685 N683 1.356 . S
N686 C678 1.356 . S
N686 H692 0.984 . S
N686 H693 0.984 . S
N687 C680 1.356 . S
N687 H690 0.984 . S
N687 H691 0.985 . S
H688 N683 0.984 . S
H689 N683 0.985 . S
H690 N687 0.984 . S
H691 N687 0.985 . S
H692 N686 0.984 . S
H693 N686 0.984 . S
H694 N682 0.984 . S
H695 N682 0.985 . S
C696 C697 1.363 . S
C696 C702 1.379 . S
C696 N704 1.356 . S
C697 C696 1.363 . S
C697 C703 1.363 . S
C698 C699 1.363 . S
C698 C703 1.379 . S
C698 N705 1.356 . S
C699 C698 1.363 . S
C699 C702 1.363 . S
N700 C702 1.356 . S
N700 H712 0.984 . S
N700 H713 0.985 . S
N701 C703 1.356 . S
N701 H706 0.984 . S
N701 H707 0.985 . S
C702 C696 1.379 . S
C702 C699 1.363 . S
C702 N700 1.356 . S
C703 C697 1.363 . S
C703 C698 1.379 . S
C703 N701 1.356 . S
N704 C696 1.356 . S
N704 H710 0.984 . S
N704 H711 0.984 . S
N705 C698 1.356 . S
N705 H708 0.984 . S
N705 H709 0.985 . S
H706 N701 0.984 . S
H707 N701 0.985 . S
H708 N705 0.984 . S
H709 N705 0.985 . S
H710 N704 0.984 . S
H711 N704 0.984 . S
H712 N700 0.984 . S
H713 N700 0.985 . S
C714 C715 1.363 . S
C714 C720 1.379 . S
C714 N722 1.356 . S
C715 C714 1.363 . S
C715 C721 1.363 . S
C716 C717 1.363 . S
C716 C721 1.379 . S
C716 N723 1.356 . S
C717 C716 1.363 . S
C717 C720 1.363 . S
N718 C720 1.356 . S
N718 H730 0.984 . S
N718 H731 0.985 . S
N719 C721 1.356 . S
N719 H724 0.984 . S
N719 H725 0.985 . S
C720 C714 1.379 . S
C720 C717 1.363 . S
C720 N718 1.356 . S
C721 C715 1.363 . S
C721 C716 1.379 . S
C721 N719 1.356 . S
N722 C714 1.356 . S
N722 H728 0.984 . S
N722 H729 0.984 . S
N723 C716 1.356 . S
N723 H726 0.984 . S
N723 H727 0.985 . S
H724 N719 0.984 . S
H725 N719 0.985 . S
H726 N723 0.984 . S
H727 N723 0.985 . S
H728 N722 0.984 . S
H729 N722 0.984 . S
H730 N718 0.984 . S
H731 N718 0.985 . S
C732 C733 1.363 . S
C732 C738 1.379 . S
C732 N740 1.356 . S
C733 C732 1.363 . S
C733 C739 1.363 . S
C734 C735 1.363 . S
C734 C739 1.379 . S
C734 N741 1.356 . S
C735 C734 1.363 . S
C735 C738 1.363 . S
N736 C738 1.356 . S
N736 H748 0.984 . S
N736 H749 0.985 . S
N737 C739 1.356 . S
N737 H742 0.984 . S
N737 H743 0.985 . S
C738 C732 1.379 . S
C738 C735 1.363 . S
C738 N736 1.356 . S
C739 C733 1.363 . S
C739 C734 1.379 . S
C739 N737 1.356 . S
N740 C732 1.356 . S
N740 H746 0.984 . S
N740 H747 0.984 . S
N741 C734 1.356 . S
N741 H744 0.984 . S
N741 H745 0.985 . S
H742 N737 0.984 . S
H743 N737 0.985 . S
H744 N741 0.984 . S
H745 N741 0.985 . S
H746 N740 0.984 . S
H747 N740 0.984 . S
H748 N736 0.984 . S
H749 N736 0.985 . S
C750 C751 1.363 . S
C750 C756 1.379 . S
C750 N758 1.356 . S
C751 C750 1.363 . S
C751 C757 1.363 . S
C752 C753 1.363 . S
C752 C757 1.379 . S
C752 N759 1.356 . S
C753 C752 1.363 . S
C753 C756 1.363 . S
N754 C756 1.356 . S
N754 H766 0.984 . S
N754 H767 0.985 . S
N755 C757 1.356 . S
N755 H760 0.984 . S
N755 H761 0.985 . S
C756 C750 1.379 . S
C756 C753 1.363 . S
C756 N754 1.356 . S
C757 C751 1.363 . S
C757 C752 1.379 . S
C757 N755 1.356 . S
N758 C750 1.356 . S
N758 H764 0.984 . S
N758 H765 0.984 . S
N759 C752 1.356 . S
N759 H762 0.984 . S
N759 H763 0.985 . S
H760 N755 0.984 . S
H761 N755 0.985 . S
H762 N759 0.984 . S
H763 N759 0.985 . S
H764 N758 0.984 . S
H765 N758 0.984 . S
H766 N754 0.984 . S
H767 N754 0.985 . S
C768 C769 1.363 . S
C768 C774 1.376 1_554 S
C768 N776 1.356 . S
C769 C768 1.363 . S
C769 C775 1.364 1_554 S
C770 C771 1.363 . S
C770 C775 1.378 . S
C770 N777 1.356 . S
C771 C770 1.363 . S
C771 C774 1.366 . S
N772 C774 1.357 . S
N772 H784 0.984 1_556 S
N772 H785 0.985 . S
N773 C775 1.356 1_554 S
N773 H778 0.984 . S
N773 H779 0.985 1_554 S
C774 C768 1.376 1_556 S
C774 C771 1.366 . S
C774 N772 1.357 . S
C775 C769 1.364 1_556 S
C775 C770 1.378 . S
C775 N773 1.356 1_556 S
N776 C768 1.356 . S
N776 H782 0.984 . S
N776 H783 0.984 . S
N777 C770 1.356 . S
N777 H780 0.984 . S
N777 H781 0.985 . S
H778 N773 0.984 . S
H779 N773 0.985 1_556 S
H780 N777 0.984 . S
H781 N777 0.985 . S
H782 N776 0.984 . S
H783 N776 0.984 . S
H784 N772 0.984 1_554 S
H785 N772 0.985 . S
C786 C787 1.363 . S
C786 C792 1.379 . S
C786 N794 1.356 . S
C787 C786 1.363 . S
C787 C793 1.363 . S
C788 C789 1.363 . S
C788 C793 1.379 . S
C788 N795 1.356 . S
C789 C788 1.363 . S
C789 C792 1.363 . S
N790 C792 1.356 . S
N790 H802 0.984 . S
N790 H803 0.985 . S
N791 C793 1.356 . S
N791 H796 0.984 . S
N791 H797 0.985 . S
C792 C786 1.379 . S
C792 C789 1.363 . S
C792 N790 1.356 . S
C793 C787 1.363 . S
C793 C788 1.379 . S
C793 N791 1.356 . S
N794 C786 1.356 . S
N794 H800 0.984 . S
N794 H801 0.984 . S
N795 C788 1.356 . S
N795 H798 0.984 . S
N795 H799 0.985 . S
H796 N791 0.984 . S
H797 N791 0.985 . S
H798 N795 0.984 . S
H799 N795 0.985 . S
H800 N794 0.984 . S
H801 N794 0.984 . S
H802 N790 0.984 . S
H803 N790 0.985 . S
C375 C365 1.491 . S
C373 C45 1.521 . S
C391 C84 1.512 . S
C393 C294 1.493 . S
C409 C126 1.500 . S
C411 C308 1.493 . S
C427 C189 1.521 . S
C429 C322 1.491 . S
C447 C336 1.493 . S
C445 C228 1.512 . S
C463 C270 1.500 . S
C465 C351 1.493 . S
C481 C69 1.504 . S
C483 C309 1.493 . S
C499 C141 1.521 . S
C501 C323 1.491 . S
C517 C174 1.500 . S
C519 C337 1.493 . S
C537 C350 1.493 . S
C535 C213 1.504 . S
C555 C364 1.491 . S
C553 C285 1.521 . S
C573 C295 1.493 . S
C571 C30 1.500 . S
C589 C36 1.571 . S
C591 C311 1.539 . S
C607 C93 1.579 . S
C609 C325 1.536 . S
C627 C339 1.537 . S
C625 C117 1.556 . S
C643 C180 1.571 . S
C645 C352 1.538 . S
C663 C366 1.536 . S
C661 C237 1.579 . S
C681 C297 1.537 . S
C679 C261 1.556 . S
C699 C367 1.536 . S
C697 C78 1.541 . S
C715 C132 1.571 . S
C717 C296 1.538 . S
C735 C310 1.537 . S
C733 C165 1.556 . S
C751 C222 1.541 . S
C753 C324 1.536 . S
C769 C276 1.571 . S
C771 C338 1.538 . S
C787 C21 1.556 . S
C789 C353 1.537 . S
