# Generated by pormake.
# Topology hwx, (6,3)-cn, num edge types: 1
# Building blocks:
#     Node 0, Type 0, BuildingBlock: IZENUY_clean_sbu_0, # of connection points: 6
#     Node 1, Type 0, BuildingBlock: IZENUY_clean_sbu_0, # of connection points: 6
#     Node 2, Type 0, BuildingBlock: IZENUY_clean_sbu_0, # of connection points: 6
#     Node 3, Type 0, BuildingBlock: IZENUY_clean_sbu_0, # of connection points: 6
#     Node 4, Type 1, BuildingBlock: ESEHIV_clean_linker_0, # of connection points: 3
#     Node 5, Type 1, BuildingBlock: ESEHIV_clean_linker_0, # of connection points: 3
#     Node 6, Type 1, BuildingBlock: ESEHIV_clean_linker_0, # of connection points: 3
#     Node 7, Type 1, BuildingBlock: ESEHIV_clean_linker_0, # of connection points: 3
#     Node 8, Type 1, BuildingBlock: ESEHIV_clean_linker_0, # of connection points: 3
#     Node 9, Type 1, BuildingBlock: ESEHIV_clean_linker_0, # of connection points: 3
#     Node 10, Type 1, BuildingBlock: ESEHIV_clean_linker_0, # of connection points: 3
#     Node 11, Type 1, BuildingBlock: ESEHIV_clean_linker_0, # of connection points: 3
#     Edge 12, Type (0, 1), BuildingBlock: XUDNAN_clean_linker_2, # of connection points: 2
#     Edge 13, Type (0, 1), BuildingBlock: XUDNAN_clean_linker_2, # of connection points: 2
#     Edge 14, Type (0, 1), BuildingBlock: XUDNAN_clean_linker_2, # of connection points: 2
#     Edge 15, Type (0, 1), BuildingBlock: XUDNAN_clean_linker_2, # of connection points: 2
#     Edge 16, Type (0, 1), BuildingBlock: XUDNAN_clean_linker_2, # of connection points: 2
#     Edge 17, Type (0, 1), BuildingBlock: XUDNAN_clean_linker_2, # of connection points: 2
#     Edge 18, Type (0, 1), BuildingBlock: XUDNAN_clean_linker_2, # of connection points: 2
#     Edge 19, Type (0, 1), BuildingBlock: XUDNAN_clean_linker_2, # of connection points: 2
#     Edge 20, Type (0, 1), BuildingBlock: XUDNAN_clean_linker_2, # of connection points: 2
#     Edge 21, Type (0, 1), BuildingBlock: XUDNAN_clean_linker_2, # of connection points: 2
#     Edge 22, Type (0, 1), BuildingBlock: XUDNAN_clean_linker_2, # of connection points: 2
#     Edge 23, Type (0, 1), BuildingBlock: XUDNAN_clean_linker_2, # of connection points: 2
#     Edge 24, Type (0, 1), BuildingBlock: XUDNAN_clean_linker_2, # of connection points: 2
#     Edge 25, Type (0, 1), BuildingBlock: XUDNAN_clean_linker_2, # of connection points: 2
#     Edge 26, Type (0, 1), BuildingBlock: XUDNAN_clean_linker_2, # of connection points: 2
#     Edge 27, Type (0, 1), BuildingBlock: XUDNAN_clean_linker_2, # of connection points: 2
#     Edge 28, Type (0, 1), BuildingBlock: XUDNAN_clean_linker_2, # of connection points: 2
#     Edge 29, Type (0, 1), BuildingBlock: XUDNAN_clean_linker_2, # of connection points: 2
#     Edge 30, Type (0, 1), BuildingBlock: XUDNAN_clean_linker_2, # of connection points: 2
#     Edge 31, Type (0, 1), BuildingBlock: XUDNAN_clean_linker_2, # of connection points: 2
#     Edge 32, Type (0, 1), BuildingBlock: XUDNAN_clean_linker_2, # of connection points: 2
#     Edge 33, Type (0, 1), BuildingBlock: XUDNAN_clean_linker_2, # of connection points: 2
#     Edge 34, Type (0, 1), BuildingBlock: XUDNAN_clean_linker_2, # of connection points: 2
#     Edge 35, Type (0, 1), BuildingBlock: XUDNAN_clean_linker_2, # of connection points: 2
# Relax obj value: 0.051
# Max RMSD: 0.076
# Mean RMSD: 0.067
data_MOF--net-hwx--node1-IZENUY_clean_sbu_0--node2-ESEHIV_clean_linker_0--edge1-XUDNAN_clean_linker_2
_symmetry_space_group_name_H-M    P1
_symmetry_Int_Tables_number       1
_symmetry_cell_setting            triclinic
loop_
_symmetry_equiv_pos_as_xyz
'x, y, z'
_cell_length_a     44.831524
_cell_length_b     44.739059
_cell_length_c     21.697814
_cell_angle_alpha  90.038684
_cell_angle_beta   90.066244
_cell_angle_gamma 89.967932
loop_
_atom_site_label
_atom_site_type_symbol
_atom_site_fract_x
_atom_site_fract_y
_atom_site_fract_z
_atom_type_partial_charge
Fe0 Fe 0.23599 0.21781 0.06461 0.0
Fe1 Fe 0.23586 0.20891 0.92482 0.0
O2 O 0.22535 0.19663 0.9992 0.0
Fe3 Fe 0.20422 0.16359 0.00871 0.0
O4 O 0.17434 0.18385 0.0466 0.0
O5 O 0.2034 0.20762 0.11146 0.0
O6 O 0.21474 0.24943 0.03753 0.0
C7 C 0.21865 0.26187 0.98613 0.0
C8 C 0.24667 0.16168 0.10661 0.0
O9 O 0.2337 0.24916 0.94409 0.0
C10 C 0.24196 0.14558 0.9172 0.0
O11 O 0.27093 0.23199 0.03073 0.0
O12 O 0.27489 0.20651 0.94487 0.0
O13 O 0.22216 0.15334 0.08251 0.0
O14 O 0.25744 0.18706 0.09488 0.0
C15 C 0.17882 0.19057 0.90211 0.0
O16 O 0.23961 0.17111 0.89231 0.0
O17 O 0.2322 0.14091 0.97081 0.0
C18 C 0.28684 0.22036 0.98894 0.0
O19 O 0.19746 0.21163 0.8999 0.0
O20 O 0.18298 0.16815 0.93683 0.0
C21 C 0.17776 0.1992 0.09464 0.0
Fe22 Fe 0.26417 0.71752 0.55665 0.0
Fe23 Fe 0.29647 0.66224 0.50558 0.0
O24 O 0.27444 0.69469 0.49354 0.0
Fe25 Fe 0.26289 0.70459 0.41825 0.0
O26 O 0.28228 0.74019 0.42214 0.0
O27 O 0.2647 0.75258 0.51319 0.0
O28 O 0.3028 0.72481 0.57479 0.0
C29 C 0.32185 0.70497 0.58679 0.0
C30 C 0.21259 0.71956 0.49149 0.0
O31 O 0.31784 0.67805 0.57051 0.0
C32 C 0.25442 0.64427 0.41448 0.0
O33 O 0.2626 0.68676 0.61227 0.0
O34 O 0.26894 0.64608 0.55721 0.0
O35 O 0.22798 0.72185 0.44293 0.0
O36 O 0.22453 0.712 0.54186 0.0
C37 C 0.32177 0.68422 0.40004 0.0
O38 O 0.27891 0.64078 0.44297 0.0
O39 O 0.24274 0.66981 0.40926 0.0
C40 C 0.26075 0.65869 0.60632 0.0
O41 O 0.32576 0.67611 0.45511 0.0
O42 O 0.29581 0.68934 0.37986 0.0
C43 C 0.27789 0.75944 0.46369 0.0
Fe44 Fe 0.764 0.79121 0.92863 0.0
Fe45 Fe 0.76003 0.80203 0.06735 0.0
O46 O 0.7735 0.81281 0.99404 0.0
Fe47 Fe 0.79635 0.84475 0.98552 0.0
O48 O 0.77025 0.86209 0.93203 0.0
O49 O 0.76572 0.82238 0.87382 0.0
O50 O 0.72491 0.79975 0.93935 0.0
C51 C 0.71081 0.79392 0.98817 0.0
C52 C 0.82264 0.8015 0.90621 0.0
O53 O 0.72448 0.7873 0.03751 0.0
C54 C 0.8191 0.82109 0.09227 0.0
O55 O 0.76074 0.75555 0.97027 0.0
O56 O 0.77844 0.76605 0.06175 0.0
O57 O 0.81869 0.82851 0.92243 0.0
O58 O 0.80276 0.78202 0.91519 0.0
C59 C 0.75333 0.86266 0.07471 0.0
O60 O 0.7929 0.81499 0.10988 0.0
O61 O 0.8241 0.82998 0.03813 0.0
C62 C 0.77358 0.74743 0.01941 0.0
O63 O 0.74112 0.83734 0.07823 0.0
O64 O 0.77802 0.86611 0.04716 0.0
C65 C 0.76325 0.85029 0.88135 0.0
Fe66 Fe 0.70707 0.34627 0.50734 0.0
Fe67 Fe 0.7331 0.2935 0.57998 0.0
O68 O 0.72516 0.31106 0.50879 0.0
Fe69 Fe 0.73502 0.29311 0.43923 0.0
O70 O 0.75892 0.32375 0.41753 0.0
O71 O 0.72652 0.35939 0.43744 0.0
O72 O 0.73683 0.36339 0.55145 0.0
C73 C 0.74465 0.3548 0.60429 0.0
C74 C 0.67867 0.31874 0.41138 0.0
O75 O 0.73843 0.32868 0.62288 0.0
C76 C 0.71443 0.24554 0.50483 0.0
O77 O 0.68439 0.33925 0.57716 0.0
O78 O 0.69403 0.29213 0.59865 0.0
O79 O 0.70355 0.30812 0.39449 0.0
O80 O 0.67608 0.33157 0.46286 0.0
C81 C 0.78417 0.28123 0.518 0.0
O82 O 0.72907 0.25512 0.55066 0.0
O83 O 0.7115 0.2613 0.45708 0.0
C84 C 0.67713 0.31453 0.60158 0.0
O85 O 0.77275 0.29344 0.56476 0.0
O86 O 0.76851 0.27499 0.47107 0.0
C87 C 0.75047 0.35048 0.41218 0.0
H88 H 0.22309 0.56011 0.02699 0.0
H89 H 0.21496 0.48716 0.89853 0.0
H90 H 0.19279 0.47449 0.08973 0.0
C91 C 0.2171 0.53714 0.01714 0.0
C92 C 0.20764 0.51868 0.06551 0.0
C93 C 0.22008 0.52608 0.95676 0.0
C94 C 0.21245 0.49615 0.94463 0.0
C95 C 0.20217 0.47755 0.99234 0.0
C96 C 0.19989 0.48899 0.05253 0.0
H97 H 0.91643 0.79407 0.50273 0.0
H98 H 0.99716 0.78565 0.39706 0.0
H99 H 0.99833 0.76934 0.59228 0.0
C100 C 0.94003 0.78901 0.49986 0.0
C101 C 0.95554 0.78064 0.55343 0.0
C102 C 0.95487 0.79099 0.443 0.0
C103 C 0.98557 0.78485 0.44082 0.0
C104 C 0.00156 0.77746 0.49443 0.0
C105 C 0.98623 0.77477 0.55046 0.0
H106 H 0.79981 0.4422 0.00578 0.0
H107 H 0.80155 0.52084 0.11799 0.0
H108 H 0.79439 0.52907 0.92067 0.0
C109 C 0.79922 0.46636 0.00912 0.0
C110 C 0.79604 0.48386 0.95568 0.0
C111 C 0.80095 0.47964 0.06742 0.0
C112 C 0.8006 0.51079 0.07255 0.0
C113 C 0.7991 0.52894 0.01975 0.0
C114 C 0.79637 0.51526 0.96142 0.0
H115 H 0.07846 0.20618 0.4953 0.0
H116 H 0.99805 0.21025 0.60064 0.0
H117 H 0.99364 0.2159 0.40301 0.0
C118 C 0.05439 0.20805 0.49655 0.0
C119 C 0.03803 0.21147 0.44146 0.0
C120 C 0.0399 0.2066 0.55366 0.0
C121 C 0.00892 0.20997 0.55606 0.0
C122 C 0.99198 0.21357 0.50213 0.0
C123 C 0.00669 0.21414 0.44486 0.0
H124 H 0.71979 0.94704 0.46354 0.0
H125 H 0.70811 0.02056 0.58935 0.0
H126 H 0.68709 0.03096 0.39672 0.0
C127 C 0.71275 0.9698 0.47251 0.0
C128 C 0.70298 0.98755 0.42328 0.0
C129 C 0.71506 0.98148 0.53254 0.0
C130 C 0.70609 0.01118 0.54349 0.0
C131 C 0.69554 0.02911 0.4947 0.0
C132 C 0.69413 0.01703 0.43492 0.0
H133 H 0.57705 0.31421 0.00342 0.0
H134 H 0.49932 0.28652 0.10574 0.0
H135 H 0.49932 0.2821 0.90836 0.0
C136 C 0.55428 0.30615 0.00447 0.0
C137 C 0.54006 0.29837 0.94899 0.0
C138 C 0.53964 0.30238 0.0615 0.0
C139 C 0.51035 0.2909 0.06225 0.0
C140 C 0.49607 0.283 0.00705 0.0
C141 C 0.5107 0.28772 0.95094 0.0
H142 H 0.28569 0.06319 0.52336 0.0
H143 H 0.2967 0.99232 0.39404 0.0
H144 H 0.28421 0.97191 0.58652 0.0
C145 C 0.28804 0.03945 0.51481 0.0
C146 C 0.28601 0.01885 0.56363 0.0
C147 C 0.29152 0.02979 0.45399 0.0
C148 C 0.29301 0.99923 0.44126 0.0
C149 C 0.28965 0.97786 0.48826 0.0
C150 C 0.28659 0.98798 0.54969 0.0
H151 H 0.4195 0.70922 0.99465 0.0
H152 H 0.4929 0.75003 0.9007 0.0
H153 H 0.49732 0.73715 0.09679 0.0
C154 C 0.44166 0.71886 0.99609 0.0
C155 C 0.45702 0.72127 0.05262 0.0
C156 C 0.45426 0.72992 0.94159 0.0
C157 C 0.48288 0.74229 0.94325 0.0
C158 C 0.4986 0.745 0.99884 0.0
C159 C 0.48566 0.73422 0.05344 0.0
H160 H 0.17153 0.17586 0.20913 0.0
H161 H 0.1274 0.23159 0.07373 0.0
H162 H 0.08561 0.24022 0.14676 0.0
H163 H 0.10324 0.14078 0.26581 0.0
H164 H 0.11664 0.13884 0.34406 0.0
H165 H 0.14264 0.13727 0.2809 0.0
H166 H 0.17153 0.18219 0.32695 0.0
H167 H 0.14558 0.18403 0.39008 0.0
H168 H 0.15194 0.21654 0.34289 0.0
H169 H 0.05076 0.2454 0.23837 0.0
H170 H 0.02375 0.24397 0.3373 0.0
H171 H 0.0885 0.18016 0.40768 0.0
C172 C 0.15294 0.18978 0.19506 0.0
C173 C 0.15244 0.20331 0.1365 0.0
C174 C 0.12787 0.22113 0.11874 0.0
C175 C 0.10419 0.22613 0.15983 0.0
C176 C 0.10533 0.21257 0.21771 0.0
C177 C 0.12887 0.19436 0.23485 0.0
C178 C 0.12451 0.18192 0.29901 0.0
C179 C 0.12158 0.14767 0.29731 0.0
C180 C 0.1499 0.19177 0.34227 0.0
C181 C 0.09527 0.19663 0.3161 0.0
C182 C 0.08458 0.2143 0.26881 0.0
C183 C 0.05866 0.23121 0.27533 0.0
C184 C 0.04333 0.23008 0.33172 0.0
C185 C 0.05378 0.2119 0.38082 0.0
C186 C 0.07996 0.19472 0.37197 0.0
H187 H 0.22653 0.60833 0.62765 0.0
H188 H 0.2904 0.66869 0.71204 0.0
H189 H 0.28957 0.63876 0.80718 0.0
H190 H 0.18233 0.59923 0.76495 0.0
H191 H 0.17371 0.56047 0.75085 0.0
H192 H 0.18089 0.58519 0.6871 0.0
H193 H 0.2225 0.54956 0.64866 0.0
H194 H 0.21559 0.52485 0.71265 0.0
H195 H 0.25252 0.5395 0.69997 0.0
H196 H 0.28294 0.60275 0.89155 0.0
H197 H 0.26595 0.56592 0.96761 0.0
H198 H 0.20236 0.53078 0.83474 0.0
C199 C 0.24033 0.61502 0.66627 0.0
C200 C 0.25855 0.6407 0.66283 0.0
C201 C 0.27615 0.64915 0.71416 0.0
C202 C 0.27603 0.63219 0.76814 0.0
C203 C 0.25783 0.60706 0.77042 0.0
C204 C 0.23989 0.59867 0.7215 0.0
C205 C 0.22085 0.57185 0.73849 0.0
C206 C 0.18747 0.57966 0.73516 0.0
C207 C 0.22832 0.54484 0.69749 0.0
C208 C 0.23087 0.56672 0.80453 0.0
C209 C 0.25262 0.58702 0.82126 0.0
C210 C 0.26564 0.58694 0.87942 0.0
C211 C 0.25563 0.56604 0.92247 0.0
C212 C 0.2323 0.54585 0.9078 0.0
C213 C 0.22022 0.54586 0.84744 0.0
H214 H 0.81937 0.79248 0.20363 0.0
H215 H 0.87454 0.84667 0.08318 0.0
H216 H 0.91499 0.84558 0.16066 0.0
H217 H 0.84223 0.82538 0.34653 0.0
H218 H 0.84205 0.79054 0.38819 0.0
H219 H 0.81739 0.79572 0.32348 0.0
H220 H 0.83904 0.7483 0.27132 0.0
H221 H 0.86363 0.74285 0.33605 0.0
H222 H 0.87872 0.74543 0.25927 0.0
H223 H 0.94869 0.83982 0.25263 0.0
H224 H 0.97461 0.82725 0.34946 0.0
H225 H 0.89821 0.7746 0.40721 0.0
C226 C 0.83993 0.80419 0.19353 0.0
C227 C 0.84374 0.81983 0.13752 0.0
C228 C 0.87113 0.83455 0.12578 0.0
C229 C 0.89418 0.83413 0.16956 0.0
C230 C 0.88956 0.81869 0.22449 0.0
C231 C 0.86322 0.80376 0.23635 0.0
C232 C 0.86414 0.78826 0.29833 0.0
C233 C 0.84002 0.80073 0.34168 0.0
C234 C 0.86122 0.75419 0.29077 0.0
C235 C 0.89508 0.79695 0.31973 0.0
C236 C 0.90929 0.81463 0.27663 0.0
C237 C 0.93791 0.82573 0.28644 0.0
C238 C 0.95251 0.81828 0.34148 0.0
C239 C 0.93862 0.79965 0.38589 0.0
C240 C 0.90941 0.78907 0.37466 0.0
H241 H 0.73847 0.35547 0.72947 0.0
H242 H 0.77752 0.40464 0.57744 0.0
H243 H 0.7958 0.44307 0.65054 0.0
H244 H 0.71225 0.41954 0.81023 0.0
H245 H 0.71932 0.40412 0.88559 0.0
H246 H 0.71124 0.37966 0.82184 0.0
H247 H 0.76048 0.35089 0.84127 0.0
H248 H 0.76876 0.37517 0.90529 0.0
H249 H 0.79525 0.3711 0.84343 0.0
H250 H 0.80998 0.47601 0.7416 0.0
H251 H 0.81726 0.50142 0.84164 0.0
H252 H 0.76471 0.43239 0.93108 0.0
C253 C 0.75127 0.37408 0.71166 0.0
C254 C 0.75695 0.37695 0.64797 0.0
C255 C 0.77309 0.40202 0.6262 0.0
C256 C 0.78356 0.4239 0.66733 0.0
C257 C 0.77731 0.42055 0.72988 0.0
C258 C 0.76136 0.39635 0.75181 0.0
C259 C 0.75628 0.39865 0.82053 0.0
C260 C 0.72278 0.40063 0.8354 0.0
C261 C 0.77108 0.3724 0.85462 0.0
C262 C 0.77204 0.42782 0.83402 0.0
C263 C 0.78425 0.44005 0.78139 0.0
C264 C 0.80033 0.46671 0.78306 0.0
C265 C 0.80414 0.48113 0.84012 0.0
C266 C 0.79167 0.46901 0.89471 0.0
C267 C 0.77515 0.44211 0.89086 0.0
H268 H 0.67785 0.297 0.29319 0.0
H269 H 0.62193 0.34038 0.42998 0.0
H270 H 0.5802 0.34124 0.35544 0.0
H271 H 0.65079 0.33762 0.16277 0.0
H272 H 0.65255 0.30601 0.11136 0.0
H273 H 0.67779 0.30841 0.1758 0.0
H274 H 0.65995 0.25662 0.21452 0.0
H275 H 0.63477 0.25397 0.15002 0.0
H276 H 0.62073 0.25036 0.22747 0.0
H277 H 0.54456 0.3376 0.26482 0.0
H278 H 0.51803 0.32937 0.16618 0.0
H279 H 0.59755 0.28807 0.09027 0.0
C280 C 0.65684 0.30664 0.30774 0.0
C281 C 0.65324 0.31866 0.36756 0.0
C282 C 0.6253 0.33105 0.38444 0.0
C283 C 0.60145 0.33166 0.3424 0.0
C284 C 0.60588 0.31979 0.28369 0.0
C285 C 0.63288 0.30747 0.26647 0.0
C286 C 0.63199 0.29626 0.20065 0.0
C287 C 0.65462 0.31309 0.16028 0.0
C288 C 0.63716 0.26229 0.19804 0.0
C289 C 0.60027 0.30424 0.18339 0.0
C290 C 0.58552 0.31778 0.23182 0.0
C291 C 0.5559 0.32698 0.22663 0.0
C292 C 0.54099 0.32212 0.17054 0.0
C293 C 0.55572 0.30823 0.12032 0.0
C294 C 0.58577 0.29924 0.12725 0.0
H295 H 0.27953 0.14631 0.81797 0.0
H296 H 0.22483 0.08718 0.92866 0.0
H297 H 0.23438 0.046 0.85533 0.0
H298 H 0.25656 0.12213 0.67543 0.0
H299 H 0.29245 0.12422 0.63835 0.0
H300 H 0.2844 0.14793 0.70317 0.0
H301 H 0.33079 0.12752 0.76081 0.0
H302 H 0.33922 0.10392 0.69574 0.0
H303 H 0.33503 0.08777 0.77132 0.0
H304 H 0.24294 0.01419 0.76077 0.0
H305 H 0.25357 0.99303 0.65839 0.0
H306 H 0.30779 0.07083 0.61552 0.0
C307 C 0.27015 0.12449 0.82748 0.0
C308 C 0.25144 0.11992 0.87891 0.0
C309 C 0.23946 0.09111 0.88981 0.0
C310 C 0.2447 0.06759 0.84833 0.0
C311 C 0.26258 0.07307 0.79705 0.0
C312 C 0.2757 0.10063 0.78731 0.0
C313 C 0.29297 0.10109 0.72743 0.0
C314 C 0.28086 0.12527 0.68353 0.0
C315 C 0.32649 0.10531 0.73957 0.0
C316 C 0.28636 0.06997 0.7036 0.0
C317 C 0.26884 0.0541 0.74433 0.0
C318 C 0.25741 0.02605 0.72927 0.0
C319 C 0.26378 0.01409 0.67084 0.0
C320 C 0.2817 0.03001 0.62811 0.0
C321 C 0.29371 0.05799 0.64611 0.0
H322 H 0.32069 0.70758 0.28434 0.0
H323 H 0.38023 0.66636 0.41744 0.0
H324 H 0.42184 0.67062 0.34272 0.0
H325 H 0.35072 0.67313 0.14942 0.0
H326 H 0.3459 0.706 0.10245 0.0
H327 H 0.3212 0.69926 0.16631 0.0
H328 H 0.33435 0.7512 0.21202 0.0
H329 H 0.359 0.75815 0.1482 0.0
H330 H 0.37286 0.7606 0.22605 0.0
H331 H 0.45683 0.67947 0.25111 0.0
H332 H 0.48187 0.69298 0.15334 0.0
H333 H 0.3986 0.72975 0.08471 0.0
C334 C 0.34241 0.69925 0.29799 0.0
C335 C 0.34714 0.68642 0.35665 0.0
C336 C 0.37605 0.67619 0.37266 0.0
C337 C 0.39978 0.6785 0.33052 0.0
C338 C 0.39419 0.69122 0.2729 0.0
C339 C 0.36617 0.70151 0.25695 0.0
C340 C 0.36577 0.71478 0.19296 0.0
C341 C 0.34465 0.69724 0.15028 0.0
C342 C 0.35752 0.74816 0.19497 0.0
C343 C 0.39797 0.71029 0.17494 0.0
C344 C 0.4141 0.69662 0.22136 0.0
C345 C 0.44438 0.69025 0.21461 0.0
C346 C 0.45843 0.69813 0.15904 0.0
C347 C 0.4422 0.71228 0.11106 0.0
C348 C 0.41159 0.71842 0.11971 0.0
H349 H 0.7264 0.89882 0.86088 0.0
H350 H 0.7951 0.8439 0.7772 0.0
H351 H 0.793 0.87464 0.68314 0.0
H352 H 0.68281 0.90546 0.72323 0.0
H353 H 0.67105 0.94337 0.73755 0.0
H354 H 0.67988 0.91911 0.80119 0.0
H355 H 0.71836 0.95772 0.84118 0.0
H356 H 0.70975 0.98205 0.77739 0.0
H357 H 0.74769 0.97035 0.79073 0.0
H358 H 0.78378 0.91021 0.59895 0.0
H359 H 0.76388 0.94545 0.52254 0.0
H360 H 0.69746 0.97548 0.65449 0.0
C361 C 0.74112 0.89363 0.82281 0.0
C362 C 0.7611 0.86924 0.82612 0.0
C363 C 0.7797 0.86255 0.77531 0.0
C364 C 0.7788 0.87997 0.72192 0.0
C365 C 0.75881 0.90375 0.71967 0.0
C366 C 0.73996 0.91043 0.76816 0.0
C367 C 0.71889 0.93572 0.75099 0.0
C368 C 0.68623 0.92528 0.75337 0.0
C369 C 0.72399 0.96308 0.79256 0.0
C370 C 0.72876 0.9419 0.68526 0.0
C371 C 0.75219 0.92348 0.6689 0.0
C372 C 0.76525 0.9246 0.61089 0.0
C373 C 0.75359 0.94456 0.56763 0.0
C374 C 0.72866 0.96282 0.58193 0.0
C375 C 0.71652 0.96187 0.64214 0.0
H376 H 0.848 0.83751 0.82001 0.0
H377 H 0.85186 0.74814 0.89682 0.0
H378 H 0.88973 0.73405 0.81897 0.0
H379 H 0.84919 0.81421 0.6668 0.0
H380 H 0.87092 0.84521 0.63868 0.0
H381 H 0.8479 0.84975 0.70589 0.0
H382 H 0.89362 0.86732 0.76922 0.0
H383 H 0.91687 0.86322 0.70204 0.0
H384 H 0.9265 0.84416 0.77248 0.0
H385 H 0.92526 0.72923 0.7296 0.0
H386 H 0.95328 0.73298 0.63149 0.0
H387 H 0.92249 0.82417 0.60883 0.0
C388 C 0.85742 0.81522 0.82143 0.0
C389 C 0.84752 0.79399 0.86483 0.0
C390 C 0.85952 0.76474 0.86414 0.0
C391 C 0.881 0.7566 0.82026 0.0
C392 C 0.88981 0.77789 0.77706 0.0
C393 C 0.87825 0.80655 0.77709 0.0
C394 C 0.88899 0.82427 0.72207 0.0
C395 C 0.86268 0.83391 0.68094 0.0
C396 C 0.90761 0.85134 0.74271 0.0
C397 C 0.90816 0.80101 0.69064 0.0
C398 C 0.90881 0.77458 0.72363 0.0
C399 C 0.92498 0.74982 0.70346 0.0
C400 C 0.94078 0.75212 0.64792 0.0
C401 C 0.93976 0.77877 0.61293 0.0
C402 C 0.92336 0.80349 0.63473 0.0
H403 H 0.73276 0.40515 0.36736 0.0
H404 H 0.80391 0.33943 0.35592 0.0
H405 H 0.82746 0.3685 0.27286 0.0
H406 H 0.72488 0.41629 0.2108 0.0
H407 H 0.71779 0.4559 0.21479 0.0
H408 H 0.70856 0.43235 0.27913 0.0
H409 H 0.74124 0.46506 0.35105 0.0
H410 H 0.75046 0.4889 0.28688 0.0
H411 H 0.77974 0.47172 0.33152 0.0
H412 H 0.83955 0.4005 0.18231 0.0
H413 H 0.84055 0.43511 0.09336 0.0
H414 H 0.76269 0.48084 0.16492 0.0
C415 C 0.75368 0.39726 0.34849 0.0
C416 C 0.76643 0.36998 0.36814 0.0
C417 C 0.79363 0.36022 0.34157 0.0
C418 C 0.80727 0.37662 0.29447 0.0
C419 C 0.79365 0.40291 0.27485 0.0
C420 C 0.76765 0.41339 0.30143 0.0
C421 C 0.75644 0.44114 0.2688 0.0
C422 C 0.72507 0.4361 0.24178 0.0
C423 C 0.75702 0.46831 0.31215 0.0
C424 C 0.77964 0.44399 0.21851 0.0
C425 C 0.80103 0.42183 0.22308 0.0
C426 C 0.82333 0.41834 0.17893 0.0
C427 C 0.82366 0.43793 0.12856 0.0
C428 C 0.80194 0.46071 0.12309 0.0
C429 C 0.77994 0.464 0.16905 0.0
H430 H 0.17184 0.22489 0.79834 0.0
H431 H 0.12919 0.15513 0.90583 0.0
H432 H 0.08851 0.15249 0.82922 0.0
H433 H 0.10415 0.26196 0.74673 0.0
H434 H 0.1188 0.26971 0.67108 0.0
H435 H 0.14368 0.26722 0.73613 0.0
H436 H 0.17439 0.2266 0.6793 0.0
H437 H 0.1495 0.22878 0.61427 0.0
H438 H 0.15591 0.1934 0.65169 0.0
H439 H 0.05335 0.15645 0.74011 0.0
H440 H 0.02593 0.16653 0.64361 0.0
H441 H 0.09193 0.23304 0.59305 0.0
C442 C 0.15376 0.20932 0.80624 0.0
C443 C 0.1536 0.19029 0.85822 0.0
C444 C 0.12976 0.16991 0.86634 0.0
C445 C 0.10655 0.16827 0.82315 0.0
C446 C 0.10762 0.18705 0.77203 0.0
C447 C 0.13058 0.20718 0.76333 0.0
C448 C 0.12697 0.22404 0.70326 0.0
C449 C 0.12317 0.25773 0.71503 0.0
C450 C 0.15326 0.21782 0.65956 0.0
C451 C 0.09841 0.21017 0.67945 0.0
C452 C 0.08756 0.189 0.72001 0.0
C453 C 0.06153 0.17307 0.70811 0.0
C454 C 0.04609 0.17902 0.65336 0.0
C455 C 0.05678 0.20063 0.61109 0.0
C456 C 0.08337 0.21628 0.62435 0.0
H457 H 0.21767 0.64745 0.3139 0.0
H458 H 0.26524 0.5846 0.43028 0.0
H459 H 0.25108 0.54346 0.36016 0.0
H460 H 0.157 0.59531 0.2613 0.0
H461 H 0.15751 0.61082 0.18465 0.0
H462 H 0.16627 0.63413 0.25003 0.0
H463 H 0.21673 0.64823 0.19967 0.0
H464 H 0.20828 0.62488 0.13455 0.0
H465 H 0.24222 0.61897 0.17744 0.0
H466 H 0.23822 0.51081 0.27052 0.0
H467 H 0.22911 0.48958 0.16731 0.0
H468 H 0.18991 0.57363 0.10878 0.0
C469 C 0.22424 0.62488 0.32581 0.0
C470 C 0.24233 0.61916 0.37784 0.0
C471 C 0.25126 0.58945 0.39079 0.0
C472 C 0.2432 0.56593 0.35139 0.0
C473 C 0.22616 0.57248 0.29934 0.0
C474 C 0.21667 0.60124 0.28661 0.0
C475 C 0.2018 0.60302 0.22402 0.0
C476 C 0.16867 0.61131 0.23041 0.0
C477 C 0.21825 0.62506 0.18144 0.0
C478 C 0.20551 0.57106 0.20243 0.0
C479 C 0.21906 0.55365 0.24701 0.0
C480 C 0.22701 0.52403 0.23575 0.0
C481 C 0.22162 0.51212 0.17699 0.0
C482 C 0.20864 0.52988 0.13 0.0
C483 C 0.19982 0.55947 0.14373 0.0
H484 H 0.34704 0.66917 0.67478 0.0
H485 H 0.35009 0.75846 0.59703 0.0
H486 H 0.38645 0.77353 0.6768 0.0
H487 H 0.34711 0.69247 0.82889 0.0
H488 H 0.36969 0.66216 0.85755 0.0
H489 H 0.34701 0.65688 0.78989 0.0
H490 H 0.39343 0.64061 0.72746 0.0
H491 H 0.41631 0.64541 0.79508 0.0
H492 H 0.42562 0.66471 0.7248 0.0
H493 H 0.4195 0.77988 0.76749 0.0
H494 H 0.44761 0.77747 0.86503 0.0
H495 H 0.42174 0.68464 0.88753 0.0
C496 C 0.35601 0.69164 0.67367 0.0
C497 C 0.34618 0.71261 0.62946 0.0
C498 C 0.35761 0.74208 0.63039 0.0
C499 C 0.37822 0.75081 0.67541 0.0
C500 C 0.38689 0.72985 0.71936 0.0
C501 C 0.37621 0.70088 0.71899 0.0
C502 C 0.38736 0.68353 0.77441 0.0
C503 C 0.36123 0.67316 0.81508 0.0
C504 C 0.40685 0.657 0.75421 0.0
C505 C 0.40575 0.70739 0.80624 0.0
C506 C 0.40536 0.73381 0.77324 0.0
C507 C 0.42024 0.75926 0.79348 0.0
C508 C 0.43617 0.75764 0.8488 0.0
C509 C 0.437 0.73081 0.88343 0.0
C510 C 0.42142 0.70542 0.86196 0.0
H511 H 0.71648 0.85894 0.17466 0.0
H512 H 0.7641 0.92242 0.06016 0.0
H513 H 0.74937 0.96326 0.13056 0.0
H514 H 0.65528 0.9103 0.22653 0.0
H515 H 0.65561 0.89463 0.30304 0.0
H516 H 0.66491 0.87155 0.23767 0.0
H517 H 0.7153 0.85784 0.28911 0.0
H518 H 0.7063 0.88096 0.35425 0.0
H519 H 0.74037 0.8873 0.31222 0.0
H520 H 0.73549 0.99562 0.21981 0.0
H521 H 0.72517 0.01674 0.32256 0.0
H522 H 0.68705 0.93209 0.37995 0.0
C523 C 0.72297 0.88158 0.16324 0.0
C524 C 0.74118 0.8876 0.11163 0.0
C525 C 0.75001 0.91737 0.09932 0.0
C526 C 0.74163 0.94071 0.13886 0.0
C527 C 0.72443 0.93388 0.19043 0.0
C528 C 0.71512 0.90503 0.20262 0.0
C529 C 0.69999 0.90295 0.26483 0.0
C530 C 0.66698 0.89435 0.25756 0.0
C531 C 0.71649 0.88097 0.30759 0.0
C532 C 0.70327 0.93488 0.28679 0.0
C533 C 0.71685 0.95251 0.2427 0.0
C534 C 0.72427 0.98222 0.25421 0.0
C535 C 0.7182 0.99406 0.31269 0.0
C536 C 0.70508 0.97613 0.35916 0.0
C537 C 0.69698 0.94636 0.3453 0.0
H538 H 0.65853 0.35172 0.69472 0.0
H539 H 0.63702 0.26998 0.59693 0.0
H540 H 0.59682 0.25949 0.6713 0.0
H541 H 0.65117 0.32186 0.8412 0.0
H542 H 0.63487 0.35429 0.87723 0.0
H543 H 0.6586 0.35864 0.81102 0.0
H544 H 0.61684 0.38717 0.75344 0.0
H545 H 0.593 0.38337 0.81983 0.0
H546 H 0.58051 0.37034 0.74553 0.0
H547 H 0.56415 0.25427 0.76088 0.0
H548 H 0.53815 0.25536 0.86022 0.0
H549 H 0.57981 0.34051 0.90356 0.0
C550 C 0.64451 0.33228 0.68796 0.0
C551 C 0.65027 0.31186 0.63973 0.0
C552 C 0.63251 0.28596 0.63331 0.0
C553 C 0.6097 0.27984 0.67526 0.0
C554 C 0.60513 0.29978 0.72359 0.0
C555 C 0.62179 0.32559 0.73019 0.0
C556 C 0.61391 0.34163 0.78974 0.0
C557 C 0.64127 0.34424 0.83231 0.0
C558 C 0.60025 0.37246 0.77632 0.0
C559 C 0.59085 0.32035 0.81605 0.0
C560 C 0.58605 0.29657 0.77661 0.0
C561 C 0.56712 0.2731 0.79159 0.0
C562 C 0.55234 0.27403 0.84816 0.0
C563 C 0.55635 0.29836 0.88931 0.0
C564 C 0.57608 0.32175 0.87298 0.0
H565 H 0.229 0.10676 0.14989 0.0
H566 H 0.29545 0.17626 0.17648 0.0
H567 H 0.31578 0.1488 0.26541 0.0
H568 H 0.21425 0.09395 0.30641 0.0
H569 H 0.20996 0.05405 0.29906 0.0
H570 H 0.20188 0.07797 0.23451 0.0
H571 H 0.23943 0.04838 0.16715 0.0
H572 H 0.24752 0.02422 0.23145 0.0
H573 H 0.27734 0.04385 0.19331 0.0
H574 H 0.3259 0.11639 0.35728 0.0
H575 H 0.32709 0.07903 0.44156 0.0
H576 H 0.25553 0.02998 0.3529 0.0
C577 C 0.24809 0.11601 0.17381 0.0
C578 C 0.26052 0.14372 0.15621 0.0
C579 C 0.28547 0.15508 0.18899 0.0
C580 C 0.29722 0.13966 0.23965 0.0
C581 C 0.28404 0.11275 0.25656 0.0
C582 C 0.26026 0.10082 0.22424 0.0
C583 C 0.24961 0.07197 0.25313 0.0
C584 C 0.217 0.07467 0.27455 0.0
C585 C 0.25373 0.04554 0.2086 0.0
C586 C 0.27079 0.06985 0.3073 0.0
C587 C 0.29045 0.09362 0.30857 0.0
C588 C 0.31096 0.09741 0.35631 0.0
C589 C 0.31141 0.07625 0.40396 0.0
C590 C 0.29168 0.05161 0.40297 0.0
C591 C 0.27126 0.04836 0.35389 0.0
H592 H 0.24664 0.30861 0.92822 0.0
H593 H 0.16683 0.2846 0.02934 0.0
H594 H 0.15025 0.33719 0.02723 0.0
H595 H 0.26048 0.37327 0.01021 0.0
H596 H 0.27451 0.39491 0.94648 0.0
H597 H 0.27751 0.35484 0.94522 0.0
H598 H 0.24939 0.3533 0.84085 0.0
H599 H 0.24631 0.39349 0.8418 0.0
H600 H 0.21329 0.3708 0.83429 0.0
H601 H 0.14515 0.39218 0.02583 0.0
H602 H 0.15298 0.44675 0.02958 0.0
H603 H 0.23689 0.4362 0.93269 0.0
C604 C 0.22526 0.31441 0.94808 0.0
C605 C 0.20776 0.29268 0.97826 0.0
C606 C 0.1804 0.30104 0.00576 0.0
C607 C 0.17074 0.33078 0.00445 0.0
C608 C 0.18878 0.35191 0.97575 0.0
C609 C 0.21551 0.3442 0.94813 0.0
C610 C 0.23237 0.37179 0.92738 0.0
C611 C 0.26302 0.37381 0.95925 0.0
C612 C 0.23552 0.37237 0.85688 0.0
C613 C 0.21144 0.39615 0.94961 0.0
C614 C 0.18616 0.38411 0.97624 0.0
C615 C 0.1646 0.40192 0.00428 0.0
C616 C 0.16928 0.43284 0.00643 0.0
C617 C 0.19542 0.4456 0.98113 0.0
C618 C 0.21639 0.42705 0.9511 0.0
H619 H 0.16151 0.70152 0.55277 0.0
H620 H 0.19668 0.76878 0.42834 0.0
H621 H 0.14721 0.79211 0.42122 0.0
H622 H 0.09246 0.69235 0.47374 0.0
H623 H 0.07019 0.68738 0.54208 0.0
H624 H 0.10901 0.67703 0.5426 0.0
H625 H 0.11807 0.71152 0.63672 0.0
H626 H 0.07923 0.72196 0.63653 0.0
H627 H 0.10763 0.75038 0.63235 0.0
H628 H 0.09484 0.80731 0.42333 0.0
H629 H 0.04047 0.81295 0.43216 0.0
H630 H 0.03699 0.73503 0.55133 0.0
C631 C 0.1587 0.72136 0.52481 0.0
C632 C 0.18279 0.73335 0.49102 0.0
C633 C 0.17839 0.7591 0.45414 0.0
C634 C 0.15045 0.77265 0.45007 0.0
C635 C 0.12701 0.76012 0.48288 0.0
C636 C 0.13061 0.73505 0.51941 0.0
C637 C 0.10097 0.72532 0.54653 0.0
C638 C 0.09267 0.69364 0.52492 0.0
C639 C 0.10152 0.72743 0.61724 0.0
C640 C 0.08034 0.74864 0.51878 0.0
C641 C 0.09605 0.76861 0.48281 0.0
C642 C 0.08219 0.79184 0.45129 0.0
C643 C 0.05127 0.79469 0.45618 0.0
C644 C 0.03444 0.77424 0.49181 0.0
C645 C 0.04929 0.75109 0.52406 0.0
H646 H 0.75264 0.69889 0.95513 0.0
H647 H 0.81203 0.7241 0.10461 0.0
H648 H 0.82603 0.67114 0.11861 0.0
H649 H 0.72624 0.63105 0.02529 0.0
H650 H 0.72413 0.61084 0.95353 0.0
H651 H 0.7194 0.65081 0.95427 0.0
H652 H 0.76209 0.65617 0.8746 0.0
H653 H 0.76709 0.61622 0.8739 0.0
H654 H 0.79818 0.64032 0.89139 0.0
H655 H 0.83438 0.61585 0.11487 0.0
H656 H 0.83411 0.56137 0.0988 0.0
H657 H 0.7671 0.57165 0.95555 0.0
C658 C 0.76864 0.69328 0.99073 0.0
C659 C 0.78132 0.71562 0.02871 0.0
C660 C 0.80196 0.70734 0.07514 0.0
C661 C 0.81014 0.67735 0.08327 0.0
C662 C 0.79731 0.65592 0.04493 0.0
C663 C 0.7768 0.66343 0.99997 0.0
C664 C 0.76563 0.63593 0.96626 0.0
C665 C 0.73185 0.63192 0.97541 0.0
C666 C 0.77374 0.63725 0.89746 0.0
C667 C 0.78314 0.61178 0.99922 0.0
C668 C 0.80143 0.62385 0.04407 0.0
C669 C 0.81994 0.6061 0.08029 0.0
C670 C 0.81946 0.57512 0.07104 0.0
C671 C 0.80033 0.56205 0.02638 0.0
C672 C 0.78216 0.58083 0.98971 0.0
H673 H 0.83284 0.29054 0.44461 0.0
H674 H 0.80162 0.24123 0.60384 0.0
H675 H 0.85035 0.21548 0.61115 0.0
H676 H 0.87896 0.2326 0.37744 0.0
H677 H 0.90847 0.25771 0.35516 0.0
H678 H 0.87059 0.27106 0.35962 0.0
H679 H 0.88692 0.31274 0.43541 0.0
H680 H 0.92487 0.29976 0.43058 0.0
H681 H 0.9069 0.30281 0.5046 0.0
H682 H 0.90123 0.19424 0.5994 0.0
H683 H 0.95428 0.18389 0.58024 0.0
H684 H 0.95487 0.2507 0.43496 0.0
C685 C 0.83646 0.27429 0.48086 0.0
C686 C 0.81379 0.26765 0.52373 0.0
C687 C 0.81901 0.24659 0.57102 0.0
C688 C 0.84643 0.23173 0.57513 0.0
C689 C 0.86842 0.23862 0.5321 0.0
C690 C 0.86403 0.2598 0.48661 0.0
C691 C 0.8922 0.2645 0.44921 0.0
C692 C 0.88725 0.25595 0.38133 0.0
C693 C 0.90338 0.29687 0.45535 0.0
C694 C 0.91306 0.24267 0.4809 0.0
C695 C 0.89861 0.22761 0.52774 0.0
C696 C 0.91294 0.20617 0.56343 0.0
C697 C 0.94316 0.2006 0.55237 0.0
C698 C 0.95903 0.21691 0.50694 0.0
C699 C 0.94346 0.23775 0.46983 0.0
H700 H 0.73894 0.1977 0.56448 0.0
H701 H 0.6663 0.22314 0.44315 0.0
H702 H 0.64931 0.17055 0.43984 0.0
H703 H 0.75668 0.13192 0.4858 0.0
H704 H 0.76664 0.11088 0.55361 0.0
H705 H 0.77033 0.1509 0.55351 0.0
H706 H 0.73674 0.15409 0.65045 0.0
H707 H 0.73275 0.114 0.65051 0.0
H708 H 0.7001 0.13752 0.64893 0.0
H709 H 0.64218 0.11518 0.44449 0.0
H710 H 0.64843 0.0604 0.44698 0.0
H711 H 0.7276 0.07067 0.56023 0.0
C712 C 0.71908 0.19225 0.5383 0.0
C713 C 0.70365 0.21441 0.50461 0.0
C714 C 0.67831 0.20641 0.46938 0.0
C715 C 0.6684 0.17669 0.46765 0.0
C716 C 0.68425 0.15528 0.50101 0.0
C717 C 0.70923 0.16263 0.53518 0.0
C718 C 0.7242 0.135 0.56116 0.0
C719 C 0.75635 0.132 0.53705 0.0
C720 C 0.72339 0.13517 0.63198 0.0
C721 C 0.70412 0.11088 0.5351 0.0
C722 C 0.68085 0.12312 0.50169 0.0
C723 C 0.66021 0.10534 0.47076 0.0
C724 C 0.66401 0.07427 0.47228 0.0
C725 C 0.68854 0.06127 0.50367 0.0
C726 C 0.70832 0.07987 0.53687 0.0
H727 H 0.32006 0.26265 0.05108 0.0
H728 H 0.32755 0.18637 0.92812 0.0
H729 H 0.38218 0.19197 0.92756 0.0
H730 H 0.37641 0.30594 0.97875 0.0
H731 H 0.39066 0.32193 0.04914 0.0
H732 H 0.3522 0.31061 0.04436 0.0
H733 H 0.3594 0.2767 0.13998 0.0
H734 H 0.39797 0.28783 0.14489 0.0
H735 H 0.38841 0.24877 0.1397 0.0
H736 H 0.43503 0.20637 0.93631 0.0
H737 H 0.4838 0.231 0.94847 0.0
H738 H 0.44326 0.29911 0.06365 0.0
C739 C 0.33327 0.24696 0.02461 0.0
C740 C 0.31958 0.22402 0.98973 0.0
C741 C 0.33754 0.20418 0.95496 0.0
C742 C 0.3686 0.20704 0.95466 0.0
C743 C 0.38139 0.22993 0.98918 0.0
C744 C 0.36441 0.2497 0.02323 0.0
C745 C 0.38387 0.27347 0.05292 0.0
C746 C 0.37527 0.30484 0.0299 0.0
C747 C 0.38232 0.27156 0.12357 0.0
C748 C 0.41434 0.26416 0.02937 0.0
C749 C 0.41228 0.23873 0.99334 0.0
C750 C 0.437 0.22623 0.96453 0.0
C751 C 0.46454 0.24042 0.97154 0.0
C752 C 0.46716 0.26699 0.00667 0.0
C753 C 0.44185 0.27867 0.03704 0.0
H754 H 0.29858 0.80109 0.54444 0.0
H755 H 0.26849 0.7894 0.35598 0.0
H756 H 0.27012 0.84421 0.34062 0.0
H757 H 0.25861 0.86535 0.57921 0.0
H758 H 0.28751 0.88341 0.6234 0.0
H759 H 0.28639 0.84327 0.61848 0.0
H760 H 0.34052 0.8423 0.57688 0.0
H761 H 0.34204 0.88247 0.58268 0.0
H762 H 0.34999 0.86439 0.51025 0.0
H763 H 0.26717 0.89971 0.35189 0.0
H764 H 0.26779 0.95245 0.38144 0.0
H765 H 0.30669 0.92859 0.55865 0.0
C766 C 0.29296 0.81013 0.4996 0.0
C767 C 0.28341 0.79126 0.45127 0.0
C768 C 0.27614 0.80361 0.39322 0.0
C769 C 0.27684 0.83465 0.38428 0.0
C770 C 0.28558 0.85276 0.43344 0.0
C771 C 0.2943 0.84096 0.48943 0.0
C772 C 0.30255 0.86541 0.53477 0.0
C773 C 0.28257 0.86428 0.59235 0.0
C774 C 0.33575 0.86353 0.55215 0.0
C775 C 0.29607 0.89287 0.49621 0.0
C776 C 0.28607 0.885 0.43818 0.0
C777 C 0.27606 0.90622 0.39631 0.0
C778 C 0.27681 0.93634 0.41362 0.0
C779 C 0.2883 0.94535 0.47191 0.0
C780 C 0.29792 0.92298 0.51366 0.0
H781 H 0.67412 0.75692 0.05382 0.0
H782 H 0.67393 0.82813 0.91817 0.0
H783 H 0.61884 0.82663 0.91496 0.0
H784 H 0.61657 0.71502 0.98308 0.0
H785 H 0.60036 0.70225 0.05433 0.0
H786 H 0.63947 0.71111 0.05097 0.0
H787 H 0.63287 0.74846 0.14132 0.0
H788 H 0.59363 0.73985 0.14466 0.0
H789 H 0.60566 0.778 0.13504 0.0
H790 H 0.56457 0.81687 0.92459 0.0
H791 H 0.51427 0.79567 0.93676 0.0
H792 H 0.54961 0.72808 0.06051 0.0
C793 C 0.66238 0.77244 0.02412 0.0
C794 C 0.67805 0.79282 0.98656 0.0
C795 C 0.66217 0.81235 0.94718 0.0
C796 C 0.63096 0.81182 0.94544 0.0
C797 C 0.61612 0.7914 0.98289 0.0
C798 C 0.63124 0.77178 0.0209 0.0
C799 C 0.61001 0.75026 0.05214 0.0
C800 C 0.61702 0.71774 0.03402 0.0
C801 C 0.61058 0.7544 0.12247 0.0
C802 C 0.58063 0.7606 0.02503 0.0
C803 C 0.58468 0.78473 0.98619 0.0
C804 C 0.56109 0.7979 0.95466 0.0
C805 C 0.53266 0.78557 0.96161 0.0
C806 C 0.52811 0.75994 0.99886 0.0
C807 C 0.55235 0.74778 0.0321 0.0
loop_
_geom_bond_atom_site_label_1
_geom_bond_atom_site_label_2
_geom_bond_distance
_geom_bond_site_symmetry_2
_ccdc_geom_bond_type
Fe0 O2 1.926 . S
Fe0 O5 1.997 . S
Fe0 O6 2.002 . S
Fe0 O11 1.976 . S
Fe0 O14 1.996 . S
Fe1 O2 1.910 1_556 S
Fe1 O9 1.997 . S
Fe1 O12 1.996 . S
Fe1 O16 1.976 . S
Fe1 O19 2.002 . S
O2 Fe0 1.926 . S
O2 Fe1 1.910 1_554 S
O2 Fe3 1.918 1_554 S
Fe3 O2 1.918 1_556 S
Fe3 O4 2.003 1_556 S
Fe3 O13 1.977 1_556 S
Fe3 O17 1.995 . S
Fe3 O20 1.996 . S
O4 Fe3 2.003 1_554 S
O4 C21 1.295 . S
O5 Fe0 1.997 . S
O5 C21 1.235 . S
O6 Fe0 2.002 . S
O6 C7 1.295 . S
C7 O6 1.295 . S
C7 O9 1.235 1_554 S
C8 O13 1.287 . S
C8 O14 1.255 . S
O9 Fe1 1.997 . S
O9 C7 1.235 1_556 S
C10 O16 1.287 . S
C10 O17 1.255 . S
O11 Fe0 1.976 . S
O11 C18 1.287 1_554 S
O12 Fe1 1.996 . S
O12 C18 1.255 . S
O13 Fe3 1.977 1_554 S
O13 C8 1.287 . S
O14 Fe0 1.996 . S
O14 C8 1.255 . S
C15 O19 1.295 . S
C15 O20 1.235 . S
O16 Fe1 1.976 . S
O16 C10 1.287 . S
O17 Fe3 1.995 . S
O17 C10 1.255 . S
C18 O11 1.287 1_556 S
C18 O12 1.255 . S
O19 Fe1 2.002 . S
O19 C15 1.295 . S
O20 Fe3 1.996 . S
O20 C15 1.235 . S
C21 O4 1.295 . S
C21 O5 1.235 . S
Fe22 O24 1.918 . S
Fe22 O27 1.997 . S
Fe22 O28 2.002 . S
Fe22 O33 1.976 . S
Fe22 O36 1.996 . S
Fe23 O24 1.918 . S
Fe23 O31 1.997 . S
Fe23 O34 1.996 . S
Fe23 O38 1.976 . S
Fe23 O41 2.002 . S
O24 Fe22 1.918 . S
O24 Fe23 1.918 . S
O24 Fe25 1.918 . S
Fe25 O24 1.918 . S
Fe25 O26 2.002 . S
Fe25 O35 1.976 . S
Fe25 O39 1.996 . S
Fe25 O42 1.997 . S
O26 Fe25 2.002 . S
O26 C43 1.295 . S
O27 Fe22 1.997 . S
O27 C43 1.235 . S
O28 Fe22 2.002 . S
O28 C29 1.295 . S
C29 O28 1.295 . S
C29 O31 1.235 . S
C30 O35 1.287 . S
C30 O36 1.255 . S
O31 Fe23 1.997 . S
O31 C29 1.235 . S
C32 O38 1.287 . S
C32 O39 1.255 . S
O33 Fe22 1.976 . S
O33 C40 1.287 . S
O34 Fe23 1.996 . S
O34 C40 1.255 . S
O35 Fe25 1.976 . S
O35 C30 1.287 . S
O36 Fe22 1.996 . S
O36 C30 1.255 . S
C37 O41 1.295 . S
C37 O42 1.235 . S
O38 Fe23 1.976 . S
O38 C32 1.287 . S
O39 Fe25 1.996 . S
O39 C32 1.255 . S
C40 O33 1.287 . S
C40 O34 1.255 . S
O41 Fe23 2.002 . S
O41 C37 1.295 . S
O42 Fe25 1.997 . S
O42 C37 1.235 . S
C43 O26 1.295 . S
C43 O27 1.235 . S
Fe44 O46 1.913 1_556 S
Fe44 O49 1.997 . S
Fe44 O50 2.002 . S
Fe44 O55 1.976 . S
Fe44 O58 1.996 . S
Fe45 O46 1.924 . S
Fe45 O53 1.997 . S
Fe45 O56 1.996 . S
Fe45 O60 1.976 . S
Fe45 O63 2.002 . S
O46 Fe44 1.913 1_554 S
O46 Fe45 1.924 . S
O46 Fe47 1.918 . S
Fe47 O46 1.918 . S
Fe47 O48 1.990 1_554 S
Fe47 O57 1.963 1_554 S
Fe47 O61 2.009 . S
Fe47 O64 2.010 . S
O48 Fe47 1.990 1_556 S
O48 C65 1.295 . S
O49 Fe44 1.997 . S
O49 C65 1.235 . S
O50 Fe44 2.002 . S
O50 C51 1.295 . S
C51 O50 1.295 . S
C51 O53 1.235 1_556 S
C52 O57 1.287 . S
C52 O58 1.255 . S
O53 Fe45 1.997 . S
O53 C51 1.235 1_554 S
C54 O60 1.287 . S
C54 O61 1.255 . S
O55 Fe44 1.976 . S
O55 C62 1.287 1_556 S
O56 Fe45 1.996 . S
O56 C62 1.255 . S
O57 Fe47 1.963 1_556 S
O57 C52 1.287 . S
O58 Fe44 1.996 . S
O58 C52 1.255 . S
C59 O63 1.295 . S
C59 O64 1.235 . S
O60 Fe45 1.976 . S
O60 C54 1.287 . S
O61 Fe47 2.009 . S
O61 C54 1.255 . S
C62 O55 1.287 1_554 S
C62 O56 1.255 . S
O63 Fe45 2.002 . S
O63 C59 1.295 . S
O64 Fe47 2.010 . S
O64 C59 1.235 . S
C65 O48 1.295 . S
C65 O49 1.235 . S
Fe66 O68 1.918 . S
Fe66 O71 1.997 . S
Fe66 O72 2.002 . S
Fe66 O77 1.976 . S
Fe66 O80 1.996 . S
Fe67 O68 1.918 . S
Fe67 O75 1.997 . S
Fe67 O78 1.996 . S
Fe67 O82 1.976 . S
Fe67 O85 2.002 . S
O68 Fe66 1.918 . S
O68 Fe67 1.918 . S
O68 Fe69 1.918 . S
Fe69 O68 1.918 . S
Fe69 O70 2.002 . S
Fe69 O79 1.976 . S
Fe69 O83 1.996 . S
Fe69 O86 1.997 . S
O70 Fe69 2.002 . S
O70 C87 1.295 . S
O71 Fe66 1.997 . S
O71 C87 1.235 . S
O72 Fe66 2.002 . S
O72 C73 1.295 . S
C73 O72 1.295 . S
C73 O75 1.235 . S
C74 O79 1.287 . S
C74 O80 1.255 . S
O75 Fe67 1.997 . S
O75 C73 1.235 . S
C76 O82 1.287 . S
C76 O83 1.255 . S
O77 Fe66 1.976 . S
O77 C84 1.287 . S
O78 Fe67 1.996 . S
O78 C84 1.255 . S
O79 Fe69 1.976 . S
O79 C74 1.287 . S
O80 Fe66 1.996 . S
O80 C74 1.255 . S
C81 O85 1.295 . S
C81 O86 1.235 . S
O82 Fe67 1.976 . S
O82 C76 1.287 . S
O83 Fe69 1.996 . S
O83 C76 1.255 . S
C84 O77 1.287 . S
C84 O78 1.255 . S
O85 Fe67 2.002 . S
O85 C81 1.295 . S
O86 Fe69 1.997 . S
O86 C81 1.235 . S
C87 O70 1.295 . S
C87 O71 1.235 . S
H88 C91 0.931 . S
H89 C94 0.928 . S
H90 C96 0.930 . S
C91 H88 0.931 . S
C91 C92 1.399 1_556 S
C91 C93 1.374 . S
C92 C91 1.399 1_554 S
C92 C96 1.429 . S
C93 C91 1.374 . S
C93 C94 1.372 . S
C94 H89 0.928 . S
C94 C93 1.372 . S
C94 C95 1.406 . S
C95 C94 1.406 . S
C95 C96 1.389 1_556 S
C96 H90 0.930 . S
C96 C92 1.429 . S
C96 C95 1.389 1_554 S
H97 C100 0.931 . S
H98 C103 0.928 1_455 S
H99 C105 0.930 1_455 S
C100 H97 0.931 . S
C100 C101 1.413 . S
C100 C102 1.360 . S
C101 C100 1.413 . S
C101 C105 1.429 . S
C102 C100 1.360 . S
C102 C103 1.372 . S
C103 H98 0.928 1_655 S
C103 C102 1.372 . S
C103 C104 1.404 1_655 S
C104 C103 1.404 1_455 S
C104 C105 1.391 1_455 S
C105 H99 0.930 1_655 S
C105 C101 1.429 . S
C105 C104 1.391 1_655 S
H106 C109 0.931 . S
H107 C112 0.928 . S
H108 C114 0.930 . S
C109 H106 0.931 . S
C109 C110 1.413 1_554 S
C109 C111 1.360 . S
C110 C109 1.413 1_556 S
C110 C114 1.429 . S
C111 C109 1.360 . S
C111 C112 1.372 . S
C112 H107 0.928 . S
C112 C111 1.372 . S
C112 C113 1.404 . S
C113 C112 1.404 . S
C113 C114 1.391 1_554 S
C114 H108 0.930 . S
C114 C110 1.429 . S
C114 C113 1.391 1_556 S
H115 C118 0.931 . S
H116 C121 0.928 1_655 S
H117 C123 0.930 1_655 S
C118 H115 0.931 . S
C118 C119 1.413 . S
C118 C120 1.360 . S
C119 C118 1.413 . S
C119 C123 1.429 . S
C120 C118 1.360 . S
C120 C121 1.372 . S
C121 H116 0.928 1_455 S
C121 C120 1.372 . S
C121 C122 1.404 1_455 S
C122 C121 1.404 1_655 S
C122 C123 1.391 1_655 S
C123 H117 0.930 1_455 S
C123 C119 1.429 . S
C123 C122 1.391 1_455 S
H124 C127 0.931 . S
H125 C130 0.928 . S
H126 C132 0.930 . S
C127 H124 0.931 . S
C127 C128 1.413 . S
C127 C129 1.360 . S
C128 C127 1.413 . S
C128 C132 1.429 1_565 S
C129 C127 1.360 . S
C129 C130 1.372 1_565 S
C130 H125 0.928 . S
C130 C129 1.372 1_545 S
C130 C131 1.404 . S
C131 C130 1.404 . S
C131 C132 1.391 . S
C132 H126 0.930 . S
C132 C128 1.429 1_545 S
C132 C131 1.391 . S
H133 C136 0.931 . S
H134 C139 0.928 . S
H135 C141 0.930 . S
C136 H133 0.931 . S
C136 C137 1.413 1_554 S
C136 C138 1.360 . S
C137 C136 1.413 1_556 S
C137 C141 1.429 . S
C138 C136 1.360 . S
C138 C139 1.372 . S
C139 H134 0.928 . S
C139 C138 1.372 . S
C139 C140 1.418 . S
C140 C139 1.418 . S
C140 C141 1.376 1_554 S
C141 H135 0.930 . S
C141 C137 1.429 . S
C141 C140 1.376 1_556 S
H142 C145 0.931 . S
H143 C148 0.928 . S
H144 C150 0.930 . S
C145 H142 0.931 . S
C145 C146 1.413 . S
C145 C147 1.360 . S
C146 C145 1.413 . S
C146 C150 1.429 1_545 S
C147 C145 1.360 . S
C147 C148 1.372 1_545 S
C148 H143 0.928 . S
C148 C147 1.372 1_565 S
C148 C149 1.404 . S
C149 C148 1.404 . S
C149 C150 1.391 . S
C150 H144 0.930 . S
C150 C146 1.429 1_565 S
C150 C149 1.391 . S
H151 C154 0.931 . S
H152 C157 0.928 . S
H153 C159 0.930 . S
C154 H151 0.931 . S
C154 C155 1.405 1_556 S
C154 C156 1.368 . S
C155 C154 1.405 1_554 S
C155 C159 1.429 . S
C156 C154 1.368 . S
C156 C157 1.372 . S
C157 H152 0.928 . S
C157 C156 1.372 . S
C157 C158 1.404 1_556 S
C158 C157 1.404 1_554 S
C158 C159 1.390 . S
C159 H153 0.930 . S
C159 C155 1.429 . S
C159 C158 1.390 . S
H160 C172 0.930 . S
H161 C174 0.930 . S
H162 C175 0.930 . S
H163 C179 0.959 . S
H164 C179 0.959 . S
H165 C179 0.961 . S
H166 C180 0.960 . S
H167 C180 0.961 . S
H168 C180 0.959 . S
H169 C183 0.929 . S
H170 C184 0.931 . S
H171 C186 0.930 . S
C172 H160 0.930 . S
C172 C173 1.399 . S
C172 C177 1.399 . S
C173 C172 1.399 . S
C173 C174 1.376 . S
C174 H161 0.930 . S
C174 C173 1.376 . S
C174 C175 1.388 . S
C175 H162 0.930 . S
C175 C174 1.388 . S
C175 C176 1.390 . S
C176 C175 1.390 . S
C176 C177 1.394 . S
C176 C182 1.465 . S
C177 C172 1.399 . S
C177 C176 1.394 . S
C177 C178 1.516 . S
C178 C177 1.516 . S
C178 C179 1.502 . S
C178 C180 1.561 . S
C178 C181 1.526 . S
C179 H163 0.959 . S
C179 H164 0.959 . S
C179 H165 0.961 . S
C179 C178 1.502 . S
C180 H166 0.960 . S
C180 H167 0.961 . S
C180 H168 0.959 . S
C180 C178 1.561 . S
C181 C178 1.526 . S
C181 C182 1.396 . S
C181 C186 1.390 . S
C182 C176 1.465 . S
C182 C181 1.396 . S
C182 C183 1.399 . S
C183 H169 0.929 . S
C183 C182 1.399 . S
C183 C184 1.385 . S
C184 H170 0.931 . S
C184 C183 1.385 . S
C184 C185 1.389 . S
C185 C184 1.389 . S
C185 C186 1.387 . S
C186 H171 0.930 . S
C186 C181 1.390 . S
C186 C185 1.387 . S
H187 C199 0.930 . S
H188 C201 0.930 . S
H189 C202 0.930 . S
H190 C206 0.959 . S
H191 C206 0.959 . S
H192 C206 0.961 . S
H193 C207 0.960 . S
H194 C207 0.961 . S
H195 C207 0.959 . S
H196 C210 0.929 . S
H197 C211 0.931 . S
H198 C213 0.930 . S
C199 H187 0.930 . S
C199 C200 1.399 . S
C199 C204 1.399 . S
C200 C199 1.399 . S
C200 C201 1.376 . S
C201 H188 0.930 . S
C201 C200 1.376 . S
C201 C202 1.388 . S
C202 H189 0.930 . S
C202 C201 1.388 . S
C202 C203 1.390 . S
C203 C202 1.390 . S
C203 C204 1.394 . S
C203 C209 1.465 . S
C204 C199 1.399 . S
C204 C203 1.394 . S
C204 C205 1.516 . S
C205 C204 1.516 . S
C205 C206 1.502 . S
C205 C207 1.561 . S
C205 C208 1.526 . S
C206 H190 0.959 . S
C206 H191 0.959 . S
C206 H192 0.961 . S
C206 C205 1.502 . S
C207 H193 0.960 . S
C207 H194 0.961 . S
C207 H195 0.959 . S
C207 C205 1.561 . S
C208 C205 1.526 . S
C208 C209 1.396 . S
C208 C213 1.390 . S
C209 C203 1.465 . S
C209 C208 1.396 . S
C209 C210 1.399 . S
C210 H196 0.929 . S
C210 C209 1.399 . S
C210 C211 1.385 . S
C211 H197 0.931 . S
C211 C210 1.385 . S
C211 C212 1.389 . S
C212 C211 1.389 . S
C212 C213 1.387 . S
C213 H198 0.930 . S
C213 C208 1.390 . S
C213 C212 1.387 . S
H214 C226 0.930 . S
H215 C228 0.930 . S
H216 C229 0.930 . S
H217 C233 0.959 . S
H218 C233 0.959 . S
H219 C233 0.961 . S
H220 C234 0.960 . S
H221 C234 0.961 . S
H222 C234 0.959 . S
H223 C237 0.929 . S
H224 C238 0.931 . S
H225 C240 0.930 . S
C226 H214 0.930 . S
C226 C227 1.399 . S
C226 C231 1.399 . S
C227 C226 1.399 . S
C227 C228 1.376 . S
C228 H215 0.930 . S
C228 C227 1.376 . S
C228 C229 1.388 . S
C229 H216 0.930 . S
C229 C228 1.388 . S
C229 C230 1.390 . S
C230 C229 1.390 . S
C230 C231 1.394 . S
C230 C236 1.465 . S
C231 C226 1.399 . S
C231 C230 1.394 . S
C231 C232 1.516 . S
C232 C231 1.516 . S
C232 C233 1.502 . S
C232 C234 1.561 . S
C232 C235 1.526 . S
C233 H217 0.959 . S
C233 H218 0.959 . S
C233 H219 0.961 . S
C233 C232 1.502 . S
C234 H220 0.960 . S
C234 H221 0.961 . S
C234 H222 0.959 . S
C234 C232 1.561 . S
C235 C232 1.526 . S
C235 C236 1.396 . S
C235 C240 1.390 . S
C236 C230 1.465 . S
C236 C235 1.396 . S
C236 C237 1.399 . S
C237 H223 0.929 . S
C237 C236 1.399 . S
C237 C238 1.385 . S
C238 H224 0.931 . S
C238 C237 1.385 . S
C238 C239 1.389 . S
C239 C238 1.389 . S
C239 C240 1.387 . S
C240 H225 0.930 . S
C240 C235 1.390 . S
C240 C239 1.387 . S
H241 C253 0.930 . S
H242 C255 0.930 . S
H243 C256 0.930 . S
H244 C260 0.959 . S
H245 C260 0.959 . S
H246 C260 0.961 . S
H247 C261 0.960 . S
H248 C261 0.961 . S
H249 C261 0.959 . S
H250 C264 0.929 . S
H251 C265 0.931 . S
H252 C267 0.930 . S
C253 H241 0.930 . S
C253 C254 1.399 . S
C253 C258 1.399 . S
C254 C253 1.399 . S
C254 C255 1.376 . S
C255 H242 0.930 . S
C255 C254 1.376 . S
C255 C256 1.388 . S
C256 H243 0.930 . S
C256 C255 1.388 . S
C256 C257 1.390 . S
C257 C256 1.390 . S
C257 C258 1.394 . S
C257 C263 1.465 . S
C258 C253 1.399 . S
C258 C257 1.394 . S
C258 C259 1.516 . S
C259 C258 1.516 . S
C259 C260 1.502 . S
C259 C261 1.561 . S
C259 C262 1.526 . S
C260 H244 0.959 . S
C260 H245 0.959 . S
C260 H246 0.961 . S
C260 C259 1.502 . S
C261 H247 0.960 . S
C261 H248 0.961 . S
C261 H249 0.959 . S
C261 C259 1.561 . S
C262 C259 1.526 . S
C262 C263 1.396 . S
C262 C267 1.390 . S
C263 C257 1.465 . S
C263 C262 1.396 . S
C263 C264 1.399 . S
C264 H250 0.929 . S
C264 C263 1.399 . S
C264 C265 1.385 . S
C265 H251 0.931 . S
C265 C264 1.385 . S
C265 C266 1.389 . S
C266 C265 1.389 . S
C266 C267 1.387 . S
C267 H252 0.930 . S
C267 C262 1.390 . S
C267 C266 1.387 . S
H268 C280 0.930 . S
H269 C282 0.930 . S
H270 C283 0.930 . S
H271 C287 0.959 . S
H272 C287 0.959 . S
H273 C287 0.961 . S
H274 C288 0.960 . S
H275 C288 0.961 . S
H276 C288 0.959 . S
H277 C291 0.929 . S
H278 C292 0.931 . S
H279 C294 0.930 . S
C280 H268 0.930 . S
C280 C281 1.399 . S
C280 C285 1.399 . S
C281 C280 1.399 . S
C281 C282 1.376 . S
C282 H269 0.930 . S
C282 C281 1.376 . S
C282 C283 1.388 . S
C283 H270 0.930 . S
C283 C282 1.388 . S
C283 C284 1.390 . S
C284 C283 1.390 . S
C284 C285 1.394 . S
C284 C290 1.465 . S
C285 C280 1.399 . S
C285 C284 1.394 . S
C285 C286 1.516 . S
C286 C285 1.516 . S
C286 C287 1.502 . S
C286 C288 1.561 . S
C286 C289 1.526 . S
C287 H271 0.959 . S
C287 H272 0.959 . S
C287 H273 0.961 . S
C287 C286 1.502 . S
C288 H274 0.960 . S
C288 H275 0.961 . S
C288 H276 0.959 . S
C288 C286 1.561 . S
C289 C286 1.526 . S
C289 C290 1.396 . S
C289 C294 1.390 . S
C290 C284 1.465 . S
C290 C289 1.396 . S
C290 C291 1.399 . S
C291 H277 0.929 . S
C291 C290 1.399 . S
C291 C292 1.385 . S
C292 H278 0.931 . S
C292 C291 1.385 . S
C292 C293 1.389 . S
C293 C292 1.389 . S
C293 C294 1.387 . S
C294 H279 0.930 . S
C294 C289 1.390 . S
C294 C293 1.387 . S
H295 C307 0.930 . S
H296 C309 0.930 . S
H297 C310 0.930 . S
H298 C314 0.959 . S
H299 C314 0.959 . S
H300 C314 0.961 . S
H301 C315 0.960 . S
H302 C315 0.961 . S
H303 C315 0.959 . S
H304 C318 0.929 . S
H305 C319 0.931 . S
H306 C321 0.930 . S
C307 H295 0.930 . S
C307 C308 1.399 . S
C307 C312 1.399 . S
C308 C307 1.399 . S
C308 C309 1.376 . S
C309 H296 0.930 . S
C309 C308 1.376 . S
C309 C310 1.388 . S
C310 H297 0.930 . S
C310 C309 1.388 . S
C310 C311 1.390 . S
C311 C310 1.390 . S
C311 C312 1.394 . S
C311 C317 1.465 . S
C312 C307 1.399 . S
C312 C311 1.394 . S
C312 C313 1.516 . S
C313 C312 1.516 . S
C313 C314 1.502 . S
C313 C315 1.561 . S
C313 C316 1.526 . S
C314 H298 0.959 . S
C314 H299 0.959 . S
C314 H300 0.961 . S
C314 C313 1.502 . S
C315 H301 0.960 . S
C315 H302 0.961 . S
C315 H303 0.959 . S
C315 C313 1.561 . S
C316 C313 1.526 . S
C316 C317 1.396 . S
C316 C321 1.390 . S
C317 C311 1.465 . S
C317 C316 1.396 . S
C317 C318 1.399 . S
C318 H304 0.929 . S
C318 C317 1.399 . S
C318 C319 1.385 . S
C319 H305 0.931 . S
C319 C318 1.385 . S
C319 C320 1.389 . S
C320 C319 1.389 . S
C320 C321 1.387 . S
C321 H306 0.930 . S
C321 C316 1.390 . S
C321 C320 1.387 . S
H322 C334 0.930 . S
H323 C336 0.930 . S
H324 C337 0.930 . S
H325 C341 0.959 . S
H326 C341 0.959 . S
H327 C341 0.961 . S
H328 C342 0.960 . S
H329 C342 0.961 . S
H330 C342 0.959 . S
H331 C345 0.929 . S
H332 C346 0.931 . S
H333 C348 0.930 . S
C334 H322 0.930 . S
C334 C335 1.399 . S
C334 C339 1.399 . S
C335 C334 1.399 . S
C335 C336 1.376 . S
C336 H323 0.930 . S
C336 C335 1.376 . S
C336 C337 1.388 . S
C337 H324 0.930 . S
C337 C336 1.388 . S
C337 C338 1.390 . S
C338 C337 1.390 . S
C338 C339 1.394 . S
C338 C344 1.465 . S
C339 C334 1.399 . S
C339 C338 1.394 . S
C339 C340 1.516 . S
C340 C339 1.516 . S
C340 C341 1.502 . S
C340 C342 1.561 . S
C340 C343 1.526 . S
C341 H325 0.959 . S
C341 H326 0.959 . S
C341 H327 0.961 . S
C341 C340 1.502 . S
C342 H328 0.960 . S
C342 H329 0.961 . S
C342 H330 0.959 . S
C342 C340 1.561 . S
C343 C340 1.526 . S
C343 C344 1.396 . S
C343 C348 1.390 . S
C344 C338 1.465 . S
C344 C343 1.396 . S
C344 C345 1.399 . S
C345 H331 0.929 . S
C345 C344 1.399 . S
C345 C346 1.385 . S
C346 H332 0.931 . S
C346 C345 1.385 . S
C346 C347 1.389 . S
C347 C346 1.389 . S
C347 C348 1.387 . S
C348 H333 0.930 . S
C348 C343 1.390 . S
C348 C347 1.387 . S
H349 C361 0.930 . S
H350 C363 0.930 . S
H351 C364 0.930 . S
H352 C368 0.959 . S
H353 C368 0.959 . S
H354 C368 0.961 . S
H355 C369 0.960 . S
H356 C369 0.961 . S
H357 C369 0.959 . S
H358 C372 0.929 . S
H359 C373 0.931 . S
H360 C375 0.930 . S
C361 H349 0.930 . S
C361 C362 1.399 . S
C361 C366 1.399 . S
C362 C361 1.399 . S
C362 C363 1.376 . S
C363 H350 0.930 . S
C363 C362 1.376 . S
C363 C364 1.388 . S
C364 H351 0.930 . S
C364 C363 1.388 . S
C364 C365 1.390 . S
C365 C364 1.390 . S
C365 C366 1.394 . S
C365 C371 1.465 . S
C366 C361 1.399 . S
C366 C365 1.394 . S
C366 C367 1.516 . S
C367 C366 1.516 . S
C367 C368 1.502 . S
C367 C369 1.561 . S
C367 C370 1.526 . S
C368 H352 0.959 . S
C368 H353 0.959 . S
C368 H354 0.961 . S
C368 C367 1.502 . S
C369 H355 0.960 . S
C369 H356 0.961 . S
C369 H357 0.959 . S
C369 C367 1.561 . S
C370 C367 1.526 . S
C370 C371 1.396 . S
C370 C375 1.390 . S
C371 C365 1.465 . S
C371 C370 1.396 . S
C371 C372 1.399 . S
C372 H358 0.929 . S
C372 C371 1.399 . S
C372 C373 1.385 . S
C373 H359 0.931 . S
C373 C372 1.385 . S
C373 C374 1.389 . S
C374 C373 1.389 . S
C374 C375 1.387 . S
C375 H360 0.930 . S
C375 C370 1.390 . S
C375 C374 1.387 . S
H376 C388 0.930 . S
H377 C390 0.930 . S
H378 C391 0.930 . S
H379 C395 0.959 . S
H380 C395 0.959 . S
H381 C395 0.961 . S
H382 C396 0.960 . S
H383 C396 0.961 . S
H384 C396 0.959 . S
H385 C399 0.929 . S
H386 C400 0.931 . S
H387 C402 0.930 . S
C388 H376 0.930 . S
C388 C389 1.399 . S
C388 C393 1.399 . S
C389 C388 1.399 . S
C389 C390 1.376 . S
C390 H377 0.930 . S
C390 C389 1.376 . S
C390 C391 1.388 . S
C391 H378 0.930 . S
C391 C390 1.388 . S
C391 C392 1.390 . S
C392 C391 1.390 . S
C392 C393 1.394 . S
C392 C398 1.465 . S
C393 C388 1.399 . S
C393 C392 1.394 . S
C393 C394 1.516 . S
C394 C393 1.516 . S
C394 C395 1.502 . S
C394 C396 1.561 . S
C394 C397 1.526 . S
C395 H379 0.959 . S
C395 H380 0.959 . S
C395 H381 0.961 . S
C395 C394 1.502 . S
C396 H382 0.960 . S
C396 H383 0.961 . S
C396 H384 0.959 . S
C396 C394 1.561 . S
C397 C394 1.526 . S
C397 C398 1.396 . S
C397 C402 1.390 . S
C398 C392 1.465 . S
C398 C397 1.396 . S
C398 C399 1.399 . S
C399 H385 0.929 . S
C399 C398 1.399 . S
C399 C400 1.385 . S
C400 H386 0.931 . S
C400 C399 1.385 . S
C400 C401 1.389 . S
C401 C400 1.389 . S
C401 C402 1.387 . S
C402 H387 0.930 . S
C402 C397 1.390 . S
C402 C401 1.387 . S
H403 C415 0.930 . S
H404 C417 0.930 . S
H405 C418 0.930 . S
H406 C422 0.959 . S
H407 C422 0.959 . S
H408 C422 0.961 . S
H409 C423 0.960 . S
H410 C423 0.961 . S
H411 C423 0.959 . S
H412 C426 0.929 . S
H413 C427 0.931 . S
H414 C429 0.930 . S
C415 H403 0.930 . S
C415 C416 1.399 . S
C415 C420 1.399 . S
C416 C415 1.399 . S
C416 C417 1.376 . S
C417 H404 0.930 . S
C417 C416 1.376 . S
C417 C418 1.388 . S
C418 H405 0.930 . S
C418 C417 1.388 . S
C418 C419 1.390 . S
C419 C418 1.390 . S
C419 C420 1.394 . S
C419 C425 1.465 . S
C420 C415 1.399 . S
C420 C419 1.394 . S
C420 C421 1.516 . S
C421 C420 1.516 . S
C421 C422 1.502 . S
C421 C423 1.561 . S
C421 C424 1.526 . S
C422 H406 0.959 . S
C422 H407 0.959 . S
C422 H408 0.961 . S
C422 C421 1.502 . S
C423 H409 0.960 . S
C423 H410 0.961 . S
C423 H411 0.959 . S
C423 C421 1.561 . S
C424 C421 1.526 . S
C424 C425 1.396 . S
C424 C429 1.390 . S
C425 C419 1.465 . S
C425 C424 1.396 . S
C425 C426 1.399 . S
C426 H412 0.929 . S
C426 C425 1.399 . S
C426 C427 1.385 . S
C427 H413 0.931 . S
C427 C426 1.385 . S
C427 C428 1.389 . S
C428 C427 1.389 . S
C428 C429 1.387 . S
C429 H414 0.930 . S
C429 C424 1.390 . S
C429 C428 1.387 . S
H430 C442 0.930 . S
H431 C444 0.930 . S
H432 C445 0.930 . S
H433 C449 0.959 . S
H434 C449 0.959 . S
H435 C449 0.961 . S
H436 C450 0.960 . S
H437 C450 0.961 . S
H438 C450 0.959 . S
H439 C453 0.929 . S
H440 C454 0.931 . S
H441 C456 0.930 . S
C442 H430 0.930 . S
C442 C443 1.399 . S
C442 C447 1.399 . S
C443 C442 1.399 . S
C443 C444 1.376 . S
C444 H431 0.930 . S
C444 C443 1.376 . S
C444 C445 1.388 . S
C445 H432 0.930 . S
C445 C444 1.388 . S
C445 C446 1.390 . S
C446 C445 1.390 . S
C446 C447 1.394 . S
C446 C452 1.465 . S
C447 C442 1.399 . S
C447 C446 1.394 . S
C447 C448 1.516 . S
C448 C447 1.516 . S
C448 C449 1.502 . S
C448 C450 1.561 . S
C448 C451 1.526 . S
C449 H433 0.959 . S
C449 H434 0.959 . S
C449 H435 0.961 . S
C449 C448 1.502 . S
C450 H436 0.960 . S
C450 H437 0.961 . S
C450 H438 0.959 . S
C450 C448 1.561 . S
C451 C448 1.526 . S
C451 C452 1.396 . S
C451 C456 1.390 . S
C452 C446 1.465 . S
C452 C451 1.396 . S
C452 C453 1.399 . S
C453 H439 0.929 . S
C453 C452 1.399 . S
C453 C454 1.385 . S
C454 H440 0.931 . S
C454 C453 1.385 . S
C454 C455 1.389 . S
C455 C454 1.389 . S
C455 C456 1.387 . S
C456 H441 0.930 . S
C456 C451 1.390 . S
C456 C455 1.387 . S
H457 C469 0.930 . S
H458 C471 0.930 . S
H459 C472 0.930 . S
H460 C476 0.959 . S
H461 C476 0.959 . S
H462 C476 0.961 . S
H463 C477 0.960 . S
H464 C477 0.961 . S
H465 C477 0.959 . S
H466 C480 0.929 . S
H467 C481 0.931 . S
H468 C483 0.930 . S
C469 H457 0.930 . S
C469 C470 1.399 . S
C469 C474 1.399 . S
C470 C469 1.399 . S
C470 C471 1.376 . S
C471 H458 0.930 . S
C471 C470 1.376 . S
C471 C472 1.388 . S
C472 H459 0.930 . S
C472 C471 1.388 . S
C472 C473 1.390 . S
C473 C472 1.390 . S
C473 C474 1.394 . S
C473 C479 1.465 . S
C474 C469 1.399 . S
C474 C473 1.394 . S
C474 C475 1.516 . S
C475 C474 1.516 . S
C475 C476 1.502 . S
C475 C477 1.561 . S
C475 C478 1.526 . S
C476 H460 0.959 . S
C476 H461 0.959 . S
C476 H462 0.961 . S
C476 C475 1.502 . S
C477 H463 0.960 . S
C477 H464 0.961 . S
C477 H465 0.959 . S
C477 C475 1.561 . S
C478 C475 1.526 . S
C478 C479 1.396 . S
C478 C483 1.390 . S
C479 C473 1.465 . S
C479 C478 1.396 . S
C479 C480 1.399 . S
C480 H466 0.929 . S
C480 C479 1.399 . S
C480 C481 1.385 . S
C481 H467 0.931 . S
C481 C480 1.385 . S
C481 C482 1.389 . S
C482 C481 1.389 . S
C482 C483 1.387 . S
C483 H468 0.930 . S
C483 C478 1.390 . S
C483 C482 1.387 . S
H484 C496 0.930 . S
H485 C498 0.930 . S
H486 C499 0.930 . S
H487 C503 0.959 . S
H488 C503 0.959 . S
H489 C503 0.961 . S
H490 C504 0.960 . S
H491 C504 0.961 . S
H492 C504 0.959 . S
H493 C507 0.929 . S
H494 C508 0.931 . S
H495 C510 0.930 . S
C496 H484 0.930 . S
C496 C497 1.399 . S
C496 C501 1.399 . S
C497 C496 1.399 . S
C497 C498 1.376 . S
C498 H485 0.930 . S
C498 C497 1.376 . S
C498 C499 1.388 . S
C499 H486 0.930 . S
C499 C498 1.388 . S
C499 C500 1.390 . S
C500 C499 1.390 . S
C500 C501 1.394 . S
C500 C506 1.465 . S
C501 C496 1.399 . S
C501 C500 1.394 . S
C501 C502 1.516 . S
C502 C501 1.516 . S
C502 C503 1.502 . S
C502 C504 1.561 . S
C502 C505 1.526 . S
C503 H487 0.959 . S
C503 H488 0.959 . S
C503 H489 0.961 . S
C503 C502 1.502 . S
C504 H490 0.960 . S
C504 H491 0.961 . S
C504 H492 0.959 . S
C504 C502 1.561 . S
C505 C502 1.526 . S
C505 C506 1.396 . S
C505 C510 1.390 . S
C506 C500 1.465 . S
C506 C505 1.396 . S
C506 C507 1.399 . S
C507 H493 0.929 . S
C507 C506 1.399 . S
C507 C508 1.385 . S
C508 H494 0.931 . S
C508 C507 1.385 . S
C508 C509 1.389 . S
C509 C508 1.389 . S
C509 C510 1.387 . S
C510 H495 0.930 . S
C510 C505 1.390 . S
C510 C509 1.387 . S
H511 C523 0.930 . S
H512 C525 0.930 . S
H513 C526 0.930 . S
H514 C530 0.959 . S
H515 C530 0.959 . S
H516 C530 0.961 . S
H517 C531 0.960 . S
H518 C531 0.961 . S
H519 C531 0.959 . S
H520 C534 0.929 . S
H521 C535 0.931 . S
H522 C537 0.930 . S
C523 H511 0.930 . S
C523 C524 1.399 . S
C523 C528 1.399 . S
C524 C523 1.399 . S
C524 C525 1.376 . S
C525 H512 0.930 . S
C525 C524 1.376 . S
C525 C526 1.388 . S
C526 H513 0.930 . S
C526 C525 1.388 . S
C526 C527 1.390 . S
C527 C526 1.390 . S
C527 C528 1.394 . S
C527 C533 1.465 . S
C528 C523 1.399 . S
C528 C527 1.394 . S
C528 C529 1.516 . S
C529 C528 1.516 . S
C529 C530 1.502 . S
C529 C531 1.561 . S
C529 C532 1.526 . S
C530 H514 0.959 . S
C530 H515 0.959 . S
C530 H516 0.961 . S
C530 C529 1.502 . S
C531 H517 0.960 . S
C531 H518 0.961 . S
C531 H519 0.959 . S
C531 C529 1.561 . S
C532 C529 1.526 . S
C532 C533 1.396 . S
C532 C537 1.390 . S
C533 C527 1.465 . S
C533 C532 1.396 . S
C533 C534 1.399 . S
C534 H520 0.929 . S
C534 C533 1.399 . S
C534 C535 1.385 . S
C535 H521 0.931 . S
C535 C534 1.385 . S
C535 C536 1.389 . S
C536 C535 1.389 . S
C536 C537 1.387 . S
C537 H522 0.930 . S
C537 C532 1.390 . S
C537 C536 1.387 . S
H538 C550 0.930 . S
H539 C552 0.930 . S
H540 C553 0.930 . S
H541 C557 0.959 . S
H542 C557 0.959 . S
H543 C557 0.961 . S
H544 C558 0.960 . S
H545 C558 0.961 . S
H546 C558 0.959 . S
H547 C561 0.929 . S
H548 C562 0.931 . S
H549 C564 0.930 . S
C550 H538 0.930 . S
C550 C551 1.399 . S
C550 C555 1.399 . S
C551 C550 1.399 . S
C551 C552 1.376 . S
C552 H539 0.930 . S
C552 C551 1.376 . S
C552 C553 1.388 . S
C553 H540 0.930 . S
C553 C552 1.388 . S
C553 C554 1.390 . S
C554 C553 1.390 . S
C554 C555 1.394 . S
C554 C560 1.465 . S
C555 C550 1.399 . S
C555 C554 1.394 . S
C555 C556 1.516 . S
C556 C555 1.516 . S
C556 C557 1.502 . S
C556 C558 1.561 . S
C556 C559 1.526 . S
C557 H541 0.959 . S
C557 H542 0.959 . S
C557 H543 0.961 . S
C557 C556 1.502 . S
C558 H544 0.960 . S
C558 H545 0.961 . S
C558 H546 0.959 . S
C558 C556 1.561 . S
C559 C556 1.526 . S
C559 C560 1.396 . S
C559 C564 1.390 . S
C560 C554 1.465 . S
C560 C559 1.396 . S
C560 C561 1.399 . S
C561 H547 0.929 . S
C561 C560 1.399 . S
C561 C562 1.385 . S
C562 H548 0.931 . S
C562 C561 1.385 . S
C562 C563 1.389 . S
C563 C562 1.389 . S
C563 C564 1.387 . S
C564 H549 0.930 . S
C564 C559 1.390 . S
C564 C563 1.387 . S
H565 C577 0.930 . S
H566 C579 0.930 . S
H567 C580 0.930 . S
H568 C584 0.959 . S
H569 C584 0.959 . S
H570 C584 0.961 . S
H571 C585 0.960 . S
H572 C585 0.961 . S
H573 C585 0.959 . S
H574 C588 0.929 . S
H575 C589 0.931 . S
H576 C591 0.930 . S
C577 H565 0.930 . S
C577 C578 1.399 . S
C577 C582 1.399 . S
C578 C577 1.399 . S
C578 C579 1.376 . S
C579 H566 0.930 . S
C579 C578 1.376 . S
C579 C580 1.388 . S
C580 H567 0.930 . S
C580 C579 1.388 . S
C580 C581 1.390 . S
C581 C580 1.390 . S
C581 C582 1.394 . S
C581 C587 1.465 . S
C582 C577 1.399 . S
C582 C581 1.394 . S
C582 C583 1.516 . S
C583 C582 1.516 . S
C583 C584 1.502 . S
C583 C585 1.561 . S
C583 C586 1.526 . S
C584 H568 0.959 . S
C584 H569 0.959 . S
C584 H570 0.961 . S
C584 C583 1.502 . S
C585 H571 0.960 . S
C585 H572 0.961 . S
C585 H573 0.959 . S
C585 C583 1.561 . S
C586 C583 1.526 . S
C586 C587 1.396 . S
C586 C591 1.390 . S
C587 C581 1.465 . S
C587 C586 1.396 . S
C587 C588 1.399 . S
C588 H574 0.929 . S
C588 C587 1.399 . S
C588 C589 1.385 . S
C589 H575 0.931 . S
C589 C588 1.385 . S
C589 C590 1.389 . S
C590 C589 1.389 . S
C590 C591 1.387 . S
C591 H576 0.930 . S
C591 C586 1.390 . S
C591 C590 1.387 . S
H592 C604 0.930 . S
H593 C606 0.930 . S
H594 C607 0.930 . S
H595 C611 0.959 . S
H596 C611 0.959 . S
H597 C611 0.961 . S
H598 C612 0.960 . S
H599 C612 0.961 . S
H600 C612 0.959 . S
H601 C615 0.929 . S
H602 C616 0.931 . S
H603 C618 0.930 . S
C604 H592 0.930 . S
C604 C605 1.399 1_556 S
C604 C609 1.399 . S
C605 C604 1.399 1_554 S
C605 C606 1.376 . S
C606 H593 0.930 . S
C606 C605 1.376 . S
C606 C607 1.388 . S
C607 H594 0.930 . S
C607 C606 1.388 . S
C607 C608 1.390 . S
C608 C607 1.390 . S
C608 C609 1.394 1_554 S
C608 C614 1.465 . S
C609 C604 1.399 . S
C609 C608 1.394 1_556 S
C609 C610 1.516 . S
C610 C609 1.516 . S
C610 C611 1.502 . S
C610 C612 1.561 . S
C610 C613 1.526 . S
C611 H595 0.959 . S
C611 H596 0.959 . S
C611 H597 0.961 . S
C611 C610 1.502 . S
C612 H598 0.960 . S
C612 H599 0.961 . S
C612 H600 0.959 . S
C612 C610 1.561 . S
C613 C610 1.526 . S
C613 C614 1.396 1_556 S
C613 C618 1.390 . S
C614 C608 1.465 . S
C614 C613 1.396 1_554 S
C614 C615 1.399 . S
C615 H601 0.929 . S
C615 C614 1.399 . S
C615 C616 1.385 . S
C616 H602 0.931 . S
C616 C615 1.385 . S
C616 C617 1.389 . S
C617 C616 1.389 . S
C617 C618 1.387 1_554 S
C618 H603 0.930 . S
C618 C613 1.390 . S
C618 C617 1.387 1_556 S
H619 C631 0.930 . S
H620 C633 0.930 . S
H621 C634 0.930 . S
H622 C638 0.959 . S
H623 C638 0.959 . S
H624 C638 0.961 . S
H625 C639 0.960 . S
H626 C639 0.961 . S
H627 C639 0.959 . S
H628 C642 0.929 . S
H629 C643 0.931 . S
H630 C645 0.930 . S
C631 H619 0.930 . S
C631 C632 1.399 . S
C631 C636 1.399 . S
C632 C631 1.399 . S
C632 C633 1.376 . S
C633 H620 0.930 . S
C633 C632 1.376 . S
C633 C634 1.388 . S
C634 H621 0.930 . S
C634 C633 1.388 . S
C634 C635 1.390 . S
C635 C634 1.390 . S
C635 C636 1.394 . S
C635 C641 1.465 . S
C636 C631 1.399 . S
C636 C635 1.394 . S
C636 C637 1.516 . S
C637 C636 1.516 . S
C637 C638 1.502 . S
C637 C639 1.561 . S
C637 C640 1.526 . S
C638 H622 0.959 . S
C638 H623 0.959 . S
C638 H624 0.961 . S
C638 C637 1.502 . S
C639 H625 0.960 . S
C639 H626 0.961 . S
C639 H627 0.959 . S
C639 C637 1.561 . S
C640 C637 1.526 . S
C640 C641 1.396 . S
C640 C645 1.390 . S
C641 C635 1.465 . S
C641 C640 1.396 . S
C641 C642 1.399 . S
C642 H628 0.929 . S
C642 C641 1.399 . S
C642 C643 1.385 . S
C643 H629 0.931 . S
C643 C642 1.385 . S
C643 C644 1.389 . S
C644 C643 1.389 . S
C644 C645 1.387 . S
C645 H630 0.930 . S
C645 C640 1.390 . S
C645 C644 1.387 . S
H646 C658 0.930 . S
H647 C660 0.930 . S
H648 C661 0.930 . S
H649 C665 0.959 . S
H650 C665 0.959 . S
H651 C665 0.961 . S
H652 C666 0.960 . S
H653 C666 0.961 . S
H654 C666 0.959 . S
H655 C669 0.929 . S
H656 C670 0.931 . S
H657 C672 0.930 . S
C658 H646 0.930 . S
C658 C659 1.399 1_556 S
C658 C663 1.399 . S
C659 C658 1.399 1_554 S
C659 C660 1.376 . S
C660 H647 0.930 . S
C660 C659 1.376 . S
C660 C661 1.388 . S
C661 H648 0.930 . S
C661 C660 1.388 . S
C661 C662 1.390 . S
C662 C661 1.390 . S
C662 C663 1.394 1_554 S
C662 C668 1.465 . S
C663 C658 1.399 . S
C663 C662 1.394 1_556 S
C663 C664 1.516 . S
C664 C663 1.516 . S
C664 C665 1.502 . S
C664 C666 1.561 . S
C664 C667 1.526 . S
C665 H649 0.959 . S
C665 H650 0.959 . S
C665 H651 0.961 . S
C665 C664 1.502 . S
C666 H652 0.960 . S
C666 H653 0.961 . S
C666 H654 0.959 . S
C666 C664 1.561 . S
C667 C664 1.526 . S
C667 C668 1.396 1_556 S
C667 C672 1.390 . S
C668 C662 1.465 . S
C668 C667 1.396 1_554 S
C668 C669 1.399 . S
C669 H655 0.929 . S
C669 C668 1.399 . S
C669 C670 1.385 . S
C670 H656 0.931 . S
C670 C669 1.385 . S
C670 C671 1.389 . S
C671 C670 1.389 . S
C671 C672 1.387 1_554 S
C672 H657 0.930 . S
C672 C667 1.390 . S
C672 C671 1.387 1_556 S
H673 C685 0.930 . S
H674 C687 0.930 . S
H675 C688 0.930 . S
H676 C692 0.959 . S
H677 C692 0.959 . S
H678 C692 0.961 . S
H679 C693 0.960 . S
H680 C693 0.961 . S
H681 C693 0.959 . S
H682 C696 0.929 . S
H683 C697 0.931 . S
H684 C699 0.930 . S
C685 H673 0.930 . S
C685 C686 1.399 . S
C685 C690 1.399 . S
C686 C685 1.399 . S
C686 C687 1.376 . S
C687 H674 0.930 . S
C687 C686 1.376 . S
C687 C688 1.388 . S
C688 H675 0.930 . S
C688 C687 1.388 . S
C688 C689 1.390 . S
C689 C688 1.390 . S
C689 C690 1.394 . S
C689 C695 1.465 . S
C690 C685 1.399 . S
C690 C689 1.394 . S
C690 C691 1.516 . S
C691 C690 1.516 . S
C691 C692 1.502 . S
C691 C693 1.561 . S
C691 C694 1.526 . S
C692 H676 0.959 . S
C692 H677 0.959 . S
C692 H678 0.961 . S
C692 C691 1.502 . S
C693 H679 0.960 . S
C693 H680 0.961 . S
C693 H681 0.959 . S
C693 C691 1.561 . S
C694 C691 1.526 . S
C694 C695 1.396 . S
C694 C699 1.390 . S
C695 C689 1.465 . S
C695 C694 1.396 . S
C695 C696 1.399 . S
C696 H682 0.929 . S
C696 C695 1.399 . S
C696 C697 1.385 . S
C697 H683 0.931 . S
C697 C696 1.385 . S
C697 C698 1.389 . S
C698 C697 1.389 . S
C698 C699 1.387 . S
C699 H684 0.930 . S
C699 C694 1.390 . S
C699 C698 1.387 . S
H700 C712 0.930 . S
H701 C714 0.930 . S
H702 C715 0.930 . S
H703 C719 0.959 . S
H704 C719 0.959 . S
H705 C719 0.961 . S
H706 C720 0.960 . S
H707 C720 0.961 . S
H708 C720 0.959 . S
H709 C723 0.929 . S
H710 C724 0.931 . S
H711 C726 0.930 . S
C712 H700 0.930 . S
C712 C713 1.399 . S
C712 C717 1.399 . S
C713 C712 1.399 . S
C713 C714 1.376 . S
C714 H701 0.930 . S
C714 C713 1.376 . S
C714 C715 1.388 . S
C715 H702 0.930 . S
C715 C714 1.388 . S
C715 C716 1.390 . S
C716 C715 1.390 . S
C716 C717 1.394 . S
C716 C722 1.465 . S
C717 C712 1.399 . S
C717 C716 1.394 . S
C717 C718 1.516 . S
C718 C717 1.516 . S
C718 C719 1.502 . S
C718 C720 1.561 . S
C718 C721 1.526 . S
C719 H703 0.959 . S
C719 H704 0.959 . S
C719 H705 0.961 . S
C719 C718 1.502 . S
C720 H706 0.960 . S
C720 H707 0.961 . S
C720 H708 0.959 . S
C720 C718 1.561 . S
C721 C718 1.526 . S
C721 C722 1.396 . S
C721 C726 1.390 . S
C722 C716 1.465 . S
C722 C721 1.396 . S
C722 C723 1.399 . S
C723 H709 0.929 . S
C723 C722 1.399 . S
C723 C724 1.385 . S
C724 H710 0.931 . S
C724 C723 1.385 . S
C724 C725 1.389 . S
C725 C724 1.389 . S
C725 C726 1.387 . S
C726 H711 0.930 . S
C726 C721 1.390 . S
C726 C725 1.387 . S
H727 C739 0.930 . S
H728 C741 0.930 . S
H729 C742 0.930 . S
H730 C746 0.959 . S
H731 C746 0.959 . S
H732 C746 0.961 . S
H733 C747 0.960 . S
H734 C747 0.961 . S
H735 C747 0.959 . S
H736 C750 0.929 . S
H737 C751 0.931 . S
H738 C753 0.930 . S
C739 H727 0.930 . S
C739 C740 1.399 1_554 S
C739 C744 1.399 . S
C740 C739 1.399 1_556 S
C740 C741 1.376 . S
C741 H728 0.930 . S
C741 C740 1.376 . S
C741 C742 1.388 . S
C742 H729 0.930 . S
C742 C741 1.388 . S
C742 C743 1.390 . S
C743 C742 1.390 . S
C743 C744 1.394 1_556 S
C743 C749 1.465 . S
C744 C739 1.399 . S
C744 C743 1.394 1_554 S
C744 C745 1.516 . S
C745 C744 1.516 . S
C745 C746 1.502 . S
C745 C747 1.561 . S
C745 C748 1.526 . S
C746 H730 0.959 . S
C746 H731 0.959 . S
C746 H732 0.961 . S
C746 C745 1.502 . S
C747 H733 0.960 . S
C747 H734 0.961 . S
C747 H735 0.959 . S
C747 C745 1.561 . S
C748 C745 1.526 . S
C748 C749 1.396 1_554 S
C748 C753 1.390 . S
C749 C743 1.465 . S
C749 C748 1.396 1_556 S
C749 C750 1.399 . S
C750 H736 0.929 . S
C750 C749 1.399 . S
C750 C751 1.385 . S
C751 H737 0.931 . S
C751 C750 1.385 . S
C751 C752 1.389 . S
C752 C751 1.389 . S
C752 C753 1.387 1_556 S
C753 H738 0.930 . S
C753 C748 1.390 . S
C753 C752 1.387 1_554 S
H754 C766 0.930 . S
H755 C768 0.930 . S
H756 C769 0.930 . S
H757 C773 0.959 . S
H758 C773 0.959 . S
H759 C773 0.961 . S
H760 C774 0.960 . S
H761 C774 0.961 . S
H762 C774 0.959 . S
H763 C777 0.929 . S
H764 C778 0.931 . S
H765 C780 0.930 . S
C766 H754 0.930 . S
C766 C767 1.399 . S
C766 C771 1.399 . S
C767 C766 1.399 . S
C767 C768 1.376 . S
C768 H755 0.930 . S
C768 C767 1.376 . S
C768 C769 1.388 . S
C769 H756 0.930 . S
C769 C768 1.388 . S
C769 C770 1.390 . S
C770 C769 1.390 . S
C770 C771 1.394 . S
C770 C776 1.465 . S
C771 C766 1.399 . S
C771 C770 1.394 . S
C771 C772 1.516 . S
C772 C771 1.516 . S
C772 C773 1.502 . S
C772 C774 1.561 . S
C772 C775 1.526 . S
C773 H757 0.959 . S
C773 H758 0.959 . S
C773 H759 0.961 . S
C773 C772 1.502 . S
C774 H760 0.960 . S
C774 H761 0.961 . S
C774 H762 0.959 . S
C774 C772 1.561 . S
C775 C772 1.526 . S
C775 C776 1.396 . S
C775 C780 1.390 . S
C776 C770 1.465 . S
C776 C775 1.396 . S
C776 C777 1.399 . S
C777 H763 0.929 . S
C777 C776 1.399 . S
C777 C778 1.385 . S
C778 H764 0.931 . S
C778 C777 1.385 . S
C778 C779 1.389 . S
C779 C778 1.389 . S
C779 C780 1.387 . S
C780 H765 0.930 . S
C780 C775 1.390 . S
C780 C779 1.387 . S
H781 C793 0.930 . S
H782 C795 0.930 . S
H783 C796 0.930 . S
H784 C800 0.959 . S
H785 C800 0.959 . S
H786 C800 0.961 . S
H787 C801 0.960 . S
H788 C801 0.961 . S
H789 C801 0.959 . S
H790 C804 0.929 . S
H791 C805 0.931 . S
H792 C807 0.930 . S
C793 H781 0.930 . S
C793 C794 1.399 1_554 S
C793 C798 1.399 . S
C794 C793 1.399 1_556 S
C794 C795 1.376 . S
C795 H782 0.930 . S
C795 C794 1.376 . S
C795 C796 1.388 . S
C796 H783 0.930 . S
C796 C795 1.388 . S
C796 C797 1.390 . S
C797 C796 1.390 . S
C797 C798 1.394 1_556 S
C797 C803 1.465 . S
C798 C793 1.399 . S
C798 C797 1.394 1_554 S
C798 C799 1.516 . S
C799 C798 1.516 . S
C799 C800 1.502 . S
C799 C801 1.561 . S
C799 C802 1.526 . S
C800 H784 0.959 . S
C800 H785 0.959 . S
C800 H786 0.961 . S
C800 C799 1.502 . S
C801 H787 0.960 . S
C801 H788 0.961 . S
C801 H789 0.959 . S
C801 C799 1.561 . S
C802 C799 1.526 . S
C802 C803 1.396 1_554 S
C802 C807 1.390 . S
C803 C797 1.465 . S
C803 C802 1.396 1_556 S
C803 C804 1.399 . S
C804 H790 0.929 . S
C804 C803 1.399 . S
C804 C805 1.385 . S
C805 H791 0.931 . S
C805 C804 1.385 . S
C805 C806 1.389 . S
C806 C805 1.389 . S
C806 C807 1.387 1_556 S
C807 H792 0.930 . S
C807 C802 1.390 . S
C807 C806 1.387 1_554 S
C173 C21 1.483 . S
C185 C119 1.488 . S
C200 C40 1.523 . S
C212 C93 1.490 . S
C239 C102 1.476 . S
C227 C54 1.468 . S
C254 C73 1.574 . S
C266 C110 1.572 . S
C293 C138 1.473 . S
C281 C74 1.475 . S
C320 C146 1.505 . S
C308 C10 1.539 . S
C347 C155 1.525 . S
C335 C37 1.497 . S
C374 C129 1.534 . S
C362 C65 1.540 . S
C389 C52 1.478 . S
C401 C101 1.445 . S
C416 C87 1.577 . S
C428 C111 1.569 . S
C443 C15 1.472 . S
C455 C120 1.513 . S
C482 C92 1.487 . S
C470 C32 1.515 . S
C497 C29 1.521 . S
C509 C156 1.499 . S
C536 C128 1.531 . S
C524 C59 1.537 . S
C563 C137 1.439 . S
C551 C84 1.477 . S
C578 C8 1.528 . S
C590 C147 1.522 . S
C617 C95 1.625 1_554 S
C605 C7 1.638 . S
C644 C104 1.556 . S
C632 C30 1.551 . S
C659 C62 1.645 . S
C671 C113 1.622 . S
C686 C81 1.558 . S
C698 C122 1.562 . S
C725 C131 1.634 . S
C713 C76 1.645 . S
C740 C18 1.564 . S
C752 C140 1.536 1_556 S
C767 C43 1.627 . S
C779 C149 1.595 . S
C794 C51 1.571 . S
C806 C158 1.550 1_556 S
