# Generated by pormake.
# Topology eea, (3,6)-cn, num edge types: 1
# Building blocks:
#     Node 0, Type 0, BuildingBlock: MIDCAF_clean_linker_0, # of connection points: 3
#     Node 1, Type 0, BuildingBlock: MIDCAF_clean_linker_0, # of connection points: 3
#     Node 2, Type 0, BuildingBlock: MIDCAF_clean_linker_0, # of connection points: 3
#     Node 3, Type 0, BuildingBlock: MIDCAF_clean_linker_0, # of connection points: 3
#     Node 4, Type 0, BuildingBlock: MIDCAF_clean_linker_0, # of connection points: 3
#     Node 5, Type 0, BuildingBlock: MIDCAF_clean_linker_0, # of connection points: 3
#     Node 6, Type 0, BuildingBlock: MIDCAF_clean_linker_0, # of connection points: 3
#     Node 7, Type 0, BuildingBlock: MIDCAF_clean_linker_0, # of connection points: 3
#     Node 8, Type 0, BuildingBlock: MIDCAF_clean_linker_0, # of connection points: 3
#     Node 9, Type 0, BuildingBlock: MIDCAF_clean_linker_0, # of connection points: 3
#     Node 10, Type 0, BuildingBlock: MIDCAF_clean_linker_0, # of connection points: 3
#     Node 11, Type 0, BuildingBlock: MIDCAF_clean_linker_0, # of connection points: 3
#     Node 12, Type 0, BuildingBlock: MIDCAF_clean_linker_0, # of connection points: 3
#     Node 13, Type 0, BuildingBlock: MIDCAF_clean_linker_0, # of connection points: 3
#     Node 14, Type 0, BuildingBlock: MIDCAF_clean_linker_0, # of connection points: 3
#     Node 15, Type 0, BuildingBlock: MIDCAF_clean_linker_0, # of connection points: 3
#     Node 16, Type 0, BuildingBlock: MIDCAF_clean_linker_0, # of connection points: 3
#     Node 17, Type 0, BuildingBlock: MIDCAF_clean_linker_0, # of connection points: 3
#     Node 18, Type 1, BuildingBlock: KUMBUR_clean_sbu_0, # of connection points: 6
#     Node 19, Type 1, BuildingBlock: KUMBUR_clean_sbu_0, # of connection points: 6
#     Node 20, Type 1, BuildingBlock: KUMBUR_clean_sbu_0, # of connection points: 6
#     Node 21, Type 1, BuildingBlock: KUMBUR_clean_sbu_0, # of connection points: 6
#     Node 22, Type 1, BuildingBlock: KUMBUR_clean_sbu_0, # of connection points: 6
#     Node 23, Type 1, BuildingBlock: KUMBUR_clean_sbu_0, # of connection points: 6
#     Node 24, Type 1, BuildingBlock: KUMBUR_clean_sbu_0, # of connection points: 6
#     Node 25, Type 1, BuildingBlock: KUMBUR_clean_sbu_0, # of connection points: 6
#     Node 26, Type 1, BuildingBlock: KUMBUR_clean_sbu_0, # of connection points: 6
#     Edge 27, Type (0, 1), BuildingBlock: EZIPEK_clean_linker_0, # of connection points: 2
#     Edge 28, Type (0, 1), BuildingBlock: EZIPEK_clean_linker_0, # of connection points: 2
#     Edge 29, Type (0, 1), BuildingBlock: EZIPEK_clean_linker_0, # of connection points: 2
#     Edge 30, Type (0, 1), BuildingBlock: EZIPEK_clean_linker_0, # of connection points: 2
#     Edge 31, Type (0, 1), BuildingBlock: EZIPEK_clean_linker_0, # of connection points: 2
#     Edge 32, Type (0, 1), BuildingBlock: EZIPEK_clean_linker_0, # of connection points: 2
#     Edge 33, Type (0, 1), BuildingBlock: EZIPEK_clean_linker_0, # of connection points: 2
#     Edge 34, Type (0, 1), BuildingBlock: EZIPEK_clean_linker_0, # of connection points: 2
#     Edge 35, Type (0, 1), BuildingBlock: EZIPEK_clean_linker_0, # of connection points: 2
#     Edge 36, Type (0, 1), BuildingBlock: EZIPEK_clean_linker_0, # of connection points: 2
#     Edge 37, Type (0, 1), BuildingBlock: EZIPEK_clean_linker_0, # of connection points: 2
#     Edge 38, Type (0, 1), BuildingBlock: EZIPEK_clean_linker_0, # of connection points: 2
#     Edge 39, Type (0, 1), BuildingBlock: EZIPEK_clean_linker_0, # of connection points: 2
#     Edge 40, Type (0, 1), BuildingBlock: EZIPEK_clean_linker_0, # of connection points: 2
#     Edge 41, Type (0, 1), BuildingBlock: EZIPEK_clean_linker_0, # of connection points: 2
#     Edge 42, Type (0, 1), BuildingBlock: EZIPEK_clean_linker_0, # of connection points: 2
#     Edge 43, Type (0, 1), BuildingBlock: EZIPEK_clean_linker_0, # of connection points: 2
#     Edge 44, Type (0, 1), BuildingBlock: EZIPEK_clean_linker_0, # of connection points: 2
#     Edge 45, Type (0, 1), BuildingBlock: EZIPEK_clean_linker_0, # of connection points: 2
#     Edge 46, Type (0, 1), BuildingBlock: EZIPEK_clean_linker_0, # of connection points: 2
#     Edge 47, Type (0, 1), BuildingBlock: EZIPEK_clean_linker_0, # of connection points: 2
#     Edge 48, Type (0, 1), BuildingBlock: EZIPEK_clean_linker_0, # of connection points: 2
#     Edge 49, Type (0, 1), BuildingBlock: EZIPEK_clean_linker_0, # of connection points: 2
#     Edge 50, Type (0, 1), BuildingBlock: EZIPEK_clean_linker_0, # of connection points: 2
#     Edge 51, Type (0, 1), BuildingBlock: EZIPEK_clean_linker_0, # of connection points: 2
#     Edge 52, Type (0, 1), BuildingBlock: EZIPEK_clean_linker_0, # of connection points: 2
#     Edge 53, Type (0, 1), BuildingBlock: EZIPEK_clean_linker_0, # of connection points: 2
#     Edge 54, Type (0, 1), BuildingBlock: EZIPEK_clean_linker_0, # of connection points: 2
#     Edge 55, Type (0, 1), BuildingBlock: EZIPEK_clean_linker_0, # of connection points: 2
#     Edge 56, Type (0, 1), BuildingBlock: EZIPEK_clean_linker_0, # of connection points: 2
#     Edge 57, Type (0, 1), BuildingBlock: EZIPEK_clean_linker_0, # of connection points: 2
#     Edge 58, Type (0, 1), BuildingBlock: EZIPEK_clean_linker_0, # of connection points: 2
#     Edge 59, Type (0, 1), BuildingBlock: EZIPEK_clean_linker_0, # of connection points: 2
#     Edge 60, Type (0, 1), BuildingBlock: EZIPEK_clean_linker_0, # of connection points: 2
#     Edge 61, Type (0, 1), BuildingBlock: EZIPEK_clean_linker_0, # of connection points: 2
#     Edge 62, Type (0, 1), BuildingBlock: EZIPEK_clean_linker_0, # of connection points: 2
#     Edge 63, Type (0, 1), BuildingBlock: EZIPEK_clean_linker_0, # of connection points: 2
#     Edge 64, Type (0, 1), BuildingBlock: EZIPEK_clean_linker_0, # of connection points: 2
#     Edge 65, Type (0, 1), BuildingBlock: EZIPEK_clean_linker_0, # of connection points: 2
#     Edge 66, Type (0, 1), BuildingBlock: EZIPEK_clean_linker_0, # of connection points: 2
#     Edge 67, Type (0, 1), BuildingBlock: EZIPEK_clean_linker_0, # of connection points: 2
#     Edge 68, Type (0, 1), BuildingBlock: EZIPEK_clean_linker_0, # of connection points: 2
#     Edge 69, Type (0, 1), BuildingBlock: EZIPEK_clean_linker_0, # of connection points: 2
#     Edge 70, Type (0, 1), BuildingBlock: EZIPEK_clean_linker_0, # of connection points: 2
#     Edge 71, Type (0, 1), BuildingBlock: EZIPEK_clean_linker_0, # of connection points: 2
#     Edge 72, Type (0, 1), BuildingBlock: EZIPEK_clean_linker_0, # of connection points: 2
#     Edge 73, Type (0, 1), BuildingBlock: EZIPEK_clean_linker_0, # of connection points: 2
#     Edge 74, Type (0, 1), BuildingBlock: EZIPEK_clean_linker_0, # of connection points: 2
#     Edge 75, Type (0, 1), BuildingBlock: EZIPEK_clean_linker_0, # of connection points: 2
#     Edge 76, Type (0, 1), BuildingBlock: EZIPEK_clean_linker_0, # of connection points: 2
#     Edge 77, Type (0, 1), BuildingBlock: EZIPEK_clean_linker_0, # of connection points: 2
#     Edge 78, Type (0, 1), BuildingBlock: EZIPEK_clean_linker_0, # of connection points: 2
#     Edge 79, Type (0, 1), BuildingBlock: EZIPEK_clean_linker_0, # of connection points: 2
#     Edge 80, Type (0, 1), BuildingBlock: EZIPEK_clean_linker_0, # of connection points: 2
# Relax obj value: 0.008
# Max RMSD: 0.089
# Mean RMSD: 0.072
data_MOF--net-eea--node1-KUMBUR_clean_sbu_0--node2-MIDCAF_clean_linker_0--edge1-EZIPEK_clean_linker_0
_symmetry_space_group_name_H-M    P1
_symmetry_Int_Tables_number       1
_symmetry_cell_setting            triclinic
loop_
_symmetry_equiv_pos_as_xyz
'x, y, z'
_cell_length_a     48.252607
_cell_length_b     49.440325
_cell_length_c     72.087394
_cell_angle_alpha  90.238879
_cell_angle_beta   90.252166
_cell_angle_gamma 119.97961
loop_
_atom_site_label
_atom_site_type_symbol
_atom_site_fract_x
_atom_site_fract_y
_atom_site_fract_z
_atom_type_partial_charge
C0 C 0.21908 0.01565 0.39611 0.0
C1 C 0.22641 0.01611 0.37724 0.0
C2 C 0.24353 0.04496 0.36823 0.0
C3 C 0.25198 0.07279 0.37787 0.0
H4 H 0.24055 0.15131 0.37072 0.0
H5 H 0.22389 0.18474 0.35534 0.0
H6 H 0.23025 0.23108 0.40724 0.0
H7 H 0.24697 0.19757 0.423 0.0
H8 H 0.2658 0.17319 0.45989 0.0
H9 H 0.28167 0.1793 0.49264 0.0
H10 H 0.29456 0.09933 0.48863 0.0
H11 H 0.27864 0.09277 0.45592 0.0
H12 H 0.22199 0.04211 0.42033 0.0
H13 H 0.2062 0.99367 0.40339 0.0
H14 H 0.25001 0.04587 0.35379 0.0
H15 H 0.26458 0.0948 0.37061 0.0
N16 N 0.24815 0.12342 0.39823 0.0
N17 N 0.25888 0.15159 0.42616 0.0
N18 N 0.25873 0.10404 0.42531 0.0
C19 C 0.25158 0.14873 0.40772 0.0
C20 C 0.2628 0.12943 0.43504 0.0
C21 C 0.25158 0.101 0.4069 0.0
C22 C 0.24482 0.17145 0.39819 0.0
C23 C 0.23869 0.16869 0.37895 0.0
C24 C 0.22915 0.18778 0.37008 0.0
C25 C 0.22559 0.21004 0.38022 0.0
C26 C 0.23274 0.21381 0.39927 0.0
C27 C 0.24236 0.19469 0.4082 0.0
C28 C 0.2711 0.13259 0.45514 0.0
C29 C 0.27181 0.15674 0.46594 0.0
C30 C 0.28072 0.16021 0.48469 0.0
C31 C 0.28921 0.13973 0.49299 0.0
C32 C 0.28794 0.11525 0.48245 0.0
C33 C 0.27891 0.11166 0.46373 0.0
C34 C 0.24447 0.07216 0.39678 0.0
C35 C 0.22832 0.04334 0.40583 0.0
C36 C 0.99317 0.2161 0.39718 0.0
C37 C 0.99664 0.21012 0.37854 0.0
C38 C 0.97265 0.18307 0.36987 0.0
C39 C 0.94531 0.16236 0.37968 0.0
H40 H 0.86358 0.08174 0.37301 0.0
H41 H 0.82655 0.03213 0.35802 0.0
H42 H 0.76846 0.00287 0.40714 0.0
H43 H 0.80536 0.05249 0.42243 0.0
H44 H 0.82595 0.11665 0.45325 0.0
H45 H 0.81851 0.12559 0.48581 0.0
H46 H 0.91926 0.16277 0.49625 0.0
H47 H 0.92712 0.15534 0.46335 0.0
H48 H 0.9639 0.20067 0.4214 0.0
H49 H 0.01166 0.23686 0.40409 0.0
H50 H 0.97509 0.17807 0.35551 0.0
H51 H 0.92717 0.14172 0.37253 0.0
N52 N 0.88894 0.12051 0.39983 0.0
N53 N 0.85821 0.10513 0.42684 0.0
N54 N 0.90859 0.15086 0.4269 0.0
C55 C 0.86188 0.09988 0.40874 0.0
C56 C 0.88147 0.1305 0.436 0.0
C57 C 0.91234 0.14609 0.40868 0.0
C58 C 0.83769 0.07107 0.39905 0.0
C59 C 0.8428 0.06499 0.38065 0.0
C60 C 0.82168 0.03666 0.372 0.0
C61 C 0.79501 0.01394 0.38155 0.0
C62 C 0.78905 0.02022 0.39963 0.0
C63 C 0.8102 0.04858 0.40832 0.0
C64 C 0.87716 0.13559 0.45576 0.0
C65 C 0.84653 0.12684 0.46247 0.0
C66 C 0.84225 0.1319 0.48106 0.0
C67 C 0.86836 0.14505 0.49344 0.0
C68 C 0.89886 0.15288 0.48689 0.0
C69 C 0.90332 0.14873 0.46813 0.0
C70 C 0.94155 0.16822 0.39841 0.0
C71 C 0.96588 0.19536 0.40705 0.0
C72 C 0.7925 0.78509 0.39952 0.0
C73 C 0.79164 0.78499 0.38004 0.0
C74 C 0.8127 0.77844 0.37022 0.0
C75 C 0.83522 0.7735 0.37972 0.0
H76 H 0.92759 0.78985 0.37326 0.0
H77 H 0.97595 0.7995 0.35679 0.0
H78 H 0.01109 0.77772 0.40623 0.0
H79 H 0.96285 0.76793 0.42292 0.0
H80 H 0.92011 0.74952 0.46044 0.0
H81 H 0.90943 0.72981 0.49228 0.0
H82 H 0.81786 0.72503 0.49047 0.0
H83 H 0.8281 0.74465 0.45871 0.0
H84 H 0.81492 0.78034 0.42406 0.0
H85 H 0.77633 0.7899 0.40738 0.0
H86 H 0.81225 0.77798 0.3552 0.0
H87 H 0.85155 0.76913 0.37174 0.0
N88 N 0.88834 0.77512 0.4005 0.0
N89 N 0.90709 0.76368 0.4278 0.0
N90 N 0.85759 0.76207 0.42755 0.0
C91 C 0.91143 0.77207 0.40956 0.0
C92 C 0.88017 0.75857 0.43692 0.0
C93 C 0.8614 0.77024 0.40935 0.0
C94 C 0.94107 0.77804 0.39953 0.0
C95 C 0.94554 0.78712 0.38073 0.0
C96 C 0.97324 0.79274 0.37123 0.0
C97 C 0.99719 0.78949 0.38029 0.0
C98 C 0.99296 0.78052 0.399 0.0
C99 C 0.96526 0.77487 0.40852 0.0
C100 C 0.87489 0.74849 0.45678 0.0
C101 C 0.89776 0.74453 0.4668 0.0
C102 C 0.89177 0.73336 0.48507 0.0
C103 C 0.86281 0.72586 0.49375 0.0
C104 C 0.84037 0.73068 0.48406 0.0
C105 C 0.84631 0.74184 0.46582 0.0
C106 C 0.83666 0.77428 0.39927 0.0
C107 C 0.8146 0.77961 0.40904 0.0
C108 C 0.01347 0.22948 0.61535 0.0
C109 C 0.00654 0.21636 0.63311 0.0
C110 C 0.02751 0.20811 0.64153 0.0
C111 C 0.05494 0.21266 0.63223 0.0
H112 H 0.15005 0.22887 0.64095 0.0
H113 H 0.18841 0.21764 0.65667 0.0
H114 H 0.21967 0.20249 0.60373 0.0
H115 H 0.1821 0.21435 0.58787 0.0
H116 H 0.17499 0.27032 0.55645 0.0
H117 H 0.18136 0.28804 0.52426 0.0
H118 H 0.07897 0.24494 0.51831 0.0
H119 H 0.07244 0.22821 0.55075 0.0
H120 H 0.04516 0.24368 0.59218 0.0
H121 H 0.9974 0.23576 0.60859 0.0
H122 H 0.02236 0.19772 0.65519 0.0
H123 H 0.07045 0.20573 0.63904 0.0
N124 N 0.11284 0.22484 0.6128 0.0
N125 N 0.14189 0.23531 0.58515 0.0
N126 N 0.0937 0.23618 0.58567 0.0
C127 C 0.13872 0.22789 0.60348 0.0
C128 C 0.11945 0.23948 0.57614 0.0
C129 C 0.09021 0.22897 0.60401 0.0
C130 C 0.16278 0.22232 0.61312 0.0
C131 C 0.16513 0.22323 0.63263 0.0
C132 C 0.18705 0.21687 0.64166 0.0
C133 C 0.20651 0.20877 0.63137 0.0
C134 C 0.20464 0.20839 0.61192 0.0
C135 C 0.18318 0.21527 0.60288 0.0
C136 C 0.12323 0.24814 0.55623 0.0
C137 C 0.1538 0.26448 0.54828 0.0
C138 C 0.15749 0.27464 0.52988 0.0
C139 C 0.13067 0.26811 0.51892 0.0
C140 C 0.1 0.2505 0.52656 0.0
C141 C 0.09634 0.24104 0.54511 0.0
C142 C 0.06175 0.22526 0.61423 0.0
C143 C 0.04073 0.23381 0.60597 0.0
C144 C 0.77347 0.79066 0.61563 0.0
C145 C 0.77049 0.78743 0.63497 0.0
C146 C 0.7564 0.80186 0.64485 0.0
C147 C 0.74665 0.82046 0.6355 0.0
H148 H 0.77347 0.91471 0.64017 0.0
H149 H 0.78945 0.96461 0.65535 0.0
H150 H 0.74533 0.98878 0.61124 0.0
H151 H 0.72959 0.93896 0.59563 0.0
H152 H 0.75975 0.91059 0.55254 0.0
H153 H 0.74926 0.90447 0.51894 0.0
H154 H 0.6814 0.80668 0.52655 0.0
H155 H 0.6931 0.81233 0.5599 0.0
H156 H 0.76637 0.81119 0.59139 0.0
H157 H 0.78409 0.77943 0.60779 0.0
H158 H 0.75355 0.7992 0.65974 0.0
H159 H 0.73662 0.83216 0.64341 0.0
N160 N 0.74676 0.87176 0.61562 0.0
N161 N 0.73744 0.89102 0.58805 0.0
N162 N 0.73644 0.84303 0.58803 0.0
C163 C 0.74388 0.89422 0.60657 0.0
C164 C 0.73341 0.86529 0.57879 0.0
C165 C 0.74313 0.8462 0.60648 0.0
C166 C 0.75051 0.923 0.61657 0.0
C167 C 0.76674 0.93038 0.63375 0.0
C168 C 0.77591 0.95886 0.64249 0.0
C169 C 0.7686 0.98022 0.63435 0.0
C170 C 0.75115 0.97244 0.61765 0.0
C171 C 0.74231 0.94408 0.60875 0.0
C172 C 0.72699 0.86195 0.5587 0.0
C173 C 0.74268 0.88782 0.54696 0.0
C174 C 0.73686 0.88435 0.52784 0.0
C175 C 0.71431 0.85521 0.52035 0.0
C176 C 0.69879 0.82936 0.5321 0.0
C177 C 0.70541 0.83261 0.55109 0.0
C178 C 0.75015 0.82412 0.61614 0.0
C179 C 0.7631 0.80858 0.60627 0.0
C180 C 0.19694 0.98026 0.61298 0.0
C181 C 0.20748 0.98026 0.63117 0.0
C182 C 0.19738 0.95159 0.64006 0.0
C183 C 0.17573 0.9235 0.63118 0.0
H184 H 0.05778 0.85985 0.62751 0.0
H185 H 0.00574 0.8234 0.6407 0.0
H186 H 0.01003 0.74601 0.61587 0.0
H187 H 0.06139 0.78289 0.60148 0.0
H188 H 0.07325 0.82894 0.55162 0.0
H189 H 0.07859 0.82093 0.51857 0.0
H190 H 0.18028 0.8845 0.52237 0.0
H191 H 0.17513 0.89345 0.55521 0.0
H192 H 0.16818 0.95307 0.59 0.0
H193 H 0.20439 0.00208 0.60586 0.0
H194 H 0.20542 0.95109 0.65404 0.0
H195 H 0.1675 0.90165 0.63841 0.0
N196 N 0.1156 0.87248 0.61308 0.0
N197 N 0.09575 0.84301 0.58564 0.0
N198 N 0.14377 0.8909 0.58525 0.0
C199 C 0.09287 0.84654 0.60407 0.0
C200 C 0.12116 0.86513 0.57615 0.0
C201 C 0.14128 0.89459 0.60372 0.0
C202 C 0.06351 0.82405 0.61363 0.0
C203 C 0.04775 0.83505 0.62502 0.0
C204 C 0.01802 0.81427 0.63248 0.0
C205 C 0.00406 0.782 0.62927 0.0
C206 C 0.0204 0.77081 0.61847 0.0
C207 C 0.04965 0.7918 0.61034 0.0
C208 C 0.12388 0.86149 0.55604 0.0
C209 C 0.09671 0.84141 0.54538 0.0
C210 C 0.09962 0.83697 0.52651 0.0
C211 C 0.12984 0.85187 0.5182 0.0
C212 C 0.1568 0.87273 0.52863 0.0
C213 C 0.15381 0.87771 0.54738 0.0
C214 C 0.16492 0.92371 0.61307 0.0
C215 C 0.17623 0.95228 0.60394 0.0
C216 C 0.88543 0.34761 0.7314 0.0
C217 C 0.8939 0.34718 0.71283 0.0
C218 C 0.9129 0.37558 0.70368 0.0
C219 C 0.92217 0.40394 0.71284 0.0
H220 H 0.92403 0.49194 0.70384 0.0
H221 H 0.90865 0.52629 0.6879 0.0
H222 H 0.89161 0.55631 0.74075 0.0
H223 H 0.90769 0.52295 0.75676 0.0
H224 H 0.93437 0.50625 0.79314 0.0
H225 H 0.94931 0.51314 0.826 0.0
H226 H 0.96254 0.43323 0.82362 0.0
H227 H 0.94751 0.42588 0.79073 0.0
H228 H 0.88856 0.3753 0.755 0.0
H229 H 0.87093 0.32598 0.73875 0.0
H230 H 0.92004 0.37573 0.68944 0.0
H231 H 0.9361 0.42564 0.70546 0.0
N232 N 0.91933 0.45619 0.73199 0.0
N233 N 0.92956 0.48465 0.75977 0.0
N234 N 0.92819 0.43661 0.7596 0.0
C235 C 0.92306 0.48178 0.74125 0.0
C236 C 0.93253 0.4623 0.76901 0.0
C237 C 0.92174 0.43351 0.7411 0.0
C238 C 0.91697 0.50465 0.73157 0.0
C239 C 0.91737 0.50616 0.71206 0.0
C240 C 0.90861 0.52571 0.70292 0.0
C241 C 0.89871 0.54352 0.71316 0.0
C242 C 0.89911 0.54264 0.73262 0.0
C243 C 0.9084 0.52362 0.74175 0.0
C244 C 0.93998 0.46565 0.78919 0.0
C245 C 0.94026 0.48997 0.79956 0.0
C246 C 0.94863 0.49389 0.81836 0.0
C247 C 0.95699 0.47369 0.82713 0.0
C248 C 0.95603 0.44895 0.81704 0.0
C249 C 0.94751 0.44489 0.79824 0.0
C250 C 0.91371 0.40416 0.73147 0.0
C251 C 0.89566 0.37578 0.74071 0.0
C252 C 0.65752 0.55328 0.73006 0.0
C253 C 0.66042 0.54878 0.71109 0.0
C254 C 0.63438 0.52468 0.70151 0.0
C255 C 0.60647 0.50421 0.71103 0.0
H256 H 0.53398 0.41356 0.70693 0.0
H257 H 0.49766 0.36325 0.69225 0.0
H258 H 0.43854 0.33485 0.74095 0.0
H259 H 0.47465 0.38503 0.75588 0.0
H260 H 0.52421 0.42038 0.7955 0.0
H261 H 0.51491 0.42649 0.82826 0.0
H262 H 0.55174 0.52492 0.8199 0.0
H263 H 0.56239 0.5192 0.78728 0.0
H264 H 0.62852 0.53657 0.75432 0.0
H265 H 0.6774 0.57185 0.73766 0.0
H266 H 0.63623 0.52092 0.68686 0.0
H267 H 0.58722 0.48516 0.70336 0.0
N268 N 0.55468 0.45644 0.73232 0.0
N269 N 0.52688 0.43794 0.76019 0.0
N270 N 0.57222 0.48804 0.75906 0.0
C271 C 0.53002 0.43345 0.7419 0.0
C272 C 0.54774 0.46513 0.76884 0.0
C273 C 0.57591 0.48379 0.74074 0.0
C274 C 0.50741 0.40338 0.73266 0.0
C275 C 0.51322 0.39675 0.71455 0.0
C276 C 0.49254 0.36799 0.70612 0.0
C277 C 0.4656 0.3454 0.71558 0.0
C278 C 0.45935 0.35201 0.7335 0.0
C279 C 0.48006 0.38071 0.74199 0.0
C280 C 0.5438 0.4693 0.78882 0.0
C281 C 0.53056 0.44337 0.80069 0.0
C282 C 0.52532 0.44681 0.8194 0.0
C283 C 0.53223 0.47606 0.82644 0.0
C284 C 0.54609 0.50212 0.81471 0.0
C285 C 0.55217 0.49884 0.7961 0.0
C286 C 0.60398 0.50767 0.73028 0.0
C287 C 0.62954 0.53302 0.73956 0.0
C288 C 0.46719 0.12566 0.73156 0.0
C289 C 0.46109 0.11971 0.71245 0.0
C290 C 0.47711 0.10714 0.70259 0.0
C291 C 0.49913 0.10098 0.71169 0.0
H292 H 0.58976 0.11095 0.70334 0.0
H293 H 0.63953 0.12375 0.68744 0.0
H294 H 0.67815 0.11022 0.73828 0.0
H295 H 0.62852 0.09717 0.75437 0.0
H296 H 0.58683 0.07931 0.79131 0.0
H297 H 0.5792 0.06416 0.82328 0.0
H298 H 0.48464 0.05314 0.82103 0.0
H299 H 0.49265 0.06866 0.78927 0.0
H300 H 0.49262 0.1236 0.75546 0.0
H301 H 0.45477 0.13496 0.73949 0.0
H302 H 0.47225 0.10173 0.68795 0.0
H303 H 0.51115 0.09123 0.70378 0.0
N304 N 0.55378 0.10273 0.73144 0.0
N305 N 0.5717 0.08973 0.75848 0.0
N306 N 0.52403 0.09161 0.75883 0.0
C307 C 0.57592 0.09794 0.74025 0.0
C308 C 0.54567 0.08623 0.76785 0.0
C309 C 0.5279 0.09977 0.7406 0.0
C310 C 0.6051 0.10324 0.73024 0.0
C311 C 0.60866 0.11039 0.71117 0.0
C312 C 0.63703 0.11764 0.70199 0.0
C313 C 0.66245 0.11809 0.71174 0.0
C314 C 0.65873 0.11005 0.73057 0.0
C315 C 0.63033 0.10262 0.73974 0.0
C316 C 0.54113 0.07709 0.7878 0.0
C317 C 0.56493 0.07507 0.79795 0.0
C318 C 0.5608 0.06726 0.81681 0.0
C319 C 0.53339 0.06268 0.82664 0.0
C320 C 0.50826 0.06124 0.81562 0.0
C321 C 0.5124 0.06924 0.79682 0.0
C322 C 0.5048 0.10644 0.7309 0.0
C323 C 0.48859 0.11887 0.74071 0.0
C324 C 0.68541 0.56764 0.94534 0.0
C325 C 0.67224 0.54561 0.95966 0.0
C326 C 0.68898 0.53077 0.96576 0.0
C327 C 0.71802 0.53752 0.95769 0.0
H328 H 0.80876 0.54986 0.97159 0.0
H329 H 0.84525 0.53734 0.9883 0.0
H330 H 0.89714 0.548 0.93785 0.0
H331 H 0.86116 0.56085 0.921 0.0
H332 H 0.84541 0.59172 0.88524 0.0
H333 H 0.85477 0.6101 0.85305 0.0
H334 H 0.76149 0.60152 0.85094 0.0
H335 H 0.75182 0.58334 0.88296 0.0
H336 H 0.72317 0.59012 0.92549 0.0
H337 H 0.67296 0.57937 0.94036 0.0
H338 H 0.67931 0.51355 0.97668 0.0
H339 H 0.73006 0.52541 0.96269 0.0
N340 N 0.78181 0.55858 0.94287 0.0
N341 N 0.81379 0.57137 0.9163 0.0
N342 N 0.76594 0.57296 0.91559 0.0
C343 C 0.80868 0.56241 0.93441 0.0
C344 C 0.7925 0.57665 0.90675 0.0
C345 C 0.76039 0.5639 0.93361 0.0
C346 C 0.83173 0.55617 0.94482 0.0
C347 C 0.82801 0.54973 0.964 0.0
C348 C 0.8489 0.54265 0.97365 0.0
C349 C 0.87375 0.54153 0.96429 0.0
C350 C 0.87803 0.54863 0.94531 0.0
C351 C 0.85735 0.55595 0.93569 0.0
C352 C 0.79796 0.58631 0.88689 0.0
C353 C 0.82675 0.59352 0.87793 0.0
C354 C 0.83216 0.60395 0.8595 0.0
C355 C 0.80881 0.60716 0.84964 0.0
C356 C 0.77977 0.59914 0.85831 0.0
C357 C 0.7744 0.58888 0.87669 0.0
C358 C 0.73063 0.55858 0.94289 0.0
C359 C 0.71404 0.57367 0.93682 0.0
C360 C 0.41945 0.10962 0.9509 0.0
C361 C 0.43784 0.11972 0.96725 0.0
C362 C 0.44593 0.14875 0.975 0.0
C363 C 0.43644 0.16792 0.96628 0.0
H364 H 0.44731 0.25223 0.97096 0.0
H365 H 0.46348 0.30253 0.98559 0.0
H366 H 0.41473 0.32357 0.94272 0.0
H367 H 0.39861 0.27312 0.92764 0.0
H368 H 0.42994 0.2422 0.88504 0.0
H369 H 0.41875 0.23632 0.85159 0.0
H370 H 0.34584 0.14025 0.8597 0.0
H371 H 0.35828 0.14557 0.89303 0.0
H372 H 0.39671 0.12101 0.92916 0.0
H373 H 0.41305 0.08717 0.94479 0.0
H374 H 0.46022 0.15685 0.98758 0.0
H375 H 0.44379 0.19057 0.97241 0.0
N376 N 0.41735 0.20716 0.94793 0.0
N377 N 0.40653 0.22482 0.92027 0.0
N378 N 0.40397 0.17608 0.92114 0.0
C379 C 0.41428 0.22925 0.93858 0.0
C380 C 0.4012 0.19821 0.91154 0.0
C381 C 0.41223 0.18056 0.93939 0.0
C382 C 0.4219 0.25878 0.94802 0.0
C383 C 0.43972 0.26733 0.96465 0.0
C384 C 0.44906 0.29607 0.97305 0.0
C385 C 0.44049 0.31665 0.96511 0.0
C386 C 0.42169 0.3079 0.94891 0.0
C387 C 0.41261 0.27919 0.94033 0.0
C388 C 0.39464 0.19441 0.8915 0.0
C389 C 0.41168 0.21981 0.87961 0.0
C390 C 0.40547 0.21645 0.86056 0.0
C391 C 0.38122 0.18798 0.85327 0.0
C392 C 0.36455 0.16242 0.86512 0.0
C393 C 0.37155 0.16549 0.88409 0.0
C394 C 0.41903 0.15854 0.94948 0.0
C395 C 0.41021 0.12897 0.94201 0.0
C396 C 0.86292 0.31391 0.94741 0.0
C397 C 0.87055 0.31346 0.96619 0.0
C398 C 0.85772 0.2847 0.97535 0.0
C399 C 0.83635 0.25699 0.96603 0.0
H400 H 0.74257 0.18254 0.97363 0.0
H401 H 0.69396 0.14654 0.99009 0.0
H402 H 0.65596 0.09113 0.94038 0.0
H403 H 0.70462 0.12717 0.92353 0.0
H404 H 0.74699 0.15408 0.8846 0.0
H405 H 0.75825 0.14784 0.85217 0.0
H406 H 0.85099 0.23056 0.85683 0.0
H407 H 0.8402 0.23724 0.88904 0.0
H408 H 0.83691 0.28741 0.92352 0.0
H409 H 0.87281 0.33582 0.94003 0.0
H410 H 0.86376 0.28381 0.98973 0.0
H411 H 0.8261 0.23508 0.97342 0.0
N412 N 0.77943 0.20659 0.94628 0.0
N413 N 0.76085 0.17739 0.91864 0.0
N414 N 0.80913 0.22524 0.91906 0.0
C415 C 0.75682 0.18089 0.93707 0.0
C416 C 0.78721 0.19953 0.90956 0.0
C417 C 0.80549 0.22882 0.93738 0.0
C418 C 0.72764 0.1579 0.94714 0.0
C419 C 0.72404 0.1627 0.96608 0.0
C420 C 0.69625 0.14218 0.97559 0.0
C421 C 0.67148 0.11635 0.96641 0.0
C422 C 0.67495 0.11107 0.94764 0.0
C423 C 0.70278 0.13167 0.93805 0.0
C424 C 0.79271 0.19604 0.88958 0.0
C425 C 0.76969 0.17109 0.87873 0.0
C426 C 0.77601 0.16756 0.86017 0.0
C427 C 0.80542 0.18881 0.85216 0.0
C428 C 0.82811 0.21405 0.86275 0.0
C429 C 0.82182 0.21769 0.88123 0.0
C430 C 0.82866 0.25761 0.94724 0.0
C431 C 0.84252 0.28626 0.93797 0.0
C432 C 0.55395 0.68251 0.06333 0.0
C433 C 0.56311 0.68301 0.04481 0.0
C434 C 0.58157 0.71178 0.03597 0.0
C435 C 0.58948 0.73961 0.04535 0.0
H436 H 0.56082 0.80823 0.03877 0.0
H437 H 0.54507 0.84206 0.02314 0.0
H438 H 0.58135 0.90679 0.06916 0.0
H439 H 0.59688 0.87272 0.08528 0.0
H440 H 0.59711 0.83972 0.12576 0.0
H441 H 0.61331 0.84715 0.15849 0.0
H442 H 0.63037 0.76966 0.15518 0.0
H443 H 0.61409 0.76174 0.12257 0.0
H444 H 0.55505 0.7091 0.08707 0.0
H445 H 0.53994 0.66052 0.07044 0.0
H446 H 0.5893 0.7126 0.0218 0.0
H447 H 0.60302 0.76162 0.03819 0.0
N448 N 0.58343 0.78987 0.0644 0.0
N449 N 0.59332 0.81876 0.09197 0.0
N450 N 0.59313 0.77119 0.09202 0.0
C451 C 0.58655 0.81537 0.07346 0.0
C452 C 0.59684 0.79676 0.10132 0.0
C453 C 0.58666 0.76777 0.07356 0.0
C454 C 0.57997 0.83763 0.06339 0.0
C455 C 0.56588 0.8298 0.04558 0.0
C456 C 0.55684 0.84909 0.03656 0.0
C457 C 0.56207 0.87679 0.04502 0.0
C458 C 0.5772 0.88542 0.06246 0.0
C459 C 0.58596 0.86591 0.07164 0.0
C460 C 0.60459 0.80033 0.12144 0.0
C461 C 0.60402 0.82405 0.13199 0.0
C462 C 0.61303 0.82821 0.15072 0.0
C463 C 0.6229 0.80887 0.15913 0.0
C464 C 0.6226 0.78463 0.14887 0.0
C465 C 0.6134 0.7803 0.13021 0.0
C466 C 0.58015 0.73895 0.06387 0.0
C467 C 0.56275 0.71022 0.07285 0.0
C468 C 0.32761 0.88092 0.06425 0.0
C469 C 0.32789 0.87923 0.0448 0.0
C470 C 0.3004 0.85695 0.03538 0.0
C471 C 0.27322 0.83612 0.04527 0.0
H472 H 0.20197 0.74483 0.04106 0.0
H473 H 0.16558 0.6948 0.02619 0.0
H474 H 0.10002 0.6709 0.07173 0.0
H475 H 0.13638 0.72083 0.08694 0.0
H476 H 0.16475 0.75462 0.12449 0.0
H477 H 0.15372 0.76138 0.15661 0.0
H478 H 0.23887 0.85194 0.15851 0.0
H479 H 0.25037 0.84561 0.12615 0.0
H480 H 0.30084 0.86193 0.08918 0.0
H481 H 0.34862 0.89821 0.07172 0.0
H482 H 0.30012 0.8555 0.02037 0.0
H483 H 0.2525 0.81899 0.03754 0.0
N484 N 0.22181 0.78797 0.06612 0.0
N485 N 0.19174 0.77019 0.09323 0.0
N486 N 0.24004 0.81804 0.09345 0.0
C487 C 0.19559 0.76591 0.07504 0.0
C488 C 0.2137 0.79605 0.10259 0.0
C489 C 0.24413 0.81411 0.07511 0.0
C490 C 0.1723 0.73676 0.06531 0.0
C491 C 0.17974 0.72912 0.04791 0.0
C492 C 0.15903 0.70053 0.03938 0.0
C493 C 0.13041 0.67918 0.048 0.0
C494 C 0.1222 0.68709 0.06499 0.0
C495 C 0.14304 0.7156 0.07363 0.0
C496 C 0.20838 0.79974 0.12255 0.0
C497 C 0.18141 0.77598 0.13166 0.0
C498 C 0.17504 0.77964 0.15009 0.0
C499 C 0.19545 0.8071 0.15986 0.0
C500 C 0.22291 0.83052 0.15113 0.0
C501 C 0.22935 0.8269 0.13263 0.0
C502 C 0.2728 0.83738 0.06482 0.0
C503 C 0.30025 0.86028 0.07419 0.0
C504 C 0.11593 0.4257 0.05949 0.0
C505 C 0.12633 0.45312 0.04911 0.0
C506 C 0.15937 0.47302 0.04661 0.0
C507 C 0.1815 0.46591 0.05444 0.0
H508 H 0.25841 0.44833 0.03848 0.0
H509 H 0.30782 0.46049 0.02237 0.0
H510 H 0.34704 0.44769 0.07318 0.0
H511 H 0.29769 0.43522 0.08949 0.0
H512 H 0.25142 0.40919 0.12553 0.0
H513 H 0.24151 0.39189 0.15785 0.0
H514 H 0.15527 0.39756 0.15762 0.0
H515 H 0.1646 0.41454 0.12536 0.0
H516 H 0.12963 0.39876 0.07662 0.0
H517 H 0.09062 0.40999 0.06164 0.0
H518 H 0.16809 0.4944 0.03881 0.0
H519 H 0.2068 0.48184 0.0524 0.0
N520 N 0.22193 0.43911 0.06645 0.0
N521 N 0.24016 0.42668 0.09358 0.0
N522 N 0.1907 0.42511 0.09333 0.0
C523 C 0.24457 0.43524 0.0754 0.0
C524 C 0.2133 0.42168 0.10268 0.0
C525 C 0.1949 0.43387 0.07528 0.0
C526 C 0.27403 0.44105 0.0654 0.0
C527 C 0.27739 0.44787 0.04628 0.0
C528 C 0.30557 0.45471 0.03697 0.0
C529 C 0.33107 0.45512 0.04661 0.0
C530 C 0.32759 0.44754 0.06553 0.0
C531 C 0.29936 0.4405 0.07483 0.0
C532 C 0.20859 0.41287 0.12265 0.0
C533 C 0.23041 0.40695 0.13234 0.0
C534 C 0.2249 0.39721 0.15085 0.0
C535 C 0.1976 0.39334 0.16007 0.0
C536 C 0.17647 0.4004 0.15073 0.0
C537 C 0.18182 0.40993 0.13222 0.0
C538 C 0.17116 0.43947 0.06563 0.0
C539 C 0.13818 0.41935 0.06807 0.0
C540 C 0.35078 0.9006 0.28187 0.0
C541 C 0.33594 0.87609 0.29463 0.0
C542 C 0.3513 0.85928 0.29951 0.0
C543 C 0.38073 0.86667 0.29177 0.0
H544 H 0.47739 0.88784 0.30666 0.0
H545 H 0.51556 0.87723 0.32298 0.0
H546 H 0.56313 0.88342 0.27143 0.0
H547 H 0.52541 0.89437 0.25494 0.0
H548 H 0.51035 0.93517 0.22138 0.0
H549 H 0.51706 0.95327 0.18927 0.0
H550 H 0.41549 0.9175 0.1845 0.0
H551 H 0.40861 0.90011 0.21673 0.0
H552 H 0.39007 0.92549 0.26329 0.0
H553 H 0.33944 0.91391 0.2779 0.0
H554 H 0.3403 0.84017 0.30924 0.0
H555 H 0.39182 0.85312 0.29571 0.0
N556 N 0.44688 0.89194 0.27809 0.0
N557 N 0.47762 0.90442 0.25099 0.0
N558 N 0.4287 0.9039 0.2508 0.0
C559 C 0.47371 0.89639 0.26926 0.0
C560 C 0.45509 0.90807 0.24166 0.0
C561 C 0.42443 0.89589 0.26897 0.0
C562 C 0.49802 0.8917 0.27939 0.0
C563 C 0.49607 0.88717 0.29875 0.0
C564 C 0.51794 0.88123 0.30816 0.0
C565 C 0.54205 0.87938 0.2984 0.0
C566 C 0.54467 0.88473 0.27921 0.0
C567 C 0.52299 0.89092 0.2698 0.0
C568 C 0.45904 0.91666 0.22175 0.0
C569 C 0.48941 0.931 0.2135 0.0
C570 C 0.49328 0.94134 0.19514 0.0
C571 C 0.46683 0.93713 0.1846 0.0
C572 C 0.43625 0.9213 0.19246 0.0
C573 C 0.43243 0.9115 0.21092 0.0
C574 C 0.39485 0.8902 0.27841 0.0
C575 C 0.37965 0.90716 0.27354 0.0
C576 C 0.10243 0.45091 0.28054 0.0
C577 C 0.11057 0.45591 0.29942 0.0
C578 C 0.10744 0.47871 0.30924 0.0
C579 C 0.09731 0.49712 0.30015 0.0
H580 H 0.10714 0.58192 0.306 0.0
H581 H 0.12346 0.63219 0.3208 0.0
H582 H 0.09266 0.6616 0.27257 0.0
H583 H 0.07636 0.61132 0.2574 0.0
H584 H 0.09619 0.57697 0.2168 0.0
H585 H 0.08274 0.57044 0.18359 0.0
H586 H 0.01397 0.47327 0.19249 0.0
H587 H 0.02862 0.47931 0.2255 0.0
H588 H 0.08687 0.46552 0.25669 0.0
H589 H 0.10456 0.43317 0.27284 0.0
H590 H 0.11342 0.48261 0.32388 0.0
H591 H 0.09577 0.51497 0.30808 0.0
N592 N 0.08749 0.54137 0.27991 0.0
N593 N 0.0759 0.55899 0.25247 0.0
N594 N 0.07458 0.51083 0.25289 0.0
C595 C 0.08384 0.56334 0.27077 0.0
C596 C 0.07101 0.53271 0.24353 0.0
C597 C 0.08299 0.51512 0.27113 0.0
C598 C 0.09083 0.59267 0.28037 0.0
C599 C 0.10356 0.59888 0.2985 0.0
C600 C 0.11295 0.6276 0.30702 0.0
C601 C 0.10959 0.65054 0.29764 0.0
C602 C 0.09564 0.64412 0.27989 0.0
C603 C 0.08639 0.61541 0.27128 0.0
C604 C 0.06321 0.52865 0.22361 0.0
C605 C 0.07834 0.55421 0.21159 0.0
C606 C 0.07081 0.55051 0.19268 0.0
C607 C 0.04711 0.52148 0.18568 0.0
C608 C 0.03223 0.49587 0.19768 0.0
C609 C 0.04054 0.49933 0.21647 0.0
C610 C 0.09015 0.49309 0.28104 0.0
C611 C 0.09222 0.46933 0.27139 0.0
C612 C 0.54 0.64245 0.28019 0.0
C613 C 0.53905 0.64345 0.29964 0.0
C614 C 0.5175 0.61648 0.30926 0.0
C615 C 0.49601 0.58943 0.29949 0.0
H616 H 0.39606 0.52722 0.29893 0.0
H617 H 0.34675 0.49168 0.31513 0.0
H618 H 0.32857 0.41874 0.27574 0.0
H619 H 0.37769 0.45443 0.25907 0.0
H620 H 0.41304 0.4878 0.21633 0.0
H621 H 0.42412 0.48141 0.18394 0.0
H622 H 0.51839 0.56193 0.18905 0.0
H623 H 0.50778 0.56874 0.22132 0.0
H624 H 0.51982 0.61561 0.25544 0.0
H625 H 0.5565 0.66301 0.27251 0.0
H626 H 0.51657 0.61675 0.32427 0.0
H627 H 0.47899 0.56922 0.30723 0.0
N628 N 0.44424 0.54025 0.27778 0.0
N629 N 0.42605 0.5114 0.25002 0.0
N630 N 0.47636 0.55706 0.25137 0.0
C631 C 0.42118 0.5154 0.26821 0.0
C632 C 0.45373 0.53231 0.24148 0.0
C633 C 0.4719 0.5611 0.26951 0.0
C634 C 0.39091 0.49363 0.27771 0.0
C635 C 0.38167 0.5036 0.29368 0.0
C636 C 0.3535 0.48338 0.30299 0.0
C637 C 0.33432 0.45257 0.29676 0.0
C638 C 0.34333 0.44243 0.28083 0.0
C639 C 0.37126 0.46286 0.27128 0.0
C640 C 0.45955 0.52863 0.22159 0.0
C641 C 0.43609 0.50427 0.2106 0.0
C642 C 0.44231 0.50064 0.19206 0.0
C643 C 0.47206 0.5212 0.18417 0.0
C644 C 0.49528 0.54589 0.1949 0.0
C645 C 0.4891 0.5496 0.21339 0.0
C646 C 0.4962 0.58875 0.27996 0.0
C647 C 0.51897 0.61532 0.27045 0.0
Tb648 Tb 0.48758 0.97955 0.98213 0.0
C649 C 0.56312 0.08694 0.03487 0.0
C650 C 0.61559 0.0924 0.03315 0.0
C651 C 0.61051 0.13857 0.03654 0.0
C652 C 0.58189 0.07366 0.03264 0.0
C653 C 0.57716 0.11942 0.0378 0.0
C654 C 0.62976 0.12502 0.03418 0.0
C655 C 0.52523 0.11066 0.04668 0.0
N656 N 0.53121 0.06749 0.03637 0.0
C657 C 0.51271 0.0786 0.04385 0.0
C658 C 0.55748 0.13132 0.04309 0.0
Tb659 Tb 0.51162 0.01561 0.02861 0.0
N660 N 0.56707 0.04206 0.03202 0.0
C661 C 0.58513 0.02792 0.03458 0.0
C662 C 0.63394 0.07779 0.03379 0.0
C663 C 0.61857 0.04542 0.03516 0.0
H664 H 0.48796 0.06274 0.04707 0.0
H665 H 0.63245 0.03382 0.03662 0.0
H666 H 0.65555 0.13982 0.03421 0.0
H667 H 0.51008 0.11938 0.05177 0.0
H668 H 0.5746 0.00312 0.03626 0.0
H669 H 0.36644 0.96078 0.97544 0.0
H670 H 0.65984 0.09127 0.03424 0.0
H671 H 0.51206 0.93252 0.96445 0.0
H672 H 0.42429 0.99179 0.97556 0.0
H673 H 0.49008 0.87588 0.95964 0.0
H674 H 0.62173 0.16363 0.03837 0.0
H675 H 0.33944 0.90327 0.97708 0.0
H676 H 0.34406 0.85498 0.97627 0.0
H677 H 0.56728 0.1561 0.0455 0.0
H678 H 0.37808 0.83144 0.97197 0.0
N679 N 0.43218 0.95293 0.97894 0.0
C680 C 0.41391 0.96695 0.9769 0.0
C681 C 0.36533 0.91689 0.97741 0.0
C682 C 0.38387 0.90245 0.97757 0.0
C683 C 0.38048 0.94928 0.97647 0.0
C684 C 0.41756 0.92134 0.97805 0.0
H685 H 0.43268 0.83912 0.96529 0.0
N686 N 0.46848 0.92764 0.97466 0.0
C687 C 0.47478 0.88455 0.96456 0.0
C688 C 0.4365 0.90817 0.97586 0.0
C689 C 0.48724 0.91658 0.96748 0.0
C690 C 0.44241 0.86388 0.96778 0.0
C691 C 0.42257 0.87572 0.97285 0.0
O692 O 0.51596 0.98815 0.95849 0.0
O693 O 0.52292 0.01809 0.99938 0.0
O694 O 0.49743 0.0449 0.01347 0.0
O695 O 0.47546 0.01643 0.98601 0.0
O696 O 0.53926 0.0004 0.97924 0.0
O697 O 0.4753 0.99459 0.95746 0.0
O698 O 0.4849 0.0093 0.0528 0.0
O699 O 0.47593 0.97749 0.01133 0.0
O700 O 0.50162 0.95019 0.99746 0.0
O701 O 0.52418 0.97912 0.02466 0.0
O702 O 0.46007 0.99534 0.03162 0.0
O703 O 0.52151 0.99688 0.05232 0.0
C704 C 0.54826 0.0218 0.99177 0.0
C705 C 0.49387 0.98484 0.92884 0.0
C706 C 0.50297 0.99693 0.89577 0.0
C707 C 0.50404 0.00664 0.9143 0.0
C708 C 0.49181 0.96531 0.89191 0.0
C709 C 0.48218 0.95321 0.92463 0.0
C710 C 0.48137 0.94359 0.90627 0.0
C711 C 0.4817 0.03969 0.99758 0.0
C712 C 0.49916 0.99617 0.94823 0.0
C713 C 0.38921 0.85648 0.97391 0.0
C714 C 0.36984 0.86987 0.97631 0.0
C715 C 0.45071 0.97404 0.01902 0.0
C716 C 0.50935 0.01096 0.0813 0.0
C717 C 0.49493 0.99097 0.09643 0.0
C718 C 0.50328 0.00238 0.11472 0.0
C719 C 0.52542 0.03419 0.11765 0.0
C720 C 0.53155 0.04258 0.08449 0.0
C721 C 0.53932 0.05413 0.10262 0.0
C722 C 0.51764 0.95564 0.01326 0.0
C723 C 0.50009 -0.00144 0.06234 0.0
H724 H 0.51329 0.03117 0.91739 0.0
H725 H 0.49106 0.95748 0.87776 0.0
H726 H 0.47417 0.93603 0.93549 0.0
H727 H 0.47279 0.91922 0.90318 0.0
H728 H 0.47752 0.96656 0.09403 0.0
H729 H 0.53195 0.04354 0.13161 0.0
H730 H 0.54276 0.05831 0.07303 0.0
H731 H 0.55629 0.07861 0.10503 0.0
Tb732 Tb 0.02019 0.50447 0.98308 0.0
C733 C 0.9098 0.46833 0.03321 0.0
C734 C 0.90225 0.51303 0.03065 0.0
C735 C 0.85698 0.46212 0.0377 0.0
C736 C 0.92215 0.4997 0.02982 0.0
C737 C 0.87731 0.44941 0.03794 0.0
C738 C 0.86942 0.49388 0.03398 0.0
C739 C 0.88838 0.40809 0.04525 0.0
N740 N 0.93021 0.45697 0.03346 0.0
C741 C 0.92036 0.42775 0.04041 0.0
C742 C 0.86661 0.41877 0.04368 0.0
Tb743 Tb 0.98274 0.49184 0.02706 0.0
N744 N 0.95411 0.51756 0.02716 0.0
C745 C 0.96793 0.54942 0.02661 0.0
C746 C 0.91614 0.5454 0.02903 0.0
C747 C 0.94922 0.56371 0.02738 0.0
H748 H 0.93717 0.41943 0.04174 0.0
H749 H 0.96037 0.58886 0.02655 0.0
H750 H 0.85372 0.50366 0.03448 0.0
H751 H 0.88056 0.38474 0.05019 0.0
H752 H 0.99334 0.56434 0.02525 0.0
H753 H 0.02892 0.39762 0.98582 0.0
H754 H 0.90171 0.55654 0.02962 0.0
H755 H 0.07838 0.57804 0.97361 0.0
H756 H 0.00792 0.4306 0.99557 0.0
H757 H 0.13084 0.60345 0.95927 0.0
H758 H 0.83187 0.44786 0.04105 0.0
H759 H 0.07609 0.41808 0.9656 0.0
H760 H 0.12098 0.46373 0.95012 0.0
H761 H 0.84187 0.40357 0.04751 0.0
H762 H 0.14983 0.52001 0.94398 0.0
N763 N 0.04061 0.47062 0.9795 0.0
C764 C 0.02767 0.44056 0.98606 0.0
C765 C 0.06641 0.43293 0.96938 0.0
C766 C 0.0814 0.46411 0.96397 0.0
C767 C 0.03987 0.42136 0.98081 0.0
C768 C 0.06788 0.48259 0.96928 0.0
H769 H 0.15442 0.5722 0.94808 0.0
N770 N 0.07218 0.53195 0.97264 0.0
C771 C 0.11824 0.57841 0.96121 0.0
C772 C 0.08435 0.51438 0.96591 0.0
C773 C 0.08845 0.56367 0.9698 0.0
C774 C 0.1313 0.56069 0.95477 0.0
C775 C 0.11437 0.52832 0.957 0.0
O776 O 0.02152 0.53933 0.9659 0.0
O777 O 0.98646 0.5115 0.99985 0.0
O778 O 0.95186 0.45002 0.00963 0.0
O779 O 0.98289 0.45575 0.98381 0.0
O780 O 0.97254 0.49302 0.9738 0.0
O781 O 0.01595 0.49564 0.95423 0.0
O782 O 0.98764 0.47274 0.05188 0.0
O783 O 0.02562 0.49863 0.01258 0.0
O784 O 0.04943 0.5476 0.99927 0.0
O785 O 0.02367 0.53989 0.02771 0.0
O786 O 0.00337 0.46142 0.02959 0.0
O787 O 0.99041 0.51752 0.05207 0.0
C788 C 0.96377 0.50246 0.98796 0.0
C789 C 0.01648 0.53346 0.93228 0.0
C790 C 0.00258 0.52354 0.89938 0.0
C791 C 0.00511 0.51269 0.91699 0.0
C792 C 0.01211 0.55519 0.89714 0.0
C793 C 0.02579 0.56499 0.92968 0.0
C794 C 0.02371 0.57575 0.91219 0.0
C795 C 0.95683 0.43939 0.99373 0.0
C796 C 0.01778 0.52251 0.95106 0.0
C797 C 0.12695 0.5097 0.95093 0.0
C798 C 0.11045 0.47765 0.95436 0.0
C799 C 0.02909 0.47735 0.02016 0.0
C800 C 0.97807 0.48925 0.08057 0.0
C801 C 0.99916 0.50004 0.09583 0.0
C802 C 0.98751 0.49086 0.11384 0.0
C803 C 0.95469 0.47062 0.11652 0.0
C804 C 0.94525 0.46947 0.08344 0.0
C805 C 0.93368 0.46002 0.10136 0.0
C806 C 0.04607 0.55771 0.01568 0.0
C807 C 0.99175 0.49628 0.06194 0.0
H808 H 0.99783 0.48827 0.91875 0.0
H809 H 0.01058 0.56398 0.88366 0.0
H810 H 0.03468 0.58139 0.94119 0.0
H811 H 0.03101 0.60011 0.91031 0.0
H812 H 0.02461 0.5153 0.09372 0.0
H813 H 0.94537 0.46324 0.13036 0.0
H814 H 0.92865 0.46107 0.07192 0.0
H815 H 0.90838 0.44443 0.10352 0.0
Tb816 Tb 0.51517 0.49245 0.02906 0.0
C817 C 0.44259 0.52879 0.97775 0.0
C818 C 0.38907 0.48443 0.98019 0.0
C819 C 0.39642 0.53557 0.97321 0.0
C820 C 0.42261 0.49748 0.98113 0.0
C821 C 0.42971 0.54793 0.97294 0.0
C822 C 0.37612 0.50386 0.97691 0.0
C823 C 0.48315 0.58873 0.96544 0.0
N824 N 0.47459 0.53984 0.97754 0.0
C825 C 0.49477 0.56889 0.97045 0.0
C826 C 0.45054 0.57842 0.96705 0.0
Tb827 Tb 0.49111 0.50479 0.98442 0.0
N828 N 0.43604 0.47935 0.98374 0.0
C829 C 0.41696 0.44749 0.9839 0.0
C830 C 0.36958 0.45207 0.98157 0.0
C831 C 0.38364 0.43349 0.98299 0.0
H832 H 0.52004 0.57696 0.96916 0.0
H833 H 0.36885 0.40833 0.98354 0.0
H834 H 0.35044 0.49431 0.97638 0.0
H835 H 0.49934 0.61195 0.96039 0.0
H836 H 0.42678 0.43227 0.98502 0.0
H837 H 0.63245 0.60041 0.02936 0.0
H838 H 0.34375 0.44114 0.98088 0.0
H839 H 0.49889 0.41872 0.03805 0.0
H840 H 0.57902 0.56671 0.0175 0.0
H841 H 0.52553 0.39352 0.05247 0.0
H842 H 0.3861 0.55003 0.96984 0.0
H843 H 0.65756 0.58016 0.05081 0.0
H844 H 0.6558 0.53421 0.06596 0.0
H845 H 0.44157 0.59379 0.96314 0.0
H846 H 0.62793 0.47757 0.07076 0.0
N847 N 0.56987 0.52672 0.03395 0.0
C848 C 0.58788 0.55692 0.02766 0.0
C849 C 0.63309 0.56505 0.04622 0.0
C850 C 0.61634 0.53361 0.0511 0.0
C851 C 0.61905 0.57651 0.03408 0.0
C852 C 0.58441 0.51484 0.04479 0.0
H853 H 0.58038 0.42508 0.06492 0.0
N854 N 0.53935 0.46514 0.0397 0.0
C855 C 0.53825 0.41864 0.05091 0.0
C856 C 0.56887 0.48285 0.04738 0.0
C857 C 0.5235 0.43331 0.04218 0.0
C858 C 0.56901 0.43653 0.05809 0.0
C859 C 0.58461 0.46899 0.05655 0.0
O860 O 0.4808 0.45744 0.04614 0.0
O861 O 0.47457 0.48542 0.01171 0.0
O862 O 0.50214 0.54642 1.00164 0.0
O863 O 0.52758 0.54098 0.02761 0.0
O864 O 0.47893 0.50356 0.0378 0.0
O865 O 0.51898 0.50169 0.05788 0.0
O866 O 0.5161 0.52339 0.95969 0.0
O867 O 0.52704 0.49833 0.99958 0.0
O868 O 0.50045 0.44939 0.01309 0.0
O869 O 0.48188 0.45645 0.98461 0.0
O870 O 0.54303 0.53532 0.98252 0.0
O871 O 0.47279 0.47892 0.95937 0.0
C872 C 0.46085 0.49429 0.02341 0.0
C873 C 0.4807 0.46392 0.07974 0.0
C874 C 0.47506 0.47408 0.11237 0.0
C875 C 0.48925 0.48496 0.09488 0.0
C876 C 0.45306 0.44219 0.11461 0.0
C877 C 0.45859 0.43217 0.08241 0.0
C878 C 0.44501 0.42143 0.09975 0.0
C879 C 0.51808 0.55714 0.01756 0.0
C880 C 0.49357 0.47465 0.06098 0.0
C881 C 0.61563 0.48783 0.06362 0.0
C882 C 0.63141 0.52009 0.06098 0.0
C883 C 0.55255 0.51972 0.99232 0.0
C884 C 0.49005 0.50666 0.93066 0.0
C885 C 0.50009 0.49549 0.91561 0.0
C886 C 0.49848 0.50476 0.89743 0.0
C887 C 0.4866 0.52513 0.8944 0.0
C888 C 0.4778 0.52662 0.92736 0.0
C889 C 0.47624 0.5359 0.90929 0.0
C890 C 0.48615 0.43891 0.99685 0.0
C891 C 0.49612 0.49985 0.94957 0.0
H892 H 0.5063 0.50955 0.09307 0.0
H893 H 0.44212 0.43334 0.12796 0.0
H894 H 0.45171 0.41557 0.07106 0.0
H895 H 0.42803 0.39689 0.10167 0.0
H896 H 0.50956 0.48 0.91801 0.0
H897 H 0.48524 0.53256 0.88048 0.0
H898 H 0.46981 0.53531 0.93868 0.0
H899 H 0.46713 0.55162 0.90683 0.0
Tb900 Tb 0.15495 0.31457 0.31673 0.0
C901 C 0.22919 0.41928 0.37083 0.0
C902 C 0.27998 0.42203 0.37588 0.0
C903 C 0.27731 0.46974 0.3752 0.0
C904 C 0.24693 0.40463 0.37176 0.0
C905 C 0.24385 0.45186 0.37351 0.0
C906 C 0.2954 0.45478 0.37644 0.0
C907 C 0.19125 0.44553 0.37714 0.0
N908 N 0.19698 0.40092 0.3702 0.0
C909 C 0.17798 0.41325 0.37494 0.0
C910 C 0.22434 0.46505 0.37588 0.0
Tb911 Tb 0.17743 0.34886 0.36296 0.0
N912 N 0.23079 0.37299 0.37175 0.0
C913 C 0.24557 0.3576 0.3788 0.0
C914 C 0.29583 0.40603 0.38098 0.0
C915 C 0.27824 0.37375 0.38316 0.0
H916 H 0.15234 0.3983 0.37576 0.0
H917 H 0.28983 0.36119 0.38808 0.0
H918 H 0.3209 0.46858 0.37913 0.0
H919 H 0.17598 0.45531 0.37985 0.0
H920 H 0.23285 0.33268 0.38083 0.0
H921 H 0.03575 0.29434 0.30063 0.0
H922 H 0.3211 0.41849 0.38443 0.0
H923 H 0.1837 0.26817 0.30395 0.0
H924 H 0.09362 0.32607 0.30454 0.0
H925 H 0.16268 0.21151 0.29943 0.0
H926 H 0.28913 0.49488 0.37687 0.0
H927 H 0.0088 0.23694 0.30356 0.0
H928 H 0.01391 0.18897 0.30618 0.0
H929 H 0.23464 0.48999 0.37791 0.0
H930 H 0.04895 0.16606 0.30552 0.0
N931 N 0.10055 0.28749 0.31078 0.0
C932 C 0.08278 0.30118 0.30621 0.0
C933 C 0.0345 0.25083 0.30545 0.0
C934 C 0.05304 0.23671 0.30824 0.0
C935 C 0.04962 0.28316 0.30372 0.0
C936 C 0.08645 0.25593 0.31047 0.0
H937 H 0.10462 0.17441 0.30223 0.0
N938 N 0.13805 0.26293 0.3099 0.0
C939 C 0.14649 0.22007 0.30254 0.0
C940 C 0.10601 0.24312 0.30994 0.0
C941 C 0.15826 0.2521 0.30494 0.0
C942 C 0.11373 0.19918 0.30424 0.0
C943 C 0.09291 0.21069 0.30742 0.0
O944 O 0.18632 0.3244 0.29455 0.0
O945 O 0.19082 0.35218 0.33404 0.0
O946 O 0.17418 0.38288 0.34522 0.0
O947 O 0.14136 0.35118 0.32124 0.0
O948 O 0.20633 0.3317 0.31573 0.0
O949 O 0.1447 0.32887 0.29095 0.0
O950 O 0.14953 0.34562 0.38607 0.0
O951 O 0.14152 0.3123 0.34535 0.0
O952 O 0.15943 0.28127 0.33454 0.0
O953 O 0.19324 0.31423 0.35771 0.0
O954 O 0.12604 0.33232 0.36398 0.0
O955 O 0.17855 0.32404 0.38646 0.0
C956 C 0.21621 0.35425 0.32756 0.0
C957 C 0.16782 0.31956 0.26385 0.0
C958 C 0.17563 0.33127 0.23068 0.0
C959 C 0.17049 0.33883 0.24878 0.0
C960 C 0.1774 0.30403 0.22787 0.0
C961 C 0.16878 0.29205 0.26047 0.0
C962 C 0.17355 0.28439 0.24261 0.0
C963 C 0.15386 0.37722 0.33145 0.0
C964 C 0.1699 0.33104 0.28304 0.0
C965 C 0.05952 0.19111 0.30709 0.0
C966 C 0.03956 0.20414 0.3075 0.0
C967 C 0.1163 0.31056 0.3517 0.0
C968 C 0.16935 0.34146 0.41511 0.0
C969 C 0.15575 0.32068 0.43003 0.0
C970 C 0.16439 0.3315 0.44843 0.0
C971 C 0.18624 0.36325 0.45169 0.0
C972 C 0.19136 0.37302 0.41868 0.0
C973 C 0.1996 0.38384 0.43689 0.0
C974 C 0.18029 0.28762 0.34812 0.0
C975 C 0.15956 0.33026 0.39596 0.0
H976 H 0.16984 0.36017 0.25118 0.0
H977 H 0.18148 0.2978 0.21413 0.0
H978 H 0.16714 0.27702 0.27169 0.0
H979 H 0.17488 0.26343 0.24025 0.0
H980 H 0.13853 0.29629 0.42739 0.0
H981 H 0.19294 0.37209 0.46574 0.0
H982 H 0.20197 0.38935 0.40741 0.0
H983 H 0.21638 0.40827 0.43956 0.0
Tb984 Tb 0.68372 0.837 0.31698 0.0
C985 C 0.57699 0.80136 0.37068 0.0
C986 C 0.56777 0.8451 0.36764 0.0
C987 C 0.52435 0.79454 0.37702 0.0
C988 C 0.58835 0.83251 0.3666 0.0
C989 C 0.54511 0.78234 0.37654 0.0
C990 C 0.53562 0.8258 0.37249 0.0
C991 C 0.55739 0.7416 0.38311 0.0
N992 N 0.59759 0.79017 0.37 0.0
C993 C 0.58873 0.76123 0.37713 0.0
C994 C 0.53532 0.75199 0.38248 0.0
Tb995 Tb 0.64899 0.82549 0.36184 0.0
N996 N 0.61972 0.8507 0.36225 0.0
C997 C 0.63209 0.88213 0.35948 0.0
C998 C 0.58019 0.87687 0.36419 0.0
C999 C 0.61255 0.89549 0.36027 0.0
H1000 H 0.60564 0.75294 0.3777 0.0
H1001 H 0.62247 0.92016 0.35763 0.0
H1002 H 0.51949 0.83506 0.37326 0.0
H1003 H 0.55029 0.71847 0.38817 0.0
H1004 H 0.65666 0.89736 0.35586 0.0
H1005 H 0.70427 0.73807 0.32136 0.0
H1006 H 0.56511 0.88733 0.36476 0.0
H1007 H 0.73285 0.91055 0.30369 0.0
H1008 H 0.67339 0.76397 0.32457 0.0
H1009 H 0.78945 0.94381 0.29589 0.0
H1010 H 0.49972 0.78019 0.38131 0.0
H1011 H 0.76144 0.76819 0.31332 0.0
H1012 H 0.80916 0.8195 0.30599 0.0
H1013 H 0.51107 0.73676 0.38714 0.0
H1014 H 0.83269 0.87557 0.30003 0.0
N1015 N 0.71054 0.809 0.31594 0.0
C1016 C 0.69721 0.77768 0.31947 0.0
C1017 C 0.74744 0.77979 0.31391 0.0
C1018 C 0.76143 0.81177 0.31072 0.0
C1019 C 0.71518 0.7627 0.31829 0.0
C1020 C 0.74219 0.8259 0.31176 0.0
H1021 H 0.8257 0.92202 0.29638 0.0
N1022 N 0.73675 0.87063 0.31014 0.0
C1023 C 0.78047 0.91974 0.29978 0.0
C1024 C 0.75567 0.85763 0.30884 0.0
C1025 C 0.74833 0.90078 0.30435 0.0
C1026 C 0.80077 0.90734 0.30002 0.0
C1027 C 0.78837 0.87581 0.30419 0.0
O1028 O 0.67759 0.86282 0.29643 0.0
O1029 O 0.65293 0.84687 0.33496 0.0
O1030 O 0.62072 0.78008 0.34585 0.0
O1031 O 0.64527 0.78868 0.31706 0.0
O1032 O 0.63583 0.82703 0.3094 0.0
O1033 O 0.68303 0.82316 0.2888 0.0
O1034 O 0.65526 0.80405 0.38532 0.0
O1035 O 0.67979 0.81637 0.34372 0.0
O1036 O 0.71247 0.88073 0.33337 0.0
O1037 O 0.68671 0.87434 0.36167 0.0
O1038 O 0.6933 0.82818 0.3705 0.0
O1039 O 0.6547 0.84757 0.38776 0.0
C1040 C 0.62925 0.83794 0.32376 0.0
C1041 C 0.68793 0.85968 0.26464 0.0
C1042 C 0.6773 0.85532 0.23127 0.0
C1043 C 0.67517 0.84116 0.24854 0.0
C1044 C 0.69375 0.88806 0.23015 0.0
C1045 C 0.70452 0.8924 0.26302 0.0
C1046 C 0.70772 0.90639 0.24586 0.0
C1047 C 0.62255 0.77045 0.32868 0.0
C1048 C 0.67752 0.84509 0.28301 0.0
C1049 C 0.80753 0.8619 0.30341 0.0
C1050 C 0.7941 0.82997 0.30671 0.0
C1051 C 0.70235 0.82251 0.35519 0.0
C1052 C 0.64622 0.81791 0.41527 0.0
C1053 C 0.66818 0.82886 0.43011 0.0
C1054 C 0.65744 0.82044 0.44835 0.0
C1055 C 0.62484 0.80014 0.45164 0.0
C1056 C 0.61352 0.7988 0.41885 0.0
C1057 C 0.60299 0.78939 0.43693 0.0
C1058 C 0.70993 0.89108 0.34996 0.0
C1059 C 0.65856 0.82646 0.39637 0.0
H1060 H 0.66191 0.81591 0.2496 0.0
H1061 H 0.69569 0.89947 0.21703 0.0
H1062 H 0.71357 0.9074 0.27506 0.0
H1063 H 0.72011 0.93159 0.24485 0.0
H1064 H 0.69345 0.84436 0.42755 0.0
H1065 H 0.61625 0.79335 0.46566 0.0
H1066 H 0.59606 0.79144 0.40789 0.0
H1067 H 0.57777 0.77423 0.43957 0.0
Tb1068 Tb 0.17829 0.82293 0.36214 0.0
C1069 C 0.10677 0.8622 0.31169 0.0
C1070 C 0.05375 0.81666 0.31159 0.0
C1071 C 0.05993 0.86812 0.3079 0.0
C1072 C 0.08732 0.83028 0.31321 0.0
C1073 C 0.09331 0.88127 0.308 0.0
C1074 C 0.04015 0.83584 0.30983 0.0
C1075 C 0.14652 0.92386 0.30199 0.0
N1076 N 0.13891 0.87411 0.31181 0.0
C1077 C 0.15874 0.90416 0.306 0.0
C1078 C 0.1137 0.91256 0.30342 0.0
Tb1079 Tb 0.15641 0.83942 0.31769 0.0
N1080 N 0.10139 0.81242 0.31415 0.0
C1081 C 0.0831 0.78077 0.31131 0.0
C1082 C 0.03496 0.78419 0.31046 0.0
C1083 C 0.04981 0.76628 0.30968 0.0
H1084 H 0.18425 0.91316 0.30513 0.0
H1085 H 0.03564 0.7412 0.30792 0.0
H1086 H 0.01443 0.82579 0.30886 0.0
H1087 H 0.16243 0.94778 0.29794 0.0
H1088 H 0.09339 0.76595 0.31022 0.0
H1089 H 0.29583 0.92856 0.36462 0.0
H1090 H 0.00916 0.77285 0.30917 0.0
H1091 H 0.15631 0.74977 0.373 0.0
H1092 H 0.24131 0.89697 0.35354 0.0
H1093 H 0.18057 0.72081 0.38646 0.0
H1094 H 0.04917 0.88249 0.30545 0.0
H1095 H 0.32146 0.90494 0.38298 0.0
H1096 H 0.31882 0.8567 0.39564 0.0
H1097 H 0.10426 0.92785 0.30031 0.0
H1098 H 0.28862 0.7998 0.39987 0.0
N1099 N 0.23305 0.85466 0.36678 0.0
C1100 C 0.25076 0.88569 0.36215 0.0
C1101 C 0.29675 0.8907 0.37858 0.0
C1102 C 0.27962 0.85876 0.38224 0.0
C1103 C 0.28241 0.90407 0.36819 0.0
C1104 C 0.2474 0.84127 0.37628 0.0
H1105 H 0.23757 0.74886 0.39584 0.0
N1106 N 0.19986 0.79335 0.37237 0.0
C1107 C 0.19513 0.74563 0.38402 0.0
C1108 C 0.23065 0.80931 0.37844 0.0
C1109 C 0.18158 0.76207 0.37602 0.0
C1110 C 0.22723 0.76155 0.38937 0.0
C1111 C 0.24527 0.79387 0.38695 0.0
O1112 O 0.15001 0.7982 0.38518 0.0
O1113 O 0.14241 0.82763 0.34623 0.0
O1114 O 0.16526 0.87922 0.33579 0.0
O1115 O 0.18865 0.87162 0.36194 0.0
O1116 O 0.12691 0.78996 0.36301 0.0
O1117 O 0.18437 0.84698 0.38701 0.0
O1118 O 0.18555 0.86168 0.29507 0.0
O1119 O 0.19101 0.83171 0.33294 0.0
O1120 O 0.17133 0.7837 0.34476 0.0
O1121 O 0.14562 0.78985 0.31885 0.0
O1122 O 0.20853 0.86933 0.31646 0.0
O1123 O 0.14156 0.81818 0.2908 0.0
C1124 C 0.11717 0.80415 0.35225 0.0
C1125 C 0.17096 0.81919 0.415 0.0
C1126 C 0.16647 0.8258 0.44807 0.0
C1127 C 0.15754 0.82732 0.4297 0.0
C1128 C 0.18897 0.81633 0.45163 0.0
C1129 C 0.19235 0.80856 0.41893 0.0
C1130 C 0.20163 0.8075 0.43709 0.0
C1131 C 0.18029 0.88888 0.35199 0.0
C1132 C 0.16285 0.82281 0.39584 0.0
C1133 C 0.27706 0.81122 0.39323 0.0
C1134 C 0.29416 0.84363 0.39096 0.0
C1135 C 0.21708 0.85283 0.32615 0.0
C1136 C 0.16653 0.85163 0.26409 0.0
C1137 C 0.16603 0.83356 0.24872 0.0
C1138 C 0.1745 0.84704 0.23093 0.0
C1139 C 0.18229 0.87826 0.22864 0.0
C1140 C 0.17392 0.88261 0.26121 0.0
C1141 C 0.18154 0.8957 0.24361 0.0
C1142 C 0.15366 0.7728 0.32954 0.0
C1143 C 0.16696 0.84067 0.28308 0.0
H1144 H 0.14025 0.83475 0.42692 0.0
H1145 H 0.19604 0.81498 0.46573 0.0
H1146 H 0.20169 0.80072 0.4082 0.0
H1147 H 0.2184 0.79949 0.43989 0.0
H1148 H 0.16086 0.80977 0.25075 0.0
H1149 H 0.189 0.88917 0.21514 0.0
H1150 H 0.1755 0.89738 0.27264 0.0
H1151 H 0.18781 0.9198 0.24167 0.0
Tb1152 Tb 0.82501 0.64695 0.65102 0.0
C1153 C 0.8948 0.74813 0.71401 0.0
C1154 C 0.94442 0.74774 0.71846 0.0
C1155 C 0.93952 0.7911 0.73039 0.0
C1156 C 0.91247 0.73321 0.71186 0.0
C1157 C 0.90835 0.77741 0.72313 0.0
C1158 C 0.95748 0.77626 0.7281 0.0
C1159 C 0.85945 0.77792 0.71727 0.0
N1160 N 0.86518 0.73489 0.70614 0.0
C1161 C 0.84695 0.74889 0.70848 0.0
C1162 C 0.89035 0.79235 0.72455 0.0
Tb1163 Tb 0.84502 0.68431 0.69572 0.0
N1164 N 0.89975 0.7066 0.70138 0.0
C1165 C 0.91917 0.69493 0.69612 0.0
C1166 C 0.96304 0.73423 0.71425 0.0
C1167 C 0.95056 0.70813 0.70271 0.0
H1168 H 0.82231 0.73762 0.70385 0.0
H1169 H 0.96526 0.69826 0.69867 0.0
H1170 H 0.98187 0.78759 0.73328 0.0
H1171 H 0.84499 0.78892 0.71867 0.0
H1172 H 0.9113 0.67546 0.6867 0.0
H1173 H 0.70273 0.62385 0.64947 0.0
H1174 H 0.98761 0.7447 0.71904 0.0
H1175 H 0.85512 0.60305 0.63767 0.0
H1176 H 0.76058 0.6562 0.65254 0.0
H1177 H 0.83505 0.54801 0.6284 0.0
H1178 H 0.9502 0.81348 0.73748 0.0
H1179 H 0.6779 0.56678 0.64516 0.0
H1180 H 0.68496 0.52039 0.64005 0.0
H1181 H 0.89998 0.81487 0.73138 0.0
H1182 H 0.72105 0.49961 0.63426 0.0
N1183 N 0.77002 0.61859 0.64958 0.0
C1184 C 0.75085 0.63169 0.65016 0.0
C1185 C 0.70369 0.58104 0.6463 0.0
C1186 C 0.72331 0.56781 0.64491 0.0
C1187 C 0.7176 0.61322 0.6486 0.0
C1188 C 0.75678 0.58747 0.6465 0.0
H1189 H 0.77701 0.50994 0.62928 0.0
N1190 N 0.80902 0.59581 0.64438 0.0
C1191 C 0.81847 0.5554 0.63287 0.0
C1192 C 0.77699 0.57572 0.64363 0.0
C1193 C 0.82975 0.58646 0.63818 0.0
C1194 C 0.78571 0.53397 0.63341 0.0
C1195 C 0.76445 0.5441 0.63856 0.0
O1196 O 0.8543 0.65729 0.62781 0.0
O1197 O 0.85869 0.68869 0.66676 0.0
O1198 O 0.82987 0.7117 0.67815 0.0
O1199 O 0.81617 0.68603 0.64959 0.0
O1200 O 0.87709 0.66774 0.65095 0.0
O1201 O 0.80696 0.64979 0.62435 0.0
O1202 O 0.81045 0.68417 0.71359 0.0
O1203 O 0.80615 0.65185 0.67736 0.0
O1204 O 0.83585 0.61731 0.6691 0.0
O1205 O 0.85874 0.64849 0.69523 0.0
O1206 O 0.80845 0.63799 0.70373 0.0
O1207 O 0.84994 0.67839 0.72431 0.0
C1208 C 0.88492 0.69282 0.66041 0.0
C1209 C 0.83504 0.64784 0.5969 0.0
C1210 C 0.84383 0.66192 0.5639 0.0
C1211 C 0.83503 0.66628 0.58191 0.0
C1212 C 0.85178 0.63847 0.56111 0.0
C1213 C 0.84258 0.62431 0.59346 0.0
C1214 C 0.85074 0.61962 0.57571 0.0
C1215 C 0.81945 0.70877 0.66068 0.0
C1216 C 0.83384 0.65751 0.61622 0.0
C1217 C 0.73114 0.52405 0.6379 0.0
C1218 C 0.71059 0.53588 0.64116 0.0
C1219 C 0.79152 0.62984 0.68893 0.0
C1220 C 0.81199 0.67731 0.74714 0.0
C1221 C 0.82092 0.66397 0.7617 0.0
C1222 C 0.80773 0.66089 0.77957 0.0
C1223 C 0.7864 0.67191 0.78274 0.0
C1224 C 0.79055 0.68802 0.75079 0.0
C1225 C 0.77801 0.68545 0.76849 0.0
C1226 C 0.85067 0.62293 0.68543 0.0
C1227 C 0.82426 0.67989 0.72806 0.0
H1228 H 0.82963 0.6848 0.58438 0.0
H1229 H 0.85874 0.63468 0.54751 0.0
H1230 H 0.84358 0.61037 0.6046 0.0
H1231 H 0.85704 0.60173 0.57333 0.0
H1232 H 0.83753 0.65566 0.75915 0.0
H1233 H 0.77622 0.67004 0.79637 0.0
H1234 H 0.78352 0.69854 0.73995 0.0
H1235 H 0.76159 0.69391 0.77115 0.0
Tb1236 Tb 0.3523 0.17013 0.65103 0.0
C1237 C 0.24238 0.13769 0.70294 0.0
C1238 C 0.23438 0.18168 0.69796 0.0
C1239 C 0.19047 0.13264 0.70899 0.0
C1240 C 0.2541 0.16814 0.69759 0.0
C1241 C 0.21078 0.11989 0.70942 0.0
C1242 C 0.20223 0.16348 0.70318 0.0
C1243 C 0.22332 0.08035 0.71883 0.0
N1244 N 0.26291 0.12651 0.70344 0.0
C1245 C 0.25436 0.09881 0.71202 0.0
C1246 C 0.20119 0.0906 0.71711 0.0
Tb1247 Tb 0.31425 0.15957 0.6945 0.0
N1248 N 0.28548 0.18509 0.69321 0.0
C1249 C 0.29908 0.21649 0.69005 0.0
C1250 C 0.24787 0.21336 0.69377 0.0
C1251 C 0.28049 0.23093 0.69006 0.0
H1252 H 0.27145 0.09084 0.71336 0.0
H1253 H 0.29135 0.25559 0.68709 0.0
H1254 H 0.18664 0.17338 0.70344 0.0
H1255 H 0.21644 0.05815 0.72525 0.0
H1256 H 0.32409 0.23063 0.68694 0.0
H1257 H 0.3656 0.06595 0.65551 0.0
H1258 H 0.23353 0.22463 0.69384 0.0
H1259 H 0.40665 0.24406 0.63944 0.0
H1260 H 0.33798 0.09435 0.66007 0.0
H1261 H 0.46216 0.27289 0.62967 0.0
H1262 H 0.166 0.11925 0.71374 0.0
H1263 H 0.42069 0.09208 0.64374 0.0
H1264 H 0.46841 0.14052 0.63318 0.0
H1265 H 0.17719 0.07629 0.72239 0.0
H1266 H 0.49499 0.19663 0.62692 0.0
N1267 N 0.37573 0.13854 0.64979 0.0
C1268 C 0.36134 0.10722 0.65406 0.0
C1269 C 0.4084 0.10524 0.64535 0.0
C1270 C 0.42356 0.13699 0.64135 0.0
C1271 C 0.37731 0.09043 0.6519 0.0
C1272 C 0.40663 0.15332 0.64382 0.0
H1273 H 0.49324 0.24598 0.62607 0.0
N1274 N 0.40574 0.20066 0.64357 0.0
C1275 C 0.45139 0.24834 0.63293 0.0
C1276 C 0.42199 0.18519 0.64063 0.0
C1277 C 0.41976 0.23169 0.63885 0.0
C1278 C 0.46875 0.23306 0.63085 0.0
C1279 C 0.45406 0.20112 0.63442 0.0
O1280 O 0.35302 0.20149 0.63174 0.0
O1281 O 0.31904 0.17866 0.66715 0.0
O1282 O 0.28234 0.11676 0.67781 0.0
O1283 O 0.31429 0.12158 0.65241 0.0
O1284 O 0.30468 0.15943 0.64139 0.0
O1285 O 0.35084 0.1582 0.62231 0.0
O1286 O 0.32537 0.14579 0.71949 0.0
O1287 O 0.35609 0.16309 0.68055 0.0
O1288 O 0.37947 0.21476 0.66645 0.0
O1289 O 0.35474 0.20704 0.69509 0.0
O1290 O 0.32895 0.12456 0.69594 0.0
O1291 O 0.32352 0.18779 0.71857 0.0
C1292 C 0.29623 0.16953 0.65538 0.0
C1293 C 0.35192 0.19492 0.5986 0.0
C1294 C 0.33765 0.18557 0.56567 0.0
C1295 C 0.3393 0.17413 0.58334 0.0
C1296 C 0.34928 0.21766 0.56343 0.0
C1297 C 0.36356 0.22695 0.59584 0.0
C1298 C 0.3623 0.23817 0.57839 0.0
C1299 C 0.28767 0.10564 0.66207 0.0
C1300 C 0.35131 0.18403 0.61772 0.0
C1301 C 0.47048 0.18475 0.63171 0.0
C1302 C 0.4553 0.1528 0.6352 0.0
C1303 C 0.3562 0.13973 0.6879 0.0
C1304 C 0.31556 0.16261 0.74767 0.0
C1305 C 0.33664 0.1705 0.76283 0.0
C1306 C 0.32457 0.16213 0.78084 0.0
C1307 C 0.2914 0.14518 0.78358 0.0
C1308 C 0.28245 0.14658 0.75067 0.0
C1309 C 0.27046 0.13748 0.76853 0.0
C1310 C 0.3771 0.22456 0.68317 0.0
C1311 C 0.32889 0.16949 0.72892 0.0
H1312 H 0.33018 0.14936 0.58522 0.0
H1313 H 0.34837 0.22689 0.54997 0.0
H1314 H 0.37343 0.24345 0.60728 0.0
H1315 H 0.37124 0.26286 0.57648 0.0
H1316 H 0.3623 0.18331 0.76068 0.0
H1317 H 0.28179 0.13854 0.79743 0.0
H1318 H 0.26587 0.14109 0.73932 0.0
H1319 H 0.24488 0.12473 0.77075 0.0
Tb1320 Tb 0.84846 0.15827 0.69612 0.0
C1321 C 0.77744 0.19923 0.64321 0.0
C1322 C 0.72251 0.15771 0.64555 0.0
C1323 C 0.73417 0.21021 0.63818 0.0
C1324 C 0.75565 0.16854 0.64676 0.0
C1325 C 0.76703 0.22024 0.63813 0.0
C1326 C 0.71191 0.17896 0.64196 0.0
C1327 C 0.82198 0.25823 0.63139 0.0
N1328 N 0.80889 0.2079 0.64329 0.0
C1329 C 0.83109 0.23653 0.63663 0.0
C1330 C 0.78986 0.25022 0.63243 0.0
Tb1331 Tb 0.82184 0.17079 0.65141 0.0
N1332 N 0.76697 0.14873 0.64961 0.0
C1333 C 0.74604 0.11715 0.64946 0.0
C1334 C 0.70111 0.12568 0.64691 0.0
C1335 C 0.713 0.10526 0.64835 0.0
H1336 H 0.85595 0.24283 0.6358 0.0
H1337 H 0.69675 0.0803 0.64871 0.0
H1338 H 0.68658 0.17117 0.64123 0.0
H1339 H 0.83973 0.28113 0.62662 0.0
H1340 H 0.7541 0.10049 0.65039 0.0
H1341 H 0.9673 0.26066 0.70725 0.0
H1342 H 0.6755 0.1164 0.64602 0.0
H1343 H 0.82933 0.08525 0.70959 0.0
H1344 H 0.90961 0.23265 0.70753 0.0
H1345 H 0.85481 0.05315 0.70994 0.0
H1346 H 0.72569 0.22612 0.63463 0.0
H1347 H 0.99686 0.23295 0.70076 0.0
H1348 H 0.99551 0.18227 0.69602 0.0
H1349 H 0.78285 0.26704 0.62836 0.0
H1350 H 0.96451 0.12497 0.69657 0.0
N1351 N 0.90388 0.18829 0.69948 0.0
C1352 C 0.92091 0.21951 0.70397 0.0
C1353 C 0.97094 0.2202 0.70053 0.0
C1354 C 0.95386 0.18794 0.69779 0.0
C1355 C 0.95435 0.23587 0.7042 0.0
C1356 C 0.92002 0.17239 0.69767 0.0
H1357 H 0.91208 0.07657 0.70226 0.0
N1358 N 0.87054 0.1263 0.69963 0.0
C1359 C 0.86852 0.07748 0.70607 0.0
C1360 C 0.90269 0.14024 0.69772 0.0
C1361 C 0.85408 0.09591 0.7057 0.0
C1362 C 0.90076 0.09075 0.7017 0.0
C1363 C 0.91859 0.12276 0.69821 0.0
O1364 O 0.81663 0.12646 0.71508 0.0
O1365 O 0.80771 0.15102 0.67886 0.0
O1366 O 0.8298 0.21035 0.66933 0.0
O1367 O 0.86187 0.20757 0.69271 0.0
O1368 O 0.81014 0.16598 0.70565 0.0
O1369 O 0.85825 0.17014 0.72486 0.0
O1370 O 0.85039 0.18422 0.62739 0.0
O1371 O 0.85903 0.16815 0.66716 0.0
O1372 O 0.83043 0.11466 0.68011 0.0
O1373 O 0.80841 0.12172 0.65299 0.0
O1374 O 0.87297 0.20452 0.64932 0.0
O1375 O 0.80414 0.14349 0.627 0.0
C1376 C 0.79284 0.15778 0.69092 0.0
C1377 C 0.82125 0.1337 0.7483 0.0
C1378 C 0.81411 0.14368 0.78071 0.0
C1379 C 0.82848 0.15485 0.76325 0.0
C1380 C 0.79338 0.11152 0.78306 0.0
C1381 C 0.80061 0.10164 0.75119 0.0
C1382 C 0.78689 0.09069 0.76845 0.0
C1383 C 0.84825 0.22194 0.68435 0.0
C1384 C 0.83219 0.14427 0.72921 0.0
C1385 C 0.95198 0.13805 0.69657 0.0
C1386 C 0.96962 0.17066 0.69631 0.0
C1387 C 0.88351 0.19148 0.66052 0.0
C1388 C 0.82429 0.16945 0.59853 0.0
C1389 C 0.83728 0.16181 0.58328 0.0
C1390 C 0.83341 0.17012 0.56521 0.0
C1391 C 0.81703 0.18664 0.5626 0.0
C1392 C 0.80763 0.18557 0.5956 0.0
C1393 C 0.80423 0.19428 0.57772 0.0
C1394 C 0.81488 0.10451 0.66416 0.0
C1395 C 0.82934 0.16137 0.61735 0.0
H1396 H 0.84428 0.17966 0.76125 0.0
H1397 H 0.78226 0.10248 0.79635 0.0
H1398 H 0.79464 0.0849 0.73999 0.0
H1399 H 0.77091 0.06596 0.77046 0.0
H1400 H 0.85032 0.14946 0.58543 0.0
H1401 H 0.81409 0.19351 0.54881 0.0
H1402 H 0.79731 0.19147 0.60709 0.0
H1403 H 0.79158 0.20695 0.57557 0.0
C1404 C 0.37917 0.89226 0.02872 0.0
C1405 C 0.35696 0.90139 0.03432 0.0
C1406 C 0.39216 0.95397 0.02227 0.0
C1407 C 0.41695 0.94667 0.01964 0.0
N1408 N 0.43319 0.90769 0.02025 0.0
N1409 N 0.3403 0.93977 0.03538 0.0
C1410 C 0.41001 0.91532 0.02253 0.0
C1411 C 0.36278 0.93188 0.03061 0.0
N1412 N 0.37072 0.86142 0.0293 0.0
N1413 N 0.39683 0.98218 0.01644 0.0
H1414 H 0.31783 0.92363 0.04047 0.0
H1415 H 0.34404 0.96237 0.03504 0.0
H1416 H 0.41728 -0.00223 0.00928 0.0
H1417 H 0.37961 0.98894 0.01676 0.0
H1418 H 0.38402 0.85249 0.02321 0.0
H1419 H 0.34894 0.8441 0.03454 0.0
H1420 H 0.43153 0.88694 0.02472 0.0
H1421 H 0.45463 0.92275 0.01417 0.0
C1422 C 0.08413 0.46846 0.05463 0.0
C1423 C 0.10317 0.46253 0.04201 0.0
C1424 C 0.08537 0.48418 0.01726 0.0
C1425 C 0.06003 0.48095 0.0282 0.0
N1426 N 0.05317 0.4941 0.05893 0.0
N1427 N 0.12027 0.46401 0.01026 0.0
C1428 C 0.0637 0.4792 0.04759 0.0
C1429 C 0.10327 0.47009 0.02299 0.0
N1430 N 0.08641 0.46518 0.07329 0.0
N1431 N 0.09783 0.50729 1.00463 0.0
H1432 H 0.13232 0.45202 0.0135 0.0
H1433 H 0.11987 0.46876 0.9962 0.0
H1434 H 0.08889 0.52254 1.00349 0.0
H1435 H 0.11936 0.51376 0.99789 0.0
H1436 H 0.07007 0.46492 0.08279 0.0
H1437 H 0.10423 0.46203 0.07935 0.0
H1438 H 0.05637 0.49611 0.07326 0.0
H1439 H 0.0467 0.50943 0.05318 0.0
C1440 C 0.52893 0.63994 0.02208 0.0
C1441 C 0.55393 0.65279 0.03551 0.0
C1442 C 0.54776 0.60159 0.04063 0.0
C1443 C 0.52641 0.589 0.02518 0.0
N1444 N 0.48522 0.59327 0.00856 0.0
N1445 N 0.59254 0.64733 0.05394 0.0
C1446 C 0.51405 0.60747 0.01752 0.0
C1447 C 0.56534 0.63412 0.04334 0.0
N1448 N 0.51929 0.65866 0.01373 0.0
N1449 N 0.54739 0.58281 0.05458 0.0
H1450 H 0.60627 0.67141 0.05615 0.0
H1451 H 0.60296 0.63458 0.05877 0.0
H1452 H 0.52853 0.56009 0.05624 0.0
H1453 H 0.56166 0.59146 0.06646 0.0
H1454 H 0.50445 0.65191 1.00207 0.0
H1455 H 0.52801 0.68188 0.01754 0.0
H1456 H 0.47293 0.60467 1.00467 0.0
H1457 H 0.47108 0.56922 0.00746 0.0
C1458 C 0.88139 0.35731 0.98854 0.0
C1459 C 0.89284 0.34364 0.97555 0.0
C1460 C 0.94095 0.39395 0.97115 0.0
C1461 C 0.93238 0.4074 0.98607 0.0
N1462 N 0.88693 0.40457 1.00191 0.0
N1463 N 0.93719 0.34706 0.95847 0.0
C1464 C 0.90065 0.38968 0.99323 0.0
C1465 C 0.92398 0.36133 0.9684 0.0
N1466 N 0.85203 0.33944 0.9964 0.0
N1467 N 0.9614 0.41215 0.95759 0.0
H1468 H 0.92536 0.32294 0.95625 0.0
H1469 H 0.96103 0.35884 0.95428 0.0
H1470 H 0.9668 0.43507 0.95542 0.0
H1471 H 0.96714 0.40295 0.94617 0.0
H1472 H 0.84424 0.34648 0.00793 0.0
H1473 H 0.83619 0.31651 0.99234 0.0
H1474 H 0.86285 0.39389 0.00539 0.0
H1475 H 0.89811 0.42862 1.00326 0.0
C1476 C 0.63683 0.53752 0.98716 0.0
C1477 C 0.6401 0.53634 0.96768 0.0
C1478 C 0.58143 0.51159 0.96485 0.0
C1479 C 0.57942 0.51564 0.98422 0.0
N1480 N 0.60135 0.50261 0.00957 0.0
N1481 N 0.61398 0.51436 0.93829 0.0
C1482 C 0.60603 0.52124 0.99491 0.0
C1483 C 0.61186 0.52116 0.95647 0.0
N1484 N 0.66285 0.55283 0.99852 0.0
N1485 N 0.55376 0.49494 0.95515 0.0
H1486 H 0.63531 0.51856 0.93223 0.0
H1487 H 0.59467 0.50333 0.9292 0.0
H1488 H 0.53243 0.48186 0.96224 0.0
H1489 H 0.55196 0.49214 0.94083 0.0
H1490 H 0.66039 0.55381 0.01285 0.0
H1491 H 0.68605 0.56627 0.99348 0.0
H1492 H 0.62031 0.50274 0.0167 0.0
H1493 H 0.57847 0.4839 0.01199 0.0
C1494 C 0.43785 0.08539 0.99274 0.0
C1495 C 0.45038 0.10073 0.9757 0.0
C1496 C 0.48477 0.0776 0.97357 0.0
C1497 C 0.473 0.06287 0.99099 0.0
N1498 N 0.44304 0.05781 0.01886 0.0
N1499 N 0.49073 0.11763 0.95206 0.0
C1500 C 0.45123 0.06858 1.00119 0.0
C1501 C 0.47527 0.0986 0.96673 0.0
N1502 N 0.41201 0.08554 1.00036 0.0
N1503 N 0.50491 0.07144 0.96342 0.0
H1504 H 0.48461 0.13351 0.94668 0.0
H1505 H 0.51148 0.11984 0.94627 0.0
H1506 H 0.51523 0.05875 0.9684 0.0
H1507 H 0.51021 0.07759 0.94955 0.0
H1508 H 0.39935 0.07178 0.01158 0.0
H1509 H 0.40142 0.09748 0.99454 0.0
H1510 H 0.43095 0.06492 0.0278 0.0
H1511 H 0.44985 0.04311 0.02508 0.0
C1512 C 0.61674 0.10188 0.978 0.0
C1513 C 0.64165 0.09479 0.97643 0.0
C1514 C 0.60741 0.04337 0.99003 0.0
C1515 C 0.58168 0.04962 0.99115 0.0
N1516 N 0.56556 0.08865 0.99089 0.0
N1517 N 0.66404 0.06288 0.98533 0.0
C1518 C 0.58752 0.08012 0.98664 0.0
C1519 C 0.63801 0.0668 0.98386 0.0
N1520 N 0.62056 0.12895 0.97055 0.0
N1521 N 0.6023 0.01448 0.99457 0.0
H1522 H 0.68672 0.07946 0.98073 0.0
H1523 H 0.6639 0.04458 0.9925 0.0
H1524 H 0.58181 -0.00164 1.00148 0.0
H1525 H 0.61795 0.00643 0.99136 0.0
H1526 H 0.60207 0.13387 0.96905 0.0
H1527 H 0.64195 0.1459 0.9647 0.0
H1528 H 0.5695 0.11131 0.9899 0.0
H1529 H 0.5447 0.07365 0.99753 0.0
C1530 C 0.88487 0.49962 0.97514 0.0
C1531 C 0.8948 0.53169 0.97387 0.0
C1532 C 0.94875 0.54506 0.9844 0.0
C1533 C 0.93926 0.51269 0.9853 0.0
N1534 N 0.90059 0.46057 0.97471 0.0
N1535 N 0.93346 0.58485 0.98126 0.0
C1536 C 0.90778 0.49029 0.97907 0.0
C1537 C 0.92596 0.55436 0.97969 0.0
N1538 N 0.85336 0.4778 0.9725 0.0
N1539 N 0.98023 0.56708 0.98632 0.0
H1540 H 0.91731 0.5923 0.97784 0.0
H1541 H 0.95433 0.60215 0.98755 0.0
H1542 H 0.99744 0.56143 0.99004 0.0
H1543 H 0.98959 0.5906 0.98324 0.0
H1544 H 0.84391 0.45427 0.97566 0.0
H1545 H 0.83602 0.48355 0.96883 0.0
H1546 H 0.87955 0.44441 0.96801 0.0
H1547 H 0.91692 0.45285 0.97579 0.0
C1548 C 0.43732 0.3509 0.98971 0.0
C1549 C 0.45244 0.34785 0.97365 0.0
C1550 C 0.49393 0.40288 0.97603 0.0
C1551 C 0.47731 0.40672 0.99096 0.0
N1552 N 0.44001 0.38294 0.01595 0.0
N1553 N 0.49347 0.3709 0.95037 0.0
C1554 C 0.45087 0.3803 0.99898 0.0
C1555 C 0.48031 0.37385 0.96648 0.0
N1556 N 0.40936 0.32592 0.99565 0.0
N1557 N 0.52418 0.42627 0.97219 0.0
H1558 H 0.48508 0.3497 0.94336 0.0
H1559 H 0.51128 0.38984 0.94323 0.0
H1560 H 0.5359 0.44612 0.98061 0.0
H1561 H 0.53899 0.42448 0.96241 0.0
H1562 H 0.39511 0.32721 0.00601 0.0
H1563 H 0.39894 0.30401 0.98925 0.0
H1564 H 0.42249 0.36426 0.02337 0.0
H1565 H 0.45124 0.40341 0.02371 0.0
C1566 C 0.11051 0.62158 0.04594 0.0
C1567 C 0.10957 0.64812 0.0393 0.0
C1568 C 0.07226 0.61648 0.01454 0.0
C1569 C 0.07089 0.58941 0.02212 0.0
N1570 N 0.09503 0.56709 0.04123 0.0
N1571 N 0.08676 0.67063 0.01905 0.0
C1572 C 0.09168 0.59218 0.0369 0.0
C1573 C 0.08978 0.64555 0.02402 0.0
N1574 N 0.12912 0.62452 0.06104 0.0
N1575 N 0.05834 0.61481 0.99775 0.0
H1576 H 0.09937 0.69238 0.02559 0.0
H1577 H 0.06983 0.66931 0.00953 0.0
H1578 H 0.0479 0.59459 0.98974 0.0
H1579 H 0.06073 0.63413 0.99064 0.0
H1580 H 0.12844 0.60579 0.06796 0.0
H1581 H 0.1445 0.64592 0.06738 0.0
H1582 H 0.11097 0.56731 0.05106 0.0
H1583 H 0.08378 0.54643 0.03353 0.0
C1584 C 0.3699 0.44265 0.03092 0.0
C1585 C 0.36232 0.46518 0.03738 0.0
C1586 C 0.41763 0.50664 0.03227 0.0
C1587 C 0.42591 0.48426 0.02567 0.0
N1588 N 0.41076 0.42979 0.02389 0.0
N1589 N 0.37642 0.51905 0.04013 0.0
C1590 C 0.4021 0.45193 0.02618 0.0
C1591 C 0.38535 0.49728 0.03662 0.0
N1592 N 0.34599 0.41234 0.02882 0.0
N1593 N 0.44105 0.53638 0.03648 0.0
H1594 H 0.35344 0.51325 0.04427 0.0
H1595 H 0.39094 0.54272 0.03733 0.0
H1596 H 0.46517 0.54427 0.03478 0.0
H1597 H 0.43703 0.55248 0.04357 0.0
H1598 H 0.34896 0.39535 0.02201 0.0
H1599 H 0.32228 0.40482 0.03232 0.0
H1600 H 0.39588 0.40621 0.02675 0.0
H1601 H 0.4336 0.43535 0.02001 0.0
C1602 C 0.56341 0.91208 0.01959 0.0
C1603 C 0.54953 0.89555 0.03614 0.0
C1604 C 0.51375 0.91721 0.03719 0.0
C1605 C 0.52642 0.93258 0.02005 0.0
N1606 N 0.55853 0.93899 0.99298 0.0
N1607 N 0.50616 0.8758 0.05799 0.0
C1608 C 0.54957 0.92804 0.01055 0.0
C1609 C 0.52313 0.89619 0.04416 0.0
N1610 N 0.59079 0.91384 0.013 0.0
N1611 N 0.49306 0.92291 0.04708 0.0
H1612 H 0.51197 0.85968 0.06334 0.0
H1613 H 0.4845 0.8727 0.0629 0.0
H1614 H 0.48357 0.93638 0.04221 0.0
H1615 H 0.48677 0.91582 0.06075 0.0
H1616 H 0.60411 0.92848 1.00222 0.0
H1617 H 0.60186 0.90275 0.01936 0.0
H1618 H 0.5723 0.9331 0.98462 0.0
H1619 H 0.55049 0.95234 0.98624 0.0
C1620 C 0.02625 0.25619 0.35759 0.0
C1621 C 0.02597 0.23227 0.3684 0.0
C1622 C 0.08408 0.25683 0.36594 0.0
C1623 C 0.08504 0.28121 0.35493 0.0
N1624 N 0.05715 0.30681 0.34347 0.0
N1625 N 0.05268 0.2049 0.37857 0.0
C1626 C 0.05598 0.28131 0.35141 0.0
C1627 C 0.05426 0.231 0.37109 0.0
N1628 N 0.99794 0.25454 0.35293 0.0
N1629 N 0.1114 0.26006 0.37367 0.0
H1630 H 0.03122 0.18566 0.38276 0.0
H1631 H 0.0721 0.20117 0.37892 0.0
H1632 H 0.13386 0.2786 0.37088 0.0
H1633 H 0.11156 0.24565 0.38413 0.0
H1634 H 0.99589 0.26894 0.3432 0.0
H1635 H 0.97587 0.23702 0.35773 0.0
H1636 H 0.0381 0.31106 0.34304 0.0
H1637 H 0.07794 0.32437 0.33762 0.0
C1638 C 0.7807 0.82278 0.36246 0.0
C1639 C 0.76911 0.79267 0.37013 0.0
C1640 C 0.7138 0.7794 0.3628 0.0
C1641 C 0.72516 0.81029 0.35614 0.0
N1642 N 0.76922 0.86235 0.35149 0.0
N1643 N 0.72599 0.74001 0.37384 0.0
C1644 C 0.75863 0.83202 0.35618 0.0
C1645 C 0.73601 0.77028 0.36913 0.0
N1646 N 0.81296 0.84264 0.36113 0.0
N1647 N 0.68158 0.75941 0.36417 0.0
H1648 H 0.74164 0.7327 0.37858 0.0
H1649 H 0.70283 0.72161 0.37169 0.0
H1650 H 0.6646 0.76456 0.35894 0.0
H1651 H 0.67142 0.73829 0.37119 0.0
H1652 H 0.82314 0.86303 0.35337 0.0
H1653 H 0.82996 0.83783 0.36674 0.0
H1654 H 0.79248 0.88057 0.35362 0.0
H1655 H 0.75406 0.86973 0.34623 0.0
C1656 C 0.19009 0.9712 0.35596 0.0
C1657 C 0.2173 0.98582 0.36786 0.0
C1658 C 0.2137 0.93569 0.37313 0.0
C1659 C 0.18935 0.92114 0.35938 0.0
N1660 N 0.14463 0.92245 0.34555 0.0
N1661 N 0.25965 0.9831 0.38393 0.0
C1662 C 0.17502 0.93828 0.35252 0.0
C1663 C 0.23092 0.96845 0.37481 0.0
N1664 N 0.17868 0.9887 0.34793 0.0
N1665 N 0.21575 0.91856 0.38721 0.0
H1666 H 0.27296 0.00734 0.38548 0.0
H1667 H 0.27141 0.97126 0.38817 0.0
H1668 H 0.19569 0.89761 0.39069 0.0
H1669 H 0.23256 0.92809 0.39793 0.0
H1670 H 0.16147 0.98031 0.3374 0.0
H1671 H 0.18835 0.01246 0.35067 0.0
H1672 H 0.13125 0.933 0.34218 0.0
H1673 H 0.13107 0.89817 0.34565 0.0
C1674 C 0.59287 0.68875 0.30724 0.0
C1675 C 0.55956 0.67358 0.30952 0.0
C1676 C 0.56644 0.71928 0.32687 0.0
C1677 C 0.59963 0.73701 0.3217 0.0
N1678 N 0.63537 0.73736 0.29715 0.0
N1679 N 0.51363 0.67805 0.3177 0.0
C1680 C 0.61073 0.72159 0.30923 0.0
C1681 C 0.54598 0.68974 0.31835 0.0
N1682 N 0.60733 0.6723 0.30194 0.0
N1683 N 0.5534 0.73024 0.33933 0.0
H1684 H 0.49769 0.65693 0.31129 0.0
H1685 H 0.50293 0.69089 0.32188 0.0
H1686 H 0.56537 0.75234 0.34472 0.0
H1687 H 0.53082 0.71634 0.34506 0.0
H1688 H 0.63218 0.6826 0.30121 0.0
H1689 H 0.59465 0.64807 0.30022 0.0
H1690 H 0.64273 0.72589 0.28795 0.0
H1691 H 0.64405 0.76034 0.29325 0.0
C1692 C 0.27625 0.85507 0.29051 0.0
C1693 C 0.30369 0.86673 0.30235 0.0
C1694 C 0.26783 0.84897 0.32876 0.0
C1695 C 0.24304 0.84761 0.31798 0.0
N1696 N 0.21821 0.82726 0.2887 0.0
N1697 N 0.32445 0.87613 0.33387 0.0
C1698 C 0.24556 0.84481 0.29858 0.0
C1699 C 0.29921 0.86465 0.32183 0.0
N1700 N 0.27928 0.85292 0.2718 0.0
N1701 N 0.26039 0.82619 0.3413 0.0
H1702 H 0.34816 0.88936 0.32959 0.0
H1703 H 0.32102 0.87409 0.34819 0.0
H1704 H 0.23668 0.80841 0.34271 0.0
H1705 H 0.2779 0.82294 0.3478 0.0
H1706 H 0.26114 0.84828 0.26229 0.0
H1707 H 0.30029 0.85636 0.26565 0.0
H1708 H 0.21723 0.82171 0.2747 0.0
H1709 H 0.19653 0.8146 0.29559 0.0
C1710 C 0.10212 0.41208 0.32014 0.0
C1711 C 0.12302 0.43771 0.30905 0.0
C1712 C 0.16763 0.42932 0.31736 0.0
C1713 C 0.14555 0.40158 0.32656 0.0
N1714 N 0.09878 0.3792 0.34555 0.0
N1715 N 0.17609 0.4729 0.29785 0.0
C1716 C 0.11464 0.39636 0.33048 0.0
C1717 C 0.15608 0.4472 0.30801 0.0
N1718 N 0.07011 0.40207 0.32042 0.0
N1719 N 0.1996 0.43956 0.31875 0.0
H1720 H 0.16856 0.48707 0.2915 0.0
H1721 H 0.19981 0.47976 0.29505 0.0
H1722 H 0.20857 0.42838 0.32698 0.0
H1723 H 0.2175 0.46035 0.31323 0.0
H1724 H 0.05351 0.3813 0.32672 0.0
H1725 H 0.05987 0.41311 0.31313 0.0
H1726 H 0.07746 0.37717 0.35032 0.0
H1727 H 0.10904 0.37006 0.35443 0.0
C1728 C 0.30494 0.41525 0.32256 0.0
C1729 C 0.30403 0.43106 0.30647 0.0
C1730 C 0.24524 0.40207 0.30721 0.0
C1731 C 0.24604 0.38404 0.32248 0.0
N1732 N 0.27769 0.36848 0.34059 0.0
N1733 N 0.27412 0.43985 0.28289 0.0
C1734 C 0.2762 0.38957 0.32918 0.0
C1735 C 0.27433 0.42467 0.2987 0.0
N1736 N 0.33339 0.42431 0.33141 0.0
N1737 N 0.21655 0.39684 0.3004 0.0
H1738 H 0.29486 0.4579 0.27708 0.0
H1739 H 0.2539 0.43414 0.27493 0.0
H1740 H 0.19496 0.38062 0.30607 0.0
H1741 H 0.21362 0.40974 0.29003 0.0
H1742 H 0.33489 0.41597 0.34441 0.0
H1743 H 0.35529 0.44199 0.32652 0.0
H1744 H 0.29886 0.36873 0.34389 0.0
H1745 H 0.2573 0.34925 0.34558 0.0
C1746 C 0.55181 0.83828 0.31256 0.0
C1747 C 0.56352 0.87 0.30793 0.0
C1748 C 0.61808 0.88202 0.31584 0.0
C1749 C 0.60657 0.85053 0.32127 0.0
N1750 N 0.56185 0.79939 0.32613 0.0
N1751 N 0.60639 0.92331 0.30885 0.0
C1752 C 0.57313 0.82906 0.32015 0.0
C1753 C 0.59623 0.89225 0.3108 0.0
N1754 N 0.5207 0.81653 0.30856 0.0
N1755 N 0.6501 0.90179 0.3144 0.0
H1756 H 0.59101 0.93152 0.30508 0.0
H1757 H 0.62926 0.94097 0.31258 0.0
H1758 H 0.66628 0.89489 0.31824 0.0
H1759 H 0.66027 0.92367 0.30822 0.0
H1760 H 0.51143 0.79254 0.30955 0.0
H1761 H 0.50428 0.82218 0.30299 0.0
H1762 H 0.53782 0.78334 0.32837 0.0
H1763 H 0.57754 0.79197 0.33006 0.0
C1764 C 0.10391 0.68555 0.32056 0.0
C1765 C 0.1218 0.68173 0.30632 0.0
C1766 C 0.16382 0.73669 0.30973 0.0
C1767 C 0.14479 0.74083 0.32309 0.0
N1768 N 0.10438 0.71669 0.34649 0.0
N1769 N 0.16902 0.70245 0.28738 0.0
C1770 C 0.11698 0.71455 0.33004 0.0
C1771 C 0.15196 0.707 0.30094 0.0
N1772 N 0.07383 0.66183 0.32455 0.0
N1773 N 0.19413 0.7606 0.3066 0.0
H1774 H 0.16176 0.68069 0.28135 0.0
H1775 H 0.18985 0.72013 0.28156 0.0
H1776 H 0.20424 0.78104 0.31451 0.0
H1777 H 0.21031 0.75962 0.29756 0.0
H1778 H 0.05819 0.66458 0.33322 0.0
H1779 H 0.06339 0.64006 0.31797 0.0
H1780 H 0.0863 0.69755 0.35337 0.0
H1781 H 0.11433 0.73721 0.35421 0.0
C1782 C 0.75278 0.97926 0.35852 0.0
C1783 C 0.77432 0.98282 0.37292 0.0
C1784 C 0.75473 0.92662 0.37205 0.0
C1785 C 0.73481 0.92315 0.35649 0.0
N1786 N 0.7226 0.94889 0.33205 0.0
N1787 N 0.80141 0.9614 0.39043 0.0
C1788 C 0.73614 0.9503 0.34886 0.0
C1789 C 0.77699 0.95695 0.37879 0.0
N1790 N 0.74764 0.00334 0.35429 0.0
N1791 N 0.75218 0.90105 0.38073 0.0
H1792 H 0.81818 0.98325 0.39572 0.0
H1793 H 0.80681 0.94394 0.39343 0.0
H1794 H 0.7377 0.87857 0.3758 0.0
H1795 H 0.76297 0.90208 0.39346 0.0
H1796 H 0.72947 0.00089 0.34536 0.0
H1797 H 0.75959 0.02499 0.361 0.0
H1798 H 0.72488 0.96835 0.32513 0.0
H1799 H 0.71318 0.92899 0.32394 0.0
C1800 C 0.05429 0.82436 0.37031 0.0
C1801 C 0.02648 0.7945 0.37024 0.0
C1802 C 0.05678 0.77247 0.35542 0.0
C1803 C 0.08549 0.80213 0.35658 0.0
N1804 N 0.11163 0.85219 0.37226 0.0
N1805 N 0.99914 0.74119 0.35973 0.0
C1806 C 0.08428 0.82732 0.36554 0.0
C1807 C 0.02718 0.76883 0.36195 0.0
N1808 N 0.05224 0.84997 0.37534 0.0
N1809 N 0.05825 0.74722 0.34901 0.0
H1810 H 0.97726 0.73772 0.36456 0.0
H1811 H 0.99681 0.72239 0.35196 0.0
H1812 H 0.0784 0.74945 0.34249 0.0
H1813 H 0.04005 0.72416 0.35033 0.0
H1814 H 0.07103 0.87274 0.37364 0.0
H1815 H 0.03086 0.84854 0.37949 0.0
H1816 H 0.11212 0.87021 0.38006 0.0
H1817 H 0.13299 0.85205 0.37289 0.0
C1818 C 0.23492 0.25675 0.36188 0.0
C1819 C 0.21327 0.22859 0.37078 0.0
C1820 C 0.16804 0.23436 0.36003 0.0
C1821 C 0.19016 0.26424 0.35295 0.0
N1822 N 0.24121 0.29408 0.3385 0.0
N1823 N 0.15932 0.19006 0.3788 0.0
C1824 C 0.22277 0.27287 0.35151 0.0
C1825 C 0.17977 0.21703 0.3698 0.0
N1826 N 0.26717 0.26858 0.36368 0.0
N1827 N 0.13613 0.22164 0.35634 0.0
H1828 H 0.16697 0.17633 0.3856 0.0
H1829 H 0.13509 0.18217 0.38061 0.0
H1830 H 0.12689 0.2327 0.34828 0.0
H1831 H 0.11898 0.1988 0.3595 0.0
H1832 H 0.28399 0.2909 0.3593 0.0
H1833 H 0.27707 0.25711 0.37085 0.0
H1834 H 0.26449 0.29946 0.33543 0.0
H1835 H 0.23153 0.30313 0.32913 0.0
C1836 C 0.71333 0.55612 0.70104 0.0
C1837 C 0.69193 0.56778 0.70195 0.0
C1838 C 0.73442 0.6193 0.69184 0.0
C1839 C 0.75633 0.60784 0.69098 0.0
N1840 N 0.76809 0.56798 0.70109 0.0
N1841 N 0.67926 0.60752 0.6942 0.0
C1842 C 0.74605 0.57678 0.69701 0.0
C1843 C 0.70167 0.59851 0.69613 0.0
N1844 N 0.70244 0.52515 0.70419 0.0
N1845 N 0.74523 0.65054 0.69017 0.0
H1846 H 0.65517 0.59282 0.69732 0.0
H1847 H 0.68382 0.62821 0.68783 0.0
H1848 H 0.76867 0.66688 0.68693 0.0
H1849 H 0.73142 0.66075 0.69321 0.0
H1850 H 0.71573 0.51434 0.70124 0.0
H1851 H 0.6791 0.50949 0.70825 0.0
H1852 H 0.76263 0.54722 0.70768 0.0
H1853 H 0.79257 0.58283 0.69996 0.0
C1854 C 0.442 0.14975 0.69279 0.0
C1855 C 0.43506 0.12349 0.70374 0.0
C1856 C 0.37974 0.11154 0.70681 0.0
C1857 C 0.38496 0.13656 0.69449 0.0
N1858 N 0.42611 0.18609 0.68221 0.0
N1859 N 0.39566 0.07442 0.71629 0.0
C1860 C 0.41748 0.15735 0.68901 0.0
C1861 C 0.40336 0.10275 0.70893 0.0
N1862 N 0.47198 0.16711 0.68559 0.0
N1863 N 0.3547 0.09883 0.71889 0.0
H1864 H 0.41243 0.06722 0.71827 0.0
H1865 H 0.37211 0.05683 0.71846 0.0
H1866 H 0.34053 0.10833 0.72202 0.0
H1867 H 0.35199 0.08269 0.729 0.0
H1868 H 0.47771 0.18381 0.67533 0.0
H1869 H 0.49058 0.16282 0.68861 0.0
H1870 H 0.44967 0.20369 0.68026 0.0
H1871 H 0.41018 0.1939 0.68027 0.0
C1872 C 0.85925 0.30463 0.68973 0.0
C1873 C 0.8833 0.3164 0.7038 0.0
C1874 C 0.87401 0.26403 0.7089 0.0
C1875 C 0.85531 0.25308 0.69249 0.0
N1876 N 0.81557 0.25882 0.67532 0.0
N1877 N 0.9183 0.30781 0.72388 0.0
C1878 C 0.844 0.27228 0.68469 0.0
C1879 C 0.89236 0.29628 0.71229 0.0
N1880 N 0.85061 0.3241 0.68136 0.0
N1881 N 0.87019 0.24384 0.7228 0.0
H1882 H 0.93308 0.33169 0.72636 0.0
H1883 H 0.92664 0.29365 0.72934 0.0
H1884 H 0.852 0.22055 0.72247 0.0
H1885 H 0.88176 0.25133 0.73562 0.0
H1886 H 0.83661 0.31812 0.66937 0.0
H1887 H 0.85907 0.34706 0.68566 0.0
H1888 H 0.80417 0.27088 0.671 0.0
H1889 H 0.80059 0.23481 0.67458 0.0
C1890 C 0.21559 0.02084 0.65538 0.0
C1891 C 0.22802 0.01077 0.64077 0.0
C1892 C 0.27074 0.06436 0.63669 0.0
C1893 C 0.26333 0.07387 0.65381 0.0
N1894 N 0.22265 0.061 0.67704 0.0
N1895 N 0.27165 0.02243 0.62011 0.0
C1896 C 0.23423 0.05191 0.66267 0.0
C1897 C 0.25724 0.0323 0.63252 0.0
N1898 N 0.18494 0.00171 0.66129 0.0
N1899 N 0.28699 0.08555 0.62312 0.0
H1900 H 0.26249 -0.00111 0.6168 0.0
H1901 H 0.29423 0.03748 0.61469 0.0
H1902 H 0.29053 0.10813 0.62353 0.0
H1903 H 0.29132 0.07914 0.61012 0.0
H1904 H 0.17287 0.00872 0.67028 0.0
H1905 H 0.17024 0.97919 0.65615 0.0
H1906 H 0.20597 0.04537 0.68637 0.0
H1907 H 0.22769 0.08386 0.67852 0.0
C1908 C 0.97366 0.23282 0.65213 0.0
C1909 C 0.97607 0.20923 0.64231 0.0
C1910 C 0.92082 0.17153 0.65056 0.0
C1911 C 0.91644 0.19608 0.65769 0.0
N1912 N 0.93901 0.25136 0.66362 0.0
N1913 N 0.95032 0.15709 0.62955 0.0
C1914 C 0.94304 0.22711 0.65802 0.0
C1915 C 0.94922 0.17885 0.64083 0.0
N1916 N 0.00068 0.26052 0.65608 0.0
N1917 N 0.89849 0.14111 0.65338 0.0
H1918 H 0.9708 0.16125 0.62238 0.0
H1919 H 0.93011 0.13593 0.62602 0.0
H1920 H 0.87839 0.13454 0.66127 0.0
H1921 H 0.902 0.12252 0.65001 0.0
H1922 H 0.00093 0.27727 0.66501 0.0
H1923 H 0.02337 0.2655 0.65177 0.0
H1924 H 0.95645 0.27471 0.66203 0.0
H1925 H 0.9177 0.24821 0.66921 0.0
C1926 C 0.76655 0.73619 0.63912 0.0
C1927 C 0.7816 0.76789 0.64431 0.0
C1928 C 0.82455 0.76287 0.65947 0.0
C1929 C 0.81 0.73136 0.65301 0.0
N1930 N 0.77907 0.69895 0.6268 0.0
N1931 N 0.82693 0.81323 0.65773 0.0
C1932 C 0.78413 0.72063 0.64013 0.0
C1933 C 0.81109 0.78179 0.65425 0.0
N1934 N 0.73609 0.72138 0.63215 0.0
N1935 N 0.85261 0.77538 0.66918 0.0
H1936 H 0.81763 0.82756 0.65418 0.0
H1937 H 0.84984 0.82563 0.66339 0.0
H1938 H 0.86628 0.7645 0.66971 0.0
H1939 H 0.86262 0.79653 0.67635 0.0
H1940 H 0.72365 0.69746 0.62926 0.0
H1941 H 0.72245 0.73237 0.63114 0.0
H1942 H 0.76081 0.69149 0.61691 0.0
H1943 H 0.79673 0.69393 0.62297 0.0
C1944 C 0.94476 0.74464 0.62503 0.0
C1945 C 0.97189 0.76056 0.63699 0.0
C1946 C 0.93573 0.74589 0.66322 0.0
C1947 C 0.91077 0.72324 0.65238 0.0
N1948 N 0.88725 0.72125 0.623 0.0
N1949 N 0.99239 0.77496 0.66843 0.0
C1950 C 0.91378 0.72767 0.63301 0.0
C1951 C 0.96718 0.76052 0.6564 0.0
N1952 N 0.94824 0.74607 0.60622 0.0
N1953 N 0.92845 0.76039 0.67662 0.0
H1954 H 0.01615 0.78498 0.66423 0.0
H1955 H 0.98904 0.77454 0.68274 0.0
H1956 H 0.9047 0.75438 0.6785 0.0
H1957 H 0.94578 0.78055 0.68341 0.0
H1958 H 0.9297 0.73172 0.59717 0.0
H1959 H 0.96988 0.76049 0.59967 0.0
H1960 H 0.88754 0.72658 0.60901 0.0
H1961 H 0.86573 0.71474 0.6297 0.0
C1962 C 0.21749 0.17022 0.64784 0.0
C1963 C 0.22907 0.20056 0.64066 0.0
C1964 C 0.28432 0.2127 0.64682 0.0
C1965 C 0.27296 0.18131 0.6526 0.0
N1966 N 0.22838 0.12873 0.65441 0.0
N1967 N 0.27254 0.25278 0.63641 0.0
C1968 C 0.2394 0.1598 0.65218 0.0
C1969 C 0.26229 0.2224 0.64101 0.0
N1970 N 0.18539 0.15116 0.65051 0.0
N1971 N 0.31643 0.23288 0.64616 0.0
H1972 H 0.25692 0.26049 0.63228 0.0
H1973 H 0.29599 0.27095 0.63781 0.0
H1974 H 0.33261 0.22728 0.65185 0.0
H1975 H 0.32718 0.25458 0.6398 0.0
H1976 H 0.17589 0.1306 0.65811 0.0
H1977 H 0.16834 0.15715 0.6466 0.0
H1978 H 0.20463 0.11139 0.65242 0.0
H1979 H 0.24364 0.11997 0.65621 0.0
C1980 C 0.76935 0.01566 0.65964 0.0
C1981 C 0.78145 0.01176 0.6426 0.0
C1982 C 0.8159 0.06833 0.63994 0.0
C1983 C 0.8052 0.0724 0.65759 0.0
N1984 N 0.77648 0.04891 0.68594 0.0
N1985 N 0.82171 0.03326 0.61888 0.0
C1986 C 0.78358 0.04577 0.66803 0.0
C1987 C 0.80629 0.03778 0.63342 0.0
N1988 N 0.7433 0.99083 0.66741 0.0
N1989 N 0.8351 0.09354 0.62921 0.0
H1990 H 0.81576 0.0112 0.61382 0.0
H1991 H 0.84242 0.05114 0.61298 0.0
H1992 H 0.84536 0.11656 0.63375 0.0
H1993 H 0.83946 0.09165 0.61525 0.0
H1994 H 0.73097 0.9929 0.67865 0.0
H1995 H 0.73214 0.96843 0.66164 0.0
H1996 H 0.76412 0.03008 0.69481 0.0
H1997 H 0.78512 0.07028 0.69259 0.0
C1998 C 0.44478 0.28768 0.7127 0.0
C1999 C 0.44404 0.3146 0.70673 0.0
C2000 C 0.40528 0.2836 0.68246 0.0
C2001 C 0.40245 0.25584 0.69004 0.0
N2002 N 0.41748 0.23131 0.71404 0.0
N2003 N 0.41951 0.33737 0.6881 0.0
C2004 C 0.42162 0.25783 0.70566 0.0
C2005 C 0.42313 0.31234 0.69222 0.0
N2006 N 0.46821 0.29073 0.7247 0.0
N2007 N 0.39164 0.28287 0.66574 0.0
H2008 H 0.43219 0.35885 0.69494 0.0
H2009 H 0.40183 0.33598 0.67914 0.0
H2010 H 0.3804 0.26284 0.65766 0.0
H2011 H 0.39507 0.30279 0.65887 0.0
H2012 H 0.47226 0.27247 0.7279 0.0
H2013 H 0.48551 0.3122 0.7302 0.0
H2014 H 0.42802 0.23143 0.72671 0.0
H2015 H 0.40182 0.20888 0.70912 0.0
C2016 C 0.7016 0.10632 0.696 0.0
C2017 C 0.69386 0.12858 0.70273 0.0
C2018 C 0.7494 0.17018 0.69892 0.0
C2019 C 0.75794 0.14808 0.69219 0.0
N2020 N 0.74253 0.09376 0.68849 0.0
N2021 N 0.70782 0.1823 0.70622 0.0
C2022 C 0.73397 0.11578 0.69165 0.0
C2023 C 0.71693 0.16068 0.70265 0.0
N2024 N 0.67768 0.07617 0.69325 0.0
N2025 N 0.77261 0.19965 0.70378 0.0
H2026 H 0.68454 0.1763 0.70983 0.0
H2027 H 0.72257 0.20612 0.70395 0.0
H2028 H 0.79677 0.20755 0.70243 0.0
H2029 H 0.76824 0.2154 0.71102 0.0
H2030 H 0.68078 0.05943 0.68625 0.0
H2031 H 0.65384 0.06859 0.69645 0.0
H2032 H 0.72752 0.06994 0.69055 0.0
H2033 H 0.76538 0.09956 0.6845 0.0
C2034 C 0.90313 0.59507 0.70777 0.0
C2035 C 0.88708 0.56282 0.70392 0.0
C2036 C 0.84479 0.56787 0.68792 0.0
C2037 C 0.85992 0.60012 0.69342 0.0
N2038 N 0.89231 0.63416 0.71891 0.0
N2039 N 0.83878 0.51681 0.69379 0.0
C2040 C 0.88612 0.61122 0.70621 0.0
C2041 C 0.8569 0.54866 0.69479 0.0
N2042 N 0.93406 0.61007 0.71396 0.0
N2043 N 0.81783 0.55469 0.6772 0.0
H2044 H 0.84659 0.50194 0.6987 0.0
H2045 H 0.8149 0.50488 0.68957 0.0
H2046 H 0.80406 0.56501 0.67478 0.0
H2047 H 0.80892 0.53304 0.6707 0.0
H2048 H 0.94706 0.63425 0.71586 0.0
H2049 H 0.94734 0.59876 0.71528 0.0
H2050 H 0.91089 0.64183 0.7286 0.0
H2051 H 0.87556 0.64061 0.7225 0.0
C2052 C 0.46567 0.97544 0.16198 0.0
C2053 C 0.47164 0.95058 0.16562 0.0
C2054 C 0.49606 0.9575 0.13495 0.0
C2055 C 0.48898 0.98159 0.13108 0.0
N2056 N 0.45829 0.00639 0.13861 0.0
N2057 N 0.48396 0.91226 0.15362 0.0
C2058 C 0.47085 0.98818 0.14387 0.0
C2059 C 0.48405 0.93974 0.15143 0.0
N2060 N 0.4569 0.98825 0.17601 0.0
N2061 N 0.51573 0.95268 0.12352 0.0
H2062 H 0.47493 0.89852 0.16544 0.0
H2063 H 0.48977 0.90162 0.14301 0.0
H2064 H 0.52563 0.96547 0.1115 0.0
H2065 H 0.52442 0.93776 0.12681 0.0
H2066 H 0.45561 0.00853 0.17446 0.0
H2067 H 0.45386 0.9805 0.18967 0.0
H2068 H 0.44233 0.00954 0.14677 0.0
H2069 H 0.46116 0.01557 0.12529 0.0
C2070 C 0.04113 0.49664 0.15436 0.0
C2071 C 0.03702 0.51774 0.16588 0.0
C2072 C 0.01064 0.52852 0.14021 0.0
C2073 C 0.00911 0.50314 0.13021 0.0
N2074 N 0.0229 0.46273 0.12724 0.0
N2075 N 0.01497 0.55181 0.17035 0.0
C2076 C 0.0247 0.48729 0.13703 0.0
C2077 C 0.02148 0.53361 0.15889 0.0
N2078 N 0.06113 0.48605 0.1599 0.0
N2079 N 0.00158 0.54765 0.13182 0.0
H2080 H 0.02122 0.55534 0.18437 0.0
H2081 H 0.00073 0.56117 0.1664 0.0
H2082 H 0.99333 0.54433 0.11814 0.0
H2083 H 0.00532 0.56847 0.13776 0.0
H2084 H 0.06733 0.47278 0.15147 0.0
H2085 H 0.07398 0.49303 0.17237 0.0
H2086 H 0.03047 0.44788 0.13247 0.0
H2087 H 0.0122 0.4562 0.11414 0.0
C2088 C 0.46866 0.52566 0.14955 0.0
C2089 C 0.4794 0.51555 0.16497 0.0
C2090 C 0.49961 0.49049 0.14386 0.0
C2091 C 0.48302 0.49488 0.12898 0.0
N2092 N 0.45287 0.51791 0.11705 0.0
N2093 N 0.50528 0.48833 0.17715 0.0
C2094 C 0.46842 0.51343 0.13155 0.0
C2095 C 0.49546 0.49842 0.16221 0.0
N2096 N 0.45877 0.5469 0.15219 0.0
N2097 N 0.51923 0.47859 0.1403 0.0
H2098 H 0.50323 0.49413 0.1908 0.0
H2099 H 0.5136 0.4726 0.17612 0.0
H2100 H 0.52277 0.47294 0.12687 0.0
H2101 H 0.53427 0.47726 0.1502 0.0
H2102 H 0.45351 0.55756 0.14139 0.0
H2103 H 0.45844 0.5559 0.16526 0.0
H2104 H 0.4386 0.52808 0.11842 0.0
H2105 H 0.45311 0.51013 0.10362 0.0
C2106 C 0.00225 0.49865 0.85009 0.0
C2107 C 0.96891 0.4801 0.84658 0.0
C2108 C 0.95766 0.48314 0.87943 0.0
C2109 C 0.99096 0.50281 0.88272 0.0
N2110 N 0.04501 0.52105 0.87302 0.0
N2111 N 0.91561 0.44785 0.85817 0.0
C2112 C 0.01326 0.50768 0.8686 0.0
C2113 C 0.94683 0.46995 0.86141 0.0
N2114 N 0.02323 0.50899 0.83563 0.0
N2115 N 0.93639 0.4785 0.8932 0.0
H2116 H 0.9071 0.43817 0.84504 0.0
H2117 H 0.89882 0.43721 0.86862 0.0
H2118 H 0.94355 0.48706 0.90665 0.0
H2119 H 0.91174 0.46744 0.89115 0.0
H2120 H 0.04733 0.52573 0.83708 0.0
H2121 H 0.01621 0.50232 0.82188 0.0
H2122 H 0.0623 0.52283 0.86374 0.0
H2123 H 0.05351 0.52758 0.88659 0.0
C2124 C 0.54883 0.49863 0.85867 0.0
C2125 C 0.52406 0.47948 0.84594 0.0
C2126 C 0.48417 0.46919 0.86996 0.0
C2127 C 0.50827 0.49279 0.88123 0.0
N2128 N 0.56384 0.53053 0.88663 0.0
N2129 N 0.46748 0.44864 0.8389 0.0
C2130 C 0.5408 0.50745 0.87578 0.0
C2131 C 0.49152 0.46489 0.85151 0.0
N2132 N 0.5799 0.5078 0.85451 0.0
N2133 N 0.45422 0.45083 0.87697 0.0
H2134 H 0.47152 0.44573 0.82505 0.0
H2135 H 0.44344 0.44039 0.84176 0.0
H2136 H 0.44819 0.45349 0.89047 0.0
H2137 H 0.43649 0.43109 0.87013 0.0
H2138 H 0.59879 0.51935 0.86388 0.0
H2139 H 0.58643 0.50125 0.84224 0.0
H2140 H 0.58741 0.54466 0.88243 0.0
H2141 H 0.55893 0.53674 0.89954 0.0
C2142 C 0.55386 0.05534 0.85847 0.0
C2143 C 0.52945 0.05563 0.8475 0.0
C2144 C 0.49087 0.02685 0.87201 0.0
C2145 C 0.51314 0.01968 0.88025 0.0
N2146 N 0.56724 0.02916 0.88224 0.0
N2147 N 0.48596 0.06496 0.85377 0.0
C2148 C 0.54518 0.03475 0.87386 0.0
C2149 C 0.50072 0.04802 0.85695 0.0
N2150 N 0.58491 0.07816 0.85617 0.0
N2151 N 0.46017 0.01319 0.87827 0.0
H2152 H 0.49639 0.08478 0.84541 0.0
H2153 H 0.46646 0.06225 0.86143 0.0
H2154 H 0.45214 -0.0018 0.88961 0.0
H2155 H 0.44234 0.01532 0.87134 0.0
H2156 H 0.60351 0.0809 0.86483 0.0
H2157 H 0.59098 0.09695 0.84732 0.0
H2158 H 0.58996 0.03696 0.87681 0.0
H2159 H 0.5621 0.0152 0.89397 0.0
C2160 C 0.12575 0.30309 0.49519 0.0
C2161 C 0.13504 0.28075 0.49968 0.0
C2162 C 0.16075 0.28878 0.46927 0.0
C2163 C 0.15053 0.31033 0.46465 0.0
N2164 N 0.11537 0.33064 0.47086 0.0
N2165 N 0.15366 0.24629 0.48911 0.0
C2166 C 0.1303 0.31495 0.47685 0.0
C2167 C 0.15009 0.27165 0.48608 0.0
N2168 N 0.11454 0.31463 0.50865 0.0
N2169 N 0.18186 0.28575 0.4581 0.0
H2170 H 0.14559 0.23291 0.50112 0.0
H2171 H 0.16167 0.23673 0.47901 0.0
H2172 H 0.19002 0.2976 0.44561 0.0
H2173 H 0.19307 0.27322 0.46188 0.0
H2174 H 0.11064 0.33329 0.5065 0.0
H2175 H 0.11204 0.30774 0.52247 0.0
H2176 H 0.0979 0.33211 0.47851 0.0
H2177 H 0.11806 0.33934 0.45741 0.0
C2178 C 0.71147 0.83049 0.48943 0.0
C2179 C 0.706 0.8514 0.50028 0.0
C2180 C 0.67984 0.86009 0.47366 0.0
C2181 C 0.6794 0.8346 0.4644 0.0
N2182 N 0.695 0.79538 0.46286 0.0
N2183 N 0.68232 0.88436 0.50321 0.0
C2184 C 0.69568 0.81998 0.47199 0.0
C2185 C 0.69001 0.86626 0.49244 0.0
N2186 N 0.732 0.82104 0.49577 0.0
N2187 N 0.67015 0.87812 0.46451 0.0
H2188 H 0.68811 0.88871 0.51725 0.0
H2189 H 0.66763 0.89286 0.49864 0.0
H2190 H 0.66231 0.87394 0.45074 0.0
H2191 H 0.67297 0.89893 0.46993 0.0
H2192 H 0.73909 0.8079 0.48787 0.0
H2193 H 0.74434 0.82889 0.50835 0.0
H2194 H 0.70312 0.78133 0.46866 0.0
H2195 H 0.68474 0.78806 0.4497 0.0
C2196 C 0.12845 0.81371 0.49468 0.0
C2197 C 0.13396 0.84407 0.49895 0.0
C2198 C 0.15757 0.86243 0.46836 0.0
C2199 C 0.151 0.83176 0.464 0.0
N2200 N 0.12104 0.77667 0.47047 0.0
N2201 N 0.14568 0.89487 0.48834 0.0
C2202 C 0.13318 0.80686 0.47632 0.0
C2203 C 0.14582 0.86765 0.48523 0.0
N2204 N 0.12095 0.79206 0.50833 0.0
N2205 N 0.17644 0.88678 0.45701 0.0
H2206 H 0.13691 0.89917 0.50054 0.0
H2207 H 0.15132 0.91173 0.47818 0.0
H2208 H 0.18563 0.88395 0.44455 0.0
H2209 H 0.1849 0.91005 0.4606 0.0
H2210 H 0.12023 0.77087 0.50614 0.0
H2211 H 0.11854 0.79631 0.52223 0.0
H2212 H 0.10552 0.75753 0.47844 0.0
H2213 H 0.12375 0.77092 0.45691 0.0
C2214 C 0.61652 0.80501 0.19376 0.0
C2215 C 0.63675 0.81616 0.17811 0.0
C2216 C 0.68341 0.84269 0.19857 0.0
C2217 C 0.66294 0.83691 0.21391 0.0
N2218 N 0.6091 0.81398 0.22593 0.0
N2219 N 0.68942 0.84801 0.1653 0.0
C2220 C 0.62919 0.81795 0.21159 0.0
C2221 C 0.67025 0.83547 0.18042 0.0
N2222 N 0.58528 0.7822 0.19155 0.0
N2223 N 0.71551 0.85495 0.20145 0.0
H2224 H 0.68088 0.84289 0.15168 0.0
H2225 H 0.71338 0.86537 0.16631 0.0
H2226 H 0.72574 0.85965 0.2147 0.0
H2227 H 0.73132 0.85731 0.19095 0.0
H2228 H 0.57021 0.77075 0.20264 0.0
H2229 H 0.57529 0.77275 0.1786 0.0
H2230 H 0.58435 0.80314 0.22441 0.0
H2231 H 0.61712 0.82362 0.23907 0.0
C2232 C 0.16365 0.82195 0.18077 0.0
C2233 C 0.18671 0.81238 0.17876 0.0
C2234 C 0.19845 0.82003 0.21215 0.0
C2235 C 0.17513 0.82944 0.21416 0.0
N2236 N 0.12891 0.82964 0.20161 0.0
N2237 N 0.21952 0.79405 0.1929 0.0
C2238 C 0.1555 0.82708 0.19882 0.0
C2239 C 0.20192 0.80862 0.19461 0.0
N2240 N 0.15056 0.82754 0.16543 0.0
N2241 N 0.21859 0.82374 0.22654 0.0
H2242 H 0.22272 0.78581 0.18019 0.0
H2243 H 0.22842 0.78764 0.20421 0.0
H2244 H 0.21716 0.8323 0.23949 0.0
H2245 H 0.2382 0.82045 0.22525 0.0
H2246 H 0.13661 0.83817 0.16606 0.0
H2247 H 0.15565 0.82387 0.15192 0.0
H2248 H 0.1121 0.8255 0.19126 0.0
H2249 H 0.12196 0.8327 0.21479 0.0
C2250 C 0.16411 0.34853 0.18126 0.0
C2251 C 0.1898 0.37947 0.17898 0.0
C2252 C 0.20476 0.38113 0.21178 0.0
C2253 C 0.17824 0.35052 0.21413 0.0
N2254 N 0.12741 0.30961 0.20262 0.0
N2255 N 0.22944 0.42798 0.19296 0.0
C2256 C 0.15616 0.3358 0.19933 0.0
C2257 C 0.20847 0.39671 0.19457 0.0
N2258 N 0.14833 0.33058 0.16612 0.0
N2259 N 0.22737 0.39468 0.22546 0.0
H2260 H 0.23267 0.43995 0.18054 0.0
H2261 H 0.24132 0.44246 0.20425 0.0
H2262 H 0.22589 0.38404 0.23815 0.0
H2263 H 0.24886 0.41548 0.22371 0.0
H2264 H 0.13193 0.30676 0.16694 0.0
H2265 H 0.15371 0.33862 0.15253 0.0
H2266 H 0.1092 0.29939 0.19271 0.0
H2267 H 0.12052 0.30012 0.21585 0.0
C2268 C 0.83049 0.65392 0.82871 0.0
C2269 C 0.8152 0.62101 0.83068 0.0
C2270 C 0.80165 0.61412 0.79742 0.0
C2271 C 0.81604 0.64705 0.79562 0.0
N2272 N 0.85217 0.69819 0.80786 0.0
N2273 N 0.79366 0.57028 0.81648 0.0
C2274 C 0.83322 0.66688 0.81076 0.0
C2275 C 0.80334 0.60127 0.81482 0.0
N2276 N 0.84098 0.67274 0.84411 0.0
N2277 N 0.78487 0.59512 0.78284 0.0
H2278 H 0.79432 0.56032 0.82909 0.0
H2279 H 0.78763 0.55507 0.80521 0.0
H2280 H 0.78381 0.60368 0.76983 0.0
H2281 H 0.77069 0.57097 0.78384 0.0
H2282 H 0.84862 0.6965 0.84387 0.0
H2283 H 0.84021 0.66426 0.85743 0.0
H2284 H 0.86759 0.71374 0.81787 0.0
H2285 H 0.85475 0.70812 0.79477 0.0
C2286 C 0.37493 0.16319 0.82188 0.0
C2287 C 0.37207 0.18509 0.83336 0.0
C2288 C 0.3492 0.19904 0.80728 0.0
C2289 C 0.34609 0.17304 0.79724 0.0
N2290 N 0.35589 0.12997 0.79447 0.0
N2291 N 0.35288 0.22158 0.83755 0.0
C2292 C 0.35929 0.15516 0.80429 0.0
C2293 C 0.35873 0.20284 0.82615 0.0
N2294 N 0.39297 0.15055 0.82772 0.0
N2295 N 0.34274 0.21994 0.79876 0.0
H2296 H 0.35791 0.22405 0.85173 0.0
H2297 H 0.34013 0.23237 0.83332 0.0
H2298 H 0.33556 0.21764 0.78489 0.0
H2299 H 0.34771 0.24107 0.80484 0.0
H2300 H 0.39825 0.13652 0.81935 0.0
H2301 H 0.4052 0.1565 0.84039 0.0
H2302 H 0.36166 0.11385 0.79981 0.0
H2303 H 0.34566 0.12431 0.78123 0.0
C2304 C 0.80353 0.19343 0.81741 0.0
C2305 C 0.81344 0.18316 0.83313 0.0
C2306 C 0.83622 0.15974 0.81264 0.0
C2307 C 0.8206 0.16425 0.79729 0.0
N2308 N 0.79011 0.18637 0.78455 0.0
N2309 N 0.83884 0.15596 0.84602 0.0
C2310 C 0.80499 0.18198 0.79944 0.0
C2311 C 0.83015 0.16656 0.83083 0.0
N2312 N 0.79278 0.21408 0.81971 0.0
N2313 N 0.85672 0.14865 0.80968 0.0
H2314 H 0.83538 0.16094 0.85961 0.0
H2315 H 0.84753 0.1405 0.8452 0.0
H2316 H 0.86168 0.14383 0.79638 0.0
H2317 H 0.87105 0.14723 0.82003 0.0
H2318 H 0.78815 0.22491 0.80874 0.0
H2319 H 0.79104 0.2224 0.83273 0.0
H2320 H 0.77521 0.19591 0.78556 0.0
H2321 H 0.79153 0.17912 0.77117 0.0
C2322 C 0.27984 0.13506 0.52745 0.0
C2323 C 0.30154 0.14543 0.51241 0.0
C2324 C 0.34655 0.17025 0.53429 0.0
C2325 C 0.32488 0.16527 0.54883 0.0
N2326 N 0.27063 0.14253 0.55968 0.0
N2327 N 0.3557 0.17391 0.50116 0.0
C2328 C 0.29138 0.14698 0.54564 0.0
C2329 C 0.335 0.16291 0.51575 0.0
N2330 N 0.24829 0.1139 0.52428 0.0
N2331 N 0.37826 0.18227 0.53835 0.0
H2332 H 0.34829 0.16863 0.48736 0.0
H2333 H 0.37999 0.19 0.50265 0.0
H2334 H 0.38712 0.18753 0.55192 0.0
H2335 H 0.39505 0.18408 0.52867 0.0
H2336 H 0.23172 0.10305 0.53481 0.0
H2337 H 0.23922 0.10517 0.51106 0.0
H2338 H 0.24605 0.13262 0.55777 0.0
H2339 H 0.27823 0.15019 0.57323 0.0
C2340 C 0.84215 0.1254 0.52442 0.0
C2341 C 0.86339 0.15086 0.51316 0.0
C2342 C 0.87229 0.18679 0.53902 0.0
C2343 C 0.84666 0.16228 0.54874 0.0
N2344 N 0.80533 0.10813 0.55022 0.0
N2345 N 0.89581 0.20674 0.50908 0.0
C2346 C 0.83127 0.13142 0.54143 0.0
C2347 C 0.87808 0.18184 0.52035 0.0
N2348 N 0.83281 0.09552 0.51898 0.0
N2349 N 0.89112 0.21482 0.54769 0.0
H2350 H 0.89962 0.20447 0.49509 0.0
H2351 H 0.90419 0.2298 0.51317 0.0
H2352 H 0.88752 0.21901 0.56143 0.0
H2353 H 0.9121 0.23258 0.54193 0.0
H2354 H 0.81971 0.07618 0.52738 0.0
H2355 H 0.84091 0.09036 0.5068 0.0
H2356 H 0.79085 0.0861 0.54438 0.0
H2357 H 0.79685 0.11146 0.56281 0.0
C2358 C 0.8329 0.67841 0.51396 0.0
C2359 C 0.85506 0.71084 0.51247 0.0
C2360 C 0.86736 0.71303 0.54584 0.0
C2361 C 0.84444 0.68067 0.54737 0.0
N2362 N 0.79891 0.63545 0.53408 0.0
N2363 N 0.88736 0.76048 0.52769 0.0
C2364 C 0.82507 0.66439 0.53177 0.0
C2365 C 0.87032 0.72864 0.52867 0.0
N2366 N 0.82045 0.66055 0.49831 0.0
N2367 N 0.88755 0.7285 0.56033 0.0
H2368 H 0.89009 0.77248 0.51534 0.0
H2369 H 0.89625 0.77497 0.53932 0.0
H2370 H 0.88641 0.71802 0.57301 0.0
H2371 H 0.90695 0.75109 0.55935 0.0
H2372 H 0.80722 0.63625 0.49851 0.0
H2373 H 0.82563 0.66971 0.48496 0.0
H2374 H 0.78222 0.6235 0.52358 0.0
H2375 H 0.79208 0.62487 0.54704 0.0
loop_
_geom_bond_atom_site_label_1
_geom_bond_atom_site_label_2
_geom_bond_distance
_geom_bond_site_symmetry_2
_ccdc_geom_bond_type
C0 C1 1.384 . S
C0 H13 0.947 . S
C0 C35 1.382 . S
C1 C0 1.384 . S
C1 C2 1.378 . S
C2 C1 1.378 . S
C2 C3 1.378 . S
C2 H14 0.952 . S
C3 C2 1.378 . S
C3 H15 0.950 . S
C3 C34 1.383 . S
H4 C23 0.947 . S
H5 C24 0.946 . S
H6 C26 0.953 . S
H7 C27 0.945 . S
H8 C29 0.952 . S
H9 C30 0.949 . S
H10 C32 0.950 . S
H11 C33 0.948 . S
H12 C35 0.951 . S
H13 C0 0.947 . S
H14 C2 0.952 . S
H15 C3 0.950 . S
N16 C19 1.382 . S
N16 C21 1.363 . S
N17 C19 1.371 . S
N17 C20 1.372 . S
N18 C20 1.361 . S
N18 C21 1.377 . S
C19 N16 1.382 . S
C19 N17 1.371 . S
C19 C22 1.480 . S
C20 N17 1.372 . S
C20 N18 1.361 . S
C20 C28 1.457 . S
C21 N16 1.363 . S
C21 N18 1.377 . S
C21 C34 1.479 . S
C22 C19 1.480 . S
C22 C23 1.383 . S
C22 C27 1.385 . S
C23 H4 0.947 . S
C23 C22 1.383 . S
C23 C24 1.388 . S
C24 H5 0.946 . S
C24 C23 1.388 . S
C24 C25 1.384 . S
C25 C24 1.384 . S
C25 C26 1.377 . S
C26 H6 0.953 . S
C26 C25 1.377 . S
C26 C27 1.369 . S
C27 H7 0.945 . S
C27 C22 1.385 . S
C27 C26 1.369 . S
C28 C20 1.457 . S
C28 C29 1.372 . S
C28 C33 1.364 . S
C29 H8 0.952 . S
C29 C28 1.372 . S
C29 C30 1.389 . S
C30 H9 0.949 . S
C30 C29 1.389 . S
C30 C31 1.387 . S
C31 C30 1.387 . S
C31 C32 1.372 . S
C32 H10 0.950 . S
C32 C31 1.372 . S
C32 C33 1.379 . S
C33 H11 0.948 . S
C33 C28 1.364 . S
C33 C32 1.379 . S
C34 C3 1.383 . S
C34 C21 1.479 . S
C34 C35 1.398 . S
C35 C0 1.382 . S
C35 H12 0.951 . S
C35 C34 1.398 . S
C36 C37 1.384 . S
C36 H49 0.947 1_655 S
C36 C71 1.382 . S
C37 C36 1.384 . S
C37 C38 1.378 . S
C38 C37 1.378 . S
C38 C39 1.378 . S
C38 H50 0.952 . S
C39 C38 1.378 . S
C39 H51 0.950 . S
C39 C70 1.383 . S
H40 C59 0.947 . S
H41 C60 0.946 . S
H42 C62 0.953 . S
H43 C63 0.945 . S
H44 C65 0.952 . S
H45 C66 0.949 . S
H46 C68 0.950 . S
H47 C69 0.948 . S
H48 C71 0.951 . S
H49 C36 0.947 1_455 S
H50 C38 0.952 . S
H51 C39 0.950 . S
N52 C55 1.382 . S
N52 C57 1.363 . S
N53 C55 1.371 . S
N53 C56 1.372 . S
N54 C56 1.361 . S
N54 C57 1.377 . S
C55 N52 1.382 . S
C55 N53 1.371 . S
C55 C58 1.480 . S
C56 N53 1.372 . S
C56 N54 1.361 . S
C56 C64 1.457 . S
C57 N52 1.363 . S
C57 N54 1.377 . S
C57 C70 1.479 . S
C58 C55 1.480 . S
C58 C59 1.383 . S
C58 C63 1.385 . S
C59 H40 0.947 . S
C59 C58 1.383 . S
C59 C60 1.388 . S
C60 H41 0.946 . S
C60 C59 1.388 . S
C60 C61 1.384 . S
C61 C60 1.384 . S
C61 C62 1.377 . S
C62 H42 0.953 . S
C62 C61 1.377 . S
C62 C63 1.369 . S
C63 H43 0.945 . S
C63 C58 1.385 . S
C63 C62 1.369 . S
C64 C56 1.457 . S
C64 C65 1.372 . S
C64 C69 1.364 . S
C65 H44 0.952 . S
C65 C64 1.372 . S
C65 C66 1.389 . S
C66 H45 0.949 . S
C66 C65 1.389 . S
C66 C67 1.387 . S
C67 C66 1.387 . S
C67 C68 1.372 . S
C68 H46 0.950 . S
C68 C67 1.372 . S
C68 C69 1.379 . S
C69 H47 0.948 . S
C69 C64 1.364 . S
C69 C68 1.379 . S
C70 C39 1.383 . S
C70 C57 1.479 . S
C70 C71 1.398 . S
C71 C36 1.382 . S
C71 H48 0.951 . S
C71 C70 1.398 . S
C72 C73 1.384 . S
C72 H85 0.947 . S
C72 C107 1.382 . S
C73 C72 1.384 . S
C73 C74 1.378 . S
C74 C73 1.378 . S
C74 C75 1.378 . S
C74 H86 0.952 . S
C75 C74 1.378 . S
C75 H87 0.950 . S
C75 C106 1.383 . S
H76 C95 0.947 . S
H77 C96 0.946 . S
H78 C98 0.953 1_455 S
H79 C99 0.945 . S
H80 C101 0.952 . S
H81 C102 0.949 . S
H82 C104 0.950 . S
H83 C105 0.948 . S
H84 C107 0.951 . S
H85 C72 0.947 . S
H86 C74 0.952 . S
H87 C75 0.950 . S
N88 C91 1.382 . S
N88 C93 1.363 . S
N89 C91 1.371 . S
N89 C92 1.372 . S
N90 C92 1.361 . S
N90 C93 1.377 . S
C91 N88 1.382 . S
C91 N89 1.371 . S
C91 C94 1.480 . S
C92 N89 1.372 . S
C92 N90 1.361 . S
C92 C100 1.457 . S
C93 N88 1.363 . S
C93 N90 1.377 . S
C93 C106 1.479 . S
C94 C91 1.480 . S
C94 C95 1.383 . S
C94 C99 1.385 . S
C95 H76 0.947 . S
C95 C94 1.383 . S
C95 C96 1.388 . S
C96 H77 0.946 . S
C96 C95 1.388 . S
C96 C97 1.384 . S
C97 C96 1.384 . S
C97 C98 1.377 . S
C98 H78 0.953 1_655 S
C98 C97 1.377 . S
C98 C99 1.369 . S
C99 H79 0.945 . S
C99 C94 1.385 . S
C99 C98 1.369 . S
C100 C92 1.457 . S
C100 C101 1.372 . S
C100 C105 1.364 . S
C101 H80 0.952 . S
C101 C100 1.372 . S
C101 C102 1.389 . S
C102 H81 0.949 . S
C102 C101 1.389 . S
C102 C103 1.387 . S
C103 C102 1.387 . S
C103 C104 1.372 . S
C104 H82 0.950 . S
C104 C103 1.372 . S
C104 C105 1.379 . S
C105 H83 0.948 . S
C105 C100 1.364 . S
C105 C104 1.379 . S
C106 C75 1.383 . S
C106 C93 1.479 . S
C106 C107 1.398 . S
C107 C72 1.382 . S
C107 H84 0.951 . S
C107 C106 1.398 . S
C108 C109 1.384 . S
C108 H121 0.947 1_455 S
C108 C143 1.382 . S
C109 C108 1.384 . S
C109 C110 1.378 . S
C110 C109 1.378 . S
C110 C111 1.378 . S
C110 H122 0.952 . S
C111 C110 1.378 . S
C111 H123 0.950 . S
C111 C142 1.383 . S
H112 C131 0.947 . S
H113 C132 0.946 . S
H114 C134 0.953 . S
H115 C135 0.945 . S
H116 C137 0.952 . S
H117 C138 0.949 . S
H118 C140 0.950 . S
H119 C141 0.948 . S
H120 C143 0.951 . S
H121 C108 0.947 1_655 S
H122 C110 0.952 . S
H123 C111 0.950 . S
N124 C127 1.382 . S
N124 C129 1.363 . S
N125 C127 1.371 . S
N125 C128 1.372 . S
N126 C128 1.361 . S
N126 C129 1.377 . S
C127 N124 1.382 . S
C127 N125 1.371 . S
C127 C130 1.480 . S
C128 N125 1.372 . S
C128 N126 1.361 . S
C128 C136 1.457 . S
C129 N124 1.363 . S
C129 N126 1.377 . S
C129 C142 1.479 . S
C130 C127 1.480 . S
C130 C131 1.383 . S
C130 C135 1.385 . S
C131 H112 0.947 . S
C131 C130 1.383 . S
C131 C132 1.388 . S
C132 H113 0.946 . S
C132 C131 1.388 . S
C132 C133 1.384 . S
C133 C132 1.384 . S
C133 C134 1.377 . S
C134 H114 0.953 . S
C134 C133 1.377 . S
C134 C135 1.369 . S
C135 H115 0.945 . S
C135 C130 1.385 . S
C135 C134 1.369 . S
C136 C128 1.457 . S
C136 C137 1.372 . S
C136 C141 1.364 . S
C137 H116 0.952 . S
C137 C136 1.372 . S
C137 C138 1.389 . S
C138 H117 0.949 . S
C138 C137 1.389 . S
C138 C139 1.387 . S
C139 C138 1.387 . S
C139 C140 1.372 . S
C140 H118 0.950 . S
C140 C139 1.372 . S
C140 C141 1.379 . S
C141 H119 0.948 . S
C141 C136 1.364 . S
C141 C140 1.379 . S
C142 C111 1.383 . S
C142 C129 1.479 . S
C142 C143 1.398 . S
C143 C108 1.382 . S
C143 H120 0.951 . S
C143 C142 1.398 . S
C144 C145 1.384 . S
C144 H157 0.947 . S
C144 C179 1.382 . S
C145 C144 1.384 . S
C145 C146 1.378 . S
C146 C145 1.378 . S
C146 C147 1.378 . S
C146 H158 0.952 . S
C147 C146 1.378 . S
C147 H159 0.950 . S
C147 C178 1.383 . S
H148 C167 0.947 . S
H149 C168 0.946 . S
H150 C170 0.953 . S
H151 C171 0.945 . S
H152 C173 0.952 . S
H153 C174 0.949 . S
H154 C176 0.950 . S
H155 C177 0.948 . S
H156 C179 0.951 . S
H157 C144 0.947 . S
H158 C146 0.952 . S
H159 C147 0.950 . S
N160 C163 1.382 . S
N160 C165 1.363 . S
N161 C163 1.371 . S
N161 C164 1.372 . S
N162 C164 1.361 . S
N162 C165 1.377 . S
C163 N160 1.382 . S
C163 N161 1.371 . S
C163 C166 1.480 . S
C164 N161 1.372 . S
C164 N162 1.361 . S
C164 C172 1.457 . S
C165 N160 1.363 . S
C165 N162 1.377 . S
C165 C178 1.479 . S
C166 C163 1.480 . S
C166 C167 1.383 . S
C166 C171 1.385 . S
C167 H148 0.947 . S
C167 C166 1.383 . S
C167 C168 1.388 . S
C168 H149 0.946 . S
C168 C167 1.388 . S
C168 C169 1.384 . S
C169 C168 1.384 . S
C169 C170 1.377 . S
C170 H150 0.953 . S
C170 C169 1.377 . S
C170 C171 1.369 . S
C171 H151 0.945 . S
C171 C166 1.385 . S
C171 C170 1.369 . S
C172 C164 1.457 . S
C172 C173 1.372 . S
C172 C177 1.364 . S
C173 H152 0.952 . S
C173 C172 1.372 . S
C173 C174 1.389 . S
C174 H153 0.949 . S
C174 C173 1.389 . S
C174 C175 1.387 . S
C175 C174 1.387 . S
C175 C176 1.372 . S
C176 H154 0.950 . S
C176 C175 1.372 . S
C176 C177 1.379 . S
C177 H155 0.948 . S
C177 C172 1.364 . S
C177 C176 1.379 . S
C178 C147 1.383 . S
C178 C165 1.479 . S
C178 C179 1.398 . S
C179 C144 1.382 . S
C179 H156 0.951 . S
C179 C178 1.398 . S
C180 C181 1.384 . S
C180 H193 0.947 . S
C180 C215 1.382 . S
C181 C180 1.384 . S
C181 C182 1.378 . S
C182 C181 1.378 . S
C182 C183 1.378 . S
C182 H194 0.952 . S
C183 C182 1.378 . S
C183 H195 0.950 . S
C183 C214 1.383 . S
H184 C203 0.947 . S
H185 C204 0.946 . S
H186 C206 0.953 . S
H187 C207 0.945 . S
H188 C209 0.952 . S
H189 C210 0.949 . S
H190 C212 0.950 . S
H191 C213 0.948 . S
H192 C215 0.951 . S
H193 C180 0.947 . S
H194 C182 0.952 . S
H195 C183 0.950 . S
N196 C199 1.382 . S
N196 C201 1.363 . S
N197 C199 1.371 . S
N197 C200 1.372 . S
N198 C200 1.361 . S
N198 C201 1.377 . S
C199 N196 1.382 . S
C199 N197 1.371 . S
C199 C202 1.480 . S
C200 N197 1.372 . S
C200 N198 1.361 . S
C200 C208 1.457 . S
C201 N196 1.363 . S
C201 N198 1.377 . S
C201 C214 1.479 . S
C202 C199 1.480 . S
C202 C203 1.383 . S
C202 C207 1.385 . S
C203 H184 0.947 . S
C203 C202 1.383 . S
C203 C204 1.388 . S
C204 H185 0.946 . S
C204 C203 1.388 . S
C204 C205 1.384 . S
C205 C204 1.384 . S
C205 C206 1.377 . S
C206 H186 0.953 . S
C206 C205 1.377 . S
C206 C207 1.369 . S
C207 H187 0.945 . S
C207 C202 1.385 . S
C207 C206 1.369 . S
C208 C200 1.457 . S
C208 C209 1.372 . S
C208 C213 1.364 . S
C209 H188 0.952 . S
C209 C208 1.372 . S
C209 C210 1.389 . S
C210 H189 0.949 . S
C210 C209 1.389 . S
C210 C211 1.387 . S
C211 C210 1.387 . S
C211 C212 1.372 . S
C212 H190 0.950 . S
C212 C211 1.372 . S
C212 C213 1.379 . S
C213 H191 0.948 . S
C213 C208 1.364 . S
C213 C212 1.379 . S
C214 C183 1.383 . S
C214 C201 1.479 . S
C214 C215 1.398 . S
C215 C180 1.382 . S
C215 H192 0.951 . S
C215 C214 1.398 . S
C216 C217 1.384 . S
C216 H229 0.947 . S
C216 C251 1.382 . S
C217 C216 1.384 . S
C217 C218 1.378 . S
C218 C217 1.378 . S
C218 C219 1.378 . S
C218 H230 0.952 . S
C219 C218 1.378 . S
C219 H231 0.950 . S
C219 C250 1.383 . S
H220 C239 0.947 . S
H221 C240 0.946 . S
H222 C242 0.953 . S
H223 C243 0.945 . S
H224 C245 0.952 . S
H225 C246 0.949 . S
H226 C248 0.950 . S
H227 C249 0.948 . S
H228 C251 0.951 . S
H229 C216 0.947 . S
H230 C218 0.952 . S
H231 C219 0.950 . S
N232 C235 1.382 . S
N232 C237 1.363 . S
N233 C235 1.371 . S
N233 C236 1.372 . S
N234 C236 1.361 . S
N234 C237 1.377 . S
C235 N232 1.382 . S
C235 N233 1.371 . S
C235 C238 1.480 . S
C236 N233 1.372 . S
C236 N234 1.361 . S
C236 C244 1.457 . S
C237 N232 1.363 . S
C237 N234 1.377 . S
C237 C250 1.479 . S
C238 C235 1.480 . S
C238 C239 1.383 . S
C238 C243 1.385 . S
C239 H220 0.947 . S
C239 C238 1.383 . S
C239 C240 1.388 . S
C240 H221 0.946 . S
C240 C239 1.388 . S
C240 C241 1.384 . S
C241 C240 1.384 . S
C241 C242 1.377 . S
C242 H222 0.953 . S
C242 C241 1.377 . S
C242 C243 1.369 . S
C243 H223 0.945 . S
C243 C238 1.385 . S
C243 C242 1.369 . S
C244 C236 1.457 . S
C244 C245 1.372 . S
C244 C249 1.364 . S
C245 H224 0.952 . S
C245 C244 1.372 . S
C245 C246 1.389 . S
C246 H225 0.949 . S
C246 C245 1.389 . S
C246 C247 1.387 . S
C247 C246 1.387 . S
C247 C248 1.372 . S
C248 H226 0.950 . S
C248 C247 1.372 . S
C248 C249 1.379 . S
C249 H227 0.948 . S
C249 C244 1.364 . S
C249 C248 1.379 . S
C250 C219 1.383 . S
C250 C237 1.479 . S
C250 C251 1.398 . S
C251 C216 1.382 . S
C251 H228 0.951 . S
C251 C250 1.398 . S
C252 C253 1.384 . S
C252 H265 0.947 . S
C252 C287 1.382 . S
C253 C252 1.384 . S
C253 C254 1.378 . S
C254 C253 1.378 . S
C254 C255 1.378 . S
C254 H266 0.952 . S
C255 C254 1.378 . S
C255 H267 0.950 . S
C255 C286 1.383 . S
H256 C275 0.947 . S
H257 C276 0.946 . S
H258 C278 0.953 . S
H259 C279 0.945 . S
H260 C281 0.952 . S
H261 C282 0.949 . S
H262 C284 0.950 . S
H263 C285 0.948 . S
H264 C287 0.951 . S
H265 C252 0.947 . S
H266 C254 0.952 . S
H267 C255 0.950 . S
N268 C271 1.382 . S
N268 C273 1.363 . S
N269 C271 1.371 . S
N269 C272 1.372 . S
N270 C272 1.361 . S
N270 C273 1.377 . S
C271 N268 1.382 . S
C271 N269 1.371 . S
C271 C274 1.480 . S
C272 N269 1.372 . S
C272 N270 1.361 . S
C272 C280 1.457 . S
C273 N268 1.363 . S
C273 N270 1.377 . S
C273 C286 1.479 . S
C274 C271 1.480 . S
C274 C275 1.383 . S
C274 C279 1.385 . S
C275 H256 0.947 . S
C275 C274 1.383 . S
C275 C276 1.388 . S
C276 H257 0.946 . S
C276 C275 1.388 . S
C276 C277 1.384 . S
C277 C276 1.384 . S
C277 C278 1.377 . S
C278 H258 0.953 . S
C278 C277 1.377 . S
C278 C279 1.369 . S
C279 H259 0.945 . S
C279 C274 1.385 . S
C279 C278 1.369 . S
C280 C272 1.457 . S
C280 C281 1.372 . S
C280 C285 1.364 . S
C281 H260 0.952 . S
C281 C280 1.372 . S
C281 C282 1.389 . S
C282 H261 0.949 . S
C282 C281 1.389 . S
C282 C283 1.387 . S
C283 C282 1.387 . S
C283 C284 1.372 . S
C284 H262 0.950 . S
C284 C283 1.372 . S
C284 C285 1.379 . S
C285 H263 0.948 . S
C285 C280 1.364 . S
C285 C284 1.379 . S
C286 C255 1.383 . S
C286 C273 1.479 . S
C286 C287 1.398 . S
C287 C252 1.382 . S
C287 H264 0.951 . S
C287 C286 1.398 . S
C288 C289 1.384 . S
C288 H301 0.947 . S
C288 C323 1.382 . S
C289 C288 1.384 . S
C289 C290 1.378 . S
C290 C289 1.378 . S
C290 C291 1.378 . S
C290 H302 0.952 . S
C291 C290 1.378 . S
C291 H303 0.950 . S
C291 C322 1.383 . S
H292 C311 0.947 . S
H293 C312 0.946 . S
H294 C314 0.953 . S
H295 C315 0.945 . S
H296 C317 0.952 . S
H297 C318 0.949 . S
H298 C320 0.950 . S
H299 C321 0.948 . S
H300 C323 0.951 . S
H301 C288 0.947 . S
H302 C290 0.952 . S
H303 C291 0.950 . S
N304 C307 1.382 . S
N304 C309 1.363 . S
N305 C307 1.371 . S
N305 C308 1.372 . S
N306 C308 1.361 . S
N306 C309 1.377 . S
C307 N304 1.382 . S
C307 N305 1.371 . S
C307 C310 1.480 . S
C308 N305 1.372 . S
C308 N306 1.361 . S
C308 C316 1.457 . S
C309 N304 1.363 . S
C309 N306 1.377 . S
C309 C322 1.479 . S
C310 C307 1.480 . S
C310 C311 1.383 . S
C310 C315 1.385 . S
C311 H292 0.947 . S
C311 C310 1.383 . S
C311 C312 1.388 . S
C312 H293 0.946 . S
C312 C311 1.388 . S
C312 C313 1.384 . S
C313 C312 1.384 . S
C313 C314 1.377 . S
C314 H294 0.953 . S
C314 C313 1.377 . S
C314 C315 1.369 . S
C315 H295 0.945 . S
C315 C310 1.385 . S
C315 C314 1.369 . S
C316 C308 1.457 . S
C316 C317 1.372 . S
C316 C321 1.364 . S
C317 H296 0.952 . S
C317 C316 1.372 . S
C317 C318 1.389 . S
C318 H297 0.949 . S
C318 C317 1.389 . S
C318 C319 1.387 . S
C319 C318 1.387 . S
C319 C320 1.372 . S
C320 H298 0.950 . S
C320 C319 1.372 . S
C320 C321 1.379 . S
C321 H299 0.948 . S
C321 C316 1.364 . S
C321 C320 1.379 . S
C322 C291 1.383 . S
C322 C309 1.479 . S
C322 C323 1.398 . S
C323 C288 1.382 . S
C323 H300 0.951 . S
C323 C322 1.398 . S
C324 C325 1.384 . S
C324 H337 0.947 . S
C324 C359 1.382 . S
C325 C324 1.384 . S
C325 C326 1.378 . S
C326 C325 1.378 . S
C326 C327 1.378 . S
C326 H338 0.952 . S
C327 C326 1.378 . S
C327 H339 0.950 . S
C327 C358 1.383 . S
H328 C347 0.947 . S
H329 C348 0.946 . S
H330 C350 0.953 . S
H331 C351 0.945 . S
H332 C353 0.952 . S
H333 C354 0.949 . S
H334 C356 0.950 . S
H335 C357 0.948 . S
H336 C359 0.951 . S
H337 C324 0.947 . S
H338 C326 0.952 . S
H339 C327 0.950 . S
N340 C343 1.382 . S
N340 C345 1.363 . S
N341 C343 1.371 . S
N341 C344 1.372 . S
N342 C344 1.361 . S
N342 C345 1.377 . S
C343 N340 1.382 . S
C343 N341 1.371 . S
C343 C346 1.480 . S
C344 N341 1.372 . S
C344 N342 1.361 . S
C344 C352 1.457 . S
C345 N340 1.363 . S
C345 N342 1.377 . S
C345 C358 1.479 . S
C346 C343 1.480 . S
C346 C347 1.383 . S
C346 C351 1.385 . S
C347 H328 0.947 . S
C347 C346 1.383 . S
C347 C348 1.388 . S
C348 H329 0.946 . S
C348 C347 1.388 . S
C348 C349 1.384 . S
C349 C348 1.384 . S
C349 C350 1.377 . S
C350 H330 0.953 . S
C350 C349 1.377 . S
C350 C351 1.369 . S
C351 H331 0.945 . S
C351 C346 1.385 . S
C351 C350 1.369 . S
C352 C344 1.457 . S
C352 C353 1.372 . S
C352 C357 1.364 . S
C353 H332 0.952 . S
C353 C352 1.372 . S
C353 C354 1.389 . S
C354 H333 0.949 . S
C354 C353 1.389 . S
C354 C355 1.387 . S
C355 C354 1.387 . S
C355 C356 1.372 . S
C356 H334 0.950 . S
C356 C355 1.372 . S
C356 C357 1.379 . S
C357 H335 0.948 . S
C357 C352 1.364 . S
C357 C356 1.379 . S
C358 C327 1.383 . S
C358 C345 1.479 . S
C358 C359 1.398 . S
C359 C324 1.382 . S
C359 H336 0.951 . S
C359 C358 1.398 . S
C360 C361 1.384 . S
C360 H373 0.947 . S
C360 C395 1.382 . S
C361 C360 1.384 . S
C361 C362 1.378 . S
C362 C361 1.378 . S
C362 C363 1.378 . S
C362 H374 0.952 . S
C363 C362 1.378 . S
C363 H375 0.950 . S
C363 C394 1.383 . S
H364 C383 0.947 . S
H365 C384 0.946 . S
H366 C386 0.953 . S
H367 C387 0.945 . S
H368 C389 0.952 . S
H369 C390 0.949 . S
H370 C392 0.950 . S
H371 C393 0.948 . S
H372 C395 0.951 . S
H373 C360 0.947 . S
H374 C362 0.952 . S
H375 C363 0.950 . S
N376 C379 1.382 . S
N376 C381 1.363 . S
N377 C379 1.371 . S
N377 C380 1.372 . S
N378 C380 1.361 . S
N378 C381 1.377 . S
C379 N376 1.382 . S
C379 N377 1.371 . S
C379 C382 1.480 . S
C380 N377 1.372 . S
C380 N378 1.361 . S
C380 C388 1.457 . S
C381 N376 1.363 . S
C381 N378 1.377 . S
C381 C394 1.479 . S
C382 C379 1.480 . S
C382 C383 1.383 . S
C382 C387 1.385 . S
C383 H364 0.947 . S
C383 C382 1.383 . S
C383 C384 1.388 . S
C384 H365 0.946 . S
C384 C383 1.388 . S
C384 C385 1.384 . S
C385 C384 1.384 . S
C385 C386 1.377 . S
C386 H366 0.953 . S
C386 C385 1.377 . S
C386 C387 1.369 . S
C387 H367 0.945 . S
C387 C382 1.385 . S
C387 C386 1.369 . S
C388 C380 1.457 . S
C388 C389 1.372 . S
C388 C393 1.364 . S
C389 H368 0.952 . S
C389 C388 1.372 . S
C389 C390 1.389 . S
C390 H369 0.949 . S
C390 C389 1.389 . S
C390 C391 1.387 . S
C391 C390 1.387 . S
C391 C392 1.372 . S
C392 H370 0.950 . S
C392 C391 1.372 . S
C392 C393 1.379 . S
C393 H371 0.948 . S
C393 C388 1.364 . S
C393 C392 1.379 . S
C394 C363 1.383 . S
C394 C381 1.479 . S
C394 C395 1.398 . S
C395 C360 1.382 . S
C395 H372 0.951 . S
C395 C394 1.398 . S
C396 C397 1.384 . S
C396 H409 0.947 . S
C396 C431 1.382 . S
C397 C396 1.384 . S
C397 C398 1.378 . S
C398 C397 1.378 . S
C398 C399 1.378 . S
C398 H410 0.952 . S
C399 C398 1.378 . S
C399 H411 0.950 . S
C399 C430 1.383 . S
H400 C419 0.947 . S
H401 C420 0.946 . S
H402 C422 0.953 . S
H403 C423 0.945 . S
H404 C425 0.952 . S
H405 C426 0.949 . S
H406 C428 0.950 . S
H407 C429 0.948 . S
H408 C431 0.951 . S
H409 C396 0.947 . S
H410 C398 0.952 . S
H411 C399 0.950 . S
N412 C415 1.382 . S
N412 C417 1.363 . S
N413 C415 1.371 . S
N413 C416 1.372 . S
N414 C416 1.361 . S
N414 C417 1.377 . S
C415 N412 1.382 . S
C415 N413 1.371 . S
C415 C418 1.480 . S
C416 N413 1.372 . S
C416 N414 1.361 . S
C416 C424 1.457 . S
C417 N412 1.363 . S
C417 N414 1.377 . S
C417 C430 1.479 . S
C418 C415 1.480 . S
C418 C419 1.383 . S
C418 C423 1.385 . S
C419 H400 0.947 . S
C419 C418 1.383 . S
C419 C420 1.388 . S
C420 H401 0.946 . S
C420 C419 1.388 . S
C420 C421 1.384 . S
C421 C420 1.384 . S
C421 C422 1.377 . S
C422 H402 0.953 . S
C422 C421 1.377 . S
C422 C423 1.369 . S
C423 H403 0.945 . S
C423 C418 1.385 . S
C423 C422 1.369 . S
C424 C416 1.457 . S
C424 C425 1.372 . S
C424 C429 1.364 . S
C425 H404 0.952 . S
C425 C424 1.372 . S
C425 C426 1.389 . S
C426 H405 0.949 . S
C426 C425 1.389 . S
C426 C427 1.387 . S
C427 C426 1.387 . S
C427 C428 1.372 . S
C428 H406 0.950 . S
C428 C427 1.372 . S
C428 C429 1.379 . S
C429 H407 0.948 . S
C429 C424 1.364 . S
C429 C428 1.379 . S
C430 C399 1.383 . S
C430 C417 1.479 . S
C430 C431 1.398 . S
C431 C396 1.382 . S
C431 H408 0.951 . S
C431 C430 1.398 . S
C432 C433 1.384 . S
C432 H445 0.947 . S
C432 C467 1.382 . S
C433 C432 1.384 . S
C433 C434 1.378 . S
C434 C433 1.378 . S
C434 C435 1.378 . S
C434 H446 0.952 . S
C435 C434 1.378 . S
C435 H447 0.950 . S
C435 C466 1.383 . S
H436 C455 0.947 . S
H437 C456 0.946 . S
H438 C458 0.953 . S
H439 C459 0.945 . S
H440 C461 0.952 . S
H441 C462 0.949 . S
H442 C464 0.950 . S
H443 C465 0.948 . S
H444 C467 0.951 . S
H445 C432 0.947 . S
H446 C434 0.952 . S
H447 C435 0.950 . S
N448 C451 1.382 . S
N448 C453 1.363 . S
N449 C451 1.371 . S
N449 C452 1.372 . S
N450 C452 1.361 . S
N450 C453 1.377 . S
C451 N448 1.382 . S
C451 N449 1.371 . S
C451 C454 1.480 . S
C452 N449 1.372 . S
C452 N450 1.361 . S
C452 C460 1.457 . S
C453 N448 1.363 . S
C453 N450 1.377 . S
C453 C466 1.479 . S
C454 C451 1.480 . S
C454 C455 1.383 . S
C454 C459 1.385 . S
C455 H436 0.947 . S
C455 C454 1.383 . S
C455 C456 1.388 . S
C456 H437 0.946 . S
C456 C455 1.388 . S
C456 C457 1.384 . S
C457 C456 1.384 . S
C457 C458 1.377 . S
C458 H438 0.953 . S
C458 C457 1.377 . S
C458 C459 1.369 . S
C459 H439 0.945 . S
C459 C454 1.385 . S
C459 C458 1.369 . S
C460 C452 1.457 . S
C460 C461 1.372 . S
C460 C465 1.364 . S
C461 H440 0.952 . S
C461 C460 1.372 . S
C461 C462 1.389 . S
C462 H441 0.949 . S
C462 C461 1.389 . S
C462 C463 1.387 . S
C463 C462 1.387 . S
C463 C464 1.372 . S
C464 H442 0.950 . S
C464 C463 1.372 . S
C464 C465 1.379 . S
C465 H443 0.948 . S
C465 C460 1.364 . S
C465 C464 1.379 . S
C466 C435 1.383 . S
C466 C453 1.479 . S
C466 C467 1.398 . S
C467 C432 1.382 . S
C467 H444 0.951 . S
C467 C466 1.398 . S
C468 C469 1.384 . S
C468 H481 0.947 . S
C468 C503 1.382 . S
C469 C468 1.384 . S
C469 C470 1.378 . S
C470 C469 1.378 . S
C470 C471 1.378 . S
C470 H482 0.952 . S
C471 C470 1.378 . S
C471 H483 0.950 . S
C471 C502 1.383 . S
H472 C491 0.947 . S
H473 C492 0.946 . S
H474 C494 0.953 . S
H475 C495 0.945 . S
H476 C497 0.952 . S
H477 C498 0.949 . S
H478 C500 0.950 . S
H479 C501 0.948 . S
H480 C503 0.951 . S
H481 C468 0.947 . S
H482 C470 0.952 . S
H483 C471 0.950 . S
N484 C487 1.382 . S
N484 C489 1.363 . S
N485 C487 1.371 . S
N485 C488 1.372 . S
N486 C488 1.361 . S
N486 C489 1.377 . S
C487 N484 1.382 . S
C487 N485 1.371 . S
C487 C490 1.480 . S
C488 N485 1.372 . S
C488 N486 1.361 . S
C488 C496 1.457 . S
C489 N484 1.363 . S
C489 N486 1.377 . S
C489 C502 1.479 . S
C490 C487 1.480 . S
C490 C491 1.383 . S
C490 C495 1.385 . S
C491 H472 0.947 . S
C491 C490 1.383 . S
C491 C492 1.388 . S
C492 H473 0.946 . S
C492 C491 1.388 . S
C492 C493 1.384 . S
C493 C492 1.384 . S
C493 C494 1.377 . S
C494 H474 0.953 . S
C494 C493 1.377 . S
C494 C495 1.369 . S
C495 H475 0.945 . S
C495 C490 1.385 . S
C495 C494 1.369 . S
C496 C488 1.457 . S
C496 C497 1.372 . S
C496 C501 1.364 . S
C497 H476 0.952 . S
C497 C496 1.372 . S
C497 C498 1.389 . S
C498 H477 0.949 . S
C498 C497 1.389 . S
C498 C499 1.387 . S
C499 C498 1.387 . S
C499 C500 1.372 . S
C500 H478 0.950 . S
C500 C499 1.372 . S
C500 C501 1.379 . S
C501 H479 0.948 . S
C501 C496 1.364 . S
C501 C500 1.379 . S
C502 C471 1.383 . S
C502 C489 1.479 . S
C502 C503 1.398 . S
C503 C468 1.382 . S
C503 H480 0.951 . S
C503 C502 1.398 . S
C504 C505 1.384 . S
C504 H517 0.947 . S
C504 C539 1.382 . S
C505 C504 1.384 . S
C505 C506 1.378 . S
C506 C505 1.378 . S
C506 C507 1.378 . S
C506 H518 0.952 . S
C507 C506 1.378 . S
C507 H519 0.950 . S
C507 C538 1.383 . S
H508 C527 0.947 . S
H509 C528 0.946 . S
H510 C530 0.953 . S
H511 C531 0.945 . S
H512 C533 0.952 . S
H513 C534 0.949 . S
H514 C536 0.950 . S
H515 C537 0.948 . S
H516 C539 0.951 . S
H517 C504 0.947 . S
H518 C506 0.952 . S
H519 C507 0.950 . S
N520 C523 1.382 . S
N520 C525 1.363 . S
N521 C523 1.371 . S
N521 C524 1.372 . S
N522 C524 1.361 . S
N522 C525 1.377 . S
C523 N520 1.382 . S
C523 N521 1.371 . S
C523 C526 1.480 . S
C524 N521 1.372 . S
C524 N522 1.361 . S
C524 C532 1.457 . S
C525 N520 1.363 . S
C525 N522 1.377 . S
C525 C538 1.479 . S
C526 C523 1.480 . S
C526 C527 1.383 . S
C526 C531 1.385 . S
C527 H508 0.947 . S
C527 C526 1.383 . S
C527 C528 1.388 . S
C528 H509 0.946 . S
C528 C527 1.388 . S
C528 C529 1.384 . S
C529 C528 1.384 . S
C529 C530 1.377 . S
C530 H510 0.953 . S
C530 C529 1.377 . S
C530 C531 1.369 . S
C531 H511 0.945 . S
C531 C526 1.385 . S
C531 C530 1.369 . S
C532 C524 1.457 . S
C532 C533 1.372 . S
C532 C537 1.364 . S
C533 H512 0.952 . S
C533 C532 1.372 . S
C533 C534 1.389 . S
C534 H513 0.949 . S
C534 C533 1.389 . S
C534 C535 1.387 . S
C535 C534 1.387 . S
C535 C536 1.372 . S
C536 H514 0.950 . S
C536 C535 1.372 . S
C536 C537 1.379 . S
C537 H515 0.948 . S
C537 C532 1.364 . S
C537 C536 1.379 . S
C538 C507 1.383 . S
C538 C525 1.479 . S
C538 C539 1.398 . S
C539 C504 1.382 . S
C539 H516 0.951 . S
C539 C538 1.398 . S
C540 C541 1.384 . S
C540 H553 0.947 . S
C540 C575 1.382 . S
C541 C540 1.384 . S
C541 C542 1.378 . S
C542 C541 1.378 . S
C542 C543 1.378 . S
C542 H554 0.952 . S
C543 C542 1.378 . S
C543 H555 0.950 . S
C543 C574 1.383 . S
H544 C563 0.947 . S
H545 C564 0.946 . S
H546 C566 0.953 . S
H547 C567 0.945 . S
H548 C569 0.952 . S
H549 C570 0.949 . S
H550 C572 0.950 . S
H551 C573 0.948 . S
H552 C575 0.951 . S
H553 C540 0.947 . S
H554 C542 0.952 . S
H555 C543 0.950 . S
N556 C559 1.382 . S
N556 C561 1.363 . S
N557 C559 1.371 . S
N557 C560 1.372 . S
N558 C560 1.361 . S
N558 C561 1.377 . S
C559 N556 1.382 . S
C559 N557 1.371 . S
C559 C562 1.480 . S
C560 N557 1.372 . S
C560 N558 1.361 . S
C560 C568 1.457 . S
C561 N556 1.363 . S
C561 N558 1.377 . S
C561 C574 1.479 . S
C562 C559 1.480 . S
C562 C563 1.383 . S
C562 C567 1.385 . S
C563 H544 0.947 . S
C563 C562 1.383 . S
C563 C564 1.388 . S
C564 H545 0.946 . S
C564 C563 1.388 . S
C564 C565 1.384 . S
C565 C564 1.384 . S
C565 C566 1.377 . S
C566 H546 0.953 . S
C566 C565 1.377 . S
C566 C567 1.369 . S
C567 H547 0.945 . S
C567 C562 1.385 . S
C567 C566 1.369 . S
C568 C560 1.457 . S
C568 C569 1.372 . S
C568 C573 1.364 . S
C569 H548 0.952 . S
C569 C568 1.372 . S
C569 C570 1.389 . S
C570 H549 0.949 . S
C570 C569 1.389 . S
C570 C571 1.387 . S
C571 C570 1.387 . S
C571 C572 1.372 . S
C572 H550 0.950 . S
C572 C571 1.372 . S
C572 C573 1.379 . S
C573 H551 0.948 . S
C573 C568 1.364 . S
C573 C572 1.379 . S
C574 C543 1.383 . S
C574 C561 1.479 . S
C574 C575 1.398 . S
C575 C540 1.382 . S
C575 H552 0.951 . S
C575 C574 1.398 . S
C576 C577 1.384 . S
C576 H589 0.947 . S
C576 C611 1.382 . S
C577 C576 1.384 . S
C577 C578 1.378 . S
C578 C577 1.378 . S
C578 C579 1.378 . S
C578 H590 0.952 . S
C579 C578 1.378 . S
C579 H591 0.950 . S
C579 C610 1.383 . S
H580 C599 0.947 . S
H581 C600 0.946 . S
H582 C602 0.953 . S
H583 C603 0.945 . S
H584 C605 0.952 . S
H585 C606 0.949 . S
H586 C608 0.950 . S
H587 C609 0.948 . S
H588 C611 0.951 . S
H589 C576 0.947 . S
H590 C578 0.952 . S
H591 C579 0.950 . S
N592 C595 1.382 . S
N592 C597 1.363 . S
N593 C595 1.371 . S
N593 C596 1.372 . S
N594 C596 1.361 . S
N594 C597 1.377 . S
C595 N592 1.382 . S
C595 N593 1.371 . S
C595 C598 1.480 . S
C596 N593 1.372 . S
C596 N594 1.361 . S
C596 C604 1.457 . S
C597 N592 1.363 . S
C597 N594 1.377 . S
C597 C610 1.479 . S
C598 C595 1.480 . S
C598 C599 1.383 . S
C598 C603 1.385 . S
C599 H580 0.947 . S
C599 C598 1.383 . S
C599 C600 1.388 . S
C600 H581 0.946 . S
C600 C599 1.388 . S
C600 C601 1.384 . S
C601 C600 1.384 . S
C601 C602 1.377 . S
C602 H582 0.953 . S
C602 C601 1.377 . S
C602 C603 1.369 . S
C603 H583 0.945 . S
C603 C598 1.385 . S
C603 C602 1.369 . S
C604 C596 1.457 . S
C604 C605 1.372 . S
C604 C609 1.364 . S
C605 H584 0.952 . S
C605 C604 1.372 . S
C605 C606 1.389 . S
C606 H585 0.949 . S
C606 C605 1.389 . S
C606 C607 1.387 . S
C607 C606 1.387 . S
C607 C608 1.372 . S
C608 H586 0.950 . S
C608 C607 1.372 . S
C608 C609 1.379 . S
C609 H587 0.948 . S
C609 C604 1.364 . S
C609 C608 1.379 . S
C610 C579 1.383 . S
C610 C597 1.479 . S
C610 C611 1.398 . S
C611 C576 1.382 . S
C611 H588 0.951 . S
C611 C610 1.398 . S
C612 C613 1.384 . S
C612 H625 0.947 . S
C612 C647 1.382 . S
C613 C612 1.384 . S
C613 C614 1.378 . S
C614 C613 1.378 . S
C614 C615 1.378 . S
C614 H626 0.952 . S
C615 C614 1.378 . S
C615 H627 0.950 . S
C615 C646 1.383 . S
H616 C635 0.947 . S
H617 C636 0.946 . S
H618 C638 0.953 . S
H619 C639 0.945 . S
H620 C641 0.952 . S
H621 C642 0.949 . S
H622 C644 0.950 . S
H623 C645 0.948 . S
H624 C647 0.951 . S
H625 C612 0.947 . S
H626 C614 0.952 . S
H627 C615 0.950 . S
N628 C631 1.382 . S
N628 C633 1.363 . S
N629 C631 1.371 . S
N629 C632 1.372 . S
N630 C632 1.361 . S
N630 C633 1.377 . S
C631 N628 1.382 . S
C631 N629 1.371 . S
C631 C634 1.480 . S
C632 N629 1.372 . S
C632 N630 1.361 . S
C632 C640 1.457 . S
C633 N628 1.363 . S
C633 N630 1.377 . S
C633 C646 1.479 . S
C634 C631 1.480 . S
C634 C635 1.383 . S
C634 C639 1.385 . S
C635 H616 0.947 . S
C635 C634 1.383 . S
C635 C636 1.388 . S
C636 H617 0.946 . S
C636 C635 1.388 . S
C636 C637 1.384 . S
C637 C636 1.384 . S
C637 C638 1.377 . S
C638 H618 0.953 . S
C638 C637 1.377 . S
C638 C639 1.369 . S
C639 H619 0.945 . S
C639 C634 1.385 . S
C639 C638 1.369 . S
C640 C632 1.457 . S
C640 C641 1.372 . S
C640 C645 1.364 . S
C641 H620 0.952 . S
C641 C640 1.372 . S
C641 C642 1.389 . S
C642 H621 0.949 . S
C642 C641 1.389 . S
C642 C643 1.387 . S
C643 C642 1.387 . S
C643 C644 1.372 . S
C644 H622 0.950 . S
C644 C643 1.372 . S
C644 C645 1.379 . S
C645 H623 0.948 . S
C645 C640 1.364 . S
C645 C644 1.379 . S
C646 C615 1.383 . S
C646 C633 1.479 . S
C646 C647 1.398 . S
C647 C612 1.382 . S
C647 H624 0.951 . S
C647 C646 1.398 . S
Tb648 N679 2.660 . S
Tb648 N686 2.600 . S
Tb648 O692 2.546 . S
Tb648 O693 2.610 1_565 S
Tb648 O695 2.320 1_565 S
Tb648 O696 2.552 1_565 S
Tb648 O697 2.413 . S
Tb648 O699 2.362 1_556 S
Tb648 O700 2.421 . S
Tb648 C712 2.833 . S
C649 C652 1.432 . S
C649 C653 1.414 . S
C649 N656 1.359 . S
C650 C652 1.417 . S
C650 C654 1.432 . S
C650 C662 1.410 . S
C651 C653 1.444 . S
C651 C654 1.317 . S
C651 H674 0.929 . S
C652 C649 1.432 . S
C652 C650 1.417 . S
C652 N660 1.360 . S
C653 C649 1.414 . S
C653 C651 1.444 . S
C653 C658 1.385 . S
C654 C650 1.432 . S
C654 C651 1.317 . S
C654 H666 0.930 . S
C655 C657 1.392 . S
C655 C658 1.370 . S
C655 H667 0.931 . S
N656 C649 1.359 . S
N656 C657 1.327 . S
N656 Tb659 2.600 . S
C657 C655 1.392 . S
C657 N656 1.327 . S
C657 H664 0.930 . S
C658 C653 1.385 . S
C658 C655 1.370 . S
C658 H677 0.930 . S
Tb659 N656 2.600 . S
Tb659 N660 2.660 . S
Tb659 O693 2.362 1_554 S
Tb659 O694 2.421 . S
Tb659 O698 2.546 . S
Tb659 O699 2.610 1_545 S
Tb659 O701 2.320 1_545 S
Tb659 O702 2.552 1_545 S
Tb659 O703 2.413 . S
Tb659 C723 2.833 . S
N660 C652 1.360 . S
N660 Tb659 2.660 . S
N660 C661 1.305 . S
C661 N660 1.305 . S
C661 C663 1.407 . S
C661 H668 0.930 . S
C662 C650 1.410 . S
C662 C663 1.345 . S
C662 H670 0.930 . S
C663 C661 1.407 . S
C663 C662 1.345 . S
C663 H665 0.930 . S
H664 C657 0.930 . S
H665 C663 0.930 . S
H666 C654 0.930 . S
H667 C655 0.931 . S
H668 C661 0.930 . S
H669 C683 0.930 . S
H670 C662 0.930 . S
H671 C689 0.930 . S
H672 C680 0.930 . S
H673 C687 0.931 . S
H674 C651 0.929 . S
H675 C681 0.930 . S
H676 C714 0.930 . S
H677 C658 0.930 . S
H678 C713 0.929 . S
N679 Tb648 2.660 . S
N679 C680 1.305 . S
N679 C684 1.360 . S
C680 H672 0.930 . S
C680 N679 1.305 . S
C680 C683 1.407 . S
C681 H675 0.930 . S
C681 C682 1.410 . S
C681 C683 1.345 . S
C682 C681 1.410 . S
C682 C684 1.417 . S
C682 C714 1.432 . S
C683 H669 0.930 . S
C683 C680 1.407 . S
C683 C681 1.345 . S
C684 N679 1.360 . S
C684 C682 1.417 . S
C684 C688 1.432 . S
H685 C690 0.930 . S
N686 Tb648 2.600 . S
N686 C688 1.359 . S
N686 C689 1.327 . S
C687 H673 0.931 . S
C687 C689 1.392 . S
C687 C690 1.370 . S
C688 C684 1.432 . S
C688 N686 1.359 . S
C688 C691 1.414 . S
C689 H671 0.930 . S
C689 N686 1.327 . S
C689 C687 1.392 . S
C690 H685 0.930 . S
C690 C687 1.370 . S
C690 C691 1.385 . S
C691 C688 1.414 . S
C691 C690 1.385 . S
C691 C713 1.444 . S
O692 Tb648 2.546 . S
O692 C712 1.251 . S
O693 Tb648 2.610 1_545 S
O693 Tb659 2.362 1_556 S
O693 C704 1.283 . S
O694 Tb659 2.421 . S
O694 C711 1.262 1_554 S
O695 Tb648 2.320 1_545 S
O695 C711 1.260 . S
O696 Tb648 2.552 1_545 S
O696 C704 1.243 . S
O697 Tb648 2.413 . S
O697 C712 1.256 . S
O698 Tb659 2.546 . S
O698 C723 1.251 . S
O699 Tb648 2.362 1_554 S
O699 Tb659 2.610 1_565 S
O699 C715 1.283 . S
O700 Tb648 2.421 . S
O700 C722 1.262 1_556 S
O701 Tb659 2.320 1_565 S
O701 C722 1.260 . S
O702 Tb659 2.552 1_565 S
O702 C715 1.243 . S
O703 Tb659 2.413 . S
O703 C723 1.256 . S
C704 O693 1.283 . S
C704 O696 1.243 . S
C705 C707 1.382 1_565 S
C705 C709 1.393 . S
C705 C712 1.500 . S
C706 C707 1.400 . S
C706 C708 1.384 1_545 S
C707 C705 1.382 1_545 S
C707 C706 1.400 . S
C707 H724 0.930 . S
C708 C706 1.384 1_565 S
C708 C710 1.392 . S
C708 H725 0.931 . S
C709 C705 1.393 . S
C709 C710 1.401 . S
C709 H726 0.930 . S
C710 C708 1.392 . S
C710 C709 1.401 . S
C710 H727 0.930 . S
C711 O694 1.262 1_556 S
C711 O695 1.260 . S
C712 Tb648 2.833 . S
C712 O692 1.251 . S
C712 O697 1.256 . S
C712 C705 1.500 . S
C713 H678 0.929 . S
C713 C691 1.444 . S
C713 C714 1.317 . S
C714 H676 0.930 . S
C714 C682 1.432 . S
C714 C713 1.317 . S
C715 O699 1.283 . S
C715 O702 1.243 . S
C716 C717 1.382 1_545 S
C716 C720 1.393 . S
C716 C723 1.500 . S
C717 C716 1.382 1_565 S
C717 C718 1.400 . S
C717 H728 0.930 . S
C718 C717 1.400 . S
C718 C719 1.384 1_565 S
C719 C718 1.384 1_545 S
C719 C721 1.392 . S
C719 H729 0.931 . S
C720 C716 1.393 . S
C720 C721 1.401 . S
C720 H730 0.930 . S
C721 C719 1.392 . S
C721 C720 1.401 . S
C721 H731 0.930 . S
C722 O700 1.262 1_554 S
C722 O701 1.260 . S
C723 Tb659 2.833 . S
C723 O698 1.251 . S
C723 O703 1.256 . S
C723 C716 1.500 . S
H724 C707 0.930 . S
H725 C708 0.931 . S
H726 C709 0.930 . S
H727 C710 0.930 . S
H728 C717 0.930 . S
H729 C719 0.931 . S
H730 C720 0.930 . S
H731 C721 0.930 . S
Tb732 N763 2.660 . S
Tb732 N770 2.600 . S
Tb732 O776 2.546 . S
Tb732 O777 2.610 1_455 S
Tb732 O779 2.320 1_455 S
Tb732 O780 2.552 1_455 S
Tb732 O781 2.413 . S
Tb732 O783 2.362 1_556 S
Tb732 O784 2.421 . S
Tb732 C796 2.833 . S
C733 C736 1.432 . S
C733 C737 1.414 . S
C733 N740 1.359 . S
C734 C736 1.417 . S
C734 C738 1.432 . S
C734 C746 1.410 . S
C735 C737 1.444 . S
C735 C738 1.317 . S
C735 H758 0.929 . S
C736 C733 1.432 . S
C736 C734 1.417 . S
C736 N744 1.360 . S
C737 C733 1.414 . S
C737 C735 1.444 . S
C737 C742 1.385 . S
C738 C734 1.432 . S
C738 C735 1.317 . S
C738 H750 0.930 . S
C739 C741 1.392 . S
C739 C742 1.370 . S
C739 H751 0.931 . S
N740 C733 1.359 . S
N740 C741 1.327 . S
N740 Tb743 2.600 . S
C741 C739 1.392 . S
C741 N740 1.327 . S
C741 H748 0.930 . S
C742 C737 1.385 . S
C742 C739 1.370 . S
C742 H761 0.930 . S
Tb743 N740 2.600 . S
Tb743 N744 2.660 . S
Tb743 O777 2.362 1_554 S
Tb743 O778 2.421 . S
Tb743 O782 2.546 . S
Tb743 O783 2.610 1_655 S
Tb743 O785 2.320 1_655 S
Tb743 O786 2.552 1_655 S
Tb743 O787 2.413 . S
Tb743 C807 2.833 . S
N744 C736 1.360 . S
N744 Tb743 2.660 . S
N744 C745 1.305 . S
C745 N744 1.305 . S
C745 C747 1.407 . S
C745 H752 0.930 . S
C746 C734 1.410 . S
C746 C747 1.345 . S
C746 H754 0.930 . S
C747 C745 1.407 . S
C747 C746 1.345 . S
C747 H749 0.930 . S
H748 C741 0.930 . S
H749 C747 0.930 . S
H750 C738 0.930 . S
H751 C739 0.931 . S
H752 C745 0.930 . S
H753 C767 0.930 . S
H754 C746 0.930 . S
H755 C773 0.930 . S
H756 C764 0.930 . S
H757 C771 0.931 . S
H758 C735 0.929 . S
H759 C765 0.930 . S
H760 C798 0.930 . S
H761 C742 0.930 . S
H762 C797 0.929 . S
N763 Tb732 2.660 . S
N763 C764 1.305 . S
N763 C768 1.360 . S
C764 H756 0.930 . S
C764 N763 1.305 . S
C764 C767 1.407 . S
C765 H759 0.930 . S
C765 C766 1.410 . S
C765 C767 1.345 . S
C766 C765 1.410 . S
C766 C768 1.417 . S
C766 C798 1.432 . S
C767 H753 0.930 . S
C767 C764 1.407 . S
C767 C765 1.345 . S
C768 N763 1.360 . S
C768 C766 1.417 . S
C768 C772 1.432 . S
H769 C774 0.930 . S
N770 Tb732 2.600 . S
N770 C772 1.359 . S
N770 C773 1.327 . S
C771 H757 0.931 . S
C771 C773 1.392 . S
C771 C774 1.370 . S
C772 C768 1.432 . S
C772 N770 1.359 . S
C772 C775 1.414 . S
C773 H755 0.930 . S
C773 N770 1.327 . S
C773 C771 1.392 . S
C774 H769 0.930 . S
C774 C771 1.370 . S
C774 C775 1.385 . S
C775 C772 1.414 . S
C775 C774 1.385 . S
C775 C797 1.444 . S
O776 Tb732 2.546 . S
O776 C796 1.251 . S
O777 Tb732 2.610 1_655 S
O777 Tb743 2.362 1_556 S
O777 C788 1.283 . S
O778 Tb743 2.421 . S
O778 C795 1.262 1_554 S
O779 Tb732 2.320 1_655 S
O779 C795 1.260 . S
O780 Tb732 2.552 1_655 S
O780 C788 1.243 . S
O781 Tb732 2.413 . S
O781 C796 1.256 . S
O782 Tb743 2.546 . S
O782 C807 1.251 . S
O783 Tb732 2.362 1_554 S
O783 Tb743 2.610 1_455 S
O783 C799 1.283 . S
O784 Tb732 2.421 . S
O784 C806 1.262 1_556 S
O785 Tb743 2.320 1_455 S
O785 C806 1.260 . S
O786 Tb743 2.552 1_455 S
O786 C799 1.243 . S
O787 Tb743 2.413 . S
O787 C807 1.256 . S
C788 O777 1.283 . S
C788 O780 1.243 . S
C789 C791 1.382 1_455 S
C789 C793 1.393 . S
C789 C796 1.500 . S
C790 C791 1.400 . S
C790 C792 1.384 1_655 S
C791 C789 1.382 1_655 S
C791 C790 1.400 . S
C791 H808 0.930 . S
C792 C790 1.384 1_455 S
C792 C794 1.392 . S
C792 H809 0.931 . S
C793 C789 1.393 . S
C793 C794 1.401 . S
C793 H810 0.930 . S
C794 C792 1.392 . S
C794 C793 1.401 . S
C794 H811 0.930 . S
C795 O778 1.262 1_556 S
C795 O779 1.260 . S
C796 Tb732 2.833 . S
C796 O776 1.251 . S
C796 O781 1.256 . S
C796 C789 1.500 . S
C797 H762 0.929 . S
C797 C775 1.444 . S
C797 C798 1.317 . S
C798 H760 0.930 . S
C798 C766 1.432 . S
C798 C797 1.317 . S
C799 O783 1.283 . S
C799 O786 1.243 . S
C800 C801 1.382 1_655 S
C800 C804 1.393 . S
C800 C807 1.500 . S
C801 C800 1.382 1_455 S
C801 C802 1.400 . S
C801 H812 0.930 . S
C802 C801 1.400 . S
C802 C803 1.384 1_455 S
C803 C802 1.384 1_655 S
C803 C805 1.392 . S
C803 H813 0.931 . S
C804 C800 1.393 . S
C804 C805 1.401 . S
C804 H814 0.930 . S
C805 C803 1.392 . S
C805 C804 1.401 . S
C805 H815 0.930 . S
C806 O784 1.262 1_554 S
C806 O785 1.260 . S
C807 Tb743 2.833 . S
C807 O782 1.251 . S
C807 O787 1.256 . S
C807 C800 1.500 . S
H808 C791 0.930 . S
H809 C792 0.931 . S
H810 C793 0.930 . S
H811 C794 0.930 . S
H812 C801 0.930 . S
H813 C803 0.931 . S
H814 C804 0.930 . S
H815 C805 0.930 . S
Tb816 N847 2.660 . S
Tb816 N854 2.600 . S
Tb816 O860 2.546 . S
Tb816 O861 2.610 . S
Tb816 O863 2.320 . S
Tb816 O864 2.552 . S
Tb816 O865 2.413 . S
Tb816 O867 2.362 1_554 S
Tb816 O868 2.421 . S
Tb816 C880 2.833 . S
C817 C820 1.432 . S
C817 C821 1.414 . S
C817 N824 1.359 . S
C818 C820 1.417 . S
C818 C822 1.432 . S
C818 C830 1.410 . S
C819 C821 1.444 . S
C819 C822 1.317 . S
C819 H842 0.929 . S
C820 C817 1.432 . S
C820 C818 1.417 . S
C820 N828 1.360 . S
C821 C817 1.414 . S
C821 C819 1.444 . S
C821 C826 1.385 . S
C822 C818 1.432 . S
C822 C819 1.317 . S
C822 H834 0.930 . S
C823 C825 1.392 . S
C823 C826 1.370 . S
C823 H835 0.931 . S
N824 C817 1.359 . S
N824 C825 1.327 . S
N824 Tb827 2.600 . S
C825 C823 1.392 . S
C825 N824 1.327 . S
C825 H832 0.930 . S
C826 C821 1.385 . S
C826 C823 1.370 . S
C826 H845 0.930 . S
Tb827 N824 2.600 . S
Tb827 N828 2.660 . S
Tb827 O861 2.362 1_556 S
Tb827 O862 2.421 . S
Tb827 O866 2.546 . S
Tb827 O867 2.610 . S
Tb827 O869 2.320 . S
Tb827 O870 2.552 . S
Tb827 O871 2.413 . S
Tb827 C891 2.833 . S
N828 C820 1.360 . S
N828 Tb827 2.660 . S
N828 C829 1.305 . S
C829 N828 1.305 . S
C829 C831 1.407 . S
C829 H836 0.930 . S
C830 C818 1.410 . S
C830 C831 1.345 . S
C830 H838 0.930 . S
C831 C829 1.407 . S
C831 C830 1.345 . S
C831 H833 0.930 . S
H832 C825 0.930 . S
H833 C831 0.930 . S
H834 C822 0.930 . S
H835 C823 0.931 . S
H836 C829 0.930 . S
H837 C851 0.930 . S
H838 C830 0.930 . S
H839 C857 0.930 . S
H840 C848 0.930 . S
H841 C855 0.931 . S
H842 C819 0.929 . S
H843 C849 0.930 . S
H844 C882 0.930 . S
H845 C826 0.930 . S
H846 C881 0.929 . S
N847 Tb816 2.660 . S
N847 C848 1.305 . S
N847 C852 1.360 . S
C848 H840 0.930 . S
C848 N847 1.305 . S
C848 C851 1.407 . S
C849 H843 0.930 . S
C849 C850 1.410 . S
C849 C851 1.345 . S
C850 C849 1.410 . S
C850 C852 1.417 . S
C850 C882 1.432 . S
C851 H837 0.930 . S
C851 C848 1.407 . S
C851 C849 1.345 . S
C852 N847 1.360 . S
C852 C850 1.417 . S
C852 C856 1.432 . S
H853 C858 0.930 . S
N854 Tb816 2.600 . S
N854 C856 1.359 . S
N854 C857 1.327 . S
C855 H841 0.931 . S
C855 C857 1.392 . S
C855 C858 1.370 . S
C856 C852 1.432 . S
C856 N854 1.359 . S
C856 C859 1.414 . S
C857 H839 0.930 . S
C857 N854 1.327 . S
C857 C855 1.392 . S
C858 H853 0.930 . S
C858 C855 1.370 . S
C858 C859 1.385 . S
C859 C856 1.414 . S
C859 C858 1.385 . S
C859 C881 1.444 . S
O860 Tb816 2.546 . S
O860 C880 1.251 . S
O861 Tb816 2.610 . S
O861 Tb827 2.362 1_554 S
O861 C872 1.283 . S
O862 Tb827 2.421 . S
O862 C879 1.262 1_556 S
O863 Tb816 2.320 . S
O863 C879 1.260 . S
O864 Tb816 2.552 . S
O864 C872 1.243 . S
O865 Tb816 2.413 . S
O865 C880 1.256 . S
O866 Tb827 2.546 . S
O866 C891 1.251 . S
O867 Tb816 2.362 1_556 S
O867 Tb827 2.610 . S
O867 C883 1.283 . S
O868 Tb816 2.421 . S
O868 C890 1.262 1_554 S
O869 Tb827 2.320 . S
O869 C890 1.260 . S
O870 Tb827 2.552 . S
O870 C883 1.243 . S
O871 Tb827 2.413 . S
O871 C891 1.256 . S
C872 O861 1.283 . S
C872 O864 1.243 . S
C873 C875 1.382 . S
C873 C877 1.393 . S
C873 C880 1.500 . S
C874 C875 1.400 . S
C874 C876 1.384 . S
C875 C873 1.382 . S
C875 C874 1.400 . S
C875 H892 0.930 . S
C876 C874 1.384 . S
C876 C878 1.392 . S
C876 H893 0.931 . S
C877 C873 1.393 . S
C877 C878 1.401 . S
C877 H894 0.930 . S
C878 C876 1.392 . S
C878 C877 1.401 . S
C878 H895 0.930 . S
C879 O862 1.262 1_554 S
C879 O863 1.260 . S
C880 Tb816 2.833 . S
C880 O860 1.251 . S
C880 O865 1.256 . S
C880 C873 1.500 . S
C881 H846 0.929 . S
C881 C859 1.444 . S
C881 C882 1.317 . S
C882 H844 0.930 . S
C882 C850 1.432 . S
C882 C881 1.317 . S
C883 O867 1.283 . S
C883 O870 1.243 . S
C884 C885 1.382 . S
C884 C888 1.393 . S
C884 C891 1.500 . S
C885 C884 1.382 . S
C885 C886 1.400 . S
C885 H896 0.930 . S
C886 C885 1.400 . S
C886 C887 1.384 . S
C887 C886 1.384 . S
C887 C889 1.392 . S
C887 H897 0.931 . S
C888 C884 1.393 . S
C888 C889 1.401 . S
C888 H898 0.930 . S
C889 C887 1.392 . S
C889 C888 1.401 . S
C889 H899 0.930 . S
C890 O868 1.262 1_556 S
C890 O869 1.260 . S
C891 Tb827 2.833 . S
C891 O866 1.251 . S
C891 O871 1.256 . S
C891 C884 1.500 . S
H892 C875 0.930 . S
H893 C876 0.931 . S
H894 C877 0.930 . S
H895 C878 0.930 . S
H896 C885 0.930 . S
H897 C887 0.931 . S
H898 C888 0.930 . S
H899 C889 0.930 . S
Tb900 N931 2.660 . S
Tb900 N938 2.600 . S
Tb900 O944 2.546 . S
Tb900 O945 2.610 . S
Tb900 O947 2.320 . S
Tb900 O948 2.552 . S
Tb900 O949 2.413 . S
Tb900 O951 2.362 . S
Tb900 O952 2.421 . S
Tb900 C964 2.833 . S
C901 C904 1.432 . S
C901 C905 1.414 . S
C901 N908 1.359 . S
C902 C904 1.417 . S
C902 C906 1.432 . S
C902 C914 1.410 . S
C903 C905 1.444 . S
C903 C906 1.317 . S
C903 H926 0.929 . S
C904 C901 1.432 . S
C904 C902 1.417 . S
C904 N912 1.360 . S
C905 C901 1.414 . S
C905 C903 1.444 . S
C905 C910 1.385 . S
C906 C902 1.432 . S
C906 C903 1.317 . S
C906 H918 0.930 . S
C907 C909 1.392 . S
C907 C910 1.370 . S
C907 H919 0.931 . S
N908 C901 1.359 . S
N908 C909 1.327 . S
N908 Tb911 2.600 . S
C909 C907 1.392 . S
C909 N908 1.327 . S
C909 H916 0.930 . S
C910 C905 1.385 . S
C910 C907 1.370 . S
C910 H929 0.930 . S
Tb911 N908 2.600 . S
Tb911 N912 2.660 . S
Tb911 O945 2.362 . S
Tb911 O946 2.421 . S
Tb911 O950 2.546 . S
Tb911 O951 2.610 . S
Tb911 O953 2.320 . S
Tb911 O954 2.552 . S
Tb911 O955 2.413 . S
Tb911 C975 2.833 . S
N912 C904 1.360 . S
N912 Tb911 2.660 . S
N912 C913 1.305 . S
C913 N912 1.305 . S
C913 C915 1.407 . S
C913 H920 0.930 . S
C914 C902 1.410 . S
C914 C915 1.345 . S
C914 H922 0.930 . S
C915 C913 1.407 . S
C915 C914 1.345 . S
C915 H917 0.930 . S
H916 C909 0.930 . S
H917 C915 0.930 . S
H918 C906 0.930 . S
H919 C907 0.931 . S
H920 C913 0.930 . S
H921 C935 0.930 . S
H922 C914 0.930 . S
H923 C941 0.930 . S
H924 C932 0.930 . S
H925 C939 0.931 . S
H926 C903 0.929 . S
H927 C933 0.930 . S
H928 C966 0.930 . S
H929 C910 0.930 . S
H930 C965 0.929 . S
N931 Tb900 2.660 . S
N931 C932 1.305 . S
N931 C936 1.360 . S
C932 H924 0.930 . S
C932 N931 1.305 . S
C932 C935 1.407 . S
C933 H927 0.930 . S
C933 C934 1.410 . S
C933 C935 1.345 . S
C934 C933 1.410 . S
C934 C936 1.417 . S
C934 C966 1.432 . S
C935 H921 0.930 . S
C935 C932 1.407 . S
C935 C933 1.345 . S
C936 N931 1.360 . S
C936 C934 1.417 . S
C936 C940 1.432 . S
H937 C942 0.930 . S
N938 Tb900 2.600 . S
N938 C940 1.359 . S
N938 C941 1.327 . S
C939 H925 0.931 . S
C939 C941 1.392 . S
C939 C942 1.370 . S
C940 C936 1.432 . S
C940 N938 1.359 . S
C940 C943 1.414 . S
C941 H923 0.930 . S
C941 N938 1.327 . S
C941 C939 1.392 . S
C942 H937 0.930 . S
C942 C939 1.370 . S
C942 C943 1.385 . S
C943 C940 1.414 . S
C943 C942 1.385 . S
C943 C965 1.444 . S
O944 Tb900 2.546 . S
O944 C964 1.251 . S
O945 Tb900 2.610 . S
O945 Tb911 2.362 . S
O945 C956 1.283 . S
O946 Tb911 2.421 . S
O946 C963 1.262 . S
O947 Tb900 2.320 . S
O947 C963 1.260 . S
O948 Tb900 2.552 . S
O948 C956 1.243 . S
O949 Tb900 2.413 . S
O949 C964 1.256 . S
O950 Tb911 2.546 . S
O950 C975 1.251 . S
O951 Tb900 2.362 . S
O951 Tb911 2.610 . S
O951 C967 1.283 . S
O952 Tb900 2.421 . S
O952 C974 1.262 . S
O953 Tb911 2.320 . S
O953 C974 1.260 . S
O954 Tb911 2.552 . S
O954 C967 1.243 . S
O955 Tb911 2.413 . S
O955 C975 1.256 . S
C956 O945 1.283 . S
C956 O948 1.243 . S
C957 C959 1.382 . S
C957 C961 1.393 . S
C957 C964 1.500 . S
C958 C959 1.400 . S
C958 C960 1.384 . S
C959 C957 1.382 . S
C959 C958 1.400 . S
C959 H976 0.930 . S
C960 C958 1.384 . S
C960 C962 1.392 . S
C960 H977 0.931 . S
C961 C957 1.393 . S
C961 C962 1.401 . S
C961 H978 0.930 . S
C962 C960 1.392 . S
C962 C961 1.401 . S
C962 H979 0.930 . S
C963 O946 1.262 . S
C963 O947 1.260 . S
C964 Tb900 2.833 . S
C964 O944 1.251 . S
C964 O949 1.256 . S
C964 C957 1.500 . S
C965 H930 0.929 . S
C965 C943 1.444 . S
C965 C966 1.317 . S
C966 H928 0.930 . S
C966 C934 1.432 . S
C966 C965 1.317 . S
C967 O951 1.283 . S
C967 O954 1.243 . S
C968 C969 1.382 . S
C968 C972 1.393 . S
C968 C975 1.500 . S
C969 C968 1.382 . S
C969 C970 1.400 . S
C969 H980 0.930 . S
C970 C969 1.400 . S
C970 C971 1.384 . S
C971 C970 1.384 . S
C971 C973 1.392 . S
C971 H981 0.931 . S
C972 C968 1.393 . S
C972 C973 1.401 . S
C972 H982 0.930 . S
C973 C971 1.392 . S
C973 C972 1.401 . S
C973 H983 0.930 . S
C974 O952 1.262 . S
C974 O953 1.260 . S
C975 Tb911 2.833 . S
C975 O950 1.251 . S
C975 O955 1.256 . S
C975 C968 1.500 . S
H976 C959 0.930 . S
H977 C960 0.931 . S
H978 C961 0.930 . S
H979 C962 0.930 . S
H980 C969 0.930 . S
H981 C971 0.931 . S
H982 C972 0.930 . S
H983 C973 0.930 . S
Tb984 N1015 2.660 . S
Tb984 N1022 2.600 . S
Tb984 O1028 2.546 . S
Tb984 O1029 2.610 . S
Tb984 O1031 2.320 . S
Tb984 O1032 2.552 . S
Tb984 O1033 2.413 . S
Tb984 O1035 2.362 . S
Tb984 O1036 2.421 . S
Tb984 C1048 2.833 . S
C985 C988 1.432 . S
C985 C989 1.414 . S
C985 N992 1.359 . S
C986 C988 1.417 . S
C986 C990 1.432 . S
C986 C998 1.410 . S
C987 C989 1.444 . S
C987 C990 1.317 . S
C987 H1010 0.929 . S
C988 C985 1.432 . S
C988 C986 1.417 . S
C988 N996 1.360 . S
C989 C985 1.414 . S
C989 C987 1.444 . S
C989 C994 1.385 . S
C990 C986 1.432 . S
C990 C987 1.317 . S
C990 H1002 0.930 . S
C991 C993 1.392 . S
C991 C994 1.370 . S
C991 H1003 0.931 . S
N992 C985 1.359 . S
N992 C993 1.327 . S
N992 Tb995 2.600 . S
C993 C991 1.392 . S
C993 N992 1.327 . S
C993 H1000 0.930 . S
C994 C989 1.385 . S
C994 C991 1.370 . S
C994 H1013 0.930 . S
Tb995 N992 2.600 . S
Tb995 N996 2.660 . S
Tb995 O1029 2.362 . S
Tb995 O1030 2.421 . S
Tb995 O1034 2.546 . S
Tb995 O1035 2.610 . S
Tb995 O1037 2.320 . S
Tb995 O1038 2.552 . S
Tb995 O1039 2.413 . S
Tb995 C1059 2.833 . S
N996 C988 1.360 . S
N996 Tb995 2.660 . S
N996 C997 1.305 . S
C997 N996 1.305 . S
C997 C999 1.407 . S
C997 H1004 0.930 . S
C998 C986 1.410 . S
C998 C999 1.345 . S
C998 H1006 0.930 . S
C999 C997 1.407 . S
C999 C998 1.345 . S
C999 H1001 0.930 . S
H1000 C993 0.930 . S
H1001 C999 0.930 . S
H1002 C990 0.930 . S
H1003 C991 0.931 . S
H1004 C997 0.930 . S
H1005 C1019 0.930 . S
H1006 C998 0.930 . S
H1007 C1025 0.930 . S
H1008 C1016 0.930 . S
H1009 C1023 0.931 . S
H1010 C987 0.929 . S
H1011 C1017 0.930 . S
H1012 C1050 0.930 . S
H1013 C994 0.930 . S
H1014 C1049 0.929 . S
N1015 Tb984 2.660 . S
N1015 C1016 1.305 . S
N1015 C1020 1.360 . S
C1016 H1008 0.930 . S
C1016 N1015 1.305 . S
C1016 C1019 1.407 . S
C1017 H1011 0.930 . S
C1017 C1018 1.410 . S
C1017 C1019 1.345 . S
C1018 C1017 1.410 . S
C1018 C1020 1.417 . S
C1018 C1050 1.432 . S
C1019 H1005 0.930 . S
C1019 C1016 1.407 . S
C1019 C1017 1.345 . S
C1020 N1015 1.360 . S
C1020 C1018 1.417 . S
C1020 C1024 1.432 . S
H1021 C1026 0.930 . S
N1022 Tb984 2.600 . S
N1022 C1024 1.359 . S
N1022 C1025 1.327 . S
C1023 H1009 0.931 . S
C1023 C1025 1.392 . S
C1023 C1026 1.370 . S
C1024 C1020 1.432 . S
C1024 N1022 1.359 . S
C1024 C1027 1.414 . S
C1025 H1007 0.930 . S
C1025 N1022 1.327 . S
C1025 C1023 1.392 . S
C1026 H1021 0.930 . S
C1026 C1023 1.370 . S
C1026 C1027 1.385 . S
C1027 C1024 1.414 . S
C1027 C1026 1.385 . S
C1027 C1049 1.444 . S
O1028 Tb984 2.546 . S
O1028 C1048 1.251 . S
O1029 Tb984 2.610 . S
O1029 Tb995 2.362 . S
O1029 C1040 1.283 . S
O1030 Tb995 2.421 . S
O1030 C1047 1.262 . S
O1031 Tb984 2.320 . S
O1031 C1047 1.260 . S
O1032 Tb984 2.552 . S
O1032 C1040 1.243 . S
O1033 Tb984 2.413 . S
O1033 C1048 1.256 . S
O1034 Tb995 2.546 . S
O1034 C1059 1.251 . S
O1035 Tb984 2.362 . S
O1035 Tb995 2.610 . S
O1035 C1051 1.283 . S
O1036 Tb984 2.421 . S
O1036 C1058 1.262 . S
O1037 Tb995 2.320 . S
O1037 C1058 1.260 . S
O1038 Tb995 2.552 . S
O1038 C1051 1.243 . S
O1039 Tb995 2.413 . S
O1039 C1059 1.256 . S
C1040 O1029 1.283 . S
C1040 O1032 1.243 . S
C1041 C1043 1.382 . S
C1041 C1045 1.393 . S
C1041 C1048 1.500 . S
C1042 C1043 1.400 . S
C1042 C1044 1.384 . S
C1043 C1041 1.382 . S
C1043 C1042 1.400 . S
C1043 H1060 0.930 . S
C1044 C1042 1.384 . S
C1044 C1046 1.392 . S
C1044 H1061 0.931 . S
C1045 C1041 1.393 . S
C1045 C1046 1.401 . S
C1045 H1062 0.930 . S
C1046 C1044 1.392 . S
C1046 C1045 1.401 . S
C1046 H1063 0.930 . S
C1047 O1030 1.262 . S
C1047 O1031 1.260 . S
C1048 Tb984 2.833 . S
C1048 O1028 1.251 . S
C1048 O1033 1.256 . S
C1048 C1041 1.500 . S
C1049 H1014 0.929 . S
C1049 C1027 1.444 . S
C1049 C1050 1.317 . S
C1050 H1012 0.930 . S
C1050 C1018 1.432 . S
C1050 C1049 1.317 . S
C1051 O1035 1.283 . S
C1051 O1038 1.243 . S
C1052 C1053 1.382 . S
C1052 C1056 1.393 . S
C1052 C1059 1.500 . S
C1053 C1052 1.382 . S
C1053 C1054 1.400 . S
C1053 H1064 0.930 . S
C1054 C1053 1.400 . S
C1054 C1055 1.384 . S
C1055 C1054 1.384 . S
C1055 C1057 1.392 . S
C1055 H1065 0.931 . S
C1056 C1052 1.393 . S
C1056 C1057 1.401 . S
C1056 H1066 0.930 . S
C1057 C1055 1.392 . S
C1057 C1056 1.401 . S
C1057 H1067 0.930 . S
C1058 O1036 1.262 . S
C1058 O1037 1.260 . S
C1059 Tb995 2.833 . S
C1059 O1034 1.251 . S
C1059 O1039 1.256 . S
C1059 C1052 1.500 . S
H1060 C1043 0.930 . S
H1061 C1044 0.931 . S
H1062 C1045 0.930 . S
H1063 C1046 0.930 . S
H1064 C1053 0.930 . S
H1065 C1055 0.931 . S
H1066 C1056 0.930 . S
H1067 C1057 0.930 . S
Tb1068 N1099 2.660 . S
Tb1068 N1106 2.600 . S
Tb1068 O1112 2.546 . S
Tb1068 O1113 2.610 . S
Tb1068 O1115 2.320 . S
Tb1068 O1116 2.552 . S
Tb1068 O1117 2.413 . S
Tb1068 O1119 2.362 . S
Tb1068 O1120 2.421 . S
Tb1068 C1132 2.833 . S
C1069 C1072 1.432 . S
C1069 C1073 1.414 . S
C1069 N1076 1.359 . S
C1070 C1072 1.417 . S
C1070 C1074 1.432 . S
C1070 C1082 1.410 . S
C1071 C1073 1.444 . S
C1071 C1074 1.317 . S
C1071 H1094 0.929 . S
C1072 C1069 1.432 . S
C1072 C1070 1.417 . S
C1072 N1080 1.360 . S
C1073 C1069 1.414 . S
C1073 C1071 1.444 . S
C1073 C1078 1.385 . S
C1074 C1070 1.432 . S
C1074 C1071 1.317 . S
C1074 H1086 0.930 . S
C1075 C1077 1.392 . S
C1075 C1078 1.370 . S
C1075 H1087 0.931 . S
N1076 C1069 1.359 . S
N1076 C1077 1.327 . S
N1076 Tb1079 2.600 . S
C1077 C1075 1.392 . S
C1077 N1076 1.327 . S
C1077 H1084 0.930 . S
C1078 C1073 1.385 . S
C1078 C1075 1.370 . S
C1078 H1097 0.930 . S
Tb1079 N1076 2.600 . S
Tb1079 N1080 2.660 . S
Tb1079 O1113 2.362 . S
Tb1079 O1114 2.421 . S
Tb1079 O1118 2.546 . S
Tb1079 O1119 2.610 . S
Tb1079 O1121 2.320 . S
Tb1079 O1122 2.552 . S
Tb1079 O1123 2.413 . S
Tb1079 C1143 2.833 . S
N1080 C1072 1.360 . S
N1080 Tb1079 2.660 . S
N1080 C1081 1.305 . S
C1081 N1080 1.305 . S
C1081 C1083 1.407 . S
C1081 H1088 0.930 . S
C1082 C1070 1.410 . S
C1082 C1083 1.345 . S
C1082 H1090 0.930 . S
C1083 C1081 1.407 . S
C1083 C1082 1.345 . S
C1083 H1085 0.930 . S
H1084 C1077 0.930 . S
H1085 C1083 0.930 . S
H1086 C1074 0.930 . S
H1087 C1075 0.931 . S
H1088 C1081 0.930 . S
H1089 C1103 0.930 . S
H1090 C1082 0.930 . S
H1091 C1109 0.930 . S
H1092 C1100 0.930 . S
H1093 C1107 0.931 . S
H1094 C1071 0.929 . S
H1095 C1101 0.930 . S
H1096 C1134 0.930 . S
H1097 C1078 0.930 . S
H1098 C1133 0.929 . S
N1099 Tb1068 2.660 . S
N1099 C1100 1.305 . S
N1099 C1104 1.360 . S
C1100 H1092 0.930 . S
C1100 N1099 1.305 . S
C1100 C1103 1.407 . S
C1101 H1095 0.930 . S
C1101 C1102 1.410 . S
C1101 C1103 1.345 . S
C1102 C1101 1.410 . S
C1102 C1104 1.417 . S
C1102 C1134 1.432 . S
C1103 H1089 0.930 . S
C1103 C1100 1.407 . S
C1103 C1101 1.345 . S
C1104 N1099 1.360 . S
C1104 C1102 1.417 . S
C1104 C1108 1.432 . S
H1105 C1110 0.930 . S
N1106 Tb1068 2.600 . S
N1106 C1108 1.359 . S
N1106 C1109 1.327 . S
C1107 H1093 0.931 . S
C1107 C1109 1.392 . S
C1107 C1110 1.370 . S
C1108 C1104 1.432 . S
C1108 N1106 1.359 . S
C1108 C1111 1.414 . S
C1109 H1091 0.930 . S
C1109 N1106 1.327 . S
C1109 C1107 1.392 . S
C1110 H1105 0.930 . S
C1110 C1107 1.370 . S
C1110 C1111 1.385 . S
C1111 C1108 1.414 . S
C1111 C1110 1.385 . S
C1111 C1133 1.444 . S
O1112 Tb1068 2.546 . S
O1112 C1132 1.251 . S
O1113 Tb1068 2.610 . S
O1113 Tb1079 2.362 . S
O1113 C1124 1.283 . S
O1114 Tb1079 2.421 . S
O1114 C1131 1.262 . S
O1115 Tb1068 2.320 . S
O1115 C1131 1.260 . S
O1116 Tb1068 2.552 . S
O1116 C1124 1.243 . S
O1117 Tb1068 2.413 . S
O1117 C1132 1.256 . S
O1118 Tb1079 2.546 . S
O1118 C1143 1.251 . S
O1119 Tb1068 2.362 . S
O1119 Tb1079 2.610 . S
O1119 C1135 1.283 . S
O1120 Tb1068 2.421 . S
O1120 C1142 1.262 . S
O1121 Tb1079 2.320 . S
O1121 C1142 1.260 . S
O1122 Tb1079 2.552 . S
O1122 C1135 1.243 . S
O1123 Tb1079 2.413 . S
O1123 C1143 1.256 . S
C1124 O1113 1.283 . S
C1124 O1116 1.243 . S
C1125 C1127 1.382 . S
C1125 C1129 1.393 . S
C1125 C1132 1.500 . S
C1126 C1127 1.400 . S
C1126 C1128 1.384 . S
C1127 C1125 1.382 . S
C1127 C1126 1.400 . S
C1127 H1144 0.930 . S
C1128 C1126 1.384 . S
C1128 C1130 1.392 . S
C1128 H1145 0.931 . S
C1129 C1125 1.393 . S
C1129 C1130 1.401 . S
C1129 H1146 0.930 . S
C1130 C1128 1.392 . S
C1130 C1129 1.401 . S
C1130 H1147 0.930 . S
C1131 O1114 1.262 . S
C1131 O1115 1.260 . S
C1132 Tb1068 2.833 . S
C1132 O1112 1.251 . S
C1132 O1117 1.256 . S
C1132 C1125 1.500 . S
C1133 H1098 0.929 . S
C1133 C1111 1.444 . S
C1133 C1134 1.317 . S
C1134 H1096 0.930 . S
C1134 C1102 1.432 . S
C1134 C1133 1.317 . S
C1135 O1119 1.283 . S
C1135 O1122 1.243 . S
C1136 C1137 1.382 . S
C1136 C1140 1.393 . S
C1136 C1143 1.500 . S
C1137 C1136 1.382 . S
C1137 C1138 1.400 . S
C1137 H1148 0.930 . S
C1138 C1137 1.400 . S
C1138 C1139 1.384 . S
C1139 C1138 1.384 . S
C1139 C1141 1.392 . S
C1139 H1149 0.931 . S
C1140 C1136 1.393 . S
C1140 C1141 1.401 . S
C1140 H1150 0.930 . S
C1141 C1139 1.392 . S
C1141 C1140 1.401 . S
C1141 H1151 0.930 . S
C1142 O1120 1.262 . S
C1142 O1121 1.260 . S
C1143 Tb1079 2.833 . S
C1143 O1118 1.251 . S
C1143 O1123 1.256 . S
C1143 C1136 1.500 . S
H1144 C1127 0.930 . S
H1145 C1128 0.931 . S
H1146 C1129 0.930 . S
H1147 C1130 0.930 . S
H1148 C1137 0.930 . S
H1149 C1139 0.931 . S
H1150 C1140 0.930 . S
H1151 C1141 0.930 . S
Tb1152 N1183 2.660 . S
Tb1152 N1190 2.600 . S
Tb1152 O1196 2.546 . S
Tb1152 O1197 2.610 . S
Tb1152 O1199 2.320 . S
Tb1152 O1200 2.552 . S
Tb1152 O1201 2.413 . S
Tb1152 O1203 2.362 . S
Tb1152 O1204 2.421 . S
Tb1152 C1216 2.833 . S
C1153 C1156 1.432 . S
C1153 C1157 1.414 . S
C1153 N1160 1.359 . S
C1154 C1156 1.417 . S
C1154 C1158 1.432 . S
C1154 C1166 1.410 . S
C1155 C1157 1.444 . S
C1155 C1158 1.317 . S
C1155 H1178 0.929 . S
C1156 C1153 1.432 . S
C1156 C1154 1.417 . S
C1156 N1164 1.360 . S
C1157 C1153 1.414 . S
C1157 C1155 1.444 . S
C1157 C1162 1.385 . S
C1158 C1154 1.432 . S
C1158 C1155 1.317 . S
C1158 H1170 0.930 . S
C1159 C1161 1.392 . S
C1159 C1162 1.370 . S
C1159 H1171 0.931 . S
N1160 C1153 1.359 . S
N1160 C1161 1.327 . S
N1160 Tb1163 2.600 . S
C1161 C1159 1.392 . S
C1161 N1160 1.327 . S
C1161 H1168 0.930 . S
C1162 C1157 1.385 . S
C1162 C1159 1.370 . S
C1162 H1181 0.930 . S
Tb1163 N1160 2.600 . S
Tb1163 N1164 2.660 . S
Tb1163 O1197 2.362 . S
Tb1163 O1198 2.421 . S
Tb1163 O1202 2.546 . S
Tb1163 O1203 2.610 . S
Tb1163 O1205 2.320 . S
Tb1163 O1206 2.552 . S
Tb1163 O1207 2.413 . S
Tb1163 C1227 2.833 . S
N1164 C1156 1.360 . S
N1164 Tb1163 2.660 . S
N1164 C1165 1.305 . S
C1165 N1164 1.305 . S
C1165 C1167 1.407 . S
C1165 H1172 0.930 . S
C1166 C1154 1.410 . S
C1166 C1167 1.345 . S
C1166 H1174 0.930 . S
C1167 C1165 1.407 . S
C1167 C1166 1.345 . S
C1167 H1169 0.930 . S
H1168 C1161 0.930 . S
H1169 C1167 0.930 . S
H1170 C1158 0.930 . S
H1171 C1159 0.931 . S
H1172 C1165 0.930 . S
H1173 C1187 0.930 . S
H1174 C1166 0.930 . S
H1175 C1193 0.930 . S
H1176 C1184 0.930 . S
H1177 C1191 0.931 . S
H1178 C1155 0.929 . S
H1179 C1185 0.930 . S
H1180 C1218 0.930 . S
H1181 C1162 0.930 . S
H1182 C1217 0.929 . S
N1183 Tb1152 2.660 . S
N1183 C1184 1.305 . S
N1183 C1188 1.360 . S
C1184 H1176 0.930 . S
C1184 N1183 1.305 . S
C1184 C1187 1.407 . S
C1185 H1179 0.930 . S
C1185 C1186 1.410 . S
C1185 C1187 1.345 . S
C1186 C1185 1.410 . S
C1186 C1188 1.417 . S
C1186 C1218 1.432 . S
C1187 H1173 0.930 . S
C1187 C1184 1.407 . S
C1187 C1185 1.345 . S
C1188 N1183 1.360 . S
C1188 C1186 1.417 . S
C1188 C1192 1.432 . S
H1189 C1194 0.930 . S
N1190 Tb1152 2.600 . S
N1190 C1192 1.359 . S
N1190 C1193 1.327 . S
C1191 H1177 0.931 . S
C1191 C1193 1.392 . S
C1191 C1194 1.370 . S
C1192 C1188 1.432 . S
C1192 N1190 1.359 . S
C1192 C1195 1.414 . S
C1193 H1175 0.930 . S
C1193 N1190 1.327 . S
C1193 C1191 1.392 . S
C1194 H1189 0.930 . S
C1194 C1191 1.370 . S
C1194 C1195 1.385 . S
C1195 C1192 1.414 . S
C1195 C1194 1.385 . S
C1195 C1217 1.444 . S
O1196 Tb1152 2.546 . S
O1196 C1216 1.251 . S
O1197 Tb1152 2.610 . S
O1197 Tb1163 2.362 . S
O1197 C1208 1.283 . S
O1198 Tb1163 2.421 . S
O1198 C1215 1.262 . S
O1199 Tb1152 2.320 . S
O1199 C1215 1.260 . S
O1200 Tb1152 2.552 . S
O1200 C1208 1.243 . S
O1201 Tb1152 2.413 . S
O1201 C1216 1.256 . S
O1202 Tb1163 2.546 . S
O1202 C1227 1.251 . S
O1203 Tb1152 2.362 . S
O1203 Tb1163 2.610 . S
O1203 C1219 1.283 . S
O1204 Tb1152 2.421 . S
O1204 C1226 1.262 . S
O1205 Tb1163 2.320 . S
O1205 C1226 1.260 . S
O1206 Tb1163 2.552 . S
O1206 C1219 1.243 . S
O1207 Tb1163 2.413 . S
O1207 C1227 1.256 . S
C1208 O1197 1.283 . S
C1208 O1200 1.243 . S
C1209 C1211 1.382 . S
C1209 C1213 1.393 . S
C1209 C1216 1.500 . S
C1210 C1211 1.400 . S
C1210 C1212 1.384 . S
C1211 C1209 1.382 . S
C1211 C1210 1.400 . S
C1211 H1228 0.930 . S
C1212 C1210 1.384 . S
C1212 C1214 1.392 . S
C1212 H1229 0.931 . S
C1213 C1209 1.393 . S
C1213 C1214 1.401 . S
C1213 H1230 0.930 . S
C1214 C1212 1.392 . S
C1214 C1213 1.401 . S
C1214 H1231 0.930 . S
C1215 O1198 1.262 . S
C1215 O1199 1.260 . S
C1216 Tb1152 2.833 . S
C1216 O1196 1.251 . S
C1216 O1201 1.256 . S
C1216 C1209 1.500 . S
C1217 H1182 0.929 . S
C1217 C1195 1.444 . S
C1217 C1218 1.317 . S
C1218 H1180 0.930 . S
C1218 C1186 1.432 . S
C1218 C1217 1.317 . S
C1219 O1203 1.283 . S
C1219 O1206 1.243 . S
C1220 C1221 1.382 . S
C1220 C1224 1.393 . S
C1220 C1227 1.500 . S
C1221 C1220 1.382 . S
C1221 C1222 1.400 . S
C1221 H1232 0.930 . S
C1222 C1221 1.400 . S
C1222 C1223 1.384 . S
C1223 C1222 1.384 . S
C1223 C1225 1.392 . S
C1223 H1233 0.931 . S
C1224 C1220 1.393 . S
C1224 C1225 1.401 . S
C1224 H1234 0.930 . S
C1225 C1223 1.392 . S
C1225 C1224 1.401 . S
C1225 H1235 0.930 . S
C1226 O1204 1.262 . S
C1226 O1205 1.260 . S
C1227 Tb1163 2.833 . S
C1227 O1202 1.251 . S
C1227 O1207 1.256 . S
C1227 C1220 1.500 . S
H1228 C1211 0.930 . S
H1229 C1212 0.931 . S
H1230 C1213 0.930 . S
H1231 C1214 0.930 . S
H1232 C1221 0.930 . S
H1233 C1223 0.931 . S
H1234 C1224 0.930 . S
H1235 C1225 0.930 . S
Tb1236 N1267 2.660 . S
Tb1236 N1274 2.600 . S
Tb1236 O1280 2.546 . S
Tb1236 O1281 2.610 . S
Tb1236 O1283 2.320 . S
Tb1236 O1284 2.552 . S
Tb1236 O1285 2.413 . S
Tb1236 O1287 2.362 . S
Tb1236 O1288 2.421 . S
Tb1236 C1300 2.833 . S
C1237 C1240 1.432 . S
C1237 C1241 1.414 . S
C1237 N1244 1.359 . S
C1238 C1240 1.417 . S
C1238 C1242 1.432 . S
C1238 C1250 1.410 . S
C1239 C1241 1.444 . S
C1239 C1242 1.317 . S
C1239 H1262 0.929 . S
C1240 C1237 1.432 . S
C1240 C1238 1.417 . S
C1240 N1248 1.360 . S
C1241 C1237 1.414 . S
C1241 C1239 1.444 . S
C1241 C1246 1.385 . S
C1242 C1238 1.432 . S
C1242 C1239 1.317 . S
C1242 H1254 0.930 . S
C1243 C1245 1.392 . S
C1243 C1246 1.370 . S
C1243 H1255 0.931 . S
N1244 C1237 1.359 . S
N1244 C1245 1.327 . S
N1244 Tb1247 2.600 . S
C1245 C1243 1.392 . S
C1245 N1244 1.327 . S
C1245 H1252 0.930 . S
C1246 C1241 1.385 . S
C1246 C1243 1.370 . S
C1246 H1265 0.930 . S
Tb1247 N1244 2.600 . S
Tb1247 N1248 2.660 . S
Tb1247 O1281 2.362 . S
Tb1247 O1282 2.421 . S
Tb1247 O1286 2.546 . S
Tb1247 O1287 2.610 . S
Tb1247 O1289 2.320 . S
Tb1247 O1290 2.552 . S
Tb1247 O1291 2.413 . S
Tb1247 C1311 2.833 . S
N1248 C1240 1.360 . S
N1248 Tb1247 2.660 . S
N1248 C1249 1.305 . S
C1249 N1248 1.305 . S
C1249 C1251 1.407 . S
C1249 H1256 0.930 . S
C1250 C1238 1.410 . S
C1250 C1251 1.345 . S
C1250 H1258 0.930 . S
C1251 C1249 1.407 . S
C1251 C1250 1.345 . S
C1251 H1253 0.930 . S
H1252 C1245 0.930 . S
H1253 C1251 0.930 . S
H1254 C1242 0.930 . S
H1255 C1243 0.931 . S
H1256 C1249 0.930 . S
H1257 C1271 0.930 . S
H1258 C1250 0.930 . S
H1259 C1277 0.930 . S
H1260 C1268 0.930 . S
H1261 C1275 0.931 . S
H1262 C1239 0.929 . S
H1263 C1269 0.930 . S
H1264 C1302 0.930 . S
H1265 C1246 0.930 . S
H1266 C1301 0.929 . S
N1267 Tb1236 2.660 . S
N1267 C1268 1.305 . S
N1267 C1272 1.360 . S
C1268 H1260 0.930 . S
C1268 N1267 1.305 . S
C1268 C1271 1.407 . S
C1269 H1263 0.930 . S
C1269 C1270 1.410 . S
C1269 C1271 1.345 . S
C1270 C1269 1.410 . S
C1270 C1272 1.417 . S
C1270 C1302 1.432 . S
C1271 H1257 0.930 . S
C1271 C1268 1.407 . S
C1271 C1269 1.345 . S
C1272 N1267 1.360 . S
C1272 C1270 1.417 . S
C1272 C1276 1.432 . S
H1273 C1278 0.930 . S
N1274 Tb1236 2.600 . S
N1274 C1276 1.359 . S
N1274 C1277 1.327 . S
C1275 H1261 0.931 . S
C1275 C1277 1.392 . S
C1275 C1278 1.370 . S
C1276 C1272 1.432 . S
C1276 N1274 1.359 . S
C1276 C1279 1.414 . S
C1277 H1259 0.930 . S
C1277 N1274 1.327 . S
C1277 C1275 1.392 . S
C1278 H1273 0.930 . S
C1278 C1275 1.370 . S
C1278 C1279 1.385 . S
C1279 C1276 1.414 . S
C1279 C1278 1.385 . S
C1279 C1301 1.444 . S
O1280 Tb1236 2.546 . S
O1280 C1300 1.251 . S
O1281 Tb1236 2.610 . S
O1281 Tb1247 2.362 . S
O1281 C1292 1.283 . S
O1282 Tb1247 2.421 . S
O1282 C1299 1.262 . S
O1283 Tb1236 2.320 . S
O1283 C1299 1.260 . S
O1284 Tb1236 2.552 . S
O1284 C1292 1.243 . S
O1285 Tb1236 2.413 . S
O1285 C1300 1.256 . S
O1286 Tb1247 2.546 . S
O1286 C1311 1.251 . S
O1287 Tb1236 2.362 . S
O1287 Tb1247 2.610 . S
O1287 C1303 1.283 . S
O1288 Tb1236 2.421 . S
O1288 C1310 1.262 . S
O1289 Tb1247 2.320 . S
O1289 C1310 1.260 . S
O1290 Tb1247 2.552 . S
O1290 C1303 1.243 . S
O1291 Tb1247 2.413 . S
O1291 C1311 1.256 . S
C1292 O1281 1.283 . S
C1292 O1284 1.243 . S
C1293 C1295 1.382 . S
C1293 C1297 1.393 . S
C1293 C1300 1.500 . S
C1294 C1295 1.400 . S
C1294 C1296 1.384 . S
C1295 C1293 1.382 . S
C1295 C1294 1.400 . S
C1295 H1312 0.930 . S
C1296 C1294 1.384 . S
C1296 C1298 1.392 . S
C1296 H1313 0.931 . S
C1297 C1293 1.393 . S
C1297 C1298 1.401 . S
C1297 H1314 0.930 . S
C1298 C1296 1.392 . S
C1298 C1297 1.401 . S
C1298 H1315 0.930 . S
C1299 O1282 1.262 . S
C1299 O1283 1.260 . S
C1300 Tb1236 2.833 . S
C1300 O1280 1.251 . S
C1300 O1285 1.256 . S
C1300 C1293 1.500 . S
C1301 H1266 0.929 . S
C1301 C1279 1.444 . S
C1301 C1302 1.317 . S
C1302 H1264 0.930 . S
C1302 C1270 1.432 . S
C1302 C1301 1.317 . S
C1303 O1287 1.283 . S
C1303 O1290 1.243 . S
C1304 C1305 1.382 . S
C1304 C1308 1.393 . S
C1304 C1311 1.500 . S
C1305 C1304 1.382 . S
C1305 C1306 1.400 . S
C1305 H1316 0.930 . S
C1306 C1305 1.400 . S
C1306 C1307 1.384 . S
C1307 C1306 1.384 . S
C1307 C1309 1.392 . S
C1307 H1317 0.931 . S
C1308 C1304 1.393 . S
C1308 C1309 1.401 . S
C1308 H1318 0.930 . S
C1309 C1307 1.392 . S
C1309 C1308 1.401 . S
C1309 H1319 0.930 . S
C1310 O1288 1.262 . S
C1310 O1289 1.260 . S
C1311 Tb1247 2.833 . S
C1311 O1286 1.251 . S
C1311 O1291 1.256 . S
C1311 C1304 1.500 . S
H1312 C1295 0.930 . S
H1313 C1296 0.931 . S
H1314 C1297 0.930 . S
H1315 C1298 0.930 . S
H1316 C1305 0.930 . S
H1317 C1307 0.931 . S
H1318 C1308 0.930 . S
H1319 C1309 0.930 . S
Tb1320 N1351 2.660 . S
Tb1320 N1358 2.600 . S
Tb1320 O1364 2.546 . S
Tb1320 O1365 2.610 . S
Tb1320 O1367 2.320 . S
Tb1320 O1368 2.552 . S
Tb1320 O1369 2.413 . S
Tb1320 O1371 2.362 . S
Tb1320 O1372 2.421 . S
Tb1320 C1384 2.833 . S
C1321 C1324 1.432 . S
C1321 C1325 1.414 . S
C1321 N1328 1.359 . S
C1322 C1324 1.417 . S
C1322 C1326 1.432 . S
C1322 C1334 1.410 . S
C1323 C1325 1.444 . S
C1323 C1326 1.317 . S
C1323 H1346 0.929 . S
C1324 C1321 1.432 . S
C1324 C1322 1.417 . S
C1324 N1332 1.360 . S
C1325 C1321 1.414 . S
C1325 C1323 1.444 . S
C1325 C1330 1.385 . S
C1326 C1322 1.432 . S
C1326 C1323 1.317 . S
C1326 H1338 0.930 . S
C1327 C1329 1.392 . S
C1327 C1330 1.370 . S
C1327 H1339 0.931 . S
N1328 C1321 1.359 . S
N1328 C1329 1.327 . S
N1328 Tb1331 2.600 . S
C1329 C1327 1.392 . S
C1329 N1328 1.327 . S
C1329 H1336 0.930 . S
C1330 C1325 1.385 . S
C1330 C1327 1.370 . S
C1330 H1349 0.930 . S
Tb1331 N1328 2.600 . S
Tb1331 N1332 2.660 . S
Tb1331 O1365 2.362 . S
Tb1331 O1366 2.421 . S
Tb1331 O1370 2.546 . S
Tb1331 O1371 2.610 . S
Tb1331 O1373 2.320 . S
Tb1331 O1374 2.552 . S
Tb1331 O1375 2.413 . S
Tb1331 C1395 2.833 . S
N1332 C1324 1.360 . S
N1332 Tb1331 2.660 . S
N1332 C1333 1.305 . S
C1333 N1332 1.305 . S
C1333 C1335 1.407 . S
C1333 H1340 0.930 . S
C1334 C1322 1.410 . S
C1334 C1335 1.345 . S
C1334 H1342 0.930 . S
C1335 C1333 1.407 . S
C1335 C1334 1.345 . S
C1335 H1337 0.930 . S
H1336 C1329 0.930 . S
H1337 C1335 0.930 . S
H1338 C1326 0.930 . S
H1339 C1327 0.931 . S
H1340 C1333 0.930 . S
H1341 C1355 0.930 . S
H1342 C1334 0.930 . S
H1343 C1361 0.930 . S
H1344 C1352 0.930 . S
H1345 C1359 0.931 . S
H1346 C1323 0.929 . S
H1347 C1353 0.930 . S
H1348 C1386 0.930 . S
H1349 C1330 0.930 . S
H1350 C1385 0.929 . S
N1351 Tb1320 2.660 . S
N1351 C1352 1.305 . S
N1351 C1356 1.360 . S
C1352 H1344 0.930 . S
C1352 N1351 1.305 . S
C1352 C1355 1.407 . S
C1353 H1347 0.930 . S
C1353 C1354 1.410 . S
C1353 C1355 1.345 . S
C1354 C1353 1.410 . S
C1354 C1356 1.417 . S
C1354 C1386 1.432 . S
C1355 H1341 0.930 . S
C1355 C1352 1.407 . S
C1355 C1353 1.345 . S
C1356 N1351 1.360 . S
C1356 C1354 1.417 . S
C1356 C1360 1.432 . S
H1357 C1362 0.930 . S
N1358 Tb1320 2.600 . S
N1358 C1360 1.359 . S
N1358 C1361 1.327 . S
C1359 H1345 0.931 . S
C1359 C1361 1.392 . S
C1359 C1362 1.370 . S
C1360 C1356 1.432 . S
C1360 N1358 1.359 . S
C1360 C1363 1.414 . S
C1361 H1343 0.930 . S
C1361 N1358 1.327 . S
C1361 C1359 1.392 . S
C1362 H1357 0.930 . S
C1362 C1359 1.370 . S
C1362 C1363 1.385 . S
C1363 C1360 1.414 . S
C1363 C1362 1.385 . S
C1363 C1385 1.444 . S
O1364 Tb1320 2.546 . S
O1364 C1384 1.251 . S
O1365 Tb1320 2.610 . S
O1365 Tb1331 2.362 . S
O1365 C1376 1.283 . S
O1366 Tb1331 2.421 . S
O1366 C1383 1.262 . S
O1367 Tb1320 2.320 . S
O1367 C1383 1.260 . S
O1368 Tb1320 2.552 . S
O1368 C1376 1.243 . S
O1369 Tb1320 2.413 . S
O1369 C1384 1.256 . S
O1370 Tb1331 2.546 . S
O1370 C1395 1.251 . S
O1371 Tb1320 2.362 . S
O1371 Tb1331 2.610 . S
O1371 C1387 1.283 . S
O1372 Tb1320 2.421 . S
O1372 C1394 1.262 . S
O1373 Tb1331 2.320 . S
O1373 C1394 1.260 . S
O1374 Tb1331 2.552 . S
O1374 C1387 1.243 . S
O1375 Tb1331 2.413 . S
O1375 C1395 1.256 . S
C1376 O1365 1.283 . S
C1376 O1368 1.243 . S
C1377 C1379 1.382 . S
C1377 C1381 1.393 . S
C1377 C1384 1.500 . S
C1378 C1379 1.400 . S
C1378 C1380 1.384 . S
C1379 C1377 1.382 . S
C1379 C1378 1.400 . S
C1379 H1396 0.930 . S
C1380 C1378 1.384 . S
C1380 C1382 1.392 . S
C1380 H1397 0.931 . S
C1381 C1377 1.393 . S
C1381 C1382 1.401 . S
C1381 H1398 0.930 . S
C1382 C1380 1.392 . S
C1382 C1381 1.401 . S
C1382 H1399 0.930 . S
C1383 O1366 1.262 . S
C1383 O1367 1.260 . S
C1384 Tb1320 2.833 . S
C1384 O1364 1.251 . S
C1384 O1369 1.256 . S
C1384 C1377 1.500 . S
C1385 H1350 0.929 . S
C1385 C1363 1.444 . S
C1385 C1386 1.317 . S
C1386 H1348 0.930 . S
C1386 C1354 1.432 . S
C1386 C1385 1.317 . S
C1387 O1371 1.283 . S
C1387 O1374 1.243 . S
C1388 C1389 1.382 . S
C1388 C1392 1.393 . S
C1388 C1395 1.500 . S
C1389 C1388 1.382 . S
C1389 C1390 1.400 . S
C1389 H1400 0.930 . S
C1390 C1389 1.400 . S
C1390 C1391 1.384 . S
C1391 C1390 1.384 . S
C1391 C1393 1.392 . S
C1391 H1401 0.931 . S
C1392 C1388 1.393 . S
C1392 C1393 1.401 . S
C1392 H1402 0.930 . S
C1393 C1391 1.392 . S
C1393 C1392 1.401 . S
C1393 H1403 0.930 . S
C1394 O1372 1.262 . S
C1394 O1373 1.260 . S
C1395 Tb1331 2.833 . S
C1395 O1370 1.251 . S
C1395 O1375 1.256 . S
C1395 C1388 1.500 . S
H1396 C1379 0.930 . S
H1397 C1380 0.931 . S
H1398 C1381 0.930 . S
H1399 C1382 0.930 . S
H1400 C1389 0.930 . S
H1401 C1391 0.931 . S
H1402 C1392 0.930 . S
H1403 C1393 0.930 . S
C1404 C1405 1.363 . S
C1404 C1410 1.379 . S
C1404 N1412 1.356 . S
C1405 C1404 1.363 . S
C1405 C1411 1.363 . S
C1406 C1407 1.363 . S
C1406 C1411 1.379 . S
C1406 N1413 1.356 . S
C1407 C1406 1.363 . S
C1407 C1410 1.363 . S
N1408 C1410 1.356 . S
N1408 H1420 0.984 . S
N1408 H1421 0.985 . S
N1409 C1411 1.356 . S
N1409 H1414 0.984 . S
N1409 H1415 0.985 . S
C1410 C1404 1.379 . S
C1410 C1407 1.363 . S
C1410 N1408 1.356 . S
C1411 C1405 1.363 . S
C1411 C1406 1.379 . S
C1411 N1409 1.356 . S
N1412 C1404 1.356 . S
N1412 H1418 0.984 . S
N1412 H1419 0.984 . S
N1413 C1406 1.356 . S
N1413 H1416 0.984 . S
N1413 H1417 0.985 . S
H1414 N1409 0.984 . S
H1415 N1409 0.985 . S
H1416 N1413 0.984 . S
H1417 N1413 0.985 . S
H1418 N1412 0.984 . S
H1419 N1412 0.984 . S
H1420 N1408 0.984 . S
H1421 N1408 0.985 . S
C1422 C1423 1.363 . S
C1422 C1428 1.379 . S
C1422 N1430 1.356 . S
C1423 C1422 1.363 . S
C1423 C1429 1.363 . S
C1424 C1425 1.363 . S
C1424 C1429 1.379 . S
C1424 N1431 1.356 1_554 S
C1425 C1424 1.363 . S
C1425 C1428 1.363 . S
N1426 C1428 1.356 . S
N1426 H1438 0.984 . S
N1426 H1439 0.985 . S
N1427 C1429 1.356 . S
N1427 H1432 0.984 . S
N1427 H1433 0.985 1_554 S
C1428 C1422 1.379 . S
C1428 C1425 1.363 . S
C1428 N1426 1.356 . S
C1429 C1423 1.363 . S
C1429 C1424 1.379 . S
C1429 N1427 1.356 . S
N1430 C1422 1.356 . S
N1430 H1436 0.984 . S
N1430 H1437 0.984 . S
N1431 C1424 1.356 1_556 S
N1431 H1434 0.984 . S
N1431 H1435 0.985 . S
H1432 N1427 0.984 . S
H1433 N1427 0.985 1_556 S
H1434 N1431 0.984 . S
H1435 N1431 0.985 . S
H1436 N1430 0.984 . S
H1437 N1430 0.984 . S
H1438 N1426 0.984 . S
H1439 N1426 0.985 . S
C1440 C1441 1.363 . S
C1440 C1446 1.379 . S
C1440 N1448 1.356 . S
C1441 C1440 1.363 . S
C1441 C1447 1.363 . S
C1442 C1443 1.363 . S
C1442 C1447 1.379 . S
C1442 N1449 1.356 . S
C1443 C1442 1.363 . S
C1443 C1446 1.363 . S
N1444 C1446 1.356 1_556 S
N1444 H1456 0.984 . S
N1444 H1457 0.985 . S
N1445 C1447 1.356 . S
N1445 H1450 0.984 . S
N1445 H1451 0.985 . S
C1446 C1440 1.379 . S
C1446 C1443 1.363 . S
C1446 N1444 1.356 1_554 S
C1447 C1441 1.363 . S
C1447 C1442 1.379 . S
C1447 N1445 1.356 . S
N1448 C1440 1.356 . S
N1448 H1454 0.977 1_554 S
N1448 H1455 0.984 . S
N1449 C1442 1.356 . S
N1449 H1452 0.984 . S
N1449 H1453 0.985 . S
H1450 N1445 0.984 . S
H1451 N1445 0.985 . S
H1452 N1449 0.984 . S
H1453 N1449 0.985 . S
H1454 N1448 0.977 1_556 S
H1455 N1448 0.984 . S
H1456 N1444 0.984 . S
H1457 N1444 0.985 . S
C1458 C1459 1.363 . S
C1458 C1464 1.379 . S
C1458 N1466 1.356 . S
C1459 C1458 1.363 . S
C1459 C1465 1.363 . S
C1460 C1461 1.363 . S
C1460 C1465 1.379 . S
C1460 N1467 1.356 . S
C1461 C1460 1.363 . S
C1461 C1464 1.363 . S
N1462 C1464 1.356 1_554 S
N1462 H1474 0.984 . S
N1462 H1475 0.985 . S
N1463 C1465 1.356 . S
N1463 H1468 0.984 . S
N1463 H1469 0.985 . S
C1464 C1458 1.379 . S
C1464 C1461 1.363 . S
C1464 N1462 1.356 1_556 S
C1465 C1459 1.363 . S
C1465 C1460 1.379 . S
C1465 N1463 1.356 . S
N1466 C1458 1.356 . S
N1466 H1472 0.984 . S
N1466 H1473 0.984 . S
N1467 C1460 1.356 . S
N1467 H1470 0.984 . S
N1467 H1471 0.985 . S
H1468 N1463 0.984 . S
H1469 N1463 0.985 . S
H1470 N1467 0.984 . S
H1471 N1467 0.985 . S
H1472 N1466 0.984 . S
H1473 N1466 0.984 . S
H1474 N1462 0.984 . S
H1475 N1462 0.985 . S
C1476 C1477 1.363 . S
C1476 C1482 1.379 . S
C1476 N1484 1.356 . S
C1477 C1476 1.363 . S
C1477 C1483 1.363 . S
C1478 C1479 1.363 . S
C1478 C1483 1.379 . S
C1478 N1485 1.356 . S
C1479 C1478 1.363 . S
C1479 C1482 1.363 . S
N1480 C1482 1.356 1_554 S
N1480 H1492 0.984 . S
N1480 H1493 0.985 . S
N1481 C1483 1.356 . S
N1481 H1486 0.984 . S
N1481 H1487 0.985 . S
C1482 C1476 1.379 . S
C1482 C1479 1.363 . S
C1482 N1480 1.356 1_556 S
C1483 C1477 1.363 . S
C1483 C1478 1.379 . S
C1483 N1481 1.356 . S
N1484 C1476 1.356 . S
N1484 H1490 0.984 1_556 S
N1484 H1491 0.984 . S
N1485 C1478 1.356 . S
N1485 H1488 0.984 . S
N1485 H1489 0.985 . S
H1486 N1481 0.984 . S
H1487 N1481 0.985 . S
H1488 N1485 0.984 . S
H1489 N1485 0.985 . S
H1490 N1484 0.984 1_554 S
H1491 N1484 0.984 . S
H1492 N1480 0.984 . S
H1493 N1480 0.985 . S
C1494 C1495 1.363 . S
C1494 C1500 1.379 . S
C1494 N1502 1.356 . S
C1495 C1494 1.363 . S
C1495 C1501 1.363 . S
C1496 C1497 1.363 . S
C1496 C1501 1.379 . S
C1496 N1503 1.356 . S
C1497 C1496 1.363 . S
C1497 C1500 1.363 . S
N1498 C1500 1.356 1_554 S
N1498 H1510 0.984 . S
N1498 H1511 0.985 . S
N1499 C1501 1.356 . S
N1499 H1504 0.984 . S
N1499 H1505 0.985 . S
C1500 C1494 1.379 . S
C1500 C1497 1.363 . S
C1500 N1498 1.356 1_556 S
C1501 C1495 1.363 . S
C1501 C1496 1.379 . S
C1501 N1499 1.356 . S
N1502 C1494 1.356 . S
N1502 H1508 0.984 1_556 S
N1502 H1509 0.984 . S
N1503 C1496 1.356 . S
N1503 H1506 0.984 . S
N1503 H1507 0.985 . S
H1504 N1499 0.984 . S
H1505 N1499 0.985 . S
H1506 N1503 0.984 . S
H1507 N1503 0.985 . S
H1508 N1502 0.984 1_554 S
H1509 N1502 0.984 . S
H1510 N1498 0.984 . S
H1511 N1498 0.985 . S
C1512 C1513 1.363 . S
C1512 C1518 1.379 . S
C1512 N1520 1.356 . S
C1513 C1512 1.363 . S
C1513 C1519 1.363 . S
C1514 C1515 1.363 . S
C1514 C1519 1.379 . S
C1514 N1521 1.356 . S
C1515 C1514 1.363 . S
C1515 C1518 1.363 . S
N1516 C1518 1.356 . S
N1516 H1528 0.984 . S
N1516 H1529 0.985 . S
N1517 C1519 1.356 . S
N1517 H1522 0.984 . S
N1517 H1523 0.985 . S
C1518 C1512 1.379 . S
C1518 C1515 1.363 . S
C1518 N1516 1.356 . S
C1519 C1513 1.363 . S
C1519 C1514 1.379 . S
C1519 N1517 1.356 . S
N1520 C1512 1.356 . S
N1520 H1526 0.984 . S
N1520 H1527 0.984 . S
N1521 C1514 1.356 . S
N1521 H1524 0.984 . S
N1521 H1525 0.985 . S
H1522 N1517 0.984 . S
H1523 N1517 0.985 . S
H1524 N1521 0.984 . S
H1525 N1521 0.985 . S
H1526 N1520 0.984 . S
H1527 N1520 0.984 . S
H1528 N1516 0.984 . S
H1529 N1516 0.985 . S
C1530 C1531 1.363 . S
C1530 C1536 1.379 . S
C1530 N1538 1.356 . S
C1531 C1530 1.363 . S
C1531 C1537 1.363 . S
C1532 C1533 1.363 . S
C1532 C1537 1.379 . S
C1532 N1539 1.356 . S
C1533 C1532 1.363 . S
C1533 C1536 1.363 . S
N1534 C1536 1.356 . S
N1534 H1546 0.984 . S
N1534 H1547 0.985 . S
N1535 C1537 1.356 . S
N1535 H1540 0.984 . S
N1535 H1541 0.985 . S
C1536 C1530 1.379 . S
C1536 C1533 1.363 . S
C1536 N1534 1.356 . S
C1537 C1531 1.363 . S
C1537 C1532 1.379 . S
C1537 N1535 1.356 . S
N1538 C1530 1.356 . S
N1538 H1544 0.984 . S
N1538 H1545 0.984 . S
N1539 C1532 1.356 . S
N1539 H1542 0.984 . S
N1539 H1543 0.985 . S
H1540 N1535 0.984 . S
H1541 N1535 0.985 . S
H1542 N1539 0.984 . S
H1543 N1539 0.985 . S
H1544 N1538 0.984 . S
H1545 N1538 0.984 . S
H1546 N1534 0.984 . S
H1547 N1534 0.985 . S
C1548 C1549 1.363 . S
C1548 C1554 1.379 . S
C1548 N1556 1.356 . S
C1549 C1548 1.363 . S
C1549 C1555 1.363 . S
C1550 C1551 1.363 . S
C1550 C1555 1.379 . S
C1550 N1557 1.356 . S
C1551 C1550 1.363 . S
C1551 C1554 1.363 . S
N1552 C1554 1.356 1_554 S
N1552 H1564 0.984 . S
N1552 H1565 0.985 . S
N1553 C1555 1.356 . S
N1553 H1558 0.984 . S
N1553 H1559 0.985 . S
C1554 C1548 1.379 . S
C1554 C1551 1.363 . S
C1554 N1552 1.356 1_556 S
C1555 C1549 1.363 . S
C1555 C1550 1.379 . S
C1555 N1553 1.356 . S
N1556 C1548 1.356 . S
N1556 H1562 0.984 1_556 S
N1556 H1563 0.984 . S
N1557 C1550 1.356 . S
N1557 H1560 0.984 . S
N1557 H1561 0.985 . S
H1558 N1553 0.984 . S
H1559 N1553 0.985 . S
H1560 N1557 0.984 . S
H1561 N1557 0.985 . S
H1562 N1556 0.984 1_554 S
H1563 N1556 0.984 . S
H1564 N1552 0.984 . S
H1565 N1552 0.985 . S
C1566 C1567 1.363 . S
C1566 C1572 1.379 . S
C1566 N1574 1.356 . S
C1567 C1566 1.363 . S
C1567 C1573 1.363 . S
C1568 C1569 1.363 . S
C1568 C1573 1.379 . S
C1568 N1575 1.356 1_554 S
C1569 C1568 1.363 . S
C1569 C1572 1.363 . S
N1570 C1572 1.356 . S
N1570 H1582 0.984 . S
N1570 H1583 0.985 . S
N1571 C1573 1.356 . S
N1571 H1576 0.984 . S
N1571 H1577 0.985 . S
C1572 C1566 1.379 . S
C1572 C1569 1.363 . S
C1572 N1570 1.356 . S
C1573 C1567 1.363 . S
C1573 C1568 1.379 . S
C1573 N1571 1.356 . S
N1574 C1566 1.356 . S
N1574 H1580 0.984 . S
N1574 H1581 0.984 . S
N1575 C1568 1.356 1_556 S
N1575 H1578 0.984 . S
N1575 H1579 0.985 . S
H1576 N1571 0.984 . S
H1577 N1571 0.985 . S
H1578 N1575 0.984 . S
H1579 N1575 0.985 . S
H1580 N1574 0.984 . S
H1581 N1574 0.984 . S
H1582 N1570 0.984 . S
H1583 N1570 0.985 . S
C1584 C1585 1.363 . S
C1584 C1590 1.379 . S
C1584 N1592 1.356 . S
C1585 C1584 1.363 . S
C1585 C1591 1.363 . S
C1586 C1587 1.363 . S
C1586 C1591 1.379 . S
C1586 N1593 1.356 . S
C1587 C1586 1.363 . S
C1587 C1590 1.363 . S
N1588 C1590 1.356 . S
N1588 H1600 0.984 . S
N1588 H1601 0.985 . S
N1589 C1591 1.356 . S
N1589 H1594 0.984 . S
N1589 H1595 0.985 . S
C1590 C1584 1.379 . S
C1590 C1587 1.363 . S
C1590 N1588 1.356 . S
C1591 C1585 1.363 . S
C1591 C1586 1.379 . S
C1591 N1589 1.356 . S
N1592 C1584 1.356 . S
N1592 H1598 0.984 . S
N1592 H1599 0.984 . S
N1593 C1586 1.356 . S
N1593 H1596 0.984 . S
N1593 H1597 0.985 . S
H1594 N1589 0.984 . S
H1595 N1589 0.985 . S
H1596 N1593 0.984 . S
H1597 N1593 0.985 . S
H1598 N1592 0.984 . S
H1599 N1592 0.984 . S
H1600 N1588 0.984 . S
H1601 N1588 0.985 . S
C1602 C1603 1.363 . S
C1602 C1608 1.379 . S
C1602 N1610 1.356 . S
C1603 C1602 1.363 . S
C1603 C1609 1.363 . S
C1604 C1605 1.363 . S
C1604 C1609 1.379 . S
C1604 N1611 1.356 . S
C1605 C1604 1.363 . S
C1605 C1608 1.363 . S
N1606 C1608 1.356 1_556 S
N1606 H1618 0.984 . S
N1606 H1619 0.985 . S
N1607 C1609 1.356 . S
N1607 H1612 0.984 . S
N1607 H1613 0.985 . S
C1608 C1602 1.379 . S
C1608 C1605 1.363 . S
C1608 N1606 1.356 1_554 S
C1609 C1603 1.363 . S
C1609 C1604 1.379 . S
C1609 N1607 1.356 . S
N1610 C1602 1.356 . S
N1610 H1616 0.984 1_554 S
N1610 H1617 0.984 . S
N1611 C1604 1.356 . S
N1611 H1614 0.984 . S
N1611 H1615 0.985 . S
H1612 N1607 0.984 . S
H1613 N1607 0.985 . S
H1614 N1611 0.984 . S
H1615 N1611 0.985 . S
H1616 N1610 0.984 1_556 S
H1617 N1610 0.984 . S
H1618 N1606 0.984 . S
H1619 N1606 0.985 . S
C1620 C1621 1.363 . S
C1620 C1626 1.379 . S
C1620 N1628 1.356 . S
C1621 C1620 1.363 . S
C1621 C1627 1.363 . S
C1622 C1623 1.363 . S
C1622 C1627 1.379 . S
C1622 N1629 1.356 . S
C1623 C1622 1.363 . S
C1623 C1626 1.363 . S
N1624 C1626 1.356 . S
N1624 H1636 0.984 . S
N1624 H1637 0.985 . S
N1625 C1627 1.356 . S
N1625 H1630 0.984 . S
N1625 H1631 0.985 . S
C1626 C1620 1.379 . S
C1626 C1623 1.363 . S
C1626 N1624 1.356 . S
C1627 C1621 1.363 . S
C1627 C1622 1.379 . S
C1627 N1625 1.356 . S
N1628 C1620 1.356 . S
N1628 H1634 0.984 . S
N1628 H1635 0.984 1_455 S
N1629 C1622 1.356 . S
N1629 H1632 0.984 . S
N1629 H1633 0.985 . S
H1630 N1625 0.984 . S
H1631 N1625 0.985 . S
H1632 N1629 0.984 . S
H1633 N1629 0.985 . S
H1634 N1628 0.984 . S
H1635 N1628 0.984 1_655 S
H1636 N1624 0.984 . S
H1637 N1624 0.985 . S
C1638 C1639 1.363 . S
C1638 C1644 1.379 . S
C1638 N1646 1.356 . S
C1639 C1638 1.363 . S
C1639 C1645 1.363 . S
C1640 C1641 1.363 . S
C1640 C1645 1.379 . S
C1640 N1647 1.356 . S
C1641 C1640 1.363 . S
C1641 C1644 1.363 . S
N1642 C1644 1.356 . S
N1642 H1654 0.984 . S
N1642 H1655 0.985 . S
N1643 C1645 1.356 . S
N1643 H1648 0.984 . S
N1643 H1649 0.985 . S
C1644 C1638 1.379 . S
C1644 C1641 1.363 . S
C1644 N1642 1.356 . S
C1645 C1639 1.363 . S
C1645 C1640 1.379 . S
C1645 N1643 1.356 . S
N1646 C1638 1.356 . S
N1646 H1652 0.984 . S
N1646 H1653 0.984 . S
N1647 C1640 1.356 . S
N1647 H1650 0.984 . S
N1647 H1651 0.985 . S
H1648 N1643 0.984 . S
H1649 N1643 0.985 . S
H1650 N1647 0.984 . S
H1651 N1647 0.985 . S
H1652 N1646 0.984 . S
H1653 N1646 0.984 . S
H1654 N1642 0.984 . S
H1655 N1642 0.985 . S
C1656 C1657 1.363 . S
C1656 C1662 1.379 . S
C1656 N1664 1.356 1_565 S
C1657 C1656 1.363 . S
C1657 C1663 1.363 . S
C1658 C1659 1.363 . S
C1658 C1663 1.379 . S
C1658 N1665 1.356 . S
C1659 C1658 1.363 . S
C1659 C1662 1.363 . S
N1660 C1662 1.356 . S
N1660 H1672 0.984 . S
N1660 H1673 0.985 . S
N1661 C1663 1.356 . S
N1661 H1666 0.984 1_565 S
N1661 H1667 0.985 . S
C1662 C1656 1.379 . S
C1662 C1659 1.363 . S
C1662 N1660 1.356 . S
C1663 C1657 1.363 . S
C1663 C1658 1.379 . S
C1663 N1661 1.356 . S
N1664 C1656 1.356 1_545 S
N1664 H1670 0.984 . S
N1664 H1671 0.984 . S
N1665 C1658 1.356 . S
N1665 H1668 0.984 . S
N1665 H1669 0.985 . S
H1666 N1661 0.984 1_545 S
H1667 N1661 0.985 . S
H1668 N1665 0.984 . S
H1669 N1665 0.985 . S
H1670 N1664 0.984 . S
H1671 N1664 0.984 . S
H1672 N1660 0.984 . S
H1673 N1660 0.985 . S
C1674 C1675 1.363 . S
C1674 C1680 1.379 . S
C1674 N1682 1.356 . S
C1675 C1674 1.363 . S
C1675 C1681 1.363 . S
C1676 C1677 1.363 . S
C1676 C1681 1.379 . S
C1676 N1683 1.356 . S
C1677 C1676 1.363 . S
C1677 C1680 1.363 . S
N1678 C1680 1.356 . S
N1678 H1690 0.984 . S
N1678 H1691 0.985 . S
N1679 C1681 1.356 . S
N1679 H1684 0.984 . S
N1679 H1685 0.985 . S
C1680 C1674 1.379 . S
C1680 C1677 1.363 . S
C1680 N1678 1.356 . S
C1681 C1675 1.363 . S
C1681 C1676 1.379 . S
C1681 N1679 1.356 . S
N1682 C1674 1.356 . S
N1682 H1688 0.984 . S
N1682 H1689 0.984 . S
N1683 C1676 1.356 . S
N1683 H1686 0.984 . S
N1683 H1687 0.985 . S
H1684 N1679 0.984 . S
H1685 N1679 0.985 . S
H1686 N1683 0.984 . S
H1687 N1683 0.985 . S
H1688 N1682 0.984 . S
H1689 N1682 0.984 . S
H1690 N1678 0.984 . S
H1691 N1678 0.985 . S
C1692 C1693 1.363 . S
C1692 C1698 1.379 . S
C1692 N1700 1.356 . S
C1693 C1692 1.363 . S
C1693 C1699 1.363 . S
C1694 C1695 1.363 . S
C1694 C1699 1.379 . S
C1694 N1701 1.356 . S
C1695 C1694 1.363 . S
C1695 C1698 1.363 . S
N1696 C1698 1.356 . S
N1696 H1708 0.984 . S
N1696 H1709 0.985 . S
N1697 C1699 1.356 . S
N1697 H1702 0.984 . S
N1697 H1703 0.985 . S
C1698 C1692 1.379 . S
C1698 C1695 1.363 . S
C1698 N1696 1.356 . S
C1699 C1693 1.363 . S
C1699 C1694 1.379 . S
C1699 N1697 1.356 . S
N1700 C1692 1.356 . S
N1700 H1706 0.984 . S
N1700 H1707 0.984 . S
N1701 C1694 1.356 . S
N1701 H1704 0.984 . S
N1701 H1705 0.985 . S
H1702 N1697 0.984 . S
H1703 N1697 0.985 . S
H1704 N1701 0.984 . S
H1705 N1701 0.985 . S
H1706 N1700 0.984 . S
H1707 N1700 0.984 . S
H1708 N1696 0.984 . S
H1709 N1696 0.985 . S
C1710 C1711 1.363 . S
C1710 C1716 1.379 . S
C1710 N1718 1.356 . S
C1711 C1710 1.363 . S
C1711 C1717 1.363 . S
C1712 C1713 1.363 . S
C1712 C1717 1.379 . S
C1712 N1719 1.356 . S
C1713 C1712 1.363 . S
C1713 C1716 1.363 . S
N1714 C1716 1.356 . S
N1714 H1726 0.984 . S
N1714 H1727 0.985 . S
N1715 C1717 1.356 . S
N1715 H1720 0.984 . S
N1715 H1721 0.985 . S
C1716 C1710 1.379 . S
C1716 C1713 1.363 . S
C1716 N1714 1.356 . S
C1717 C1711 1.363 . S
C1717 C1712 1.379 . S
C1717 N1715 1.356 . S
N1718 C1710 1.356 . S
N1718 H1724 0.984 . S
N1718 H1725 0.984 . S
N1719 C1712 1.356 . S
N1719 H1722 0.984 . S
N1719 H1723 0.985 . S
H1720 N1715 0.984 . S
H1721 N1715 0.985 . S
H1722 N1719 0.984 . S
H1723 N1719 0.985 . S
H1724 N1718 0.984 . S
H1725 N1718 0.984 . S
H1726 N1714 0.984 . S
H1727 N1714 0.985 . S
C1728 C1729 1.363 . S
C1728 C1734 1.379 . S
C1728 N1736 1.356 . S
C1729 C1728 1.363 . S
C1729 C1735 1.363 . S
C1730 C1731 1.363 . S
C1730 C1735 1.379 . S
C1730 N1737 1.356 . S
C1731 C1730 1.363 . S
C1731 C1734 1.363 . S
N1732 C1734 1.356 . S
N1732 H1744 0.984 . S
N1732 H1745 0.985 . S
N1733 C1735 1.356 . S
N1733 H1738 0.984 . S
N1733 H1739 0.985 . S
C1734 C1728 1.379 . S
C1734 C1731 1.363 . S
C1734 N1732 1.356 . S
C1735 C1729 1.363 . S
C1735 C1730 1.379 . S
C1735 N1733 1.356 . S
N1736 C1728 1.356 . S
N1736 H1742 0.984 . S
N1736 H1743 0.984 . S
N1737 C1730 1.356 . S
N1737 H1740 0.984 . S
N1737 H1741 0.985 . S
H1738 N1733 0.984 . S
H1739 N1733 0.985 . S
H1740 N1737 0.984 . S
H1741 N1737 0.985 . S
H1742 N1736 0.984 . S
H1743 N1736 0.984 . S
H1744 N1732 0.984 . S
H1745 N1732 0.985 . S
C1746 C1747 1.363 . S
C1746 C1752 1.379 . S
C1746 N1754 1.356 . S
C1747 C1746 1.363 . S
C1747 C1753 1.363 . S
C1748 C1749 1.363 . S
C1748 C1753 1.379 . S
C1748 N1755 1.356 . S
C1749 C1748 1.363 . S
C1749 C1752 1.363 . S
N1750 C1752 1.356 . S
N1750 H1762 0.984 . S
N1750 H1763 0.985 . S
N1751 C1753 1.356 . S
N1751 H1756 0.984 . S
N1751 H1757 0.985 . S
C1752 C1746 1.379 . S
C1752 C1749 1.363 . S
C1752 N1750 1.356 . S
C1753 C1747 1.363 . S
C1753 C1748 1.379 . S
C1753 N1751 1.356 . S
N1754 C1746 1.356 . S
N1754 H1760 0.984 . S
N1754 H1761 0.984 . S
N1755 C1748 1.356 . S
N1755 H1758 0.984 . S
N1755 H1759 0.985 . S
H1756 N1751 0.984 . S
H1757 N1751 0.985 . S
H1758 N1755 0.984 . S
H1759 N1755 0.985 . S
H1760 N1754 0.984 . S
H1761 N1754 0.984 . S
H1762 N1750 0.984 . S
H1763 N1750 0.985 . S
C1764 C1765 1.363 . S
C1764 C1770 1.379 . S
C1764 N1772 1.356 . S
C1765 C1764 1.363 . S
C1765 C1771 1.363 . S
C1766 C1767 1.363 . S
C1766 C1771 1.379 . S
C1766 N1773 1.356 . S
C1767 C1766 1.363 . S
C1767 C1770 1.363 . S
N1768 C1770 1.356 . S
N1768 H1780 0.984 . S
N1768 H1781 0.985 . S
N1769 C1771 1.356 . S
N1769 H1774 0.984 . S
N1769 H1775 0.985 . S
C1770 C1764 1.379 . S
C1770 C1767 1.363 . S
C1770 N1768 1.356 . S
C1771 C1765 1.363 . S
C1771 C1766 1.379 . S
C1771 N1769 1.356 . S
N1772 C1764 1.356 . S
N1772 H1778 0.984 . S
N1772 H1779 0.984 . S
N1773 C1766 1.356 . S
N1773 H1776 0.984 . S
N1773 H1777 0.985 . S
H1774 N1769 0.984 . S
H1775 N1769 0.985 . S
H1776 N1773 0.984 . S
H1777 N1773 0.985 . S
H1778 N1772 0.984 . S
H1779 N1772 0.984 . S
H1780 N1768 0.984 . S
H1781 N1768 0.985 . S
C1782 C1783 1.363 . S
C1782 C1788 1.379 . S
C1782 N1790 1.356 1_565 S
C1783 C1782 1.363 . S
C1783 C1789 1.363 . S
C1784 C1785 1.363 . S
C1784 C1789 1.379 . S
C1784 N1791 1.356 . S
C1785 C1784 1.363 . S
C1785 C1788 1.363 . S
N1786 C1788 1.356 . S
N1786 H1798 0.984 . S
N1786 H1799 0.985 . S
N1787 C1789 1.356 . S
N1787 H1792 0.984 . S
N1787 H1793 0.985 . S
C1788 C1782 1.379 . S
C1788 C1785 1.363 . S
C1788 N1786 1.356 . S
C1789 C1783 1.363 . S
C1789 C1784 1.379 . S
C1789 N1787 1.356 . S
N1790 C1782 1.356 1_545 S
N1790 H1796 0.984 . S
N1790 H1797 0.984 . S
N1791 C1784 1.356 . S
N1791 H1794 0.984 . S
N1791 H1795 0.985 . S
H1792 N1787 0.984 . S
H1793 N1787 0.985 . S
H1794 N1791 0.984 . S
H1795 N1791 0.985 . S
H1796 N1790 0.984 . S
H1797 N1790 0.984 . S
H1798 N1786 0.984 . S
H1799 N1786 0.985 . S
C1800 C1801 1.363 . S
C1800 C1806 1.379 . S
C1800 N1808 1.356 . S
C1801 C1800 1.363 . S
C1801 C1807 1.363 . S
C1802 C1803 1.363 . S
C1802 C1807 1.379 . S
C1802 N1809 1.356 . S
C1803 C1802 1.363 . S
C1803 C1806 1.363 . S
N1804 C1806 1.356 . S
N1804 H1816 0.984 . S
N1804 H1817 0.985 . S
N1805 C1807 1.356 . S
N1805 H1810 0.984 1_455 S
N1805 H1811 0.985 . S
C1806 C1800 1.379 . S
C1806 C1803 1.363 . S
C1806 N1804 1.356 . S
C1807 C1801 1.363 . S
C1807 C1802 1.379 . S
C1807 N1805 1.356 . S
N1808 C1800 1.356 . S
N1808 H1814 0.984 . S
N1808 H1815 0.984 . S
N1809 C1802 1.356 . S
N1809 H1812 0.984 . S
N1809 H1813 0.985 . S
H1810 N1805 0.984 1_655 S
H1811 N1805 0.985 . S
H1812 N1809 0.984 . S
H1813 N1809 0.985 . S
H1814 N1808 0.984 . S
H1815 N1808 0.984 . S
H1816 N1804 0.984 . S
H1817 N1804 0.985 . S
C1818 C1819 1.363 . S
C1818 C1824 1.379 . S
C1818 N1826 1.356 . S
C1819 C1818 1.363 . S
C1819 C1825 1.363 . S
C1820 C1821 1.363 . S
C1820 C1825 1.379 . S
C1820 N1827 1.356 . S
C1821 C1820 1.363 . S
C1821 C1824 1.363 . S
N1822 C1824 1.356 . S
N1822 H1834 0.984 . S
N1822 H1835 0.985 . S
N1823 C1825 1.356 . S
N1823 H1828 0.984 . S
N1823 H1829 0.985 . S
C1824 C1818 1.379 . S
C1824 C1821 1.363 . S
C1824 N1822 1.356 . S
C1825 C1819 1.363 . S
C1825 C1820 1.379 . S
C1825 N1823 1.356 . S
N1826 C1818 1.356 . S
N1826 H1832 0.984 . S
N1826 H1833 0.984 . S
N1827 C1820 1.356 . S
N1827 H1830 0.984 . S
N1827 H1831 0.985 . S
H1828 N1823 0.984 . S
H1829 N1823 0.985 . S
H1830 N1827 0.984 . S
H1831 N1827 0.985 . S
H1832 N1826 0.984 . S
H1833 N1826 0.984 . S
H1834 N1822 0.984 . S
H1835 N1822 0.985 . S
C1836 C1837 1.363 . S
C1836 C1842 1.379 . S
C1836 N1844 1.356 . S
C1837 C1836 1.363 . S
C1837 C1843 1.363 . S
C1838 C1839 1.363 . S
C1838 C1843 1.379 . S
C1838 N1845 1.356 . S
C1839 C1838 1.363 . S
C1839 C1842 1.363 . S
N1840 C1842 1.356 . S
N1840 H1852 0.984 . S
N1840 H1853 0.985 . S
N1841 C1843 1.356 . S
N1841 H1846 0.984 . S
N1841 H1847 0.985 . S
C1842 C1836 1.379 . S
C1842 C1839 1.363 . S
C1842 N1840 1.356 . S
C1843 C1837 1.363 . S
C1843 C1838 1.379 . S
C1843 N1841 1.356 . S
N1844 C1836 1.356 . S
N1844 H1850 0.984 . S
N1844 H1851 0.984 . S
N1845 C1838 1.356 . S
N1845 H1848 0.984 . S
N1845 H1849 0.985 . S
H1846 N1841 0.984 . S
H1847 N1841 0.985 . S
H1848 N1845 0.984 . S
H1849 N1845 0.985 . S
H1850 N1844 0.984 . S
H1851 N1844 0.984 . S
H1852 N1840 0.984 . S
H1853 N1840 0.985 . S
C1854 C1855 1.363 . S
C1854 C1860 1.379 . S
C1854 N1862 1.356 . S
C1855 C1854 1.363 . S
C1855 C1861 1.363 . S
C1856 C1857 1.363 . S
C1856 C1861 1.379 . S
C1856 N1863 1.356 . S
C1857 C1856 1.363 . S
C1857 C1860 1.363 . S
N1858 C1860 1.356 . S
N1858 H1870 0.984 . S
N1858 H1871 0.985 . S
N1859 C1861 1.356 . S
N1859 H1864 0.984 . S
N1859 H1865 0.985 . S
C1860 C1854 1.379 . S
C1860 C1857 1.363 . S
C1860 N1858 1.356 . S
C1861 C1855 1.363 . S
C1861 C1856 1.379 . S
C1861 N1859 1.356 . S
N1862 C1854 1.356 . S
N1862 H1868 0.984 . S
N1862 H1869 0.984 . S
N1863 C1856 1.356 . S
N1863 H1866 0.984 . S
N1863 H1867 0.985 . S
H1864 N1859 0.984 . S
H1865 N1859 0.985 . S
H1866 N1863 0.984 . S
H1867 N1863 0.985 . S
H1868 N1862 0.984 . S
H1869 N1862 0.984 . S
H1870 N1858 0.984 . S
H1871 N1858 0.985 . S
C1872 C1873 1.363 . S
C1872 C1878 1.379 . S
C1872 N1880 1.356 . S
C1873 C1872 1.363 . S
C1873 C1879 1.363 . S
C1874 C1875 1.363 . S
C1874 C1879 1.379 . S
C1874 N1881 1.356 . S
C1875 C1874 1.363 . S
C1875 C1878 1.363 . S
N1876 C1878 1.356 . S
N1876 H1888 0.984 . S
N1876 H1889 0.985 . S
N1877 C1879 1.356 . S
N1877 H1882 0.984 . S
N1877 H1883 0.985 . S
C1878 C1872 1.379 . S
C1878 C1875 1.363 . S
C1878 N1876 1.356 . S
C1879 C1873 1.363 . S
C1879 C1874 1.379 . S
C1879 N1877 1.356 . S
N1880 C1872 1.356 . S
N1880 H1886 0.984 . S
N1880 H1887 0.984 . S
N1881 C1874 1.356 . S
N1881 H1884 0.984 . S
N1881 H1885 0.985 . S
H1882 N1877 0.984 . S
H1883 N1877 0.985 . S
H1884 N1881 0.984 . S
H1885 N1881 0.985 . S
H1886 N1880 0.984 . S
H1887 N1880 0.984 . S
H1888 N1876 0.984 . S
H1889 N1876 0.985 . S
C1890 C1891 1.363 . S
C1890 C1896 1.379 . S
C1890 N1898 1.370 . S
C1891 C1890 1.363 . S
C1891 C1897 1.363 . S
C1892 C1893 1.363 . S
C1892 C1897 1.379 . S
C1892 N1899 1.356 . S
C1893 C1892 1.363 . S
C1893 C1896 1.363 . S
N1894 C1896 1.356 . S
N1894 H1906 0.984 . S
N1894 H1907 0.985 . S
N1895 C1897 1.356 . S
N1895 H1900 1.005 . S
N1895 H1901 0.985 . S
C1896 C1890 1.379 . S
C1896 C1893 1.363 . S
C1896 N1894 1.356 . S
C1897 C1891 1.363 . S
C1897 C1892 1.379 . S
C1897 N1895 1.356 . S
N1898 C1890 1.370 . S
N1898 H1904 0.989 . S
N1898 H1905 0.966 1_545 S
N1899 C1892 1.356 . S
N1899 H1902 0.984 . S
N1899 H1903 0.985 . S
H1900 N1895 1.005 . S
H1901 N1895 0.985 . S
H1902 N1899 0.984 . S
H1903 N1899 0.985 . S
H1904 N1898 0.989 . S
H1905 N1898 0.966 1_565 S
H1906 N1894 0.984 . S
H1907 N1894 0.985 . S
C1908 C1909 1.363 . S
C1908 C1914 1.379 . S
C1908 N1916 1.356 1_655 S
C1909 C1908 1.363 . S
C1909 C1915 1.363 . S
C1910 C1911 1.363 . S
C1910 C1915 1.379 . S
C1910 N1917 1.356 . S
C1911 C1910 1.363 . S
C1911 C1914 1.363 . S
N1912 C1914 1.356 . S
N1912 H1924 0.984 . S
N1912 H1925 0.985 . S
N1913 C1915 1.356 . S
N1913 H1918 0.984 . S
N1913 H1919 0.985 . S
C1914 C1908 1.379 . S
C1914 C1911 1.363 . S
C1914 N1912 1.356 . S
C1915 C1909 1.363 . S
C1915 C1910 1.379 . S
C1915 N1913 1.356 . S
N1916 C1908 1.356 1_455 S
N1916 H1922 0.984 . S
N1916 H1923 0.984 . S
N1917 C1910 1.356 . S
N1917 H1920 0.984 . S
N1917 H1921 0.985 . S
H1918 N1913 0.984 . S
H1919 N1913 0.985 . S
H1920 N1917 0.984 . S
H1921 N1917 0.985 . S
H1922 N1916 0.984 . S
H1923 N1916 0.984 . S
H1924 N1912 0.984 . S
H1925 N1912 0.985 . S
C1926 C1927 1.363 . S
C1926 C1932 1.379 . S
C1926 N1934 1.356 . S
C1927 C1926 1.363 . S
C1927 C1933 1.363 . S
C1928 C1929 1.363 . S
C1928 C1933 1.379 . S
C1928 N1935 1.356 . S
C1929 C1928 1.363 . S
C1929 C1932 1.363 . S
N1930 C1932 1.356 . S
N1930 H1942 0.984 . S
N1930 H1943 0.985 . S
N1931 C1933 1.356 . S
N1931 H1936 0.984 . S
N1931 H1937 0.985 . S
C1932 C1926 1.379 . S
C1932 C1929 1.363 . S
C1932 N1930 1.356 . S
C1933 C1927 1.363 . S
C1933 C1928 1.379 . S
C1933 N1931 1.356 . S
N1934 C1926 1.356 . S
N1934 H1940 0.984 . S
N1934 H1941 0.984 . S
N1935 C1928 1.356 . S
N1935 H1938 0.984 . S
N1935 H1939 0.985 . S
H1936 N1931 0.984 . S
H1937 N1931 0.985 . S
H1938 N1935 0.984 . S
H1939 N1935 0.985 . S
H1940 N1934 0.984 . S
H1941 N1934 0.984 . S
H1942 N1930 0.984 . S
H1943 N1930 0.985 . S
C1944 C1945 1.363 . S
C1944 C1950 1.379 . S
C1944 N1952 1.356 . S
C1945 C1944 1.363 . S
C1945 C1951 1.363 . S
C1946 C1947 1.363 . S
C1946 C1951 1.379 . S
C1946 N1953 1.356 . S
C1947 C1946 1.363 . S
C1947 C1950 1.363 . S
N1948 C1950 1.356 . S
N1948 H1960 0.984 . S
N1948 H1961 0.985 . S
N1949 C1951 1.326 1_455 S
N1949 H1954 1.012 . S
N1949 H1955 0.988 . S
C1950 C1944 1.379 . S
C1950 C1947 1.363 . S
C1950 N1948 1.356 . S
C1951 C1945 1.363 . S
C1951 C1946 1.379 . S
C1951 N1949 1.326 1_655 S
N1952 C1944 1.356 . S
N1952 H1958 0.984 . S
N1952 H1959 0.984 . S
N1953 C1946 1.356 . S
N1953 H1956 0.984 . S
N1953 H1957 0.985 . S
H1954 N1949 1.012 . S
H1955 N1949 0.988 . S
H1956 N1953 0.984 . S
H1957 N1953 0.985 . S
H1958 N1952 0.984 . S
H1959 N1952 0.984 . S
H1960 N1948 0.984 . S
H1961 N1948 0.985 . S
C1962 C1963 1.363 . S
C1962 C1968 1.379 . S
C1962 N1970 1.356 . S
C1963 C1962 1.363 . S
C1963 C1969 1.363 . S
C1964 C1965 1.363 . S
C1964 C1969 1.379 . S
C1964 N1971 1.356 . S
C1965 C1964 1.363 . S
C1965 C1968 1.363 . S
N1966 C1968 1.356 . S
N1966 H1978 0.984 . S
N1966 H1979 0.985 . S
N1967 C1969 1.356 . S
N1967 H1972 0.984 . S
N1967 H1973 0.985 . S
C1968 C1962 1.379 . S
C1968 C1965 1.363 . S
C1968 N1966 1.356 . S
C1969 C1963 1.363 . S
C1969 C1964 1.379 . S
C1969 N1967 1.356 . S
N1970 C1962 1.356 . S
N1970 H1976 0.984 . S
N1970 H1977 0.984 . S
N1971 C1964 1.356 . S
N1971 H1974 0.984 . S
N1971 H1975 0.985 . S
H1972 N1967 0.984 . S
H1973 N1967 0.985 . S
H1974 N1971 0.984 . S
H1975 N1971 0.985 . S
H1976 N1970 0.984 . S
H1977 N1970 0.984 . S
H1978 N1966 0.984 . S
H1979 N1966 0.985 . S
C1980 C1981 1.363 . S
C1980 C1986 1.379 . S
C1980 N1988 1.356 1_545 S
C1981 C1980 1.363 . S
C1981 C1987 1.363 . S
C1982 C1983 1.363 . S
C1982 C1987 1.379 . S
C1982 N1989 1.356 . S
C1983 C1982 1.363 . S
C1983 C1986 1.363 . S
N1984 C1986 1.356 . S
N1984 H1996 0.984 . S
N1984 H1997 0.985 . S
N1985 C1987 1.356 . S
N1985 H1990 0.962 1_545 S
N1985 H1991 0.985 . S
C1986 C1980 1.379 . S
C1986 C1983 1.363 . S
C1986 N1984 1.356 . S
C1987 C1981 1.363 . S
C1987 C1982 1.379 . S
C1987 N1985 1.356 . S
N1988 C1980 1.356 1_565 S
N1988 H1994 0.984 . S
N1988 H1995 0.984 . S
N1989 C1982 1.356 . S
N1989 H1992 0.984 . S
N1989 H1993 0.985 . S
H1990 N1985 0.962 1_565 S
H1991 N1985 0.985 . S
H1992 N1989 0.984 . S
H1993 N1989 0.985 . S
H1994 N1988 0.984 . S
H1995 N1988 0.984 . S
H1996 N1984 0.984 . S
H1997 N1984 0.985 . S
C1998 C1999 1.363 . S
C1998 C2004 1.379 . S
C1998 N2006 1.356 . S
C1999 C1998 1.363 . S
C1999 C2005 1.363 . S
C2000 C2001 1.363 . S
C2000 C2005 1.379 . S
C2000 N2007 1.356 . S
C2001 C2000 1.363 . S
C2001 C2004 1.363 . S
N2002 C2004 1.356 . S
N2002 H2014 0.984 . S
N2002 H2015 0.985 . S
N2003 C2005 1.356 . S
N2003 H2008 0.984 . S
N2003 H2009 0.985 . S
C2004 C1998 1.379 . S
C2004 C2001 1.363 . S
C2004 N2002 1.356 . S
C2005 C1999 1.363 . S
C2005 C2000 1.379 . S
C2005 N2003 1.356 . S
N2006 C1998 1.356 . S
N2006 H2012 0.984 . S
N2006 H2013 0.984 . S
N2007 C2000 1.356 . S
N2007 H2010 0.984 . S
N2007 H2011 0.985 . S
H2008 N2003 0.984 . S
H2009 N2003 0.985 . S
H2010 N2007 0.984 . S
H2011 N2007 0.985 . S
H2012 N2006 0.984 . S
H2013 N2006 0.984 . S
H2014 N2002 0.984 . S
H2015 N2002 0.985 . S
C2016 C2017 1.363 . S
C2016 C2022 1.379 . S
C2016 N2024 1.356 . S
C2017 C2016 1.363 . S
C2017 C2023 1.363 . S
C2018 C2019 1.363 . S
C2018 C2023 1.379 . S
C2018 N2025 1.356 . S
C2019 C2018 1.363 . S
C2019 C2022 1.363 . S
N2020 C2022 1.356 . S
N2020 H2032 0.984 . S
N2020 H2033 0.985 . S
N2021 C2023 1.356 . S
N2021 H2026 0.984 . S
N2021 H2027 0.985 . S
C2022 C2016 1.379 . S
C2022 C2019 1.363 . S
C2022 N2020 1.356 . S
C2023 C2017 1.363 . S
C2023 C2018 1.379 . S
C2023 N2021 1.356 . S
N2024 C2016 1.356 . S
N2024 H2030 0.984 . S
N2024 H2031 0.984 . S
N2025 C2018 1.356 . S
N2025 H2028 0.984 . S
N2025 H2029 0.985 . S
H2026 N2021 0.984 . S
H2027 N2021 0.985 . S
H2028 N2025 0.984 . S
H2029 N2025 0.985 . S
H2030 N2024 0.984 . S
H2031 N2024 0.984 . S
H2032 N2020 0.984 . S
H2033 N2020 0.985 . S
C2034 C2035 1.363 . S
C2034 C2040 1.379 . S
C2034 N2042 1.356 . S
C2035 C2034 1.363 . S
C2035 C2041 1.363 . S
C2036 C2037 1.363 . S
C2036 C2041 1.379 . S
C2036 N2043 1.356 . S
C2037 C2036 1.363 . S
C2037 C2040 1.363 . S
N2038 C2040 1.356 . S
N2038 H2050 0.984 . S
N2038 H2051 0.985 . S
N2039 C2041 1.356 . S
N2039 H2044 0.984 . S
N2039 H2045 0.985 . S
C2040 C2034 1.379 . S
C2040 C2037 1.363 . S
C2040 N2038 1.356 . S
C2041 C2035 1.363 . S
C2041 C2036 1.379 . S
C2041 N2039 1.356 . S
N2042 C2034 1.356 . S
N2042 H2048 0.984 . S
N2042 H2049 0.984 . S
N2043 C2036 1.356 . S
N2043 H2046 0.984 . S
N2043 H2047 0.985 . S
H2044 N2039 0.984 . S
H2045 N2039 0.985 . S
H2046 N2043 0.984 . S
H2047 N2043 0.985 . S
H2048 N2042 0.984 . S
H2049 N2042 0.984 . S
H2050 N2038 0.984 . S
H2051 N2038 0.985 . S
C2052 C2053 1.363 . S
C2052 C2058 1.379 . S
C2052 N2060 1.356 . S
C2053 C2052 1.363 . S
C2053 C2059 1.363 . S
C2054 C2055 1.363 . S
C2054 C2059 1.379 . S
C2054 N2061 1.356 . S
C2055 C2054 1.363 . S
C2055 C2058 1.363 . S
N2056 C2058 1.356 1_545 S
N2056 H2068 0.984 . S
N2056 H2069 0.985 . S
N2057 C2059 1.356 . S
N2057 H2062 0.984 . S
N2057 H2063 0.985 . S
C2058 C2052 1.379 . S
C2058 C2055 1.363 . S
C2058 N2056 1.356 1_565 S
C2059 C2053 1.363 . S
C2059 C2054 1.379 . S
C2059 N2057 1.356 . S
N2060 C2052 1.356 . S
N2060 H2066 0.984 . S
N2060 H2067 0.984 . S
N2061 C2054 1.356 . S
N2061 H2064 0.984 . S
N2061 H2065 0.985 . S
H2062 N2057 0.984 . S
H2063 N2057 0.985 . S
H2064 N2061 0.984 . S
H2065 N2061 0.985 . S
H2066 N2060 0.984 . S
H2067 N2060 0.984 . S
H2068 N2056 0.984 . S
H2069 N2056 0.985 . S
C2070 C2071 1.363 . S
C2070 C2076 1.379 . S
C2070 N2078 1.356 . S
C2071 C2070 1.363 . S
C2071 C2077 1.363 . S
C2072 C2073 1.363 . S
C2072 C2077 1.379 . S
C2072 N2079 1.356 . S
C2073 C2072 1.363 . S
C2073 C2076 1.363 . S
N2074 C2076 1.356 . S
N2074 H2086 0.984 . S
N2074 H2087 0.985 . S
N2075 C2077 1.356 . S
N2075 H2080 0.984 . S
N2075 H2081 0.985 . S
C2076 C2070 1.379 . S
C2076 C2073 1.363 . S
C2076 N2074 1.356 . S
C2077 C2071 1.363 . S
C2077 C2072 1.379 . S
C2077 N2075 1.356 . S
N2078 C2070 1.356 . S
N2078 H2084 0.984 . S
N2078 H2085 0.984 . S
N2079 C2072 1.356 . S
N2079 H2082 0.984 . S
N2079 H2083 0.985 . S
H2080 N2075 0.984 . S
H2081 N2075 0.985 . S
H2082 N2079 0.984 . S
H2083 N2079 0.985 . S
H2084 N2078 0.984 . S
H2085 N2078 0.984 . S
H2086 N2074 0.984 . S
H2087 N2074 0.985 . S
C2088 C2089 1.363 . S
C2088 C2094 1.379 . S
C2088 N2096 1.356 . S
C2089 C2088 1.363 . S
C2089 C2095 1.363 . S
C2090 C2091 1.363 . S
C2090 C2095 1.379 . S
C2090 N2097 1.356 . S
C2091 C2090 1.363 . S
C2091 C2094 1.363 . S
N2092 C2094 1.356 . S
N2092 H2104 0.984 . S
N2092 H2105 0.985 . S
N2093 C2095 1.356 . S
N2093 H2098 0.984 . S
N2093 H2099 0.985 . S
C2094 C2088 1.379 . S
C2094 C2091 1.363 . S
C2094 N2092 1.356 . S
C2095 C2089 1.363 . S
C2095 C2090 1.379 . S
C2095 N2093 1.356 . S
N2096 C2088 1.356 . S
N2096 H2102 0.984 . S
N2096 H2103 0.984 . S
N2097 C2090 1.356 . S
N2097 H2100 0.984 . S
N2097 H2101 0.985 . S
H2098 N2093 0.984 . S
H2099 N2093 0.985 . S
H2100 N2097 0.984 . S
H2101 N2097 0.985 . S
H2102 N2096 0.984 . S
H2103 N2096 0.984 . S
H2104 N2092 0.984 . S
H2105 N2092 0.985 . S
C2106 C2107 1.363 . S
C2106 C2112 1.379 . S
C2106 N2114 1.356 1_655 S
C2107 C2106 1.363 . S
C2107 C2113 1.363 . S
C2108 C2109 1.363 . S
C2108 C2113 1.379 . S
C2108 N2115 1.356 . S
C2109 C2108 1.363 . S
C2109 C2112 1.363 . S
N2110 C2112 1.356 1_455 S
N2110 H2122 0.984 . S
N2110 H2123 0.985 . S
N2111 C2113 1.356 . S
N2111 H2116 0.984 . S
N2111 H2117 0.985 . S
C2112 C2106 1.379 . S
C2112 C2109 1.363 . S
C2112 N2110 1.356 1_655 S
C2113 C2107 1.363 . S
C2113 C2108 1.379 . S
C2113 N2111 1.356 . S
N2114 C2106 1.356 1_455 S
N2114 H2120 0.984 . S
N2114 H2121 0.984 1_455 S
N2115 C2108 1.356 . S
N2115 H2118 0.984 . S
N2115 H2119 0.985 . S
H2116 N2111 0.984 . S
H2117 N2111 0.985 . S
H2118 N2115 0.984 . S
H2119 N2115 0.985 . S
H2120 N2114 0.984 . S
H2121 N2114 0.984 1_655 S
H2122 N2110 0.984 . S
H2123 N2110 0.985 . S
C2124 C2125 1.363 . S
C2124 C2130 1.379 . S
C2124 N2132 1.356 . S
C2125 C2124 1.363 . S
C2125 C2131 1.363 . S
C2126 C2127 1.363 . S
C2126 C2131 1.379 . S
C2126 N2133 1.356 . S
C2127 C2126 1.363 . S
C2127 C2130 1.363 . S
N2128 C2130 1.356 . S
N2128 H2140 0.984 . S
N2128 H2141 0.985 . S
N2129 C2131 1.356 . S
N2129 H2134 0.984 . S
N2129 H2135 0.985 . S
C2130 C2124 1.379 . S
C2130 C2127 1.363 . S
C2130 N2128 1.356 . S
C2131 C2125 1.363 . S
C2131 C2126 1.379 . S
C2131 N2129 1.356 . S
N2132 C2124 1.356 . S
N2132 H2138 0.984 . S
N2132 H2139 0.984 . S
N2133 C2126 1.356 . S
N2133 H2136 0.984 . S
N2133 H2137 0.985 . S
H2134 N2129 0.984 . S
H2135 N2129 0.985 . S
H2136 N2133 0.984 . S
H2137 N2133 0.985 . S
H2138 N2132 0.984 . S
H2139 N2132 0.984 . S
H2140 N2128 0.984 . S
H2141 N2128 0.985 . S
C2142 C2143 1.363 . S
C2142 C2148 1.379 . S
C2142 N2150 1.356 . S
C2143 C2142 1.363 . S
C2143 C2149 1.363 . S
C2144 C2145 1.363 . S
C2144 C2149 1.379 . S
C2144 N2151 1.356 . S
C2145 C2144 1.363 . S
C2145 C2148 1.363 . S
N2146 C2148 1.356 . S
N2146 H2158 0.984 . S
N2146 H2159 0.985 . S
N2147 C2149 1.356 . S
N2147 H2152 0.984 . S
N2147 H2153 0.985 . S
C2148 C2142 1.379 . S
C2148 C2145 1.363 . S
C2148 N2146 1.356 . S
C2149 C2143 1.363 . S
C2149 C2144 1.379 . S
C2149 N2147 1.356 . S
N2150 C2142 1.356 . S
N2150 H2156 0.984 . S
N2150 H2157 0.984 . S
N2151 C2144 1.356 . S
N2151 H2154 0.984 . S
N2151 H2155 0.985 . S
H2152 N2147 0.984 . S
H2153 N2147 0.985 . S
H2154 N2151 0.984 . S
H2155 N2151 0.985 . S
H2156 N2150 0.984 . S
H2157 N2150 0.984 . S
H2158 N2146 0.984 . S
H2159 N2146 0.985 . S
C2160 C2161 1.363 . S
C2160 C2166 1.379 . S
C2160 N2168 1.356 . S
C2161 C2160 1.363 . S
C2161 C2167 1.363 . S
C2162 C2163 1.363 . S
C2162 C2167 1.379 . S
C2162 N2169 1.356 . S
C2163 C2162 1.363 . S
C2163 C2166 1.363 . S
N2164 C2166 1.356 . S
N2164 H2176 0.984 . S
N2164 H2177 0.985 . S
N2165 C2167 1.356 . S
N2165 H2170 0.984 . S
N2165 H2171 0.985 . S
C2166 C2160 1.379 . S
C2166 C2163 1.363 . S
C2166 N2164 1.356 . S
C2167 C2161 1.363 . S
C2167 C2162 1.379 . S
C2167 N2165 1.356 . S
N2168 C2160 1.356 . S
N2168 H2174 0.984 . S
N2168 H2175 0.984 . S
N2169 C2162 1.356 . S
N2169 H2172 0.984 . S
N2169 H2173 0.985 . S
H2170 N2165 0.984 . S
H2171 N2165 0.985 . S
H2172 N2169 0.984 . S
H2173 N2169 0.985 . S
H2174 N2168 0.984 . S
H2175 N2168 0.984 . S
H2176 N2164 0.984 . S
H2177 N2164 0.985 . S
C2178 C2179 1.363 . S
C2178 C2184 1.379 . S
C2178 N2186 1.356 . S
C2179 C2178 1.363 . S
C2179 C2185 1.363 . S
C2180 C2181 1.363 . S
C2180 C2185 1.379 . S
C2180 N2187 1.356 . S
C2181 C2180 1.363 . S
C2181 C2184 1.363 . S
N2182 C2184 1.356 . S
N2182 H2194 0.984 . S
N2182 H2195 0.985 . S
N2183 C2185 1.356 . S
N2183 H2188 0.984 . S
N2183 H2189 0.985 . S
C2184 C2178 1.379 . S
C2184 C2181 1.363 . S
C2184 N2182 1.356 . S
C2185 C2179 1.363 . S
C2185 C2180 1.379 . S
C2185 N2183 1.356 . S
N2186 C2178 1.356 . S
N2186 H2192 0.984 . S
N2186 H2193 0.984 . S
N2187 C2180 1.356 . S
N2187 H2190 0.984 . S
N2187 H2191 0.985 . S
H2188 N2183 0.984 . S
H2189 N2183 0.985 . S
H2190 N2187 0.984 . S
H2191 N2187 0.985 . S
H2192 N2186 0.984 . S
H2193 N2186 0.984 . S
H2194 N2182 0.984 . S
H2195 N2182 0.985 . S
C2196 C2197 1.363 . S
C2196 C2202 1.379 . S
C2196 N2204 1.356 . S
C2197 C2196 1.363 . S
C2197 C2203 1.363 . S
C2198 C2199 1.363 . S
C2198 C2203 1.379 . S
C2198 N2205 1.356 . S
C2199 C2198 1.363 . S
C2199 C2202 1.363 . S
N2200 C2202 1.356 . S
N2200 H2212 0.984 . S
N2200 H2213 0.985 . S
N2201 C2203 1.356 . S
N2201 H2206 0.984 . S
N2201 H2207 0.985 . S
C2202 C2196 1.379 . S
C2202 C2199 1.363 . S
C2202 N2200 1.356 . S
C2203 C2197 1.363 . S
C2203 C2198 1.379 . S
C2203 N2201 1.356 . S
N2204 C2196 1.356 . S
N2204 H2210 0.984 . S
N2204 H2211 0.984 . S
N2205 C2198 1.356 . S
N2205 H2208 0.984 . S
N2205 H2209 0.985 . S
H2206 N2201 0.984 . S
H2207 N2201 0.985 . S
H2208 N2205 0.984 . S
H2209 N2205 0.985 . S
H2210 N2204 0.984 . S
H2211 N2204 0.984 . S
H2212 N2200 0.984 . S
H2213 N2200 0.985 . S
C2214 C2215 1.363 . S
C2214 C2220 1.379 . S
C2214 N2222 1.356 . S
C2215 C2214 1.363 . S
C2215 C2221 1.363 . S
C2216 C2217 1.363 . S
C2216 C2221 1.379 . S
C2216 N2223 1.356 . S
C2217 C2216 1.363 . S
C2217 C2220 1.363 . S
N2218 C2220 1.356 . S
N2218 H2230 0.984 . S
N2218 H2231 0.985 . S
N2219 C2221 1.356 . S
N2219 H2224 0.984 . S
N2219 H2225 0.985 . S
C2220 C2214 1.379 . S
C2220 C2217 1.363 . S
C2220 N2218 1.356 . S
C2221 C2215 1.363 . S
C2221 C2216 1.379 . S
C2221 N2219 1.356 . S
N2222 C2214 1.356 . S
N2222 H2228 0.984 . S
N2222 H2229 0.984 . S
N2223 C2216 1.356 . S
N2223 H2226 0.984 . S
N2223 H2227 0.985 . S
H2224 N2219 0.984 . S
H2225 N2219 0.985 . S
H2226 N2223 0.984 . S
H2227 N2223 0.985 . S
H2228 N2222 0.984 . S
H2229 N2222 0.984 . S
H2230 N2218 0.984 . S
H2231 N2218 0.985 . S
C2232 C2233 1.363 . S
C2232 C2238 1.379 . S
C2232 N2240 1.356 . S
C2233 C2232 1.363 . S
C2233 C2239 1.363 . S
C2234 C2235 1.363 . S
C2234 C2239 1.379 . S
C2234 N2241 1.356 . S
C2235 C2234 1.363 . S
C2235 C2238 1.363 . S
N2236 C2238 1.356 . S
N2236 H2248 0.984 . S
N2236 H2249 0.985 . S
N2237 C2239 1.356 . S
N2237 H2242 0.984 . S
N2237 H2243 0.985 . S
C2238 C2232 1.379 . S
C2238 C2235 1.363 . S
C2238 N2236 1.356 . S
C2239 C2233 1.363 . S
C2239 C2234 1.379 . S
C2239 N2237 1.356 . S
N2240 C2232 1.356 . S
N2240 H2246 0.984 . S
N2240 H2247 0.984 . S
N2241 C2234 1.356 . S
N2241 H2244 0.984 . S
N2241 H2245 0.985 . S
H2242 N2237 0.984 . S
H2243 N2237 0.985 . S
H2244 N2241 0.984 . S
H2245 N2241 0.985 . S
H2246 N2240 0.984 . S
H2247 N2240 0.984 . S
H2248 N2236 0.984 . S
H2249 N2236 0.985 . S
C2250 C2251 1.363 . S
C2250 C2256 1.379 . S
C2250 N2258 1.356 . S
C2251 C2250 1.363 . S
C2251 C2257 1.363 . S
C2252 C2253 1.363 . S
C2252 C2257 1.379 . S
C2252 N2259 1.356 . S
C2253 C2252 1.363 . S
C2253 C2256 1.363 . S
N2254 C2256 1.356 . S
N2254 H2266 0.984 . S
N2254 H2267 0.985 . S
N2255 C2257 1.356 . S
N2255 H2260 0.984 . S
N2255 H2261 0.985 . S
C2256 C2250 1.379 . S
C2256 C2253 1.363 . S
C2256 N2254 1.356 . S
C2257 C2251 1.363 . S
C2257 C2252 1.379 . S
C2257 N2255 1.356 . S
N2258 C2250 1.356 . S
N2258 H2264 0.984 . S
N2258 H2265 0.984 . S
N2259 C2252 1.356 . S
N2259 H2262 0.984 . S
N2259 H2263 0.985 . S
H2260 N2255 0.984 . S
H2261 N2255 0.985 . S
H2262 N2259 0.984 . S
H2263 N2259 0.985 . S
H2264 N2258 0.984 . S
H2265 N2258 0.984 . S
H2266 N2254 0.984 . S
H2267 N2254 0.985 . S
C2268 C2269 1.363 . S
C2268 C2274 1.379 . S
C2268 N2276 1.356 . S
C2269 C2268 1.363 . S
C2269 C2275 1.363 . S
C2270 C2271 1.363 . S
C2270 C2275 1.379 . S
C2270 N2277 1.356 . S
C2271 C2270 1.363 . S
C2271 C2274 1.363 . S
N2272 C2274 1.356 . S
N2272 H2284 0.984 . S
N2272 H2285 0.985 . S
N2273 C2275 1.356 . S
N2273 H2278 0.984 . S
N2273 H2279 0.985 . S
C2274 C2268 1.379 . S
C2274 C2271 1.363 . S
C2274 N2272 1.356 . S
C2275 C2269 1.363 . S
C2275 C2270 1.379 . S
C2275 N2273 1.356 . S
N2276 C2268 1.356 . S
N2276 H2282 0.984 . S
N2276 H2283 0.984 . S
N2277 C2270 1.356 . S
N2277 H2280 0.984 . S
N2277 H2281 0.985 . S
H2278 N2273 0.984 . S
H2279 N2273 0.985 . S
H2280 N2277 0.984 . S
H2281 N2277 0.985 . S
H2282 N2276 0.984 . S
H2283 N2276 0.984 . S
H2284 N2272 0.984 . S
H2285 N2272 0.985 . S
C2286 C2287 1.363 . S
C2286 C2292 1.379 . S
C2286 N2294 1.356 . S
C2287 C2286 1.363 . S
C2287 C2293 1.363 . S
C2288 C2289 1.363 . S
C2288 C2293 1.379 . S
C2288 N2295 1.356 . S
C2289 C2288 1.363 . S
C2289 C2292 1.363 . S
N2290 C2292 1.356 . S
N2290 H2302 0.984 . S
N2290 H2303 0.985 . S
N2291 C2293 1.356 . S
N2291 H2296 0.984 . S
N2291 H2297 0.985 . S
C2292 C2286 1.379 . S
C2292 C2289 1.363 . S
C2292 N2290 1.356 . S
C2293 C2287 1.363 . S
C2293 C2288 1.379 . S
C2293 N2291 1.356 . S
N2294 C2286 1.356 . S
N2294 H2300 0.984 . S
N2294 H2301 0.984 . S
N2295 C2288 1.356 . S
N2295 H2298 0.984 . S
N2295 H2299 0.985 . S
H2296 N2291 0.984 . S
H2297 N2291 0.985 . S
H2298 N2295 0.984 . S
H2299 N2295 0.985 . S
H2300 N2294 0.984 . S
H2301 N2294 0.984 . S
H2302 N2290 0.984 . S
H2303 N2290 0.985 . S
C2304 C2305 1.363 . S
C2304 C2310 1.379 . S
C2304 N2312 1.356 . S
C2305 C2304 1.363 . S
C2305 C2311 1.363 . S
C2306 C2307 1.363 . S
C2306 C2311 1.379 . S
C2306 N2313 1.356 . S
C2307 C2306 1.363 . S
C2307 C2310 1.363 . S
N2308 C2310 1.356 . S
N2308 H2320 0.984 . S
N2308 H2321 0.985 . S
N2309 C2311 1.356 . S
N2309 H2314 0.984 . S
N2309 H2315 0.985 . S
C2310 C2304 1.379 . S
C2310 C2307 1.363 . S
C2310 N2308 1.356 . S
C2311 C2305 1.363 . S
C2311 C2306 1.379 . S
C2311 N2309 1.356 . S
N2312 C2304 1.356 . S
N2312 H2318 0.984 . S
N2312 H2319 0.984 . S
N2313 C2306 1.356 . S
N2313 H2316 0.984 . S
N2313 H2317 0.985 . S
H2314 N2309 0.984 . S
H2315 N2309 0.985 . S
H2316 N2313 0.984 . S
H2317 N2313 0.985 . S
H2318 N2312 0.984 . S
H2319 N2312 0.984 . S
H2320 N2308 0.984 . S
H2321 N2308 0.985 . S
C2322 C2323 1.363 . S
C2322 C2328 1.379 . S
C2322 N2330 1.356 . S
C2323 C2322 1.363 . S
C2323 C2329 1.363 . S
C2324 C2325 1.363 . S
C2324 C2329 1.379 . S
C2324 N2331 1.356 . S
C2325 C2324 1.363 . S
C2325 C2328 1.363 . S
N2326 C2328 1.356 . S
N2326 H2338 0.984 . S
N2326 H2339 0.985 . S
N2327 C2329 1.356 . S
N2327 H2332 0.984 . S
N2327 H2333 0.985 . S
C2328 C2322 1.379 . S
C2328 C2325 1.363 . S
C2328 N2326 1.356 . S
C2329 C2323 1.363 . S
C2329 C2324 1.379 . S
C2329 N2327 1.356 . S
N2330 C2322 1.356 . S
N2330 H2336 0.984 . S
N2330 H2337 0.984 . S
N2331 C2324 1.356 . S
N2331 H2334 0.984 . S
N2331 H2335 0.985 . S
H2332 N2327 0.984 . S
H2333 N2327 0.985 . S
H2334 N2331 0.984 . S
H2335 N2331 0.985 . S
H2336 N2330 0.984 . S
H2337 N2330 0.984 . S
H2338 N2326 0.984 . S
H2339 N2326 0.985 . S
C2340 C2341 1.363 . S
C2340 C2346 1.379 . S
C2340 N2348 1.356 . S
C2341 C2340 1.363 . S
C2341 C2347 1.363 . S
C2342 C2343 1.363 . S
C2342 C2347 1.379 . S
C2342 N2349 1.356 . S
C2343 C2342 1.363 . S
C2343 C2346 1.363 . S
N2344 C2346 1.356 . S
N2344 H2356 0.984 . S
N2344 H2357 0.985 . S
N2345 C2347 1.356 . S
N2345 H2350 0.984 . S
N2345 H2351 0.985 . S
C2346 C2340 1.379 . S
C2346 C2343 1.363 . S
C2346 N2344 1.356 . S
C2347 C2341 1.363 . S
C2347 C2342 1.379 . S
C2347 N2345 1.356 . S
N2348 C2340 1.356 . S
N2348 H2354 0.984 . S
N2348 H2355 0.984 . S
N2349 C2342 1.356 . S
N2349 H2352 0.984 . S
N2349 H2353 0.985 . S
H2350 N2345 0.984 . S
H2351 N2345 0.985 . S
H2352 N2349 0.984 . S
H2353 N2349 0.985 . S
H2354 N2348 0.984 . S
H2355 N2348 0.984 . S
H2356 N2344 0.984 . S
H2357 N2344 0.985 . S
C2358 C2359 1.363 . S
C2358 C2364 1.379 . S
C2358 N2366 1.356 . S
C2359 C2358 1.363 . S
C2359 C2365 1.363 . S
C2360 C2361 1.363 . S
C2360 C2365 1.379 . S
C2360 N2367 1.356 . S
C2361 C2360 1.363 . S
C2361 C2364 1.363 . S
N2362 C2364 1.356 . S
N2362 H2374 0.984 . S
N2362 H2375 0.985 . S
N2363 C2365 1.356 . S
N2363 H2368 0.984 . S
N2363 H2369 0.985 . S
C2364 C2358 1.379 . S
C2364 C2361 1.363 . S
C2364 N2362 1.356 . S
C2365 C2359 1.363 . S
C2365 C2360 1.379 . S
C2365 N2363 1.356 . S
N2366 C2358 1.356 . S
N2366 H2372 0.984 . S
N2366 H2373 0.984 . S
N2367 C2360 1.356 . S
N2367 H2370 0.984 . S
N2367 H2371 0.985 . S
H2368 N2363 0.984 . S
H2369 N2363 0.985 . S
H2370 N2367 0.984 . S
H2371 N2367 0.985 . S
H2372 N2366 0.984 . S
H2373 N2366 0.984 . S
H2374 N2362 0.984 . S
H2375 N2362 0.985 . S
C1405 C469 1.487 . S
C1407 C715 1.403 . S
C1423 C505 1.497 . S
C1425 C799 1.421 . S
C1441 C433 1.526 . S
C1443 C879 1.457 . S
C1459 C397 1.477 . S
C1461 C795 1.417 . S
C1479 C883 1.360 . S
C1477 C325 1.442 . S
C1495 C361 1.474 . S
C1497 C711 1.406 . S
C1515 C704 1.404 . S
C1513 C421 1.488 . S
C1533 C788 1.422 . S
C1531 C349 1.495 . S
C1549 C385 1.525 . S
C1551 C890 1.458 . S
C1567 C493 1.476 . S
C1569 C806 1.418 . S
C1585 C529 1.443 . S
C1587 C872 1.362 . S
C1605 C722 1.407 . S
C1603 C457 1.475 . S
C1623 C967 1.403 . S
C1621 C37 1.487 1_455 S
C1639 C73 1.496 . S
C1641 C1051 1.421 . S
C1657 C1 1.525 1_565 S
C1659 C1131 1.457 . S
C1675 C613 1.477 . S
C1677 C1047 1.417 . S
C1693 C541 1.442 . S
C1695 C1135 1.360 . S
C1711 C577 1.474 . S
C1713 C963 1.406 . S
C1729 C637 1.488 . S
C1731 C956 1.404 . S
C1747 C565 1.496 . S
C1749 C1040 1.422 . S
C1767 C1142 1.458 . S
C1765 C601 1.524 . S
C1783 C61 1.476 1_565 S
C1785 C1058 1.418 . S
C1803 C1124 1.361 . S
C1801 C97 1.443 1_455 S
C1819 C25 1.475 . S
C1821 C974 1.407 . S
C1839 C1219 1.403 . S
C1837 C253 1.488 . S
C1855 C289 1.497 . S
C1857 C1303 1.421 . S
C1875 C1383 1.457 . S
C1873 C217 1.525 . S
C1893 C1299 1.417 . S
C1891 C181 1.476 1_545 S
C1911 C1387 1.360 . S
C1909 C109 1.442 1_655 S
C1927 C145 1.474 . S
C1929 C1215 1.406 . S
C1945 C205 1.488 1_655 S
C1947 C1208 1.404 . S
C1963 C133 1.495 . S
C1965 C1292 1.422 . S
C1983 C1394 1.458 . S
C1981 C169 1.525 1_545 S
C1999 C277 1.476 . S
C2001 C1310 1.418 . S
C2017 C313 1.443 . S
C2019 C1376 1.361 . S
C2035 C241 1.475 . S
C2037 C1226 1.407 . S
C2053 C571 1.474 . S
C2055 C718 1.376 . S
C2073 C802 1.367 . S
C2071 C607 1.519 . S
C2089 C643 1.491 . S
C2091 C874 1.362 . S
C2107 C247 1.520 . S
C2109 C790 1.367 . S
C2125 C283 1.492 . S
C2127 C886 1.362 . S
C2145 C706 1.375 . S
C2143 C319 1.474 . S
C2161 C139 1.474 . S
C2163 C970 1.376 . S
C2179 C175 1.519 . S
C2181 C1054 1.367 . S
C2197 C211 1.491 . S
C2199 C1126 1.362 . S
C2215 C463 1.520 . S
C2217 C1042 1.367 . S
C2235 C1138 1.362 . S
C2233 C499 1.492 . S
C2251 C535 1.474 . S
C2253 C958 1.375 . S
C2269 C355 1.474 . S
C2271 C1222 1.376 . S
C2287 C391 1.519 . S
C2289 C1306 1.367 . S
C2307 C1378 1.362 . S
C2305 C427 1.491 . S
C2323 C31 1.520 . S
C2325 C1294 1.367 . S
C2341 C67 1.492 . S
C2343 C1390 1.362 . S
C2359 C103 1.474 . S
C2361 C1210 1.375 . S
