# Generated by pormake.
# Topology pto, (3,4)-cn, num edge types: 1
# Building blocks:
#     Node 0, Type 0, BuildingBlock: WUSLED_clean_sbu_0, # of connection points: 3
#     Node 1, Type 0, BuildingBlock: WUSLED_clean_sbu_0, # of connection points: 3
#     Node 2, Type 0, BuildingBlock: WUSLED_clean_sbu_0, # of connection points: 3
#     Node 3, Type 0, BuildingBlock: WUSLED_clean_sbu_0, # of connection points: 3
#     Node 4, Type 0, BuildingBlock: WUSLED_clean_sbu_0, # of connection points: 3
#     Node 5, Type 0, BuildingBlock: WUSLED_clean_sbu_0, # of connection points: 3
#     Node 6, Type 0, BuildingBlock: WUSLED_clean_sbu_0, # of connection points: 3
#     Node 7, Type 0, BuildingBlock: WUSLED_clean_sbu_0, # of connection points: 3
#     Node 8, Type 1, BuildingBlock: MIFKUJ_clean_linker_1, # of connection points: 4
#     Node 9, Type 1, BuildingBlock: MIFKUJ_clean_linker_1, # of connection points: 4
#     Node 10, Type 1, BuildingBlock: MIFKUJ_clean_linker_1, # of connection points: 4
#     Node 11, Type 1, BuildingBlock: MIFKUJ_clean_linker_1, # of connection points: 4
#     Node 12, Type 1, BuildingBlock: MIFKUJ_clean_linker_1, # of connection points: 4
#     Node 13, Type 1, BuildingBlock: MIFKUJ_clean_linker_1, # of connection points: 4
#     Edge 14, Type (0, 1), BuildingBlock: TEMPAE_clean_linker_10, # of connection points: 2
#     Edge 15, Type (0, 1), BuildingBlock: TEMPAE_clean_linker_10, # of connection points: 2
#     Edge 16, Type (0, 1), BuildingBlock: TEMPAE_clean_linker_10, # of connection points: 2
#     Edge 17, Type (0, 1), BuildingBlock: TEMPAE_clean_linker_10, # of connection points: 2
#     Edge 18, Type (0, 1), BuildingBlock: TEMPAE_clean_linker_10, # of connection points: 2
#     Edge 19, Type (0, 1), BuildingBlock: TEMPAE_clean_linker_10, # of connection points: 2
#     Edge 20, Type (0, 1), BuildingBlock: TEMPAE_clean_linker_10, # of connection points: 2
#     Edge 21, Type (0, 1), BuildingBlock: TEMPAE_clean_linker_10, # of connection points: 2
#     Edge 22, Type (0, 1), BuildingBlock: TEMPAE_clean_linker_10, # of connection points: 2
#     Edge 23, Type (0, 1), BuildingBlock: TEMPAE_clean_linker_10, # of connection points: 2
#     Edge 24, Type (0, 1), BuildingBlock: TEMPAE_clean_linker_10, # of connection points: 2
#     Edge 25, Type (0, 1), BuildingBlock: TEMPAE_clean_linker_10, # of connection points: 2
#     Edge 26, Type (0, 1), BuildingBlock: TEMPAE_clean_linker_10, # of connection points: 2
#     Edge 27, Type (0, 1), BuildingBlock: TEMPAE_clean_linker_10, # of connection points: 2
#     Edge 28, Type (0, 1), BuildingBlock: TEMPAE_clean_linker_10, # of connection points: 2
#     Edge 29, Type (0, 1), BuildingBlock: TEMPAE_clean_linker_10, # of connection points: 2
#     Edge 30, Type (0, 1), BuildingBlock: TEMPAE_clean_linker_10, # of connection points: 2
#     Edge 31, Type (0, 1), BuildingBlock: TEMPAE_clean_linker_10, # of connection points: 2
#     Edge 32, Type (0, 1), BuildingBlock: TEMPAE_clean_linker_10, # of connection points: 2
#     Edge 33, Type (0, 1), BuildingBlock: TEMPAE_clean_linker_10, # of connection points: 2
#     Edge 34, Type (0, 1), BuildingBlock: TEMPAE_clean_linker_10, # of connection points: 2
#     Edge 35, Type (0, 1), BuildingBlock: TEMPAE_clean_linker_10, # of connection points: 2
#     Edge 36, Type (0, 1), BuildingBlock: TEMPAE_clean_linker_10, # of connection points: 2
#     Edge 37, Type (0, 1), BuildingBlock: TEMPAE_clean_linker_10, # of connection points: 2
# Relax obj value: 0.001
# Max RMSD: 0.013
# Mean RMSD: 0.005
data_MOF--net-pto--node1-WUSLED_clean_sbu_0--node2-MIFKUJ_clean_linker_1--edge1-TEMPAE_clean_linker_10
_symmetry_space_group_name_H-M    P1
_symmetry_Int_Tables_number       1
_symmetry_cell_setting            triclinic
loop_
_symmetry_equiv_pos_as_xyz
'x, y, z'
_cell_length_a     49.410215
_cell_length_b     73.18861
_cell_length_c     61.643292
_cell_angle_alpha  89.582613
_cell_angle_beta   90.578925
_cell_angle_gamma 90.519286
loop_
_atom_site_label
_atom_site_type_symbol
_atom_site_fract_x
_atom_site_fract_y
_atom_site_fract_z
_atom_type_partial_charge
C0 C 0.24229 0.23483 0.35429 0.0
C1 C 0.23478 0.2182 0.34451 0.0
C2 C 0.24332 0.20185 0.3784 0.0
C3 C 0.2352 0.2019 0.35648 0.0
C4 C 0.25099 0.21845 0.38811 0.0
C5 C 0.25034 0.23478 0.3762 0.0
U6 U 0.26451 0.26567 0.30717 0.0
O7 O 0.24115 0.2845 0.28652 0.0
O8 O 0.27455 0.29505 0.30672 0.0
C9 C 0.25405 0.29903 0.29383 0.0
C10 C 0.24156 0.25233 0.34213 0.0
C11 C 0.23683 0.31406 0.301 0.0
C12 C 0.19836 0.3253 0.32105 0.0
C13 C 0.215 0.31087 0.31497 0.0
C14 C 0.22562 0.34627 0.29967 0.0
C15 C 0.20344 0.34316 0.3134 0.0
C16 C 0.24212 0.33183 0.29352 0.0
C17 C 0.31458 0.24781 0.26583 0.0
C18 C 0.32607 0.26475 0.2331 0.0
C19 C 0.35002 0.23696 0.24233 0.0
C20 C 0.33442 0.23497 0.261 0.0
C21 C 0.346 0.25185 0.22813 0.0
C22 C 0.31053 0.26277 0.25184 0.0
C23 C 0.2983 0.24542 0.28548 0.0
O24 O 0.26399 0.26213 0.34268 0.0
O25 O 0.22997 0.25203 0.32282 0.0
O26 O 0.27195 0.24493 0.28236 0.0
O27 O 0.30574 0.25553 0.30207 0.0
H28 H 0.22857 0.21774 0.32762 0.0
H29 H 0.22944 0.18928 0.34852 0.0
H30 H 0.25708 0.21885 0.40503 0.0
H31 H 0.25608 0.24741 0.38414 0.0
H32 H 0.18161 0.32252 0.33181 0.0
H33 H 0.21073 0.29722 0.32102 0.0
H34 H 0.22987 0.35981 0.29329 0.0
H35 H 0.25889 0.33452 0.28272 0.0
H36 H 0.32269 0.27646 0.22261 0.0
H37 H 0.36496 0.22668 0.23883 0.0
H38 H 0.33777 0.22333 0.27164 0.0
H39 H 0.29536 0.27288 0.25542 0.0
C40 C 0.23744 0.79814 0.67082 0.0
C41 C 0.25112 0.81338 0.6794 0.0
C42 C 0.23936 0.83128 0.64724 0.0
C43 C 0.25202 0.82983 0.66773 0.0
C44 C 0.22572 0.81591 0.63874 0.0
C45 C 0.22477 0.79949 0.65046 0.0
U46 U 0.26036 0.76804 0.71799 0.0
O47 O 0.23734 0.74909 0.73872 0.0
O48 O 0.27034 0.73877 0.71877 0.0
C49 C 0.25005 0.73466 0.73159 0.0
C50 C 0.23652 0.78074 0.68283 0.0
C51 C 0.2326 0.71943 0.72444 0.0
C52 C 0.1937 0.70777 0.70426 0.0
C53 C 0.21059 0.72236 0.7103 0.0
C54 C 0.22104 0.68715 0.72604 0.0
C55 C 0.19869 0.69001 0.71214 0.0
C56 C 0.23781 0.70175 0.73214 0.0
C57 C 0.31128 0.78673 0.75948 0.0
C58 C 0.33915 0.76843 0.78387 0.0
C59 C 0.33136 0.80032 0.79175 0.0
C60 C 0.31547 0.80185 0.77295 0.0
C61 C 0.34356 0.78361 0.7974 0.0
C62 C 0.32307 0.76995 0.76515 0.0
C63 C 0.29452 0.78876 0.73973 0.0
O64 O 0.25894 0.77123 0.68248 0.0
O65 O 0.22564 0.78142 0.70218 0.0
O66 O 0.26825 0.78896 0.74283 0.0
O67 O 0.30155 0.77886 0.72302 0.0
H68 H 0.26116 0.81251 0.69508 0.0
H69 H 0.26294 0.84135 0.6746 0.0
H70 H 0.21551 0.81664 0.62314 0.0
H71 H 0.21412 0.78784 0.64362 0.0
H72 H 0.17681 0.71036 0.69337 0.0
H73 H 0.20638 0.73594 0.70408 0.0
H74 H 0.22524 0.67369 0.73258 0.0
H75 H 0.25471 0.69926 0.74308 0.0
H76 H 0.34842 0.75541 0.78758 0.0
H77 H 0.33386 0.8122 0.80197 0.0
H78 H 0.30637 0.81488 0.76894 0.0
H79 H 0.31997 0.75804 0.75505 0.0
C80 C 0.7273 0.78769 0.2669 0.0
C81 C 0.73123 0.77274 0.2532 0.0
C82 C 0.69482 0.78323 0.22939 0.0
C83 C 0.71517 0.77055 0.23457 0.0
C84 C 0.69088 0.79812 0.24331 0.0
C85 C 0.70702 0.80032 0.26189 0.0
U86 U 0.77996 0.77 0.30696 0.0
O87 O 0.81486 0.78381 0.32222 0.0
O88 O 0.78253 0.77238 0.3425 0.0
C89 C 0.80477 0.78235 0.34181 0.0
C90 C 0.74423 0.79022 0.2864 0.0
C91 C 0.80423 0.79937 0.35425 0.0
C92 C 0.79015 0.83087 0.35833 0.0
C93 C 0.79019 0.81467 0.34641 0.0
C94 C 0.81798 0.81654 0.38611 0.0
C95 C 0.80412 0.83201 0.37831 0.0
C96 C 0.81804 0.80038 0.37416 0.0
C97 C 0.80893 0.72239 0.29876 0.0
C98 C 0.84182 0.709 0.32361 0.0
C99 C 0.82781 0.69265 0.29128 0.0
C100 C 0.81061 0.70697 0.28556 0.0
C101 C 0.84368 0.6935 0.31034 0.0
C102 C 0.82461 0.72336 0.31783 0.0
C103 C 0.79086 0.73733 0.29232 0.0
O104 O 0.7381 0.77959 0.30294 0.0
O105 O 0.7704 0.79139 0.28293 0.0
O106 O 0.80298 0.75228 0.28534 0.0
O107 O 0.77092 0.74056 0.30567 0.0
H108 H 0.74674 0.76278 0.25693 0.0
H109 H 0.71849 0.75883 0.22433 0.0
H110 H 0.6756 0.80823 0.23964 0.0
H111 H 0.70375 0.81195 0.2723 0.0
H112 H 0.77953 0.84257 0.35175 0.0
H113 H 0.77941 0.8141 0.33103 0.0
H114 H 0.82859 0.81686 0.40157 0.0
H115 H 0.82888 0.78866 0.38048 0.0
H116 H 0.85394 0.71013 0.33828 0.0
H117 H 0.82845 0.68079 0.28089 0.0
H118 H 0.79857 0.706 0.27081 0.0
H119 H 0.82357 0.73524 0.32817 0.0
C120 C 0.76348 0.21304 0.69822 0.0
C121 C 0.78422 0.21497 0.68296 0.0
C122 C 0.77301 0.18503 0.66812 0.0
C123 C 0.78896 0.20107 0.66804 0.0
C124 C 0.7521 0.18331 0.68337 0.0
C125 C 0.74742 0.19719 0.69828 0.0
U126 U 0.77658 0.26077 0.72034 0.0
O127 O 0.7486 0.28073 0.73397 0.0
O128 O 0.78183 0.26995 0.75407 0.0
C129 C 0.75966 0.27974 0.75343 0.0
C130 C 0.75853 0.22736 0.71422 0.0
C131 C 0.74088 0.27664 0.77149 0.0
C132 C 0.70115 0.26186 0.78692 0.0
C133 C 0.7189 0.26443 0.76959 0.0
C134 C 0.72747 0.28337 0.80835 0.0
C135 C 0.70525 0.27131 0.80649 0.0
C136 C 0.74507 0.28602 0.79098 0.0
C137 C 0.82599 0.29284 0.69187 0.0
C138 C 0.83629 0.32298 0.70614 0.0
C139 C 0.85675 0.31314 0.67266 0.0
C140 C 0.84308 0.29639 0.67432 0.0
C141 C 0.85356 0.32663 0.68857 0.0
C142 C 0.8226 0.30622 0.70776 0.0
C143 C 0.81182 0.27517 0.69345 0.0
O144 O 0.77914 0.23131 0.72705 0.0
O145 O 0.74602 0.24191 0.70673 0.0
O146 O 0.78553 0.27573 0.69013 0.0
O147 O 0.81874 0.26495 0.71019 0.0
H148 H 0.79682 0.22716 0.68271 0.0
H149 H 0.80538 0.20276 0.65667 0.0
H150 H 0.73915 0.17129 0.68365 0.0
H151 H 0.73125 0.19553 0.7099 0.0
H152 H 0.68438 0.25234 0.7851 0.0
H153 H 0.71546 0.25691 0.75473 0.0
H154 H 0.731 0.29098 0.82313 0.0
H155 H 0.76194 0.29548 0.79274 0.0
H156 H 0.83314 0.33315 0.71851 0.0
H157 H 0.87013 0.31544 0.65908 0.0
H158 H 0.84593 0.28617 0.66194 0.0
H159 H 0.80936 0.3037 0.72138 0.0
C160 C 0.80089 0.71766 0.72721 0.0
C161 C 0.81848 0.71991 0.70964 0.0
C162 C 0.83408 0.68862 0.71435 0.0
C163 C 0.83499 0.7055 0.70327 0.0
C164 C 0.81632 0.6865 0.73191 0.0
C165 C 0.79988 0.70091 0.73827 0.0
U166 U 0.77398 0.76604 0.72053 0.0
O167 O 0.73265 0.77641 0.7245 0.0
O168 O 0.76574 0.78687 0.74504 0.0
C169 C 0.73951 0.78646 0.74129 0.0
C170 C 0.78355 0.73266 0.73422 0.0
C171 C 0.72258 0.78399 0.76058 0.0
C172 C 0.71006 0.76685 0.79292 0.0
C173 C 0.72595 0.76883 0.77438 0.0
C174 C 0.68702 0.79503 0.78386 0.0
C175 C 0.69045 0.77997 0.79791 0.0
C176 C 0.70299 0.79702 0.76538 0.0
C177 C 0.79915 0.7963 0.67414 0.0
C178 C 0.77906 0.82562 0.66524 0.0
C179 C 0.82058 0.81651 0.64791 0.0
C180 C 0.8201 0.80007 0.65959 0.0
C181 C 0.80004 0.82946 0.65057 0.0
C182 C 0.77868 0.8092 0.67699 0.0
C183 C 0.79904 0.77894 0.68627 0.0
O184 O 0.79641 0.74711 0.74178 0.0
O185 O 0.76353 0.73676 0.72092 0.0
O186 O 0.77642 0.76939 0.68514 0.0
O187 O 0.80935 0.7797 0.70598 0.0
H188 H 0.81942 0.73279 0.70089 0.0
H189 H 0.84826 0.70751 0.68957 0.0
H190 H 0.81542 0.67379 0.74099 0.0
H191 H 0.78645 0.69898 0.7519 0.0
H192 H 0.71297 0.755 0.80327 0.0
H193 H 0.74094 0.75858 0.77083 0.0
H194 H 0.67233 0.80547 0.78737 0.0
H195 H 0.70016 0.80882 0.7549 0.0
H196 H 0.76313 0.83542 0.66782 0.0
H197 H 0.83684 0.81898 0.63658 0.0
H198 H 0.83607 0.79025 0.65721 0.0
H199 H 0.76243 0.80655 0.6883 0.0
C200 C 0.72214 0.24398 0.26836 0.0
C201 C 0.72986 0.25617 0.25181 0.0
C202 C 0.68959 0.24797 0.23072 0.0
C203 C 0.7138 0.25809 0.23313 0.0
C204 C 0.68181 0.23598 0.24754 0.0
C205 C 0.69797 0.23398 0.26615 0.0
U206 U 0.77444 0.26195 0.30888 0.0
O207 O 0.7766 0.25899 0.34442 0.0
O208 O 0.80925 0.24842 0.32431 0.0
C209 C 0.79893 0.24939 0.34384 0.0
C210 C 0.73899 0.24158 0.28798 0.0
C211 C 0.79841 0.23216 0.35619 0.0
C212 C 0.78528 0.20021 0.35975 0.0
C213 C 0.7852 0.21661 0.34793 0.0
C214 C 0.8115 0.21484 0.38828 0.0
C215 C 0.79851 0.19911 0.38005 0.0
C216 C 0.81145 0.23119 0.37643 0.0
C217 C 0.80319 0.31015 0.30122 0.0
C218 C 0.8381 0.32282 0.3249 0.0
C219 C 0.81935 0.34121 0.29565 0.0
C220 C 0.80241 0.32668 0.28968 0.0
C221 C 0.83741 0.33947 0.31333 0.0
C222 C 0.82108 0.30828 0.31891 0.0
C223 C 0.7853 0.29504 0.29455 0.0
O224 O 0.76523 0.24076 0.28477 0.0
O225 O 0.73259 0.25188 0.3045 0.0
O226 O 0.76524 0.29129 0.30774 0.0
O227 O 0.79758 0.28039 0.28755 0.0
H228 H 0.74841 0.2641 0.25327 0.0
H229 H 0.72061 0.26728 0.22043 0.0
H230 H 0.66309 0.22821 0.24643 0.0
H231 H 0.69159 0.22462 0.27884 0.0
H232 H 0.77534 0.18833 0.35283 0.0
H233 H 0.77501 0.21714 0.33229 0.0
H234 H 0.82151 0.21456 0.40399 0.0
H235 H 0.82164 0.24311 0.38308 0.0
H236 H 0.8516 0.32111 0.33871 0.0
H237 H 0.8186 0.35373 0.2862 0.0
H238 H 0.78876 0.32832 0.27594 0.0
H239 H 0.82186 0.29558 0.32804 0.0
C240 C 0.23822 0.23383 0.66954 0.0
C241 C 0.25207 0.21871 0.67806 0.0
C242 C 0.23885 0.20066 0.64653 0.0
C243 C 0.25236 0.20225 0.66666 0.0
C244 C 0.22512 0.21594 0.63807 0.0
C245 C 0.22481 0.23237 0.6495 0.0
U246 U 0.26188 0.26409 0.71616 0.0
O247 O 0.27176 0.29348 0.7165 0.0
O248 O 0.23899 0.28266 0.7368 0.0
C249 C 0.25162 0.29728 0.72943 0.0
C250 C 0.23764 0.25118 0.68134 0.0
C251 C 0.23414 0.31234 0.72223 0.0
C252 C 0.19585 0.32381 0.70134 0.0
C253 C 0.21266 0.30936 0.70757 0.0
C254 C 0.22218 0.34437 0.72404 0.0
C255 C 0.20039 0.34148 0.70957 0.0
C256 C 0.23887 0.32992 0.73032 0.0
C257 C 0.31317 0.24633 0.75752 0.0
C258 C 0.32512 0.26346 0.7899 0.0
C259 C 0.34896 0.23562 0.78156 0.0
C260 C 0.3331 0.23352 0.76282 0.0
C261 C 0.3451 0.25059 0.79536 0.0
C262 C 0.30933 0.26137 0.77109 0.0
C263 C 0.2965 0.24382 0.73787 0.0
O264 O 0.227 0.25032 0.70079 0.0
O265 O 0.26011 0.26091 0.6807 0.0
O266 O 0.30335 0.25404 0.72116 0.0
O267 O 0.27024 0.24315 0.74101 0.0
H268 H 0.26254 0.21963 0.69354 0.0
H269 H 0.26287 0.1907 0.67375 0.0
H270 H 0.21487 0.21529 0.62248 0.0
H271 H 0.21414 0.24396 0.64265 0.0
H272 H 0.1794 0.3212 0.69001 0.0
H273 H 0.20883 0.29586 0.70105 0.0
H274 H 0.22601 0.35775 0.73088 0.0
H275 H 0.25536 0.33244 0.74166 0.0
H276 H 0.32187 0.27524 0.80006 0.0
H277 H 0.36395 0.22537 0.78544 0.0
H278 H 0.3363 0.22182 0.75251 0.0
H279 H 0.2941 0.27146 0.76715 0.0
C280 C 0.2109 0.73692 0.33345 0.0
C281 C 0.22041 0.72179 0.32205 0.0
C282 C 0.18271 0.70327 0.33525 0.0
C283 C 0.20648 0.70507 0.32301 0.0
C284 C 0.17326 0.71853 0.34658 0.0
C285 C 0.18727 0.7352 0.34569 0.0
U286 U 0.26127 0.76947 0.30668 0.0
O287 O 0.25869 0.79901 0.30038 0.0
O288 O 0.29127 0.78826 0.32116 0.0
C289 C 0.27907 0.80286 0.31348 0.0
C290 C 0.22513 0.75463 0.33245 0.0
C291 C 0.27422 0.81732 0.32934 0.0
C292 C 0.24905 0.82975 0.35944 0.0
C293 C 0.25333 0.81576 0.34451 0.0
C294 C 0.28665 0.84686 0.34423 0.0
C295 C 0.26563 0.8455 0.35942 0.0
C296 C 0.29085 0.8329 0.32933 0.0
C297 C 0.29924 0.7545 0.25614 0.0
C298 C 0.31746 0.77385 0.22743 0.0
C299 C 0.33578 0.74365 0.23361 0.0
C300 C 0.31763 0.74085 0.2506 0.0
C301 C 0.33573 0.76011 0.22172 0.0
C302 C 0.29948 0.77112 0.24456 0.0
C303 C 0.27985 0.75101 0.27378 0.0
O304 O 0.25132 0.75417 0.33642 0.0
O305 O 0.21873 0.76503 0.31573 0.0
O306 O 0.25725 0.76035 0.27293 0.0
O307 O 0.29036 0.74991 0.29342 0.0
H308 H 0.23852 0.72292 0.31235 0.0
H309 H 0.21408 0.69363 0.31391 0.0
H310 H 0.15517 0.71752 0.35631 0.0
H311 H 0.17964 0.74676 0.35456 0.0
H312 H 0.23256 0.82834 0.37079 0.0
H313 H 0.24031 0.80376 0.34474 0.0
H314 H 0.30008 0.85863 0.344 0.0
H315 H 0.30718 0.83426 0.31781 0.0
H316 H 0.31717 0.78675 0.2187 0.0
H317 H 0.34947 0.73276 0.22947 0.0
H318 H 0.31779 0.72795 0.25933 0.0
H319 H 0.28568 0.78195 0.24864 0.0
H320 H 0.96753 0.49015 0.31158 0.0
H321 H 0.9411 0.46194 0.30873 0.0
H322 H 0.98069 0.44103 0.36648 0.0
H323 H 1.00654 0.46964 0.36964 0.0
H324 H 0.96883 0.51559 0.34137 0.0
H325 H 0.03166 0.47427 0.31132 0.0
H326 H 0.05876 0.44674 0.30815 0.0
H327 H 0.10078 0.46028 0.36781 0.0
H328 H 0.07269 0.48745 0.37137 0.0
H329 H 0.07146 0.54515 0.37283 0.0
H330 H 0.09781 0.57358 0.37132 0.0
H331 H 0.05587 0.5888 0.31211 0.0
H332 H 0.03056 0.56003 0.31321 0.0
H333 H 0.06912 0.51688 0.34526 0.0
H334 H 1.00517 0.56159 0.37117 0.0
H335 H 0.97833 0.58956 0.36896 0.0
H336 H 0.9398 0.5698 0.31032 0.0
H337 H 0.96664 0.54202 0.31255 0.0
C338 C 0.98914 0.482 0.34074 0.0
C339 C 0.97045 0.47954 0.32369 0.0
C340 C 0.95555 0.46332 0.32197 0.0
C341 C 0.95894 0.44917 0.33729 0.0
C342 C 0.97751 0.4517 0.35449 0.0
C343 C 0.99245 0.46798 0.35621 0.0
C344 C 1.00492 0.49933 0.34225 0.0
C345 C 0.99078 0.51588 0.34208 0.0
C346 C 0.03355 0.49969 0.3435 0.0
C347 C 0.04985 0.48281 0.34175 0.0
C348 C 0.0464 0.47117 0.32391 0.0
C349 C 0.06215 0.45553 0.32198 0.0
C350 C 0.082 0.45129 0.33771 0.0
C351 C 0.08544 0.46299 0.35557 0.0
C352 C 0.06956 0.47861 0.35753 0.0
C353 C 0.04876 0.55055 0.3433 0.0
C354 C 0.06804 0.5546 0.35949 0.0
C355 C 0.08292 0.57093 0.35869 0.0
C356 C 0.07889 0.58354 0.34164 0.0
C357 C 0.05971 0.57935 0.32536 0.0
C358 C 0.04496 0.56298 0.3261 0.0
C359 C 0.03302 0.53316 0.34415 0.0
C360 C 0.04717 0.51659 0.34485 0.0
C361 C 1.00438 0.53279 0.34288 0.0
C362 C 0.98804 0.54973 0.34196 0.0
C363 C 0.99104 0.56334 0.35779 0.0
C364 C 0.97571 0.57931 0.3565 0.0
C365 C 0.95689 0.58186 0.3395 0.0
C366 C 0.95382 0.56814 0.3238 0.0
C367 C 0.9692 0.55226 0.32503 0.0
H368 H 0.0672 0.5446 0.65271 0.0
H369 H 0.09487 0.57227 0.65675 0.0
H370 H 0.05307 0.58477 0.71602 0.0
H371 H 0.02638 0.55671 0.71237 0.0
H372 H 0.06474 0.51516 0.67903 0.0
H373 H 1.00058 0.5612 0.65418 0.0
H374 H 0.97442 0.58926 0.65807 0.0
H375 H 0.93592 0.56635 0.71486 0.0
H376 H 0.96265 0.53869 0.7113 0.0
H377 H 0.96193 0.48645 0.70804 0.0
H378 H 0.93655 0.45764 0.70837 0.0
H379 H 0.97816 0.44072 0.65068 0.0
H380 H 1.0035 0.46961 0.6504 0.0
H381 H 0.96441 0.5138 0.68059 0.0
H382 H 0.02638 0.47115 0.71001 0.0
H383 H 0.0536 0.44359 0.71302 0.0
H384 H 0.09729 0.4597 0.65547 0.0
H385 H 0.06912 0.48693 0.65204 0.0
C386 C 0.0445 0.54867 0.68209 0.0
C387 C 0.064 0.55333 0.66656 0.0
C388 C 0.07965 0.56923 0.6688 0.0
C389 C 0.07617 0.58078 0.68669 0.0
C390 C 0.05649 0.57611 0.70216 0.0
C391 C 0.04096 0.56016 0.69996 0.0
C392 C 0.02865 0.5314 0.68009 0.0
C393 C 0.04278 0.51487 0.6789 0.0
C394 C 1.00001 0.531 0.68084 0.0
C395 C 0.98376 0.5479 0.68257 0.0
C396 C 0.98662 0.56229 0.66754 0.0
C397 C 0.97151 0.57826 0.66968 0.0
C398 C 0.95321 0.58008 0.68686 0.0
C399 C 0.95016 0.56552 0.70167 0.0
C400 C 0.96524 0.54961 0.69953 0.0
C401 C 0.98478 0.48016 0.67929 0.0
C402 C 0.96546 0.47659 0.69536 0.0
C403 C 0.95093 0.46014 0.69552 0.0
C404 C 0.95537 0.44689 0.67957 0.0
C405 C 0.97455 0.45054 0.66336 0.0
C406 C 0.98902 0.46705 0.66317 0.0
C407 C 1.0005 0.49756 0.67954 0.0
C408 C 0.98637 0.51409 0.68037 0.0
C409 C 0.02915 0.49795 0.67909 0.0
C410 C 0.04543 0.48101 0.68062 0.0
C411 C 0.04151 0.46861 0.69783 0.0
C412 C 0.05733 0.45295 0.69967 0.0
C413 C 0.07769 0.44944 0.68451 0.0
C414 C 0.08156 0.46186 0.66727 0.0
C415 C 0.06563 0.47751 0.66538 0.0
H416 H 0.20485 0.98785 0.55295 0.0
H417 H 0.20476 0.95952 0.5742 0.0
H418 H 0.28031 0.94421 0.54496 0.0
H419 H 0.28081 0.97289 0.52442 0.0
H420 H 0.23924 0.01612 0.55297 0.0
H421 H 0.20932 0.97149 0.5005 0.0
H422 H 0.21162 0.94365 0.47888 0.0
H423 H 0.28607 0.96324 0.45034 0.0
H424 H 0.28418 0.99066 0.47258 0.0
H425 H 0.28343 0.04627 0.47426 0.0
H426 H 0.28378 0.07498 0.45375 0.0
H427 H 0.20535 0.0881 0.47962 0.0
H428 H 0.20551 0.05956 0.50046 0.0
H429 H 0.2482 0.01724 0.47289 0.0
H430 H 0.2795 0.06089 0.52463 0.0
H431 H 0.27873 0.08917 0.54544 0.0
H432 H 0.20347 0.07203 0.57466 0.0
H433 H 0.20428 0.04376 0.55369 0.0
C434 C 0.24267 0.98242 0.53691 0.0
C435 C 0.22145 0.97841 0.55119 0.0
C436 C 0.22131 0.96214 0.56319 0.0
C437 C 0.24247 0.94954 0.56121 0.0
C438 C 0.26383 0.95367 0.54702 0.0
C439 C 0.26399 0.96998 0.53507 0.0
C440 C 0.24268 0.99975 0.52421 0.0
C441 C 0.24079 0.01634 0.53542 0.0
C442 C 0.2455 1.00008 0.50136 0.0
C443 C 0.24674 0.98309 0.48835 0.0
C444 C 0.22631 0.96967 0.48979 0.0
C445 C 0.22751 0.95385 0.47726 0.0
C446 C 0.24908 0.95118 0.46292 0.0
C447 C 0.26942 0.9647 0.46147 0.0
C448 C 0.26824 0.98048 0.47403 0.0
C449 C 0.24456 0.05085 0.489 0.0
C450 C 0.26632 0.05534 0.47546 0.0
C451 C 0.26641 0.07173 0.46368 0.0
C452 C 0.24459 0.08389 0.46502 0.0
C453 C 0.2227 0.07924 0.47848 0.0
C454 C 0.22269 0.06289 0.49034 0.0
C455 C 0.24466 0.03351 0.50164 0.0
C456 C 0.24657 0.01697 0.49043 0.0
C457 C 0.24205 0.03322 0.52448 0.0
C458 C 0.24175 0.0503 0.53737 0.0
C459 C 0.26269 0.06329 0.53535 0.0
C460 C 0.26223 0.07945 0.54726 0.0
C461 C 0.24097 0.08288 0.56162 0.0
C462 C 0.22024 0.06972 0.56387 0.0
C463 C 0.22065 0.05358 0.55187 0.0
H464 H 0.47051 0.80156 0.98005 0.0
H465 H 0.44388 0.80269 0.94646 0.0
H466 H 0.47559 0.75018 0.92822 0.0
H467 H 0.50269 0.74942 0.96161 0.0
H468 H 0.46911 0.7763 0.01341 0.0
H469 H 0.53363 0.79952 0.96207 0.0
H470 H 0.5595 0.79985 0.92846 0.0
H471 H 0.59532 0.74823 0.94654 0.0
H472 H 0.56881 0.74775 0.9799 0.0
H473 H 0.57079 0.74813 0.04769 0.0
H474 H 0.59805 0.74912 0.08108 0.0
H475 H 0.55944 0.79953 0.09878 0.0
H476 H 0.53281 0.7987 0.06517 0.0
H477 H 0.56921 0.77142 0.01376 0.0
H478 H 0.5049 0.74746 0.06428 0.0
H479 H 0.47785 0.74584 0.09731 0.0
H480 H 0.44181 0.79774 0.08085 0.0
H481 H 0.46913 0.79937 0.04791 0.0
C482 C 0.4887 0.77547 0.97326 0.0
C483 C 0.4717 0.7903 0.96879 0.0
C484 C 0.45639 0.79087 0.94961 0.0
C485 C 0.45751 0.7765 0.9346 0.0
C486 C 0.47453 0.76161 0.93921 0.0
C487 C 0.48997 0.76112 0.95834 0.0
C488 C 0.50477 0.77492 0.9937 0.0
C489 C 0.49103 0.77548 0.0135 0.0
C490 C 0.5333 0.77328 0.99378 0.0
C491 C 0.54906 0.77352 0.9734 0.0
C492 C 0.54685 0.78819 0.9587 0.0
C493 C 0.56184 0.78844 0.93959 0.0
C494 C 0.57946 0.77406 0.93483 0.0
C495 C 0.58169 0.7594 0.94961 0.0
C496 C 0.56672 0.75918 0.96875 0.0
C497 C 0.54959 0.77325 0.05401 0.0
C498 C 0.56822 0.75938 0.05877 0.0
C499 C 0.58363 0.7599 0.07793 0.0
C500 C 0.58088 0.77439 0.09258 0.0
C501 C 0.56221 0.78827 0.08773 0.0
C502 C 0.54678 0.78772 0.06863 0.0
C503 C 0.53355 0.77291 0.0335 0.0
C504 C 0.54729 0.77219 0.01369 0.0
C505 C 0.505 0.77429 0.03339 0.0
C506 C 0.48914 0.77359 0.0537 0.0
C507 C 0.49136 0.75856 0.06789 0.0
C508 C 0.47576 0.75759 0.08666 0.0
C509 C 0.45771 0.77166 0.09164 0.0
C510 C 0.45573 0.78678 0.07753 0.0
C511 C 0.47118 0.78767 0.05866 0.0
H512 H 0.76603 0.98592 0.55635 0.0
H513 H 0.76583 0.95747 0.5774 0.0
H514 H 0.83995 0.94136 0.54661 0.0
H515 H 0.84022 0.96992 0.52572 0.0
H516 H 0.79976 0.01367 0.55536 0.0
H517 H 0.76759 0.97006 0.50387 0.0
H518 H 0.76769 0.94199 0.48262 0.0
H519 H 0.84233 0.95925 0.45249 0.0
H520 H 0.84218 0.98731 0.47388 0.0
H521 H 0.84118 0.04369 0.47507 0.0
H522 H 0.84018 0.07212 0.45396 0.0
H523 H 0.76379 0.0858 0.48292 0.0
H524 H 0.76486 0.05734 0.50394 0.0
H525 H 0.80723 0.01485 0.47519 0.0
H526 H 0.83644 0.06014 0.52762 0.0
H527 H 0.83277 0.08797 0.54916 0.0
H528 H 0.7593 0.0668 0.57777 0.0
H529 H 0.76254 0.0394 0.55566 0.0
C530 C 0.80299 0.98001 0.53928 0.0
C531 C 0.78231 0.9763 0.55419 0.0
C532 C 0.78224 0.96006 0.56624 0.0
C533 C 0.80285 0.94716 0.56363 0.0
C534 C 0.8236 0.95091 0.54875 0.0
C535 C 0.82376 0.96723 0.53681 0.0
C536 C 0.80293 0.99736 0.52658 0.0
C537 C 0.80108 0.01391 0.5378 0.0
C538 C 0.8051 0.9977 0.50369 0.0
C539 C 0.80506 0.98069 0.49068 0.0
C540 C 0.78412 0.96773 0.49285 0.0
C541 C 0.7842 0.95168 0.4807 0.0
C542 C 0.80507 0.94837 0.46593 0.0
C543 C 0.82584 0.96149 0.46358 0.0
C544 C 0.82581 0.9775 0.47582 0.0
C545 C 0.80328 0.04847 0.49129 0.0
C546 C 0.82419 0.0528 0.47683 0.0
C547 C 0.82356 0.06902 0.46474 0.0
C548 C 0.80194 0.08124 0.46681 0.0
C549 C 0.78093 0.07682 0.48121 0.0
C550 C 0.78152 0.06055 0.49323 0.0
C551 C 0.804 0.03116 0.50399 0.0
C552 C 0.80602 0.0146 0.49276 0.0
C553 C 0.80154 0.0308 0.52686 0.0
C554 C 0.79961 0.04775 0.53985 0.0
C555 C 0.81938 0.0616 0.53835 0.0
C556 C 0.8174 0.07743 0.55082 0.0
C557 C 0.79568 0.07965 0.56513 0.0
C558 C 0.77603 0.06568 0.56666 0.0
C559 C 0.77799 0.04992 0.55418 0.0
H560 H 0.46623 0.28491 0.97833 0.0
H561 H 0.43942 0.28385 0.94471 0.0
H562 H 0.47838 0.23347 0.92742 0.0
H563 H 0.50469 0.23441 0.96124 0.0
H564 H 0.46764 0.26121 0.01225 0.0
H565 H 0.52972 0.28453 0.95987 0.0
H566 H 0.55653 0.2854 0.92682 0.0
H567 H 0.59924 0.23718 0.94838 0.0
H568 H 0.5714 0.23586 0.98088 0.0
H569 H 0.57003 0.23417 0.04492 0.0
H570 H 0.59652 0.23311 0.07861 0.0
H571 H 0.55655 0.28171 0.10067 0.0
H572 H 0.53034 0.28288 0.06679 0.0
H573 H 0.5679 0.2584 0.01329 0.0
H574 H 0.50357 0.23371 0.06416 0.0
H575 H 0.47734 0.23301 0.09761 0.0
H576 H 0.43983 0.28399 0.07915 0.0
H577 H 0.46666 0.28485 0.04598 0.0
C578 C 0.48761 0.25982 0.97221 0.0
C579 C 0.46895 0.27363 0.96729 0.0
C580 C 0.45381 0.27308 0.94802 0.0
C581 C 0.45683 0.2586 0.93339 0.0
C582 C 0.47544 0.24473 0.93843 0.0
C583 C 0.49065 0.24533 0.95766 0.0
C584 C 0.50354 0.26036 0.99275 0.0
C585 C 0.48959 0.26085 0.01247 0.0
C586 C 0.53216 0.25951 0.99303 0.0
C587 C 0.54828 0.26 0.97278 0.0
C588 C 0.54454 0.27396 0.95732 0.0
C589 C 0.56014 0.27458 0.93853 0.0
C590 C 0.58009 0.26137 0.93491 0.0
C591 C 0.5838 0.24741 0.95045 0.0
C592 C 0.56807 0.24674 0.96917 0.0
C593 C 0.54796 0.25848 0.05337 0.0
C594 C 0.56704 0.24466 0.05695 0.0
C595 C 0.58221 0.24408 0.0762 0.0
C596 C 0.57858 0.25731 0.0923 0.0
C597 C 0.55953 0.27119 0.08869 0.0
C598 C 0.54452 0.27185 0.06934 0.0
C599 C 0.53201 0.25899 0.03279 0.0
C600 C 0.54596 0.25874 0.01305 0.0
C601 C 0.50339 0.26001 0.03248 0.0
C602 C 0.48728 0.25943 0.05268 0.0
C603 C 0.48985 0.2448 0.0674 0.0
C604 C 0.47468 0.24434 0.08642 0.0
C605 C 0.45653 0.25846 0.09105 0.0
C606 C 0.45388 0.27303 0.07619 0.0
C607 C 0.46903 0.27347 0.05716 0.0
C608 C 0.15715 0.3562 0.31828 0.0
C609 C 0.18536 0.35847 0.31918 0.0
C610 C 0.13983 0.37088 0.32234 0.0
C611 C 0.151 0.38821 0.3275 0.0
C612 C 0.17945 0.39045 0.32903 0.0
C613 C 0.19627 0.37557 0.3248 0.0
C614 C 0.10961 0.36796 0.32046 0.0
C615 C 0.19213 0.40868 0.33467 0.0
C616 C 0.10962 0.4305 0.31475 0.0
C617 C 0.09945 0.43498 0.33518 0.0
C618 C 0.12623 0.41526 0.31203 0.0
C619 C 0.13301 0.40423 0.33022 0.0
C620 C 0.12285 0.40865 0.35091 0.0
C621 C 0.10615 0.42395 0.35314 0.0
C622 C 0.13668 0.41102 0.2897 0.0
C623 C 0.12964 0.39722 0.37068 0.0
H624 H 0.14859 0.34307 0.31373 0.0
H625 H 0.21806 0.37733 0.32583 0.0
H626 H 0.09956 0.37246 0.3355 0.0
H627 H 0.10144 0.37639 0.30691 0.0
H628 H 0.10412 0.35344 0.31749 0.0
H629 H 0.21451 0.40792 0.33627 0.0
H630 H 0.18709 0.41889 0.32191 0.0
H631 H 0.18382 0.41374 0.35014 0.0
H632 H 0.10494 0.43911 0.30085 0.0
H633 H 0.09811 0.42717 0.36893 0.0
H634 H 0.13049 0.39698 0.28499 0.0
H635 H 0.15912 0.41153 0.28981 0.0
H636 H 0.12909 0.42074 0.27717 0.0
H637 H 0.12275 0.38291 0.36819 0.0
H638 H 0.12016 0.4025 0.38561 0.0
H639 H 0.1519 0.39692 0.3732 0.0
C640 C 0.19097 0.65748 0.70095 0.0
C641 C 0.18034 0.67454 0.7064 0.0
C642 C 0.1739 0.64248 0.69667 0.0
C643 C 0.1455 0.64454 0.69795 0.0
C644 C 0.13461 0.66182 0.70297 0.0
C645 C 0.15216 0.67662 0.70709 0.0
C646 C 0.18629 0.62432 0.69117 0.0
C647 C 0.10445 0.66454 0.70459 0.0
C648 C 0.1001 0.60853 0.67171 0.0
C649 C 0.0935 0.59736 0.68953 0.0
C650 C 0.1169 0.62398 0.67419 0.0
C651 C 0.12727 0.62842 0.695 0.0
C652 C 0.12052 0.6173 0.71308 0.0
C653 C 0.10381 0.6019 0.71011 0.0
C654 C 0.12365 0.63551 0.65453 0.0
C655 C 0.13117 0.62157 0.73554 0.0
H656 H 0.21272 0.65587 0.70009 0.0
H657 H 0.14383 0.68971 0.71151 0.0
H658 H 0.18115 0.61407 0.70385 0.0
H659 H 0.17782 0.61923 0.67558 0.0
H660 H 0.20867 0.62519 0.68985 0.0
H661 H 0.09918 0.67902 0.70759 0.0
H662 H 0.09418 0.66003 0.68944 0.0
H663 H 0.0963 0.65601 0.71803 0.0
H664 H 0.09195 0.60526 0.6558 0.0
H665 H 0.0992 0.5932 0.72392 0.0
H666 H 0.14589 0.6359 0.6522 0.0
H667 H 0.11704 0.64977 0.65703 0.0
H668 H 0.11389 0.63024 0.63948 0.0
H669 H 0.15361 0.62116 0.7357 0.0
H670 H 0.1235 0.61181 0.74797 0.0
H671 H 0.12525 0.63559 0.74019 0.0
C672 C 0.86333 0.67157 0.33767 0.0
C673 C 0.86195 0.67817 0.31626 0.0
C674 C 0.87946 0.65647 0.34315 0.0
C675 C 0.89455 0.64779 0.32682 0.0
C676 C 0.89376 0.65469 0.30531 0.0
C677 C 0.87751 0.66979 0.30031 0.0
C678 C 0.87977 0.6495 0.36625 0.0
C679 C 0.90966 0.64588 0.28745 0.0
C680 C 0.95267 0.61599 0.341 0.0
C681 C 0.94056 0.59878 0.33788 0.0
C682 C 0.93776 0.6321 0.33805 0.0
C683 C 0.91012 0.63094 0.33186 0.0
C684 C 0.89762 0.6136 0.32934 0.0
C685 C 0.91298 0.59775 0.33238 0.0
C686 C 0.9518 0.65034 0.34089 0.0
C687 C 0.86815 0.61177 0.32288 0.0
H688 H 0.8512 0.67789 0.35005 0.0
H689 H 0.8769 0.67502 0.28381 0.0
H690 H 0.87079 0.63556 0.3669 0.0
H691 H 0.9009 0.64848 0.37237 0.0
H692 H 0.86827 0.65844 0.37728 0.0
H693 H 0.90775 0.65338 0.27178 0.0
H694 H 0.9314 0.64525 0.29205 0.0
H695 H 0.90244 0.63163 0.28506 0.0
H696 H 0.97402 0.61688 0.34509 0.0
H697 H 0.90341 0.58448 0.33031 0.0
H698 H 0.94034 0.65896 0.35226 0.0
H699 H 0.95241 0.65769 0.3251 0.0
H700 H 0.97285 0.6489 0.34714 0.0
H701 H 0.85536 0.61944 0.33429 0.0
H702 H 0.86116 0.5973 0.32263 0.0
H703 H 0.86493 0.61779 0.3065 0.0
C704 C 0.87019 0.35356 0.66689 0.0
C705 C 0.8683 0.34438 0.68689 0.0
C706 C 0.88419 0.37027 0.66507 0.0
C707 C 0.89663 0.378 0.68369 0.0
C708 C 0.89477 0.36882 0.70393 0.0
C709 C 0.88063 0.35214 0.70529 0.0
C710 C 0.88562 0.37969 0.64323 0.0
C711 C 0.90784 0.3766 0.72414 0.0
C712 C 0.95354 0.41274 0.67645 0.0
C713 C 0.94018 0.42926 0.68002 0.0
C714 C 0.93958 0.39596 0.67743 0.0
C715 C 0.91156 0.3957 0.68205 0.0
C716 C 0.89789 0.41234 0.68542 0.0
C717 C 0.91236 0.42891 0.68438 0.0
C718 C 0.95488 0.3785 0.6738 0.0
C719 C 0.868 0.41263 0.69027 0.0
H720 H 0.86042 0.34776 0.65267 0.0
H721 H 0.87955 0.34501 0.72073 0.0
H722 H 0.87654 0.39347 0.64418 0.0
H723 H 0.90706 0.3816 0.63846 0.0
H724 H 0.87491 0.37186 0.63032 0.0
H725 H 0.90447 0.36779 0.73864 0.0
H726 H 0.92995 0.37824 0.72174 0.0
H727 H 0.89964 0.39036 0.7274 0.0
H728 H 0.97509 0.4129 0.67332 0.0
H729 H 0.90184 0.44165 0.68686 0.0
H730 H 0.94543 0.37072 0.66028 0.0
H731 H 0.95382 0.36972 0.68852 0.0
H732 H 0.97651 0.38107 0.66995 0.0
H733 H 0.85642 0.40584 0.67704 0.0
H734 H 0.86029 0.42674 0.69214 0.0
H735 H 0.86394 0.40486 0.70543 0.0
C736 C 0.26593 0.18021 0.4044 0.0
C737 C 0.24364 0.18454 0.39114 0.0
C738 C 0.26651 0.16388 0.41649 0.0
C739 C 0.24413 0.15168 0.41545 0.0
C740 C 0.22151 0.15602 0.40216 0.0
C741 C 0.2216 0.17237 0.39009 0.0
C742 C 0.29113 0.15962 0.43027 0.0
C743 C 0.19715 0.14346 0.4008 0.0
C744 C 0.25433 0.10184 0.43103 0.0
C745 C 0.2446 0.10131 0.45236 0.0
C746 C 0.25447 0.11816 0.41891 0.0
C747 C 0.2444 0.13433 0.42822 0.0
C748 C 0.2345 0.1339 0.44969 0.0
C749 C 0.23483 0.11744 0.46152 0.0
C750 C 0.26531 0.11807 0.39609 0.0
C751 C 0.22351 0.15085 0.46016 0.0
H752 H 0.28313 0.1895 0.40508 0.0
H753 H 0.2042 0.17577 0.38005 0.0
H754 H 0.28522 0.15791 0.44748 0.0
H755 H 0.30007 0.14654 0.42505 0.0
H756 H 0.30688 0.17051 0.42924 0.0
H757 H 0.18113 0.14889 0.38981 0.0
H758 H 0.20329 0.12985 0.39488 0.0
H759 H 0.18846 0.14142 0.41718 0.0
H760 H 0.26153 0.08942 0.42368 0.0
H761 H 0.22767 0.11725 0.47808 0.0
H762 H 0.28202 0.12821 0.39455 0.0
H763 H 0.24917 0.12214 0.38443 0.0
H764 H 0.27295 0.10444 0.39139 0.0
H765 H 0.23942 0.16163 0.46079 0.0
H766 H 0.21627 0.14819 0.4769 0.0
H767 H 0.20647 0.15632 0.45029 0.0
C768 C 0.37835 0.79642 0.82327 0.0
C769 C 0.36079 0.78208 0.81731 0.0
C770 C 0.3943 0.79537 0.8422 0.0
C771 C 0.39294 0.77951 0.85543 0.0
C772 C 0.37557 0.76488 0.8494 0.0
C773 C 0.35962 0.76637 0.83049 0.0
C774 C 0.41249 0.81131 0.84812 0.0
C775 C 0.37368 0.74769 0.86303 0.0
C776 C 0.45145 0.77089 0.89464 0.0
C777 C 0.44086 0.77702 0.91432 0.0
C778 C 0.43598 0.77141 0.8754 0.0
C779 C 0.40936 0.77839 0.87578 0.0
C780 C 0.39853 0.78457 0.89556 0.0
C781 C 0.41433 0.78371 0.91458 0.0
C782 C 0.44819 0.76461 0.85464 0.0
C783 C 0.37026 0.79217 0.89662 0.0
H784 H 0.37979 0.80848 0.81303 0.0
H785 H 0.34588 0.75532 0.82623 0.0
H786 H 0.40689 0.81662 0.86427 0.0
H787 H 0.43381 0.80677 0.84931 0.0
H788 H 0.41123 0.82265 0.83609 0.0
H789 H 0.35987 0.73732 0.85574 0.0
H790 H 0.39403 0.7416 0.86511 0.0
H791 H 0.36626 0.75104 0.87945 0.0
H792 H 0.47203 0.76592 0.89418 0.0
H793 H 0.40577 0.78817 0.92975 0.0
H794 H 0.44926 0.7759 0.84256 0.0
H795 H 0.43516 0.75372 0.84755 0.0
H796 H 0.46887 0.75911 0.85719 0.0
H797 H 0.36843 0.80415 0.88558 0.0
H798 H 0.36485 0.79645 0.91326 0.0
H799 H 0.35533 0.78177 0.89104 0.0
C800 C 0.82816 0.8554 0.40124 0.0
C801 C 0.80432 0.84926 0.39097 0.0
C802 C 0.82861 0.87153 0.41342 0.0
C803 C 0.80467 0.88185 0.41533 0.0
C804 C 0.78057 0.87581 0.40491 0.0
C805 C 0.78067 0.85958 0.39288 0.0
C806 C 0.85473 0.87754 0.42425 0.0
C807 C 0.75463 0.88643 0.40657 0.0
C808 C 0.7989 0.91444 0.46275 0.0
C809 C 0.80509 0.93132 0.45298 0.0
C810 C 0.79872 0.89824 0.4507 0.0
C811 C 0.80482 0.89892 0.42831 0.0
C812 C 0.8111 0.91591 0.41835 0.0
C813 C 0.8112 0.93189 0.4308 0.0
C814 C 0.79209 0.88038 0.46195 0.0
C815 C 0.81759 0.9172 0.3945 0.0
H816 H 0.84662 0.84766 0.39957 0.0
H817 H 0.76209 0.85483 0.38524 0.0
H818 H 0.86073 0.89129 0.41822 0.0
H819 H 0.85182 0.87862 0.44202 0.0
H820 H 0.87155 0.86794 0.42126 0.0
H821 H 0.73773 0.88004 0.39724 0.0
H822 H 0.74861 0.88741 0.42381 0.0
H823 H 0.75777 0.90058 0.40046 0.0
H824 H 0.7945 0.91388 0.47994 0.0
H825 H 0.81569 0.94492 0.4231 0.0
H826 H 0.80924 0.87081 0.46039 0.0
H827 H 0.7742 0.87386 0.45408 0.0
H828 H 0.78778 0.88219 0.47945 0.0
H829 H 0.83527 0.90855 0.39085 0.0
H830 H 0.82217 0.93144 0.38924 0.0
H831 H 0.80026 0.91196 0.38472 0.0
C832 C 0.69639 0.26656 0.8461 0.0
C833 C 0.68635 0.26878 0.82489 0.0
C834 C 0.67881 0.26477 0.86375 0.0
C835 C 0.65048 0.26534 0.86013 0.0
C836 C 0.6402 0.26736 0.83873 0.0
C837 C 0.65826 0.26899 0.82135 0.0
C838 C 0.69057 0.26244 0.8863 0.0
C839 C 0.61014 0.26817 0.83424 0.0
C840 C 0.60463 0.24645 0.90429 0.0
C841 C 0.59743 0.26239 0.91529 0.0
C842 C 0.6217 0.2472 0.88622 0.0
C843 C 0.63168 0.26431 0.87884 0.0
C844 C 0.62418 0.28047 0.88965 0.0
C845 C 0.60726 0.27931 0.90777 0.0
C846 C 0.62928 0.22966 0.87514 0.0
C847 C 0.63435 0.29899 0.88225 0.0
H848 H 0.71808 0.26615 0.84888 0.0
H849 H 0.6504 0.27088 0.80502 0.0
H850 H 0.68454 0.27406 0.89661 0.0
H851 H 0.68241 0.24979 0.89392 0.0
H852 H 0.71301 0.26171 0.88628 0.0
H853 H 0.60539 0.26924 0.81662 0.0
H854 H 0.59995 0.25579 0.84085 0.0
H855 H 0.60144 0.28013 0.84253 0.0
H856 H 0.59682 0.23334 0.90977 0.0
H857 H 0.60218 0.29168 0.91633 0.0
H858 H 0.65156 0.22793 0.87579 0.0
H859 H 0.62323 0.23024 0.85777 0.0
H860 H 0.61958 0.21748 0.88273 0.0
H861 H 0.65674 0.29959 0.88363 0.0
H862 H 0.62583 0.3103 0.89191 0.0
H863 H 0.629 0.30126 0.86492 0.0
C864 C 0.23609 0.86544 0.64511 0.0
C865 C 0.24034 0.84873 0.63474 0.0
C866 C 0.2366 0.88199 0.63344 0.0
C867 C 0.24156 0.88183 0.61085 0.0
C868 C 0.24606 0.86501 0.60032 0.0
C869 C 0.24536 0.84867 0.61238 0.0
C870 C 0.23158 0.89963 0.64522 0.0
C871 C 0.25159 0.86429 0.57629 0.0
C872 C 0.21816 0.92213 0.57648 0.0
C873 C 0.24226 0.93218 0.57395 0.0
C874 C 0.21763 0.90577 0.58851 0.0
C875 C 0.24181 0.89923 0.59819 0.0
C876 C 0.26622 0.90927 0.59569 0.0
C877 C 0.26614 0.92563 0.58364 0.0
C878 C 0.1912 0.89544 0.59078 0.0
C879 C 0.29241 0.90275 0.60578 0.0
H880 H 0.2319 0.86556 0.66233 0.0
H881 H 0.24903 0.83583 0.60432 0.0
H882 H 0.249 0.90912 0.64306 0.0
H883 H 0.21347 0.90644 0.63825 0.0
H884 H 0.22839 0.89744 0.66287 0.0
H885 H 0.25487 0.85012 0.57059 0.0
H886 H 0.23434 0.87019 0.56705 0.0
H887 H 0.26978 0.87265 0.57244 0.0
H888 H 0.1997 0.92694 0.5688 0.0
H889 H 0.28477 0.93343 0.58203 0.0
H890 H 0.18624 0.89371 0.6082 0.0
H891 H 0.19309 0.88157 0.58385 0.0
H892 H 0.17413 0.90249 0.5825 0.0
H893 H 0.29027 0.90161 0.62364 0.0
H894 H 0.30968 0.91208 0.60219 0.0
H895 H 0.29724 0.88894 0.59971 0.0
C896 C 0.64993 0.784 0.21002 0.0
C897 C 0.67793 0.78108 0.20945 0.0
C898 C 0.63384 0.78244 0.19121 0.0
C899 C 0.64607 0.77791 0.1713 0.0
C900 C 0.67428 0.77477 0.17064 0.0
C901 C 0.68986 0.77637 0.18972 0.0
C902 C 0.6038 0.78578 0.19259 0.0
C903 C 0.68808 0.77001 0.14971 0.0
C904 C 0.6016 0.75952 0.12553 0.0
C905 C 0.59765 0.77521 0.11272 0.0
C906 C 0.6173 0.76018 0.14464 0.0
C907 C 0.62943 0.77692 0.15105 0.0
C908 C 0.62562 0.79278 0.13814 0.0
C909 C 0.60976 0.79174 0.11916 0.0
C910 C 0.62079 0.74299 0.15804 0.0
C911 C 0.63834 0.81087 0.14435 0.0
H912 H 0.64053 0.7874 0.22527 0.0
H913 H 0.71154 0.7743 0.18911 0.0
H914 H 0.59817 0.7975 0.18201 0.0
H915 H 0.59237 0.77367 0.18664 0.0
H916 H 0.59732 0.78872 0.20941 0.0
H917 H 0.71007 0.76753 0.15204 0.0
H918 H 0.6786 0.7576 0.14258 0.0
H919 H 0.68548 0.78128 0.13776 0.0
H920 H 0.59206 0.74675 0.12077 0.0
H921 H 0.60712 0.80386 0.10918 0.0
H922 H 0.61292 0.74512 0.17462 0.0
H923 H 0.6426 0.73975 0.15973 0.0
H924 H 0.61012 0.73106 0.15078 0.0
H925 H 0.63121 0.81502 0.16058 0.0
H926 H 0.63349 0.82191 0.13251 0.0
H927 H 0.66066 0.80951 0.14546 0.0
C928 C 0.78386 0.17409 0.63066 0.0
C929 C 0.7781 0.1701 0.65245 0.0
C930 C 0.78794 0.16006 0.61563 0.0
C931 C 0.78612 0.1416 0.62254 0.0
C932 C 0.78072 0.13749 0.64456 0.0
C933 C 0.77684 0.15178 0.65923 0.0
C934 C 0.79373 0.16498 0.5923 0.0
C935 C 0.77868 0.11798 0.65258 0.0
C936 C 0.76844 0.10447 0.58197 0.0
C937 C 0.79363 0.09626 0.57877 0.0
C938 C 0.76583 0.11947 0.59582 0.0
C939 C 0.789 0.12652 0.60668 0.0
C940 C 0.81461 0.11864 0.60308 0.0
C941 C 0.81662 0.10358 0.58919 0.0
C942 C 0.73816 0.12751 0.59919 0.0
C943 C 0.83979 0.12581 0.61432 0.0
H944 H 0.78461 0.1882 0.62523 0.0
H945 H 0.77289 0.14857 0.67611 0.0
H946 H 0.81272 0.15842 0.58708 0.0
H947 H 0.7772 0.15972 0.58167 0.0
H948 H 0.79565 0.17997 0.58973 0.0
H949 H 0.77493 0.1171 0.6703 0.0
H950 H 0.76197 0.11078 0.64393 0.0
H951 H 0.79764 0.11062 0.64903 0.0
H952 H 0.75066 0.0991 0.57368 0.0
H953 H 0.83611 0.09722 0.58698 0.0
H954 H 0.73854 0.14236 0.59542 0.0
H955 H 0.73236 0.12596 0.61645 0.0
H956 H 0.72235 0.12087 0.58893 0.0
H957 H 0.84207 0.14071 0.61132 0.0
H958 H 0.85838 0.11888 0.6088 0.0
H959 H 0.83801 0.12379 0.6321 0.0
C960 C 0.35003 0.25848 0.18829 0.0
C961 C 0.36238 0.25375 0.20811 0.0
C962 C 0.36512 0.25972 0.16914 0.0
C963 C 0.39326 0.25621 0.16984 0.0
C964 C 0.40591 0.25169 0.18985 0.0
C965 C 0.39031 0.25049 0.20873 0.0
C966 C 0.35089 0.26451 0.14809 0.0
C967 C 0.43589 0.24797 0.19129 0.0
C968 C 0.42787 0.24159 0.11807 0.0
C969 C 0.44028 0.25792 0.11122 0.0
C970 C 0.41244 0.24087 0.13706 0.0
C971 C 0.40937 0.25686 0.14956 0.0
C972 C 0.42183 0.2734 0.14274 0.0
C973 C 0.4371 0.27374 0.12365 0.0
C974 C 0.39937 0.22299 0.14373 0.0
C975 C 0.41914 0.29071 0.15569 0.0
H976 H 0.32841 0.26082 0.18765 0.0
H977 H 0.40004 0.24709 0.22405 0.0
H978 H 0.36052 0.27674 0.14061 0.0
H979 H 0.35283 0.25312 0.13645 0.0
H980 H 0.32904 0.2673 0.15038 0.0
H981 H 0.44274 0.24506 0.20818 0.0
H982 H 0.44089 0.2361 0.18102 0.0
H983 H 0.44749 0.25989 0.185 0.0
H984 H 0.42993 0.22938 0.10839 0.0
H985 H 0.4469 0.28635 0.11859 0.0
H986 H 0.37712 0.22464 0.1448 0.0
H987 H 0.40679 0.21885 0.16007 0.0
H988 H 0.40361 0.21182 0.13218 0.0
H989 H 0.39747 0.29423 0.1573 0.0
H990 H 0.42993 0.30247 0.14811 0.0
H991 H 0.42739 0.2886 0.17232 0.0
C992 C 0.84165 0.65534 0.70741 0.0
C993 C 0.85182 0.6733 0.70791 0.0
C994 C 0.85847 0.64059 0.70264 0.0
C995 C 0.88616 0.64385 0.69822 0.0
C996 C 0.89641 0.66198 0.69808 0.0
C997 C 0.87912 0.67649 0.70293 0.0
C998 C 0.84673 0.62147 0.70285 0.0
C999 C 0.92582 0.666 0.69342 0.0
C1000 C 0.93369 0.6045 0.71012 0.0
C1001 C 0.93722 0.59704 0.68945 0.0
C1002 C 0.91754 0.61992 0.71311 0.0
C1003 C 0.90463 0.62816 0.69497 0.0
C1004 C 0.90862 0.621 0.67397 0.0
C1005 C 0.92487 0.60551 0.67146 0.0
C1006 C 0.9139 0.62718 0.73575 0.0
C1007 C 0.89522 0.62944 0.65425 0.0
H1008 H 0.82047 0.65281 0.71086 0.0
H1009 H 0.88718 0.6903 0.70347 0.0
H1010 H 0.85082 0.6146 0.68725 0.0
H1011 H 0.85659 0.61329 0.71589 0.0
H1012 H 0.82454 0.62133 0.70558 0.0
H1013 H 0.9302 0.6809 0.69251 0.0
H1014 H 0.93872 0.65992 0.70636 0.0
H1015 H 0.93169 0.65967 0.67788 0.0
H1016 H 0.94357 0.59822 0.72404 0.0
H1017 H 0.92733 0.59974 0.65547 0.0
H1018 H 0.89225 0.62627 0.74027 0.0
H1019 H 0.9199 0.64182 0.73636 0.0
H1020 H 0.92601 0.61955 0.74803 0.0
H1021 H 0.87291 0.62818 0.65561 0.0
H1022 H 0.90151 0.62284 0.63895 0.0
H1023 H 0.9002 0.64423 0.65326 0.0
C1024 C 0.8459 0.3729 0.31927 0.0
C1025 C 0.85564 0.35495 0.31937 0.0
C1026 C 0.86318 0.38778 0.32356 0.0
C1027 C 0.8909 0.38468 0.32811 0.0
C1028 C 0.90073 0.36657 0.32889 0.0
C1029 C 0.88298 0.35191 0.3245 0.0
C1030 C 0.85188 0.40688 0.32267 0.0
C1031 C 0.93015 0.3627 0.33372 0.0
C1032 C 0.93883 0.42394 0.3149 0.0
C1033 C 0.94287 0.43196 0.33529 0.0
C1034 C 0.92243 0.40833 0.31245 0.0
C1035 C 0.9098 0.40047 0.33085 0.0
C1036 C 0.91437 0.40819 0.35158 0.0
C1037 C 0.93085 0.42386 0.35356 0.0
C1038 C 0.91816 0.40047 0.29007 0.0
C1039 C 0.90129 0.40018 0.37157 0.0
H1040 H 0.8247 0.37533 0.3157 0.0
H1041 H 0.89071 0.3381 0.32443 0.0
H1042 H 0.85648 0.41413 0.33803 0.0
H1043 H 0.86163 0.41476 0.30938 0.0
H1044 H 0.82962 0.40692 0.31991 0.0
H1045 H 0.93419 0.34784 0.33518 0.0
H1046 H 0.94289 0.36846 0.32058 0.0
H1047 H 0.93654 0.36944 0.34903 0.0
H1048 H 0.94844 0.42993 0.30078 0.0
H1049 H 0.93369 0.43007 0.36933 0.0
H1050 H 0.89644 0.40125 0.28545 0.0
H1051 H 0.9238 0.38584 0.29001 0.0
H1052 H 0.93021 0.40781 0.27756 0.0
H1053 H 0.87897 0.4014 0.37019 0.0
H1054 H 0.90816 0.40712 0.38665 0.0
H1055 H 0.90591 0.38542 0.37302 0.0
C1056 C 0.19287 0.37416 0.69878 0.0
C1057 C 0.18215 0.3568 0.70358 0.0
C1058 C 0.17587 0.38903 0.69441 0.0
C1059 C 0.14744 0.38651 0.69493 0.0
C1060 C 0.13648 0.36892 0.69921 0.0
C1061 C 0.15397 0.35427 0.70345 0.0
C1062 C 0.18834 0.40754 0.68973 0.0
C1063 C 0.10628 0.3657 0.69999 0.0
C1064 C 0.10499 0.428 0.70768 0.0
C1065 C 0.09529 0.43314 0.68707 0.0
C1066 C 0.12177 0.41278 0.71044 0.0
C1067 C 0.12922 0.40247 0.69214 0.0
C1068 C 0.11952 0.40755 0.67128 0.0
C1069 C 0.10265 0.42281 0.669 0.0
C1070 C 0.13172 0.40783 0.73296 0.0
C1071 C 0.12702 0.39688 0.65138 0.0
H1072 H 0.21463 0.37614 0.69852 0.0
H1073 H 0.14555 0.34093 0.70736 0.0
H1074 H 0.18031 0.41307 0.67417 0.0
H1075 H 0.1828 0.41727 0.70264 0.0
H1076 H 0.21076 0.40702 0.68882 0.0
H1077 H 0.101 0.35103 0.70229 0.0
H1078 H 0.09759 0.37355 0.71354 0.0
H1079 H 0.09654 0.37066 0.68479 0.0
H1080 H 0.0998 0.43607 0.72169 0.0
H1081 H 0.09499 0.42656 0.65305 0.0
H1082 H 0.15416 0.40852 0.7336 0.0
H1083 H 0.12568 0.39359 0.73701 0.0
H1084 H 0.12364 0.41704 0.74554 0.0
H1085 H 0.14934 0.39687 0.64956 0.0
H1086 H 0.11778 0.4026 0.63633 0.0
H1087 H 0.12037 0.38244 0.65321 0.0
C1088 C 0.18166 0.66912 0.33916 0.0
C1089 C 0.16772 0.68557 0.33616 0.0
C1090 C 0.16771 0.65233 0.3402 0.0
C1091 C 0.13914 0.65198 0.33806 0.0
C1092 C 0.12497 0.66854 0.33493 0.0
C1093 C 0.13942 0.68513 0.33408 0.0
C1094 C 0.18351 0.63498 0.34371 0.0
C1095 C 0.09455 0.66871 0.3324 0.0
C1096 C 0.10451 0.6077 0.32096 0.0
C1097 C 0.09465 0.60098 0.34078 0.0
C1098 C 0.11905 0.62424 0.31985 0.0
C1099 C 0.12405 0.63429 0.33904 0.0
C1100 C 0.11437 0.62753 0.35912 0.0
C1101 C 0.09973 0.611 0.35974 0.0
C1102 C 0.12901 0.63101 0.29812 0.0
C1103 C 0.11932 0.63783 0.37994 0.0
H1104 H 0.20349 0.6694 0.34102 0.0
H1105 H 0.12857 0.69778 0.33148 0.0
H1106 H 0.17666 0.62799 0.35874 0.0
H1107 H 0.17971 0.62546 0.33007 0.0
H1108 H 0.20565 0.63759 0.34506 0.0
H1109 H 0.08658 0.68275 0.33006 0.0
H1110 H 0.08831 0.66031 0.31826 0.0
H1111 H 0.08497 0.66255 0.34695 0.0
H1112 H 0.10107 0.59992 0.30628 0.0
H1113 H 0.09189 0.60605 0.37508 0.0
H1114 H 0.15136 0.63258 0.29857 0.0
H1115 H 0.12045 0.64466 0.29447 0.0
H1116 H 0.12339 0.6216 0.28471 0.0
H1117 H 0.14136 0.64003 0.38254 0.0
H1118 H 0.11103 0.63051 0.39429 0.0
H1119 H 0.10987 0.6515 0.37884 0.0
C1120 C 0.82467 0.85685 0.63569 0.0
C1121 C 0.80047 0.84687 0.63799 0.0
C1122 C 0.82544 0.87322 0.6237 0.0
C1123 C 0.80146 0.87974 0.61367 0.0
C1124 C 0.77697 0.86974 0.61593 0.0
C1125 C 0.77676 0.85345 0.62811 0.0
C1126 C 0.8519 0.88357 0.6218 0.0
C1127 C 0.75102 0.8762 0.60537 0.0
C1128 C 0.79707 0.93011 0.59871 0.0
C1129 C 0.80271 0.9299 0.57646 0.0
C1130 C 0.79672 0.91391 0.61103 0.0
C1131 C 0.80198 0.89706 0.60083 0.0
C1132 C 0.80769 0.89674 0.57837 0.0
C1133 C 0.80806 0.91318 0.56646 0.0
C1134 C 0.79076 0.91482 0.63498 0.0
C1135 C 0.81324 0.87903 0.56688 0.0
H1136 H 0.84298 0.85195 0.64351 0.0
H1137 H 0.75808 0.84569 0.62961 0.0
H1138 H 0.85749 0.88502 0.60449 0.0
H1139 H 0.8497 0.89756 0.62835 0.0
H1140 H 0.8687 0.87669 0.63064 0.0
H1141 H 0.7337 0.86684 0.60868 0.0
H1142 H 0.74596 0.89001 0.61133 0.0
H1143 H 0.75365 0.87732 0.58756 0.0
H1144 H 0.79326 0.94303 0.60657 0.0
H1145 H 0.81212 0.91291 0.54922 0.0
H1146 H 0.80789 0.90905 0.64448 0.0
H1147 H 0.77257 0.90643 0.63873 0.0
H1148 H 0.78726 0.92902 0.64047 0.0
H1149 H 0.83093 0.87219 0.57447 0.0
H1150 H 0.81732 0.88113 0.54934 0.0
H1151 H 0.79564 0.86962 0.56855 0.0
C1152 C 0.66907 0.26686 0.20063 0.0
C1153 C 0.67271 0.24975 0.21064 0.0
C1154 C 0.65362 0.26864 0.18148 0.0
C1155 C 0.6413 0.25296 0.1722 0.0
C1156 C 0.64464 0.2357 0.18232 0.0
C1157 C 0.66038 0.23429 0.20133 0.0
C1158 C 0.6506 0.28728 0.17113 0.0
C1159 C 0.63178 0.21866 0.17294 0.0
C1160 C 0.58219 0.25901 0.13286 0.0
C1161 C 0.5947 0.25661 0.11277 0.0
C1162 C 0.59711 0.25795 0.15233 0.0
C1163 C 0.62527 0.25454 0.15169 0.0
C1164 C 0.63806 0.25234 0.13143 0.0
C1165 C 0.62261 0.25334 0.11223 0.0
C1166 C 0.5827 0.26022 0.17361 0.0
C1167 C 0.66807 0.24887 0.13005 0.0
H1168 H 0.67815 0.27893 0.20785 0.0
H1169 H 0.6634 0.22097 0.20872 0.0
H1170 H 0.65855 0.28711 0.15436 0.0
H1171 H 0.62887 0.29089 0.16996 0.0
H1172 H 0.66146 0.29811 0.18038 0.0
H1173 H 0.63564 0.20636 0.18313 0.0
H1174 H 0.60958 0.22047 0.17127 0.0
H1175 H 0.63975 0.21621 0.15647 0.0
H1176 H 0.56057 0.26136 0.13336 0.0
H1177 H 0.63244 0.25172 0.09673 0.0
H1178 H 0.59207 0.27157 0.18295 0.0
H1179 H 0.58483 0.24762 0.18358 0.0
H1180 H 0.56081 0.26307 0.17132 0.0
H1181 H 0.67955 0.26006 0.1381 0.0
H1182 H 0.67502 0.24782 0.11302 0.0
H1183 H 0.67315 0.236 0.13873 0.0
C1184 C 0.21553 0.17676 0.62386 0.0
C1185 C 0.23907 0.18316 0.63436 0.0
C1186 C 0.2155 0.16041 0.61209 0.0
C1187 C 0.23957 0.15014 0.61083 0.0
C1188 C 0.26335 0.15644 0.6215 0.0
C1189 C 0.26283 0.17287 0.6331 0.0
C1190 C 0.18971 0.15413 0.60098 0.0
C1191 C 0.28942 0.14587 0.62052 0.0
C1192 C 0.23381 0.09984 0.5963 0.0
C1193 C 0.24049 0.10011 0.57424 0.0
C1194 C 0.23348 0.11601 0.60842 0.0
C1195 C 0.23989 0.13287 0.59822 0.0
C1196 C 0.24657 0.13325 0.57593 0.0
C1197 C 0.24682 0.11687 0.56422 0.0
C1198 C 0.22639 0.11503 0.63217 0.0
C1199 C 0.25336 0.15096 0.56443 0.0
H1200 H 0.19698 0.18447 0.62502 0.0
H1201 H 0.28119 0.17782 0.64092 0.0
H1202 H 0.19307 0.15281 0.58329 0.0
H1203 H 0.18368 0.14044 0.60718 0.0
H1204 H 0.17272 0.1637 0.6035 0.0
H1205 H 0.30601 0.15245 0.63002 0.0
H1206 H 0.28621 0.1318 0.62686 0.0
H1207 H 0.29593 0.14467 0.60342 0.0
H1208 H 0.22923 0.08691 0.60419 0.0
H1209 H 0.25165 0.1172 0.54711 0.0
H1210 H 0.20854 0.12367 0.63535 0.0
H1211 H 0.24343 0.12048 0.64212 0.0
H1212 H 0.2218 0.10086 0.63766 0.0
H1213 H 0.23609 0.16049 0.56549 0.0
H1214 H 0.25815 0.14891 0.54705 0.0
H1215 H 0.27099 0.15766 0.57246 0.0
C1216 C 0.34444 0.76961 0.18329 0.0
C1217 C 0.35427 0.76276 0.20312 0.0
C1218 C 0.36144 0.77151 0.16528 0.0
C1219 C 0.38903 0.76661 0.16723 0.0
C1220 C 0.3992 0.76001 0.18734 0.0
C1221 C 0.38166 0.75807 0.20501 0.0
C1222 C 0.34976 0.77842 0.14406 0.0
C1223 C 0.42855 0.75486 0.19013 0.0
C1224 C 0.42653 0.75407 0.116 0.0
C1225 C 0.44051 0.77035 0.11122 0.0
C1226 C 0.40973 0.75268 0.13417 0.0
C1227 C 0.40704 0.76789 0.14804 0.0
C1228 C 0.4213 0.78431 0.14342 0.0
C1229 C 0.43776 0.78537 0.12499 0.0
C1230 C 0.39463 0.735 0.1384 0.0
C1231 C 0.41919 0.80074 0.15795 0.0
H1232 H 0.32322 0.77307 0.18169 0.0
H1233 H 0.3894 0.75295 0.22039 0.0
H1234 H 0.36116 0.79068 0.13849 0.0
H1235 H 0.35184 0.76783 0.13141 0.0
H1236 H 0.32804 0.782 0.14536 0.0
H1237 H 0.4335 0.75062 0.20704 0.0
H1238 H 0.43341 0.74345 0.17913 0.0
H1239 H 0.4418 0.76658 0.18562 0.0
H1240 H 0.42834 0.7425 0.10525 0.0
H1241 H 0.44874 0.79792 0.12146 0.0
H1242 H 0.37252 0.73752 0.13842 0.0
H1243 H 0.4002 0.72951 0.15464 0.0
H1244 H 0.39895 0.72446 0.12606 0.0
H1245 H 0.39786 0.80531 0.15857 0.0
H1246 H 0.43198 0.81237 0.15232 0.0
H1247 H 0.4254 0.79704 0.17475 0.0
C1248 C 0.77565 0.17055 0.39381 0.0
C1249 C 0.79892 0.18164 0.39258 0.0
C1250 C 0.77576 0.1541 0.40569 0.0
C1251 C 0.79968 0.14862 0.41668 0.0
C1252 C 0.82324 0.15972 0.41548 0.0
C1253 C 0.82259 0.17606 0.40342 0.0
C1254 C 0.75024 0.14263 0.40658 0.0
C1255 C 0.84916 0.15433 0.42693 0.0
C1256 C 0.79376 0.11494 0.46367 0.0
C1257 C 0.80125 0.09849 0.45394 0.0
C1258 C 0.79312 0.13134 0.45173 0.0
C1259 C 0.80006 0.1313 0.4295 0.0
C1260 C 0.80756 0.11474 0.41956 0.0
C1261 C 0.8081 0.09855 0.43191 0.0
C1262 C 0.78518 0.14874 0.46294 0.0
C1263 C 0.81497 0.11413 0.39587 0.0
H1264 H 0.75719 0.17486 0.38572 0.0
H1265 H 0.84077 0.18439 0.40229 0.0
H1266 H 0.75423 0.12871 0.40043 0.0
H1267 H 0.74357 0.14112 0.42364 0.0
H1268 H 0.73345 0.14867 0.39687 0.0
H1269 H 0.86566 0.16452 0.42448 0.0
H1270 H 0.84558 0.15279 0.44459 0.0
H1271 H 0.856 0.1409 0.42093 0.0
H1272 H 0.78877 0.11503 0.48075 0.0
H1273 H 0.81357 0.08585 0.42422 0.0
H1274 H 0.76739 0.15485 0.4546 0.0
H1275 H 0.80197 0.15887 0.46201 0.0
H1276 H 0.78014 0.14643 0.48027 0.0
H1277 H 0.79781 0.11905 0.38574 0.0
H1278 H 0.82028 0.10014 0.39059 0.0
H1279 H 0.83244 0.12337 0.39275 0.0
C1280 C 0.34951 0.25745 0.83507 0.0
C1281 C 0.36168 0.25261 0.81549 0.0
C1282 C 0.36479 0.25888 0.85433 0.0
C1283 C 0.39294 0.25545 0.85399 0.0
C1284 C 0.40541 0.2508 0.83422 0.0
C1285 C 0.38963 0.24941 0.81523 0.0
C1286 C 0.35074 0.26378 0.8751 0.0
C1287 C 0.43541 0.24717 0.83317 0.0
C1288 C 0.43697 0.27355 0.90018 0.0
C1289 C 0.44044 0.25784 0.91305 0.0
C1290 C 0.42159 0.27298 0.8809 0.0
C1291 C 0.40927 0.25633 0.87441 0.0
C1292 C 0.41261 0.24045 0.88738 0.0
C1293 C 0.4282 0.24139 0.90651 0.0
C1294 C 0.41863 0.29017 0.86743 0.0
C1295 C 0.39965 0.22246 0.88109 0.0
H1296 H 0.32788 0.25974 0.83543 0.0
H1297 H 0.39921 0.24591 0.80009 0.0
H1298 H 0.35294 0.25249 0.88709 0.0
H1299 H 0.36032 0.27611 0.88231 0.0
H1300 H 0.32883 0.26643 0.87253 0.0
H1301 H 0.4421 0.24414 0.81644 0.0
H1302 H 0.44698 0.25919 0.83922 0.0
H1303 H 0.44061 0.23541 0.84383 0.0
H1304 H 0.44663 0.28625 0.90503 0.0
H1305 H 0.43051 0.22927 0.91654 0.0
H1306 H 0.39692 0.29362 0.86554 0.0
H1307 H 0.42669 0.28794 0.85094 0.0
H1308 H 0.42944 0.30202 0.87476 0.0
H1309 H 0.37738 0.22401 0.87974 0.0
H1310 H 0.4041 0.2114 0.89301 0.0
H1311 H 0.40697 0.21822 0.86495 0.0
C1312 C 0.25542 0.8566 0.39695 0.0
C1313 C 0.26121 0.8605 0.37515 0.0
C1314 C 0.25224 0.87069 0.41206 0.0
C1315 C 0.25498 0.88912 0.40522 0.0
C1316 C 0.26038 0.89315 0.38317 0.0
C1317 C 0.26335 0.87881 0.36843 0.0
C1318 C 0.24642 0.86586 0.43542 0.0
C1319 C 0.26339 0.91262 0.37521 0.0
C1320 C 0.22679 0.92781 0.43882 0.0
C1321 C 0.25021 0.93458 0.44916 0.0
C1322 C 0.22789 0.91273 0.42489 0.0
C1323 C 0.25304 0.90425 0.42114 0.0
C1324 C 0.27664 0.91075 0.4319 0.0
C1325 C 0.27493 0.92579 0.44579 0.0
C1326 C 0.20227 0.90617 0.41377 0.0
C1327 C 0.30383 0.90205 0.42837 0.0
H1328 H 0.25399 0.8425 0.40234 0.0
H1329 H 0.26734 0.88196 0.35154 0.0
H1330 H 0.26333 0.87067 0.44595 0.0
H1331 H 0.22787 0.87288 0.44079 0.0
H1332 H 0.2437 0.85091 0.43794 0.0
H1333 H 0.26701 0.91345 0.35747 0.0
H1334 H 0.2449 0.92045 0.37891 0.0
H1335 H 0.28056 0.91938 0.38378 0.0
H1336 H 0.20766 0.93462 0.44114 0.0
H1337 H 0.29304 0.93072 0.45401 0.0
H1338 H 0.19924 0.89133 0.41676 0.0
H1339 H 0.20402 0.90816 0.39598 0.0
H1340 H 0.18411 0.91353 0.41939 0.0
H1341 H 0.30271 0.88722 0.43211 0.0
H1342 H 0.32006 0.90831 0.43856 0.0
H1343 H 0.30957 0.90349 0.41108 0.0
C1344 C 0.68595 0.77305 0.83765 0.0
C1345 C 0.67387 0.77813 0.81783 0.0
C1346 C 0.67072 0.77187 0.85674 0.0
C1347 C 0.64272 0.77581 0.85599 0.0
C1348 C 0.63033 0.78067 0.83599 0.0
C1349 C 0.64605 0.7818 0.81717 0.0
C1350 C 0.6847 0.7667 0.87777 0.0
C1351 C 0.60049 0.78486 0.8345 0.0
C1352 C 0.59828 0.75867 0.90204 0.0
C1353 C 0.59567 0.77445 0.91462 0.0
C1354 C 0.61351 0.7589 0.88292 0.0
C1355 C 0.62652 0.77529 0.87624 0.0
C1356 C 0.62401 0.79124 0.88889 0.0
C1357 C 0.6086 0.79064 0.90789 0.0
C1358 C 0.6156 0.74163 0.86982 0.0
C1359 C 0.63769 0.80896 0.88238 0.0
H1360 H 0.70749 0.77039 0.83834 0.0
H1361 H 0.63652 0.78549 0.80186 0.0
H1362 H 0.68313 0.77805 0.88951 0.0
H1363 H 0.6746 0.75459 0.88511 0.0
H1364 H 0.70644 0.76357 0.8755 0.0
H1365 H 0.5938 0.78796 0.81762 0.0
H1366 H 0.58847 0.77308 0.84068 0.0
H1367 H 0.59585 0.79675 0.84485 0.0
H1368 H 0.58808 0.74617 0.90701 0.0
H1369 H 0.60698 0.80281 0.91768 0.0
H1370 H 0.63714 0.73775 0.86822 0.0
H1371 H 0.6075 0.74399 0.85319 0.0
H1372 H 0.60435 0.73001 0.87726 0.0
H1373 H 0.65987 0.80698 0.88134 0.0
H1374 H 0.63378 0.82013 0.89401 0.0
H1375 H 0.63046 0.8133 0.86606 0.0
loop_
_geom_bond_atom_site_label_1
_geom_bond_atom_site_label_2
_geom_bond_distance
_geom_bond_site_symmetry_2
_ccdc_geom_bond_type
C0 C1 1.264 . S
C0 C5 1.479 . S
C0 C10 1.465 . S
C1 C0 1.264 . S
C1 C3 1.339 . S
C1 H28 0.931 . S
C2 C3 1.395 . S
C2 C4 1.320 . S
C3 C1 1.339 . S
C3 C2 1.395 . S
C3 H29 0.929 . S
C4 C2 1.320 . S
C4 C5 1.405 . S
C4 H30 0.930 . S
C5 C0 1.479 . S
C5 C4 1.405 . S
C5 H31 0.931 . S
U6 O7 2.454 . S
U6 O8 2.458 . S
U6 C9 2.984 . S
U6 C10 2.847 . S
U6 C23 2.882 . S
U6 O24 2.441 . S
U6 O25 2.420 . S
U6 O26 2.455 . S
U6 O27 2.449 . S
O7 U6 2.454 . S
O7 C9 1.353 . S
O8 U6 2.458 . S
O8 C9 1.286 . S
C9 U6 2.984 . S
C9 O7 1.353 . S
C9 O8 1.286 . S
C9 C11 1.363 . S
C10 C0 1.465 . S
C10 U6 2.847 . S
C10 O24 1.249 . S
C10 O25 1.202 . S
C11 C9 1.363 . S
C11 C13 1.408 . S
C11 C16 1.342 . S
C12 C13 1.310 . S
C12 C15 1.461 . S
C12 H32 0.932 . S
C13 C11 1.408 . S
C13 C12 1.310 . S
C13 H33 0.930 . S
C14 C15 1.474 . S
C14 C16 1.285 . S
C14 H34 0.929 . S
C15 C12 1.461 . S
C15 C14 1.474 . S
C16 C11 1.342 . S
C16 C14 1.285 . S
C16 H35 0.930 . S
C17 C20 1.424 . S
C17 C22 1.245 . S
C17 C23 1.428 . S
C18 C21 1.260 . S
C18 C22 1.477 . S
C18 H36 0.932 . S
C19 C20 1.384 . S
C19 C21 1.479 . S
C19 H37 0.929 . S
C20 C17 1.424 . S
C20 C19 1.384 . S
C20 H38 0.928 . S
C21 C18 1.260 . S
C21 C19 1.479 . S
C22 C17 1.245 . S
C22 C18 1.477 . S
C22 H39 0.932 . S
C23 U6 2.882 . S
C23 C17 1.428 . S
C23 O26 1.301 . S
C23 O27 1.282 . S
O24 U6 2.441 . S
O24 C10 1.249 . S
O25 U6 2.420 . S
O25 C10 1.202 . S
O26 U6 2.455 . S
O26 C23 1.301 . S
O27 U6 2.449 . S
O27 C23 1.282 . S
H28 C1 0.931 . S
H29 C3 0.929 . S
H30 C4 0.930 . S
H31 C5 0.931 . S
H32 C12 0.932 . S
H33 C13 0.930 . S
H34 C14 0.929 . S
H35 C16 0.930 . S
H36 C18 0.932 . S
H37 C19 0.929 . S
H38 C20 0.928 . S
H39 C22 0.932 . S
C40 C41 1.264 . S
C40 C45 1.479 . S
C40 C50 1.465 . S
C41 C40 1.264 . S
C41 C43 1.339 . S
C41 H68 0.931 . S
C42 C43 1.395 . S
C42 C44 1.320 . S
C43 C41 1.339 . S
C43 C42 1.395 . S
C43 H69 0.929 . S
C44 C42 1.320 . S
C44 C45 1.405 . S
C44 H70 0.930 . S
C45 C40 1.479 . S
C45 C44 1.405 . S
C45 H71 0.931 . S
U46 O47 2.454 . S
U46 O48 2.458 . S
U46 C49 2.984 . S
U46 C50 2.847 . S
U46 C63 2.882 . S
U46 O64 2.441 . S
U46 O65 2.420 . S
U46 O66 2.455 . S
U46 O67 2.449 . S
O47 U46 2.454 . S
O47 C49 1.353 . S
O48 U46 2.458 . S
O48 C49 1.286 . S
C49 U46 2.984 . S
C49 O47 1.353 . S
C49 O48 1.286 . S
C49 C51 1.363 . S
C50 C40 1.465 . S
C50 U46 2.847 . S
C50 O64 1.249 . S
C50 O65 1.202 . S
C51 C49 1.363 . S
C51 C53 1.408 . S
C51 C56 1.342 . S
C52 C53 1.310 . S
C52 C55 1.461 . S
C52 H72 0.932 . S
C53 C51 1.408 . S
C53 C52 1.310 . S
C53 H73 0.930 . S
C54 C55 1.474 . S
C54 C56 1.285 . S
C54 H74 0.929 . S
C55 C52 1.461 . S
C55 C54 1.474 . S
C56 C51 1.342 . S
C56 C54 1.285 . S
C56 H75 0.930 . S
C57 C60 1.424 . S
C57 C62 1.245 . S
C57 C63 1.428 . S
C58 C61 1.260 . S
C58 C62 1.477 . S
C58 H76 0.932 . S
C59 C60 1.384 . S
C59 C61 1.479 . S
C59 H77 0.929 . S
C60 C57 1.424 . S
C60 C59 1.384 . S
C60 H78 0.928 . S
C61 C58 1.260 . S
C61 C59 1.479 . S
C62 C57 1.245 . S
C62 C58 1.477 . S
C62 H79 0.932 . S
C63 U46 2.882 . S
C63 C57 1.428 . S
C63 O66 1.301 . S
C63 O67 1.282 . S
O64 U46 2.441 . S
O64 C50 1.249 . S
O65 U46 2.420 . S
O65 C50 1.202 . S
O66 U46 2.455 . S
O66 C63 1.301 . S
O67 U46 2.449 . S
O67 C63 1.282 . S
H68 C41 0.931 . S
H69 C43 0.929 . S
H70 C44 0.930 . S
H71 C45 0.931 . S
H72 C52 0.932 . S
H73 C53 0.930 . S
H74 C54 0.929 . S
H75 C56 0.930 . S
H76 C58 0.932 . S
H77 C59 0.929 . S
H78 C60 0.928 . S
H79 C62 0.932 . S
C80 C81 1.264 . S
C80 C85 1.479 . S
C80 C90 1.465 . S
C81 C80 1.264 . S
C81 C83 1.339 . S
C81 H108 0.931 . S
C82 C83 1.395 . S
C82 C84 1.320 . S
C83 C81 1.339 . S
C83 C82 1.395 . S
C83 H109 0.929 . S
C84 C82 1.320 . S
C84 C85 1.405 . S
C84 H110 0.930 . S
C85 C80 1.479 . S
C85 C84 1.405 . S
C85 H111 0.931 . S
U86 O87 2.454 . S
U86 O88 2.458 . S
U86 C89 2.984 . S
U86 C90 2.847 . S
U86 C103 2.882 . S
U86 O104 2.441 . S
U86 O105 2.420 . S
U86 O106 2.455 . S
U86 O107 2.449 . S
O87 U86 2.454 . S
O87 C89 1.353 . S
O88 U86 2.458 . S
O88 C89 1.286 . S
C89 U86 2.984 . S
C89 O87 1.353 . S
C89 O88 1.286 . S
C89 C91 1.363 . S
C90 C80 1.465 . S
C90 U86 2.847 . S
C90 O104 1.249 . S
C90 O105 1.202 . S
C91 C89 1.363 . S
C91 C93 1.408 . S
C91 C96 1.342 . S
C92 C93 1.310 . S
C92 C95 1.461 . S
C92 H112 0.932 . S
C93 C91 1.408 . S
C93 C92 1.310 . S
C93 H113 0.930 . S
C94 C95 1.474 . S
C94 C96 1.285 . S
C94 H114 0.929 . S
C95 C92 1.461 . S
C95 C94 1.474 . S
C96 C91 1.342 . S
C96 C94 1.285 . S
C96 H115 0.930 . S
C97 C100 1.424 . S
C97 C102 1.245 . S
C97 C103 1.428 . S
C98 C101 1.260 . S
C98 C102 1.477 . S
C98 H116 0.932 . S
C99 C100 1.384 . S
C99 C101 1.479 . S
C99 H117 0.929 . S
C100 C97 1.424 . S
C100 C99 1.384 . S
C100 H118 0.928 . S
C101 C98 1.260 . S
C101 C99 1.479 . S
C102 C97 1.245 . S
C102 C98 1.477 . S
C102 H119 0.932 . S
C103 U86 2.882 . S
C103 C97 1.428 . S
C103 O106 1.301 . S
C103 O107 1.282 . S
O104 U86 2.441 . S
O104 C90 1.249 . S
O105 U86 2.420 . S
O105 C90 1.202 . S
O106 U86 2.455 . S
O106 C103 1.301 . S
O107 U86 2.449 . S
O107 C103 1.282 . S
H108 C81 0.931 . S
H109 C83 0.929 . S
H110 C84 0.930 . S
H111 C85 0.931 . S
H112 C92 0.932 . S
H113 C93 0.930 . S
H114 C94 0.929 . S
H115 C96 0.930 . S
H116 C98 0.932 . S
H117 C99 0.929 . S
H118 C100 0.928 . S
H119 C102 0.932 . S
C120 C121 1.264 . S
C120 C125 1.479 . S
C120 C130 1.465 . S
C121 C120 1.264 . S
C121 C123 1.339 . S
C121 H148 0.931 . S
C122 C123 1.395 . S
C122 C124 1.320 . S
C123 C121 1.339 . S
C123 C122 1.395 . S
C123 H149 0.929 . S
C124 C122 1.320 . S
C124 C125 1.405 . S
C124 H150 0.930 . S
C125 C120 1.479 . S
C125 C124 1.405 . S
C125 H151 0.931 . S
U126 O127 2.454 . S
U126 O128 2.458 . S
U126 C129 2.984 . S
U126 C130 2.847 . S
U126 C143 2.882 . S
U126 O144 2.441 . S
U126 O145 2.420 . S
U126 O146 2.455 . S
U126 O147 2.449 . S
O127 U126 2.454 . S
O127 C129 1.353 . S
O128 U126 2.458 . S
O128 C129 1.286 . S
C129 U126 2.984 . S
C129 O127 1.353 . S
C129 O128 1.286 . S
C129 C131 1.363 . S
C130 C120 1.465 . S
C130 U126 2.847 . S
C130 O144 1.249 . S
C130 O145 1.202 . S
C131 C129 1.363 . S
C131 C133 1.408 . S
C131 C136 1.342 . S
C132 C133 1.310 . S
C132 C135 1.461 . S
C132 H152 0.932 . S
C133 C131 1.408 . S
C133 C132 1.310 . S
C133 H153 0.930 . S
C134 C135 1.474 . S
C134 C136 1.285 . S
C134 H154 0.929 . S
C135 C132 1.461 . S
C135 C134 1.474 . S
C136 C131 1.342 . S
C136 C134 1.285 . S
C136 H155 0.930 . S
C137 C140 1.424 . S
C137 C142 1.245 . S
C137 C143 1.428 . S
C138 C141 1.260 . S
C138 C142 1.477 . S
C138 H156 0.932 . S
C139 C140 1.384 . S
C139 C141 1.479 . S
C139 H157 0.929 . S
C140 C137 1.424 . S
C140 C139 1.384 . S
C140 H158 0.928 . S
C141 C138 1.260 . S
C141 C139 1.479 . S
C142 C137 1.245 . S
C142 C138 1.477 . S
C142 H159 0.932 . S
C143 U126 2.882 . S
C143 C137 1.428 . S
C143 O146 1.301 . S
C143 O147 1.282 . S
O144 U126 2.441 . S
O144 C130 1.249 . S
O145 U126 2.420 . S
O145 C130 1.202 . S
O146 U126 2.455 . S
O146 C143 1.301 . S
O147 U126 2.449 . S
O147 C143 1.282 . S
H148 C121 0.931 . S
H149 C123 0.929 . S
H150 C124 0.930 . S
H151 C125 0.931 . S
H152 C132 0.932 . S
H153 C133 0.930 . S
H154 C134 0.929 . S
H155 C136 0.930 . S
H156 C138 0.932 . S
H157 C139 0.929 . S
H158 C140 0.928 . S
H159 C142 0.932 . S
C160 C161 1.264 . S
C160 C165 1.479 . S
C160 C170 1.465 . S
C161 C160 1.264 . S
C161 C163 1.339 . S
C161 H188 0.931 . S
C162 C163 1.395 . S
C162 C164 1.320 . S
C163 C161 1.339 . S
C163 C162 1.395 . S
C163 H189 0.929 . S
C164 C162 1.320 . S
C164 C165 1.405 . S
C164 H190 0.930 . S
C165 C160 1.479 . S
C165 C164 1.405 . S
C165 H191 0.931 . S
U166 O167 2.454 . S
U166 O168 2.458 . S
U166 C169 2.984 . S
U166 C170 2.847 . S
U166 C183 2.882 . S
U166 O184 2.441 . S
U166 O185 2.420 . S
U166 O186 2.455 . S
U166 O187 2.449 . S
O167 U166 2.454 . S
O167 C169 1.353 . S
O168 U166 2.458 . S
O168 C169 1.286 . S
C169 U166 2.984 . S
C169 O167 1.353 . S
C169 O168 1.286 . S
C169 C171 1.363 . S
C170 C160 1.465 . S
C170 U166 2.847 . S
C170 O184 1.249 . S
C170 O185 1.202 . S
C171 C169 1.363 . S
C171 C173 1.408 . S
C171 C176 1.342 . S
C172 C173 1.310 . S
C172 C175 1.461 . S
C172 H192 0.932 . S
C173 C171 1.408 . S
C173 C172 1.310 . S
C173 H193 0.930 . S
C174 C175 1.474 . S
C174 C176 1.285 . S
C174 H194 0.929 . S
C175 C172 1.461 . S
C175 C174 1.474 . S
C176 C171 1.342 . S
C176 C174 1.285 . S
C176 H195 0.930 . S
C177 C180 1.424 . S
C177 C182 1.245 . S
C177 C183 1.428 . S
C178 C181 1.260 . S
C178 C182 1.477 . S
C178 H196 0.932 . S
C179 C180 1.384 . S
C179 C181 1.479 . S
C179 H197 0.929 . S
C180 C177 1.424 . S
C180 C179 1.384 . S
C180 H198 0.928 . S
C181 C178 1.260 . S
C181 C179 1.479 . S
C182 C177 1.245 . S
C182 C178 1.477 . S
C182 H199 0.932 . S
C183 U166 2.882 . S
C183 C177 1.428 . S
C183 O186 1.301 . S
C183 O187 1.282 . S
O184 U166 2.441 . S
O184 C170 1.249 . S
O185 U166 2.420 . S
O185 C170 1.202 . S
O186 U166 2.455 . S
O186 C183 1.301 . S
O187 U166 2.449 . S
O187 C183 1.282 . S
H188 C161 0.931 . S
H189 C163 0.929 . S
H190 C164 0.930 . S
H191 C165 0.931 . S
H192 C172 0.932 . S
H193 C173 0.930 . S
H194 C174 0.929 . S
H195 C176 0.930 . S
H196 C178 0.932 . S
H197 C179 0.929 . S
H198 C180 0.928 . S
H199 C182 0.932 . S
C200 C201 1.264 . S
C200 C205 1.479 . S
C200 C210 1.465 . S
C201 C200 1.264 . S
C201 C203 1.339 . S
C201 H228 0.931 . S
C202 C203 1.395 . S
C202 C204 1.320 . S
C203 C201 1.339 . S
C203 C202 1.395 . S
C203 H229 0.929 . S
C204 C202 1.320 . S
C204 C205 1.405 . S
C204 H230 0.930 . S
C205 C200 1.479 . S
C205 C204 1.405 . S
C205 H231 0.931 . S
U206 O207 2.454 . S
U206 O208 2.458 . S
U206 C209 2.984 . S
U206 C210 2.847 . S
U206 C223 2.882 . S
U206 O224 2.441 . S
U206 O225 2.420 . S
U206 O226 2.455 . S
U206 O227 2.449 . S
O207 U206 2.454 . S
O207 C209 1.353 . S
O208 U206 2.458 . S
O208 C209 1.286 . S
C209 U206 2.984 . S
C209 O207 1.353 . S
C209 O208 1.286 . S
C209 C211 1.363 . S
C210 C200 1.465 . S
C210 U206 2.847 . S
C210 O224 1.249 . S
C210 O225 1.202 . S
C211 C209 1.363 . S
C211 C213 1.408 . S
C211 C216 1.342 . S
C212 C213 1.310 . S
C212 C215 1.461 . S
C212 H232 0.932 . S
C213 C211 1.408 . S
C213 C212 1.310 . S
C213 H233 0.930 . S
C214 C215 1.474 . S
C214 C216 1.285 . S
C214 H234 0.929 . S
C215 C212 1.461 . S
C215 C214 1.474 . S
C216 C211 1.342 . S
C216 C214 1.285 . S
C216 H235 0.930 . S
C217 C220 1.424 . S
C217 C222 1.245 . S
C217 C223 1.428 . S
C218 C221 1.260 . S
C218 C222 1.477 . S
C218 H236 0.932 . S
C219 C220 1.384 . S
C219 C221 1.479 . S
C219 H237 0.929 . S
C220 C217 1.424 . S
C220 C219 1.384 . S
C220 H238 0.928 . S
C221 C218 1.260 . S
C221 C219 1.479 . S
C222 C217 1.245 . S
C222 C218 1.477 . S
C222 H239 0.932 . S
C223 U206 2.882 . S
C223 C217 1.428 . S
C223 O226 1.301 . S
C223 O227 1.282 . S
O224 U206 2.441 . S
O224 C210 1.249 . S
O225 U206 2.420 . S
O225 C210 1.202 . S
O226 U206 2.455 . S
O226 C223 1.301 . S
O227 U206 2.449 . S
O227 C223 1.282 . S
H228 C201 0.931 . S
H229 C203 0.929 . S
H230 C204 0.930 . S
H231 C205 0.931 . S
H232 C212 0.932 . S
H233 C213 0.930 . S
H234 C214 0.929 . S
H235 C216 0.930 . S
H236 C218 0.932 . S
H237 C219 0.929 . S
H238 C220 0.928 . S
H239 C222 0.932 . S
C240 C241 1.264 . S
C240 C245 1.479 . S
C240 C250 1.465 . S
C241 C240 1.264 . S
C241 C243 1.339 . S
C241 H268 0.931 . S
C242 C243 1.395 . S
C242 C244 1.320 . S
C243 C241 1.339 . S
C243 C242 1.395 . S
C243 H269 0.929 . S
C244 C242 1.320 . S
C244 C245 1.405 . S
C244 H270 0.930 . S
C245 C240 1.479 . S
C245 C244 1.405 . S
C245 H271 0.931 . S
U246 O247 2.454 . S
U246 O248 2.458 . S
U246 C249 2.984 . S
U246 C250 2.847 . S
U246 C263 2.882 . S
U246 O264 2.441 . S
U246 O265 2.420 . S
U246 O266 2.455 . S
U246 O267 2.449 . S
O247 U246 2.454 . S
O247 C249 1.353 . S
O248 U246 2.458 . S
O248 C249 1.286 . S
C249 U246 2.984 . S
C249 O247 1.353 . S
C249 O248 1.286 . S
C249 C251 1.363 . S
C250 C240 1.465 . S
C250 U246 2.847 . S
C250 O264 1.249 . S
C250 O265 1.202 . S
C251 C249 1.363 . S
C251 C253 1.408 . S
C251 C256 1.342 . S
C252 C253 1.310 . S
C252 C255 1.461 . S
C252 H272 0.932 . S
C253 C251 1.408 . S
C253 C252 1.310 . S
C253 H273 0.930 . S
C254 C255 1.474 . S
C254 C256 1.285 . S
C254 H274 0.929 . S
C255 C252 1.461 . S
C255 C254 1.474 . S
C256 C251 1.342 . S
C256 C254 1.285 . S
C256 H275 0.930 . S
C257 C260 1.424 . S
C257 C262 1.245 . S
C257 C263 1.428 . S
C258 C261 1.260 . S
C258 C262 1.477 . S
C258 H276 0.932 . S
C259 C260 1.384 . S
C259 C261 1.479 . S
C259 H277 0.929 . S
C260 C257 1.424 . S
C260 C259 1.384 . S
C260 H278 0.928 . S
C261 C258 1.260 . S
C261 C259 1.479 . S
C262 C257 1.245 . S
C262 C258 1.477 . S
C262 H279 0.932 . S
C263 U246 2.882 . S
C263 C257 1.428 . S
C263 O266 1.301 . S
C263 O267 1.282 . S
O264 U246 2.441 . S
O264 C250 1.249 . S
O265 U246 2.420 . S
O265 C250 1.202 . S
O266 U246 2.455 . S
O266 C263 1.301 . S
O267 U246 2.449 . S
O267 C263 1.282 . S
H268 C241 0.931 . S
H269 C243 0.929 . S
H270 C244 0.930 . S
H271 C245 0.931 . S
H272 C252 0.932 . S
H273 C253 0.930 . S
H274 C254 0.929 . S
H275 C256 0.930 . S
H276 C258 0.932 . S
H277 C259 0.929 . S
H278 C260 0.928 . S
H279 C262 0.932 . S
C280 C281 1.264 . S
C280 C285 1.479 . S
C280 C290 1.465 . S
C281 C280 1.264 . S
C281 C283 1.339 . S
C281 H308 0.931 . S
C282 C283 1.395 . S
C282 C284 1.320 . S
C283 C281 1.339 . S
C283 C282 1.395 . S
C283 H309 0.929 . S
C284 C282 1.320 . S
C284 C285 1.405 . S
C284 H310 0.930 . S
C285 C280 1.479 . S
C285 C284 1.405 . S
C285 H311 0.931 . S
U286 O287 2.454 . S
U286 O288 2.458 . S
U286 C289 2.984 . S
U286 C290 2.847 . S
U286 C303 2.882 . S
U286 O304 2.441 . S
U286 O305 2.420 . S
U286 O306 2.455 . S
U286 O307 2.449 . S
O287 U286 2.454 . S
O287 C289 1.353 . S
O288 U286 2.458 . S
O288 C289 1.286 . S
C289 U286 2.984 . S
C289 O287 1.353 . S
C289 O288 1.286 . S
C289 C291 1.363 . S
C290 C280 1.465 . S
C290 U286 2.847 . S
C290 O304 1.249 . S
C290 O305 1.202 . S
C291 C289 1.363 . S
C291 C293 1.408 . S
C291 C296 1.342 . S
C292 C293 1.310 . S
C292 C295 1.461 . S
C292 H312 0.932 . S
C293 C291 1.408 . S
C293 C292 1.310 . S
C293 H313 0.930 . S
C294 C295 1.474 . S
C294 C296 1.285 . S
C294 H314 0.929 . S
C295 C292 1.461 . S
C295 C294 1.474 . S
C296 C291 1.342 . S
C296 C294 1.285 . S
C296 H315 0.930 . S
C297 C300 1.424 . S
C297 C302 1.245 . S
C297 C303 1.428 . S
C298 C301 1.260 . S
C298 C302 1.477 . S
C298 H316 0.932 . S
C299 C300 1.384 . S
C299 C301 1.479 . S
C299 H317 0.929 . S
C300 C297 1.424 . S
C300 C299 1.384 . S
C300 H318 0.928 . S
C301 C298 1.260 . S
C301 C299 1.479 . S
C302 C297 1.245 . S
C302 C298 1.477 . S
C302 H319 0.932 . S
C303 U286 2.882 . S
C303 C297 1.428 . S
C303 O306 1.301 . S
C303 O307 1.282 . S
O304 U286 2.441 . S
O304 C290 1.249 . S
O305 U286 2.420 . S
O305 C290 1.202 . S
O306 U286 2.455 . S
O306 C303 1.301 . S
O307 U286 2.449 . S
O307 C303 1.282 . S
H308 C281 0.931 . S
H309 C283 0.929 . S
H310 C284 0.930 . S
H311 C285 0.931 . S
H312 C292 0.932 . S
H313 C293 0.930 . S
H314 C294 0.929 . S
H315 C296 0.930 . S
H316 C298 0.932 . S
H317 C299 0.929 . S
H318 C300 0.928 . S
H319 C302 0.932 . S
H320 C339 0.949 . S
H321 C340 0.950 . S
H322 C342 0.950 . S
H323 C343 0.950 . S
H324 C345 0.950 . S
H325 C348 0.950 . S
H326 C349 0.950 . S
H327 C351 0.951 . S
H328 C352 0.949 . S
H329 C354 0.949 . S
H330 C355 0.950 . S
H331 C357 0.950 . S
H332 C358 0.950 . S
H333 C360 0.950 . S
H334 C363 0.950 . S
H335 C364 0.950 . S
H336 C366 0.951 . S
H337 C367 0.949 . S
C338 C339 1.376 . S
C338 C343 1.386 . S
C338 C344 1.483 . S
C339 H320 0.949 . S
C339 C338 1.376 . S
C339 C340 1.397 . S
C340 H321 0.950 . S
C340 C339 1.397 . S
C340 C341 1.391 . S
C341 C340 1.391 . S
C341 C342 1.405 . S
C342 H322 0.950 . S
C342 C341 1.405 . S
C342 C343 1.367 . S
C343 H323 0.950 . S
C343 C338 1.386 . S
C343 C342 1.367 . S
C344 C338 1.483 . S
C344 C345 1.382 . S
C344 C346 1.403 1_655 S
C345 H324 0.950 . S
C345 C344 1.382 . S
C345 C361 1.411 . S
C346 C344 1.403 1_455 S
C346 C347 1.489 . S
C346 C360 1.411 . S
C347 C346 1.489 . S
C347 C348 1.383 . S
C347 C352 1.382 . S
C348 H325 0.950 . S
C348 C347 1.383 . S
C348 C349 1.395 . S
C349 H326 0.950 . S
C349 C348 1.395 . S
C349 C350 1.288 . S
C350 C349 1.288 . S
C350 C351 1.392 . S
C351 H327 0.951 . S
C351 C350 1.392 . S
C351 C352 1.392 . S
C352 H328 0.949 . S
C352 C347 1.382 . S
C352 C351 1.392 . S
C353 C354 1.376 . S
C353 C358 1.386 . S
C353 C359 1.483 . S
C354 H329 0.949 . S
C354 C353 1.376 . S
C354 C355 1.397 . S
C355 H330 0.950 . S
C355 C354 1.397 . S
C355 C356 1.391 . S
C356 C355 1.391 . S
C356 C357 1.405 . S
C357 H331 0.950 . S
C357 C356 1.405 . S
C357 C358 1.367 . S
C358 H332 0.950 . S
C358 C353 1.386 . S
C358 C357 1.367 . S
C359 C353 1.483 . S
C359 C360 1.382 . S
C359 C361 1.403 1_455 S
C360 H333 0.950 . S
C360 C346 1.411 . S
C360 C359 1.382 . S
C361 C345 1.411 . S
C361 C359 1.403 1_655 S
C361 C362 1.489 . S
C362 C361 1.489 . S
C362 C363 1.383 . S
C362 C367 1.382 . S
C363 H334 0.950 . S
C363 C362 1.383 . S
C363 C364 1.395 . S
C364 H335 0.950 . S
C364 C363 1.395 . S
C364 C365 1.288 . S
C365 C364 1.288 . S
C365 C366 1.392 . S
C366 H336 0.951 . S
C366 C365 1.392 . S
C366 C367 1.392 . S
C367 H337 0.949 . S
C367 C362 1.382 . S
C367 C366 1.392 . S
H368 C387 0.949 . S
H369 C388 0.950 . S
H370 C390 0.950 . S
H371 C391 0.950 . S
H372 C393 0.950 . S
H373 C396 0.950 . S
H374 C397 0.950 . S
H375 C399 0.951 . S
H376 C400 0.949 . S
H377 C402 0.949 . S
H378 C403 0.950 . S
H379 C405 0.950 . S
H380 C406 0.950 . S
H381 C408 0.950 . S
H382 C411 0.950 . S
H383 C412 0.950 . S
H384 C414 0.951 . S
H385 C415 0.949 . S
C386 C387 1.376 . S
C386 C391 1.386 . S
C386 C392 1.483 . S
C387 H368 0.949 . S
C387 C386 1.376 . S
C387 C388 1.397 . S
C388 H369 0.950 . S
C388 C387 1.397 . S
C388 C389 1.391 . S
C389 C388 1.391 . S
C389 C390 1.405 . S
C390 H370 0.950 . S
C390 C389 1.405 . S
C390 C391 1.367 . S
C391 H371 0.950 . S
C391 C386 1.386 . S
C391 C390 1.367 . S
C392 C386 1.483 . S
C392 C393 1.382 . S
C392 C394 1.403 1_455 S
C393 H372 0.950 . S
C393 C392 1.382 . S
C393 C409 1.411 . S
C394 C392 1.403 1_655 S
C394 C395 1.489 . S
C394 C408 1.411 . S
C395 C394 1.489 . S
C395 C396 1.383 . S
C395 C400 1.382 . S
C396 H373 0.950 . S
C396 C395 1.383 . S
C396 C397 1.395 . S
C397 H374 0.950 . S
C397 C396 1.395 . S
C397 C398 1.288 . S
C398 C397 1.288 . S
C398 C399 1.392 . S
C399 H375 0.951 . S
C399 C398 1.392 . S
C399 C400 1.392 . S
C400 H376 0.949 . S
C400 C395 1.382 . S
C400 C399 1.392 . S
C401 C402 1.376 . S
C401 C406 1.386 . S
C401 C407 1.483 . S
C402 H377 0.949 . S
C402 C401 1.376 . S
C402 C403 1.397 . S
C403 H378 0.950 . S
C403 C402 1.397 . S
C403 C404 1.391 . S
C404 C403 1.391 . S
C404 C405 1.405 . S
C405 H379 0.950 . S
C405 C404 1.405 . S
C405 C406 1.367 . S
C406 H380 0.950 . S
C406 C401 1.386 . S
C406 C405 1.367 . S
C407 C401 1.483 . S
C407 C408 1.382 . S
C407 C409 1.403 1_655 S
C408 H381 0.950 . S
C408 C394 1.411 . S
C408 C407 1.382 . S
C409 C393 1.411 . S
C409 C407 1.403 1_455 S
C409 C410 1.489 . S
C410 C409 1.489 . S
C410 C411 1.383 . S
C410 C415 1.382 . S
C411 H382 0.950 . S
C411 C410 1.383 . S
C411 C412 1.395 . S
C412 H383 0.950 . S
C412 C411 1.395 . S
C412 C413 1.288 . S
C413 C412 1.288 . S
C413 C414 1.392 . S
C414 H384 0.951 . S
C414 C413 1.392 . S
C414 C415 1.392 . S
C415 H385 0.949 . S
C415 C410 1.382 . S
C415 C414 1.392 . S
H416 C435 0.949 . S
H417 C436 0.950 . S
H418 C438 0.950 . S
H419 C439 0.950 . S
H420 C441 0.950 . S
H421 C444 0.950 . S
H422 C445 0.950 . S
H423 C447 0.951 . S
H424 C448 0.949 . S
H425 C450 0.949 . S
H426 C451 0.950 . S
H427 C453 0.950 . S
H428 C454 0.950 . S
H429 C456 0.950 . S
H430 C459 0.950 . S
H431 C460 0.950 . S
H432 C462 0.951 . S
H433 C463 0.949 . S
C434 C435 1.376 . S
C434 C439 1.386 . S
C434 C440 1.483 . S
C435 H416 0.949 . S
C435 C434 1.376 . S
C435 C436 1.397 . S
C436 H417 0.950 . S
C436 C435 1.397 . S
C436 C437 1.391 . S
C437 C436 1.391 . S
C437 C438 1.405 . S
C438 H418 0.950 . S
C438 C437 1.405 . S
C438 C439 1.367 . S
C439 H419 0.950 . S
C439 C434 1.386 . S
C439 C438 1.367 . S
C440 C434 1.483 . S
C440 C441 1.382 1_565 S
C440 C442 1.403 . S
C441 H420 0.950 . S
C441 C440 1.382 1_545 S
C441 C457 1.411 . S
C442 C440 1.403 . S
C442 C443 1.489 . S
C442 C456 1.411 1_565 S
C443 C442 1.489 . S
C443 C444 1.383 . S
C443 C448 1.382 . S
C444 H421 0.950 . S
C444 C443 1.383 . S
C444 C445 1.395 . S
C445 H422 0.950 . S
C445 C444 1.395 . S
C445 C446 1.288 . S
C446 C445 1.288 . S
C446 C447 1.392 . S
C447 H423 0.951 . S
C447 C446 1.392 . S
C447 C448 1.392 . S
C448 H424 0.949 . S
C448 C443 1.382 . S
C448 C447 1.392 . S
C449 C450 1.376 . S
C449 C454 1.386 . S
C449 C455 1.483 . S
C450 H425 0.949 . S
C450 C449 1.376 . S
C450 C451 1.397 . S
C451 H426 0.950 . S
C451 C450 1.397 . S
C451 C452 1.391 . S
C452 C451 1.391 . S
C452 C453 1.405 . S
C453 H427 0.950 . S
C453 C452 1.405 . S
C453 C454 1.367 . S
C454 H428 0.950 . S
C454 C449 1.386 . S
C454 C453 1.367 . S
C455 C449 1.483 . S
C455 C456 1.382 . S
C455 C457 1.403 . S
C456 H429 0.950 . S
C456 C442 1.411 1_545 S
C456 C455 1.382 . S
C457 C441 1.411 . S
C457 C455 1.403 . S
C457 C458 1.489 . S
C458 C457 1.489 . S
C458 C459 1.383 . S
C458 C463 1.382 . S
C459 H430 0.950 . S
C459 C458 1.383 . S
C459 C460 1.395 . S
C460 H431 0.950 . S
C460 C459 1.395 . S
C460 C461 1.288 . S
C461 C460 1.288 . S
C461 C462 1.392 . S
C462 H432 0.951 . S
C462 C461 1.392 . S
C462 C463 1.392 . S
C463 H433 0.949 . S
C463 C458 1.382 . S
C463 C462 1.392 . S
H464 C483 0.949 . S
H465 C484 0.950 . S
H466 C486 0.950 . S
H467 C487 0.950 . S
H468 C489 0.950 . S
H469 C492 0.950 . S
H470 C493 0.950 . S
H471 C495 0.951 . S
H472 C496 0.949 . S
H473 C498 0.949 . S
H474 C499 0.950 . S
H475 C501 0.950 . S
H476 C502 0.950 . S
H477 C504 0.950 . S
H478 C507 0.950 . S
H479 C508 0.950 . S
H480 C510 0.951 . S
H481 C511 0.949 . S
C482 C483 1.376 . S
C482 C487 1.386 . S
C482 C488 1.483 . S
C483 H464 0.949 . S
C483 C482 1.376 . S
C483 C484 1.397 . S
C484 H465 0.950 . S
C484 C483 1.397 . S
C484 C485 1.391 . S
C485 C484 1.391 . S
C485 C486 1.405 . S
C486 H466 0.950 . S
C486 C485 1.405 . S
C486 C487 1.367 . S
C487 H467 0.950 . S
C487 C482 1.386 . S
C487 C486 1.367 . S
C488 C482 1.483 . S
C488 C489 1.382 1_556 S
C488 C490 1.403 . S
C489 H468 0.950 . S
C489 C488 1.382 1_554 S
C489 C505 1.411 . S
C490 C488 1.403 . S
C490 C491 1.489 . S
C490 C504 1.411 1_556 S
C491 C490 1.489 . S
C491 C492 1.383 . S
C491 C496 1.382 . S
C492 H469 0.950 . S
C492 C491 1.383 . S
C492 C493 1.395 . S
C493 H470 0.950 . S
C493 C492 1.395 . S
C493 C494 1.288 . S
C494 C493 1.288 . S
C494 C495 1.392 . S
C495 H471 0.951 . S
C495 C494 1.392 . S
C495 C496 1.392 . S
C496 H472 0.949 . S
C496 C491 1.382 . S
C496 C495 1.392 . S
C497 C498 1.376 . S
C497 C502 1.386 . S
C497 C503 1.483 . S
C498 H473 0.949 . S
C498 C497 1.376 . S
C498 C499 1.397 . S
C499 H474 0.950 . S
C499 C498 1.397 . S
C499 C500 1.391 . S
C500 C499 1.391 . S
C500 C501 1.405 . S
C501 H475 0.950 . S
C501 C500 1.405 . S
C501 C502 1.367 . S
C502 H476 0.950 . S
C502 C497 1.386 . S
C502 C501 1.367 . S
C503 C497 1.483 . S
C503 C504 1.382 . S
C503 C505 1.403 . S
C504 H477 0.950 . S
C504 C490 1.411 1_554 S
C504 C503 1.382 . S
C505 C489 1.411 . S
C505 C503 1.403 . S
C505 C506 1.489 . S
C506 C505 1.489 . S
C506 C507 1.383 . S
C506 C511 1.382 . S
C507 H478 0.950 . S
C507 C506 1.383 . S
C507 C508 1.395 . S
C508 H479 0.950 . S
C508 C507 1.395 . S
C508 C509 1.288 . S
C509 C508 1.288 . S
C509 C510 1.392 . S
C510 H480 0.951 . S
C510 C509 1.392 . S
C510 C511 1.392 . S
C511 H481 0.949 . S
C511 C506 1.382 . S
C511 C510 1.392 . S
H512 C531 0.949 . S
H513 C532 0.950 . S
H514 C534 0.950 . S
H515 C535 0.950 . S
H516 C537 0.952 . S
H517 C540 0.950 . S
H518 C541 0.950 . S
H519 C543 0.951 . S
H520 C544 0.949 . S
H521 C546 0.949 . S
H522 C547 0.950 . S
H523 C549 0.950 . S
H524 C550 0.950 . S
H525 C552 0.950 . S
H526 C555 0.950 . S
H527 C556 0.950 . S
H528 C558 0.951 . S
H529 C559 0.949 . S
C530 C531 1.376 . S
C530 C535 1.386 . S
C530 C536 1.483 . S
C531 H512 0.949 . S
C531 C530 1.376 . S
C531 C532 1.397 . S
C532 H513 0.950 . S
C532 C531 1.397 . S
C532 C533 1.391 . S
C533 C532 1.391 . S
C533 C534 1.405 . S
C534 H514 0.950 . S
C534 C533 1.405 . S
C534 C535 1.367 . S
C535 H515 0.950 . S
C535 C530 1.386 . S
C535 C534 1.367 . S
C536 C530 1.483 . S
C536 C537 1.382 1_565 S
C536 C538 1.403 . S
C537 H516 0.952 . S
C537 C536 1.382 1_545 S
C537 C553 1.411 . S
C538 C536 1.403 . S
C538 C539 1.489 . S
C538 C552 1.411 1_565 S
C539 C538 1.489 . S
C539 C540 1.383 . S
C539 C544 1.382 . S
C540 H517 0.950 . S
C540 C539 1.383 . S
C540 C541 1.395 . S
C541 H518 0.950 . S
C541 C540 1.395 . S
C541 C542 1.288 . S
C542 C541 1.288 . S
C542 C543 1.392 . S
C543 H519 0.951 . S
C543 C542 1.392 . S
C543 C544 1.392 . S
C544 H520 0.949 . S
C544 C539 1.382 . S
C544 C543 1.392 . S
C545 C546 1.376 . S
C545 C550 1.386 . S
C545 C551 1.483 . S
C546 H521 0.949 . S
C546 C545 1.376 . S
C546 C547 1.397 . S
C547 H522 0.950 . S
C547 C546 1.397 . S
C547 C548 1.391 . S
C548 C547 1.391 . S
C548 C549 1.405 . S
C549 H523 0.950 . S
C549 C548 1.405 . S
C549 C550 1.367 . S
C550 H524 0.950 . S
C550 C545 1.386 . S
C550 C549 1.367 . S
C551 C545 1.483 . S
C551 C552 1.382 . S
C551 C553 1.403 . S
C552 H525 0.950 . S
C552 C538 1.411 1_545 S
C552 C551 1.382 . S
C553 C537 1.411 . S
C553 C551 1.403 . S
C553 C554 1.489 . S
C554 C553 1.489 . S
C554 C555 1.383 . S
C554 C559 1.382 . S
C555 H526 0.950 . S
C555 C554 1.383 . S
C555 C556 1.395 . S
C556 H527 0.950 . S
C556 C555 1.395 . S
C556 C557 1.288 . S
C557 C556 1.288 . S
C557 C558 1.392 . S
C558 H528 0.951 . S
C558 C557 1.392 . S
C558 C559 1.392 . S
C559 H529 0.949 . S
C559 C554 1.382 . S
C559 C558 1.392 . S
H560 C579 0.949 . S
H561 C580 0.950 . S
H562 C582 0.950 . S
H563 C583 0.950 . S
H564 C585 0.950 . S
H565 C588 0.950 . S
H566 C589 0.950 . S
H567 C591 0.951 . S
H568 C592 0.949 . S
H569 C594 0.949 . S
H570 C595 0.950 . S
H571 C597 0.950 . S
H572 C598 0.950 . S
H573 C600 0.950 . S
H574 C603 0.950 . S
H575 C604 0.950 . S
H576 C606 0.951 . S
H577 C607 0.949 . S
C578 C579 1.376 . S
C578 C583 1.386 . S
C578 C584 1.483 . S
C579 H560 0.949 . S
C579 C578 1.376 . S
C579 C580 1.397 . S
C580 H561 0.950 . S
C580 C579 1.397 . S
C580 C581 1.391 . S
C581 C580 1.391 . S
C581 C582 1.405 . S
C582 H562 0.950 . S
C582 C581 1.405 . S
C582 C583 1.367 . S
C583 H563 0.950 . S
C583 C578 1.386 . S
C583 C582 1.367 . S
C584 C578 1.483 . S
C584 C585 1.382 1_556 S
C584 C586 1.403 . S
C585 H564 0.950 . S
C585 C584 1.382 1_554 S
C585 C601 1.411 . S
C586 C584 1.403 . S
C586 C587 1.489 . S
C586 C600 1.411 1_556 S
C587 C586 1.489 . S
C587 C588 1.383 . S
C587 C592 1.382 . S
C588 H565 0.950 . S
C588 C587 1.383 . S
C588 C589 1.395 . S
C589 H566 0.950 . S
C589 C588 1.395 . S
C589 C590 1.288 . S
C590 C589 1.288 . S
C590 C591 1.392 . S
C591 H567 0.951 . S
C591 C590 1.392 . S
C591 C592 1.392 . S
C592 H568 0.949 . S
C592 C587 1.382 . S
C592 C591 1.392 . S
C593 C594 1.376 . S
C593 C598 1.386 . S
C593 C599 1.483 . S
C594 H569 0.949 . S
C594 C593 1.376 . S
C594 C595 1.397 . S
C595 H570 0.950 . S
C595 C594 1.397 . S
C595 C596 1.391 . S
C596 C595 1.391 . S
C596 C597 1.405 . S
C597 H571 0.950 . S
C597 C596 1.405 . S
C597 C598 1.367 . S
C598 H572 0.950 . S
C598 C593 1.386 . S
C598 C597 1.367 . S
C599 C593 1.483 . S
C599 C600 1.382 . S
C599 C601 1.403 . S
C600 H573 0.950 . S
C600 C586 1.411 1_554 S
C600 C599 1.382 . S
C601 C585 1.411 . S
C601 C599 1.403 . S
C601 C602 1.489 . S
C602 C601 1.489 . S
C602 C603 1.383 . S
C602 C607 1.382 . S
C603 H574 0.950 . S
C603 C602 1.383 . S
C603 C604 1.395 . S
C604 H575 0.950 . S
C604 C603 1.395 . S
C604 C605 1.288 . S
C605 C604 1.288 . S
C605 C606 1.392 . S
C606 H576 0.951 . S
C606 C605 1.392 . S
C606 C607 1.392 . S
C607 H577 0.949 . S
C607 C602 1.382 . S
C607 C606 1.392 . S
C608 C609 1.391 . S
C608 C610 1.394 . S
C608 H624 0.931 . S
C609 C608 1.391 . S
C609 C613 1.376 . S
C610 C608 1.394 . S
C610 C611 1.369 . S
C610 C614 1.531 . S
C611 C610 1.369 . S
C611 C612 1.410 . S
C611 C619 1.503 . S
C612 C611 1.410 . S
C612 C613 1.392 . S
C612 C615 1.511 . S
C613 C609 1.376 . S
C613 C612 1.392 . S
C613 H625 0.929 . S
C614 C610 1.531 . S
C614 H626 0.960 . S
C614 H627 0.962 . S
C614 H628 0.960 . S
C615 C612 1.511 . S
C615 H629 0.961 . S
C615 H630 0.961 . S
C615 H631 0.961 . S
C616 C617 1.370 . S
C616 C618 1.363 . S
C616 H632 0.931 . S
C617 C616 1.370 . S
C617 C621 1.408 . S
C618 C616 1.363 . S
C618 C619 1.370 . S
C618 C622 1.524 . S
C619 C611 1.503 . S
C619 C618 1.370 . S
C619 C620 1.403 . S
C620 C619 1.403 . S
C620 C621 1.404 . S
C620 C623 1.539 . S
C621 C617 1.408 . S
C621 C620 1.404 . S
C621 H633 0.930 . S
C622 C618 1.524 . S
C622 H634 0.956 . S
C622 H635 0.961 . S
C622 H636 0.961 . S
C623 C620 1.539 . S
C623 H637 0.958 . S
C623 H638 0.961 . S
C623 H639 0.960 . S
H624 C608 0.931 . S
H625 C613 0.929 . S
H626 C614 0.960 . S
H627 C614 0.962 . S
H628 C614 0.960 . S
H629 C615 0.961 . S
H630 C615 0.961 . S
H631 C615 0.961 . S
H632 C616 0.931 . S
H633 C621 0.930 . S
H634 C622 0.956 . S
H635 C622 0.961 . S
H636 C622 0.961 . S
H637 C623 0.958 . S
H638 C623 0.961 . S
H639 C623 0.960 . S
C640 C641 1.391 . S
C640 C642 1.394 . S
C640 H656 0.931 . S
C641 C640 1.391 . S
C641 C645 1.376 . S
C642 C640 1.394 . S
C642 C643 1.369 . S
C642 C646 1.531 . S
C643 C642 1.369 . S
C643 C644 1.410 . S
C643 C651 1.503 . S
C644 C643 1.410 . S
C644 C645 1.392 . S
C644 C647 1.511 . S
C645 C641 1.376 . S
C645 C644 1.392 . S
C645 H657 0.929 . S
C646 C642 1.531 . S
C646 H658 0.960 . S
C646 H659 0.962 . S
C646 H660 0.960 . S
C647 C644 1.511 . S
C647 H661 0.961 . S
C647 H662 0.961 . S
C647 H663 0.961 . S
C648 C649 1.370 . S
C648 C650 1.363 . S
C648 H664 0.931 . S
C649 C648 1.370 . S
C649 C653 1.408 . S
C650 C648 1.363 . S
C650 C651 1.370 . S
C650 C654 1.524 . S
C651 C643 1.503 . S
C651 C650 1.370 . S
C651 C652 1.403 . S
C652 C651 1.403 . S
C652 C653 1.404 . S
C652 C655 1.539 . S
C653 C649 1.408 . S
C653 C652 1.404 . S
C653 H665 0.930 . S
C654 C650 1.524 . S
C654 H666 0.956 . S
C654 H667 0.961 . S
C654 H668 0.961 . S
C655 C652 1.539 . S
C655 H669 0.958 . S
C655 H670 0.961 . S
C655 H671 0.960 . S
H656 C640 0.931 . S
H657 C645 0.929 . S
H658 C646 0.960 . S
H659 C646 0.962 . S
H660 C646 0.960 . S
H661 C647 0.961 . S
H662 C647 0.961 . S
H663 C647 0.961 . S
H664 C648 0.931 . S
H665 C653 0.930 . S
H666 C654 0.956 . S
H667 C654 0.961 . S
H668 C654 0.961 . S
H669 C655 0.958 . S
H670 C655 0.961 . S
H671 C655 0.960 . S
C672 C673 1.391 . S
C672 C674 1.394 . S
C672 H688 0.931 . S
C673 C672 1.391 . S
C673 C677 1.376 . S
C674 C672 1.394 . S
C674 C675 1.369 . S
C674 C678 1.531 . S
C675 C674 1.369 . S
C675 C676 1.410 . S
C675 C683 1.503 . S
C676 C675 1.410 . S
C676 C677 1.392 . S
C676 C679 1.511 . S
C677 C673 1.376 . S
C677 C676 1.392 . S
C677 H689 0.929 . S
C678 C674 1.531 . S
C678 H690 0.960 . S
C678 H691 0.962 . S
C678 H692 0.960 . S
C679 C676 1.511 . S
C679 H693 0.961 . S
C679 H694 0.961 . S
C679 H695 0.961 . S
C680 C681 1.370 . S
C680 C682 1.363 . S
C680 H696 0.931 . S
C681 C680 1.370 . S
C681 C685 1.408 . S
C682 C680 1.363 . S
C682 C683 1.370 . S
C682 C686 1.524 . S
C683 C675 1.503 . S
C683 C682 1.370 . S
C683 C684 1.403 . S
C684 C683 1.403 . S
C684 C685 1.404 . S
C684 C687 1.539 . S
C685 C681 1.408 . S
C685 C684 1.404 . S
C685 H697 0.930 . S
C686 C682 1.524 . S
C686 H698 0.956 . S
C686 H699 0.961 . S
C686 H700 0.961 . S
C687 C684 1.539 . S
C687 H701 0.958 . S
C687 H702 0.961 . S
C687 H703 0.960 . S
H688 C672 0.931 . S
H689 C677 0.929 . S
H690 C678 0.960 . S
H691 C678 0.962 . S
H692 C678 0.960 . S
H693 C679 0.961 . S
H694 C679 0.961 . S
H695 C679 0.961 . S
H696 C680 0.931 . S
H697 C685 0.930 . S
H698 C686 0.956 . S
H699 C686 0.961 . S
H700 C686 0.961 . S
H701 C687 0.958 . S
H702 C687 0.961 . S
H703 C687 0.960 . S
C704 C705 1.391 . S
C704 C706 1.394 . S
C704 H720 0.931 . S
C705 C704 1.391 . S
C705 C709 1.376 . S
C706 C704 1.394 . S
C706 C707 1.369 . S
C706 C710 1.531 . S
C707 C706 1.369 . S
C707 C708 1.410 . S
C707 C715 1.503 . S
C708 C707 1.410 . S
C708 C709 1.392 . S
C708 C711 1.511 . S
C709 C705 1.376 . S
C709 C708 1.392 . S
C709 H721 0.929 . S
C710 C706 1.531 . S
C710 H722 0.960 . S
C710 H723 0.962 . S
C710 H724 0.960 . S
C711 C708 1.511 . S
C711 H725 0.961 . S
C711 H726 0.961 . S
C711 H727 0.961 . S
C712 C713 1.370 . S
C712 C714 1.363 . S
C712 H728 0.931 . S
C713 C712 1.370 . S
C713 C717 1.408 . S
C714 C712 1.363 . S
C714 C715 1.370 . S
C714 C718 1.524 . S
C715 C707 1.503 . S
C715 C714 1.370 . S
C715 C716 1.403 . S
C716 C715 1.403 . S
C716 C717 1.404 . S
C716 C719 1.539 . S
C717 C713 1.408 . S
C717 C716 1.404 . S
C717 H729 0.930 . S
C718 C714 1.524 . S
C718 H730 0.956 . S
C718 H731 0.961 . S
C718 H732 0.961 . S
C719 C716 1.539 . S
C719 H733 0.958 . S
C719 H734 0.961 . S
C719 H735 0.960 . S
H720 C704 0.931 . S
H721 C709 0.929 . S
H722 C710 0.960 . S
H723 C710 0.962 . S
H724 C710 0.960 . S
H725 C711 0.961 . S
H726 C711 0.961 . S
H727 C711 0.961 . S
H728 C712 0.931 . S
H729 C717 0.930 . S
H730 C718 0.956 . S
H731 C718 0.961 . S
H732 C718 0.961 . S
H733 C719 0.958 . S
H734 C719 0.961 . S
H735 C719 0.960 . S
C736 C737 1.391 . S
C736 C738 1.394 . S
C736 H752 0.931 . S
C737 C736 1.391 . S
C737 C741 1.376 . S
C738 C736 1.394 . S
C738 C739 1.369 . S
C738 C742 1.531 . S
C739 C738 1.369 . S
C739 C740 1.410 . S
C739 C747 1.503 . S
C740 C739 1.410 . S
C740 C741 1.392 . S
C740 C743 1.511 . S
C741 C737 1.376 . S
C741 C740 1.392 . S
C741 H753 0.929 . S
C742 C738 1.531 . S
C742 H754 0.960 . S
C742 H755 0.962 . S
C742 H756 0.960 . S
C743 C740 1.511 . S
C743 H757 0.961 . S
C743 H758 0.961 . S
C743 H759 0.961 . S
C744 C745 1.370 . S
C744 C746 1.363 . S
C744 H760 0.931 . S
C745 C744 1.370 . S
C745 C749 1.408 . S
C746 C744 1.363 . S
C746 C747 1.370 . S
C746 C750 1.524 . S
C747 C739 1.503 . S
C747 C746 1.370 . S
C747 C748 1.403 . S
C748 C747 1.403 . S
C748 C749 1.404 . S
C748 C751 1.539 . S
C749 C745 1.408 . S
C749 C748 1.404 . S
C749 H761 0.930 . S
C750 C746 1.524 . S
C750 H762 0.956 . S
C750 H763 0.961 . S
C750 H764 0.961 . S
C751 C748 1.539 . S
C751 H765 0.958 . S
C751 H766 0.961 . S
C751 H767 0.960 . S
H752 C736 0.931 . S
H753 C741 0.929 . S
H754 C742 0.960 . S
H755 C742 0.962 . S
H756 C742 0.960 . S
H757 C743 0.961 . S
H758 C743 0.961 . S
H759 C743 0.961 . S
H760 C744 0.931 . S
H761 C749 0.930 . S
H762 C750 0.956 . S
H763 C750 0.961 . S
H764 C750 0.961 . S
H765 C751 0.958 . S
H766 C751 0.961 . S
H767 C751 0.960 . S
C768 C769 1.391 . S
C768 C770 1.394 . S
C768 H784 0.931 . S
C769 C768 1.391 . S
C769 C773 1.376 . S
C770 C768 1.394 . S
C770 C771 1.369 . S
C770 C774 1.531 . S
C771 C770 1.369 . S
C771 C772 1.410 . S
C771 C779 1.503 . S
C772 C771 1.410 . S
C772 C773 1.392 . S
C772 C775 1.511 . S
C773 C769 1.376 . S
C773 C772 1.392 . S
C773 H785 0.929 . S
C774 C770 1.531 . S
C774 H786 0.960 . S
C774 H787 0.962 . S
C774 H788 0.960 . S
C775 C772 1.511 . S
C775 H789 0.961 . S
C775 H790 0.961 . S
C775 H791 0.961 . S
C776 C777 1.370 . S
C776 C778 1.363 . S
C776 H792 0.931 . S
C777 C776 1.370 . S
C777 C781 1.408 . S
C778 C776 1.363 . S
C778 C779 1.370 . S
C778 C782 1.524 . S
C779 C771 1.503 . S
C779 C778 1.370 . S
C779 C780 1.403 . S
C780 C779 1.403 . S
C780 C781 1.404 . S
C780 C783 1.539 . S
C781 C777 1.408 . S
C781 C780 1.404 . S
C781 H793 0.930 . S
C782 C778 1.524 . S
C782 H794 0.956 . S
C782 H795 0.961 . S
C782 H796 0.961 . S
C783 C780 1.539 . S
C783 H797 0.958 . S
C783 H798 0.961 . S
C783 H799 0.960 . S
H784 C768 0.931 . S
H785 C773 0.929 . S
H786 C774 0.960 . S
H787 C774 0.962 . S
H788 C774 0.960 . S
H789 C775 0.961 . S
H790 C775 0.961 . S
H791 C775 0.961 . S
H792 C776 0.931 . S
H793 C781 0.930 . S
H794 C782 0.956 . S
H795 C782 0.961 . S
H796 C782 0.961 . S
H797 C783 0.958 . S
H798 C783 0.961 . S
H799 C783 0.960 . S
C800 C801 1.391 . S
C800 C802 1.394 . S
C800 H816 0.931 . S
C801 C800 1.391 . S
C801 C805 1.376 . S
C802 C800 1.394 . S
C802 C803 1.369 . S
C802 C806 1.531 . S
C803 C802 1.369 . S
C803 C804 1.410 . S
C803 C811 1.503 . S
C804 C803 1.410 . S
C804 C805 1.392 . S
C804 C807 1.511 . S
C805 C801 1.376 . S
C805 C804 1.392 . S
C805 H817 0.929 . S
C806 C802 1.531 . S
C806 H818 0.960 . S
C806 H819 0.962 . S
C806 H820 0.960 . S
C807 C804 1.511 . S
C807 H821 0.961 . S
C807 H822 0.961 . S
C807 H823 0.961 . S
C808 C809 1.370 . S
C808 C810 1.363 . S
C808 H824 0.931 . S
C809 C808 1.370 . S
C809 C813 1.408 . S
C810 C808 1.363 . S
C810 C811 1.370 . S
C810 C814 1.524 . S
C811 C803 1.503 . S
C811 C810 1.370 . S
C811 C812 1.403 . S
C812 C811 1.403 . S
C812 C813 1.404 . S
C812 C815 1.539 . S
C813 C809 1.408 . S
C813 C812 1.404 . S
C813 H825 0.930 . S
C814 C810 1.524 . S
C814 H826 0.956 . S
C814 H827 0.961 . S
C814 H828 0.961 . S
C815 C812 1.539 . S
C815 H829 0.958 . S
C815 H830 0.961 . S
C815 H831 0.960 . S
H816 C800 0.931 . S
H817 C805 0.929 . S
H818 C806 0.960 . S
H819 C806 0.962 . S
H820 C806 0.960 . S
H821 C807 0.961 . S
H822 C807 0.961 . S
H823 C807 0.961 . S
H824 C808 0.931 . S
H825 C813 0.930 . S
H826 C814 0.956 . S
H827 C814 0.961 . S
H828 C814 0.961 . S
H829 C815 0.958 . S
H830 C815 0.961 . S
H831 C815 0.960 . S
C832 C833 1.391 . S
C832 C834 1.394 . S
C832 H848 0.931 . S
C833 C832 1.391 . S
C833 C837 1.376 . S
C834 C832 1.394 . S
C834 C835 1.369 . S
C834 C838 1.531 . S
C835 C834 1.369 . S
C835 C836 1.410 . S
C835 C843 1.503 . S
C836 C835 1.410 . S
C836 C837 1.392 . S
C836 C839 1.511 . S
C837 C833 1.376 . S
C837 C836 1.392 . S
C837 H849 0.929 . S
C838 C834 1.531 . S
C838 H850 0.960 . S
C838 H851 0.962 . S
C838 H852 0.960 . S
C839 C836 1.511 . S
C839 H853 0.961 . S
C839 H854 0.961 . S
C839 H855 0.961 . S
C840 C841 1.370 . S
C840 C842 1.363 . S
C840 H856 0.931 . S
C841 C840 1.370 . S
C841 C845 1.408 . S
C842 C840 1.363 . S
C842 C843 1.370 . S
C842 C846 1.524 . S
C843 C835 1.503 . S
C843 C842 1.370 . S
C843 C844 1.403 . S
C844 C843 1.403 . S
C844 C845 1.404 . S
C844 C847 1.539 . S
C845 C841 1.408 . S
C845 C844 1.404 . S
C845 H857 0.930 . S
C846 C842 1.524 . S
C846 H858 0.956 . S
C846 H859 0.961 . S
C846 H860 0.961 . S
C847 C844 1.539 . S
C847 H861 0.958 . S
C847 H862 0.961 . S
C847 H863 0.960 . S
H848 C832 0.931 . S
H849 C837 0.929 . S
H850 C838 0.960 . S
H851 C838 0.962 . S
H852 C838 0.960 . S
H853 C839 0.961 . S
H854 C839 0.961 . S
H855 C839 0.961 . S
H856 C840 0.931 . S
H857 C845 0.930 . S
H858 C846 0.956 . S
H859 C846 0.961 . S
H860 C846 0.961 . S
H861 C847 0.958 . S
H862 C847 0.961 . S
H863 C847 0.960 . S
C864 C865 1.391 . S
C864 C866 1.394 . S
C864 H880 0.931 . S
C865 C864 1.391 . S
C865 C869 1.376 . S
C866 C864 1.394 . S
C866 C867 1.369 . S
C866 C870 1.531 . S
C867 C866 1.369 . S
C867 C868 1.410 . S
C867 C875 1.503 . S
C868 C867 1.410 . S
C868 C869 1.392 . S
C868 C871 1.511 . S
C869 C865 1.376 . S
C869 C868 1.392 . S
C869 H881 0.929 . S
C870 C866 1.531 . S
C870 H882 0.960 . S
C870 H883 0.962 . S
C870 H884 0.960 . S
C871 C868 1.511 . S
C871 H885 0.961 . S
C871 H886 0.961 . S
C871 H887 0.961 . S
C872 C873 1.370 . S
C872 C874 1.363 . S
C872 H888 0.931 . S
C873 C872 1.370 . S
C873 C877 1.408 . S
C874 C872 1.363 . S
C874 C875 1.370 . S
C874 C878 1.524 . S
C875 C867 1.503 . S
C875 C874 1.370 . S
C875 C876 1.403 . S
C876 C875 1.403 . S
C876 C877 1.404 . S
C876 C879 1.539 . S
C877 C873 1.408 . S
C877 C876 1.404 . S
C877 H889 0.930 . S
C878 C874 1.524 . S
C878 H890 0.956 . S
C878 H891 0.961 . S
C878 H892 0.961 . S
C879 C876 1.539 . S
C879 H893 0.958 . S
C879 H894 0.961 . S
C879 H895 0.960 . S
H880 C864 0.931 . S
H881 C869 0.929 . S
H882 C870 0.960 . S
H883 C870 0.962 . S
H884 C870 0.960 . S
H885 C871 0.961 . S
H886 C871 0.961 . S
H887 C871 0.961 . S
H888 C872 0.931 . S
H889 C877 0.930 . S
H890 C878 0.956 . S
H891 C878 0.961 . S
H892 C878 0.961 . S
H893 C879 0.958 . S
H894 C879 0.961 . S
H895 C879 0.960 . S
C896 C897 1.391 . S
C896 C898 1.394 . S
C896 H912 0.931 . S
C897 C896 1.391 . S
C897 C901 1.376 . S
C898 C896 1.394 . S
C898 C899 1.369 . S
C898 C902 1.531 . S
C899 C898 1.369 . S
C899 C900 1.410 . S
C899 C907 1.503 . S
C900 C899 1.410 . S
C900 C901 1.392 . S
C900 C903 1.511 . S
C901 C897 1.376 . S
C901 C900 1.392 . S
C901 H913 0.929 . S
C902 C898 1.531 . S
C902 H914 0.960 . S
C902 H915 0.962 . S
C902 H916 0.960 . S
C903 C900 1.511 . S
C903 H917 0.961 . S
C903 H918 0.961 . S
C903 H919 0.961 . S
C904 C905 1.370 . S
C904 C906 1.363 . S
C904 H920 0.931 . S
C905 C904 1.370 . S
C905 C909 1.408 . S
C906 C904 1.363 . S
C906 C907 1.370 . S
C906 C910 1.524 . S
C907 C899 1.503 . S
C907 C906 1.370 . S
C907 C908 1.403 . S
C908 C907 1.403 . S
C908 C909 1.404 . S
C908 C911 1.539 . S
C909 C905 1.408 . S
C909 C908 1.404 . S
C909 H921 0.930 . S
C910 C906 1.524 . S
C910 H922 0.956 . S
C910 H923 0.961 . S
C910 H924 0.961 . S
C911 C908 1.539 . S
C911 H925 0.958 . S
C911 H926 0.961 . S
C911 H927 0.960 . S
H912 C896 0.931 . S
H913 C901 0.929 . S
H914 C902 0.960 . S
H915 C902 0.962 . S
H916 C902 0.960 . S
H917 C903 0.961 . S
H918 C903 0.961 . S
H919 C903 0.961 . S
H920 C904 0.931 . S
H921 C909 0.930 . S
H922 C910 0.956 . S
H923 C910 0.961 . S
H924 C910 0.961 . S
H925 C911 0.958 . S
H926 C911 0.961 . S
H927 C911 0.960 . S
C928 C929 1.391 . S
C928 C930 1.394 . S
C928 H944 0.931 . S
C929 C928 1.391 . S
C929 C933 1.376 . S
C930 C928 1.394 . S
C930 C931 1.369 . S
C930 C934 1.531 . S
C931 C930 1.369 . S
C931 C932 1.410 . S
C931 C939 1.503 . S
C932 C931 1.410 . S
C932 C933 1.392 . S
C932 C935 1.511 . S
C933 C929 1.376 . S
C933 C932 1.392 . S
C933 H945 0.929 . S
C934 C930 1.531 . S
C934 H946 0.960 . S
C934 H947 0.962 . S
C934 H948 0.960 . S
C935 C932 1.511 . S
C935 H949 0.961 . S
C935 H950 0.961 . S
C935 H951 0.961 . S
C936 C937 1.370 . S
C936 C938 1.363 . S
C936 H952 0.931 . S
C937 C936 1.370 . S
C937 C941 1.408 . S
C938 C936 1.363 . S
C938 C939 1.370 . S
C938 C942 1.524 . S
C939 C931 1.503 . S
C939 C938 1.370 . S
C939 C940 1.403 . S
C940 C939 1.403 . S
C940 C941 1.404 . S
C940 C943 1.539 . S
C941 C937 1.408 . S
C941 C940 1.404 . S
C941 H953 0.930 . S
C942 C938 1.524 . S
C942 H954 0.956 . S
C942 H955 0.961 . S
C942 H956 0.961 . S
C943 C940 1.539 . S
C943 H957 0.958 . S
C943 H958 0.961 . S
C943 H959 0.960 . S
H944 C928 0.931 . S
H945 C933 0.929 . S
H946 C934 0.960 . S
H947 C934 0.962 . S
H948 C934 0.960 . S
H949 C935 0.961 . S
H950 C935 0.961 . S
H951 C935 0.961 . S
H952 C936 0.931 . S
H953 C941 0.930 . S
H954 C942 0.956 . S
H955 C942 0.961 . S
H956 C942 0.961 . S
H957 C943 0.958 . S
H958 C943 0.961 . S
H959 C943 0.960 . S
C960 C961 1.391 . S
C960 C962 1.394 . S
C960 H976 0.931 . S
C961 C960 1.391 . S
C961 C965 1.376 . S
C962 C960 1.394 . S
C962 C963 1.369 . S
C962 C966 1.531 . S
C963 C962 1.369 . S
C963 C964 1.410 . S
C963 C971 1.503 . S
C964 C963 1.410 . S
C964 C965 1.392 . S
C964 C967 1.511 . S
C965 C961 1.376 . S
C965 C964 1.392 . S
C965 H977 0.929 . S
C966 C962 1.531 . S
C966 H978 0.960 . S
C966 H979 0.962 . S
C966 H980 0.960 . S
C967 C964 1.511 . S
C967 H981 0.961 . S
C967 H982 0.961 . S
C967 H983 0.961 . S
C968 C969 1.370 . S
C968 C970 1.363 . S
C968 H984 0.931 . S
C969 C968 1.370 . S
C969 C973 1.408 . S
C970 C968 1.363 . S
C970 C971 1.370 . S
C970 C974 1.524 . S
C971 C963 1.503 . S
C971 C970 1.370 . S
C971 C972 1.403 . S
C972 C971 1.403 . S
C972 C973 1.404 . S
C972 C975 1.539 . S
C973 C969 1.408 . S
C973 C972 1.404 . S
C973 H985 0.930 . S
C974 C970 1.524 . S
C974 H986 0.956 . S
C974 H987 0.961 . S
C974 H988 0.961 . S
C975 C972 1.539 . S
C975 H989 0.958 . S
C975 H990 0.961 . S
C975 H991 0.960 . S
H976 C960 0.931 . S
H977 C965 0.929 . S
H978 C966 0.960 . S
H979 C966 0.962 . S
H980 C966 0.960 . S
H981 C967 0.961 . S
H982 C967 0.961 . S
H983 C967 0.961 . S
H984 C968 0.931 . S
H985 C973 0.930 . S
H986 C974 0.956 . S
H987 C974 0.961 . S
H988 C974 0.961 . S
H989 C975 0.958 . S
H990 C975 0.961 . S
H991 C975 0.960 . S
C992 C993 1.391 . S
C992 C994 1.394 . S
C992 H1008 0.931 . S
C993 C992 1.391 . S
C993 C997 1.376 . S
C994 C992 1.394 . S
C994 C995 1.369 . S
C994 C998 1.531 . S
C995 C994 1.369 . S
C995 C996 1.410 . S
C995 C1003 1.503 . S
C996 C995 1.410 . S
C996 C997 1.392 . S
C996 C999 1.511 . S
C997 C993 1.376 . S
C997 C996 1.392 . S
C997 H1009 0.929 . S
C998 C994 1.531 . S
C998 H1010 0.960 . S
C998 H1011 0.962 . S
C998 H1012 0.960 . S
C999 C996 1.511 . S
C999 H1013 0.961 . S
C999 H1014 0.961 . S
C999 H1015 0.961 . S
C1000 C1001 1.370 . S
C1000 C1002 1.363 . S
C1000 H1016 0.931 . S
C1001 C1000 1.370 . S
C1001 C1005 1.408 . S
C1002 C1000 1.363 . S
C1002 C1003 1.370 . S
C1002 C1006 1.524 . S
C1003 C995 1.503 . S
C1003 C1002 1.370 . S
C1003 C1004 1.403 . S
C1004 C1003 1.403 . S
C1004 C1005 1.404 . S
C1004 C1007 1.539 . S
C1005 C1001 1.408 . S
C1005 C1004 1.404 . S
C1005 H1017 0.930 . S
C1006 C1002 1.524 . S
C1006 H1018 0.956 . S
C1006 H1019 0.961 . S
C1006 H1020 0.961 . S
C1007 C1004 1.539 . S
C1007 H1021 0.958 . S
C1007 H1022 0.961 . S
C1007 H1023 0.960 . S
H1008 C992 0.931 . S
H1009 C997 0.929 . S
H1010 C998 0.960 . S
H1011 C998 0.962 . S
H1012 C998 0.960 . S
H1013 C999 0.961 . S
H1014 C999 0.961 . S
H1015 C999 0.961 . S
H1016 C1000 0.931 . S
H1017 C1005 0.930 . S
H1018 C1006 0.956 . S
H1019 C1006 0.961 . S
H1020 C1006 0.961 . S
H1021 C1007 0.958 . S
H1022 C1007 0.961 . S
H1023 C1007 0.960 . S
C1024 C1025 1.391 . S
C1024 C1026 1.394 . S
C1024 H1040 0.931 . S
C1025 C1024 1.391 . S
C1025 C1029 1.376 . S
C1026 C1024 1.394 . S
C1026 C1027 1.369 . S
C1026 C1030 1.531 . S
C1027 C1026 1.369 . S
C1027 C1028 1.410 . S
C1027 C1035 1.503 . S
C1028 C1027 1.410 . S
C1028 C1029 1.392 . S
C1028 C1031 1.511 . S
C1029 C1025 1.376 . S
C1029 C1028 1.392 . S
C1029 H1041 0.929 . S
C1030 C1026 1.531 . S
C1030 H1042 0.960 . S
C1030 H1043 0.962 . S
C1030 H1044 0.960 . S
C1031 C1028 1.511 . S
C1031 H1045 0.961 . S
C1031 H1046 0.961 . S
C1031 H1047 0.961 . S
C1032 C1033 1.370 . S
C1032 C1034 1.363 . S
C1032 H1048 0.931 . S
C1033 C1032 1.370 . S
C1033 C1037 1.408 . S
C1034 C1032 1.363 . S
C1034 C1035 1.370 . S
C1034 C1038 1.524 . S
C1035 C1027 1.503 . S
C1035 C1034 1.370 . S
C1035 C1036 1.403 . S
C1036 C1035 1.403 . S
C1036 C1037 1.404 . S
C1036 C1039 1.539 . S
C1037 C1033 1.408 . S
C1037 C1036 1.404 . S
C1037 H1049 0.930 . S
C1038 C1034 1.524 . S
C1038 H1050 0.956 . S
C1038 H1051 0.961 . S
C1038 H1052 0.961 . S
C1039 C1036 1.539 . S
C1039 H1053 0.958 . S
C1039 H1054 0.961 . S
C1039 H1055 0.960 . S
H1040 C1024 0.931 . S
H1041 C1029 0.929 . S
H1042 C1030 0.960 . S
H1043 C1030 0.962 . S
H1044 C1030 0.960 . S
H1045 C1031 0.961 . S
H1046 C1031 0.961 . S
H1047 C1031 0.961 . S
H1048 C1032 0.931 . S
H1049 C1037 0.930 . S
H1050 C1038 0.956 . S
H1051 C1038 0.961 . S
H1052 C1038 0.961 . S
H1053 C1039 0.958 . S
H1054 C1039 0.961 . S
H1055 C1039 0.960 . S
C1056 C1057 1.391 . S
C1056 C1058 1.394 . S
C1056 H1072 0.931 . S
C1057 C1056 1.391 . S
C1057 C1061 1.376 . S
C1058 C1056 1.394 . S
C1058 C1059 1.369 . S
C1058 C1062 1.531 . S
C1059 C1058 1.369 . S
C1059 C1060 1.410 . S
C1059 C1067 1.503 . S
C1060 C1059 1.410 . S
C1060 C1061 1.392 . S
C1060 C1063 1.511 . S
C1061 C1057 1.376 . S
C1061 C1060 1.392 . S
C1061 H1073 0.929 . S
C1062 C1058 1.531 . S
C1062 H1074 0.960 . S
C1062 H1075 0.962 . S
C1062 H1076 0.960 . S
C1063 C1060 1.511 . S
C1063 H1077 0.961 . S
C1063 H1078 0.961 . S
C1063 H1079 0.961 . S
C1064 C1065 1.370 . S
C1064 C1066 1.363 . S
C1064 H1080 0.931 . S
C1065 C1064 1.370 . S
C1065 C1069 1.408 . S
C1066 C1064 1.363 . S
C1066 C1067 1.370 . S
C1066 C1070 1.524 . S
C1067 C1059 1.503 . S
C1067 C1066 1.370 . S
C1067 C1068 1.403 . S
C1068 C1067 1.403 . S
C1068 C1069 1.404 . S
C1068 C1071 1.539 . S
C1069 C1065 1.408 . S
C1069 C1068 1.404 . S
C1069 H1081 0.930 . S
C1070 C1066 1.524 . S
C1070 H1082 0.956 . S
C1070 H1083 0.961 . S
C1070 H1084 0.961 . S
C1071 C1068 1.539 . S
C1071 H1085 0.958 . S
C1071 H1086 0.961 . S
C1071 H1087 0.960 . S
H1072 C1056 0.931 . S
H1073 C1061 0.929 . S
H1074 C1062 0.960 . S
H1075 C1062 0.962 . S
H1076 C1062 0.960 . S
H1077 C1063 0.961 . S
H1078 C1063 0.961 . S
H1079 C1063 0.961 . S
H1080 C1064 0.931 . S
H1081 C1069 0.930 . S
H1082 C1070 0.956 . S
H1083 C1070 0.961 . S
H1084 C1070 0.961 . S
H1085 C1071 0.958 . S
H1086 C1071 0.961 . S
H1087 C1071 0.960 . S
C1088 C1089 1.391 . S
C1088 C1090 1.394 . S
C1088 H1104 0.931 . S
C1089 C1088 1.391 . S
C1089 C1093 1.376 . S
C1090 C1088 1.394 . S
C1090 C1091 1.369 . S
C1090 C1094 1.531 . S
C1091 C1090 1.369 . S
C1091 C1092 1.410 . S
C1091 C1099 1.503 . S
C1092 C1091 1.410 . S
C1092 C1093 1.392 . S
C1092 C1095 1.511 . S
C1093 C1089 1.376 . S
C1093 C1092 1.392 . S
C1093 H1105 0.929 . S
C1094 C1090 1.531 . S
C1094 H1106 0.960 . S
C1094 H1107 0.962 . S
C1094 H1108 0.960 . S
C1095 C1092 1.511 . S
C1095 H1109 0.961 . S
C1095 H1110 0.961 . S
C1095 H1111 0.961 . S
C1096 C1097 1.370 . S
C1096 C1098 1.363 . S
C1096 H1112 0.931 . S
C1097 C1096 1.370 . S
C1097 C1101 1.408 . S
C1098 C1096 1.363 . S
C1098 C1099 1.370 . S
C1098 C1102 1.524 . S
C1099 C1091 1.503 . S
C1099 C1098 1.370 . S
C1099 C1100 1.403 . S
C1100 C1099 1.403 . S
C1100 C1101 1.404 . S
C1100 C1103 1.539 . S
C1101 C1097 1.408 . S
C1101 C1100 1.404 . S
C1101 H1113 0.930 . S
C1102 C1098 1.524 . S
C1102 H1114 0.956 . S
C1102 H1115 0.961 . S
C1102 H1116 0.961 . S
C1103 C1100 1.539 . S
C1103 H1117 0.958 . S
C1103 H1118 0.961 . S
C1103 H1119 0.960 . S
H1104 C1088 0.931 . S
H1105 C1093 0.929 . S
H1106 C1094 0.960 . S
H1107 C1094 0.962 . S
H1108 C1094 0.960 . S
H1109 C1095 0.961 . S
H1110 C1095 0.961 . S
H1111 C1095 0.961 . S
H1112 C1096 0.931 . S
H1113 C1101 0.930 . S
H1114 C1102 0.956 . S
H1115 C1102 0.961 . S
H1116 C1102 0.961 . S
H1117 C1103 0.958 . S
H1118 C1103 0.961 . S
H1119 C1103 0.960 . S
C1120 C1121 1.391 . S
C1120 C1122 1.394 . S
C1120 H1136 0.931 . S
C1121 C1120 1.391 . S
C1121 C1125 1.376 . S
C1122 C1120 1.394 . S
C1122 C1123 1.369 . S
C1122 C1126 1.531 . S
C1123 C1122 1.369 . S
C1123 C1124 1.410 . S
C1123 C1131 1.503 . S
C1124 C1123 1.410 . S
C1124 C1125 1.392 . S
C1124 C1127 1.511 . S
C1125 C1121 1.376 . S
C1125 C1124 1.392 . S
C1125 H1137 0.929 . S
C1126 C1122 1.531 . S
C1126 H1138 0.960 . S
C1126 H1139 0.962 . S
C1126 H1140 0.960 . S
C1127 C1124 1.511 . S
C1127 H1141 0.961 . S
C1127 H1142 0.961 . S
C1127 H1143 0.961 . S
C1128 C1129 1.370 . S
C1128 C1130 1.363 . S
C1128 H1144 0.931 . S
C1129 C1128 1.370 . S
C1129 C1133 1.408 . S
C1130 C1128 1.363 . S
C1130 C1131 1.370 . S
C1130 C1134 1.524 . S
C1131 C1123 1.503 . S
C1131 C1130 1.370 . S
C1131 C1132 1.403 . S
C1132 C1131 1.403 . S
C1132 C1133 1.404 . S
C1132 C1135 1.539 . S
C1133 C1129 1.408 . S
C1133 C1132 1.404 . S
C1133 H1145 0.930 . S
C1134 C1130 1.524 . S
C1134 H1146 0.956 . S
C1134 H1147 0.961 . S
C1134 H1148 0.961 . S
C1135 C1132 1.539 . S
C1135 H1149 0.958 . S
C1135 H1150 0.961 . S
C1135 H1151 0.960 . S
H1136 C1120 0.931 . S
H1137 C1125 0.929 . S
H1138 C1126 0.960 . S
H1139 C1126 0.962 . S
H1140 C1126 0.960 . S
H1141 C1127 0.961 . S
H1142 C1127 0.961 . S
H1143 C1127 0.961 . S
H1144 C1128 0.931 . S
H1145 C1133 0.930 . S
H1146 C1134 0.956 . S
H1147 C1134 0.961 . S
H1148 C1134 0.961 . S
H1149 C1135 0.958 . S
H1150 C1135 0.961 . S
H1151 C1135 0.960 . S
C1152 C1153 1.391 . S
C1152 C1154 1.394 . S
C1152 H1168 0.931 . S
C1153 C1152 1.391 . S
C1153 C1157 1.376 . S
C1154 C1152 1.394 . S
C1154 C1155 1.369 . S
C1154 C1158 1.531 . S
C1155 C1154 1.369 . S
C1155 C1156 1.410 . S
C1155 C1163 1.503 . S
C1156 C1155 1.410 . S
C1156 C1157 1.392 . S
C1156 C1159 1.511 . S
C1157 C1153 1.376 . S
C1157 C1156 1.392 . S
C1157 H1169 0.929 . S
C1158 C1154 1.531 . S
C1158 H1170 0.960 . S
C1158 H1171 0.962 . S
C1158 H1172 0.960 . S
C1159 C1156 1.511 . S
C1159 H1173 0.961 . S
C1159 H1174 0.961 . S
C1159 H1175 0.961 . S
C1160 C1161 1.370 . S
C1160 C1162 1.363 . S
C1160 H1176 0.931 . S
C1161 C1160 1.370 . S
C1161 C1165 1.408 . S
C1162 C1160 1.363 . S
C1162 C1163 1.370 . S
C1162 C1166 1.524 . S
C1163 C1155 1.503 . S
C1163 C1162 1.370 . S
C1163 C1164 1.403 . S
C1164 C1163 1.403 . S
C1164 C1165 1.404 . S
C1164 C1167 1.539 . S
C1165 C1161 1.408 . S
C1165 C1164 1.404 . S
C1165 H1177 0.930 . S
C1166 C1162 1.524 . S
C1166 H1178 0.956 . S
C1166 H1179 0.961 . S
C1166 H1180 0.961 . S
C1167 C1164 1.539 . S
C1167 H1181 0.958 . S
C1167 H1182 0.961 . S
C1167 H1183 0.960 . S
H1168 C1152 0.931 . S
H1169 C1157 0.929 . S
H1170 C1158 0.960 . S
H1171 C1158 0.962 . S
H1172 C1158 0.960 . S
H1173 C1159 0.961 . S
H1174 C1159 0.961 . S
H1175 C1159 0.961 . S
H1176 C1160 0.931 . S
H1177 C1165 0.930 . S
H1178 C1166 0.956 . S
H1179 C1166 0.961 . S
H1180 C1166 0.961 . S
H1181 C1167 0.958 . S
H1182 C1167 0.961 . S
H1183 C1167 0.960 . S
C1184 C1185 1.391 . S
C1184 C1186 1.394 . S
C1184 H1200 0.931 . S
C1185 C1184 1.391 . S
C1185 C1189 1.376 . S
C1186 C1184 1.394 . S
C1186 C1187 1.369 . S
C1186 C1190 1.531 . S
C1187 C1186 1.369 . S
C1187 C1188 1.410 . S
C1187 C1195 1.503 . S
C1188 C1187 1.410 . S
C1188 C1189 1.392 . S
C1188 C1191 1.511 . S
C1189 C1185 1.376 . S
C1189 C1188 1.392 . S
C1189 H1201 0.929 . S
C1190 C1186 1.531 . S
C1190 H1202 0.960 . S
C1190 H1203 0.962 . S
C1190 H1204 0.960 . S
C1191 C1188 1.511 . S
C1191 H1205 0.961 . S
C1191 H1206 0.961 . S
C1191 H1207 0.961 . S
C1192 C1193 1.370 . S
C1192 C1194 1.363 . S
C1192 H1208 0.931 . S
C1193 C1192 1.370 . S
C1193 C1197 1.408 . S
C1194 C1192 1.363 . S
C1194 C1195 1.370 . S
C1194 C1198 1.524 . S
C1195 C1187 1.503 . S
C1195 C1194 1.370 . S
C1195 C1196 1.403 . S
C1196 C1195 1.403 . S
C1196 C1197 1.404 . S
C1196 C1199 1.539 . S
C1197 C1193 1.408 . S
C1197 C1196 1.404 . S
C1197 H1209 0.930 . S
C1198 C1194 1.524 . S
C1198 H1210 0.956 . S
C1198 H1211 0.961 . S
C1198 H1212 0.961 . S
C1199 C1196 1.539 . S
C1199 H1213 0.958 . S
C1199 H1214 0.961 . S
C1199 H1215 0.960 . S
H1200 C1184 0.931 . S
H1201 C1189 0.929 . S
H1202 C1190 0.960 . S
H1203 C1190 0.962 . S
H1204 C1190 0.960 . S
H1205 C1191 0.961 . S
H1206 C1191 0.961 . S
H1207 C1191 0.961 . S
H1208 C1192 0.931 . S
H1209 C1197 0.930 . S
H1210 C1198 0.956 . S
H1211 C1198 0.961 . S
H1212 C1198 0.961 . S
H1213 C1199 0.958 . S
H1214 C1199 0.961 . S
H1215 C1199 0.960 . S
C1216 C1217 1.391 . S
C1216 C1218 1.394 . S
C1216 H1232 0.931 . S
C1217 C1216 1.391 . S
C1217 C1221 1.376 . S
C1218 C1216 1.394 . S
C1218 C1219 1.369 . S
C1218 C1222 1.531 . S
C1219 C1218 1.369 . S
C1219 C1220 1.410 . S
C1219 C1227 1.503 . S
C1220 C1219 1.410 . S
C1220 C1221 1.392 . S
C1220 C1223 1.511 . S
C1221 C1217 1.376 . S
C1221 C1220 1.392 . S
C1221 H1233 0.929 . S
C1222 C1218 1.531 . S
C1222 H1234 0.960 . S
C1222 H1235 0.962 . S
C1222 H1236 0.960 . S
C1223 C1220 1.511 . S
C1223 H1237 0.961 . S
C1223 H1238 0.961 . S
C1223 H1239 0.961 . S
C1224 C1225 1.370 . S
C1224 C1226 1.363 . S
C1224 H1240 0.931 . S
C1225 C1224 1.370 . S
C1225 C1229 1.408 . S
C1226 C1224 1.363 . S
C1226 C1227 1.370 . S
C1226 C1230 1.524 . S
C1227 C1219 1.503 . S
C1227 C1226 1.370 . S
C1227 C1228 1.403 . S
C1228 C1227 1.403 . S
C1228 C1229 1.404 . S
C1228 C1231 1.539 . S
C1229 C1225 1.408 . S
C1229 C1228 1.404 . S
C1229 H1241 0.930 . S
C1230 C1226 1.524 . S
C1230 H1242 0.956 . S
C1230 H1243 0.961 . S
C1230 H1244 0.961 . S
C1231 C1228 1.539 . S
C1231 H1245 0.958 . S
C1231 H1246 0.961 . S
C1231 H1247 0.960 . S
H1232 C1216 0.931 . S
H1233 C1221 0.929 . S
H1234 C1222 0.960 . S
H1235 C1222 0.962 . S
H1236 C1222 0.960 . S
H1237 C1223 0.961 . S
H1238 C1223 0.961 . S
H1239 C1223 0.961 . S
H1240 C1224 0.931 . S
H1241 C1229 0.930 . S
H1242 C1230 0.956 . S
H1243 C1230 0.961 . S
H1244 C1230 0.961 . S
H1245 C1231 0.958 . S
H1246 C1231 0.961 . S
H1247 C1231 0.960 . S
C1248 C1249 1.391 . S
C1248 C1250 1.394 . S
C1248 H1264 0.931 . S
C1249 C1248 1.391 . S
C1249 C1253 1.376 . S
C1250 C1248 1.394 . S
C1250 C1251 1.369 . S
C1250 C1254 1.531 . S
C1251 C1250 1.369 . S
C1251 C1252 1.410 . S
C1251 C1259 1.503 . S
C1252 C1251 1.410 . S
C1252 C1253 1.392 . S
C1252 C1255 1.511 . S
C1253 C1249 1.376 . S
C1253 C1252 1.392 . S
C1253 H1265 0.929 . S
C1254 C1250 1.531 . S
C1254 H1266 0.960 . S
C1254 H1267 0.962 . S
C1254 H1268 0.960 . S
C1255 C1252 1.511 . S
C1255 H1269 0.961 . S
C1255 H1270 0.961 . S
C1255 H1271 0.961 . S
C1256 C1257 1.370 . S
C1256 C1258 1.363 . S
C1256 H1272 0.931 . S
C1257 C1256 1.370 . S
C1257 C1261 1.408 . S
C1258 C1256 1.363 . S
C1258 C1259 1.370 . S
C1258 C1262 1.524 . S
C1259 C1251 1.503 . S
C1259 C1258 1.370 . S
C1259 C1260 1.403 . S
C1260 C1259 1.403 . S
C1260 C1261 1.404 . S
C1260 C1263 1.539 . S
C1261 C1257 1.408 . S
C1261 C1260 1.404 . S
C1261 H1273 0.930 . S
C1262 C1258 1.524 . S
C1262 H1274 0.956 . S
C1262 H1275 0.961 . S
C1262 H1276 0.961 . S
C1263 C1260 1.539 . S
C1263 H1277 0.958 . S
C1263 H1278 0.961 . S
C1263 H1279 0.960 . S
H1264 C1248 0.931 . S
H1265 C1253 0.929 . S
H1266 C1254 0.960 . S
H1267 C1254 0.962 . S
H1268 C1254 0.960 . S
H1269 C1255 0.961 . S
H1270 C1255 0.961 . S
H1271 C1255 0.961 . S
H1272 C1256 0.931 . S
H1273 C1261 0.930 . S
H1274 C1262 0.956 . S
H1275 C1262 0.961 . S
H1276 C1262 0.961 . S
H1277 C1263 0.958 . S
H1278 C1263 0.961 . S
H1279 C1263 0.960 . S
C1280 C1281 1.391 . S
C1280 C1282 1.394 . S
C1280 H1296 0.931 . S
C1281 C1280 1.391 . S
C1281 C1285 1.376 . S
C1282 C1280 1.394 . S
C1282 C1283 1.369 . S
C1282 C1286 1.531 . S
C1283 C1282 1.369 . S
C1283 C1284 1.410 . S
C1283 C1291 1.503 . S
C1284 C1283 1.410 . S
C1284 C1285 1.392 . S
C1284 C1287 1.511 . S
C1285 C1281 1.376 . S
C1285 C1284 1.392 . S
C1285 H1297 0.929 . S
C1286 C1282 1.531 . S
C1286 H1298 0.960 . S
C1286 H1299 0.962 . S
C1286 H1300 0.960 . S
C1287 C1284 1.511 . S
C1287 H1301 0.961 . S
C1287 H1302 0.961 . S
C1287 H1303 0.961 . S
C1288 C1289 1.370 . S
C1288 C1290 1.363 . S
C1288 H1304 0.931 . S
C1289 C1288 1.370 . S
C1289 C1293 1.408 . S
C1290 C1288 1.363 . S
C1290 C1291 1.370 . S
C1290 C1294 1.524 . S
C1291 C1283 1.503 . S
C1291 C1290 1.370 . S
C1291 C1292 1.403 . S
C1292 C1291 1.403 . S
C1292 C1293 1.404 . S
C1292 C1295 1.539 . S
C1293 C1289 1.408 . S
C1293 C1292 1.404 . S
C1293 H1305 0.930 . S
C1294 C1290 1.524 . S
C1294 H1306 0.956 . S
C1294 H1307 0.961 . S
C1294 H1308 0.961 . S
C1295 C1292 1.539 . S
C1295 H1309 0.958 . S
C1295 H1310 0.961 . S
C1295 H1311 0.960 . S
H1296 C1280 0.931 . S
H1297 C1285 0.929 . S
H1298 C1286 0.960 . S
H1299 C1286 0.962 . S
H1300 C1286 0.960 . S
H1301 C1287 0.961 . S
H1302 C1287 0.961 . S
H1303 C1287 0.961 . S
H1304 C1288 0.931 . S
H1305 C1293 0.930 . S
H1306 C1294 0.956 . S
H1307 C1294 0.961 . S
H1308 C1294 0.961 . S
H1309 C1295 0.958 . S
H1310 C1295 0.961 . S
H1311 C1295 0.960 . S
C1312 C1313 1.391 . S
C1312 C1314 1.394 . S
C1312 H1328 0.931 . S
C1313 C1312 1.391 . S
C1313 C1317 1.376 . S
C1314 C1312 1.394 . S
C1314 C1315 1.369 . S
C1314 C1318 1.531 . S
C1315 C1314 1.369 . S
C1315 C1316 1.410 . S
C1315 C1323 1.503 . S
C1316 C1315 1.410 . S
C1316 C1317 1.392 . S
C1316 C1319 1.511 . S
C1317 C1313 1.376 . S
C1317 C1316 1.392 . S
C1317 H1329 0.929 . S
C1318 C1314 1.531 . S
C1318 H1330 0.960 . S
C1318 H1331 0.962 . S
C1318 H1332 0.960 . S
C1319 C1316 1.511 . S
C1319 H1333 0.961 . S
C1319 H1334 0.961 . S
C1319 H1335 0.961 . S
C1320 C1321 1.370 . S
C1320 C1322 1.363 . S
C1320 H1336 0.931 . S
C1321 C1320 1.370 . S
C1321 C1325 1.408 . S
C1322 C1320 1.363 . S
C1322 C1323 1.370 . S
C1322 C1326 1.524 . S
C1323 C1315 1.503 . S
C1323 C1322 1.370 . S
C1323 C1324 1.403 . S
C1324 C1323 1.403 . S
C1324 C1325 1.404 . S
C1324 C1327 1.539 . S
C1325 C1321 1.408 . S
C1325 C1324 1.404 . S
C1325 H1337 0.930 . S
C1326 C1322 1.524 . S
C1326 H1338 0.956 . S
C1326 H1339 0.961 . S
C1326 H1340 0.961 . S
C1327 C1324 1.539 . S
C1327 H1341 0.958 . S
C1327 H1342 0.961 . S
C1327 H1343 0.960 . S
H1328 C1312 0.931 . S
H1329 C1317 0.929 . S
H1330 C1318 0.960 . S
H1331 C1318 0.962 . S
H1332 C1318 0.960 . S
H1333 C1319 0.961 . S
H1334 C1319 0.961 . S
H1335 C1319 0.961 . S
H1336 C1320 0.931 . S
H1337 C1325 0.930 . S
H1338 C1326 0.956 . S
H1339 C1326 0.961 . S
H1340 C1326 0.961 . S
H1341 C1327 0.958 . S
H1342 C1327 0.961 . S
H1343 C1327 0.960 . S
C1344 C1345 1.391 . S
C1344 C1346 1.394 . S
C1344 H1360 0.931 . S
C1345 C1344 1.391 . S
C1345 C1349 1.376 . S
C1346 C1344 1.394 . S
C1346 C1347 1.369 . S
C1346 C1350 1.531 . S
C1347 C1346 1.369 . S
C1347 C1348 1.410 . S
C1347 C1355 1.503 . S
C1348 C1347 1.410 . S
C1348 C1349 1.392 . S
C1348 C1351 1.511 . S
C1349 C1345 1.376 . S
C1349 C1348 1.392 . S
C1349 H1361 0.929 . S
C1350 C1346 1.531 . S
C1350 H1362 0.960 . S
C1350 H1363 0.962 . S
C1350 H1364 0.960 . S
C1351 C1348 1.511 . S
C1351 H1365 0.961 . S
C1351 H1366 0.961 . S
C1351 H1367 0.961 . S
C1352 C1353 1.370 . S
C1352 C1354 1.363 . S
C1352 H1368 0.931 . S
C1353 C1352 1.370 . S
C1353 C1357 1.408 . S
C1354 C1352 1.363 . S
C1354 C1355 1.370 . S
C1354 C1358 1.524 . S
C1355 C1347 1.503 . S
C1355 C1354 1.370 . S
C1355 C1356 1.403 . S
C1356 C1355 1.403 . S
C1356 C1357 1.404 . S
C1356 C1359 1.539 . S
C1357 C1353 1.408 . S
C1357 C1356 1.404 . S
C1357 H1369 0.930 . S
C1358 C1354 1.524 . S
C1358 H1370 0.956 . S
C1358 H1371 0.961 . S
C1358 H1372 0.961 . S
C1359 C1356 1.539 . S
C1359 H1373 0.958 . S
C1359 H1374 0.961 . S
C1359 H1375 0.960 . S
H1360 C1344 0.931 . S
H1361 C1349 0.929 . S
H1362 C1350 0.960 . S
H1363 C1350 0.962 . S
H1364 C1350 0.960 . S
H1365 C1351 0.961 . S
H1366 C1351 0.961 . S
H1367 C1351 0.961 . S
H1368 C1352 0.931 . S
H1369 C1357 0.930 . S
H1370 C1358 0.956 . S
H1371 C1358 0.961 . S
H1372 C1358 0.961 . S
H1373 C1359 0.958 . S
H1374 C1359 0.961 . S
H1375 C1359 0.960 . S
C617 C350 1.579 . S
C609 C15 1.571 . S
C649 C389 1.590 . S
C641 C55 1.598 . S
C681 C365 1.592 . S
C673 C101 1.611 . S
C713 C404 1.638 . S
C705 C141 1.628 . S
C745 C452 1.551 . S
C737 C2 1.512 . S
C777 C485 1.540 . S
C769 C61 1.490 . S
C801 C95 1.661 . S
C809 C542 1.679 . S
C841 C590 1.537 . S
C833 C135 1.536 . S
C873 C437 1.546 . S
C865 C42 1.542 . S
C897 C82 1.497 . S
C905 C500 1.553 . S
C937 C557 1.644 . S
C929 C122 1.679 . S
C969 C605 1.527 . S
C961 C21 1.532 . S
C993 C162 1.639 . S
C1001 C398 1.623 . S
C1033 C341 1.610 . S
C1025 C221 1.603 . S
C1057 C255 1.592 . S
C1065 C413 1.601 . S
C1089 C282 1.548 . S
C1097 C356 1.577 . S
C1129 C533 1.657 . S
C1121 C181 1.686 . S
C1161 C596 1.551 . S
C1153 C202 1.545 . S
C1193 C461 1.561 . S
C1185 C242 1.542 . S
C1217 C301 1.522 . S
C1225 C509 1.545 . S
C1257 C548 1.674 . S
C1249 C215 1.662 . S
C1289 C581 1.540 . S
C1281 C261 1.543 . S
C1321 C446 1.525 . S
C1313 C295 1.560 . S
C1345 C175 1.528 . S
C1353 C494 1.533 . S
