# Generated by pormake.
# Topology zzz, (3,6)-cn, num edge types: 1
# Building blocks:
#     Node 0, Type 0, BuildingBlock: VETTIZ_charged_linker_0, # of connection points: 3
#     Node 1, Type 0, BuildingBlock: VETTIZ_charged_linker_0, # of connection points: 3
#     Node 2, Type 0, BuildingBlock: VETTIZ_charged_linker_0, # of connection points: 3
#     Node 3, Type 0, BuildingBlock: VETTIZ_charged_linker_0, # of connection points: 3
#     Node 4, Type 0, BuildingBlock: VETTIZ_charged_linker_0, # of connection points: 3
#     Node 5, Type 0, BuildingBlock: VETTIZ_charged_linker_0, # of connection points: 3
#     Node 6, Type 0, BuildingBlock: VETTIZ_charged_linker_0, # of connection points: 3
#     Node 7, Type 0, BuildingBlock: VETTIZ_charged_linker_0, # of connection points: 3
#     Node 8, Type 1, BuildingBlock: BETDIP_clean_sbu_0, # of connection points: 6
#     Node 9, Type 1, BuildingBlock: BETDIP_clean_sbu_0, # of connection points: 6
#     Node 10, Type 1, BuildingBlock: BETDIP_clean_sbu_0, # of connection points: 6
#     Node 11, Type 1, BuildingBlock: BETDIP_clean_sbu_0, # of connection points: 6
#     Edge 12, Type (0, 1), BuildingBlock: AJUNOK_clean_linker_0, # of connection points: 2
#     Edge 13, Type (0, 1), BuildingBlock: AJUNOK_clean_linker_0, # of connection points: 2
#     Edge 14, Type (0, 1), BuildingBlock: AJUNOK_clean_linker_0, # of connection points: 2
#     Edge 15, Type (0, 1), BuildingBlock: AJUNOK_clean_linker_0, # of connection points: 2
#     Edge 16, Type (0, 1), BuildingBlock: AJUNOK_clean_linker_0, # of connection points: 2
#     Edge 17, Type (0, 1), BuildingBlock: AJUNOK_clean_linker_0, # of connection points: 2
#     Edge 18, Type (0, 1), BuildingBlock: AJUNOK_clean_linker_0, # of connection points: 2
#     Edge 19, Type (0, 1), BuildingBlock: AJUNOK_clean_linker_0, # of connection points: 2
#     Edge 20, Type (0, 1), BuildingBlock: AJUNOK_clean_linker_0, # of connection points: 2
#     Edge 21, Type (0, 1), BuildingBlock: AJUNOK_clean_linker_0, # of connection points: 2
#     Edge 22, Type (0, 1), BuildingBlock: AJUNOK_clean_linker_0, # of connection points: 2
#     Edge 23, Type (0, 1), BuildingBlock: AJUNOK_clean_linker_0, # of connection points: 2
#     Edge 24, Type (0, 1), BuildingBlock: AJUNOK_clean_linker_0, # of connection points: 2
#     Edge 25, Type (0, 1), BuildingBlock: AJUNOK_clean_linker_0, # of connection points: 2
#     Edge 26, Type (0, 1), BuildingBlock: AJUNOK_clean_linker_0, # of connection points: 2
#     Edge 27, Type (0, 1), BuildingBlock: AJUNOK_clean_linker_0, # of connection points: 2
#     Edge 28, Type (0, 1), BuildingBlock: AJUNOK_clean_linker_0, # of connection points: 2
#     Edge 29, Type (0, 1), BuildingBlock: AJUNOK_clean_linker_0, # of connection points: 2
#     Edge 30, Type (0, 1), BuildingBlock: AJUNOK_clean_linker_0, # of connection points: 2
#     Edge 31, Type (0, 1), BuildingBlock: AJUNOK_clean_linker_0, # of connection points: 2
#     Edge 32, Type (0, 1), BuildingBlock: AJUNOK_clean_linker_0, # of connection points: 2
#     Edge 33, Type (0, 1), BuildingBlock: AJUNOK_clean_linker_0, # of connection points: 2
#     Edge 34, Type (0, 1), BuildingBlock: AJUNOK_clean_linker_0, # of connection points: 2
#     Edge 35, Type (0, 1), BuildingBlock: AJUNOK_clean_linker_0, # of connection points: 2
# Relax obj value: 0.505
# Max RMSD: 0.262
# Mean RMSD: 0.246
data_MOF--net-zzz--node1-BETDIP_clean_sbu_0--node2-VETTIZ_charged_linker_0--edge1-AJUNOK_clean_linker_0
_symmetry_space_group_name_H-M    P1
_symmetry_Int_Tables_number       1
_symmetry_cell_setting            triclinic
loop_
_symmetry_equiv_pos_as_xyz
'x, y, z'
_cell_length_a     45.628965
_cell_length_b     45.671596
_cell_length_c     14.635098
_cell_angle_alpha  89.760839
_cell_angle_beta   89.521822
_cell_angle_gamma 89.913478
loop_
_atom_site_label
_atom_site_type_symbol
_atom_site_fract_x
_atom_site_fract_y
_atom_site_fract_z
_atom_type_partial_charge
C0 C 0.83124 0.52028 0.45209 0.0
C1 C 0.85958 0.50799 0.47149 0.0
C2 C 0.86904 0.48424 0.41864 0.0
C3 C 0.82232 0.4814 0.34189 0.0
C4 C 0.81298 0.50668 0.38445 0.0
C5 C 0.78271 0.51556 0.34625 0.0
H6 H 0.66806 0.47258 0.05729 0.0
C7 C 0.7989 0.4702 0.28223 0.0
C8 C 0.7752 0.49004 0.2809 0.0
H9 H 0.67294 0.55607 0.19167 0.0
H10 H 0.71939 0.54117 0.26446 0.0
H11 H 0.72882 0.47515 0.98642 0.0
H12 H 0.69474 0.43062 0.22335 0.0
H13 H 0.71681 0.4059 0.16128 0.0
H14 H 0.68535 0.42188 0.10742 0.0
H15 H 0.71248 0.43964 0.97775 0.0
H16 H 0.75114 0.44424 0.99935 0.0
C17 C 0.78622 0.54462 0.29377 0.0
C18 C 0.76018 0.51797 0.42445 0.0
C19 C 0.82027 0.37437 0.12732 0.0
C20 C 0.81033 0.36427 0.04285 0.0
C21 C 0.78125 0.37094 0.01782 0.0
C22 C 0.76521 0.39233 0.06619 0.0
C23 C 0.77889 0.40754 0.13795 0.0
C24 C 0.80576 0.39783 0.16806 0.0
C25 C 0.82071 0.41965 0.22732 0.0
C26 C 0.79755 0.44332 0.23454 0.0
C27 C 0.77315 0.43635 0.18216 0.0
C28 C 0.84833 0.43088 0.17373 0.0
C29 C 0.82685 0.40442 0.32032 0.0
C30 C 0.67871 0.48768 0.10326 0.0
C31 C 0.66634 0.51529 0.11918 0.0
C32 C 0.68179 0.53452 0.17787 0.0
C33 C 0.7088 0.526 0.2195 0.0
C34 C 0.72119 0.49831 0.20022 0.0
C35 C 0.70575 0.47997 0.14223 0.0
C36 C 0.7222 0.45261 0.12005 0.0
C37 C 0.74958 0.45647 0.17592 0.0
C38 C 0.74982 0.48332 0.22462 0.0
C39 C 0.72894 0.45261 0.01566 0.0
C40 C 0.70387 0.42619 0.1541 0.0
H41 H 0.85965 0.45168 0.32568 0.0
H42 H 0.82345 0.53922 0.48924 0.0
H43 H 0.75907 0.49707 0.46354 0.0
H44 H 0.73802 0.52272 0.39791 0.0
H45 H 0.7663 0.53574 0.47226 0.0
H46 H 0.80383 0.54272 0.24114 0.0
H47 H 0.79216 0.56257 0.34114 0.0
H48 H 0.76593 0.55092 0.25819 0.0
H49 H 0.84244 0.3697 0.1492 0.0
H50 H 0.77258 0.36273 0.9542 0.0
H51 H 0.74401 0.39804 0.04033 0.0
H52 H 0.84627 0.42791 0.09857 0.0
H53 H 0.86847 0.41911 0.19518 0.0
H54 H 0.85172 0.45478 0.18073 0.0
H55 H 0.80923 0.38852 0.33825 0.0
H56 H 0.82717 0.41973 0.37851 0.0
H57 H 0.84788 0.39215 0.31798 0.0
H58 H 0.89066 0.47489 0.42858 0.0
C59 C 0.8507 0.47071 0.35707 0.0
C60 C 0.04265 0.79376 0.91283 0.0
C61 C 0.0242 0.81505 0.87276 0.0
C62 C 0.99551 0.81792 0.90993 0.0
C63 C 1.01148 0.7932 0.04585 0.0
C64 C 0.03535 0.7826 0.99886 0.0
C65 C 0.05056 0.75852 0.05036 0.0
H66 H 0.98747 0.6596 0.24782 0.0
C67 C 1.01212 0.78159 0.13835 0.0
C68 C 0.03368 0.75974 0.14107 0.0
H69 H 0.06929 0.6542 0.09547 0.0
H70 H 0.08143 0.70396 0.14362 0.0
H71 H 0.02769 0.70945 0.43588 0.0
H72 H 0.96637 0.72848 0.21666 0.0
H73 H 0.9574 0.73948 0.33175 0.0
H74 H 0.95696 0.70136 0.30183 0.0
H75 H 0.99346 0.68988 0.43086 0.0
H76 H 0.99378 0.7281 0.4616 0.0
C77 C 0.08312 0.76621 0.06331 0.0
C78 C 0.04635 0.72971 0.99614 0.0
C79 C 0.99898 0.85217 0.3954 0.0
C80 C 1.00885 0.85116 0.48659 0.0
C81 C 0.01797 0.82345 0.52113 0.0
C82 C 0.01658 0.7976 0.46671 0.0
C83 C 1.00626 0.79939 0.37654 0.0
C84 C 0.99846 0.82654 0.34152 0.0
C85 C 0.99185 0.8248 0.24078 0.0
C86 C 1.00052 0.79304 0.22068 0.0
C87 C 1.00538 0.77723 0.30148 0.0
C88 C 1.01049 0.8475 0.18751 0.0
C89 C 0.95882 0.83011 0.22759 0.0
C90 C 1.00819 0.66883 0.22574 0.0
C91 C 0.02665 0.65325 0.16278 0.0
C92 C 0.05416 0.66563 0.1403 0.0
C93 C 0.06108 0.69426 0.16634 0.0
C94 C 0.04034 0.71055 0.21462 0.0
C95 C 0.01664 0.69736 0.25507 0.0
C96 C 1.00109 0.71986 0.31611 0.0
C97 C 0.01814 0.74852 0.29581 0.0
C98 C 0.03681 0.74229 0.22086 0.0
C99 C 1.00418 0.71131 0.41713 0.0
C100 C 0.96853 0.72244 0.28998 0.0
H101 H 0.968 0.8112 0.02837 0.0
H102 H 0.06354 0.7877 0.88317 0.0
H103 H 0.04444 0.73376 0.92147 0.0
H104 H 0.0261 0.71806 0.01827 0.0
H105 H 0.06548 0.71493 1.002 0.0
H106 H 0.08543 0.78858 0.09212 0.0
H107 H 0.09519 0.76539 0.99712 0.0
H108 H 0.09376 0.75071 0.11113 0.0
H109 H 0.99254 0.87291 0.36563 0.0
H110 H 0.02602 0.82178 0.59035 0.0
H111 H 0.02396 0.77685 0.49417 0.0
H112 H 0.03423 0.8423 0.1931 0.0
H113 H 1.00683 0.86996 0.21391 0.0
H114 H 1.00461 0.84835 0.11447 0.0
H115 H 0.95236 0.85183 0.25531 0.0
H116 H 0.9457 0.81304 0.2636 0.0
H117 H 0.95279 0.82998 0.15479 0.0
H118 H 0.97859 0.82979 0.87412 0.0
C119 C 0.98933 0.8077 0.99854 0.0
C120 C 0.87453 1.01139 0.23019 0.0
C121 C 0.89069 0.029 0.16582 0.0
C122 C 0.87876 0.05644 0.14096 0.0
C123 C 0.83306 0.04337 0.21281 0.0
C124 C 0.84582 0.02049 0.25783 0.0
C125 C 0.82228 1.00592 0.31842 0.0
H126 H 0.66892 0.9955 0.35684 0.0
C127 C 0.80144 0.03886 0.21334 0.0
C128 C 0.79386 0.02269 0.29266 0.0
H129 H 0.71627 0.03312 0.58153 0.0
H130 H 0.76248 0.03098 0.48973 0.0
H131 H 0.70063 0.03778 0.19339 0.0
H132 H 0.7019 0.95158 0.28333 0.0
H133 H 0.73357 0.94968 0.21086 0.0
H134 H 0.69788 0.95757 0.16466 0.0
H135 H 0.67349 1.00923 0.20152 0.0
H136 H 0.69815 1.01014 0.10706 0.0
C137 C 0.82928 1.01046 0.41977 0.0
C138 C 0.82004 0.97303 0.2963 0.0
C139 C 0.76579 0.02299 0.88857 0.0
C140 C 0.74197 1.00657 0.85579 0.0
C141 C 0.73065 0.98404 0.91366 0.0
C142 C 0.73766 0.98317 1.00624 0.0
C143 C 0.75553 1.00503 0.04067 0.0
C144 C 0.77151 0.02256 0.98228 0.0
C145 C 0.79326 0.04104 0.03239 0.0
C146 C 0.78639 0.03202 0.13147 0.0
C147 C 0.76328 1.01192 0.13408 0.0
C148 C 0.78611 0.07365 0.01589 0.0
C149 C 0.82437 0.03263 0.9978 0.0
C150 C 0.68908 1.00281 0.38778 0.0
C151 C 0.68858 1.01403 0.4774 0.0
C152 C 0.71568 0.02411 0.51333 0.0
C153 C 0.7423 0.0227 0.46141 0.0
C154 C 0.74195 1.01131 0.37231 0.0
C155 C 0.71542 1.00231 0.33624 0.0
C156 C 0.71825 0.995 0.2361 0.0
C157 C 0.75016 1.00367 0.21787 0.0
C158 C 0.76488 1.0104 0.2985 0.0
C159 C 0.69648 1.01412 0.18135 0.0
C160 C 0.71274 0.96178 0.22279 0.0
H161 H 0.84009 0.08319 0.13578 0.0
H162 H 0.88336 0.99075 0.254 0.0
H163 H 0.81517 0.96981 0.2227 0.0
H164 H 0.8023 0.9626 0.33741 0.0
H165 H 0.84091 0.96158 0.31211 0.0
H166 H 0.83085 0.03419 0.43566 0.0
H167 H 0.8505 0.99992 0.43719 0.0
H168 H 0.81181 1.00074 0.46364 0.0
H169 H 0.77708 0.0386 0.84506 0.0
H170 H 0.71385 0.96907 0.89198 0.0
H171 H 0.72805 0.9667 0.04934 0.0
H172 H 0.76252 0.07812 0.0297 0.0
H173 H 0.79108 0.08002 0.94405 0.0
H174 H 0.79889 0.08797 0.0613 0.0
H175 H 0.83388 1.01461 0.03936 0.0
H176 H 0.83929 0.0517 0.99677 0.0
H177 H 0.82431 0.02503 0.92576 0.0
H178 H 0.89056 0.07092 0.09483 0.0
C179 C 0.84977 0.06358 0.16361 0.0
C180 C 0.5151 0.71303 0.46043 0.0
C181 C 0.49945 0.68932 0.50298 0.0
C182 C 0.46919 0.68739 0.48824 0.0
C183 C 0.47057 0.72853 0.38303 0.0
C184 C 0.49977 0.73305 0.40177 0.0
C185 C 0.51036 0.76107 0.35246 0.0
H186 H 0.47157 0.87082 0.03884 0.0
C187 C 0.46087 0.74971 0.31282 0.0
C188 C 0.48345 0.7701 0.29513 0.0
H189 H 0.55295 0.86802 0.18517 0.0
H190 H 0.53761 0.82202 0.26106 0.0
H191 H 0.4768 0.80769 0.98331 0.0
H192 H 0.42622 0.84934 0.19368 0.0
H193 H 0.40306 0.82498 0.13497 0.0
H194 H 0.42089 0.85407 0.07299 0.0
H195 H 0.4408 0.82134 0.96112 0.0
H196 H 0.44693 0.78416 0.99951 0.0
C197 C 0.53696 0.75394 0.29132 0.0
C198 C 0.51751 0.78426 0.42484 0.0
C199 C 0.37392 0.71928 0.12697 0.0
C200 C 0.3662 0.72693 0.03726 0.0
C201 C 0.37406 0.75492 1.00443 0.0
C202 C 0.39304 0.77279 0.05471 0.0
C203 C 0.40492 0.76211 0.13701 0.0
C204 C 0.39426 0.73633 0.17348 0.0
C205 C 0.41119 0.72629 0.25531 0.0
C206 C 0.43528 0.74928 0.25834 0.0
C207 C 0.43122 0.7704 0.19023 0.0
C208 C 0.42336 0.69509 0.23459 0.0
C209 C 0.39035 0.72806 0.33973 0.0
C210 C 0.48593 0.86087 0.08884 0.0
C211 C 0.513 0.87373 0.10769 0.0
C212 C 0.53161 0.85898 0.17032 0.0
C213 C 0.52268 0.83243 0.21464 0.0
C214 C 0.49504 0.82011 0.19518 0.0
C215 C 0.47768 0.83449 0.13152 0.0
C216 C 0.45068 0.81774 0.10891 0.0
C217 C 0.45249 0.79259 0.17622 0.0
C218 C 0.47873 0.79304 0.22747 0.0
C219 C 0.45367 0.80726 1.00814 0.0
C220 C 0.42366 0.83748 0.12798 0.0
H221 H 0.43194 0.70322 0.42158 0.0
H222 H 0.53827 0.71586 0.47274 0.0
H223 H 0.49845 0.78756 0.47155 0.0
H224 H 0.52271 0.80567 0.39358 0.0
H225 H 0.53653 0.77721 0.46653 0.0
H226 H 0.53156 0.736 0.24322 0.0
H227 H 0.55589 0.74684 0.3333 0.0
H228 H 0.54377 0.77319 0.25026 0.0
H229 H 0.36839 0.69798 0.15472 0.0
H230 H 0.36799 0.76164 0.93607 0.0
H231 H 0.39928 0.79326 0.02431 0.0
H232 H 0.43069 0.69345 0.16206 0.0
H233 H 0.40634 0.6781 0.24651 0.0
H234 H 0.44276 0.68894 0.27429 0.0
H235 H 0.3707 0.74186 0.32651 0.0
H236 H 0.40107 0.73851 0.39902 0.0
H237 H 0.38226 0.70605 0.36031 0.0
H238 H 0.45649 0.67005 0.52022 0.0
C239 C 0.45484 0.70679 0.43027 0.0
C240 C 0.35667 0.52211 0.37867 0.0
C241 C 0.38084 0.5381 0.41644 0.0
C242 C 0.38158 0.56867 0.40225 0.0
C243 C 0.33369 0.56778 0.3345 0.0
C244 C 0.3335 0.53776 0.33415 0.0
C245 C 0.30683 0.52719 0.27869 0.0
H246 H 0.18229 0.57576 0.04113 0.0
C247 C 0.3069 0.57906 0.29428 0.0
C248 C 0.29121 0.55625 0.25316 0.0
H249 H 0.20767 0.48537 0.06834 0.0
H250 H 0.25096 0.50013 0.15827 0.0
H251 H 0.18142 0.59003 0.2106 0.0
H252 H 0.24608 0.60708 0.01738 0.0
H253 H 0.24276 0.63824 0.08812 0.0
H254 H 0.21053 0.62323 0.03569 0.0
H255 H 0.18999 0.62711 0.19155 0.0
H256 H 0.2056 0.60707 0.28671 0.0
C257 C 0.28722 0.50776 0.33946 0.0
C258 C 0.31775 0.51093 0.19319 0.0
C259 C 0.25448 0.65985 0.45499 0.0
C260 C 0.22653 0.67154 0.43617 0.0
C261 C 0.21783 0.67365 0.34387 0.0
C262 C 0.2335 0.65884 0.27577 0.0
C263 C 0.25683 0.64086 0.3015 0.0
C264 C 0.26926 0.6442 0.3862 0.0
C265 C 0.29607 0.62526 0.39627 0.0
C266 C 0.29393 0.60666 0.3092 0.0
C267 C 0.26934 0.61453 0.25863 0.0
C268 C 0.29367 0.60632 0.48387 0.0
C269 C 0.32311 0.64559 0.39872 0.0
C270 C 0.19736 0.55897 0.06422 0.0
C271 C 0.19168 0.52955 0.04504 0.0
C272 C 0.2115 0.50839 0.0808 0.0
C273 C 0.23661 0.5169 0.13252 0.0
C274 C 0.24167 0.54683 0.15096 0.0
C275 C 0.22144 0.56692 0.11799 0.0
C276 C 0.22658 0.5972 0.15222 0.0
C277 C 0.25467 0.59301 0.20577 0.0
C278 C 0.2643 0.56342 0.20544 0.0
C279 C 0.19976 0.60599 0.21331 0.0
C280 C 0.23161 0.6177 0.06913 0.0
H281 H 0.36102 0.60609 0.3426 0.0
H282 H 0.35605 0.49847 0.38324 0.0
H283 H 0.33284 0.52508 0.15256 0.0
H284 H 0.2994 0.50468 0.14853 0.0
H285 H 0.3298 0.49072 0.21278 0.0
H286 H 0.28064 0.51968 0.40249 0.0
H287 H 0.29905 0.48752 0.35988 0.0
H288 H 0.26699 0.50135 0.30351 0.0
H289 H 0.26252 0.6595 0.52433 0.0
H290 H 0.19704 0.68329 0.32522 0.0
H291 H 0.22556 0.65975 0.20707 0.0
H292 H 0.27332 0.59296 0.48333 0.0
H293 H 0.29347 0.62017 0.54603 0.0
H294 H 0.31263 0.59129 0.49032 0.0
H295 H 0.31794 0.66658 0.43365 0.0
H296 H 0.33102 0.65095 0.32857 0.0
H297 H 0.34115 0.63587 0.43904 0.0
H298 H 0.39988 0.58157 0.42603 0.0
C299 C 0.35864 0.58327 0.35916 0.0
C300 C 0.91937 0.25517 0.59435 0.0
C301 C 0.89756 0.2341 0.57751 0.0
C302 C 0.89004 0.22855 0.48558 0.0
C303 C 0.93404 0.2528 0.43563 0.0
C304 C 0.93821 0.26333 0.52253 0.0
C305 C 0.96683 0.27942 0.53058 0.0
H306 H 0.03029 0.37877 0.29945 0.0
C307 C 0.96003 0.25957 0.38018 0.0
C308 C 0.97879 0.27651 0.43287 0.0
H309 H 0.03445 0.36274 0.59131 0.0
H310 H 0.02428 0.31142 0.56592 0.0
H311 H 0.06477 0.30008 0.24612 0.0
H312 H 0.9744 0.33063 0.23591 0.0
H313 H 0.99157 0.31458 0.13676 0.0
H314 H 1.00204 0.3507 0.1731 0.0
H315 H 0.05775 0.33524 0.19416 0.0
H316 H 0.04554 0.30272 0.13882 0.0
C317 C 0.98633 0.26264 0.59924 0.0
C318 C 0.96025 0.31136 0.56003 0.0
C319 C 0.98673 0.19226 0.12325 0.0
C320 C 1.00989 0.18992 0.05955 0.0
C321 C 0.03071 0.21325 0.05915 0.0
C322 C 0.02775 0.23794 0.11873 0.0
C323 C 1.00317 0.24017 0.1774 0.0
C324 C 0.98336 0.21718 0.17836 0.0
C325 C 0.95915 0.22141 0.24685 0.0
C326 C 0.96938 0.24912 0.29404 0.0
C327 C 0.99433 0.26141 0.2515 0.0
C328 C 0.9586 0.19467 0.31265 0.0
C329 C 0.92994 0.22587 0.1947 0.0
C330 C 0.02866 0.36421 0.35777 0.0
C331 C 0.03132 0.37536 0.44883 0.0
C332 C 0.031 0.35529 0.52197 0.0
C333 C 0.02458 0.32586 0.50796 0.0
C334 C 0.01767 0.31632 0.42041 0.0
C335 C 0.02299 0.33365 0.34526 0.0
C336 C 0.01926 0.31509 0.25835 0.0
C337 C 1.00932 0.28501 0.29727 0.0
C338 C 1.00407 0.28903 0.39163 0.0
C339 C 0.04857 0.31302 0.20647 0.0
C340 C 0.99541 0.32858 0.19742 0.0
H341 H 0.90259 0.23222 0.34613 0.0
H342 H 0.92434 0.2618 0.66344 0.0
H343 H 0.95798 0.32604 0.49973 0.0
H344 H 0.97723 0.32013 0.60593 0.0
H345 H 0.93954 0.31299 0.60025 0.0
H346 H 0.97949 0.26731 0.67076 0.0
H347 H 1.00978 0.26804 0.59119 0.0
H348 H 0.98481 0.23859 0.58831 0.0
H349 H 0.9715 0.1745 0.13311 0.0
H350 H 0.04938 0.21241 1.01319 0.0
H351 H 0.04457 0.25446 0.11878 0.0
H352 H 0.98055 0.19118 0.34338 0.0
H353 H 0.95227 0.17438 0.27639 0.0
H354 H 0.94276 0.19716 0.36924 0.0
H355 H 0.93289 0.22538 0.11917 0.0
H356 H 0.91989 0.24749 0.21007 0.0
H357 H 0.91385 0.20839 0.21167 0.0
H358 H 0.87258 0.21358 0.46851 0.0
C359 C 0.90804 0.23838 0.41425 0.0
C360 C 0.32483 0.02515 0.07259 0.0
C361 C 0.35592 0.02103 0.07823 0.0
C362 C 0.36791 1.01441 0.16394 0.0
C363 C 0.31954 1.00947 0.23073 0.0
C364 C 0.3069 0.01991 0.15192 0.0
C365 C 0.2735 0.02267 0.16651 0.0
H366 H 0.15644 0.98105 0.44552 0.0
C367 C 0.29648 0.99991 0.2949 0.0
C368 C 0.26912 1.01006 0.26414 0.0
H369 H 0.16173 0.06721 0.3264 0.0
H370 H 0.21181 0.05627 0.27069 0.0
H371 H 0.19966 0.94032 0.29878 0.0
H372 H 0.20833 0.99311 0.53975 0.0
H373 H 0.23447 0.96552 0.55107 0.0
H374 H 0.19623 0.9558 0.54617 0.0
H375 H 0.1854 0.9301 0.40909 0.0
H376 H 0.22256 0.92145 0.3755 0.0
C377 C 0.25727 1.00399 0.09596 0.0
C378 C 0.26446 0.05502 0.15902 0.0
C379 C 0.3254 0.91686 0.50442 0.0
C380 C 0.30969 0.89773 0.56174 0.0
C381 C 0.27894 0.89871 0.56275 0.0
C382 C 0.26411 0.91907 0.50731 0.0
C383 C 0.2804 0.93916 0.45352 0.0
C384 C 0.31053 0.93732 0.4518 0.0
C385 C 0.32482 0.96113 0.39658 0.0
C386 C 0.29798 0.97703 0.36049 0.0
C387 C 0.27224 0.96457 0.39582 0.0
C388 C 0.34409 0.94689 0.32034 0.0
C389 C 0.34219 0.98081 0.46323 0.0
C390 C 0.16713 0.99693 0.40132 0.0
C391 C 0.15406 0.0243 0.38626 0.0
C392 C 0.17053 0.0454 0.33596 0.0
C393 C 0.19918 0.03894 0.30161 0.0
C394 C 0.21171 1.01118 0.31759 0.0
C395 C 0.19591 0.99146 0.37118 0.0
C396 C 0.21507 0.96814 0.4112 0.0
C397 C 0.24478 0.97702 0.37412 0.0
C398 C 0.24296 1.00085 0.31283 0.0
C399 C 0.20519 0.93829 0.37246 0.0
C400 C 0.21346 0.9704 0.51736 0.0
H401 H 0.36059 1.00433 0.30303 0.0
H402 H 0.31492 0.03139 1.00848 0.0
H403 H 0.27153 0.06745 0.22012 0.0
H404 H 0.24046 0.05722 0.15104 0.0
H405 H 0.2746 0.06531 0.0975 0.0
H406 H 0.26465 0.9808 0.09961 0.0
H407 H 0.26145 1.0123 0.02559 0.0
H408 H 0.23326 1.00458 0.10921 0.0
H409 H 0.34916 0.91718 0.50507 0.0
H410 H 0.26658 0.8845 0.60819 0.0
H411 H 0.24062 0.91914 0.51126 0.0
H412 H 0.34747 0.92302 0.33124 0.0
H413 H 0.36646 0.95632 0.31753 0.0
H414 H 0.3339 0.94909 0.252 0.0
H415 H 0.33077 0.98258 0.53049 0.0
H416 H 0.3442 1.00366 0.4386 0.0
H417 H 0.36441 0.97174 0.47583 0.0
H418 H 0.39145 1.01242 0.17163 0.0
C419 C 0.35003 1.00904 0.23975 0.0
C420 C 0.5078 0.33089 0.07838 0.0
C421 C 0.52091 0.34339 0.99773 0.0
C422 C 0.54174 0.32592 0.95015 0.0
C423 C 0.54356 0.29187 0.07561 0.0
C424 C 0.51905 0.30409 0.11422 0.0
C425 C 0.51 0.28589 0.19782 0.0
H426 H 0.56144 0.17063 0.47164 0.0
C427 C 0.55664 0.27101 0.13945 0.0
C428 C 0.5344 0.26232 0.20198 0.0
H429 H 0.47452 0.16938 0.35812 0.0
H430 H 0.4857 0.21473 0.27059 0.0
H431 H 0.59833 0.19417 0.27631 0.0
H432 H 0.58056 0.21641 0.5296 0.0
H433 H 0.57127 0.253 0.49533 0.0
H434 H 0.60861 0.23903 0.48586 0.0
H435 H 0.60726 0.18426 0.39223 0.0
H436 H 0.62443 0.21543 0.33943 0.0
C437 C 0.47963 0.27235 0.18311 0.0
C438 C 0.51 0.30522 0.28384 0.0
C439 C 0.65259 0.31405 0.22853 0.0
C440 C 0.65441 0.32756 0.31463 0.0
C441 C 0.64114 0.31343 0.39019 0.0
C442 C 0.62315 0.28913 0.37803 0.0
C443 C 0.61861 0.27815 0.29029 0.0
C444 C 0.63192 0.29153 0.21559 0.0
C445 C 0.61389 0.28684 0.12969 0.0
C446 C 0.58623 0.27228 0.1706 0.0
C447 C 0.59217 0.26335 0.25989 0.0
C448 C 0.62993 0.2651 0.06669 0.0
C449 C 0.60887 0.31632 0.07933 0.0
C450 C 0.54456 0.18008 0.42902 0.0
C451 C 0.51716 0.16623 0.42217 0.0
C452 C 0.49575 0.1796 0.36563 0.0
C453 C 0.50192 0.20584 0.31617 0.0
C454 C 0.52927 0.21954 0.32631 0.0
C455 C 0.55013 0.20639 0.38151 0.0
C456 C 0.57863 0.22288 0.38033 0.0
C457 C 0.57165 0.24723 0.31183 0.0
C458 C 0.54266 0.24584 0.28152 0.0
C459 C 0.60359 0.20298 0.34496 0.0
C460 C 0.58508 0.23371 0.47783 0.0
H461 H 0.5685 0.28682 0.9512 0.0
H462 H 0.48998 0.34189 0.11338 0.0
H463 H 0.5319 0.31537 0.29353 0.0
H464 H 0.50469 0.29197 0.34562 0.0
H465 H 0.49345 0.32299 0.27815 0.0
H466 H 0.48035 0.25606 0.12691 0.0
H467 H 0.46344 0.28961 0.16512 0.0
H468 H 0.47167 0.26148 0.24647 0.0
H469 H 0.66366 0.32387 0.17055 0.0
H470 H 0.64107 0.32344 0.45713 0.0
H471 H 0.60923 0.28312 0.43429 0.0
H472 H 0.65095 0.27458 0.0417 0.0
H473 H 0.61616 0.25983 1.0067 0.0
H474 H 0.63483 0.2443 0.10336 0.0
H475 H 0.59186 0.32981 0.11409 0.0
H476 H 0.60397 0.31317 1.00662 0.0
H477 H 0.6291 0.32934 0.07296 0.0
H478 H 0.55157 0.33336 0.8867 0.0
C479 C 0.55222 0.29963 0.98754 0.0
Tb480 Tb 0.04299 0.01586 0.81189 0.0
Tb481 Tb 0.99349 0.02833 0.71692 0.0
C482 C 0.08364 0.99269 0.90233 0.0
C483 C 0.1006 0.96618 0.88135 0.0
C484 C 0.1034 0.94471 0.94929 0.0
C485 C 0.10473 0.91527 0.92431 0.0
C486 C 0.10213 0.90761 0.83175 0.0
C487 C 0.10726 0.92907 0.76503 0.0
C488 C 0.10572 0.95854 0.78949 0.0
C489 C 0.05735 0.03842 0.64892 0.0
C490 C 1.01572 0.96582 0.68015 0.0
C491 C 0.95269 0.04902 0.62149 0.0
C492 C 0.92916 0.07012 0.63903 0.0
C493 C 0.91797 0.08654 0.56636 0.0
C494 C 0.90038 0.11089 0.58395 0.0
C495 C 0.89406 0.11909 0.67442 0.0
C496 C 0.90219 0.10048 0.74631 0.0
C497 C 0.91998 0.0762 0.72885 0.0
C498 C 0.97953 1.00697 0.88336 0.0
C499 C 0.01943 0.07881 0.847 0.0
O500 O 0.05581 0.98791 0.91855 0.0
O501 O 0.08753 1.01481 0.84708 0.0
O502 O 0.03744 0.01964 0.66531 0.0
O503 O 0.06746 0.04669 0.72667 0.0
O504 O 0.03248 0.97152 0.75204 0.0
O505 O 1.00086 0.98753 0.64422 0.0
O506 O 0.97929 0.05973 0.6217 0.0
O507 O 0.95084 0.02452 0.66705 0.0
O508 O 0.99951 0.02518 0.86378 0.0
O509 O 0.9682 0.99914 0.80691 0.0
O510 O 1.00209 0.07244 0.77727 0.0
O511 O 0.03629 0.058 0.88078 0.0
H512 H 0.09998 0.95019 0.02056 0.0
H513 H 0.10153 0.89885 0.97712 0.0
H514 H 0.10697 0.92339 0.69329 0.0
H515 H 0.10437 0.97481 0.7356 0.0
H516 H 0.92466 0.08192 0.49667 0.0
H517 H 0.89459 0.12516 0.52754 0.0
H518 H 0.89725 0.1064 0.81625 0.0
H519 H 0.92822 0.06349 0.78583 0.0
Tb520 Tb 0.52545 0.04014 0.82144 0.0
Tb521 Tb 0.50905 0.99752 0.70166 0.0
C522 C 0.55424 0.06712 0.93922 0.0
C523 C 0.5865 0.06832 0.94253 0.0
C524 C 0.60189 0.04363 0.97395 0.0
C525 C 0.62944 0.03726 0.93809 0.0
C526 C 0.64216 0.05581 0.87227 0.0
C527 C 0.62956 0.08336 0.85626 0.0
C528 C 0.6016 0.08951 0.89048 0.0
C529 C 0.50384 0.06502 0.67127 0.0
C530 C 0.57298 0.01758 0.67176 0.0
C531 C 0.48317 0.96374 0.59444 0.0
C532 C 0.46111 0.94119 0.61352 0.0
C533 C 0.44394 0.93044 0.54268 0.0
C534 C 0.42112 0.91103 0.56188 0.0
C535 C 0.41508 0.90209 0.65239 0.0
C536 C 0.43334 0.91177 0.72278 0.0
C537 C 0.45618 0.93129 0.70348 0.0
C538 C 0.52984 0.97334 0.85545 0.0
C539 C 0.46005 0.02347 0.84145 0.0
O540 O 0.54291 0.0412 0.95327 0.0
O541 O 0.5424 0.07999 0.86869 0.0
O542 O 0.5206 0.04273 0.67448 0.0
O543 O 0.4977 0.07258 0.75451 0.0
O544 O 0.5687 0.02927 0.75397 0.0
O545 O 0.55027 1.00639 0.62953 0.0
O546 O 0.47479 0.99074 0.60907 0.0
O547 O 0.50901 0.95837 0.62798 0.0
O548 O 0.51285 0.99524 0.84863 0.0
O549 O 0.53674 0.96577 0.77334 0.0
O550 O 0.46606 1.00619 0.77096 0.0
O551 O 0.48105 0.03925 0.87746 0.0
H552 H 0.59141 0.02746 0.01759 0.0
H553 H 0.63992 0.01685 0.95725 0.0
H554 H 0.64006 0.09908 0.81136 0.0
H555 H 0.59069 0.10933 0.86805 0.0
H556 H 0.44747 0.93788 0.47305 0.0
H557 H 0.40707 0.90443 0.50633 0.0
H558 H 0.4292 0.90521 0.7929 0.0
H559 H 0.46941 0.93937 0.75911 0.0
Tb560 Tb 0.49866 0.53034 0.84049 0.0
Tb561 Tb 0.53992 0.51432 0.71835 0.0
C562 C 0.46559 0.55482 0.95565 0.0
C563 C 0.44176 0.57609 0.94529 0.0
C564 C 0.42649 0.58599 0.02239 0.0
C565 C 0.40456 0.60711 1.01334 0.0
C566 C 0.39742 0.61859 0.92677 0.0
C567 C 0.41213 0.60775 0.84915 0.0
C568 C 0.43409 0.58658 0.85834 0.0
C569 C 0.47282 0.51252 0.68521 0.0
C570 C 0.52217 0.57931 0.69989 0.0
C571 C 0.57225 0.48995 0.60234 0.0
C572 C 0.59163 0.47578 0.5348 0.0
C573 C 0.57962 0.45772 0.46783 0.0
C574 C 0.59776 0.44025 0.41391 0.0
C575 C 0.62839 0.44059 0.42524 0.0
C576 C 0.64054 0.45993 0.48882 0.0
C577 C 0.62228 0.4775 0.54301 0.0
C578 C 0.56544 0.53285 0.87314 0.0
C579 C 0.5154 0.46548 0.85608 0.0
O580 O 0.49188 0.56422 0.93515 0.0
O581 O 0.46044 0.52921 0.92056 0.0
O582 O 0.49552 0.52831 0.69185 0.0
O583 O 0.46495 0.50574 0.76725 0.0
O584 O 0.51091 0.57403 0.78219 0.0
O585 O 0.5322 0.55685 0.65274 0.0
O586 O 0.58168 0.5098 0.65845 0.0
O587 O 0.54428 0.48426 0.60988 0.0
O588 O 0.54318 0.51632 0.86706 0.0
O589 O 0.57223 0.54083 0.79104 0.0
O590 O 0.52566 0.47077 0.77273 0.0
O591 O 0.50762 0.48813 0.90596 0.0
H592 H 0.43209 0.578 0.08986 0.0
H593 H 0.39438 0.61565 0.07485 0.0
H594 H 0.40735 0.6164 0.78186 0.0
H595 H 0.44559 0.57889 0.79791 0.0
H596 H 0.55609 0.45592 0.46022 0.0
H597 H 0.58753 0.42501 0.36752 0.0
H598 H 0.66401 0.46052 0.49925 0.0
H599 H 0.63209 0.49126 0.59449 0.0
Tb600 Tb 1.01271 0.49656 0.83697 0.0
Tb601 Tb 0.02718 0.54306 0.72652 0.0
C602 C 0.9891 0.45994 0.94451 0.0
C603 C 0.96584 0.43767 0.93846 0.0
C604 C 0.952 0.42774 0.01859 0.0
C605 C 0.92881 0.40781 1.01409 0.0
C606 C 0.91903 0.39754 0.92928 0.0
C607 C 0.93367 0.40657 0.84923 0.0
C608 C 0.95696 0.42649 0.85374 0.0
C609 C 0.03408 0.47794 0.67579 0.0
C610 C 0.96332 0.52261 0.70104 0.0
C611 C 0.04979 0.57933 0.6164 0.0
C612 C 0.07324 0.60119 0.61656 0.0
C613 C 0.09111 0.60511 0.69309 0.0
C614 C 0.11496 0.62431 0.68842 0.0
C615 C 0.12094 0.64004 0.60754 0.0
C616 C 0.10193 0.63709 0.53299 0.0
C617 C 0.07829 0.61782 0.53757 0.0
C618 C 1.00706 0.56176 0.88979 0.0
C619 C 0.07703 0.51765 0.85938 0.0
O620 O 0.9808 0.48727 0.93773 0.0
O621 O 1.01284 0.45482 0.89703 0.0
O622 O 0.01601 0.49866 0.68871 0.0
O623 O 0.04097 0.46792 0.75523 0.0
O624 O 0.96889 0.50749 0.77686 0.0
O625 O 0.98512 0.53619 0.65989 0.0
O626 O 0.05792 0.55195 0.62259 0.0
O627 O 0.02723 0.58507 0.66844 0.0
O628 O 0.02442 0.54062 0.875 0.0
O629 O 0.99986 0.57204 0.81091 0.0
O630 O 0.0713 0.53167 0.78189 0.0
O631 O 0.05498 0.50498 0.90317 0.0
H632 H 0.95864 0.43598 0.08458 0.0
H633 H 0.91759 0.4015 0.07666 0.0
H634 H 0.9265 0.39885 0.78324 0.0
H635 H 0.96757 0.43369 0.79107 0.0
H636 H 0.08717 0.59266 0.75513 0.0
H637 H 0.12939 0.62603 0.74656 0.0
H638 H 0.10637 0.64827 0.46893 0.0
H639 H 0.06456 0.61512 0.47812 0.0
C640 C 0.12417 0.05525 0.4968 0.0
C641 C 0.12576 0.03123 0.43678 0.0
C642 C 0.10093 0.05831 0.5607 0.0
C643 C 0.0779 0.03768 0.56749 0.0
H644 H 0.14202 0.07084 0.49872 0.0
H645 H 0.10177 0.07635 0.60842 0.0
S646 S 0.0696 0.97263 0.41866 0.0
N647 N 0.1005 0.98782 0.38296 0.0
N648 N 0.05713 0.99367 0.5019 0.0
C649 C 0.07816 1.01466 0.50365 0.0
C650 C 0.10194 1.01142 0.43898 0.0
C651 C 0.48813 0.1362 0.53865 0.0
C652 C 0.51153 0.13824 0.47538 0.0
C653 C 0.48516 0.1119 0.59857 0.0
C654 C 0.50507 0.08814 0.59711 0.0
H655 H 0.47275 0.15417 0.54497 0.0
H656 H 0.4675 0.11214 0.64848 0.0
S657 S 0.56893 0.0815 0.43929 0.0
N658 N 0.55414 0.11336 0.41201 0.0
N659 N 0.54824 0.06788 0.5222 0.0
C660 C 0.52774 0.08929 0.53105 0.0
C661 C 0.53105 0.11422 0.47115 0.0
C662 C 0.39914 0.51084 0.55705 0.0
C663 C 0.40532 0.52497 0.47325 0.0
C664 C 0.42127 0.50568 0.62282 0.0
C665 C 0.45073 0.51455 0.60858 0.0
H666 H 0.37669 0.50536 0.5745 0.0
H667 H 0.41487 0.49582 0.68736 0.0
S668 S 0.47943 0.54898 0.39597 0.0
N669 N 0.44406 0.54493 0.37644 0.0
N670 N 0.48503 0.53569 0.4995 0.0
C671 C 0.45749 0.52705 0.52292 0.0
C672 C 0.43506 0.53211 0.45577 0.0
C673 C 1.00749 0.4226 0.49856 0.0
C674 C 0.03335 0.40716 0.47508 0.0
C675 C 1.00795 0.44739 0.55672 0.0
C676 C 0.03429 0.45755 0.59521 0.0
H677 H 0.98644 0.41398 0.47812 0.0
H678 H 0.98728 0.45709 0.57759 0.0
S679 S 0.10824 0.42681 0.54956 0.0
N680 N 0.08618 0.40566 0.49002 0.0
N681 N 0.08706 0.45152 0.5993 0.0
C682 C 0.06036 0.44345 0.56772 0.0
C683 C 0.05991 0.41854 0.50784 0.0
C684 C 0.94166 0.03734 0.09893 0.0
C685 C 0.91725 0.01863 0.11206 0.0
C686 C 0.96289 0.03237 0.02948 0.0
C687 C 0.9606 1.00862 0.96854 0.0
H688 H 0.9435 0.057 0.1396 0.0
H689 H 0.98021 0.04832 0.02011 0.0
S690 S 0.90233 0.95189 0.97637 0.0
N691 N 0.8934 0.97431 0.06042 0.0
N692 N 0.93287 0.96503 0.9308 0.0
C693 C 0.93726 0.98888 0.9841 0.0
C694 C 0.91581 0.99381 0.05537 0.0
C695 C 0.54242 0.90105 0.98625 0.0
C696 C 0.52122 0.90151 0.0568 0.0
C697 C 0.54595 0.92492 0.92486 0.0
C698 C 0.52861 0.95058 0.9311 0.0
H699 H 0.55534 0.88145 0.97525 0.0
H700 H 0.56176 0.92274 0.86968 0.0
S701 S 0.47179 0.96405 0.10932 0.0
N702 N 0.48378 0.93069 0.13238 0.0
N703 N 0.49085 0.97545 0.01953 0.0
C704 C 0.50843 0.95191 1.00453 0.0
C705 C 0.5046 0.92746 0.06628 0.0
C706 C 0.63867 0.54456 0.99869 0.0
C707 C 0.63841 0.52342 0.06919 0.0
C708 C 0.61456 0.54821 0.93892 0.0
C709 C 0.58879 0.53106 0.94661 0.0
H710 H 0.65826 0.55741 0.98656 0.0
H711 H 0.6166 0.56405 0.88397 0.0
S712 S 0.57587 0.47445 0.12531 0.0
N713 N 0.60927 0.48637 0.14649 0.0
N714 N 0.56424 0.49338 0.03621 0.0
C715 C 0.58775 0.51087 0.01982 0.0
C716 C 0.6124 0.50699 0.08009 0.0
C717 C 0.0364 0.60212 0.10051 0.0
C718 C 0.01729 0.6264 0.11002 0.0
C719 C 0.03196 0.5802 0.03379 0.0
C720 C 1.00843 0.58169 0.97192 0.0
H721 H 0.05585 0.60081 0.14228 0.0
H722 H 0.04809 0.56289 0.0273 0.0
S723 S 0.95092 0.63937 0.97065 0.0
N724 N 0.97286 0.64927 0.05419 0.0
N725 N 0.96469 0.60865 0.92923 0.0
C726 C 0.98839 0.605 0.98369 0.0
C727 C 0.99272 0.62709 0.05238 0.0
C728 C 0.86469 0.19466 0.63867 0.0
C729 C 0.89086 0.2109 0.6467 0.0
C730 C 0.8641 0.16459 0.65874 0.0
C731 C 0.88917 0.15043 0.69186 0.0
H732 H 0.84592 0.20418 0.60468 0.0
H733 H 0.8451 0.1519 0.6395 0.0
S734 S 0.96014 0.18438 0.75126 0.0
N735 N 0.9401 0.2115 0.71124 0.0
N736 N 0.9387 0.15543 0.74793 0.0
C737 C 0.9135 0.16738 0.7155 0.0
C738 C 0.91428 0.19776 0.69446 0.0
C739 C 0.34754 0.86164 0.59412 0.0
C740 C 0.32695 0.88156 0.62987 0.0
C741 C 0.37736 0.86486 0.61401 0.0
C742 C 0.38675 0.8874 0.67213 0.0
H743 H 0.34163 0.84794 0.53689 0.0
H744 H 0.39321 0.8528 0.57342 0.0
S745 S 0.33896 0.93488 0.81444 0.0
N746 N 0.31611 0.91607 0.75057 0.0
N747 N 0.37204 0.92284 0.7874 0.0
C748 C 0.36545 0.90189 0.72533 0.0
C749 C 0.33518 0.89819 0.70566 0.0
C750 C 0.67124 0.37069 0.40596 0.0
C751 C 0.66061 0.35966 0.32269 0.0
C752 C 0.66387 0.39899 0.43534 0.0
C753 C 0.64632 0.4174 0.38116 0.0
H754 H 0.68217 0.35621 0.45362 0.0
H755 H 0.66914 0.40508 0.50473 0.0
S756 S 0.62273 0.40369 0.14399 0.0
N757 N 0.63833 0.37286 0.17692 0.0
N758 N 0.62607 0.42617 0.23111 0.0
C759 C 0.64058 0.40879 0.29138 0.0
C760 C 0.64752 0.3799 0.26197 0.0
C761 C 0.20177 0.64703 0.56766 0.0
C762 C 0.20345 0.67156 0.50885 0.0
C763 C 0.1753 0.63884 0.60906 0.0
C764 C 0.14953 0.65484 0.59332 0.0
H765 H 0.21998 0.63193 0.57358 0.0
H766 H 0.17447 0.6181 0.64513 0.0
S767 S 0.14423 0.72589 0.47127 0.0
N768 N 0.17875 0.71577 0.45699 0.0
N769 N 0.12864 0.69993 0.53372 0.0
C770 C 0.15179 0.68166 0.54633 0.0
C771 C 0.17889 0.69018 0.50462 0.0
C772 C 0.06627 0.83498 0.77882 0.0
C773 C 0.03809 0.83933 0.81825 0.0
C774 C 0.08728 0.85747 0.77794 0.0
C775 C 0.08001 0.88518 0.81153 0.0
H776 H 0.07329 0.81337 0.75791 0.0
H777 H 0.10957 0.85266 0.75676 0.0
S778 S 1.00629 0.91197 0.87928 0.0
N779 N 1.00193 0.87673 0.86026 0.0
N780 N 0.04123 0.91835 0.8584 0.0
C781 C 0.05065 0.89125 0.83327 0.0
C782 C 0.02945 0.86858 0.83458 0.0
C783 C 0.71986 0.05076 0.78792 0.0
C784 C 0.72263 0.01989 0.7844 0.0
C785 C 0.69279 0.06336 0.8104 0.0
C786 C 0.66792 0.04559 0.81975 0.0
H787 H 0.73893 0.06468 0.79297 0.0
H788 H 0.69209 0.08621 0.82982 0.0
S789 S 0.66201 0.9685 0.74312 0.0
N790 N 0.69727 0.97623 0.73403 0.0
N791 N 0.64599 0.99867 0.78059 0.0
C792 C 0.6695 0.01677 0.78616 0.0
C793 C 0.69711 1.00461 0.7615 0.0
C794 C 0.38176 0.69842 0.90264 0.0
C795 C 0.36088 0.70241 0.97301 0.0
C796 C 0.3909 0.6703 0.87758 0.0
C797 C 0.37911 0.64542 0.92115 0.0
H798 H 0.3945 0.71674 0.87711 0.0
H799 H 0.40988 0.66839 0.83306 0.0
S800 S 0.31507 0.64429 0.07848 0.0
N801 N 0.32202 0.67945 0.06235 0.0
N802 N 0.33927 0.62638 0.01531 0.0
C803 C 0.3541 0.64912 0.97671 0.0
C804 C 0.3447 0.67779 1.00179 0.0
C805 C 0.85899 0.34451 0.99561 0.0
C806 C 0.83382 0.36088 0.97252 0.0
C807 C 0.8872 0.35496 0.97403 0.0
C808 C 0.89094 0.38131 0.92529 0.0
H809 H 0.85707 0.32633 0.0431 0.0
H810 H 0.90604 0.34391 1.00274 0.0
S811 S 0.8322 0.42768 0.8279 0.0
N812 N 0.81466 0.40081 0.88012 0.0
N813 N 0.86731 0.42058 0.84221 0.0
C814 C 0.86602 0.39499 0.8894 0.0
C815 C 0.83745 0.38431 0.91063 0.0
C816 C 0.03963 0.15025 0.97406 0.0
C817 C 1.01219 0.16273 0.99811 0.0
C818 C 0.04195 0.12352 0.92474 0.0
C819 C 0.01698 0.10798 0.89543 0.0
H820 H 0.05965 0.16065 0.99606 0.0
H821 H 0.06356 0.11485 0.90989 0.0
S822 S 0.93994 0.12889 0.94438 0.0
N823 N 0.95923 0.15615 0.98607 0.0
N824 N 0.96405 0.10601 0.89969 0.0
C825 C 0.98955 0.11998 0.91854 0.0
C826 C 0.98706 0.14717 0.9679 0.0
C827 C 0.3898 0.04817 0.96815 0.0
C828 C 0.37726 0.02162 0.99875 0.0
C829 C 0.41586 0.04869 0.91436 0.0
C830 C 0.43037 0.02268 0.88762 0.0
H831 H 0.38047 0.06875 0.99074 0.0
H832 H 0.42524 0.06969 0.89588 0.0
S833 S 0.40826 0.94764 0.95627 0.0
N834 N 0.3827 0.96878 1.00191 0.0
N835 N 0.43051 0.96975 0.89932 0.0
C836 C 0.41765 0.99606 0.91587 0.0
C837 C 0.39151 0.99555 0.97168 0.0
C838 C 0.51648 0.38118 0.86901 0.0
C839 C 0.51509 0.37451 0.96366 0.0
C840 C 0.51632 0.41026 0.83546 0.0
C841 C 0.51404 0.43456 0.89416 0.0
H842 H 0.51824 0.36372 0.81949 0.0
H843 H 0.51816 0.41367 0.76236 0.0
S844 S 0.50739 0.43008 0.14742 0.0
N845 N 0.51035 0.39558 0.11535 0.0
N846 N 0.50829 0.44971 0.05242 0.0
C847 C 0.51105 0.42835 0.9886 0.0
C848 C 0.51189 0.39865 0.02309 0.0
C849 C 0.14083 0.50656 0.0301 0.0
C850 C 0.16435 0.52237 0.99085 0.0
C851 C 0.11315 0.5046 0.9866 0.0
C852 C 0.1075 0.51825 0.9013 0.0
H853 H 0.14339 0.49669 0.09697 0.0
H854 H 0.09577 0.49282 0.02158 0.0
S855 S 0.16261 0.56031 0.76589 0.0
N856 N 0.18041 0.55062 0.85902 0.0
N857 N 0.12932 0.54659 0.77729 0.0
C858 C 0.13134 0.53309 0.85988 0.0
C859 C 0.15935 0.53525 0.90447 0.0
C860 C 0.03581 0.88865 0.58639 0.0
C861 C 1.00992 0.87925 0.54282 0.0
C862 C 0.03758 0.91624 0.63108 0.0
C863 C 1.01353 0.93564 0.63663 0.0
H864 H 0.05524 0.87503 0.58326 0.0
H865 H 0.05819 0.92285 0.65941 0.0
S866 S 0.93993 0.92099 0.53971 0.0
N867 N 0.95922 0.89168 0.51197 0.0
N868 N 0.96244 0.94244 0.59639 0.0
C869 C 0.98739 0.92616 0.59496 0.0
C870 C 0.98562 0.89836 0.54867 0.0
C871 C 0.64046 0.99114 0.53331 0.0
C872 C 0.65961 1.01548 0.53037 0.0
C873 C 0.61288 0.99211 0.57887 0.0
C874 C 0.60281 0.01742 0.62465 0.0
H875 H 0.64697 0.97089 0.50067 0.0
H876 H 0.59945 0.97258 0.57927 0.0
S877 S 0.64083 0.08923 0.61894 0.0
N878 N 0.66399 0.06705 0.56634 0.0
N879 N 0.61258 0.06887 0.65091 0.0
C880 C 0.62104 0.04234 0.61867 0.0
C881 C 0.64919 0.04135 0.57216 0.0
C882 C 0.52784 0.64181 0.52099 0.0
C883 C 0.51253 0.66531 0.56163 0.0
C884 C 0.53191 0.61473 0.56727 0.0
C885 C 0.52071 0.60961 0.65654 0.0
H886 H 0.53509 0.64367 0.45053 0.0
H887 H 0.54289 0.59721 0.53088 0.0
S888 S 0.48005 0.66456 0.79531 0.0
N889 N 0.48715 0.68184 0.6983 0.0
N890 N 0.49477 0.63168 0.78475 0.0
C891 C 0.50653 0.63347 0.69932 0.0
C892 C 0.50245 0.66097 0.65221 0.0
C893 C 0.89761 0.54163 0.54463 0.0
C894 C 0.88011 0.51617 0.54846 0.0
C895 C 0.92367 0.54423 0.59705 0.0
C896 C 0.93356 0.52149 0.65553 0.0
H897 H 0.8923 0.55879 0.49623 0.0
H898 H 0.93681 0.56381 0.58883 0.0
S899 S 0.89769 0.44938 0.68189 0.0
N900 N 0.87548 0.46763 0.61421 0.0
N901 N 0.92415 0.4722 0.70865 0.0
C902 C 0.91587 0.4964 0.66131 0.0
C903 C 0.88935 0.4939 0.60927 0.0
loop_
_geom_bond_atom_site_label_1
_geom_bond_atom_site_label_2
_geom_bond_distance
_geom_bond_site_symmetry_2
_ccdc_geom_bond_type
C0 C1 1.391 . S
C0 C4 1.391 . S
C0 H42 0.948 . S
C1 C0 1.391 . S
C1 C2 1.391 . S
C2 C1 1.391 . S
C2 H58 0.947 . S
C2 C59 1.392 . S
C3 C4 1.391 . S
C3 C7 1.397 . S
C3 C59 1.419 . S
C4 C0 1.391 . S
C4 C3 1.391 . S
C4 C5 1.399 . S
C5 C4 1.399 . S
C5 C8 1.396 . S
C5 C17 1.453 . S
C5 C18 1.684 . S
H6 C30 0.948 . S
C7 C3 1.397 . S
C7 C8 1.394 . S
C7 C26 1.723 . S
C8 C5 1.396 . S
C8 C7 1.394 . S
C8 C38 1.723 . S
H9 C32 0.947 . S
H10 C33 0.948 . S
H11 C39 0.982 . S
H12 C40 0.979 . S
H13 C40 0.980 . S
H14 C40 0.983 . S
H15 C39 0.979 . S
H16 C39 0.977 . S
C17 C5 1.453 . S
C17 H46 0.982 . S
C17 H47 0.979 . S
C17 H48 0.977 . S
C18 C5 1.684 . S
C18 H43 0.979 . S
C18 H44 0.980 . S
C18 H45 0.983 . S
C19 C20 1.391 . S
C19 C24 1.391 . S
C19 H49 0.948 . S
C20 C19 1.391 . S
C20 C21 1.391 . S
C21 C20 1.391 . S
C21 C22 1.392 . S
C21 H50 0.947 . S
C22 C21 1.392 . S
C22 C23 1.419 . S
C22 H51 0.948 . S
C23 C22 1.419 . S
C23 C24 1.391 . S
C23 C27 1.397 . S
C24 C19 1.391 . S
C24 C23 1.391 . S
C24 C25 1.399 . S
C25 C24 1.399 . S
C25 C26 1.396 . S
C25 C28 1.453 . S
C25 C29 1.684 . S
C26 C7 1.723 . S
C26 C25 1.396 . S
C26 C27 1.394 . S
C27 C23 1.397 . S
C27 C26 1.394 . S
C27 C37 1.723 . S
C28 C25 1.453 . S
C28 H52 0.982 . S
C28 H53 0.979 . S
C28 H54 0.977 . S
C29 C25 1.684 . S
C29 H55 0.979 . S
C29 H56 0.980 . S
C29 H57 0.983 . S
C30 H6 0.948 . S
C30 C31 1.391 . S
C30 C35 1.391 . S
C31 C30 1.391 . S
C31 C32 1.391 . S
C32 H9 0.947 . S
C32 C31 1.391 . S
C32 C33 1.392 . S
C33 H10 0.948 . S
C33 C32 1.392 . S
C33 C34 1.419 . S
C34 C33 1.419 . S
C34 C35 1.391 . S
C34 C38 1.397 . S
C35 C30 1.391 . S
C35 C34 1.391 . S
C35 C36 1.399 . S
C36 C35 1.399 . S
C36 C37 1.396 . S
C36 C39 1.453 . S
C36 C40 1.684 . S
C37 C27 1.723 . S
C37 C36 1.396 . S
C37 C38 1.394 . S
C38 C8 1.723 . S
C38 C34 1.397 . S
C38 C37 1.394 . S
C39 H11 0.982 . S
C39 H15 0.979 . S
C39 H16 0.977 . S
C39 C36 1.453 . S
C40 H12 0.979 . S
C40 H13 0.980 . S
C40 H14 0.983 . S
C40 C36 1.684 . S
H41 C59 0.948 . S
H42 C0 0.948 . S
H43 C18 0.979 . S
H44 C18 0.980 . S
H45 C18 0.983 . S
H46 C17 0.982 . S
H47 C17 0.979 . S
H48 C17 0.977 . S
H49 C19 0.948 . S
H50 C21 0.947 . S
H51 C22 0.948 . S
H52 C28 0.982 . S
H53 C28 0.979 . S
H54 C28 0.977 . S
H55 C29 0.979 . S
H56 C29 0.980 . S
H57 C29 0.983 . S
H58 C2 0.947 . S
C59 C2 1.392 . S
C59 C3 1.419 . S
C59 H41 0.948 . S
C60 C61 1.391 . S
C60 C64 1.391 . S
C60 H102 0.948 . S
C61 C60 1.391 . S
C61 C62 1.391 . S
C62 C61 1.391 . S
C62 H118 0.947 . S
C62 C119 1.392 . S
C63 C64 1.391 . S
C63 C67 1.397 1_655 S
C63 C119 1.419 . S
C64 C60 1.391 . S
C64 C63 1.391 . S
C64 C65 1.399 . S
C65 C64 1.399 . S
C65 C68 1.396 1_655 S
C65 C77 1.453 1_655 S
C65 C78 1.684 . S
H66 C90 0.948 . S
C67 C63 1.397 1_455 S
C67 C68 1.394 . S
C67 C86 1.723 . S
C68 C65 1.396 1_455 S
C68 C67 1.394 . S
C68 C98 1.723 . S
H69 C92 0.947 . S
H70 C93 0.948 . S
H71 C99 0.982 . S
H72 C100 0.979 . S
H73 C100 0.980 . S
H74 C100 0.983 . S
H75 C99 0.979 . S
H76 C99 0.977 . S
C77 C65 1.453 1_455 S
C77 H106 0.982 . S
C77 H107 0.979 . S
C77 H108 0.977 . S
C78 C65 1.684 . S
C78 H103 0.979 . S
C78 H104 0.980 . S
C78 H105 0.983 . S
C79 C80 1.391 . S
C79 C84 1.391 . S
C79 H109 0.948 . S
C80 C79 1.391 . S
C80 C81 1.391 . S
C81 C80 1.391 . S
C81 C82 1.392 . S
C81 H110 0.947 . S
C82 C81 1.392 . S
C82 C83 1.419 . S
C82 H111 0.948 . S
C83 C82 1.419 . S
C83 C84 1.391 . S
C83 C87 1.397 1_655 S
C84 C79 1.391 . S
C84 C83 1.391 . S
C84 C85 1.399 . S
C85 C84 1.399 . S
C85 C86 1.396 1_655 S
C85 C88 1.453 1_655 S
C85 C89 1.684 . S
C86 C67 1.723 . S
C86 C85 1.396 1_455 S
C86 C87 1.394 . S
C87 C83 1.397 1_455 S
C87 C86 1.394 . S
C87 C97 1.723 . S
C88 C85 1.453 1_455 S
C88 H112 0.982 . S
C88 H113 0.979 . S
C88 H114 0.977 . S
C89 C85 1.684 . S
C89 H115 0.979 . S
C89 H116 0.980 . S
C89 H117 0.983 . S
C90 H66 0.948 . S
C90 C91 1.391 . S
C90 C95 1.391 . S
C91 C90 1.391 . S
C91 C92 1.391 . S
C92 H69 0.947 . S
C92 C91 1.391 . S
C92 C93 1.392 . S
C93 H70 0.948 . S
C93 C92 1.392 . S
C93 C94 1.419 . S
C94 C93 1.419 . S
C94 C95 1.391 . S
C94 C98 1.397 1_655 S
C95 C90 1.391 . S
C95 C94 1.391 . S
C95 C96 1.399 . S
C96 C95 1.399 . S
C96 C97 1.396 1_655 S
C96 C99 1.453 1_655 S
C96 C100 1.684 . S
C97 C87 1.723 . S
C97 C96 1.396 1_455 S
C97 C98 1.394 . S
C98 C68 1.723 . S
C98 C94 1.397 1_455 S
C98 C97 1.394 . S
C99 H71 0.982 . S
C99 H75 0.979 . S
C99 H76 0.977 . S
C99 C96 1.453 1_455 S
C100 H72 0.979 . S
C100 H73 0.980 . S
C100 H74 0.983 . S
C100 C96 1.684 . S
H101 C119 0.948 . S
H102 C60 0.948 . S
H103 C78 0.979 . S
H104 C78 0.980 . S
H105 C78 0.983 . S
H106 C77 0.982 . S
H107 C77 0.979 . S
H108 C77 0.977 . S
H109 C79 0.948 . S
H110 C81 0.947 . S
H111 C82 0.948 . S
H112 C88 0.982 . S
H113 C88 0.979 . S
H114 C88 0.977 . S
H115 C89 0.979 . S
H116 C89 0.980 . S
H117 C89 0.983 . S
H118 C62 0.947 . S
C119 C62 1.392 . S
C119 C63 1.419 . S
C119 H101 0.948 . S
C120 C121 1.391 . S
C120 C124 1.391 . S
C120 H162 0.948 . S
C121 C120 1.391 . S
C121 C122 1.391 . S
C122 C121 1.391 . S
C122 H178 0.947 . S
C122 C179 1.392 . S
C123 C124 1.391 . S
C123 C127 1.397 1_565 S
C123 C179 1.419 . S
C124 C120 1.391 . S
C124 C123 1.391 . S
C124 C125 1.399 . S
C125 C124 1.399 . S
C125 C128 1.396 1_565 S
C125 C137 1.453 1_565 S
C125 C138 1.684 . S
H126 C150 0.948 . S
C127 C123 1.397 1_545 S
C127 C128 1.394 . S
C127 C146 1.723 . S
C128 C125 1.396 1_545 S
C128 C127 1.394 . S
C128 C158 1.723 . S
H129 C152 0.947 . S
H130 C153 0.948 . S
H131 C159 0.982 . S
H132 C160 0.979 . S
H133 C160 0.980 . S
H134 C160 0.983 . S
H135 C159 0.979 . S
H136 C159 0.977 . S
C137 C125 1.453 1_545 S
C137 H166 0.982 . S
C137 H167 0.979 . S
C137 H168 0.977 . S
C138 C125 1.684 . S
C138 H163 0.979 . S
C138 H164 0.980 . S
C138 H165 0.983 . S
C139 C140 1.391 . S
C139 C144 1.391 . S
C139 H169 0.948 . S
C140 C139 1.391 . S
C140 C141 1.391 . S
C141 C140 1.391 . S
C141 C142 1.392 . S
C141 H170 0.947 . S
C142 C141 1.392 . S
C142 C143 1.419 . S
C142 H171 0.948 . S
C143 C142 1.419 . S
C143 C144 1.391 . S
C143 C147 1.397 1_565 S
C144 C139 1.391 . S
C144 C143 1.391 . S
C144 C145 1.399 . S
C145 C144 1.399 . S
C145 C146 1.396 1_565 S
C145 C148 1.453 1_565 S
C145 C149 1.684 . S
C146 C127 1.723 . S
C146 C145 1.396 1_545 S
C146 C147 1.394 . S
C147 C143 1.397 1_545 S
C147 C146 1.394 . S
C147 C157 1.723 . S
C148 C145 1.453 1_545 S
C148 H172 0.982 . S
C148 H173 0.979 . S
C148 H174 0.977 . S
C149 C145 1.684 . S
C149 H175 0.979 . S
C149 H176 0.980 . S
C149 H177 0.983 . S
C150 H126 0.948 . S
C150 C151 1.391 . S
C150 C155 1.391 . S
C151 C150 1.391 . S
C151 C152 1.391 . S
C152 H129 0.947 . S
C152 C151 1.391 . S
C152 C153 1.392 . S
C153 H130 0.948 . S
C153 C152 1.392 . S
C153 C154 1.419 . S
C154 C153 1.419 . S
C154 C155 1.391 . S
C154 C158 1.397 1_565 S
C155 C150 1.391 . S
C155 C154 1.391 . S
C155 C156 1.399 . S
C156 C155 1.399 . S
C156 C157 1.396 1_565 S
C156 C159 1.453 1_565 S
C156 C160 1.684 . S
C157 C147 1.723 . S
C157 C156 1.396 1_545 S
C157 C158 1.394 . S
C158 C128 1.723 . S
C158 C154 1.397 1_545 S
C158 C157 1.394 . S
C159 H131 0.982 . S
C159 H135 0.979 . S
C159 H136 0.977 . S
C159 C156 1.453 1_545 S
C160 H132 0.979 . S
C160 H133 0.980 . S
C160 H134 0.983 . S
C160 C156 1.684 . S
H161 C179 0.948 . S
H162 C120 0.948 . S
H163 C138 0.979 . S
H164 C138 0.980 . S
H165 C138 0.983 . S
H166 C137 0.982 . S
H167 C137 0.979 . S
H168 C137 0.977 . S
H169 C139 0.948 . S
H170 C141 0.947 . S
H171 C142 0.948 . S
H172 C148 0.982 . S
H173 C148 0.979 . S
H174 C148 0.977 . S
H175 C149 0.979 . S
H176 C149 0.980 . S
H177 C149 0.983 . S
H178 C122 0.947 . S
C179 C122 1.392 . S
C179 C123 1.419 . S
C179 H161 0.948 . S
C180 C181 1.391 . S
C180 C184 1.391 . S
C180 H222 0.948 . S
C181 C180 1.391 . S
C181 C182 1.391 . S
C182 C181 1.391 . S
C182 H238 0.947 . S
C182 C239 1.392 . S
C183 C184 1.391 . S
C183 C187 1.397 . S
C183 C239 1.419 . S
C184 C180 1.391 . S
C184 C183 1.391 . S
C184 C185 1.399 . S
C185 C184 1.399 . S
C185 C188 1.396 . S
C185 C197 1.453 . S
C185 C198 1.684 . S
H186 C210 0.948 . S
C187 C183 1.397 . S
C187 C188 1.394 . S
C187 C206 1.723 . S
C188 C185 1.396 . S
C188 C187 1.394 . S
C188 C218 1.723 . S
H189 C212 0.947 . S
H190 C213 0.948 . S
H191 C219 0.982 . S
H192 C220 0.979 . S
H193 C220 0.980 . S
H194 C220 0.983 . S
H195 C219 0.979 . S
H196 C219 0.977 . S
C197 C185 1.453 . S
C197 H226 0.982 . S
C197 H227 0.979 . S
C197 H228 0.977 . S
C198 C185 1.684 . S
C198 H223 0.979 . S
C198 H224 0.980 . S
C198 H225 0.983 . S
C199 C200 1.391 . S
C199 C204 1.391 . S
C199 H229 0.948 . S
C200 C199 1.391 . S
C200 C201 1.391 . S
C201 C200 1.391 . S
C201 C202 1.392 . S
C201 H230 0.947 . S
C202 C201 1.392 . S
C202 C203 1.419 . S
C202 H231 0.948 . S
C203 C202 1.419 . S
C203 C204 1.391 . S
C203 C207 1.397 . S
C204 C199 1.391 . S
C204 C203 1.391 . S
C204 C205 1.399 . S
C205 C204 1.399 . S
C205 C206 1.396 . S
C205 C208 1.453 . S
C205 C209 1.684 . S
C206 C187 1.723 . S
C206 C205 1.396 . S
C206 C207 1.394 . S
C207 C203 1.397 . S
C207 C206 1.394 . S
C207 C217 1.723 . S
C208 C205 1.453 . S
C208 H232 0.982 . S
C208 H233 0.979 . S
C208 H234 0.977 . S
C209 C205 1.684 . S
C209 H235 0.979 . S
C209 H236 0.980 . S
C209 H237 0.983 . S
C210 H186 0.948 . S
C210 C211 1.391 . S
C210 C215 1.391 . S
C211 C210 1.391 . S
C211 C212 1.391 . S
C212 H189 0.947 . S
C212 C211 1.391 . S
C212 C213 1.392 . S
C213 H190 0.948 . S
C213 C212 1.392 . S
C213 C214 1.419 . S
C214 C213 1.419 . S
C214 C215 1.391 . S
C214 C218 1.397 . S
C215 C210 1.391 . S
C215 C214 1.391 . S
C215 C216 1.399 . S
C216 C215 1.399 . S
C216 C217 1.396 . S
C216 C219 1.453 . S
C216 C220 1.684 . S
C217 C207 1.723 . S
C217 C216 1.396 . S
C217 C218 1.394 . S
C218 C188 1.723 . S
C218 C214 1.397 . S
C218 C217 1.394 . S
C219 H191 0.982 . S
C219 H195 0.979 . S
C219 H196 0.977 . S
C219 C216 1.453 . S
C220 H192 0.979 . S
C220 H193 0.980 . S
C220 H194 0.983 . S
C220 C216 1.684 . S
H221 C239 0.948 . S
H222 C180 0.948 . S
H223 C198 0.979 . S
H224 C198 0.980 . S
H225 C198 0.983 . S
H226 C197 0.982 . S
H227 C197 0.979 . S
H228 C197 0.977 . S
H229 C199 0.948 . S
H230 C201 0.947 . S
H231 C202 0.948 . S
H232 C208 0.982 . S
H233 C208 0.979 . S
H234 C208 0.977 . S
H235 C209 0.979 . S
H236 C209 0.980 . S
H237 C209 0.983 . S
H238 C182 0.947 . S
C239 C182 1.392 . S
C239 C183 1.419 . S
C239 H221 0.948 . S
C240 C241 1.391 . S
C240 C244 1.391 . S
C240 H282 0.948 . S
C241 C240 1.391 . S
C241 C242 1.391 . S
C242 C241 1.391 . S
C242 H298 0.947 . S
C242 C299 1.392 . S
C243 C244 1.391 . S
C243 C247 1.397 . S
C243 C299 1.419 . S
C244 C240 1.391 . S
C244 C243 1.391 . S
C244 C245 1.399 1_554 S
C245 C244 1.399 1_556 S
C245 C248 1.399 . S
C245 C257 1.453 . S
C245 C258 1.684 . S
H246 C270 0.948 . S
C247 C243 1.397 . S
C247 C248 1.386 1_554 S
C247 C266 1.723 . S
C248 C245 1.399 . S
C248 C247 1.386 1_556 S
C248 C278 1.726 . S
H249 C272 0.947 . S
H250 C273 0.948 . S
H251 C279 0.982 . S
H252 C280 0.979 . S
H253 C280 0.980 1_554 S
H254 C280 0.983 . S
H255 C279 0.979 . S
H256 C279 0.977 1_554 S
C257 C245 1.453 . S
C257 H286 0.982 . S
C257 H287 0.979 . S
C257 H288 0.977 . S
C258 C245 1.684 . S
C258 H283 0.979 . S
C258 H284 0.980 . S
C258 H285 0.983 . S
C259 C260 1.391 . S
C259 C264 1.391 . S
C259 H289 0.948 . S
C260 C259 1.391 . S
C260 C261 1.391 . S
C261 C260 1.391 . S
C261 C262 1.392 . S
C261 H290 0.947 . S
C262 C261 1.392 . S
C262 C263 1.419 . S
C262 H291 0.948 . S
C263 C262 1.419 . S
C263 C264 1.391 . S
C263 C267 1.397 . S
C264 C259 1.391 . S
C264 C263 1.391 . S
C264 C265 1.399 . S
C265 C264 1.399 . S
C265 C266 1.396 . S
C265 C268 1.453 . S
C265 C269 1.684 . S
C266 C247 1.723 . S
C266 C265 1.396 . S
C266 C267 1.394 . S
C267 C263 1.397 . S
C267 C266 1.394 . S
C267 C277 1.732 . S
C268 C265 1.453 . S
C268 H292 0.982 . S
C268 H293 0.979 . S
C268 H294 0.977 . S
C269 C265 1.684 . S
C269 H295 0.979 . S
C269 H296 0.980 . S
C269 H297 0.983 . S
C270 H246 0.948 . S
C270 C271 1.391 . S
C270 C275 1.391 . S
C271 C270 1.391 . S
C271 C272 1.391 . S
C272 H249 0.947 . S
C272 C271 1.391 . S
C272 C273 1.392 . S
C273 H250 0.948 . S
C273 C272 1.392 . S
C273 C274 1.419 . S
C274 C273 1.419 . S
C274 C275 1.391 . S
C274 C278 1.397 . S
C275 C270 1.391 . S
C275 C274 1.391 . S
C275 C276 1.399 . S
C276 C275 1.399 . S
C276 C277 1.390 1_556 S
C276 C279 1.453 . S
C276 C280 1.684 . S
C277 C267 1.732 . S
C277 C276 1.390 1_554 S
C277 C278 1.390 1_554 S
C278 C248 1.726 . S
C278 C274 1.397 . S
C278 C277 1.390 1_556 S
C279 H251 0.982 . S
C279 H255 0.979 . S
C279 H256 0.977 1_556 S
C279 C276 1.453 . S
C280 H252 0.979 . S
C280 H253 0.980 1_556 S
C280 H254 0.983 . S
C280 C276 1.684 . S
H281 C299 0.948 . S
H282 C240 0.948 . S
H283 C258 0.979 . S
H284 C258 0.980 . S
H285 C258 0.983 . S
H286 C257 0.982 . S
H287 C257 0.979 . S
H288 C257 0.977 . S
H289 C259 0.948 . S
H290 C261 0.947 . S
H291 C262 0.948 . S
H292 C268 0.982 . S
H293 C268 0.979 . S
H294 C268 0.977 . S
H295 C269 0.979 . S
H296 C269 0.980 . S
H297 C269 0.983 . S
H298 C242 0.947 . S
C299 C242 1.392 . S
C299 C243 1.419 . S
C299 H281 0.948 . S
C300 C301 1.391 . S
C300 C304 1.391 . S
C300 H342 0.948 . S
C301 C300 1.391 . S
C301 C302 1.391 . S
C302 C301 1.391 . S
C302 H358 0.947 . S
C302 C359 1.392 . S
C303 C304 1.391 . S
C303 C307 1.396 1_655 S
C303 C359 1.419 . S
C304 C300 1.391 . S
C304 C303 1.391 . S
C304 C305 1.399 . S
C305 C304 1.399 . S
C305 C308 1.396 1_655 S
C305 C317 1.453 1_655 S
C305 C318 1.684 . S
H306 C330 0.948 . S
C307 C303 1.396 1_455 S
C307 C308 1.395 . S
C307 C326 1.723 . S
C308 C305 1.396 1_455 S
C308 C307 1.395 . S
C308 C338 1.723 . S
H309 C332 0.947 . S
H310 C333 0.948 . S
H311 C339 0.982 . S
H312 C340 0.979 . S
H313 C340 0.980 . S
H314 C340 0.983 . S
H315 C339 0.979 . S
H316 C339 0.977 . S
C317 C305 1.453 1_455 S
C317 H346 0.982 . S
C317 H347 0.979 . S
C317 H348 0.977 . S
C318 C305 1.684 . S
C318 H343 0.979 . S
C318 H344 0.980 . S
C318 H345 0.983 . S
C319 C320 1.391 . S
C319 C324 1.391 . S
C319 H349 0.948 . S
C320 C319 1.391 . S
C320 C321 1.391 . S
C321 C320 1.391 . S
C321 C322 1.392 . S
C321 H350 0.947 . S
C322 C321 1.392 . S
C322 C323 1.419 . S
C322 H351 0.948 . S
C323 C322 1.419 . S
C323 C324 1.391 . S
C323 C327 1.396 1_655 S
C324 C319 1.391 . S
C324 C323 1.391 . S
C324 C325 1.399 . S
C325 C324 1.399 . S
C325 C326 1.396 1_656 S
C325 C328 1.453 1_655 S
C325 C329 1.684 . S
C326 C307 1.723 . S
C326 C325 1.396 1_454 S
C326 C327 1.395 1_554 S
C327 C323 1.396 1_455 S
C327 C326 1.395 1_556 S
C327 C337 1.723 1_556 S
C328 C325 1.453 1_455 S
C328 H352 0.982 . S
C328 H353 0.979 . S
C328 H354 0.977 1_556 S
C329 C325 1.684 . S
C329 H355 0.979 . S
C329 H356 0.980 1_556 S
C329 H357 0.983 . S
C330 H306 0.948 . S
C330 C331 1.391 . S
C330 C335 1.391 . S
C331 C330 1.391 . S
C331 C332 1.391 . S
C332 H309 0.947 . S
C332 C331 1.391 . S
C332 C333 1.392 . S
C333 H310 0.948 . S
C333 C332 1.392 . S
C333 C334 1.419 . S
C334 C333 1.419 . S
C334 C335 1.391 . S
C334 C338 1.396 1_655 S
C335 C330 1.391 . S
C335 C334 1.391 . S
C335 C336 1.399 1_554 S
C336 C335 1.399 1_556 S
C336 C337 1.396 1_656 S
C336 C339 1.453 1_655 S
C336 C340 1.684 . S
C337 C327 1.723 1_554 S
C337 C336 1.396 1_454 S
C337 C338 1.395 . S
C338 C308 1.723 . S
C338 C334 1.396 1_455 S
C338 C337 1.395 . S
C339 H311 0.982 . S
C339 H315 0.979 . S
C339 H316 0.977 . S
C339 C336 1.453 1_455 S
C340 H312 0.979 . S
C340 H313 0.980 . S
C340 H314 0.983 . S
C340 C336 1.684 . S
H341 C359 0.948 . S
H342 C300 0.948 . S
H343 C318 0.979 . S
H344 C318 0.980 . S
H345 C318 0.983 . S
H346 C317 0.982 . S
H347 C317 0.979 . S
H348 C317 0.977 . S
H349 C319 0.948 . S
H350 C321 0.947 . S
H351 C322 0.948 . S
H352 C328 0.982 . S
H353 C328 0.979 . S
H354 C328 0.977 1_554 S
H355 C329 0.979 . S
H356 C329 0.980 1_554 S
H357 C329 0.983 . S
H358 C302 0.947 . S
C359 C302 1.392 . S
C359 C303 1.419 . S
C359 H341 0.948 . S
C360 C361 1.391 . S
C360 C364 1.391 . S
C360 H402 0.948 . S
C361 C360 1.391 . S
C361 C362 1.391 . S
C362 C361 1.391 . S
C362 H418 0.947 . S
C362 C419 1.392 . S
C363 C364 1.391 . S
C363 C367 1.397 1_545 S
C363 C419 1.419 . S
C364 C360 1.391 . S
C364 C363 1.391 . S
C364 C365 1.399 . S
C365 C364 1.399 . S
C365 C368 1.396 1_545 S
C365 C377 1.453 1_545 S
C365 C378 1.684 . S
H366 C390 0.948 . S
C367 C363 1.397 1_565 S
C367 C368 1.394 . S
C367 C386 1.723 1_556 S
C368 C365 1.396 1_565 S
C368 C367 1.394 . S
C368 C398 1.723 1_556 S
H369 C392 0.947 1_556 S
H370 C393 0.948 1_556 S
H371 C399 0.982 . S
H372 C400 0.979 . S
H373 C400 0.980 . S
H374 C400 0.983 . S
H375 C399 0.979 . S
H376 C399 0.977 . S
C377 C365 1.453 1_565 S
C377 H406 0.982 . S
C377 H407 0.979 . S
C377 H408 0.977 . S
C378 C365 1.684 . S
C378 H403 0.979 . S
C378 H404 0.980 . S
C378 H405 0.983 . S
C379 C380 1.391 . S
C379 C384 1.391 . S
C379 H409 0.948 . S
C380 C379 1.391 . S
C380 C381 1.391 . S
C381 C380 1.391 . S
C381 C382 1.392 . S
C381 H410 0.947 . S
C382 C381 1.392 . S
C382 C383 1.419 . S
C382 H411 0.948 . S
C383 C382 1.419 . S
C383 C384 1.391 . S
C383 C387 1.397 1_545 S
C384 C379 1.391 . S
C384 C383 1.391 . S
C384 C385 1.399 . S
C385 C384 1.399 . S
C385 C386 1.396 1_545 S
C385 C388 1.453 1_545 S
C385 C389 1.684 . S
C386 C367 1.723 1_554 S
C386 C385 1.396 1_565 S
C386 C387 1.394 . S
C387 C383 1.397 1_565 S
C387 C386 1.394 . S
C387 C397 1.723 . S
C388 C385 1.453 1_565 S
C388 H412 0.982 . S
C388 H413 0.979 . S
C388 H414 0.977 1_554 S
C389 C385 1.684 . S
C389 H415 0.979 . S
C389 H416 0.980 1_554 S
C389 H417 0.983 . S
C390 H366 0.948 . S
C390 C391 1.391 . S
C390 C395 1.391 . S
C391 C390 1.391 . S
C391 C392 1.391 . S
C392 H369 0.947 1_554 S
C392 C391 1.391 . S
C392 C393 1.392 . S
C393 H370 0.948 1_554 S
C393 C392 1.392 . S
C393 C394 1.419 . S
C394 C393 1.419 . S
C394 C395 1.391 . S
C394 C398 1.397 1_545 S
C395 C390 1.391 . S
C395 C394 1.391 . S
C395 C396 1.399 . S
C396 C395 1.399 . S
C396 C397 1.396 1_545 S
C396 C399 1.453 1_545 S
C396 C400 1.684 . S
C397 C387 1.723 . S
C397 C396 1.396 1_565 S
C397 C398 1.394 . S
C398 C368 1.723 1_554 S
C398 C394 1.397 1_565 S
C398 C397 1.394 . S
C399 H371 0.982 . S
C399 H375 0.979 . S
C399 H376 0.977 . S
C399 C396 1.453 1_565 S
C400 H372 0.979 . S
C400 H373 0.980 . S
C400 H374 0.983 . S
C400 C396 1.684 . S
H401 C419 0.948 . S
H402 C360 0.948 . S
H403 C378 0.979 . S
H404 C378 0.980 . S
H405 C378 0.983 . S
H406 C377 0.982 . S
H407 C377 0.979 . S
H408 C377 0.977 . S
H409 C379 0.948 . S
H410 C381 0.947 . S
H411 C382 0.948 . S
H412 C388 0.982 . S
H413 C388 0.979 . S
H414 C388 0.977 1_556 S
H415 C389 0.979 . S
H416 C389 0.980 1_556 S
H417 C389 0.983 . S
H418 C362 0.947 . S
C419 C362 1.392 . S
C419 C363 1.419 . S
C419 H401 0.948 . S
C420 C421 1.391 . S
C420 C424 1.391 . S
C420 H462 0.948 . S
C421 C420 1.391 . S
C421 C422 1.391 . S
C422 C421 1.391 . S
C422 H478 0.947 . S
C422 C479 1.392 . S
C423 C424 1.391 . S
C423 C427 1.397 . S
C423 C479 1.419 . S
C424 C420 1.391 . S
C424 C423 1.391 . S
C424 C425 1.399 . S
C425 C424 1.399 . S
C425 C428 1.396 . S
C425 C437 1.453 . S
C425 C438 1.684 . S
H426 C450 0.948 . S
C427 C423 1.397 . S
C427 C428 1.394 . S
C427 C446 1.723 1_556 S
C428 C425 1.396 . S
C428 C427 1.394 . S
C428 C458 1.723 1_556 S
H429 C452 0.947 1_556 S
H430 C453 0.939 1_556 S
H431 C459 0.982 . S
H432 C460 0.979 . S
H433 C460 0.980 . S
H434 C460 0.983 . S
H435 C459 0.979 . S
H436 C459 0.977 . S
C437 C425 1.453 . S
C437 H466 0.982 . S
C437 H467 0.979 . S
C437 H468 0.977 . S
C438 C425 1.684 . S
C438 H463 0.979 . S
C438 H464 0.980 . S
C438 H465 0.983 . S
C439 C440 1.391 . S
C439 C444 1.391 . S
C439 H469 0.948 . S
C440 C439 1.391 . S
C440 C441 1.391 . S
C441 C440 1.391 . S
C441 C442 1.392 . S
C441 H470 0.947 . S
C442 C441 1.392 . S
C442 C443 1.419 . S
C442 H471 0.948 . S
C443 C442 1.419 . S
C443 C444 1.391 . S
C443 C447 1.397 . S
C444 C439 1.391 . S
C444 C443 1.391 . S
C444 C445 1.399 . S
C445 C444 1.399 . S
C445 C446 1.396 . S
C445 C448 1.453 . S
C445 C449 1.684 . S
C446 C427 1.723 1_554 S
C446 C445 1.396 . S
C446 C447 1.394 . S
C447 C443 1.397 . S
C447 C446 1.394 . S
C447 C457 1.723 . S
C448 C445 1.453 . S
C448 H472 0.982 . S
C448 H473 0.979 . S
C448 H474 0.977 1_554 S
C449 C445 1.684 . S
C449 H475 0.979 . S
C449 H476 0.980 1_554 S
C449 H477 0.983 . S
C450 H426 0.948 . S
C450 C451 1.391 . S
C450 C455 1.391 . S
C451 C450 1.391 . S
C451 C452 1.391 . S
C452 H429 0.947 1_554 S
C452 C451 1.391 . S
C452 C453 1.395 . S
C453 H430 0.939 1_554 S
C453 C452 1.395 . S
C453 C454 1.425 . S
C454 C453 1.425 . S
C454 C455 1.391 . S
C454 C458 1.397 . S
C455 C450 1.391 . S
C455 C454 1.391 . S
C455 C456 1.399 . S
C456 C455 1.399 . S
C456 C457 1.396 . S
C456 C459 1.453 . S
C456 C460 1.684 . S
C457 C447 1.723 . S
C457 C456 1.396 . S
C457 C458 1.394 . S
C458 C428 1.723 1_554 S
C458 C454 1.397 . S
C458 C457 1.394 . S
C459 H431 0.982 . S
C459 H435 0.979 . S
C459 H436 0.977 . S
C459 C456 1.453 . S
C460 H432 0.979 . S
C460 H433 0.980 . S
C460 H434 0.983 . S
C460 C456 1.684 . S
H461 C479 0.948 . S
H462 C420 0.948 . S
H463 C438 0.979 . S
H464 C438 0.980 . S
H465 C438 0.983 . S
H466 C437 0.982 . S
H467 C437 0.979 . S
H468 C437 0.977 . S
H469 C439 0.948 . S
H470 C441 0.947 . S
H471 C442 0.948 . S
H472 C448 0.982 . S
H473 C448 0.979 . S
H474 C448 0.977 1_556 S
H475 C449 0.979 . S
H476 C449 0.980 1_556 S
H477 C449 0.983 . S
H478 C422 0.947 . S
C479 C422 1.392 . S
C479 C423 1.419 . S
C479 H461 0.948 . S
Tb480 C482 2.809 . S
Tb480 O500 2.484 . S
Tb480 O501 2.440 . S
Tb480 O502 2.658 1_565 S
Tb480 O503 2.409 . S
Tb480 O504 2.378 . S
Tb480 O508 2.325 1_455 S
Tb480 O511 2.341 1_565 S
Tb481 C491 2.809 . S
Tb481 O502 2.325 1_655 S
Tb481 O505 2.341 1_545 S
Tb481 O506 2.484 . S
Tb481 O507 2.440 . S
Tb481 O508 2.658 1_545 S
Tb481 O509 2.409 . S
Tb481 O510 2.378 . S
C482 Tb480 2.809 . S
C482 C483 1.514 . S
C482 O500 1.248 . S
C482 O501 1.266 . S
C483 C482 1.514 . S
C483 C484 1.353 1_556 S
C483 C488 1.348 . S
C484 C483 1.353 1_554 S
C484 C485 1.386 . S
C484 H512 0.929 1_455 S
C485 C484 1.386 . S
C485 C486 1.347 . S
C485 H513 0.931 . S
C486 C485 1.347 . S
C486 C487 1.369 1_554 S
C487 C486 1.369 1_556 S
C487 C488 1.408 . S
C487 H514 0.930 . S
C488 C483 1.348 . S
C488 C487 1.408 . S
C488 H515 0.930 . S
C489 O502 1.281 1_565 S
C489 O503 1.254 . S
C490 O504 1.236 1_655 S
C490 O505 1.266 . S
C491 Tb481 2.809 . S
C491 C492 1.514 . S
C491 O506 1.248 . S
C491 O507 1.266 . S
C492 C491 1.514 . S
C492 C493 1.359 . S
C492 C497 1.348 . S
C493 C492 1.359 . S
C493 C494 1.380 . S
C493 H516 0.929 1_655 S
C494 C493 1.380 . S
C494 C495 1.347 . S
C494 H517 0.931 . S
C495 C494 1.347 . S
C495 C496 1.369 . S
C496 C495 1.369 . S
C496 C497 1.408 . S
C496 H518 0.930 . S
C497 C492 1.348 . S
C497 C496 1.408 . S
C497 H519 0.930 . S
C498 O508 1.281 1_545 S
C498 O509 1.254 . S
C499 O510 1.236 1_455 S
C499 O511 1.266 . S
O500 Tb480 2.484 . S
O500 C482 1.248 . S
O501 Tb480 2.440 . S
O501 C482 1.266 . S
O502 Tb480 2.658 1_545 S
O502 Tb481 2.325 1_455 S
O502 C489 1.281 1_545 S
O503 Tb480 2.409 . S
O503 C489 1.254 . S
O504 Tb480 2.378 . S
O504 C490 1.236 1_455 S
O505 Tb481 2.341 1_565 S
O505 C490 1.266 . S
O506 Tb481 2.484 . S
O506 C491 1.248 . S
O507 Tb481 2.440 . S
O507 C491 1.266 . S
O508 Tb480 2.325 1_655 S
O508 Tb481 2.658 1_565 S
O508 C498 1.281 1_565 S
O509 Tb481 2.409 . S
O509 C498 1.254 . S
O510 Tb481 2.378 . S
O510 C499 1.236 1_655 S
O511 Tb480 2.341 1_545 S
O511 C499 1.266 . S
H512 C484 0.929 1_655 S
H513 C485 0.931 . S
H514 C487 0.930 . S
H515 C488 0.930 . S
H516 C493 0.929 1_455 S
H517 C494 0.931 . S
H518 C496 0.930 . S
H519 C497 0.930 . S
Tb520 C522 2.809 . S
Tb520 O540 2.484 . S
Tb520 O541 2.440 . S
Tb520 O542 2.658 . S
Tb520 O543 2.409 . S
Tb520 O544 2.378 . S
Tb520 O548 2.325 1_545 S
Tb520 O551 2.341 . S
Tb521 C531 2.809 . S
Tb521 O542 2.325 1_565 S
Tb521 O545 2.341 . S
Tb521 O546 2.484 . S
Tb521 O547 2.440 . S
Tb521 O548 2.658 . S
Tb521 O549 2.409 . S
Tb521 O550 2.378 . S
C522 Tb520 2.809 . S
C522 C523 1.514 . S
C522 O540 1.248 . S
C522 O541 1.266 . S
C523 C522 1.514 . S
C523 C524 1.359 1_556 S
C523 C528 1.348 . S
C524 C523 1.359 1_554 S
C524 C525 1.380 . S
C524 H552 0.929 1_545 S
C525 C524 1.380 . S
C525 C526 1.347 . S
C525 H553 0.900 1_545 S
C526 C525 1.347 . S
C526 C527 1.369 . S
C527 C526 1.369 . S
C527 C528 1.408 1_554 S
C527 H554 0.930 . S
C528 C523 1.348 . S
C528 C527 1.408 1_556 S
C528 H555 0.930 . S
C529 O542 1.281 . S
C529 O543 1.254 . S
C530 O544 1.236 1_565 S
C530 O545 1.266 . S
C531 Tb521 2.809 . S
C531 C532 1.514 . S
C531 O546 1.248 . S
C531 O547 1.266 . S
C532 C531 1.514 . S
C532 C533 1.359 . S
C532 C537 1.348 . S
C533 C532 1.359 . S
C533 C534 1.380 . S
C533 H556 0.929 1_565 S
C534 C533 1.380 . S
C534 C535 1.347 . S
C534 H557 0.931 1_565 S
C535 C534 1.347 . S
C535 C536 1.369 . S
C536 C535 1.369 . S
C536 C537 1.408 . S
C536 H558 0.930 . S
C537 C532 1.348 . S
C537 C536 1.408 . S
C537 H559 0.930 . S
C538 O548 1.281 . S
C538 O549 1.254 . S
C539 O550 1.236 1_545 S
C539 O551 1.266 . S
O540 Tb520 2.484 . S
O540 C522 1.248 . S
O541 Tb520 2.440 . S
O541 C522 1.266 . S
O542 Tb520 2.658 . S
O542 Tb521 2.325 1_545 S
O542 C529 1.281 . S
O543 Tb520 2.409 . S
O543 C529 1.254 . S
O544 Tb520 2.378 . S
O544 C530 1.236 1_545 S
O545 Tb521 2.341 . S
O545 C530 1.266 . S
O546 Tb521 2.484 . S
O546 C531 1.248 . S
O547 Tb521 2.440 . S
O547 C531 1.266 . S
O548 Tb520 2.325 1_565 S
O548 Tb521 2.658 . S
O548 C538 1.281 . S
O549 Tb521 2.409 . S
O549 C538 1.254 . S
O550 Tb521 2.378 . S
O550 C539 1.236 1_565 S
O551 Tb520 2.341 . S
O551 C539 1.266 . S
H552 C524 0.929 1_565 S
H553 C525 0.900 1_565 S
H554 C527 0.930 . S
H555 C528 0.930 . S
H556 C533 0.929 1_545 S
H557 C534 0.931 1_545 S
H558 C536 0.930 . S
H559 C537 0.930 . S
Tb560 C562 2.809 . S
Tb560 O580 2.484 . S
Tb560 O581 2.440 . S
Tb560 O582 2.658 . S
Tb560 O583 2.409 . S
Tb560 O584 2.378 . S
Tb560 O588 2.325 . S
Tb560 O591 2.341 . S
Tb561 C571 2.809 . S
Tb561 O582 2.325 . S
Tb561 O585 2.341 . S
Tb561 O586 2.484 . S
Tb561 O587 2.440 . S
Tb561 O588 2.658 . S
Tb561 O589 2.409 . S
Tb561 O590 2.378 . S
C562 Tb560 2.809 . S
C562 C563 1.514 . S
C562 O580 1.248 . S
C562 O581 1.266 . S
C563 C562 1.514 . S
C563 C564 1.359 1_556 S
C563 C568 1.348 . S
C564 C563 1.359 1_554 S
C564 C565 1.380 . S
C564 H592 0.929 . S
C565 C564 1.380 . S
C565 C566 1.347 . S
C565 H593 0.931 . S
C566 C565 1.347 . S
C566 C567 1.369 . S
C567 C566 1.369 . S
C567 C568 1.408 1_554 S
C567 H594 0.930 . S
C568 C563 1.348 . S
C568 C567 1.408 1_556 S
C568 H595 0.930 . S
C569 O582 1.281 . S
C569 O583 1.254 . S
C570 O584 1.236 . S
C570 O585 1.266 . S
C571 Tb561 2.809 . S
C571 C572 1.514 . S
C571 O586 1.248 . S
C571 O587 1.266 . S
C572 C571 1.514 . S
C572 C573 1.359 . S
C572 C577 1.348 . S
C573 C572 1.359 . S
C573 C574 1.380 . S
C573 H596 0.929 . S
C574 C573 1.380 . S
C574 C575 1.347 . S
C574 H597 0.931 . S
C575 C574 1.347 . S
C575 C576 1.369 . S
C576 C575 1.369 . S
C576 C577 1.408 . S
C576 H598 0.930 . S
C577 C572 1.348 . S
C577 C576 1.408 . S
C577 H599 0.930 . S
C578 O588 1.281 . S
C578 O589 1.254 . S
C579 O590 1.236 . S
C579 O591 1.266 . S
O580 Tb560 2.484 . S
O580 C562 1.248 . S
O581 Tb560 2.440 . S
O581 C562 1.266 . S
O582 Tb560 2.658 . S
O582 Tb561 2.325 . S
O582 C569 1.281 . S
O583 Tb560 2.409 . S
O583 C569 1.254 . S
O584 Tb560 2.378 . S
O584 C570 1.236 . S
O585 Tb561 2.341 . S
O585 C570 1.266 . S
O586 Tb561 2.484 . S
O586 C571 1.248 . S
O587 Tb561 2.440 . S
O587 C571 1.266 . S
O588 Tb560 2.325 . S
O588 Tb561 2.658 . S
O588 C578 1.281 . S
O589 Tb561 2.409 . S
O589 C578 1.254 . S
O590 Tb561 2.378 . S
O590 C579 1.236 . S
O591 Tb560 2.341 . S
O591 C579 1.266 . S
H592 C564 0.929 . S
H593 C565 0.931 . S
H594 C567 0.930 . S
H595 C568 0.930 . S
H596 C573 0.929 . S
H597 C574 0.931 . S
H598 C576 0.930 . S
H599 C577 0.930 . S
Tb600 C602 2.809 . S
Tb600 O620 2.484 . S
Tb600 O621 2.440 . S
Tb600 O622 2.658 1_655 S
Tb600 O623 2.409 . S
Tb600 O624 2.378 . S
Tb600 O628 2.325 . S
Tb600 O631 2.341 1_655 S
Tb601 C611 2.809 . S
Tb601 O622 2.325 . S
Tb601 O625 2.341 1_455 S
Tb601 O626 2.484 . S
Tb601 O627 2.440 . S
Tb601 O628 2.658 1_455 S
Tb601 O629 2.409 . S
Tb601 O630 2.378 . S
C602 Tb600 2.809 . S
C602 C603 1.514 . S
C602 O620 1.248 . S
C602 O621 1.266 . S
C603 C602 1.514 . S
C603 C604 1.359 1_556 S
C603 C608 1.348 . S
C604 C603 1.359 1_554 S
C604 C605 1.380 . S
C604 H632 0.929 . S
C605 C604 1.380 . S
C605 C606 1.347 . S
C605 H633 0.931 . S
C606 C605 1.347 . S
C606 C607 1.369 . S
C607 C606 1.369 . S
C607 C608 1.408 1_554 S
C607 H634 0.930 . S
C608 C603 1.348 . S
C608 C607 1.408 1_556 S
C608 H635 0.930 . S
C609 O622 1.280 1_655 S
C609 O623 1.255 . S
C610 O624 1.236 . S
C610 O625 1.266 . S
C611 Tb601 2.809 . S
C611 C612 1.514 . S
C611 O626 1.248 . S
C611 O627 1.266 . S
C612 C611 1.514 . S
C612 C613 1.359 . S
C612 C617 1.348 . S
C613 C612 1.359 . S
C613 C614 1.380 . S
C613 H636 0.929 . S
C614 C613 1.380 . S
C614 C615 1.347 . S
C614 H637 0.931 . S
C615 C614 1.347 . S
C615 C616 1.369 . S
C616 C615 1.369 . S
C616 C617 1.408 . S
C616 H638 0.930 . S
C617 C612 1.348 . S
C617 C616 1.408 . S
C617 H639 0.930 . S
C618 O628 1.277 1_455 S
C618 O629 1.259 . S
C619 O630 1.236 . S
C619 O631 1.266 . S
O620 Tb600 2.484 . S
O620 C602 1.248 . S
O621 Tb600 2.440 . S
O621 C602 1.266 . S
O622 Tb600 2.658 1_455 S
O622 Tb601 2.325 . S
O622 C609 1.280 1_455 S
O623 Tb600 2.409 . S
O623 C609 1.255 . S
O624 Tb600 2.378 . S
O624 C610 1.236 . S
O625 Tb601 2.341 1_655 S
O625 C610 1.266 . S
O626 Tb601 2.484 . S
O626 C611 1.248 . S
O627 Tb601 2.440 . S
O627 C611 1.266 . S
O628 Tb600 2.325 . S
O628 Tb601 2.658 1_655 S
O628 C618 1.277 1_655 S
O629 Tb601 2.409 . S
O629 C618 1.259 . S
O630 Tb601 2.378 . S
O630 C619 1.236 . S
O631 Tb600 2.341 1_455 S
O631 C619 1.266 . S
H632 C604 0.929 . S
H633 C605 0.931 . S
H634 C607 0.930 . S
H635 C608 0.930 . S
H636 C613 0.929 . S
H637 C614 0.931 . S
H638 C616 0.930 . S
H639 C617 0.930 . S
C640 C641 1.360 1_545 S
C640 C642 1.419 . S
C640 H644 0.930 . S
C641 C640 1.360 1_565 S
C641 C650 1.438 . S
C642 C640 1.419 . S
C642 C643 1.354 1_545 S
C642 H645 0.929 . S
C643 C642 1.354 1_565 S
C643 C649 1.438 . S
H644 C640 0.930 . S
H645 C642 0.929 . S
S646 N647 1.613 . S
S646 N648 1.610 . S
N647 S646 1.613 . S
N647 C650 1.350 . S
N648 S646 1.610 . S
N648 C649 1.351 . S
C649 C643 1.438 . S
C649 N648 1.351 . S
C649 C650 1.434 . S
C650 C641 1.438 . S
C650 N647 1.350 . S
C650 C649 1.434 . S
C651 C652 1.369 . S
C651 C653 1.419 . S
C651 H655 0.930 . S
C652 C651 1.369 . S
C652 C661 1.429 . S
C653 C651 1.419 . S
C653 C654 1.363 . S
C653 H656 0.929 . S
C654 C653 1.363 . S
C654 C660 1.428 . S
H655 C651 0.930 . S
H656 C653 0.929 . S
S657 N658 1.613 . S
S657 N659 1.610 . S
N658 S657 1.613 . S
N658 C661 1.350 . S
N659 S657 1.610 . S
N659 C660 1.351 . S
C660 C654 1.428 . S
C660 N659 1.351 . S
C660 C661 1.434 . S
C661 C652 1.429 . S
C661 N658 1.350 . S
C661 C660 1.434 . S
C662 C663 1.369 . S
C662 C664 1.419 . S
C662 H666 0.930 . S
C663 C662 1.369 . S
C663 C672 1.429 . S
C664 C662 1.419 . S
C664 C665 1.363 . S
C664 H667 0.929 . S
C665 C664 1.363 . S
C665 C671 1.428 . S
H666 C662 0.930 . S
H667 C664 0.929 . S
S668 N669 1.613 . S
S668 N670 1.610 . S
N669 S668 1.613 . S
N669 C672 1.350 . S
N670 S668 1.610 . S
N670 C671 1.351 . S
C671 C665 1.428 . S
C671 N670 1.351 . S
C671 C672 1.434 . S
C672 C663 1.429 . S
C672 N669 1.350 . S
C672 C671 1.434 . S
C673 C674 1.366 1_655 S
C673 C675 1.419 . S
C673 H677 0.930 . S
C674 C673 1.366 1_455 S
C674 C683 1.433 . S
C675 C673 1.419 . S
C675 C676 1.363 1_655 S
C675 H678 0.929 . S
C676 C675 1.363 1_455 S
C676 C682 1.428 . S
H677 C673 0.930 . S
H678 C675 0.929 . S
S679 N680 1.613 . S
S679 N681 1.610 . S
N680 S679 1.613 . S
N680 C683 1.350 . S
N681 S679 1.610 . S
N681 C682 1.351 . S
C682 C676 1.428 . S
C682 N681 1.351 . S
C682 C683 1.434 . S
C683 C674 1.433 . S
C683 N680 1.350 . S
C683 C682 1.434 . S
C684 C685 1.366 1_545 S
C684 C686 1.419 . S
C684 H688 0.930 . S
C685 C684 1.366 1_565 S
C685 C694 1.432 . S
C686 C684 1.419 . S
C686 C687 1.360 . S
C686 H689 0.929 . S
C687 C686 1.360 . S
C687 C693 1.431 1_545 S
H688 C684 0.930 . S
H689 C686 0.929 . S
S690 N691 1.613 . S
S690 N692 1.610 . S
N691 S690 1.613 . S
N691 C694 1.350 . S
N692 S690 1.610 . S
N692 C693 1.351 . S
C693 C687 1.431 1_565 S
C693 N692 1.351 . S
C693 C694 1.434 . S
C694 C685 1.432 . S
C694 N691 1.350 . S
C694 C693 1.434 . S
C695 C696 1.369 . S
C695 C697 1.419 . S
C695 H699 0.930 . S
C696 C695 1.369 . S
C696 C705 1.429 . S
C697 C695 1.419 . S
C697 C698 1.363 . S
C697 H700 0.929 . S
C698 C697 1.363 . S
C698 C704 1.428 . S
H699 C695 0.930 . S
H700 C697 0.929 . S
S701 N702 1.613 1_545 S
S701 N703 1.610 1_545 S
N702 S701 1.613 1_565 S
N702 C705 1.350 . S
N703 S701 1.610 1_565 S
N703 C704 1.351 . S
C704 C698 1.428 . S
C704 N703 1.351 . S
C704 C705 1.434 . S
C705 C696 1.429 . S
C705 N702 1.350 . S
C705 C704 1.434 . S
C706 C707 1.369 . S
C706 C708 1.419 . S
C706 H710 0.930 . S
C707 C706 1.369 . S
C707 C716 1.429 . S
C708 C706 1.419 . S
C708 C709 1.363 . S
C708 H711 0.929 . S
C709 C708 1.363 . S
C709 C715 1.428 . S
H710 C706 0.930 . S
H711 C708 0.929 . S
S712 N713 1.613 . S
S712 N714 1.610 1_554 S
N713 S712 1.613 . S
N713 C716 1.350 . S
N714 S712 1.610 1_556 S
N714 C715 1.351 1_556 S
C715 C709 1.428 . S
C715 N714 1.351 1_554 S
C715 C716 1.434 . S
C716 C707 1.429 . S
C716 N713 1.350 . S
C716 C715 1.434 . S
C717 C718 1.337 1_455 S
C717 C719 1.419 . S
C717 H721 0.930 . S
C718 C717 1.337 1_655 S
C718 C727 1.462 . S
C719 C717 1.419 . S
C719 C720 1.363 1_455 S
C719 H722 0.929 . S
C720 C719 1.363 1_655 S
C720 C726 1.428 . S
H721 C717 0.930 . S
H722 C719 0.929 . S
S723 N724 1.613 . S
S723 N725 1.610 . S
N724 S723 1.613 . S
N724 C727 1.350 . S
N725 S723 1.610 . S
N725 C726 1.351 . S
C726 C720 1.428 . S
C726 N725 1.351 . S
C726 C727 1.434 . S
C727 C718 1.462 . S
C727 N724 1.350 . S
C727 C726 1.434 . S
C728 C729 1.365 1_655 S
C728 C730 1.419 . S
C728 H732 0.930 . S
C729 C728 1.365 1_455 S
C729 C738 1.429 . S
C730 C728 1.419 . S
C730 C731 1.363 . S
C730 H733 0.929 . S
C731 C730 1.363 . S
C731 C737 1.428 . S
H732 C728 0.930 . S
H733 C730 0.929 . S
S734 N735 1.613 . S
S734 N736 1.610 1_455 S
N735 S734 1.613 . S
N735 C738 1.350 . S
N736 S734 1.610 1_655 S
N736 C737 1.351 . S
C737 C731 1.428 . S
C737 N736 1.351 . S
C737 C738 1.434 1_655 S
C738 C729 1.429 . S
C738 N735 1.350 . S
C738 C737 1.434 1_455 S
C739 C740 1.359 1_565 S
C739 C741 1.419 . S
C739 H743 0.930 . S
C740 C739 1.359 1_545 S
C740 C749 1.430 . S
C741 C739 1.419 . S
C741 C742 1.363 . S
C741 H744 0.929 . S
C742 C741 1.363 . S
C742 C748 1.428 . S
H743 C739 0.930 . S
H744 C741 0.929 . S
S745 N746 1.613 . S
S745 N747 1.610 1_545 S
N746 S745 1.613 . S
N746 C749 1.350 . S
N747 S745 1.610 1_565 S
N747 C748 1.351 . S
C748 C742 1.428 . S
C748 N747 1.351 . S
C748 C749 1.434 1_565 S
C749 C740 1.430 . S
C749 N746 1.350 . S
C749 C748 1.434 1_545 S
C750 C751 1.369 . S
C750 C752 1.419 . S
C750 H754 0.930 . S
C751 C750 1.369 . S
C751 C760 1.429 . S
C752 C750 1.419 . S
C752 C753 1.363 . S
C752 H755 0.929 . S
C753 C752 1.363 . S
C753 C759 1.428 . S
H754 C750 0.930 . S
H755 C752 0.929 . S
S756 N757 1.613 . S
S756 N758 1.610 . S
N757 S756 1.613 . S
N757 C760 1.350 . S
N758 S756 1.610 . S
N758 C759 1.351 . S
C759 C753 1.428 . S
C759 N758 1.351 . S
C759 C760 1.434 . S
C760 C751 1.429 . S
C760 N757 1.350 . S
C760 C759 1.434 . S
C761 C762 1.369 . S
C761 C763 1.419 . S
C761 H765 0.930 . S
C762 C761 1.369 . S
C762 C771 1.429 . S
C763 C761 1.419 . S
C763 C764 1.363 . S
C763 H766 0.929 . S
C764 C763 1.363 . S
C764 C770 1.428 . S
H765 C761 0.930 . S
H766 C763 0.929 . S
S767 N768 1.613 . S
S767 N769 1.610 . S
N768 S767 1.613 . S
N768 C771 1.350 . S
N769 S767 1.610 . S
N769 C770 1.351 . S
C770 C764 1.428 . S
C770 N769 1.351 . S
C770 C771 1.434 . S
C771 C762 1.429 . S
C771 N768 1.350 . S
C771 C770 1.434 . S
C772 C773 1.370 1_455 S
C772 C774 1.419 . S
C772 H776 0.930 . S
C773 C772 1.370 1_655 S
C773 C782 1.428 . S
C774 C772 1.419 . S
C774 C775 1.363 . S
C774 H777 0.929 . S
C775 C774 1.363 . S
C775 C781 1.428 . S
H776 C772 0.930 . S
H777 C774 0.929 . S
S778 N779 1.613 . S
S778 N780 1.610 1_655 S
N779 S778 1.613 . S
N779 C782 1.350 1_556 S
N780 S778 1.610 1_455 S
N780 C781 1.351 1_556 S
C781 C775 1.428 . S
C781 N780 1.351 1_554 S
C781 C782 1.434 1_455 S
C782 C773 1.428 . S
C782 N779 1.350 1_554 S
C782 C781 1.434 1_655 S
C783 C784 1.367 1_545 S
C783 C785 1.419 . S
C783 H787 0.930 . S
C784 C783 1.367 1_565 S
C784 C793 1.429 . S
C785 C783 1.419 . S
C785 C786 1.363 . S
C785 H788 0.929 . S
C786 C785 1.363 . S
C786 C792 1.428 . S
H787 C783 0.930 . S
H788 C785 0.929 . S
S789 N790 1.613 1_556 S
S789 N791 1.610 1_565 S
N790 S789 1.613 1_554 S
N790 C793 1.350 . S
N791 S789 1.610 1_545 S
N791 C792 1.351 1_556 S
C792 C786 1.428 . S
C792 N791 1.351 1_554 S
C792 C793 1.434 1_545 S
C793 C784 1.429 . S
C793 N790 1.350 . S
C793 C792 1.434 1_565 S
C794 C795 1.369 . S
C794 C796 1.419 . S
C794 H798 0.930 . S
C795 C794 1.369 . S
C795 C804 1.429 . S
C796 C794 1.419 . S
C796 C797 1.363 . S
C796 H799 0.929 . S
C797 C796 1.363 . S
C797 C803 1.428 . S
H798 C794 0.930 . S
H799 C796 0.929 . S
S800 N801 1.613 . S
S800 N802 1.610 . S
N801 S800 1.613 . S
N801 C804 1.350 . S
N802 S800 1.610 . S
N802 C803 1.351 . S
C803 C797 1.428 . S
C803 N802 1.351 . S
C803 C804 1.434 . S
C804 C795 1.429 . S
C804 N801 1.350 . S
C804 C803 1.434 . S
C805 C806 1.369 . S
C805 C807 1.419 . S
C805 H809 0.930 . S
C806 C805 1.369 . S
C806 C815 1.429 . S
C807 C805 1.419 . S
C807 C808 1.363 . S
C807 H810 0.929 . S
C808 C807 1.363 . S
C808 C814 1.428 . S
H809 C805 0.930 . S
H810 C807 0.929 . S
S811 N812 1.613 . S
S811 N813 1.610 . S
N812 S811 1.613 . S
N812 C815 1.350 . S
N813 S811 1.610 . S
N813 C814 1.351 . S
C814 C808 1.428 . S
C814 N813 1.351 . S
C814 C815 1.434 . S
C815 C806 1.429 . S
C815 N812 1.350 . S
C815 C814 1.434 . S
C816 C817 1.369 . S
C816 C818 1.419 . S
C816 H820 0.930 . S
C817 C816 1.369 . S
C817 C826 1.429 1_455 S
C818 C816 1.419 . S
C818 C819 1.363 . S
C818 H821 0.929 . S
C819 C818 1.363 . S
C819 C825 1.428 1_455 S
H820 C816 0.930 . S
H821 C818 0.929 . S
S822 N823 1.613 . S
S822 N824 1.610 . S
N823 S822 1.613 . S
N823 C826 1.350 . S
N824 S822 1.610 . S
N824 C825 1.351 . S
C825 C819 1.428 1_655 S
C825 N824 1.351 . S
C825 C826 1.434 . S
C826 C817 1.429 1_655 S
C826 N823 1.350 . S
C826 C825 1.434 . S
C827 C828 1.369 . S
C827 C829 1.419 . S
C827 H831 0.930 . S
C828 C827 1.369 . S
C828 C837 1.429 1_545 S
C829 C827 1.419 . S
C829 C830 1.363 . S
C829 H832 0.929 . S
C830 C829 1.363 . S
C830 C836 1.428 1_545 S
H831 C827 0.930 . S
H832 C829 0.929 . S
S833 N834 1.613 . S
S833 N835 1.610 . S
N834 S833 1.613 . S
N834 C837 1.350 . S
N835 S833 1.610 . S
N835 C836 1.351 . S
C836 C830 1.428 1_565 S
C836 N835 1.351 . S
C836 C837 1.434 . S
C837 C828 1.429 1_565 S
C837 N834 1.350 . S
C837 C836 1.434 . S
C838 C839 1.369 . S
C838 C840 1.419 . S
C838 H842 0.930 . S
C839 C838 1.369 . S
C839 C848 1.429 . S
C840 C838 1.419 . S
C840 C841 1.363 . S
C840 H843 0.929 . S
C841 C840 1.363 . S
C841 C847 1.428 . S
H842 C838 0.930 . S
H843 C840 0.929 . S
S844 N845 1.613 . S
S844 N846 1.610 . S
N845 S844 1.613 . S
N845 C848 1.350 . S
N846 S844 1.610 . S
N846 C847 1.351 . S
C847 C841 1.428 . S
C847 N846 1.351 . S
C847 C848 1.434 . S
C848 C839 1.429 . S
C848 N845 1.350 . S
C848 C847 1.434 . S
C849 C850 1.369 . S
C849 C851 1.419 . S
C849 H853 0.930 . S
C850 C849 1.369 . S
C850 C859 1.429 . S
C851 C849 1.419 . S
C851 C852 1.363 . S
C851 H854 0.929 . S
C852 C851 1.363 . S
C852 C858 1.428 . S
H853 C849 0.930 . S
H854 C851 0.929 . S
S855 N856 1.613 . S
S855 N857 1.610 . S
N856 S855 1.613 . S
N856 C859 1.350 . S
N857 S855 1.610 . S
N857 C858 1.351 . S
C858 C852 1.428 . S
C858 N857 1.351 . S
C858 C859 1.434 . S
C859 C850 1.429 . S
C859 N856 1.350 . S
C859 C858 1.434 . S
C860 C861 1.369 1_455 S
C860 C862 1.419 . S
C860 H864 0.930 . S
C861 C860 1.369 1_655 S
C861 C870 1.429 . S
C862 C860 1.419 . S
C862 C863 1.363 1_455 S
C862 H865 0.929 . S
C863 C862 1.363 1_655 S
C863 C869 1.428 . S
H864 C860 0.930 . S
H865 C862 0.929 . S
S866 N867 1.613 . S
S866 N868 1.610 . S
N867 S866 1.613 . S
N867 C870 1.350 . S
N868 S866 1.610 . S
N868 C869 1.351 . S
C869 C863 1.428 . S
C869 N868 1.351 . S
C869 C870 1.434 . S
C870 C861 1.429 . S
C870 N867 1.350 . S
C870 C869 1.434 . S
C871 C872 1.369 . S
C871 C873 1.419 . S
C871 H875 0.930 . S
C872 C871 1.369 . S
C872 C881 1.429 1_565 S
C873 C871 1.419 . S
C873 C874 1.363 . S
C873 H876 0.929 . S
C874 C873 1.363 . S
C874 C880 1.428 1_565 S
H875 C871 0.930 . S
H876 C873 0.929 . S
S877 N878 1.613 . S
S877 N879 1.610 . S
N878 S877 1.613 . S
N878 C881 1.350 . S
N879 S877 1.610 . S
N879 C880 1.351 . S
C880 C874 1.428 1_545 S
C880 N879 1.351 . S
C880 C881 1.434 . S
C881 C872 1.429 1_545 S
C881 N878 1.350 . S
C881 C880 1.434 . S
C882 C883 1.369 . S
C882 C884 1.419 . S
C882 H886 0.930 . S
C883 C882 1.369 . S
C883 C892 1.429 . S
C884 C882 1.419 . S
C884 C885 1.363 . S
C884 H887 0.929 . S
C885 C884 1.363 . S
C885 C891 1.428 . S
H886 C882 0.930 . S
H887 C884 0.929 . S
S888 N889 1.613 . S
S888 N890 1.610 . S
N889 S888 1.613 . S
N889 C892 1.350 . S
N890 S888 1.610 . S
N890 C891 1.351 . S
C891 C885 1.428 . S
C891 N890 1.351 . S
C891 C892 1.434 . S
C892 C883 1.429 . S
C892 N889 1.350 . S
C892 C891 1.434 . S
C893 C894 1.369 . S
C893 C895 1.419 . S
C893 H897 0.930 . S
C894 C893 1.369 . S
C894 C903 1.429 . S
C895 C893 1.419 . S
C895 C896 1.363 . S
C895 H898 0.929 . S
C896 C895 1.363 . S
C896 C902 1.428 . S
H897 C893 0.930 . S
H898 C895 0.929 . S
S899 N900 1.613 . S
S899 N901 1.610 . S
N900 S899 1.613 . S
N900 C903 1.350 . S
N901 S899 1.610 . S
N901 C902 1.351 . S
C902 C896 1.428 . S
C902 N901 1.351 . S
C902 C903 1.434 . S
C903 C894 1.429 . S
C903 N900 1.350 . S
C903 C902 1.434 . S
C641 C391 2.647 1_565 S
C643 C489 2.843 . S
C654 C529 2.870 . S
C652 C451 2.667 . S
C665 C569 2.877 . S
C663 C241 2.337 . S
C676 C609 2.849 1_455 S
C674 C331 2.295 1_455 S
C687 C498 2.845 1_554 S
C685 C121 2.281 . S
C696 C211 2.690 . S
C698 C538 2.871 1_554 S
C707 C31 2.693 . S
C709 C578 2.879 1_554 S
C718 C91 2.291 . S
C720 C618 2.850 1_654 S
C731 C495 0.745 . S
C729 C301 0.762 1_455 S
C742 C535 0.738 . S
C740 C380 0.761 . S
C753 C575 0.703 . S
C751 C440 0.688 . S
C762 C260 0.729 . S
C764 C615 0.712 . S
C773 C61 0.770 . S
C775 C486 0.750 . S
C786 C526 0.739 . S
C784 C140 0.763 . S
C797 C566 0.717 . S
C795 C200 0.690 . S
C806 C20 0.722 . S
C808 C606 0.704 . S
C817 C320 3.419 1_455 S
C819 C499 3.731 . S
C828 C361 2.922 . S
C830 C539 3.690 . S
C841 C579 3.676 . S
C839 C421 2.901 . S
C852 C619 3.722 . S
C850 C271 3.417 . S
C861 C80 3.402 . S
C863 C490 3.740 . S
C874 C530 3.688 . S
C872 C151 3.361 . S
C885 C570 3.674 . S
C883 C181 2.950 . S
C894 C1 2.998 . S
C896 C610 3.726 . S
