# Generated by pormake.
# Topology llk, (3,12)-cn, num edge types: 1
# Building blocks:
#     Node 0, Type 0, BuildingBlock: VETTIZ_charged_linker_0, # of connection points: 3
#     Node 1, Type 0, BuildingBlock: VETTIZ_charged_linker_0, # of connection points: 3
#     Node 2, Type 0, BuildingBlock: VETTIZ_charged_linker_0, # of connection points: 3
#     Node 3, Type 0, BuildingBlock: VETTIZ_charged_linker_0, # of connection points: 3
#     Node 4, Type 0, BuildingBlock: VETTIZ_charged_linker_0, # of connection points: 3
#     Node 5, Type 0, BuildingBlock: VETTIZ_charged_linker_0, # of connection points: 3
#     Node 6, Type 0, BuildingBlock: VETTIZ_charged_linker_0, # of connection points: 3
#     Node 7, Type 0, BuildingBlock: VETTIZ_charged_linker_0, # of connection points: 3
#     Node 8, Type 0, BuildingBlock: VETTIZ_charged_linker_0, # of connection points: 3
#     Node 9, Type 0, BuildingBlock: VETTIZ_charged_linker_0, # of connection points: 3
#     Node 10, Type 0, BuildingBlock: VETTIZ_charged_linker_0, # of connection points: 3
#     Node 11, Type 0, BuildingBlock: VETTIZ_charged_linker_0, # of connection points: 3
#     Node 12, Type 0, BuildingBlock: VETTIZ_charged_linker_0, # of connection points: 3
#     Node 13, Type 0, BuildingBlock: VETTIZ_charged_linker_0, # of connection points: 3
#     Node 14, Type 0, BuildingBlock: VETTIZ_charged_linker_0, # of connection points: 3
#     Node 15, Type 0, BuildingBlock: VETTIZ_charged_linker_0, # of connection points: 3
#     Node 16, Type 0, BuildingBlock: VETTIZ_charged_linker_0, # of connection points: 3
#     Node 17, Type 0, BuildingBlock: VETTIZ_charged_linker_0, # of connection points: 3
#     Node 18, Type 0, BuildingBlock: VETTIZ_charged_linker_0, # of connection points: 3
#     Node 19, Type 0, BuildingBlock: VETTIZ_charged_linker_0, # of connection points: 3
#     Node 20, Type 0, BuildingBlock: VETTIZ_charged_linker_0, # of connection points: 3
#     Node 21, Type 0, BuildingBlock: VETTIZ_charged_linker_0, # of connection points: 3
#     Node 22, Type 0, BuildingBlock: VETTIZ_charged_linker_0, # of connection points: 3
#     Node 23, Type 0, BuildingBlock: VETTIZ_charged_linker_0, # of connection points: 3
#     Node 24, Type 1, BuildingBlock: EZIPEK_clean_sbu_0, # of connection points: 12
#     Node 25, Type 1, BuildingBlock: EZIPEK_clean_sbu_0, # of connection points: 12
#     Node 26, Type 1, BuildingBlock: EZIPEK_clean_sbu_0, # of connection points: 12
#     Node 27, Type 1, BuildingBlock: EZIPEK_clean_sbu_0, # of connection points: 12
#     Node 28, Type 1, BuildingBlock: EZIPEK_clean_sbu_0, # of connection points: 12
#     Node 29, Type 1, BuildingBlock: EZIPEK_clean_sbu_0, # of connection points: 12
#     Edge 30, Type (0, 1), BuildingBlock: XIVTED_clean_linker_0, # of connection points: 2
#     Edge 31, Type (0, 1), BuildingBlock: XIVTED_clean_linker_0, # of connection points: 2
#     Edge 32, Type (0, 1), BuildingBlock: XIVTED_clean_linker_0, # of connection points: 2
#     Edge 33, Type (0, 1), BuildingBlock: XIVTED_clean_linker_0, # of connection points: 2
#     Edge 34, Type (0, 1), BuildingBlock: XIVTED_clean_linker_0, # of connection points: 2
#     Edge 35, Type (0, 1), BuildingBlock: XIVTED_clean_linker_0, # of connection points: 2
#     Edge 36, Type (0, 1), BuildingBlock: XIVTED_clean_linker_0, # of connection points: 2
#     Edge 37, Type (0, 1), BuildingBlock: XIVTED_clean_linker_0, # of connection points: 2
#     Edge 38, Type (0, 1), BuildingBlock: XIVTED_clean_linker_0, # of connection points: 2
#     Edge 39, Type (0, 1), BuildingBlock: XIVTED_clean_linker_0, # of connection points: 2
#     Edge 40, Type (0, 1), BuildingBlock: XIVTED_clean_linker_0, # of connection points: 2
#     Edge 41, Type (0, 1), BuildingBlock: XIVTED_clean_linker_0, # of connection points: 2
#     Edge 42, Type (0, 1), BuildingBlock: XIVTED_clean_linker_0, # of connection points: 2
#     Edge 43, Type (0, 1), BuildingBlock: XIVTED_clean_linker_0, # of connection points: 2
#     Edge 44, Type (0, 1), BuildingBlock: XIVTED_clean_linker_0, # of connection points: 2
#     Edge 45, Type (0, 1), BuildingBlock: XIVTED_clean_linker_0, # of connection points: 2
#     Edge 46, Type (0, 1), BuildingBlock: XIVTED_clean_linker_0, # of connection points: 2
#     Edge 47, Type (0, 1), BuildingBlock: XIVTED_clean_linker_0, # of connection points: 2
#     Edge 48, Type (0, 1), BuildingBlock: XIVTED_clean_linker_0, # of connection points: 2
#     Edge 49, Type (0, 1), BuildingBlock: XIVTED_clean_linker_0, # of connection points: 2
#     Edge 50, Type (0, 1), BuildingBlock: XIVTED_clean_linker_0, # of connection points: 2
#     Edge 51, Type (0, 1), BuildingBlock: XIVTED_clean_linker_0, # of connection points: 2
#     Edge 52, Type (0, 1), BuildingBlock: XIVTED_clean_linker_0, # of connection points: 2
#     Edge 53, Type (0, 1), BuildingBlock: XIVTED_clean_linker_0, # of connection points: 2
#     Edge 54, Type (0, 1), BuildingBlock: XIVTED_clean_linker_0, # of connection points: 2
#     Edge 55, Type (0, 1), BuildingBlock: XIVTED_clean_linker_0, # of connection points: 2
#     Edge 56, Type (0, 1), BuildingBlock: XIVTED_clean_linker_0, # of connection points: 2
#     Edge 57, Type (0, 1), BuildingBlock: XIVTED_clean_linker_0, # of connection points: 2
#     Edge 58, Type (0, 1), BuildingBlock: XIVTED_clean_linker_0, # of connection points: 2
#     Edge 59, Type (0, 1), BuildingBlock: XIVTED_clean_linker_0, # of connection points: 2
#     Edge 60, Type (0, 1), BuildingBlock: XIVTED_clean_linker_0, # of connection points: 2
#     Edge 61, Type (0, 1), BuildingBlock: XIVTED_clean_linker_0, # of connection points: 2
#     Edge 62, Type (0, 1), BuildingBlock: XIVTED_clean_linker_0, # of connection points: 2
#     Edge 63, Type (0, 1), BuildingBlock: XIVTED_clean_linker_0, # of connection points: 2
#     Edge 64, Type (0, 1), BuildingBlock: XIVTED_clean_linker_0, # of connection points: 2
#     Edge 65, Type (0, 1), BuildingBlock: XIVTED_clean_linker_0, # of connection points: 2
#     Edge 66, Type (0, 1), BuildingBlock: XIVTED_clean_linker_0, # of connection points: 2
#     Edge 67, Type (0, 1), BuildingBlock: XIVTED_clean_linker_0, # of connection points: 2
#     Edge 68, Type (0, 1), BuildingBlock: XIVTED_clean_linker_0, # of connection points: 2
#     Edge 69, Type (0, 1), BuildingBlock: XIVTED_clean_linker_0, # of connection points: 2
#     Edge 70, Type (0, 1), BuildingBlock: XIVTED_clean_linker_0, # of connection points: 2
#     Edge 71, Type (0, 1), BuildingBlock: XIVTED_clean_linker_0, # of connection points: 2
#     Edge 72, Type (0, 1), BuildingBlock: XIVTED_clean_linker_0, # of connection points: 2
#     Edge 73, Type (0, 1), BuildingBlock: XIVTED_clean_linker_0, # of connection points: 2
#     Edge 74, Type (0, 1), BuildingBlock: XIVTED_clean_linker_0, # of connection points: 2
#     Edge 75, Type (0, 1), BuildingBlock: XIVTED_clean_linker_0, # of connection points: 2
#     Edge 76, Type (0, 1), BuildingBlock: XIVTED_clean_linker_0, # of connection points: 2
#     Edge 77, Type (0, 1), BuildingBlock: XIVTED_clean_linker_0, # of connection points: 2
#     Edge 78, Type (0, 1), BuildingBlock: XIVTED_clean_linker_0, # of connection points: 2
#     Edge 79, Type (0, 1), BuildingBlock: XIVTED_clean_linker_0, # of connection points: 2
#     Edge 80, Type (0, 1), BuildingBlock: XIVTED_clean_linker_0, # of connection points: 2
#     Edge 81, Type (0, 1), BuildingBlock: XIVTED_clean_linker_0, # of connection points: 2
#     Edge 82, Type (0, 1), BuildingBlock: XIVTED_clean_linker_0, # of connection points: 2
#     Edge 83, Type (0, 1), BuildingBlock: XIVTED_clean_linker_0, # of connection points: 2
#     Edge 84, Type (0, 1), BuildingBlock: XIVTED_clean_linker_0, # of connection points: 2
#     Edge 85, Type (0, 1), BuildingBlock: XIVTED_clean_linker_0, # of connection points: 2
#     Edge 86, Type (0, 1), BuildingBlock: XIVTED_clean_linker_0, # of connection points: 2
#     Edge 87, Type (0, 1), BuildingBlock: XIVTED_clean_linker_0, # of connection points: 2
#     Edge 88, Type (0, 1), BuildingBlock: XIVTED_clean_linker_0, # of connection points: 2
#     Edge 89, Type (0, 1), BuildingBlock: XIVTED_clean_linker_0, # of connection points: 2
#     Edge 90, Type (0, 1), BuildingBlock: XIVTED_clean_linker_0, # of connection points: 2
#     Edge 91, Type (0, 1), BuildingBlock: XIVTED_clean_linker_0, # of connection points: 2
#     Edge 92, Type (0, 1), BuildingBlock: XIVTED_clean_linker_0, # of connection points: 2
#     Edge 93, Type (0, 1), BuildingBlock: XIVTED_clean_linker_0, # of connection points: 2
#     Edge 94, Type (0, 1), BuildingBlock: XIVTED_clean_linker_0, # of connection points: 2
#     Edge 95, Type (0, 1), BuildingBlock: XIVTED_clean_linker_0, # of connection points: 2
#     Edge 96, Type (0, 1), BuildingBlock: XIVTED_clean_linker_0, # of connection points: 2
#     Edge 97, Type (0, 1), BuildingBlock: XIVTED_clean_linker_0, # of connection points: 2
#     Edge 98, Type (0, 1), BuildingBlock: XIVTED_clean_linker_0, # of connection points: 2
#     Edge 99, Type (0, 1), BuildingBlock: XIVTED_clean_linker_0, # of connection points: 2
#     Edge 100, Type (0, 1), BuildingBlock: XIVTED_clean_linker_0, # of connection points: 2
#     Edge 101, Type (0, 1), BuildingBlock: XIVTED_clean_linker_0, # of connection points: 2
# Relax obj value: 0.110
# Max RMSD: 0.165
# Mean RMSD: 0.138
data_MOF--net-llk--node1-EZIPEK_clean_sbu_0--node2-VETTIZ_charged_linker_0--edge1-XIVTED_clean_linker_0
_symmetry_space_group_name_H-M    P1
_symmetry_Int_Tables_number       1
_symmetry_cell_setting            triclinic
loop_
_symmetry_equiv_pos_as_xyz
'x, y, z'
_cell_length_a     55.443272
_cell_length_b     55.525763
_cell_length_c     55.551698
_cell_angle_alpha  89.993799
_cell_angle_beta   89.928371
_cell_angle_gamma 89.980424
loop_
_atom_site_label
_atom_site_type_symbol
_atom_site_fract_x
_atom_site_fract_y
_atom_site_fract_z
_atom_type_partial_charge
C0 C 0.04463 0.31317 0.19751 0.0
C1 C 0.03593 0.33717 0.19465 0.0
C2 C 0.02453 0.34837 0.21441 0.0
C3 C 0.03818 0.31676 0.24042 0.0
C4 C 0.0446 0.30283 0.22097 0.0
C5 C 0.05342 0.27828 0.22981 0.0
H6 H 0.08563 0.21577 0.33258 0.0
C7 C 0.04707 0.30557 0.26242 0.0
C8 C 0.05233 0.2814 0.25737 0.0
H9 H 0.02586 0.193 0.2886 0.0
H10 H 0.03122 0.22898 0.2629 0.0
H11 H 0.12035 0.24809 0.29173 0.0
H12 H 0.06026 0.26402 0.33912 0.0
H13 H 0.08395 0.28444 0.34411 0.0
H14 H 0.08896 0.25362 0.35009 0.0
H15 H 0.12398 0.24955 0.32383 0.0
H16 H 0.12501 0.27633 0.30537 0.0
C17 C 0.07945 0.27372 0.22123 0.0
C18 C 0.03648 0.25832 0.22089 0.0
C19 C 0.07985 0.36254 0.32534 0.0
C20 C 0.09456 0.35861 0.34556 0.0
C21 C 0.10916 0.33783 0.34625 0.0
C22 C 0.10637 0.31975 0.32884 0.0
C23 C 0.08803 0.32216 0.31157 0.0
C24 C 0.07655 0.344 0.30878 0.0
C25 C 0.05782 0.3436 0.28927 0.0
C26 C 0.05957 0.31746 0.28124 0.0
C27 C 0.07662 0.30488 0.29501 0.0
C28 C 0.06525 0.36198 0.26956 0.0
C29 C 0.03286 0.34902 0.30061 0.0
C30 C 0.07432 0.21782 0.31684 0.0
C31 C 0.05553 0.20146 0.3126 0.0
C32 C 0.04085 0.20501 0.29203 0.0
C33 C 0.04411 0.22544 0.277 0.0
C34 C 0.06232 0.2422 0.28247 0.0
C35 C 0.07646 0.23861 0.30272 0.0
C36 C 0.08834 0.26152 0.31107 0.0
C37 C 0.07789 0.27947 0.29327 0.0
C38 C 0.06489 0.26771 0.27507 0.0
C39 C 0.11591 0.25883 0.30806 0.0
C40 C 0.08013 0.26632 0.33742 0.0
H41 H 0.01747 0.34775 0.25199 0.0
H42 H 0.05245 0.30355 0.18247 0.0
H43 H 0.01825 0.26028 0.22902 0.0
H44 H 0.04381 0.24031 0.22547 0.0
H45 H 0.03462 0.25915 0.20099 0.0
H46 H 0.09156 0.28849 0.22726 0.0
H47 H 0.08026 0.27263 0.20127 0.0
H48 H 0.08638 0.25649 0.22869 0.0
H49 H 0.06846 0.37834 0.32406 0.0
H50 H 0.12103 0.33463 0.3614 0.0
H51 H 0.11687 0.30364 0.33078 0.0
H52 H 0.07649 0.35334 0.25539 0.0
H53 H 0.07593 0.37713 0.27714 0.0
H54 H 0.04949 0.37072 0.26107 0.0
H55 H 0.03112 0.34034 0.31858 0.0
H56 H 0.01783 0.34175 0.28979 0.0
H57 H 0.03017 0.36871 0.30294 0.0
H58 H 0.01626 0.36595 0.21248 0.0
C59 C 0.0256 0.33822 0.23727 0.0
C60 C 0.83221 0.02863 0.31455 0.0
C61 C 0.83603 0.0248 0.33954 0.0
C62 C 0.81615 0.0186 0.35408 0.0
C63 C 0.78899 0.02473 0.32082 0.0
C64 C 0.80829 0.02817 0.30542 0.0
C65 C 0.79946 0.03276 0.27981 0.0
H66 H 0.70179 0.06152 0.20969 0.0
C67 C 0.76654 0.02998 0.30791 0.0
C68 C 0.77194 0.03293 0.28337 0.0
H69 H 0.75223 1.00595 0.19014 0.0
H70 H 0.7723 0.01043 0.22932 0.0
H71 H 0.687 0.03972 0.27499 0.0
H72 H 0.7348 0.09627 0.25241 0.0
H73 H 0.71273 0.09732 0.27544 0.0
H74 H 0.70341 0.09667 0.24434 0.0
H75 H 0.68649 0.03785 0.24383 0.0
H76 H 0.67611 0.06489 0.2575 0.0
C77 C 0.80835 0.01238 0.26324 0.0
C78 C 0.80842 0.05743 0.27087 0.0
C79 C 0.68856 0.043 0.35399 0.0
C80 C 0.6666 0.05403 0.34749 0.0
C81 C 0.66582 0.06839 0.32657 0.0
C82 C 0.68577 0.06971 0.3112 0.0
C83 C 0.70641 0.05613 0.31655 0.0
C84 C 0.70829 0.04454 0.33837 0.0
C85 C 0.73278 0.03333 0.34188 0.0
C86 C 0.74403 0.03783 0.31726 0.0
C87 C 0.72811 0.05049 0.30241 0.0
C88 C 0.7296 1.00603 0.34661 0.0
C89 C 0.74586 0.04697 0.36255 0.0
C90 C 0.71832 0.05161 0.21299 0.0
C91 C 0.72598 0.03414 0.19654 0.0
C92 C 0.74663 0.02029 0.20211 0.0
C93 C 0.7586 0.02322 0.22446 0.0
C94 C 0.74991 0.04018 0.2412 0.0
C95 C 0.72908 0.0529 0.23569 0.0
C96 C 0.71618 0.06168 0.25782 0.0
C97 C 0.73247 0.05181 0.27737 0.0
C98 C 0.75338 0.04136 0.26764 0.0
C99 C 0.69019 0.05071 0.25867 0.0
C100 C 0.71662 0.0895 0.25755 0.0
H101 H 0.77845 0.01388 0.35691 0.0
H102 H 0.84721 0.03288 0.3028 0.0
H103 H 0.80281 0.07197 0.28346 0.0
H104 H 0.80079 0.06152 0.25284 0.0
H105 H 0.82841 0.05764 0.26939 0.0
H106 H 0.79754 0.99574 0.26593 0.0
H107 H 0.82756 1.00804 0.26695 0.0
H108 H 0.80763 0.0179 0.24409 0.0
H109 H 0.69006 0.03222 0.37015 0.0
H110 H 0.64953 0.07799 0.3217 0.0
H111 H 0.6842 0.08053 0.29532 0.0
H112 H 0.71629 0.99818 0.33386 0.0
H113 H 0.723 1.00271 0.36521 0.0
H114 H 0.74651 0.99582 0.34396 0.0
H115 H 0.73509 0.06232 0.36966 0.0
H116 H 0.76315 0.05497 0.35644 0.0
H117 H 0.74948 0.03499 0.37815 0.0
H118 H 0.81863 0.01458 0.37301 0.0
C119 C 0.79281 0.01848 0.34487 0.0
C120 C 0.04581 0.82358 0.31119 0.0
C121 C 0.042 0.82821 0.33616 0.0
C122 C 0.03617 0.80877 0.35131 0.0
C123 C 0.04302 0.78062 0.31903 0.0
C124 C 0.04579 0.79928 0.30285 0.0
C125 C 0.05006 0.78926 0.27748 0.0
H126 H 0.0795 0.68764 0.21215 0.0
C127 C 0.04878 0.7578 0.30706 0.0
C128 C 0.05096 0.76189 0.28219 0.0
H129 H 0.02412 0.73697 0.18919 0.0
H130 H 0.02832 0.75924 0.2273 0.0
H131 H 0.11424 0.72242 0.25189 0.0
H132 H 0.0528 0.6762 0.24886 0.0
H133 H 0.05955 0.67596 0.27929 0.0
H134 H 0.08147 0.66474 0.25802 0.0
H135 H 0.11425 0.69053 0.24642 0.0
H136 H 0.11534 0.70244 0.27663 0.0
C137 C 0.07434 0.79832 0.26755 0.0
C138 C 0.02911 0.7968 0.26099 0.0
C139 C 0.06751 0.68517 0.3587 0.0
C140 C 0.07707 0.66242 0.35304 0.0
C141 C 0.08943 0.65931 0.3311 0.0
C142 C 0.0899 0.67785 0.314 0.0
C143 C 0.07722 0.69926 0.3187 0.0
C144 C 0.06766 0.70324 0.34125 0.0
C145 C 0.05529 0.72723 0.34322 0.0
C146 C 0.05763 0.73623 0.31746 0.0
C147 C 0.0698 0.71947 0.30316 0.0
C148 C 0.06936 0.7429 0.36172 0.0
C149 C 0.02845 0.72289 0.34988 0.0
C150 C 0.06925 0.70412 0.21443 0.0
C151 C 0.05191 0.7107 0.19735 0.0
C152 C 0.03818 0.73181 0.20168 0.0
C153 C 0.04094 0.74505 0.22343 0.0
C154 C 0.05773 0.73734 0.24083 0.0
C155 C 0.07053 0.7163 0.23644 0.0
C156 C 0.07944 0.70477 0.25917 0.0
C157 C 0.06994 0.72219 0.27784 0.0
C158 C 0.0591 0.74246 0.26715 0.0
C159 C 0.10733 0.70484 0.25858 0.0
C160 C 0.068 0.67913 0.26155 0.0
H161 H 0.03236 0.77131 0.35554 0.0
H162 H 0.04961 0.83823 0.2989 0.0
H163 H 0.01271 0.78591 0.26475 0.0
H164 H 0.03414 0.79499 0.24178 0.0
H165 H 0.02453 0.8161 0.26373 0.0
H166 H 0.08929 0.79366 0.28003 0.0
H167 H 0.07402 0.81819 0.26517 0.0
H168 H 0.07821 0.78994 0.24979 0.0
H169 H 0.05791 0.68822 0.37542 0.0
H170 H 0.09743 0.64208 0.3266 0.0
H171 H 0.09874 0.67427 0.2972 0.0
H172 H 0.07629 0.75976 0.35352 0.0
H173 H 0.08554 0.73356 0.36902 0.0
H174 H 0.05804 0.7476 0.37754 0.0
H175 H 0.02122 0.70691 0.3402 0.0
H176 H 0.01661 0.73801 0.34457 0.0
H177 H 0.02632 0.71962 0.3695 0.0
H178 H 0.03205 0.81177 0.37016 0.0
C179 C 0.0366 0.78521 0.34292 0.0
C180 C 0.33015 0.03697 0.2063 0.0
C181 C 0.34788 0.04943 0.19249 0.0
C182 C 0.35138 0.07423 0.19661 0.0
C183 C 0.32419 0.07281 0.23029 0.0
C184 C 0.31776 0.04957 0.22486 0.0
C185 C 0.29613 0.04202 0.24033 0.0
H186 H 0.2237 0.0745 0.33699 0.0
C187 C 0.31027 0.08124 0.25071 0.0
C188 C 0.29221 0.06449 0.25621 0.0
H189 H 0.2185 1.00813 0.29724 0.0
H190 H 0.25024 0.02208 0.2696 0.0
H191 H 0.26601 0.07924 0.34755 0.0
H192 H 0.23208 0.11153 0.29077 0.0
H193 H 0.25396 0.13163 0.30235 0.0
H194 H 0.2329 0.11745 0.32261 0.0
H195 H 0.27171 0.11016 0.34478 0.0
H196 H 0.29336 0.08817 0.33392 0.0
C197 C 0.30318 0.01983 0.25536 0.0
C198 C 0.27446 0.03731 0.22368 0.0
C199 C 0.35239 0.12207 0.31802 0.0
C200 C 0.3428 0.12961 0.34037 0.0
C201 C 0.31929 0.13942 0.34066 0.0
C202 C 0.30386 0.13567 0.32108 0.0
C203 C 0.31227 0.12193 0.30171 0.0
C204 C 0.33662 0.11845 0.29868 0.0
C205 C 0.34201 0.10618 0.27511 0.0
C206 C 0.31636 0.09969 0.26697 0.0
C207 C 0.2995 0.10662 0.28436 0.0
C208 C 0.35767 0.08347 0.27921 0.0
C209 C 0.35494 0.12442 0.25858 0.0
C210 C 0.22926 0.06292 0.32227 0.0
C211 C 0.21882 0.04021 0.31949 0.0
C212 C 0.22635 0.02579 0.29985 0.0
C213 C 0.2448 0.03384 0.28395 0.0
C214 C 0.25578 0.05645 0.28779 0.0
C215 C 0.24772 0.07043 0.30683 0.0
C216 C 0.26166 0.09324 0.30988 0.0
C217 C 0.2794 0.09134 0.28907 0.0
C218 C 0.27608 0.06972 0.27585 0.0
C219 C 0.27391 0.09282 0.33516 0.0
C220 C 0.24426 0.11471 0.30635 0.0
H221 H 0.34075 0.10529 0.21682 0.0
H222 H 0.32596 0.01831 0.20257 0.0
H223 H 0.27179 0.05273 0.21119 0.0
H224 H 0.25749 0.03512 0.23382 0.0
H225 H 0.27749 0.02085 0.21271 0.0
H226 H 0.31997 0.02345 0.26567 0.0
H227 H 0.30643 1.00402 0.24352 0.0
H228 H 0.28907 0.01496 0.26851 0.0
H229 H 0.37077 0.11581 0.31653 0.0
H230 H 0.31192 0.14715 0.35699 0.0
H231 H 0.28544 0.14153 0.3224 0.0
H232 H 0.3488 0.07104 0.29218 0.0
H233 H 0.37576 0.08832 0.28626 0.0
H234 H 0.36073 0.07359 0.26215 0.0
H235 H 0.36775 0.13577 0.269 0.0
H236 H 0.34181 0.1366 0.24963 0.0
H237 H 0.36618 0.11525 0.24486 0.0
H238 H 0.3638 0.08448 0.18555 0.0
C239 C 0.33918 0.08605 0.21513 0.0
C240 C 0.03901 0.74191 0.82648 0.0
C241 C 0.02547 0.72208 0.83539 0.0
C242 C 1.00471 0.71468 0.82289 0.0
C243 C 0.01494 0.74116 0.79028 0.0
C244 C 0.03251 0.75204 0.80398 0.0
C245 C 0.04373 0.77291 0.79008 0.0
H246 H 0.06278 0.82124 0.67891 0.0
C247 C 0.0169 0.74965 0.76553 0.0
C248 C 0.03105 0.77067 0.76558 0.0
H249 H 0.03424 0.86479 0.73656 0.0
H250 H 0.03105 0.82853 0.76216 0.0
H251 H 0.08958 0.77407 0.70931 0.0
H252 H 0.01992 0.79417 0.68189 0.0
H253 H 0.02245 0.76336 0.67672 0.0
H254 H 0.04365 0.78343 0.66267 0.0
H255 H 0.08233 0.77336 0.67785 0.0
H256 H 0.07664 0.74783 0.69724 0.0
C257 C 0.07117 0.76924 0.78761 0.0
C258 C 0.03805 0.79683 0.80277 0.0
C259 C 1.00832 0.6838 0.70256 0.0
C260 C 0.01759 0.68139 0.67912 0.0
C261 C 0.03242 0.69974 0.6697 0.0
C262 C 0.03748 0.72031 0.68316 0.0
C263 C 0.02714 0.72294 0.70605 0.0
C264 C 0.01347 0.7046 0.71575 0.0
C265 C 1.00468 0.71031 0.74074 0.0
C266 C 0.01569 0.73527 0.74439 0.0
C267 C 0.0282 0.74254 0.72372 0.0
C268 C 0.01452 0.69095 0.75838 0.0
C269 C 0.97684 0.71146 0.74015 0.0
C270 C 0.05717 0.82345 0.69748 0.0
C271 C 0.04915 0.84591 0.70574 0.0
C272 C 0.04117 0.84781 0.72991 0.0
C273 C 0.03973 0.8271 0.74483 0.0
C274 C 0.04649 0.80454 0.73549 0.0
C275 C 0.05396 0.80299 0.71172 0.0
C276 C 0.05073 0.7781 0.70159 0.0
C277 C 0.03911 0.76548 0.72274 0.0
C278 C 0.03901 0.78016 0.74316 0.0
C279 C 0.07604 0.76769 0.69598 0.0
C280 C 0.0335 0.7796 0.67949 0.0
H281 H 0.9836 0.71792 0.7911 0.0
H282 H 0.05449 0.74859 0.83627 0.0
H283 H 0.01846 0.80101 0.80173 0.0
H284 H 0.04843 0.81181 0.7946 0.0
H285 H 0.04326 0.7959 0.82206 0.0
H286 H 0.0752 0.75162 0.77899 0.0
H287 H 0.08003 0.7697 0.80553 0.0
H288 H 0.07922 0.7837 0.77635 0.0
H289 H 0.99725 0.66984 0.7105 0.0
H290 H 0.03956 0.69862 0.65158 0.0
H291 H 0.04865 0.73371 0.67487 0.0
H292 H 0.03176 0.69678 0.76675 0.0
H293 H 0.01817 0.6735 0.7493 0.0
H294 H 1.00136 0.68647 0.77268 0.0
H295 H 0.97047 0.72132 0.72392 0.0
H296 H 0.96931 0.72126 0.75574 0.0
H297 H 0.96898 0.69306 0.73972 0.0
H298 H 0.99356 0.70023 0.82985 0.0
C299 C 0.99927 0.72434 0.8004 0.0
C300 C 0.3295 0.01387 0.81688 0.0
C301 C 0.34553 1.0013 0.83251 0.0
C302 C 0.34526 0.97595 0.83244 0.0
C303 C 0.3182 0.97593 0.79857 0.0
C304 C 0.31534 1.00047 0.80025 0.0
C305 C 0.29514 1.0087 0.78335 0.0
H306 H 0.22186 0.97496 0.68809 0.0
C307 C 0.30362 0.96666 0.77883 0.0
C308 C 0.28851 0.98512 0.77027 0.0
H309 H 0.22188 0.04488 0.72168 0.0
H310 H 0.25186 0.03075 0.75111 0.0
H311 H 0.26708 0.96769 0.68095 0.0
H312 H 0.22357 0.94263 0.73609 0.0
H313 H 0.24408 0.91917 0.72976 0.0
H314 H 0.22678 0.93233 0.70558 0.0
H315 H 0.26441 0.93619 0.6836 0.0
H316 H 0.29015 0.95203 0.69595 0.0
C317 C 0.30508 0.02779 0.76589 0.0
C318 C 0.27405 0.01814 0.79875 0.0
C319 C 0.34129 0.90577 0.72467 0.0
C320 C 0.33402 0.90047 0.70089 0.0
C321 C 0.30903 0.89811 0.69651 0.0
C322 C 0.29235 0.90706 0.71317 0.0
C323 C 0.30096 0.91944 0.73335 0.0
C324 C 0.32456 0.91643 0.74036 0.0
C325 C 0.33003 0.93015 0.76312 0.0
C326 C 0.30679 0.94507 0.76569 0.0
C327 C 0.29059 0.93951 0.74723 0.0
C328 C 0.3525 0.94628 0.7593 0.0
C329 C 0.33386 0.91165 0.78362 0.0
C330 C 0.22813 0.98736 0.70179 0.0
C331 C 0.21965 0.01105 0.70229 0.0
C332 C 0.22818 0.02644 0.72078 0.0
C333 C 0.24556 0.01825 0.73779 0.0
C334 C 0.25436 0.9944 0.7364 0.0
C335 C 0.24531 0.9796 0.71849 0.0
C336 C 0.25673 0.95529 0.71808 0.0
C337 C 0.27354 0.95704 0.73954 0.0
C338 C 0.27258 0.98008 0.75043 0.0
C339 C 0.27028 0.95247 0.69356 0.0
C340 C 0.2368 0.93621 0.72244 0.0
H341 H 0.33 0.94408 0.81741 0.0
H342 H 0.32812 0.03329 0.81763 0.0
H343 H 0.26938 1.00494 0.81308 0.0
H344 H 0.25757 0.02099 0.78805 0.0
H345 H 0.27896 0.03542 0.80757 0.0
H346 H 0.32128 0.02078 0.75636 0.0
H347 H 0.31033 0.04437 0.77578 0.0
H348 H 0.29171 0.03282 0.75206 0.0
H349 H 0.36014 0.90515 0.72958 0.0
H350 H 0.3022 0.8924 0.67921 0.0
H351 H 0.27359 0.90618 0.70869 0.0
H352 H 0.34985 0.9585 0.74366 0.0
H353 H 0.36888 0.93524 0.75608 0.0
H354 H 0.35642 0.95746 0.77528 0.0
H355 H 0.33991 0.89387 0.77661 0.0
H356 H 0.31694 0.90859 0.79393 0.0
H357 H 0.34837 0.91734 0.7961 0.0
H358 H 0.35615 0.96593 0.84516 0.0
C359 C 0.33117 0.96328 0.81595 0.0
C360 C 0.06387 0.22067 0.71479 0.0
C361 C 0.07691 0.20766 0.69691 0.0
C362 C 0.10079 0.2146 0.69163 0.0
C363 C 0.09551 0.25042 0.71512 0.0
C364 C 0.07437 0.2418 0.72459 0.0
C365 C 0.06673 0.25757 0.74583 0.0
H366 H 0.08022 0.37011 0.79761 0.0
C367 C 0.09982 0.27457 0.724 0.0
C368 C 0.08435 0.27893 0.74356 0.0
H369 H 0.03899 0.31154 0.82789 0.0
H370 H 0.05085 0.28578 0.79404 0.0
H371 H 0.12719 0.34126 0.78078 0.0
H372 H 0.06289 0.36771 0.75117 0.0
H373 H 0.07677 0.3581 0.72436 0.0
H374 H 0.09036 0.3815 0.74253 0.0
H375 H 0.11876 0.37183 0.77417 0.0
H376 H 0.13417 0.35354 0.75221 0.0
C377 C 0.07111 0.24303 0.76906 0.0
C378 C 0.04029 0.26544 0.74295 0.0
C379 C 0.1162 0.33471 0.65916 0.0
C380 C 0.11141 0.3596 0.65978 0.0
C381 C 0.1155 0.37202 0.68158 0.0
C382 C 0.11921 0.35925 0.70297 0.0
C383 C 0.11742 0.3341 0.70263 0.0
C384 C 0.11803 0.32205 0.68092 0.0
C385 C 0.11533 0.29526 0.68405 0.0
C386 C 0.11045 0.29386 0.71124 0.0
C387 C 0.11056 0.31683 0.7216 0.0
C388 C 0.13911 0.28298 0.67618 0.0
C389 C 0.09356 0.28637 0.66896 0.0
C390 C 0.0737 0.35172 0.79723 0.0
C391 C 0.0586 0.34305 0.81555 0.0
C392 C 0.05083 0.31877 0.81416 0.0
C393 C 0.05784 0.30377 0.79465 0.0
C394 C 0.07308 0.31298 0.77653 0.0
C395 C 0.08054 0.33671 0.77819 0.0
C396 C 0.09547 0.34452 0.75716 0.0
C397 C 0.09802 0.32096 0.74357 0.0
C398 C 0.08452 0.30235 0.75453 0.0
C399 C 0.12022 0.35343 0.76647 0.0
C400 C 0.08084 0.36392 0.74302 0.0
H401 H 0.12873 0.24067 0.69733 0.0
H402 H 0.04627 0.21464 0.72068 0.0
H403 H 0.03768 0.2747 0.7254 0.0
H404 H 0.03478 0.27803 0.75736 0.0
H405 H 0.02807 0.2496 0.74359 0.0
H406 H 0.0894 0.23478 0.76886 0.0
H407 H 0.05767 0.22828 0.77078 0.0
H408 H 0.07026 0.25426 0.78536 0.0
H409 H 0.11521 0.32494 0.64234 0.0
H410 H 0.11321 0.39133 0.68286 0.0
H411 H 0.12129 0.36937 0.71923 0.0
H412 H 0.14855 0.2935 0.66197 0.0
H413 H 0.13576 0.26514 0.66794 0.0
H414 H 0.15172 0.28094 0.69159 0.0
H415 H 0.07678 0.29594 0.67437 0.0
H416 H 0.09043 0.26684 0.67091 0.0
H417 H 0.0966 0.28937 0.64944 0.0
H418 H 0.11171 0.20397 0.67946 0.0
C419 C 0.11029 0.23588 0.70098 0.0
C420 C 0.83396 0.01901 0.71115 0.0
C421 C 0.83999 0.01673 0.68635 0.0
C422 C 0.82126 0.01365 0.66961 0.0
C423 C 0.79163 0.0123 0.70147 0.0
C424 C 0.80939 0.01668 0.71836 0.0
C425 C 0.79841 0.01815 0.74359 0.0
H426 H 0.69544 0.99742 0.81115 0.0
C427 C 0.76847 1.00844 0.7139 0.0
C428 C 0.77192 0.01158 0.73889 0.0
H429 H 0.76098 0.02823 0.83922 0.0
H430 H 0.77958 0.02541 0.79893 0.0
H431 H 0.69221 0.02971 0.77017 0.0
H432 H 0.71896 0.95795 0.77765 0.0
H433 H 0.70451 0.95806 0.7496 0.0
H434 H 0.68744 0.96505 0.77644 0.0
H435 H 0.67259 1.0041 0.7699 0.0
H436 H 0.68507 0.0165 0.74258 0.0
C437 C 0.80096 0.04424 0.75265 0.0
C438 C 0.81078 0.99982 0.76028 0.0
C439 C 0.69435 0.98711 0.66412 0.0
C440 C 0.67057 0.98109 0.67071 0.0
C441 C 0.66508 0.97747 0.69519 0.0
C442 C 0.68255 0.98091 0.71285 0.0
C443 C 0.70582 0.98838 0.70617 0.0
C444 C 0.71164 0.99064 0.68216 0.0
C445 C 0.73754 0.99794 0.67862 0.0
C446 C 0.74585 1.00087 0.70462 0.0
C447 C 0.72707 0.99555 0.72041 0.0
C448 C 0.73782 0.02232 0.66497 0.0
C449 C 0.75071 0.97698 0.66549 0.0
C450 C 0.71401 1.00317 0.80907 0.0
C451 C 0.72678 0.01249 0.82858 0.0
C452 C 0.75065 0.02075 0.82448 0.0
C453 C 0.76136 0.01919 0.80115 0.0
C454 C 0.74782 0.00987 0.78172 0.0
C455 C 0.72447 1.00231 0.78633 0.0
C456 C 0.71114 0.99482 0.76443 0.0
C457 C 0.72998 0.999 0.74539 0.0
C458 C 0.75197 1.00742 0.75505 0.0
C459 C 0.68902 0.01191 0.76153 0.0
C460 C 0.70495 0.96763 0.76706 0.0
H461 H 0.78437 1.00883 0.66302 0.0
H462 H 0.84793 0.02182 0.72444 0.0
H463 H 0.80996 0.98146 0.75231 0.0
H464 H 0.80197 0.99904 0.77811 0.0
H465 H 0.83004 1.00459 0.76302 0.0
H466 H 0.79428 0.05715 0.73887 0.0
H467 H 0.82016 0.04855 0.75641 0.0
H468 H 0.79037 0.04753 0.76913 0.0
H469 H 0.69927 0.98957 0.64541 0.0
H470 H 0.64691 0.97309 0.70088 0.0
H471 H 0.67685 0.97841 0.7311 0.0
H472 H 0.72293 0.03418 0.67132 0.0
H473 H 0.73542 0.01959 0.64531 0.0
H474 H 0.75444 0.03284 0.66806 0.0
H475 H 0.76879 0.97333 0.67313 0.0
H476 H 0.75254 0.98063 0.64592 0.0
H477 H 0.7409 0.9596 0.6674 0.0
H478 H 0.82519 0.01252 0.65051 0.0
C479 C 0.7974 0.01144 0.67694 0.0
C480 C 0.32927 0.2187 1.00144 0.0
C481 C 0.34464 0.20184 0.98952 0.0
C482 C 0.34335 0.1999 0.96428 0.0
C483 C 0.31683 0.23409 0.9627 0.0
C484 C 0.31472 0.23439 0.98731 0.0
C485 C 0.29484 0.2522 0.99466 0.0
H486 H 0.22183 0.34558 0.95423 0.0
C487 C 0.30232 0.25318 0.95236 0.0
C488 C 0.28762 0.26336 0.97022 0.0
H489 H 0.22308 0.31799 0.02671 0.0
H490 H 0.25231 0.28697 0.01444 0.0
H491 H 0.26448 0.35203 0.94243 0.0
H492 H 0.2226 0.29359 0.92628 0.0
H493 H 0.24202 0.29894 0.90157 0.0
H494 H 0.22463 0.32347 0.91389 0.0
H495 H 0.26475 0.34369 0.91196 0.0
H496 H 0.28913 0.33488 0.9318 0.0
C497 C 0.30544 0.2711 0.0119 0.0
C498 C 0.27393 0.2379 1.00598 0.0
C499 C 0.34107 0.30625 0.89171 0.0
C500 C 0.33219 0.32805 0.8821 0.0
C501 C 0.30736 0.32937 0.87655 0.0
C502 C 0.29129 0.31276 0.88675 0.0
C503 C 0.30048 0.29522 0.90232 0.0
C504 C 0.32471 0.28998 0.90197 0.0
C505 C 0.3305 0.26867 0.91766 0.0
C506 C 0.30607 0.265 0.93023 0.0
C507 C 0.28949 0.28243 0.92275 0.0
C508 C 0.3507 0.27515 0.93576 0.0
C509 C 0.33811 0.2476 0.90115 0.0
C510 C 0.22832 0.33294 0.96761 0.0
C511 C 0.22034 0.33456 0.99145 0.0
C512 C 0.22898 0.31727 1.00813 0.0
C513 C 0.24594 0.29935 1.00104 0.0
C514 C 0.25421 0.29857 0.977 0.0
C515 C 0.24514 0.31534 0.9609 0.0
C516 C 0.25574 0.31307 0.93624 0.0
C517 C 0.27243 0.29161 0.93963 0.0
C518 C 0.27181 0.2829 0.96364 0.0
C519 C 0.26927 0.33695 0.93018 0.0
C520 C 0.23519 0.30707 0.91841 0.0
H521 H 0.32693 0.21272 0.93188 0.0
H522 H 0.32863 0.2195 0.0209 0.0
H523 H 0.26855 0.22275 0.99405 0.0
H524 H 0.25774 0.24911 0.00871 0.0
H525 H 0.27939 0.23025 0.02364 0.0
H526 H 0.32139 0.27996 1.00358 0.0
H527 H 0.31125 0.26254 0.02902 0.0
H528 H 0.29222 0.28534 0.01626 0.0
H529 H 0.36014 0.30365 0.89469 0.0
H530 H 0.30007 0.34495 0.86736 0.0
H531 H 0.27229 0.31526 0.884 0.0
H532 H 0.34555 0.29115 0.94665 0.0
H533 H 0.36793 0.27903 0.92635 0.0
H534 H 0.35447 0.26005 0.94823 0.0
H535 H 0.34834 0.25418 0.88522 0.0
H536 H 0.32213 0.23755 0.89446 0.0
H537 H 0.35062 0.2351 0.9104 0.0
H538 H 0.35367 0.18625 0.95486 0.0
C539 C 0.32902 0.21561 0.95091 0.0
C540 C 0.33419 0.82484 0.02396 0.0
C541 C 0.35915 0.82857 0.02893 0.0
C542 C 0.37263 0.809 0.03787 0.0
C543 C 0.33679 0.78464 0.04127 0.0
C544 C 0.32337 0.80232 0.03001 0.0
C545 C 0.29716 0.79406 0.02719 0.0
H546 H 0.2119 0.71019 0.06081 0.0
C547 C 0.32063 0.76529 0.04935 0.0
C548 C 0.29756 0.76934 0.03982 0.0
H549 H 0.22085 0.73308 0.98736 0.0
H550 H 0.25736 0.75556 0.99882 0.0
H551 H 0.25074 0.68873 0.05961 0.0
H552 H 0.24101 0.75499 0.095 0.0
H553 H 0.25964 0.73586 0.11254 0.0
H554 H 0.23057 0.72527 0.1026 0.0
H555 H 0.25495 0.68979 0.09114 0.0
H556 H 0.28 0.69245 0.07038 0.0
C557 C 0.29084 0.79251 1.00028 0.0
C558 C 0.28012 0.81153 0.04037 0.0
C559 C 0.35072 0.69735 0.10129 0.0
C560 C 0.33801 0.6785 0.11264 0.0
C561 C 0.31384 0.68251 0.11954 0.0
C562 C 0.30152 0.70299 0.11142 0.0
C563 C 0.31334 0.71887 0.09572 0.0
C564 C 0.33796 0.71733 0.09282 0.0
C565 C 0.34758 0.73693 0.07673 0.0
C566 C 0.32414 0.748 0.0678 0.0
C567 C 0.30421 0.73675 0.07842 0.0
C568 C 0.36193 0.72533 0.05572 0.0
C569 C 0.36259 0.75457 0.09244 0.0
C570 C 0.22049 0.7216 0.04748 0.0
C571 C 0.21261 0.72098 0.02355 0.0
C572 C 0.22585 0.73416 1.00616 0.0
C573 C 0.24649 0.74774 0.01282 0.0
C574 C 0.25419 0.7479 0.03697 0.0
C575 C 0.24216 0.73323 0.05327 0.0
C576 C 0.25798 0.72598 0.074 0.0
C577 C 0.28113 0.73922 0.06775 0.0
C578 C 0.2782 0.75389 0.04731 0.0
C579 C 0.26112 0.69796 0.07397 0.0
C580 C 0.24671 0.73593 0.09741 0.0
H581 H 0.37305 0.77353 0.05129 0.0
H582 H 0.32336 0.83921 0.01646 0.0
H583 H 0.28538 0.81335 0.0596 0.0
H584 H 0.26125 0.80482 0.03966 0.0
H585 H 0.28066 0.82967 0.03192 0.0
H586 H 0.2991 0.7763 0.9919 0.0
H587 H 0.29748 0.80866 0.9905 0.0
H588 H 0.27104 0.79217 0.9976 0.0
H589 H 0.36946 0.69529 0.09623 0.0
H590 H 0.30393 0.66883 0.12931 0.0
H591 H 0.28291 0.705 0.11622 0.0
H592 H 0.35234 0.70917 0.04876 0.0
H593 H 0.38016 0.7196 0.06168 0.0
H594 H 0.36399 0.73749 0.0401 0.0
H595 H 0.36041 0.75107 0.11205 0.0
H596 H 0.35688 0.77355 0.08992 0.0
H597 H 0.38217 0.75314 0.08846 0.0
H598 H 0.39191 0.81059 0.04065 0.0
C599 C 0.36167 0.78736 0.04416 0.0
C600 C 0.83782 0.32008 1.00074 0.0
C601 C 0.84059 0.34543 1.0034 0.0
C602 C 0.81986 0.35953 1.00745 0.0
C603 C 0.79428 0.32514 1.00081 0.0
C604 C 0.81416 0.31016 0.99994 0.0
C605 C 0.80624 0.28405 0.9962 0.0
H606 H 0.71219 0.21095 0.96277 0.0
C607 C 0.77273 0.31141 0.99415 0.0
C608 C 0.77875 0.28683 0.99342 0.0
H609 H 0.75735 0.19462 0.02387 0.0
H610 H 0.77698 0.23408 0.01947 0.0
H611 H 0.6943 0.24639 0.98139 0.0
H612 H 0.74956 0.24964 0.92902 0.0
H613 H 0.72858 0.2729 0.92319 0.0
H614 H 0.71825 0.24214 0.92534 0.0
H615 H 0.68751 0.25781 0.95227 0.0
H616 H 0.69531 0.27734 0.97705 0.0
C617 C 0.81346 0.26892 0.01823 0.0
C618 C 0.81758 0.27384 0.97304 0.0
C619 C 0.69729 0.35537 0.96702 0.0
C620 C 0.67697 0.34756 0.95395 0.0
C621 C 0.67818 0.32562 0.94128 0.0
C622 C 0.69825 0.31056 0.9437 0.0
C623 C 0.71687 0.31729 0.95938 0.0
C624 C 0.71713 0.34001 0.96931 0.0
C625 C 0.73964 0.3446 0.98374 0.0
C626 C 0.75144 0.31983 0.98274 0.0
C627 C 0.73749 0.30388 0.96915 0.0
C628 C 0.73234 0.35116 0.00984 0.0
C629 C 0.75461 0.36448 0.97083 0.0
C630 C 0.72758 0.21458 0.97418 0.0
C631 C 0.73365 0.19885 0.993 0.0
C632 C 0.75256 0.2059 0.00872 0.0
C633 C 0.76451 0.22834 1.00581 0.0
C634 C 0.75765 0.24387 0.98702 0.0
C635 C 0.73837 0.23727 0.9726 0.0
C636 C 0.72687 0.25847 0.96038 0.0
C637 C 0.74196 0.27886 0.97041 0.0
C638 C 0.76143 0.2702 0.98404 0.0
C639 C 0.69971 0.26016 0.96794 0.0
C640 C 0.73083 0.2557 0.93296 0.0
H641 H 0.78183 0.36125 0.00917 0.0
H642 H 0.85343 0.30864 0.99824 0.0
H643 H 0.81307 0.28538 0.95731 0.0
H644 H 0.8107 0.25539 0.96945 0.0
H645 H 0.83753 0.27287 0.97468 0.0
H646 H 0.80156 0.2729 0.03385 0.0
H647 H 0.83238 0.2728 0.02355 0.0
H648 H 0.81275 0.24942 0.01407 0.0
H649 H 0.69717 0.3723 0.97667 0.0
H650 H 0.66319 0.31965 0.93031 0.0
H651 H 0.69814 0.29382 0.93414 0.0
H652 H 0.71784 0.33897 0.01642 0.0
H653 H 0.72553 0.36995 0.01087 0.0
H654 H 0.74745 0.34918 0.02266 0.0
H655 H 0.74562 0.37136 0.95431 0.0
H656 H 0.77245 0.35766 0.96482 0.0
H657 H 0.75743 0.38042 0.98256 0.0
H658 H 0.82144 0.37872 0.01067 0.0
C659 C 0.79688 0.34954 1.00624 0.0
C660 C 0.82583 0.71633 0.01674 0.0
C661 C 0.83188 0.69163 0.01964 0.0
C662 C 0.81312 0.67476 0.02201 0.0
C663 C 0.7832 0.70633 0.02045 0.0
C664 C 0.80115 0.72332 0.01734 0.0
C665 C 0.79034 0.74851 0.01524 0.0
H666 H 0.68547 0.81577 0.01857 0.0
C667 C 0.75966 0.71859 0.02156 0.0
C668 C 0.76333 0.74357 0.01874 0.0
H669 H 0.75611 0.84391 1.00266 0.0
H670 H 0.77367 0.80364 0.00878 0.0
H671 H 0.68871 0.77377 0.98652 0.0
H672 H 0.70098 0.78194 0.06207 0.0
H673 H 0.68655 0.75399 0.05921 0.0
H674 H 0.67143 0.78095 0.04902 0.0
H675 H 0.66445 0.77411 1.00785 0.0
H676 H 0.67887 0.74646 0.99867 0.0
C677 C 0.79582 0.7583 0.98986 0.0
C678 C 0.80058 0.76454 0.03541 0.0
C679 C 0.68375 0.66788 0.03113 0.0
C680 C 0.65915 0.67401 0.03262 0.0
C681 C 0.65262 0.69846 0.03419 0.0
C682 C 0.67012 0.7165 0.03334 0.0
C683 C 0.69451 0.71018 0.03057 0.0
C684 C 0.70104 0.68624 0.03009 0.0
C685 C 0.72785 0.68304 0.02739 0.0
C686 C 0.73617 0.70911 0.02542 0.0
C687 C 0.71655 0.72471 0.02711 0.0
C688 C 0.73247 0.66889 1.00373 0.0
C689 C 0.73739 0.67062 0.05057 0.0
C690 C 0.70478 0.81345 0.01646 0.0
C691 C 0.7193 0.83284 0.00986 0.0
C692 C 0.74446 0.82907 1.00761 0.0
C693 C 0.75454 0.80573 0.01099 0.0
C694 C 0.73926 0.78617 0.01668 0.0
C695 C 0.71484 0.79069 0.01948 0.0
C696 C 0.7004 0.7687 0.02446 0.0
C697 C 0.71981 0.74974 0.02409 0.0
C698 C 0.7429 0.75955 0.01975 0.0
C699 C 0.68201 0.76551 1.00352 0.0
C700 C 0.68903 0.77143 0.0499 0.0
H701 H 0.77604 0.66787 0.02454 0.0
H702 H 0.83985 0.72974 0.01466 0.0
H703 H 0.79854 0.75551 0.05317 0.0
H704 H 0.7911 0.78197 0.03663 0.0
H705 H 0.82006 0.76814 0.03241 0.0
H706 H 0.79092 0.74475 0.97595 0.0
H707 H 0.81533 0.76243 0.9879 0.0
H708 H 0.78543 0.77471 0.98571 0.0
H709 H 0.68943 0.64923 0.03032 0.0
H710 H 0.63385 0.7038 0.03508 0.0
H711 H 0.66376 0.7347 0.03412 0.0
H712 H 0.71941 0.67433 0.98954 0.0
H713 H 0.73044 0.64919 1.00659 0.0
H714 H 0.75038 0.67247 0.99576 0.0
H715 H 0.72526 0.67382 0.06622 0.0
H716 H 0.75505 0.67784 0.05641 0.0
H717 H 0.7389 0.65082 0.04815 0.0
H718 H 0.8171 0.65571 0.02367 0.0
C719 C 0.7891 0.68189 0.02248 0.0
C720 C 0.46472 0.78247 0.69355 0.0
C721 C 0.45794 0.80676 0.68865 0.0
C722 C 0.44796 0.82073 0.70735 0.0
C723 C 0.45953 0.79055 0.73585 0.0
C724 C 0.46422 0.77433 0.71781 0.0
C725 C 0.47054 0.74987 0.72888 0.0
H726 H 0.50151 0.69214 0.83422 0.0
C727 C 0.46768 0.78071 0.75861 0.0
C728 C 0.47005 0.75569 0.75607 0.0
H729 H 0.44445 0.66562 0.78866 0.0
H730 H 0.44799 0.70204 0.76335 0.0
H731 H 0.53573 0.72487 0.79273 0.0
H732 H 0.47606 0.73503 0.84133 0.0
H733 H 0.49167 0.76228 0.84137 0.0
H734 H 0.50669 0.7354 0.85171 0.0
H735 H 0.53858 0.72455 0.82492 0.0
H736 H 0.54015 0.75228 0.80804 0.0
C737 C 0.49592 0.74199 0.72085 0.0
C738 C 0.45157 0.73109 0.72159 0.0
C739 C 0.51541 0.83998 0.80898 0.0
C740 C 0.52886 0.8375 0.83027 0.0
C741 C 0.53356 0.81415 0.83914 0.0
C742 C 0.52393 0.79387 0.82772 0.0
C743 C 0.50877 0.79695 0.80771 0.0
C744 C 0.50489 0.81969 0.79853 0.0
C745 C 0.48791 0.81972 0.77746 0.0
C746 C 0.48149 0.79301 0.77619 0.0
C747 C 0.49446 0.77988 0.79333 0.0
C748 C 0.50219 0.82828 0.7551 0.0
C749 C 0.46579 0.83597 0.78312 0.0
C750 C 0.49059 0.69329 0.81809 0.0
C751 C 0.47306 0.67577 0.81329 0.0
C752 C 0.4586 0.67851 0.79243 0.0
C753 C 0.46093 0.69916 0.77751 0.0
C754 C 0.47821 0.71681 0.78321 0.0
C755 C 0.49201 0.71396 0.80382 0.0
C756 C 0.50321 0.73717 0.81199 0.0
C757 C 0.49295 0.75449 0.7937 0.0
C758 C 0.48013 0.74236 0.77562 0.0
C759 C 0.53091 0.73472 0.80951 0.0
C760 C 0.49422 0.74285 0.83796 0.0
H761 H 0.44114 0.82361 0.74508 0.0
H762 H 0.47137 0.7709 0.67934 0.0
H763 H 0.43404 0.73473 0.73064 0.0
H764 H 0.45772 0.71266 0.72616 0.0
H765 H 0.44863 0.73147 0.7018 0.0
H766 H 0.50948 0.756 0.72548 0.0
H767 H 0.49648 0.73895 0.70108 0.0
H768 H 0.50117 0.72495 0.72995 0.0
H769 H 0.51208 0.85751 0.80115 0.0
H770 H 0.54367 0.81149 0.85558 0.0
H771 H 0.52786 0.77667 0.83558 0.0
H772 H 0.5175 0.8159 0.75127 0.0
H773 H 0.5096 0.84663 0.75804 0.0
H774 H 0.49092 0.82929 0.73879 0.0
H775 H 0.46824 0.84704 0.7996 0.0
H776 H 0.44926 0.82508 0.78622 0.0
H777 H 0.46229 0.84898 0.76835 0.0
H778 H 0.4414 0.83879 0.70384 0.0
C779 C 0.44846 0.81253 0.73103 0.0
C780 C 0.27664 0.49029 0.80066 0.0
C781 C 0.27743 0.48786 0.82622 0.0
C782 C 0.25546 0.48676 0.83907 0.0
C783 C 0.23458 0.50022 0.80401 0.0
C784 C 0.25409 0.49538 0.78966 0.0
C785 C 0.24718 0.50001 0.7634 0.0
H786 H 0.15261 0.54327 0.69384 0.0
C787 C 0.217 0.51375 0.79035 0.0
C788 C 0.22094 0.50913 0.76595 0.0
H789 H 0.17846 0.47016 0.68779 0.0
H790 H 0.20633 0.47729 0.72164 0.0
H791 H 0.1444 0.53885 0.74703 0.0
H792 H 0.20694 0.57097 0.71297 0.0
H793 H 0.19713 0.58922 0.73705 0.0
H794 H 0.1776 0.58464 0.71148 0.0
H795 H 0.1424 0.56611 0.72966 0.0
H796 H 0.15091 0.56667 0.76067 0.0
C797 C 0.24893 0.47656 0.74889 0.0
C798 C 0.26357 0.51957 0.7525 0.0
C799 C 0.19212 0.59031 0.83262 0.0
C800 C 0.17737 0.60976 0.82592 0.0
C801 C 0.17184 0.61287 0.80131 0.0
C802 C 0.17888 0.59551 0.78425 0.0
C803 C 0.19058 0.57443 0.79212 0.0
C804 C 0.19752 0.57245 0.81589 0.0
C805 C 0.20942 0.54885 0.82156 0.0
C806 C 0.20745 0.53638 0.79725 0.0
C807 C 0.19726 0.55171 0.77998 0.0
C808 C 0.19532 0.53544 0.84172 0.0
C809 C 0.23587 0.55419 0.82864 0.0
C810 C 0.16492 0.52902 0.69897 0.0
C811 C 0.16349 0.50629 0.6879 0.0
C812 C 0.17958 0.48801 0.69556 0.0
C813 C 0.19592 0.49214 0.71469 0.0
C814 C 0.19667 0.5149 0.72566 0.0
C815 C 0.18092 0.53275 0.71811 0.0
C816 C 0.17964 0.55335 0.73574 0.0
C817 C 0.19545 0.54378 0.75582 0.0
C818 C 0.20724 0.52246 0.74886 0.0
C819 C 0.15301 0.55665 0.74373 0.0
C820 C 0.19075 0.57588 0.72377 0.0
H821 H 0.21733 0.49309 0.83815 0.0
H822 H 0.29304 0.49001 0.79006 0.0
H823 H 0.26275 0.53634 0.76343 0.0
H824 H 0.25776 0.52397 0.73387 0.0
H825 H 0.28261 0.51335 0.75183 0.0
H826 H 0.23525 0.46332 0.75514 0.0
H827 H 0.2671 0.46836 0.751 0.0
H828 H 0.24626 0.48013 0.72942 0.0
H829 H 0.19684 0.5872 0.85128 0.0
H830 H 0.16057 0.62775 0.79561 0.0
H831 H 0.1735 0.59831 0.76591 0.0
H832 H 0.18224 0.54715 0.85132 0.0
H833 H 0.20765 0.52839 0.85577 0.0
H834 H 0.18462 0.52023 0.83431 0.0
H835 H 0.24567 0.56295 0.81351 0.0
H836 H 0.2459 0.5378 0.8337 0.0
H837 H 0.23657 0.56641 0.84446 0.0
H838 H 0.25534 0.4833 0.85828 0.0
C839 C 0.23385 0.49296 0.82794 0.0
C840 C 0.45557 0.30379 0.79762 0.0
C841 C 0.45065 0.30456 0.82283 0.0
C842 C 0.44522 0.28273 0.83473 0.0
C843 C 0.45921 0.26062 0.80046 0.0
C844 C 0.45865 0.28094 0.78643 0.0
C845 C 0.46558 0.27418 0.7607 0.0
H846 H 0.50986 0.17597 0.69628 0.0
C847 C 0.47234 0.24176 0.7878 0.0
C848 C 0.47157 0.24715 0.76316 0.0
H849 H 0.43766 0.20248 0.68455 0.0
H850 H 0.44333 0.23233 0.71727 0.0
H851 H 0.53531 0.23362 0.71478 0.0
H852 H 0.50653 0.17225 0.75486 0.0
H853 H 0.53772 0.17886 0.75967 0.0
H854 H 0.52867 0.16769 0.73156 0.0
H855 H 0.54872 0.20426 0.71185 0.0
H856 H 0.55442 0.22271 0.7378 0.0
C857 C 0.48775 0.28877 0.75248 0.0
C858 C 0.44421 0.27831 0.74365 0.0
C859 C 0.54064 0.20817 0.83809 0.0
C860 C 0.56365 0.19934 0.83227 0.0
C861 C 0.57138 0.19984 0.80811 0.0
C862 C 0.5558 0.20799 0.78994 0.0
C863 C 0.53205 0.21444 0.79596 0.0
C864 C 0.52531 0.21585 0.8198 0.0
C865 C 0.50028 0.22558 0.82315 0.0
C866 C 0.49312 0.22998 0.79703 0.0
C867 C 0.5115 0.22242 0.7813 0.0
C868 C 0.50163 0.24879 0.8387 0.0
C869 C 0.48451 0.2058 0.83473 0.0
C870 C 0.49535 0.18834 0.70039 0.0
C871 C 0.47336 0.18671 0.68792 0.0
C872 C 0.45491 0.2035 0.6936 0.0
C873 C 0.45814 0.22076 0.71214 0.0
C874 C 0.48011 0.22148 0.72465 0.0
C875 C 0.4981 0.20514 0.71905 0.0
C876 C 0.5183 0.2057 0.73715 0.0
C877 C 0.50738 0.22227 0.75616 0.0
C878 C 0.48667 0.23383 0.7473 0.0
C879 C 0.5405 0.21709 0.72485 0.0
C880 C 0.52307 0.17982 0.74642 0.0
H881 H 0.44694 0.2443 0.83361 0.0
H882 H 0.45868 0.3202 0.78758 0.0
H883 H 0.42862 0.26686 0.74889 0.0
H884 H 0.44938 0.27396 0.72483 0.0
H885 H 0.43841 0.29747 0.74422 0.0
H886 H 0.5031 0.28599 0.76505 0.0
H887 H 0.48352 0.30832 0.75184 0.0
H888 H 0.49355 0.28308 0.73419 0.0
H889 H 0.53407 0.20786 0.85646 0.0
H890 H 0.58914 0.19327 0.80327 0.0
H891 H 0.56236 0.20829 0.77182 0.0
H892 H 0.5037 0.26511 0.8273 0.0
H893 H 0.51714 0.24855 0.85134 0.0
H894 H 0.48565 0.25079 0.85048 0.0
H895 H 0.48716 0.18826 0.82541 0.0
H896 H 0.4651 0.21003 0.83349 0.0
H897 H 0.48919 0.20339 0.85403 0.0
H898 H 0.43981 0.28273 0.85348 0.0
C899 C 0.44954 0.26066 0.82357 0.0
C900 C 0.76604 0.48726 0.70619 0.0
C901 C 0.7884 0.47932 0.69648 0.0
C902 C 0.8026 0.46319 0.70982 0.0
C903 C 0.77626 0.46791 0.74391 0.0
C904 C 0.76001 0.4806 0.73013 0.0
C905 C 0.73682 0.48485 0.74436 0.0
H906 H 0.68542 0.48439 0.85767 0.0
C907 C 0.76773 0.46707 0.76878 0.0
C908 C 0.74393 0.47586 0.76955 0.0
H909 H 0.64773 0.49943 0.79142 0.0
H910 H 0.68504 0.49251 0.76869 0.0
H911 H 0.71565 0.43898 0.83981 0.0
H912 H 0.72796 0.51443 0.84718 0.0
H913 H 0.75717 0.50251 0.84851 0.0
H914 H 0.73524 0.49413 0.87106 0.0
H915 H 0.7188 0.45481 0.86783 0.0
H916 H 0.74462 0.44245 0.85242 0.0
C917 C 0.71688 0.46913 0.7331 0.0
C918 C 0.73059 0.51187 0.74431 0.0
C919 C 0.83218 0.46696 0.83311 0.0
C920 C 0.83118 0.47111 0.85801 0.0
C921 C 0.80863 0.47036 0.86974 0.0
C922 C 0.78733 0.46744 0.85656 0.0
C923 C 0.78851 0.4656 0.83136 0.0
C924 C 0.81069 0.4644 0.82015 0.0
C925 C 0.80855 0.46178 0.79332 0.0
C926 C 0.78121 0.46378 0.79019 0.0
C927 C 0.76979 0.46631 0.81248 0.0
C928 C 0.8186 0.43665 0.78614 0.0
C929 C 0.8222 0.48298 0.78133 0.0
C930 C 0.68496 0.48623 0.83825 0.0
C931 C 0.66357 0.49262 0.82647 0.0
C932 C 0.66395 0.4944 0.80103 0.0
C933 C 0.68554 0.49027 0.78786 0.0
C934 C 0.70682 0.4839 0.80021 0.0
C935 C 0.70598 0.48202 0.82506 0.0
C936 C 0.72982 0.47589 0.83593 0.0
C937 C 0.74507 0.47272 0.8136 0.0
C938 C 0.73191 0.47765 0.79241 0.0
C939 C 0.72722 0.45185 0.84992 0.0
C940 C 0.73805 0.49766 0.85157 0.0
H941 H 0.80771 0.44476 0.74268 0.0
H942 H 0.75412 0.49861 0.69574 0.0
H943 H 0.7462 0.5226 0.75083 0.0
H944 H 0.71511 0.51593 0.75617 0.0
H945 H 0.72602 0.51806 0.72585 0.0
H946 H 0.72362 0.45055 0.72978 0.0
H947 H 0.71094 0.47676 0.71558 0.0
H948 H 0.70104 0.46723 0.74492 0.0
H949 H 0.84925 0.46711 0.82365 0.0
H950 H 0.80741 0.47276 0.88905 0.0
H951 H 0.77073 0.46756 0.86646 0.0
H952 H 0.82559 0.42628 0.80179 0.0
H953 H 0.83392 0.43825 0.77333 0.0
H954 H 0.8044 0.42516 0.77796 0.0
H955 H 0.81509 0.50052 0.78792 0.0
H956 H 0.82073 0.48301 0.76157 0.0
H957 H 0.84178 0.48218 0.78542 0.0
H958 H 0.81919 0.45602 0.70233 0.0
C959 C 0.79636 0.45711 0.73329 0.0
C960 C 0.47195 0.20522 0.31452 0.0
C961 C 0.48403 0.1896 0.33081 0.0
C962 C 0.5094 0.18953 0.33125 0.0
C963 C 0.51041 0.21525 0.2964 0.0
C964 C 0.48586 0.2186 0.29771 0.0
C965 C 0.47814 0.23835 0.2802 0.0
H966 H 0.51145 0.3043 0.18013 0.0
C967 C 0.52001 0.22842 0.27579 0.0
C968 C 0.50176 0.24338 0.26651 0.0
H969 H 0.44408 0.31145 0.21825 0.0
H970 H 0.45757 0.28147 0.24782 0.0
H971 H 0.54636 0.30305 0.2263 0.0
H972 H 0.51421 0.25561 0.17706 0.0
H973 H 0.5337 0.23511 0.19114 0.0
H974 H 0.54571 0.26075 0.175 0.0
H975 H 0.55455 0.29765 0.19547 0.0
H976 H 0.56824 0.28093 0.21974 0.0
C977 C 0.46997 0.26034 0.29506 0.0
C978 C 0.45825 0.22865 0.26351 0.0
C979 C 0.58419 0.18645 0.22785 0.0
C980 C 0.59041 0.19007 0.20351 0.0
C981 C 0.58938 0.21376 0.19433 0.0
C982 C 0.57798 0.23202 0.20742 0.0
C983 C 0.56651 0.2262 0.22916 0.0
C984 C 0.57128 0.20442 0.24004 0.0
C985 C 0.55753 0.20144 0.26326 0.0
C986 C 0.54136 0.22387 0.26251 0.0
C987 C 0.54634 0.23773 0.24208 0.0
C988 C 0.57586 0.20161 0.28434 0.0
C989 C 0.5427 0.1778 0.26214 0.0
C990 C 0.49954 0.29961 0.19489 0.0
C991 C 0.47669 0.31009 0.19671 0.0
C992 C 0.46186 0.30358 0.21642 0.0
C993 C 0.46972 0.28627 0.23356 0.0
C994 C 0.49276 0.2757 0.23113 0.0
C995 C 0.5071 0.28277 0.21197 0.0
C996 C 0.53069 0.26988 0.21105 0.0
C997 C 0.52911 0.25464 0.23362 0.0
C998 C 0.50672 0.25757 0.24545 0.0
C999 C 0.55117 0.28877 0.21307 0.0
C1000 C 0.53131 0.25459 0.18746 0.0
H1001 H 0.54183 0.20309 0.31589 0.0
H1002 H 0.4525 0.20685 0.31487 0.0
H1003 H 0.46435 0.21184 0.25448 0.0
H1004 H 0.4535 0.24169 0.24927 0.0
H1005 H 0.44162 0.22452 0.2739 0.0
H1006 H 0.48321 0.26428 0.30957 0.0
H1007 H 0.45219 0.25691 0.30364 0.0
H1008 H 0.4687 0.27684 0.28413 0.0
H1009 H 0.58663 0.169 0.23616 0.0
H1010 H 0.59489 0.21785 0.1761 0.0
H1011 H 0.57676 0.2494 0.1992 0.0
H1012 H 0.59476 0.19905 0.2781 0.0
H1013 H 0.5725 0.18662 0.29713 0.0
H1014 H 0.57535 0.21896 0.2943 0.0
H1015 H 0.53066 0.17778 0.24614 0.0
H1016 H 0.53139 0.1751 0.27825 0.0
H1017 H 0.5547 0.16183 0.26109 0.0
H1018 H 0.51904 0.17878 0.34438 0.0
C1019 C 0.52259 0.20276 0.31446 0.0
C1020 C 0.7624 0.49483 0.31385 0.0
C1021 C 0.78331 0.50669 0.32261 0.0
C1022 C 0.79357 0.52539 0.30894 0.0
C1023 C 0.76727 0.51571 0.276 0.0
C1024 C 0.75397 0.50057 0.29047 0.0
C1025 C 0.73243 0.49073 0.27659 0.0
H1026 H 0.68398 0.47191 0.16515 0.0
C1027 C 0.75934 0.51297 0.25113 0.0
C1028 C 0.73679 0.5014 0.25139 0.0
H1029 H 0.64234 0.50355 0.22278 0.0
H1030 H 0.6791 0.50609 0.24754 0.0
H1031 H 0.71894 0.51263 0.16795 0.0
H1032 H 0.7258 0.44082 0.19636 0.0
H1033 H 0.75478 0.44961 0.18701 0.0
H1034 H 0.73077 0.44732 0.16512 0.0
H1035 H 0.72249 0.48642 0.14931 0.0
H1036 H 0.74803 0.50226 0.16103 0.0
C1037 C 0.70889 0.49966 0.28817 0.0
C1038 C 0.73327 0.463 0.27601 0.0
C1039 C 0.82809 0.50888 0.19074 0.0
C1040 C 0.83043 0.49731 0.16842 0.0
C1041 C 0.81081 0.48414 0.15914 0.0
C1042 C 0.78892 0.48315 0.17163 0.0
C1043 C 0.78654 0.49569 0.19345 0.0
C1044 C 0.80615 0.50755 0.2031 0.0
C1045 C 0.80064 0.51876 0.22713 0.0
C1046 C 0.77437 0.51113 0.23046 0.0
C1047 C 0.76621 0.49836 0.21028 0.0
C1048 C 0.8029 0.54638 0.22453 0.0
C1049 C 0.81805 0.50804 0.24624 0.0
C1050 C 0.68227 0.4784 0.18345 0.0
C1051 C 0.66008 0.48719 0.19198 0.0
C1052 C 0.65897 0.49594 0.21593 0.0
C1053 C 0.67994 0.49691 0.23047 0.0
C1054 C 0.70198 0.48849 0.22122 0.0
C1055 C 0.70297 0.48035 0.19767 0.0
C1056 C 0.72837 0.47969 0.1881 0.0
C1057 C 0.74202 0.4904 0.20914 0.0
C1058 C 0.72697 0.49329 0.22916 0.0
C1059 C 0.72973 0.49592 0.16534 0.0
C1060 C 0.73541 0.45305 0.1837 0.0
H1061 H 0.7939 0.54423 0.27557 0.0
H1062 H 0.7536 0.48102 0.32445 0.0
H1063 H 0.75066 0.45661 0.26832 0.0
H1064 H 0.71839 0.45578 0.26474 0.0
H1065 H 0.73131 0.45545 0.29443 0.0
H1066 H 0.70636 0.51927 0.28502 0.0
H1067 H 0.70913 0.49645 0.30792 0.0
H1068 H 0.69316 0.48969 0.28098 0.0
H1069 H 0.84284 0.51927 0.19817 0.0
H1070 H 0.81236 0.47479 0.1421 0.0
H1071 H 0.77455 0.47308 0.16357 0.0
H1072 H 0.79443 0.55265 0.20749 0.0
H1073 H 0.82215 0.55193 0.22431 0.0
H1074 H 0.79356 0.55612 0.23914 0.0
H1075 H 0.83526 0.50167 0.23821 0.0
H1076 H 0.80986 0.49233 0.25556 0.0
H1077 H 0.82361 0.5216 0.25973 0.0
H1078 H 0.80895 0.53534 0.3157 0.0
C1079 C 0.78539 0.53014 0.2857 0.0
C1080 C 0.47737 0.69237 0.20992 0.0
C1081 C 0.48862 0.67983 0.19064 0.0
C1082 C 0.51134 0.68758 0.18256 0.0
C1083 C 0.51021 0.72137 0.20991 0.0
C1084 C 0.48895 0.71296 0.21975 0.0
C1085 C 0.48167 0.7282 0.24142 0.0
H1086 H 0.50433 0.83214 0.30581 0.0
C1087 C 0.5172 0.74376 0.22212 0.0
C1088 C 0.50121 0.7478 0.24147 0.0
H1089 H 0.44871 0.78049 0.32231 0.0
H1090 H 0.46231 0.75509 0.2887 0.0
H1091 H 0.54678 0.79417 0.29544 0.0
H1092 H 0.49615 0.83574 0.25615 0.0
H1093 H 0.51757 0.82978 0.23379 0.0
H1094 H 0.52616 0.8465 0.26032 0.0
H1095 H 0.54815 0.8261 0.29053 0.0
H1096 H 0.56255 0.80516 0.27022 0.0
C1097 C 0.483 0.71231 0.26413 0.0
C1098 C 0.45636 0.73877 0.23708 0.0
C1099 C 0.56899 0.80319 0.17647 0.0
C1100 C 0.57355 0.82775 0.18093 0.0
C1101 C 0.57167 0.83628 0.20477 0.0
C1102 C 0.56225 0.82163 0.22291 0.0
C1103 C 0.55385 0.79851 0.21707 0.0
C1104 C 0.55864 0.78904 0.19465 0.0
C1105 C 0.5487 0.76394 0.19193 0.0
C1106 C 0.53451 0.76139 0.21543 0.0
C1107 C 0.53755 0.78179 0.22981 0.0
C1108 C 0.57028 0.74616 0.19039 0.0
C1109 C 0.53207 0.76344 0.16952 0.0
C1110 C 0.49501 0.81532 0.30238 0.0
C1111 C 0.47533 0.80852 0.31652 0.0
C1112 C 0.46396 0.78623 0.31155 0.0
C1113 C 0.47186 0.77155 0.29209 0.0
C1114 C 0.4915 0.77913 0.27773 0.0
C1115 C 0.50264 0.8007 0.28343 0.0
C1116 C 0.52258 0.80713 0.26664 0.0
C1117 C 0.52249 0.78558 0.25006 0.0
C1118 C 0.50421 0.76893 0.25614 0.0
C1119 C 0.54632 0.80842 0.28135 0.0
C1120 C 0.51549 0.83099 0.25358 0.0
H1121 H 0.53942 0.71299 0.1852 0.0
H1122 H 0.46027 0.68625 0.21709 0.0
H1123 H 0.45568 0.74808 0.21936 0.0
H1124 H 0.45133 0.75213 0.25089 0.0
H1125 H 0.44252 0.7243 0.23708 0.0
H1126 H 0.50032 0.7022 0.26459 0.0
H1127 H 0.46802 0.69902 0.26437 0.0
H1128 H 0.48227 0.72296 0.28086 0.0
H1129 H 0.57148 0.79575 0.15864 0.0
H1130 H 0.57535 0.85491 0.20914 0.0
H1131 H 0.56029 0.82955 0.24036 0.0
H1132 H 0.58795 0.75509 0.19361 0.0
H1133 H 0.57146 0.73761 0.17235 0.0
H1134 H 0.569 0.73181 0.20427 0.0
H1135 H 0.5186 0.77827 0.17045 0.0
H1136 H 0.52186 0.74656 0.16765 0.0
H1137 H 0.54269 0.76566 0.15271 0.0
H1138 H 0.52052 0.67804 0.1682 0.0
C1139 C 0.52221 0.70801 0.19222 0.0
C1140 C 0.28238 0.48192 0.22067 0.0
C1141 C 0.28647 0.4872 0.19589 0.0
C1142 C 0.26657 0.49174 0.18091 0.0
C1143 C 0.23977 0.47873 0.21228 0.0
C1144 C 0.25822 0.47881 0.22877 0.0
C1145 C 0.24817 0.47319 0.25383 0.0
H1146 H 0.14484 0.43692 0.3137 0.0
C1147 C 0.21834 0.4683 0.2233 0.0
C1148 C 0.22121 0.46871 0.24837 0.0
H1149 H 0.18723 0.49835 0.33611 0.0
H1150 H 0.21178 0.49428 0.29967 0.0
H1151 H 0.13822 0.45485 0.26535 0.0
H1152 H 0.19114 0.40289 0.28867 0.0
H1153 H 0.17923 0.39312 0.26098 0.0
H1154 H 0.15958 0.39595 0.2868 0.0
H1155 H 0.1302 0.42467 0.27383 0.0
H1156 H 0.13934 0.43194 0.24372 0.0
C1157 C 0.25243 0.49479 0.27059 0.0
C1158 C 0.26016 0.45032 0.26394 0.0
C1159 C 0.17315 0.41165 0.16861 0.0
C1160 C 0.15313 0.3966 0.17228 0.0
C1161 C 0.147 0.39 0.19604 0.0
C1162 C 0.15887 0.40062 0.21572 0.0
C1163 C 0.17633 0.41855 0.21143 0.0
C1164 C 0.18382 0.42304 0.18818 0.0
C1165 C 0.20021 0.44446 0.18627 0.0
C1166 C 0.20263 0.45124 0.21265 0.0
C1167 C 0.18832 0.43635 0.22716 0.0
C1168 C 0.18694 0.46444 0.17188 0.0
C1169 C 0.22426 0.43629 0.17449 0.0
C1170 C 0.16035 0.44861 0.3122 0.0
C1171 C 0.16406 0.46753 0.3287 0.0
C1172 C 0.18373 0.48335 0.32421 0.0
C1173 C 0.19862 0.48061 0.30362 0.0
C1174 C 0.19458 0.46137 0.28776 0.0
C1175 C 0.17524 0.44613 0.29195 0.0
C1176 C 0.1695 0.43074 0.27043 0.0
C1177 C 0.18738 0.44048 0.25227 0.0
C1178 C 0.20335 0.45704 0.26286 0.0
C1179 C 0.14295 0.43554 0.26286 0.0
C1180 C 0.17494 0.4042 0.27694 0.0
H1181 H 0.2286 0.49059 0.17679 0.0
H1182 H 0.29736 0.4793 0.23286 0.0
H1183 H 0.2578 0.43495 0.25134 0.0
H1184 H 0.25193 0.44533 0.2815 0.0
H1185 H 0.27978 0.45324 0.26676 0.0
H1186 H 0.24024 0.50998 0.26591 0.0
H1187 H 0.27136 0.50121 0.2691 0.0
H1188 H 0.24968 0.48963 0.28967 0.0
H1189 H 0.17804 0.4177 0.15071 0.0
H1190 H 0.13156 0.37852 0.19935 0.0
H1191 H 0.15254 0.39604 0.2334 0.0
H1192 H 0.16702 0.46309 0.17399 0.0
H1193 H 0.19107 0.4632 0.15234 0.0
H1194 H 0.19136 0.48273 0.17839 0.0
H1195 H 0.2372 0.4296 0.18822 0.0
H1196 H 0.23286 0.45081 0.16393 0.0
H1197 H 0.22145 0.42151 0.16131 0.0
H1198 H 0.26922 0.49677 0.16224 0.0
C1199 C 0.2432 0.48773 0.18909 0.0
C1200 C 0.77288 0.69898 0.50631 0.0
C1201 C 0.79701 0.69058 0.50882 0.0
C1202 C 0.81492 0.70683 0.51607 0.0
C1203 C 0.7863 0.73965 0.51572 0.0
C1204 C 0.76789 0.72388 0.51009 0.0
C1205 C 0.74381 0.73728 0.5087 0.0
H1206 H 0.68849 0.8492 0.51155 0.0
C1207 C 0.77662 0.76433 0.51661 0.0
C1208 C 0.75148 0.76357 0.51287 0.0
H1209 H 0.65117 0.78129 0.50558 0.0
H1210 H 0.69005 0.75999 0.50617 0.0
H1211 H 0.7226 0.83408 0.55223 0.0
H1212 H 0.72982 0.83711 0.47544 0.0
H1213 H 0.75787 0.84625 0.48665 0.0
H1214 H 0.73125 0.86348 0.494 0.0
H1215 H 0.72665 0.86182 0.53618 0.0
H1216 H 0.75197 0.84451 0.54698 0.0
C1217 C 0.72738 0.72803 0.52907 0.0
C1218 C 0.73274 0.73367 0.48356 0.0
C1219 C 0.83684 0.83296 0.522 0.0
C1220 C 0.83438 0.85812 0.5212 0.0
C1221 C 0.81104 0.86819 0.52063 0.0
C1222 C 0.79058 0.85345 0.52002 0.0
C1223 C 0.79337 0.82827 0.52006 0.0
C1224 C 0.81619 0.81851 0.52142 0.0
C1225 C 0.8158 0.79151 0.52128 0.0
C1226 C 0.7889 0.78662 0.51889 0.0
C1227 C 0.77597 0.80814 0.51822 0.0
C1228 C 0.8259 0.78269 0.54586 0.0
C1229 C 0.83021 0.78301 0.49883 0.0
C1230 C 0.68831 0.8297 0.51074 0.0
C1231 C 0.66651 0.81709 0.50914 0.0
C1232 C 0.66765 0.79163 0.50708 0.0
C1233 C 0.69018 0.77928 0.50763 0.0
C1234 C 0.7118 0.79248 0.51021 0.0
C1235 C 0.71022 0.81735 0.51152 0.0
C1236 C 0.7341 0.82931 0.51434 0.0
C1237 C 0.75064 0.80779 0.51522 0.0
C1238 C 0.73801 0.78582 0.51258 0.0
C1239 C 0.73396 0.84335 0.53854 0.0
C1240 C 0.7386 0.84502 0.49162 0.0
H1241 H 0.82461 0.74219 0.52455 0.0
H1242 H 0.75863 0.68673 0.50113 0.0
H1243 H 0.74602 0.73851 0.46935 0.0
H1244 H 0.71667 0.7451 0.48082 0.0
H1245 H 0.72736 0.71458 0.48087 0.0
H1246 H 0.7371 0.72841 0.54657 0.0
H1247 H 0.72168 0.70918 0.52554 0.0
H1248 H 0.7111 0.73921 0.5313 0.0
H1249 H 0.85448 0.82457 0.52225 0.0
H1250 H 0.80857 0.88754 0.52051 0.0
H1251 H 0.77342 0.86232 0.5193 0.0
H1252 H 0.82434 0.79674 0.56007 0.0
H1253 H 0.84526 0.77776 0.54445 0.0
H1254 H 0.81566 0.76717 0.55315 0.0
H1255 H 0.8271 0.79528 0.4833 0.0
H1256 H 0.82477 0.76511 0.49218 0.0
H1257 H 0.8499 0.7828 0.50251 0.0
H1258 H 0.83336 0.7008 0.51849 0.0
C1259 C 0.80974 0.73104 0.51958 0.0
C1260 C 0.75692 0.30489 0.49928 0.0
C1261 C 0.77659 0.31584 0.48704 0.0
C1262 C 0.78416 0.30629 0.46482 0.0
C1263 C 0.75867 0.27192 0.47102 0.0
C1264 C 0.74739 0.28308 0.49005 0.0
C1265 C 0.72678 0.26743 0.49926 0.0
H1266 H 0.68048 0.15437 0.50631 0.0
C1267 C 0.75094 0.24686 0.46989 0.0
C1268 C 0.72962 0.24477 0.48351 0.0
H1269 H 0.63479 0.21579 0.49241 0.0
H1270 H 0.67101 0.24109 0.48692 0.0
H1271 H 0.70689 0.16278 0.46203 0.0
H1272 H 0.72684 0.1812 0.53435 0.0
H1273 H 0.75369 0.17269 0.52 0.0
H1274 H 0.72942 0.15117 0.52277 0.0
H1275 H 0.71785 0.14091 0.48315 0.0
H1276 H 0.73798 0.15758 0.46386 0.0
C1277 C 0.70264 0.28044 0.49527 0.0
C1278 C 0.73051 0.2615 0.52609 0.0
C1279 C 0.82218 0.1898 0.46727 0.0
C1280 C 0.82529 0.1668 0.47727 0.0
C1281 C 0.80486 0.15342 0.48416 0.0
C1282 C 0.78185 0.16353 0.48294 0.0
C1283 C 0.7792 0.18737 0.47494 0.0
C1284 C 0.79907 0.20002 0.46686 0.0
C1285 C 0.79274 0.22531 0.4594 0.0
C1286 C 0.76606 0.22637 0.46661 0.0
C1287 C 0.75843 0.20388 0.47522 0.0
C1288 C 0.79596 0.22691 0.43184 0.0
C1289 C 0.8089 0.24351 0.47326 0.0
C1290 C 0.67793 0.17347 0.50322 0.0
C1291 C 0.6547 0.18303 0.50019 0.0
C1292 C 0.65242 0.20805 0.49561 0.0
C1293 C 0.67317 0.2228 0.49301 0.0
C1294 C 0.6962 0.21254 0.49569 0.0
C1295 C 0.69814 0.18803 0.4997 0.0
C1296 C 0.72307 0.17871 0.49476 0.0
C1297 C 0.73519 0.20124 0.48538 0.0
C1298 C 0.72022 0.22136 0.48804 0.0
C1299 C 0.72157 0.15883 0.47508 0.0
C1300 C 0.73393 0.1703 0.51908 0.0
H1301 H 0.78161 0.2772 0.43993 0.0
H1302 H 0.75002 0.3125 0.51585 0.0
H1303 H 0.74834 0.2528 0.52898 0.0
H1304 H 0.71628 0.24898 0.53256 0.0
H1305 H 0.72965 0.27812 0.5372 0.0
H1306 H 0.69784 0.28079 0.47584 0.0
H1307 H 0.70367 0.29933 0.50182 0.0
H1308 H 0.68797 0.27166 0.50558 0.0
H1309 H 0.83761 0.20021 0.46142 0.0
H1310 H 0.80678 0.13535 0.49128 0.0
H1311 H 0.76715 0.15259 0.48905 0.0
H1312 H 0.78754 0.21116 0.42277 0.0
H1313 H 0.81542 0.2272 0.42701 0.0
H1314 H 0.78728 0.24301 0.42412 0.0
H1315 H 0.80034 0.24922 0.49043 0.0
H1316 H 0.81319 0.25953 0.46223 0.0
H1317 H 0.82678 0.23601 0.47807 0.0
H1318 H 0.79843 0.31495 0.45466 0.0
C1319 C 0.77496 0.28444 0.45657 0.0
C1320 C 0.28158 0.78081 0.50061 0.0
C1321 C 0.28557 0.80522 0.50738 0.0
C1322 C 0.26587 0.81918 0.51517 0.0
C1323 C 0.23875 0.78832 0.50188 0.0
C1324 C 0.25746 0.77233 0.49913 0.0
C1325 C 0.24751 0.74776 0.49181 0.0
H1326 H 0.14456 0.68901 0.45431 0.0
C1327 C 0.21702 0.77806 0.49133 0.0
C1328 C 0.22029 0.7531 0.48958 0.0
H1329 H 0.18338 0.66739 0.51812 0.0
H1330 H 0.20996 0.70266 0.51375 0.0
H1331 H 0.13803 0.73946 0.47306 0.0
H1332 H 0.19215 0.71563 0.42212 0.0
H1333 H 0.18031 0.7435 0.41264 0.0
H1334 H 0.16079 0.71751 0.41427 0.0
H1335 H 0.13041 0.72881 0.44346 0.0
H1336 H 0.13901 0.7594 0.44848 0.0
C1337 C 0.25314 0.72909 0.5114 0.0
C1338 C 0.25825 0.73999 0.46744 0.0
C1339 C 0.17457 0.83628 0.43591 0.0
C1340 C 0.15744 0.83359 0.41757 0.0
C1341 C 0.15112 0.81024 0.40992 0.0
C1342 C 0.16112 0.7899 0.42127 0.0
C1343 C 0.17665 0.79313 0.44107 0.0
C1344 C 0.18369 0.81606 0.44751 0.0
C1345 C 0.19907 0.81662 0.46968 0.0
C1346 C 0.20152 0.78981 0.47473 0.0
C1347 C 0.18787 0.77627 0.45832 0.0
C1348 C 0.18468 0.82943 0.48987 0.0
C1349 C 0.22329 0.82933 0.46361 0.0
C1350 C 0.15934 0.6911 0.46686 0.0
C1351 C 0.16193 0.67513 0.48635 0.0
C1352 C 0.18131 0.67893 0.50255 0.0
C1353 C 0.19696 0.69889 0.49985 0.0
C1354 C 0.19367 0.71474 0.48044 0.0
C1355 C 0.17462 0.71109 0.46474 0.0
C1356 C 0.16952 0.73309 0.44966 0.0
C1357 C 0.18717 0.75089 0.46051 0.0
C1358 C 0.20281 0.73945 0.47672 0.0
C1359 C 0.14287 0.74068 0.45366 0.0
C1360 C 0.17582 0.72724 0.4232 0.0
H1361 H 0.22771 0.82226 0.51766 0.0
H1362 H 0.29649 0.76937 0.4954 0.0
H1363 H 0.25475 0.75388 0.45344 0.0
H1364 H 0.25005 0.72277 0.46137 0.0
H1365 H 0.27806 0.7373 0.46888 0.0
H1366 H 0.24288 0.73305 0.52815 0.0
H1367 H 0.2727 0.72922 0.51577 0.0
H1368 H 0.24867 0.71067 0.50511 0.0
H1369 H 0.17905 0.85395 0.44289 0.0
H1370 H 0.13755 0.80779 0.39612 0.0
H1371 H 0.15532 0.77251 0.41518 0.0
H1372 H 0.16527 0.82433 0.48927 0.0
H1373 H 0.18588 0.84932 0.48797 0.0
H1374 H 0.1909 0.82431 0.50802 0.0
H1375 H 0.22131 0.84277 0.44893 0.0
H1376 H 0.23718 0.81619 0.45762 0.0
H1377 H 0.23027 0.83981 0.47902 0.0
H1378 H 0.26857 0.8375 0.52136 0.0
C1379 C 0.24238 0.8107 0.51262 0.0
C1380 C 0.27501 0.20156 0.52849 0.0
C1381 C 0.29197 0.18678 0.54089 0.0
C1382 C 0.2934 0.18853 0.56618 0.0
C1383 C 0.25836 0.21397 0.56676 0.0
C1384 C 0.25873 0.2159 0.54214 0.0
C1385 C 0.24105 0.23551 0.53418 0.0
H1386 H 0.14291 0.30437 0.5689 0.0
C1387 C 0.23814 0.22755 0.57639 0.0
C1388 C 0.22835 0.24192 0.55806 0.0
H1389 H 0.17828 0.30773 0.4998 0.0
H1390 H 0.20806 0.27808 0.51346 0.0
H1391 H 0.1376 0.25824 0.57544 0.0
H1392 H 0.19058 0.30324 0.60236 0.0
H1393 H 0.1838 0.28202 0.62511 0.0
H1394 H 0.1597 0.29894 0.61137 0.0
H1395 H 0.14002 0.25987 0.60703 0.0
H1396 H 0.15381 0.23541 0.59041 0.0
C1397 C 0.22341 0.22507 0.51554 0.0
C1398 C 0.25584 0.25685 0.52433 0.0
C1399 C 0.18663 0.18419 0.63561 0.0
C1400 C 0.1626 0.18949 0.64207 0.0
C1401 C 0.15618 0.21395 0.64488 0.0
C1402 C 0.17113 0.23207 0.63567 0.0
C1403 C 0.19197 0.2254 0.62306 0.0
C1404 C 0.20086 0.20237 0.62541 0.0
C1405 C 0.2239 0.1989 0.61146 0.0
C1406 C 0.22502 0.22284 0.59768 0.0
C1407 C 0.20528 0.23746 0.6035 0.0
C1408 C 0.2214 0.17702 0.59432 0.0
C1409 C 0.24469 0.1954 0.62967 0.0
C1410 C 0.15706 0.29887 0.55659 0.0
C1411 C 0.15803 0.3083 0.53323 0.0
C1412 C 0.17708 0.30078 0.51798 0.0
C1413 C 0.19435 0.28364 0.52591 0.0
C1414 C 0.19275 0.27414 0.54941 0.0
C1415 C 0.17421 0.282 0.56418 0.0
C1416 C 0.1741 0.26998 0.58828 0.0
C1417 C 0.19657 0.2544 0.58636 0.0
C1418 C 0.20754 0.25645 0.56341 0.0
C1419 C 0.15032 0.2551 0.59057 0.0
C1420 C 0.17706 0.28952 0.60794 0.0
H1421 H 0.27926 0.20476 0.59814 0.0
H1422 H 0.27461 0.20197 0.50902 0.0
H1423 H 0.27081 0.26141 0.53684 0.0
H1424 H 0.24498 0.27334 0.52239 0.0
H1425 H 0.26387 0.25229 0.50655 0.0
H1426 H 0.21432 0.2088 0.5229 0.0
H1427 H 0.23312 0.21984 0.49883 0.0
H1428 H 0.20922 0.23814 0.51063 0.0
H1429 H 0.19284 0.16578 0.63467 0.0
H1430 H 0.1384 0.21894 0.65112 0.0
H1431 H 0.16507 0.25035 0.63677 0.0
H1432 H 0.2376 0.17446 0.583 0.0
H1433 H 0.20559 0.1793 0.58222 0.0
H1434 H 0.21921 0.15999 0.60454 0.0
H1435 H 0.2586 0.18283 0.62273 0.0
H1436 H 0.23824 0.18698 0.64667 0.0
H1437 H 0.25323 0.21287 0.63442 0.0
H1438 H 0.30698 0.17859 0.57607 0.0
C1439 C 0.27697 0.20254 0.57907 0.0
C1440 C 0.03786 0.96893 0.57207 0.0
C1441 C 0.03564 0.96579 0.45386 0.0
C1442 C 0.04157 0.08542 0.56826 0.0
C1443 C 0.03773 0.08268 0.45005 0.0
C1444 C 0.9792 0.08507 0.51154 0.0
C1445 C 0.97621 0.96923 0.51225 0.0
C1446 C 0.0933 0.08219 0.52316 0.0
C1447 C 0.09108 0.96628 0.50019 0.0
C1448 C 0.09458 0.02613 0.45163 0.0
C1449 C 0.97681 0.02681 0.45367 0.0
C1450 C 0.0964 0.02352 0.56882 0.0
C1451 C 0.97886 0.02654 0.57119 0.0
Eu1452 Eu 0.035 0.97994 0.51276 0.0
O1453 O 0.0143 1.00436 0.49077 0.0
O1454 O 0.05823 1.00375 0.53305 0.0
Eu1455 Eu 0.99107 0.02683 0.51219 0.0
Eu1456 Eu 0.08228 0.02466 0.51037 0.0
O1457 O 0.01463 1.00513 0.53397 0.0
O1458 O 0.05597 1.00409 0.491 0.0
Eu1459 Eu 0.03729 0.02667 0.55678 0.0
Eu1460 Eu 0.03576 0.02479 0.46548 0.0
O1461 O 0.01594 0.04851 0.53259 0.0
O1462 O 0.015 0.04727 0.4894 0.0
O1463 O 0.05857 0.04682 0.48842 0.0
O1464 O 0.05725 0.04616 0.53027 0.0
Eu1465 Eu 0.03716 0.07178 0.50958 0.0
O1466 O 0.0368 0.96068 0.54937 0.0
O1467 O 0.03492 0.95905 0.47707 0.0
O1468 O 0.03896 0.09274 0.54535 0.0
O1469 O 0.03872 0.09083 0.4728 0.0
O1470 O 0.97182 0.06239 0.51402 0.0
O1471 O 0.96987 0.99234 0.51107 0.0
O1472 O 0.10074 0.05928 0.52244 0.0
O1473 O 0.09948 0.98886 0.49998 0.0
O1474 O 0.0715 0.02343 0.44511 0.0
O1475 O 0.99957 0.02485 0.44585 0.0
O1476 O 0.07361 0.02693 0.57606 0.0
O1477 O 1.00194 0.02809 0.57807 0.0
O1478 O 0.07294 0.09041 0.51347 0.0
O1479 O 1.00191 0.09245 0.50867 0.0
O1480 O 0.06957 0.95942 0.50837 0.0
O1481 O 0.99875 0.96085 0.5137 0.0
O1482 O 0.03583 0.9886 0.44608 0.0
O1483 O 0.03619 0.05948 0.44386 0.0
O1484 O 0.03795 0.99212 0.57829 0.0
O1485 O 0.0414 0.06254 0.57565 0.0
O1486 O 0.97135 0.02539 0.54831 0.0
O1487 O 0.97018 0.02824 0.47683 0.0
O1488 O 0.10322 0.02029 0.54581 0.0
O1489 O 0.10222 0.02883 0.47441 0.0
C1490 C 0.54231 0.96206 0.0667 0.0
C1491 C 0.54374 0.07823 0.07264 0.0
C1492 C 0.53902 0.96798 0.95075 0.0
C1493 C 0.5461 0.08352 0.95641 0.0
C1494 C 0.59686 0.02518 0.95373 0.0
C1495 C 0.59662 0.02124 0.0701 0.0
C1496 C 0.47841 0.02601 0.95301 0.0
C1497 C 0.47834 0.02138 0.07028 0.0
C1498 C 0.47821 0.08211 0.01381 0.0
C1499 C 0.59668 0.08172 0.01372 0.0
C1500 C 0.47868 0.9646 0.01074 0.0
C1501 C 0.59694 0.96532 0.00881 0.0
Eu1502 Eu 0.53751 0.02097 0.05744 0.0
O1503 O 0.55853 0.04368 0.03396 0.0
O1504 O 0.51611 1.00078 0.03207 0.0
Eu1505 Eu 0.58313 0.02349 0.01191 0.0
Eu1506 Eu 0.49185 0.02337 0.01164 0.0
O1507 O 0.55898 1.00092 0.03209 0.0
O1508 O 0.51612 0.04388 0.03419 0.0
Eu1509 Eu 0.53778 0.97765 0.0095 0.0
Eu1510 Eu 0.5375 0.06937 0.01379 0.0
O1511 O 0.55905 1.00306 0.98938 0.0
O1512 O 0.55848 0.0454 0.99173 0.0
O1513 O 0.51594 0.04616 0.99098 0.0
O1514 O 0.51617 1.0028 0.98926 0.0
Eu1515 Eu 0.53757 0.02538 0.96604 0.0
O1516 O 0.54102 0.98442 0.0755 0.0
O1517 O 0.54085 0.05523 0.07891 0.0
O1518 O 0.53782 0.9911 0.94445 0.0
O1519 O 0.54346 0.06118 0.94805 0.0
O1520 O 0.60375 0.02603 0.97672 0.0
O1521 O 0.6035 0.02236 0.04712 0.0
O1522 O 0.47145 0.02438 0.97604 0.0
O1523 O 0.47141 0.02268 0.04725 0.0
O1524 O 0.50122 0.08975 0.01436 0.0
O1525 O 0.57376 0.08943 0.013 0.0
O1526 O 0.50178 0.95741 0.01056 0.0
O1527 O 0.57401 0.95772 1.00762 0.0
O1528 O 0.50147 0.02716 0.94564 0.0
O1529 O 0.57393 0.02392 0.9461 0.0
O1530 O 0.50135 0.02025 0.07772 0.0
O1531 O 0.57364 0.02041 0.07767 0.0
O1532 O 0.54256 0.08706 0.05029 0.0
O1533 O 0.54303 0.09047 0.97923 0.0
O1534 O 0.54073 0.95595 0.04357 0.0
O1535 O 0.539 0.95938 0.97317 0.0
O1536 O 0.6038 0.98828 0.01074 0.0
O1537 O 0.60364 0.05873 0.01416 0.0
O1538 O 0.47133 0.98759 0.01062 0.0
O1539 O 0.47148 0.05898 0.01281 0.0
C1540 C 0.03707 0.4633 0.06396 0.0
C1541 C 0.03734 0.46781 0.94689 0.0
C1542 C 0.03513 0.58161 0.06918 0.0
C1543 C 0.03317 0.58591 0.95275 0.0
C1544 C 0.97483 0.58175 0.01142 0.0
C1545 C 0.97776 0.46424 1.00611 0.0
C1546 C 0.09234 0.58455 0.01243 0.0
C1547 C 0.09535 0.46726 1.00385 0.0
C1548 C 0.09014 0.53993 0.94976 0.0
C1549 C 0.97528 0.52361 0.95094 0.0
C1550 C 0.09182 0.51072 0.06413 0.0
C1551 C 0.97667 0.52111 0.06658 0.0
Eu1552 Eu 0.03612 0.47887 1.0059 0.0
O1553 O 0.01357 0.50324 0.98588 0.0
O1554 O 0.05591 0.504 0.02743 0.0
Eu1555 Eu 0.98945 0.52339 1.00858 0.0
Eu1556 Eu 0.08083 0.52565 1.00727 0.0
O1557 O 0.01441 0.50175 0.02882 0.0
O1558 O 0.05713 0.50424 0.98467 0.0
Eu1559 Eu 0.03506 0.52299 0.05399 0.0
Eu1560 Eu 0.03388 0.52615 0.96221 0.0
O1561 O 0.01282 0.54475 0.03101 0.0
O1562 O 0.01266 0.5464 0.98777 0.0
O1563 O 0.05439 0.54624 0.98809 0.0
O1564 O 0.05665 0.54576 0.03073 0.0
Eu1565 Eu 0.03374 0.57001 0.01047 0.0
O1566 O 0.03729 0.45713 0.04068 0.0
O1567 O 0.03689 0.45984 0.9696 0.0
O1568 O 0.03378 0.58934 0.04646 0.0
O1569 O 0.03379 0.59169 0.97606 0.0
O1570 O 0.96821 0.55856 0.01098 0.0
O1571 O 0.96999 0.48709 1.00686 0.0
O1572 O 0.1005 0.56175 0.01275 0.0
O1573 O 0.10208 0.49042 1.00163 0.0
O1574 O 0.06832 0.53324 0.94233 0.0
O1575 O 0.99793 0.52354 0.94274 0.0
O1576 O 0.07071 0.51844 0.07263 0.0
O1577 O 0.99946 0.52134 0.0744 0.0
O1578 O 0.06909 0.59087 0.01099 0.0
O1579 O 0.9976 0.58969 0.01095 0.0
O1580 O 0.07254 0.45981 1.00644 0.0
O1581 O 1.00093 0.4575 1.00588 0.0
O1582 O 0.03683 0.49111 0.94046 0.0
O1583 O 0.03259 0.56339 0.94392 0.0
O1584 O 0.03601 0.48596 0.07231 0.0
O1585 O 0.03603 0.55833 0.07573 0.0
O1586 O 0.96971 0.52144 0.04367 0.0
O1587 O 0.96862 0.52453 0.97396 0.0
O1588 O 0.0995 0.51305 0.04142 0.0
O1589 O 0.09856 0.53786 0.97223 0.0
C1590 C 0.46896 0.43485 0.06533 0.0
C1591 C 0.46885 0.55223 0.06601 0.0
C1592 C 0.4684 0.43627 0.94751 0.0
C1593 C 0.46683 0.55311 0.94786 0.0
C1594 C 0.52776 0.49636 0.94731 0.0
C1595 C 0.52926 0.4941 0.06498 0.0
C1596 C 0.41036 0.49413 0.94951 0.0
C1597 C 0.41254 0.49089 0.06685 0.0
C1598 C 0.412 0.55068 0.01943 0.0
C1599 C 0.52731 0.55375 1.00795 0.0
C1600 C 0.41478 0.43616 0.99294 0.0
C1601 C 0.53044 0.43823 1.00271 0.0
Eu1602 Eu 0.47065 0.49353 0.05239 0.0
O1603 O 0.49094 0.51607 0.02806 0.0
O1604 O 0.44893 0.47126 0.02872 0.0
Eu1605 Eu 0.51543 0.49558 1.00628 0.0
Eu1606 Eu 0.42417 0.49322 1.00792 0.0
O1607 O 0.49269 0.47276 0.02801 0.0
O1608 O 0.44936 0.51439 0.0279 0.0
Eu1609 Eu 0.47153 0.44826 1.0066 0.0
Eu1610 Eu 0.46908 0.54017 1.00688 0.0
O1611 O 0.49159 0.47361 0.98501 0.0
O1612 O 0.49079 0.51671 0.98496 0.0
O1613 O 0.4471 0.51592 0.98567 0.0
O1614 O 0.4501 0.47365 0.98707 0.0
Eu1615 Eu 0.46928 0.49479 0.96128 0.0
O1616 O 0.46954 0.45784 0.07245 0.0
O1617 O 0.47001 0.52914 0.07293 0.0
O1618 O 0.46741 0.45934 0.94064 0.0
O1619 O 0.46769 0.53011 0.9409 0.0
O1620 O 0.53525 0.49723 0.97022 0.0
O1621 O 0.53624 0.49515 0.04189 0.0
O1622 O 0.40328 0.49684 0.97247 0.0
O1623 O 0.40479 0.48758 0.04418 0.0
O1624 O 0.43355 0.55883 0.01258 0.0
O1625 O 0.50433 0.56098 1.00807 0.0
O1626 O 0.43692 0.42846 0.99841 0.0
O1627 O 0.50799 0.4295 1.0036 0.0
O1628 O 0.43322 0.49228 0.94212 0.0
O1629 O 0.50471 0.49492 0.94037 0.0
O1630 O 0.43544 0.49467 0.07317 0.0
O1631 O 0.50635 0.49326 0.07244 0.0
O1632 O 0.46851 0.55985 0.04311 0.0
O1633 O 0.46698 0.56058 0.97086 0.0
O1634 O 0.46957 0.42752 0.04231 0.0
O1635 O 0.47093 0.42869 0.9703 0.0
O1636 O 0.53654 0.46136 1.00399 0.0
O1637 O 0.53492 0.53103 1.00707 0.0
O1638 O 0.40615 0.45825 0.99709 0.0
O1639 O 0.40469 0.52776 0.01829 0.0
C1640 C 0.98009 0.43831 0.56762 0.0
C1641 C 0.97842 0.43304 0.45258 0.0
C1642 C 0.97094 0.55356 0.56325 0.0
C1643 C 0.97868 0.54837 0.44776 0.0
C1644 C 0.91079 0.55176 0.50523 0.0
C1645 C 0.90986 0.43513 0.50896 0.0
C1646 C 0.02887 0.55126 0.50521 0.0
C1647 C 0.02799 0.4339 0.51006 0.0
C1648 C 0.02883 0.4897 0.44944 0.0
C1649 C 0.91055 0.49251 0.44933 0.0
C1650 C 0.02826 0.49444 0.56643 0.0
C1651 C 0.91021 0.49419 0.56588 0.0
Eu1652 Eu 0.96908 0.4472 0.50972 0.0
O1653 O 0.94789 0.47043 0.48676 0.0
O1654 O 0.99013 0.47297 0.52946 0.0
Eu1655 Eu 0.92416 0.49329 0.50763 0.0
Eu1656 Eu 0.01531 0.49278 0.50785 0.0
O1657 O 0.94762 0.4722 0.53055 0.0
O1658 O 0.99038 0.47103 0.48771 0.0
Eu1659 Eu 0.9693 0.49501 0.55342 0.0
Eu1660 Eu 0.96964 0.49104 0.46185 0.0
O1661 O 0.94829 0.51556 0.52817 0.0
O1662 O 0.94823 0.51388 0.48497 0.0
O1663 O 0.99083 0.51299 0.48572 0.0
O1664 O 0.99108 0.51532 0.52834 0.0
Eu1665 Eu 0.9698 0.53865 0.50568 0.0
O1666 O 0.97592 0.42936 0.54571 0.0
O1667 O 0.97606 0.4263 0.47551 0.0
O1668 O 0.97125 0.55998 0.54013 0.0
O1669 O 0.97481 0.55683 0.46988 0.0
O1670 O 0.90368 0.52887 0.50762 0.0
O1671 O 0.9034 0.45825 0.50768 0.0
O1672 O 0.03586 0.52825 0.50655 0.0
O1673 O 0.03524 0.45684 0.5086 0.0
O1674 O 1.00587 0.48839 0.44194 0.0
O1675 O 0.93347 0.49114 0.44159 0.0
O1676 O 1.00527 0.49649 0.57368 0.0
O1677 O 0.93316 0.49457 0.57353 0.0
O1678 O 1.00588 0.55872 0.50483 0.0
O1679 O 0.93381 0.559 0.50344 0.0
O1680 O 1.00492 0.42671 0.51094 0.0
O1681 O 0.93272 0.42716 0.51022 0.0
O1682 O 0.97383 0.45494 0.44385 0.0
O1683 O 0.97645 0.52542 0.44093 0.0
O1684 O 0.97619 0.461 0.57446 0.0
O1685 O 0.96946 0.53119 0.57181 0.0
O1686 O 0.90335 0.49364 0.54285 0.0
O1687 O 0.90375 0.4936 0.47237 0.0
O1688 O 0.03539 0.49258 0.54351 0.0
O1689 O 0.0358 0.49194 0.47234 0.0
C1690 C 0.47053 0.93369 0.56081 0.0
C1691 C 0.46727 0.93686 0.44408 0.0
C1692 C 0.46702 0.05197 0.56484 0.0
C1693 C 0.46495 0.05481 0.44785 0.0
C1694 C 0.40827 0.05138 0.50972 0.0
C1695 C 0.41188 0.93402 0.50222 0.0
C1696 C 0.52535 0.05488 0.5044 0.0
C1697 C 0.52902 0.93701 0.50307 0.0
C1698 C 0.5267 0.99909 0.44569 0.0
C1699 C 0.41119 1.00721 0.44827 0.0
C1700 C 0.52897 0.99488 0.56098 0.0
C1701 C 0.41307 0.98251 0.56348 0.0
Eu1702 Eu 0.47007 0.94886 0.50274 0.0
O1703 O 0.44701 0.97276 0.48214 0.0
O1704 O 0.49112 0.97293 0.52481 0.0
Eu1705 Eu 0.42282 0.99303 0.50533 0.0
Eu1706 Eu 0.51423 0.99558 0.50361 0.0
O1707 O 0.44932 0.97278 0.52497 0.0
O1708 O 0.49088 0.97384 0.48147 0.0
Eu1709 Eu 0.47014 0.99327 0.5504 0.0
Eu1710 Eu 0.46829 0.99547 0.45852 0.0
O1711 O 0.44676 0.01454 0.52754 0.0
O1712 O 0.44736 0.01474 0.48483 0.0
O1713 O 0.48893 0.01686 0.48345 0.0
O1714 O 0.49029 0.01604 0.5264 0.0
Eu1715 Eu 0.46732 0.03984 0.50615 0.0
O1716 O 0.46972 0.92739 0.5376 0.0
O1717 O 0.46876 0.9293 0.46686 0.0
O1718 O 0.46661 0.05938 0.54197 0.0
O1719 O 0.46498 0.06104 0.47113 0.0
O1720 O 0.40142 0.02819 0.5107 0.0
O1721 O 0.40367 0.95668 0.50017 0.0
O1722 O 0.53334 0.03212 0.5031 0.0
O1723 O 0.53558 0.96023 0.504 0.0
O1724 O 0.50382 0.99899 0.43809 0.0
O1725 O 0.43271 1.00057 0.43986 0.0
O1726 O 0.50647 0.99305 0.56942 0.0
O1727 O 0.43542 0.9878 0.57054 0.0
O1728 O 0.50218 0.06134 0.50595 0.0
O1729 O 0.43106 0.05887 0.50734 0.0
O1730 O 0.50623 0.92918 0.50197 0.0
O1731 O 0.43505 0.92781 0.50435 0.0
O1732 O 0.46686 0.96005 0.43724 0.0
O1733 O 0.46647 0.03216 0.43959 0.0
O1734 O 0.47154 0.95639 0.56906 0.0
O1735 O 0.46838 0.02883 0.5718 0.0
O1736 O 0.40476 0.98324 0.54089 0.0
O1737 O 0.40367 1.00474 0.47103 0.0
O1738 O 0.53532 0.99647 0.53794 0.0
O1739 O 0.53387 0.99718 0.46845 0.0
H1740 H 0.16346 0.13988 0.64896 0.0
H1741 H 0.0849 0.13026 0.52995 0.0
H1742 H 0.11857 0.19682 0.62072 0.0
H1743 H 0.12612 0.0707 0.55848 0.0
H1744 H 0.09457 0.15352 0.5656 0.0
H1745 H 0.14456 0.11187 0.62077 0.0
C1746 C 0.14917 0.14642 0.63741 0.0
C1747 C 0.14379 0.17117 0.63627 0.0
C1748 C 0.10165 0.13541 0.56406 0.0
C1749 C 0.12221 0.13927 0.604 0.0
C1750 C 0.09645 0.12218 0.54343 0.0
C1751 C 0.10476 0.0984 0.54099 0.0
C1752 C 0.11554 0.12502 0.58243 0.0
C1753 C 0.11948 0.089 0.55935 0.0
C1754 C 0.13854 0.13042 0.62114 0.0
C1755 C 0.12417 0.1782 0.62183 0.0
N1756 N 0.12436 0.10233 0.57931 0.0
N1757 N 0.11466 0.16251 0.60574 0.0
H1758 H 0.86659 0.16892 0.44974 0.0
H1759 H 0.94043 0.08751 0.54078 0.0
H1760 H 0.83963 0.14543 0.5188 0.0
H1761 H 0.97397 0.12241 0.48002 0.0
H1762 H 0.90422 0.11143 0.53431 0.0
H1763 H 0.90676 0.15419 0.46096 0.0
C1764 C 0.86915 0.16072 0.46724 0.0
C1765 C 0.84969 0.1579 0.48317 0.0
C1766 C 0.91957 0.11425 0.52257 0.0
C1767 C 0.89534 0.14129 0.49613 0.0
C1768 C 0.94023 0.10065 0.52634 0.0
C1769 C 0.95996 0.10305 0.51081 0.0
C1770 C 0.91847 0.12993 0.50277 0.0
C1771 C 0.95901 0.12023 0.49239 0.0
C1772 C 0.89204 0.15243 0.47366 0.0
C1773 C 0.85395 0.14729 0.50566 0.0
N1774 N 0.93831 0.13279 0.48854 0.0
N1775 N 0.87625 0.13925 0.51139 0.0
H1776 H 0.87757 0.85303 0.54504 0.0
H1777 H 0.93124 0.9759 0.49404 0.0
H1778 H 0.84066 0.89861 0.49395 0.0
H1779 H 0.97554 0.92294 0.52989 0.0
H1780 H 0.89732 0.94827 0.49572 0.0
H1781 H 0.91318 0.87885 0.54157 0.0
C1782 C 0.87696 0.86839 0.53304 0.0
C1783 C 0.85601 0.87375 0.51988 0.0
C1784 C 0.91446 0.94258 0.50313 0.0
C1785 C 0.89655 0.90338 0.51604 0.0
C1786 C 0.93385 0.9584 0.50226 0.0
C1787 C 0.95622 0.95175 0.51198 0.0
C1788 C 0.9173 0.91998 0.51402 0.0
C1789 C 0.95859 0.92873 0.52214 0.0
C1790 C 0.89728 0.88311 0.53112 0.0
C1791 C 0.85618 0.89404 0.50483 0.0
N1792 N 0.93926 0.91368 0.52308 0.0
N1793 N 0.87609 0.90813 0.50339 0.0
H1794 H 0.10914 0.83708 0.42294 0.0
H1795 H 0.12448 0.97333 0.46423 0.0
H1796 H 0.17152 0.87863 0.40257 0.0
H1797 H 0.08497 0.91766 0.50169 0.0
H1798 H 0.13602 0.94362 0.43354 0.0
H1799 H 0.09113 0.87312 0.44003 0.0
C1800 C 0.11845 0.85409 0.42073 0.0
C1801 C 0.14226 0.85477 0.41232 0.0
C1802 C 0.12489 0.93806 0.44858 0.0
C1803 C 0.12206 0.89584 0.43227 0.0
C1804 C 0.11873 0.95481 0.46638 0.0
C1805 C 0.10381 0.94797 0.48569 0.0
C1806 C 0.11575 0.91454 0.45005 0.0
C1807 C 0.09647 0.92383 0.48718 0.0
C1808 C 0.10835 0.87462 0.43096 0.0
C1809 C 0.15334 0.87739 0.40962 0.0
N1810 N 0.10232 0.9081 0.4695 0.0
N1811 N 0.14355 0.89703 0.42048 0.0
H1812 H 0.56763 0.14636 0.20838 0.0
H1813 H 0.5676 0.12127 0.06839 0.0
H1814 H 0.61352 0.18585 0.15915 0.0
H1815 H 0.53842 0.07203 0.12112 0.0
H1816 H 0.58435 0.14558 0.1011 0.0
H1817 H 0.55899 0.1179 0.17698 0.0
C1818 C 0.5766 0.14888 0.19127 0.0
C1819 C 0.59108 0.16919 0.18658 0.0
C1820 C 0.5743 0.12942 0.10545 0.0
C1821 C 0.57995 0.13668 0.14977 0.0
C1822 C 0.56441 0.11575 0.08683 0.0
C1823 C 0.55137 0.0947 0.09203 0.0
C1824 C 0.57094 0.12209 0.1294 0.0
C1825 C 0.54826 0.08815 0.11623 0.0
C1826 C 0.57123 0.1326 0.17308 0.0
C1827 C 0.60158 0.1711 0.16357 0.0
N1828 N 0.5579 0.10183 0.13398 0.0
N1829 N 0.59537 0.15536 0.14585 0.0
H1830 H 0.83382 0.50776 0.12083 0.0
H1831 H 0.97737 0.50394 0.11325 0.0
H1832 H 0.87746 0.49411 0.18366 0.0
H1833 H 0.93072 0.53603 0.0599 0.0
H1834 H 0.94202 0.49825 0.13955 0.0
H1835 H 0.87027 0.51472 0.09753 0.0
C1836 C 0.85115 0.50599 0.12965 0.0
C1837 C 0.85268 0.50028 0.15413 0.0
C1838 C 0.93972 0.5067 0.12213 0.0
C1839 C 0.89458 0.50866 0.1277 0.0
C1840 C 0.95983 0.51003 0.10722 0.0
C1841 C 0.95688 0.52009 0.08424 0.0
C1842 C 0.91675 0.51344 0.1138 0.0
C1843 C 0.9338 0.5277 0.07725 0.0
C1844 C 0.87197 0.51023 0.11643 0.0
C1845 C 0.87559 0.49864 0.1648 0.0
N1846 N 0.91467 0.52404 0.09186 0.0
N1847 N 0.89576 0.50276 0.15147 0.0
H1848 H 0.55081 0.82512 0.1373 0.0
H1849 H 0.5637 0.96482 0.11111 0.0
H1850 H 0.59845 0.87095 0.17846 0.0
H1851 H 0.53378 0.91414 0.06029 0.0
H1852 H 0.57564 0.93105 0.13687 0.0
H1853 H 0.54534 0.85732 0.10853 0.0
C1854 C 0.56073 0.84167 0.14006 0.0
C1855 C 0.57498 0.84523 0.16068 0.0
C1856 C 0.5665 0.92739 0.12004 0.0
C1857 C 0.56775 0.88282 0.128 0.0
C1858 C 0.5594 0.94664 0.1055 0.0
C1859 C 0.54759 0.94228 0.0836 0.0
C1860 C 0.56153 0.9037 0.1127 0.0
C1861 C 0.54285 0.91835 0.07702 0.0
C1862 C 0.55727 0.86027 0.12367 0.0
C1863 C 0.58681 0.86749 0.16323 0.0
N1864 N 0.54975 0.89999 0.09155 0.0
N1865 N 0.5826 0.8856 0.1473 0.0
H1866 H 0.1061 0.40941 0.17595 0.0
H1867 H 0.12337 0.47519 0.05022 0.0
H1868 H 0.15869 0.38564 0.12396 0.0
H1869 H 0.0864 0.5038 0.11246 0.0
H1870 H 0.13126 0.43806 0.0726 0.0
H1871 H 0.08946 0.4366 0.14623 0.0
C1872 C 0.11336 0.4088 0.15784 0.0
C1873 C 0.13487 0.39648 0.15286 0.0
C1874 C 0.12155 0.45258 0.08132 0.0
C1875 C 0.11613 0.42786 0.11894 0.0
C1876 C 0.11745 0.474 0.06876 0.0
C1877 C 0.10401 0.49268 0.07939 0.0
C1878 C 0.11219 0.44993 0.10463 0.0
C1879 C 0.09671 0.48992 0.10342 0.0
C1880 C 0.10415 0.42487 0.14099 0.0
C1881 C 0.14273 0.39581 0.12878 0.0
N1882 N 0.10069 0.46889 0.1151 0.0
N1883 N 0.13413 0.41231 0.11287 0.0
H1884 H 0.56832 0.84478 0.85985 0.0
H1885 H 0.52327 0.97332 0.90465 0.0
H1886 H 0.50338 0.87958 0.8342 0.0
H1887 H 0.55926 0.92313 0.95196 0.0
H1888 H 0.52545 0.94359 0.87231 0.0
H1889 H 0.57426 0.87835 0.88784 0.0
C1890 C 0.55546 0.85945 0.85984 0.0
C1891 C 0.53519 0.8591 0.84466 0.0
C1892 C 0.533 0.93922 0.88975 0.0
C1893 C 0.54238 0.89763 0.87601 0.0
C1894 C 0.53177 0.95611 0.90817 0.0
C1895 C 0.54076 0.95046 0.93105 0.0
C1896 C 0.54359 0.91673 0.8942 0.0
C1897 C 0.55169 0.92795 0.93466 0.0
C1898 C 0.55898 0.8786 0.87571 0.0
C1899 C 0.51952 0.87902 0.8451 0.0
N1900 N 0.55277 0.9118 0.91636 0.0
N1901 N 0.52342 0.8974 0.86057 0.0
H1902 H 0.19058 0.62608 0.87117 0.0
H1903 H 0.08104 0.54519 0.90188 0.0
H1904 H 0.12868 0.61684 0.82531 0.0
H1905 H 0.12952 0.5693 0.95777 0.0
H1906 H 0.09742 0.57526 0.87515 0.0
H1907 H 0.16624 0.61363 0.90568 0.0
C1908 C 0.17152 0.62273 0.86852 0.0
C1909 C 0.16212 0.62052 0.84509 0.0
C1910 C 0.10452 0.57414 0.89326 0.0
C1911 C 0.13439 0.60637 0.88414 0.0
C1912 C 0.09542 0.55659 0.90852 0.0
C1913 C 0.10395 0.55451 0.93222 0.0
C1914 C 0.12281 0.58958 0.90134 0.0
C1915 C 0.1226 0.56999 0.93958 0.0
C1916 C 0.15773 0.61521 0.88821 0.0
C1917 C 0.13713 0.61741 0.84285 0.0
N1918 N 0.13157 0.58681 0.9241 0.0
N1919 N 0.12432 0.60931 0.86199 0.0
H1920 H 0.57302 0.21278 0.87881 0.0
H1921 H 0.56517 0.07493 0.91196 0.0
H1922 H 0.58301 0.15455 0.82843 0.0
H1923 H 0.55007 0.13265 0.96196 0.0
H1924 H 0.58181 0.10397 0.88394 0.0
H1925 H 0.57705 0.18419 0.91201 0.0
C1926 C 0.57704 0.19411 0.87479 0.0
C1927 C 0.57686 0.1858 0.85092 0.0
C1928 C 0.57497 0.11033 0.90107 0.0
C1929 C 0.58091 0.1531 0.88855 0.0
C1930 C 0.56511 0.09377 0.91702 0.0
C1931 C 0.55546 0.10143 0.93913 0.0
C1932 C 0.575 0.13486 0.90702 0.0
C1933 C 0.55678 0.12599 0.94491 0.0
C1934 C 0.57909 0.17777 0.89371 0.0
C1935 C 0.58261 0.16162 0.84658 0.0
N1936 N 0.56606 0.14191 0.92878 0.0
N1937 N 0.58371 0.14594 0.86526 0.0
H1938 H 0.87757 0.45391 0.85339 0.0
H1939 H 0.9299 0.54155 0.95424 0.0
H1940 H 0.83495 0.50647 0.89184 0.0
H1941 H 0.97548 0.49759 0.90908 0.0
H1942 H 0.89514 0.52975 0.93028 0.0
H1943 H 0.91382 0.46959 0.87305 0.0
C1944 C 0.87582 0.46868 0.86599 0.0
C1945 C 0.85314 0.47875 0.87112 0.0
C1946 C 0.91275 0.52287 0.92535 0.0
C1947 C 0.89446 0.49678 0.89355 0.0
C1948 C 0.9326 0.52968 0.93898 0.0
C1949 C 0.95551 0.52042 0.93364 0.0
C1950 C 0.91572 0.50637 0.90644 0.0
C1951 C 0.95809 0.50522 0.91366 0.0
C1952 C 0.89651 0.47765 0.87714 0.0
C1953 C 0.85193 0.49777 0.88771 0.0
N1954 N 0.93831 0.49835 0.90092 0.0
N1955 N 0.87227 0.50612 0.89832 0.0
H1956 H 0.61591 0.67157 0.05673 0.0
H1957 H 0.57382 0.55041 0.99259 0.0
H1958 H 0.65888 0.63415 1.00366 0.0
H1959 H 0.52416 0.59868 0.02816 0.0
H1960 H 0.60623 0.57925 0.99932 0.0
H1961 H 0.58319 0.64293 0.04982 0.0
C1962 C 0.6185 0.65732 0.04367 0.0
C1963 C 0.64016 0.65534 0.03067 0.0
C1964 C 0.58822 0.58361 1.00553 0.0
C1965 C 0.60289 0.62247 0.02288 0.0
C1966 C 0.56971 0.56717 1.00172 0.0
C1967 C 0.54629 0.57218 0.00988 0.0
C1968 C 0.58337 0.60511 0.01786 0.0
C1969 C 0.54195 0.59421 0.02145 0.0
C1970 C 0.59982 0.64101 0.03975 0.0
C1971 C 0.64266 0.63623 0.01433 0.0
N1972 N 0.56041 0.60983 0.02529 0.0
N1973 N 0.62422 0.62056 0.01088 0.0
H1974 H 0.3847 0.66273 0.11916 0.0
H1975 H 0.36882 0.5426 0.04305 0.0
H1976 H 0.31349 0.63761 0.10014 0.0
H1977 H 0.42237 0.59763 0.02956 0.0
H1978 H 0.3504 0.56903 0.07351 0.0
H1979 H 0.40189 0.62773 0.09864 0.0
C1980 C 0.37263 0.6495 0.11141 0.0
C1981 C 0.34767 0.65364 0.11059 0.0
C1982 C 0.3662 0.57509 0.06374 0.0
C1983 C 0.36716 0.61374 0.08731 0.0
C1984 C 0.3765 0.56026 0.04612 0.0
C1985 C 0.39724 0.56781 0.0336 0.0
C1986 C 0.37713 0.59719 0.06918 0.0
C1987 C 0.40651 0.59083 0.03866 0.0
C1988 C 0.38246 0.62966 0.0996 0.0
C1989 C 0.33287 0.63544 0.10094 0.0
N1990 N 0.39659 0.6045 0.05624 0.0
N1991 N 0.34287 0.61649 0.08912 0.0
H1992 H 0.38165 0.336 0.88013 0.0
H1993 H 0.3701 0.44489 0.97335 0.0
H1994 H 0.31437 0.37179 0.89677 0.0
H1995 H 0.42848 0.39321 0.97274 0.0
H1996 H 0.35208 0.42401 0.93914 0.0
H1997 H 0.40259 0.36502 0.90577 0.0
C1998 C 0.3713 0.35024 0.88857 0.0
C1999 C 0.34597 0.35056 0.88708 0.0
C2000 C 0.36879 0.41725 0.94664 0.0
C2001 C 0.36984 0.38376 0.91632 0.0
C2002 C 0.37892 0.42892 0.96644 0.0
C2003 C 0.40078 0.42073 0.97628 0.0
C2004 C 0.38064 0.39735 0.93647 0.0
C2005 C 0.41151 0.40014 0.96608 0.0
C2006 C 0.38328 0.36668 0.90335 0.0
C2007 C 0.33379 0.37022 0.8976 0.0
N2008 N 0.4014 0.38927 0.94668 0.0
N2009 N 0.34576 0.38564 0.91224 0.0
H2010 H 0.66953 0.39636 0.95453 0.0
H2011 H 0.52908 0.39246 0.98337 0.0
H2012 H 0.63175 0.32849 0.95934 0.0
H2013 H 0.57808 0.44679 0.01 0.0
H2014 H 0.56401 0.36948 0.96845 0.0
H2015 H 0.63261 0.41704 0.96658 0.0
C2016 C 0.65342 0.38583 0.95787 0.0
C2017 C 0.65384 0.36065 0.95629 0.0
C2018 C 0.56692 0.38637 0.97774 0.0
C2019 C 0.61161 0.38416 0.97001 0.0
C2020 C 0.54709 0.39934 0.98645 0.0
C2021 C 0.55065 0.4217 0.99771 0.0
C2022 C 0.59017 0.39611 0.9801 0.0
C2023 C 0.57437 0.42986 1.00108 0.0
C2024 C 0.6324 0.39762 0.96479 0.0
C2025 C 0.63223 0.34795 0.96024 0.0
N2026 N 0.59316 0.41723 0.99205 0.0
N2027 N 0.61195 0.35985 0.96714 0.0
H2028 H 0.04592 0.65752 0.64647 0.0
H2029 H 0.95376 0.55665 0.60933 0.0
H2030 H 0.97428 0.65749 0.67735 0.0
H2031 H 0.99846 0.59328 0.55719 0.0
H2032 H 0.96506 0.5871 0.63946 0.0
H2033 H 0.03322 0.62618 0.61847 0.0
C2034 C 0.02756 0.65096 0.64742 0.0
C2035 C 0.01103 0.66048 0.66404 0.0
C2036 C 0.97214 0.58842 0.62133 0.0
C2037 C 0.99678 0.62425 0.63261 0.0
C2038 C 0.96574 0.5712 0.60423 0.0
C2039 C 0.97511 0.5727 0.58083 0.0
C2040 C 0.98849 0.60657 0.61497 0.0
C2041 C 0.99063 0.59173 0.57499 0.0
C2042 C 0.02041 0.63305 0.63152 0.0
C2043 C 0.98769 0.65061 0.66497 0.0
N2044 N 0.99711 0.60781 0.59209 0.0
N2045 N 0.9812 0.63297 0.64939 0.0
H2046 H 0.37435 0.92949 0.70105 0.0
H2047 H 0.37976 0.94634 0.55874 0.0
H2048 H 0.33196 0.88506 0.65296 0.0
H2049 H 0.41325 0.99289 0.61114 0.0
H2050 H 0.36304 0.92203 0.59177 0.0
H2051 H 0.39279 0.94828 0.66698 0.0
C2052 C 0.36913 0.92301 0.68347 0.0
C2053 C 0.35069 0.90583 0.68034 0.0
C2054 C 0.37382 0.93773 0.59596 0.0
C2055 C 0.3715 0.92884 0.64054 0.0
C2056 C 0.38299 0.95185 0.57717 0.0
C2057 C 0.39781 0.97171 0.58229 0.0
C2058 C 0.37965 0.9436 0.61986 0.0
C2059 C 0.40194 0.97772 0.60641 0.0
C2060 C 0.37952 0.93434 0.66378 0.0
C2061 C 0.34524 0.89884 0.65655 0.0
N2062 N 0.39307 0.96364 0.62423 0.0
N2063 N 0.35522 0.91072 0.63753 0.0
H2064 H 0.10859 0.40748 0.6455 0.0
H2065 H 0.99266 0.39058 0.5631 0.0
H2066 H 0.07789 0.3373 0.63095 0.0
H2067 H 1.00486 0.45345 0.60738 0.0
H2068 H 0.02739 0.37123 0.58212 0.0
H2069 H 0.07512 0.42575 0.62347 0.0
C2070 C 0.09518 0.39583 0.63748 0.0
C2071 C 0.09605 0.37073 0.64074 0.0
C2072 C 0.02217 0.38916 0.58779 0.0
C2073 C 0.05791 0.3916 0.61528 0.0
C2074 C 1.00217 0.40011 0.5772 0.0
C2075 C 0.9957 0.42374 0.58356 0.0
C2076 C 0.03596 0.40205 0.60458 0.0
C2077 C 1.00898 0.43522 0.60184 0.0
C2078 C 0.07605 0.40632 0.62497 0.0
C2079 C 0.0784 0.35667 0.62905 0.0
N2080 N 0.02869 0.42441 0.61142 0.0
N2081 N 0.05998 0.36731 0.61707 0.0
H2082 H 0.63197 0.95021 0.66801 0.0
H2083 H 0.5723 0.01691 0.5561 0.0
H2084 H 0.66392 0.0119 0.63295 0.0
H2085 H 0.5316 0.97143 0.60433 0.0
H2086 H 0.60747 0.01245 0.58191 0.0
H2087 H 0.59669 0.95423 0.64196 0.0
C2088 C 0.63164 0.9645 0.65475 0.0
C2089 C 0.65087 0.98086 0.65277 0.0
C2090 C 0.59083 1.00357 0.58697 0.0
C2091 C 0.61069 0.98543 0.62295 0.0
C2092 C 0.57075 1.00611 0.57227 0.0
C2093 C 0.54908 0.99447 0.57814 0.0
C2094 C 0.58934 0.98905 0.60755 0.0
C2095 C 0.54797 0.98082 0.59933 0.0
C2096 C 0.61149 0.9668 0.63996 0.0
C2097 C 0.64968 0.99872 0.63495 0.0
N2098 N 0.56798 0.97829 0.61323 0.0
N2099 N 0.62987 1.00058 0.62079 0.0
H2100 H 0.08586 0.33964 0.38994 0.0
H2101 H 0.98543 0.43701 0.40399 0.0
H2102 H 0.08727 0.40722 0.35155 0.0
H2103 H 1.00595 0.39405 0.46558 0.0
H2104 H 0.01989 0.42092 0.38203 0.0
H2105 H 0.05707 0.35683 0.41834 0.0
C2106 C 0.08102 0.35845 0.38806 0.0
C2107 C 0.08836 0.37181 0.36784 0.0
C2108 C 0.01669 0.41494 0.40032 0.0
C2109 C 0.05465 0.39096 0.39951 0.0
C2110 C 0.99676 0.42374 0.41273 0.0
C2111 C 0.99294 0.41724 0.43684 0.0
C2112 C 0.03273 0.39929 0.41196 0.0
C2113 C 1.0082 0.39975 0.44707 0.0
C2114 C 0.0642 0.36807 0.40407 0.0
C2115 C 0.08146 0.39609 0.36648 0.0
N2116 N 0.02763 0.39152 0.43462 0.0
N2117 N 0.06426 0.40467 0.38159 0.0
H2118 H 0.62094 0.04687 0.32977 0.0
H2119 H 0.57439 0.98949 0.45138 0.0
H2120 H 0.66124 0.04827 0.3963 0.0
H2121 H 0.52374 0.01966 0.40056 0.0
H2122 H 0.60743 1.0042 0.42681 0.0
H2123 H 0.58563 0.03255 0.352 0.0
C2124 C 0.62232 0.04461 0.34908 0.0
C2125 C 0.64425 0.04862 0.36116 0.0
C2126 C 0.5891 1.00753 0.42097 0.0
C2127 C 0.6042 0.03144 0.38631 0.0
C2128 C 0.57017 0.99901 0.43488 0.0
C2129 C 0.5462 1.00369 0.42821 0.0
C2130 C 0.58417 0.02066 0.40004 0.0
C2131 C 0.54195 0.0157 0.40638 0.0
C2132 C 0.60219 0.03622 0.36165 0.0
C2133 C 0.64496 0.04491 0.38611 0.0
N2134 N 0.56084 0.02397 0.39304 0.0
N2135 N 0.62532 0.03627 0.3978 0.0
H2136 H 0.0755 0.65844 0.40222 0.0
H2137 H 0.99565 0.53911 0.40207 0.0
H2138 H 0.06025 0.61921 0.33689 0.0
H2139 H 0.99072 0.59545 0.45565 0.0
H2140 H 0.024 0.56412 0.37934 0.0
H2141 H 0.05137 0.62927 0.42472 0.0
C2142 C 0.06754 0.64338 0.39271 0.0
C2143 C 0.06952 0.64147 0.36762 0.0
C2144 C 0.01648 0.57095 0.39599 0.0
C2145 C 0.04171 0.60838 0.39308 0.0
C2146 C 1.00006 0.55686 0.40885 0.0
C2147 C 0.99075 0.56508 0.43091 0.0
C2148 C 0.02379 0.5932 0.40546 0.0
C2149 C 0.99738 0.58819 0.43882 0.0
C2150 C 0.05361 0.6269 0.40549 0.0
C2151 C 0.0592 0.62137 0.35623 0.0
N2152 N 0.01369 0.60128 0.42625 0.0
N2153 N 0.04539 0.60575 0.36901 0.0
H2154 H 0.31912 0.11271 0.38044 0.0
H2155 H 0.42149 0.0195 0.4017 0.0
H2156 H 0.391 0.12277 0.35181 0.0
H2157 H 0.37024 0.03349 0.45879 0.0
H2158 H 0.40649 0.05452 0.38031 0.0
H2159 H 0.33501 0.08365 0.40891 0.0
C2160 C 0.33839 0.1096 0.38054 0.0
C2161 C 0.35359 0.11987 0.36294 0.0
C2162 C 0.39847 0.04982 0.39747 0.0
C2163 C 0.37149 0.08556 0.39502 0.0
C2164 C 0.40671 0.02954 0.40959 0.0
C2165 C 0.39729 0.02347 0.43231 0.0
C2166 C 0.38022 0.06392 0.40772 0.0
C2167 C 0.37807 0.03735 0.44135 0.0
C2168 C 0.34734 0.09263 0.39671 0.0
C2169 C 0.37837 0.11469 0.36428 0.0
N2170 N 0.37014 0.05699 0.429 0.0
N2171 N 0.38644 0.09735 0.37953 0.0
H2172 H 0.04548 0.15253 0.30848 0.0
H2173 H 0.04099 0.13235 0.45229 0.0
H2174 H 0.05213 0.20933 0.36095 0.0
H2175 H 0.03645 0.07399 0.40115 0.0
H2176 H 0.04313 0.1608 0.41872 0.0
H2177 H 0.03967 0.12351 0.34166 0.0
C2178 C 0.04553 0.15893 0.3269 0.0
C2179 C 0.0497 0.18338 0.33186 0.0
C2180 C 0.04162 0.14176 0.41482 0.0
C2181 C 0.04312 0.15033 0.36997 0.0
C2182 C 0.0404 0.12544 0.43407 0.0
C2183 C 0.03861 0.10056 0.42979 0.0
C2184 C 0.04104 0.13333 0.3909 0.0
C2185 C 0.03787 0.09291 0.40556 0.0
C2186 C 0.04234 0.14236 0.34586 0.0
C2187 C 0.04952 0.19061 0.35618 0.0
N2188 N 0.03914 0.10915 0.38715 0.0
N2189 N 0.04643 0.17426 0.37416 0.0
H2190 H 0.8808 1.00416 0.33008 0.0
H2191 H 0.93062 0.04338 0.45935 0.0
H2192 H 0.84473 0.05359 0.37788 0.0
H2193 H 0.97801 0.01266 0.40585 0.0
H2194 H 0.89853 0.04501 0.42951 0.0
H2195 H 0.91666 1.00573 0.35651 0.0
C2196 C 0.88061 0.01571 0.34579 0.0
C2197 C 0.85967 0.02863 0.35187 0.0
C2198 C 0.91595 0.03797 0.42417 0.0
C2199 C 0.90021 0.03008 0.38239 0.0
C2200 C 0.93433 0.0369 0.44133 0.0
C2201 C 0.95719 0.02783 0.43525 0.0
C2202 C 0.92009 0.02963 0.40062 0.0
C2203 C 0.96075 0.01988 0.4114 0.0
C2204 C 0.90097 0.01645 0.36097 0.0
C2205 C 0.86035 0.04312 0.37261 0.0
N2206 N 0.94238 0.02079 0.39502 0.0
N2207 N 0.88003 0.04321 0.38715 0.0
H2208 H 0.01824 0.87159 0.32772 0.0
H2209 H 0.04839 0.91825 0.45963 0.0
H2210 H 0.07186 0.83879 0.37325 0.0
H2211 H 0.02612 0.96887 0.40505 0.0
H2212 H 0.05175 0.88715 0.42866 0.0
H2213 H 0.01727 0.90663 0.35526 0.0
C2214 C 0.03027 0.87204 0.34305 0.0
C2215 C 0.04516 0.85219 0.34814 0.0
C2216 C 0.04636 0.90512 0.42342 0.0
C2217 C 0.04341 0.8916 0.38017 0.0
C2218 C 0.04418 0.9229 0.44118 0.0
C2219 C 0.03701 0.94639 0.43511 0.0
C2220 C 0.04113 0.91057 0.39925 0.0
C2221 C 0.03184 0.9511 0.41068 0.0
C2222 C 0.02953 0.89189 0.35892 0.0
C2223 C 0.06004 0.85361 0.36862 0.0
N2224 N 0.03385 0.93337 0.3937 0.0
N2225 N 0.05849 0.87263 0.38398 0.0
H2226 H 0.22682 0.03645 0.36758 0.0
H2227 H 0.08718 0.02165 0.40272 0.0
H2228 H 0.1709 0.02694 0.31471 0.0
H2229 H 0.14428 0.02974 0.45485 0.0
H2230 H 0.11729 0.02133 0.37055 0.0
H2231 H 0.19704 0.03099 0.39961 0.0
C2232 C 0.20826 0.03273 0.36273 0.0
C2233 C 0.20139 0.03204 0.33838 0.0
C2234 C 0.12326 0.02312 0.38902 0.0
C2235 C 0.1668 0.02631 0.37522 0.0
C2236 C 0.10603 0.02337 0.40753 0.0
C2237 C 0.11301 0.0259 0.43179 0.0
C2238 C 0.14786 0.02542 0.39457 0.0
C2239 C 0.13784 0.02791 0.43656 0.0
C2240 C 0.1912 0.02978 0.38106 0.0
C2241 C 0.17705 0.02736 0.33319 0.0
N2242 N 0.15425 0.0277 0.41821 0.0
N2243 N 0.16061 0.02492 0.35142 0.0
H2244 H 0.02779 0.84158 0.66188 0.0
H2245 H 0.04946 0.97757 0.61938 0.0
H2246 H 0.06125 0.89454 0.70774 0.0
H2247 H 0.02935 0.91987 0.57134 0.0
H2248 H 0.05103 0.94882 0.65263 0.0
H2249 H 0.02488 0.87135 0.62992 0.0
C2250 C 0.03462 0.85954 0.66525 0.0
C2251 C 0.0453 0.86536 0.68748 0.0
C2252 C 0.04628 0.94244 0.63483 0.0
C2253 C 0.04167 0.89996 0.65062 0.0
C2254 C 0.0453 0.95886 0.61573 0.0
C2255 C 0.03918 0.95124 0.59232 0.0
C2256 C 0.04092 0.9181 0.63072 0.0
C2257 C 0.0342 0.92668 0.58894 0.0
C2258 C 0.03289 0.87659 0.6469 0.0
C2259 C 0.05305 0.88919 0.6909 0.0
N2260 N 0.03509 0.91108 0.60788 0.0
N2261 N 0.05122 0.9056 0.67261 0.0
H2262 H 0.17426 0.03171 0.70603 0.0
H2263 H 0.14537 0.01452 0.56469 0.0
H2264 H 0.22601 1.00675 0.65378 0.0
H2265 H 0.09122 0.03359 0.61723 0.0
H2266 H 0.1758 0.01508 0.59661 0.0
H2267 H 0.14455 0.03677 0.67339 0.0
C2268 C 0.17955 0.02782 0.68767 0.0
C2269 C 0.2027 0.01879 0.6827 0.0
C2270 C 0.15725 0.01917 0.60118 0.0
C2271 C 0.16866 0.02409 0.64521 0.0
C2272 C 0.13978 0.01881 0.58287 0.0
C2273 C 0.11545 0.02376 0.58807 0.0
C2274 C 0.15056 0.02463 0.62504 0.0
C2275 C 0.1096 0.02938 0.61217 0.0
C2276 C 0.16251 0.03045 0.66903 0.0
C2277 C 0.20837 0.01368 0.65851 0.0
N2278 N 0.12692 0.02961 0.62963 0.0
N2279 N 0.19155 0.01626 0.64083 0.0
H2280 H 0.03955 0.2102 0.6649 0.0
H2281 H 0.06628 0.07913 0.61008 0.0
H2282 H 0.09239 0.16109 0.69343 0.0
H2283 H 0.0272 0.13337 0.57049 0.0
H2284 H 0.07235 0.10772 0.64271 0.0
H2285 H 0.03015 0.18078 0.63305 0.0
C2286 C 0.04854 0.19288 0.66496 0.0
C2287 C 0.0664 0.18787 0.68216 0.0
C2288 C 0.06235 0.11345 0.62698 0.0
C2289 C 0.05634 0.15446 0.64536 0.0
C2290 C 0.05879 0.09706 0.60827 0.0
C2291 C 0.0459 0.10368 0.58751 0.0
C2292 C 0.05276 0.13679 0.62532 0.0
C2293 C 0.03716 0.12742 0.58615 0.0
C2294 C 0.0435 0.17629 0.64653 0.0
C2295 C 0.07817 0.1655 0.68084 0.0
N2296 N 0.04057 0.14306 0.60487 0.0
N2297 N 0.07298 0.14973 0.6628 0.0
H2298 H 0.87579 0.05174 0.68876 0.0
H2299 H 0.93559 1.00315 0.56916 0.0
H2300 H 0.86067 0.98139 0.6598 0.0
H2301 H 0.97897 0.04616 0.61708 0.0
H2302 H 0.90492 0.9997 0.60061 0.0
H2303 H 0.91186 0.05403 0.66251 0.0
C2304 C 0.88045 0.03651 0.6775 0.0
C2305 C 0.86516 0.01633 0.67651 0.0
C2306 C 0.92115 0.0099 0.6043 0.0
C2307 C 0.9056 0.01926 0.64581 0.0
C2308 C 0.93864 0.01202 0.58625 0.0
C2309 C 0.95998 0.02498 0.59038 0.0
C2310 C 0.92455 0.02125 0.62667 0.0
C2311 C 0.96286 0.0359 0.61311 0.0
C2312 C 0.90086 0.03793 0.66234 0.0
C2313 C 0.87186 0.99732 0.66114 0.0
N2314 N 0.94526 0.03403 0.63032 0.0
N2315 N 0.89116 0.99944 0.64618 0.0
H2316 H 0.3828 0.01488 0.19855 0.0
H2317 H 0.48141 0.01233 0.11926 0.0
H2318 H 0.34968 0.05929 0.14434 0.0
H2319 H 0.43009 0.03144 0.06411 0.0
H2320 H 0.44904 0.01431 0.14918 0.0
H2321 H 0.41482 1.00433 0.16978 0.0
C2322 C 0.38193 0.02188 0.18036 0.0
C2323 C 0.36339 0.03779 0.17378 0.0
C2324 C 0.44468 0.01762 0.1305 0.0
C2325 C 0.40068 0.02679 0.14092 0.0
C2326 C 0.46333 0.01674 0.11334 0.0
C2327 C 0.45869 0.02167 0.08893 0.0
C2328 C 0.42105 0.02365 0.12335 0.0
C2329 C 0.43475 0.02735 0.08258 0.0
C2330 C 0.40054 0.01629 0.16404 0.0
C2331 C 0.3635 0.04677 0.15011 0.0
N2332 N 0.41703 0.02839 0.09961 0.0
N2333 N 0.3818 0.04123 0.13465 0.0
H2334 H 0.05713 0.38089 0.19454 0.0
H2335 H 0.03192 0.41428 0.05651 0.0
H2336 H 0.02502 0.32959 0.14599 0.0
H2337 H 0.04489 0.46622 0.11282 0.0
H2338 H 0.03394 0.3819 0.08659 0.0
H2339 H 0.05768 0.41064 0.16258 0.0
C2340 C 0.05059 0.37571 0.17691 0.0
C2341 C 0.04072 0.3527 0.17312 0.0
C2342 C 0.03633 0.40039 0.0923 0.0
C2343 C 0.04195 0.38699 0.13574 0.0
C2344 C 0.03524 0.41897 0.07514 0.0
C2345 C 0.03819 0.44324 0.08201 0.0
C2346 C 0.04069 0.40598 0.11656 0.0
C2347 C 0.04238 0.44796 0.1065 0.0
C2348 C 0.05094 0.39281 0.15858 0.0
C2349 C 0.0328 0.34706 0.14975 0.0
N2350 N 0.04355 0.4296 0.12273 0.0
N2351 N 0.03348 0.36414 0.13192 0.0
H2352 H 0.68081 0.0166 0.20194 0.0
H2353 H 0.64523 0.02769 0.06261 0.0
H2354 H 0.73165 0.03734 0.14706 0.0
H2355 H 0.59363 0.01458 0.11941 0.0
H2356 H 0.67752 0.02792 0.09236 0.0
H2357 H 0.64973 0.01174 0.1712 0.0
C2358 C 0.6855 0.01978 0.18327 0.0
C2359 C 0.70885 0.02738 0.17703 0.0
C2360 C 0.65917 0.02494 0.09834 0.0
C2361 C 0.67309 0.02219 0.14156 0.0
C2362 C 0.64058 0.02477 0.08132 0.0
C2363 C 0.61642 0.02114 0.08838 0.0
C2364 C 0.65379 0.02136 0.12276 0.0
C2365 C 0.61183 0.01754 0.113 0.0
C2366 C 0.66769 0.01714 0.16573 0.0
C2367 C 0.71393 0.0313 0.1526 0.0
N2368 N 0.63029 0.01775 0.12923 0.0
N2369 N 0.69614 0.02882 0.13576 0.0
H2370 H 0.04589 0.71829 0.14813 0.0
H2371 H 0.03617 0.57621 0.11874 0.0
H2372 H 0.04456 0.66233 0.20191 0.0
H2373 H 0.03599 0.63101 0.0636 0.0
H2374 H 0.03808 0.6079 0.14931 0.0
H2375 H 0.04046 0.68724 0.11677 0.0
C2376 C 0.04425 0.69958 0.15337 0.0
C2377 C 0.04608 0.69298 0.17772 0.0
C2378 C 0.03756 0.61302 0.13051 0.0
C2379 C 0.03999 0.65725 0.14196 0.0
C2380 C 0.03649 0.59484 0.11297 0.0
C2381 C 0.03593 0.60069 0.08836 0.0
C2382 C 0.03814 0.63745 0.12359 0.0
C2383 C 0.03637 0.62538 0.08225 0.0
C2384 C 0.04129 0.6818 0.13547 0.0
C2385 C 0.04379 0.66834 0.18338 0.0
N2386 N 0.0375 0.64272 0.09964 0.0
N2387 N 0.04103 0.65152 0.16577 0.0
H2388 H 0.33987 0.0104 0.88057 0.0
H2389 H 0.48222 0.0274 0.90315 0.0
H2390 H 0.39153 0.01619 0.82303 0.0
H2391 H 0.42917 0.02475 0.96002 0.0
H2392 H 0.44945 0.02601 0.8735 0.0
H2393 H 0.37199 0.01919 0.90967 0.0
C2394 C 0.35784 0.01439 0.87402 0.0
C2395 C 0.36285 0.01325 0.84927 0.0
C2396 C 0.44499 0.02587 0.89248 0.0
C2397 C 0.40023 0.02221 0.88264 0.0
C2398 C 0.46376 0.02665 0.9095 0.0
C2399 C 0.45872 0.02612 0.93435 0.0
C2400 C 0.42081 0.02451 0.90018 0.0
C2401 C 0.43423 0.02513 0.9412 0.0
C2402 C 0.37631 0.01908 0.89066 0.0
C2403 C 0.38674 0.01757 0.84188 0.0
N2404 N 0.41637 0.02426 0.92433 0.0
N2405 N 0.4045 0.02165 0.85842 0.0
H2406 H 0.0565 0.33447 0.86468 0.0
H2407 H 0.03497 0.47412 0.89759 0.0
H2408 H 0.04457 0.39032 0.81208 0.0
H2409 H 0.04262 0.41855 0.9514 0.0
H2410 H 0.03754 0.44329 0.86625 0.0
H2411 H 0.04976 0.36424 0.89683 0.0
C2412 C 0.05214 0.35286 0.85986 0.0
C2413 C 0.0514 0.35983 0.83554 0.0
C2414 C 0.0386 0.4378 0.88492 0.0
C2415 C 0.04399 0.39421 0.87233 0.0
C2416 C 0.03719 0.45549 0.90291 0.0
C2417 C 0.03863 0.44915 0.92737 0.0
C2418 C 0.04159 0.41342 0.89123 0.0
C2419 C 0.0414 0.4245 0.93289 0.0
C2420 C 0.04849 0.36993 0.87824 0.0
C2421 C 0.04582 0.38408 0.8305 0.0
N2422 N 0.04287 0.40765 0.91505 0.0
N2423 N 0.04252 0.40028 0.84861 0.0
H2424 H 0.72129 0.05154 0.85932 0.0
H2425 H 0.5988 1.00017 0.91117 0.0
H2426 H 0.7007 0.97719 0.85061 0.0
H2427 H 0.64025 0.04893 0.95511 0.0
H2428 H 0.63324 0.99691 0.88345 0.0
H2429 H 0.69025 0.05562 0.89107 0.0
C2430 C 0.71078 0.03594 0.8645 0.0
C2431 C 0.71356 0.01403 0.8521 0.0
C2432 C 0.63472 1.00841 0.89912 0.0
C2433 C 0.67737 0.0189 0.88742 0.0
C2434 C 0.615 0.01044 0.91481 0.0
C2435 C 0.61663 0.02479 0.93552 0.0
C2436 C 0.65608 0.02129 0.90375 0.0
C2437 C 0.63826 0.03754 0.93941 0.0
C2438 C 0.69287 0.03835 0.88238 0.0
C2439 C 0.69906 0.99451 0.85942 0.0
N2440 N 0.65706 0.03566 0.92362 0.0
N2441 N 0.68135 0.99754 0.8761 0.0
H2442 H 0.0589 0.68638 0.83448 0.0
H2443 H 0.01732 0.63161 0.96143 0.0
H2444 H 1.00742 0.72087 0.88117 0.0
H2445 H 0.04951 0.58814 0.9056 0.0
H2446 H 0.01925 0.66655 0.93493 0.0
H2447 H 0.06234 0.65307 0.86347 0.0
C2448 C 0.04908 0.68738 0.85133 0.0
C2449 C 0.03333 0.7067 0.85577 0.0
C2450 C 0.02591 0.6494 0.92842 0.0
C2451 C 0.03645 0.66828 0.88858 0.0
C2452 C 0.02483 0.62935 0.94356 0.0
C2453 C 0.03321 0.60674 0.93577 0.0
C2454 C 0.03574 0.64715 0.90525 0.0
C2455 C 0.04264 0.6051 0.91233 0.0
C2456 C 0.0507 0.66817 0.86763 0.0
C2457 C 0.02022 0.70664 0.87738 0.0
N2458 N 0.04376 0.62504 0.89794 0.0
N2459 N 0.02203 0.68773 0.89292 0.0
H2460 H 0.22623 0.38251 0.98215 0.0
H2461 H 0.09058 0.41946 0.01626 0.0
H2462 H 0.17601 0.33307 0.01472 0.0
H2463 H 0.14402 0.47067 0.99239 0.0
H2464 H 0.1214 0.38802 0.0164 0.0
H2465 H 0.19679 0.415 0.98685 0.0
C2466 C 0.20906 0.37853 0.99059 0.0
C2467 C 0.20367 0.3549 0.99803 0.0
C2468 C 0.12645 0.40611 0.01115 0.0
C2469 C 0.16939 0.3923 1.00314 0.0
C2470 C 0.10876 0.4242 0.01093 0.0
C2471 C 0.11444 0.44798 1.00402 0.0
C2472 C 0.15023 0.41153 1.00428 0.0
C2473 C 0.13857 0.45273 0.9977 0.0
C2474 C 0.19219 0.39715 0.99322 0.0
C2475 C 0.18109 0.35097 0.00888 0.0
N2476 N 0.15542 0.43472 0.99784 0.0
N2477 N 0.16473 0.36936 0.01086 0.0
H2478 H 0.21533 0.68227 0.99276 0.0
H2479 H 0.08425 0.63099 0.027 0.0
H2480 H 0.16666 0.7181 0.04147 0.0
H2481 H 0.14093 0.58503 1.00007 0.0
H2482 H 0.11234 0.66483 0.02713 0.0
H2483 H 0.1863 0.64883 0.98925 0.0
C2484 C 0.19824 0.68343 1.00217 0.0
C2485 C 0.19328 0.70323 0.01716 0.0
C2486 C 0.1187 0.64738 0.02119 0.0
C2487 C 0.16013 0.66478 0.0136 0.0
C2488 C 0.10262 0.62793 0.02107 0.0
C2489 C 0.11011 0.60491 0.01354 0.0
C2490 C 0.14258 0.64415 0.01335 0.0
C2491 C 0.13429 0.60232 1.00618 0.0
C2492 C 0.18184 0.66417 1.00044 0.0
C2493 C 0.17112 0.70337 0.0295 0.0
N2494 N 0.14958 0.62168 1.00612 0.0
N2495 N 0.15545 0.68456 0.02742 0.0
H2496 H 0.38979 0.21317 1.00582 0.0
H2497 H 0.42926 0.074 0.01369 0.0
H2498 H 0.34081 0.15359 0.9983 0.0
H2499 H 0.48078 0.13226 0.01451 0.0
H2500 H 0.39661 0.10327 0.01274 0.0
H2501 H 0.42265 0.1846 0.01451 0.0
C2502 C 0.38576 0.19412 1.00695 0.0
C2503 C 0.36234 0.18582 1.00196 0.0
C2504 C 0.41502 0.10975 0.01322 0.0
C2505 C 0.40012 0.15281 0.01092 0.0
C2506 C 0.43386 0.09295 0.01374 0.0
C2507 C 0.45815 0.10043 0.01404 0.0
C2508 C 0.42012 0.13454 0.01301 0.0
C2509 C 0.4625 0.12545 0.0142 0.0
C2510 C 0.40461 0.17776 0.01151 0.0
C2511 C 0.35841 0.16083 1.00264 0.0
N2512 N 0.44376 0.14152 0.01359 0.0
N2513 N 0.37702 0.14531 1.00687 0.0
H2514 H 0.84961 0.38224 0.97278 0.0
H2515 H 0.98165 0.41649 0.0198 0.0
H2516 H 0.88442 0.33951 0.02738 0.0
H2517 H 0.93113 0.46746 0.98994 0.0
H2518 H 0.95032 0.38509 0.01767 0.0
H2519 H 0.88386 0.40974 0.97274 0.0
C2520 C 0.86471 0.37842 0.98454 0.0
C2521 C 0.86397 0.35859 1.00026 0.0
C2522 C 0.94617 0.40316 0.0116 0.0
C2523 C 0.90355 0.39041 1.00042 0.0
C2524 C 0.96405 0.42111 0.01272 0.0
C2525 C 0.95908 0.4448 1.00509 0.0
C2526 C 0.92329 0.40875 1.00228 0.0
C2527 C 0.93586 0.44961 0.99621 0.0
C2528 C 0.88422 0.39427 0.98462 0.0
C2529 C 0.88423 0.3545 0.01493 0.0
N2530 N 0.91901 0.4318 0.99492 0.0
N2531 N 0.90316 0.37039 0.01479 0.0
H2532 H 0.68519 0.84068 0.97592 0.0
H2533 H 0.64332 0.96941 0.02565 0.0
H2534 H 0.72329 0.87675 0.033 0.0
H2535 H 0.59582 0.91956 0.98963 0.0
H2536 H 0.67583 0.93956 0.02328 0.0
H2537 H 0.65636 0.87396 0.97442 0.0
C2538 C 0.68789 0.85602 0.98767 0.0
C2539 C 0.70677 0.85599 1.00453 0.0
C2540 C 0.65831 0.93519 0.01588 0.0
C2541 C 0.67335 0.89405 1.0033 0.0
C2542 C 0.63969 0.95222 0.01716 0.0
C2543 C 0.61666 0.94703 1.00786 0.0
C2544 C 0.65412 0.91287 1.00481 0.0
C2545 C 0.61314 0.92436 0.99721 0.0
C2546 C 0.67122 0.87486 0.98703 0.0
C2547 C 0.70921 0.87619 0.01954 0.0
N2548 N 0.63166 0.90824 0.99587 0.0
N2549 N 0.69256 0.89435 0.01871 0.0
H2550 H 0.86959 0.69697 0.98711 0.0
H2551 H 0.93078 0.5769 0.03293 0.0
H2552 H 0.85104 0.66332 0.05453 0.0
H2553 H 0.9741 0.6284 0.99403 0.0
H2554 H 0.89879 0.60701 0.03642 0.0
H2555 H 0.90656 0.67202 0.98557 0.0
C2556 C 0.87361 0.68489 1.00188 0.0
C2557 C 0.8571 0.68214 0.02091 0.0
C2558 C 0.91531 0.61178 0.02715 0.0
C2559 C 0.89865 0.65304 0.01882 0.0
C2560 C 0.93354 0.59452 0.025 0.0
C2561 C 0.95522 0.60008 0.0132 0.0
C2562 C 0.91836 0.63476 0.01696 0.0
C2563 C 0.95773 0.62337 1.00343 0.0
C2564 C 0.89455 0.6705 1.00088 0.0
C2565 C 0.8631 0.6659 0.0394 0.0
N2566 N 0.93944 0.63979 1.00528 0.0
N2567 N 0.88301 0.65173 0.03767 0.0
H2568 H 0.35821 0.86215 0.99124 0.0
H2569 H 0.48229 0.92008 0.03149 0.0
H2570 H 0.39022 0.84921 0.06077 0.0
H2571 H 0.43171 0.96525 0.99359 0.0
H2572 H 0.45096 0.88932 0.03559 0.0
H2573 H 0.38597 0.89677 0.98587 0.0
C2574 C 0.37071 0.86672 1.00549 0.0
C2575 C 0.3721 0.8523 0.0263 0.0
C2576 C 0.44671 0.90593 0.02629 0.0
C2577 C 0.40427 0.89129 0.01994 0.0
C2578 C 0.46467 0.92348 0.0238 0.0
C2579 C 0.45973 0.94542 0.01222 0.0
C2580 C 0.4236 0.90986 0.01665 0.0
C2581 C 0.43633 0.94871 1.0028 0.0
C2582 C 0.38664 0.88636 1.00234 0.0
C2583 C 0.38881 0.85923 0.04411 0.0
N2584 N 0.41919 0.93108 1.00503 0.0
N2585 N 0.40438 0.87775 0.04034 0.0
H2586 H 0.71859 0.17959 0.03675 0.0
H2587 H 0.60132 0.12038 0.98348 0.0
H2588 H 0.71034 0.16981 0.96007 0.0
H2589 H 0.63741 0.08355 0.04147 0.0
H2590 H 0.63664 0.14695 0.97917 0.0
H2591 H 0.68556 0.1507 0.04324 0.0
C2592 C 0.71028 0.17118 0.02127 0.0
C2593 C 0.71726 0.17769 0.99776 0.0
C2594 C 0.63667 0.13318 0.99299 0.0
C2595 C 0.67861 0.14549 1.00522 0.0
C2596 C 0.61647 0.11821 0.9956 0.0
C2597 C 0.61642 0.09983 0.01292 0.0
C2598 C 0.65669 0.13023 1.00824 0.0
C2599 C 0.63674 0.09755 0.02791 0.0
C2600 C 0.6912 0.15489 0.02505 0.0
C2601 C 0.70531 0.16614 0.97853 0.0
N2602 N 0.65598 0.11269 0.0254 0.0
N2603 N 0.68635 0.15112 0.98267 0.0
H2604 H 0.4677 0.62631 0.80815 0.0
H2605 H 0.46558 0.60284 0.95143 0.0
H2606 H 0.46773 0.68257 0.86162 0.0
H2607 H 0.46564 0.54557 0.89884 0.0
H2608 H 0.4646 0.63218 0.91854 0.0
H2609 H 0.46454 0.59629 0.84073 0.0
C2610 C 0.46678 0.63236 0.82667 0.0
C2611 C 0.46833 0.657 0.83211 0.0
C2612 C 0.46476 0.61318 0.91419 0.0
C2613 C 0.46488 0.62281 0.86954 0.0
C2614 C 0.46534 0.59636 0.93305 0.0
C2615 C 0.46577 0.57153 0.92814 0.0
C2616 C 0.46463 0.60528 0.89009 0.0
C2617 C 0.4654 0.56443 0.90374 0.0
C2618 C 0.46513 0.61523 0.84529 0.0
C2619 C 0.46708 0.66376 0.85652 0.0
N2620 N 0.46491 0.58113 0.88575 0.0
N2621 N 0.46558 0.64687 0.8742 0.0
H2622 H 0.28568 0.52115 0.86049 0.0
H2623 H 0.41355 0.47255 0.90515 0.0
H2624 H 0.31979 0.46056 0.8259 0.0
H2625 H 0.36416 0.51239 0.9501 0.0
H2626 H 0.3829 0.47132 0.87335 0.0
H2627 H 0.31823 0.52246 0.88984 0.0
C2628 C 0.30026 0.50823 0.85893 0.0
C2629 C 0.29985 0.49054 0.84082 0.0
C2630 C 0.3788 0.48031 0.89017 0.0
C2631 C 0.33744 0.49193 0.87472 0.0
C2632 C 0.39631 0.48115 0.90834 0.0
C2633 C 0.39154 0.49279 0.93038 0.0
C2634 C 0.35644 0.49159 0.89379 0.0
C2635 C 0.36871 0.50325 0.93349 0.0
C2636 C 0.31878 0.50891 0.87583 0.0
C2637 C 0.3194 0.47449 0.83953 0.0
N2638 N 0.35217 0.50258 0.91538 0.0
N2639 N 0.3374 0.47548 0.85637 0.0
H2640 H 0.43274 0.35153 0.81812 0.0
H2641 H 0.47893 0.38798 0.95033 0.0
H2642 H 0.47772 0.30709 0.8632 0.0
H2643 H 0.45227 0.44148 0.90067 0.0
H2644 H 0.47497 0.35754 0.91894 0.0
H2645 H 0.43694 0.38457 0.84783 0.0
C2646 C 0.44365 0.3488 0.83404 0.0
C2647 C 0.45459 0.32635 0.83829 0.0
C2648 C 0.47005 0.37595 0.9148 0.0
C2649 C 0.45924 0.36378 0.87237 0.0
C2650 C 0.47226 0.39341 0.93283 0.0
C2651 C 0.46616 0.41752 0.92825 0.0
C2652 C 0.46141 0.38236 0.89185 0.0
C2653 C 0.45749 0.42322 0.90505 0.0
C2654 C 0.44595 0.36757 0.85105 0.0
C2655 C 0.46853 0.32386 0.85931 0.0
N2656 N 0.45531 0.40581 0.88778 0.0
N2657 N 0.47025 0.3421 0.87549 0.0
H2658 H 0.6604 0.5191 0.86779 0.0
H2659 H 0.5234 0.48475 0.89915 0.0
H2660 H 0.61664 0.47656 0.8198 0.0
H2661 H 0.57529 0.50995 0.95123 0.0
H2662 H 0.55487 0.48609 0.86804 0.0
H2663 H 0.62682 0.52115 0.89606 0.0
C2664 C 0.64361 0.51031 0.86308 0.0
C2665 C 0.64156 0.49731 0.84144 0.0
C2666 C 0.55931 0.49135 0.88627 0.0
C2667 C 0.60267 0.49966 0.87405 0.0
C2668 C 0.54134 0.49065 0.90409 0.0
C2669 C 0.5466 0.49717 0.92802 0.0
C2670 C 0.58272 0.49895 0.89225 0.0
C2671 C 0.57028 0.50458 0.93318 0.0
C2672 C 0.62441 0.51146 0.87932 0.0
C2673 C 0.6191 0.48677 0.83621 0.0
N2674 N 0.58732 0.50532 0.91551 0.0
N2675 N 0.60059 0.488 0.85248 0.0
H2676 H 0.47566 0.30216 0.14836 0.0
H2677 H 0.46304 0.44175 0.1141 0.0
H2678 H 0.46224 0.35751 0.201 0.0
H2679 H 0.47095 0.38517 0.06138 0.0
H2680 H 0.461 0.41136 0.14579 0.0
H2681 H 0.47145 0.33203 0.11627 0.0
C2682 C 0.47135 0.32059 0.15312 0.0
C2683 C 0.46921 0.32732 0.17743 0.0
C2684 C 0.46308 0.40556 0.1273 0.0
C2685 C 0.46491 0.36196 0.14062 0.0
C2686 C 0.46435 0.42296 0.10907 0.0
C2687 C 0.46733 0.41619 0.08479 0.0
C2688 C 0.46489 0.38102 0.12146 0.0
C2689 C 0.46872 0.39141 0.0797 0.0
C2690 C 0.46909 0.3377 0.13477 0.0
C2691 C 0.46378 0.35149 0.18254 0.0
N2692 N 0.46761 0.37483 0.09781 0.0
N2693 N 0.46209 0.36797 0.16432 0.0
H2694 H 0.61117 0.47865 0.19906 0.0
H2695 H 0.57825 0.50072 0.05972 0.0
H2696 H 0.66195 0.50218 0.14506 0.0
H2697 H 0.52411 0.48675 0.11389 0.0
H2698 H 0.60909 0.50009 0.09104 0.0
H2699 H 0.57883 0.48096 0.16872 0.0
C2700 C 0.61554 0.48437 0.18093 0.0
C2701 C 0.6395 0.48973 0.17461 0.0
C2702 C 0.59046 0.4972 0.09613 0.0
C2703 C 0.60262 0.49231 0.13973 0.0
C2704 C 0.57277 0.49749 0.07816 0.0
C2705 C 0.54838 0.49378 0.08398 0.0
C2706 C 0.58394 0.49302 0.12028 0.0
C2707 C 0.5426 0.48977 0.10839 0.0
C2708 C 0.59709 0.48559 0.16358 0.0
C2709 C 0.64397 0.49713 0.15075 0.0
N2710 N 0.56019 0.48942 0.12556 0.0
N2711 N 0.62586 0.49804 0.13431 0.0
H2712 H 0.45109 0.68051 0.15871 0.0
H2713 H 0.45599 0.60011 0.06243 0.0
H2714 H 0.50296 0.63285 0.19112 0.0
H2715 H 0.47941 0.54715 0.11423 0.0
H2716 H 0.45508 0.63033 0.09436 0.0
H2717 H 0.44195 0.64938 0.12863 0.0
C2718 C 0.45998 0.66318 0.15993 0.0
C2719 C 0.47757 0.65914 0.17763 0.0
C2720 C 0.45999 0.61203 0.09893 0.0
C2721 C 0.46832 0.62382 0.14243 0.0
C2722 C 0.46078 0.59473 0.08054 0.0
C2723 C 0.4678 0.57089 0.08547 0.0
C2724 C 0.46653 0.60565 0.12258 0.0
C2725 C 0.47382 0.5652 0.10943 0.0
C2726 C 0.45521 0.64558 0.1424 0.0
C2727 C 0.48904 0.63656 0.17798 0.0
N2728 N 0.47334 0.58245 0.12692 0.0
N2729 N 0.48432 0.61986 0.16062 0.0
H2730 H 0.30271 0.44918 0.17042 0.0
H2731 H 0.41383 0.51696 0.10855 0.0
H2732 H 0.32215 0.52145 0.19056 0.0
H2733 H 0.37086 0.46397 0.07149 0.0
H2734 H 0.38588 0.51508 0.14277 0.0
H2735 H 0.33405 0.44977 0.13923 0.0
C2736 C 0.3143 0.46483 0.16892 0.0
C2737 C 0.31023 0.48507 0.18355 0.0
C2738 C 0.38257 0.50387 0.12716 0.0
C2739 C 0.34569 0.48619 0.14725 0.0
C2740 C 0.39851 0.50488 0.10759 0.0
C2741 C 0.39472 0.49058 0.08702 0.0
C2742 C 0.3629 0.488 0.12655 0.0
C2743 C 0.37445 0.47542 0.08684 0.0
C2744 C 0.33186 0.46532 0.1508 0.0
C2745 C 0.32513 0.50524 0.18015 0.0
N2746 N 0.35947 0.47435 0.10637 0.0
N2747 N 0.34219 0.50531 0.16235 0.0
H2748 H 0.78238 0.46198 0.65062 0.0
H2749 H 0.91217 0.50978 0.61291 0.0
H2750 H 0.82129 0.51484 0.6918 0.0
H2751 H 0.86317 0.47943 0.56079 0.0
H2752 H 0.87931 0.51043 0.64246 0.0
H2753 H 0.81093 0.46785 0.61714 0.0
C2754 C 0.79631 0.47557 0.65218 0.0
C2755 C 0.79913 0.48841 0.67374 0.0
C2756 C 0.87571 0.50374 0.62451 0.0
C2757 C 0.8327 0.49418 0.63621 0.0
C2758 C 0.89455 0.50318 0.60767 0.0
C2759 C 0.89055 0.49448 0.58428 0.0
C2760 C 0.8527 0.49515 0.61816 0.0
C2761 C 0.86717 0.48637 0.57856 0.0
C2762 C 0.81283 0.47866 0.63324 0.0
C2763 C 0.81815 0.50504 0.67524 0.0
N2764 N 0.84925 0.4867 0.59539 0.0
N2765 N 0.83439 0.50716 0.65696 0.0
H2766 H 0.43565 0.80453 0.64407 0.0
H2767 H 0.48647 0.93396 0.60774 0.0
H2768 H 0.49232 0.84049 0.68291 0.0
H2769 H 0.45352 0.8875 0.55494 0.0
H2770 H 0.48579 0.90062 0.63662 0.0
H2771 H 0.43984 0.83456 0.61148 0.0
C2772 C 0.44949 0.81824 0.64535 0.0
C2773 C 0.46396 0.8198 0.666 0.0
C2774 C 0.47879 0.89768 0.61868 0.0
C2775 C 0.46807 0.85479 0.62954 0.0
C2776 C 0.47904 0.9168 0.6022 0.0
C2777 C 0.47011 0.91363 0.57877 0.0
C2778 C 0.46913 0.87521 0.61196 0.0
C2779 C 0.46077 0.89081 0.57271 0.0
C2780 C 0.45169 0.83554 0.62693 0.0
C2781 C 0.48106 0.83844 0.66712 0.0
N2782 N 0.46034 0.87258 0.5892 0.0
N2783 N 0.48242 0.8553 0.6494 0.0
H2784 H 0.16528 0.48298 0.64384 0.0
H2785 H 0.02466 0.505 0.61488 0.0
H2786 H 0.11587 0.51852 0.69218 0.0
H2787 H 0.07633 0.48301 0.56099 0.0
H2788 H 0.05707 0.50552 0.64477 0.0
H2789 H 0.13215 0.47813 0.61472 0.0
C2790 C 0.14748 0.4896 0.64841 0.0
C2791 C 0.14351 0.50149 0.67038 0.0
C2792 C 0.06131 0.50055 0.6264 0.0
C2793 C 0.10545 0.49596 0.63719 0.0
C2794 C 0.04275 0.50022 0.60927 0.0
C2795 C 0.04764 0.4942 0.58518 0.0
C2796 C 0.08505 0.49464 0.61958 0.0
C2797 C 0.07159 0.48806 0.57921 0.0
C2798 C 0.12859 0.48695 0.63174 0.0
C2799 C 0.11998 0.50968 0.6753 0.0
N2800 N 0.08931 0.48846 0.59621 0.0
N2801 N 0.10197 0.50681 0.65891 0.0
H2802 H 0.48527 0.13921 0.69404 0.0
H2803 H 0.45474 0.09955 0.55881 0.0
H2804 H 0.45306 0.18724 0.64227 0.0
H2805 H 0.47657 0.0492 0.61382 0.0
H2806 H 0.45426 0.13164 0.58879 0.0
H2807 H 0.48233 0.10631 0.665 0.0
C2808 C 0.47756 0.14288 0.67652 0.0
C2809 C 0.46965 0.16625 0.67059 0.0
C2810 C 0.45908 0.11359 0.59438 0.0
C2811 C 0.46617 0.12824 0.63696 0.0
C2812 C 0.45946 0.09512 0.5772 0.0
C2813 C 0.46586 0.0714 0.5836 0.0
C2814 C 0.46532 0.10861 0.61836 0.0
C2815 C 0.47152 0.06707 0.6079 0.0
C2816 C 0.47579 0.12397 0.65994 0.0
C2817 C 0.45939 0.16962 0.64771 0.0
N2818 N 0.47128 0.08546 0.62427 0.0
N2819 N 0.45816 0.15094 0.6317 0.0
H2820 H 0.81752 0.47197 0.32448 0.0
H2821 H 0.86458 0.50939 0.45555 0.0
H2822 H 0.78221 0.52533 0.36828 0.0
H2823 H 0.91064 0.47677 0.402 0.0
H2824 H 0.83149 0.50957 0.42662 0.0
H2825 H 0.84828 0.46691 0.35588 0.0
C2826 C 0.81576 0.48193 0.34116 0.0
C2827 C 0.79696 0.49862 0.34411 0.0
C2828 C 0.84881 0.50234 0.42118 0.0
C2829 C 0.83252 0.49358 0.37977 0.0
C2830 C 0.86779 0.50217 0.43772 0.0
C2831 C 0.89061 0.49306 0.43128 0.0
C2832 C 0.85234 0.49303 0.39797 0.0
C2833 C 0.89349 0.48412 0.40778 0.0
C2834 C 0.83353 0.47936 0.35888 0.0
C2835 C 0.79605 0.51183 0.36561 0.0
N2836 N 0.87458 0.48423 0.39204 0.0
N2837 N 0.81358 0.50905 0.3826 0.0
H2838 H 0.47048 0.80048 0.36538 0.0
H2839 H 0.46255 0.94223 0.39482 0.0
H2840 H 0.46355 0.85583 0.31149 0.0
H2841 H 0.46841 0.88752 0.44975 0.0
H2842 H 0.46036 0.91051 0.36435 0.0
H2843 H 0.46618 0.83147 0.39686 0.0
C2844 C 0.46742 0.81903 0.36018 0.0
C2845 C 0.46735 0.82556 0.33577 0.0
C2846 C 0.46205 0.90542 0.38308 0.0
C2847 C 0.46303 0.86124 0.37161 0.0
C2848 C 0.46338 0.92361 0.40056 0.0
C2849 C 0.4658 0.91776 0.42506 0.0
C2850 C 0.46319 0.88104 0.38998 0.0
C2851 C 0.46664 0.89311 0.43118 0.0
C2852 C 0.46525 0.83679 0.37814 0.0
C2853 C 0.46376 0.85 0.33009 0.0
N2854 N 0.46543 0.87577 0.41383 0.0
N2855 N 0.46196 0.86687 0.34777 0.0
H2856 H 0.15112 0.51036 0.35178 0.0
H2857 H 0.0289 0.46458 0.40685 0.0
H2858 H 0.13481 0.43416 0.35212 0.0
H2859 H 0.07359 0.51092 0.45012 0.0
H2860 H 0.06282 0.45908 0.37874 0.0
H2861 H 0.11887 0.51652 0.38136 0.0
C2862 C 0.14113 0.49483 0.35801 0.0
C2863 C 0.14593 0.47165 0.34873 0.0
C2864 C 0.06509 0.47052 0.39436 0.0
C2865 C 0.10798 0.47908 0.38198 0.0
C2866 C 0.04575 0.4737 0.41036 0.0
C2867 C 0.04845 0.48792 0.43107 0.0
C2868 C 0.08706 0.48242 0.39855 0.0
C2869 C 0.07075 0.49957 0.43454 0.0
C2870 C 0.12249 0.49851 0.3748 0.0
C2871 C 0.13162 0.45254 0.35767 0.0
N2872 N 0.0891 0.49676 0.41836 0.0
N2873 N 0.11317 0.45675 0.37335 0.0
H2874 H 0.4768 0.19447 0.37913 0.0
H2875 H 0.46027 0.05233 0.39822 0.0
H2876 H 0.46598 0.14509 0.32046 0.0
H2877 H 0.46553 0.10365 0.45636 0.0
H2878 H 0.45881 0.08592 0.36956 0.0
H2879 H 0.46823 0.16188 0.40767 0.0
C2880 C 0.4717 0.17694 0.37228 0.0
C2881 C 0.47153 0.17262 0.3474 0.0
C2882 C 0.46017 0.0898 0.38861 0.0
C2883 C 0.46289 0.13471 0.37999 0.0
C2884 C 0.4611 0.07058 0.40505 0.0
C2885 C 0.46328 0.07494 0.42991 0.0
C2886 C 0.46162 0.1137 0.39696 0.0
C2887 C 0.46401 0.09915 0.43747 0.0
C2888 C 0.46714 0.15819 0.38856 0.0
C2889 C 0.46571 0.1493 0.33949 0.0
N2890 N 0.46337 0.11745 0.42114 0.0
N2891 N 0.46192 0.13118 0.35568 0.0
H2892 H 0.62444 0.81193 0.48208 0.0
H2893 H 0.57527 0.94196 0.51999 0.0
H2894 H 0.65571 0.85524 0.53842 0.0
H2895 H 0.52763 0.88941 0.48827 0.0
H2896 H 0.60678 0.91126 0.52242 0.0
H2897 H 0.5899 0.84006 0.48068 0.0
C2898 C 0.62396 0.82707 0.49435 0.0
C2899 C 0.64338 0.83132 0.51008 0.0
C2900 C 0.58943 0.90639 0.51492 0.0
C2901 C 0.60421 0.8639 0.50816 0.0
C2902 C 0.57142 0.92401 0.51338 0.0
C2903 C 0.54861 0.9184 0.50392 0.0
C2904 C 0.58499 0.88287 0.50659 0.0
C2905 C 0.54484 0.89462 0.49582 0.0
C2906 C 0.60432 0.84323 0.49342 0.0
C2907 C 0.64163 0.85143 0.52549 0.0
N2908 N 0.56283 0.87781 0.49718 0.0
N2909 N 0.62274 0.86698 0.52391 0.0
H2910 H 0.65293 0.14005 0.47649 0.0
H2911 H 0.51943 0.10267 0.51663 0.0
H2912 H 0.60883 0.18672 0.52034 0.0
H2913 H 0.57298 0.05254 0.49064 0.0
H2914 H 0.54956 0.13497 0.51476 0.0
H2915 H 0.62136 0.10972 0.47753 0.0
C2916 C 0.63658 0.14394 0.48647 0.0
C2917 C 0.63387 0.16588 0.49886 0.0
C2918 C 0.55468 0.11689 0.50951 0.0
C2919 C 0.5971 0.13092 0.49976 0.0
C2920 C 0.53748 0.09839 0.5105 0.0
C2921 C 0.54358 0.07468 0.50379 0.0
C2922 C 0.57815 0.11182 0.50143 0.0
C2923 C 0.56735 0.07038 0.49612 0.0
C2924 C 0.61848 0.12653 0.48699 0.0
C2925 C 0.61182 0.17005 0.51068 0.0
N2926 N 0.58362 0.08872 0.49506 0.0
N2927 N 0.59432 0.15267 0.51096 0.0
H2928 H 0.82337 0.67671 0.47027 0.0
H2929 H 0.86527 0.54996 0.52503 0.0
H2930 H 0.79275 0.64922 0.53598 0.0
H2931 H 0.9118 0.59631 0.48345 0.0
H2932 H 0.83362 0.58095 0.52341 0.0
H2933 H 0.84975 0.64137 0.46805 0.0
C2934 C 0.82146 0.66266 0.48369 0.0
C2935 C 0.80546 0.66573 0.50309 0.0
C2936 C 0.85073 0.58426 0.5146 0.0
C2937 C 0.83632 0.62545 0.50111 0.0
C2938 C 0.86884 0.56658 0.51545 0.0
C2939 C 0.89139 0.5705 0.50444 0.0
C2940 C 0.85488 0.60587 0.50212 0.0
C2941 C 0.89486 0.59249 0.49238 0.0
C2942 C 0.83686 0.64272 0.48266 0.0
C2943 C 0.80438 0.64732 0.52043 0.0
N2944 N 0.87682 0.60919 0.49142 0.0
N2945 N 0.81971 0.62804 0.51913 0.0
H2946 H 0.29541 0.83454 0.47005 0.0
H2947 H 0.41648 0.89036 0.52456 0.0
H2948 H 0.32611 0.80814 0.53612 0.0
H2949 H 0.36709 0.93116 0.48062 0.0
H2950 H 0.38817 0.85649 0.52427 0.0
H2951 H 0.32686 0.86548 0.4681 0.0
C2952 C 0.30937 0.83474 0.4837 0.0
C2953 C 0.30848 0.81841 0.503 0.0
C2954 C 0.38355 0.87283 0.51468 0.0
C2955 C 0.34419 0.85432 0.50128 0.0
C2956 C 0.39971 0.89221 0.51475 0.0
C2957 C 0.39422 0.91374 0.50253 0.0
C2958 C 0.36184 0.87466 0.50186 0.0
C2959 C 0.37208 0.91503 0.49036 0.0
C2960 C 0.32705 0.85266 0.48279 0.0
C2961 C 0.3265 0.81999 0.52065 0.0
N2962 N 0.35683 0.89572 0.49016 0.0
N2963 N 0.34362 0.83767 0.5194 0.0
H2964 H 0.1093 0.30304 0.53838 0.0
H2965 H 0.07681 0.43887 0.5017 0.0
H2966 H 0.1623 0.35282 0.51107 0.0
H2967 H 0.02349 0.38551 0.5207 0.0
H2968 H 0.10816 0.40797 0.50445 0.0
H2969 H 0.07778 0.33288 0.53106 0.0
C2970 C 0.1143 0.32023 0.53061 0.0
C2971 C 0.1386 0.3254 0.52545 0.0
C2972 C 0.0896 0.40298 0.50791 0.0
C2973 C 0.1023 0.36005 0.51715 0.0
C2974 C 0.07159 0.42068 0.50643 0.0
C2975 C 0.04726 0.41497 0.51102 0.0
C2976 C 0.08345 0.37926 0.51423 0.0
C2977 C 0.04186 0.39092 0.51693 0.0
C2978 C 0.09623 0.33731 0.52644 0.0
C2979 C 0.14385 0.34796 0.51522 0.0
N2980 N 0.05974 0.3741 0.51848 0.0
N2981 N 0.12592 0.36452 0.51165 0.0
H2982 H 0.27966 0.14734 0.51358 0.0
H2983 H 0.35832 0.04767 0.5071 0.0
H2984 H 0.34118 0.18474 0.54242 0.0
H2985 H 0.41521 0.09989 0.51621 0.0
H2986 H 0.32866 0.08028 0.51009 0.0
H2987 H 0.30597 0.11333 0.50295 0.0
C2988 C 0.29883 0.14862 0.51711 0.0
C2989 C 0.30823 0.16901 0.52877 0.0
C2990 C 0.34761 0.08473 0.51106 0.0
C2991 C 0.33851 0.1296 0.51771 0.0
C2992 C 0.36463 0.06595 0.50962 0.0
C2993 C 0.38947 0.0708 0.51142 0.0
C2994 C 0.3554 0.10869 0.51441 0.0
C2995 C 0.39638 0.09501 0.51463 0.0
C2996 C 0.31384 0.12893 0.51152 0.0
C2997 C 0.33315 0.16946 0.53335 0.0
N2998 N 0.37955 0.11282 0.51616 0.0
N2999 N 0.34729 0.15012 0.52793 0.0
H3000 H 0.77317 0.3646 0.48036 0.0
H3001 H 0.91081 0.38602 0.51834 0.0
H3002 H 0.81616 0.31016 0.51496 0.0
H3003 H 0.86219 0.44357 0.49888 0.0
H3004 H 0.87662 0.35787 0.51738 0.0
H3005 H 0.80519 0.39417 0.48817 0.0
C3006 C 0.789 0.35913 0.4904 0.0
C3007 C 0.79177 0.33512 0.49763 0.0
C3008 C 0.87347 0.37671 0.51346 0.0
C3009 C 0.82913 0.36843 0.50551 0.0
C3010 C 0.89305 0.39279 0.51389 0.0
C3011 C 0.88959 0.41732 0.50866 0.0
C3012 C 0.85024 0.38511 0.50753 0.0
C3013 C 0.86597 0.42492 0.50311 0.0
C3014 C 0.80745 0.37589 0.49457 0.0
C3015 C 0.8131 0.32869 0.50968 0.0
N3016 N 0.84738 0.40894 0.50256 0.0
N3017 N 0.83104 0.34512 0.51299 0.0
H3018 H 0.16702 0.62775 0.50139 0.0
H3019 H 0.02452 0.59987 0.49582 0.0
H3020 H 0.1129 0.68005 0.48194 0.0
H3021 H 0.07798 0.54535 0.51079 0.0
H3022 H 0.05677 0.62968 0.49234 0.0
H3023 H 0.1349 0.59765 0.50693 0.0
C3024 C 0.14845 0.63295 0.49836 0.0
C3025 C 0.14283 0.65647 0.49082 0.0
C3026 C 0.06148 0.61121 0.49646 0.0
C3027 C 0.10586 0.62206 0.49715 0.0
C3028 C 0.04298 0.59411 0.49852 0.0
C3029 C 0.04834 0.5699 0.50365 0.0
C3030 C 0.08568 0.60424 0.49964 0.0
C3031 C 0.07281 0.56371 0.50677 0.0
C3032 C 0.1301 0.61573 0.50142 0.0
C3033 C 0.11831 0.66207 0.48719 0.0
N3034 N 0.09047 0.5807 0.50473 0.0
N3035 N 0.10089 0.6451 0.49033 0.0
loop_
_geom_bond_atom_site_label_1
_geom_bond_atom_site_label_2
_geom_bond_distance
_geom_bond_site_symmetry_2
_ccdc_geom_bond_type
C0 C1 1.391 . S
C0 C4 1.391 . S
C0 H42 0.948 . S
C1 C0 1.391 . S
C1 C2 1.391 . S
C2 C1 1.391 . S
C2 H58 0.947 . S
C2 C59 1.392 . S
C3 C4 1.391 . S
C3 C7 1.396 1_655 S
C3 C59 1.419 . S
C4 C0 1.391 . S
C4 C3 1.391 . S
C4 C5 1.399 . S
C5 C4 1.399 . S
C5 C8 1.396 1_655 S
C5 C17 1.453 1_655 S
C5 C18 1.684 . S
H6 C30 0.948 . S
C7 C3 1.396 1_455 S
C7 C8 1.395 . S
C7 C26 1.723 . S
C8 C5 1.396 1_455 S
C8 C7 1.395 . S
C8 C38 1.723 . S
H9 C32 0.947 . S
H10 C33 0.948 . S
H11 C39 0.982 . S
H12 C40 0.979 . S
H13 C40 0.980 . S
H14 C40 0.983 . S
H15 C39 0.979 . S
H16 C39 0.977 . S
C17 C5 1.453 1_455 S
C17 H46 0.982 . S
C17 H47 0.979 . S
C17 H48 0.977 . S
C18 C5 1.684 . S
C18 H43 0.979 . S
C18 H44 0.980 . S
C18 H45 0.983 . S
C19 C20 1.391 . S
C19 C24 1.391 . S
C19 H49 0.948 . S
C20 C19 1.391 . S
C20 C21 1.391 . S
C21 C20 1.391 . S
C21 C22 1.392 . S
C21 H50 0.947 . S
C22 C21 1.392 . S
C22 C23 1.419 . S
C22 H51 0.948 . S
C23 C22 1.419 . S
C23 C24 1.391 . S
C23 C27 1.396 1_655 S
C24 C19 1.391 . S
C24 C23 1.391 . S
C24 C25 1.399 . S
C25 C24 1.399 . S
C25 C26 1.396 1_655 S
C25 C28 1.453 1_655 S
C25 C29 1.684 . S
C26 C7 1.723 . S
C26 C25 1.396 1_455 S
C26 C27 1.395 . S
C27 C23 1.396 1_455 S
C27 C26 1.395 . S
C27 C37 1.723 . S
C28 C25 1.453 1_455 S
C28 H52 0.982 . S
C28 H53 0.979 . S
C28 H54 0.977 . S
C29 C25 1.684 . S
C29 H55 0.979 . S
C29 H56 0.980 . S
C29 H57 0.983 . S
C30 H6 0.948 . S
C30 C31 1.391 . S
C30 C35 1.391 . S
C31 C30 1.391 . S
C31 C32 1.391 . S
C32 H9 0.947 . S
C32 C31 1.391 . S
C32 C33 1.392 . S
C33 H10 0.948 . S
C33 C32 1.392 . S
C33 C34 1.419 . S
C34 C33 1.419 . S
C34 C35 1.391 . S
C34 C38 1.396 1_655 S
C35 C30 1.391 . S
C35 C34 1.391 . S
C35 C36 1.399 . S
C36 C35 1.399 . S
C36 C37 1.396 1_655 S
C36 C39 1.453 1_655 S
C36 C40 1.684 . S
C37 C27 1.723 . S
C37 C36 1.396 1_455 S
C37 C38 1.395 . S
C38 C8 1.723 . S
C38 C34 1.396 1_455 S
C38 C37 1.395 . S
C39 H11 0.982 . S
C39 H15 0.979 . S
C39 H16 0.977 . S
C39 C36 1.453 1_455 S
C40 H12 0.979 . S
C40 H13 0.980 . S
C40 H14 0.983 . S
C40 C36 1.684 . S
H41 C59 0.948 . S
H42 C0 0.948 . S
H43 C18 0.979 . S
H44 C18 0.980 . S
H45 C18 0.983 . S
H46 C17 0.982 . S
H47 C17 0.979 . S
H48 C17 0.977 . S
H49 C19 0.948 . S
H50 C21 0.947 . S
H51 C22 0.948 . S
H52 C28 0.982 . S
H53 C28 0.979 . S
H54 C28 0.977 . S
H55 C29 0.979 . S
H56 C29 0.980 . S
H57 C29 0.983 . S
H58 C2 0.947 . S
C59 C2 1.392 . S
C59 C3 1.419 . S
C59 H41 0.948 . S
C60 C61 1.391 . S
C60 C64 1.391 . S
C60 H102 0.948 . S
C61 C60 1.391 . S
C61 C62 1.391 . S
C62 C61 1.391 . S
C62 H118 0.947 . S
C62 C119 1.392 . S
C63 C64 1.391 . S
C63 C67 1.397 1_545 S
C63 C119 1.419 . S
C64 C60 1.391 . S
C64 C63 1.391 . S
C64 C65 1.399 . S
C65 C64 1.399 . S
C65 C68 1.396 1_545 S
C65 C77 1.453 1_545 S
C65 C78 1.684 . S
H66 C90 0.948 . S
C67 C63 1.397 1_565 S
C67 C68 1.394 . S
C67 C86 1.723 . S
C68 C65 1.396 1_565 S
C68 C67 1.394 . S
C68 C98 1.723 . S
H69 C92 0.947 . S
H70 C93 0.948 . S
H71 C99 0.982 . S
H72 C100 0.979 . S
H73 C100 0.980 . S
H74 C100 0.983 . S
H75 C99 0.979 . S
H76 C99 0.977 . S
C77 C65 1.453 1_565 S
C77 H106 0.982 . S
C77 H107 0.979 . S
C77 H108 0.977 . S
C78 C65 1.684 . S
C78 H103 0.979 . S
C78 H104 0.980 . S
C78 H105 0.983 . S
C79 C80 1.391 . S
C79 C84 1.391 . S
C79 H109 0.948 . S
C80 C79 1.391 . S
C80 C81 1.391 . S
C81 C80 1.391 . S
C81 C82 1.392 . S
C81 H110 0.947 . S
C82 C81 1.392 . S
C82 C83 1.419 . S
C82 H111 0.948 . S
C83 C82 1.419 . S
C83 C84 1.391 . S
C83 C87 1.397 1_545 S
C84 C79 1.391 . S
C84 C83 1.391 . S
C84 C85 1.399 . S
C85 C84 1.399 . S
C85 C86 1.396 1_545 S
C85 C88 1.453 1_545 S
C85 C89 1.684 . S
C86 C67 1.723 . S
C86 C85 1.396 1_565 S
C86 C87 1.394 . S
C87 C83 1.397 1_565 S
C87 C86 1.394 . S
C87 C97 1.723 . S
C88 C85 1.453 1_565 S
C88 H112 0.982 . S
C88 H113 0.979 . S
C88 H114 0.977 . S
C89 C85 1.684 . S
C89 H115 0.979 . S
C89 H116 0.980 . S
C89 H117 0.983 . S
C90 H66 0.948 . S
C90 C91 1.391 . S
C90 C95 1.391 . S
C91 C90 1.391 . S
C91 C92 1.391 . S
C92 H69 0.947 . S
C92 C91 1.391 . S
C92 C93 1.392 . S
C93 H70 0.948 . S
C93 C92 1.392 . S
C93 C94 1.419 . S
C94 C93 1.419 . S
C94 C95 1.391 . S
C94 C98 1.397 1_545 S
C95 C90 1.391 . S
C95 C94 1.391 . S
C95 C96 1.399 . S
C96 C95 1.399 . S
C96 C97 1.396 1_545 S
C96 C99 1.453 1_545 S
C96 C100 1.684 . S
C97 C87 1.723 . S
C97 C96 1.396 1_565 S
C97 C98 1.394 . S
C98 C68 1.723 . S
C98 C94 1.397 1_565 S
C98 C97 1.394 . S
C99 H71 0.982 . S
C99 H75 0.979 . S
C99 H76 0.977 . S
C99 C96 1.453 1_565 S
C100 H72 0.979 . S
C100 H73 0.980 . S
C100 H74 0.983 . S
C100 C96 1.684 . S
H101 C119 0.948 . S
H102 C60 0.948 . S
H103 C78 0.979 . S
H104 C78 0.980 . S
H105 C78 0.983 . S
H106 C77 0.982 . S
H107 C77 0.979 . S
H108 C77 0.977 . S
H109 C79 0.948 . S
H110 C81 0.947 . S
H111 C82 0.948 . S
H112 C88 0.982 . S
H113 C88 0.979 . S
H114 C88 0.977 . S
H115 C89 0.979 . S
H116 C89 0.980 . S
H117 C89 0.983 . S
H118 C62 0.947 . S
C119 C62 1.392 . S
C119 C63 1.419 . S
C119 H101 0.948 . S
C120 C121 1.391 . S
C120 C124 1.391 . S
C120 H162 0.948 . S
C121 C120 1.391 . S
C121 C122 1.391 . S
C122 C121 1.391 . S
C122 H178 0.947 . S
C122 C179 1.392 . S
C123 C124 1.391 . S
C123 C127 1.396 1_655 S
C123 C179 1.419 . S
C124 C120 1.391 . S
C124 C123 1.391 . S
C124 C125 1.399 . S
C125 C124 1.399 . S
C125 C128 1.396 1_655 S
C125 C137 1.453 1_655 S
C125 C138 1.684 . S
H126 C150 0.948 . S
C127 C123 1.396 1_455 S
C127 C128 1.395 . S
C127 C146 1.723 . S
C128 C125 1.396 1_455 S
C128 C127 1.395 . S
C128 C158 1.723 . S
H129 C152 0.947 . S
H130 C153 0.948 . S
H131 C159 0.982 . S
H132 C160 0.979 . S
H133 C160 0.980 . S
H134 C160 0.983 . S
H135 C159 0.979 . S
H136 C159 0.977 . S
C137 C125 1.453 1_455 S
C137 H166 0.982 . S
C137 H167 0.979 . S
C137 H168 0.977 . S
C138 C125 1.684 . S
C138 H163 0.979 . S
C138 H164 0.980 . S
C138 H165 0.983 . S
C139 C140 1.391 . S
C139 C144 1.391 . S
C139 H169 0.948 . S
C140 C139 1.391 . S
C140 C141 1.391 . S
C141 C140 1.391 . S
C141 C142 1.392 . S
C141 H170 0.947 . S
C142 C141 1.392 . S
C142 C143 1.419 . S
C142 H171 0.948 . S
C143 C142 1.419 . S
C143 C144 1.391 . S
C143 C147 1.396 1_655 S
C144 C139 1.391 . S
C144 C143 1.391 . S
C144 C145 1.399 . S
C145 C144 1.399 . S
C145 C146 1.396 1_655 S
C145 C148 1.453 1_655 S
C145 C149 1.684 . S
C146 C127 1.723 . S
C146 C145 1.396 1_455 S
C146 C147 1.395 . S
C147 C143 1.396 1_455 S
C147 C146 1.395 . S
C147 C157 1.723 . S
C148 C145 1.453 1_455 S
C148 H172 0.982 . S
C148 H173 0.979 . S
C148 H174 0.977 . S
C149 C145 1.684 . S
C149 H175 0.979 . S
C149 H176 0.980 . S
C149 H177 0.983 . S
C150 H126 0.948 . S
C150 C151 1.391 . S
C150 C155 1.391 . S
C151 C150 1.391 . S
C151 C152 1.391 . S
C152 H129 0.947 . S
C152 C151 1.391 . S
C152 C153 1.392 . S
C153 H130 0.948 . S
C153 C152 1.392 . S
C153 C154 1.419 . S
C154 C153 1.419 . S
C154 C155 1.391 . S
C154 C158 1.396 1_655 S
C155 C150 1.391 . S
C155 C154 1.391 . S
C155 C156 1.399 . S
C156 C155 1.399 . S
C156 C157 1.396 1_655 S
C156 C159 1.453 1_655 S
C156 C160 1.684 . S
C157 C147 1.723 . S
C157 C156 1.396 1_455 S
C157 C158 1.395 . S
C158 C128 1.723 . S
C158 C154 1.396 1_455 S
C158 C157 1.395 . S
C159 H131 0.982 . S
C159 H135 0.979 . S
C159 H136 0.977 . S
C159 C156 1.453 1_455 S
C160 H132 0.979 . S
C160 H133 0.980 . S
C160 H134 0.983 . S
C160 C156 1.684 . S
H161 C179 0.948 . S
H162 C120 0.948 . S
H163 C138 0.979 . S
H164 C138 0.980 . S
H165 C138 0.983 . S
H166 C137 0.982 . S
H167 C137 0.979 . S
H168 C137 0.977 . S
H169 C139 0.948 . S
H170 C141 0.947 . S
H171 C142 0.948 . S
H172 C148 0.982 . S
H173 C148 0.979 . S
H174 C148 0.977 . S
H175 C149 0.979 . S
H176 C149 0.980 . S
H177 C149 0.983 . S
H178 C122 0.947 . S
C179 C122 1.392 . S
C179 C123 1.419 . S
C179 H161 0.948 . S
C180 C181 1.391 . S
C180 C184 1.391 . S
C180 H222 0.948 . S
C181 C180 1.391 . S
C181 C182 1.391 . S
C182 C181 1.391 . S
C182 H238 0.947 . S
C182 C239 1.392 . S
C183 C184 1.391 . S
C183 C187 1.397 1_545 S
C183 C239 1.419 . S
C184 C180 1.391 . S
C184 C183 1.391 . S
C184 C185 1.399 . S
C185 C184 1.399 . S
C185 C188 1.396 1_545 S
C185 C197 1.453 1_545 S
C185 C198 1.684 . S
H186 C210 0.948 . S
C187 C183 1.397 1_565 S
C187 C188 1.394 . S
C187 C206 1.723 . S
C188 C185 1.396 1_565 S
C188 C187 1.394 . S
C188 C218 1.723 . S
H189 C212 0.947 . S
H190 C213 0.948 . S
H191 C219 0.982 . S
H192 C220 0.979 . S
H193 C220 0.980 . S
H194 C220 0.983 . S
H195 C219 0.979 . S
H196 C219 0.977 . S
C197 C185 1.453 1_565 S
C197 H226 0.982 . S
C197 H227 0.979 . S
C197 H228 0.977 . S
C198 C185 1.684 . S
C198 H223 0.979 . S
C198 H224 0.980 . S
C198 H225 0.983 . S
C199 C200 1.391 . S
C199 C204 1.391 . S
C199 H229 0.948 . S
C200 C199 1.391 . S
C200 C201 1.391 . S
C201 C200 1.391 . S
C201 C202 1.392 . S
C201 H230 0.947 . S
C202 C201 1.392 . S
C202 C203 1.419 . S
C202 H231 0.948 . S
C203 C202 1.419 . S
C203 C204 1.391 . S
C203 C207 1.397 1_545 S
C204 C199 1.391 . S
C204 C203 1.391 . S
C204 C205 1.399 . S
C205 C204 1.399 . S
C205 C206 1.396 1_545 S
C205 C208 1.453 1_545 S
C205 C209 1.684 . S
C206 C187 1.723 . S
C206 C205 1.396 1_565 S
C206 C207 1.394 . S
C207 C203 1.397 1_565 S
C207 C206 1.394 . S
C207 C217 1.723 . S
C208 C205 1.453 1_565 S
C208 H232 0.982 . S
C208 H233 0.979 . S
C208 H234 0.977 . S
C209 C205 1.684 . S
C209 H235 0.979 . S
C209 H236 0.980 . S
C209 H237 0.983 . S
C210 H186 0.948 . S
C210 C211 1.391 . S
C210 C215 1.391 . S
C211 C210 1.391 . S
C211 C212 1.391 . S
C212 H189 0.947 . S
C212 C211 1.391 . S
C212 C213 1.392 . S
C213 H190 0.948 . S
C213 C212 1.392 . S
C213 C214 1.419 . S
C214 C213 1.419 . S
C214 C215 1.391 . S
C214 C218 1.397 1_545 S
C215 C210 1.391 . S
C215 C214 1.391 . S
C215 C216 1.399 . S
C216 C215 1.399 . S
C216 C217 1.396 1_545 S
C216 C219 1.453 1_545 S
C216 C220 1.684 . S
C217 C207 1.723 . S
C217 C216 1.396 1_565 S
C217 C218 1.394 . S
C218 C188 1.723 . S
C218 C214 1.397 1_565 S
C218 C217 1.394 . S
C219 H191 0.982 . S
C219 H195 0.979 . S
C219 H196 0.977 . S
C219 C216 1.453 1_565 S
C220 H192 0.979 . S
C220 H193 0.980 . S
C220 H194 0.983 . S
C220 C216 1.684 . S
H221 C239 0.948 . S
H222 C180 0.948 . S
H223 C198 0.979 . S
H224 C198 0.980 . S
H225 C198 0.983 . S
H226 C197 0.982 . S
H227 C197 0.979 . S
H228 C197 0.977 . S
H229 C199 0.948 . S
H230 C201 0.947 . S
H231 C202 0.948 . S
H232 C208 0.982 . S
H233 C208 0.979 . S
H234 C208 0.977 . S
H235 C209 0.979 . S
H236 C209 0.980 . S
H237 C209 0.983 . S
H238 C182 0.947 . S
C239 C182 1.392 . S
C239 C183 1.419 . S
C239 H221 0.948 . S
C240 C241 1.391 . S
C240 C244 1.391 . S
C240 H282 0.948 . S
C241 C240 1.391 . S
C241 C242 1.391 . S
C242 C241 1.391 . S
C242 H298 0.947 . S
C242 C299 1.392 . S
C243 C244 1.391 . S
C243 C247 1.396 1_655 S
C243 C299 1.419 . S
C244 C240 1.391 . S
C244 C243 1.391 . S
C244 C245 1.399 . S
C245 C244 1.399 . S
C245 C248 1.396 1_655 S
C245 C257 1.453 1_655 S
C245 C258 1.684 . S
H246 C270 0.948 . S
C247 C243 1.396 1_455 S
C247 C248 1.395 . S
C247 C266 1.723 . S
C248 C245 1.396 1_455 S
C248 C247 1.395 . S
C248 C278 1.723 . S
H249 C272 0.947 . S
H250 C273 0.948 . S
H251 C279 0.982 . S
H252 C280 0.979 . S
H253 C280 0.980 . S
H254 C280 0.983 . S
H255 C279 0.979 . S
H256 C279 0.977 . S
C257 C245 1.453 1_455 S
C257 H286 0.982 . S
C257 H287 0.979 . S
C257 H288 0.977 . S
C258 C245 1.684 . S
C258 H283 0.979 . S
C258 H284 0.980 . S
C258 H285 0.983 . S
C259 C260 1.391 . S
C259 C264 1.391 . S
C259 H289 0.948 . S
C260 C259 1.391 . S
C260 C261 1.391 . S
C261 C260 1.391 . S
C261 C262 1.392 . S
C261 H290 0.947 . S
C262 C261 1.392 . S
C262 C263 1.419 . S
C262 H291 0.948 . S
C263 C262 1.419 . S
C263 C264 1.391 . S
C263 C267 1.396 1_655 S
C264 C259 1.391 . S
C264 C263 1.391 . S
C264 C265 1.399 . S
C265 C264 1.399 . S
C265 C266 1.396 1_655 S
C265 C268 1.453 1_655 S
C265 C269 1.684 . S
C266 C247 1.723 . S
C266 C265 1.396 1_455 S
C266 C267 1.395 . S
C267 C263 1.396 1_455 S
C267 C266 1.395 . S
C267 C277 1.723 . S
C268 C265 1.453 1_455 S
C268 H292 0.982 . S
C268 H293 0.979 . S
C268 H294 0.977 . S
C269 C265 1.684 . S
C269 H295 0.979 . S
C269 H296 0.980 . S
C269 H297 0.983 . S
C270 H246 0.948 . S
C270 C271 1.391 . S
C270 C275 1.391 . S
C271 C270 1.391 . S
C271 C272 1.391 . S
C272 H249 0.947 . S
C272 C271 1.391 . S
C272 C273 1.392 . S
C273 H250 0.948 . S
C273 C272 1.392 . S
C273 C274 1.419 . S
C274 C273 1.419 . S
C274 C275 1.391 . S
C274 C278 1.396 1_655 S
C275 C270 1.391 . S
C275 C274 1.391 . S
C275 C276 1.399 . S
C276 C275 1.399 . S
C276 C277 1.396 1_655 S
C276 C279 1.453 1_655 S
C276 C280 1.684 . S
C277 C267 1.723 . S
C277 C276 1.396 1_455 S
C277 C278 1.395 . S
C278 C248 1.723 . S
C278 C274 1.396 1_455 S
C278 C277 1.395 . S
C279 H251 0.982 . S
C279 H255 0.979 . S
C279 H256 0.977 . S
C279 C276 1.453 1_455 S
C280 H252 0.979 . S
C280 H253 0.980 . S
C280 H254 0.983 . S
C280 C276 1.684 . S
H281 C299 0.948 . S
H282 C240 0.948 . S
H283 C258 0.979 . S
H284 C258 0.980 . S
H285 C258 0.983 . S
H286 C257 0.982 . S
H287 C257 0.979 . S
H288 C257 0.977 . S
H289 C259 0.948 . S
H290 C261 0.947 . S
H291 C262 0.948 . S
H292 C268 0.982 . S
H293 C268 0.979 . S
H294 C268 0.977 . S
H295 C269 0.979 . S
H296 C269 0.980 . S
H297 C269 0.983 . S
H298 C242 0.947 . S
C299 C242 1.392 . S
C299 C243 1.419 . S
C299 H281 0.948 . S
C300 C301 1.391 . S
C300 C304 1.391 . S
C300 H342 0.948 . S
C301 C300 1.391 . S
C301 C302 1.391 . S
C302 C301 1.391 . S
C302 H358 0.947 . S
C302 C359 1.392 . S
C303 C304 1.391 . S
C303 C307 1.396 1_565 S
C303 C359 1.419 . S
C304 C300 1.391 . S
C304 C303 1.391 . S
C304 C305 1.399 . S
C305 C304 1.399 . S
C305 C308 1.396 1_565 S
C305 C317 1.453 1_565 S
C305 C318 1.684 . S
H306 C330 0.948 . S
C307 C303 1.396 1_545 S
C307 C308 1.395 . S
C307 C326 1.723 . S
C308 C305 1.396 1_545 S
C308 C307 1.395 . S
C308 C338 1.723 . S
H309 C332 0.947 . S
H310 C333 0.948 . S
H311 C339 0.982 . S
H312 C340 0.979 . S
H313 C340 0.980 . S
H314 C340 0.983 . S
H315 C339 0.979 . S
H316 C339 0.977 . S
C317 C305 1.453 1_545 S
C317 H346 0.982 . S
C317 H347 0.979 . S
C317 H348 0.977 . S
C318 C305 1.684 . S
C318 H343 0.979 . S
C318 H344 0.980 . S
C318 H345 0.983 . S
C319 C320 1.391 . S
C319 C324 1.391 . S
C319 H349 0.948 . S
C320 C319 1.391 . S
C320 C321 1.391 . S
C321 C320 1.391 . S
C321 C322 1.392 . S
C321 H350 0.947 . S
C322 C321 1.392 . S
C322 C323 1.419 . S
C322 H351 0.948 . S
C323 C322 1.419 . S
C323 C324 1.391 . S
C323 C327 1.396 1_565 S
C324 C319 1.391 . S
C324 C323 1.391 . S
C324 C325 1.399 . S
C325 C324 1.399 . S
C325 C326 1.396 1_565 S
C325 C328 1.453 1_565 S
C325 C329 1.684 . S
C326 C307 1.723 . S
C326 C325 1.396 1_545 S
C326 C327 1.395 . S
C327 C323 1.396 1_545 S
C327 C326 1.395 . S
C327 C337 1.723 . S
C328 C325 1.453 1_545 S
C328 H352 0.982 . S
C328 H353 0.979 . S
C328 H354 0.977 . S
C329 C325 1.684 . S
C329 H355 0.979 . S
C329 H356 0.980 . S
C329 H357 0.983 . S
C330 H306 0.948 . S
C330 C331 1.391 . S
C330 C335 1.391 . S
C331 C330 1.391 . S
C331 C332 1.391 . S
C332 H309 0.947 . S
C332 C331 1.391 . S
C332 C333 1.392 . S
C333 H310 0.948 . S
C333 C332 1.392 . S
C333 C334 1.419 . S
C334 C333 1.419 . S
C334 C335 1.391 . S
C334 C338 1.396 1_565 S
C335 C330 1.391 . S
C335 C334 1.391 . S
C335 C336 1.399 . S
C336 C335 1.399 . S
C336 C337 1.396 1_565 S
C336 C339 1.453 1_565 S
C336 C340 1.684 . S
C337 C327 1.723 . S
C337 C336 1.396 1_545 S
C337 C338 1.395 . S
C338 C308 1.723 . S
C338 C334 1.396 1_545 S
C338 C337 1.395 . S
C339 H311 0.982 . S
C339 H315 0.979 . S
C339 H316 0.977 . S
C339 C336 1.453 1_545 S
C340 H312 0.979 . S
C340 H313 0.980 . S
C340 H314 0.983 . S
C340 C336 1.684 . S
H341 C359 0.948 . S
H342 C300 0.948 . S
H343 C318 0.979 . S
H344 C318 0.980 . S
H345 C318 0.983 . S
H346 C317 0.982 . S
H347 C317 0.979 . S
H348 C317 0.977 . S
H349 C319 0.948 . S
H350 C321 0.947 . S
H351 C322 0.948 . S
H352 C328 0.982 . S
H353 C328 0.979 . S
H354 C328 0.977 . S
H355 C329 0.979 . S
H356 C329 0.980 . S
H357 C329 0.983 . S
H358 C302 0.947 . S
C359 C302 1.392 . S
C359 C303 1.419 . S
C359 H341 0.948 . S
C360 C361 1.391 . S
C360 C364 1.391 . S
C360 H402 0.948 . S
C361 C360 1.391 . S
C361 C362 1.391 . S
C362 C361 1.391 . S
C362 H418 0.947 . S
C362 C419 1.392 . S
C363 C364 1.391 . S
C363 C367 1.396 1_655 S
C363 C419 1.419 . S
C364 C360 1.391 . S
C364 C363 1.391 . S
C364 C365 1.399 . S
C365 C364 1.399 . S
C365 C368 1.396 1_655 S
C365 C377 1.453 1_655 S
C365 C378 1.684 . S
H366 C390 0.948 . S
C367 C363 1.396 1_455 S
C367 C368 1.395 . S
C367 C386 1.723 . S
C368 C365 1.396 1_455 S
C368 C367 1.395 . S
C368 C398 1.723 . S
H369 C392 0.947 . S
H370 C393 0.948 . S
H371 C399 0.982 . S
H372 C400 0.979 . S
H373 C400 0.980 . S
H374 C400 0.983 . S
H375 C399 0.979 . S
H376 C399 0.977 . S
C377 C365 1.453 1_455 S
C377 H406 0.982 . S
C377 H407 0.979 . S
C377 H408 0.977 . S
C378 C365 1.684 . S
C378 H403 0.979 . S
C378 H404 0.980 . S
C378 H405 0.983 . S
C379 C380 1.391 . S
C379 C384 1.391 . S
C379 H409 0.948 . S
C380 C379 1.391 . S
C380 C381 1.391 . S
C381 C380 1.391 . S
C381 C382 1.392 . S
C381 H410 0.947 . S
C382 C381 1.392 . S
C382 C383 1.419 . S
C382 H411 0.948 . S
C383 C382 1.419 . S
C383 C384 1.391 . S
C383 C387 1.396 1_655 S
C384 C379 1.391 . S
C384 C383 1.391 . S
C384 C385 1.399 . S
C385 C384 1.399 . S
C385 C386 1.396 1_655 S
C385 C388 1.453 1_655 S
C385 C389 1.684 . S
C386 C367 1.723 . S
C386 C385 1.396 1_455 S
C386 C387 1.395 . S
C387 C383 1.396 1_455 S
C387 C386 1.395 . S
C387 C397 1.723 . S
C388 C385 1.453 1_455 S
C388 H412 0.982 . S
C388 H413 0.979 . S
C388 H414 0.977 . S
C389 C385 1.684 . S
C389 H415 0.979 . S
C389 H416 0.980 . S
C389 H417 0.983 . S
C390 H366 0.948 . S
C390 C391 1.391 . S
C390 C395 1.391 . S
C391 C390 1.391 . S
C391 C392 1.391 . S
C392 H369 0.947 . S
C392 C391 1.391 . S
C392 C393 1.392 . S
C393 H370 0.948 . S
C393 C392 1.392 . S
C393 C394 1.419 . S
C394 C393 1.419 . S
C394 C395 1.391 . S
C394 C398 1.396 1_655 S
C395 C390 1.391 . S
C395 C394 1.391 . S
C395 C396 1.399 . S
C396 C395 1.399 . S
C396 C397 1.396 1_655 S
C396 C399 1.453 1_655 S
C396 C400 1.684 . S
C397 C387 1.723 . S
C397 C396 1.396 1_455 S
C397 C398 1.395 . S
C398 C368 1.723 . S
C398 C394 1.396 1_455 S
C398 C397 1.395 . S
C399 H371 0.982 . S
C399 H375 0.979 . S
C399 H376 0.977 . S
C399 C396 1.453 1_455 S
C400 H372 0.979 . S
C400 H373 0.980 . S
C400 H374 0.983 . S
C400 C396 1.684 . S
H401 C419 0.948 . S
H402 C360 0.948 . S
H403 C378 0.979 . S
H404 C378 0.980 . S
H405 C378 0.983 . S
H406 C377 0.982 . S
H407 C377 0.979 . S
H408 C377 0.977 . S
H409 C379 0.948 . S
H410 C381 0.947 . S
H411 C382 0.948 . S
H412 C388 0.982 . S
H413 C388 0.979 . S
H414 C388 0.977 . S
H415 C389 0.979 . S
H416 C389 0.980 . S
H417 C389 0.983 . S
H418 C362 0.947 . S
C419 C362 1.392 . S
C419 C363 1.419 . S
C419 H401 0.948 . S
C420 C421 1.391 . S
C420 C424 1.391 . S
C420 H462 0.948 . S
C421 C420 1.391 . S
C421 C422 1.391 . S
C422 C421 1.391 . S
C422 H478 0.947 . S
C422 C479 1.392 . S
C423 C424 1.391 . S
C423 C427 1.396 1_565 S
C423 C479 1.419 . S
C424 C420 1.391 . S
C424 C423 1.391 . S
C424 C425 1.399 . S
C425 C424 1.399 . S
C425 C428 1.396 1_565 S
C425 C437 1.453 1_565 S
C425 C438 1.684 . S
H426 C450 0.948 . S
C427 C423 1.396 1_545 S
C427 C428 1.395 . S
C427 C446 1.723 . S
C428 C425 1.396 1_545 S
C428 C427 1.395 . S
C428 C458 1.723 . S
H429 C452 0.947 . S
H430 C453 0.948 . S
H431 C459 0.982 . S
H432 C460 0.979 . S
H433 C460 0.980 . S
H434 C460 0.983 . S
H435 C459 0.979 . S
H436 C459 0.977 . S
C437 C425 1.453 1_545 S
C437 H466 0.982 . S
C437 H467 0.979 . S
C437 H468 0.977 . S
C438 C425 1.684 . S
C438 H463 0.979 . S
C438 H464 0.980 . S
C438 H465 0.983 . S
C439 C440 1.391 . S
C439 C444 1.391 . S
C439 H469 0.948 . S
C440 C439 1.391 . S
C440 C441 1.391 . S
C441 C440 1.391 . S
C441 C442 1.392 . S
C441 H470 0.947 . S
C442 C441 1.392 . S
C442 C443 1.419 . S
C442 H471 0.948 . S
C443 C442 1.419 . S
C443 C444 1.391 . S
C443 C447 1.396 1_565 S
C444 C439 1.391 . S
C444 C443 1.391 . S
C444 C445 1.399 . S
C445 C444 1.399 . S
C445 C446 1.396 1_565 S
C445 C448 1.453 1_565 S
C445 C449 1.684 . S
C446 C427 1.723 . S
C446 C445 1.396 1_545 S
C446 C447 1.395 . S
C447 C443 1.396 1_545 S
C447 C446 1.395 . S
C447 C457 1.723 . S
C448 C445 1.453 1_545 S
C448 H472 0.982 . S
C448 H473 0.979 . S
C448 H474 0.977 . S
C449 C445 1.684 . S
C449 H475 0.979 . S
C449 H476 0.980 . S
C449 H477 0.983 . S
C450 H426 0.948 . S
C450 C451 1.391 . S
C450 C455 1.391 . S
C451 C450 1.391 . S
C451 C452 1.391 . S
C452 H429 0.947 . S
C452 C451 1.391 . S
C452 C453 1.392 . S
C453 H430 0.948 . S
C453 C452 1.392 . S
C453 C454 1.419 . S
C454 C453 1.419 . S
C454 C455 1.391 . S
C454 C458 1.396 1_565 S
C455 C450 1.391 . S
C455 C454 1.391 . S
C455 C456 1.399 . S
C456 C455 1.399 . S
C456 C457 1.396 1_565 S
C456 C459 1.453 1_565 S
C456 C460 1.684 . S
C457 C447 1.723 . S
C457 C456 1.396 1_545 S
C457 C458 1.395 . S
C458 C428 1.723 . S
C458 C454 1.396 1_545 S
C458 C457 1.395 . S
C459 H431 0.982 . S
C459 H435 0.979 . S
C459 H436 0.977 . S
C459 C456 1.453 1_545 S
C460 H432 0.979 . S
C460 H433 0.980 . S
C460 H434 0.983 . S
C460 C456 1.684 . S
H461 C479 0.948 . S
H462 C420 0.948 . S
H463 C438 0.979 . S
H464 C438 0.980 . S
H465 C438 0.983 . S
H466 C437 0.982 . S
H467 C437 0.979 . S
H468 C437 0.977 . S
H469 C439 0.948 . S
H470 C441 0.947 . S
H471 C442 0.948 . S
H472 C448 0.982 . S
H473 C448 0.979 . S
H474 C448 0.977 . S
H475 C449 0.979 . S
H476 C449 0.980 . S
H477 C449 0.983 . S
H478 C422 0.947 . S
C479 C422 1.392 . S
C479 C423 1.419 . S
C479 H461 0.948 . S
C480 C481 1.391 . S
C480 C484 1.391 . S
C480 H522 0.948 . S
C481 C480 1.391 . S
C481 C482 1.391 . S
C482 C481 1.391 . S
C482 H538 0.947 . S
C482 C539 1.392 . S
C483 C484 1.391 . S
C483 C487 1.396 1_556 S
C483 C539 1.419 . S
C484 C480 1.391 . S
C484 C483 1.391 . S
C484 C485 1.399 . S
C485 C484 1.399 . S
C485 C488 1.396 1_556 S
C485 C497 1.453 1_556 S
C485 C498 1.684 . S
H486 C510 0.948 . S
C487 C483 1.396 1_554 S
C487 C488 1.395 . S
C487 C506 1.723 . S
C488 C485 1.396 1_554 S
C488 C487 1.395 . S
C488 C518 1.723 . S
H489 C512 0.947 . S
H490 C513 0.948 . S
H491 C519 0.982 . S
H492 C520 0.979 . S
H493 C520 0.980 . S
H494 C520 0.983 . S
H495 C519 0.979 . S
H496 C519 0.977 . S
C497 C485 1.453 1_554 S
C497 H526 0.982 . S
C497 H527 0.979 . S
C497 H528 0.977 . S
C498 C485 1.684 . S
C498 H523 0.979 . S
C498 H524 0.980 . S
C498 H525 0.983 . S
C499 C500 1.391 . S
C499 C504 1.391 . S
C499 H529 0.948 . S
C500 C499 1.391 . S
C500 C501 1.391 . S
C501 C500 1.391 . S
C501 C502 1.392 . S
C501 H530 0.947 . S
C502 C501 1.392 . S
C502 C503 1.419 . S
C502 H531 0.948 . S
C503 C502 1.419 . S
C503 C504 1.391 . S
C503 C507 1.396 1_556 S
C504 C499 1.391 . S
C504 C503 1.391 . S
C504 C505 1.399 . S
C505 C504 1.399 . S
C505 C506 1.396 1_556 S
C505 C508 1.453 1_556 S
C505 C509 1.684 . S
C506 C487 1.723 . S
C506 C505 1.396 1_554 S
C506 C507 1.395 . S
C507 C503 1.396 1_554 S
C507 C506 1.395 . S
C507 C517 1.723 . S
C508 C505 1.453 1_554 S
C508 H532 0.982 . S
C508 H533 0.979 . S
C508 H534 0.977 . S
C509 C505 1.684 . S
C509 H535 0.979 . S
C509 H536 0.980 . S
C509 H537 0.983 . S
C510 H486 0.948 . S
C510 C511 1.391 . S
C510 C515 1.391 . S
C511 C510 1.391 . S
C511 C512 1.391 . S
C512 H489 0.947 . S
C512 C511 1.391 . S
C512 C513 1.392 . S
C513 H490 0.948 . S
C513 C512 1.392 . S
C513 C514 1.419 . S
C514 C513 1.419 . S
C514 C515 1.391 . S
C514 C518 1.396 1_556 S
C515 C510 1.391 . S
C515 C514 1.391 . S
C515 C516 1.399 . S
C516 C515 1.399 . S
C516 C517 1.396 1_556 S
C516 C519 1.453 1_556 S
C516 C520 1.684 . S
C517 C507 1.723 . S
C517 C516 1.396 1_554 S
C517 C518 1.395 . S
C518 C488 1.723 . S
C518 C514 1.396 1_554 S
C518 C517 1.395 . S
C519 H491 0.982 . S
C519 H495 0.979 . S
C519 H496 0.977 . S
C519 C516 1.453 1_554 S
C520 H492 0.979 . S
C520 H493 0.980 . S
C520 H494 0.983 . S
C520 C516 1.684 . S
H521 C539 0.948 . S
H522 C480 0.948 . S
H523 C498 0.979 . S
H524 C498 0.980 . S
H525 C498 0.983 . S
H526 C497 0.982 . S
H527 C497 0.979 . S
H528 C497 0.977 . S
H529 C499 0.948 . S
H530 C501 0.947 . S
H531 C502 0.948 . S
H532 C508 0.982 . S
H533 C508 0.979 . S
H534 C508 0.977 . S
H535 C509 0.979 . S
H536 C509 0.980 . S
H537 C509 0.983 . S
H538 C482 0.947 . S
C539 C482 1.392 . S
C539 C483 1.419 . S
C539 H521 0.948 . S
C540 C541 1.391 . S
C540 C544 1.391 . S
C540 H582 0.948 . S
C541 C540 1.391 . S
C541 C542 1.391 . S
C542 C541 1.391 . S
C542 H598 0.947 . S
C542 C599 1.392 . S
C543 C544 1.391 . S
C543 C547 1.397 1_554 S
C543 C599 1.419 . S
C544 C540 1.391 . S
C544 C543 1.391 . S
C544 C545 1.399 . S
C545 C544 1.399 . S
C545 C548 1.396 1_554 S
C545 C557 1.453 1_554 S
C545 C558 1.684 . S
H546 C570 0.948 . S
C547 C543 1.397 1_556 S
C547 C548 1.394 . S
C547 C566 1.723 . S
C548 C545 1.396 1_556 S
C548 C547 1.394 . S
C548 C578 1.723 . S
H549 C572 0.947 . S
H550 C573 0.948 . S
H551 C579 0.982 . S
H552 C580 0.979 . S
H553 C580 0.980 . S
H554 C580 0.983 . S
H555 C579 0.979 . S
H556 C579 0.977 . S
C557 C545 1.453 1_556 S
C557 H586 0.982 . S
C557 H587 0.979 . S
C557 H588 0.977 . S
C558 C545 1.684 . S
C558 H583 0.979 . S
C558 H584 0.980 . S
C558 H585 0.983 . S
C559 C560 1.391 . S
C559 C564 1.391 . S
C559 H589 0.948 . S
C560 C559 1.391 . S
C560 C561 1.391 . S
C561 C560 1.391 . S
C561 C562 1.392 . S
C561 H590 0.947 . S
C562 C561 1.392 . S
C562 C563 1.419 . S
C562 H591 0.948 . S
C563 C562 1.419 . S
C563 C564 1.391 . S
C563 C567 1.397 1_554 S
C564 C559 1.391 . S
C564 C563 1.391 . S
C564 C565 1.399 . S
C565 C564 1.399 . S
C565 C566 1.396 1_554 S
C565 C568 1.453 1_554 S
C565 C569 1.684 . S
C566 C547 1.723 . S
C566 C565 1.396 1_556 S
C566 C567 1.394 . S
C567 C563 1.397 1_556 S
C567 C566 1.394 . S
C567 C577 1.723 . S
C568 C565 1.453 1_556 S
C568 H592 0.982 . S
C568 H593 0.979 . S
C568 H594 0.977 . S
C569 C565 1.684 . S
C569 H595 0.979 . S
C569 H596 0.980 . S
C569 H597 0.983 . S
C570 H546 0.948 . S
C570 C571 1.391 . S
C570 C575 1.391 . S
C571 C570 1.391 . S
C571 C572 1.391 . S
C572 H549 0.947 . S
C572 C571 1.391 . S
C572 C573 1.392 . S
C573 H550 0.948 . S
C573 C572 1.392 . S
C573 C574 1.419 . S
C574 C573 1.419 . S
C574 C575 1.391 . S
C574 C578 1.397 1_554 S
C575 C570 1.391 . S
C575 C574 1.391 . S
C575 C576 1.399 . S
C576 C575 1.399 . S
C576 C577 1.396 1_554 S
C576 C579 1.453 1_554 S
C576 C580 1.684 . S
C577 C567 1.723 . S
C577 C576 1.396 1_556 S
C577 C578 1.394 . S
C578 C548 1.723 . S
C578 C574 1.397 1_556 S
C578 C577 1.394 . S
C579 H551 0.982 . S
C579 H555 0.979 . S
C579 H556 0.977 . S
C579 C576 1.453 1_556 S
C580 H552 0.979 . S
C580 H553 0.980 . S
C580 H554 0.983 . S
C580 C576 1.684 . S
H581 C599 0.948 . S
H582 C540 0.948 . S
H583 C558 0.979 . S
H584 C558 0.980 . S
H585 C558 0.983 . S
H586 C557 0.982 . S
H587 C557 0.979 . S
H588 C557 0.977 . S
H589 C559 0.948 . S
H590 C561 0.947 . S
H591 C562 0.948 . S
H592 C568 0.982 . S
H593 C568 0.979 . S
H594 C568 0.977 . S
H595 C569 0.979 . S
H596 C569 0.980 . S
H597 C569 0.983 . S
H598 C542 0.947 . S
C599 C542 1.392 . S
C599 C543 1.419 . S
C599 H581 0.948 . S
C600 C601 1.391 . S
C600 C604 1.391 . S
C600 H642 0.948 . S
C601 C600 1.391 . S
C601 C602 1.391 . S
C602 C601 1.391 . S
C602 H658 0.947 . S
C602 C659 1.392 . S
C603 C604 1.391 . S
C603 C607 1.396 1_556 S
C603 C659 1.419 . S
C604 C600 1.391 . S
C604 C603 1.391 . S
C604 C605 1.399 . S
C605 C604 1.399 . S
C605 C608 1.396 1_556 S
C605 C617 1.453 1_556 S
C605 C618 1.684 . S
H606 C630 0.948 . S
C607 C603 1.396 1_554 S
C607 C608 1.395 . S
C607 C626 1.723 . S
C608 C605 1.396 1_554 S
C608 C607 1.395 . S
C608 C638 1.723 . S
H609 C632 0.947 . S
H610 C633 0.948 . S
H611 C639 0.982 . S
H612 C640 0.979 . S
H613 C640 0.980 . S
H614 C640 0.983 . S
H615 C639 0.979 . S
H616 C639 0.977 . S
C617 C605 1.453 1_554 S
C617 H646 0.982 . S
C617 H647 0.979 . S
C617 H648 0.977 . S
C618 C605 1.684 . S
C618 H643 0.979 . S
C618 H644 0.980 . S
C618 H645 0.983 . S
C619 C620 1.391 . S
C619 C624 1.391 . S
C619 H649 0.948 . S
C620 C619 1.391 . S
C620 C621 1.391 . S
C621 C620 1.391 . S
C621 C622 1.392 . S
C621 H650 0.947 . S
C622 C621 1.392 . S
C622 C623 1.419 . S
C622 H651 0.948 . S
C623 C622 1.419 . S
C623 C624 1.391 . S
C623 C627 1.396 1_556 S
C624 C619 1.391 . S
C624 C623 1.391 . S
C624 C625 1.399 . S
C625 C624 1.399 . S
C625 C626 1.396 1_556 S
C625 C628 1.453 1_556 S
C625 C629 1.684 . S
C626 C607 1.723 . S
C626 C625 1.396 1_554 S
C626 C627 1.395 . S
C627 C623 1.396 1_554 S
C627 C626 1.395 . S
C627 C637 1.723 . S
C628 C625 1.453 1_554 S
C628 H652 0.982 . S
C628 H653 0.979 . S
C628 H654 0.977 . S
C629 C625 1.684 . S
C629 H655 0.979 . S
C629 H656 0.980 . S
C629 H657 0.983 . S
C630 H606 0.948 . S
C630 C631 1.391 . S
C630 C635 1.391 . S
C631 C630 1.391 . S
C631 C632 1.391 . S
C632 H609 0.947 . S
C632 C631 1.391 . S
C632 C633 1.392 . S
C633 H610 0.948 . S
C633 C632 1.392 . S
C633 C634 1.419 . S
C634 C633 1.419 . S
C634 C635 1.391 . S
C634 C638 1.396 1_556 S
C635 C630 1.391 . S
C635 C634 1.391 . S
C635 C636 1.399 . S
C636 C635 1.399 . S
C636 C637 1.396 1_556 S
C636 C639 1.453 1_556 S
C636 C640 1.684 . S
C637 C627 1.723 . S
C637 C636 1.396 1_554 S
C637 C638 1.395 . S
C638 C608 1.723 . S
C638 C634 1.396 1_554 S
C638 C637 1.395 . S
C639 H611 0.982 . S
C639 H615 0.979 . S
C639 H616 0.977 . S
C639 C636 1.453 1_554 S
C640 H612 0.979 . S
C640 H613 0.980 . S
C640 H614 0.983 . S
C640 C636 1.684 . S
H641 C659 0.948 . S
H642 C600 0.948 . S
H643 C618 0.979 . S
H644 C618 0.980 . S
H645 C618 0.983 . S
H646 C617 0.982 . S
H647 C617 0.979 . S
H648 C617 0.977 . S
H649 C619 0.948 . S
H650 C621 0.947 . S
H651 C622 0.948 . S
H652 C628 0.982 . S
H653 C628 0.979 . S
H654 C628 0.977 . S
H655 C629 0.979 . S
H656 C629 0.980 . S
H657 C629 0.983 . S
H658 C602 0.947 . S
C659 C602 1.392 . S
C659 C603 1.419 . S
C659 H641 0.948 . S
C660 C661 1.391 . S
C660 C664 1.391 . S
C660 H702 0.948 . S
C661 C660 1.391 . S
C661 C662 1.391 . S
C662 C661 1.391 . S
C662 H718 0.947 . S
C662 C719 1.392 . S
C663 C664 1.391 . S
C663 C667 1.397 1_554 S
C663 C719 1.419 . S
C664 C660 1.391 . S
C664 C663 1.391 . S
C664 C665 1.399 . S
C665 C664 1.399 . S
C665 C668 1.396 1_554 S
C665 C677 1.453 1_554 S
C665 C678 1.684 . S
H666 C690 0.948 . S
C667 C663 1.397 1_556 S
C667 C668 1.394 . S
C667 C686 1.723 . S
C668 C665 1.396 1_556 S
C668 C667 1.394 . S
C668 C698 1.723 . S
H669 C692 0.947 . S
H670 C693 0.948 . S
H671 C699 0.982 . S
H672 C700 0.979 . S
H673 C700 0.980 . S
H674 C700 0.983 . S
H675 C699 0.979 . S
H676 C699 0.977 . S
C677 C665 1.453 1_556 S
C677 H706 0.982 . S
C677 H707 0.979 . S
C677 H708 0.977 . S
C678 C665 1.684 . S
C678 H703 0.979 . S
C678 H704 0.980 . S
C678 H705 0.983 . S
C679 C680 1.391 . S
C679 C684 1.391 . S
C679 H709 0.948 . S
C680 C679 1.391 . S
C680 C681 1.391 . S
C681 C680 1.391 . S
C681 C682 1.392 . S
C681 H710 0.947 . S
C682 C681 1.392 . S
C682 C683 1.419 . S
C682 H711 0.948 . S
C683 C682 1.419 . S
C683 C684 1.391 . S
C683 C687 1.397 1_554 S
C684 C679 1.391 . S
C684 C683 1.391 . S
C684 C685 1.399 . S
C685 C684 1.399 . S
C685 C686 1.396 1_554 S
C685 C688 1.453 1_554 S
C685 C689 1.684 . S
C686 C667 1.723 . S
C686 C685 1.396 1_556 S
C686 C687 1.394 . S
C687 C683 1.397 1_556 S
C687 C686 1.394 . S
C687 C697 1.723 . S
C688 C685 1.453 1_556 S
C688 H712 0.982 . S
C688 H713 0.979 . S
C688 H714 0.977 . S
C689 C685 1.684 . S
C689 H715 0.979 . S
C689 H716 0.980 . S
C689 H717 0.983 . S
C690 H666 0.948 . S
C690 C691 1.391 . S
C690 C695 1.391 . S
C691 C690 1.391 . S
C691 C692 1.391 . S
C692 H669 0.947 . S
C692 C691 1.391 . S
C692 C693 1.392 . S
C693 H670 0.948 . S
C693 C692 1.392 . S
C693 C694 1.419 . S
C694 C693 1.419 . S
C694 C695 1.391 . S
C694 C698 1.397 1_554 S
C695 C690 1.391 . S
C695 C694 1.391 . S
C695 C696 1.399 . S
C696 C695 1.399 . S
C696 C697 1.396 1_554 S
C696 C699 1.453 1_554 S
C696 C700 1.684 . S
C697 C687 1.723 . S
C697 C696 1.396 1_556 S
C697 C698 1.394 . S
C698 C668 1.723 . S
C698 C694 1.397 1_556 S
C698 C697 1.394 . S
C699 H671 0.982 . S
C699 H675 0.979 . S
C699 H676 0.977 . S
C699 C696 1.453 1_556 S
C700 H672 0.979 . S
C700 H673 0.980 . S
C700 H674 0.983 . S
C700 C696 1.684 . S
H701 C719 0.948 . S
H702 C660 0.948 . S
H703 C678 0.979 . S
H704 C678 0.980 . S
H705 C678 0.983 . S
H706 C677 0.982 . S
H707 C677 0.979 . S
H708 C677 0.977 . S
H709 C679 0.948 . S
H710 C681 0.947 . S
H711 C682 0.948 . S
H712 C688 0.982 . S
H713 C688 0.979 . S
H714 C688 0.977 . S
H715 C689 0.979 . S
H716 C689 0.980 . S
H717 C689 0.983 . S
H718 C662 0.947 . S
C719 C662 1.392 . S
C719 C663 1.419 . S
C719 H701 0.948 . S
C720 C721 1.391 . S
C720 C724 1.391 . S
C720 H762 0.948 . S
C721 C720 1.391 . S
C721 C722 1.391 . S
C722 C721 1.391 . S
C722 H778 0.947 . S
C722 C779 1.392 . S
C723 C724 1.391 . S
C723 C727 1.397 . S
C723 C779 1.419 . S
C724 C720 1.391 . S
C724 C723 1.391 . S
C724 C725 1.399 . S
C725 C724 1.399 . S
C725 C728 1.396 . S
C725 C737 1.453 . S
C725 C738 1.684 . S
H726 C750 0.948 . S
C727 C723 1.397 . S
C727 C728 1.394 . S
C727 C746 1.723 . S
C728 C725 1.396 . S
C728 C727 1.394 . S
C728 C758 1.723 . S
H729 C752 0.947 . S
H730 C753 0.948 . S
H731 C759 0.982 . S
H732 C760 0.979 . S
H733 C760 0.980 . S
H734 C760 0.983 . S
H735 C759 0.979 . S
H736 C759 0.977 . S
C737 C725 1.453 . S
C737 H766 0.982 . S
C737 H767 0.979 . S
C737 H768 0.977 . S
C738 C725 1.684 . S
C738 H763 0.979 . S
C738 H764 0.980 . S
C738 H765 0.983 . S
C739 C740 1.391 . S
C739 C744 1.391 . S
C739 H769 0.948 . S
C740 C739 1.391 . S
C740 C741 1.391 . S
C741 C740 1.391 . S
C741 C742 1.392 . S
C741 H770 0.947 . S
C742 C741 1.392 . S
C742 C743 1.419 . S
C742 H771 0.948 . S
C743 C742 1.419 . S
C743 C744 1.391 . S
C743 C747 1.397 . S
C744 C739 1.391 . S
C744 C743 1.391 . S
C744 C745 1.399 . S
C745 C744 1.399 . S
C745 C746 1.396 . S
C745 C748 1.453 . S
C745 C749 1.684 . S
C746 C727 1.723 . S
C746 C745 1.396 . S
C746 C747 1.394 . S
C747 C743 1.397 . S
C747 C746 1.394 . S
C747 C757 1.723 . S
C748 C745 1.453 . S
C748 H772 0.982 . S
C748 H773 0.979 . S
C748 H774 0.977 . S
C749 C745 1.684 . S
C749 H775 0.979 . S
C749 H776 0.980 . S
C749 H777 0.983 . S
C750 H726 0.948 . S
C750 C751 1.391 . S
C750 C755 1.391 . S
C751 C750 1.391 . S
C751 C752 1.391 . S
C752 H729 0.947 . S
C752 C751 1.391 . S
C752 C753 1.392 . S
C753 H730 0.948 . S
C753 C752 1.392 . S
C753 C754 1.419 . S
C754 C753 1.419 . S
C754 C755 1.391 . S
C754 C758 1.397 . S
C755 C750 1.391 . S
C755 C754 1.391 . S
C755 C756 1.399 . S
C756 C755 1.399 . S
C756 C757 1.396 . S
C756 C759 1.453 . S
C756 C760 1.684 . S
C757 C747 1.723 . S
C757 C756 1.396 . S
C757 C758 1.394 . S
C758 C728 1.723 . S
C758 C754 1.397 . S
C758 C757 1.394 . S
C759 H731 0.982 . S
C759 H735 0.979 . S
C759 H736 0.977 . S
C759 C756 1.453 . S
C760 H732 0.979 . S
C760 H733 0.980 . S
C760 H734 0.983 . S
C760 C756 1.684 . S
H761 C779 0.948 . S
H762 C720 0.948 . S
H763 C738 0.979 . S
H764 C738 0.980 . S
H765 C738 0.983 . S
H766 C737 0.982 . S
H767 C737 0.979 . S
H768 C737 0.977 . S
H769 C739 0.948 . S
H770 C741 0.947 . S
H771 C742 0.948 . S
H772 C748 0.982 . S
H773 C748 0.979 . S
H774 C748 0.977 . S
H775 C749 0.979 . S
H776 C749 0.980 . S
H777 C749 0.983 . S
H778 C722 0.947 . S
C779 C722 1.392 . S
C779 C723 1.419 . S
C779 H761 0.948 . S
C780 C781 1.391 . S
C780 C784 1.391 . S
C780 H822 0.948 . S
C781 C780 1.391 . S
C781 C782 1.391 . S
C782 C781 1.391 . S
C782 H838 0.947 . S
C782 C839 1.392 . S
C783 C784 1.391 . S
C783 C787 1.397 . S
C783 C839 1.419 . S
C784 C780 1.391 . S
C784 C783 1.391 . S
C784 C785 1.399 . S
C785 C784 1.399 . S
C785 C788 1.396 . S
C785 C797 1.453 . S
C785 C798 1.684 . S
H786 C810 0.948 . S
C787 C783 1.397 . S
C787 C788 1.394 . S
C787 C806 1.723 . S
C788 C785 1.396 . S
C788 C787 1.394 . S
C788 C818 1.723 . S
H789 C812 0.947 . S
H790 C813 0.948 . S
H791 C819 0.982 . S
H792 C820 0.979 . S
H793 C820 0.980 . S
H794 C820 0.983 . S
H795 C819 0.979 . S
H796 C819 0.977 . S
C797 C785 1.453 . S
C797 H826 0.982 . S
C797 H827 0.979 . S
C797 H828 0.977 . S
C798 C785 1.684 . S
C798 H823 0.979 . S
C798 H824 0.980 . S
C798 H825 0.983 . S
C799 C800 1.391 . S
C799 C804 1.391 . S
C799 H829 0.948 . S
C800 C799 1.391 . S
C800 C801 1.391 . S
C801 C800 1.391 . S
C801 C802 1.392 . S
C801 H830 0.947 . S
C802 C801 1.392 . S
C802 C803 1.419 . S
C802 H831 0.948 . S
C803 C802 1.419 . S
C803 C804 1.391 . S
C803 C807 1.397 . S
C804 C799 1.391 . S
C804 C803 1.391 . S
C804 C805 1.399 . S
C805 C804 1.399 . S
C805 C806 1.396 . S
C805 C808 1.453 . S
C805 C809 1.684 . S
C806 C787 1.723 . S
C806 C805 1.396 . S
C806 C807 1.394 . S
C807 C803 1.397 . S
C807 C806 1.394 . S
C807 C817 1.723 . S
C808 C805 1.453 . S
C808 H832 0.982 . S
C808 H833 0.979 . S
C808 H834 0.977 . S
C809 C805 1.684 . S
C809 H835 0.979 . S
C809 H836 0.980 . S
C809 H837 0.983 . S
C810 H786 0.948 . S
C810 C811 1.391 . S
C810 C815 1.391 . S
C811 C810 1.391 . S
C811 C812 1.391 . S
C812 H789 0.947 . S
C812 C811 1.391 . S
C812 C813 1.392 . S
C813 H790 0.948 . S
C813 C812 1.392 . S
C813 C814 1.419 . S
C814 C813 1.419 . S
C814 C815 1.391 . S
C814 C818 1.397 . S
C815 C810 1.391 . S
C815 C814 1.391 . S
C815 C816 1.399 . S
C816 C815 1.399 . S
C816 C817 1.396 . S
C816 C819 1.453 . S
C816 C820 1.684 . S
C817 C807 1.723 . S
C817 C816 1.396 . S
C817 C818 1.394 . S
C818 C788 1.723 . S
C818 C814 1.397 . S
C818 C817 1.394 . S
C819 H791 0.982 . S
C819 H795 0.979 . S
C819 H796 0.977 . S
C819 C816 1.453 . S
C820 H792 0.979 . S
C820 H793 0.980 . S
C820 H794 0.983 . S
C820 C816 1.684 . S
H821 C839 0.948 . S
H822 C780 0.948 . S
H823 C798 0.979 . S
H824 C798 0.980 . S
H825 C798 0.983 . S
H826 C797 0.982 . S
H827 C797 0.979 . S
H828 C797 0.977 . S
H829 C799 0.948 . S
H830 C801 0.947 . S
H831 C802 0.948 . S
H832 C808 0.982 . S
H833 C808 0.979 . S
H834 C808 0.977 . S
H835 C809 0.979 . S
H836 C809 0.980 . S
H837 C809 0.983 . S
H838 C782 0.947 . S
C839 C782 1.392 . S
C839 C783 1.419 . S
C839 H821 0.948 . S
C840 C841 1.391 . S
C840 C844 1.391 . S
C840 H882 0.948 . S
C841 C840 1.391 . S
C841 C842 1.391 . S
C842 C841 1.391 . S
C842 H898 0.947 . S
C842 C899 1.392 . S
C843 C844 1.391 . S
C843 C847 1.397 . S
C843 C899 1.419 . S
C844 C840 1.391 . S
C844 C843 1.391 . S
C844 C845 1.399 . S
C845 C844 1.399 . S
C845 C848 1.396 . S
C845 C857 1.453 . S
C845 C858 1.684 . S
H846 C870 0.948 . S
C847 C843 1.397 . S
C847 C848 1.394 . S
C847 C866 1.723 . S
C848 C845 1.396 . S
C848 C847 1.394 . S
C848 C878 1.723 . S
H849 C872 0.947 . S
H850 C873 0.948 . S
H851 C879 0.982 . S
H852 C880 0.979 . S
H853 C880 0.980 . S
H854 C880 0.983 . S
H855 C879 0.979 . S
H856 C879 0.977 . S
C857 C845 1.453 . S
C857 H886 0.982 . S
C857 H887 0.979 . S
C857 H888 0.977 . S
C858 C845 1.684 . S
C858 H883 0.979 . S
C858 H884 0.980 . S
C858 H885 0.983 . S
C859 C860 1.391 . S
C859 C864 1.391 . S
C859 H889 0.948 . S
C860 C859 1.391 . S
C860 C861 1.391 . S
C861 C860 1.391 . S
C861 C862 1.392 . S
C861 H890 0.947 . S
C862 C861 1.392 . S
C862 C863 1.419 . S
C862 H891 0.948 . S
C863 C862 1.419 . S
C863 C864 1.391 . S
C863 C867 1.397 . S
C864 C859 1.391 . S
C864 C863 1.391 . S
C864 C865 1.399 . S
C865 C864 1.399 . S
C865 C866 1.396 . S
C865 C868 1.453 . S
C865 C869 1.684 . S
C866 C847 1.723 . S
C866 C865 1.396 . S
C866 C867 1.394 . S
C867 C863 1.397 . S
C867 C866 1.394 . S
C867 C877 1.723 . S
C868 C865 1.453 . S
C868 H892 0.982 . S
C868 H893 0.979 . S
C868 H894 0.977 . S
C869 C865 1.684 . S
C869 H895 0.979 . S
C869 H896 0.980 . S
C869 H897 0.983 . S
C870 H846 0.948 . S
C870 C871 1.391 . S
C870 C875 1.391 . S
C871 C870 1.391 . S
C871 C872 1.391 . S
C872 H849 0.947 . S
C872 C871 1.391 . S
C872 C873 1.392 . S
C873 H850 0.948 . S
C873 C872 1.392 . S
C873 C874 1.419 . S
C874 C873 1.419 . S
C874 C875 1.391 . S
C874 C878 1.397 . S
C875 C870 1.391 . S
C875 C874 1.391 . S
C875 C876 1.399 . S
C876 C875 1.399 . S
C876 C877 1.396 . S
C876 C879 1.453 . S
C876 C880 1.684 . S
C877 C867 1.723 . S
C877 C876 1.396 . S
C877 C878 1.394 . S
C878 C848 1.723 . S
C878 C874 1.397 . S
C878 C877 1.394 . S
C879 H851 0.982 . S
C879 H855 0.979 . S
C879 H856 0.977 . S
C879 C876 1.453 . S
C880 H852 0.979 . S
C880 H853 0.980 . S
C880 H854 0.983 . S
C880 C876 1.684 . S
H881 C899 0.948 . S
H882 C840 0.948 . S
H883 C858 0.979 . S
H884 C858 0.980 . S
H885 C858 0.983 . S
H886 C857 0.982 . S
H887 C857 0.979 . S
H888 C857 0.977 . S
H889 C859 0.948 . S
H890 C861 0.947 . S
H891 C862 0.948 . S
H892 C868 0.982 . S
H893 C868 0.979 . S
H894 C868 0.977 . S
H895 C869 0.979 . S
H896 C869 0.980 . S
H897 C869 0.983 . S
H898 C842 0.947 . S
C899 C842 1.392 . S
C899 C843 1.419 . S
C899 H881 0.948 . S
C900 C901 1.391 . S
C900 C904 1.391 . S
C900 H942 0.948 . S
C901 C900 1.391 . S
C901 C902 1.391 . S
C902 C901 1.391 . S
C902 H958 0.947 . S
C902 C959 1.392 . S
C903 C904 1.391 . S
C903 C907 1.397 . S
C903 C959 1.419 . S
C904 C900 1.391 . S
C904 C903 1.391 . S
C904 C905 1.399 . S
C905 C904 1.399 . S
C905 C908 1.396 . S
C905 C917 1.453 . S
C905 C918 1.684 . S
H906 C930 0.948 . S
C907 C903 1.397 . S
C907 C908 1.394 . S
C907 C926 1.723 . S
C908 C905 1.396 . S
C908 C907 1.394 . S
C908 C938 1.723 . S
H909 C932 0.947 . S
H910 C933 0.948 . S
H911 C939 0.982 . S
H912 C940 0.979 . S
H913 C940 0.980 . S
H914 C940 0.983 . S
H915 C939 0.979 . S
H916 C939 0.977 . S
C917 C905 1.453 . S
C917 H946 0.982 . S
C917 H947 0.979 . S
C917 H948 0.977 . S
C918 C905 1.684 . S
C918 H943 0.979 . S
C918 H944 0.980 . S
C918 H945 0.983 . S
C919 C920 1.391 . S
C919 C924 1.391 . S
C919 H949 0.948 . S
C920 C919 1.391 . S
C920 C921 1.391 . S
C921 C920 1.391 . S
C921 C922 1.392 . S
C921 H950 0.947 . S
C922 C921 1.392 . S
C922 C923 1.419 . S
C922 H951 0.948 . S
C923 C922 1.419 . S
C923 C924 1.391 . S
C923 C927 1.397 . S
C924 C919 1.391 . S
C924 C923 1.391 . S
C924 C925 1.399 . S
C925 C924 1.399 . S
C925 C926 1.396 . S
C925 C928 1.453 . S
C925 C929 1.684 . S
C926 C907 1.723 . S
C926 C925 1.396 . S
C926 C927 1.394 . S
C927 C923 1.397 . S
C927 C926 1.394 . S
C927 C937 1.723 . S
C928 C925 1.453 . S
C928 H952 0.982 . S
C928 H953 0.979 . S
C928 H954 0.977 . S
C929 C925 1.684 . S
C929 H955 0.979 . S
C929 H956 0.980 . S
C929 H957 0.983 . S
C930 H906 0.948 . S
C930 C931 1.391 . S
C930 C935 1.391 . S
C931 C930 1.391 . S
C931 C932 1.391 . S
C932 H909 0.947 . S
C932 C931 1.391 . S
C932 C933 1.392 . S
C933 H910 0.948 . S
C933 C932 1.392 . S
C933 C934 1.419 . S
C934 C933 1.419 . S
C934 C935 1.391 . S
C934 C938 1.397 . S
C935 C930 1.391 . S
C935 C934 1.391 . S
C935 C936 1.399 . S
C936 C935 1.399 . S
C936 C937 1.396 . S
C936 C939 1.453 . S
C936 C940 1.684 . S
C937 C927 1.723 . S
C937 C936 1.396 . S
C937 C938 1.394 . S
C938 C908 1.723 . S
C938 C934 1.397 . S
C938 C937 1.394 . S
C939 H911 0.982 . S
C939 H915 0.979 . S
C939 H916 0.977 . S
C939 C936 1.453 . S
C940 H912 0.979 . S
C940 H913 0.980 . S
C940 H914 0.983 . S
C940 C936 1.684 . S
H941 C959 0.948 . S
H942 C900 0.948 . S
H943 C918 0.979 . S
H944 C918 0.980 . S
H945 C918 0.983 . S
H946 C917 0.982 . S
H947 C917 0.979 . S
H948 C917 0.977 . S
H949 C919 0.948 . S
H950 C921 0.947 . S
H951 C922 0.948 . S
H952 C928 0.982 . S
H953 C928 0.979 . S
H954 C928 0.977 . S
H955 C929 0.979 . S
H956 C929 0.980 . S
H957 C929 0.983 . S
H958 C902 0.947 . S
C959 C902 1.392 . S
C959 C903 1.419 . S
C959 H941 0.948 . S
C960 C961 1.391 . S
C960 C964 1.391 . S
C960 H1002 0.948 . S
C961 C960 1.391 . S
C961 C962 1.391 . S
C962 C961 1.391 . S
C962 H1018 0.947 . S
C962 C1019 1.392 . S
C963 C964 1.391 . S
C963 C967 1.397 . S
C963 C1019 1.419 . S
C964 C960 1.391 . S
C964 C963 1.391 . S
C964 C965 1.399 . S
C965 C964 1.399 . S
C965 C968 1.396 . S
C965 C977 1.453 . S
C965 C978 1.684 . S
H966 C990 0.948 . S
C967 C963 1.397 . S
C967 C968 1.394 . S
C967 C986 1.723 . S
C968 C965 1.396 . S
C968 C967 1.394 . S
C968 C998 1.723 . S
H969 C992 0.947 . S
H970 C993 0.948 . S
H971 C999 0.982 . S
H972 C1000 0.979 . S
H973 C1000 0.980 . S
H974 C1000 0.983 . S
H975 C999 0.979 . S
H976 C999 0.977 . S
C977 C965 1.453 . S
C977 H1006 0.982 . S
C977 H1007 0.979 . S
C977 H1008 0.977 . S
C978 C965 1.684 . S
C978 H1003 0.979 . S
C978 H1004 0.980 . S
C978 H1005 0.983 . S
C979 C980 1.391 . S
C979 C984 1.391 . S
C979 H1009 0.948 . S
C980 C979 1.391 . S
C980 C981 1.391 . S
C981 C980 1.391 . S
C981 C982 1.392 . S
C981 H1010 0.947 . S
C982 C981 1.392 . S
C982 C983 1.419 . S
C982 H1011 0.948 . S
C983 C982 1.419 . S
C983 C984 1.391 . S
C983 C987 1.397 . S
C984 C979 1.391 . S
C984 C983 1.391 . S
C984 C985 1.399 . S
C985 C984 1.399 . S
C985 C986 1.396 . S
C985 C988 1.453 . S
C985 C989 1.684 . S
C986 C967 1.723 . S
C986 C985 1.396 . S
C986 C987 1.394 . S
C987 C983 1.397 . S
C987 C986 1.394 . S
C987 C997 1.723 . S
C988 C985 1.453 . S
C988 H1012 0.982 . S
C988 H1013 0.979 . S
C988 H1014 0.977 . S
C989 C985 1.684 . S
C989 H1015 0.979 . S
C989 H1016 0.980 . S
C989 H1017 0.983 . S
C990 H966 0.948 . S
C990 C991 1.391 . S
C990 C995 1.391 . S
C991 C990 1.391 . S
C991 C992 1.391 . S
C992 H969 0.947 . S
C992 C991 1.391 . S
C992 C993 1.392 . S
C993 H970 0.948 . S
C993 C992 1.392 . S
C993 C994 1.419 . S
C994 C993 1.419 . S
C994 C995 1.391 . S
C994 C998 1.397 . S
C995 C990 1.391 . S
C995 C994 1.391 . S
C995 C996 1.399 . S
C996 C995 1.399 . S
C996 C997 1.396 . S
C996 C999 1.453 . S
C996 C1000 1.684 . S
C997 C987 1.723 . S
C997 C996 1.396 . S
C997 C998 1.394 . S
C998 C968 1.723 . S
C998 C994 1.397 . S
C998 C997 1.394 . S
C999 H971 0.982 . S
C999 H975 0.979 . S
C999 H976 0.977 . S
C999 C996 1.453 . S
C1000 H972 0.979 . S
C1000 H973 0.980 . S
C1000 H974 0.983 . S
C1000 C996 1.684 . S
H1001 C1019 0.948 . S
H1002 C960 0.948 . S
H1003 C978 0.979 . S
H1004 C978 0.980 . S
H1005 C978 0.983 . S
H1006 C977 0.982 . S
H1007 C977 0.979 . S
H1008 C977 0.977 . S
H1009 C979 0.948 . S
H1010 C981 0.947 . S
H1011 C982 0.948 . S
H1012 C988 0.982 . S
H1013 C988 0.979 . S
H1014 C988 0.977 . S
H1015 C989 0.979 . S
H1016 C989 0.980 . S
H1017 C989 0.983 . S
H1018 C962 0.947 . S
C1019 C962 1.392 . S
C1019 C963 1.419 . S
C1019 H1001 0.948 . S
C1020 C1021 1.391 . S
C1020 C1024 1.391 . S
C1020 H1062 0.948 . S
C1021 C1020 1.391 . S
C1021 C1022 1.391 . S
C1022 C1021 1.391 . S
C1022 H1078 0.947 . S
C1022 C1079 1.392 . S
C1023 C1024 1.391 . S
C1023 C1027 1.397 . S
C1023 C1079 1.419 . S
C1024 C1020 1.391 . S
C1024 C1023 1.391 . S
C1024 C1025 1.399 . S
C1025 C1024 1.399 . S
C1025 C1028 1.396 . S
C1025 C1037 1.453 . S
C1025 C1038 1.684 . S
H1026 C1050 0.948 . S
C1027 C1023 1.397 . S
C1027 C1028 1.394 . S
C1027 C1046 1.723 . S
C1028 C1025 1.396 . S
C1028 C1027 1.394 . S
C1028 C1058 1.723 . S
H1029 C1052 0.947 . S
H1030 C1053 0.948 . S
H1031 C1059 0.982 . S
H1032 C1060 0.979 . S
H1033 C1060 0.980 . S
H1034 C1060 0.983 . S
H1035 C1059 0.979 . S
H1036 C1059 0.977 . S
C1037 C1025 1.453 . S
C1037 H1066 0.982 . S
C1037 H1067 0.979 . S
C1037 H1068 0.977 . S
C1038 C1025 1.684 . S
C1038 H1063 0.979 . S
C1038 H1064 0.980 . S
C1038 H1065 0.983 . S
C1039 C1040 1.391 . S
C1039 C1044 1.391 . S
C1039 H1069 0.948 . S
C1040 C1039 1.391 . S
C1040 C1041 1.391 . S
C1041 C1040 1.391 . S
C1041 C1042 1.392 . S
C1041 H1070 0.947 . S
C1042 C1041 1.392 . S
C1042 C1043 1.419 . S
C1042 H1071 0.948 . S
C1043 C1042 1.419 . S
C1043 C1044 1.391 . S
C1043 C1047 1.397 . S
C1044 C1039 1.391 . S
C1044 C1043 1.391 . S
C1044 C1045 1.399 . S
C1045 C1044 1.399 . S
C1045 C1046 1.396 . S
C1045 C1048 1.453 . S
C1045 C1049 1.684 . S
C1046 C1027 1.723 . S
C1046 C1045 1.396 . S
C1046 C1047 1.394 . S
C1047 C1043 1.397 . S
C1047 C1046 1.394 . S
C1047 C1057 1.723 . S
C1048 C1045 1.453 . S
C1048 H1072 0.982 . S
C1048 H1073 0.979 . S
C1048 H1074 0.977 . S
C1049 C1045 1.684 . S
C1049 H1075 0.979 . S
C1049 H1076 0.980 . S
C1049 H1077 0.983 . S
C1050 H1026 0.948 . S
C1050 C1051 1.391 . S
C1050 C1055 1.391 . S
C1051 C1050 1.391 . S
C1051 C1052 1.391 . S
C1052 H1029 0.947 . S
C1052 C1051 1.391 . S
C1052 C1053 1.392 . S
C1053 H1030 0.948 . S
C1053 C1052 1.392 . S
C1053 C1054 1.419 . S
C1054 C1053 1.419 . S
C1054 C1055 1.391 . S
C1054 C1058 1.397 . S
C1055 C1050 1.391 . S
C1055 C1054 1.391 . S
C1055 C1056 1.399 . S
C1056 C1055 1.399 . S
C1056 C1057 1.396 . S
C1056 C1059 1.453 . S
C1056 C1060 1.684 . S
C1057 C1047 1.723 . S
C1057 C1056 1.396 . S
C1057 C1058 1.394 . S
C1058 C1028 1.723 . S
C1058 C1054 1.397 . S
C1058 C1057 1.394 . S
C1059 H1031 0.982 . S
C1059 H1035 0.979 . S
C1059 H1036 0.977 . S
C1059 C1056 1.453 . S
C1060 H1032 0.979 . S
C1060 H1033 0.980 . S
C1060 H1034 0.983 . S
C1060 C1056 1.684 . S
H1061 C1079 0.948 . S
H1062 C1020 0.948 . S
H1063 C1038 0.979 . S
H1064 C1038 0.980 . S
H1065 C1038 0.983 . S
H1066 C1037 0.982 . S
H1067 C1037 0.979 . S
H1068 C1037 0.977 . S
H1069 C1039 0.948 . S
H1070 C1041 0.947 . S
H1071 C1042 0.948 . S
H1072 C1048 0.982 . S
H1073 C1048 0.979 . S
H1074 C1048 0.977 . S
H1075 C1049 0.979 . S
H1076 C1049 0.980 . S
H1077 C1049 0.983 . S
H1078 C1022 0.947 . S
C1079 C1022 1.392 . S
C1079 C1023 1.419 . S
C1079 H1061 0.948 . S
C1080 C1081 1.391 . S
C1080 C1084 1.391 . S
C1080 H1122 0.948 . S
C1081 C1080 1.391 . S
C1081 C1082 1.391 . S
C1082 C1081 1.391 . S
C1082 H1138 0.947 . S
C1082 C1139 1.392 . S
C1083 C1084 1.391 . S
C1083 C1087 1.397 . S
C1083 C1139 1.419 . S
C1084 C1080 1.391 . S
C1084 C1083 1.391 . S
C1084 C1085 1.399 . S
C1085 C1084 1.399 . S
C1085 C1088 1.396 . S
C1085 C1097 1.453 . S
C1085 C1098 1.684 . S
H1086 C1110 0.948 . S
C1087 C1083 1.397 . S
C1087 C1088 1.394 . S
C1087 C1106 1.723 . S
C1088 C1085 1.396 . S
C1088 C1087 1.394 . S
C1088 C1118 1.723 . S
H1089 C1112 0.947 . S
H1090 C1113 0.948 . S
H1091 C1119 0.982 . S
H1092 C1120 0.979 . S
H1093 C1120 0.980 . S
H1094 C1120 0.983 . S
H1095 C1119 0.979 . S
H1096 C1119 0.977 . S
C1097 C1085 1.453 . S
C1097 H1126 0.982 . S
C1097 H1127 0.979 . S
C1097 H1128 0.977 . S
C1098 C1085 1.684 . S
C1098 H1123 0.979 . S
C1098 H1124 0.980 . S
C1098 H1125 0.983 . S
C1099 C1100 1.391 . S
C1099 C1104 1.391 . S
C1099 H1129 0.948 . S
C1100 C1099 1.391 . S
C1100 C1101 1.391 . S
C1101 C1100 1.391 . S
C1101 C1102 1.392 . S
C1101 H1130 0.947 . S
C1102 C1101 1.392 . S
C1102 C1103 1.419 . S
C1102 H1131 0.948 . S
C1103 C1102 1.419 . S
C1103 C1104 1.391 . S
C1103 C1107 1.397 . S
C1104 C1099 1.391 . S
C1104 C1103 1.391 . S
C1104 C1105 1.399 . S
C1105 C1104 1.399 . S
C1105 C1106 1.396 . S
C1105 C1108 1.453 . S
C1105 C1109 1.684 . S
C1106 C1087 1.723 . S
C1106 C1105 1.396 . S
C1106 C1107 1.394 . S
C1107 C1103 1.397 . S
C1107 C1106 1.394 . S
C1107 C1117 1.723 . S
C1108 C1105 1.453 . S
C1108 H1132 0.982 . S
C1108 H1133 0.979 . S
C1108 H1134 0.977 . S
C1109 C1105 1.684 . S
C1109 H1135 0.979 . S
C1109 H1136 0.980 . S
C1109 H1137 0.983 . S
C1110 H1086 0.948 . S
C1110 C1111 1.391 . S
C1110 C1115 1.391 . S
C1111 C1110 1.391 . S
C1111 C1112 1.391 . S
C1112 H1089 0.947 . S
C1112 C1111 1.391 . S
C1112 C1113 1.392 . S
C1113 H1090 0.948 . S
C1113 C1112 1.392 . S
C1113 C1114 1.419 . S
C1114 C1113 1.419 . S
C1114 C1115 1.391 . S
C1114 C1118 1.397 . S
C1115 C1110 1.391 . S
C1115 C1114 1.391 . S
C1115 C1116 1.399 . S
C1116 C1115 1.399 . S
C1116 C1117 1.396 . S
C1116 C1119 1.453 . S
C1116 C1120 1.684 . S
C1117 C1107 1.723 . S
C1117 C1116 1.396 . S
C1117 C1118 1.394 . S
C1118 C1088 1.723 . S
C1118 C1114 1.397 . S
C1118 C1117 1.394 . S
C1119 H1091 0.982 . S
C1119 H1095 0.979 . S
C1119 H1096 0.977 . S
C1119 C1116 1.453 . S
C1120 H1092 0.979 . S
C1120 H1093 0.980 . S
C1120 H1094 0.983 . S
C1120 C1116 1.684 . S
H1121 C1139 0.948 . S
H1122 C1080 0.948 . S
H1123 C1098 0.979 . S
H1124 C1098 0.980 . S
H1125 C1098 0.983 . S
H1126 C1097 0.982 . S
H1127 C1097 0.979 . S
H1128 C1097 0.977 . S
H1129 C1099 0.948 . S
H1130 C1101 0.947 . S
H1131 C1102 0.948 . S
H1132 C1108 0.982 . S
H1133 C1108 0.979 . S
H1134 C1108 0.977 . S
H1135 C1109 0.979 . S
H1136 C1109 0.980 . S
H1137 C1109 0.983 . S
H1138 C1082 0.947 . S
C1139 C1082 1.392 . S
C1139 C1083 1.419 . S
C1139 H1121 0.948 . S
C1140 C1141 1.391 . S
C1140 C1144 1.391 . S
C1140 H1182 0.948 . S
C1141 C1140 1.391 . S
C1141 C1142 1.391 . S
C1142 C1141 1.391 . S
C1142 H1198 0.947 . S
C1142 C1199 1.392 . S
C1143 C1144 1.391 . S
C1143 C1147 1.397 . S
C1143 C1199 1.419 . S
C1144 C1140 1.391 . S
C1144 C1143 1.391 . S
C1144 C1145 1.399 . S
C1145 C1144 1.399 . S
C1145 C1148 1.396 . S
C1145 C1157 1.453 . S
C1145 C1158 1.684 . S
H1146 C1170 0.948 . S
C1147 C1143 1.397 . S
C1147 C1148 1.394 . S
C1147 C1166 1.723 . S
C1148 C1145 1.396 . S
C1148 C1147 1.394 . S
C1148 C1178 1.723 . S
H1149 C1172 0.947 . S
H1150 C1173 0.948 . S
H1151 C1179 0.982 . S
H1152 C1180 0.979 . S
H1153 C1180 0.980 . S
H1154 C1180 0.983 . S
H1155 C1179 0.979 . S
H1156 C1179 0.977 . S
C1157 C1145 1.453 . S
C1157 H1186 0.982 . S
C1157 H1187 0.979 . S
C1157 H1188 0.977 . S
C1158 C1145 1.684 . S
C1158 H1183 0.979 . S
C1158 H1184 0.980 . S
C1158 H1185 0.983 . S
C1159 C1160 1.391 . S
C1159 C1164 1.391 . S
C1159 H1189 0.948 . S
C1160 C1159 1.391 . S
C1160 C1161 1.391 . S
C1161 C1160 1.391 . S
C1161 C1162 1.392 . S
C1161 H1190 0.947 . S
C1162 C1161 1.392 . S
C1162 C1163 1.419 . S
C1162 H1191 0.948 . S
C1163 C1162 1.419 . S
C1163 C1164 1.391 . S
C1163 C1167 1.397 . S
C1164 C1159 1.391 . S
C1164 C1163 1.391 . S
C1164 C1165 1.399 . S
C1165 C1164 1.399 . S
C1165 C1166 1.396 . S
C1165 C1168 1.453 . S
C1165 C1169 1.684 . S
C1166 C1147 1.723 . S
C1166 C1165 1.396 . S
C1166 C1167 1.394 . S
C1167 C1163 1.397 . S
C1167 C1166 1.394 . S
C1167 C1177 1.723 . S
C1168 C1165 1.453 . S
C1168 H1192 0.982 . S
C1168 H1193 0.979 . S
C1168 H1194 0.977 . S
C1169 C1165 1.684 . S
C1169 H1195 0.979 . S
C1169 H1196 0.980 . S
C1169 H1197 0.983 . S
C1170 H1146 0.948 . S
C1170 C1171 1.391 . S
C1170 C1175 1.391 . S
C1171 C1170 1.391 . S
C1171 C1172 1.391 . S
C1172 H1149 0.947 . S
C1172 C1171 1.391 . S
C1172 C1173 1.392 . S
C1173 H1150 0.948 . S
C1173 C1172 1.392 . S
C1173 C1174 1.419 . S
C1174 C1173 1.419 . S
C1174 C1175 1.391 . S
C1174 C1178 1.397 . S
C1175 C1170 1.391 . S
C1175 C1174 1.391 . S
C1175 C1176 1.399 . S
C1176 C1175 1.399 . S
C1176 C1177 1.396 . S
C1176 C1179 1.453 . S
C1176 C1180 1.684 . S
C1177 C1167 1.723 . S
C1177 C1176 1.396 . S
C1177 C1178 1.394 . S
C1178 C1148 1.723 . S
C1178 C1174 1.397 . S
C1178 C1177 1.394 . S
C1179 H1151 0.982 . S
C1179 H1155 0.979 . S
C1179 H1156 0.977 . S
C1179 C1176 1.453 . S
C1180 H1152 0.979 . S
C1180 H1153 0.980 . S
C1180 H1154 0.983 . S
C1180 C1176 1.684 . S
H1181 C1199 0.948 . S
H1182 C1140 0.948 . S
H1183 C1158 0.979 . S
H1184 C1158 0.980 . S
H1185 C1158 0.983 . S
H1186 C1157 0.982 . S
H1187 C1157 0.979 . S
H1188 C1157 0.977 . S
H1189 C1159 0.948 . S
H1190 C1161 0.947 . S
H1191 C1162 0.948 . S
H1192 C1168 0.982 . S
H1193 C1168 0.979 . S
H1194 C1168 0.977 . S
H1195 C1169 0.979 . S
H1196 C1169 0.980 . S
H1197 C1169 0.983 . S
H1198 C1142 0.947 . S
C1199 C1142 1.392 . S
C1199 C1143 1.419 . S
C1199 H1181 0.948 . S
C1200 C1201 1.391 . S
C1200 C1204 1.391 . S
C1200 H1242 0.948 . S
C1201 C1200 1.391 . S
C1201 C1202 1.391 . S
C1202 C1201 1.391 . S
C1202 H1258 0.947 . S
C1202 C1259 1.392 . S
C1203 C1204 1.391 . S
C1203 C1207 1.397 . S
C1203 C1259 1.419 . S
C1204 C1200 1.391 . S
C1204 C1203 1.391 . S
C1204 C1205 1.399 . S
C1205 C1204 1.399 . S
C1205 C1208 1.396 . S
C1205 C1217 1.453 . S
C1205 C1218 1.684 . S
H1206 C1230 0.948 . S
C1207 C1203 1.397 . S
C1207 C1208 1.394 . S
C1207 C1226 1.723 . S
C1208 C1205 1.396 . S
C1208 C1207 1.394 . S
C1208 C1238 1.723 . S
H1209 C1232 0.947 . S
H1210 C1233 0.948 . S
H1211 C1239 0.982 . S
H1212 C1240 0.979 . S
H1213 C1240 0.980 . S
H1214 C1240 0.983 . S
H1215 C1239 0.979 . S
H1216 C1239 0.977 . S
C1217 C1205 1.453 . S
C1217 H1246 0.982 . S
C1217 H1247 0.979 . S
C1217 H1248 0.977 . S
C1218 C1205 1.684 . S
C1218 H1243 0.979 . S
C1218 H1244 0.980 . S
C1218 H1245 0.983 . S
C1219 C1220 1.391 . S
C1219 C1224 1.391 . S
C1219 H1249 0.948 . S
C1220 C1219 1.391 . S
C1220 C1221 1.391 . S
C1221 C1220 1.391 . S
C1221 C1222 1.392 . S
C1221 H1250 0.947 . S
C1222 C1221 1.392 . S
C1222 C1223 1.419 . S
C1222 H1251 0.948 . S
C1223 C1222 1.419 . S
C1223 C1224 1.391 . S
C1223 C1227 1.397 . S
C1224 C1219 1.391 . S
C1224 C1223 1.391 . S
C1224 C1225 1.399 . S
C1225 C1224 1.399 . S
C1225 C1226 1.396 . S
C1225 C1228 1.453 . S
C1225 C1229 1.684 . S
C1226 C1207 1.723 . S
C1226 C1225 1.396 . S
C1226 C1227 1.394 . S
C1227 C1223 1.397 . S
C1227 C1226 1.394 . S
C1227 C1237 1.723 . S
C1228 C1225 1.453 . S
C1228 H1252 0.982 . S
C1228 H1253 0.979 . S
C1228 H1254 0.977 . S
C1229 C1225 1.684 . S
C1229 H1255 0.979 . S
C1229 H1256 0.980 . S
C1229 H1257 0.983 . S
C1230 H1206 0.948 . S
C1230 C1231 1.391 . S
C1230 C1235 1.391 . S
C1231 C1230 1.391 . S
C1231 C1232 1.391 . S
C1232 H1209 0.947 . S
C1232 C1231 1.391 . S
C1232 C1233 1.392 . S
C1233 H1210 0.948 . S
C1233 C1232 1.392 . S
C1233 C1234 1.419 . S
C1234 C1233 1.419 . S
C1234 C1235 1.391 . S
C1234 C1238 1.397 . S
C1235 C1230 1.391 . S
C1235 C1234 1.391 . S
C1235 C1236 1.399 . S
C1236 C1235 1.399 . S
C1236 C1237 1.396 . S
C1236 C1239 1.453 . S
C1236 C1240 1.684 . S
C1237 C1227 1.723 . S
C1237 C1236 1.396 . S
C1237 C1238 1.394 . S
C1238 C1208 1.723 . S
C1238 C1234 1.397 . S
C1238 C1237 1.394 . S
C1239 H1211 0.982 . S
C1239 H1215 0.979 . S
C1239 H1216 0.977 . S
C1239 C1236 1.453 . S
C1240 H1212 0.979 . S
C1240 H1213 0.980 . S
C1240 H1214 0.983 . S
C1240 C1236 1.684 . S
H1241 C1259 0.948 . S
H1242 C1200 0.948 . S
H1243 C1218 0.979 . S
H1244 C1218 0.980 . S
H1245 C1218 0.983 . S
H1246 C1217 0.982 . S
H1247 C1217 0.979 . S
H1248 C1217 0.977 . S
H1249 C1219 0.948 . S
H1250 C1221 0.947 . S
H1251 C1222 0.948 . S
H1252 C1228 0.982 . S
H1253 C1228 0.979 . S
H1254 C1228 0.977 . S
H1255 C1229 0.979 . S
H1256 C1229 0.980 . S
H1257 C1229 0.983 . S
H1258 C1202 0.947 . S
C1259 C1202 1.392 . S
C1259 C1203 1.419 . S
C1259 H1241 0.948 . S
C1260 C1261 1.391 . S
C1260 C1264 1.391 . S
C1260 H1302 0.948 . S
C1261 C1260 1.391 . S
C1261 C1262 1.391 . S
C1262 C1261 1.391 . S
C1262 H1318 0.947 . S
C1262 C1319 1.392 . S
C1263 C1264 1.391 . S
C1263 C1267 1.397 . S
C1263 C1319 1.419 . S
C1264 C1260 1.391 . S
C1264 C1263 1.391 . S
C1264 C1265 1.399 . S
C1265 C1264 1.399 . S
C1265 C1268 1.396 . S
C1265 C1277 1.453 . S
C1265 C1278 1.684 . S
H1266 C1290 0.948 . S
C1267 C1263 1.397 . S
C1267 C1268 1.394 . S
C1267 C1286 1.723 . S
C1268 C1265 1.396 . S
C1268 C1267 1.394 . S
C1268 C1298 1.723 . S
H1269 C1292 0.947 . S
H1270 C1293 0.948 . S
H1271 C1299 0.982 . S
H1272 C1300 0.979 . S
H1273 C1300 0.980 . S
H1274 C1300 0.983 . S
H1275 C1299 0.979 . S
H1276 C1299 0.977 . S
C1277 C1265 1.453 . S
C1277 H1306 0.982 . S
C1277 H1307 0.979 . S
C1277 H1308 0.977 . S
C1278 C1265 1.684 . S
C1278 H1303 0.979 . S
C1278 H1304 0.980 . S
C1278 H1305 0.983 . S
C1279 C1280 1.391 . S
C1279 C1284 1.391 . S
C1279 H1309 0.948 . S
C1280 C1279 1.391 . S
C1280 C1281 1.391 . S
C1281 C1280 1.391 . S
C1281 C1282 1.392 . S
C1281 H1310 0.947 . S
C1282 C1281 1.392 . S
C1282 C1283 1.419 . S
C1282 H1311 0.948 . S
C1283 C1282 1.419 . S
C1283 C1284 1.391 . S
C1283 C1287 1.397 . S
C1284 C1279 1.391 . S
C1284 C1283 1.391 . S
C1284 C1285 1.399 . S
C1285 C1284 1.399 . S
C1285 C1286 1.396 . S
C1285 C1288 1.453 . S
C1285 C1289 1.684 . S
C1286 C1267 1.723 . S
C1286 C1285 1.396 . S
C1286 C1287 1.394 . S
C1287 C1283 1.397 . S
C1287 C1286 1.394 . S
C1287 C1297 1.723 . S
C1288 C1285 1.453 . S
C1288 H1312 0.982 . S
C1288 H1313 0.979 . S
C1288 H1314 0.977 . S
C1289 C1285 1.684 . S
C1289 H1315 0.979 . S
C1289 H1316 0.980 . S
C1289 H1317 0.983 . S
C1290 H1266 0.948 . S
C1290 C1291 1.391 . S
C1290 C1295 1.391 . S
C1291 C1290 1.391 . S
C1291 C1292 1.391 . S
C1292 H1269 0.947 . S
C1292 C1291 1.391 . S
C1292 C1293 1.392 . S
C1293 H1270 0.948 . S
C1293 C1292 1.392 . S
C1293 C1294 1.419 . S
C1294 C1293 1.419 . S
C1294 C1295 1.391 . S
C1294 C1298 1.397 . S
C1295 C1290 1.391 . S
C1295 C1294 1.391 . S
C1295 C1296 1.399 . S
C1296 C1295 1.399 . S
C1296 C1297 1.396 . S
C1296 C1299 1.453 . S
C1296 C1300 1.684 . S
C1297 C1287 1.723 . S
C1297 C1296 1.396 . S
C1297 C1298 1.394 . S
C1298 C1268 1.723 . S
C1298 C1294 1.397 . S
C1298 C1297 1.394 . S
C1299 H1271 0.982 . S
C1299 H1275 0.979 . S
C1299 H1276 0.977 . S
C1299 C1296 1.453 . S
C1300 H1272 0.979 . S
C1300 H1273 0.980 . S
C1300 H1274 0.983 . S
C1300 C1296 1.684 . S
H1301 C1319 0.948 . S
H1302 C1260 0.948 . S
H1303 C1278 0.979 . S
H1304 C1278 0.980 . S
H1305 C1278 0.983 . S
H1306 C1277 0.982 . S
H1307 C1277 0.979 . S
H1308 C1277 0.977 . S
H1309 C1279 0.948 . S
H1310 C1281 0.947 . S
H1311 C1282 0.948 . S
H1312 C1288 0.982 . S
H1313 C1288 0.979 . S
H1314 C1288 0.977 . S
H1315 C1289 0.979 . S
H1316 C1289 0.980 . S
H1317 C1289 0.983 . S
H1318 C1262 0.947 . S
C1319 C1262 1.392 . S
C1319 C1263 1.419 . S
C1319 H1301 0.948 . S
C1320 C1321 1.391 . S
C1320 C1324 1.391 . S
C1320 H1362 0.948 . S
C1321 C1320 1.391 . S
C1321 C1322 1.391 . S
C1322 C1321 1.391 . S
C1322 H1378 0.947 . S
C1322 C1379 1.392 . S
C1323 C1324 1.391 . S
C1323 C1327 1.397 . S
C1323 C1379 1.419 . S
C1324 C1320 1.391 . S
C1324 C1323 1.391 . S
C1324 C1325 1.399 . S
C1325 C1324 1.399 . S
C1325 C1328 1.396 . S
C1325 C1337 1.453 . S
C1325 C1338 1.684 . S
H1326 C1350 0.948 . S
C1327 C1323 1.397 . S
C1327 C1328 1.394 . S
C1327 C1346 1.723 . S
C1328 C1325 1.396 . S
C1328 C1327 1.394 . S
C1328 C1358 1.723 . S
H1329 C1352 0.947 . S
H1330 C1353 0.948 . S
H1331 C1359 0.982 . S
H1332 C1360 0.979 . S
H1333 C1360 0.980 . S
H1334 C1360 0.983 . S
H1335 C1359 0.979 . S
H1336 C1359 0.977 . S
C1337 C1325 1.453 . S
C1337 H1366 0.982 . S
C1337 H1367 0.979 . S
C1337 H1368 0.977 . S
C1338 C1325 1.684 . S
C1338 H1363 0.979 . S
C1338 H1364 0.980 . S
C1338 H1365 0.983 . S
C1339 C1340 1.391 . S
C1339 C1344 1.391 . S
C1339 H1369 0.948 . S
C1340 C1339 1.391 . S
C1340 C1341 1.391 . S
C1341 C1340 1.391 . S
C1341 C1342 1.392 . S
C1341 H1370 0.947 . S
C1342 C1341 1.392 . S
C1342 C1343 1.419 . S
C1342 H1371 0.948 . S
C1343 C1342 1.419 . S
C1343 C1344 1.391 . S
C1343 C1347 1.397 . S
C1344 C1339 1.391 . S
C1344 C1343 1.391 . S
C1344 C1345 1.399 . S
C1345 C1344 1.399 . S
C1345 C1346 1.396 . S
C1345 C1348 1.453 . S
C1345 C1349 1.684 . S
C1346 C1327 1.723 . S
C1346 C1345 1.396 . S
C1346 C1347 1.394 . S
C1347 C1343 1.397 . S
C1347 C1346 1.394 . S
C1347 C1357 1.723 . S
C1348 C1345 1.453 . S
C1348 H1372 0.982 . S
C1348 H1373 0.979 . S
C1348 H1374 0.977 . S
C1349 C1345 1.684 . S
C1349 H1375 0.979 . S
C1349 H1376 0.980 . S
C1349 H1377 0.983 . S
C1350 H1326 0.948 . S
C1350 C1351 1.391 . S
C1350 C1355 1.391 . S
C1351 C1350 1.391 . S
C1351 C1352 1.391 . S
C1352 H1329 0.947 . S
C1352 C1351 1.391 . S
C1352 C1353 1.392 . S
C1353 H1330 0.948 . S
C1353 C1352 1.392 . S
C1353 C1354 1.419 . S
C1354 C1353 1.419 . S
C1354 C1355 1.391 . S
C1354 C1358 1.397 . S
C1355 C1350 1.391 . S
C1355 C1354 1.391 . S
C1355 C1356 1.399 . S
C1356 C1355 1.399 . S
C1356 C1357 1.396 . S
C1356 C1359 1.453 . S
C1356 C1360 1.684 . S
C1357 C1347 1.723 . S
C1357 C1356 1.396 . S
C1357 C1358 1.394 . S
C1358 C1328 1.723 . S
C1358 C1354 1.397 . S
C1358 C1357 1.394 . S
C1359 H1331 0.982 . S
C1359 H1335 0.979 . S
C1359 H1336 0.977 . S
C1359 C1356 1.453 . S
C1360 H1332 0.979 . S
C1360 H1333 0.980 . S
C1360 H1334 0.983 . S
C1360 C1356 1.684 . S
H1361 C1379 0.948 . S
H1362 C1320 0.948 . S
H1363 C1338 0.979 . S
H1364 C1338 0.980 . S
H1365 C1338 0.983 . S
H1366 C1337 0.982 . S
H1367 C1337 0.979 . S
H1368 C1337 0.977 . S
H1369 C1339 0.948 . S
H1370 C1341 0.947 . S
H1371 C1342 0.948 . S
H1372 C1348 0.982 . S
H1373 C1348 0.979 . S
H1374 C1348 0.977 . S
H1375 C1349 0.979 . S
H1376 C1349 0.980 . S
H1377 C1349 0.983 . S
H1378 C1322 0.947 . S
C1379 C1322 1.392 . S
C1379 C1323 1.419 . S
C1379 H1361 0.948 . S
C1380 C1381 1.391 . S
C1380 C1384 1.391 . S
C1380 H1422 0.948 . S
C1381 C1380 1.391 . S
C1381 C1382 1.391 . S
C1382 C1381 1.391 . S
C1382 H1438 0.947 . S
C1382 C1439 1.392 . S
C1383 C1384 1.391 . S
C1383 C1387 1.397 . S
C1383 C1439 1.419 . S
C1384 C1380 1.391 . S
C1384 C1383 1.391 . S
C1384 C1385 1.399 . S
C1385 C1384 1.399 . S
C1385 C1388 1.396 . S
C1385 C1397 1.453 . S
C1385 C1398 1.684 . S
H1386 C1410 0.948 . S
C1387 C1383 1.397 . S
C1387 C1388 1.394 . S
C1387 C1406 1.723 . S
C1388 C1385 1.396 . S
C1388 C1387 1.394 . S
C1388 C1418 1.723 . S
H1389 C1412 0.947 . S
H1390 C1413 0.948 . S
H1391 C1419 0.982 . S
H1392 C1420 0.979 . S
H1393 C1420 0.980 . S
H1394 C1420 0.983 . S
H1395 C1419 0.979 . S
H1396 C1419 0.977 . S
C1397 C1385 1.453 . S
C1397 H1426 0.982 . S
C1397 H1427 0.979 . S
C1397 H1428 0.977 . S
C1398 C1385 1.684 . S
C1398 H1423 0.979 . S
C1398 H1424 0.980 . S
C1398 H1425 0.983 . S
C1399 C1400 1.391 . S
C1399 C1404 1.391 . S
C1399 H1429 0.948 . S
C1400 C1399 1.391 . S
C1400 C1401 1.391 . S
C1401 C1400 1.391 . S
C1401 C1402 1.392 . S
C1401 H1430 0.947 . S
C1402 C1401 1.392 . S
C1402 C1403 1.419 . S
C1402 H1431 0.948 . S
C1403 C1402 1.419 . S
C1403 C1404 1.391 . S
C1403 C1407 1.397 . S
C1404 C1399 1.391 . S
C1404 C1403 1.391 . S
C1404 C1405 1.399 . S
C1405 C1404 1.399 . S
C1405 C1406 1.396 . S
C1405 C1408 1.453 . S
C1405 C1409 1.684 . S
C1406 C1387 1.723 . S
C1406 C1405 1.396 . S
C1406 C1407 1.394 . S
C1407 C1403 1.397 . S
C1407 C1406 1.394 . S
C1407 C1417 1.723 . S
C1408 C1405 1.453 . S
C1408 H1432 0.982 . S
C1408 H1433 0.979 . S
C1408 H1434 0.977 . S
C1409 C1405 1.684 . S
C1409 H1435 0.979 . S
C1409 H1436 0.980 . S
C1409 H1437 0.983 . S
C1410 H1386 0.948 . S
C1410 C1411 1.391 . S
C1410 C1415 1.391 . S
C1411 C1410 1.391 . S
C1411 C1412 1.391 . S
C1412 H1389 0.947 . S
C1412 C1411 1.391 . S
C1412 C1413 1.392 . S
C1413 H1390 0.948 . S
C1413 C1412 1.392 . S
C1413 C1414 1.419 . S
C1414 C1413 1.419 . S
C1414 C1415 1.391 . S
C1414 C1418 1.397 . S
C1415 C1410 1.391 . S
C1415 C1414 1.391 . S
C1415 C1416 1.399 . S
C1416 C1415 1.399 . S
C1416 C1417 1.396 . S
C1416 C1419 1.453 . S
C1416 C1420 1.684 . S
C1417 C1407 1.723 . S
C1417 C1416 1.396 . S
C1417 C1418 1.394 . S
C1418 C1388 1.723 . S
C1418 C1414 1.397 . S
C1418 C1417 1.394 . S
C1419 H1391 0.982 . S
C1419 H1395 0.979 . S
C1419 H1396 0.977 . S
C1419 C1416 1.453 . S
C1420 H1392 0.979 . S
C1420 H1393 0.980 . S
C1420 H1394 0.983 . S
C1420 C1416 1.684 . S
H1421 C1439 0.948 . S
H1422 C1380 0.948 . S
H1423 C1398 0.979 . S
H1424 C1398 0.980 . S
H1425 C1398 0.983 . S
H1426 C1397 0.982 . S
H1427 C1397 0.979 . S
H1428 C1397 0.977 . S
H1429 C1399 0.948 . S
H1430 C1401 0.947 . S
H1431 C1402 0.948 . S
H1432 C1408 0.982 . S
H1433 C1408 0.979 . S
H1434 C1408 0.977 . S
H1435 C1409 0.979 . S
H1436 C1409 0.980 . S
H1437 C1409 0.983 . S
H1438 C1382 0.947 . S
C1439 C1382 1.392 . S
C1439 C1383 1.419 . S
C1439 H1421 0.948 . S
C1440 O1466 1.283 . S
C1440 O1484 1.283 . S
C1441 O1467 1.283 . S
C1441 O1482 1.283 . S
C1442 O1468 1.283 . S
C1442 O1485 1.283 . S
C1443 O1469 1.283 . S
C1443 O1483 1.283 . S
C1444 O1470 1.283 . S
C1444 O1479 1.283 . S
C1445 O1471 1.283 . S
C1445 O1481 1.283 . S
C1446 O1472 1.283 . S
C1446 O1478 1.283 . S
C1447 O1473 1.283 . S
C1447 O1480 1.283 . S
C1448 O1474 1.283 . S
C1448 O1489 1.283 . S
C1449 O1475 1.283 . S
C1449 O1487 1.283 . S
C1450 O1476 1.283 . S
C1450 O1488 1.283 . S
C1451 O1477 1.283 . S
C1451 O1486 1.283 . S
Eu1452 O1453 2.370 1_455 S
Eu1452 O1454 2.370 . S
Eu1452 O1457 2.370 1_455 S
Eu1452 O1458 2.370 . S
Eu1452 O1466 2.363 . S
Eu1452 O1467 2.363 . S
Eu1452 O1480 2.363 . S
Eu1452 O1481 2.363 1_455 S
O1453 Eu1452 2.370 1_655 S
O1453 Eu1455 2.370 1_565 S
O1453 Eu1460 2.370 1_665 S
O1454 Eu1452 2.370 . S
O1454 Eu1456 2.370 1_565 S
O1454 Eu1459 2.370 1_565 S
Eu1455 O1453 2.370 1_545 S
Eu1455 O1457 2.370 1_545 S
Eu1455 O1461 2.370 . S
Eu1455 O1462 2.370 . S
Eu1455 O1470 2.363 . S
Eu1455 O1471 2.363 1_545 S
Eu1455 O1486 2.363 . S
Eu1455 O1487 2.363 . S
Eu1456 O1454 2.370 1_545 S
Eu1456 O1458 2.370 1_545 S
Eu1456 O1463 2.370 . S
Eu1456 O1464 2.370 . S
Eu1456 O1472 2.363 . S
Eu1456 O1473 2.363 1_545 S
Eu1456 O1488 2.363 . S
Eu1456 O1489 2.363 . S
O1457 Eu1452 2.370 1_655 S
O1457 Eu1455 2.370 1_565 S
O1457 Eu1459 2.370 1_665 S
O1458 Eu1452 2.370 . S
O1458 Eu1456 2.370 1_565 S
O1458 Eu1460 2.370 1_565 S
Eu1459 O1454 2.370 1_545 S
Eu1459 O1457 2.370 1_445 S
Eu1459 O1461 2.370 1_455 S
Eu1459 O1464 2.370 . S
Eu1459 O1476 2.363 . S
Eu1459 O1477 2.363 1_455 S
Eu1459 O1484 2.363 1_545 S
Eu1459 O1485 2.363 . S
Eu1460 O1453 2.370 1_445 S
Eu1460 O1458 2.370 1_545 S
Eu1460 O1462 2.370 1_455 S
Eu1460 O1463 2.370 . S
Eu1460 O1474 2.363 . S
Eu1460 O1475 2.363 1_455 S
Eu1460 O1482 2.363 1_545 S
Eu1460 O1483 2.363 . S
O1461 Eu1455 2.370 . S
O1461 Eu1459 2.370 1_655 S
O1461 Eu1465 2.370 1_655 S
O1462 Eu1455 2.370 . S
O1462 Eu1460 2.370 1_655 S
O1462 Eu1465 2.370 1_655 S
O1463 Eu1456 2.370 . S
O1463 Eu1460 2.370 . S
O1463 Eu1465 2.370 . S
O1464 Eu1456 2.370 . S
O1464 Eu1459 2.370 . S
O1464 Eu1465 2.370 . S
Eu1465 O1461 2.370 1_455 S
Eu1465 O1462 2.370 1_455 S
Eu1465 O1463 2.370 . S
Eu1465 O1464 2.370 . S
Eu1465 O1468 2.363 . S
Eu1465 O1469 2.363 . S
Eu1465 O1478 2.363 . S
Eu1465 O1479 2.363 1_455 S
O1466 C1440 1.283 . S
O1466 Eu1452 2.363 . S
O1467 C1441 1.283 . S
O1467 Eu1452 2.363 . S
O1468 C1442 1.283 . S
O1468 Eu1465 2.363 . S
O1469 C1443 1.283 . S
O1469 Eu1465 2.363 . S
O1470 C1444 1.283 . S
O1470 Eu1455 2.363 . S
O1471 C1445 1.283 . S
O1471 Eu1455 2.363 1_565 S
O1472 C1446 1.283 . S
O1472 Eu1456 2.363 . S
O1473 C1447 1.283 . S
O1473 Eu1456 2.363 1_565 S
O1474 C1448 1.283 . S
O1474 Eu1460 2.363 . S
O1475 C1449 1.283 . S
O1475 Eu1460 2.363 1_655 S
O1476 C1450 1.283 . S
O1476 Eu1459 2.363 . S
O1477 C1451 1.283 . S
O1477 Eu1459 2.363 1_655 S
O1478 C1446 1.283 . S
O1478 Eu1465 2.363 . S
O1479 C1444 1.283 . S
O1479 Eu1465 2.363 1_655 S
O1480 C1447 1.283 . S
O1480 Eu1452 2.363 . S
O1481 C1445 1.283 . S
O1481 Eu1452 2.363 1_655 S
O1482 C1441 1.283 . S
O1482 Eu1460 2.363 1_565 S
O1483 C1443 1.283 . S
O1483 Eu1460 2.363 . S
O1484 C1440 1.283 . S
O1484 Eu1459 2.363 1_565 S
O1485 C1442 1.283 . S
O1485 Eu1459 2.363 . S
O1486 C1451 1.283 . S
O1486 Eu1455 2.363 . S
O1487 C1449 1.283 . S
O1487 Eu1455 2.363 . S
O1488 C1450 1.283 . S
O1488 Eu1456 2.363 . S
O1489 C1448 1.283 . S
O1489 Eu1456 2.363 . S
C1490 O1516 1.283 . S
C1490 O1534 1.283 . S
C1491 O1517 1.283 . S
C1491 O1532 1.283 . S
C1492 O1518 1.283 . S
C1492 O1535 1.283 . S
C1493 O1519 1.283 . S
C1493 O1533 1.283 . S
C1494 O1520 1.283 . S
C1494 O1529 1.283 . S
C1495 O1521 1.283 . S
C1495 O1531 1.283 . S
C1496 O1522 1.283 . S
C1496 O1528 1.283 . S
C1497 O1523 1.283 . S
C1497 O1530 1.283 . S
C1498 O1524 1.283 . S
C1498 O1539 1.283 . S
C1499 O1525 1.283 . S
C1499 O1537 1.283 . S
C1500 O1526 1.283 . S
C1500 O1538 1.283 . S
C1501 O1527 1.283 . S
C1501 O1536 1.283 . S
Eu1502 O1503 2.370 . S
Eu1502 O1504 2.370 1_545 S
Eu1502 O1507 2.370 1_545 S
Eu1502 O1508 2.370 . S
Eu1502 O1516 2.363 1_545 S
Eu1502 O1517 2.363 . S
Eu1502 O1530 2.363 . S
Eu1502 O1531 2.363 . S
O1503 Eu1502 2.370 . S
O1503 Eu1505 2.370 . S
O1503 Eu1510 2.370 . S
O1504 Eu1502 2.370 1_565 S
O1504 Eu1506 2.370 1_565 S
O1504 Eu1509 2.370 . S
Eu1505 O1503 2.370 . S
Eu1505 O1507 2.370 1_545 S
Eu1505 O1511 2.370 1_544 S
Eu1505 O1512 2.370 1_554 S
Eu1505 O1520 2.363 1_554 S
Eu1505 O1521 2.363 . S
Eu1505 O1536 2.363 1_545 S
Eu1505 O1537 2.363 . S
Eu1506 O1504 2.370 1_545 S
Eu1506 O1508 2.370 . S
Eu1506 O1513 2.370 1_554 S
Eu1506 O1514 2.370 1_544 S
Eu1506 O1522 2.363 1_554 S
Eu1506 O1523 2.363 . S
Eu1506 O1538 2.363 1_545 S
Eu1506 O1539 2.363 . S
O1507 Eu1502 2.370 1_565 S
O1507 Eu1505 2.370 1_565 S
O1507 Eu1509 2.370 . S
O1508 Eu1502 2.370 . S
O1508 Eu1506 2.370 . S
O1508 Eu1510 2.370 . S
Eu1509 O1504 2.370 . S
Eu1509 O1507 2.370 . S
Eu1509 O1511 2.370 1_554 S
Eu1509 O1514 2.370 1_554 S
Eu1509 O1526 2.363 . S
Eu1509 O1527 2.363 . S
Eu1509 O1534 2.363 . S
Eu1509 O1535 2.363 1_554 S
Eu1510 O1503 2.370 . S
Eu1510 O1508 2.370 . S
Eu1510 O1512 2.370 1_554 S
Eu1510 O1513 2.370 1_554 S
Eu1510 O1524 2.363 . S
Eu1510 O1525 2.363 . S
Eu1510 O1532 2.363 . S
Eu1510 O1533 2.363 1_554 S
O1511 Eu1505 2.370 1_566 S
O1511 Eu1509 2.370 1_556 S
O1511 Eu1515 2.370 1_565 S
O1512 Eu1505 2.370 1_556 S
O1512 Eu1510 2.370 1_556 S
O1512 Eu1515 2.370 . S
O1513 Eu1506 2.370 1_556 S
O1513 Eu1510 2.370 1_556 S
O1513 Eu1515 2.370 . S
O1514 Eu1506 2.370 1_566 S
O1514 Eu1509 2.370 1_556 S
O1514 Eu1515 2.370 1_565 S
Eu1515 O1511 2.370 1_545 S
Eu1515 O1512 2.370 . S
Eu1515 O1513 2.370 . S
Eu1515 O1514 2.370 1_545 S
Eu1515 O1518 2.363 1_545 S
Eu1515 O1519 2.363 . S
Eu1515 O1528 2.363 . S
Eu1515 O1529 2.363 . S
O1516 C1490 1.283 . S
O1516 Eu1502 2.363 1_565 S
O1517 C1491 1.283 . S
O1517 Eu1502 2.363 . S
O1518 C1492 1.283 . S
O1518 Eu1515 2.363 1_565 S
O1519 C1493 1.283 . S
O1519 Eu1515 2.363 . S
O1520 C1494 1.283 . S
O1520 Eu1505 2.363 1_556 S
O1521 C1495 1.283 . S
O1521 Eu1505 2.363 . S
O1522 C1496 1.283 . S
O1522 Eu1506 2.363 1_556 S
O1523 C1497 1.283 . S
O1523 Eu1506 2.363 . S
O1524 C1498 1.283 . S
O1524 Eu1510 2.363 . S
O1525 C1499 1.283 . S
O1525 Eu1510 2.363 . S
O1526 C1500 1.283 . S
O1526 Eu1509 2.363 . S
O1527 C1501 1.283 . S
O1527 Eu1509 2.363 . S
O1528 C1496 1.283 . S
O1528 Eu1515 2.363 . S
O1529 C1494 1.283 . S
O1529 Eu1515 2.363 . S
O1530 C1497 1.283 . S
O1530 Eu1502 2.363 . S
O1531 C1495 1.283 . S
O1531 Eu1502 2.363 . S
O1532 C1491 1.283 . S
O1532 Eu1510 2.363 . S
O1533 C1493 1.283 . S
O1533 Eu1510 2.363 1_556 S
O1534 C1490 1.283 . S
O1534 Eu1509 2.363 . S
O1535 C1492 1.283 . S
O1535 Eu1509 2.363 1_556 S
O1536 C1501 1.283 . S
O1536 Eu1505 2.363 1_565 S
O1537 C1499 1.283 . S
O1537 Eu1505 2.363 . S
O1538 C1500 1.283 . S
O1538 Eu1506 2.363 1_565 S
O1539 C1498 1.283 . S
O1539 Eu1506 2.363 . S
C1540 O1566 1.283 . S
C1540 O1584 1.283 . S
C1541 O1567 1.283 . S
C1541 O1582 1.283 . S
C1542 O1568 1.283 . S
C1542 O1585 1.283 . S
C1543 O1569 1.283 . S
C1543 O1583 1.283 . S
C1544 O1570 1.283 . S
C1544 O1579 1.283 . S
C1545 O1571 1.283 . S
C1545 O1581 1.283 . S
C1546 O1572 1.283 . S
C1546 O1578 1.283 . S
C1547 O1573 1.283 . S
C1547 O1580 1.283 . S
C1548 O1574 1.283 . S
C1548 O1589 1.283 . S
C1549 O1575 1.283 . S
C1549 O1587 1.283 . S
C1550 O1576 1.283 . S
C1550 O1588 1.283 . S
C1551 O1577 1.283 . S
C1551 O1586 1.283 . S
Eu1552 O1553 2.370 1_454 S
Eu1552 O1554 2.370 . S
Eu1552 O1557 2.370 1_455 S
Eu1552 O1558 2.370 1_554 S
Eu1552 O1566 2.363 . S
Eu1552 O1567 2.363 1_554 S
Eu1552 O1580 2.363 . S
Eu1552 O1581 2.363 1_455 S
O1553 Eu1552 2.370 1_656 S
O1553 Eu1555 2.370 1_556 S
O1553 Eu1560 2.370 1_655 S
O1554 Eu1552 2.370 . S
O1554 Eu1556 2.370 . S
O1554 Eu1559 2.370 . S
Eu1555 O1553 2.370 1_554 S
Eu1555 O1557 2.370 . S
Eu1555 O1561 2.370 . S
Eu1555 O1562 2.370 1_554 S
Eu1555 O1570 2.363 . S
Eu1555 O1571 2.363 . S
Eu1555 O1586 2.363 . S
Eu1555 O1587 2.363 1_554 S
Eu1556 O1554 2.370 . S
Eu1556 O1558 2.370 1_554 S
Eu1556 O1563 2.370 1_554 S
Eu1556 O1564 2.370 . S
Eu1556 O1572 2.363 . S
Eu1556 O1573 2.363 . S
Eu1556 O1588 2.363 . S
Eu1556 O1589 2.363 1_554 S
O1557 Eu1552 2.370 1_655 S
O1557 Eu1555 2.370 . S
O1557 Eu1559 2.370 1_655 S
O1558 Eu1552 2.370 1_556 S
O1558 Eu1556 2.370 1_556 S
O1558 Eu1560 2.370 . S
Eu1559 O1554 2.370 . S
Eu1559 O1557 2.370 1_455 S
Eu1559 O1561 2.370 1_455 S
Eu1559 O1564 2.370 . S
Eu1559 O1576 2.363 . S
Eu1559 O1577 2.363 1_455 S
Eu1559 O1584 2.363 . S
Eu1559 O1585 2.363 . S
Eu1560 O1553 2.370 1_455 S
Eu1560 O1558 2.370 . S
Eu1560 O1562 2.370 1_455 S
Eu1560 O1563 2.370 . S
Eu1560 O1574 2.363 . S
Eu1560 O1575 2.363 1_455 S
Eu1560 O1582 2.363 . S
Eu1560 O1583 2.363 . S
O1561 Eu1555 2.370 . S
O1561 Eu1559 2.370 1_655 S
O1561 Eu1565 2.370 1_655 S
O1562 Eu1555 2.370 1_556 S
O1562 Eu1560 2.370 1_655 S
O1562 Eu1565 2.370 1_656 S
O1563 Eu1556 2.370 1_556 S
O1563 Eu1560 2.370 . S
O1563 Eu1565 2.370 1_556 S
O1564 Eu1556 2.370 . S
O1564 Eu1559 2.370 . S
O1564 Eu1565 2.370 . S
Eu1565 O1561 2.370 1_455 S
Eu1565 O1562 2.370 1_454 S
Eu1565 O1563 2.370 1_554 S
Eu1565 O1564 2.370 . S
Eu1565 O1568 2.363 . S
Eu1565 O1569 2.363 1_554 S
Eu1565 O1578 2.363 . S
Eu1565 O1579 2.363 1_455 S
O1566 C1540 1.283 . S
O1566 Eu1552 2.363 . S
O1567 C1541 1.283 . S
O1567 Eu1552 2.363 1_556 S
O1568 C1542 1.283 . S
O1568 Eu1565 2.363 . S
O1569 C1543 1.283 . S
O1569 Eu1565 2.363 1_556 S
O1570 C1544 1.283 . S
O1570 Eu1555 2.363 . S
O1571 C1545 1.283 . S
O1571 Eu1555 2.363 . S
O1572 C1546 1.283 . S
O1572 Eu1556 2.363 . S
O1573 C1547 1.283 . S
O1573 Eu1556 2.363 . S
O1574 C1548 1.283 . S
O1574 Eu1560 2.363 . S
O1575 C1549 1.283 . S
O1575 Eu1560 2.363 1_655 S
O1576 C1550 1.283 . S
O1576 Eu1559 2.363 . S
O1577 C1551 1.283 . S
O1577 Eu1559 2.363 1_655 S
O1578 C1546 1.283 . S
O1578 Eu1565 2.363 . S
O1579 C1544 1.283 . S
O1579 Eu1565 2.363 1_655 S
O1580 C1547 1.283 . S
O1580 Eu1552 2.363 . S
O1581 C1545 1.283 . S
O1581 Eu1552 2.363 1_655 S
O1582 C1541 1.283 . S
O1582 Eu1560 2.363 . S
O1583 C1543 1.283 . S
O1583 Eu1560 2.363 . S
O1584 C1540 1.283 . S
O1584 Eu1559 2.363 . S
O1585 C1542 1.283 . S
O1585 Eu1559 2.363 . S
O1586 C1551 1.283 . S
O1586 Eu1555 2.363 . S
O1587 C1549 1.283 . S
O1587 Eu1555 2.363 1_556 S
O1588 C1550 1.283 . S
O1588 Eu1556 2.363 . S
O1589 C1548 1.283 . S
O1589 Eu1556 2.363 1_556 S
C1590 O1616 1.283 . S
C1590 O1634 1.283 . S
C1591 O1617 1.283 . S
C1591 O1632 1.283 . S
C1592 O1618 1.283 . S
C1592 O1635 1.283 . S
C1593 O1619 1.283 . S
C1593 O1633 1.283 . S
C1594 O1620 1.283 . S
C1594 O1629 1.283 . S
C1595 O1621 1.283 . S
C1595 O1631 1.283 . S
C1596 O1622 1.283 . S
C1596 O1628 1.283 . S
C1597 O1623 1.283 . S
C1597 O1630 1.283 . S
C1598 O1624 1.283 . S
C1598 O1639 1.283 . S
C1599 O1625 1.283 . S
C1599 O1637 1.283 . S
C1600 O1626 1.283 . S
C1600 O1638 1.283 . S
C1601 O1627 1.283 . S
C1601 O1636 1.283 . S
Eu1602 O1603 2.370 . S
Eu1602 O1604 2.370 . S
Eu1602 O1607 2.370 . S
Eu1602 O1608 2.370 . S
Eu1602 O1616 2.363 . S
Eu1602 O1617 2.363 . S
Eu1602 O1630 2.363 . S
Eu1602 O1631 2.363 . S
O1603 Eu1602 2.370 . S
O1603 Eu1605 2.370 . S
O1603 Eu1610 2.370 . S
O1604 Eu1602 2.370 . S
O1604 Eu1606 2.370 . S
O1604 Eu1609 2.370 . S
Eu1605 O1603 2.370 . S
Eu1605 O1607 2.370 . S
Eu1605 O1611 2.370 1_554 S
Eu1605 O1612 2.370 1_554 S
Eu1605 O1620 2.363 1_554 S
Eu1605 O1621 2.363 . S
Eu1605 O1636 2.363 . S
Eu1605 O1637 2.363 . S
Eu1606 O1604 2.370 . S
Eu1606 O1608 2.370 . S
Eu1606 O1613 2.370 1_554 S
Eu1606 O1614 2.370 1_554 S
Eu1606 O1622 2.363 1_554 S
Eu1606 O1623 2.363 . S
Eu1606 O1638 2.363 . S
Eu1606 O1639 2.363 . S
O1607 Eu1602 2.370 . S
O1607 Eu1605 2.370 . S
O1607 Eu1609 2.370 . S
O1608 Eu1602 2.370 . S
O1608 Eu1606 2.370 . S
O1608 Eu1610 2.370 . S
Eu1609 O1604 2.370 . S
Eu1609 O1607 2.370 . S
Eu1609 O1611 2.370 1_554 S
Eu1609 O1614 2.370 1_554 S
Eu1609 O1626 2.363 . S
Eu1609 O1627 2.363 . S
Eu1609 O1634 2.363 . S
Eu1609 O1635 2.363 1_554 S
Eu1610 O1603 2.370 . S
Eu1610 O1608 2.370 . S
Eu1610 O1612 2.370 1_554 S
Eu1610 O1613 2.370 1_554 S
Eu1610 O1624 2.363 . S
Eu1610 O1625 2.363 . S
Eu1610 O1632 2.363 . S
Eu1610 O1633 2.363 1_554 S
O1611 Eu1605 2.370 1_556 S
O1611 Eu1609 2.370 1_556 S
O1611 Eu1615 2.370 . S
O1612 Eu1605 2.370 1_556 S
O1612 Eu1610 2.370 1_556 S
O1612 Eu1615 2.370 . S
O1613 Eu1606 2.370 1_556 S
O1613 Eu1610 2.370 1_556 S
O1613 Eu1615 2.370 . S
O1614 Eu1606 2.370 1_556 S
O1614 Eu1609 2.370 1_556 S
O1614 Eu1615 2.370 . S
Eu1615 O1611 2.370 . S
Eu1615 O1612 2.370 . S
Eu1615 O1613 2.370 . S
Eu1615 O1614 2.370 . S
Eu1615 O1618 2.363 . S
Eu1615 O1619 2.363 . S
Eu1615 O1628 2.363 . S
Eu1615 O1629 2.363 . S
O1616 C1590 1.283 . S
O1616 Eu1602 2.363 . S
O1617 C1591 1.283 . S
O1617 Eu1602 2.363 . S
O1618 C1592 1.283 . S
O1618 Eu1615 2.363 . S
O1619 C1593 1.283 . S
O1619 Eu1615 2.363 . S
O1620 C1594 1.283 . S
O1620 Eu1605 2.363 1_556 S
O1621 C1595 1.283 . S
O1621 Eu1605 2.363 . S
O1622 C1596 1.283 . S
O1622 Eu1606 2.363 1_556 S
O1623 C1597 1.283 . S
O1623 Eu1606 2.363 . S
O1624 C1598 1.283 . S
O1624 Eu1610 2.363 . S
O1625 C1599 1.283 . S
O1625 Eu1610 2.363 . S
O1626 C1600 1.283 . S
O1626 Eu1609 2.363 . S
O1627 C1601 1.283 . S
O1627 Eu1609 2.363 . S
O1628 C1596 1.283 . S
O1628 Eu1615 2.363 . S
O1629 C1594 1.283 . S
O1629 Eu1615 2.363 . S
O1630 C1597 1.283 . S
O1630 Eu1602 2.363 . S
O1631 C1595 1.283 . S
O1631 Eu1602 2.363 . S
O1632 C1591 1.283 . S
O1632 Eu1610 2.363 . S
O1633 C1593 1.283 . S
O1633 Eu1610 2.363 1_556 S
O1634 C1590 1.283 . S
O1634 Eu1609 2.363 . S
O1635 C1592 1.283 . S
O1635 Eu1609 2.363 1_556 S
O1636 C1601 1.283 . S
O1636 Eu1605 2.363 . S
O1637 C1599 1.283 . S
O1637 Eu1605 2.363 . S
O1638 C1600 1.283 . S
O1638 Eu1606 2.363 . S
O1639 C1598 1.283 . S
O1639 Eu1606 2.363 . S
C1640 O1666 1.283 . S
C1640 O1684 1.283 . S
C1641 O1667 1.283 . S
C1641 O1682 1.283 . S
C1642 O1668 1.283 . S
C1642 O1685 1.283 . S
C1643 O1669 1.283 . S
C1643 O1683 1.283 . S
C1644 O1670 1.283 . S
C1644 O1679 1.283 . S
C1645 O1671 1.283 . S
C1645 O1681 1.283 . S
C1646 O1672 1.283 . S
C1646 O1678 1.283 . S
C1647 O1673 1.283 . S
C1647 O1680 1.283 . S
C1648 O1674 1.283 . S
C1648 O1689 1.283 . S
C1649 O1675 1.283 . S
C1649 O1687 1.283 . S
C1650 O1676 1.283 . S
C1650 O1688 1.283 . S
C1651 O1677 1.283 . S
C1651 O1686 1.283 . S
Eu1652 O1653 2.370 1_455 S
Eu1652 O1654 2.370 . S
Eu1652 O1657 2.370 1_455 S
Eu1652 O1658 2.370 . S
Eu1652 O1666 2.363 . S
Eu1652 O1667 2.363 . S
Eu1652 O1680 2.363 . S
Eu1652 O1681 2.363 1_455 S
O1653 Eu1652 2.370 1_655 S
O1653 Eu1655 2.370 . S
O1653 Eu1660 2.370 1_655 S
O1654 Eu1652 2.370 . S
O1654 Eu1656 2.370 . S
O1654 Eu1659 2.370 . S
Eu1655 O1653 2.370 . S
Eu1655 O1657 2.370 . S
Eu1655 O1661 2.370 . S
Eu1655 O1662 2.370 . S
Eu1655 O1670 2.363 . S
Eu1655 O1671 2.363 . S
Eu1655 O1686 2.363 . S
Eu1655 O1687 2.363 . S
Eu1656 O1654 2.370 . S
Eu1656 O1658 2.370 . S
Eu1656 O1663 2.370 . S
Eu1656 O1664 2.370 . S
Eu1656 O1672 2.363 . S
Eu1656 O1673 2.363 . S
Eu1656 O1688 2.363 . S
Eu1656 O1689 2.363 . S
O1657 Eu1652 2.370 1_655 S
O1657 Eu1655 2.370 . S
O1657 Eu1659 2.370 1_655 S
O1658 Eu1652 2.370 . S
O1658 Eu1656 2.370 . S
O1658 Eu1660 2.370 . S
Eu1659 O1654 2.370 . S
Eu1659 O1657 2.370 1_455 S
Eu1659 O1661 2.370 1_455 S
Eu1659 O1664 2.370 . S
Eu1659 O1676 2.363 . S
Eu1659 O1677 2.363 1_455 S
Eu1659 O1684 2.363 . S
Eu1659 O1685 2.363 . S
Eu1660 O1653 2.370 1_455 S
Eu1660 O1658 2.370 . S
Eu1660 O1662 2.370 1_455 S
Eu1660 O1663 2.370 . S
Eu1660 O1674 2.363 . S
Eu1660 O1675 2.363 1_455 S
Eu1660 O1682 2.363 . S
Eu1660 O1683 2.363 . S
O1661 Eu1655 2.370 . S
O1661 Eu1659 2.370 1_655 S
O1661 Eu1665 2.370 1_655 S
O1662 Eu1655 2.370 . S
O1662 Eu1660 2.370 1_655 S
O1662 Eu1665 2.370 1_655 S
O1663 Eu1656 2.370 . S
O1663 Eu1660 2.370 . S
O1663 Eu1665 2.370 . S
O1664 Eu1656 2.370 . S
O1664 Eu1659 2.370 . S
O1664 Eu1665 2.370 . S
Eu1665 O1661 2.370 1_455 S
Eu1665 O1662 2.370 1_455 S
Eu1665 O1663 2.370 . S
Eu1665 O1664 2.370 . S
Eu1665 O1668 2.363 . S
Eu1665 O1669 2.363 . S
Eu1665 O1678 2.363 . S
Eu1665 O1679 2.363 1_455 S
O1666 C1640 1.283 . S
O1666 Eu1652 2.363 . S
O1667 C1641 1.283 . S
O1667 Eu1652 2.363 . S
O1668 C1642 1.283 . S
O1668 Eu1665 2.363 . S
O1669 C1643 1.283 . S
O1669 Eu1665 2.363 . S
O1670 C1644 1.283 . S
O1670 Eu1655 2.363 . S
O1671 C1645 1.283 . S
O1671 Eu1655 2.363 . S
O1672 C1646 1.283 . S
O1672 Eu1656 2.363 . S
O1673 C1647 1.283 . S
O1673 Eu1656 2.363 . S
O1674 C1648 1.283 . S
O1674 Eu1660 2.363 . S
O1675 C1649 1.283 . S
O1675 Eu1660 2.363 1_655 S
O1676 C1650 1.283 . S
O1676 Eu1659 2.363 . S
O1677 C1651 1.283 . S
O1677 Eu1659 2.363 1_655 S
O1678 C1646 1.283 . S
O1678 Eu1665 2.363 . S
O1679 C1644 1.283 . S
O1679 Eu1665 2.363 1_655 S
O1680 C1647 1.283 . S
O1680 Eu1652 2.363 . S
O1681 C1645 1.283 . S
O1681 Eu1652 2.363 1_655 S
O1682 C1641 1.283 . S
O1682 Eu1660 2.363 . S
O1683 C1643 1.283 . S
O1683 Eu1660 2.363 . S
O1684 C1640 1.283 . S
O1684 Eu1659 2.363 . S
O1685 C1642 1.283 . S
O1685 Eu1659 2.363 . S
O1686 C1651 1.283 . S
O1686 Eu1655 2.363 . S
O1687 C1649 1.283 . S
O1687 Eu1655 2.363 . S
O1688 C1650 1.283 . S
O1688 Eu1656 2.363 . S
O1689 C1648 1.283 . S
O1689 Eu1656 2.363 . S
C1690 O1716 1.283 . S
C1690 O1734 1.283 . S
C1691 O1717 1.283 . S
C1691 O1732 1.283 . S
C1692 O1718 1.283 . S
C1692 O1735 1.283 . S
C1693 O1719 1.283 . S
C1693 O1733 1.283 . S
C1694 O1720 1.283 . S
C1694 O1729 1.283 . S
C1695 O1721 1.283 . S
C1695 O1731 1.283 . S
C1696 O1722 1.283 . S
C1696 O1728 1.283 . S
C1697 O1723 1.283 . S
C1697 O1730 1.283 . S
C1698 O1724 1.283 . S
C1698 O1739 1.283 . S
C1699 O1725 1.283 . S
C1699 O1737 1.283 . S
C1700 O1726 1.283 . S
C1700 O1738 1.283 . S
C1701 O1727 1.283 . S
C1701 O1736 1.283 . S
Eu1702 O1703 2.370 . S
Eu1702 O1704 2.370 . S
Eu1702 O1707 2.370 . S
Eu1702 O1708 2.370 . S
Eu1702 O1716 2.363 . S
Eu1702 O1717 2.363 . S
Eu1702 O1730 2.363 . S
Eu1702 O1731 2.363 . S
O1703 Eu1702 2.370 . S
O1703 Eu1705 2.370 1_565 S
O1703 Eu1710 2.370 1_565 S
O1704 Eu1702 2.370 . S
O1704 Eu1706 2.370 1_565 S
O1704 Eu1709 2.370 1_565 S
Eu1705 O1703 2.370 1_545 S
Eu1705 O1707 2.370 1_545 S
Eu1705 O1711 2.370 . S
Eu1705 O1712 2.370 . S
Eu1705 O1720 2.363 . S
Eu1705 O1721 2.363 1_545 S
Eu1705 O1736 2.363 . S
Eu1705 O1737 2.363 . S
Eu1706 O1704 2.370 1_545 S
Eu1706 O1708 2.370 1_545 S
Eu1706 O1713 2.370 . S
Eu1706 O1714 2.370 . S
Eu1706 O1722 2.363 . S
Eu1706 O1723 2.363 1_545 S
Eu1706 O1738 2.363 . S
Eu1706 O1739 2.363 . S
O1707 Eu1702 2.370 . S
O1707 Eu1705 2.370 1_565 S
O1707 Eu1709 2.370 1_565 S
O1708 Eu1702 2.370 . S
O1708 Eu1706 2.370 1_565 S
O1708 Eu1710 2.370 1_565 S
Eu1709 O1704 2.370 1_545 S
Eu1709 O1707 2.370 1_545 S
Eu1709 O1711 2.370 . S
Eu1709 O1714 2.370 . S
Eu1709 O1726 2.363 . S
Eu1709 O1727 2.363 . S
Eu1709 O1734 2.363 1_545 S
Eu1709 O1735 2.363 . S
Eu1710 O1703 2.370 1_545 S
Eu1710 O1708 2.370 1_545 S
Eu1710 O1712 2.370 . S
Eu1710 O1713 2.370 . S
Eu1710 O1724 2.363 . S
Eu1710 O1725 2.363 . S
Eu1710 O1732 2.363 1_545 S
Eu1710 O1733 2.363 . S
O1711 Eu1705 2.370 . S
O1711 Eu1709 2.370 . S
O1711 Eu1715 2.370 . S
O1712 Eu1705 2.370 . S
O1712 Eu1710 2.370 . S
O1712 Eu1715 2.370 . S
O1713 Eu1706 2.370 . S
O1713 Eu1710 2.370 . S
O1713 Eu1715 2.370 . S
O1714 Eu1706 2.370 . S
O1714 Eu1709 2.370 . S
O1714 Eu1715 2.370 . S
Eu1715 O1711 2.370 . S
Eu1715 O1712 2.370 . S
Eu1715 O1713 2.370 . S
Eu1715 O1714 2.370 . S
Eu1715 O1718 2.363 . S
Eu1715 O1719 2.363 . S
Eu1715 O1728 2.363 . S
Eu1715 O1729 2.363 . S
O1716 C1690 1.283 . S
O1716 Eu1702 2.363 . S
O1717 C1691 1.283 . S
O1717 Eu1702 2.363 . S
O1718 C1692 1.283 . S
O1718 Eu1715 2.363 . S
O1719 C1693 1.283 . S
O1719 Eu1715 2.363 . S
O1720 C1694 1.283 . S
O1720 Eu1705 2.363 . S
O1721 C1695 1.283 . S
O1721 Eu1705 2.363 1_565 S
O1722 C1696 1.283 . S
O1722 Eu1706 2.363 . S
O1723 C1697 1.283 . S
O1723 Eu1706 2.363 1_565 S
O1724 C1698 1.283 . S
O1724 Eu1710 2.363 . S
O1725 C1699 1.283 . S
O1725 Eu1710 2.363 . S
O1726 C1700 1.283 . S
O1726 Eu1709 2.363 . S
O1727 C1701 1.283 . S
O1727 Eu1709 2.363 . S
O1728 C1696 1.283 . S
O1728 Eu1715 2.363 . S
O1729 C1694 1.283 . S
O1729 Eu1715 2.363 . S
O1730 C1697 1.283 . S
O1730 Eu1702 2.363 . S
O1731 C1695 1.283 . S
O1731 Eu1702 2.363 . S
O1732 C1691 1.283 . S
O1732 Eu1710 2.363 1_565 S
O1733 C1693 1.283 . S
O1733 Eu1710 2.363 . S
O1734 C1690 1.283 . S
O1734 Eu1709 2.363 1_565 S
O1735 C1692 1.283 . S
O1735 Eu1709 2.363 . S
O1736 C1701 1.283 . S
O1736 Eu1705 2.363 . S
O1737 C1699 1.283 . S
O1737 Eu1705 2.363 . S
O1738 C1700 1.283 . S
O1738 Eu1706 2.363 . S
O1739 C1698 1.283 . S
O1739 Eu1706 2.363 . S
H1740 C1746 0.930 . S
H1741 C1750 0.930 . S
H1742 C1755 0.929 . S
H1743 C1753 0.929 . S
H1744 C1748 0.929 . S
H1745 C1754 0.929 . S
C1746 H1740 0.930 . S
C1746 C1747 1.367 . S
C1746 C1754 1.378 . S
C1747 C1746 1.367 . S
C1747 C1755 1.433 . S
C1748 H1744 0.929 . S
C1748 C1750 1.378 . S
C1748 C1752 1.350 . S
C1749 C1752 1.463 . S
C1749 C1754 1.350 . S
C1749 N1757 1.427 . S
C1750 H1741 0.930 . S
C1750 C1748 1.378 . S
C1750 C1751 1.367 . S
C1751 C1750 1.367 . S
C1751 C1753 1.433 . S
C1752 C1748 1.350 . S
C1752 C1749 1.463 . S
C1752 N1756 1.427 . S
C1753 H1743 0.929 . S
C1753 C1751 1.433 . S
C1753 N1756 1.384 . S
C1754 H1745 0.929 . S
C1754 C1746 1.378 . S
C1754 C1749 1.350 . S
C1755 H1742 0.929 . S
C1755 C1747 1.433 . S
C1755 N1757 1.384 . S
N1756 C1752 1.427 . S
N1756 C1753 1.384 . S
N1757 C1749 1.427 . S
N1757 C1755 1.384 . S
H1758 C1764 0.930 . S
H1759 C1768 0.930 . S
H1760 C1773 0.929 . S
H1761 C1771 0.929 . S
H1762 C1766 0.929 . S
H1763 C1772 0.929 . S
C1764 H1758 0.930 . S
C1764 C1765 1.367 . S
C1764 C1772 1.378 . S
C1765 C1764 1.367 . S
C1765 C1773 1.433 . S
C1766 H1762 0.929 . S
C1766 C1768 1.378 . S
C1766 C1770 1.350 . S
C1767 C1770 1.463 . S
C1767 C1772 1.350 . S
C1767 N1775 1.427 . S
C1768 H1759 0.930 . S
C1768 C1766 1.378 . S
C1768 C1769 1.367 . S
C1769 C1768 1.367 . S
C1769 C1771 1.433 . S
C1770 C1766 1.350 . S
C1770 C1767 1.463 . S
C1770 N1774 1.427 . S
C1771 H1761 0.929 . S
C1771 C1769 1.433 . S
C1771 N1774 1.384 . S
C1772 H1763 0.929 . S
C1772 C1764 1.378 . S
C1772 C1767 1.350 . S
C1773 H1760 0.929 . S
C1773 C1765 1.433 . S
C1773 N1775 1.384 . S
N1774 C1770 1.427 . S
N1774 C1771 1.384 . S
N1775 C1767 1.427 . S
N1775 C1773 1.384 . S
H1776 C1782 0.930 . S
H1777 C1786 0.930 . S
H1778 C1791 0.929 . S
H1779 C1789 0.929 . S
H1780 C1784 0.929 . S
H1781 C1790 0.929 . S
C1782 H1776 0.930 . S
C1782 C1783 1.367 . S
C1782 C1790 1.378 . S
C1783 C1782 1.367 . S
C1783 C1791 1.433 . S
C1784 H1780 0.929 . S
C1784 C1786 1.378 . S
C1784 C1788 1.350 . S
C1785 C1788 1.463 . S
C1785 C1790 1.350 . S
C1785 N1793 1.427 . S
C1786 H1777 0.930 . S
C1786 C1784 1.378 . S
C1786 C1787 1.367 . S
C1787 C1786 1.367 . S
C1787 C1789 1.433 . S
C1788 C1784 1.350 . S
C1788 C1785 1.463 . S
C1788 N1792 1.427 . S
C1789 H1779 0.929 . S
C1789 C1787 1.433 . S
C1789 N1792 1.384 . S
C1790 H1781 0.929 . S
C1790 C1782 1.378 . S
C1790 C1785 1.350 . S
C1791 H1778 0.929 . S
C1791 C1783 1.433 . S
C1791 N1793 1.384 . S
N1792 C1788 1.427 . S
N1792 C1789 1.384 . S
N1793 C1785 1.427 . S
N1793 C1791 1.384 . S
H1794 C1800 0.930 . S
H1795 C1804 0.930 . S
H1796 C1809 0.929 . S
H1797 C1807 0.929 . S
H1798 C1802 0.929 . S
H1799 C1808 0.929 . S
C1800 H1794 0.930 . S
C1800 C1801 1.367 . S
C1800 C1808 1.378 . S
C1801 C1800 1.367 . S
C1801 C1809 1.433 . S
C1802 H1798 0.929 . S
C1802 C1804 1.378 . S
C1802 C1806 1.350 . S
C1803 C1806 1.463 . S
C1803 C1808 1.350 . S
C1803 N1811 1.427 . S
C1804 H1795 0.930 . S
C1804 C1802 1.378 . S
C1804 C1805 1.367 . S
C1805 C1804 1.367 . S
C1805 C1807 1.433 . S
C1806 C1802 1.350 . S
C1806 C1803 1.463 . S
C1806 N1810 1.427 . S
C1807 H1797 0.929 . S
C1807 C1805 1.433 . S
C1807 N1810 1.384 . S
C1808 H1799 0.929 . S
C1808 C1800 1.378 . S
C1808 C1803 1.350 . S
C1809 H1796 0.929 . S
C1809 C1801 1.433 . S
C1809 N1811 1.384 . S
N1810 C1806 1.427 . S
N1810 C1807 1.384 . S
N1811 C1803 1.427 . S
N1811 C1809 1.384 . S
H1812 C1818 0.930 . S
H1813 C1822 0.930 . S
H1814 C1827 0.929 . S
H1815 C1825 0.929 . S
H1816 C1820 0.929 . S
H1817 C1826 0.929 . S
C1818 H1812 0.930 . S
C1818 C1819 1.367 . S
C1818 C1826 1.378 . S
C1819 C1818 1.367 . S
C1819 C1827 1.433 . S
C1820 H1816 0.929 . S
C1820 C1822 1.378 . S
C1820 C1824 1.350 . S
C1821 C1824 1.463 . S
C1821 C1826 1.350 . S
C1821 N1829 1.427 . S
C1822 H1813 0.930 . S
C1822 C1820 1.378 . S
C1822 C1823 1.367 . S
C1823 C1822 1.367 . S
C1823 C1825 1.433 . S
C1824 C1820 1.350 . S
C1824 C1821 1.463 . S
C1824 N1828 1.427 . S
C1825 H1815 0.929 . S
C1825 C1823 1.433 . S
C1825 N1828 1.384 . S
C1826 H1817 0.929 . S
C1826 C1818 1.378 . S
C1826 C1821 1.350 . S
C1827 H1814 0.929 . S
C1827 C1819 1.433 . S
C1827 N1829 1.384 . S
N1828 C1824 1.427 . S
N1828 C1825 1.384 . S
N1829 C1821 1.427 . S
N1829 C1827 1.384 . S
H1830 C1836 0.930 . S
H1831 C1840 0.930 . S
H1832 C1845 0.929 . S
H1833 C1843 0.929 . S
H1834 C1838 0.929 . S
H1835 C1844 0.929 . S
C1836 H1830 0.930 . S
C1836 C1837 1.367 . S
C1836 C1844 1.378 . S
C1837 C1836 1.367 . S
C1837 C1845 1.433 . S
C1838 H1834 0.929 . S
C1838 C1840 1.378 . S
C1838 C1842 1.350 . S
C1839 C1842 1.463 . S
C1839 C1844 1.350 . S
C1839 N1847 1.427 . S
C1840 H1831 0.930 . S
C1840 C1838 1.378 . S
C1840 C1841 1.367 . S
C1841 C1840 1.367 . S
C1841 C1843 1.433 . S
C1842 C1838 1.350 . S
C1842 C1839 1.463 . S
C1842 N1846 1.427 . S
C1843 H1833 0.929 . S
C1843 C1841 1.433 . S
C1843 N1846 1.384 . S
C1844 H1835 0.929 . S
C1844 C1836 1.378 . S
C1844 C1839 1.350 . S
C1845 H1832 0.929 . S
C1845 C1837 1.433 . S
C1845 N1847 1.384 . S
N1846 C1842 1.427 . S
N1846 C1843 1.384 . S
N1847 C1839 1.427 . S
N1847 C1845 1.384 . S
H1848 C1854 0.930 . S
H1849 C1858 0.930 . S
H1850 C1863 0.929 . S
H1851 C1861 0.929 . S
H1852 C1856 0.929 . S
H1853 C1862 0.929 . S
C1854 H1848 0.930 . S
C1854 C1855 1.367 . S
C1854 C1862 1.378 . S
C1855 C1854 1.367 . S
C1855 C1863 1.433 . S
C1856 H1852 0.929 . S
C1856 C1858 1.378 . S
C1856 C1860 1.350 . S
C1857 C1860 1.463 . S
C1857 C1862 1.350 . S
C1857 N1865 1.427 . S
C1858 H1849 0.930 . S
C1858 C1856 1.378 . S
C1858 C1859 1.367 . S
C1859 C1858 1.367 . S
C1859 C1861 1.433 . S
C1860 C1856 1.350 . S
C1860 C1857 1.463 . S
C1860 N1864 1.427 . S
C1861 H1851 0.929 . S
C1861 C1859 1.433 . S
C1861 N1864 1.384 . S
C1862 H1853 0.929 . S
C1862 C1854 1.378 . S
C1862 C1857 1.350 . S
C1863 H1850 0.929 . S
C1863 C1855 1.433 . S
C1863 N1865 1.384 . S
N1864 C1860 1.427 . S
N1864 C1861 1.384 . S
N1865 C1857 1.427 . S
N1865 C1863 1.384 . S
H1866 C1872 0.930 . S
H1867 C1876 0.930 . S
H1868 C1881 0.929 . S
H1869 C1879 0.929 . S
H1870 C1874 0.929 . S
H1871 C1880 0.929 . S
C1872 H1866 0.930 . S
C1872 C1873 1.367 . S
C1872 C1880 1.378 . S
C1873 C1872 1.367 . S
C1873 C1881 1.433 . S
C1874 H1870 0.929 . S
C1874 C1876 1.378 . S
C1874 C1878 1.350 . S
C1875 C1878 1.463 . S
C1875 C1880 1.350 . S
C1875 N1883 1.427 . S
C1876 H1867 0.930 . S
C1876 C1874 1.378 . S
C1876 C1877 1.367 . S
C1877 C1876 1.367 . S
C1877 C1879 1.433 . S
C1878 C1874 1.350 . S
C1878 C1875 1.463 . S
C1878 N1882 1.427 . S
C1879 H1869 0.929 . S
C1879 C1877 1.433 . S
C1879 N1882 1.384 . S
C1880 H1871 0.929 . S
C1880 C1872 1.378 . S
C1880 C1875 1.350 . S
C1881 H1868 0.929 . S
C1881 C1873 1.433 . S
C1881 N1883 1.384 . S
N1882 C1878 1.427 . S
N1882 C1879 1.384 . S
N1883 C1875 1.427 . S
N1883 C1881 1.384 . S
H1884 C1890 0.930 . S
H1885 C1894 0.930 . S
H1886 C1899 0.929 . S
H1887 C1897 0.929 . S
H1888 C1892 0.929 . S
H1889 C1898 0.929 . S
C1890 H1884 0.930 . S
C1890 C1891 1.367 . S
C1890 C1898 1.378 . S
C1891 C1890 1.367 . S
C1891 C1899 1.433 . S
C1892 H1888 0.929 . S
C1892 C1894 1.378 . S
C1892 C1896 1.350 . S
C1893 C1896 1.463 . S
C1893 C1898 1.350 . S
C1893 N1901 1.427 . S
C1894 H1885 0.930 . S
C1894 C1892 1.378 . S
C1894 C1895 1.367 . S
C1895 C1894 1.367 . S
C1895 C1897 1.433 . S
C1896 C1892 1.350 . S
C1896 C1893 1.463 . S
C1896 N1900 1.427 . S
C1897 H1887 0.929 . S
C1897 C1895 1.433 . S
C1897 N1900 1.384 . S
C1898 H1889 0.929 . S
C1898 C1890 1.378 . S
C1898 C1893 1.350 . S
C1899 H1886 0.929 . S
C1899 C1891 1.433 . S
C1899 N1901 1.384 . S
N1900 C1896 1.427 . S
N1900 C1897 1.384 . S
N1901 C1893 1.427 . S
N1901 C1899 1.384 . S
H1902 C1908 0.930 . S
H1903 C1912 0.930 . S
H1904 C1917 0.929 . S
H1905 C1915 0.929 . S
H1906 C1910 0.929 . S
H1907 C1916 0.929 . S
C1908 H1902 0.930 . S
C1908 C1909 1.367 . S
C1908 C1916 1.378 . S
C1909 C1908 1.367 . S
C1909 C1917 1.433 . S
C1910 H1906 0.929 . S
C1910 C1912 1.378 . S
C1910 C1914 1.350 . S
C1911 C1914 1.463 . S
C1911 C1916 1.350 . S
C1911 N1919 1.427 . S
C1912 H1903 0.930 . S
C1912 C1910 1.378 . S
C1912 C1913 1.367 . S
C1913 C1912 1.367 . S
C1913 C1915 1.433 . S
C1914 C1910 1.350 . S
C1914 C1911 1.463 . S
C1914 N1918 1.427 . S
C1915 H1905 0.929 . S
C1915 C1913 1.433 . S
C1915 N1918 1.384 . S
C1916 H1907 0.929 . S
C1916 C1908 1.378 . S
C1916 C1911 1.350 . S
C1917 H1904 0.929 . S
C1917 C1909 1.433 . S
C1917 N1919 1.384 . S
N1918 C1914 1.427 . S
N1918 C1915 1.384 . S
N1919 C1911 1.427 . S
N1919 C1917 1.384 . S
H1920 C1926 0.930 . S
H1921 C1930 0.930 . S
H1922 C1935 0.929 . S
H1923 C1933 0.929 . S
H1924 C1928 0.929 . S
H1925 C1934 0.929 . S
C1926 H1920 0.930 . S
C1926 C1927 1.367 . S
C1926 C1934 1.378 . S
C1927 C1926 1.367 . S
C1927 C1935 1.433 . S
C1928 H1924 0.929 . S
C1928 C1930 1.378 . S
C1928 C1932 1.350 . S
C1929 C1932 1.463 . S
C1929 C1934 1.350 . S
C1929 N1937 1.427 . S
C1930 H1921 0.930 . S
C1930 C1928 1.378 . S
C1930 C1931 1.367 . S
C1931 C1930 1.367 . S
C1931 C1933 1.433 . S
C1932 C1928 1.350 . S
C1932 C1929 1.463 . S
C1932 N1936 1.427 . S
C1933 H1923 0.929 . S
C1933 C1931 1.433 . S
C1933 N1936 1.384 . S
C1934 H1925 0.929 . S
C1934 C1926 1.378 . S
C1934 C1929 1.350 . S
C1935 H1922 0.929 . S
C1935 C1927 1.433 . S
C1935 N1937 1.384 . S
N1936 C1932 1.427 . S
N1936 C1933 1.384 . S
N1937 C1929 1.427 . S
N1937 C1935 1.384 . S
H1938 C1944 0.930 . S
H1939 C1948 0.930 . S
H1940 C1953 0.929 . S
H1941 C1951 0.929 . S
H1942 C1946 0.929 . S
H1943 C1952 0.929 . S
C1944 H1938 0.930 . S
C1944 C1945 1.367 . S
C1944 C1952 1.378 . S
C1945 C1944 1.367 . S
C1945 C1953 1.433 . S
C1946 H1942 0.929 . S
C1946 C1948 1.378 . S
C1946 C1950 1.350 . S
C1947 C1950 1.463 . S
C1947 C1952 1.350 . S
C1947 N1955 1.427 . S
C1948 H1939 0.930 . S
C1948 C1946 1.378 . S
C1948 C1949 1.367 . S
C1949 C1948 1.367 . S
C1949 C1951 1.433 . S
C1950 C1946 1.350 . S
C1950 C1947 1.463 . S
C1950 N1954 1.427 . S
C1951 H1941 0.929 . S
C1951 C1949 1.433 . S
C1951 N1954 1.384 . S
C1952 H1943 0.929 . S
C1952 C1944 1.378 . S
C1952 C1947 1.350 . S
C1953 H1940 0.929 . S
C1953 C1945 1.433 . S
C1953 N1955 1.384 . S
N1954 C1950 1.427 . S
N1954 C1951 1.384 . S
N1955 C1947 1.427 . S
N1955 C1953 1.384 . S
H1956 C1962 0.930 . S
H1957 C1966 0.930 . S
H1958 C1971 0.929 . S
H1959 C1969 0.929 . S
H1960 C1964 0.929 . S
H1961 C1970 0.929 . S
C1962 H1956 0.930 . S
C1962 C1963 1.389 . S
C1962 C1970 1.378 . S
C1963 C1962 1.389 . S
C1963 C1971 1.411 1_554 S
C1964 H1960 0.929 . S
C1964 C1966 1.378 . S
C1964 C1968 1.373 . S
C1965 C1968 1.460 1_554 S
C1965 C1970 1.383 . S
C1965 N1973 1.394 1_554 S
C1966 H1957 0.930 . S
C1966 C1964 1.378 . S
C1966 C1967 1.380 . S
C1967 C1966 1.380 . S
C1967 C1969 1.420 1_556 S
C1968 C1964 1.373 . S
C1968 C1965 1.460 1_556 S
C1968 N1972 1.404 1_556 S
C1969 H1959 0.929 . S
C1969 C1967 1.420 1_554 S
C1969 N1972 1.384 . S
C1970 H1961 0.929 . S
C1970 C1962 1.378 . S
C1970 C1965 1.383 . S
C1971 H1958 0.929 . S
C1971 C1963 1.411 1_556 S
C1971 N1973 1.384 . S
N1972 C1968 1.404 1_554 S
N1972 C1969 1.384 . S
N1973 C1965 1.394 1_556 S
N1973 C1971 1.384 . S
H1974 C1980 0.930 . S
H1975 C1984 0.930 . S
H1976 C1989 0.929 . S
H1977 C1987 0.929 . S
H1978 C1982 0.929 . S
H1979 C1988 0.929 . S
C1980 H1974 0.930 . S
C1980 C1981 1.390 . S
C1980 C1988 1.378 . S
C1981 C1980 1.390 . S
C1981 C1989 1.410 1_554 S
C1982 H1978 0.929 . S
C1982 C1984 1.378 . S
C1982 C1986 1.374 . S
C1983 C1986 1.460 1_554 S
C1983 C1988 1.384 . S
C1983 N1991 1.393 1_554 S
C1984 H1975 0.930 . S
C1984 C1982 1.378 . S
C1984 C1985 1.380 . S
C1985 C1984 1.380 . S
C1985 C1987 1.419 1_556 S
C1986 C1982 1.374 . S
C1986 C1983 1.460 1_556 S
C1986 N1990 1.403 1_556 S
C1987 H1977 0.929 . S
C1987 C1985 1.419 1_554 S
C1987 N1990 1.384 . S
C1988 H1979 0.929 . S
C1988 C1980 1.378 . S
C1988 C1983 1.384 . S
C1989 H1976 0.929 . S
C1989 C1981 1.410 1_556 S
C1989 N1991 1.384 . S
N1990 C1986 1.403 1_554 S
N1990 C1987 1.384 . S
N1991 C1983 1.393 1_556 S
N1991 C1989 1.384 . S
H1992 C1998 0.930 . S
H1993 C2002 0.930 . S
H1994 C2007 0.929 . S
H1995 C2005 0.929 . S
H1996 C2000 0.929 . S
H1997 C2006 0.929 . S
C1998 H1992 0.930 . S
C1998 C1999 1.367 1_556 S
C1998 C2006 1.378 . S
C1999 C1998 1.367 1_554 S
C1999 C2007 1.433 . S
C2000 H1996 0.929 . S
C2000 C2002 1.378 . S
C2000 C2004 1.351 . S
C2001 C2004 1.462 . S
C2001 C2006 1.351 1_554 S
C2001 N2009 1.427 . S
C2002 H1993 0.930 . S
C2002 C2000 1.378 . S
C2002 C2003 1.367 . S
C2003 C2002 1.367 . S
C2003 C2005 1.433 1_554 S
C2004 C2000 1.351 . S
C2004 C2001 1.462 . S
C2004 N2008 1.427 1_554 S
C2005 H1995 0.929 . S
C2005 C2003 1.433 1_556 S
C2005 N2008 1.384 . S
C2006 H1997 0.929 . S
C2006 C1998 1.378 . S
C2006 C2001 1.351 1_556 S
C2007 H1994 0.929 . S
C2007 C1999 1.433 . S
C2007 N2009 1.384 . S
N2008 C2004 1.427 1_556 S
N2008 C2005 1.384 . S
N2009 C2001 1.427 . S
N2009 C2007 1.384 . S
H2010 C2016 0.930 . S
H2011 C2020 0.930 . S
H2012 C2025 0.929 . S
H2013 C2023 0.929 . S
H2014 C2018 0.929 . S
H2015 C2024 0.929 . S
C2016 H2010 0.930 . S
C2016 C2017 1.368 1_556 S
C2016 C2024 1.378 . S
C2017 C2016 1.368 1_554 S
C2017 C2025 1.432 . S
C2018 H2014 0.929 . S
C2018 C2020 1.378 . S
C2018 C2022 1.351 . S
C2019 C2022 1.462 1_556 S
C2019 C2024 1.349 . S
C2019 N2027 1.428 1_556 S
C2020 H2011 0.930 . S
C2020 C2018 1.378 . S
C2020 C2021 1.368 . S
C2021 C2020 1.368 . S
C2021 C2023 1.432 1_554 S
C2022 C2018 1.351 . S
C2022 C2019 1.462 1_554 S
C2022 N2026 1.426 1_554 S
C2023 H2013 0.929 . S
C2023 C2021 1.432 1_556 S
C2023 N2026 1.384 . S
C2024 H2015 0.929 . S
C2024 C2016 1.378 . S
C2024 C2019 1.349 . S
C2025 H2012 0.929 . S
C2025 C2017 1.432 . S
C2025 N2027 1.384 . S
N2026 C2022 1.426 1_556 S
N2026 C2023 1.384 . S
N2027 C2019 1.428 1_554 S
N2027 C2025 1.384 . S
H2028 C2034 0.930 . S
H2029 C2038 0.930 . S
H2030 C2043 0.929 . S
H2031 C2041 0.929 . S
H2032 C2036 0.929 . S
H2033 C2042 0.929 . S
C2034 H2028 0.930 . S
C2034 C2035 1.389 . S
C2034 C2042 1.378 . S
C2035 C2034 1.389 . S
C2035 C2043 1.411 1_455 S
C2036 H2032 0.929 . S
C2036 C2038 1.378 . S
C2036 C2040 1.373 . S
C2037 C2040 1.460 1_455 S
C2037 C2042 1.382 . S
C2037 N2045 1.395 1_455 S
C2038 H2029 0.930 . S
C2038 C2036 1.378 . S
C2038 C2039 1.379 . S
C2039 C2038 1.379 . S
C2039 C2041 1.420 1_655 S
C2040 C2036 1.373 . S
C2040 C2037 1.460 1_655 S
C2040 N2044 1.404 1_655 S
C2041 H2031 0.929 . S
C2041 C2039 1.420 1_455 S
C2041 N2044 1.384 . S
C2042 H2033 0.929 . S
C2042 C2034 1.378 . S
C2042 C2037 1.382 . S
C2043 H2030 0.929 . S
C2043 C2035 1.411 1_655 S
C2043 N2045 1.384 . S
N2044 C2040 1.404 1_455 S
N2044 C2041 1.384 . S
N2045 C2037 1.395 1_655 S
N2045 C2043 1.384 . S
H2046 C2052 0.930 . S
H2047 C2056 0.930 . S
H2048 C2061 0.929 . S
H2049 C2059 0.929 . S
H2050 C2054 0.929 . S
H2051 C2060 0.929 . S
C2052 H2046 0.930 . S
C2052 C2053 1.391 . S
C2052 C2060 1.378 . S
C2053 C2052 1.391 . S
C2053 C2061 1.409 1_545 S
C2054 H2050 0.929 . S
C2054 C2056 1.378 . S
C2054 C2058 1.375 . S
C2055 C2058 1.460 1_545 S
C2055 C2060 1.385 . S
C2055 N2063 1.392 1_545 S
C2056 H2047 0.930 . S
C2056 C2054 1.378 . S
C2056 C2057 1.381 . S
C2057 C2056 1.381 . S
C2057 C2059 1.419 1_565 S
C2058 C2054 1.375 . S
C2058 C2055 1.460 1_565 S
C2058 N2062 1.402 1_565 S
C2059 H2049 0.929 . S
C2059 C2057 1.419 1_545 S
C2059 N2062 1.384 . S
C2060 H2051 0.929 . S
C2060 C2052 1.378 . S
C2060 C2055 1.385 . S
C2061 H2048 0.929 . S
C2061 C2053 1.409 1_565 S
C2061 N2063 1.384 . S
N2062 C2058 1.402 1_545 S
N2062 C2059 1.384 . S
N2063 C2055 1.392 1_565 S
N2063 C2061 1.384 . S
H2064 C2070 0.930 . S
H2065 C2074 0.930 . S
H2066 C2079 0.929 . S
H2067 C2077 0.929 . S
H2068 C2072 0.929 . S
H2069 C2078 0.929 . S
C2070 H2064 0.930 . S
C2070 C2071 1.382 . S
C2070 C2078 1.378 . S
C2071 C2070 1.382 . S
C2071 C2079 1.418 1_455 S
C2072 H2068 0.929 . S
C2072 C2074 1.378 . S
C2072 C2076 1.364 . S
C2073 C2076 1.461 1_455 S
C2073 C2078 1.372 . S
C2073 N2081 1.405 1_455 S
C2074 H2065 0.930 . S
C2074 C2072 1.378 . S
C2074 C2075 1.374 . S
C2075 C2074 1.374 . S
C2075 C2077 1.426 1_655 S
C2076 C2072 1.364 . S
C2076 C2073 1.461 1_655 S
C2076 N2080 1.413 1_655 S
C2077 H2067 0.929 . S
C2077 C2075 1.426 1_455 S
C2077 N2080 1.384 . S
C2078 H2069 0.929 . S
C2078 C2070 1.378 . S
C2078 C2073 1.372 . S
C2079 H2066 0.929 . S
C2079 C2071 1.418 1_655 S
C2079 N2081 1.384 . S
N2080 C2076 1.413 1_455 S
N2080 C2077 1.384 . S
N2081 C2073 1.405 1_655 S
N2081 C2079 1.384 . S
H2082 C2088 0.930 . S
H2083 C2092 0.930 . S
H2084 C2097 0.929 . S
H2085 C2095 0.929 . S
H2086 C2090 0.929 . S
H2087 C2096 0.929 . S
C2088 H2082 0.930 . S
C2088 C2089 1.375 . S
C2088 C2096 1.378 . S
C2089 C2088 1.375 . S
C2089 C2097 1.425 1_565 S
C2090 H2086 0.929 . S
C2090 C2092 1.378 . S
C2090 C2094 1.374 . S
C2091 C2094 1.461 1_565 S
C2091 C2096 1.366 . S
C2091 N2099 1.411 1_565 S
C2092 H2083 0.930 . S
C2092 C2090 1.378 . S
C2092 C2093 1.383 . S
C2093 C2092 1.383 . S
C2093 C2095 1.417 1_545 S
C2094 C2090 1.374 . S
C2094 C2091 1.461 1_545 S
C2094 N2098 1.403 1_545 S
C2095 H2085 0.929 . S
C2095 C2093 1.417 1_565 S
C2095 N2098 1.384 . S
C2096 H2087 0.929 . S
C2096 C2088 1.378 . S
C2096 C2091 1.366 . S
C2097 H2084 0.929 . S
C2097 C2089 1.425 1_545 S
C2097 N2099 1.384 . S
N2098 C2094 1.403 1_565 S
N2098 C2095 1.384 . S
N2099 C2091 1.411 1_545 S
N2099 C2097 1.384 . S
H2100 C2106 0.930 . S
H2101 C2110 0.930 . S
H2102 C2115 0.929 . S
H2103 C2113 0.929 . S
H2104 C2108 0.929 . S
H2105 C2114 0.929 . S
C2106 H2100 0.930 . S
C2106 C2107 1.370 . S
C2106 C2114 1.378 . S
C2107 C2106 1.370 . S
C2107 C2115 1.430 1_455 S
C2108 H2104 0.929 . S
C2108 C2110 1.378 . S
C2108 C2112 1.351 . S
C2109 C2112 1.462 1_455 S
C2109 C2114 1.355 . S
C2109 N2117 1.423 1_455 S
C2110 H2101 0.930 . S
C2110 C2108 1.378 . S
C2110 C2111 1.366 . S
C2111 C2110 1.366 . S
C2111 C2113 1.434 1_655 S
C2112 C2108 1.351 . S
C2112 C2109 1.462 1_655 S
C2112 N2116 1.426 1_655 S
C2113 H2103 0.929 . S
C2113 C2111 1.434 1_455 S
C2113 N2116 1.384 . S
C2114 H2105 0.929 . S
C2114 C2106 1.378 . S
C2114 C2109 1.355 . S
C2115 H2102 0.929 . S
C2115 C2107 1.430 1_655 S
C2115 N2117 1.384 . S
N2116 C2112 1.426 1_455 S
N2116 C2113 1.384 . S
N2117 C2109 1.423 1_655 S
N2117 C2115 1.384 . S
H2118 C2124 0.930 . S
H2119 C2128 0.930 . S
H2120 C2133 0.929 . S
H2121 C2131 0.929 . S
H2122 C2126 0.929 . S
H2123 C2132 0.929 . S
C2124 H2118 0.930 . S
C2124 C2125 1.366 . S
C2124 C2132 1.378 . S
C2125 C2124 1.366 . S
C2125 C2133 1.434 1_565 S
C2126 H2122 0.929 . S
C2126 C2128 1.378 . S
C2126 C2130 1.352 . S
C2127 C2130 1.462 1_565 S
C2127 C2132 1.350 . S
C2127 N2135 1.428 1_565 S
C2128 H2119 0.930 . S
C2128 C2126 1.378 . S
C2128 C2129 1.368 . S
C2129 C2128 1.368 . S
C2129 C2131 1.432 1_545 S
C2130 C2126 1.352 . S
C2130 C2127 1.462 1_545 S
C2130 N2134 1.425 1_545 S
C2131 H2121 0.929 . S
C2131 C2129 1.432 1_565 S
C2131 N2134 1.384 . S
C2132 H2123 0.929 . S
C2132 C2124 1.378 . S
C2132 C2127 1.350 . S
C2133 H2120 0.929 . S
C2133 C2125 1.434 1_545 S
C2133 N2135 1.384 . S
N2134 C2130 1.425 1_565 S
N2134 C2131 1.384 . S
N2135 C2127 1.428 1_545 S
N2135 C2133 1.384 . S
H2136 C2142 0.930 . S
H2137 C2146 0.930 . S
H2138 C2151 0.929 . S
H2139 C2149 0.929 . S
H2140 C2144 0.929 . S
H2141 C2150 0.929 . S
C2142 H2136 0.930 . S
C2142 C2143 1.368 . S
C2142 C2150 1.378 . S
C2143 C2142 1.368 . S
C2143 C2151 1.432 1_655 S
C2144 H2140 0.929 . S
C2144 C2146 1.378 . S
C2144 C2148 1.359 . S
C2145 C2148 1.462 1_655 S
C2145 C2150 1.354 . S
C2145 N2153 1.423 1_655 S
C2146 H2137 0.930 . S
C2146 C2144 1.378 . S
C2146 C2147 1.373 . S
C2147 C2146 1.373 . S
C2147 C2149 1.427 1_455 S
C2148 C2144 1.359 . S
C2148 C2145 1.462 1_455 S
C2148 N2152 1.418 1_455 S
C2149 H2139 0.929 . S
C2149 C2147 1.427 1_655 S
C2149 N2152 1.384 . S
C2150 H2141 0.929 . S
C2150 C2142 1.378 . S
C2150 C2145 1.354 . S
C2151 H2138 0.929 . S
C2151 C2143 1.432 1_455 S
C2151 N2153 1.384 . S
N2152 C2148 1.418 1_655 S
N2152 C2149 1.384 . S
N2153 C2145 1.423 1_455 S
N2153 C2151 1.384 . S
H2154 C2160 0.930 . S
H2155 C2164 0.930 . S
H2156 C2169 0.929 . S
H2157 C2167 0.929 . S
H2158 C2162 0.929 . S
H2159 C2168 0.929 . S
C2160 H2154 0.930 . S
C2160 C2161 1.386 . S
C2160 C2168 1.378 . S
C2161 C2160 1.386 . S
C2161 C2169 1.414 1_545 S
C2162 H2158 0.929 . S
C2162 C2164 1.378 . S
C2162 C2166 1.369 . S
C2163 C2166 1.461 1_545 S
C2163 C2168 1.378 . S
C2163 N2171 1.399 1_545 S
C2164 H2155 0.930 . S
C2164 C2162 1.378 . S
C2164 C2165 1.377 . S
C2165 C2164 1.377 . S
C2165 C2167 1.423 1_565 S
C2166 C2162 1.369 . S
C2166 C2163 1.461 1_565 S
C2166 N2170 1.408 1_565 S
C2167 H2157 0.929 . S
C2167 C2165 1.423 1_545 S
C2167 N2170 1.384 . S
C2168 H2159 0.929 . S
C2168 C2160 1.378 . S
C2168 C2163 1.378 . S
C2169 H2156 0.929 . S
C2169 C2161 1.414 1_565 S
C2169 N2171 1.384 . S
N2170 C2166 1.408 1_545 S
N2170 C2167 1.384 . S
N2171 C2163 1.399 1_565 S
N2171 C2169 1.384 . S
H2172 C2178 0.930 . S
H2173 C2182 0.930 . S
H2174 C2187 0.929 . S
H2175 C2185 0.929 . S
H2176 C2180 0.929 . S
H2177 C2186 0.929 . S
C2178 H2172 0.930 . S
C2178 C2179 1.384 . S
C2178 C2186 1.378 . S
C2179 C2178 1.384 . S
C2179 C2187 1.416 1_455 S
C2180 H2176 0.929 . S
C2180 C2182 1.378 . S
C2180 C2184 1.367 . S
C2181 C2184 1.461 1_455 S
C2181 C2186 1.375 . S
C2181 N2189 1.402 1_455 S
C2182 H2173 0.930 . S
C2182 C2180 1.378 . S
C2182 C2183 1.376 . S
C2183 C2182 1.376 . S
C2183 C2185 1.424 1_655 S
C2184 C2180 1.367 . S
C2184 C2181 1.461 1_655 S
C2184 N2188 1.410 1_655 S
C2185 H2175 0.929 . S
C2185 C2183 1.424 1_455 S
C2185 N2188 1.384 . S
C2186 H2177 0.929 . S
C2186 C2178 1.378 . S
C2186 C2181 1.375 . S
C2187 H2174 0.929 . S
C2187 C2179 1.416 1_655 S
C2187 N2189 1.384 . S
N2188 C2184 1.410 1_455 S
N2188 C2185 1.384 . S
N2189 C2181 1.402 1_655 S
N2189 C2187 1.384 . S
H2190 C2196 0.930 . S
H2191 C2200 0.930 . S
H2192 C2205 0.929 . S
H2193 C2203 0.929 . S
H2194 C2198 0.929 . S
H2195 C2204 0.929 . S
C2196 H2190 0.930 . S
C2196 C2197 1.376 . S
C2196 C2204 1.378 . S
C2197 C2196 1.376 . S
C2197 C2205 1.424 1_565 S
C2198 H2194 0.929 . S
C2198 C2200 1.378 . S
C2198 C2202 1.376 . S
C2199 C2202 1.461 1_565 S
C2199 C2204 1.367 . S
C2199 N2207 1.410 1_565 S
C2200 H2191 0.930 . S
C2200 C2198 1.378 . S
C2200 C2201 1.384 . S
C2201 C2200 1.384 . S
C2201 C2203 1.416 1_545 S
C2202 C2198 1.376 . S
C2202 C2199 1.461 1_545 S
C2202 N2206 1.402 1_545 S
C2203 H2193 0.929 . S
C2203 C2201 1.416 1_565 S
C2203 N2206 1.384 . S
C2204 H2195 0.929 . S
C2204 C2196 1.378 . S
C2204 C2199 1.367 . S
C2205 H2192 0.929 . S
C2205 C2197 1.424 1_545 S
C2205 N2207 1.384 . S
N2206 C2202 1.402 1_565 S
N2206 C2203 1.384 . S
N2207 C2199 1.410 1_545 S
N2207 C2205 1.384 . S
H2208 C2214 0.930 . S
H2209 C2218 0.930 . S
H2210 C2223 0.929 . S
H2211 C2221 0.929 . S
H2212 C2216 0.929 . S
H2213 C2222 0.929 . S
C2214 H2208 0.930 . S
C2214 C2215 1.370 . S
C2214 C2222 1.378 . S
C2215 C2214 1.370 . S
C2215 C2223 1.430 1_655 S
C2216 H2212 0.929 . S
C2216 C2218 1.378 . S
C2216 C2220 1.365 . S
C2217 C2220 1.462 1_655 S
C2217 C2222 1.358 . S
C2217 N2225 1.419 1_655 S
C2218 H2209 0.930 . S
C2218 C2216 1.378 . S
C2218 C2219 1.377 . S
C2219 C2218 1.377 . S
C2219 C2221 1.423 1_455 S
C2220 C2216 1.365 . S
C2220 C2217 1.462 1_455 S
C2220 N2224 1.413 1_455 S
C2221 H2211 0.929 . S
C2221 C2219 1.423 1_655 S
C2221 N2224 1.384 . S
C2222 H2213 0.929 . S
C2222 C2214 1.378 . S
C2222 C2217 1.358 . S
C2223 H2210 0.929 . S
C2223 C2215 1.430 1_455 S
C2223 N2225 1.384 . S
N2224 C2220 1.413 1_655 S
N2224 C2221 1.384 . S
N2225 C2217 1.419 1_455 S
N2225 C2223 1.384 . S
H2226 C2232 0.930 . S
H2227 C2236 0.930 . S
H2228 C2241 0.929 . S
H2229 C2239 0.929 . S
H2230 C2234 0.929 . S
H2231 C2240 0.929 . S
C2232 H2226 0.930 . S
C2232 C2233 1.366 . S
C2232 C2240 1.378 . S
C2233 C2232 1.366 . S
C2233 C2241 1.434 1_565 S
C2234 H2230 0.929 . S
C2234 C2236 1.378 . S
C2234 C2238 1.355 . S
C2235 C2238 1.462 1_565 S
C2235 C2240 1.351 . S
C2235 N2243 1.426 1_565 S
C2236 H2227 0.930 . S
C2236 C2234 1.378 . S
C2236 C2237 1.370 . S
C2237 C2236 1.370 . S
C2237 C2239 1.430 1_545 S
C2238 C2234 1.355 . S
C2238 C2235 1.462 1_545 S
C2238 N2242 1.422 1_545 S
C2239 H2229 0.929 . S
C2239 C2237 1.430 1_565 S
C2239 N2242 1.384 . S
C2240 H2231 0.929 . S
C2240 C2232 1.378 . S
C2240 C2235 1.351 . S
C2241 H2228 0.929 . S
C2241 C2233 1.434 1_545 S
C2241 N2243 1.384 . S
N2242 C2238 1.422 1_565 S
N2242 C2239 1.384 . S
N2243 C2235 1.426 1_545 S
N2243 C2241 1.384 . S
H2244 C2250 0.930 . S
H2245 C2254 0.930 . S
H2246 C2259 0.929 . S
H2247 C2257 0.929 . S
H2248 C2252 0.929 . S
H2249 C2258 0.929 . S
C2250 H2244 0.930 . S
C2250 C2251 1.373 . S
C2250 C2258 1.378 . S
C2251 C2250 1.373 . S
C2251 C2259 1.427 1_655 S
C2252 H2248 0.929 . S
C2252 C2254 1.378 . S
C2252 C2256 1.370 . S
C2253 C2256 1.461 1_655 S
C2253 C2258 1.363 . S
C2253 N2261 1.415 1_655 S
C2254 H2245 0.930 . S
C2254 C2252 1.378 . S
C2254 C2255 1.381 . S
C2255 C2254 1.381 . S
C2255 C2257 1.419 1_455 S
C2256 C2252 1.370 . S
C2256 C2253 1.461 1_455 S
C2256 N2260 1.407 1_455 S
C2257 H2247 0.929 . S
C2257 C2255 1.419 1_655 S
C2257 N2260 1.384 . S
C2258 H2249 0.929 . S
C2258 C2250 1.378 . S
C2258 C2253 1.363 . S
C2259 H2246 0.929 . S
C2259 C2251 1.427 1_455 S
C2259 N2261 1.384 . S
N2260 C2256 1.407 1_655 S
N2260 C2257 1.384 . S
N2261 C2253 1.415 1_455 S
N2261 C2259 1.384 . S
H2262 C2268 0.930 . S
H2263 C2272 0.930 . S
H2264 C2277 0.929 . S
H2265 C2275 0.929 . S
H2266 C2270 0.929 . S
H2267 C2276 0.929 . S
C2268 H2262 0.930 . S
C2268 C2269 1.380 . S
C2268 C2276 1.378 . S
C2269 C2268 1.380 . S
C2269 C2277 1.420 1_565 S
C2270 H2266 0.929 . S
C2270 C2272 1.378 . S
C2270 C2274 1.384 . S
C2271 C2274 1.460 1_565 S
C2271 C2276 1.374 . S
C2271 N2279 1.403 1_565 S
C2272 H2263 0.930 . S
C2272 C2270 1.378 . S
C2272 C2273 1.390 . S
C2273 C2272 1.390 . S
C2273 C2275 1.410 1_545 S
C2274 C2270 1.384 . S
C2274 C2271 1.460 1_545 S
C2274 N2278 1.393 1_545 S
C2275 H2265 0.929 . S
C2275 C2273 1.410 1_565 S
C2275 N2278 1.384 . S
C2276 H2267 0.929 . S
C2276 C2268 1.378 . S
C2276 C2271 1.374 . S
C2277 H2264 0.929 . S
C2277 C2269 1.420 1_545 S
C2277 N2279 1.384 . S
N2278 C2274 1.393 1_565 S
N2278 C2275 1.384 . S
N2279 C2271 1.403 1_545 S
N2279 C2277 1.384 . S
H2280 C2286 0.930 . S
H2281 C2290 0.930 . S
H2282 C2295 0.929 . S
H2283 C2293 0.929 . S
H2284 C2288 0.929 . S
H2285 C2294 0.929 . S
C2286 H2280 0.930 . S
C2286 C2287 1.379 . S
C2286 C2294 1.378 . S
C2287 C2286 1.379 . S
C2287 C2295 1.421 1_655 S
C2288 H2284 0.929 . S
C2288 C2290 1.378 . S
C2288 C2292 1.381 . S
C2289 C2292 1.461 1_655 S
C2289 C2294 1.371 . S
C2289 N2297 1.406 1_655 S
C2290 H2281 0.930 . S
C2290 C2288 1.378 . S
C2290 C2291 1.388 . S
C2291 C2290 1.388 . S
C2291 C2293 1.412 1_455 S
C2292 C2288 1.381 . S
C2292 C2289 1.461 1_455 S
C2292 N2296 1.397 1_455 S
C2293 H2283 0.929 . S
C2293 C2291 1.412 1_655 S
C2293 N2296 1.384 . S
C2294 H2285 0.929 . S
C2294 C2286 1.378 . S
C2294 C2289 1.371 . S
C2295 H2282 0.929 . S
C2295 C2287 1.421 1_455 S
C2295 N2297 1.384 . S
N2296 C2292 1.397 1_655 S
N2296 C2293 1.384 . S
N2297 C2289 1.406 1_455 S
N2297 C2295 1.384 . S
H2298 C2304 0.930 . S
H2299 C2308 0.930 . S
H2300 C2313 0.929 . S
H2301 C2311 0.929 . S
H2302 C2306 0.929 . S
H2303 C2312 0.929 . S
C2304 H2298 0.930 . S
C2304 C2305 1.389 . S
C2304 C2312 1.378 . S
C2305 C2304 1.389 . S
C2305 C2313 1.410 1_545 S
C2306 H2302 0.929 . S
C2306 C2308 1.378 . S
C2306 C2310 1.374 . S
C2307 C2310 1.460 1_545 S
C2307 C2312 1.383 . S
C2307 N2315 1.394 1_545 S
C2308 H2299 0.930 . S
C2308 C2306 1.378 . S
C2308 C2309 1.380 . S
C2309 C2308 1.380 . S
C2309 C2311 1.420 1_565 S
C2310 C2306 1.374 . S
C2310 C2307 1.460 1_565 S
C2310 N2314 1.403 1_565 S
C2311 H2301 0.929 . S
C2311 C2309 1.420 1_545 S
C2311 N2314 1.384 . S
C2312 H2303 0.929 . S
C2312 C2304 1.378 . S
C2312 C2307 1.383 . S
C2313 H2300 0.929 . S
C2313 C2305 1.410 1_565 S
C2313 N2315 1.384 . S
N2314 C2310 1.403 1_545 S
N2314 C2311 1.384 . S
N2315 C2307 1.394 1_565 S
N2315 C2313 1.384 . S
H2316 C2322 0.930 . S
H2317 C2326 0.930 . S
H2318 C2331 0.929 . S
H2319 C2329 0.929 . S
H2320 C2324 0.929 . S
H2321 C2330 0.929 . S
C2322 H2316 0.930 . S
C2322 C2323 1.380 . S
C2322 C2330 1.378 . S
C2323 C2322 1.380 . S
C2323 C2331 1.420 1_565 S
C2324 H2320 0.929 . S
C2324 C2326 1.378 . S
C2324 C2328 1.384 . S
C2325 C2328 1.460 1_565 S
C2325 C2330 1.374 . S
C2325 N2333 1.403 1_565 S
C2326 H2317 0.930 . S
C2326 C2324 1.378 . S
C2326 C2327 1.390 . S
C2327 C2326 1.390 . S
C2327 C2329 1.410 1_545 S
C2328 C2324 1.384 . S
C2328 C2325 1.460 1_545 S
C2328 N2332 1.393 1_545 S
C2329 H2319 0.929 . S
C2329 C2327 1.410 1_565 S
C2329 N2332 1.384 . S
C2330 H2321 0.929 . S
C2330 C2322 1.378 . S
C2330 C2325 1.374 . S
C2331 H2318 0.929 . S
C2331 C2323 1.420 1_545 S
C2331 N2333 1.384 . S
N2332 C2328 1.393 1_565 S
N2332 C2329 1.384 . S
N2333 C2325 1.403 1_545 S
N2333 C2331 1.384 . S
H2334 C2340 0.930 . S
H2335 C2344 0.930 . S
H2336 C2349 0.929 . S
H2337 C2347 0.929 . S
H2338 C2342 0.929 . S
H2339 C2348 0.929 . S
C2340 H2334 0.930 . S
C2340 C2341 1.374 . S
C2340 C2348 1.378 . S
C2341 C2340 1.374 . S
C2341 C2349 1.426 1_455 S
C2342 H2338 0.929 . S
C2342 C2344 1.378 . S
C2342 C2346 1.355 . S
C2343 C2346 1.462 1_455 S
C2343 C2348 1.360 . S
C2343 N2351 1.417 1_455 S
C2344 H2335 0.930 . S
C2344 C2342 1.378 . S
C2344 C2345 1.368 . S
C2345 C2344 1.368 . S
C2345 C2347 1.432 1_655 S
C2346 C2342 1.355 . S
C2346 C2343 1.462 1_655 S
C2346 N2350 1.422 1_655 S
C2347 H2337 0.929 . S
C2347 C2345 1.432 1_455 S
C2347 N2350 1.384 . S
C2348 H2339 0.929 . S
C2348 C2340 1.378 . S
C2348 C2343 1.360 . S
C2349 H2336 0.929 . S
C2349 C2341 1.426 1_655 S
C2349 N2351 1.384 . S
N2350 C2346 1.422 1_455 S
N2350 C2347 1.384 . S
N2351 C2343 1.417 1_655 S
N2351 C2349 1.384 . S
H2352 C2358 0.930 . S
H2353 C2362 0.930 . S
H2354 C2367 0.929 . S
H2355 C2365 0.929 . S
H2356 C2360 0.929 . S
H2357 C2366 0.929 . S
C2358 H2352 0.930 . S
C2358 C2359 1.378 . S
C2358 C2366 1.378 . S
C2359 C2358 1.378 . S
C2359 C2367 1.422 1_565 S
C2360 H2356 0.929 . S
C2360 C2362 1.378 . S
C2360 C2364 1.380 . S
C2361 C2364 1.461 1_565 S
C2361 C2366 1.371 . S
C2361 N2369 1.406 1_565 S
C2362 H2353 0.930 . S
C2362 C2360 1.378 . S
C2362 C2363 1.387 . S
C2363 C2362 1.387 . S
C2363 C2365 1.413 1_545 S
C2364 C2360 1.380 . S
C2364 C2361 1.461 1_545 S
C2364 N2368 1.397 1_545 S
C2365 H2355 0.929 . S
C2365 C2363 1.413 1_565 S
C2365 N2368 1.384 . S
C2366 H2357 0.929 . S
C2366 C2358 1.378 . S
C2366 C2361 1.371 . S
C2367 H2354 0.929 . S
C2367 C2359 1.422 1_545 S
C2367 N2369 1.384 . S
N2368 C2364 1.397 1_565 S
N2368 C2365 1.384 . S
N2369 C2361 1.406 1_545 S
N2369 C2367 1.384 . S
H2370 C2376 0.930 . S
H2371 C2380 0.930 . S
H2372 C2385 0.929 . S
H2373 C2383 0.929 . S
H2374 C2378 0.929 . S
H2375 C2384 0.929 . S
C2376 H2370 0.930 . S
C2376 C2377 1.371 . S
C2376 C2384 1.378 . S
C2377 C2376 1.371 . S
C2377 C2385 1.429 1_455 S
C2378 H2374 0.929 . S
C2378 C2380 1.378 . S
C2378 C2382 1.352 . S
C2379 C2382 1.462 1_455 S
C2379 C2384 1.356 . S
C2379 N2387 1.421 1_455 S
C2380 H2371 0.930 . S
C2380 C2378 1.378 . S
C2380 C2381 1.367 . S
C2381 C2380 1.367 . S
C2381 C2383 1.433 1_655 S
C2382 C2378 1.352 . S
C2382 C2379 1.462 1_655 S
C2382 N2386 1.425 1_655 S
C2383 H2373 0.929 . S
C2383 C2381 1.433 1_455 S
C2383 N2386 1.384 . S
C2384 H2375 0.929 . S
C2384 C2376 1.378 . S
C2384 C2379 1.356 . S
C2385 H2372 0.929 . S
C2385 C2377 1.429 1_655 S
C2385 N2387 1.384 . S
N2386 C2382 1.425 1_455 S
N2386 C2383 1.384 . S
N2387 C2379 1.421 1_655 S
N2387 C2385 1.384 . S
H2388 C2394 0.930 . S
H2389 C2398 0.930 . S
H2390 C2403 0.929 . S
H2391 C2401 0.929 . S
H2392 C2396 0.929 . S
H2393 C2402 0.929 . S
C2394 H2388 0.930 . S
C2394 C2395 1.366 . S
C2394 C2402 1.378 . S
C2395 C2394 1.366 . S
C2395 C2403 1.434 1_565 S
C2396 H2392 0.929 . S
C2396 C2398 1.378 . S
C2396 C2400 1.352 . S
C2397 C2400 1.462 1_565 S
C2397 C2402 1.350 . S
C2397 N2405 1.428 1_565 S
C2398 H2389 0.930 . S
C2398 C2396 1.378 . S
C2398 C2399 1.368 . S
C2399 C2398 1.368 . S
C2399 C2401 1.432 1_545 S
C2400 C2396 1.352 . S
C2400 C2397 1.462 1_545 S
C2400 N2404 1.425 1_545 S
C2401 H2391 0.929 . S
C2401 C2399 1.432 1_565 S
C2401 N2404 1.384 . S
C2402 H2393 0.929 . S
C2402 C2394 1.378 . S
C2402 C2397 1.350 . S
C2403 H2390 0.929 . S
C2403 C2395 1.434 1_545 S
C2403 N2405 1.384 . S
N2404 C2400 1.425 1_565 S
N2404 C2401 1.384 . S
N2405 C2397 1.428 1_545 S
N2405 C2403 1.384 . S
H2406 C2412 0.930 . S
H2407 C2416 0.930 . S
H2408 C2421 0.929 . S
H2409 C2419 0.929 . S
H2410 C2414 0.929 . S
H2411 C2420 0.929 . S
C2412 H2406 0.930 . S
C2412 C2413 1.380 . S
C2412 C2420 1.378 . S
C2413 C2412 1.380 . S
C2413 C2421 1.420 1_455 S
C2414 H2410 0.929 . S
C2414 C2416 1.378 . S
C2414 C2418 1.362 . S
C2415 C2418 1.461 1_455 S
C2415 C2420 1.370 . S
C2415 N2423 1.408 1_455 S
C2416 H2407 0.930 . S
C2416 C2414 1.378 . S
C2416 C2417 1.373 . S
C2417 C2416 1.373 . S
C2417 C2419 1.427 1_655 S
C2418 C2414 1.362 . S
C2418 C2415 1.461 1_655 S
C2418 N2422 1.415 1_655 S
C2419 H2409 0.929 . S
C2419 C2417 1.427 1_455 S
C2419 N2422 1.384 . S
C2420 H2411 0.929 . S
C2420 C2412 1.378 . S
C2420 C2415 1.370 . S
C2421 H2408 0.929 . S
C2421 C2413 1.420 1_655 S
C2421 N2423 1.384 . S
N2422 C2418 1.415 1_455 S
N2422 C2419 1.384 . S
N2423 C2415 1.408 1_655 S
N2423 C2421 1.384 . S
H2424 C2430 0.930 . S
H2425 C2434 0.930 . S
H2426 C2439 0.929 . S
H2427 C2437 0.929 . S
H2428 C2432 0.929 . S
H2429 C2438 0.929 . S
C2430 H2424 0.930 . S
C2430 C2431 1.379 . S
C2430 C2438 1.378 . S
C2431 C2430 1.379 . S
C2431 C2439 1.421 1_545 S
C2432 H2428 0.929 . S
C2432 C2434 1.378 . S
C2432 C2436 1.361 . S
C2433 C2436 1.461 1_545 S
C2433 C2438 1.368 . S
C2433 N2441 1.409 1_545 S
C2434 H2425 0.930 . S
C2434 C2432 1.378 . S
C2434 C2435 1.372 . S
C2435 C2434 1.372 . S
C2435 C2437 1.428 1_565 S
C2436 C2432 1.361 . S
C2436 C2433 1.461 1_565 S
C2436 N2440 1.416 1_565 S
C2437 H2427 0.929 . S
C2437 C2435 1.428 1_545 S
C2437 N2440 1.384 . S
C2438 H2429 0.929 . S
C2438 C2430 1.378 . S
C2438 C2433 1.368 . S
C2439 H2426 0.929 . S
C2439 C2431 1.421 1_565 S
C2439 N2441 1.384 . S
N2440 C2436 1.416 1_545 S
N2440 C2437 1.384 . S
N2441 C2433 1.409 1_565 S
N2441 C2439 1.384 . S
H2442 C2448 0.930 . S
H2443 C2452 0.930 . S
H2444 C2457 0.929 . S
H2445 C2455 0.929 . S
H2446 C2450 0.929 . S
H2447 C2456 0.929 . S
C2448 H2442 0.930 . S
C2448 C2449 1.385 . S
C2448 C2456 1.378 . S
C2449 C2448 1.385 . S
C2449 C2457 1.414 1_455 S
C2450 H2446 0.929 . S
C2450 C2452 1.378 . S
C2450 C2454 1.369 . S
C2451 C2454 1.461 1_455 S
C2451 C2456 1.377 . S
C2451 N2459 1.400 1_455 S
C2452 H2443 0.930 . S
C2452 C2450 1.378 . S
C2452 C2453 1.377 . S
C2453 C2452 1.377 . S
C2453 C2455 1.423 1_655 S
C2454 C2450 1.369 . S
C2454 C2451 1.461 1_655 S
C2454 N2458 1.408 1_655 S
C2455 H2445 0.929 . S
C2455 C2453 1.423 1_455 S
C2455 N2458 1.384 . S
C2456 H2447 0.929 . S
C2456 C2448 1.378 . S
C2456 C2451 1.377 . S
C2457 H2444 0.929 . S
C2457 C2449 1.414 1_655 S
C2457 N2459 1.384 . S
N2458 C2454 1.408 1_455 S
N2458 C2455 1.384 . S
N2459 C2451 1.400 1_655 S
N2459 C2457 1.384 . S
H2460 C2466 0.930 . S
H2461 C2470 0.930 . S
H2462 C2475 0.929 . S
H2463 C2473 0.929 . S
H2464 C2468 0.929 . S
H2465 C2474 0.929 . S
C2466 H2460 0.930 . S
C2466 C2467 1.386 . S
C2466 C2474 1.378 . S
C2467 C2466 1.386 . S
C2467 C2475 1.414 1_554 S
C2468 H2464 0.929 . S
C2468 C2470 1.378 . S
C2468 C2472 1.369 . S
C2469 C2472 1.461 1_554 S
C2469 C2474 1.378 . S
C2469 N2477 1.399 1_554 S
C2470 H2461 0.930 . S
C2470 C2468 1.378 . S
C2470 C2471 1.377 . S
C2471 C2470 1.377 . S
C2471 C2473 1.423 1_556 S
C2472 C2468 1.369 . S
C2472 C2469 1.461 1_556 S
C2472 N2476 1.408 1_556 S
C2473 H2463 0.929 . S
C2473 C2471 1.423 1_554 S
C2473 N2476 1.384 . S
C2474 H2465 0.929 . S
C2474 C2466 1.378 . S
C2474 C2469 1.378 . S
C2475 H2462 0.929 . S
C2475 C2467 1.414 1_556 S
C2475 N2477 1.384 . S
N2476 C2472 1.408 1_554 S
N2476 C2473 1.384 . S
N2477 C2469 1.399 1_556 S
N2477 C2475 1.384 . S
H2478 C2484 0.930 . S
H2479 C2488 0.930 . S
H2480 C2493 0.929 . S
H2481 C2491 0.929 . S
H2482 C2486 0.929 . S
H2483 C2492 0.929 . S
C2484 H2478 0.930 . S
C2484 C2485 1.371 . S
C2484 C2492 1.378 . S
C2485 C2484 1.371 . S
C2485 C2493 1.429 1_556 S
C2486 H2482 0.929 . S
C2486 C2488 1.378 . S
C2486 C2490 1.366 . S
C2487 C2490 1.461 1_556 S
C2487 C2492 1.360 . S
C2487 N2495 1.418 1_556 S
C2488 H2479 0.930 . S
C2488 C2486 1.378 . S
C2488 C2489 1.378 . S
C2489 C2488 1.378 . S
C2489 C2491 1.422 1_554 S
C2490 C2486 1.366 . S
C2490 C2487 1.461 1_554 S
C2490 N2494 1.411 1_554 S
C2491 H2481 0.929 . S
C2491 C2489 1.422 1_556 S
C2491 N2494 1.384 . S
C2492 H2483 0.929 . S
C2492 C2484 1.378 . S
C2492 C2487 1.360 . S
C2493 H2480 0.929 . S
C2493 C2485 1.429 1_554 S
C2493 N2495 1.384 . S
N2494 C2490 1.411 1_556 S
N2494 C2491 1.384 . S
N2495 C2487 1.418 1_554 S
N2495 C2493 1.384 . S
H2496 C2502 0.930 . S
H2497 C2506 0.930 . S
H2498 C2511 0.929 . S
H2499 C2509 0.929 . S
H2500 C2504 0.929 . S
H2501 C2510 0.929 . S
C2502 H2496 0.930 . S
C2502 C2503 1.376 . S
C2502 C2510 1.378 . S
C2503 C2502 1.376 . S
C2503 C2511 1.424 1_554 S
C2504 H2500 0.929 . S
C2504 C2506 1.378 . S
C2504 C2508 1.358 . S
C2505 C2508 1.462 1_554 S
C2505 C2510 1.364 . S
C2505 N2513 1.413 1_554 S
C2506 H2497 0.930 . S
C2506 C2504 1.378 . S
C2506 C2507 1.370 . S
C2507 C2506 1.370 . S
C2507 C2509 1.430 1_556 S
C2508 C2504 1.358 . S
C2508 C2505 1.462 1_556 S
C2508 N2512 1.420 1_556 S
C2509 H2499 0.929 . S
C2509 C2507 1.430 1_554 S
C2509 N2512 1.384 . S
C2510 H2501 0.929 . S
C2510 C2502 1.378 . S
C2510 C2505 1.364 . S
C2511 H2498 0.929 . S
C2511 C2503 1.424 1_556 S
C2511 N2513 1.384 . S
N2512 C2508 1.420 1_554 S
N2512 C2509 1.384 . S
N2513 C2505 1.413 1_556 S
N2513 C2511 1.384 . S
H2514 C2520 0.930 . S
H2515 C2524 0.930 . S
H2516 C2529 0.929 . S
H2517 C2527 0.929 . S
H2518 C2522 0.929 . S
H2519 C2528 0.929 . S
C2520 H2514 0.930 . S
C2520 C2521 1.381 . S
C2520 C2528 1.378 . S
C2521 C2520 1.381 . S
C2521 C2529 1.419 1_556 S
C2522 H2518 0.929 . S
C2522 C2524 1.378 . S
C2522 C2526 1.385 . S
C2523 C2526 1.460 1_556 S
C2523 C2528 1.375 . S
C2523 N2531 1.402 1_556 S
C2524 H2515 0.930 . S
C2524 C2522 1.378 . S
C2524 C2525 1.391 . S
C2525 C2524 1.391 . S
C2525 C2527 1.409 1_554 S
C2526 C2522 1.385 . S
C2526 C2523 1.460 1_554 S
C2526 N2530 1.392 1_554 S
C2527 H2517 0.929 . S
C2527 C2525 1.409 1_556 S
C2527 N2530 1.384 . S
C2528 H2519 0.929 . S
C2528 C2520 1.378 . S
C2528 C2523 1.375 . S
C2529 H2516 0.929 . S
C2529 C2521 1.419 1_554 S
C2529 N2531 1.384 . S
N2530 C2526 1.392 1_556 S
N2530 C2527 1.384 . S
N2531 C2523 1.402 1_554 S
N2531 C2529 1.384 . S
H2532 C2538 0.930 . S
H2533 C2542 0.930 . S
H2534 C2547 0.929 . S
H2535 C2545 0.929 . S
H2536 C2540 0.929 . S
H2537 C2546 0.929 . S
C2538 H2532 0.930 . S
C2538 C2539 1.380 . S
C2538 C2546 1.378 . S
C2539 C2538 1.380 . S
C2539 C2547 1.420 1_556 S
C2540 H2536 0.929 . S
C2540 C2542 1.378 . S
C2540 C2544 1.384 . S
C2541 C2544 1.460 1_556 S
C2541 C2546 1.374 . S
C2541 N2549 1.403 1_556 S
C2542 H2533 0.930 . S
C2542 C2540 1.378 . S
C2542 C2543 1.390 . S
C2543 C2542 1.390 . S
C2543 C2545 1.410 1_554 S
C2544 C2540 1.384 . S
C2544 C2541 1.460 1_554 S
C2544 N2548 1.393 1_554 S
C2545 H2535 0.929 . S
C2545 C2543 1.410 1_556 S
C2545 N2548 1.384 . S
C2546 H2537 0.929 . S
C2546 C2538 1.378 . S
C2546 C2541 1.374 . S
C2547 H2534 0.929 . S
C2547 C2539 1.420 1_554 S
C2547 N2549 1.384 . S
N2548 C2544 1.393 1_556 S
N2548 C2545 1.384 . S
N2549 C2541 1.403 1_554 S
N2549 C2547 1.384 . S
H2550 C2556 0.930 . S
H2551 C2560 0.930 . S
H2552 C2565 0.929 . S
H2553 C2563 0.929 . S
H2554 C2558 0.929 . S
H2555 C2564 0.929 . S
C2556 H2550 0.930 . S
C2556 C2557 1.381 . S
C2556 C2564 1.378 . S
C2557 C2556 1.381 . S
C2557 C2565 1.419 1_556 S
C2558 H2554 0.929 . S
C2558 C2560 1.378 . S
C2558 C2562 1.384 . S
C2559 C2562 1.460 1_556 S
C2559 C2564 1.375 . S
C2559 N2567 1.402 1_556 S
C2560 H2551 0.930 . S
C2560 C2558 1.378 . S
C2560 C2561 1.390 . S
C2561 C2560 1.390 . S
C2561 C2563 1.409 1_554 S
C2562 C2558 1.384 . S
C2562 C2559 1.460 1_554 S
C2562 N2566 1.393 1_554 S
C2563 H2553 0.929 . S
C2563 C2561 1.409 1_556 S
C2563 N2566 1.384 . S
C2564 H2555 0.929 . S
C2564 C2556 1.378 . S
C2564 C2559 1.375 . S
C2565 H2552 0.929 . S
C2565 C2557 1.419 1_554 S
C2565 N2567 1.384 . S
N2566 C2562 1.393 1_556 S
N2566 C2563 1.384 . S
N2567 C2559 1.402 1_554 S
N2567 C2565 1.384 . S
H2568 C2574 0.930 . S
H2569 C2578 0.930 . S
H2570 C2583 0.929 . S
H2571 C2581 0.929 . S
H2572 C2576 0.929 . S
H2573 C2582 0.929 . S
C2574 H2568 0.930 . S
C2574 C2575 1.381 . S
C2574 C2582 1.378 . S
C2575 C2574 1.381 . S
C2575 C2583 1.419 1_556 S
C2576 H2572 0.929 . S
C2576 C2578 1.378 . S
C2576 C2580 1.385 . S
C2577 C2580 1.460 1_556 S
C2577 C2582 1.375 . S
C2577 N2585 1.402 1_556 S
C2578 H2569 0.930 . S
C2578 C2576 1.378 . S
C2578 C2579 1.391 . S
C2579 C2578 1.391 . S
C2579 C2581 1.409 1_554 S
C2580 C2576 1.385 . S
C2580 C2577 1.460 1_554 S
C2580 N2584 1.392 1_554 S
C2581 H2571 0.929 . S
C2581 C2579 1.409 1_556 S
C2581 N2584 1.384 . S
C2582 H2573 0.929 . S
C2582 C2574 1.378 . S
C2582 C2577 1.375 . S
C2583 H2570 0.929 . S
C2583 C2575 1.419 1_554 S
C2583 N2585 1.384 . S
N2584 C2580 1.392 1_556 S
N2584 C2581 1.384 . S
N2585 C2577 1.402 1_554 S
N2585 C2583 1.384 . S
H2586 C2592 0.930 . S
H2587 C2596 0.930 . S
H2588 C2601 0.929 . S
H2589 C2599 0.929 . S
H2590 C2594 0.929 . S
H2591 C2600 0.929 . S
C2592 H2586 0.930 . S
C2592 C2593 1.389 . S
C2592 C2600 1.378 . S
C2593 C2592 1.389 . S
C2593 C2601 1.411 1_554 S
C2594 H2590 0.929 . S
C2594 C2596 1.378 . S
C2594 C2598 1.373 . S
C2595 C2598 1.460 1_554 S
C2595 C2600 1.383 . S
C2595 N2603 1.394 1_554 S
C2596 H2587 0.930 . S
C2596 C2594 1.378 . S
C2596 C2597 1.380 . S
C2597 C2596 1.380 . S
C2597 C2599 1.420 1_556 S
C2598 C2594 1.373 . S
C2598 C2595 1.460 1_556 S
C2598 N2602 1.404 1_556 S
C2599 H2589 0.929 . S
C2599 C2597 1.420 1_554 S
C2599 N2602 1.384 . S
C2600 H2591 0.929 . S
C2600 C2592 1.378 . S
C2600 C2595 1.383 . S
C2601 H2588 0.929 . S
C2601 C2593 1.411 1_556 S
C2601 N2603 1.384 . S
N2602 C2598 1.404 1_554 S
N2602 C2599 1.384 . S
N2603 C2595 1.394 1_556 S
N2603 C2601 1.384 . S
H2604 C2610 0.930 . S
H2605 C2614 0.930 . S
H2606 C2619 0.929 . S
H2607 C2617 0.929 . S
H2608 C2612 0.929 . S
H2609 C2618 0.929 . S
C2610 H2604 0.930 . S
C2610 C2611 1.367 . S
C2610 C2618 1.378 . S
C2611 C2610 1.367 . S
C2611 C2619 1.433 . S
C2612 H2608 0.929 . S
C2612 C2614 1.378 . S
C2612 C2616 1.350 . S
C2613 C2616 1.463 . S
C2613 C2618 1.350 . S
C2613 N2621 1.427 . S
C2614 H2605 0.930 . S
C2614 C2612 1.378 . S
C2614 C2615 1.367 . S
C2615 C2614 1.367 . S
C2615 C2617 1.433 . S
C2616 C2612 1.350 . S
C2616 C2613 1.463 . S
C2616 N2620 1.427 . S
C2617 H2607 0.929 . S
C2617 C2615 1.433 . S
C2617 N2620 1.384 . S
C2618 H2609 0.929 . S
C2618 C2610 1.378 . S
C2618 C2613 1.350 . S
C2619 H2606 0.929 . S
C2619 C2611 1.433 . S
C2619 N2621 1.384 . S
N2620 C2616 1.427 . S
N2620 C2617 1.384 . S
N2621 C2613 1.427 . S
N2621 C2619 1.384 . S
H2622 C2628 0.930 . S
H2623 C2632 0.930 . S
H2624 C2637 0.929 . S
H2625 C2635 0.929 . S
H2626 C2630 0.929 . S
H2627 C2636 0.929 . S
C2628 H2622 0.930 . S
C2628 C2629 1.367 . S
C2628 C2636 1.378 . S
C2629 C2628 1.367 . S
C2629 C2637 1.433 . S
C2630 H2626 0.929 . S
C2630 C2632 1.378 . S
C2630 C2634 1.350 . S
C2631 C2634 1.463 . S
C2631 C2636 1.350 . S
C2631 N2639 1.427 . S
C2632 H2623 0.930 . S
C2632 C2630 1.378 . S
C2632 C2633 1.367 . S
C2633 C2632 1.367 . S
C2633 C2635 1.433 . S
C2634 C2630 1.350 . S
C2634 C2631 1.463 . S
C2634 N2638 1.427 . S
C2635 H2625 0.929 . S
C2635 C2633 1.433 . S
C2635 N2638 1.384 . S
C2636 H2627 0.929 . S
C2636 C2628 1.378 . S
C2636 C2631 1.350 . S
C2637 H2624 0.929 . S
C2637 C2629 1.433 . S
C2637 N2639 1.384 . S
N2638 C2634 1.427 . S
N2638 C2635 1.384 . S
N2639 C2631 1.427 . S
N2639 C2637 1.384 . S
H2640 C2646 0.930 . S
H2641 C2650 0.930 . S
H2642 C2655 0.929 . S
H2643 C2653 0.929 . S
H2644 C2648 0.929 . S
H2645 C2654 0.929 . S
C2646 H2640 0.930 . S
C2646 C2647 1.367 . S
C2646 C2654 1.378 . S
C2647 C2646 1.367 . S
C2647 C2655 1.433 . S
C2648 H2644 0.929 . S
C2648 C2650 1.378 . S
C2648 C2652 1.350 . S
C2649 C2652 1.463 . S
C2649 C2654 1.350 . S
C2649 N2657 1.427 . S
C2650 H2641 0.930 . S
C2650 C2648 1.378 . S
C2650 C2651 1.367 . S
C2651 C2650 1.367 . S
C2651 C2653 1.433 . S
C2652 C2648 1.350 . S
C2652 C2649 1.463 . S
C2652 N2656 1.427 . S
C2653 H2643 0.929 . S
C2653 C2651 1.433 . S
C2653 N2656 1.384 . S
C2654 H2645 0.929 . S
C2654 C2646 1.378 . S
C2654 C2649 1.350 . S
C2655 H2642 0.929 . S
C2655 C2647 1.433 . S
C2655 N2657 1.384 . S
N2656 C2652 1.427 . S
N2656 C2653 1.384 . S
N2657 C2649 1.427 . S
N2657 C2655 1.384 . S
H2658 C2664 0.930 . S
H2659 C2668 0.930 . S
H2660 C2673 0.929 . S
H2661 C2671 0.929 . S
H2662 C2666 0.929 . S
H2663 C2672 0.929 . S
C2664 H2658 0.930 . S
C2664 C2665 1.367 . S
C2664 C2672 1.378 . S
C2665 C2664 1.367 . S
C2665 C2673 1.433 . S
C2666 H2662 0.929 . S
C2666 C2668 1.378 . S
C2666 C2670 1.350 . S
C2667 C2670 1.463 . S
C2667 C2672 1.350 . S
C2667 N2675 1.427 . S
C2668 H2659 0.930 . S
C2668 C2666 1.378 . S
C2668 C2669 1.367 . S
C2669 C2668 1.367 . S
C2669 C2671 1.433 . S
C2670 C2666 1.350 . S
C2670 C2667 1.463 . S
C2670 N2674 1.427 . S
C2671 H2661 0.929 . S
C2671 C2669 1.433 . S
C2671 N2674 1.384 . S
C2672 H2663 0.929 . S
C2672 C2664 1.378 . S
C2672 C2667 1.350 . S
C2673 H2660 0.929 . S
C2673 C2665 1.433 . S
C2673 N2675 1.384 . S
N2674 C2670 1.427 . S
N2674 C2671 1.384 . S
N2675 C2667 1.427 . S
N2675 C2673 1.384 . S
H2676 C2682 0.930 . S
H2677 C2686 0.930 . S
H2678 C2691 0.929 . S
H2679 C2689 0.929 . S
H2680 C2684 0.929 . S
H2681 C2690 0.929 . S
C2682 H2676 0.930 . S
C2682 C2683 1.367 . S
C2682 C2690 1.378 . S
C2683 C2682 1.367 . S
C2683 C2691 1.433 . S
C2684 H2680 0.929 . S
C2684 C2686 1.378 . S
C2684 C2688 1.350 . S
C2685 C2688 1.463 . S
C2685 C2690 1.350 . S
C2685 N2693 1.427 . S
C2686 H2677 0.930 . S
C2686 C2684 1.378 . S
C2686 C2687 1.367 . S
C2687 C2686 1.367 . S
C2687 C2689 1.433 . S
C2688 C2684 1.350 . S
C2688 C2685 1.463 . S
C2688 N2692 1.427 . S
C2689 H2679 0.929 . S
C2689 C2687 1.433 . S
C2689 N2692 1.384 . S
C2690 H2681 0.929 . S
C2690 C2682 1.378 . S
C2690 C2685 1.350 . S
C2691 H2678 0.929 . S
C2691 C2683 1.433 . S
C2691 N2693 1.384 . S
N2692 C2688 1.427 . S
N2692 C2689 1.384 . S
N2693 C2685 1.427 . S
N2693 C2691 1.384 . S
H2694 C2700 0.930 . S
H2695 C2704 0.930 . S
H2696 C2709 0.929 . S
H2697 C2707 0.929 . S
H2698 C2702 0.929 . S
H2699 C2708 0.929 . S
C2700 H2694 0.930 . S
C2700 C2701 1.367 . S
C2700 C2708 1.378 . S
C2701 C2700 1.367 . S
C2701 C2709 1.433 . S
C2702 H2698 0.929 . S
C2702 C2704 1.378 . S
C2702 C2706 1.350 . S
C2703 C2706 1.463 . S
C2703 C2708 1.350 . S
C2703 N2711 1.427 . S
C2704 H2695 0.930 . S
C2704 C2702 1.378 . S
C2704 C2705 1.367 . S
C2705 C2704 1.367 . S
C2705 C2707 1.433 . S
C2706 C2702 1.350 . S
C2706 C2703 1.463 . S
C2706 N2710 1.427 . S
C2707 H2697 0.929 . S
C2707 C2705 1.433 . S
C2707 N2710 1.384 . S
C2708 H2699 0.929 . S
C2708 C2700 1.378 . S
C2708 C2703 1.350 . S
C2709 H2696 0.929 . S
C2709 C2701 1.433 . S
C2709 N2711 1.384 . S
N2710 C2706 1.427 . S
N2710 C2707 1.384 . S
N2711 C2703 1.427 . S
N2711 C2709 1.384 . S
H2712 C2718 0.930 . S
H2713 C2722 0.930 . S
H2714 C2727 0.929 . S
H2715 C2725 0.929 . S
H2716 C2720 0.929 . S
H2717 C2726 0.929 . S
C2718 H2712 0.930 . S
C2718 C2719 1.367 . S
C2718 C2726 1.378 . S
C2719 C2718 1.367 . S
C2719 C2727 1.433 . S
C2720 H2716 0.929 . S
C2720 C2722 1.378 . S
C2720 C2724 1.350 . S
C2721 C2724 1.463 . S
C2721 C2726 1.350 . S
C2721 N2729 1.427 . S
C2722 H2713 0.930 . S
C2722 C2720 1.378 . S
C2722 C2723 1.367 . S
C2723 C2722 1.367 . S
C2723 C2725 1.433 . S
C2724 C2720 1.350 . S
C2724 C2721 1.463 . S
C2724 N2728 1.427 . S
C2725 H2715 0.929 . S
C2725 C2723 1.433 . S
C2725 N2728 1.384 . S
C2726 H2717 0.929 . S
C2726 C2718 1.378 . S
C2726 C2721 1.350 . S
C2727 H2714 0.929 . S
C2727 C2719 1.433 . S
C2727 N2729 1.384 . S
N2728 C2724 1.427 . S
N2728 C2725 1.384 . S
N2729 C2721 1.427 . S
N2729 C2727 1.384 . S
H2730 C2736 0.930 . S
H2731 C2740 0.930 . S
H2732 C2745 0.929 . S
H2733 C2743 0.929 . S
H2734 C2738 0.929 . S
H2735 C2744 0.929 . S
C2736 H2730 0.930 . S
C2736 C2737 1.367 . S
C2736 C2744 1.378 . S
C2737 C2736 1.367 . S
C2737 C2745 1.433 . S
C2738 H2734 0.929 . S
C2738 C2740 1.378 . S
C2738 C2742 1.350 . S
C2739 C2742 1.463 . S
C2739 C2744 1.350 . S
C2739 N2747 1.427 . S
C2740 H2731 0.930 . S
C2740 C2738 1.378 . S
C2740 C2741 1.367 . S
C2741 C2740 1.367 . S
C2741 C2743 1.433 . S
C2742 C2738 1.350 . S
C2742 C2739 1.463 . S
C2742 N2746 1.427 . S
C2743 H2733 0.929 . S
C2743 C2741 1.433 . S
C2743 N2746 1.384 . S
C2744 H2735 0.929 . S
C2744 C2736 1.378 . S
C2744 C2739 1.350 . S
C2745 H2732 0.929 . S
C2745 C2737 1.433 . S
C2745 N2747 1.384 . S
N2746 C2742 1.427 . S
N2746 C2743 1.384 . S
N2747 C2739 1.427 . S
N2747 C2745 1.384 . S
H2748 C2754 0.930 . S
H2749 C2758 0.930 . S
H2750 C2763 0.929 . S
H2751 C2761 0.929 . S
H2752 C2756 0.929 . S
H2753 C2762 0.929 . S
C2754 H2748 0.930 . S
C2754 C2755 1.367 . S
C2754 C2762 1.378 . S
C2755 C2754 1.367 . S
C2755 C2763 1.433 . S
C2756 H2752 0.929 . S
C2756 C2758 1.378 . S
C2756 C2760 1.350 . S
C2757 C2760 1.463 . S
C2757 C2762 1.350 . S
C2757 N2765 1.427 . S
C2758 H2749 0.930 . S
C2758 C2756 1.378 . S
C2758 C2759 1.367 . S
C2759 C2758 1.367 . S
C2759 C2761 1.433 . S
C2760 C2756 1.350 . S
C2760 C2757 1.463 . S
C2760 N2764 1.427 . S
C2761 H2751 0.929 . S
C2761 C2759 1.433 . S
C2761 N2764 1.384 . S
C2762 H2753 0.929 . S
C2762 C2754 1.378 . S
C2762 C2757 1.350 . S
C2763 H2750 0.929 . S
C2763 C2755 1.433 . S
C2763 N2765 1.384 . S
N2764 C2760 1.427 . S
N2764 C2761 1.384 . S
N2765 C2757 1.427 . S
N2765 C2763 1.384 . S
H2766 C2772 0.930 . S
H2767 C2776 0.930 . S
H2768 C2781 0.929 . S
H2769 C2779 0.929 . S
H2770 C2774 0.929 . S
H2771 C2780 0.929 . S
C2772 H2766 0.930 . S
C2772 C2773 1.367 . S
C2772 C2780 1.378 . S
C2773 C2772 1.367 . S
C2773 C2781 1.433 . S
C2774 H2770 0.929 . S
C2774 C2776 1.378 . S
C2774 C2778 1.350 . S
C2775 C2778 1.463 . S
C2775 C2780 1.350 . S
C2775 N2783 1.427 . S
C2776 H2767 0.930 . S
C2776 C2774 1.378 . S
C2776 C2777 1.367 . S
C2777 C2776 1.367 . S
C2777 C2779 1.433 . S
C2778 C2774 1.350 . S
C2778 C2775 1.463 . S
C2778 N2782 1.427 . S
C2779 H2769 0.929 . S
C2779 C2777 1.433 . S
C2779 N2782 1.384 . S
C2780 H2771 0.929 . S
C2780 C2772 1.378 . S
C2780 C2775 1.350 . S
C2781 H2768 0.929 . S
C2781 C2773 1.433 . S
C2781 N2783 1.384 . S
N2782 C2778 1.427 . S
N2782 C2779 1.384 . S
N2783 C2775 1.427 . S
N2783 C2781 1.384 . S
H2784 C2790 0.930 . S
H2785 C2794 0.930 . S
H2786 C2799 0.929 . S
H2787 C2797 0.929 . S
H2788 C2792 0.929 . S
H2789 C2798 0.929 . S
C2790 H2784 0.930 . S
C2790 C2791 1.367 . S
C2790 C2798 1.378 . S
C2791 C2790 1.367 . S
C2791 C2799 1.433 . S
C2792 H2788 0.929 . S
C2792 C2794 1.378 . S
C2792 C2796 1.350 . S
C2793 C2796 1.463 . S
C2793 C2798 1.350 . S
C2793 N2801 1.427 . S
C2794 H2785 0.930 . S
C2794 C2792 1.378 . S
C2794 C2795 1.367 . S
C2795 C2794 1.367 . S
C2795 C2797 1.433 . S
C2796 C2792 1.350 . S
C2796 C2793 1.463 . S
C2796 N2800 1.427 . S
C2797 H2787 0.929 . S
C2797 C2795 1.433 . S
C2797 N2800 1.384 . S
C2798 H2789 0.929 . S
C2798 C2790 1.378 . S
C2798 C2793 1.350 . S
C2799 H2786 0.929 . S
C2799 C2791 1.433 . S
C2799 N2801 1.384 . S
N2800 C2796 1.427 . S
N2800 C2797 1.384 . S
N2801 C2793 1.427 . S
N2801 C2799 1.384 . S
H2802 C2808 0.930 . S
H2803 C2812 0.930 . S
H2804 C2817 0.929 . S
H2805 C2815 0.929 . S
H2806 C2810 0.929 . S
H2807 C2816 0.929 . S
C2808 H2802 0.930 . S
C2808 C2809 1.367 . S
C2808 C2816 1.378 . S
C2809 C2808 1.367 . S
C2809 C2817 1.433 . S
C2810 H2806 0.929 . S
C2810 C2812 1.378 . S
C2810 C2814 1.350 . S
C2811 C2814 1.463 . S
C2811 C2816 1.350 . S
C2811 N2819 1.427 . S
C2812 H2803 0.930 . S
C2812 C2810 1.378 . S
C2812 C2813 1.367 . S
C2813 C2812 1.367 . S
C2813 C2815 1.433 . S
C2814 C2810 1.350 . S
C2814 C2811 1.463 . S
C2814 N2818 1.427 . S
C2815 H2805 0.929 . S
C2815 C2813 1.433 . S
C2815 N2818 1.384 . S
C2816 H2807 0.929 . S
C2816 C2808 1.378 . S
C2816 C2811 1.350 . S
C2817 H2804 0.929 . S
C2817 C2809 1.433 . S
C2817 N2819 1.384 . S
N2818 C2814 1.427 . S
N2818 C2815 1.384 . S
N2819 C2811 1.427 . S
N2819 C2817 1.384 . S
H2820 C2826 0.930 . S
H2821 C2830 0.930 . S
H2822 C2835 0.929 . S
H2823 C2833 0.929 . S
H2824 C2828 0.929 . S
H2825 C2834 0.929 . S
C2826 H2820 0.930 . S
C2826 C2827 1.367 . S
C2826 C2834 1.378 . S
C2827 C2826 1.367 . S
C2827 C2835 1.433 . S
C2828 H2824 0.929 . S
C2828 C2830 1.378 . S
C2828 C2832 1.350 . S
C2829 C2832 1.463 . S
C2829 C2834 1.350 . S
C2829 N2837 1.427 . S
C2830 H2821 0.930 . S
C2830 C2828 1.378 . S
C2830 C2831 1.367 . S
C2831 C2830 1.367 . S
C2831 C2833 1.433 . S
C2832 C2828 1.350 . S
C2832 C2829 1.463 . S
C2832 N2836 1.427 . S
C2833 H2823 0.929 . S
C2833 C2831 1.433 . S
C2833 N2836 1.384 . S
C2834 H2825 0.929 . S
C2834 C2826 1.378 . S
C2834 C2829 1.350 . S
C2835 H2822 0.929 . S
C2835 C2827 1.433 . S
C2835 N2837 1.384 . S
N2836 C2832 1.427 . S
N2836 C2833 1.384 . S
N2837 C2829 1.427 . S
N2837 C2835 1.384 . S
H2838 C2844 0.930 . S
H2839 C2848 0.930 . S
H2840 C2853 0.929 . S
H2841 C2851 0.929 . S
H2842 C2846 0.929 . S
H2843 C2852 0.929 . S
C2844 H2838 0.930 . S
C2844 C2845 1.367 . S
C2844 C2852 1.378 . S
C2845 C2844 1.367 . S
C2845 C2853 1.433 . S
C2846 H2842 0.929 . S
C2846 C2848 1.378 . S
C2846 C2850 1.350 . S
C2847 C2850 1.463 . S
C2847 C2852 1.350 . S
C2847 N2855 1.427 . S
C2848 H2839 0.930 . S
C2848 C2846 1.378 . S
C2848 C2849 1.367 . S
C2849 C2848 1.367 . S
C2849 C2851 1.433 . S
C2850 C2846 1.350 . S
C2850 C2847 1.463 . S
C2850 N2854 1.427 . S
C2851 H2841 0.929 . S
C2851 C2849 1.433 . S
C2851 N2854 1.384 . S
C2852 H2843 0.929 . S
C2852 C2844 1.378 . S
C2852 C2847 1.350 . S
C2853 H2840 0.929 . S
C2853 C2845 1.433 . S
C2853 N2855 1.384 . S
N2854 C2850 1.427 . S
N2854 C2851 1.384 . S
N2855 C2847 1.427 . S
N2855 C2853 1.384 . S
H2856 C2862 0.930 . S
H2857 C2866 0.930 . S
H2858 C2871 0.929 . S
H2859 C2869 0.929 . S
H2860 C2864 0.929 . S
H2861 C2870 0.929 . S
C2862 H2856 0.930 . S
C2862 C2863 1.367 . S
C2862 C2870 1.378 . S
C2863 C2862 1.367 . S
C2863 C2871 1.433 . S
C2864 H2860 0.929 . S
C2864 C2866 1.378 . S
C2864 C2868 1.350 . S
C2865 C2868 1.463 . S
C2865 C2870 1.350 . S
C2865 N2873 1.427 . S
C2866 H2857 0.930 . S
C2866 C2864 1.378 . S
C2866 C2867 1.367 . S
C2867 C2866 1.367 . S
C2867 C2869 1.433 . S
C2868 C2864 1.350 . S
C2868 C2865 1.463 . S
C2868 N2872 1.427 . S
C2869 H2859 0.929 . S
C2869 C2867 1.433 . S
C2869 N2872 1.384 . S
C2870 H2861 0.929 . S
C2870 C2862 1.378 . S
C2870 C2865 1.350 . S
C2871 H2858 0.929 . S
C2871 C2863 1.433 . S
C2871 N2873 1.384 . S
N2872 C2868 1.427 . S
N2872 C2869 1.384 . S
N2873 C2865 1.427 . S
N2873 C2871 1.384 . S
H2874 C2880 0.930 . S
H2875 C2884 0.930 . S
H2876 C2889 0.929 . S
H2877 C2887 0.929 . S
H2878 C2882 0.929 . S
H2879 C2888 0.929 . S
C2880 H2874 0.930 . S
C2880 C2881 1.367 . S
C2880 C2888 1.378 . S
C2881 C2880 1.367 . S
C2881 C2889 1.433 . S
C2882 H2878 0.929 . S
C2882 C2884 1.378 . S
C2882 C2886 1.350 . S
C2883 C2886 1.463 . S
C2883 C2888 1.350 . S
C2883 N2891 1.427 . S
C2884 H2875 0.930 . S
C2884 C2882 1.378 . S
C2884 C2885 1.367 . S
C2885 C2884 1.367 . S
C2885 C2887 1.433 . S
C2886 C2882 1.350 . S
C2886 C2883 1.463 . S
C2886 N2890 1.427 . S
C2887 H2877 0.929 . S
C2887 C2885 1.433 . S
C2887 N2890 1.384 . S
C2888 H2879 0.929 . S
C2888 C2880 1.378 . S
C2888 C2883 1.350 . S
C2889 H2876 0.929 . S
C2889 C2881 1.433 . S
C2889 N2891 1.384 . S
N2890 C2886 1.427 . S
N2890 C2887 1.384 . S
N2891 C2883 1.427 . S
N2891 C2889 1.384 . S
H2892 C2898 0.930 . S
H2893 C2902 0.930 . S
H2894 C2907 0.929 . S
H2895 C2905 0.929 . S
H2896 C2900 0.929 . S
H2897 C2906 0.929 . S
C2898 H2892 0.930 . S
C2898 C2899 1.367 . S
C2898 C2906 1.378 . S
C2899 C2898 1.367 . S
C2899 C2907 1.433 . S
C2900 H2896 0.929 . S
C2900 C2902 1.378 . S
C2900 C2904 1.350 . S
C2901 C2904 1.463 . S
C2901 C2906 1.350 . S
C2901 N2909 1.427 . S
C2902 H2893 0.930 . S
C2902 C2900 1.378 . S
C2902 C2903 1.367 . S
C2903 C2902 1.367 . S
C2903 C2905 1.433 . S
C2904 C2900 1.350 . S
C2904 C2901 1.463 . S
C2904 N2908 1.427 . S
C2905 H2895 0.929 . S
C2905 C2903 1.433 . S
C2905 N2908 1.384 . S
C2906 H2897 0.929 . S
C2906 C2898 1.378 . S
C2906 C2901 1.350 . S
C2907 H2894 0.929 . S
C2907 C2899 1.433 . S
C2907 N2909 1.384 . S
N2908 C2904 1.427 . S
N2908 C2905 1.384 . S
N2909 C2901 1.427 . S
N2909 C2907 1.384 . S
H2910 C2916 0.930 . S
H2911 C2920 0.930 . S
H2912 C2925 0.929 . S
H2913 C2923 0.929 . S
H2914 C2918 0.929 . S
H2915 C2924 0.929 . S
C2916 H2910 0.930 . S
C2916 C2917 1.367 . S
C2916 C2924 1.378 . S
C2917 C2916 1.367 . S
C2917 C2925 1.433 . S
C2918 H2914 0.929 . S
C2918 C2920 1.378 . S
C2918 C2922 1.350 . S
C2919 C2922 1.463 . S
C2919 C2924 1.350 . S
C2919 N2927 1.427 . S
C2920 H2911 0.930 . S
C2920 C2918 1.378 . S
C2920 C2921 1.367 . S
C2921 C2920 1.367 . S
C2921 C2923 1.433 . S
C2922 C2918 1.350 . S
C2922 C2919 1.463 . S
C2922 N2926 1.427 . S
C2923 H2913 0.929 . S
C2923 C2921 1.433 . S
C2923 N2926 1.384 . S
C2924 H2915 0.929 . S
C2924 C2916 1.378 . S
C2924 C2919 1.350 . S
C2925 H2912 0.929 . S
C2925 C2917 1.433 . S
C2925 N2927 1.384 . S
N2926 C2922 1.427 . S
N2926 C2923 1.384 . S
N2927 C2919 1.427 . S
N2927 C2925 1.384 . S
H2928 C2934 0.930 . S
H2929 C2938 0.930 . S
H2930 C2943 0.929 . S
H2931 C2941 0.929 . S
H2932 C2936 0.929 . S
H2933 C2942 0.929 . S
C2934 H2928 0.930 . S
C2934 C2935 1.367 . S
C2934 C2942 1.378 . S
C2935 C2934 1.367 . S
C2935 C2943 1.433 . S
C2936 H2932 0.929 . S
C2936 C2938 1.378 . S
C2936 C2940 1.350 . S
C2937 C2940 1.463 . S
C2937 C2942 1.350 . S
C2937 N2945 1.427 . S
C2938 H2929 0.930 . S
C2938 C2936 1.378 . S
C2938 C2939 1.367 . S
C2939 C2938 1.367 . S
C2939 C2941 1.433 . S
C2940 C2936 1.350 . S
C2940 C2937 1.463 . S
C2940 N2944 1.427 . S
C2941 H2931 0.929 . S
C2941 C2939 1.433 . S
C2941 N2944 1.384 . S
C2942 H2933 0.929 . S
C2942 C2934 1.378 . S
C2942 C2937 1.350 . S
C2943 H2930 0.929 . S
C2943 C2935 1.433 . S
C2943 N2945 1.384 . S
N2944 C2940 1.427 . S
N2944 C2941 1.384 . S
N2945 C2937 1.427 . S
N2945 C2943 1.384 . S
H2946 C2952 0.930 . S
H2947 C2956 0.930 . S
H2948 C2961 0.929 . S
H2949 C2959 0.929 . S
H2950 C2954 0.929 . S
H2951 C2960 0.929 . S
C2952 H2946 0.930 . S
C2952 C2953 1.367 . S
C2952 C2960 1.378 . S
C2953 C2952 1.367 . S
C2953 C2961 1.433 . S
C2954 H2950 0.929 . S
C2954 C2956 1.378 . S
C2954 C2958 1.350 . S
C2955 C2958 1.463 . S
C2955 C2960 1.350 . S
C2955 N2963 1.427 . S
C2956 H2947 0.930 . S
C2956 C2954 1.378 . S
C2956 C2957 1.367 . S
C2957 C2956 1.367 . S
C2957 C2959 1.433 . S
C2958 C2954 1.350 . S
C2958 C2955 1.463 . S
C2958 N2962 1.427 . S
C2959 H2949 0.929 . S
C2959 C2957 1.433 . S
C2959 N2962 1.384 . S
C2960 H2951 0.929 . S
C2960 C2952 1.378 . S
C2960 C2955 1.350 . S
C2961 H2948 0.929 . S
C2961 C2953 1.433 . S
C2961 N2963 1.384 . S
N2962 C2958 1.427 . S
N2962 C2959 1.384 . S
N2963 C2955 1.427 . S
N2963 C2961 1.384 . S
H2964 C2970 0.930 . S
H2965 C2974 0.930 . S
H2966 C2979 0.929 . S
H2967 C2977 0.929 . S
H2968 C2972 0.929 . S
H2969 C2978 0.929 . S
C2970 H2964 0.930 . S
C2970 C2971 1.367 . S
C2970 C2978 1.378 . S
C2971 C2970 1.367 . S
C2971 C2979 1.433 . S
C2972 H2968 0.929 . S
C2972 C2974 1.378 . S
C2972 C2976 1.350 . S
C2973 C2976 1.463 . S
C2973 C2978 1.350 . S
C2973 N2981 1.427 . S
C2974 H2965 0.930 . S
C2974 C2972 1.378 . S
C2974 C2975 1.367 . S
C2975 C2974 1.367 . S
C2975 C2977 1.433 . S
C2976 C2972 1.350 . S
C2976 C2973 1.463 . S
C2976 N2980 1.427 . S
C2977 H2967 0.929 . S
C2977 C2975 1.433 . S
C2977 N2980 1.384 . S
C2978 H2969 0.929 . S
C2978 C2970 1.378 . S
C2978 C2973 1.350 . S
C2979 H2966 0.929 . S
C2979 C2971 1.433 . S
C2979 N2981 1.384 . S
N2980 C2976 1.427 . S
N2980 C2977 1.384 . S
N2981 C2973 1.427 . S
N2981 C2979 1.384 . S
H2982 C2988 0.930 . S
H2983 C2992 0.930 . S
H2984 C2997 0.929 . S
H2985 C2995 0.929 . S
H2986 C2990 0.929 . S
H2987 C2996 0.929 . S
C2988 H2982 0.930 . S
C2988 C2989 1.367 . S
C2988 C2996 1.378 . S
C2989 C2988 1.367 . S
C2989 C2997 1.433 . S
C2990 H2986 0.929 . S
C2990 C2992 1.378 . S
C2990 C2994 1.350 . S
C2991 C2994 1.463 . S
C2991 C2996 1.350 . S
C2991 N2999 1.427 . S
C2992 H2983 0.930 . S
C2992 C2990 1.378 . S
C2992 C2993 1.367 . S
C2993 C2992 1.367 . S
C2993 C2995 1.433 . S
C2994 C2990 1.350 . S
C2994 C2991 1.463 . S
C2994 N2998 1.427 . S
C2995 H2985 0.929 . S
C2995 C2993 1.433 . S
C2995 N2998 1.384 . S
C2996 H2987 0.929 . S
C2996 C2988 1.378 . S
C2996 C2991 1.350 . S
C2997 H2984 0.929 . S
C2997 C2989 1.433 . S
C2997 N2999 1.384 . S
N2998 C2994 1.427 . S
N2998 C2995 1.384 . S
N2999 C2991 1.427 . S
N2999 C2997 1.384 . S
H3000 C3006 0.930 . S
H3001 C3010 0.930 . S
H3002 C3015 0.929 . S
H3003 C3013 0.929 . S
H3004 C3008 0.929 . S
H3005 C3014 0.929 . S
C3006 H3000 0.930 . S
C3006 C3007 1.367 . S
C3006 C3014 1.378 . S
C3007 C3006 1.367 . S
C3007 C3015 1.433 . S
C3008 H3004 0.929 . S
C3008 C3010 1.378 . S
C3008 C3012 1.350 . S
C3009 C3012 1.463 . S
C3009 C3014 1.350 . S
C3009 N3017 1.427 . S
C3010 H3001 0.930 . S
C3010 C3008 1.378 . S
C3010 C3011 1.367 . S
C3011 C3010 1.367 . S
C3011 C3013 1.433 . S
C3012 C3008 1.350 . S
C3012 C3009 1.463 . S
C3012 N3016 1.427 . S
C3013 H3003 0.929 . S
C3013 C3011 1.433 . S
C3013 N3016 1.384 . S
C3014 H3005 0.929 . S
C3014 C3006 1.378 . S
C3014 C3009 1.350 . S
C3015 H3002 0.929 . S
C3015 C3007 1.433 . S
C3015 N3017 1.384 . S
N3016 C3012 1.427 . S
N3016 C3013 1.384 . S
N3017 C3009 1.427 . S
N3017 C3015 1.384 . S
H3018 C3024 0.930 . S
H3019 C3028 0.930 . S
H3020 C3033 0.929 . S
H3021 C3031 0.929 . S
H3022 C3026 0.929 . S
H3023 C3032 0.929 . S
C3024 H3018 0.930 . S
C3024 C3025 1.367 . S
C3024 C3032 1.378 . S
C3025 C3024 1.367 . S
C3025 C3033 1.433 . S
C3026 H3022 0.929 . S
C3026 C3028 1.378 . S
C3026 C3030 1.350 . S
C3027 C3030 1.463 . S
C3027 C3032 1.350 . S
C3027 N3035 1.427 . S
C3028 H3019 0.930 . S
C3028 C3026 1.378 . S
C3028 C3029 1.367 . S
C3029 C3028 1.367 . S
C3029 C3031 1.433 . S
C3030 C3026 1.350 . S
C3030 C3027 1.463 . S
C3030 N3034 1.427 . S
C3031 H3021 0.929 . S
C3031 C3029 1.433 . S
C3031 N3034 1.384 . S
C3032 H3023 0.929 . S
C3032 C3024 1.378 . S
C3032 C3027 1.350 . S
C3033 H3020 0.929 . S
C3033 C3025 1.433 . S
C3033 N3035 1.384 . S
N3034 C3030 1.427 . S
N3034 C3031 1.384 . S
N3035 C3027 1.427 . S
N3035 C3033 1.384 . S
C1751 C1446 1.024 . S
C1747 C1400 1.010 . S
C1765 C1280 1.015 . S
C1769 C1444 1.024 . S
C1787 C1445 1.024 . S
C1783 C1220 1.026 . S
C1801 C1340 1.011 . S
C1805 C1447 1.024 . S
C1823 C1491 1.024 . S
C1819 C980 1.007 . S
C1841 C1551 1.024 . S
C1837 C1040 1.016 . S
C1855 C1100 1.014 . S
C1859 C1490 1.024 . S
C1877 C1550 1.024 . S
C1873 C1160 0.997 . S
C1891 C740 1.009 . S
C1895 C1492 1.032 . S
C1913 C1548 1.024 . S
C1909 C800 1.019 . S
C1927 C860 1.014 . S
C1931 C1493 1.024 . S
C1945 C920 1.017 . S
C1949 C1549 1.032 . S
C1967 C1599 1.024 1_556 S
C1963 C680 1.009 . S
C1981 C560 1.012 . S
C1985 C1598 1.024 1_556 S
C1999 C500 1.017 1_554 S
C2003 C1600 1.024 . S
C2021 C1601 1.024 . S
C2017 C620 1.017 1_554 S
C2035 C260 1.009 1_455 S
C2039 C1642 1.024 1_655 S
C2053 C320 1.012 1_545 S
C2057 C1701 1.024 1_565 S
C2071 C380 1.007 1_455 S
C2075 C1640 1.024 1_655 S
C2089 C440 1.006 . S
C2093 C1700 1.024 . S
C2111 C1641 1.024 1_655 S
C2107 C20 1.005 1_455 S
C2129 C1698 1.024 . S
C2125 C80 1.007 1_565 S
C2143 C140 1.015 . S
C2147 C1643 1.024 . S
C2165 C1699 1.024 1_565 S
C2161 C200 1.008 . S
C2183 C1443 1.955 1_655 S
C2179 C31 1.908 1_455 S
C2197 C61 1.700 1_565 S
C2201 C1449 1.958 . S
C2215 C121 1.701 . S
C2219 C1441 1.959 . S
C2233 C211 1.906 1_565 S
C2237 C1448 1.947 . S
C2251 C271 1.905 . S
C2255 C1440 1.954 . S
C2273 C1450 1.954 . S
C2269 C331 1.906 . S
C2287 C361 1.689 . S
C2291 C1442 1.949 . S
C2309 C1451 1.954 1_565 S
C2305 C421 1.701 1_545 S
C2327 C1497 1.954 . S
C2323 C181 1.693 1_565 S
C2341 C1 1.685 1_455 S
C2345 C1540 1.947 1_655 S
C2363 C1495 1.952 . S
C2359 C91 1.905 1_565 S
C2381 C1542 1.956 1_655 S
C2377 C151 1.910 1_455 S
C2395 C301 1.704 . S
C2399 C1496 1.959 . S
C2417 C1541 1.955 1_655 S
C2413 C391 1.916 1_455 S
C2435 C1494 1.955 1_565 S
C2431 C451 1.917 1_545 S
C2453 C1543 1.952 1_655 S
C2449 C241 1.693 1_455 S
C2471 C1547 1.952 1_556 S
C2467 C511 1.903 1_554 S
C2485 C571 1.907 1_556 S
C2489 C1546 1.948 . S
C2507 C1498 1.951 1_556 S
C2503 C481 1.681 1_554 S
C2525 C1545 1.952 . S
C2521 C601 1.695 . S
C2539 C691 1.909 1_556 S
C2543 C1501 1.955 . S
C2557 C661 1.697 1_556 S
C2561 C1544 1.957 . S
C2579 C1500 1.953 . S
C2575 C541 1.701 1_556 S
C2597 C1499 1.954 1_556 S
C2593 C631 1.907 1_554 S
C2615 C1593 1.955 . S
C2611 C751 1.919 . S
C2633 C1596 1.951 . S
C2629 C781 1.689 . S
C2647 C841 1.702 . S
C2651 C1592 1.960 . S
C2669 C1594 1.953 . S
C2665 C931 1.911 . S
C2687 C1590 1.951 . S
C2683 C991 1.900 . S
C2701 C1051 1.911 . S
C2705 C1595 1.950 . S
C2719 C1081 1.698 . S
C2723 C1591 1.950 . S
C2741 C1597 1.950 . S
C2737 C1141 1.679 . S
C2759 C1651 1.954 . S
C2755 C901 1.702 . S
C2773 C721 1.701 . S
C2777 C1690 1.960 . S
C2795 C1650 1.955 . S
C2791 C811 1.906 . S
C2813 C1692 1.951 . S
C2809 C871 1.900 . S
C2831 C1649 1.952 . S
C2827 C1021 1.690 . S
C2845 C1111 1.914 . S
C2849 C1691 1.960 . S
C2867 C1648 1.953 . S
C2863 C1171 1.907 . S
C2885 C1693 1.956 . S
C2881 C961 1.702 . S
C2903 C1697 1.956 . S
C2899 C1231 1.918 . S
C2917 C1291 1.906 . S
C2921 C1696 1.946 . S
C2939 C1644 1.951 . S
C2935 C1201 1.689 . S
C2953 C1321 1.690 . S
C2957 C1695 1.957 . S
C2975 C1647 1.951 . S
C2971 C1411 1.902 . S
C2993 C1694 1.954 . S
C2989 C1381 1.696 . S
C3011 C1645 1.955 . S
C3007 C1261 1.706 . S
C3025 C1351 1.914 . S
C3029 C1646 1.951 . S
