# Generated by pormake.
# Topology anh, (6,3)-cn, num edge types: 1
# Building blocks:
#     Node 0, Type 0, BuildingBlock: GEDQOX_clean_sbu_0, # of connection points: 6
#     Node 1, Type 0, BuildingBlock: GEDQOX_clean_sbu_0, # of connection points: 6
#     Node 2, Type 0, BuildingBlock: GEDQOX_clean_sbu_0, # of connection points: 6
#     Node 3, Type 1, BuildingBlock: BETDIP_clean_linker_0, # of connection points: 3
#     Node 4, Type 1, BuildingBlock: BETDIP_clean_linker_0, # of connection points: 3
#     Node 5, Type 1, BuildingBlock: BETDIP_clean_linker_0, # of connection points: 3
#     Node 6, Type 1, BuildingBlock: BETDIP_clean_linker_0, # of connection points: 3
#     Node 7, Type 1, BuildingBlock: BETDIP_clean_linker_0, # of connection points: 3
#     Node 8, Type 1, BuildingBlock: BETDIP_clean_linker_0, # of connection points: 3
#     Edge 9, Type (0, 1), BuildingBlock: EZIPEK_clean_linker_0, # of connection points: 2
#     Edge 10, Type (0, 1), BuildingBlock: EZIPEK_clean_linker_0, # of connection points: 2
#     Edge 11, Type (0, 1), BuildingBlock: EZIPEK_clean_linker_0, # of connection points: 2
#     Edge 12, Type (0, 1), BuildingBlock: EZIPEK_clean_linker_0, # of connection points: 2
#     Edge 13, Type (0, 1), BuildingBlock: EZIPEK_clean_linker_0, # of connection points: 2
#     Edge 14, Type (0, 1), BuildingBlock: EZIPEK_clean_linker_0, # of connection points: 2
#     Edge 15, Type (0, 1), BuildingBlock: EZIPEK_clean_linker_0, # of connection points: 2
#     Edge 16, Type (0, 1), BuildingBlock: EZIPEK_clean_linker_0, # of connection points: 2
#     Edge 17, Type (0, 1), BuildingBlock: EZIPEK_clean_linker_0, # of connection points: 2
#     Edge 18, Type (0, 1), BuildingBlock: EZIPEK_clean_linker_0, # of connection points: 2
#     Edge 19, Type (0, 1), BuildingBlock: EZIPEK_clean_linker_0, # of connection points: 2
#     Edge 20, Type (0, 1), BuildingBlock: EZIPEK_clean_linker_0, # of connection points: 2
#     Edge 21, Type (0, 1), BuildingBlock: EZIPEK_clean_linker_0, # of connection points: 2
#     Edge 22, Type (0, 1), BuildingBlock: EZIPEK_clean_linker_0, # of connection points: 2
#     Edge 23, Type (0, 1), BuildingBlock: EZIPEK_clean_linker_0, # of connection points: 2
#     Edge 24, Type (0, 1), BuildingBlock: EZIPEK_clean_linker_0, # of connection points: 2
#     Edge 25, Type (0, 1), BuildingBlock: EZIPEK_clean_linker_0, # of connection points: 2
#     Edge 26, Type (0, 1), BuildingBlock: EZIPEK_clean_linker_0, # of connection points: 2
# Relax obj value: 0.215
# Max RMSD: 0.210
# Mean RMSD: 0.134
data_MOF--net-anh--node1-GEDQOX_clean_sbu_0--node2-BETDIP_clean_linker_0--edge1-EZIPEK_clean_linker_0
_symmetry_space_group_name_H-M    P1
_symmetry_Int_Tables_number       1
_symmetry_cell_setting            triclinic
loop_
_symmetry_equiv_pos_as_xyz
'x, y, z'
_cell_length_a     22.103624
_cell_length_b     21.763636
_cell_length_c     36.742748
_cell_angle_alpha  95.262441
_cell_angle_beta   90.719757
_cell_angle_gamma 95.136048
loop_
_atom_site_label
_atom_site_type_symbol
_atom_site_fract_x
_atom_site_fract_y
_atom_site_fract_z
_atom_type_partial_charge
Nd0 Nd 0.16696 0.66619 0.14911 0.0
Nd1 Nd 0.14525 0.53141 0.12253 0.0
C2 C 0.20868 0.78305 0.16509 0.0
C3 C 0.26978 0.81672 0.16536 0.0
C4 C 0.28245 0.86424 0.14238 0.0
C5 C 0.33999 0.89712 0.14343 0.0
C6 C 0.38512 0.8832 0.16782 0.0
C7 C 0.37306 0.83472 0.18998 0.0
C8 C 0.31605 0.80175 0.18878 0.0
C9 C 0.13875 0.59027 0.20338 0.0
C10 C 0.28773 0.58784 0.12984 0.0
C11 C 1.13041 0.40878 0.1161 0.0
C12 C 1.07867 0.3648 0.12336 0.0
C13 C 1.0217 0.38643 0.13067 0.0
C14 C 0.97523 0.34764 0.14414 0.0
C15 C 0.98506 0.28666 0.15037 0.0
C16 C 1.04107 0.26403 0.14141 0.0
C17 C 1.08781 0.3031 0.12815 0.0
C18 C 0.14496 0.61168 0.068 0.0
C19 C 1.02685 0.60727 0.13555 0.0
O20 O 0.18418 0.76254 0.13316 0.0
O21 O 0.19989 0.74327 0.18949 0.0
O22 O 1.11609 0.64251 0.20079 0.0
O23 O 0.17409 0.57954 0.17745 0.0
O24 O 0.26679 0.64214 0.13948 0.0
O25 O 0.24973 0.53752 0.123 0.0
O26 O 0.15338 0.44189 0.14523 0.0
O27 O 1.12458 0.44182 0.0885 0.0
O28 O 1.10929 0.5609 0.06763 0.0
O29 O 0.18125 0.61561 0.09478 0.0
O30 O 1.04885 0.55385 0.13969 0.0
O31 O 1.06394 0.65801 0.13339 0.0
H32 H 0.24768 0.87636 0.12397 0.0
H33 H 0.34885 0.9344 0.12607 0.0
H34 H 0.40755 0.82326 0.20882 0.0
H35 H 0.30819 0.76508 0.20666 0.0
H36 H 1.01398 0.43405 0.12744 0.0
H37 H 0.9323 0.3658 0.15094 0.0
H38 H 1.04929 0.21704 0.1461 0.0
H39 H 0.13174 0.28595 0.12307 0.0
Nd40 Nd 0.56902 0.97991 0.49716 0.0
Nd41 Nd 0.71559 1.00588 0.49352 0.0
C42 C 0.45747 0.94964 0.51839 0.0
C43 C 0.41091 0.90007 0.50513 0.0
C44 C 0.36465 0.88006 0.52826 0.0
C45 C 0.32385 0.82879 0.51675 0.0
C46 C 0.32905 0.79731 0.48199 0.0
C47 C 0.37484 0.81796 0.45874 0.0
C48 C 0.41565 0.86886 0.47027 0.0
C49 C 0.60857 0.98317 0.42611 0.0
C50 C 0.65159 0.86139 0.4911 0.0
C51 C 0.82984 0.02196 0.47469 0.0
C52 C 0.87289 0.07752 0.47752 0.0
C53 C 0.85694 0.13227 0.49679 0.0
C54 C 0.89487 0.18707 0.4967 0.0
C55 C 0.949 0.18775 0.4772 0.0
C56 C 0.96576 0.13269 0.45871 0.0
C57 C 0.92776 0.07775 0.45883 0.0
C58 C 0.66701 0.02222 0.56179 0.0
C59 C 0.63344 0.12374 0.50032 0.0
O60 O 0.50569 0.9306 0.53322 0.0
O61 O 0.47068 0.99274 0.49635 0.0
O62 O 0.55137 0.97488 0.43378 0.0
O63 O 0.63839 0.98686 0.45535 0.0
O64 O 0.59663 0.88089 0.49218 0.0
O65 O 0.70236 0.89884 0.49031 0.0
O66 O 0.78426 0.0233 0.45163 0.0
O67 O 0.81322 1.00119 0.50582 0.0
O68 O 0.71508 0.05467 0.55151 0.0
O69 O 0.64878 0.98079 0.53676 0.0
O70 O 0.6854 0.10296 0.48943 0.0
O71 O 0.58577 0.08619 0.50842 0.0
H72 H 0.36097 0.90318 0.55543 0.0
H73 H 0.28896 0.81304 0.53507 0.0
H74 H 0.37967 0.79384 0.43194 0.0
H75 H 0.45173 0.88303 0.4523 0.0
H76 H 0.81439 0.13293 0.5111 0.0
H77 H 0.88124 0.2293 0.51092 0.0
H78 H 1.00733 0.13273 0.4434 0.0
H79 H 0.94037 0.03595 0.44362 0.0
Nd80 Nd 0.53842 0.47724 0.80976 0.0
Nd81 Nd 0.67084 0.48077 0.82119 0.0
C82 C 0.42438 0.47708 0.78857 0.0
C83 C 0.391 0.53268 0.78779 0.0
C84 C 0.33626 0.53662 0.80648 0.0
C85 C 0.31386 0.59434 0.81485 0.0
C86 C 0.34672 0.6485 0.80508 0.0
C87 C 0.3983 0.6439 0.78373 0.0
C88 C 0.42009 0.58653 0.77499 0.0
C89 C 0.57594 0.51105 0.88136 0.0
C90 C 0.61544 0.61093 0.81334 0.0
C91 C 0.78523 0.47695 0.84098 0.0
C92 C 0.84121 0.51504 0.83407 0.0
C93 C 0.88541 0.5282 0.86193 0.0
C94 C 0.93581 0.56975 0.85733 0.0
C95 C 0.94262 0.59847 0.82478 0.0
C96 C 0.89974 0.5836 0.79622 0.0
C97 C 0.84888 0.54237 0.80096 0.0
C98 C 0.63972 0.4933 0.74981 0.0
C99 C 0.59245 0.34446 0.8133 0.0
O100 O 0.46868 0.4727 0.76547 0.0
O101 O 0.43986 0.46395 0.82126 0.0
O102 O 0.53451 0.53662 0.86455 0.0
O103 O 0.59555 0.46793 0.86072 0.0
O104 O 0.56867 0.57673 0.79751 0.0
O105 O 0.65752 0.58497 0.83085 0.0
O106 O 0.75972 0.44329 0.81268 0.0
O107 O 0.74622 0.50458 0.86179 0.0
O108 O 0.68505 0.5248 0.76749 0.0
O109 O 0.61251 0.45572 0.76979 0.0
O110 O 0.64666 0.37539 0.81662 0.0
O111 O 0.54248 0.3731 0.81235 0.0
H112 H 0.31338 0.49593 0.8169 0.0
H113 H 0.27402 0.59732 0.83154 0.0
H114 H 0.42403 0.68524 0.77592 0.0
H115 H 0.46234 0.58539 0.76059 0.0
H116 H 0.87998 0.5078 0.88765 0.0
H117 H 0.96877 0.58093 0.87957 0.0
H118 H 0.90454 0.60558 0.771 0.0
H119 H 0.81486 0.53316 0.77919 0.0
H120 H 0.66224 0.03871 0.17317 0.0
H121 H 0.75031 0.0786 0.27928 0.0
H122 H 0.57765 0.97092 0.26816 0.0
H123 H 0.7873 0.16486 0.25299 0.0
C124 C 0.79513 0.14926 0.22467 0.0
C125 C 0.66348 0.03355 0.20223 0.0
C126 C 0.61474 1.00095 0.21816 0.0
C127 C 0.71234 0.06238 0.224 0.0
C128 C 0.71289 0.05703 0.26197 0.0
C129 C 0.6646 0.02329 0.2778 0.0
C130 C 0.61591 0.99528 0.25576 0.0
N131 N 0.75934 0.09739 0.20693 0.0
H132 H 0.63079 0.4321 0.48583 0.0
H133 H 0.64925 0.55661 0.58462 0.0
H134 H 0.64652 0.36153 0.59114 0.0
H135 H 0.5934 0.61247 0.54981 0.0
C136 C 0.6183 0.60955 0.52451 0.0
C137 C 0.6367 0.43993 0.51525 0.0
C138 C 0.63917 0.38909 0.53634 0.0
C139 C 0.64059 0.5009 0.53231 0.0
C140 C 0.64613 0.51039 0.57071 0.0
C141 C 0.64701 0.4601 0.59178 0.0
C142 C 0.64544 0.40016 0.57452 0.0
N143 N 0.63918 0.55203 0.51071 0.0
H144 H 0.17421 0.82845 0.85078 0.0
H145 H 0.24745 0.8186 0.95911 0.0
H146 H 1.11351 0.67694 0.91227 0.0
H147 H 0.31321 0.93327 0.8636 0.0
C148 C 0.29402 0.88816 0.87029 0.0
C149 C 0.17704 0.80442 0.8752 0.0
C150 C 0.13986 0.74975 0.87819 0.0
C151 C 0.21636 0.82916 0.90429 0.0
C152 C 0.21792 0.79905 0.93641 0.0
C153 C 0.18151 0.74334 0.93897 0.0
C154 C 0.14308 0.71886 0.90976 0.0
N155 N 0.25548 0.88355 0.90079 0.0
H156 H 0.16492 0.52748 0.45854 0.0
H157 H 1.11178 0.44282 0.35077 0.0
H158 H 0.19952 0.62808 0.36488 0.0
H159 H 1.12303 0.44213 0.47886 0.0
C160 C 1.09864 0.4129 0.45701 0.0
C161 C 0.16165 0.52903 0.42928 0.0
C162 C 0.18622 0.5825 0.41414 0.0
C163 C 0.1342 0.47847 0.40633 0.0
C164 C 0.13227 0.48195 0.36847 0.0
C165 C 0.15454 0.53612 0.35338 0.0
C166 C 0.18133 0.58632 0.37642 0.0
N167 N 1.10627 0.424 0.41979 0.0
H168 H 0.59578 0.03406 0.82091 0.0
H169 H 0.63749 0.92652 0.72119 0.0
H170 H 0.62404 0.1211 0.72094 0.0
H171 H 0.5818 0.85175 0.74723 0.0
C172 C 0.59934 0.85845 0.77517 0.0
C173 C 0.60647 0.03114 0.79214 0.0
C174 C 0.6098 0.08497 0.77331 0.0
C175 C 0.61595 0.97333 0.77358 0.0
C176 C 0.62886 0.97001 0.73606 0.0
C177 C 0.63088 0.02299 0.71718 0.0
C178 C 0.62233 0.08022 0.73586 0.0
N179 N 0.61275 0.91925 0.79289 0.0
H180 H 0.59936 0.5882 0.14488 0.0
H181 H 0.69979 0.56619 0.04491 0.0
H182 H 0.5068 0.56412 0.03964 0.0
H183 H 0.76465 0.52594 0.08239 0.0
C184 C 0.76784 0.56076 0.10564 0.0
C185 C 0.60048 0.58205 0.11532 0.0
C186 C 0.54519 0.57678 0.09449 0.0
C187 C 0.65726 0.57837 0.09779 0.0
C188 C 0.65758 0.5685 0.05932 0.0
C189 C 0.60337 0.56214 0.03875 0.0
C190 C 0.5482 0.56803 0.05619 0.0
N191 N 0.71343 0.58605 0.11861 0.0
C192 C 0.37576 0.53718 0.09843 0.0
C193 C 0.35531 0.5834 0.12428 0.0
C194 C 0.46265 0.62647 0.13338 0.0
C195 C 0.48243 0.57581 0.11073 0.0
N196 N 0.4561 0.47142 0.08372 0.0
N197 N 0.38534 0.66007 0.17491 0.0
C198 C 0.43831 0.52709 0.09772 0.0
C199 C 0.40052 0.62459 0.14442 0.0
N200 N 0.33735 0.50634 0.0721 0.0
N201 N 0.50177 0.67754 0.14324 0.0
H202 H 0.34224 0.65608 0.18604 0.0
H203 H 0.41752 0.6873 0.19175 0.0
H204 H 0.54675 0.68174 0.13505 0.0
H205 H 0.48773 0.71778 0.1569 0.0
H206 H 0.35227 0.4754 0.05148 0.0
H207 H 0.29371 0.5184 0.06717 0.0
H208 H 0.42511 0.43327 0.07607 0.0
H209 H 0.50158 0.46184 0.08376 0.0
C210 C 0.96587 0.28957 0.45059 0.0
C211 C 0.9861 0.24713 0.47411 0.0
C212 C 1.08004 0.31451 0.48791 0.0
C213 C 1.05837 0.35817 0.46565 0.0
N214 N 0.97377 0.39539 0.43479 0.0
N215 N 1.05584 0.224 0.52082 0.0
C216 C 0.99921 0.34809 0.44958 0.0
C217 C 1.04123 0.26112 0.49458 0.0
N218 N 0.91584 0.27329 0.42834 0.0
N219 N 0.13852 0.32244 0.50123 0.0
H220 H 1.02865 0.18424 0.52613 0.0
H221 H 1.09206 0.23528 0.53934 0.0
H222 H 0.16835 0.36096 0.49714 0.0
H223 H 0.15903 0.28871 0.51407 0.0
H224 H 0.90316 0.29968 0.40773 0.0
H225 H 0.88984 0.23083 0.42826 0.0
H226 H 0.92861 0.39242 0.42583 0.0
H227 H 0.99562 0.43997 0.43525 0.0
C228 C 0.66832 0.71 0.79338 0.0
C229 C 0.61901 0.67949 0.81124 0.0
C230 C 0.56773 0.776 0.81584 0.0
C231 C 0.61172 0.80216 0.79284 0.0
N232 N 0.7038 0.79612 0.75909 0.0
N233 N 0.5218 0.68405 0.84035 0.0
C234 C 0.66245 0.77005 0.78187 0.0
C235 C 0.56905 0.71298 0.82308 0.0
N236 N 0.72047 0.68175 0.78702 0.0
N237 N 0.52447 0.81152 0.83055 0.0
H238 H 0.52233 0.63975 0.84853 0.0
H239 H 0.48077 0.7028 0.84526 0.0
H240 H 0.52185 0.8574 0.82506 0.0
H241 H 0.49443 0.79782 0.85048 0.0
H242 H 0.76015 0.70422 0.77783 0.0
H243 H 0.72644 0.63726 0.79365 0.0
H244 H 0.7373 0.77232 0.74589 0.0
H245 H 0.70271 0.84127 0.75185 0.0
C246 C 0.93393 0.61731 0.09581 0.0
C247 C 0.95918 0.6083 0.13053 0.0
C248 C 0.85602 0.5785 0.15195 0.0
C249 C 0.83109 0.58732 0.11721 0.0
N250 N 0.84403 0.63113 0.05979 0.0
N251 N 0.94271 0.59757 0.19425 0.0
C252 C 0.8695 0.61194 0.09039 0.0
C253 C 0.9196 0.59417 0.15943 0.0
N254 N 0.97137 0.62772 0.0673 0.0
N255 N 0.8196 0.55249 0.17723 0.0
H256 H 0.98827 0.61186 0.20049 0.0
H257 H 0.91603 0.59277 0.21714 0.0
H258 H 0.77292 0.54214 0.17299 0.0
H259 H 0.83613 0.53793 0.20136 0.0
H260 H 0.95605 0.62671 0.04032 0.0
H261 H 1.01844 0.63321 0.0701 0.0
H262 H 0.86871 0.65508 0.04076 0.0
H263 H 0.79712 0.62882 0.05542 0.0
C264 C 0.22837 0.74562 0.45771 0.0
C265 C 0.28866 0.7407 0.47007 0.0
C266 C 0.27995 0.63017 0.44888 0.0
C267 C 0.21917 0.63472 0.43724 0.0
N268 N 1.13093 0.69208 0.43764 0.0
N269 N 0.36686 0.67669 0.48568 0.0
C270 C 0.19187 0.69107 0.44404 0.0
C271 C 0.31278 0.68229 0.46835 0.0
N272 N 0.20704 0.80263 0.45741 0.0
N273 N 0.30737 0.57718 0.43968 0.0
H274 H 0.39204 0.71405 0.50024 0.0
H275 H 0.38398 0.6343 0.48851 0.0
H276 H 0.28484 0.53767 0.42569 0.0
H277 H 0.35366 0.57377 0.44351 0.0
H278 H 0.16617 0.80993 0.44483 0.0
H279 H 0.2322 0.84357 0.46758 0.0
H280 H 1.10704 0.73017 0.44526 0.0
H281 H 1.1031 0.65273 0.42762 0.0
C282 C 0.62685 0.24285 0.82953 0.0
C283 C 0.58861 0.2754 0.80821 0.0
C284 C 0.54886 0.17634 0.77582 0.0
C285 C 0.59652 0.14675 0.79097 0.0
N286 N 0.68537 0.15415 0.83066 0.0
N287 N 0.52086 0.272 0.75533 0.0
C288 C 0.63644 0.18032 0.8178 0.0
C289 C 0.55079 0.24189 0.78013 0.0
N290 N 0.65307 0.27116 0.86131 0.0
N291 N 0.50243 0.14174 0.7566 0.0
H292 H 0.52495 0.31989 0.75469 0.0
H293 H 0.49763 0.24887 0.73249 0.0
H294 H 0.49955 0.09338 0.75343 0.0
H295 H 0.46397 0.1607 0.74745 0.0
H296 H 0.67728 0.24785 0.87937 0.0
H297 H 0.64471 0.31586 0.87156 0.0
H298 H 0.71945 0.17916 0.84715 0.0
H299 H 0.69447 0.10881 0.82259 0.0
C300 C 0.68319 0.77558 0.52656 0.0
C301 C 0.6555 0.7944 0.49475 0.0
C302 C 0.61175 0.6874 0.47822 0.0
C303 C 0.63945 0.66909 0.50999 0.0
N304 N 0.71488 0.69052 0.55826 0.0
N305 N 0.60523 0.76678 0.43626 0.0
C306 C 0.67978 0.71159 0.53202 0.0
C307 C 0.62368 0.74962 0.46919 0.0
N308 N 0.70855 0.81884 0.55305 0.0
N309 N 0.57171 0.64624 0.4578 0.0
H310 H 0.61356 0.81193 0.42898 0.0
H311 H 0.58656 0.73555 0.41506 0.0
H312 H 0.56366 0.59995 0.46308 0.0
H313 H 0.54422 0.65852 0.43693 0.0
H314 H 0.72254 0.80795 0.57867 0.0
H315 H 0.71113 0.86638 0.55094 0.0
H316 H 0.74945 0.71816 0.57295 0.0
H317 H 0.71366 0.6437 0.56256 0.0
C318 C 0.9845 0.70819 0.83641 0.0
C319 C 0.99337 0.64688 0.82261 0.0
C320 C 1.10331 0.67061 0.82805 0.0
C321 C 1.09342 0.72544 0.85003 0.0
N322 N 1.02673 0.80139 0.87249 0.0
N323 N 1.05941 0.57095 0.79982 0.0
C324 C 1.03475 0.74678 0.85242 0.0
C325 C 1.05249 0.629 0.81582 0.0
N326 N 0.92774 0.72826 0.83525 0.0
N327 N 0.16139 0.65809 0.82018 0.0
H328 H 1.02244 0.54093 0.78945 0.0
H329 H 1.10094 0.55206 0.79752 0.0
H330 H 0.19872 0.68848 0.82951 0.0
H331 H 0.17233 0.621 0.80233 0.0
H332 H 0.91873 0.77391 0.84229 0.0
H333 H 0.89019 0.70014 0.82406 0.0
H334 H 0.98442 0.81598 0.87931 0.0
H335 H 1.06296 0.83154 0.8836 0.0
C336 C 0.4485 0.97968 0.19267 0.0
C337 C 0.44451 0.92076 0.1723 0.0
C338 C 0.55512 0.9194 0.17587 0.0
C339 C 0.55879 0.97771 0.19677 0.0
N340 N 0.51286 0.07124 0.216 0.0
N341 N 0.49331 0.84224 0.13622 0.0
C342 C 0.50661 1.01058 0.20194 0.0
C343 C 0.49784 0.89329 0.16103 0.0
N344 N 0.39706 1.00423 0.20532 0.0
N345 N 0.60564 0.88772 0.17185 0.0
H346 H 0.4517 0.82245 0.12495 0.0
H347 H 0.5307 0.82295 0.12445 0.0
H348 H 0.64855 0.9063 0.18164 0.0
H349 H 0.60454 0.84191 0.16067 0.0
H350 H 0.39767 0.04316 0.22408 0.0
H351 H 0.35341 0.98337 0.19914 0.0
H352 H 0.4772 0.09951 0.21727 0.0
H353 H 0.55506 0.09501 0.22316 0.0
C354 C 0.66341 0.23304 0.48325 0.0
C355 C 0.62977 0.1925 0.5056 0.0
C356 C 0.58611 0.28276 0.53563 0.0
C357 C 0.63043 0.32315 0.5202 0.0
N358 N 0.71863 0.33395 0.48213 0.0
N359 N 0.57299 0.18549 0.5615 0.0
C360 C 0.67104 0.29775 0.4945 0.0
C361 C 0.59412 0.2189 0.5339 0.0
N362 N 0.68646 0.21073 0.45088 0.0
N363 N 0.5376 0.30557 0.55312 0.0
H364 H 0.58682 0.14216 0.56545 0.0
H365 H 0.55004 0.20499 0.5837 0.0
H366 H 0.52975 0.3523 0.5541 0.0
H367 H 0.50234 0.27683 0.56288 0.0
H368 H 0.70745 0.23959 0.43274 0.0
H369 H 0.67781 0.16477 0.44005 0.0
H370 H 0.75264 0.31564 0.46621 0.0
H371 H 0.72722 0.38099 0.49045 0.0
C372 C 0.30736 0.75202 0.79893 0.0
C373 C 0.33308 0.71056 0.82115 0.0
C374 C 0.34682 0.79211 0.87182 0.0
C375 C 0.315 0.83105 0.85117 0.0
N376 N 0.26325 0.8499 0.79587 0.0
N377 N 0.37311 0.68872 0.87975 0.0
C378 C 0.2955 0.81188 0.81469 0.0
C379 C 0.35151 0.72989 0.85792 0.0
N380 N 0.29415 0.73389 0.76287 0.0
N381 N 0.37454 0.81569 0.90425 0.0
H382 H 0.382 0.64391 0.87025 0.0
H383 H 0.37921 0.69778 0.90794 0.0
H384 H 0.37314 0.86176 0.91469 0.0
H385 H 0.40381 0.79182 0.91896 0.0
H386 H 0.28171 0.76373 0.7441 0.0
H387 H 0.29837 0.68905 0.75112 0.0
H388 H 0.24129 0.83637 0.77084 0.0
H389 H 0.25587 0.89479 0.8063 0.0
C390 C 0.88235 0.22715 0.14981 0.0
C391 C 0.93775 0.24826 0.16862 0.0
C392 C 0.902 0.19787 0.22235 0.0
C393 C 0.84418 0.1828 0.20499 0.0
N394 N 0.77522 0.197 0.15544 0.0
N395 N 0.99624 0.2641 0.22522 0.0
C396 C 0.83315 0.20087 0.16948 0.0
C397 C 0.94657 0.23645 0.20559 0.0
N398 N 0.87695 0.23153 0.11307 0.0
N399 N 0.91519 0.17372 0.25429 0.0
H400 H 1.02979 0.29322 0.21416 0.0
H401 H 1.00141 0.26268 0.25334 0.0
H402 H 0.88418 0.14455 0.26731 0.0
H403 H 0.95867 0.17782 0.26605 0.0
H404 H 0.83973 0.21113 0.0973 0.0
H405 H 0.91221 0.25047 0.09777 0.0
H406 H 0.76421 0.21511 0.13118 0.0
H407 H 0.73719 0.18234 0.16991 0.0
C408 C 0.19236 0.62223 0.00655 0.0
C409 C 0.15674 0.6467 0.03543 0.0
C410 C 0.13921 0.73531 0.0011 0.0
C411 C 0.17766 0.71297 0.97342 0.0
N412 N 0.24823 0.64089 0.95136 0.0
N413 N 1.10839 0.73378 0.0635 0.0
C414 C 0.20656 0.65804 0.97664 0.0
C415 C 0.13385 0.70539 0.03368 0.0
N416 N 0.2118 0.56448 0.00747 0.0
N417 N 1.10571 0.78377 -0.00426 0.0
H418 H 1.10413 0.71367 0.0878 0.0
H419 H 1.0974 0.77951 0.06532 0.0
H420 H 1.1091 0.80822 0.97263 0.0
H421 H 1.07085 0.79663 0.01285 0.0
H422 H 0.23239 0.54121 -0.01436 0.0
H423 H 0.20394 0.5378 0.02938 0.0
H424 H 0.27544 0.60481 0.95379 0.0
H425 H 0.25913 0.66615 0.92914 0.0
C426 C 0.67249 0.96197 0.37102 0.0
C427 C 0.63237 0.99977 0.39051 0.0
C428 C 0.62286 0.06029 0.33804 0.0
C429 C 0.66103 0.02106 0.31798 0.0
N430 N 0.73208 0.94331 0.31654 0.0
N431 N 0.58302 0.09441 0.39694 0.0
C432 C 0.68939 0.97488 0.33501 0.0
C433 C 0.61167 0.05189 0.3753 0.0
N434 N 0.69181 0.91195 0.38626 0.0
N435 N 0.59578 0.10434 0.32101 0.0
H436 H 0.57523 0.09036 0.42459 0.0
H437 H 0.57221 0.13665 0.38868 0.0
H438 H 0.60594 0.11458 0.29445 0.0
H439 H 0.56119 0.12877 0.33242 0.0
H440 H 0.7153 0.87818 0.3722 0.0
H441 H 0.68176 0.90231 0.4129 0.0
H442 H 0.7588 0.91313 0.3283 0.0
H443 H 0.74412 0.95072 0.28983 0.0
C444 C 0.59193 0.50066 0.68801 0.0
C445 C 0.63997 0.48255 0.70936 0.0
C446 C 0.69587 0.45684 0.65359 0.0
C447 C 0.64531 0.46936 0.63228 0.0
N448 N 0.53996 0.49033 0.62913 0.0
N449 N 0.73182 0.43062 0.71219 0.0
C450 C 0.59174 0.48759 0.64946 0.0
C451 C 0.69037 0.45695 0.69207 0.0
N452 N 0.54765 0.53253 0.70435 0.0
N453 N 0.74966 0.4465 0.63719 0.0
H454 H 0.72824 0.42777 0.74025 0.0
H455 H 0.76611 0.40595 0.70054 0.0
H456 H 0.75547 0.44658 0.60906 0.0
H457 H 0.78987 0.44356 0.65176 0.0
H458 H 0.51511 0.55284 0.68989 0.0
H459 H 0.54699 0.5435 0.73243 0.0
H460 H 0.49797 0.49687 0.64071 0.0
H461 H 0.5375 0.4803 0.60082 0.0
C462 C 0.59699 0.02261 0.61546 0.0
C463 C 0.6555 1.01569 0.60101 0.0
C464 C 0.69773 1.01264 0.66275 0.0
C465 C 0.63914 1.0182 0.67711 0.0
N466 N 0.5308 1.01524 0.66738 0.0
N467 N 0.75622 0.98387 0.60971 0.0
C468 C 0.588 1.01913 0.65349 0.0
C469 C 0.70443 1.00482 0.62431 0.0
N470 N 0.5505 0.03444 0.5931 0.0
N471 N 0.74724 1.0165 0.68579 0.0
H472 H 0.76152 0.97385 0.58169 0.0
H473 H 0.79096 0.96953 0.62541 0.0
H474 H 0.74406 0.0214 0.7142 0.0
H475 H 0.79179 1.01986 0.67674 0.0
H476 H 0.50893 0.04765 0.60252 0.0
H477 H 0.55487 0.03484 0.56499 0.0
H478 H 0.49132 1.00903 0.65121 0.0
H479 H 0.52254 1.013 0.69514 0.0
C480 C 0.58583 0.4739 0.94441 0.0
C481 C 0.58844 0.52344 0.92154 0.0
C482 C 0.60198 0.59863 0.97601 0.0
C483 C 0.60343 0.54915 -0.00168 0.0
N484 N 0.60787 0.44023 0.00394 0.0
N485 N 0.61011 0.63295 0.91552 0.0
C486 C 0.59933 0.48696 0.98249 0.0
C487 C 0.59959 0.5858 0.93736 0.0
N488 N 0.56588 0.415 0.93054 0.0
N489 N 0.60142 0.65799 -0.0082 0.0
H490 H 0.60873 0.62607 0.88725 0.0
H491 H 0.62554 0.67814 0.92528 0.0
H492 H 0.60643 0.6697 0.01994 0.0
H493 H 0.59201 0.69514 0.97737 0.0
H494 H 0.55693 0.37852 0.94671 0.0
H495 H 0.55184 0.40331 0.90344 0.0
H496 H 0.61238 0.39481 -0.00659 0.0
H497 H 0.61562 0.44777 0.03212 0.0
C498 C 0.20173 0.57463 0.25885 0.0
C499 C 0.14513 0.56613 0.23944 0.0
C500 C 1.09397 0.53624 0.29455 0.0
C501 C 0.15105 0.54069 0.31328 0.0
N502 N 0.26029 0.54523 0.30946 0.0
N503 N 1.04173 0.5205 0.2357 0.0
C504 C 0.20534 0.5536 0.29413 0.0
C505 C 1.09258 0.54094 0.25631 0.0
N506 N 0.25116 0.60613 0.24496 0.0
N507 N 1.04106 0.53121 0.31333 0.0
H508 H 1.04067 0.52078 0.20733 0.0
H509 H 1.00359 0.49703 0.24617 0.0
H510 H 1.0397 0.53041 0.34162 0.0
H511 H 0.99866 0.53399 0.30117 0.0
H512 H 0.29134 0.61883 0.25999 0.0
H513 H 0.25046 0.62516 0.22001 0.0
H514 H 0.30076 0.54876 0.29522 0.0
H515 H 0.2645 0.52822 0.33493 0.0
loop_
_geom_bond_atom_site_label_1
_geom_bond_atom_site_label_2
_geom_bond_distance
_geom_bond_site_symmetry_2
_ccdc_geom_bond_type
Nd0 C2 2.836 . S
Nd0 O20 2.500 . S
Nd0 O21 2.492 . S
Nd0 O22 2.487 . S
Nd0 O23 2.682 . S
Nd0 O24 2.410 . S
Nd0 O29 2.414 . S
Nd0 O31 2.424 1_455 S
Nd1 C11 2.836 1_455 S
Nd1 O23 2.414 . S
Nd1 O25 2.424 . S
Nd1 O26 2.500 1_455 S
Nd1 O27 2.492 1_455 S
Nd1 O28 2.487 . S
Nd1 O29 2.682 . S
Nd1 O30 2.410 1_455 S
C2 Nd0 2.836 . S
C2 C3 1.498 . S
C2 O20 1.258 . S
C2 O21 1.239 . S
C3 C2 1.498 . S
C3 C4 1.366 . S
C3 C8 1.407 . S
C4 C3 1.366 . S
C4 C5 1.392 . S
C4 H32 0.930 . S
C5 C4 1.392 . S
C5 C6 1.398 . S
C5 H33 0.929 . S
C6 C5 1.398 . S
C6 C7 1.352 . S
C7 C6 1.352 . S
C7 C8 1.384 . S
C7 H34 0.930 . S
C8 C3 1.407 . S
C8 C7 1.384 . S
C8 H35 0.929 . S
C9 O22 1.241 . S
C9 O23 1.273 . S
C10 O24 1.251 . S
C10 O25 1.268 . S
C11 Nd1 2.836 1_655 S
C11 C12 1.498 . S
C11 O26 1.258 . S
C11 O27 1.239 . S
C12 C11 1.498 . S
C12 C13 1.366 . S
C12 C17 1.407 . S
C13 C12 1.366 . S
C13 C14 1.392 . S
C13 H36 0.930 . S
C14 C13 1.392 . S
C14 C15 1.398 . S
C14 H37 0.929 . S
C15 C14 1.398 . S
C15 C16 1.352 . S
C16 C15 1.352 . S
C16 C17 1.384 . S
C16 H38 0.930 . S
C17 C12 1.407 . S
C17 C16 1.384 . S
C17 H39 0.929 . S
C18 O28 1.241 . S
C18 O29 1.273 . S
C19 O30 1.251 . S
C19 O31 1.268 . S
O20 Nd0 2.500 . S
O20 C2 1.258 . S
O21 Nd0 2.492 . S
O21 C2 1.239 . S
O22 Nd0 2.487 . S
O22 C9 1.241 . S
O23 Nd0 2.682 . S
O23 Nd1 2.414 . S
O23 C9 1.273 . S
O24 Nd0 2.410 . S
O24 C10 1.251 . S
O25 Nd1 2.424 . S
O25 C10 1.268 . S
O26 Nd1 2.500 1_655 S
O26 C11 1.258 . S
O27 Nd1 2.492 1_655 S
O27 C11 1.239 . S
O28 Nd1 2.487 . S
O28 C18 1.241 . S
O29 Nd0 2.414 . S
O29 Nd1 2.682 . S
O29 C18 1.273 . S
O30 Nd1 2.410 1_655 S
O30 C19 1.251 . S
O31 Nd0 2.424 1_655 S
O31 C19 1.268 . S
H32 C4 0.930 . S
H33 C5 0.929 . S
H34 C7 0.930 . S
H35 C8 0.929 . S
H36 C13 0.930 . S
H37 C14 0.929 . S
H38 C16 0.930 . S
H39 C17 0.929 . S
Nd40 C42 2.836 1_545 S
Nd40 O60 2.500 1_545 S
Nd40 O61 2.492 1_545 S
Nd40 O62 2.487 . S
Nd40 O63 2.682 . S
Nd40 O64 2.410 1_545 S
Nd40 O69 2.414 . S
Nd40 O71 2.424 . S
Nd41 C51 2.836 . S
Nd41 O63 2.414 . S
Nd41 O65 2.424 1_545 S
Nd41 O66 2.500 . S
Nd41 O67 2.492 . S
Nd41 O68 2.487 . S
Nd41 O69 2.682 . S
Nd41 O70 2.410 . S
C42 Nd40 2.836 1_565 S
C42 C43 1.498 . S
C42 O60 1.258 . S
C42 O61 1.239 . S
C43 C42 1.498 . S
C43 C44 1.366 . S
C43 C48 1.407 . S
C44 C43 1.366 . S
C44 C45 1.392 . S
C44 H72 0.930 . S
C45 C44 1.392 . S
C45 C46 1.398 . S
C45 H73 0.929 . S
C46 C45 1.398 . S
C46 C47 1.352 . S
C47 C46 1.352 . S
C47 C48 1.384 . S
C47 H74 0.930 . S
C48 C43 1.407 . S
C48 C47 1.384 . S
C48 H75 0.929 . S
C49 O62 1.241 . S
C49 O63 1.273 . S
C50 O64 1.251 . S
C50 O65 1.268 . S
C51 Nd41 2.836 . S
C51 C52 1.498 . S
C51 O66 1.258 . S
C51 O67 1.239 . S
C52 C51 1.498 . S
C52 C53 1.366 . S
C52 C57 1.407 . S
C53 C52 1.366 . S
C53 C54 1.392 . S
C53 H76 0.930 . S
C54 C53 1.392 . S
C54 C55 1.398 . S
C54 H77 0.929 . S
C55 C54 1.398 . S
C55 C56 1.352 . S
C56 C55 1.352 . S
C56 C57 1.384 . S
C56 H78 0.930 . S
C57 C52 1.407 . S
C57 C56 1.384 . S
C57 H79 0.929 . S
C58 O68 1.241 . S
C58 O69 1.273 . S
C59 O70 1.251 . S
C59 O71 1.268 . S
O60 Nd40 2.500 1_565 S
O60 C42 1.258 . S
O61 Nd40 2.492 1_565 S
O61 C42 1.239 . S
O62 Nd40 2.487 . S
O62 C49 1.241 . S
O63 Nd40 2.682 . S
O63 Nd41 2.414 . S
O63 C49 1.273 . S
O64 Nd40 2.410 1_565 S
O64 C50 1.251 . S
O65 Nd41 2.424 1_565 S
O65 C50 1.268 . S
O66 Nd41 2.500 . S
O66 C51 1.258 . S
O67 Nd41 2.492 . S
O67 C51 1.239 . S
O68 Nd41 2.487 . S
O68 C58 1.241 . S
O69 Nd40 2.414 . S
O69 Nd41 2.682 . S
O69 C58 1.273 . S
O70 Nd41 2.410 . S
O70 C59 1.251 . S
O71 Nd40 2.424 . S
O71 C59 1.268 . S
H72 C44 0.930 . S
H73 C45 0.929 . S
H74 C47 0.930 . S
H75 C48 0.929 . S
H76 C53 0.930 . S
H77 C54 0.929 . S
H78 C56 0.930 . S
H79 C57 0.929 . S
Nd80 C82 2.836 . S
Nd80 O100 2.500 . S
Nd80 O101 2.492 . S
Nd80 O102 2.487 . S
Nd80 O103 2.682 . S
Nd80 O104 2.410 . S
Nd80 O109 2.414 . S
Nd80 O111 2.424 . S
Nd81 C91 2.836 . S
Nd81 O103 2.414 . S
Nd81 O105 2.424 . S
Nd81 O106 2.500 . S
Nd81 O107 2.492 . S
Nd81 O108 2.487 . S
Nd81 O109 2.682 . S
Nd81 O110 2.410 . S
C82 Nd80 2.836 . S
C82 C83 1.498 . S
C82 O100 1.258 . S
C82 O101 1.239 . S
C83 C82 1.498 . S
C83 C84 1.366 . S
C83 C88 1.407 . S
C84 C83 1.366 . S
C84 C85 1.392 . S
C84 H112 0.930 . S
C85 C84 1.392 . S
C85 C86 1.398 . S
C85 H113 0.929 . S
C86 C85 1.398 . S
C86 C87 1.352 . S
C87 C86 1.352 . S
C87 C88 1.384 . S
C87 H114 0.930 . S
C88 C83 1.407 . S
C88 C87 1.384 . S
C88 H115 0.929 . S
C89 O102 1.241 . S
C89 O103 1.273 . S
C90 O104 1.251 . S
C90 O105 1.268 . S
C91 Nd81 2.836 . S
C91 C92 1.498 . S
C91 O106 1.258 . S
C91 O107 1.239 . S
C92 C91 1.498 . S
C92 C93 1.366 . S
C92 C97 1.407 . S
C93 C92 1.366 . S
C93 C94 1.392 . S
C93 H116 0.930 . S
C94 C93 1.392 . S
C94 C95 1.398 . S
C94 H117 0.929 . S
C95 C94 1.398 . S
C95 C96 1.352 . S
C96 C95 1.352 . S
C96 C97 1.384 . S
C96 H118 0.930 . S
C97 C92 1.407 . S
C97 C96 1.384 . S
C97 H119 0.929 . S
C98 O108 1.241 . S
C98 O109 1.273 . S
C99 O110 1.251 . S
C99 O111 1.268 . S
O100 Nd80 2.500 . S
O100 C82 1.258 . S
O101 Nd80 2.492 . S
O101 C82 1.239 . S
O102 Nd80 2.487 . S
O102 C89 1.241 . S
O103 Nd80 2.682 . S
O103 Nd81 2.414 . S
O103 C89 1.273 . S
O104 Nd80 2.410 . S
O104 C90 1.251 . S
O105 Nd81 2.424 . S
O105 C90 1.268 . S
O106 Nd81 2.500 . S
O106 C91 1.258 . S
O107 Nd81 2.492 . S
O107 C91 1.239 . S
O108 Nd81 2.487 . S
O108 C98 1.241 . S
O109 Nd80 2.414 . S
O109 Nd81 2.682 . S
O109 C98 1.273 . S
O110 Nd81 2.410 . S
O110 C99 1.251 . S
O111 Nd80 2.424 . S
O111 C99 1.268 . S
H112 C84 0.930 . S
H113 C85 0.929 . S
H114 C87 0.930 . S
H115 C88 0.929 . S
H116 C93 0.930 . S
H117 C94 0.929 . S
H118 C96 0.930 . S
H119 C97 0.929 . S
H120 C125 0.930 . S
H121 C128 0.930 . S
H122 C130 0.930 1_565 S
H123 C124 1.016 . S
C124 H123 1.016 . S
C124 N131 1.286 . S
C125 H120 0.930 . S
C125 C126 1.397 1_545 S
C125 C127 1.361 . S
C126 C125 1.397 1_565 S
C126 C130 1.390 1_565 S
C127 C125 1.361 . S
C127 C128 1.393 . S
C127 N131 1.413 . S
C128 H121 0.930 . S
C128 C127 1.393 . S
C128 C129 1.399 . S
C129 C128 1.399 . S
C129 C130 1.381 . S
C130 H122 0.930 1_545 S
C130 C126 1.390 1_545 S
C130 C129 1.381 . S
N131 C124 1.286 . S
N131 C127 1.413 . S
H132 C137 0.930 . S
H133 C140 0.930 . S
H134 C142 0.930 . S
H135 C136 1.016 . S
C136 H135 1.016 . S
C136 N143 1.286 . S
C137 H132 0.930 . S
C137 C138 1.397 . S
C137 C139 1.361 . S
C138 C137 1.397 . S
C138 C142 1.390 . S
C139 C137 1.361 . S
C139 C140 1.393 . S
C139 N143 1.413 . S
C140 H133 0.930 . S
C140 C139 1.393 . S
C140 C141 1.399 . S
C141 C140 1.399 . S
C141 C142 1.381 . S
C142 H134 0.930 . S
C142 C138 1.390 . S
C142 C141 1.381 . S
N143 C136 1.286 . S
N143 C139 1.413 . S
H144 C149 0.930 . S
H145 C152 0.930 . S
H146 C154 0.930 . S
H147 C148 1.016 . S
C148 H147 1.016 . S
C148 N155 1.286 . S
C149 H144 0.930 . S
C149 C150 1.397 1_455 S
C149 C151 1.361 . S
C150 C149 1.397 1_655 S
C150 C154 1.390 . S
C151 C149 1.361 . S
C151 C152 1.393 . S
C151 N155 1.413 . S
C152 H145 0.930 . S
C152 C151 1.393 . S
C152 C153 1.399 . S
C153 C152 1.399 . S
C153 C154 1.381 1_455 S
C154 H146 0.930 . S
C154 C150 1.390 . S
C154 C153 1.381 1_655 S
N155 C148 1.286 . S
N155 C151 1.413 . S
H156 C161 0.930 . S
H157 C164 0.930 . S
H158 C166 0.930 . S
H159 C160 1.016 . S
C160 H159 1.016 . S
C160 N167 1.286 . S
C161 H156 0.930 . S
C161 C162 1.397 . S
C161 C163 1.361 1_455 S
C162 C161 1.397 . S
C162 C166 1.390 . S
C163 C161 1.361 1_655 S
C163 C164 1.393 . S
C163 N167 1.413 . S
C164 H157 0.930 . S
C164 C163 1.393 . S
C164 C165 1.399 1_655 S
C165 C164 1.399 1_455 S
C165 C166 1.381 . S
C166 H158 0.930 . S
C166 C162 1.390 . S
C166 C165 1.381 . S
N167 C160 1.286 . S
N167 C163 1.413 . S
H168 C173 0.930 . S
H169 C176 0.930 . S
H170 C178 0.930 . S
H171 C172 1.016 . S
C172 H171 1.016 . S
C172 N179 1.286 . S
C173 H168 0.930 . S
C173 C174 1.397 . S
C173 C175 1.361 1_545 S
C174 C173 1.397 . S
C174 C178 1.390 . S
C175 C173 1.361 1_565 S
C175 C176 1.393 . S
C175 N179 1.413 . S
C176 H169 0.930 . S
C176 C175 1.393 . S
C176 C177 1.399 1_565 S
C177 C176 1.399 1_545 S
C177 C178 1.381 . S
C178 H170 0.930 . S
C178 C174 1.390 . S
C178 C177 1.381 . S
N179 C172 1.286 . S
N179 C175 1.413 . S
H180 C185 0.930 . S
H181 C188 0.930 . S
H182 C190 0.930 . S
H183 C184 1.016 . S
C184 H183 1.016 . S
C184 N191 1.286 . S
C185 H180 0.930 . S
C185 C186 1.397 . S
C185 C187 1.361 . S
C186 C185 1.397 . S
C186 C190 1.390 . S
C187 C185 1.361 . S
C187 C188 1.393 . S
C187 N191 1.413 . S
C188 H181 0.930 . S
C188 C187 1.393 . S
C188 C189 1.399 . S
C189 C188 1.399 . S
C189 C190 1.381 . S
C190 H182 0.930 . S
C190 C186 1.390 . S
C190 C189 1.381 . S
N191 C184 1.286 . S
N191 C187 1.413 . S
C192 C193 1.363 . S
C192 C198 1.379 . S
C192 N200 1.356 . S
C193 C192 1.363 . S
C193 C199 1.363 . S
C194 C195 1.363 . S
C194 C199 1.379 . S
C194 N201 1.356 . S
C195 C194 1.363 . S
C195 C198 1.363 . S
N196 C198 1.356 . S
N196 H208 0.984 . S
N196 H209 0.985 . S
N197 C199 1.356 . S
N197 H202 0.984 . S
N197 H203 0.985 . S
C198 C192 1.379 . S
C198 C195 1.363 . S
C198 N196 1.356 . S
C199 C193 1.363 . S
C199 C194 1.379 . S
C199 N197 1.356 . S
N200 C192 1.356 . S
N200 H206 0.984 . S
N200 H207 0.984 . S
N201 C194 1.356 . S
N201 H204 0.984 . S
N201 H205 0.985 . S
H202 N197 0.984 . S
H203 N197 0.985 . S
H204 N201 0.984 . S
H205 N201 0.985 . S
H206 N200 0.984 . S
H207 N200 0.984 . S
H208 N196 0.984 . S
H209 N196 0.985 . S
C210 C211 1.363 . S
C210 C216 1.379 . S
C210 N218 1.356 . S
C211 C210 1.363 . S
C211 C217 1.363 . S
C212 C213 1.363 . S
C212 C217 1.379 . S
C212 N219 1.356 . S
C213 C212 1.363 . S
C213 C216 1.363 . S
N214 C216 1.356 . S
N214 H226 0.984 . S
N214 H227 0.985 . S
N215 C217 1.356 . S
N215 H220 0.984 . S
N215 H221 0.985 . S
C216 C210 1.379 . S
C216 C213 1.363 . S
C216 N214 1.356 . S
C217 C211 1.363 . S
C217 C212 1.379 . S
C217 N215 1.356 . S
N218 C210 1.356 . S
N218 H224 0.984 . S
N218 H225 0.984 . S
N219 C212 1.356 . S
N219 H222 0.984 . S
N219 H223 0.985 . S
H220 N215 0.984 . S
H221 N215 0.985 . S
H222 N219 0.984 . S
H223 N219 0.985 . S
H224 N218 0.984 . S
H225 N218 0.984 . S
H226 N214 0.984 . S
H227 N214 0.985 . S
C228 C229 1.363 . S
C228 C234 1.379 . S
C228 N236 1.356 . S
C229 C228 1.363 . S
C229 C235 1.363 . S
C230 C231 1.363 . S
C230 C235 1.379 . S
C230 N237 1.356 . S
C231 C230 1.363 . S
C231 C234 1.363 . S
N232 C234 1.356 . S
N232 H244 0.984 . S
N232 H245 0.985 . S
N233 C235 1.356 . S
N233 H238 0.984 . S
N233 H239 0.985 . S
C234 C228 1.379 . S
C234 C231 1.363 . S
C234 N232 1.356 . S
C235 C229 1.363 . S
C235 C230 1.379 . S
C235 N233 1.356 . S
N236 C228 1.356 . S
N236 H242 0.984 . S
N236 H243 0.984 . S
N237 C230 1.356 . S
N237 H240 0.984 . S
N237 H241 0.985 . S
H238 N233 0.984 . S
H239 N233 0.985 . S
H240 N237 0.984 . S
H241 N237 0.985 . S
H242 N236 0.984 . S
H243 N236 0.984 . S
H244 N232 0.984 . S
H245 N232 0.985 . S
C246 C247 1.363 . S
C246 C252 1.379 . S
C246 N254 1.356 . S
C247 C246 1.363 . S
C247 C253 1.363 . S
C248 C249 1.363 . S
C248 C253 1.379 . S
C248 N255 1.356 . S
C249 C248 1.363 . S
C249 C252 1.363 . S
N250 C252 1.356 . S
N250 H262 0.984 . S
N250 H263 0.985 . S
N251 C253 1.356 . S
N251 H256 0.984 . S
N251 H257 0.985 . S
C252 C246 1.379 . S
C252 C249 1.363 . S
C252 N250 1.356 . S
C253 C247 1.363 . S
C253 C248 1.379 . S
C253 N251 1.356 . S
N254 C246 1.356 . S
N254 H260 0.984 . S
N254 H261 0.984 . S
N255 C248 1.356 . S
N255 H258 0.984 . S
N255 H259 0.985 . S
H256 N251 0.984 . S
H257 N251 0.985 . S
H258 N255 0.984 . S
H259 N255 0.985 . S
H260 N254 0.984 . S
H261 N254 0.984 . S
H262 N250 0.984 . S
H263 N250 0.985 . S
C264 C265 1.363 . S
C264 C270 1.379 . S
C264 N272 1.356 . S
C265 C264 1.363 . S
C265 C271 1.363 . S
C266 C267 1.363 . S
C266 C271 1.379 . S
C266 N273 1.356 . S
C267 C266 1.363 . S
C267 C270 1.363 . S
N268 C270 1.356 . S
N268 H280 0.984 . S
N268 H281 0.985 . S
N269 C271 1.356 . S
N269 H274 0.984 . S
N269 H275 0.985 . S
C270 C264 1.379 . S
C270 C267 1.363 . S
C270 N268 1.356 . S
C271 C265 1.363 . S
C271 C266 1.379 . S
C271 N269 1.356 . S
N272 C264 1.356 . S
N272 H278 0.984 . S
N272 H279 0.984 . S
N273 C266 1.356 . S
N273 H276 0.984 . S
N273 H277 0.985 . S
H274 N269 0.984 . S
H275 N269 0.985 . S
H276 N273 0.984 . S
H277 N273 0.985 . S
H278 N272 0.984 . S
H279 N272 0.984 . S
H280 N268 0.984 . S
H281 N268 0.985 . S
C282 C283 1.363 . S
C282 C288 1.379 . S
C282 N290 1.356 . S
C283 C282 1.363 . S
C283 C289 1.363 . S
C284 C285 1.363 . S
C284 C289 1.379 . S
C284 N291 1.356 . S
C285 C284 1.363 . S
C285 C288 1.363 . S
N286 C288 1.356 . S
N286 H298 0.984 . S
N286 H299 0.985 . S
N287 C289 1.356 . S
N287 H292 0.984 . S
N287 H293 0.985 . S
C288 C282 1.379 . S
C288 C285 1.363 . S
C288 N286 1.356 . S
C289 C283 1.363 . S
C289 C284 1.379 . S
C289 N287 1.356 . S
N290 C282 1.356 . S
N290 H296 0.984 . S
N290 H297 0.984 . S
N291 C284 1.356 . S
N291 H294 0.984 . S
N291 H295 0.985 . S
H292 N287 0.984 . S
H293 N287 0.985 . S
H294 N291 0.984 . S
H295 N291 0.985 . S
H296 N290 0.984 . S
H297 N290 0.984 . S
H298 N286 0.984 . S
H299 N286 0.985 . S
C300 C301 1.363 . S
C300 C306 1.379 . S
C300 N308 1.356 . S
C301 C300 1.363 . S
C301 C307 1.363 . S
C302 C303 1.363 . S
C302 C307 1.379 . S
C302 N309 1.356 . S
C303 C302 1.363 . S
C303 C306 1.363 . S
N304 C306 1.356 . S
N304 H316 0.984 . S
N304 H317 0.985 . S
N305 C307 1.356 . S
N305 H310 0.984 . S
N305 H311 0.985 . S
C306 C300 1.379 . S
C306 C303 1.363 . S
C306 N304 1.356 . S
C307 C301 1.363 . S
C307 C302 1.379 . S
C307 N305 1.356 . S
N308 C300 1.356 . S
N308 H314 0.984 . S
N308 H315 0.984 . S
N309 C302 1.356 . S
N309 H312 0.984 . S
N309 H313 0.985 . S
H310 N305 0.984 . S
H311 N305 0.985 . S
H312 N309 0.984 . S
H313 N309 0.985 . S
H314 N308 0.984 . S
H315 N308 0.984 . S
H316 N304 0.984 . S
H317 N304 0.985 . S
C318 C319 1.363 . S
C318 C324 1.379 . S
C318 N326 1.356 . S
C319 C318 1.363 . S
C319 C325 1.363 . S
C320 C321 1.363 . S
C320 C325 1.379 . S
C320 N327 1.356 . S
C321 C320 1.363 . S
C321 C324 1.363 . S
N322 C324 1.356 . S
N322 H334 0.984 . S
N322 H335 0.985 . S
N323 C325 1.356 . S
N323 H328 0.984 . S
N323 H329 0.985 . S
C324 C318 1.379 . S
C324 C321 1.363 . S
C324 N322 1.356 . S
C325 C319 1.363 . S
C325 C320 1.379 . S
C325 N323 1.356 . S
N326 C318 1.356 . S
N326 H332 0.984 . S
N326 H333 0.984 . S
N327 C320 1.356 . S
N327 H330 0.984 . S
N327 H331 0.985 . S
H328 N323 0.984 . S
H329 N323 0.985 . S
H330 N327 0.984 . S
H331 N327 0.985 . S
H332 N326 0.984 . S
H333 N326 0.984 . S
H334 N322 0.984 . S
H335 N322 0.985 . S
C336 C337 1.363 . S
C336 C342 1.379 . S
C336 N344 1.356 . S
C337 C336 1.363 . S
C337 C343 1.363 . S
C338 C339 1.363 . S
C338 C343 1.379 . S
C338 N345 1.356 . S
C339 C338 1.363 . S
C339 C342 1.363 . S
N340 C342 1.356 . S
N340 H352 0.984 . S
N340 H353 0.985 . S
N341 C343 1.356 . S
N341 H346 0.984 . S
N341 H347 0.985 . S
C342 C336 1.379 . S
C342 C339 1.363 . S
C342 N340 1.356 . S
C343 C337 1.363 . S
C343 C338 1.379 . S
C343 N341 1.356 . S
N344 C336 1.356 . S
N344 H350 0.984 . S
N344 H351 0.984 . S
N345 C338 1.356 . S
N345 H348 0.984 . S
N345 H349 0.985 . S
H346 N341 0.984 . S
H347 N341 0.985 . S
H348 N345 0.984 . S
H349 N345 0.985 . S
H350 N344 0.984 . S
H351 N344 0.984 . S
H352 N340 0.984 . S
H353 N340 0.985 . S
C354 C355 1.363 . S
C354 C360 1.379 . S
C354 N362 1.356 . S
C355 C354 1.363 . S
C355 C361 1.363 . S
C356 C357 1.363 . S
C356 C361 1.379 . S
C356 N363 1.356 . S
C357 C356 1.363 . S
C357 C360 1.363 . S
N358 C360 1.356 . S
N358 H370 0.984 . S
N358 H371 0.985 . S
N359 C361 1.356 . S
N359 H364 0.984 . S
N359 H365 0.985 . S
C360 C354 1.379 . S
C360 C357 1.363 . S
C360 N358 1.356 . S
C361 C355 1.363 . S
C361 C356 1.379 . S
C361 N359 1.356 . S
N362 C354 1.356 . S
N362 H368 0.984 . S
N362 H369 0.984 . S
N363 C356 1.356 . S
N363 H366 0.984 . S
N363 H367 0.985 . S
H364 N359 0.984 . S
H365 N359 0.985 . S
H366 N363 0.984 . S
H367 N363 0.985 . S
H368 N362 0.984 . S
H369 N362 0.984 . S
H370 N358 0.984 . S
H371 N358 0.985 . S
C372 C373 1.363 . S
C372 C378 1.379 . S
C372 N380 1.356 . S
C373 C372 1.363 . S
C373 C379 1.363 . S
C374 C375 1.363 . S
C374 C379 1.379 . S
C374 N381 1.356 . S
C375 C374 1.363 . S
C375 C378 1.363 . S
N376 C378 1.356 . S
N376 H388 0.984 . S
N376 H389 0.985 . S
N377 C379 1.356 . S
N377 H382 0.984 . S
N377 H383 0.985 . S
C378 C372 1.379 . S
C378 C375 1.363 . S
C378 N376 1.356 . S
C379 C373 1.363 . S
C379 C374 1.379 . S
C379 N377 1.356 . S
N380 C372 1.356 . S
N380 H386 0.984 . S
N380 H387 0.984 . S
N381 C374 1.356 . S
N381 H384 0.984 . S
N381 H385 0.985 . S
H382 N377 0.984 . S
H383 N377 0.985 . S
H384 N381 0.984 . S
H385 N381 0.985 . S
H386 N380 0.984 . S
H387 N380 0.984 . S
H388 N376 0.984 . S
H389 N376 0.985 . S
C390 C391 1.363 . S
C390 C396 1.379 . S
C390 N398 1.356 . S
C391 C390 1.363 . S
C391 C397 1.363 . S
C392 C393 1.363 . S
C392 C397 1.379 . S
C392 N399 1.356 . S
C393 C392 1.363 . S
C393 C396 1.363 . S
N394 C396 1.356 . S
N394 H406 0.984 . S
N394 H407 0.985 . S
N395 C397 1.356 . S
N395 H400 0.984 . S
N395 H401 0.985 . S
C396 C390 1.379 . S
C396 C393 1.363 . S
C396 N394 1.356 . S
C397 C391 1.363 . S
C397 C392 1.379 . S
C397 N395 1.356 . S
N398 C390 1.356 . S
N398 H404 0.984 . S
N398 H405 0.984 . S
N399 C392 1.356 . S
N399 H402 0.984 . S
N399 H403 0.985 . S
H400 N395 0.984 . S
H401 N395 0.985 . S
H402 N399 0.984 . S
H403 N399 0.985 . S
H404 N398 0.984 . S
H405 N398 0.984 . S
H406 N394 0.984 . S
H407 N394 0.985 . S
C408 C409 1.363 . S
C408 C414 1.379 1_554 S
C408 N416 1.356 . S
C409 C408 1.363 . S
C409 C415 1.363 . S
C410 C411 1.363 1_554 S
C410 C415 1.379 . S
C410 N417 1.356 1_554 S
C411 C410 1.363 1_556 S
C411 C414 1.363 . S
N412 C414 1.356 . S
N412 H424 0.984 . S
N412 H425 0.985 . S
N413 C415 1.356 . S
N413 H418 0.984 . S
N413 H419 0.985 . S
C414 C408 1.379 1_556 S
C414 C411 1.363 . S
C414 N412 1.356 . S
C415 C409 1.363 . S
C415 C410 1.379 . S
C415 N413 1.356 . S
N416 C408 1.356 . S
N416 H422 0.984 . S
N416 H423 0.984 . S
N417 C410 1.356 1_556 S
N417 H420 0.984 . S
N417 H421 0.985 1_556 S
H418 N413 0.984 . S
H419 N413 0.985 . S
H420 N417 0.984 . S
H421 N417 0.985 1_554 S
H422 N416 0.984 . S
H423 N416 0.984 . S
H424 N412 0.984 . S
H425 N412 0.985 . S
C426 C427 1.363 1_565 S
C426 C432 1.379 . S
C426 N434 1.356 . S
C427 C426 1.363 1_545 S
C427 C433 1.363 . S
C428 C429 1.363 . S
C428 C433 1.379 . S
C428 N435 1.356 . S
C429 C428 1.363 . S
C429 C432 1.363 1_545 S
N430 C432 1.356 . S
N430 H442 0.984 . S
N430 H443 0.985 . S
N431 C433 1.356 . S
N431 H436 0.984 . S
N431 H437 0.985 . S
C432 C426 1.379 . S
C432 C429 1.363 1_565 S
C432 N430 1.356 . S
C433 C427 1.363 . S
C433 C428 1.379 . S
C433 N431 1.356 . S
N434 C426 1.356 . S
N434 H440 0.984 . S
N434 H441 0.984 . S
N435 C428 1.356 . S
N435 H438 0.984 . S
N435 H439 0.985 . S
H436 N431 0.984 . S
H437 N431 0.985 . S
H438 N435 0.984 . S
H439 N435 0.985 . S
H440 N434 0.984 . S
H441 N434 0.984 . S
H442 N430 0.984 . S
H443 N430 0.985 . S
C444 C445 1.363 . S
C444 C450 1.379 . S
C444 N452 1.356 . S
C445 C444 1.363 . S
C445 C451 1.363 . S
C446 C447 1.363 . S
C446 C451 1.379 . S
C446 N453 1.356 . S
C447 C446 1.363 . S
C447 C450 1.363 . S
N448 C450 1.356 . S
N448 H460 0.984 . S
N448 H461 0.985 . S
N449 C451 1.356 . S
N449 H454 0.984 . S
N449 H455 0.985 . S
C450 C444 1.379 . S
C450 C447 1.363 . S
C450 N448 1.356 . S
C451 C445 1.363 . S
C451 C446 1.379 . S
C451 N449 1.356 . S
N452 C444 1.356 . S
N452 H458 0.984 . S
N452 H459 0.984 . S
N453 C446 1.356 . S
N453 H456 0.984 . S
N453 H457 0.985 . S
H454 N449 0.984 . S
H455 N449 0.985 . S
H456 N453 0.984 . S
H457 N453 0.985 . S
H458 N452 0.984 . S
H459 N452 0.984 . S
H460 N448 0.984 . S
H461 N448 0.985 . S
C462 C463 1.363 . S
C462 C468 1.379 . S
C462 N470 1.356 . S
C463 C462 1.363 . S
C463 C469 1.363 . S
C464 C465 1.363 . S
C464 C469 1.379 . S
C464 N471 1.356 1_545 S
C465 C464 1.363 . S
C465 C468 1.363 . S
N466 C468 1.356 . S
N466 H478 0.984 . S
N466 H479 0.985 . S
N467 C469 1.356 1_565 S
N467 H472 0.977 1_565 S
N467 H473 0.985 . S
C468 C462 1.379 . S
C468 C465 1.363 . S
C468 N466 1.356 . S
C469 C463 1.363 . S
C469 C464 1.379 . S
C469 N467 1.356 1_545 S
N470 C462 1.356 . S
N470 H476 0.984 . S
N470 H477 0.984 . S
N471 C464 1.356 1_565 S
N471 H474 0.984 . S
N471 H475 0.985 . S
H472 N467 0.977 1_545 S
H473 N467 0.985 . S
H474 N471 0.984 . S
H475 N471 0.985 . S
H476 N470 0.984 . S
H477 N470 0.984 . S
H478 N466 0.984 . S
H479 N466 0.985 . S
C480 C481 1.363 . S
C480 C486 1.379 . S
C480 N488 1.356 . S
C481 C480 1.363 . S
C481 C487 1.363 . S
C482 C483 1.363 . S
C482 C487 1.379 1_554 S
C482 N489 1.356 . S
C483 C482 1.363 . S
C483 C486 1.363 1_554 S
N484 C486 1.356 1_554 S
N484 H496 0.984 . S
N484 H497 0.985 . S
N485 C487 1.356 . S
N485 H490 0.984 . S
N485 H491 0.985 . S
C486 C480 1.379 . S
C486 C483 1.363 1_556 S
C486 N484 1.356 1_556 S
C487 C481 1.363 . S
C487 C482 1.379 1_556 S
C487 N485 1.356 . S
N488 C480 1.356 . S
N488 H494 0.984 . S
N488 H495 0.984 . S
N489 C482 1.356 . S
N489 H492 0.984 . S
N489 H493 0.985 . S
H490 N485 0.984 . S
H491 N485 0.985 . S
H492 N489 0.984 . S
H493 N489 0.985 . S
H494 N488 0.984 . S
H495 N488 0.984 . S
H496 N484 0.984 . S
H497 N484 0.985 . S
C498 C499 1.363 . S
C498 C504 1.379 . S
C498 N506 1.356 . S
C499 C498 1.363 . S
C499 C505 1.363 1_455 S
C500 C501 1.363 1_655 S
C500 C505 1.379 . S
C500 N507 1.356 . S
C501 C500 1.363 1_455 S
C501 C504 1.363 . S
N502 C504 1.356 . S
N502 H514 0.984 . S
N502 H515 0.985 . S
N503 C505 1.356 . S
N503 H508 0.984 . S
N503 H509 0.985 . S
C504 C498 1.379 . S
C504 C501 1.363 . S
C504 N502 1.356 . S
C505 C499 1.363 1_655 S
C505 C500 1.379 . S
C505 N503 1.356 . S
N506 C498 1.356 . S
N506 H512 0.984 . S
N506 H513 0.984 . S
N507 C500 1.356 . S
N507 H510 0.984 . S
N507 H511 0.985 . S
H508 N503 0.984 . S
H509 N503 0.985 . S
H510 N507 0.984 . S
H511 N507 0.985 . S
H512 N506 0.984 . S
H513 N506 0.984 . S
H514 N502 0.984 . S
H515 N502 0.985 . S
C193 C10 3.325 . S
C195 C186 3.297 . S
C211 C55 1.369 . S
C213 C160 1.405 . S
C229 C90 1.980 . S
C231 C172 1.928 . S
C247 C19 2.915 . S
C249 C184 2.802 . S
C267 C162 1.263 . S
C265 C46 1.229 . S
C285 C174 1.930 . S
C283 C99 1.944 . S
C301 C50 1.966 . S
C303 C136 1.893 . S
C319 C95 1.170 . S
C321 C150 1.300 . S
C337 C6 1.232 . S
C339 C126 1.251 . S
C357 C138 1.877 . S
C355 C59 1.920 . S
C375 C148 0.501 . S
C373 C86 0.649 . S
C391 C15 1.421 . S
C393 C124 1.471 . S
C411 C153 1.189 . S
C409 C18 1.168 . S
C427 C49 1.506 . S
C429 C129 1.515 . S
C445 C98 1.388 . S
C447 C141 1.416 . S
C465 C177 1.453 . S
C463 C58 1.385 . S
C483 C189 1.825 . S
C481 C89 1.715 . S
C499 C9 1.498 . S
C501 C165 1.521 . S
