# Generated by pormake.
# Topology ssa, (4,4)-cn, num edge types: 1
# Building blocks:
#     Node 0, Type 0, BuildingBlock: KOZSID_clean_sbu_0, # of connection points: 4
#     Node 1, Type 0, BuildingBlock: KOZSID_clean_sbu_0, # of connection points: 4
#     Node 2, Type 0, BuildingBlock: KOZSID_clean_sbu_0, # of connection points: 4
#     Node 3, Type 0, BuildingBlock: KOZSID_clean_sbu_0, # of connection points: 4
#     Node 4, Type 0, BuildingBlock: KOZSID_clean_sbu_0, # of connection points: 4
#     Node 5, Type 0, BuildingBlock: KOZSID_clean_sbu_0, # of connection points: 4
#     Node 6, Type 1, BuildingBlock: AZAVOO_clean_linker_0, # of connection points: 4
#     Node 7, Type 1, BuildingBlock: AZAVOO_clean_linker_0, # of connection points: 4
#     Node 8, Type 1, BuildingBlock: AZAVOO_clean_linker_0, # of connection points: 4
#     Node 9, Type 1, BuildingBlock: AZAVOO_clean_linker_0, # of connection points: 4
#     Node 10, Type 1, BuildingBlock: AZAVOO_clean_linker_0, # of connection points: 4
#     Node 11, Type 1, BuildingBlock: AZAVOO_clean_linker_0, # of connection points: 4
#     Edge 12, Type (0, 1), BuildingBlock: ZUJKAS_clean_linker_0, # of connection points: 2
#     Edge 13, Type (0, 1), BuildingBlock: ZUJKAS_clean_linker_0, # of connection points: 2
#     Edge 14, Type (0, 1), BuildingBlock: ZUJKAS_clean_linker_0, # of connection points: 2
#     Edge 15, Type (0, 1), BuildingBlock: ZUJKAS_clean_linker_0, # of connection points: 2
#     Edge 16, Type (0, 1), BuildingBlock: ZUJKAS_clean_linker_0, # of connection points: 2
#     Edge 17, Type (0, 1), BuildingBlock: ZUJKAS_clean_linker_0, # of connection points: 2
#     Edge 18, Type (0, 1), BuildingBlock: ZUJKAS_clean_linker_0, # of connection points: 2
#     Edge 19, Type (0, 1), BuildingBlock: ZUJKAS_clean_linker_0, # of connection points: 2
#     Edge 20, Type (0, 1), BuildingBlock: ZUJKAS_clean_linker_0, # of connection points: 2
#     Edge 21, Type (0, 1), BuildingBlock: ZUJKAS_clean_linker_0, # of connection points: 2
#     Edge 22, Type (0, 1), BuildingBlock: ZUJKAS_clean_linker_0, # of connection points: 2
#     Edge 23, Type (0, 1), BuildingBlock: ZUJKAS_clean_linker_0, # of connection points: 2
#     Edge 24, Type (0, 1), BuildingBlock: ZUJKAS_clean_linker_0, # of connection points: 2
#     Edge 25, Type (0, 1), BuildingBlock: ZUJKAS_clean_linker_0, # of connection points: 2
#     Edge 26, Type (0, 1), BuildingBlock: ZUJKAS_clean_linker_0, # of connection points: 2
#     Edge 27, Type (0, 1), BuildingBlock: ZUJKAS_clean_linker_0, # of connection points: 2
#     Edge 28, Type (0, 1), BuildingBlock: ZUJKAS_clean_linker_0, # of connection points: 2
#     Edge 29, Type (0, 1), BuildingBlock: ZUJKAS_clean_linker_0, # of connection points: 2
#     Edge 30, Type (0, 1), BuildingBlock: ZUJKAS_clean_linker_0, # of connection points: 2
#     Edge 31, Type (0, 1), BuildingBlock: ZUJKAS_clean_linker_0, # of connection points: 2
#     Edge 32, Type (0, 1), BuildingBlock: ZUJKAS_clean_linker_0, # of connection points: 2
#     Edge 33, Type (0, 1), BuildingBlock: ZUJKAS_clean_linker_0, # of connection points: 2
#     Edge 34, Type (0, 1), BuildingBlock: ZUJKAS_clean_linker_0, # of connection points: 2
#     Edge 35, Type (0, 1), BuildingBlock: ZUJKAS_clean_linker_0, # of connection points: 2
# Relax obj value: 0.062
# Max RMSD: 0.231
# Mean RMSD: 0.119
data_MOF--net-ssa--node1-KOZSID_clean_sbu_0--node2-AZAVOO_clean_linker_0--edge1-ZUJKAS_clean_linker_0
_symmetry_space_group_name_H-M    P1
_symmetry_Int_Tables_number       1
_symmetry_cell_setting            triclinic
loop_
_symmetry_equiv_pos_as_xyz
'x, y, z'
_cell_length_a     65.958762
_cell_length_b     67.574962
_cell_length_c     63.815898
_cell_angle_alpha  87.967264
_cell_angle_beta   92.313289
_cell_angle_gamma 121.92753
loop_
_atom_site_label
_atom_site_type_symbol
_atom_site_fract_x
_atom_site_fract_y
_atom_site_fract_z
_atom_type_partial_charge
C0 C 0.09951 0.56208 0.00255 0.0
C1 C 0.07542 0.55177 0.00687 0.0
C2 C 0.06844 0.53096 0.01692 0.0
C3 C 0.08849 0.52965 0.01818 0.0
N4 N 0.10773 0.54846 0.00975 0.0
Co5 Co 0.13979 0.55293 0.00755 0.0
N6 N 0.13279 0.52909 0.02974 0.0
C7 C 0.11095 0.51215 0.03591 0.0
C8 C 0.11172 0.49778 0.05125 0.0
C9 C 0.13554 0.50618 0.05485 0.0
C10 C 0.14799 0.52534 0.04149 0.0
N11 N 0.17175 0.55712 0.00539 0.0
C12 C 0.18381 0.55126 0.01936 0.0
C13 C 0.20617 0.55813 0.01199 0.0
C14 C 0.20784 0.56821 0.99258 0.0
C15 C 0.18658 0.56714 0.98923 0.0
N16 N 0.14673 0.57675 0.98526 0.0
C17 C 0.16427 0.58484 0.97128 0.0
C18 C 0.16478 0.60132 0.95773 0.0
C19 C 0.14625 0.60354 0.96342 0.0
C20 C 0.13533 0.58811 0.98011 0.0
N21 N 0.15244 0.57707 0.02867 0.0
C22 C 0.16976 0.61229 0.0583 0.0
C23 C 0.18263 0.61538 0.04028 0.0
C24 C 0.17364 0.59761 0.02566 0.0
C25 C 0.14818 0.59107 0.06129 0.0
C26 C 0.1399 0.57368 0.04635 0.0
N27 N 0.12698 0.52875 0.98636 0.0
C28 C 0.1007 0.51017 0.95667 0.0
C29 C 0.10491 0.49193 0.95818 0.0
C30 C 0.12131 0.49306 0.9735 0.0
C31 C 0.13217 0.51163 0.98741 0.0
C32 C 0.11187 0.52835 0.97085 0.0
H33 H 0.14427 0.5118 0.9994 0.0
H34 H 0.10775 0.54179 0.96952 0.0
H35 H 0.18375 0.60057 0.0118 0.0
H36 H 0.12326 0.5575 0.04905 0.0
C37 C 0.09077 0.51281 0.02957 0.0
C38 C 0.11298 0.58313 0.98932 0.0
C39 C 0.17397 0.53832 0.03909 0.0
C40 C 0.1819 0.57925 0.97346 0.0
H41 H 0.06386 0.55824 0.00274 0.0
H42 H 0.05095 0.51853 0.02295 0.0
H43 H 0.09683 0.48343 0.05937 0.0
H44 H 0.14287 0.49888 0.06587 0.0
H45 H 0.21993 0.55626 0.01982 0.0
H46 H 0.22321 0.57643 0.98262 0.0
H47 H 0.17754 0.61112 0.94561 0.0
H48 H 0.14117 0.61497 0.95595 0.0
H49 H 0.19931 0.63158 0.03729 0.0
H50 H 0.13785 0.58783 0.07516 0.0
H51 H 0.08854 0.51026 0.9448 0.0
H52 H 0.12505 0.47928 0.97525 0.0
C53 C 0.60744 0.015 0.59003 0.0
C54 C 0.6061 0.00281 0.60842 0.0
C55 C 0.58443 0.98241 0.60784 0.0
C56 C 0.57383 0.98332 0.58922 0.0
N57 N 0.58751 0.00298 0.57773 0.0
Co58 Co 0.57874 0.01194 0.55005 0.0
N59 N 0.54652 0.98225 0.54951 0.0
C60 C 0.53787 0.96464 0.56391 0.0
C61 C 0.51543 0.94626 0.55899 0.0
C62 C 0.5094 0.95239 0.54025 0.0
C63 C 0.52858 0.97428 0.53485 0.0
N64 N 0.5698 0.02118 0.52262 0.0
C65 C 0.54947 0.00968 0.51074 0.0
C66 C 0.55037 0.02248 0.4929 0.0
C67 C 0.57216 0.04272 0.49342 0.0
C68 C 0.58321 0.04117 0.51149 0.0
N69 N 0.61114 0.04139 0.55035 0.0
C70 C 0.62027 0.05842 0.53541 0.0
C71 C 0.64298 0.0765 0.54 0.0
C72 C 0.64871 0.07077 0.55907 0.0
C73 C 0.62905 0.04942 0.56501 0.0
N74 N 0.59195 0.99617 0.53492 0.0
C75 C 0.60996 0.97319 0.51327 0.0
C76 C 0.61377 0.99465 0.50605 0.0
C77 C 0.60476 0.00577 0.51706 0.0
C78 C 0.59719 0.96361 0.53162 0.0
C79 C 0.58837 0.97521 0.54203 0.0
N80 N 0.56556 0.02766 0.56522 0.0
C81 C 0.56373 0.06177 0.5716 0.0
C82 C 0.54872 0.05053 0.58849 0.0
C83 C 0.54178 0.02748 0.59315 0.0
C84 C 0.55025 0.01647 0.58139 0.0
C85 C 0.57191 0.0501 0.56028 0.0
H86 H 0.54432 0.99896 0.58584 0.0
H87 H 0.58361 0.0597 0.54779 0.0
H88 H 0.60825 0.02203 0.51072 0.0
H89 H 0.57868 0.96678 0.55577 0.0
C90 C 0.55109 0.96603 0.58207 0.0
C91 C 0.6279 0.03803 0.58511 0.0
C92 C 0.52908 0.98653 0.51544 0.0
C93 C 0.60654 0.05767 0.51791 0.0
H94 H 0.6194 0.00819 0.621 0.0
H95 H 0.5772 0.96862 0.61964 0.0
H96 H 0.50476 0.93029 0.56794 0.0
H97 H 0.49281 0.94188 0.53149 0.0
H98 H 0.53677 0.01758 0.48067 0.0
H99 H 0.57924 0.05676 0.48185 0.0
H100 H 0.65385 0.09223 0.53081 0.0
H101 H 0.66532 0.08132 0.56779 0.0
H102 H 0.62333 0.00273 0.49177 0.0
H103 H 0.5941 0.94724 0.53813 0.0
H104 H 0.56968 0.07969 0.56747 0.0
H105 H 0.52981 0.01791 0.60586 0.0
C106 C 0.62329 0.53563 0.04321 0.0
C107 C 0.62599 0.55116 0.02709 0.0
C108 C 0.60638 0.55297 0.02708 0.0
C109 C 0.59278 0.53843 0.04301 0.0
N110 N 0.60259 0.52752 0.05337 0.0
Co111 Co 0.58824 0.50406 0.07697 0.0
N112 N 0.55891 0.50605 0.07625 0.0
C113 C 0.55392 0.51902 0.06291 0.0
C114 C 0.53269 0.51724 0.0666 0.0
C115 C 0.52368 0.5025 0.0835 0.0
C116 C 0.54006 0.49615 0.08916 0.0
N117 N 0.57392 0.48068 0.10063 0.0
C118 C 0.55364 0.4733 0.11125 0.0
C119 C 0.55063 0.45753 0.1272 0.0
C120 C 0.56985 0.45507 0.12684 0.0
C121 C 0.58344 0.46942 0.11078 0.0
N122 N 0.61756 0.50204 0.07766 0.0
C123 C 0.62229 0.48871 0.09078 0.0
C124 C 0.64375 0.49084 0.08741 0.0
C125 C 0.65323 0.50628 0.07101 0.0
C126 C 0.63687 0.51261 0.06524 0.0
N127 N 0.60355 0.52957 0.09761 0.0
C128 C 0.62268 0.56455 0.12816 0.0
C129 C 0.62461 0.54498 0.13067 0.0
C130 C 0.61506 0.52789 0.11532 0.0
C131 C 0.61149 0.56654 0.10984 0.0
C132 C 0.6022 0.54905 0.0949 0.0
N133 N 0.57291 0.47848 0.05628 0.0
C134 C 0.56477 0.44141 0.044 0.0
C135 C 0.55413 0.44375 0.02549 0.0
C136 C 0.55239 0.46341 0.02296 0.0
C137 C 0.56172 0.48034 0.03843 0.0
C138 C 0.57395 0.45882 0.05905 0.0
H139 H 0.55989 0.49488 0.03542 0.0
H140 H 0.58213 0.45612 0.07262 0.0
H141 H 0.61699 0.51336 0.11824 0.0
H142 H 0.59367 0.55151 0.08145 0.0
C143 C 0.57023 0.53383 0.04794 0.0
C144 C 0.64035 0.52837 0.04761 0.0
C145 C 0.53738 0.48153 0.10744 0.0
C146 C 0.60591 0.47385 0.10572 0.0
H147 H 0.64038 0.55994 0.01614 0.0
H148 H 0.60224 0.56322 0.01639 0.0
H149 H 0.52501 0.52613 0.05835 0.0
H150 H 0.50719 0.49738 0.09111 0.0
H151 H 0.53627 0.4491 0.13824 0.0
H152 H 0.57381 0.4446 0.13743 0.0
H153 H 0.65143 0.48199 0.09571 0.0
H154 H 0.67017 0.51204 0.06394 0.0
H155 H 0.63346 0.54282 0.14443 0.0
H156 H 0.60931 0.58124 0.10723 0.0
H157 H 0.56666 0.42653 0.04666 0.0
H158 H 0.54388 0.4658 0.00906 0.0
C159 C 0.98801 0.42689 0.55595 0.0
C160 C 0.96507 0.4085 0.55119 0.0
C161 C 0.95762 0.41489 0.53342 0.0
C162 C 0.9763 0.43675 0.52838 0.0
N163 N 0.99537 0.44466 0.54176 0.0
Co164 Co 0.02603 0.47587 0.54065 0.0
N165 N 0.01394 0.48625 0.51592 0.0
C166 C 0.99208 0.47409 0.50646 0.0
C167 C 0.98884 0.48583 0.49003 0.0
C168 C 0.00995 0.50673 0.48881 0.0
C169 C 0.02493 0.50643 0.50457 0.0
N170 N 0.05693 0.50686 0.53927 0.0
C171 C 0.06404 0.52487 0.52539 0.0
C172 C 0.08748 0.54273 0.52945 0.0
C173 C 0.09546 0.5358 0.54649 0.0
C174 C 0.07661 0.51416 0.55178 0.0
N175 N 0.03789 0.46573 0.56573 0.0
C176 C 0.05954 0.47807 0.57555 0.0
C177 C 0.06228 0.46679 0.59266 0.0
C178 C 0.04096 0.44615 0.59412 0.0
C179 C 0.02638 0.4461 0.57777 0.0
N180 N 0.03917 0.46308 0.52141 0.0
C181 C 0.06009 0.44913 0.49226 0.0
C182 C 0.07183 0.45928 0.51117 0.0
C183 C 0.06116 0.46602 0.52537 0.0
C184 C 0.03718 0.44509 0.4886 0.0
C185 C 0.02711 0.45207 0.50331 0.0
N186 N 0.01302 0.48876 0.55978 0.0
C187 C 0.01832 0.51261 0.58935 0.0
C188 C 0.9946 0.5067 0.58745 0.0
C189 C 0.98026 0.4917 0.57141 0.0
C190 C 0.98977 0.48307 0.55781 0.0
C191 C 0.02706 0.50349 0.57552 0.0
H192 H 0.97797 0.47179 0.54586 0.0
H193 H 0.04519 0.50848 0.57799 0.0
H194 H 0.07129 0.47388 0.53928 0.0
H195 H 0.00974 0.44877 0.49947 0.0
C196 C 0.97551 0.45116 0.51258 0.0
C197 C 0.00155 0.42729 0.57476 0.0
C198 C 0.04959 0.52552 0.50776 0.0
C199 C 0.07686 0.5003 0.56842 0.0
H200 H 0.95448 0.39239 0.55995 0.0
H201 H 0.94028 0.40515 0.52558 0.0
H202 H 0.97317 0.47975 0.4799 0.0
H203 H 0.01398 0.52051 0.47743 0.0
H204 H 0.09792 0.55899 0.52085 0.0
H205 H 0.113 0.5453 0.55399 0.0
H206 H 0.07781 0.47297 0.60299 0.0
H207 H 0.03652 0.43276 0.60604 0.0
H208 H 0.08936 0.46221 0.51502 0.0
H209 H 0.02731 0.43725 0.47418 0.0
H210 H 0.03005 0.5239 0.60173 0.0
H211 H 0.9618 0.48678 0.56921 0.0
C212 C 0.53786 0.0341 0.12317 0.0
C213 C 0.53924 0.04632 0.14075 0.0
C214 C 0.55981 0.06766 0.13929 0.0
C215 C 0.56978 0.06723 0.12102 0.0
N216 N 0.55672 0.04698 0.11056 0.0
Co217 Co 0.5651 0.03848 0.08378 0.0
N218 N 0.59619 0.06928 0.08241 0.0
C219 C 0.60444 0.08714 0.09589 0.0
C220 C 0.62611 0.10624 0.09067 0.0
C221 C 0.63211 0.10029 0.07278 0.0
C222 C 0.61372 0.07773 0.06816 0.0
N223 N 0.57359 0.02978 0.0572 0.0
C224 C 0.59348 0.04177 0.0456 0.0
C225 C 0.59257 0.02893 0.02866 0.0
C226 C 0.57124 0.00824 0.02941 0.0
C227 C 0.56045 0.00952 0.04676 0.0
N228 N 0.53393 0.00777 0.08505 0.0
C229 C 0.5249 0.99049 0.07089 0.0
C230 C 0.5032 0.97142 0.0761 0.0
C231 C 0.4981 0.9767 0.09482 0.0
C232 C 0.51712 0.99877 0.09997 0.0
N233 N 0.54922 0.05221 0.0671 0.0
C234 C 0.53002 0.07356 0.04143 0.0
C235 C 0.52579 0.05164 0.03668 0.0
C236 C 0.53539 0.04136 0.04964 0.0
C237 C 0.54327 0.08419 0.05968 0.0
C238 C 0.55254 0.07329 0.07219 0.0
N239 N 0.58108 0.0249 0.1003 0.0
C240 C 0.58821 0.99363 0.10704 0.0
C241 C 0.60444 0.00599 0.12333 0.0
C242 C 0.60871 0.02795 0.12795 0.0
C243 C 0.59696 0.03701 0.11632 0.0
C244 C 0.57677 0.00329 0.09587 0.0
H245 H 0.60103 0.05385 0.12056 0.0
H246 H 0.56446 0.99292 0.08377 0.0
H247 H 0.53172 0.02483 0.04495 0.0
H248 H 0.56259 0.08246 0.08572 0.0
C249 C 0.59167 0.08528 0.11355 0.0
C250 C 0.51868 0.01008 0.11949 0.0
C251 C 0.6136 0.06525 0.04991 0.0
C252 C 0.53797 0.99201 0.05359 0.0
H253 H 0.52682 0.0403 0.15345 0.0
H254 H 0.56686 0.08169 0.1504 0.0
H255 H 0.63634 0.12254 0.09891 0.0
H256 H 0.64819 0.11136 0.06409 0.0
H257 H 0.60595 0.03395 0.01695 0.0
H258 H 0.56443 0.99395 0.01863 0.0
H259 H 0.49264 0.95536 0.06756 0.0
H260 H 0.48235 0.96544 0.10386 0.0
H261 H 0.51573 0.0427 0.02265 0.0
H262 H 0.54662 0.10096 0.06429 0.0
H263 H 0.58401 0.97636 0.10312 0.0
H264 H 0.62127 0.03827 0.14034 0.0
C265 C 0.57788 0.589 0.56612 0.0
C266 C 0.57257 0.60618 0.56795 0.0
C267 C 0.55563 0.59847 0.58286 0.0
C268 C 0.55148 0.57708 0.58918 0.0
N269 N 0.56504 0.57078 0.57948 0.0
Co270 Co 0.56337 0.54029 0.58268 0.0
N271 N 0.53719 0.52824 0.60352 0.0
C272 C 0.52715 0.53964 0.61071 0.0
C273 C 0.51081 0.52761 0.62599 0.0
C274 C 0.51067 0.50746 0.62906 0.0
C275 C 0.5269 0.50832 0.61529 0.0
N276 N 0.5614 0.50968 0.58546 0.0
C277 C 0.54815 0.49121 0.5984 0.0
C278 C 0.55191 0.47318 0.59522 0.0
C279 C 0.56865 0.48079 0.58013 0.0
C280 C 0.57399 0.50285 0.57487 0.0
N281 N 0.58992 0.55247 0.56225 0.0
C282 C 0.60076 0.54152 0.55581 0.0
C283 C 0.61833 0.55428 0.54163 0.0
C284 C 0.61852 0.57445 0.53858 0.0
C285 C 0.60086 0.57273 0.55104 0.0
N286 N 0.58724 0.55273 0.60625 0.0
C287 C 0.6184 0.56643 0.64168 0.0
C288 C 0.62027 0.55412 0.62552 0.0
C289 C 0.60471 0.54756 0.60812 0.0
C290 C 0.60126 0.57259 0.6394 0.0
C291 C 0.58602 0.56566 0.62167 0.0
N292 N 0.53945 0.52774 0.55913 0.0
C293 C 0.52658 0.50947 0.52525 0.0
C294 C 0.50651 0.51142 0.52486 0.0
C295 C 0.50307 0.52142 0.5421 0.0
C296 C 0.51962 0.52943 0.55889 0.0
C297 C 0.54259 0.51758 0.54237 0.0
H298 H 0.51606 0.53706 0.57142 0.0
H299 H 0.55752 0.51567 0.54152 0.0
H300 H 0.60694 0.53797 0.59655 0.0
H301 H 0.57311 0.57058 0.62101 0.0
C302 C 0.53431 0.56211 0.60351 0.0
C303 C 0.5942 0.59015 0.55069 0.0
C304 C 0.53297 0.4905 0.61477 0.0
C305 C 0.59238 0.51838 0.5617 0.0
H306 H 0.57973 0.62236 0.55909 0.0
H307 H 0.54689 0.60714 0.58806 0.0
H308 H 0.50076 0.53315 0.63437 0.0
H309 H 0.50023 0.49398 0.64054 0.0
H310 H 0.54391 0.45653 0.60343 0.0
H311 H 0.57663 0.47168 0.57428 0.0
H312 H 0.62908 0.54915 0.53383 0.0
H313 H 0.62985 0.58855 0.52791 0.0
H314 H 0.63366 0.54943 0.62628 0.0
H315 H 0.59909 0.58212 0.6515 0.0
H316 H 0.53032 0.50219 0.51217 0.0
H317 H 0.48763 0.52305 0.54274 0.0
H318 H 0.29029 0.44834 0.42824 0.0
H319 H 0.13805 0.40776 0.22604 0.0
H320 H 0.33137 0.47943 0.31036 0.0
H321 H 0.36306 0.48782 0.33622 0.0
H322 H 0.33569 0.41404 0.34307 0.0
H323 H 0.30465 0.40598 0.31631 0.0
H324 H 0.28813 0.46817 0.33845 0.0
H325 H 0.29122 0.46672 0.37678 0.0
H326 H 0.26581 0.39325 0.37442 0.0
H327 H 0.2628 0.395 0.3361 0.0
H328 H 0.24481 0.46482 0.30836 0.0
H329 H 0.21469 0.46263 0.33112 0.0
H330 H 0.18973 0.39038 0.34548 0.0
H331 H 0.21964 0.39265 0.32222 0.0
H332 H 0.25161 0.46946 0.26027 0.0
H333 H 0.21781 0.46776 0.24121 0.0
H334 H 0.17428 0.3939 0.25539 0.0
H335 H 0.20837 0.39578 0.27412 0.0
H336 H 0.30117 0.47836 0.24648 0.0
H337 H 0.29426 0.48885 0.21103 0.0
H338 H 0.23635 0.41775 0.20154 0.0
H339 H 0.24378 0.40721 0.23692 0.0
H340 H 0.33675 0.47873 0.2717 0.0
H341 H 0.36961 0.48336 0.25119 0.0
H342 H 0.32651 0.41076 0.23429 0.0
H343 H 0.29406 0.4062 0.2554 0.0
O344 O 0.28877 0.44849 0.41309 0.0
O345 O 0.27553 0.41074 0.41103 0.0
O346 O 0.17492 0.44689 0.22648 0.0
O347 O 0.15166 0.40896 0.23363 0.0
C348 C 0.29385 0.43721 0.29971 0.0
C349 C 0.27408 0.43284 0.31137 0.0
C350 C 0.25387 0.43102 0.30108 0.0
C351 C 0.25336 0.43354 0.27908 0.0
C352 C 0.27297 0.43748 0.26727 0.0
C353 C 0.29317 0.43912 0.27762 0.0
C354 C 0.31595 0.44214 0.31126 0.0
C355 C 0.33284 0.46517 0.3168 0.0
C356 C 0.35065 0.46987 0.33189 0.0
C357 C 0.35165 0.45157 0.34203 0.0
C358 C 0.33554 0.42856 0.3355 0.0
C359 C 0.31783 0.4239 0.32018 0.0
C360 C 0.27524 0.43169 0.33461 0.0
C361 C 0.28316 0.45178 0.34629 0.0
C362 C 0.28494 0.4509 0.36815 0.0
C363 C 0.27879 0.42987 0.37867 0.0
C364 C 0.2707 0.40972 0.36683 0.0
C365 C 0.26894 0.41065 0.34496 0.0
C366 C 0.23436 0.4289 0.31367 0.0
C367 C 0.23261 0.44845 0.31622 0.0
C368 C 0.21554 0.4472 0.32934 0.0
C369 C 0.19994 0.42637 0.34022 0.0
C370 C 0.20135 0.40661 0.33718 0.0
C371 C 0.21847 0.40789 0.32402 0.0
C372 C 0.23246 0.43271 0.26844 0.0
C373 C 0.23476 0.45293 0.25922 0.0
C374 C 0.21542 0.45191 0.24837 0.0
C375 C 0.19335 0.43066 0.24672 0.0
C376 C 0.19103 0.41052 0.25632 0.0
C377 C 0.21043 0.41155 0.26709 0.0
C378 C 0.27294 0.44204 0.24432 0.0
C379 C 0.2877 0.46481 0.23644 0.0
C380 C 0.28364 0.47081 0.21622 0.0
C381 C 0.26457 0.45417 0.20367 0.0
C382 C 0.251 0.43096 0.211 0.0
C383 C 0.25532 0.42489 0.23111 0.0
C384 C 0.31317 0.44206 0.26525 0.0
C385 C 0.33456 0.46378 0.26378 0.0
C386 C 0.3532 0.46644 0.25186 0.0
C387 C 0.35073 0.44741 0.24111 0.0
C388 C 0.32917 0.42567 0.24262 0.0
C389 C 0.31056 0.42305 0.25456 0.0
C390 C 0.28089 0.42902 0.40189 0.0
C391 C 0.17282 0.42943 0.235 0.0
H392 H 0.88812 0.26732 0.95033 0.0
H393 H 0.71986 0.06857 0.80718 0.0
H394 H 0.87801 0.27292 0.83736 0.0
H395 H 0.9156 0.30793 0.84784 0.0
H396 H 0.95432 0.27632 0.82921 0.0
H397 H 0.91638 0.24107 0.81908 0.0
H398 H 0.84114 0.23775 0.86781 0.0
H399 H 0.85588 0.25189 0.90332 0.0
H400 H 0.90917 0.23357 0.89843 0.0
H401 H 0.89406 0.21924 0.86301 0.0
H402 H 0.7952 0.19797 0.84561 0.0
H403 H 0.76841 0.17944 0.87491 0.0
H404 H 0.81231 0.1535 0.89938 0.0
H405 H 0.83939 0.17264 0.87001 0.0
H406 H 0.7864 0.18472 0.79987 0.0
H407 H 0.74829 0.14823 0.79371 0.0
H408 H 0.77821 0.10966 0.82169 0.0
H409 H 0.81633 0.14627 0.82749 0.0
H410 H 0.82381 0.22149 0.77121 0.0
H411 H 0.80239 0.20394 0.73826 0.0
H412 H 0.81547 0.148 0.74851 0.0
H413 H 0.83748 0.1661 0.78108 0.0
H414 H 0.86627 0.26521 0.79219 0.0
H415 H 0.88555 0.29024 0.76173 0.0
H416 H 0.90808 0.24393 0.74329 0.0
H417 H 0.8881 0.21862 0.77373 0.0
O418 O 0.88248 0.2615 0.93632 0.0
O419 O 0.90963 0.25189 0.93296 0.0
O420 O 0.72023 0.10389 0.79508 0.0
O421 O 0.73472 0.08325 0.80943 0.0
C422 C 0.87154 0.23229 0.82395 0.0
C423 C 0.85772 0.21908 0.84127 0.0
C424 C 0.83534 0.19842 0.8379 0.0
C425 C 0.82744 0.19023 0.81734 0.0
C426 C 0.84135 0.20336 0.80002 0.0
C427 C 0.86309 0.22475 0.80331 0.0
C428 C 0.89454 0.25449 0.82762 0.0
C429 C 0.89465 0.27372 0.83528 0.0
C430 C 0.91616 0.29374 0.84112 0.0
C431 C 0.93794 0.29486 0.83939 0.0
C432 C 0.9378 0.27585 0.83091 0.0
C433 C 0.91623 0.25582 0.825 0.0
C434 C 0.86645 0.22735 0.86293 0.0
C435 C 0.85587 0.23665 0.87451 0.0
C436 C 0.86439 0.24478 0.89476 0.0
C437 C 0.8837 0.24385 0.90373 0.0
C438 C 0.89426 0.23453 0.89201 0.0
C439 C 0.88568 0.22633 0.87179 0.0
C440 C 0.81912 0.18652 0.85566 0.0
C441 C 0.79894 0.18816 0.85724 0.0
C442 C 0.7836 0.17746 0.87395 0.0
C443 C 0.7881 0.16482 0.88943 0.0
C444 C 0.80845 0.16326 0.88782 0.0
C445 C 0.82385 0.17405 0.87104 0.0
C446 C 0.80415 0.1681 0.81396 0.0
C447 C 0.78471 0.16836 0.80455 0.0
C448 C 0.76295 0.1475 0.80111 0.0
C449 C 0.76022 0.12601 0.80717 0.0
C450 C 0.77971 0.12588 0.8168 0.0
C451 C 0.80148 0.14676 0.82016 0.0
C452 C 0.83218 0.19505 0.77848 0.0
C453 C 0.82265 0.20584 0.76599 0.0
C454 C 0.81021 0.19565 0.74732 0.0
C455 C 0.80702 0.17445 0.74091 0.0
C456 C 0.81779 0.16443 0.7529 0.0
C457 C 0.8303 0.17468 0.77154 0.0
C458 C 0.87593 0.24021 0.78521 0.0
C459 C 0.87556 0.2606 0.78166 0.0
C460 C 0.88668 0.27492 0.76427 0.0
C461 C 0.8985 0.26919 0.75008 0.0
C462 C 0.89893 0.24874 0.75377 0.0
C463 C 0.88769 0.23434 0.7712 0.0
C464 C 0.89278 0.25262 0.9252 0.0
C465 C 0.73716 0.10379 0.8035 0.0
H466 H 0.66344 0.78807 0.17689 0.0
H467 H 0.73462 0.96475 0.35205 0.0
H468 H 0.64628 0.76537 0.28908 0.0
H469 H 0.6402 0.73084 0.27197 0.0
H470 H 0.71194 0.74986 0.29073 0.0
H471 H 0.71797 0.7848 0.30753 0.0
H472 H 0.65334 0.80704 0.26334 0.0
H473 H 0.65104 0.79834 0.22611 0.0
H474 H 0.72095 0.80723 0.23171 0.0
H475 H 0.72312 0.81616 0.26887 0.0
H476 H 0.65588 0.84523 0.29339 0.0
H477 H 0.65198 0.87184 0.26917 0.0
H478 H 0.71986 0.89273 0.24265 0.0
H479 H 0.72392 0.86615 0.26747 0.0
H480 H 0.66177 0.85052 0.33684 0.0
H481 H 0.66845 0.88717 0.34986 0.0
H482 H 0.74149 0.92287 0.32949 0.0
H483 H 0.73467 0.88596 0.31689 0.0
H484 H 0.65256 0.80646 0.35829 0.0
H485 H 0.64792 0.82233 0.39015 0.0
H486 H 0.72402 0.87263 0.39271 0.0
H487 H 0.72834 0.85676 0.36047 0.0
H488 H 0.64589 0.76408 0.33432 0.0
H489 H 0.63599 0.73536 0.36264 0.0
H490 H 0.7089 0.77543 0.38644 0.0
H491 H 0.71852 0.80428 0.3581 0.0
O492 O 0.66479 0.79172 0.19161 0.0
O493 O 0.70074 0.7964 0.19534 0.0
O494 O 0.69391 0.93074 0.35751 0.0
O495 O 0.73143 0.95005 0.34686 0.0
C496 C 0.68729 0.80031 0.30656 0.0
C497 C 0.68966 0.81719 0.29141 0.0
C498 C 0.6924 0.83824 0.29787 0.0
C499 C 0.69422 0.84304 0.31942 0.0
C500 C 0.69192 0.82622 0.33459 0.0
C501 C 0.68802 0.80466 0.32817 0.0
C502 C 0.68257 0.77757 0.29944 0.0
C503 C 0.6605 0.76182 0.28983 0.0
C504 C 0.65705 0.74205 0.28015 0.0
C505 C 0.67563 0.73764 0.27992 0.0
C506 C 0.69739 0.75293 0.29045 0.0
C507 C 0.70081 0.77274 0.30019 0.0
C508 C 0.68846 0.81237 0.26873 0.0
C509 C 0.66821 0.80728 0.25644 0.0
C510 C 0.66691 0.80224 0.2352 0.0
C511 C 0.68582 0.8021 0.22592 0.0
C512 C 0.70609 0.80721 0.23835 0.0
C513 C 0.70738 0.81231 0.25956 0.0
C514 C 0.69032 0.85401 0.28237 0.0
C515 C 0.67003 0.85568 0.28249 0.0
C516 C 0.66785 0.8709 0.26869 0.0
C517 C 0.68578 0.88454 0.25426 0.0
C518 C 0.70584 0.88241 0.25369 0.0
C519 C 0.70818 0.86732 0.26779 0.0
C520 C 0.69783 0.86556 0.32616 0.0
C521 C 0.67922 0.86627 0.33527 0.0
C522 C 0.68307 0.88723 0.34264 0.0
C523 C 0.70555 0.90795 0.3408 0.0
C524 C 0.72399 0.90724 0.33122 0.0
C525 C 0.72014 0.88621 0.32395 0.0
C526 C 0.69074 0.83058 0.35701 0.0
C527 C 0.66836 0.82023 0.36624 0.0
C528 C 0.66576 0.82942 0.38446 0.0
C529 C 0.68556 0.84908 0.39377 0.0
C530 C 0.70836 0.8578 0.38566 0.0
C531 C 0.71093 0.84859 0.36741 0.0
C532 C 0.68295 0.78615 0.34407 0.0
C533 C 0.65982 0.7664 0.34542 0.0
C534 C 0.65421 0.75002 0.36162 0.0
C535 C 0.67165 0.7531 0.37684 0.0
C536 C 0.69499 0.77268 0.37514 0.0
C537 C 0.70058 0.78908 0.35889 0.0
C538 C 0.68433 0.79659 0.20339 0.0
C539 C 0.70984 0.93021 0.3489 0.0
H540 H 0.82563 0.62138 0.69378 0.0
H541 H 0.98586 0.56781 0.83868 0.0
H542 H 0.84839 0.63859 0.80491 0.0
H543 H 0.81234 0.63714 0.79196 0.0
H544 H 0.76931 0.56698 0.81708 0.0
H545 H 0.80567 0.5683 0.82916 0.0
H546 H 0.88122 0.63466 0.77151 0.0
H547 H 0.8637 0.63537 0.73716 0.0
H548 H 0.8015 0.56752 0.75067 0.0
H549 H 0.8194 0.56688 0.78481 0.0
H550 H 0.92514 0.62746 0.78465 0.0
H551 H 0.94055 0.61898 0.75405 0.0
H552 H 0.87524 0.55144 0.74935 0.0
H553 H 0.86014 0.55997 0.7799 0.0
H554 H 0.93854 0.63412 0.83144 0.0
H555 H 0.97334 0.63057 0.83782 0.0
H556 H 0.92927 0.55665 0.82594 0.0
H557 H 0.89457 0.56044 0.81983 0.0
H558 H 0.91254 0.63784 0.86532 0.0
H559 H 0.9411 0.63908 0.89179 0.0
H560 H 0.90556 0.56404 0.88976 0.0
H561 H 0.87749 0.56309 0.86302 0.0
H562 H 0.85516 0.63427 0.85762 0.0
H563 H 0.83099 0.62928 0.88789 0.0
H564 H 0.81223 0.55767 0.89485 0.0
H565 H 0.83675 0.56305 0.86503 0.0
O566 O 0.83232 0.62064 0.70735 0.0
O567 O 0.80065 0.58585 0.71515 0.0
O568 O 0.99436 0.60787 0.84177 0.0
O569 O 0.97251 0.5698 0.83577 0.0
C570 C 0.8514 0.60218 0.82008 0.0
C571 C 0.862 0.60077 0.80175 0.0
C572 C 0.88228 0.59884 0.8034 0.0
C573 C 0.89263 0.59939 0.82328 0.0
C574 C 0.88192 0.60049 0.84163 0.0
C575 C 0.86093 0.60125 0.8401 0.0
C576 C 0.82966 0.60351 0.81783 0.0
C577 C 0.83113 0.62318 0.80817 0.0
C578 C 0.81045 0.62231 0.80081 0.0
C579 C 0.7879 0.60178 0.80318 0.0
C580 C 0.78642 0.58287 0.81462 0.0
C581 C 0.80715 0.5837 0.82182 0.0
C582 C 0.85151 0.60081 0.78069 0.0
C583 C 0.86387 0.61993 0.76696 0.0
C584 C 0.85379 0.62031 0.74738 0.0
C585 C 0.83116 0.60154 0.74119 0.0
C586 C 0.81893 0.58229 0.75495 0.0
C587 C 0.82908 0.5819 0.77448 0.0
C588 C 0.89151 0.59435 0.78444 0.0
C589 C 0.91421 0.61087 0.77695 0.0
C590 C 0.92297 0.60599 0.75954 0.0
C591 C 0.90906 0.58457 0.74926 0.0
C592 C 0.88623 0.56822 0.75672 0.0
C593 C 0.87759 0.57303 0.77419 0.0
C594 C 0.9141 0.59754 0.82518 0.0
C595 C 0.93651 0.61722 0.83007 0.0
C596 C 0.95632 0.61513 0.83375 0.0
C597 C 0.95406 0.59329 0.83247 0.0
C598 C 0.93163 0.5737 0.82709 0.0
C599 C 0.91181 0.57582 0.82348 0.0
C600 C 0.89301 0.60039 0.86227 0.0
C601 C 0.91032 0.62162 0.87129 0.0
C602 C 0.92671 0.62229 0.88632 0.0
C603 C 0.92589 0.6017 0.8925 0.0
C604 C 0.90695 0.58024 0.88497 0.0
C605 C 0.89066 0.57961 0.86995 0.0
C606 C 0.84786 0.59909 0.85927 0.0
C607 C 0.84604 0.61764 0.86591 0.0
C608 C 0.83209 0.61467 0.88309 0.0
C609 C 0.81964 0.59306 0.89386 0.0
C610 C 0.82188 0.57467 0.88725 0.0
C611 C 0.83586 0.57768 0.87016 0.0
C612 C 0.82039 0.60211 0.72048 0.0
C613 C 0.97491 0.59087 0.83693 0.0
H614 H 0.25986 0.81733 0.45275 0.0
H615 H 0.14936 0.65068 0.271 0.0
H616 H 0.28764 0.8481 0.34555 0.0
H617 H 0.3217 0.87658 0.36706 0.0
H618 H 0.36227 0.84689 0.34852 0.0
H619 H 0.32792 0.81808 0.32767 0.0
H620 H 0.23812 0.80364 0.36272 0.0
H621 H 0.24157 0.81027 0.40051 0.0
H622 H 0.30091 0.79984 0.40489 0.0
H623 H 0.29704 0.79293 0.36716 0.0
H624 H 0.19847 0.7591 0.33455 0.0
H625 H 0.16925 0.72785 0.35754 0.0
H626 H 0.22407 0.71579 0.38161 0.0
H627 H 0.25297 0.74683 0.35862 0.0
H628 H 0.20693 0.76568 0.28458 0.0
H629 H 0.17338 0.73019 0.2692 0.0
H630 H 0.20098 0.69005 0.29828 0.0
H631 H 0.23458 0.72573 0.31334 0.0
H632 H 0.24935 0.80442 0.26217 0.0
H633 H 0.24257 0.79142 0.22565 0.0
H634 H 0.26417 0.74267 0.24302 0.0
H635 H 0.27099 0.75584 0.27918 0.0
H636 H 0.29273 0.8511 0.29453 0.0
H637 H 0.3246 0.8801 0.27211 0.0
H638 H 0.34464 0.8303 0.25952 0.0
H639 H 0.31338 0.80183 0.28262 0.0
O640 O 0.25873 0.81452 0.43785 0.0
O641 O 0.28925 0.80916 0.43923 0.0
O642 O 0.14905 0.68642 0.2622 0.0
O643 O 0.1624 0.66497 0.2769 0.0
C644 C 0.2834 0.81081 0.32584 0.0
C645 C 0.26536 0.7942 0.33921 0.0
C646 C 0.24557 0.77371 0.3308 0.0
C647 C 0.24368 0.76992 0.30902 0.0
C648 C 0.26178 0.78642 0.29569 0.0
C649 C 0.28157 0.80697 0.30403 0.0
C650 C 0.30529 0.83097 0.33516 0.0
C651 C 0.30408 0.84812 0.34581 0.0
C652 C 0.32356 0.86439 0.35803 0.0
C653 C 0.34455 0.86376 0.35969 0.0
C654 C 0.34619 0.84753 0.34783 0.0
C655 C 0.32671 0.83125 0.33571 0.0
C656 C 0.26742 0.79797 0.3622 0.0
C657 C 0.2518 0.80274 0.3719 0.0
C658 C 0.25384 0.80655 0.39347 0.0
C659 C 0.27157 0.80566 0.40571 0.0
C660 C 0.2871 0.80072 0.39592 0.0
C661 C 0.28498 0.79683 0.37437 0.0
C662 C 0.22785 0.75532 0.34504 0.0
C663 C 0.20411 0.74971 0.34485 0.0
C664 C 0.18747 0.73185 0.35791 0.0
C665 C 0.19441 0.71947 0.37146 0.0
C666 C 0.21827 0.72527 0.37163 0.0
C667 C 0.23479 0.74295 0.35849 0.0
C668 C 0.22309 0.74823 0.30012 0.0
C669 C 0.20567 0.7492 0.28759 0.0
C670 C 0.18653 0.7289 0.27885 0.0
C671 C 0.18448 0.70726 0.28253 0.0
C672 C 0.20199 0.7064 0.29515 0.0
C673 C 0.22115 0.72673 0.30383 0.0
C674 C 0.26062 0.78102 0.27321 0.0
C675 C 0.25302 0.79127 0.2579 0.0
C676 C 0.24905 0.78374 0.23716 0.0
C677 C 0.25284 0.76602 0.23149 0.0
C678 C 0.26142 0.75656 0.2468 0.0
C679 C 0.26521 0.76396 0.26747 0.0
C680 C 0.3006 0.8243 0.29004 0.0
C681 C 0.30404 0.84651 0.28692 0.0
C682 C 0.32216 0.86298 0.274 0.0
C683 C 0.33716 0.85752 0.26395 0.0
C684 C 0.33363 0.83521 0.26719 0.0
C685 C 0.31559 0.8188 0.28018 0.0
C686 C 0.27379 0.80987 0.4286 0.0
C687 C 0.16422 0.68566 0.27323 0.0
H688 H 0.50475 0.26761 0.65845 0.0
H689 H 0.44485 0.07784 0.82351 0.0
H690 H 0.52056 0.28122 0.77484 0.0
H691 H 0.52586 0.31653 0.75781 0.0
H692 H 0.45049 0.2895 0.7639 0.0
H693 H 0.44565 0.25457 0.78174 0.0
H694 H 0.51537 0.24302 0.74529 0.0
H695 H 0.51775 0.2548 0.70831 0.0
H696 H 0.44504 0.23878 0.70941 0.0
H697 H 0.44286 0.22686 0.74634 0.0
H698 H 0.51335 0.20075 0.77254 0.0
H699 H 0.51804 0.17809 0.74636 0.0
H700 H 0.44875 0.15776 0.71918 0.0
H701 H 0.4441 0.18048 0.74572 0.0
H702 H 0.50879 0.19417 0.81838 0.0
H703 H 0.50545 0.15751 0.8293 0.0
H704 H 0.43353 0.11924 0.80295 0.0
H705 H 0.43699 0.15607 0.79239 0.0
H706 H 0.51415 0.23594 0.84112 0.0
H707 H 0.51783 0.22156 0.87589 0.0
H708 H 0.44382 0.16543 0.87128 0.0
H709 H 0.44013 0.1804 0.83677 0.0
H710 H 0.51873 0.27833 0.81672 0.0
H711 H 0.52534 0.30494 0.84479 0.0
H712 H 0.45262 0.25857 0.86425 0.0
H713 H 0.44611 0.23204 0.83591 0.0
O714 O 0.50339 0.26273 0.67303 0.0
O715 O 0.46599 0.2543 0.67445 0.0
O716 O 0.48362 0.1131 0.83284 0.0
O717 O 0.44665 0.09259 0.81937 0.0
C718 C 0.47911 0.24262 0.78635 0.0
C719 C 0.47769 0.22736 0.77096 0.0
C720 C 0.47613 0.20634 0.77704 0.0
C721 C 0.47491 0.20005 0.79849 0.0
C722 C 0.47613 0.21521 0.81393 0.0
C723 C 0.47857 0.23669 0.80786 0.0
C724 C 0.48276 0.26545 0.77956 0.0
C725 C 0.50535 0.28326 0.77299 0.0
C726 C 0.50825 0.30326 0.76303 0.0
C727 C 0.48851 0.30569 0.75915 0.0
C728 C 0.46609 0.28829 0.76675 0.0
C729 C 0.46326 0.26832 0.77694 0.0
C730 C 0.47893 0.23403 0.74841 0.0
C731 C 0.49995 0.24194 0.73745 0.0
C732 C 0.50127 0.24872 0.71636 0.0
C733 C 0.48158 0.24775 0.7059 0.0
C734 C 0.46052 0.23975 0.71699 0.0
C735 C 0.45922 0.23294 0.73806 0.0
C736 C 0.47831 0.19209 0.76113 0.0
C737 C 0.49906 0.1912 0.76108 0.0
C738 C 0.50168 0.17822 0.74614 0.0
C739 C 0.48368 0.16601 0.73082 0.0
C740 C 0.46294 0.16708 0.73076 0.0
C741 C 0.46023 0.17996 0.74589 0.0
C742 C 0.47305 0.17776 0.80478 0.0
C743 C 0.49228 0.17785 0.81511 0.0
C744 C 0.49035 0.15689 0.82126 0.0
C745 C 0.46918 0.13543 0.81704 0.0
C746 C 0.45005 0.13544 0.80648 0.0
C747 C 0.45198 0.15643 0.8004 0.0
C748 C 0.47689 0.20919 0.83643 0.0
C749 C 0.49854 0.22099 0.84792 0.0
C750 C 0.50068 0.21258 0.86766 0.0
C751 C 0.4812 0.19217 0.87621 0.0
C752 C 0.4591 0.18127 0.86521 0.0
C753 C 0.45696 0.18974 0.84548 0.0
C754 C 0.48185 0.25342 0.82409 0.0
C755 C 0.50407 0.27415 0.82676 0.0
C756 C 0.50783 0.2893 0.84283 0.0
C757 C 0.48947 0.28388 0.85669 0.0
C758 C 0.46714 0.26313 0.85391 0.0
C759 C 0.46335 0.24805 0.83769 0.0
C760 C 0.48308 0.25509 0.68353 0.0
C761 C 0.46702 0.1131 0.82359 0.0
H762 H 0.19476 0.51348 0.03185 0.0
H763 H 0.21412 0.50063 0.05772 0.0
H764 H 0.20246 0.53626 0.10617 0.0
H765 H 0.18411 0.55002 0.08004 0.0
H766 H 0.24575 0.54111 0.11106 0.0
H767 H 0.17591 0.44813 0.09871 0.0
H768 H 0.19159 0.46293 0.07535 0.0
H769 H 0.17343 0.47165 0.08751 0.0
C770 C 0.19703 0.51911 0.04791 0.0
C771 C 0.18847 0.5331 0.05398 0.0
C772 C 0.2077 0.51146 0.06273 0.0
C773 C 0.20933 0.51711 0.08395 0.0
C774 C 0.20138 0.53167 0.08989 0.0
H775 H 0.21986 0.44392 0.19268 0.0
H776 H 0.2078 0.45932 0.1628 0.0
C777 C 0.19097 0.53955 0.07502 0.0
C778 C 0.21844 0.50718 0.10014 0.0
H779 H 0.20836 0.45576 0.12149 0.0
C780 C 0.23763 0.52245 0.11333 0.0
C781 C 0.20755 0.48281 0.10329 0.0
C782 C 0.18583 0.46541 0.09062 0.0
C783 C 0.24619 0.51405 0.12965 0.0
C784 C 0.23569 0.48968 0.13245 0.0
C785 C 0.21659 0.47443 0.11917 0.0
C786 C 0.24316 0.47957 0.14989 0.0
C787 C 0.26576 0.53138 0.14418 0.0
C788 C 0.26695 0.48537 0.15235 0.0
C789 C 0.27392 0.47668 0.16955 0.0
C790 C 0.2571 0.46165 0.18431 0.0
C791 C 0.23314 0.45518 0.18137 0.0
C792 C 0.22626 0.46408 0.16436 0.0
H793 H 0.26729 0.54857 0.14337 0.0
H794 H 0.26256 0.5249 0.16068 0.0
H795 H 0.2831 0.5341 0.13956 0.0
H796 H 0.28018 0.49679 0.14109 0.0
H797 H 0.29247 0.48182 0.1714 0.0
H798 H 0.67123 0.04219 0.58852 0.0
H799 H 0.70323 0.06436 0.6148 0.0
H800 H 0.65911 0.08496 0.6434 0.0
H801 H 0.62711 0.06253 0.61734 0.0
H802 H 0.72702 0.11197 0.62274 0.0
H803 H 0.67997 0.05968 0.69319 0.0
H804 H 0.66974 0.04931 0.66687 0.0
H805 H 0.66323 0.06937 0.67801 0.0
C806 C 0.66846 0.05133 0.6006 0.0
C807 C 0.64691 0.05072 0.60122 0.0
C808 C 0.68664 0.06397 0.6155 0.0
C809 C 0.68337 0.07599 0.63121 0.0
C810 C 0.66178 0.07538 0.63169 0.0
H811 H 0.76358 0.16872 0.73149 0.0
H812 H 0.73515 0.14535 0.70368 0.0
C813 C 0.64362 0.06273 0.61684 0.0
C814 C 0.70277 0.08984 0.64671 0.0
H815 H 0.71534 0.09681 0.69928 0.0
C816 C 0.72461 0.10854 0.63948 0.0
C817 C 0.69954 0.08524 0.6685 0.0
C818 C 0.67694 0.06467 0.67713 0.0
C819 C 0.74302 0.12334 0.65354 0.0
C820 C 0.7395 0.11909 0.67534 0.0
C821 C 0.71788 0.10008 0.68254 0.0
C822 C 0.75768 0.13453 0.69106 0.0
C823 C 0.76574 0.14384 0.64505 0.0
C824 C 0.77984 0.1363 0.69304 0.0
C825 C 0.79625 0.14982 0.70885 0.0
C826 C 0.79071 0.16173 0.72294 0.0
C827 C 0.76861 0.16015 0.72065 0.0
C828 C 0.75224 0.14664 0.70489 0.0
H829 H 0.7637 0.14743 0.62822 0.0
H830 H 0.77141 0.15978 0.65409 0.0
H831 H 0.7802 0.14007 0.64659 0.0
H832 H 0.78421 0.1268 0.68268 0.0
H833 H 0.81316 0.15075 0.7102 0.0
H834 H 0.64587 0.61202 0.12311 0.0
H835 H 0.6579 0.64107 0.15032 0.0
H836 H 0.63167 0.58671 0.19782 0.0
H837 H 0.61928 0.55749 0.17073 0.0
H838 H 0.62675 0.64196 0.17845 0.0
H839 H 0.69884 0.63611 0.22051 0.0
H840 H 0.6882 0.62499 0.19443 0.0
H841 H 0.67125 0.60868 0.21686 0.0
C842 C 0.64268 0.60623 0.13934 0.0
C843 C 0.63157 0.58241 0.14473 0.0
C844 C 0.6497 0.62287 0.15487 0.0
C845 C 0.64592 0.61605 0.17608 0.0
C846 C 0.63521 0.59237 0.18157 0.0
H847 H 0.6365 0.69326 0.27683 0.0
H848 H 0.62998 0.66318 0.2524 0.0
C849 C 0.62814 0.5757 0.16605 0.0
C850 C 0.65165 0.63355 0.19229 0.0
H851 H 0.68548 0.6583 0.23667 0.0
C852 C 0.63964 0.64559 0.19114 0.0
C853 C 0.6686 0.63833 0.20872 0.0
C854 C 0.68265 0.62653 0.21019 0.0
C855 C 0.64386 0.66208 0.20618 0.0
C856 C 0.66032 0.6664 0.22293 0.0
C857 C 0.67266 0.65469 0.22392 0.0
C858 C 0.66517 0.68347 0.23927 0.0
C859 C 0.6309 0.67496 0.2039 0.0
C860 C 0.6874 0.70445 0.24045 0.0
C861 C 0.69116 0.7217 0.25432 0.0
C862 C 0.67274 0.71819 0.26731 0.0
C863 C 0.65089 0.69664 0.26679 0.0
C864 C 0.64715 0.67944 0.25289 0.0
H865 H 0.62279 0.67322 0.18794 0.0
H866 H 0.61636 0.6677 0.21539 0.0
H867 H 0.64322 0.69377 0.20719 0.0
H868 H 0.70151 0.70784 0.23003 0.0
H869 H 0.7081 0.73819 0.25415 0.0
H870 H 0.9515 0.48282 0.60668 0.0
H871 H 0.93634 0.49748 0.63253 0.0
H872 H 0.00079 0.56544 0.62832 0.0
H873 H 0.01591 0.55106 0.6022 0.0
H874 H 0.9594 0.51732 0.67177 0.0
H875 H 0.94616 0.57869 0.62158 0.0
H876 H 0.94887 0.55581 0.61089 0.0
H877 H 0.97501 0.5821 0.62007 0.0
C878 C 0.96227 0.50098 0.611 0.0
C879 C 0.98489 0.5158 0.60239 0.0
C880 C 0.95365 0.50928 0.62584 0.0
C881 C 0.96735 0.53258 0.63215 0.0
C882 C 0.98981 0.54749 0.62343 0.0
H883 H 0.95364 0.5918 0.74535 0.0
H884 H 0.96818 0.58001 0.71648 0.0
C885 C 0.9985 0.53918 0.60867 0.0
C886 C 0.9587 0.54096 0.64867 0.0
H887 H 0.94229 0.57993 0.65828 0.0
C888 C 0.9556 0.53096 0.66883 0.0
C889 C 0.95363 0.55865 0.64469 0.0
C890 C 0.95586 0.56936 0.62311 0.0
C891 C 0.94784 0.53842 0.68526 0.0
C892 C 0.9433 0.55648 0.68142 0.0
C893 C 0.94604 0.56625 0.66118 0.0
C894 C 0.93514 0.56503 0.69819 0.0
C895 C 0.94425 0.52672 0.70654 0.0
C896 C 0.91201 0.56108 0.69713 0.0
C897 C 0.9037 0.56785 0.71353 0.0
C898 C 0.91846 0.57887 0.73121 0.0
C899 C 0.94191 0.58349 0.73188 0.0
C900 C 0.95017 0.5766 0.71551 0.0
H901 H 0.94372 0.51005 0.70579 0.0
H902 H 0.95927 0.53848 0.71726 0.0
H903 H 0.92741 0.52318 0.71339 0.0
H904 H 0.90022 0.55228 0.68381 0.0
H905 H 0.88565 0.56435 0.71245 0.0
H906 H 0.51856 0.97931 0.14799 0.0
H907 H 0.48773 0.95523 0.17368 0.0
H908 H 0.44798 0.9868 0.15291 0.0
H909 H 0.47883 0.01082 0.12719 0.0
H910 H 0.4694 0.96984 0.2068 0.0
H911 H 0.40038 0.9152 0.14654 0.0
H912 H 0.43179 0.93295 0.14089 0.0
H913 H 0.41452 0.94623 0.14296 0.0
C914 C 0.50328 0.98112 0.14912 0.0
C915 C 0.50085 0.99675 0.13582 0.0
C916 C 0.48575 0.96745 0.16371 0.0
C917 C 0.4655 0.96909 0.165 0.0
C918 C 0.46334 0.98509 0.15195 0.0
H919 H 0.33527 0.88808 0.23571 0.0
H920 H 0.36684 0.91653 0.21281 0.0
C921 C 0.48092 0.99883 0.13741 0.0
C922 C 0.44646 0.95373 0.17977 0.0
H923 H 0.38856 0.90821 0.18178 0.0
C924 C 0.4517 0.95636 0.20138 0.0
C925 C 0.42342 0.93624 0.17258 0.0
C926 C 0.41711 0.93226 0.14948 0.0
C927 C 0.43439 0.94204 0.21607 0.0
C928 C 0.41143 0.92429 0.20889 0.0
C929 C 0.40616 0.92183 0.18725 0.0
C930 C 0.39272 0.90773 0.22348 0.0
C931 C 0.44075 0.94632 0.23913 0.0
C932 C 0.39673 0.89323 0.237 0.0
C933 C 0.37881 0.87712 0.25026 0.0
C934 C 0.3564 0.87499 0.25012 0.0
C935 C 0.35242 0.8895 0.23647 0.0
C936 C 0.37039 0.90566 0.22326 0.0
H937 H 0.456 0.96437 0.24193 0.0
H938 H 0.42529 0.94336 0.24813 0.0
H939 H 0.44607 0.9341 0.24529 0.0
H940 H 0.41364 0.89417 0.23712 0.0
H941 H 0.38258 0.8664 0.2607 0.0
H942 H 0.56126 0.48695 0.64466 0.0
H943 H 0.54983 0.45558 0.67086 0.0
H944 H 0.47631 0.42271 0.64927 0.0
H945 H 0.48797 0.45374 0.62255 0.0
H946 H 0.5189 0.43937 0.70344 0.0
H947 H 0.48955 0.37106 0.64352 0.0
H948 H 0.50579 0.40175 0.63689 0.0
H949 H 0.47433 0.38661 0.64177 0.0
C950 C 0.54266 0.47303 0.64567 0.0
C951 C 0.52543 0.47258 0.63174 0.0
C952 C 0.53613 0.45521 0.66061 0.0
C953 C 0.51227 0.43664 0.66183 0.0
C954 C 0.49488 0.43663 0.64835 0.0
H955 H 0.46753 0.33126 0.76383 0.0
H956 H 0.47104 0.36272 0.74083 0.0
C957 C 0.50147 0.45438 0.63325 0.0
C958 C 0.50598 0.41697 0.67669 0.0
H959 H 0.485 0.3587 0.67891 0.0
C960 C 0.51135 0.42169 0.69814 0.0
C961 C 0.49637 0.39397 0.66965 0.0
C962 C 0.49136 0.38799 0.6467 0.0
C963 C 0.50778 0.40412 0.7127 0.0
C964 C 0.49811 0.38112 0.70566 0.0
C965 C 0.49227 0.37632 0.68428 0.0
C966 C 0.49564 0.36211 0.71979 0.0
C967 C 0.51532 0.41053 0.73532 0.0
C968 C 0.5078 0.35096 0.71532 0.0
C969 C 0.50553 0.3328 0.72816 0.0
C970 C 0.49109 0.32541 0.74589 0.0
C971 C 0.47877 0.33651 0.7503 0.0
C972 C 0.48096 0.35466 0.73731 0.0
H973 H 0.52733 0.42967 0.73721 0.0
H974 H 0.49923 0.40461 0.74472 0.0
H975 H 0.52463 0.40188 0.74184 0.0
H976 H 0.51909 0.3563 0.7018 0.0
H977 H 0.5148 0.32429 0.72395 0.0
H978 H 0.65254 0.9918 0.49321 0.0
H979 H 0.66682 0.97101 0.47395 0.0
H980 H 0.60273 0.90557 0.48896 0.0
H981 H 0.58776 0.92619 0.50723 0.0
H982 H 0.67645 0.93791 0.48739 0.0
H983 H 0.60436 0.90155 0.42619 0.0
H984 H 0.60905 0.92416 0.44357 0.0
H985 H 0.59312 0.89414 0.45226 0.0
C986 C 0.64129 0.97301 0.49212 0.0
C987 C 0.61892 0.9607 0.5017 0.0
C988 C 0.64959 0.96115 0.48128 0.0
C989 C 0.63568 0.93677 0.47975 0.0
C990 C 0.61355 0.92442 0.48956 0.0
H991 H 0.6549 0.83161 0.42675 0.0
H992 H 0.64427 0.85331 0.44918 0.0
C993 C 0.60516 0.93624 0.50026 0.0
C994 C 0.64437 0.92419 0.46812 0.0
H995 H 0.62954 0.8861 0.42823 0.0
C996 C 0.66626 0.92668 0.47438 0.0
C997 C 0.6311 0.90964 0.45107 0.0
C998 C 0.60823 0.90737 0.44272 0.0
C999 C 0.67499 0.91463 0.46428 0.0
C1000 C 0.66145 0.89976 0.4476 0.0
C1001 C 0.63967 0.89734 0.44125 0.0
C1002 C 0.66987 0.88707 0.43595 0.0
C1003 C 0.69846 0.91759 0.47156 0.0
C1004 C 0.68794 0.899 0.42132 0.0
C1005 C 0.69385 0.88669 0.40833 0.0
C1006 C 0.68182 0.8622 0.4098 0.0
C1007 C 0.66437 0.85042 0.42511 0.0
C1008 C 0.65835 0.86276 0.43799 0.0
H1009 H 0.70527 0.92733 0.48645 0.0
H1010 H 0.69649 0.90029 0.47383 0.0
H1011 H 0.71195 0.92729 0.45935 0.0
H1012 H 0.69675 0.91775 0.41934 0.0
H1013 H 0.70697 0.89631 0.3964 0.0
H1014 H 0.67987 0.57191 0.04277 0.0
H1015 H 0.71175 0.58473 0.01739 0.0
H1016 H 0.67808 0.51418 0.99555 0.0
H1017 H 0.64589 0.50159 0.02047 0.0
H1018 H 0.74417 0.57222 0.0118 0.0
H1019 H 0.68439 0.55001 0.94151 0.0
H1020 H 0.67483 0.55055 0.96747 0.0
H1021 H 0.67541 0.52568 0.95918 0.0
C1022 C 0.6794 0.55925 0.03249 0.0
C1023 C 0.66046 0.53589 0.03327 0.0
C1024 C 0.69755 0.56652 0.01807 0.0
C1025 C 0.69703 0.5505 0.00427 0.0
C1026 C 0.67852 0.52695 0.00565 0.0
H1027 H 0.81294 0.5678 0.93035 0.0
H1028 H 0.78403 0.55878 0.95745 0.0
C1029 C 0.66029 0.51973 0.01995 0.0
C1030 C 0.71577 0.55845 0.98838 0.0
H1031 H 0.72404 0.55958 0.93578 0.0
C1032 C 0.7398 0.56957 0.99516 0.0
C1033 C 0.71009 0.55538 0.96664 0.0
C1034 C 0.68481 0.54497 0.95822 0.0
C1035 C 0.75825 0.5772 0.98084 0.0
C1036 C 0.75246 0.57315 0.95918 0.0
C1037 C 0.72847 0.5625 0.95239 0.0
C1038 C 0.77087 0.57957 0.94325 0.0
C1039 C 0.78377 0.58984 0.98904 0.0
C1040 C 0.77282 0.59391 0.926 0.0
C1041 C 0.78902 0.59874 0.91023 0.0
C1042 C 0.8036 0.58927 0.91135 0.0
C1043 C 0.80185 0.57521 0.92885 0.0
C1044 C 0.78554 0.57028 0.94454 0.0
H1045 H 0.78559 0.5978 0.00448 0.0
H1046 H 0.78963 0.57722 0.9912 0.0
H1047 H 0.79592 0.60376 0.97791 0.0
H1048 H 0.76155 0.60113 0.92459 0.0
H1049 H 0.78958 0.60931 0.89685 0.0
H1050 H 0.06254 0.57067 0.5125 0.0
H1051 H 0.08383 0.60325 0.48746 0.0
H1052 H 0.08254 0.55603 0.44284 0.0
H1053 H 0.06174 0.52361 0.46812 0.0
H1054 H 0.12688 0.59426 0.44867 0.0
H1055 H 0.06149 0.62131 0.43394 0.0
H1056 H 0.06822 0.61997 0.4613 0.0
H1057 H 0.05351 0.59372 0.44625 0.0
C1058 C 0.06662 0.56735 0.49722 0.0
C1059 C 0.06068 0.54486 0.49209 0.0
C1060 C 0.07857 0.58584 0.4829 0.0
C1061 C 0.08447 0.582 0.46317 0.0
C1062 C 0.07803 0.55935 0.45793 0.0
H1063 H 0.14872 0.68462 0.36122 0.0
H1064 H 0.12111 0.65115 0.38315 0.0
C1065 C 0.06618 0.54089 0.47228 0.0
C1066 C 0.09901 0.60185 0.44868 0.0
H1067 H 0.10134 0.64803 0.42263 0.0
C1068 C 0.1212 0.60591 0.44285 0.0
C1069 C 0.09146 0.61688 0.44093 0.0
C1070 C 0.06726 0.61266 0.44574 0.0
C1071 C 0.13634 0.62491 0.4299 0.0
C1072 C 0.12929 0.64055 0.42293 0.0
C1073 C 0.10681 0.63617 0.42825 0.0
C1074 C 0.14518 0.6616 0.4102 0.0
C1075 C 0.15969 0.62798 0.42367 0.0
C1076 C 0.16753 0.67884 0.41839 0.0
C1077 C 0.18327 0.69791 0.40595 0.0
C1078 C 0.17689 0.7002 0.38513 0.0
C1079 C 0.15408 0.68339 0.37724 0.0
C1080 C 0.13834 0.66424 0.3897 0.0
H1081 H 0.15948 0.61146 0.42552 0.0
H1082 H 0.16373 0.63419 0.40713 0.0
H1083 H 0.17435 0.64116 0.43387 0.0
H1084 H 0.17292 0.67737 0.43434 0.0
H1085 H 0.20054 0.71081 0.4126 0.0
H1086 H 0.55412 0.11969 0.02996 0.0
H1087 H 0.54147 0.13914 0.00453 0.0
H1088 H 0.47462 0.07434 0.99425 0.0
H1089 H 0.48706 0.05471 0.01988 0.0
H1090 H 0.49764 0.09619 0.95763 0.0
H1091 H 0.49261 0.15859 0.00788 0.0
H1092 H 0.52048 0.15991 0.01082 0.0
H1093 H 0.49326 0.13378 0.01847 0.0
C1094 C 0.5365 0.10965 0.02266 0.0
C1095 C 0.52158 0.08564 0.027 0.0
C1096 C 0.52928 0.12082 0.00813 0.0
C1097 C 0.50696 0.10826 0.99773 0.0
C1098 C 0.49188 0.08437 0.00219 0.0
H1099 H 0.45113 0.17183 0.90938 0.0
H1100 H 0.45557 0.15059 0.93945 0.0
C1101 C 0.49907 0.07316 0.01674 0.0
C1102 C 0.50028 0.11971 0.98102 0.0
H1103 H 0.49392 0.16614 0.97077 0.0
C1104 C 0.49655 0.11131 0.96054 0.0
C1105 C 0.49861 0.13928 0.9849 0.0
C1106 C 0.50121 0.1483 0.00674 0.0
C1107 C 0.49214 0.12253 0.9437 0.0
C1108 C 0.49178 0.14285 0.9474 0.0
C1109 C 0.4945 0.1507 0.96798 0.0
C1110 C 0.48951 0.15659 0.92993 0.0
C1111 C 0.4881 0.11266 0.92201 0.0
C1112 C 0.50739 0.16738 0.91497 0.0
C1113 C 0.50491 0.17943 0.89786 0.0
C1114 C 0.48453 0.18103 0.89541 0.0
C1115 C 0.46692 0.17072 0.91075 0.0
C1116 C 0.46947 0.15869 0.92795 0.0
H1117 H 0.4827 0.09405 0.92261 0.0
H1118 H 0.47412 0.11417 0.91315 0.0
H1119 H 0.50494 0.12261 0.91327 0.0
H1120 H 0.52313 0.16619 0.91639 0.0
H1121 H 0.51864 0.18687 0.8862 0.0
H1122 H 0.49107 0.47281 0.50085 0.0
H1123 H 0.46561 0.46156 0.46914 0.0
H1124 H 0.45752 0.52029 0.47584 0.0
H1125 H 0.48386 0.53233 0.50692 0.0
H1126 H 0.41931 0.44977 0.46267 0.0
H1127 H 0.47989 0.52919 0.41619 0.0
H1128 H 0.48923 0.52185 0.44066 0.0
H1129 H 0.47216 0.53561 0.44058 0.0
C1130 C 0.48412 0.48351 0.49545 0.0
C1131 C 0.48976 0.50364 0.50635 0.0
C1132 C 0.46941 0.47694 0.47741 0.0
C1133 C 0.46007 0.49035 0.46988 0.0
C1134 C 0.46499 0.50999 0.48109 0.0
H1135 H 0.36227 0.48228 0.3734 0.0
H1136 H 0.38901 0.49045 0.4038 0.0
C1137 C 0.4798 0.51666 0.49905 0.0
C1138 C 0.44511 0.48379 0.45036 0.0
H1139 H 0.44035 0.50473 0.4021 0.0
C1140 C 0.42402 0.46167 0.44933 0.0
C1141 C 0.45139 0.4993 0.43292 0.0
C1142 C 0.47452 0.52271 0.4325 0.0
C1143 C 0.40862 0.455 0.43161 0.0
C1144 C 0.41458 0.47081 0.4145 0.0
C1145 C 0.43585 0.49271 0.41533 0.0
C1146 C 0.3984 0.46546 0.39599 0.0
C1147 C 0.38571 0.43142 0.43148 0.0
C1148 C 0.39499 0.44879 0.38146 0.0
C1149 C 0.37993 0.44428 0.36382 0.0
C1150 C 0.36809 0.45642 0.36045 0.0
C1151 C 0.37154 0.47301 0.37519 0.0
C1152 C 0.38664 0.47757 0.39269 0.0
H1153 H 0.38221 0.42244 0.44703 0.0
H1154 H 0.37036 0.43323 0.42679 0.0
H1155 H 0.3868 0.42027 0.41978 0.0
H1156 H 0.40415 0.43945 0.38368 0.0
H1157 H 0.37778 0.43151 0.35271 0.0
H1158 H 0.12119 0.46784 0.93805 0.0
H1159 H 0.09772 0.43331 0.9161 0.0
H1160 H 0.03443 0.43519 0.92577 0.0
H1161 H 0.05746 0.46915 0.94794 0.0
H1162 H 0.02952 0.39061 0.93278 0.0
H1163 H 0.06907 0.43177 0.85584 0.0
H1164 H 0.0893 0.43572 0.87738 0.0
H1165 H 0.07168 0.44873 0.87817 0.0
C1166 C 0.10226 0.46082 0.93551 0.0
C1167 C 0.09121 0.47132 0.94458 0.0
C1168 C 0.08896 0.44126 0.92286 0.0
C1169 C 0.06444 0.43193 0.91918 0.0
C1170 C 0.05338 0.44226 0.92833 0.0
H1171 H 0.95327 0.34112 0.83519 0.0
H1172 H 0.98701 0.37373 0.8537 0.0
C1173 C 0.06661 0.46177 0.94087 0.0
C1174 C 0.04984 0.41102 0.90625 0.0
H1175 H 0.03775 0.39233 0.85569 0.0
C1176 C 0.03148 0.39082 0.91596 0.0
C1177 C 0.05243 0.41156 0.88432 0.0
C1178 C 0.07156 0.4331 0.87316 0.0
C1179 C 0.01513 0.37129 0.90424 0.0
C1180 C 0.01747 0.37191 0.88225 0.0
C1181 C 0.0362 0.39191 0.87257 0.0
C1182 C 0.9993 0.35272 0.86899 0.0
C1183 C 0.99482 0.35057 0.91535 0.0
C1184 C 0.99557 0.3303 0.87096 0.0
C1185 C 0.97622 0.31161 0.86054 0.0
C1186 C 0.96034 0.3151 0.84792 0.0
C1187 C 0.96498 0.33785 0.84506 0.0
C1188 C 0.98433 0.3565 0.85548 0.0
H1189 H 0.99311 0.35461 0.93168 0.0
H1190 H 0.97761 0.34452 0.90672 0.0
H1191 H 0.99801 0.336 0.91601 0.0
H1192 H 0.00712 0.32712 0.88116 0.0
H1193 H 0.97304 0.29428 0.86318 0.0
H1194 H 0.10048 0.61155 0.00645 0.0
H1195 H 0.07088 0.62042 0.99196 0.0
H1196 H 0.0643 0.58388 0.93561 0.0
H1197 H 0.09358 0.5749 0.95004 0.0
H1198 H 0.0668 0.64022 0.9456 0.0
H1199 H 0.99704 0.54972 0.96921 0.0
H1200 H 0.02632 0.56532 0.98177 0.0
H1201 H 0.02258 0.55339 0.95623 0.0
C1202 C 0.09322 0.60615 0.99071 0.0
C1203 C 0.09942 0.59289 0.97917 0.0
C1204 C 0.07636 0.61113 0.9825 0.0
C1205 C 0.0655 0.60276 0.96276 0.0
C1206 C 0.07262 0.59055 0.95082 0.0
H1207 H 0.9477 0.57805 0.88492 0.0
H1208 H 0.98169 0.58022 0.90378 0.0
C1209 C 0.08939 0.58557 0.959 0.0
C1210 C 0.04485 0.60432 0.95542 0.0
H1211 H 0.9845 0.57048 0.94732 0.0
C1212 C 0.04873 0.62515 0.9462 0.0
C1213 C 0.02141 0.58456 0.95632 0.0
C1214 C 0.01639 0.56196 0.96653 0.0
C1215 C 0.02969 0.62639 0.93696 0.0
C1216 C 0.00632 0.60635 0.93726 0.0
C1217 C 0.00244 0.58579 0.94713 0.0
C1218 C 0.98586 0.60563 0.92601 0.0
C1219 C 0.03481 0.64871 0.92613 0.0
C1220 C 0.97682 0.61911 0.93238 0.0
C1221 C 0.95715 0.61775 0.9217 0.0
C1222 C 0.94613 0.60274 0.90462 0.0
C1223 C 0.95534 0.58932 0.89835 0.0
C1224 C 0.97491 0.5907 0.90898 0.0
H1225 H 0.05427 0.66132 0.92435 0.0
H1226 H 0.02592 0.64504 0.91037 0.0
H1227 H 0.02755 0.65703 0.93546 0.0
H1228 H 0.98483 0.6305 0.94569 0.0
H1229 H 0.95043 0.62827 0.9269 0.0
H1230 H 0.52826 0.96455 0.48047 0.0
H1231 H 0.49605 0.94617 0.45375 0.0
H1232 H 0.45378 0.96473 0.48842 0.0
H1233 H 0.48596 0.98279 0.51533 0.0
H1234 H 0.42818 0.91923 0.47528 0.0
H1235 H 0.47761 0.97908 0.40924 0.0
H1236 H 0.4931 0.9664 0.42169 0.0
H1237 H 0.48795 0.98563 0.4362 0.0
C1238 C 0.51203 0.96461 0.48227 0.0
C1239 C 0.50933 0.97493 0.49974 0.0
C1240 C 0.4938 0.95435 0.467 0.0
C1241 C 0.47275 0.95452 0.46892 0.0
C1242 C 0.46997 0.9646 0.48659 0.0
H1243 H 0.36357 0.91001 0.3681 0.0
H1244 H 0.39386 0.93326 0.39513 0.0
C1245 C 0.48821 0.97483 0.5019 0.0
C1246 C 0.45334 0.94342 0.45281 0.0
H1247 H 0.4414 0.94341 0.40025 0.0
C1248 C 0.43098 0.92466 0.45891 0.0
C1249 C 0.45694 0.9508 0.43153 0.0
C1250 C 0.48012 0.97174 0.42427 0.0
C1251 C 0.4124 0.91243 0.44412 0.0
C1252 C 0.41646 0.91894 0.42268 0.0
C1253 C 0.43847 0.93831 0.41669 0.0
C1254 C 0.39843 0.90518 0.40618 0.0
C1255 C 0.3886 0.89256 0.45157 0.0
C1256 C 0.39139 0.88191 0.40326 0.0
C1257 C 0.37418 0.86866 0.38794 0.0
C1258 C 0.36377 0.87847 0.37512 0.0
C1259 C 0.37115 0.90194 0.37784 0.0
C1260 C 0.38846 0.91523 0.3932 0.0
H1261 H 0.38624 0.89405 0.46846 0.0
H1262 H 0.37361 0.89192 0.44239 0.0
H1263 H 0.38763 0.87585 0.44947 0.0
H1264 H 0.39916 0.87396 0.41291 0.0
H1265 H 0.36865 0.85055 0.38646 0.0
H1266 H 0.55983 0.4519 0.98329 0.0
H1267 H 0.54667 0.42327 0.95553 0.0
H1268 H 0.51688 0.36752 0.00171 0.0
H1269 H 0.52955 0.39606 0.02962 0.0
H1270 H 0.56024 0.38969 0.95224 0.0
H1271 H 0.46186 0.34821 0.95753 0.0
H1272 H 0.4829 0.37631 0.96863 0.0
H1273 H 0.47774 0.35013 0.9817 0.0
C1274 C 0.55014 0.43353 0.98754 0.0
C1275 C 0.54561 0.42624 0.00866 0.0
C1276 C 0.54278 0.41722 0.97167 0.0
C1277 C 0.53058 0.39331 0.97656 0.0
C1278 C 0.52596 0.3859 0.9976 0.0
H1279 H 0.47653 0.27179 0.89758 0.0
H1280 H 0.48621 0.29794 0.92701 0.0
C1281 C 0.53341 0.40223 0.01352 0.0
C1282 C 0.52359 0.37627 0.95964 0.0
H1283 H 0.47543 0.33186 0.9338 0.0
C1284 C 0.5417 0.37705 0.94817 0.0
C1285 C 0.4994 0.35972 0.95453 0.0
C1286 C 0.47928 0.35853 0.9661 0.0
C1287 C 0.53629 0.36167 0.9317 0.0
C1288 C 0.51209 0.34543 0.92627 0.0
C1289 C 0.49396 0.3444 0.93795 0.0
C1290 C 0.5053 0.32961 0.9083 0.0
C1291 C 0.55657 0.36271 0.92051 0.0
C1292 C 0.5123 0.33875 0.88796 0.0
C1293 C 0.50682 0.32389 0.87116 0.0
C1294 C 0.49398 0.29958 0.87433 0.0
C1295 C 0.48629 0.29044 0.89461 0.0
C1296 C 0.49188 0.30534 0.91145 0.0
H1297 H 0.57336 0.37118 0.9302 0.0
H1298 H 0.55213 0.34499 0.9164 0.0
H1299 H 0.55996 0.37312 0.90579 0.0
H1300 H 0.52214 0.35742 0.8851 0.0
H1301 H 0.51262 0.33144 0.85566 0.0
H1302 H 0.04066 0.41067 0.46714 0.0
H1303 H 0.06116 0.40198 0.44108 0.0
H1304 H 0.12692 0.46647 0.4552 0.0
H1305 H 0.10669 0.4754 0.48093 0.0
H1306 H 0.08655 0.42883 0.40522 0.0
H1307 H 0.14542 0.41717 0.46191 0.0
H1308 H 0.11913 0.41664 0.46975 0.0
H1309 H 0.14651 0.44399 0.46517 0.0
C1310 C 0.05947 0.42303 0.46461 0.0
C1311 C 0.07211 0.4436 0.47631 0.0
C1312 C 0.07115 0.41799 0.4498 0.0
C1313 C 0.09564 0.43336 0.44654 0.0
C1314 C 0.10815 0.45408 0.45787 0.0
H1315 H 0.20876 0.45911 0.36894 0.0
H1316 H 0.18124 0.45816 0.39401 0.0
C1317 C 0.09655 0.45914 0.47261 0.0
C1318 C 0.10829 0.42826 0.43102 0.0
H1319 H 0.15671 0.42327 0.42596 0.0
C1320 C 0.10165 0.42723 0.40972 0.0
C1321 C 0.12791 0.42607 0.437 0.0
C1322 C 0.13505 0.42578 0.45973 0.0
C1323 C 0.11498 0.42535 0.39413 0.0
C1324 C 0.13522 0.42421 0.40011 0.0
C1325 C 0.14126 0.4243 0.42145 0.0
C1326 C 0.15139 0.42454 0.38448 0.0
C1327 C 0.10802 0.42571 0.37138 0.0
C1328 C 0.14371 0.40585 0.37089 0.0
C1329 C 0.15941 0.40639 0.35642 0.0
C1330 C 0.18301 0.42564 0.35534 0.0
C1331 C 0.19059 0.44423 0.3691 0.0
C1332 C 0.17495 0.44364 0.38355 0.0
H1333 H 0.0944 0.4306 0.36931 0.0
H1334 H 0.12393 0.43817 0.3622 0.0
H1335 H 0.10048 0.40811 0.36478 0.0
H1336 H 0.12567 0.39081 0.37157 0.0
H1337 H 0.15304 0.39185 0.34598 0.0
H1338 H 0.61234 0.08043 0.01023 0.0
H1339 H 0.64457 0.0977 0.98486 0.0
H1340 H 0.69191 0.09383 0.03122 0.0
H1341 H 0.65936 0.07589 0.05639 0.0
H1342 H 0.68844 0.13789 0.9865 0.0
H1343 H 0.69813 0.06132 0.98184 0.0
H1344 H 0.67313 0.05971 0.99414 0.0
H1345 H 0.70153 0.07222 0.00782 0.0
C1346 C 0.62967 0.08329 0.01488 0.0
C1347 C 0.63353 0.07681 0.03506 0.0
C1348 C 0.64802 0.09314 0.00047 0.0
C1349 C 0.67051 0.09668 0.00604 0.0
C1350 C 0.67454 0.09075 0.02644 0.0
H1351 H 0.79959 0.16273 0.93096 0.0
H1352 H 0.77221 0.1461 0.96036 0.0
C1353 C 0.6561 0.08073 0.04082 0.0
C1354 C 0.68965 0.10673 0.99041 0.0
H1355 H 0.72544 0.09522 0.96268 0.0
C1356 C 0.69658 0.12859 0.98135 0.0
C1357 C 0.70023 0.09453 0.98371 0.0
C1358 C 0.69277 0.07056 0.99222 0.0
C1359 C 0.71362 0.13846 0.96563 0.0
C1360 C 0.72392 0.12615 0.9588 0.0
C1361 C 0.71748 0.10458 0.96811 0.0
C1362 C 0.74038 0.13491 0.94109 0.0
C1363 C 0.72038 0.1619 0.95621 0.0
C1364 C 0.73135 0.13359 0.9206 0.0
C1365 C 0.74681 0.14279 0.9038 0.0
C1366 C 0.77165 0.15361 0.90721 0.0
C1367 C 0.78056 0.15434 0.92777 0.0
C1368 C 0.76501 0.14499 0.94459 0.0
H1369 H 0.71376 0.17086 0.96549 0.0
H1370 H 0.74009 0.17329 0.95509 0.0
H1371 H 0.71258 0.15948 0.94007 0.0
H1372 H 0.71232 0.12563 0.91764 0.0
H1373 H 0.7393 0.14149 0.88814 0.0
H1374 H 0.58013 0.58249 0.50979 0.0
H1375 H 0.59455 0.61097 0.48061 0.0
H1376 H 0.64093 0.66558 0.52367 0.0
H1377 H 0.62682 0.63691 0.55278 0.0
H1378 H 0.59243 0.65065 0.47496 0.0
H1379 H 0.68659 0.67321 0.47836 0.0
H1380 H 0.66305 0.64811 0.49194 0.0
H1381 H 0.67609 0.67672 0.50264 0.0
C1382 C 0.59341 0.6006 0.5129 0.0
C1383 C 0.60241 0.60769 0.53336 0.0
C1384 C 0.60162 0.61681 0.49632 0.0
C1385 C 0.61905 0.64032 0.49993 0.0
C1386 C 0.62783 0.64745 0.52047 0.0
H1387 H 0.68575 0.76304 0.41807 0.0
H1388 H 0.6733 0.73575 0.44796 0.0
C1389 C 0.61967 0.6312 0.53707 0.0
C1390 C 0.62767 0.65735 0.48219 0.0
H1391 H 0.6775 0.69567 0.45494 0.0
C1392 C 0.61101 0.66045 0.47054 0.0
C1393 C 0.65194 0.67012 0.47648 0.0
C1394 C 0.67045 0.66678 0.48787 0.0
C1395 C 0.618 0.67615 0.45345 0.0
C1396 C 0.64223 0.68883 0.4477 0.0
C1397 C 0.65894 0.68589 0.45942 0.0
C1398 C 0.6505 0.70513 0.42945 0.0
C1399 C 0.59948 0.67932 0.44186 0.0
C1400 C 0.64222 0.69685 0.40912 0.0
C1401 C 0.64944 0.71235 0.39198 0.0
C1402 C 0.66514 0.73644 0.39487 0.0
C1403 C 0.67386 0.74459 0.41525 0.0
C1404 C 0.66666 0.72905 0.43237 0.0
H1405 H 0.58313 0.6726 0.45115 0.0
H1406 H 0.60677 0.698 0.43794 0.0
H1407 H 0.59425 0.6696 0.42697 0.0
H1408 H 0.6301 0.67837 0.40651 0.0
H1409 H 0.64272 0.70545 0.37646 0.0
H1410 H 0.5326 0.07913 0.57563 0.0
H1411 H 0.52012 0.0996 0.59782 0.0
H1412 H 0.53449 0.06993 0.65307 0.0
H1413 H 0.54727 0.04976 0.63115 0.0
H1414 H 0.4827 0.07871 0.63005 0.0
H1415 H 0.57356 0.14214 0.66174 0.0
H1416 H 0.56855 0.12625 0.63796 0.0
H1417 H 0.56538 0.11219 0.66309 0.0
C1418 C 0.53324 0.07712 0.59251 0.0
C1419 C 0.54093 0.06286 0.60166 0.0
C1420 C 0.52598 0.08868 0.60512 0.0
C1421 C 0.5266 0.08638 0.62703 0.0
C1422 C 0.5341 0.07206 0.63618 0.0
H1423 H 0.50004 0.13669 0.73721 0.0
H1424 H 0.50877 0.11713 0.71076 0.0
C1425 C 0.54121 0.06042 0.62362 0.0
C1426 C 0.51949 0.09891 0.64055 0.0
H1427 H 0.54096 0.13971 0.67878 0.0
C1428 C 0.49541 0.09223 0.64057 0.0
C1429 C 0.53619 0.11651 0.65419 0.0
C1430 C 0.56242 0.1249 0.6542 0.0
C1431 C 0.48739 0.1021 0.65457 0.0
C1432 C 0.50403 0.11932 0.66858 0.0
C1433 C 0.52822 0.1264 0.6681 0.0
C1434 C 0.49681 0.12977 0.68442 0.0
C1435 C 0.4611 0.09341 0.65483 0.0
C1436 C 0.48697 0.1432 0.67838 0.0
C1437 C 0.48193 0.15441 0.6935 0.0
C1438 C 0.48692 0.15255 0.71486 0.0
C1439 C 0.49629 0.13867 0.72085 0.0
C1440 C 0.50121 0.12744 0.70578 0.0
H1441 H 0.45009 0.07661 0.64655 0.0
H1442 H 0.45493 0.09105 0.67118 0.0
H1443 H 0.45799 0.10646 0.64684 0.0
H1444 H 0.48385 0.14558 0.66195 0.0
H1445 H 0.47498 0.16521 0.68842 0.0
H1446 H 0.49255 0.44294 0.10926 0.0
H1447 H 0.4607 0.43553 0.13305 0.0
H1448 H 0.50866 0.50106 0.16321 0.0
H1449 H 0.54048 0.50833 0.1395 0.0
H1450 H 0.48097 0.46294 0.19143 0.0
H1451 H 0.42551 0.4713 0.12804 0.0
H1452 H 0.43392 0.45054 0.12338 0.0
H1453 H 0.45651 0.48101 0.12478 0.0
C1454 C 0.4962 0.45556 0.12114 0.0
C1455 C 0.51873 0.47614 0.12274 0.0
C1456 C 0.47807 0.45143 0.13458 0.0
C1457 C 0.48227 0.4679 0.1497 0.0
C1458 C 0.50507 0.48818 0.15163 0.0
H1459 H 0.3795 0.48393 0.2149 0.0
H1460 H 0.4118 0.4886 0.19358 0.0
C1461 C 0.52316 0.49232 0.13816 0.0
C1462 C 0.46278 0.46433 0.16318 0.0
H1463 H 0.40882 0.46011 0.1617 0.0
C1464 C 0.46516 0.46227 0.18497 0.0
C1465 C 0.44236 0.46379 0.15468 0.0
C1466 C 0.4394 0.46697 0.13146 0.0
C1467 C 0.44752 0.45948 0.19851 0.0
C1468 C 0.42686 0.45848 0.18997 0.0
C1469 C 0.42459 0.46072 0.16819 0.0
C1470 C 0.40762 0.45569 0.20337 0.0
C1471 C 0.45138 0.45817 0.22186 0.0
C1472 C 0.39444 0.43555 0.21585 0.0
C1473 C 0.37606 0.4329 0.22818 0.0
C1474 C 0.37043 0.45029 0.22818 0.0
C1475 C 0.38361 0.47038 0.21554 0.0
C1476 C 0.40196 0.473 0.20323 0.0
H1477 H 0.47043 0.4649 0.22607 0.0
H1478 H 0.44553 0.46824 0.23044 0.0
H1479 H 0.44066 0.4397 0.22725 0.0
H1480 H 0.39823 0.42179 0.21592 0.0
H1481 H 0.36639 0.41729 0.23783 0.0
H1482 H 0.99034 0.43365 0.6133 0.0
H1483 H 0.97262 0.4049 0.64204 0.0
H1484 H 0.96823 0.35212 0.60258 0.0
H1485 H 0.98671 0.38117 0.57407 0.0
H1486 H 0.92946 0.36438 0.6442 0.0
H1487 H 0.0023 0.34639 0.65443 0.0
H1488 H 0.0055 0.37061 0.63879 0.0
H1489 H 0.98952 0.34167 0.62836 0.0
C1490 C 0.98557 0.41589 0.61088 0.0
C1491 C 0.98975 0.40945 0.59164 0.0
C1492 C 0.97547 0.39951 0.62722 0.0
C1493 C 0.96943 0.37645 0.62456 0.0
C1494 C 0.97323 0.36992 0.60514 0.0
H1495 H 0.89895 0.25592 0.70999 0.0
H1496 H 0.91616 0.28115 0.67897 0.0
C1497 C 0.98353 0.38638 0.58884 0.0
C1498 C 0.95893 0.35931 0.64213 0.0
H1499 H 0.96779 0.32308 0.67462 0.0
C1500 C 0.93785 0.35536 0.65084 0.0
C1501 C 0.96992 0.34755 0.65078 0.0
C1502 C 0.99317 0.35188 0.64277 0.0
C1503 C 0.9275 0.34003 0.66798 0.0
C1504 C 0.93857 0.32843 0.67666 0.0
C1505 C 0.95938 0.33201 0.6678 0.0
C1506 C 0.9292 0.31324 0.69551 0.0
C1507 C 0.90481 0.3363 0.67675 0.0
C1508 C 0.93135 0.32306 0.71506 0.0
C1509 C 0.92185 0.30879 0.73283 0.0
C1510 C 0.90989 0.28437 0.73136 0.0
C1511 C 0.90825 0.27464 0.71174 0.0
C1512 C 0.91792 0.28899 0.69398 0.0
H1513 H 0.89618 0.34315 0.66599 0.0
H1514 H 0.89191 0.31745 0.67982 0.0
H1515 H 0.90902 0.34543 0.6919 0.0
H1516 H 0.9403 0.3418 0.71655 0.0
H1517 H 0.92388 0.31691 0.74773 0.0
H1518 H 0.61167 0.00666 0.16581 0.0
H1519 H 0.62989 0.98856 0.1864 0.0
H1520 H 0.64172 0.96363 0.1297 0.0
H1521 H 0.62393 0.98211 0.10889 0.0
H1522 H 0.61214 0.93958 0.18574 0.0
H1523 H 0.7071 0.99388 0.16241 0.0
H1524 H 0.68648 0.00375 0.15898 0.0
H1525 H 0.68498 0.98281 0.14144 0.0
C1526 C 0.61854 0.99769 0.15768 0.0
C1527 C 0.61638 0.99582 0.13572 0.0
C1528 C 0.62884 0.98729 0.16946 0.0
C1529 C 0.63737 0.97501 0.15953 0.0
C1530 C 0.63556 0.97335 0.13761 0.0
H1531 H 0.69099 0.88939 0.21169 0.0
H1532 H 0.68078 0.91233 0.18774 0.0
C1533 C 0.62516 0.98368 0.12579 0.0
C1534 C 0.64653 0.96257 0.1723 0.0
H1535 H 0.69664 0.96114 0.18453 0.0
C1536 C 0.63061 0.9443 0.18551 0.0
C1537 C 0.67057 0.96866 0.17172 0.0
C1538 C 0.6884 0.98844 0.158 0.0
C1539 C 0.6381 0.93193 0.19828 0.0
C1540 C 0.66229 0.93838 0.19816 0.0
C1541 C 0.67815 0.95636 0.18463 0.0
C1542 C 0.67133 0.92689 0.21246 0.0
C1543 C 0.61994 0.91189 0.21163 0.0
C1544 C 0.67028 0.92828 0.23421 0.0
C1545 C 0.67596 0.91521 0.24781 0.0
C1546 C 0.68305 0.9007 0.23989 0.0
C1547 C 0.68559 0.90047 0.21816 0.0
C1548 C 0.67973 0.91348 0.2045 0.0
H1549 H 0.60138 0.90525 0.20575 0.0
H1550 H 0.62308 0.89727 0.21214 0.0
H1551 H 0.62148 0.91792 0.2279 0.0
H1552 H 0.66434 0.93894 0.24065 0.0
H1553 H 0.67426 0.91601 0.26453 0.0
H1554 H 0.64041 0.60697 0.66409 0.0
H1555 H 0.66627 0.61614 0.69553 0.0
H1556 H 0.65739 0.54824 0.69393 0.0
H1557 H 0.63099 0.53866 0.66306 0.0
H1558 H 0.6531 0.56108 0.7341 0.0
H1559 H 0.73524 0.63105 0.69525 0.0
H1560 H 0.7099 0.63434 0.69388 0.0
H1561 H 0.70861 0.61072 0.68057 0.0
C1562 C 0.64381 0.59393 0.67055 0.0
C1563 C 0.63384 0.57217 0.66093 0.0
C1564 C 0.65875 0.59928 0.6884 0.0
C1565 C 0.66402 0.58299 0.69686 0.0
C1566 C 0.65367 0.56111 0.68757 0.0
H1567 H 0.75323 0.56366 0.7821 0.0
H1568 H 0.72125 0.56063 0.75931 0.0
C1569 C 0.63876 0.55575 0.6698 0.0
C1570 C 0.68054 0.58857 0.71522 0.0
H1571 H 0.73929 0.62201 0.73044 0.0
C1572 C 0.67191 0.57457 0.7334 0.0
C1573 C 0.70503 0.60626 0.71429 0.0
C1574 C 0.7154 0.62139 0.69493 0.0
C1575 C 0.68725 0.57733 0.75045 0.0
C1576 C 0.7119 0.59431 0.74915 0.0
C1577 C 0.72036 0.60902 0.73138 0.0
C1578 C 0.72956 0.59556 0.76499 0.0
C1579 C 0.67702 0.5618 0.76959 0.0
C1580 C 0.74492 0.61625 0.77578 0.0
C1581 C 0.76322 0.61801 0.78904 0.0
C1582 C 0.76663 0.59917 0.79154 0.0
C1583 C 0.75081 0.57831 0.78103 0.0
C1584 C 0.73251 0.57655 0.7679 0.0
H1585 H 0.65769 0.55512 0.77093 0.0
H1586 H 0.679 0.54657 0.76834 0.0
H1587 H 0.68656 0.57121 0.78414 0.0
H1588 H 0.74301 0.63117 0.77363 0.0
H1589 H 0.77499 0.63427 0.79698 0.0
H1590 H 0.14441 0.62741 0.07787 0.0
H1591 H 0.15906 0.65772 0.10428 0.0
H1592 H 0.22986 0.66965 0.10053 0.0
H1593 H 0.21537 0.63951 0.07401 0.0
H1594 H 0.17846 0.65794 0.14253 0.0
H1595 H 0.24364 0.73561 0.09653 0.0
H1596 H 0.22165 0.7085 0.08439 0.0
H1597 H 0.24873 0.71205 0.09586 0.0
C1598 C 0.16311 0.63654 0.08265 0.0
C1599 C 0.17876 0.6311 0.07388 0.0
C1600 C 0.17148 0.65393 0.09764 0.0
C1601 C 0.19563 0.66623 0.1041 0.0
C1602 C 0.2113 0.66085 0.09535 0.0
H1603 H 0.27786 0.75449 0.20674 0.0
H1604 H 0.26365 0.7321 0.17437 0.0
C1605 C 0.20298 0.64355 0.08027 0.0
C1606 C 0.20403 0.68347 0.12108 0.0
H1607 H 0.24586 0.73975 0.13381 0.0
C1608 C 0.193 0.6759 0.14055 0.0
C1609 C 0.22304 0.70689 0.11844 0.0
C1610 C 0.23481 0.71634 0.09761 0.0
C1611 C 0.20092 0.6909 0.15766 0.0
C1612 C 0.22019 0.71417 0.15513 0.0
C1613 C 0.23106 0.72189 0.13562 0.0
C1614 C 0.22989 0.73029 0.17298 0.0
C1615 C 0.18912 0.68152 0.17851 0.0
C1616 C 0.21592 0.73733 0.18242 0.0
C1617 C 0.22394 0.75004 0.20092 0.0
C1618 C 0.24608 0.75591 0.21024 0.0
C1619 C 0.2606 0.74995 0.20005 0.0
C1620 C 0.25258 0.73729 0.18153 0.0
H1621 H 0.17773 0.66218 0.17884 0.0
H1622 H 0.20275 0.68713 0.19143 0.0
H1623 H 0.17765 0.68853 0.18155 0.0
H1624 H 0.19844 0.73227 0.17588 0.0
H1625 H 0.21228 0.75422 0.20848 0.0
loop_
_geom_bond_atom_site_label_1
_geom_bond_atom_site_label_2
_geom_bond_distance
_geom_bond_site_symmetry_2
_ccdc_geom_bond_type
C0 C1 1.443 . S
C0 N4 1.376 . S
C0 C38 1.389 . S
C1 C0 1.443 . S
C1 C2 1.340 1_556 S
C1 H41 0.951 . S
C2 C1 1.340 1_554 S
C2 C3 1.439 . S
C2 H42 0.950 . S
C3 C2 1.439 . S
C3 N4 1.374 1_554 S
C3 C37 1.395 . S
N4 C0 1.376 . S
N4 C3 1.374 1_556 S
N4 Co5 2.008 1_556 S
Co5 N4 2.008 1_554 S
Co5 N6 1.995 . S
Co5 N11 2.008 . S
Co5 N16 1.995 1_554 S
Co5 N21 2.282 . S
Co5 N27 2.282 1_554 S
N6 Co5 1.995 . S
N6 C7 1.376 . S
N6 C10 1.383 . S
C7 N6 1.376 . S
C7 C8 1.446 . S
C7 C37 1.391 . S
C8 C7 1.446 . S
C8 C9 1.339 . S
C8 H43 0.949 . S
C9 C8 1.339 . S
C9 C10 1.439 . S
C9 H44 0.950 . S
C10 N6 1.383 . S
C10 C9 1.439 . S
C10 C39 1.392 . S
N11 Co5 2.008 . S
N11 C12 1.376 . S
N11 C15 1.374 1_554 S
C12 N11 1.376 . S
C12 C13 1.443 . S
C12 C39 1.389 . S
C13 C12 1.443 . S
C13 C14 1.340 1_554 S
C13 H45 0.951 . S
C14 C13 1.340 1_556 S
C14 C15 1.439 . S
C14 H46 0.950 . S
C15 N11 1.374 1_556 S
C15 C14 1.439 . S
C15 C40 1.395 . S
N16 Co5 1.995 1_556 S
N16 C17 1.376 . S
N16 C20 1.383 . S
C17 N16 1.376 . S
C17 C18 1.446 . S
C17 C40 1.391 . S
C18 C17 1.446 . S
C18 C19 1.339 . S
C18 H47 0.949 . S
C19 C18 1.339 . S
C19 C20 1.439 . S
C19 H48 0.950 . S
C20 N16 1.383 . S
C20 C19 1.439 . S
C20 C38 1.392 . S
N21 Co5 2.282 . S
N21 C24 1.332 . S
N21 C26 1.332 . S
C22 C23 1.386 . S
C22 C25 1.388 . S
C23 C22 1.386 . S
C23 C24 1.382 . S
C23 H49 0.950 . S
C24 N21 1.332 . S
C24 C23 1.382 . S
C24 H35 0.952 . S
C25 C22 1.388 . S
C25 C26 1.382 . S
C25 H50 0.950 . S
C26 N21 1.332 . S
C26 C25 1.382 . S
C26 H36 0.948 . S
N27 Co5 2.282 1_556 S
N27 C31 1.332 . S
N27 C32 1.332 . S
C28 C29 1.388 . S
C28 C32 1.382 . S
C28 H51 0.950 . S
C29 C28 1.388 . S
C29 C30 1.386 . S
C30 C29 1.386 . S
C30 C31 1.382 . S
C30 H52 0.950 . S
C31 N27 1.332 . S
C31 C30 1.382 . S
C31 H33 0.952 . S
C32 N27 1.332 . S
C32 C28 1.382 . S
C32 H34 0.948 . S
H33 C31 0.952 . S
H34 C32 0.948 . S
H35 C24 0.952 . S
H36 C26 0.948 . S
C37 C3 1.395 . S
C37 C7 1.391 . S
C38 C0 1.389 . S
C38 C20 1.392 . S
C39 C10 1.392 . S
C39 C12 1.389 . S
C40 C15 1.395 . S
C40 C17 1.391 . S
H41 C1 0.951 . S
H42 C2 0.950 . S
H43 C8 0.949 . S
H44 C9 0.950 . S
H45 C13 0.951 . S
H46 C14 0.950 . S
H47 C18 0.949 . S
H48 C19 0.950 . S
H49 C23 0.950 . S
H50 C25 0.950 . S
H51 C28 0.950 . S
H52 C30 0.950 . S
C53 C54 1.443 . S
C53 N57 1.376 . S
C53 C91 1.389 . S
C54 C53 1.443 . S
C54 C55 1.340 1_545 S
C54 H94 0.951 . S
C55 C54 1.340 1_565 S
C55 C56 1.439 . S
C55 H95 0.950 . S
C56 C55 1.439 . S
C56 N57 1.374 1_565 S
C56 C90 1.395 . S
N57 C53 1.376 . S
N57 C56 1.374 1_545 S
N57 Co58 2.008 . S
Co58 N57 2.008 . S
Co58 N59 1.995 1_545 S
Co58 N64 2.008 . S
Co58 N69 1.995 . S
Co58 N74 2.282 1_545 S
Co58 N80 2.282 . S
N59 Co58 1.995 1_565 S
N59 C60 1.376 . S
N59 C63 1.383 . S
C60 N59 1.376 . S
C60 C61 1.446 . S
C60 C90 1.391 . S
C61 C60 1.446 . S
C61 C62 1.339 . S
C61 H96 0.949 . S
C62 C61 1.339 . S
C62 C63 1.439 . S
C62 H97 0.950 . S
C63 N59 1.383 . S
C63 C62 1.439 . S
C63 C92 1.392 . S
N64 Co58 2.008 . S
N64 C65 1.376 . S
N64 C68 1.374 . S
C65 N64 1.376 . S
C65 C66 1.443 . S
C65 C92 1.389 1_545 S
C66 C65 1.443 . S
C66 C67 1.340 . S
C66 H98 0.951 . S
C67 C66 1.340 . S
C67 C68 1.439 . S
C67 H99 0.950 . S
C68 N64 1.374 . S
C68 C67 1.439 . S
C68 C93 1.395 . S
N69 Co58 1.995 . S
N69 C70 1.376 . S
N69 C73 1.383 . S
C70 N69 1.376 . S
C70 C71 1.446 . S
C70 C93 1.391 . S
C71 C70 1.446 . S
C71 C72 1.339 . S
C71 H100 0.949 . S
C72 C71 1.339 . S
C72 C73 1.439 . S
C72 H101 0.950 . S
C73 N69 1.383 . S
C73 C72 1.439 . S
C73 C91 1.392 . S
N74 Co58 2.282 1_565 S
N74 C77 1.332 1_565 S
N74 C79 1.332 . S
C75 C76 1.386 . S
C75 C78 1.388 . S
C76 C75 1.386 . S
C76 C77 1.382 1_565 S
C76 H102 0.950 1_565 S
C77 N74 1.332 1_545 S
C77 C76 1.382 1_545 S
C77 H88 0.952 . S
C78 C75 1.388 . S
C78 C79 1.382 . S
C78 H103 0.950 . S
C79 N74 1.332 . S
C79 C78 1.382 . S
C79 H89 0.948 . S
N80 Co58 2.282 . S
N80 C84 1.332 . S
N80 C85 1.332 . S
C81 C82 1.388 . S
C81 C85 1.382 . S
C81 H104 0.950 . S
C82 C81 1.388 . S
C82 C83 1.386 . S
C83 C82 1.386 . S
C83 C84 1.382 . S
C83 H105 0.950 . S
C84 N80 1.332 . S
C84 C83 1.382 . S
C84 H86 0.926 1_545 S
C85 N80 1.332 . S
C85 C81 1.382 . S
C85 H87 0.948 . S
H86 C84 0.926 1_565 S
H87 C85 0.948 . S
H88 C77 0.952 . S
H89 C79 0.948 . S
C90 C56 1.395 . S
C90 C60 1.391 . S
C91 C53 1.389 . S
C91 C73 1.392 . S
C92 C63 1.392 . S
C92 C65 1.389 1_565 S
C93 C68 1.395 . S
C93 C70 1.391 . S
H94 C54 0.951 . S
H95 C55 0.950 . S
H96 C61 0.949 . S
H97 C62 0.950 . S
H98 C66 0.951 . S
H99 C67 0.950 . S
H100 C71 0.949 . S
H101 C72 0.950 . S
H102 C76 0.950 1_545 S
H103 C78 0.950 . S
H104 C81 0.950 . S
H105 C83 0.950 . S
C106 C107 1.443 . S
C106 N110 1.376 . S
C106 C144 1.389 . S
C107 C106 1.443 . S
C107 C108 1.340 . S
C107 H147 0.951 . S
C108 C107 1.340 . S
C108 C109 1.439 . S
C108 H148 0.950 . S
C109 C108 1.439 . S
C109 N110 1.374 . S
C109 C143 1.395 . S
N110 C106 1.376 . S
N110 C109 1.374 . S
N110 Co111 2.008 . S
Co111 N110 2.008 . S
Co111 N112 1.995 . S
Co111 N117 2.008 . S
Co111 N122 1.995 . S
Co111 N127 2.282 . S
Co111 N133 2.282 . S
N112 Co111 1.995 . S
N112 C113 1.376 . S
N112 C116 1.383 . S
C113 N112 1.376 . S
C113 C114 1.446 . S
C113 C143 1.391 . S
C114 C113 1.446 . S
C114 C115 1.339 . S
C114 H149 0.949 . S
C115 C114 1.339 . S
C115 C116 1.439 . S
C115 H150 0.950 . S
C116 N112 1.383 . S
C116 C115 1.439 . S
C116 C145 1.392 . S
N117 Co111 2.008 . S
N117 C118 1.376 . S
N117 C121 1.374 . S
C118 N117 1.376 . S
C118 C119 1.443 . S
C118 C145 1.389 . S
C119 C118 1.443 . S
C119 C120 1.340 . S
C119 H151 0.951 . S
C120 C119 1.340 . S
C120 C121 1.439 . S
C120 H152 0.950 . S
C121 N117 1.374 . S
C121 C120 1.439 . S
C121 C146 1.395 . S
N122 Co111 1.995 . S
N122 C123 1.376 . S
N122 C126 1.383 . S
C123 N122 1.376 . S
C123 C124 1.446 . S
C123 C146 1.391 . S
C124 C123 1.446 . S
C124 C125 1.339 . S
C124 H153 0.949 . S
C125 C124 1.339 . S
C125 C126 1.439 . S
C125 H154 0.950 . S
C126 N122 1.383 . S
C126 C125 1.439 . S
C126 C144 1.392 . S
N127 Co111 2.282 . S
N127 C130 1.332 . S
N127 C132 1.332 . S
C128 C129 1.386 . S
C128 C131 1.388 . S
C129 C128 1.386 . S
C129 C130 1.382 . S
C129 H155 0.950 . S
C130 N127 1.332 . S
C130 C129 1.382 . S
C130 H141 0.952 . S
C131 C128 1.388 . S
C131 C132 1.382 . S
C131 H156 0.950 . S
C132 N127 1.332 . S
C132 C131 1.382 . S
C132 H142 0.948 . S
N133 Co111 2.282 . S
N133 C137 1.332 . S
N133 C138 1.332 . S
C134 C135 1.388 . S
C134 C138 1.382 . S
C134 H157 0.950 . S
C135 C134 1.388 . S
C135 C136 1.386 . S
C136 C135 1.386 . S
C136 C137 1.382 . S
C136 H158 0.950 . S
C137 N133 1.332 . S
C137 C136 1.382 . S
C137 H139 0.952 . S
C138 N133 1.332 . S
C138 C134 1.382 . S
C138 H140 0.948 . S
H139 C137 0.952 . S
H140 C138 0.948 . S
H141 C130 0.952 . S
H142 C132 0.948 . S
C143 C109 1.395 . S
C143 C113 1.391 . S
C144 C106 1.389 . S
C144 C126 1.392 . S
C145 C116 1.392 . S
C145 C118 1.389 . S
C146 C121 1.395 . S
C146 C123 1.391 . S
H147 C107 0.951 . S
H148 C108 0.950 . S
H149 C114 0.949 . S
H150 C115 0.950 . S
H151 C119 0.951 . S
H152 C120 0.950 . S
H153 C124 0.949 . S
H154 C125 0.950 . S
H155 C129 0.950 . S
H156 C131 0.950 . S
H157 C134 0.950 . S
H158 C136 0.950 . S
C159 C160 1.443 . S
C159 N163 1.376 . S
C159 C197 1.389 . S
C160 C159 1.443 . S
C160 C161 1.340 . S
C160 H200 0.951 . S
C161 C160 1.340 . S
C161 C162 1.439 . S
C161 H201 0.950 . S
C162 C161 1.439 . S
C162 N163 1.374 . S
C162 C196 1.395 . S
N163 C159 1.376 . S
N163 C162 1.374 . S
N163 Co164 2.008 1_655 S
Co164 N163 2.008 1_455 S
Co164 N165 1.995 1_455 S
Co164 N170 2.008 . S
Co164 N175 1.995 . S
Co164 N180 2.282 . S
Co164 N186 2.282 1_455 S
N165 Co164 1.995 1_655 S
N165 C166 1.376 . S
N165 C169 1.383 1_655 S
C166 N165 1.376 . S
C166 C167 1.446 . S
C166 C196 1.391 . S
C167 C166 1.446 . S
C167 C168 1.339 . S
C167 H202 0.949 . S
C168 C167 1.339 . S
C168 C169 1.439 1_655 S
C168 H203 0.950 . S
C169 N165 1.383 1_455 S
C169 C168 1.439 1_455 S
C169 C198 1.392 . S
N170 Co164 2.008 . S
N170 C171 1.376 . S
N170 C174 1.374 . S
C171 N170 1.376 . S
C171 C172 1.443 . S
C171 C198 1.389 . S
C172 C171 1.443 . S
C172 C173 1.340 . S
C172 H204 0.951 . S
C173 C172 1.340 . S
C173 C174 1.439 . S
C173 H205 0.950 . S
C174 N170 1.374 . S
C174 C173 1.439 . S
C174 C199 1.395 . S
N175 Co164 1.995 . S
N175 C176 1.376 . S
N175 C179 1.383 1_455 S
C176 N175 1.376 . S
C176 C177 1.446 . S
C176 C199 1.391 . S
C177 C176 1.446 . S
C177 C178 1.339 . S
C177 H206 0.949 . S
C178 C177 1.339 . S
C178 C179 1.439 1_455 S
C178 H207 0.950 . S
C179 N175 1.383 1_655 S
C179 C178 1.439 1_655 S
C179 C197 1.392 . S
N180 Co164 2.282 . S
N180 C183 1.332 . S
N180 C185 1.332 . S
C181 C182 1.386 . S
C181 C184 1.388 . S
C182 C181 1.386 . S
C182 C183 1.382 . S
C182 H208 0.950 . S
C183 N180 1.332 . S
C183 C182 1.382 . S
C183 H194 0.952 . S
C184 C181 1.388 . S
C184 C185 1.382 . S
C184 H209 0.950 . S
C185 N180 1.332 . S
C185 C184 1.382 . S
C185 H195 0.948 1_455 S
N186 Co164 2.282 1_655 S
N186 C190 1.332 . S
N186 C191 1.332 . S
C187 C188 1.388 . S
C187 C191 1.382 . S
C187 H210 0.950 . S
C188 C187 1.388 . S
C188 C189 1.386 . S
C189 C188 1.386 . S
C189 C190 1.382 . S
C189 H211 0.950 . S
C190 N186 1.332 . S
C190 C189 1.382 . S
C190 H192 0.952 . S
C191 N186 1.332 . S
C191 C187 1.382 . S
C191 H193 0.948 1_655 S
H192 C190 0.952 . S
H193 C191 0.948 1_455 S
H194 C183 0.952 . S
H195 C185 0.948 1_655 S
C196 C162 1.395 . S
C196 C166 1.391 . S
C197 C159 1.389 . S
C197 C179 1.392 . S
C198 C169 1.392 . S
C198 C171 1.389 . S
C199 C174 1.395 . S
C199 C176 1.391 . S
H200 C160 0.951 . S
H201 C161 0.950 . S
H202 C167 0.949 . S
H203 C168 0.950 . S
H204 C172 0.951 . S
H205 C173 0.950 . S
H206 C177 0.949 . S
H207 C178 0.950 . S
H208 C182 0.950 . S
H209 C184 0.950 . S
H210 C187 0.950 . S
H211 C189 0.950 . S
C212 C213 1.443 . S
C212 N216 1.376 . S
C212 C250 1.389 . S
C213 C212 1.443 . S
C213 C214 1.340 . S
C213 H253 0.951 . S
C214 C213 1.340 . S
C214 C215 1.439 . S
C214 H254 0.950 . S
C215 C214 1.439 . S
C215 N216 1.374 . S
C215 C249 1.395 . S
N216 C212 1.376 . S
N216 C215 1.374 . S
N216 Co217 2.008 . S
Co217 N216 2.008 . S
Co217 N218 1.995 . S
Co217 N223 2.008 . S
Co217 N228 1.995 . S
Co217 N233 2.282 . S
Co217 N239 2.282 . S
N218 Co217 1.995 . S
N218 C219 1.376 . S
N218 C222 1.383 . S
C219 N218 1.376 . S
C219 C220 1.446 . S
C219 C249 1.391 . S
C220 C219 1.446 . S
C220 C221 1.339 . S
C220 H255 0.949 . S
C221 C220 1.339 . S
C221 C222 1.439 . S
C221 H256 0.950 . S
C222 N218 1.383 . S
C222 C221 1.439 . S
C222 C251 1.392 . S
N223 Co217 2.008 . S
N223 C224 1.376 . S
N223 C227 1.374 . S
C224 N223 1.376 . S
C224 C225 1.443 . S
C224 C251 1.389 . S
C225 C224 1.443 . S
C225 C226 1.340 . S
C225 H257 0.951 . S
C226 C225 1.340 . S
C226 C227 1.439 . S
C226 H258 0.950 . S
C227 N223 1.374 . S
C227 C226 1.439 . S
C227 C252 1.395 . S
N228 Co217 1.995 . S
N228 C229 1.376 . S
N228 C232 1.383 . S
C229 N228 1.376 . S
C229 C230 1.446 1_545 S
C229 C252 1.391 . S
C230 C229 1.446 1_565 S
C230 C231 1.339 . S
C230 H259 0.949 . S
C231 C230 1.339 . S
C231 C232 1.439 1_565 S
C231 H260 0.950 . S
C232 N228 1.383 . S
C232 C231 1.439 1_545 S
C232 C250 1.392 . S
N233 Co217 2.282 . S
N233 C236 1.332 . S
N233 C238 1.332 . S
C234 C235 1.386 . S
C234 C237 1.388 . S
C235 C234 1.386 . S
C235 C236 1.382 . S
C235 H261 0.950 . S
C236 N233 1.332 . S
C236 C235 1.382 . S
C236 H247 0.952 . S
C237 C234 1.388 . S
C237 C238 1.382 . S
C237 H262 0.950 . S
C238 N233 1.332 . S
C238 C237 1.382 . S
C238 H248 0.948 . S
N239 Co217 2.282 . S
N239 C243 1.332 . S
N239 C244 1.332 . S
C240 C241 1.388 1_565 S
C240 C244 1.382 1_565 S
C240 H263 0.950 . S
C241 C240 1.388 1_545 S
C241 C242 1.386 . S
C242 C241 1.386 . S
C242 C243 1.382 . S
C242 H264 0.950 . S
C243 N239 1.332 . S
C243 C242 1.382 . S
C243 H245 0.952 . S
C244 N239 1.332 . S
C244 C240 1.382 1_545 S
C244 H246 0.960 . S
H245 C243 0.952 . S
H246 C244 0.960 . S
H247 C236 0.952 . S
H248 C238 0.948 . S
C249 C215 1.395 . S
C249 C219 1.391 . S
C250 C212 1.389 . S
C250 C232 1.392 . S
C251 C222 1.392 . S
C251 C224 1.389 . S
C252 C227 1.395 . S
C252 C229 1.391 . S
H253 C213 0.951 . S
H254 C214 0.950 . S
H255 C220 0.949 . S
H256 C221 0.950 . S
H257 C225 0.951 . S
H258 C226 0.950 . S
H259 C230 0.949 . S
H260 C231 0.950 . S
H261 C235 0.950 . S
H262 C237 0.950 . S
H263 C240 0.950 . S
H264 C242 0.950 . S
C265 C266 1.443 . S
C265 N269 1.376 . S
C265 C303 1.389 . S
C266 C265 1.443 . S
C266 C267 1.340 . S
C266 H306 0.951 . S
C267 C266 1.340 . S
C267 C268 1.439 . S
C267 H307 0.950 . S
C268 C267 1.439 . S
C268 N269 1.374 . S
C268 C302 1.395 . S
N269 C265 1.376 . S
N269 C268 1.374 . S
N269 Co270 2.008 . S
Co270 N269 2.008 . S
Co270 N271 1.995 . S
Co270 N276 2.008 . S
Co270 N281 1.995 . S
Co270 N286 2.282 . S
Co270 N292 2.282 . S
N271 Co270 1.995 . S
N271 C272 1.376 . S
N271 C275 1.383 . S
C272 N271 1.376 . S
C272 C273 1.446 . S
C272 C302 1.391 . S
C273 C272 1.446 . S
C273 C274 1.339 . S
C273 H308 0.949 . S
C274 C273 1.339 . S
C274 C275 1.439 . S
C274 H309 0.950 . S
C275 N271 1.383 . S
C275 C274 1.439 . S
C275 C304 1.392 . S
N276 Co270 2.008 . S
N276 C277 1.376 . S
N276 C280 1.374 . S
C277 N276 1.376 . S
C277 C278 1.443 . S
C277 C304 1.389 . S
C278 C277 1.443 . S
C278 C279 1.340 . S
C278 H310 0.951 . S
C279 C278 1.340 . S
C279 C280 1.439 . S
C279 H311 0.950 . S
C280 N276 1.374 . S
C280 C279 1.439 . S
C280 C305 1.395 . S
N281 Co270 1.995 . S
N281 C282 1.376 . S
N281 C285 1.383 . S
C282 N281 1.376 . S
C282 C283 1.446 . S
C282 C305 1.391 . S
C283 C282 1.446 . S
C283 C284 1.339 . S
C283 H312 0.949 . S
C284 C283 1.339 . S
C284 C285 1.439 . S
C284 H313 0.950 . S
C285 N281 1.383 . S
C285 C284 1.439 . S
C285 C303 1.392 . S
N286 Co270 2.282 . S
N286 C289 1.332 . S
N286 C291 1.332 . S
C287 C288 1.386 . S
C287 C290 1.388 . S
C288 C287 1.386 . S
C288 C289 1.382 . S
C288 H314 0.950 . S
C289 N286 1.332 . S
C289 C288 1.382 . S
C289 H300 0.952 . S
C290 C287 1.388 . S
C290 C291 1.382 . S
C290 H315 0.950 . S
C291 N286 1.332 . S
C291 C290 1.382 . S
C291 H301 0.948 . S
N292 Co270 2.282 . S
N292 C296 1.332 . S
N292 C297 1.332 . S
C293 C294 1.388 . S
C293 C297 1.382 . S
C293 H316 0.950 . S
C294 C293 1.388 . S
C294 C295 1.386 . S
C295 C294 1.386 . S
C295 C296 1.382 . S
C295 H317 0.950 . S
C296 N292 1.332 . S
C296 C295 1.382 . S
C296 H298 0.952 . S
C297 N292 1.332 . S
C297 C293 1.382 . S
C297 H299 0.948 . S
H298 C296 0.952 . S
H299 C297 0.948 . S
H300 C289 0.952 . S
H301 C291 0.948 . S
C302 C268 1.395 . S
C302 C272 1.391 . S
C303 C265 1.389 . S
C303 C285 1.392 . S
C304 C275 1.392 . S
C304 C277 1.389 . S
C305 C280 1.395 . S
C305 C282 1.391 . S
H306 C266 0.951 . S
H307 C267 0.950 . S
H308 C273 0.949 . S
H309 C274 0.950 . S
H310 C278 0.951 . S
H311 C279 0.950 . S
H312 C283 0.949 . S
H313 C284 0.950 . S
H314 C288 0.950 . S
H315 C290 0.950 . S
H316 C293 0.950 . S
H317 C295 0.950 . S
H318 O344 0.856 . S
H319 O347 0.854 . S
H320 C355 0.930 . S
H321 C356 0.930 . S
H322 C358 0.930 . S
H323 C359 0.930 . S
H324 C361 0.931 . S
H325 C362 0.930 . S
H326 C364 0.930 . S
H327 C365 0.929 . S
H328 C367 0.930 . S
H329 C368 0.931 . S
H330 C370 0.930 . S
H331 C371 0.929 . S
H332 C373 0.931 . S
H333 C374 0.930 . S
H334 C376 0.930 . S
H335 C377 0.932 . S
H336 C379 0.930 . S
H337 C380 0.929 . S
H338 C382 0.931 . S
H339 C383 0.930 . S
H340 C385 0.929 . S
H341 C386 0.931 . S
H342 C388 0.930 . S
H343 C389 0.929 . S
O344 H318 0.856 . S
O344 C390 1.300 . S
O345 C390 1.209 . S
O346 C391 1.199 . S
O347 H319 0.854 . S
O347 C391 1.297 . S
C348 C349 1.404 . S
C348 C353 1.397 . S
C348 C354 1.492 . S
C349 C348 1.404 . S
C349 C350 1.396 . S
C349 C360 1.492 . S
C350 C349 1.396 . S
C350 C351 1.397 . S
C350 C366 1.509 . S
C351 C350 1.397 . S
C351 C352 1.412 . S
C351 C372 1.485 . S
C352 C351 1.412 . S
C352 C353 1.388 . S
C352 C378 1.490 . S
C353 C348 1.397 . S
C353 C352 1.388 . S
C353 C384 1.519 . S
C354 C348 1.492 . S
C354 C355 1.363 . S
C354 C359 1.390 . S
C355 H320 0.930 . S
C355 C354 1.363 . S
C355 C356 1.372 . S
C356 H321 0.930 . S
C356 C355 1.372 . S
C356 C357 1.383 . S
C357 C356 1.383 . S
C357 C358 1.395 . S
C358 H322 0.930 . S
C358 C357 1.395 . S
C358 C359 1.362 . S
C359 H323 0.930 . S
C359 C354 1.390 . S
C359 C358 1.362 . S
C360 C349 1.492 . S
C360 C361 1.377 . S
C360 C365 1.397 . S
C361 H324 0.931 . S
C361 C360 1.377 . S
C361 C362 1.376 . S
C362 H325 0.930 . S
C362 C361 1.376 . S
C362 C363 1.376 . S
C363 C362 1.376 . S
C363 C364 1.378 . S
C363 C390 1.486 . S
C364 H326 0.930 . S
C364 C363 1.378 . S
C364 C365 1.376 . S
C365 H327 0.929 . S
C365 C360 1.397 . S
C365 C364 1.376 . S
C366 C350 1.509 . S
C366 C367 1.391 . S
C366 C371 1.386 . S
C367 H328 0.930 . S
C367 C366 1.391 . S
C367 C368 1.375 . S
C368 H329 0.931 . S
C368 C367 1.375 . S
C368 C369 1.375 . S
C369 C368 1.375 . S
C369 C370 1.361 . S
C370 H330 0.930 . S
C370 C369 1.361 . S
C370 C371 1.399 . S
C371 H331 0.929 . S
C371 C366 1.386 . S
C371 C370 1.399 . S
C372 C351 1.485 . S
C372 C373 1.394 . S
C372 C377 1.360 . S
C373 H332 0.931 . S
C373 C372 1.394 . S
C373 C374 1.372 . S
C374 H333 0.930 . S
C374 C373 1.372 . S
C374 C375 1.397 . S
C375 C374 1.397 . S
C375 C376 1.390 . S
C375 C391 1.476 . S
C376 H334 0.930 . S
C376 C375 1.390 . S
C376 C377 1.366 . S
C377 H335 0.932 . S
C377 C372 1.360 . S
C377 C376 1.366 . S
C378 C352 1.490 . S
C378 C379 1.380 . S
C378 C383 1.386 . S
C379 H336 0.930 . S
C379 C378 1.380 . S
C379 C380 1.381 . S
C380 H337 0.929 . S
C380 C379 1.381 . S
C380 C381 1.371 . S
C381 C380 1.371 . S
C381 C382 1.380 . S
C382 H338 0.931 . S
C382 C381 1.380 . S
C382 C383 1.387 . S
C383 H339 0.930 . S
C383 C378 1.386 . S
C383 C382 1.387 . S
C384 C353 1.519 . S
C384 C385 1.377 . S
C384 C389 1.361 . S
C385 H340 0.929 . S
C385 C384 1.377 . S
C385 C386 1.386 . S
C386 H341 0.931 . S
C386 C385 1.386 . S
C386 C387 1.363 . S
C387 C386 1.363 . S
C387 C388 1.385 . S
C388 H342 0.930 . S
C388 C387 1.385 . S
C388 C389 1.396 . S
C389 H343 0.929 . S
C389 C384 1.361 . S
C389 C388 1.396 . S
C390 O344 1.300 . S
C390 O345 1.209 . S
C390 C363 1.486 . S
C391 O346 1.199 . S
C391 O347 1.297 . S
C391 C375 1.476 . S
H392 O418 0.856 . S
H393 O421 0.854 . S
H394 C429 0.930 . S
H395 C430 0.930 . S
H396 C432 0.930 . S
H397 C433 0.930 . S
H398 C435 0.931 . S
H399 C436 0.930 . S
H400 C438 0.930 . S
H401 C439 0.929 . S
H402 C441 0.930 . S
H403 C442 0.931 . S
H404 C444 0.930 . S
H405 C445 0.929 . S
H406 C447 0.931 . S
H407 C448 0.930 . S
H408 C450 0.930 . S
H409 C451 0.932 . S
H410 C453 0.930 . S
H411 C454 0.929 . S
H412 C456 0.931 . S
H413 C457 0.930 . S
H414 C459 0.929 . S
H415 C460 0.931 . S
H416 C462 0.930 . S
H417 C463 0.929 . S
O418 H392 0.856 . S
O418 C464 1.300 . S
O419 C464 1.209 . S
O420 C465 1.199 . S
O421 H393 0.854 . S
O421 C465 1.297 . S
C422 C423 1.404 . S
C422 C427 1.397 . S
C422 C428 1.492 . S
C423 C422 1.404 . S
C423 C424 1.396 . S
C423 C434 1.492 . S
C424 C423 1.396 . S
C424 C425 1.397 . S
C424 C440 1.509 . S
C425 C424 1.397 . S
C425 C426 1.412 . S
C425 C446 1.485 . S
C426 C425 1.412 . S
C426 C427 1.388 . S
C426 C452 1.490 . S
C427 C422 1.397 . S
C427 C426 1.388 . S
C427 C458 1.519 . S
C428 C422 1.492 . S
C428 C429 1.363 . S
C428 C433 1.390 . S
C429 H394 0.930 . S
C429 C428 1.363 . S
C429 C430 1.372 . S
C430 H395 0.930 . S
C430 C429 1.372 . S
C430 C431 1.383 . S
C431 C430 1.383 . S
C431 C432 1.395 . S
C432 H396 0.930 . S
C432 C431 1.395 . S
C432 C433 1.362 . S
C433 H397 0.930 . S
C433 C428 1.390 . S
C433 C432 1.362 . S
C434 C423 1.492 . S
C434 C435 1.377 . S
C434 C439 1.397 . S
C435 H398 0.931 . S
C435 C434 1.377 . S
C435 C436 1.376 . S
C436 H399 0.930 . S
C436 C435 1.376 . S
C436 C437 1.376 . S
C437 C436 1.376 . S
C437 C438 1.378 . S
C437 C464 1.486 . S
C438 H400 0.930 . S
C438 C437 1.378 . S
C438 C439 1.376 . S
C439 H401 0.929 . S
C439 C434 1.397 . S
C439 C438 1.376 . S
C440 C424 1.509 . S
C440 C441 1.391 . S
C440 C445 1.386 . S
C441 H402 0.930 . S
C441 C440 1.391 . S
C441 C442 1.375 . S
C442 H403 0.931 . S
C442 C441 1.375 . S
C442 C443 1.375 . S
C443 C442 1.375 . S
C443 C444 1.361 . S
C444 H404 0.930 . S
C444 C443 1.361 . S
C444 C445 1.399 . S
C445 H405 0.929 . S
C445 C440 1.386 . S
C445 C444 1.399 . S
C446 C425 1.485 . S
C446 C447 1.394 . S
C446 C451 1.360 . S
C447 H406 0.931 . S
C447 C446 1.394 . S
C447 C448 1.372 . S
C448 H407 0.930 . S
C448 C447 1.372 . S
C448 C449 1.397 . S
C449 C448 1.397 . S
C449 C450 1.390 . S
C449 C465 1.476 . S
C450 H408 0.930 . S
C450 C449 1.390 . S
C450 C451 1.366 . S
C451 H409 0.932 . S
C451 C446 1.360 . S
C451 C450 1.366 . S
C452 C426 1.490 . S
C452 C453 1.380 . S
C452 C457 1.386 . S
C453 H410 0.930 . S
C453 C452 1.380 . S
C453 C454 1.381 . S
C454 H411 0.929 . S
C454 C453 1.381 . S
C454 C455 1.371 . S
C455 C454 1.371 . S
C455 C456 1.380 . S
C456 H412 0.931 . S
C456 C455 1.380 . S
C456 C457 1.387 . S
C457 H413 0.930 . S
C457 C452 1.386 . S
C457 C456 1.387 . S
C458 C427 1.519 . S
C458 C459 1.377 . S
C458 C463 1.361 . S
C459 H414 0.929 . S
C459 C458 1.377 . S
C459 C460 1.386 . S
C460 H415 0.931 . S
C460 C459 1.386 . S
C460 C461 1.363 . S
C461 C460 1.363 . S
C461 C462 1.385 . S
C462 H416 0.930 . S
C462 C461 1.385 . S
C462 C463 1.396 . S
C463 H417 0.929 . S
C463 C458 1.361 . S
C463 C462 1.396 . S
C464 O418 1.300 . S
C464 O419 1.209 . S
C464 C437 1.486 . S
C465 O420 1.199 . S
C465 O421 1.297 . S
C465 C449 1.476 . S
H466 O492 0.856 . S
H467 O495 0.854 . S
H468 C503 0.930 . S
H469 C504 0.930 . S
H470 C506 0.930 . S
H471 C507 0.930 . S
H472 C509 0.931 . S
H473 C510 0.930 . S
H474 C512 0.930 . S
H475 C513 0.929 . S
H476 C515 0.930 . S
H477 C516 0.931 . S
H478 C518 0.930 . S
H479 C519 0.929 . S
H480 C521 0.931 . S
H481 C522 0.930 . S
H482 C524 0.930 . S
H483 C525 0.932 . S
H484 C527 0.930 . S
H485 C528 0.929 . S
H486 C530 0.931 . S
H487 C531 0.930 . S
H488 C533 0.929 . S
H489 C534 0.931 . S
H490 C536 0.930 . S
H491 C537 0.929 . S
O492 H466 0.856 . S
O492 C538 1.300 . S
O493 C538 1.209 . S
O494 C539 1.199 . S
O495 H467 0.854 . S
O495 C539 1.297 . S
C496 C497 1.404 . S
C496 C501 1.397 . S
C496 C502 1.492 . S
C497 C496 1.404 . S
C497 C498 1.396 . S
C497 C508 1.492 . S
C498 C497 1.396 . S
C498 C499 1.397 . S
C498 C514 1.509 . S
C499 C498 1.397 . S
C499 C500 1.412 . S
C499 C520 1.485 . S
C500 C499 1.412 . S
C500 C501 1.388 . S
C500 C526 1.490 . S
C501 C496 1.397 . S
C501 C500 1.388 . S
C501 C532 1.519 . S
C502 C496 1.492 . S
C502 C503 1.363 . S
C502 C507 1.390 . S
C503 H468 0.930 . S
C503 C502 1.363 . S
C503 C504 1.372 . S
C504 H469 0.930 . S
C504 C503 1.372 . S
C504 C505 1.383 . S
C505 C504 1.383 . S
C505 C506 1.395 . S
C506 H470 0.930 . S
C506 C505 1.395 . S
C506 C507 1.362 . S
C507 H471 0.930 . S
C507 C502 1.390 . S
C507 C506 1.362 . S
C508 C497 1.492 . S
C508 C509 1.377 . S
C508 C513 1.397 . S
C509 H472 0.931 . S
C509 C508 1.377 . S
C509 C510 1.376 . S
C510 H473 0.930 . S
C510 C509 1.376 . S
C510 C511 1.376 . S
C511 C510 1.376 . S
C511 C512 1.378 . S
C511 C538 1.486 . S
C512 H474 0.930 . S
C512 C511 1.378 . S
C512 C513 1.376 . S
C513 H475 0.929 . S
C513 C508 1.397 . S
C513 C512 1.376 . S
C514 C498 1.509 . S
C514 C515 1.391 . S
C514 C519 1.386 . S
C515 H476 0.930 . S
C515 C514 1.391 . S
C515 C516 1.375 . S
C516 H477 0.931 . S
C516 C515 1.375 . S
C516 C517 1.375 . S
C517 C516 1.375 . S
C517 C518 1.361 . S
C518 H478 0.930 . S
C518 C517 1.361 . S
C518 C519 1.399 . S
C519 H479 0.929 . S
C519 C514 1.386 . S
C519 C518 1.399 . S
C520 C499 1.485 . S
C520 C521 1.394 . S
C520 C525 1.360 . S
C521 H480 0.931 . S
C521 C520 1.394 . S
C521 C522 1.372 . S
C522 H481 0.930 . S
C522 C521 1.372 . S
C522 C523 1.397 . S
C523 C522 1.397 . S
C523 C524 1.390 . S
C523 C539 1.476 . S
C524 H482 0.930 . S
C524 C523 1.390 . S
C524 C525 1.366 . S
C525 H483 0.932 . S
C525 C520 1.360 . S
C525 C524 1.366 . S
C526 C500 1.490 . S
C526 C527 1.380 . S
C526 C531 1.386 . S
C527 H484 0.930 . S
C527 C526 1.380 . S
C527 C528 1.381 . S
C528 H485 0.929 . S
C528 C527 1.381 . S
C528 C529 1.371 . S
C529 C528 1.371 . S
C529 C530 1.380 . S
C530 H486 0.931 . S
C530 C529 1.380 . S
C530 C531 1.387 . S
C531 H487 0.930 . S
C531 C526 1.386 . S
C531 C530 1.387 . S
C532 C501 1.519 . S
C532 C533 1.377 . S
C532 C537 1.361 . S
C533 H488 0.929 . S
C533 C532 1.377 . S
C533 C534 1.386 . S
C534 H489 0.931 . S
C534 C533 1.386 . S
C534 C535 1.363 . S
C535 C534 1.363 . S
C535 C536 1.385 . S
C536 H490 0.930 . S
C536 C535 1.385 . S
C536 C537 1.396 . S
C537 H491 0.929 . S
C537 C532 1.361 . S
C537 C536 1.396 . S
C538 O492 1.300 . S
C538 O493 1.209 . S
C538 C511 1.486 . S
C539 O494 1.199 . S
C539 O495 1.297 . S
C539 C523 1.476 . S
H540 O566 0.856 . S
H541 O569 0.854 1_455 S
H542 C577 0.930 . S
H543 C578 0.930 . S
H544 C580 0.930 . S
H545 C581 0.930 . S
H546 C583 0.931 . S
H547 C584 0.930 . S
H548 C586 0.930 . S
H549 C587 0.929 . S
H550 C589 0.930 . S
H551 C590 0.931 . S
H552 C592 0.930 . S
H553 C593 0.929 . S
H554 C595 0.931 . S
H555 C596 0.930 . S
H556 C598 0.930 . S
H557 C599 0.932 . S
H558 C601 0.930 . S
H559 C602 0.929 . S
H560 C604 0.931 . S
H561 C605 0.930 . S
H562 C607 0.929 . S
H563 C608 0.931 . S
H564 C610 0.930 . S
H565 C611 0.929 . S
O566 H540 0.856 . S
O566 C612 1.300 . S
O567 C612 1.209 . S
O568 C613 1.210 . S
O569 H541 0.854 1_655 S
O569 C613 1.306 1_655 S
C570 C571 1.404 . S
C570 C575 1.397 . S
C570 C576 1.492 . S
C571 C570 1.404 . S
C571 C572 1.396 . S
C571 C582 1.492 . S
C572 C571 1.396 . S
C572 C573 1.397 . S
C572 C588 1.509 . S
C573 C572 1.397 . S
C573 C574 1.412 . S
C573 C594 1.485 . S
C574 C573 1.412 . S
C574 C575 1.388 . S
C574 C600 1.490 . S
C575 C570 1.397 . S
C575 C574 1.388 . S
C575 C606 1.519 . S
C576 C570 1.492 . S
C576 C577 1.363 . S
C576 C581 1.390 . S
C577 H542 0.930 . S
C577 C576 1.363 . S
C577 C578 1.372 . S
C578 H543 0.930 . S
C578 C577 1.372 . S
C578 C579 1.383 . S
C579 C578 1.383 . S
C579 C580 1.395 . S
C580 H544 0.930 . S
C580 C579 1.395 . S
C580 C581 1.362 . S
C581 H545 0.930 . S
C581 C576 1.390 . S
C581 C580 1.362 . S
C582 C571 1.492 . S
C582 C583 1.377 . S
C582 C587 1.397 . S
C583 H546 0.931 . S
C583 C582 1.377 . S
C583 C584 1.376 . S
C584 H547 0.930 . S
C584 C583 1.376 . S
C584 C585 1.376 . S
C585 C584 1.376 . S
C585 C586 1.378 . S
C585 C612 1.486 . S
C586 H548 0.930 . S
C586 C585 1.378 . S
C586 C587 1.376 . S
C587 H549 0.929 . S
C587 C582 1.397 . S
C587 C586 1.376 . S
C588 C572 1.509 . S
C588 C589 1.391 . S
C588 C593 1.386 . S
C589 H550 0.930 . S
C589 C588 1.391 . S
C589 C590 1.375 . S
C590 H551 0.931 . S
C590 C589 1.375 . S
C590 C591 1.375 . S
C591 C590 1.375 . S
C591 C592 1.361 . S
C592 H552 0.930 . S
C592 C591 1.361 . S
C592 C593 1.399 . S
C593 H553 0.929 . S
C593 C588 1.386 . S
C593 C592 1.399 . S
C594 C573 1.485 . S
C594 C595 1.394 . S
C594 C599 1.360 . S
C595 H554 0.931 . S
C595 C594 1.394 . S
C595 C596 1.372 . S
C596 H555 0.930 . S
C596 C595 1.372 . S
C596 C597 1.397 . S
C597 C596 1.397 . S
C597 C598 1.390 . S
C597 C613 1.454 1_655 S
C598 H556 0.930 . S
C598 C597 1.390 . S
C598 C599 1.366 . S
C599 H557 0.932 . S
C599 C594 1.360 . S
C599 C598 1.366 . S
C600 C574 1.490 . S
C600 C601 1.380 . S
C600 C605 1.386 . S
C601 H558 0.930 . S
C601 C600 1.380 . S
C601 C602 1.381 . S
C602 H559 0.929 . S
C602 C601 1.381 . S
C602 C603 1.371 . S
C603 C602 1.371 . S
C603 C604 1.380 . S
C604 H560 0.931 . S
C604 C603 1.380 . S
C604 C605 1.387 . S
C605 H561 0.930 . S
C605 C600 1.386 . S
C605 C604 1.387 . S
C606 C575 1.519 . S
C606 C607 1.377 . S
C606 C611 1.361 . S
C607 H562 0.929 . S
C607 C606 1.377 . S
C607 C608 1.386 . S
C608 H563 0.931 . S
C608 C607 1.386 . S
C608 C609 1.363 . S
C609 C608 1.363 . S
C609 C610 1.385 . S
C610 H564 0.930 . S
C610 C609 1.385 . S
C610 C611 1.396 . S
C611 H565 0.929 . S
C611 C606 1.361 . S
C611 C610 1.396 . S
C612 O566 1.300 . S
C612 O567 1.209 . S
C612 C585 1.486 . S
C613 O568 1.210 . S
C613 O569 1.306 1_455 S
C613 C597 1.454 1_455 S
H614 O640 0.856 . S
H615 O643 0.854 . S
H616 C651 0.930 . S
H617 C652 0.930 . S
H618 C654 0.930 . S
H619 C655 0.930 . S
H620 C657 0.931 . S
H621 C658 0.930 . S
H622 C660 0.930 . S
H623 C661 0.929 . S
H624 C663 0.930 . S
H625 C664 0.931 . S
H626 C666 0.930 . S
H627 C667 0.929 . S
H628 C669 0.931 . S
H629 C670 0.930 . S
H630 C672 0.930 . S
H631 C673 0.932 . S
H632 C675 0.930 . S
H633 C676 0.929 . S
H634 C678 0.931 . S
H635 C679 0.930 . S
H636 C681 0.929 . S
H637 C682 0.931 . S
H638 C684 0.930 . S
H639 C685 0.929 . S
O640 H614 0.856 . S
O640 C686 1.300 . S
O641 C686 1.209 . S
O642 C687 1.199 . S
O643 H615 0.854 . S
O643 C687 1.297 . S
C644 C645 1.404 . S
C644 C649 1.397 . S
C644 C650 1.492 . S
C645 C644 1.404 . S
C645 C646 1.396 . S
C645 C656 1.492 . S
C646 C645 1.396 . S
C646 C647 1.397 . S
C646 C662 1.509 . S
C647 C646 1.397 . S
C647 C648 1.412 . S
C647 C668 1.485 . S
C648 C647 1.412 . S
C648 C649 1.388 . S
C648 C674 1.490 . S
C649 C644 1.397 . S
C649 C648 1.388 . S
C649 C680 1.519 . S
C650 C644 1.492 . S
C650 C651 1.363 . S
C650 C655 1.390 . S
C651 H616 0.930 . S
C651 C650 1.363 . S
C651 C652 1.372 . S
C652 H617 0.930 . S
C652 C651 1.372 . S
C652 C653 1.383 . S
C653 C652 1.383 . S
C653 C654 1.395 . S
C654 H618 0.930 . S
C654 C653 1.395 . S
C654 C655 1.362 . S
C655 H619 0.930 . S
C655 C650 1.390 . S
C655 C654 1.362 . S
C656 C645 1.492 . S
C656 C657 1.377 . S
C656 C661 1.397 . S
C657 H620 0.931 . S
C657 C656 1.377 . S
C657 C658 1.376 . S
C658 H621 0.930 . S
C658 C657 1.376 . S
C658 C659 1.376 . S
C659 C658 1.376 . S
C659 C660 1.378 . S
C659 C686 1.486 . S
C660 H622 0.930 . S
C660 C659 1.378 . S
C660 C661 1.376 . S
C661 H623 0.929 . S
C661 C656 1.397 . S
C661 C660 1.376 . S
C662 C646 1.509 . S
C662 C663 1.391 . S
C662 C667 1.386 . S
C663 H624 0.930 . S
C663 C662 1.391 . S
C663 C664 1.375 . S
C664 H625 0.931 . S
C664 C663 1.375 . S
C664 C665 1.375 . S
C665 C664 1.375 . S
C665 C666 1.361 . S
C666 H626 0.930 . S
C666 C665 1.361 . S
C666 C667 1.399 . S
C667 H627 0.929 . S
C667 C662 1.386 . S
C667 C666 1.399 . S
C668 C647 1.485 . S
C668 C669 1.394 . S
C668 C673 1.360 . S
C669 H628 0.931 . S
C669 C668 1.394 . S
C669 C670 1.372 . S
C670 H629 0.930 . S
C670 C669 1.372 . S
C670 C671 1.397 . S
C671 C670 1.397 . S
C671 C672 1.390 . S
C671 C687 1.476 . S
C672 H630 0.930 . S
C672 C671 1.390 . S
C672 C673 1.366 . S
C673 H631 0.932 . S
C673 C668 1.360 . S
C673 C672 1.366 . S
C674 C648 1.490 . S
C674 C675 1.380 . S
C674 C679 1.386 . S
C675 H632 0.930 . S
C675 C674 1.380 . S
C675 C676 1.381 . S
C676 H633 0.929 . S
C676 C675 1.381 . S
C676 C677 1.371 . S
C677 C676 1.371 . S
C677 C678 1.380 . S
C678 H634 0.931 . S
C678 C677 1.380 . S
C678 C679 1.387 . S
C679 H635 0.930 . S
C679 C674 1.386 . S
C679 C678 1.387 . S
C680 C649 1.519 . S
C680 C681 1.377 . S
C680 C685 1.361 . S
C681 H636 0.929 . S
C681 C680 1.377 . S
C681 C682 1.386 . S
C682 H637 0.931 . S
C682 C681 1.386 . S
C682 C683 1.363 . S
C683 C682 1.363 . S
C683 C684 1.385 . S
C684 H638 0.930 . S
C684 C683 1.385 . S
C684 C685 1.396 . S
C685 H639 0.929 . S
C685 C680 1.361 . S
C685 C684 1.396 . S
C686 O640 1.300 . S
C686 O641 1.209 . S
C686 C659 1.486 . S
C687 O642 1.199 . S
C687 O643 1.297 . S
C687 C671 1.476 . S
H688 O714 0.856 . S
H689 O717 0.854 . S
H690 C725 0.930 . S
H691 C726 0.930 . S
H692 C728 0.930 . S
H693 C729 0.930 . S
H694 C731 0.931 . S
H695 C732 0.930 . S
H696 C734 0.930 . S
H697 C735 0.929 . S
H698 C737 0.930 . S
H699 C738 0.931 . S
H700 C740 0.930 . S
H701 C741 0.929 . S
H702 C743 0.931 . S
H703 C744 0.930 . S
H704 C746 0.930 . S
H705 C747 0.932 . S
H706 C749 0.930 . S
H707 C750 0.929 . S
H708 C752 0.931 . S
H709 C753 0.930 . S
H710 C755 0.929 . S
H711 C756 0.931 . S
H712 C758 0.930 . S
H713 C759 0.929 . S
O714 H688 0.856 . S
O714 C760 1.300 . S
O715 C760 1.209 . S
O716 C761 1.199 . S
O717 H689 0.854 . S
O717 C761 1.297 . S
C718 C719 1.404 . S
C718 C723 1.397 . S
C718 C724 1.492 . S
C719 C718 1.404 . S
C719 C720 1.396 . S
C719 C730 1.492 . S
C720 C719 1.396 . S
C720 C721 1.397 . S
C720 C736 1.509 . S
C721 C720 1.397 . S
C721 C722 1.412 . S
C721 C742 1.485 . S
C722 C721 1.412 . S
C722 C723 1.388 . S
C722 C748 1.490 . S
C723 C718 1.397 . S
C723 C722 1.388 . S
C723 C754 1.519 . S
C724 C718 1.492 . S
C724 C725 1.363 . S
C724 C729 1.390 . S
C725 H690 0.930 . S
C725 C724 1.363 . S
C725 C726 1.372 . S
C726 H691 0.930 . S
C726 C725 1.372 . S
C726 C727 1.383 . S
C727 C726 1.383 . S
C727 C728 1.395 . S
C728 H692 0.930 . S
C728 C727 1.395 . S
C728 C729 1.362 . S
C729 H693 0.930 . S
C729 C724 1.390 . S
C729 C728 1.362 . S
C730 C719 1.492 . S
C730 C731 1.377 . S
C730 C735 1.397 . S
C731 H694 0.931 . S
C731 C730 1.377 . S
C731 C732 1.376 . S
C732 H695 0.930 . S
C732 C731 1.376 . S
C732 C733 1.376 . S
C733 C732 1.376 . S
C733 C734 1.378 . S
C733 C760 1.486 . S
C734 H696 0.930 . S
C734 C733 1.378 . S
C734 C735 1.376 . S
C735 H697 0.929 . S
C735 C730 1.397 . S
C735 C734 1.376 . S
C736 C720 1.509 . S
C736 C737 1.391 . S
C736 C741 1.386 . S
C737 H698 0.930 . S
C737 C736 1.391 . S
C737 C738 1.375 . S
C738 H699 0.931 . S
C738 C737 1.375 . S
C738 C739 1.375 . S
C739 C738 1.375 . S
C739 C740 1.361 . S
C740 H700 0.930 . S
C740 C739 1.361 . S
C740 C741 1.399 . S
C741 H701 0.929 . S
C741 C736 1.386 . S
C741 C740 1.399 . S
C742 C721 1.485 . S
C742 C743 1.394 . S
C742 C747 1.360 . S
C743 H702 0.931 . S
C743 C742 1.394 . S
C743 C744 1.372 . S
C744 H703 0.930 . S
C744 C743 1.372 . S
C744 C745 1.397 . S
C745 C744 1.397 . S
C745 C746 1.390 . S
C745 C761 1.476 . S
C746 H704 0.930 . S
C746 C745 1.390 . S
C746 C747 1.366 . S
C747 H705 0.932 . S
C747 C742 1.360 . S
C747 C746 1.366 . S
C748 C722 1.490 . S
C748 C749 1.380 . S
C748 C753 1.386 . S
C749 H706 0.930 . S
C749 C748 1.380 . S
C749 C750 1.381 . S
C750 H707 0.929 . S
C750 C749 1.381 . S
C750 C751 1.371 . S
C751 C750 1.371 . S
C751 C752 1.380 . S
C752 H708 0.931 . S
C752 C751 1.380 . S
C752 C753 1.387 . S
C753 H709 0.930 . S
C753 C748 1.386 . S
C753 C752 1.387 . S
C754 C723 1.519 . S
C754 C755 1.377 . S
C754 C759 1.361 . S
C755 H710 0.929 . S
C755 C754 1.377 . S
C755 C756 1.386 . S
C756 H711 0.931 . S
C756 C755 1.386 . S
C756 C757 1.363 . S
C757 C756 1.363 . S
C757 C758 1.385 . S
C758 H712 0.930 . S
C758 C757 1.385 . S
C758 C759 1.396 . S
C759 H713 0.929 . S
C759 C754 1.361 . S
C759 C758 1.396 . S
C760 O714 1.300 . S
C760 O715 1.209 . S
C760 C733 1.486 . S
C761 O716 1.199 . S
C761 O717 1.297 . S
C761 C745 1.476 . S
H762 C770 0.929 . S
H763 C772 0.930 . S
H764 C774 0.930 . S
H765 C777 0.929 . S
H766 C780 0.930 . S
H767 C782 0.960 . S
H768 C782 0.960 . S
H769 C782 0.960 . S
C770 H762 0.929 . S
C770 C771 1.377 . S
C770 C772 1.384 . S
C771 C770 1.377 . S
C771 C777 1.390 . S
C772 H763 0.930 . S
C772 C770 1.384 . S
C772 C773 1.372 . S
C773 C772 1.372 . S
C773 C774 1.400 . S
C773 C778 1.490 . S
C774 H764 0.930 . S
C774 C773 1.400 . S
C774 C777 1.386 . S
H775 C791 0.930 . S
H776 C792 0.931 . S
C777 H765 0.929 . S
C777 C771 1.390 . S
C777 C774 1.386 . S
C778 C773 1.490 . S
C778 C780 1.395 . S
C778 C781 1.403 . S
H779 C785 0.930 . S
C780 H766 0.930 . S
C780 C778 1.395 . S
C780 C783 1.403 . S
C781 C778 1.403 . S
C781 C782 1.524 . S
C781 C785 1.400 . S
C782 H767 0.960 . S
C782 H768 0.960 . S
C782 H769 0.960 . S
C782 C781 1.524 . S
C783 C780 1.403 . S
C783 C784 1.392 . S
C783 C787 1.495 . S
C784 C783 1.392 . S
C784 C785 1.385 . S
C784 C786 1.478 . S
C785 H779 0.930 . S
C785 C781 1.400 . S
C785 C784 1.385 . S
C786 C784 1.478 . S
C786 C788 1.381 . S
C786 C792 1.383 . S
C787 C783 1.495 . S
C787 H793 0.959 . S
C787 H794 0.961 . S
C787 H795 0.960 . S
C788 C786 1.381 . S
C788 C789 1.394 . S
C788 H796 0.930 . S
C789 C788 1.394 . S
C789 C790 1.383 . S
C789 H797 0.929 . S
C790 C789 1.383 . S
C790 C791 1.377 . S
C791 H775 0.930 . S
C791 C790 1.377 . S
C791 C792 1.379 . S
C792 H776 0.931 . S
C792 C786 1.383 . S
C792 C791 1.379 . S
H793 C787 0.959 . S
H794 C787 0.961 . S
H795 C787 0.960 . S
H796 C788 0.930 . S
H797 C789 0.929 . S
H798 C806 0.929 . S
H799 C808 0.930 . S
H800 C810 0.930 . S
H801 C813 0.929 . S
H802 C816 0.930 . S
H803 C818 0.960 . S
H804 C818 0.960 . S
H805 C818 0.960 . S
C806 H798 0.929 . S
C806 C807 1.377 . S
C806 C808 1.384 . S
C807 C806 1.377 . S
C807 C813 1.390 . S
C808 H799 0.930 . S
C808 C806 1.384 . S
C808 C809 1.372 . S
C809 C808 1.372 . S
C809 C810 1.400 . S
C809 C814 1.490 . S
C810 H800 0.930 . S
C810 C809 1.400 . S
C810 C813 1.386 . S
H811 C827 0.930 . S
H812 C828 0.931 . S
C813 H801 0.929 . S
C813 C807 1.390 . S
C813 C810 1.386 . S
C814 C809 1.490 . S
C814 C816 1.395 . S
C814 C817 1.403 . S
H815 C821 0.930 . S
C816 H802 0.930 . S
C816 C814 1.395 . S
C816 C819 1.403 . S
C817 C814 1.403 . S
C817 C818 1.524 . S
C817 C821 1.400 . S
C818 H803 0.960 . S
C818 H804 0.960 . S
C818 H805 0.960 . S
C818 C817 1.524 . S
C819 C816 1.403 . S
C819 C820 1.392 . S
C819 C823 1.495 . S
C820 C819 1.392 . S
C820 C821 1.385 . S
C820 C822 1.478 . S
C821 H815 0.930 . S
C821 C817 1.400 . S
C821 C820 1.385 . S
C822 C820 1.478 . S
C822 C824 1.381 . S
C822 C828 1.383 . S
C823 C819 1.495 . S
C823 H829 0.959 . S
C823 H830 0.961 . S
C823 H831 0.960 . S
C824 C822 1.381 . S
C824 C825 1.394 . S
C824 H832 0.930 . S
C825 C824 1.394 . S
C825 C826 1.383 . S
C825 H833 0.929 . S
C826 C825 1.383 . S
C826 C827 1.377 . S
C827 H811 0.930 . S
C827 C826 1.377 . S
C827 C828 1.379 . S
C828 H812 0.931 . S
C828 C822 1.383 . S
C828 C827 1.379 . S
H829 C823 0.959 . S
H830 C823 0.961 . S
H831 C823 0.960 . S
H832 C824 0.930 . S
H833 C825 0.929 . S
H834 C842 0.929 . S
H835 C844 0.930 . S
H836 C846 0.930 . S
H837 C849 0.929 . S
H838 C852 0.930 . S
H839 C854 0.960 . S
H840 C854 0.960 . S
H841 C854 0.960 . S
C842 H834 0.929 . S
C842 C843 1.377 . S
C842 C844 1.384 . S
C843 C842 1.377 . S
C843 C849 1.390 . S
C844 H835 0.930 . S
C844 C842 1.384 . S
C844 C845 1.372 . S
C845 C844 1.372 . S
C845 C846 1.400 . S
C845 C850 1.490 . S
C846 H836 0.930 . S
C846 C845 1.400 . S
C846 C849 1.386 . S
H847 C863 0.930 . S
H848 C864 0.931 . S
C849 H837 0.929 . S
C849 C843 1.390 . S
C849 C846 1.386 . S
C850 C845 1.490 . S
C850 C852 1.395 . S
C850 C853 1.403 . S
H851 C857 0.930 . S
C852 H838 0.930 . S
C852 C850 1.395 . S
C852 C855 1.403 . S
C853 C850 1.403 . S
C853 C854 1.524 . S
C853 C857 1.400 . S
C854 H839 0.960 . S
C854 H840 0.960 . S
C854 H841 0.960 . S
C854 C853 1.524 . S
C855 C852 1.403 . S
C855 C856 1.392 . S
C855 C859 1.495 . S
C856 C855 1.392 . S
C856 C857 1.385 . S
C856 C858 1.478 . S
C857 H851 0.930 . S
C857 C853 1.400 . S
C857 C856 1.385 . S
C858 C856 1.478 . S
C858 C860 1.381 . S
C858 C864 1.383 . S
C859 C855 1.495 . S
C859 H865 0.959 . S
C859 H866 0.961 . S
C859 H867 0.960 . S
C860 C858 1.381 . S
C860 C861 1.394 . S
C860 H868 0.930 . S
C861 C860 1.394 . S
C861 C862 1.383 . S
C861 H869 0.929 . S
C862 C861 1.383 . S
C862 C863 1.377 . S
C863 H847 0.930 . S
C863 C862 1.377 . S
C863 C864 1.379 . S
C864 H848 0.931 . S
C864 C858 1.383 . S
C864 C863 1.379 . S
H865 C859 0.959 . S
H866 C859 0.961 . S
H867 C859 0.960 . S
H868 C860 0.930 . S
H869 C861 0.929 . S
H870 C878 0.929 . S
H871 C880 0.930 . S
H872 C882 0.930 . S
H873 C885 0.929 . S
H874 C888 0.930 . S
H875 C890 0.960 . S
H876 C890 0.960 . S
H877 C890 0.960 . S
C878 H870 0.929 . S
C878 C879 1.377 . S
C878 C880 1.384 . S
C879 C878 1.377 . S
C879 C885 1.390 . S
C880 H871 0.930 . S
C880 C878 1.384 . S
C880 C881 1.372 . S
C881 C880 1.372 . S
C881 C882 1.400 . S
C881 C886 1.490 . S
C882 H872 0.930 . S
C882 C881 1.400 . S
C882 C885 1.386 . S
H883 C899 0.930 . S
H884 C900 0.931 . S
C885 H873 0.929 . S
C885 C879 1.390 . S
C885 C882 1.386 . S
C886 C881 1.490 . S
C886 C888 1.395 . S
C886 C889 1.403 . S
H887 C893 0.930 . S
C888 H874 0.930 . S
C888 C886 1.395 . S
C888 C891 1.403 . S
C889 C886 1.403 . S
C889 C890 1.524 . S
C889 C893 1.400 . S
C890 H875 0.960 . S
C890 H876 0.960 . S
C890 H877 0.960 . S
C890 C889 1.524 . S
C891 C888 1.403 . S
C891 C892 1.392 . S
C891 C895 1.495 . S
C892 C891 1.392 . S
C892 C893 1.385 . S
C892 C894 1.478 . S
C893 H887 0.930 . S
C893 C889 1.400 . S
C893 C892 1.385 . S
C894 C892 1.478 . S
C894 C896 1.381 . S
C894 C900 1.383 . S
C895 C891 1.495 . S
C895 H901 0.959 . S
C895 H902 0.961 . S
C895 H903 0.960 . S
C896 C894 1.381 . S
C896 C897 1.394 . S
C896 H904 0.930 . S
C897 C896 1.394 . S
C897 C898 1.383 . S
C897 H905 0.929 . S
C898 C897 1.383 . S
C898 C899 1.377 . S
C899 H883 0.930 . S
C899 C898 1.377 . S
C899 C900 1.379 . S
C900 H884 0.931 . S
C900 C894 1.383 . S
C900 C899 1.379 . S
H901 C895 0.959 . S
H902 C895 0.961 . S
H903 C895 0.960 . S
H904 C896 0.930 . S
H905 C897 0.929 . S
H906 C914 0.929 . S
H907 C916 0.930 . S
H908 C918 0.930 . S
H909 C921 0.929 . S
H910 C924 0.930 . S
H911 C926 0.960 . S
H912 C926 0.960 . S
H913 C926 0.960 . S
C914 H906 0.929 . S
C914 C915 1.377 1_565 S
C914 C916 1.384 . S
C915 C914 1.377 1_545 S
C915 C921 1.390 . S
C916 H907 0.930 . S
C916 C914 1.384 . S
C916 C917 1.372 . S
C917 C916 1.372 . S
C917 C918 1.400 . S
C917 C922 1.490 . S
C918 H908 0.930 . S
C918 C917 1.400 . S
C918 C921 1.386 1_565 S
H919 C935 0.930 . S
H920 C936 0.931 . S
C921 H909 0.929 . S
C921 C915 1.390 . S
C921 C918 1.386 1_545 S
C922 C917 1.490 . S
C922 C924 1.395 . S
C922 C925 1.403 . S
H923 C929 0.930 . S
C924 H910 0.930 . S
C924 C922 1.395 . S
C924 C927 1.403 . S
C925 C922 1.403 . S
C925 C926 1.524 . S
C925 C929 1.400 . S
C926 H911 0.960 . S
C926 H912 0.960 . S
C926 H913 0.960 . S
C926 C925 1.524 . S
C927 C924 1.403 . S
C927 C928 1.392 . S
C927 C931 1.495 . S
C928 C927 1.392 . S
C928 C929 1.385 . S
C928 C930 1.478 . S
C929 H923 0.930 . S
C929 C925 1.400 . S
C929 C928 1.385 . S
C930 C928 1.478 . S
C930 C932 1.381 . S
C930 C936 1.383 . S
C931 C927 1.495 . S
C931 H937 0.959 . S
C931 H938 0.961 . S
C931 H939 0.960 . S
C932 C930 1.381 . S
C932 C933 1.394 . S
C932 H940 0.930 . S
C933 C932 1.394 . S
C933 C934 1.383 . S
C933 H941 0.929 . S
C934 C933 1.383 . S
C934 C935 1.377 . S
C935 H919 0.930 . S
C935 C934 1.377 . S
C935 C936 1.379 . S
C936 H920 0.931 . S
C936 C930 1.383 . S
C936 C935 1.379 . S
H937 C931 0.959 . S
H938 C931 0.961 . S
H939 C931 0.960 . S
H940 C932 0.930 . S
H941 C933 0.929 . S
H942 C950 0.929 . S
H943 C952 0.930 . S
H944 C954 0.930 . S
H945 C957 0.929 . S
H946 C960 0.930 . S
H947 C962 0.960 . S
H948 C962 0.960 . S
H949 C962 0.960 . S
C950 H942 0.929 . S
C950 C951 1.377 . S
C950 C952 1.384 . S
C951 C950 1.377 . S
C951 C957 1.390 . S
C952 H943 0.930 . S
C952 C950 1.384 . S
C952 C953 1.372 . S
C953 C952 1.372 . S
C953 C954 1.400 . S
C953 C958 1.490 . S
C954 H944 0.930 . S
C954 C953 1.400 . S
C954 C957 1.386 . S
H955 C971 0.930 . S
H956 C972 0.931 . S
C957 H945 0.929 . S
C957 C951 1.390 . S
C957 C954 1.386 . S
C958 C953 1.490 . S
C958 C960 1.395 . S
C958 C961 1.403 . S
H959 C965 0.930 . S
C960 H946 0.930 . S
C960 C958 1.395 . S
C960 C963 1.403 . S
C961 C958 1.403 . S
C961 C962 1.524 . S
C961 C965 1.400 . S
C962 H947 0.960 . S
C962 H948 0.960 . S
C962 H949 0.960 . S
C962 C961 1.524 . S
C963 C960 1.403 . S
C963 C964 1.392 . S
C963 C967 1.495 . S
C964 C963 1.392 . S
C964 C965 1.385 . S
C964 C966 1.478 . S
C965 H959 0.930 . S
C965 C961 1.400 . S
C965 C964 1.385 . S
C966 C964 1.478 . S
C966 C968 1.381 . S
C966 C972 1.383 . S
C967 C963 1.495 . S
C967 H973 0.959 . S
C967 H974 0.961 . S
C967 H975 0.960 . S
C968 C966 1.381 . S
C968 C969 1.394 . S
C968 H976 0.930 . S
C969 C968 1.394 . S
C969 C970 1.383 . S
C969 H977 0.929 . S
C970 C969 1.383 . S
C970 C971 1.377 . S
C971 H955 0.930 . S
C971 C970 1.377 . S
C971 C972 1.379 . S
C972 H956 0.931 . S
C972 C966 1.383 . S
C972 C971 1.379 . S
H973 C967 0.959 . S
H974 C967 0.961 . S
H975 C967 0.960 . S
H976 C968 0.930 . S
H977 C969 0.929 . S
H978 C986 0.929 . S
H979 C988 0.930 . S
H980 C990 0.930 . S
H981 C993 0.929 . S
H982 C996 0.930 . S
H983 C998 0.960 . S
H984 C998 0.960 . S
H985 C998 0.960 . S
C986 H978 0.929 . S
C986 C987 1.377 . S
C986 C988 1.384 . S
C987 C986 1.377 . S
C987 C993 1.390 . S
C988 H979 0.930 . S
C988 C986 1.384 . S
C988 C989 1.372 . S
C989 C988 1.372 . S
C989 C990 1.400 . S
C989 C994 1.490 . S
C990 H980 0.930 . S
C990 C989 1.400 . S
C990 C993 1.386 . S
H991 C1007 0.930 . S
H992 C1008 0.931 . S
C993 H981 0.929 . S
C993 C987 1.390 . S
C993 C990 1.386 . S
C994 C989 1.490 . S
C994 C996 1.395 . S
C994 C997 1.403 . S
H995 C1001 0.930 . S
C996 H982 0.930 . S
C996 C994 1.395 . S
C996 C999 1.403 . S
C997 C994 1.403 . S
C997 C998 1.524 . S
C997 C1001 1.400 . S
C998 H983 0.960 . S
C998 H984 0.960 . S
C998 H985 0.960 . S
C998 C997 1.524 . S
C999 C996 1.403 . S
C999 C1000 1.392 . S
C999 C1003 1.495 . S
C1000 C999 1.392 . S
C1000 C1001 1.385 . S
C1000 C1002 1.478 . S
C1001 H995 0.930 . S
C1001 C997 1.400 . S
C1001 C1000 1.385 . S
C1002 C1000 1.478 . S
C1002 C1004 1.381 . S
C1002 C1008 1.383 . S
C1003 C999 1.495 . S
C1003 H1009 0.959 . S
C1003 H1010 0.961 . S
C1003 H1011 0.960 . S
C1004 C1002 1.381 . S
C1004 C1005 1.394 . S
C1004 H1012 0.930 . S
C1005 C1004 1.394 . S
C1005 C1006 1.383 . S
C1005 H1013 0.929 . S
C1006 C1005 1.383 . S
C1006 C1007 1.377 . S
C1007 H991 0.930 . S
C1007 C1006 1.377 . S
C1007 C1008 1.379 . S
C1008 H992 0.931 . S
C1008 C1002 1.383 . S
C1008 C1007 1.379 . S
H1009 C1003 0.959 . S
H1010 C1003 0.961 . S
H1011 C1003 0.960 . S
H1012 C1004 0.930 . S
H1013 C1005 0.929 . S
H1014 C1022 0.929 . S
H1015 C1024 0.961 . S
H1016 C1026 0.930 . S
H1017 C1029 0.929 . S
H1018 C1032 0.930 . S
H1019 C1034 0.960 . S
H1020 C1034 0.960 . S
H1021 C1034 0.960 . S
C1022 H1014 0.929 . S
C1022 C1023 1.377 . S
C1022 C1024 1.355 1_554 S
C1023 C1022 1.377 . S
C1023 C1029 1.390 . S
C1024 H1015 0.961 . S
C1024 C1022 1.355 1_556 S
C1024 C1025 1.372 1_556 S
C1025 C1024 1.372 1_554 S
C1025 C1026 1.420 . S
C1025 C1030 1.471 1_554 S
C1026 H1016 0.930 . S
C1026 C1025 1.420 . S
C1026 C1029 1.386 . S
H1027 C1043 0.930 . S
H1028 C1044 0.931 . S
C1029 H1017 0.929 . S
C1029 C1023 1.390 . S
C1029 C1026 1.386 . S
C1030 C1025 1.471 1_556 S
C1030 C1032 1.395 . S
C1030 C1033 1.403 . S
H1031 C1037 0.930 . S
C1032 H1018 0.930 . S
C1032 C1030 1.395 . S
C1032 C1035 1.403 . S
C1033 C1030 1.403 . S
C1033 C1034 1.524 . S
C1033 C1037 1.400 . S
C1034 H1019 0.960 . S
C1034 H1020 0.960 . S
C1034 H1021 0.960 . S
C1034 C1033 1.524 . S
C1035 C1032 1.403 . S
C1035 C1036 1.392 . S
C1035 C1039 1.495 . S
C1036 C1035 1.392 . S
C1036 C1037 1.385 . S
C1036 C1038 1.478 . S
C1037 H1031 0.930 . S
C1037 C1033 1.400 . S
C1037 C1036 1.385 . S
C1038 C1036 1.478 . S
C1038 C1040 1.381 . S
C1038 C1044 1.383 . S
C1039 C1035 1.495 . S
C1039 H1045 0.959 . S
C1039 H1046 0.961 . S
C1039 H1047 0.960 . S
C1040 C1038 1.381 . S
C1040 C1041 1.394 . S
C1040 H1048 0.930 . S
C1041 C1040 1.394 . S
C1041 C1042 1.383 . S
C1041 H1049 0.929 . S
C1042 C1041 1.383 . S
C1042 C1043 1.377 . S
C1043 H1027 0.930 . S
C1043 C1042 1.377 . S
C1043 C1044 1.379 . S
C1044 H1028 0.931 . S
C1044 C1038 1.383 . S
C1044 C1043 1.379 . S
H1045 C1039 0.959 . S
H1046 C1039 0.961 . S
H1047 C1039 0.960 . S
H1048 C1040 0.930 . S
H1049 C1041 0.929 . S
H1050 C1058 0.929 . S
H1051 C1060 0.930 . S
H1052 C1062 0.930 . S
H1053 C1065 0.929 . S
H1054 C1068 0.930 . S
H1055 C1070 0.960 . S
H1056 C1070 0.960 . S
H1057 C1070 0.960 . S
C1058 H1050 0.929 . S
C1058 C1059 1.377 . S
C1058 C1060 1.384 . S
C1059 C1058 1.377 . S
C1059 C1065 1.390 . S
C1060 H1051 0.930 . S
C1060 C1058 1.384 . S
C1060 C1061 1.372 . S
C1061 C1060 1.372 . S
C1061 C1062 1.400 . S
C1061 C1066 1.490 . S
C1062 H1052 0.930 . S
C1062 C1061 1.400 . S
C1062 C1065 1.386 . S
H1063 C1079 0.930 . S
H1064 C1080 0.931 . S
C1065 H1053 0.929 . S
C1065 C1059 1.390 . S
C1065 C1062 1.386 . S
C1066 C1061 1.490 . S
C1066 C1068 1.395 . S
C1066 C1069 1.403 . S
H1067 C1073 0.930 . S
C1068 H1054 0.930 . S
C1068 C1066 1.395 . S
C1068 C1071 1.403 . S
C1069 C1066 1.403 . S
C1069 C1070 1.524 . S
C1069 C1073 1.400 . S
C1070 H1055 0.960 . S
C1070 H1056 0.960 . S
C1070 H1057 0.960 . S
C1070 C1069 1.524 . S
C1071 C1068 1.403 . S
C1071 C1072 1.392 . S
C1071 C1075 1.495 . S
C1072 C1071 1.392 . S
C1072 C1073 1.385 . S
C1072 C1074 1.478 . S
C1073 H1067 0.930 . S
C1073 C1069 1.400 . S
C1073 C1072 1.385 . S
C1074 C1072 1.478 . S
C1074 C1076 1.381 . S
C1074 C1080 1.383 . S
C1075 C1071 1.495 . S
C1075 H1081 0.959 . S
C1075 H1082 0.961 . S
C1075 H1083 0.960 . S
C1076 C1074 1.381 . S
C1076 C1077 1.394 . S
C1076 H1084 0.930 . S
C1077 C1076 1.394 . S
C1077 C1078 1.383 . S
C1077 H1085 0.929 . S
C1078 C1077 1.383 . S
C1078 C1079 1.377 . S
C1079 H1063 0.930 . S
C1079 C1078 1.377 . S
C1079 C1080 1.379 . S
C1080 H1064 0.931 . S
C1080 C1074 1.383 . S
C1080 C1079 1.379 . S
H1081 C1075 0.959 . S
H1082 C1075 0.961 . S
H1083 C1075 0.960 . S
H1084 C1076 0.930 . S
H1085 C1077 0.929 . S
H1086 C1094 0.929 . S
H1087 C1096 0.930 . S
H1088 C1098 0.943 . S
H1089 C1101 0.929 . S
H1090 C1104 0.930 . S
H1091 C1106 0.960 . S
H1092 C1106 0.960 1_554 S
H1093 C1106 0.960 1_554 S
C1094 H1086 0.929 . S
C1094 C1095 1.377 . S
C1094 C1096 1.384 1_554 S
C1095 C1094 1.377 . S
C1095 C1101 1.390 . S
C1096 H1087 0.930 . S
C1096 C1094 1.384 1_556 S
C1096 C1097 1.372 . S
C1097 C1096 1.372 . S
C1097 C1098 1.427 . S
C1097 C1102 1.490 . S
C1098 H1088 0.943 . S
C1098 C1097 1.427 . S
C1098 C1101 1.348 1_556 S
H1099 C1115 0.930 . S
H1100 C1116 0.931 . S
C1101 H1089 0.929 . S
C1101 C1095 1.390 . S
C1101 C1098 1.348 1_554 S
C1102 C1097 1.490 . S
C1102 C1104 1.395 . S
C1102 C1105 1.403 . S
H1103 C1109 0.930 . S
C1104 H1090 0.930 . S
C1104 C1102 1.395 . S
C1104 C1107 1.403 . S
C1105 C1102 1.403 . S
C1105 C1106 1.524 . S
C1105 C1109 1.400 . S
C1106 H1091 0.960 . S
C1106 H1092 0.960 1_556 S
C1106 H1093 0.960 1_556 S
C1106 C1105 1.524 . S
C1107 C1104 1.403 . S
C1107 C1108 1.392 . S
C1107 C1111 1.495 . S
C1108 C1107 1.392 . S
C1108 C1109 1.385 . S
C1108 C1110 1.478 . S
C1109 H1103 0.930 . S
C1109 C1105 1.400 . S
C1109 C1108 1.385 . S
C1110 C1108 1.478 . S
C1110 C1112 1.381 . S
C1110 C1116 1.383 . S
C1111 C1107 1.495 . S
C1111 H1117 0.959 . S
C1111 H1118 0.961 . S
C1111 H1119 0.960 . S
C1112 C1110 1.381 . S
C1112 C1113 1.394 . S
C1112 H1120 0.930 . S
C1113 C1112 1.394 . S
C1113 C1114 1.383 . S
C1113 H1121 0.929 . S
C1114 C1113 1.383 . S
C1114 C1115 1.377 . S
C1115 H1099 0.930 . S
C1115 C1114 1.377 . S
C1115 C1116 1.379 . S
C1116 H1100 0.931 . S
C1116 C1110 1.383 . S
C1116 C1115 1.379 . S
H1117 C1111 0.959 . S
H1118 C1111 0.961 . S
H1119 C1111 0.960 . S
H1120 C1112 0.930 . S
H1121 C1113 0.929 . S
H1122 C1130 0.929 . S
H1123 C1132 0.930 . S
H1124 C1134 0.930 . S
H1125 C1137 0.929 . S
H1126 C1140 0.930 . S
H1127 C1142 0.960 . S
H1128 C1142 0.960 . S
H1129 C1142 0.960 . S
C1130 H1122 0.929 . S
C1130 C1131 1.377 . S
C1130 C1132 1.384 . S
C1131 C1130 1.377 . S
C1131 C1137 1.390 . S
C1132 H1123 0.930 . S
C1132 C1130 1.384 . S
C1132 C1133 1.372 . S
C1133 C1132 1.372 . S
C1133 C1134 1.400 . S
C1133 C1138 1.490 . S
C1134 H1124 0.930 . S
C1134 C1133 1.400 . S
C1134 C1137 1.386 . S
H1135 C1151 0.930 . S
H1136 C1152 0.931 . S
C1137 H1125 0.929 . S
C1137 C1131 1.390 . S
C1137 C1134 1.386 . S
C1138 C1133 1.490 . S
C1138 C1140 1.395 . S
C1138 C1141 1.403 . S
H1139 C1145 0.930 . S
C1140 H1126 0.930 . S
C1140 C1138 1.395 . S
C1140 C1143 1.403 . S
C1141 C1138 1.403 . S
C1141 C1142 1.524 . S
C1141 C1145 1.400 . S
C1142 H1127 0.960 . S
C1142 H1128 0.960 . S
C1142 H1129 0.960 . S
C1142 C1141 1.524 . S
C1143 C1140 1.403 . S
C1143 C1144 1.392 . S
C1143 C1147 1.495 . S
C1144 C1143 1.392 . S
C1144 C1145 1.385 . S
C1144 C1146 1.478 . S
C1145 H1139 0.930 . S
C1145 C1141 1.400 . S
C1145 C1144 1.385 . S
C1146 C1144 1.478 . S
C1146 C1148 1.381 . S
C1146 C1152 1.383 . S
C1147 C1143 1.495 . S
C1147 H1153 0.959 . S
C1147 H1154 0.961 . S
C1147 H1155 0.960 . S
C1148 C1146 1.381 . S
C1148 C1149 1.394 . S
C1148 H1156 0.930 . S
C1149 C1148 1.394 . S
C1149 C1150 1.383 . S
C1149 H1157 0.929 . S
C1150 C1149 1.383 . S
C1150 C1151 1.377 . S
C1151 H1135 0.930 . S
C1151 C1150 1.377 . S
C1151 C1152 1.379 . S
C1152 H1136 0.931 . S
C1152 C1146 1.383 . S
C1152 C1151 1.379 . S
H1153 C1147 0.959 . S
H1154 C1147 0.961 . S
H1155 C1147 0.960 . S
H1156 C1148 0.930 . S
H1157 C1149 0.929 . S
H1158 C1166 0.929 . S
H1159 C1168 0.930 . S
H1160 C1170 0.930 . S
H1161 C1173 0.929 . S
H1162 C1176 0.930 . S
H1163 C1178 0.960 . S
H1164 C1178 0.960 . S
H1165 C1178 0.960 . S
C1166 H1158 0.929 . S
C1166 C1167 1.377 . S
C1166 C1168 1.384 . S
C1167 C1166 1.377 . S
C1167 C1173 1.390 . S
C1168 H1159 0.930 . S
C1168 C1166 1.384 . S
C1168 C1169 1.372 . S
C1169 C1168 1.372 . S
C1169 C1170 1.400 . S
C1169 C1174 1.490 . S
C1170 H1160 0.930 . S
C1170 C1169 1.400 . S
C1170 C1173 1.386 . S
H1171 C1187 0.930 . S
H1172 C1188 0.931 . S
C1173 H1161 0.929 . S
C1173 C1167 1.390 . S
C1173 C1170 1.386 . S
C1174 C1169 1.490 . S
C1174 C1176 1.395 . S
C1174 C1177 1.403 . S
H1175 C1181 0.930 . S
C1176 H1162 0.930 . S
C1176 C1174 1.395 . S
C1176 C1179 1.403 . S
C1177 C1174 1.403 . S
C1177 C1178 1.524 . S
C1177 C1181 1.400 . S
C1178 H1163 0.960 . S
C1178 H1164 0.960 . S
C1178 H1165 0.960 . S
C1178 C1177 1.524 . S
C1179 C1176 1.403 . S
C1179 C1180 1.392 . S
C1179 C1183 1.495 1_455 S
C1180 C1179 1.392 . S
C1180 C1181 1.385 . S
C1180 C1182 1.478 1_455 S
C1181 H1175 0.930 . S
C1181 C1177 1.400 . S
C1181 C1180 1.385 . S
C1182 C1180 1.478 1_655 S
C1182 C1184 1.381 . S
C1182 C1188 1.383 . S
C1183 C1179 1.495 1_655 S
C1183 H1189 0.959 . S
C1183 H1190 0.961 . S
C1183 H1191 0.960 . S
C1184 C1182 1.381 . S
C1184 C1185 1.394 . S
C1184 H1192 0.897 1_655 S
C1185 C1184 1.394 . S
C1185 C1186 1.383 . S
C1185 H1193 0.929 . S
C1186 C1185 1.383 . S
C1186 C1187 1.377 . S
C1187 H1171 0.930 . S
C1187 C1186 1.377 . S
C1187 C1188 1.379 . S
C1188 H1172 0.931 . S
C1188 C1182 1.383 . S
C1188 C1187 1.379 . S
H1189 C1183 0.959 . S
H1190 C1183 0.961 . S
H1191 C1183 0.960 . S
H1192 C1184 0.897 1_455 S
H1193 C1185 0.929 . S
H1194 C1202 0.929 . S
H1195 C1204 0.930 . S
H1196 C1206 0.930 . S
H1197 C1209 0.929 . S
H1198 C1212 0.930 . S
H1199 C1214 0.960 . S
H1200 C1214 0.960 . S
H1201 C1214 0.960 . S
C1202 H1194 0.929 . S
C1202 C1203 1.377 . S
C1202 C1204 1.384 . S
C1203 C1202 1.377 . S
C1203 C1209 1.390 . S
C1204 H1195 0.930 . S
C1204 C1202 1.384 . S
C1204 C1205 1.372 . S
C1205 C1204 1.372 . S
C1205 C1206 1.400 . S
C1205 C1210 1.490 . S
C1206 H1196 0.930 . S
C1206 C1205 1.400 . S
C1206 C1209 1.386 . S
H1207 C1223 0.930 . S
H1208 C1224 0.931 . S
C1209 H1197 0.929 . S
C1209 C1203 1.390 . S
C1209 C1206 1.386 . S
C1210 C1205 1.490 . S
C1210 C1212 1.395 . S
C1210 C1213 1.403 . S
H1211 C1217 0.930 1_655 S
C1212 H1198 0.930 . S
C1212 C1210 1.395 . S
C1212 C1215 1.403 . S
C1213 C1210 1.403 . S
C1213 C1214 1.524 . S
C1213 C1217 1.400 . S
C1214 H1199 0.960 . S
C1214 H1200 0.960 . S
C1214 H1201 0.960 . S
C1214 C1213 1.524 . S
C1215 C1212 1.403 . S
C1215 C1216 1.392 . S
C1215 C1219 1.495 . S
C1216 C1215 1.392 . S
C1216 C1217 1.385 . S
C1216 C1218 1.478 . S
C1217 H1211 0.930 1_455 S
C1217 C1213 1.400 . S
C1217 C1216 1.385 . S
C1218 C1216 1.478 . S
C1218 C1220 1.381 . S
C1218 C1224 1.383 1_455 S
C1219 C1215 1.495 . S
C1219 H1225 0.959 . S
C1219 H1226 0.961 . S
C1219 H1227 0.960 . S
C1220 C1218 1.381 . S
C1220 C1221 1.394 1_455 S
C1220 H1228 0.930 . S
C1221 C1220 1.394 1_655 S
C1221 C1222 1.383 . S
C1221 H1229 0.929 . S
C1222 C1221 1.383 . S
C1222 C1223 1.377 . S
C1223 H1207 0.930 . S
C1223 C1222 1.377 . S
C1223 C1224 1.379 . S
C1224 H1208 0.931 . S
C1224 C1218 1.383 1_655 S
C1224 C1223 1.379 . S
H1225 C1219 0.959 . S
H1226 C1219 0.961 . S
H1227 C1219 0.960 . S
H1228 C1220 0.930 . S
H1229 C1221 0.929 . S
H1230 C1238 0.929 . S
H1231 C1240 0.930 . S
H1232 C1242 0.930 . S
H1233 C1245 0.929 . S
H1234 C1248 0.930 . S
H1235 C1250 0.960 . S
H1236 C1250 0.960 . S
H1237 C1250 0.960 . S
C1238 H1230 0.929 . S
C1238 C1239 1.377 . S
C1238 C1240 1.384 . S
C1239 C1238 1.377 . S
C1239 C1245 1.390 . S
C1240 H1231 0.930 . S
C1240 C1238 1.384 . S
C1240 C1241 1.372 . S
C1241 C1240 1.372 . S
C1241 C1242 1.400 . S
C1241 C1246 1.490 . S
C1242 H1232 0.930 . S
C1242 C1241 1.400 . S
C1242 C1245 1.386 . S
H1243 C1259 0.930 . S
H1244 C1260 0.931 . S
C1245 H1233 0.929 . S
C1245 C1239 1.390 . S
C1245 C1242 1.386 . S
C1246 C1241 1.490 . S
C1246 C1248 1.395 . S
C1246 C1249 1.403 . S
H1247 C1253 0.930 . S
C1248 H1234 0.930 . S
C1248 C1246 1.395 . S
C1248 C1251 1.403 . S
C1249 C1246 1.403 . S
C1249 C1250 1.524 . S
C1249 C1253 1.400 . S
C1250 H1235 0.960 . S
C1250 H1236 0.960 . S
C1250 H1237 0.960 . S
C1250 C1249 1.524 . S
C1251 C1248 1.403 . S
C1251 C1252 1.392 . S
C1251 C1255 1.495 . S
C1252 C1251 1.392 . S
C1252 C1253 1.385 . S
C1252 C1254 1.478 . S
C1253 H1247 0.930 . S
C1253 C1249 1.400 . S
C1253 C1252 1.385 . S
C1254 C1252 1.478 . S
C1254 C1256 1.381 . S
C1254 C1260 1.383 . S
C1255 C1251 1.495 . S
C1255 H1261 0.959 . S
C1255 H1262 0.961 . S
C1255 H1263 0.960 . S
C1256 C1254 1.381 . S
C1256 C1257 1.394 . S
C1256 H1264 0.930 . S
C1257 C1256 1.394 . S
C1257 C1258 1.383 . S
C1257 H1265 0.929 . S
C1258 C1257 1.383 . S
C1258 C1259 1.377 . S
C1259 H1243 0.930 . S
C1259 C1258 1.377 . S
C1259 C1260 1.379 . S
C1260 H1244 0.931 . S
C1260 C1254 1.383 . S
C1260 C1259 1.379 . S
H1261 C1255 0.959 . S
H1262 C1255 0.961 . S
H1263 C1255 0.960 . S
H1264 C1256 0.930 . S
H1265 C1257 0.929 . S
H1266 C1274 0.929 . S
H1267 C1276 0.930 . S
H1268 C1278 0.936 . S
H1269 C1281 0.929 . S
H1270 C1284 0.930 . S
H1271 C1286 0.960 . S
H1272 C1286 0.960 . S
H1273 C1286 0.960 . S
C1274 H1266 0.929 . S
C1274 C1275 1.377 1_556 S
C1274 C1276 1.384 . S
C1275 C1274 1.377 1_554 S
C1275 C1281 1.390 . S
C1276 H1267 0.930 . S
C1276 C1274 1.384 . S
C1276 C1277 1.372 . S
C1277 C1276 1.372 . S
C1277 C1278 1.368 1_556 S
C1277 C1282 1.490 . S
C1278 H1268 0.936 . S
C1278 C1277 1.368 1_554 S
C1278 C1281 1.412 . S
H1279 C1295 0.930 . S
H1280 C1296 0.931 . S
C1281 H1269 0.929 . S
C1281 C1275 1.390 . S
C1281 C1278 1.412 . S
C1282 C1277 1.490 . S
C1282 C1284 1.395 . S
C1282 C1285 1.403 . S
H1283 C1289 0.930 . S
C1284 H1270 0.930 . S
C1284 C1282 1.395 . S
C1284 C1287 1.403 . S
C1285 C1282 1.403 . S
C1285 C1286 1.524 . S
C1285 C1289 1.400 . S
C1286 H1271 0.960 . S
C1286 H1272 0.960 . S
C1286 H1273 0.960 . S
C1286 C1285 1.524 . S
C1287 C1284 1.403 . S
C1287 C1288 1.392 . S
C1287 C1291 1.495 . S
C1288 C1287 1.392 . S
C1288 C1289 1.385 . S
C1288 C1290 1.478 . S
C1289 H1283 0.930 . S
C1289 C1285 1.400 . S
C1289 C1288 1.385 . S
C1290 C1288 1.478 . S
C1290 C1292 1.381 . S
C1290 C1296 1.383 . S
C1291 C1287 1.495 . S
C1291 H1297 0.959 . S
C1291 H1298 0.961 . S
C1291 H1299 0.960 . S
C1292 C1290 1.381 . S
C1292 C1293 1.394 . S
C1292 H1300 0.930 . S
C1293 C1292 1.394 . S
C1293 C1294 1.383 . S
C1293 H1301 0.929 . S
C1294 C1293 1.383 . S
C1294 C1295 1.377 . S
C1295 H1279 0.930 . S
C1295 C1294 1.377 . S
C1295 C1296 1.379 . S
C1296 H1280 0.931 . S
C1296 C1290 1.383 . S
C1296 C1295 1.379 . S
H1297 C1291 0.959 . S
H1298 C1291 0.961 . S
H1299 C1291 0.960 . S
H1300 C1292 0.930 . S
H1301 C1293 0.929 . S
H1302 C1310 0.929 . S
H1303 C1312 0.930 . S
H1304 C1314 0.930 . S
H1305 C1317 0.929 . S
H1306 C1320 0.930 . S
H1307 C1322 0.960 . S
H1308 C1322 0.960 . S
H1309 C1322 0.960 . S
C1310 H1302 0.929 . S
C1310 C1311 1.377 . S
C1310 C1312 1.384 . S
C1311 C1310 1.377 . S
C1311 C1317 1.390 . S
C1312 H1303 0.930 . S
C1312 C1310 1.384 . S
C1312 C1313 1.372 . S
C1313 C1312 1.372 . S
C1313 C1314 1.400 . S
C1313 C1318 1.490 . S
C1314 H1304 0.930 . S
C1314 C1313 1.400 . S
C1314 C1317 1.386 . S
H1315 C1331 0.930 . S
H1316 C1332 0.931 . S
C1317 H1305 0.929 . S
C1317 C1311 1.390 . S
C1317 C1314 1.386 . S
C1318 C1313 1.490 . S
C1318 C1320 1.395 . S
C1318 C1321 1.403 . S
H1319 C1325 0.930 . S
C1320 H1306 0.930 . S
C1320 C1318 1.395 . S
C1320 C1323 1.403 . S
C1321 C1318 1.403 . S
C1321 C1322 1.524 . S
C1321 C1325 1.400 . S
C1322 H1307 0.960 . S
C1322 H1308 0.960 . S
C1322 H1309 0.960 . S
C1322 C1321 1.524 . S
C1323 C1320 1.403 . S
C1323 C1324 1.392 . S
C1323 C1327 1.495 . S
C1324 C1323 1.392 . S
C1324 C1325 1.385 . S
C1324 C1326 1.478 . S
C1325 H1319 0.930 . S
C1325 C1321 1.400 . S
C1325 C1324 1.385 . S
C1326 C1324 1.478 . S
C1326 C1328 1.381 . S
C1326 C1332 1.383 . S
C1327 C1323 1.495 . S
C1327 H1333 0.959 . S
C1327 H1334 0.961 . S
C1327 H1335 0.960 . S
C1328 C1326 1.381 . S
C1328 C1329 1.394 . S
C1328 H1336 0.930 . S
C1329 C1328 1.394 . S
C1329 C1330 1.383 . S
C1329 H1337 0.929 . S
C1330 C1329 1.383 . S
C1330 C1331 1.377 . S
C1331 H1315 0.930 . S
C1331 C1330 1.377 . S
C1331 C1332 1.379 . S
C1332 H1316 0.931 . S
C1332 C1326 1.383 . S
C1332 C1331 1.379 . S
H1333 C1327 0.959 . S
H1334 C1327 0.961 . S
H1335 C1327 0.960 . S
H1336 C1328 0.930 . S
H1337 C1329 0.929 . S
H1338 C1346 0.929 . S
H1339 C1348 0.930 . S
H1340 C1350 0.930 . S
H1341 C1353 0.929 . S
H1342 C1356 0.930 . S
H1343 C1358 0.960 . S
H1344 C1358 0.960 . S
H1345 C1358 0.960 . S
C1346 H1338 0.929 . S
C1346 C1347 1.377 . S
C1346 C1348 1.384 1_554 S
C1347 C1346 1.377 . S
C1347 C1353 1.390 . S
C1348 H1339 0.930 . S
C1348 C1346 1.384 1_556 S
C1348 C1349 1.372 1_556 S
C1349 C1348 1.372 1_554 S
C1349 C1350 1.400 . S
C1349 C1354 1.490 1_554 S
C1350 H1340 0.930 . S
C1350 C1349 1.400 . S
C1350 C1353 1.386 . S
H1351 C1367 0.930 . S
H1352 C1368 0.931 . S
C1353 H1341 0.929 . S
C1353 C1347 1.390 . S
C1353 C1350 1.386 . S
C1354 C1349 1.490 1_556 S
C1354 C1356 1.395 . S
C1354 C1357 1.403 . S
H1355 C1361 0.930 . S
C1356 H1342 0.930 . S
C1356 C1354 1.395 . S
C1356 C1359 1.403 . S
C1357 C1354 1.403 . S
C1357 C1358 1.524 1_556 S
C1357 C1361 1.400 . S
C1358 H1343 0.960 . S
C1358 H1344 0.960 . S
C1358 H1345 0.960 . S
C1358 C1357 1.524 1_554 S
C1359 C1356 1.403 . S
C1359 C1360 1.392 . S
C1359 C1363 1.495 . S
C1360 C1359 1.392 . S
C1360 C1361 1.385 . S
C1360 C1362 1.478 . S
C1361 H1355 0.930 . S
C1361 C1357 1.400 . S
C1361 C1360 1.385 . S
C1362 C1360 1.478 . S
C1362 C1364 1.381 . S
C1362 C1368 1.383 . S
C1363 C1359 1.495 . S
C1363 H1369 0.959 . S
C1363 H1370 0.961 . S
C1363 H1371 0.960 . S
C1364 C1362 1.381 . S
C1364 C1365 1.394 . S
C1364 H1372 0.930 . S
C1365 C1364 1.394 . S
C1365 C1366 1.383 . S
C1365 H1373 0.929 . S
C1366 C1365 1.383 . S
C1366 C1367 1.377 . S
C1367 H1351 0.930 . S
C1367 C1366 1.377 . S
C1367 C1368 1.379 . S
C1368 H1352 0.931 . S
C1368 C1362 1.383 . S
C1368 C1367 1.379 . S
H1369 C1363 0.959 . S
H1370 C1363 0.961 . S
H1371 C1363 0.960 . S
H1372 C1364 0.930 . S
H1373 C1365 0.929 . S
H1374 C1382 0.929 . S
H1375 C1384 0.930 . S
H1376 C1386 0.930 . S
H1377 C1389 0.929 . S
H1378 C1392 0.930 . S
H1379 C1394 0.960 . S
H1380 C1394 0.960 . S
H1381 C1394 0.960 . S
C1382 H1374 0.929 . S
C1382 C1383 1.377 . S
C1382 C1384 1.384 . S
C1383 C1382 1.377 . S
C1383 C1389 1.390 . S
C1384 H1375 0.930 . S
C1384 C1382 1.384 . S
C1384 C1385 1.372 . S
C1385 C1384 1.372 . S
C1385 C1386 1.400 . S
C1385 C1390 1.490 . S
C1386 H1376 0.930 . S
C1386 C1385 1.400 . S
C1386 C1389 1.386 . S
H1387 C1403 0.930 . S
H1388 C1404 0.931 . S
C1389 H1377 0.929 . S
C1389 C1383 1.390 . S
C1389 C1386 1.386 . S
C1390 C1385 1.490 . S
C1390 C1392 1.395 . S
C1390 C1393 1.403 . S
H1391 C1397 0.930 . S
C1392 H1378 0.930 . S
C1392 C1390 1.395 . S
C1392 C1395 1.403 . S
C1393 C1390 1.403 . S
C1393 C1394 1.524 . S
C1393 C1397 1.400 . S
C1394 H1379 0.960 . S
C1394 H1380 0.960 . S
C1394 H1381 0.960 . S
C1394 C1393 1.524 . S
C1395 C1392 1.403 . S
C1395 C1396 1.392 . S
C1395 C1399 1.495 . S
C1396 C1395 1.392 . S
C1396 C1397 1.385 . S
C1396 C1398 1.478 . S
C1397 H1391 0.930 . S
C1397 C1393 1.400 . S
C1397 C1396 1.385 . S
C1398 C1396 1.478 . S
C1398 C1400 1.381 . S
C1398 C1404 1.383 . S
C1399 C1395 1.495 . S
C1399 H1405 0.959 . S
C1399 H1406 0.961 . S
C1399 H1407 0.960 . S
C1400 C1398 1.381 . S
C1400 C1401 1.394 . S
C1400 H1408 0.930 . S
C1401 C1400 1.394 . S
C1401 C1402 1.383 . S
C1401 H1409 0.929 . S
C1402 C1401 1.383 . S
C1402 C1403 1.377 . S
C1403 H1387 0.930 . S
C1403 C1402 1.377 . S
C1403 C1404 1.379 . S
C1404 H1388 0.931 . S
C1404 C1398 1.383 . S
C1404 C1403 1.379 . S
H1405 C1399 0.959 . S
H1406 C1399 0.961 . S
H1407 C1399 0.960 . S
H1408 C1400 0.930 . S
H1409 C1401 0.929 . S
H1410 C1418 0.929 . S
H1411 C1420 0.930 . S
H1412 C1422 0.930 . S
H1413 C1425 0.929 . S
H1414 C1428 0.930 . S
H1415 C1430 0.960 . S
H1416 C1430 0.960 . S
H1417 C1430 0.960 . S
C1418 H1410 0.929 . S
C1418 C1419 1.377 . S
C1418 C1420 1.384 . S
C1419 C1418 1.377 . S
C1419 C1425 1.390 . S
C1420 H1411 0.930 . S
C1420 C1418 1.384 . S
C1420 C1421 1.372 . S
C1421 C1420 1.372 . S
C1421 C1422 1.400 . S
C1421 C1426 1.490 . S
C1422 H1412 0.930 . S
C1422 C1421 1.400 . S
C1422 C1425 1.386 . S
H1423 C1439 0.930 . S
H1424 C1440 0.931 . S
C1425 H1413 0.929 . S
C1425 C1419 1.390 . S
C1425 C1422 1.386 . S
C1426 C1421 1.490 . S
C1426 C1428 1.395 . S
C1426 C1429 1.403 . S
H1427 C1433 0.930 . S
C1428 H1414 0.930 . S
C1428 C1426 1.395 . S
C1428 C1431 1.403 . S
C1429 C1426 1.403 . S
C1429 C1430 1.524 . S
C1429 C1433 1.400 . S
C1430 H1415 0.960 . S
C1430 H1416 0.960 . S
C1430 H1417 0.960 . S
C1430 C1429 1.524 . S
C1431 C1428 1.403 . S
C1431 C1432 1.392 . S
C1431 C1435 1.495 . S
C1432 C1431 1.392 . S
C1432 C1433 1.385 . S
C1432 C1434 1.478 . S
C1433 H1427 0.930 . S
C1433 C1429 1.400 . S
C1433 C1432 1.385 . S
C1434 C1432 1.478 . S
C1434 C1436 1.381 . S
C1434 C1440 1.383 . S
C1435 C1431 1.495 . S
C1435 H1441 0.959 . S
C1435 H1442 0.961 . S
C1435 H1443 0.960 . S
C1436 C1434 1.381 . S
C1436 C1437 1.394 . S
C1436 H1444 0.930 . S
C1437 C1436 1.394 . S
C1437 C1438 1.383 . S
C1437 H1445 0.929 . S
C1438 C1437 1.383 . S
C1438 C1439 1.377 . S
C1439 H1423 0.930 . S
C1439 C1438 1.377 . S
C1439 C1440 1.379 . S
C1440 H1424 0.931 . S
C1440 C1434 1.383 . S
C1440 C1439 1.379 . S
H1441 C1435 0.959 . S
H1442 C1435 0.961 . S
H1443 C1435 0.960 . S
H1444 C1436 0.930 . S
H1445 C1437 0.929 . S
H1446 C1454 0.929 . S
H1447 C1456 0.930 . S
H1448 C1458 0.930 . S
H1449 C1461 0.929 . S
H1450 C1464 0.930 . S
H1451 C1466 0.960 . S
H1452 C1466 0.960 . S
H1453 C1466 0.960 . S
C1454 H1446 0.929 . S
C1454 C1455 1.377 . S
C1454 C1456 1.384 . S
C1455 C1454 1.377 . S
C1455 C1461 1.390 . S
C1456 H1447 0.930 . S
C1456 C1454 1.384 . S
C1456 C1457 1.372 . S
C1457 C1456 1.372 . S
C1457 C1458 1.400 . S
C1457 C1462 1.490 . S
C1458 H1448 0.930 . S
C1458 C1457 1.400 . S
C1458 C1461 1.386 . S
H1459 C1475 0.930 . S
H1460 C1476 0.931 . S
C1461 H1449 0.929 . S
C1461 C1455 1.390 . S
C1461 C1458 1.386 . S
C1462 C1457 1.490 . S
C1462 C1464 1.395 . S
C1462 C1465 1.403 . S
H1463 C1469 0.930 . S
C1464 H1450 0.930 . S
C1464 C1462 1.395 . S
C1464 C1467 1.403 . S
C1465 C1462 1.403 . S
C1465 C1466 1.524 . S
C1465 C1469 1.400 . S
C1466 H1451 0.960 . S
C1466 H1452 0.960 . S
C1466 H1453 0.960 . S
C1466 C1465 1.524 . S
C1467 C1464 1.403 . S
C1467 C1468 1.392 . S
C1467 C1471 1.495 . S
C1468 C1467 1.392 . S
C1468 C1469 1.385 . S
C1468 C1470 1.478 . S
C1469 H1463 0.930 . S
C1469 C1465 1.400 . S
C1469 C1468 1.385 . S
C1470 C1468 1.478 . S
C1470 C1472 1.381 . S
C1470 C1476 1.383 . S
C1471 C1467 1.495 . S
C1471 H1477 0.959 . S
C1471 H1478 0.961 . S
C1471 H1479 0.960 . S
C1472 C1470 1.381 . S
C1472 C1473 1.394 . S
C1472 H1480 0.930 . S
C1473 C1472 1.394 . S
C1473 C1474 1.383 . S
C1473 H1481 0.929 . S
C1474 C1473 1.383 . S
C1474 C1475 1.377 . S
C1475 H1459 0.930 . S
C1475 C1474 1.377 . S
C1475 C1476 1.379 . S
C1476 H1460 0.931 . S
C1476 C1470 1.383 . S
C1476 C1475 1.379 . S
H1477 C1471 0.959 . S
H1478 C1471 0.961 . S
H1479 C1471 0.960 . S
H1480 C1472 0.930 . S
H1481 C1473 0.929 . S
H1482 C1490 0.929 . S
H1483 C1492 0.930 . S
H1484 C1494 0.930 . S
H1485 C1497 0.929 . S
H1486 C1500 0.930 . S
H1487 C1502 0.960 . S
H1488 C1502 0.960 . S
H1489 C1502 0.960 . S
C1490 H1482 0.929 . S
C1490 C1491 1.377 . S
C1490 C1492 1.384 . S
C1491 C1490 1.377 . S
C1491 C1497 1.390 . S
C1492 H1483 0.930 . S
C1492 C1490 1.384 . S
C1492 C1493 1.372 . S
C1493 C1492 1.372 . S
C1493 C1494 1.400 . S
C1493 C1498 1.490 . S
C1494 H1484 0.930 . S
C1494 C1493 1.400 . S
C1494 C1497 1.386 . S
H1495 C1511 0.930 . S
H1496 C1512 0.931 . S
C1497 H1485 0.929 . S
C1497 C1491 1.390 . S
C1497 C1494 1.386 . S
C1498 C1493 1.490 . S
C1498 C1500 1.395 . S
C1498 C1501 1.403 . S
H1499 C1505 0.930 . S
C1500 H1486 0.930 . S
C1500 C1498 1.395 . S
C1500 C1503 1.403 . S
C1501 C1498 1.403 . S
C1501 C1502 1.524 . S
C1501 C1505 1.400 . S
C1502 H1487 0.960 . S
C1502 H1488 0.960 . S
C1502 H1489 0.960 . S
C1502 C1501 1.524 . S
C1503 C1500 1.403 . S
C1503 C1504 1.392 . S
C1503 C1507 1.495 . S
C1504 C1503 1.392 . S
C1504 C1505 1.385 . S
C1504 C1506 1.478 . S
C1505 H1499 0.930 . S
C1505 C1501 1.400 . S
C1505 C1504 1.385 . S
C1506 C1504 1.478 . S
C1506 C1508 1.381 . S
C1506 C1512 1.383 . S
C1507 C1503 1.495 . S
C1507 H1513 0.959 . S
C1507 H1514 0.961 . S
C1507 H1515 0.960 . S
C1508 C1506 1.381 . S
C1508 C1509 1.394 . S
C1508 H1516 0.930 . S
C1509 C1508 1.394 . S
C1509 C1510 1.383 . S
C1509 H1517 0.929 . S
C1510 C1509 1.383 . S
C1510 C1511 1.377 . S
C1511 H1495 0.930 . S
C1511 C1510 1.377 . S
C1511 C1512 1.379 . S
C1512 H1496 0.931 . S
C1512 C1506 1.383 . S
C1512 C1511 1.379 . S
H1513 C1507 0.959 . S
H1514 C1507 0.961 . S
H1515 C1507 0.960 . S
H1516 C1508 0.930 . S
H1517 C1509 0.929 . S
H1518 C1526 0.929 . S
H1519 C1528 0.930 . S
H1520 C1530 0.930 . S
H1521 C1533 0.929 . S
H1522 C1536 0.930 . S
H1523 C1538 0.960 . S
H1524 C1538 0.960 1_545 S
H1525 C1538 0.960 . S
C1526 H1518 0.929 . S
C1526 C1527 1.377 . S
C1526 C1528 1.384 1_545 S
C1527 C1526 1.377 . S
C1527 C1533 1.388 1_545 S
C1528 H1519 0.930 . S
C1528 C1526 1.384 1_565 S
C1528 C1529 1.372 . S
C1529 C1528 1.372 . S
C1529 C1530 1.400 . S
C1529 C1534 1.490 . S
C1530 H1520 0.930 . S
C1530 C1529 1.400 . S
C1530 C1533 1.386 . S
H1531 C1547 0.930 . S
H1532 C1548 0.931 . S
C1533 H1521 0.929 . S
C1533 C1527 1.388 1_565 S
C1533 C1530 1.386 . S
C1534 C1529 1.490 . S
C1534 C1536 1.395 . S
C1534 C1537 1.403 . S
H1535 C1541 0.930 . S
C1536 H1522 0.930 . S
C1536 C1534 1.395 . S
C1536 C1539 1.403 . S
C1537 C1534 1.403 . S
C1537 C1538 1.524 . S
C1537 C1541 1.400 . S
C1538 H1523 0.960 . S
C1538 H1524 0.960 1_565 S
C1538 H1525 0.960 . S
C1538 C1537 1.524 . S
C1539 C1536 1.403 . S
C1539 C1540 1.392 . S
C1539 C1543 1.495 . S
C1540 C1539 1.392 . S
C1540 C1541 1.385 . S
C1540 C1542 1.478 . S
C1541 H1535 0.930 . S
C1541 C1537 1.400 . S
C1541 C1540 1.385 . S
C1542 C1540 1.478 . S
C1542 C1544 1.381 . S
C1542 C1548 1.383 . S
C1543 C1539 1.495 . S
C1543 H1549 0.959 . S
C1543 H1550 0.961 . S
C1543 H1551 0.960 . S
C1544 C1542 1.381 . S
C1544 C1545 1.394 . S
C1544 H1552 0.930 . S
C1545 C1544 1.394 . S
C1545 C1546 1.383 . S
C1545 H1553 0.929 . S
C1546 C1545 1.383 . S
C1546 C1547 1.377 . S
C1547 H1531 0.930 . S
C1547 C1546 1.377 . S
C1547 C1548 1.379 . S
C1548 H1532 0.931 . S
C1548 C1542 1.383 . S
C1548 C1547 1.379 . S
H1549 C1543 0.959 . S
H1550 C1543 0.961 . S
H1551 C1543 0.960 . S
H1552 C1544 0.930 . S
H1553 C1545 0.929 . S
H1554 C1562 0.929 . S
H1555 C1564 0.930 . S
H1556 C1566 0.930 . S
H1557 C1569 0.929 . S
H1558 C1572 0.930 . S
H1559 C1574 0.960 . S
H1560 C1574 0.960 . S
H1561 C1574 0.960 . S
C1562 H1554 0.929 . S
C1562 C1563 1.377 . S
C1562 C1564 1.384 . S
C1563 C1562 1.377 . S
C1563 C1569 1.390 . S
C1564 H1555 0.930 . S
C1564 C1562 1.384 . S
C1564 C1565 1.372 . S
C1565 C1564 1.372 . S
C1565 C1566 1.400 . S
C1565 C1570 1.490 . S
C1566 H1556 0.930 . S
C1566 C1565 1.400 . S
C1566 C1569 1.386 . S
H1567 C1583 0.930 . S
H1568 C1584 0.931 . S
C1569 H1557 0.929 . S
C1569 C1563 1.390 . S
C1569 C1566 1.386 . S
C1570 C1565 1.490 . S
C1570 C1572 1.395 . S
C1570 C1573 1.403 . S
H1571 C1577 0.930 . S
C1572 H1558 0.930 . S
C1572 C1570 1.395 . S
C1572 C1575 1.403 . S
C1573 C1570 1.403 . S
C1573 C1574 1.524 . S
C1573 C1577 1.400 . S
C1574 H1559 0.960 . S
C1574 H1560 0.960 . S
C1574 H1561 0.960 . S
C1574 C1573 1.524 . S
C1575 C1572 1.403 . S
C1575 C1576 1.392 . S
C1575 C1579 1.495 . S
C1576 C1575 1.392 . S
C1576 C1577 1.385 . S
C1576 C1578 1.478 . S
C1577 H1571 0.930 . S
C1577 C1573 1.400 . S
C1577 C1576 1.385 . S
C1578 C1576 1.478 . S
C1578 C1580 1.381 . S
C1578 C1584 1.383 . S
C1579 C1575 1.495 . S
C1579 H1585 0.959 . S
C1579 H1586 0.961 . S
C1579 H1587 0.960 . S
C1580 C1578 1.381 . S
C1580 C1581 1.394 . S
C1580 H1588 0.930 . S
C1581 C1580 1.394 . S
C1581 C1582 1.383 . S
C1581 H1589 0.929 . S
C1582 C1581 1.383 . S
C1582 C1583 1.377 . S
C1583 H1567 0.930 . S
C1583 C1582 1.377 . S
C1583 C1584 1.379 . S
C1584 H1568 0.931 . S
C1584 C1578 1.383 . S
C1584 C1583 1.379 . S
H1585 C1579 0.959 . S
H1586 C1579 0.961 . S
H1587 C1579 0.960 . S
H1588 C1580 0.930 . S
H1589 C1581 0.929 . S
H1590 C1598 0.929 . S
H1591 C1600 0.930 . S
H1592 C1602 0.930 . S
H1593 C1605 0.929 . S
H1594 C1608 0.930 . S
H1595 C1610 0.960 . S
H1596 C1610 0.960 . S
H1597 C1610 0.960 . S
C1598 H1590 0.929 . S
C1598 C1599 1.377 . S
C1598 C1600 1.384 . S
C1599 C1598 1.377 . S
C1599 C1605 1.390 . S
C1600 H1591 0.930 . S
C1600 C1598 1.384 . S
C1600 C1601 1.372 . S
C1601 C1600 1.372 . S
C1601 C1602 1.400 . S
C1601 C1606 1.490 . S
C1602 H1592 0.930 . S
C1602 C1601 1.400 . S
C1602 C1605 1.386 . S
H1603 C1619 0.930 . S
H1604 C1620 0.931 . S
C1605 H1593 0.929 . S
C1605 C1599 1.390 . S
C1605 C1602 1.386 . S
C1606 C1601 1.490 . S
C1606 C1608 1.395 . S
C1606 C1609 1.403 . S
H1607 C1613 0.930 . S
C1608 H1594 0.930 . S
C1608 C1606 1.395 . S
C1608 C1611 1.403 . S
C1609 C1606 1.403 . S
C1609 C1610 1.524 . S
C1609 C1613 1.400 . S
C1610 H1595 0.960 . S
C1610 H1596 0.960 . S
C1610 H1597 0.960 . S
C1610 C1609 1.524 . S
C1611 C1608 1.403 . S
C1611 C1612 1.392 . S
C1611 C1615 1.495 . S
C1612 C1611 1.392 . S
C1612 C1613 1.385 . S
C1612 C1614 1.478 . S
C1613 H1607 0.930 . S
C1613 C1609 1.400 . S
C1613 C1612 1.385 . S
C1614 C1612 1.478 . S
C1614 C1616 1.381 . S
C1614 C1620 1.383 . S
C1615 C1611 1.495 . S
C1615 H1621 0.959 . S
C1615 H1622 0.961 . S
C1615 H1623 0.960 . S
C1616 C1614 1.381 . S
C1616 C1617 1.394 . S
C1616 H1624 0.930 . S
C1617 C1616 1.394 . S
C1617 C1618 1.383 . S
C1617 H1625 0.929 . S
C1618 C1617 1.383 . S
C1618 C1619 1.377 . S
C1619 H1603 0.930 . S
C1619 C1618 1.377 . S
C1619 C1620 1.379 . S
C1620 H1604 0.931 . S
C1620 C1614 1.383 . S
C1620 C1619 1.379 . S
H1621 C1615 0.959 . S
H1622 C1615 0.961 . S
H1623 C1615 0.960 . S
H1624 C1616 0.930 . S
H1625 C1617 0.929 . S
C771 C39 2.242 . S
C790 C381 2.179 . S
C807 C91 1.376 . S
C826 C455 1.366 . S
C862 C505 1.703 . S
C843 C128 1.769 . S
C898 C591 1.007 . S
C879 C188 1.026 . S
C934 C683 1.965 . S
C915 C250 1.963 . S
C970 C727 1.928 . S
C951 C304 1.970 . S
C987 C75 1.039 . S
C1006 C529 1.030 . S
C1023 C144 2.619 . S
C1042 C609 2.608 . S
C1078 C665 1.403 . S
C1059 C198 1.401 . S
C1114 C751 1.221 . S
C1095 C234 1.270 . S
C1131 C294 2.058 . S
C1150 C357 1.964 . S
C1186 C431 1.864 . S
C1167 C29 1.902 . S
C1222 C603 1.915 . S
C1203 C38 2.063 . S
C1239 C92 2.141 . S
C1258 C653 2.005 . S
C1294 C757 2.258 . S
C1275 C135 2.363 . S
C1311 C181 1.239 . S
C1330 C369 1.218 . S
C1347 C251 1.817 . S
C1366 C443 1.737 . S
C1383 C303 2.488 . S
C1402 C535 2.388 . S
C1419 C82 1.763 . S
C1438 C739 1.708 . S
C1474 C387 2.354 . S
C1455 C145 2.378 . S
C1491 C197 2.340 . S
C1510 C461 2.238 . S
C1527 C241 1.436 . S
C1546 C517 1.327 . S
C1563 C287 1.499 . S
C1582 C579 1.395 . S
C1599 C22 1.875 . S
C1618 C677 1.786 . S
