# Generated by pormake.
# Topology tsx, (6,3)-cn, num edge types: 1
# Building blocks:
#     Node 0, Type 0, BuildingBlock: JUFBIX_clean_sbu_0, # of connection points: 6
#     Node 1, Type 0, BuildingBlock: JUFBIX_clean_sbu_0, # of connection points: 6
#     Node 2, Type 1, BuildingBlock: BETDAH_clean_linker_0, # of connection points: 3
#     Node 3, Type 1, BuildingBlock: BETDAH_clean_linker_0, # of connection points: 3
#     Node 4, Type 1, BuildingBlock: BETDAH_clean_linker_0, # of connection points: 3
#     Node 5, Type 1, BuildingBlock: BETDAH_clean_linker_0, # of connection points: 3
#     Edge 6, Type (0, 1), BuildingBlock: FUNLAD_clean_linker_1, # of connection points: 2
#     Edge 7, Type (0, 1), BuildingBlock: FUNLAD_clean_linker_1, # of connection points: 2
#     Edge 8, Type (0, 1), BuildingBlock: FUNLAD_clean_linker_1, # of connection points: 2
#     Edge 9, Type (0, 1), BuildingBlock: FUNLAD_clean_linker_1, # of connection points: 2
#     Edge 10, Type (0, 1), BuildingBlock: FUNLAD_clean_linker_1, # of connection points: 2
#     Edge 11, Type (0, 1), BuildingBlock: FUNLAD_clean_linker_1, # of connection points: 2
#     Edge 12, Type (0, 1), BuildingBlock: FUNLAD_clean_linker_1, # of connection points: 2
#     Edge 13, Type (0, 1), BuildingBlock: FUNLAD_clean_linker_1, # of connection points: 2
#     Edge 14, Type (0, 1), BuildingBlock: FUNLAD_clean_linker_1, # of connection points: 2
#     Edge 15, Type (0, 1), BuildingBlock: FUNLAD_clean_linker_1, # of connection points: 2
#     Edge 16, Type (0, 1), BuildingBlock: FUNLAD_clean_linker_1, # of connection points: 2
#     Edge 17, Type (0, 1), BuildingBlock: FUNLAD_clean_linker_1, # of connection points: 2
# Relax obj value: 0.101
# Max RMSD: 0.126
# Mean RMSD: 0.113
data_MOF--net-tsx--node1-JUFBIX_clean_sbu_0--node2-BETDAH_clean_linker_0--edge1-FUNLAD_clean_linker_1
_symmetry_space_group_name_H-M    P1
_symmetry_Int_Tables_number       1
_symmetry_cell_setting            triclinic
loop_
_symmetry_equiv_pos_as_xyz
'x, y, z'
_cell_length_a     21.053182
_cell_length_b     24.756928
_cell_length_c     33.951941
_cell_angle_alpha  92.497693
_cell_angle_beta   97.830729
_cell_angle_gamma 98.898601
loop_
_atom_site_label
_atom_site_type_symbol
_atom_site_fract_x
_atom_site_fract_y
_atom_site_fract_z
_atom_type_partial_charge
Co0 Co 0.03615 0.97311 0.00222 0.0
C1 C 0.982 1.00158 0.9265 0.0
Co2 Co 0.9633 0.02882 0.00164 0.0
C3 C 0.15545 0.92222 0.0119 0.0
C4 C 0.075 0.8773 0.9723 0.0
N5 N 0.09266 0.92311 -0.00317 0.0
N6 N 0.17721 0.87779 -0.00269 0.0
C7 C 0.12622 0.8494 0.97269 0.0
H8 H 0.18483 0.95376 0.03264 0.0
H9 H 0.02767 0.86504 0.95473 0.0
C10 C 0.018 1.00266 0.07732 0.0
N11 N 0.90399 0.07577 0.006 0.0
C12 C 0.90208 0.12577 0.99198 0.0
C13 C 0.85198 0.06596 0.02545 0.0
N14 N 0.85038 0.14686 0.00142 0.0
C15 C 0.81882 0.10948 0.02258 0.0
C16 C 0.90833 0.92013 0.00018 0.0
O17 O 0.05216 0.97465 0.05899 0.0
O18 O 0.97693 0.02741 0.05769 0.0
O19 O 0.89487 0.96811 -0.00175 0.0
O20 O 0.96709 0.91323 0.00212 0.0
O21 O 0.95039 0.03069 0.94566 0.0
H22 H 0.8394 0.02972 0.04125 0.0
H23 H 0.93769 0.14627 0.97511 0.0
O24 O 0.01962 0.97295 0.94532 0.0
O25 O 0.10448 0.03361 0.0032 0.0
O26 O 0.03225 0.08888 0.005 0.0
C27 C 0.09086 0.08196 0.00506 0.0
H28 H 0.12522 0.81079 0.95627 0.0
H29 H 0.77598 0.11395 0.036 0.0
Co30 Co 0.56913 0.48775 0.51109 0.0
C31 C 0.53008 0.49258 0.43044 0.0
Co32 Co 0.47877 0.52351 0.4969 0.0
C33 C 0.66541 0.41447 0.50723 0.0
C34 C 0.69455 0.47991 0.55257 0.0
N35 N 0.64565 0.45888 0.52347 0.0
N36 N 0.72468 0.40725 0.52529 0.0
C37 C 0.7428 0.44823 0.55383 0.0
H38 H 0.63647 0.38777 0.48312 0.0
H39 H 0.69493 0.51596 0.57184 0.0
C40 C 0.51799 0.52107 0.57749 0.0
N41 N 0.40291 0.55339 0.48586 0.0
C42 C 0.39528 0.60091 0.46908 0.0
C43 C 0.34576 0.53627 0.49878 0.0
N44 N 0.33647 0.61468 0.47188 0.0
C45 C 0.30479 0.57377 0.49018 0.0
C46 C 0.4572 0.41083 0.50349 0.0
O47 O 0.5644 0.49967 0.56646 0.0
O48 O 0.47443 0.53366 0.55161 0.0
O49 O 0.42956 0.4521 0.49576 0.0
O50 O 0.51882 0.41695 0.5108 0.0
O51 O 0.48392 0.51375 0.44208 0.0
H52 H 0.33557 0.50025 0.51522 0.0
H53 H 0.43332 0.62661 0.45692 0.0
O54 O 0.57256 0.47696 0.45581 0.0
O55 O 0.6186 0.5589 0.51149 0.0
O56 O 0.52918 0.59414 0.49867 0.0
C57 C 0.59065 0.6004 0.5056 0.0
H58 H 0.78788 0.45464 0.57429 0.0
H59 H 0.25637 0.57167 0.49797 0.0
H60 H 0.16189 0.96175 0.38034 0.0
H61 H 0.04107 0.08423 0.3925 0.0
H62 H 0.08194 0.98168 0.4889 0.0
C63 C 0.13508 0.98365 0.39893 0.0
C64 C 0.12734 0.96729 0.43727 0.0
C65 C 0.10361 0.02507 0.38255 0.0
C66 C 0.06523 0.05208 0.40518 0.0
C67 C 0.05853 0.03713 0.44418 0.0
C68 C 0.08904 0.99445 0.45956 0.0
N69 N 0.02098 0.06301 0.46876 0.0
C70 C 0.98205 0.10175 0.45702 0.0
H71 H 0.88227 0.96063 0.61816 0.0
H72 H 0.06422 0.06969 0.62745 0.0
H73 H 0.01611 0.938 0.53624 0.0
C74 C 0.92667 0.97471 0.60619 0.0
C75 C 0.94264 0.94532 0.57363 0.0
C76 C 0.97092 0.01853 0.62636 0.0
C77 C 0.02979 0.03584 0.61197 0.0
C78 C 0.04543 1.00731 0.57879 0.0
C79 C 1.00266 0.96129 0.56069 0.0
N80 N 0.10529 0.02186 0.56429 0.0
C81 C 0.13756 0.07531 0.56554 0.0
H82 H 0.64379 0.47111 0.86866 0.0
H83 H 0.54038 0.60072 0.89864 0.0
H84 H 0.57806 0.47983 0.98214 0.0
C85 C 0.61989 0.49185 0.88981 0.0
C86 C 0.61596 0.47133 0.9271 0.0
C87 C 0.59219 0.53796 0.87912 0.0
C88 C 0.56092 0.56452 0.9066 0.0
C89 C 0.55719 0.54417 0.94451 0.0
C90 C 0.58395 0.49721 0.9541 0.0
N91 N 0.52728 0.56946 0.97383 0.0
C92 C 0.49713 0.61528 0.96855 0.0
H93 H 0.42395 0.4111 0.12335 0.0
H94 H 0.59137 0.53389 0.1223 0.0
H95 H 0.53669 0.4081 0.02694 0.0
C96 C 0.46273 0.42953 0.10789 0.0
C97 C 0.47329 0.40481 0.07182 0.0
C98 C 0.50546 0.47542 0.1264 0.0
C99 C 0.55817 0.49848 0.10801 0.0
C100 C 0.56932 0.47426 0.07197 0.0
C101 C 0.52725 0.42728 0.05439 0.0
N102 N 0.62423 0.49409 0.0537 0.0
C103 C 0.65968 0.54664 0.06027 0.0
H104 H 0.12669 0.17055 0.00862 0.0
C105 C 0.14196 0.13054 0.00902 0.0
H106 H 0.22198 0.08819 0.01862 0.0
H107 H 0.3481 0.34405 0.984 0.0
H108 H 0.30286 0.31772 0.91499 0.0
H109 H 0.23599 0.22701 0.89596 0.0
H110 H 0.21363 0.16216 0.94597 0.0
C111 C 0.20559 0.12758 0.01601 0.0
C112 C 0.25389 0.17852 0.02619 0.0
C113 C 0.26821 0.21523 -0.00349 0.0
C114 C 0.30803 0.26703 0.00737 0.0
C115 C 0.31935 0.30375 0.97732 0.0
C116 C 0.29348 0.28921 0.9376 0.0
C117 C 0.25573 0.23817 0.92689 0.0
C118 C 0.24305 0.20144 0.95588 0.0
H119 H 0.45379 0.3259 0.03526 0.0
C120 C 0.43233 0.35283 0.05389 0.0
H121 H 0.3474 0.36354 0.07828 0.0
H122 H 0.2391 0.11615 0.09002 0.0
H123 H 0.2867 0.14126 0.15877 0.0
H124 H 0.35727 0.23041 0.17754 0.0
H125 H 0.38059 0.295 0.12767 0.0
C126 C 0.37076 0.33726 0.06047 0.0
C127 C 0.33429 0.28148 0.04785 0.0
C128 C 0.32217 0.24375 0.07727 0.0
C129 C 0.28201 0.19218 0.06642 0.0
C130 C 0.26961 0.15576 0.09656 0.0
C131 C 0.29662 0.16965 0.13616 0.0
C132 C 0.3363 0.21984 0.14673 0.0
C133 C 0.34914 0.2566 0.11779 0.0
H134 H 0.2736 0.8832 0.03252 0.0
C135 C 0.24097 0.86288 0.00676 0.0
H136 H 0.22951 0.80538 0.95749 0.0
H137 H 0.50497 0.76423 0.94236 0.0
H138 H 0.492 0.8286 0.89099 0.0
H139 H 0.40173 0.88191 0.88653 0.0
H140 H 0.32415 0.87147 0.93364 0.0
C141 C 0.25984 0.8232 0.98474 0.0
C142 C 0.32247 0.80236 0.99411 0.0
C143 C 0.3677 0.80912 0.96665 0.0
C144 C 0.41924 0.77791 0.96889 0.0
C145 C 0.46397 0.78592 0.94129 0.0
C146 C 0.45735 0.823 0.91187 0.0
C147 C 0.40655 0.85304 0.90937 0.0
C148 C 0.36218 0.84644 0.93641 0.0
H149 H 0.42367 0.66059 0.94128 0.0
C150 C 0.46179 0.66077 0.96632 0.0
H151 H 0.5073 0.69758 0.02223 0.0
H152 H 0.24767 0.78235 0.05378 0.0
H153 H 0.26383 0.72132 0.10664 0.0
H154 H 0.3543 0.66836 0.11112 0.0
H155 H 0.4288 0.67587 0.06248 0.0
C156 C 0.47078 0.69925 -0.00345 0.0
C157 C 0.42502 0.7394 -0.00168 0.0
C158 C 0.38347 0.73628 0.02803 0.0
C159 C 0.33169 0.76741 0.02573 0.0
C160 C 0.28853 0.76074 0.05437 0.0
C161 C 0.2971 0.7256 0.08489 0.0
C162 C 0.34801 0.69576 0.0874 0.0
C163 C 0.39055 0.70058 0.05927 0.0
H164 H 0.80622 0.88066 -0.00198 0.0
C165 C 0.85633 0.87363 0.00257 0.0
H166 H 0.91951 0.81739 0.01943 0.0
H167 H 0.70656 0.68816 0.11295 0.0
H168 H 0.76719 0.74963 0.16753 0.0
H169 H 0.85181 0.82524 0.15529 0.0
H170 H 0.87602 0.84005 0.08836 0.0
C171 C 0.86958 0.82443 0.01301 0.0
C172 C 0.81726 0.77983 0.01999 0.0
C173 C 0.80492 0.77086 0.05938 0.0
C174 C 0.7572 0.72648 0.06654 0.0
C175 C 0.74388 0.72 0.10599 0.0
C176 C 0.77796 0.75528 0.13756 0.0
C177 C 0.82557 0.79788 0.13067 0.0
C178 C 0.83902 0.80586 0.0921 0.0
H179 H 0.75027 0.60388 0.07518 0.0
C180 C 0.69985 0.59954 0.06151 0.0
H181 H 0.62834 0.63438 0.02656 0.0
H182 H 0.8272 0.78751 0.94087 0.0
H183 H 0.76599 0.72677 0.88602 0.0
H184 H 0.68539 0.64825 0.89837 0.0
H185 H 0.66538 0.63008 0.96555 0.0
C186 C 0.67809 0.64027 0.04167 0.0
C187 C 0.72339 0.69015 0.03436 0.0
C188 C 0.73439 0.70027 0.99478 0.0
C189 C 0.78127 0.74527 0.98761 0.0
C190 C 0.79197 0.75402 0.94793 0.0
C191 C 0.75728 0.71942 0.91618 0.0
C192 C 0.71186 0.67523 0.92313 0.0
C193 C 0.70061 0.66541 0.96188 0.0
H194 H 0.87364 0.23298 0.98947 0.0
C195 C 0.83469 0.19989 0.9928 0.0
H196 H 0.73417 0.17546 0.99176 0.0
H197 H 0.65045 0.39606 0.03762 0.0
H198 H 0.62956 0.34385 0.09447 0.0
H199 H 0.66823 0.25528 0.10277 0.0
H200 H 0.72676 0.21845 0.05396 0.0
C201 C 0.77291 0.20887 0.98886 0.0
C202 C 0.75535 0.26447 0.98502 0.0
C203 C 0.72285 0.28614 0.01454 0.0
C204 C 0.70172 0.33763 0.01025 0.0
C205 C 0.66771 0.35743 0.03954 0.0
C206 C 0.65561 0.32784 0.0724 0.0
C207 C 0.67728 0.27801 0.07702 0.0
C208 C 0.71063 0.25725 0.04862 0.0
H209 H 0.63392 0.38776 0.91338 0.0
C210 C 0.64329 0.42125 0.9363 0.0
H211 H 0.69523 0.45191 0.99237 0.0
H212 H 0.81061 0.23306 0.92054 0.0
H213 H 0.83965 0.28934 0.86714 0.0
H214 H 0.81615 0.38385 0.86489 0.0
H215 H 0.7613 0.42172 0.91539 0.0
C216 C 0.68428 0.41807 0.96974 0.0
C217 C 0.71395 0.3678 0.97681 0.0
C218 C 0.75089 0.34805 0.94893 0.0
C219 C 0.76904 0.29525 0.952 0.0
C220 C 0.79941 0.2742 0.92126 0.0
C221 C 0.81583 0.30592 0.89014 0.0
C222 C 0.80228 0.35899 0.88874 0.0
C223 C 0.7702 0.38002 0.9177 0.0
H224 H 0.60173 0.6903 0.50539 0.0
C225 C 0.62823 0.65603 0.50902 0.0
H226 H 0.72069 0.63229 0.52273 0.0
H227 H 0.84881 0.87134 0.4786 0.0
H228 H 0.84739 0.82159 0.41524 0.0
H229 H 0.79202 0.72577 0.40255 0.0
H230 H 0.73715 0.67934 0.45309 0.0
C231 C 0.69297 0.66574 0.51905 0.0
C232 C 0.72812 0.72267 0.52718 0.0
C233 C 0.76143 0.74856 0.49782 0.0
C234 C 0.79478 0.80326 0.50555 0.0
C235 C 0.82487 0.82915 0.47491 0.0
C236 C 0.82391 0.80121 0.43826 0.0
C237 C 0.79263 0.74729 0.43108 0.0
C238 C 0.76144 0.72112 0.46034 0.0
H239 H 0.9244 0.86096 0.54589 0.0
C240 C 0.90082 0.89409 0.55593 0.0
H241 H 0.81141 0.9194 0.56258 0.0
H242 H 0.6677 0.68484 0.58959 0.0
H243 H 0.66744 0.7349 0.65245 0.0
H244 H 0.7288 0.82847 0.66708 0.0
H245 H 0.7886 0.87334 0.61831 0.0
C246 C 0.83578 0.88645 0.55327 0.0
C247 C 0.7965 0.83112 0.54321 0.0
C248 C 0.7622 0.80541 0.57236 0.0
C249 C 0.72779 0.75113 0.56427 0.0
C250 C 0.69425 0.7262 0.59397 0.0
C251 C 0.69415 0.75428 0.63039 0.0
C252 C 0.72844 0.80704 0.63854 0.0
C253 C 0.76242 0.83241 0.61011 0.0
H254 H 0.80526 0.36275 0.54001 0.0
C255 C 0.76249 0.36474 0.51849 0.0
H256 H 0.70834 0.33046 0.46356 0.0
H257 H 0.96024 0.23848 0.41951 0.0
H258 H 0.95116 0.30888 0.37263 0.0
H259 H 0.86862 0.36923 0.37468 0.0
H260 H 0.79488 0.3598 0.42394 0.0
C261 C 0.74859 0.32825 0.48675 0.0
C262 C 0.79149 0.28633 0.48165 0.0
C263 C 0.83277 0.29096 0.45183 0.0
C264 C 0.87967 0.25534 0.45017 0.0
C265 C 0.92255 0.26316 0.42147 0.0
C266 C 0.91815 0.30371 0.3945 0.0
C267 C 0.87174 0.33776 0.39569 0.0
C268 C 0.82967 0.33186 0.42409 0.0
H269 H 0.90254 0.13565 0.42349 0.0
C270 C 0.9378 0.1408 0.45041 0.0
H271 H 0.97024 0.18196 0.50668 0.0
H272 H 0.71325 0.26078 0.53845 0.0
H273 H 0.71971 0.18858 0.58417 0.0
H274 H 0.80088 0.12703 0.58158 0.0
H275 H 0.87585 0.13711 0.53321 0.0
C276 C 0.93647 0.17951 0.47913 0.0
C277 C 0.88413 0.21418 0.47781 0.0
C278 C 0.84059 0.20789 0.50637 0.0
C279 C 0.79409 0.2437 0.50814 0.0
C280 C 0.75053 0.23563 0.53646 0.0
C281 C 0.75338 0.19408 0.5627 0.0
C282 C 0.79905 0.15941 0.56122 0.0
C283 C 0.84205 0.16587 0.53339 0.0
H284 H 0.44422 0.32243 0.51282 0.0
C285 C 0.41851 0.35676 0.50697 0.0
H286 H 0.32719 0.38354 0.50053 0.0
H287 H 0.16135 0.14587 0.46591 0.0
H288 H 0.14072 0.18375 0.40165 0.0
H289 H 0.20072 0.2733 0.38835 0.0
H290 H 0.28148 0.32564 0.4394 0.0
C291 C 0.35381 0.34986 0.5067 0.0
C292 C 0.31673 0.29638 0.51512 0.0
C293 C 0.27012 0.26616 0.48486 0.0
C294 C 0.23625 0.21417 0.49234 0.0
C295 C 0.18925 0.18518 0.46171 0.0
C296 C 0.17676 0.20652 0.42468 0.0
C297 C 0.2105 0.25695 0.41722 0.0
C298 C 0.25671 0.28659 0.44681 0.0
H299 H 0.16235 0.16358 0.58033 0.0
C300 C 0.17242 0.12935 0.5624 0.0
H301 H 0.22286 0.10237 0.51786 0.0
H302 H 0.3938 0.34806 0.58211 0.0
H303 H 0.41616 0.30953 0.64591 0.0
H304 H 0.36521 0.21582 0.65691 0.0
H305 H 0.29033 0.16078 0.6045 0.0
C306 C 0.21548 0.13691 0.5367 0.0
C307 C 0.24939 0.19233 0.52997 0.0
C308 C 0.29555 0.22283 0.56043 0.0
C309 C 0.32781 0.2756 0.55335 0.0
C310 C 0.37035 0.30671 0.58512 0.0
C311 C 0.38325 0.28525 0.62207 0.0
C312 C 0.35435 0.23261 0.62831 0.0
C313 C 0.31106 0.20156 0.59798 0.0
H314 H 0.34547 0.69182 0.44283 0.0
C315 C 0.31636 0.66569 0.46087 0.0
H316 H 0.23787 0.65992 0.49411 0.0
H317 H 0.24748 0.91593 0.51574 0.0
H318 H 0.28905 0.8954 0.58263 0.0
H319 H 0.31279 0.80309 0.59674 0.0
H320 H 0.29538 0.7308 0.544 0.0
C321 C 0.26533 0.68353 0.47407 0.0
C322 C 0.24913 0.73869 0.46542 0.0
C323 C 0.25845 0.78024 0.49676 0.0
C324 C 0.24402 0.83334 0.48874 0.0
C325 C 0.25607 0.87456 0.52032 0.0
C326 C 0.28032 0.86342 0.55884 0.0
C327 C 0.29374 0.81146 0.56677 0.0
C328 C 0.28332 0.77028 0.53621 0.0
H329 H 0.12679 0.89532 0.47389 0.0
C330 C 0.15274 0.91828 0.45275 0.0
H331 H 0.23162 0.92215 0.41982 0.0
H332 H 0.21993 0.66704 0.39922 0.0
H333 H 0.1777 0.68739 0.33246 0.0
H334 H 0.15394 0.77968 0.31835 0.0
H335 H 0.17201 0.85205 0.37093 0.0
C336 C 0.20398 0.8997 0.44034 0.0
C337 C 0.21933 0.84449 0.44949 0.0
C338 C 0.20959 0.80282 0.41821 0.0
C339 C 0.224 0.74976 0.42622 0.0
C340 C 0.2115 0.70845 0.39467 0.0
C341 C 0.1868 0.71946 0.3562 0.0
C342 C 0.17338 0.77139 0.34827 0.0
C343 C 0.18424 0.81265 0.37877 0.0
H344 H 0.99288 0.03309 0.13373 0.0
C345 C 0.02502 1.00892 0.121 0.0
H346 H 0.10136 0.96309 0.13424 0.0
H347 H 0.11403 0.12813 0.29638 0.0
H348 H 0.17077 0.19594 0.2584 0.0
H349 H 0.18379 0.17379 0.18868 0.0
H350 H 0.13997 0.08365 0.15645 0.0
C351 C 0.06903 0.98821 0.14559 0.0
C352 C 0.07156 0.99834 0.1893 0.0
C353 C 0.09908 0.05063 0.20803 0.0
C354 C 0.0929 0.06299 0.2485 0.0
C355 C 0.11874 0.11616 0.26602 0.0
C356 C 0.15114 0.15554 0.24449 0.0
C357 C 0.15836 0.1431 0.20521 0.0
C358 C 0.13271 0.09134 0.18702 0.0
H359 H 0.15533 0.0335 0.33043 0.0
C360 C 0.10885 0.03562 0.34055 0.0
H361 H 1.00823 0.03014 0.32251 0.0
H362 H 0.01684 0.89348 0.1627 0.0
H363 H 0.96364 0.8243 0.2012 0.0
H364 H 0.95475 0.8448 0.27182 0.0
H365 H 0.99857 0.93449 0.30434 0.0
C366 C 0.05607 0.03389 0.31326 0.0
C367 C 0.06046 0.02258 0.27037 0.0
C368 C 0.03472 0.96969 0.25191 0.0
C369 C 0.04037 0.95761 0.21133 0.0
C370 C 1.01389 0.9047 0.19349 0.0
C371 C 0.98334 0.86462 0.21525 0.0
C372 C 0.97834 0.87616 0.255 0.0
C373 C 1.00365 0.92794 0.27329 0.0
H374 H 1.00409 0.97437 0.86811 0.0
C375 C 0.97863 1.00246 0.88295 0.0
H376 H 0.92695 0.069 0.87621 0.0
H377 H 0.05654 0.1382 0.72349 0.0
H378 H 0.1006 0.21581 0.77075 0.0
H379 H 0.07909 0.21474 0.84038 0.0
H380 H 1.01297 0.13641 0.86313 0.0
C381 C 0.94975 0.03874 0.86163 0.0
C382 C 0.95558 0.04225 0.81855 0.0
C383 C 0.99383 0.08864 0.8057 0.0
C384 C 1.00699 0.08899 0.7657 0.0
C385 C 0.04562 0.13566 0.75366 0.0
C386 C 0.07111 0.18048 0.78045 0.0
C387 C 0.05894 0.1799 0.81965 0.0
C388 C 0.02087 0.13463 0.83232 0.0
H389 H 0.90745 0.04244 0.66856 0.0
C390 C 0.95757 0.03978 0.66525 0.0
H391 H 0.05101 0.03602 0.69575 0.0
H392 H 0.87026 0.95194 0.83155 0.0
H393 H 0.82799 0.8733 0.785 0.0
H394 H 0.85849 0.86999 0.71741 0.0
H395 H 0.93009 0.94529 0.6958 0.0
C396 C 1.00135 0.04131 0.69813 0.0
C397 C 0.98215 0.04294 0.73872 0.0
C398 C 0.94237 0.99702 0.75134 0.0
C399 C 0.92755 0.99751 0.79096 0.0
C400 C 0.88511 0.95258 0.80227 0.0
C401 C 0.8602 0.90735 0.77579 0.0
C402 C 0.87716 0.90559 0.73771 0.0
C403 C 0.91796 0.94956 0.72554 0.0
H404 H 0.47115 0.54796 0.62719 0.0
C405 C 0.51394 0.53245 0.61976 0.0
H406 H 0.60528 0.51216 0.64222 0.0
H407 H 0.62951 0.65598 0.804 0.0
H408 H 0.71406 0.70732 0.77202 0.0
H409 H 0.72653 0.68219 0.70272 0.0
H410 H 0.65367 0.60656 0.66457 0.0
C411 C 0.56082 0.5253 0.64901 0.0
C412 C 0.55475 0.539 0.6912 0.0
C413 C 0.59733 0.58375 0.71274 0.0
C414 C 0.59103 0.59764 0.75291 0.0
C415 C 0.63343 0.64299 0.77369 0.0
C416 C 0.68178 0.67297 0.75562 0.0
C417 C 0.68863 0.65893 0.71653 0.0
C418 C 0.64666 0.61525 0.69505 0.0
H419 H 0.63542 0.54399 0.82391 0.0
C420 C 0.59559 0.55501 0.83829 0.0
H421 H 0.50301 0.57883 0.82822 0.0
H422 H 0.46873 0.44754 0.65949 0.0
H423 H 0.38539 0.39613 0.69176 0.0
H424 H 0.37228 0.42217 0.7608 0.0
H425 H 0.44276 0.49956 0.79793 0.0
C426 C 0.546 0.57179 0.81565 0.0
C427 C 0.54309 0.56609 0.77165 0.0
C428 C 0.49925 0.52232 0.74976 0.0
C429 C 0.5058 0.5081 0.70968 0.0
C430 C 0.4644 0.46167 0.68944 0.0
C431 C 0.41666 0.43135 0.70777 0.0
C432 C 0.40939 0.44593 0.74664 0.0
C433 C 0.45026 0.49057 0.76762 0.0
H434 H 0.5735 0.4662 0.37882 0.0
C435 C 0.53621 0.48793 0.3879 0.0
H436 H 0.46409 0.53595 0.36947 0.0
H437 H 0.58705 0.60693 0.21592 0.0
H438 H 0.61178 0.69236 0.25711 0.0
H439 H 0.59071 0.69523 0.32686 0.0
H440 H 0.54441 0.61289 0.35578 0.0
C441 C 0.49932 0.51175 0.36063 0.0
C442 C 0.51 0.5101 0.31835 0.0
C443 C 0.5371 0.55868 0.30203 0.0
C444 C 0.54986 0.55698 0.26201 0.0
C445 C 0.57672 0.60601 0.24627 0.0
C446 C 0.59114 0.65526 0.26958 0.0
C447 C 0.57924 0.65688 0.30884 0.0
C448 C 0.55258 0.60931 0.32506 0.0
H449 H 0.44772 0.48952 0.17426 0.0
C450 C 0.49689 0.49437 0.16684 0.0
H451 H 0.59687 0.50773 0.1905 0.0
H452 H 0.45085 0.41091 0.33915 0.0
H453 H 0.42987 0.32502 0.29886 0.0
H454 H 0.4599 0.32059 0.23118 0.0
H455 H 0.50998 0.40207 0.20325 0.0
C456 C 0.54712 0.50518 0.19644 0.0
C457 C 0.53553 0.50679 0.23856 0.0
C458 C 0.50932 0.45796 0.25509 0.0
C459 C 0.49492 0.45994 0.29472 0.0
C460 C 0.46513 0.41134 0.30974 0.0
C461 C 0.45245 0.36178 0.28684 0.0
C462 C 0.46913 0.35932 0.2487 0.0
C463 C 0.49741 0.40663 0.2329 0.0
loop_
_geom_bond_atom_site_label_1
_geom_bond_atom_site_label_2
_geom_bond_distance
_geom_bond_site_symmetry_2
_ccdc_geom_bond_type
Co0 N5 2.057 . S
Co0 O17 2.021 . S
Co0 O20 2.062 1_455 S
Co0 O24 2.117 1_554 S
Co0 O25 2.020 1_565 S
C1 O21 1.259 1_455 S
C1 O24 1.258 1_545 S
Co2 N11 2.057 . S
Co2 O18 2.117 . S
Co2 O19 2.020 1_545 S
Co2 O21 2.021 1_554 S
Co2 O26 2.062 1_655 S
C3 N5 1.316 . S
C3 N6 1.347 . S
C3 H8 0.931 . S
C4 N5 1.375 1_556 S
C4 C7 1.350 . S
C4 H9 0.930 . S
N5 Co0 2.057 . S
N5 C3 1.316 . S
N5 C4 1.375 1_554 S
N6 C3 1.347 . S
N6 C7 1.373 1_554 S
C7 C4 1.350 . S
C7 N6 1.373 1_556 S
C7 H28 0.931 . S
H8 C3 0.931 . S
H9 C4 0.930 . S
C10 O17 1.247 1_545 S
C10 O18 1.269 1_455 S
N11 Co2 2.057 . S
N11 C12 1.316 1_554 S
N11 C13 1.375 . S
C12 N11 1.316 1_556 S
C12 N14 1.347 1_556 S
C12 H23 0.931 . S
C13 N11 1.375 . S
C13 C15 1.350 . S
C13 H22 0.930 . S
N14 C12 1.347 1_554 S
N14 C15 1.373 . S
C15 C13 1.350 . S
C15 N14 1.373 . S
C15 H29 0.931 . S
C16 O19 1.256 . S
C16 O20 1.255 . S
O17 Co0 2.021 . S
O17 C10 1.247 1_565 S
O18 Co2 2.117 . S
O18 C10 1.269 1_655 S
O19 Co2 2.020 1_565 S
O19 C16 1.256 . S
O20 Co0 2.062 1_655 S
O20 C16 1.255 . S
O21 C1 1.259 1_655 S
O21 Co2 2.021 1_556 S
H22 C13 0.930 . S
H23 C12 0.931 . S
O24 Co0 2.117 1_556 S
O24 C1 1.258 1_565 S
O25 Co0 2.020 1_545 S
O25 C27 1.256 . S
O26 Co2 2.062 1_455 S
O26 C27 1.255 . S
C27 O25 1.256 . S
C27 O26 1.255 . S
H28 C7 0.931 . S
H29 C15 0.931 . S
Co30 N35 2.057 . S
Co30 O47 2.021 . S
Co30 O50 2.062 . S
Co30 O54 2.117 . S
Co30 O55 2.020 . S
C31 O51 1.259 . S
C31 O54 1.258 . S
Co32 N41 2.057 . S
Co32 O48 2.117 . S
Co32 O49 2.020 . S
Co32 O51 2.021 . S
Co32 O56 2.062 . S
C33 N35 1.316 . S
C33 N36 1.347 . S
C33 H38 0.931 . S
C34 N35 1.375 . S
C34 C37 1.350 . S
C34 H39 0.930 . S
N35 Co30 2.057 . S
N35 C33 1.316 . S
N35 C34 1.375 . S
N36 C33 1.347 . S
N36 C37 1.373 . S
C37 C34 1.350 . S
C37 N36 1.373 . S
C37 H58 0.931 . S
H38 C33 0.931 . S
H39 C34 0.930 . S
C40 O47 1.259 . S
C40 O48 1.258 . S
N41 Co32 2.057 . S
N41 C42 1.316 . S
N41 C43 1.375 . S
C42 N41 1.316 . S
C42 N44 1.347 . S
C42 H53 0.931 . S
C43 N41 1.375 . S
C43 C45 1.350 . S
C43 H52 0.930 . S
N44 C42 1.347 . S
N44 C45 1.373 . S
C45 C43 1.350 . S
C45 N44 1.373 . S
C45 H59 0.931 . S
C46 O49 1.256 . S
C46 O50 1.255 . S
O47 Co30 2.021 . S
O47 C40 1.259 . S
O48 Co32 2.117 . S
O48 C40 1.258 . S
O49 Co32 2.020 . S
O49 C46 1.256 . S
O50 Co30 2.062 . S
O50 C46 1.255 . S
O51 C31 1.259 . S
O51 Co32 2.021 . S
H52 C43 0.930 . S
H53 C42 0.931 . S
O54 Co30 2.117 . S
O54 C31 1.258 . S
O55 Co30 2.020 . S
O55 C57 1.256 . S
O56 Co32 2.062 . S
O56 C57 1.255 . S
C57 O55 1.256 . S
C57 O56 1.255 . S
H58 C37 0.931 . S
H59 C45 0.931 . S
H60 C63 0.929 . S
H61 C66 0.929 1_655 S
H62 C68 0.930 . S
C63 H60 0.929 . S
C63 C64 1.398 . S
C63 C65 1.396 . S
C64 C63 1.398 . S
C64 C68 1.407 . S
C65 C63 1.396 . S
C65 C66 1.394 1_565 S
C66 H61 0.929 1_455 S
C66 C65 1.394 1_545 S
C66 C67 1.382 . S
C67 C66 1.382 . S
C67 C68 1.392 1_545 S
C67 N69 1.420 1_455 S
C68 H62 0.930 . S
C68 C64 1.407 . S
C68 C67 1.392 1_565 S
N69 C67 1.420 1_655 S
N69 C70 1.244 . S
C70 N69 1.244 . S
H71 C74 0.929 . S
H72 C77 0.929 . S
H73 C79 0.930 . S
C74 H71 0.929 . S
C74 C75 1.398 . S
C74 C76 1.400 . S
C75 C74 1.398 . S
C75 C79 1.407 . S
C76 C74 1.400 . S
C76 C77 1.391 1_665 S
C77 H72 0.929 . S
C77 C76 1.391 1_445 S
C77 C78 1.382 . S
C78 C77 1.382 . S
C78 C79 1.392 1_445 S
C78 N80 1.420 . S
C79 H73 0.930 . S
C79 C75 1.407 . S
C79 C78 1.392 1_665 S
N80 C78 1.420 . S
N80 C81 1.244 . S
C81 N80 1.244 . S
H82 C85 0.929 . S
H83 C88 0.929 . S
H84 C90 0.930 1_554 S
C85 H82 0.929 . S
C85 C86 1.398 . S
C85 C87 1.396 . S
C86 C85 1.398 . S
C86 C90 1.407 . S
C87 C85 1.396 . S
C87 C88 1.394 . S
C88 H83 0.929 . S
C88 C87 1.394 . S
C88 C89 1.382 . S
C89 C88 1.382 . S
C89 C90 1.392 . S
C89 N91 1.420 . S
C90 H84 0.930 1_556 S
C90 C86 1.407 . S
C90 C89 1.392 . S
N91 C89 1.420 . S
N91 C92 1.244 . S
C92 N91 1.244 . S
H93 C96 0.929 . S
H94 C99 0.929 . S
H95 C101 0.930 . S
C96 H93 0.929 . S
C96 C97 1.398 . S
C96 C98 1.396 . S
C97 C96 1.398 . S
C97 C101 1.407 . S
C98 C96 1.396 . S
C98 C99 1.394 . S
C99 H94 0.929 . S
C99 C98 1.394 . S
C99 C100 1.382 . S
C100 C99 1.382 . S
C100 C101 1.392 . S
C100 N102 1.420 . S
C101 H95 0.930 . S
C101 C97 1.407 . S
C101 C100 1.392 . S
N102 C100 1.420 . S
N102 C103 1.244 . S
C103 N102 1.244 . S
H104 C105 0.951 . S
C105 H104 0.951 . S
C105 C111 1.265 . S
H106 C111 0.950 . S
H107 C115 0.949 . S
H108 C116 0.950 . S
H109 C117 0.951 . S
H110 C118 0.951 . S
C111 C105 1.265 . S
C111 H106 0.950 . S
C111 C112 1.478 . S
C112 C111 1.478 . S
C112 C113 1.397 1_554 S
C112 C129 1.394 . S
C113 C112 1.397 1_556 S
C113 C114 1.438 1_556 S
C113 C118 1.429 . S
C114 C113 1.438 1_554 S
C114 C115 1.428 1_554 S
C114 C127 1.394 . S
C115 H107 0.949 . S
C115 C114 1.428 1_556 S
C115 C116 1.345 . S
C116 H108 0.950 . S
C116 C115 1.345 . S
C116 C117 1.424 . S
C117 H109 0.951 . S
C117 C116 1.424 . S
C117 C118 1.347 . S
C118 H110 0.951 . S
C118 C113 1.429 . S
C118 C117 1.347 . S
H119 C120 0.951 . S
C120 H119 0.951 . S
C120 C126 1.265 . S
H121 C126 0.950 . S
H122 C130 0.949 . S
H123 C131 0.950 . S
H124 C132 0.951 . S
H125 C133 0.951 . S
C126 C120 1.265 . S
C126 H121 0.950 . S
C126 C127 1.478 . S
C127 C114 1.394 . S
C127 C126 1.478 . S
C127 C128 1.397 . S
C128 C127 1.397 . S
C128 C129 1.438 . S
C128 C133 1.429 . S
C129 C112 1.394 . S
C129 C128 1.438 . S
C129 C130 1.428 . S
C130 H122 0.949 . S
C130 C129 1.428 . S
C130 C131 1.345 . S
C131 H123 0.950 . S
C131 C130 1.345 . S
C131 C132 1.424 . S
C132 H124 0.951 . S
C132 C131 1.424 . S
C132 C133 1.347 . S
C133 H125 0.951 . S
C133 C128 1.429 . S
C133 C132 1.347 . S
H134 C135 0.951 . S
C135 H134 0.951 . S
C135 C141 1.265 . S
H136 C141 0.950 1_556 S
H137 C145 0.949 . S
H138 C146 0.950 . S
H139 C147 0.951 . S
H140 C148 0.951 . S
C141 C135 1.265 . S
C141 H136 0.950 1_554 S
C141 C142 1.478 . S
C142 C141 1.478 . S
C142 C143 1.397 1_554 S
C142 C159 1.394 . S
C143 C142 1.397 1_556 S
C143 C144 1.438 . S
C143 C148 1.429 . S
C144 C143 1.438 . S
C144 C145 1.428 . S
C144 C157 1.394 1_556 S
C145 H137 0.949 . S
C145 C144 1.428 . S
C145 C146 1.345 . S
C146 H138 0.950 . S
C146 C145 1.345 . S
C146 C147 1.424 . S
C147 H139 0.951 . S
C147 C146 1.424 . S
C147 C148 1.347 . S
C148 H140 0.951 . S
C148 C143 1.429 . S
C148 C147 1.347 . S
H149 C150 0.951 . S
C150 H149 0.951 . S
C150 C156 1.265 1_556 S
H151 C156 0.950 . S
H152 C160 0.949 . S
H153 C161 0.950 . S
H154 C162 0.951 . S
H155 C163 0.951 . S
C156 C150 1.265 1_554 S
C156 H151 0.950 . S
C156 C157 1.478 . S
C157 C144 1.394 1_554 S
C157 C156 1.478 . S
C157 C158 1.397 . S
C158 C157 1.397 . S
C158 C159 1.438 . S
C158 C163 1.429 . S
C159 C142 1.394 . S
C159 C158 1.438 . S
C159 C160 1.428 . S
C160 H152 0.949 . S
C160 C159 1.428 . S
C160 C161 1.345 . S
C161 H153 0.950 . S
C161 C160 1.345 . S
C161 C162 1.424 . S
C162 H154 0.951 . S
C162 C161 1.424 . S
C162 C163 1.347 . S
C163 H155 0.951 . S
C163 C158 1.429 . S
C163 C162 1.347 . S
H164 C165 0.951 1_556 S
C165 H164 0.951 1_554 S
C165 C171 1.265 . S
H166 C171 0.950 . S
H167 C175 0.949 . S
H168 C176 0.950 . S
H169 C177 0.951 . S
H170 C178 0.951 . S
C171 C165 1.265 . S
C171 H166 0.950 . S
C171 C172 1.478 . S
C172 C171 1.478 . S
C172 C173 1.397 . S
C172 C189 1.394 1_554 S
C173 C172 1.397 . S
C173 C174 1.438 . S
C173 C178 1.429 . S
C174 C173 1.438 . S
C174 C175 1.428 . S
C174 C187 1.394 . S
C175 H167 0.949 . S
C175 C174 1.428 . S
C175 C176 1.345 . S
C176 H168 0.950 . S
C176 C175 1.345 . S
C176 C177 1.424 . S
C177 H169 0.951 . S
C177 C176 1.424 . S
C177 C178 1.347 . S
C178 H170 0.951 . S
C178 C173 1.429 . S
C178 C177 1.347 . S
H179 C180 0.951 . S
C180 H179 0.951 . S
C180 C186 1.265 . S
H181 C186 0.950 . S
H182 C190 0.949 . S
H183 C191 0.950 . S
H184 C192 0.951 . S
H185 C193 0.951 . S
C186 C180 1.265 . S
C186 H181 0.950 . S
C186 C187 1.478 . S
C187 C174 1.394 . S
C187 C186 1.478 . S
C187 C188 1.397 1_554 S
C188 C187 1.397 1_556 S
C188 C189 1.438 . S
C188 C193 1.429 . S
C189 C172 1.394 1_556 S
C189 C188 1.438 . S
C189 C190 1.428 . S
C190 H182 0.949 . S
C190 C189 1.428 . S
C190 C191 1.345 . S
C191 H183 0.950 . S
C191 C190 1.345 . S
C191 C192 1.424 . S
C192 H184 0.951 . S
C192 C191 1.424 . S
C192 C193 1.347 . S
C193 H185 0.951 . S
C193 C188 1.429 . S
C193 C192 1.347 . S
H194 C195 0.949 1_554 S
C195 H194 0.949 1_556 S
C195 C201 1.266 . S
H196 C201 0.950 . S
H197 C205 0.949 . S
H198 C206 0.950 . S
H199 C207 0.951 . S
H200 C208 0.951 . S
C201 C195 1.266 . S
C201 H196 0.950 . S
C201 C202 1.478 . S
C202 C201 1.478 . S
C202 C203 1.397 . S
C202 C219 1.394 . S
C203 C202 1.397 . S
C203 C204 1.438 . S
C203 C208 1.429 1_556 S
C204 C203 1.438 . S
C204 C205 1.428 1_556 S
C204 C217 1.394 . S
C205 H197 0.949 . S
C205 C204 1.428 1_554 S
C205 C206 1.345 . S
C206 H198 0.950 . S
C206 C205 1.345 . S
C206 C207 1.424 . S
C207 H199 0.951 . S
C207 C206 1.424 . S
C207 C208 1.347 . S
C208 H200 0.951 . S
C208 C203 1.429 1_554 S
C208 C207 1.347 . S
H209 C210 0.951 . S
C210 H209 0.951 . S
C210 C216 1.265 . S
H211 C216 0.940 1_554 S
H212 C220 0.949 . S
H213 C221 0.950 . S
H214 C222 0.951 . S
H215 C223 0.951 . S
C216 C210 1.265 . S
C216 H211 0.940 1_556 S
C216 C217 1.478 . S
C217 C204 1.394 . S
C217 C216 1.478 . S
C217 C218 1.397 . S
C218 C217 1.397 . S
C218 C219 1.438 . S
C218 C223 1.429 . S
C219 C202 1.394 . S
C219 C218 1.438 . S
C219 C220 1.428 . S
C220 H212 0.949 . S
C220 C219 1.428 . S
C220 C221 1.345 . S
C221 H213 0.950 . S
C221 C220 1.345 . S
C221 C222 1.424 . S
C222 H214 0.951 . S
C222 C221 1.424 . S
C222 C223 1.347 . S
C223 H215 0.951 . S
C223 C218 1.429 . S
C223 C222 1.347 . S
H224 C225 0.951 . S
C225 H224 0.951 . S
C225 C231 1.265 . S
H226 C231 0.950 . S
H227 C235 0.949 . S
H228 C236 0.950 . S
H229 C237 0.951 . S
H230 C238 0.951 . S
C231 C225 1.265 . S
C231 H226 0.950 . S
C231 C232 1.478 . S
C232 C231 1.478 . S
C232 C233 1.397 . S
C232 C249 1.394 . S
C233 C232 1.397 . S
C233 C234 1.438 . S
C233 C238 1.429 . S
C234 C233 1.438 . S
C234 C235 1.428 . S
C234 C247 1.394 . S
C235 H227 0.949 . S
C235 C234 1.428 . S
C235 C236 1.345 . S
C236 H228 0.950 . S
C236 C235 1.345 . S
C236 C237 1.424 . S
C237 H229 0.951 . S
C237 C236 1.424 . S
C237 C238 1.347 . S
C238 H230 0.951 . S
C238 C233 1.429 . S
C238 C237 1.347 . S
H239 C240 0.951 . S
C240 H239 0.951 . S
C240 C246 1.265 . S
H241 C246 0.950 . S
H242 C250 0.949 . S
H243 C251 0.950 . S
H244 C252 0.951 . S
H245 C253 0.951 . S
C246 C240 1.265 . S
C246 H241 0.950 . S
C246 C247 1.478 . S
C247 C234 1.394 . S
C247 C246 1.478 . S
C247 C248 1.397 . S
C248 C247 1.397 . S
C248 C249 1.438 . S
C248 C253 1.429 . S
C249 C232 1.394 . S
C249 C248 1.438 . S
C249 C250 1.428 . S
C250 H242 0.949 . S
C250 C249 1.428 . S
C250 C251 1.345 . S
C251 H243 0.950 . S
C251 C250 1.345 . S
C251 C252 1.424 . S
C252 H244 0.951 . S
C252 C251 1.424 . S
C252 C253 1.347 . S
C253 H245 0.951 . S
C253 C248 1.429 . S
C253 C252 1.347 . S
H254 C255 0.951 . S
C255 H254 0.951 . S
C255 C261 1.265 . S
H256 C261 0.950 . S
H257 C265 0.949 . S
H258 C266 0.950 . S
H259 C267 0.951 . S
H260 C268 0.951 . S
C261 C255 1.265 . S
C261 H256 0.950 . S
C261 C262 1.478 . S
C262 C261 1.478 . S
C262 C263 1.397 . S
C262 C279 1.394 . S
C263 C262 1.397 . S
C263 C264 1.438 . S
C263 C268 1.429 . S
C264 C263 1.438 . S
C264 C265 1.428 . S
C264 C277 1.394 . S
C265 H257 0.949 . S
C265 C264 1.428 . S
C265 C266 1.345 . S
C266 H258 0.950 . S
C266 C265 1.345 . S
C266 C267 1.424 . S
C267 H259 0.951 . S
C267 C266 1.424 . S
C267 C268 1.347 . S
C268 H260 0.951 . S
C268 C263 1.429 . S
C268 C267 1.347 . S
H269 C270 0.951 . S
C270 H269 0.951 . S
C270 C276 1.265 . S
H271 C276 0.950 . S
H272 C280 0.949 . S
H273 C281 0.950 . S
H274 C282 0.951 . S
H275 C283 0.951 . S
C276 C270 1.265 . S
C276 H271 0.950 . S
C276 C277 1.478 . S
C277 C264 1.394 . S
C277 C276 1.478 . S
C277 C278 1.397 . S
C278 C277 1.397 . S
C278 C279 1.438 . S
C278 C283 1.429 . S
C279 C262 1.394 . S
C279 C278 1.438 . S
C279 C280 1.428 . S
C280 H272 0.949 . S
C280 C279 1.428 . S
C280 C281 1.345 . S
C281 H273 0.950 . S
C281 C280 1.345 . S
C281 C282 1.424 . S
C282 H274 0.951 . S
C282 C281 1.424 . S
C282 C283 1.347 . S
C283 H275 0.951 . S
C283 C278 1.429 . S
C283 C282 1.347 . S
H284 C285 0.951 . S
C285 H284 0.951 . S
C285 C291 1.265 . S
H286 C291 0.950 . S
H287 C295 0.949 . S
H288 C296 0.950 . S
H289 C297 0.951 . S
H290 C298 0.951 . S
C291 C285 1.265 . S
C291 H286 0.950 . S
C291 C292 1.478 . S
C292 C291 1.478 . S
C292 C293 1.397 . S
C292 C309 1.394 . S
C293 C292 1.397 . S
C293 C294 1.438 . S
C293 C298 1.429 . S
C294 C293 1.438 . S
C294 C295 1.428 . S
C294 C307 1.394 . S
C295 H287 0.949 . S
C295 C294 1.428 . S
C295 C296 1.345 . S
C296 H288 0.950 . S
C296 C295 1.345 . S
C296 C297 1.424 . S
C297 H289 0.951 . S
C297 C296 1.424 . S
C297 C298 1.347 . S
C298 H290 0.951 . S
C298 C293 1.429 . S
C298 C297 1.347 . S
H299 C300 0.951 . S
C300 H299 0.951 . S
C300 C306 1.265 . S
H301 C306 0.950 . S
H302 C310 0.949 . S
H303 C311 0.950 . S
H304 C312 0.951 . S
H305 C313 0.951 . S
C306 C300 1.265 . S
C306 H301 0.950 . S
C306 C307 1.478 . S
C307 C294 1.394 . S
C307 C306 1.478 . S
C307 C308 1.397 . S
C308 C307 1.397 . S
C308 C309 1.438 . S
C308 C313 1.429 . S
C309 C292 1.394 . S
C309 C308 1.438 . S
C309 C310 1.428 . S
C310 H302 0.949 . S
C310 C309 1.428 . S
C310 C311 1.345 . S
C311 H303 0.950 . S
C311 C310 1.345 . S
C311 C312 1.424 . S
C312 H304 0.951 . S
C312 C311 1.424 . S
C312 C313 1.347 . S
C313 H305 0.951 . S
C313 C308 1.429 . S
C313 C312 1.347 . S
H314 C315 0.951 . S
C315 H314 0.951 . S
C315 C321 1.265 . S
H316 C321 0.950 . S
H317 C325 0.949 . S
H318 C326 0.950 . S
H319 C327 0.951 . S
H320 C328 0.951 . S
C321 C315 1.265 . S
C321 H316 0.950 . S
C321 C322 1.478 . S
C322 C321 1.478 . S
C322 C323 1.397 . S
C322 C339 1.394 . S
C323 C322 1.397 . S
C323 C324 1.438 . S
C323 C328 1.429 . S
C324 C323 1.438 . S
C324 C325 1.428 . S
C324 C337 1.394 . S
C325 H317 0.949 . S
C325 C324 1.428 . S
C325 C326 1.345 . S
C326 H318 0.950 . S
C326 C325 1.345 . S
C326 C327 1.424 . S
C327 H319 0.951 . S
C327 C326 1.424 . S
C327 C328 1.347 . S
C328 H320 0.951 . S
C328 C323 1.429 . S
C328 C327 1.347 . S
H329 C330 0.951 . S
C330 H329 0.951 . S
C330 C336 1.265 . S
H331 C336 0.950 . S
H332 C340 0.949 . S
H333 C341 0.950 . S
H334 C342 0.951 . S
H335 C343 0.951 . S
C336 C330 1.265 . S
C336 H331 0.950 . S
C336 C337 1.478 . S
C337 C324 1.394 . S
C337 C336 1.478 . S
C337 C338 1.397 . S
C338 C337 1.397 . S
C338 C339 1.438 . S
C338 C343 1.429 . S
C339 C322 1.394 . S
C339 C338 1.438 . S
C339 C340 1.428 . S
C340 H332 0.949 . S
C340 C339 1.428 . S
C340 C341 1.345 . S
C341 H333 0.950 . S
C341 C340 1.345 . S
C341 C342 1.424 . S
C342 H334 0.951 . S
C342 C341 1.424 . S
C342 C343 1.347 . S
C343 H335 0.951 . S
C343 C338 1.429 . S
C343 C342 1.347 . S
H344 C345 0.951 1_665 S
C345 H344 0.951 1_445 S
C345 C351 1.265 . S
H346 C351 0.950 . S
H347 C355 0.949 . S
H348 C356 0.950 . S
H349 C357 0.951 . S
H350 C358 0.951 . S
C351 C345 1.265 . S
C351 H346 0.950 . S
C351 C352 1.478 . S
C352 C351 1.478 . S
C352 C353 1.397 . S
C352 C369 1.394 1_545 S
C353 C352 1.397 . S
C353 C354 1.438 . S
C353 C358 1.429 . S
C354 C353 1.438 . S
C354 C355 1.428 . S
C354 C367 1.394 1_545 S
C355 H347 0.949 . S
C355 C354 1.428 . S
C355 C356 1.345 . S
C356 H348 0.950 . S
C356 C355 1.345 . S
C356 C357 1.424 . S
C357 H349 0.951 . S
C357 C356 1.424 . S
C357 C358 1.347 . S
C358 H350 0.951 . S
C358 C353 1.429 . S
C358 C357 1.347 . S
H359 C360 0.951 1_545 S
C360 H359 0.951 1_565 S
C360 C366 1.265 . S
H361 C366 0.950 1_655 S
H362 C370 0.949 1_455 S
H363 C371 0.950 . S
H364 C372 0.951 . S
H365 C373 0.951 . S
C366 C360 1.265 . S
C366 H361 0.950 1_455 S
C366 C367 1.478 . S
C367 C354 1.394 1_565 S
C367 C366 1.478 . S
C367 C368 1.397 . S
C368 C367 1.397 . S
C368 C369 1.438 . S
C368 C373 1.429 1_455 S
C369 C352 1.394 1_565 S
C369 C368 1.438 . S
C369 C370 1.428 1_455 S
C370 H362 0.949 1_655 S
C370 C369 1.428 1_655 S
C370 C371 1.345 . S
C371 H363 0.950 . S
C371 C370 1.345 . S
C371 C372 1.424 . S
C372 H364 0.951 . S
C372 C371 1.424 . S
C372 C373 1.347 . S
C373 H365 0.951 . S
C373 C368 1.429 1_655 S
C373 C372 1.347 . S
H374 C375 0.951 . S
C375 H374 0.951 . S
C375 C381 1.265 1_455 S
H376 C381 0.950 . S
H377 C385 0.949 . S
H378 C386 0.950 . S
H379 C387 0.951 . S
H380 C388 0.951 . S
C381 C375 1.265 1_655 S
C381 H376 0.950 . S
C381 C382 1.478 . S
C382 C381 1.478 . S
C382 C383 1.397 . S
C382 C399 1.394 1_645 S
C383 C382 1.397 . S
C383 C384 1.438 . S
C383 C388 1.429 . S
C384 C383 1.438 . S
C384 C385 1.428 . S
C384 C397 1.394 1_655 S
C385 H377 0.949 . S
C385 C384 1.428 . S
C385 C386 1.345 . S
C386 H378 0.950 . S
C386 C385 1.345 . S
C386 C387 1.424 . S
C387 H379 0.951 . S
C387 C386 1.424 . S
C387 C388 1.347 . S
C388 H380 0.951 . S
C388 C383 1.429 . S
C388 C387 1.347 . S
H389 C390 0.951 . S
C390 H389 0.951 . S
C390 C396 1.265 1_655 S
H391 C396 0.950 . S
H392 C400 0.949 . S
H393 C401 0.950 . S
H394 C402 0.951 . S
H395 C403 0.951 . S
C396 C390 1.265 1_455 S
C396 H391 0.950 . S
C396 C397 1.478 . S
C397 C384 1.394 1_455 S
C397 C396 1.478 . S
C397 C398 1.397 1_545 S
C398 C397 1.397 1_565 S
C398 C399 1.438 . S
C398 C403 1.429 . S
C399 C382 1.394 1_465 S
C399 C398 1.438 . S
C399 C400 1.428 . S
C400 H392 0.949 . S
C400 C399 1.428 . S
C400 C401 1.345 . S
C401 H393 0.950 . S
C401 C400 1.345 . S
C401 C402 1.424 . S
C402 H394 0.951 . S
C402 C401 1.424 . S
C402 C403 1.347 . S
C403 H395 0.951 . S
C403 C398 1.429 . S
C403 C402 1.347 . S
H404 C405 0.951 . S
C405 H404 0.951 . S
C405 C411 1.265 . S
H406 C411 0.950 . S
H407 C415 0.949 . S
H408 C416 0.950 . S
H409 C417 0.951 . S
H410 C418 0.951 . S
C411 C405 1.265 . S
C411 H406 0.950 . S
C411 C412 1.478 . S
C412 C411 1.478 . S
C412 C413 1.397 . S
C412 C429 1.394 . S
C413 C412 1.397 . S
C413 C414 1.438 . S
C413 C418 1.429 . S
C414 C413 1.438 . S
C414 C415 1.428 . S
C414 C427 1.394 . S
C415 H407 0.949 . S
C415 C414 1.428 . S
C415 C416 1.345 . S
C416 H408 0.950 . S
C416 C415 1.345 . S
C416 C417 1.424 . S
C417 H409 0.951 . S
C417 C416 1.424 . S
C417 C418 1.347 . S
C418 H410 0.951 . S
C418 C413 1.429 . S
C418 C417 1.347 . S
H419 C420 0.951 . S
C420 H419 0.951 . S
C420 C426 1.265 . S
H421 C426 0.950 . S
H422 C430 0.949 . S
H423 C431 0.950 . S
H424 C432 0.951 . S
H425 C433 0.951 . S
C426 C420 1.265 . S
C426 H421 0.950 . S
C426 C427 1.478 . S
C427 C414 1.394 . S
C427 C426 1.478 . S
C427 C428 1.397 . S
C428 C427 1.397 . S
C428 C429 1.438 . S
C428 C433 1.429 . S
C429 C412 1.394 . S
C429 C428 1.438 . S
C429 C430 1.428 . S
C430 H422 0.949 . S
C430 C429 1.428 . S
C430 C431 1.345 . S
C431 H423 0.950 . S
C431 C430 1.345 . S
C431 C432 1.424 . S
C432 H424 0.951 . S
C432 C431 1.424 . S
C432 C433 1.347 . S
C433 H425 0.951 . S
C433 C428 1.429 . S
C433 C432 1.347 . S
H434 C435 0.951 . S
C435 H434 0.951 . S
C435 C441 1.265 . S
H436 C441 0.950 . S
H437 C445 0.949 . S
H438 C446 0.950 . S
H439 C447 0.951 . S
H440 C448 0.951 . S
C441 C435 1.265 . S
C441 H436 0.950 . S
C441 C442 1.478 . S
C442 C441 1.478 . S
C442 C443 1.397 . S
C442 C459 1.394 . S
C443 C442 1.397 . S
C443 C444 1.438 . S
C443 C448 1.429 . S
C444 C443 1.438 . S
C444 C445 1.428 . S
C444 C457 1.394 . S
C445 H437 0.949 . S
C445 C444 1.428 . S
C445 C446 1.345 . S
C446 H438 0.950 . S
C446 C445 1.345 . S
C446 C447 1.424 . S
C447 H439 0.951 . S
C447 C446 1.424 . S
C447 C448 1.347 . S
C448 H440 0.951 . S
C448 C443 1.429 . S
C448 C447 1.347 . S
H449 C450 0.951 . S
C450 H449 0.951 . S
C450 C456 1.265 . S
H451 C456 0.950 . S
H452 C460 0.949 . S
H453 C461 0.950 . S
H454 C462 0.951 . S
H455 C463 0.951 . S
C456 C450 1.265 . S
C456 H451 0.950 . S
C456 C457 1.478 . S
C457 C444 1.394 . S
C457 C456 1.478 . S
C457 C458 1.397 . S
C458 C457 1.397 . S
C458 C459 1.438 . S
C458 C463 1.429 . S
C459 C442 1.394 . S
C459 C458 1.438 . S
C459 C460 1.428 . S
C460 H452 0.949 . S
C460 C459 1.428 . S
C460 C461 1.345 . S
C461 H453 0.950 . S
C461 C460 1.345 . S
C461 C462 1.424 . S
C462 H454 0.951 . S
C462 C461 1.424 . S
C462 C463 1.347 . S
C463 H455 0.951 . S
C463 C458 1.429 . S
C463 C462 1.347 . S
C120 C97 1.432 . S
C105 C27 1.464 . S
C135 N6 1.328 . S
C150 C92 1.353 . S
C165 C16 1.409 . S
C180 C103 1.362 . S
C195 N14 1.421 1_556 S
C210 C86 1.400 . S
C225 C57 1.464 . S
C240 C75 1.434 . S
C255 N36 1.321 . S
C270 C70 1.359 . S
C300 C81 1.335 . S
C285 C46 1.426 . S
C330 C64 1.417 . S
C315 N44 1.440 . S
C345 C10 1.469 . S
C360 C65 1.456 . S
C375 C1 1.540 . S
C390 C76 1.522 1_545 S
C420 C87 1.456 . S
C405 C40 1.469 . S
C435 C31 1.540 . S
C450 C98 1.527 . S
