# Generated by pormake.
# Topology wbl, (4,4)-cn, num edge types: 1
# Building blocks:
#     Node 0, Type 0, BuildingBlock: MUDLON_clean_linker_0, # of connection points: 4
#     Node 1, Type 0, BuildingBlock: MUDLON_clean_linker_0, # of connection points: 4
#     Node 2, Type 0, BuildingBlock: MUDLON_clean_linker_0, # of connection points: 4
#     Node 3, Type 0, BuildingBlock: MUDLON_clean_linker_0, # of connection points: 4
#     Node 4, Type 0, BuildingBlock: MUDLON_clean_linker_0, # of connection points: 4
#     Node 5, Type 0, BuildingBlock: MUDLON_clean_linker_0, # of connection points: 4
#     Node 6, Type 0, BuildingBlock: MUDLON_clean_linker_0, # of connection points: 4
#     Node 7, Type 0, BuildingBlock: MUDLON_clean_linker_0, # of connection points: 4
#     Node 8, Type 1, BuildingBlock: KUFVIS_clean_sbu_0, # of connection points: 4
#     Node 9, Type 1, BuildingBlock: KUFVIS_clean_sbu_0, # of connection points: 4
#     Node 10, Type 1, BuildingBlock: KUFVIS_clean_sbu_0, # of connection points: 4
#     Node 11, Type 1, BuildingBlock: KUFVIS_clean_sbu_0, # of connection points: 4
#     Node 12, Type 1, BuildingBlock: KUFVIS_clean_sbu_0, # of connection points: 4
#     Node 13, Type 1, BuildingBlock: KUFVIS_clean_sbu_0, # of connection points: 4
#     Node 14, Type 1, BuildingBlock: KUFVIS_clean_sbu_0, # of connection points: 4
#     Node 15, Type 1, BuildingBlock: KUFVIS_clean_sbu_0, # of connection points: 4
#     Edge 16, Type (0, 1), BuildingBlock: OJICUG_clean_linker_0, # of connection points: 2
#     Edge 17, Type (0, 1), BuildingBlock: OJICUG_clean_linker_0, # of connection points: 2
#     Edge 18, Type (0, 1), BuildingBlock: OJICUG_clean_linker_0, # of connection points: 2
#     Edge 19, Type (0, 1), BuildingBlock: OJICUG_clean_linker_0, # of connection points: 2
#     Edge 20, Type (0, 1), BuildingBlock: OJICUG_clean_linker_0, # of connection points: 2
#     Edge 21, Type (0, 1), BuildingBlock: OJICUG_clean_linker_0, # of connection points: 2
#     Edge 22, Type (0, 1), BuildingBlock: OJICUG_clean_linker_0, # of connection points: 2
#     Edge 23, Type (0, 1), BuildingBlock: OJICUG_clean_linker_0, # of connection points: 2
#     Edge 24, Type (0, 1), BuildingBlock: OJICUG_clean_linker_0, # of connection points: 2
#     Edge 25, Type (0, 1), BuildingBlock: OJICUG_clean_linker_0, # of connection points: 2
#     Edge 26, Type (0, 1), BuildingBlock: OJICUG_clean_linker_0, # of connection points: 2
#     Edge 27, Type (0, 1), BuildingBlock: OJICUG_clean_linker_0, # of connection points: 2
#     Edge 28, Type (0, 1), BuildingBlock: OJICUG_clean_linker_0, # of connection points: 2
#     Edge 29, Type (0, 1), BuildingBlock: OJICUG_clean_linker_0, # of connection points: 2
#     Edge 30, Type (0, 1), BuildingBlock: OJICUG_clean_linker_0, # of connection points: 2
#     Edge 31, Type (0, 1), BuildingBlock: OJICUG_clean_linker_0, # of connection points: 2
#     Edge 32, Type (0, 1), BuildingBlock: OJICUG_clean_linker_0, # of connection points: 2
#     Edge 33, Type (0, 1), BuildingBlock: OJICUG_clean_linker_0, # of connection points: 2
#     Edge 34, Type (0, 1), BuildingBlock: OJICUG_clean_linker_0, # of connection points: 2
#     Edge 35, Type (0, 1), BuildingBlock: OJICUG_clean_linker_0, # of connection points: 2
#     Edge 36, Type (0, 1), BuildingBlock: OJICUG_clean_linker_0, # of connection points: 2
#     Edge 37, Type (0, 1), BuildingBlock: OJICUG_clean_linker_0, # of connection points: 2
#     Edge 38, Type (0, 1), BuildingBlock: OJICUG_clean_linker_0, # of connection points: 2
#     Edge 39, Type (0, 1), BuildingBlock: OJICUG_clean_linker_0, # of connection points: 2
#     Edge 40, Type (0, 1), BuildingBlock: OJICUG_clean_linker_0, # of connection points: 2
#     Edge 41, Type (0, 1), BuildingBlock: OJICUG_clean_linker_0, # of connection points: 2
#     Edge 42, Type (0, 1), BuildingBlock: OJICUG_clean_linker_0, # of connection points: 2
#     Edge 43, Type (0, 1), BuildingBlock: OJICUG_clean_linker_0, # of connection points: 2
#     Edge 44, Type (0, 1), BuildingBlock: OJICUG_clean_linker_0, # of connection points: 2
#     Edge 45, Type (0, 1), BuildingBlock: OJICUG_clean_linker_0, # of connection points: 2
#     Edge 46, Type (0, 1), BuildingBlock: OJICUG_clean_linker_0, # of connection points: 2
#     Edge 47, Type (0, 1), BuildingBlock: OJICUG_clean_linker_0, # of connection points: 2
# Relax obj value: 0.111
# Max RMSD: 0.130
# Mean RMSD: 0.127
data_MOF--net-wbl--node1-KUFVIS_clean_sbu_0--node2-MUDLON_clean_linker_0--edge1-OJICUG_clean_linker_0
_symmetry_space_group_name_H-M    P1
_symmetry_Int_Tables_number       1
_symmetry_cell_setting            triclinic
loop_
_symmetry_equiv_pos_as_xyz
'x, y, z'
_cell_length_a     43.213388
_cell_length_b     43.195085
_cell_length_c     60.43456
_cell_angle_alpha  89.983011
_cell_angle_beta   90.677872
_cell_angle_gamma 89.969943
loop_
_atom_site_label
_atom_site_type_symbol
_atom_site_fract_x
_atom_site_fract_y
_atom_site_fract_z
_atom_type_partial_charge
H0 H 0.13325 0.94353 0.33498 0.0
N1 N 0.0869 0.92218 0.30775 0.0
H2 H 0.14465 0.92635 0.37268 0.0
H3 H 0.05633 0.88012 0.33121 0.0
H4 H 0.06829 0.86211 0.36899 0.0
H5 H 0.10655 0.86856 0.29212 0.0
H6 H 0.15618 0.85751 0.27525 0.0
H7 H 0.12734 0.96621 0.29105 0.0
H8 H 0.17607 0.95557 0.2732 0.0
H9 H 0.09981 0.98131 0.32224 0.0
H10 H 0.03098 0.92527 0.28914 0.0
H11 H 0.0649 0.02518 0.32163 0.0
H12 H 0.99488 0.96899 0.28949 0.0
H13 H 0.93743 0.15237 0.33954 0.0
H14 H 0.92126 0.16113 0.37785 0.0
H15 H 0.89778 0.0642 0.38348 0.0
H16 H 0.91502 0.05555 0.34585 0.0
H17 H 0.89356 0.05348 0.31073 0.0
H18 H 0.84361 0.05947 0.29225 0.0
H19 H 0.86914 0.152 0.27216 0.0
H20 H 0.9187 0.14622 0.2918 0.0
H21 H 0.98414 0.08254 0.34468 0.0
H22 H 0.02085 0.04093 0.34044 0.0
H23 H 0.98158 0.0196 0.27619 0.0
N24 N 0.93698 0.0991 0.3171 0.0
H25 H 0.94374 0.06056 0.28074 0.0
C26 C 0.09353 0.91339 0.33037 0.0
C27 C 0.11848 0.92628 0.34237 0.0
C28 C 0.1251 0.91633 0.36388 0.0
C29 C 0.10733 0.89294 0.37367 0.0
C30 C 0.08242 0.88006 0.36172 0.0
C31 C 0.07549 0.89038 0.34028 0.0
C32 C 0.11299 0.91805 0.29322 0.0
C33 C 0.12134 0.88771 0.28756 0.0
C34 C 0.14981 0.88147 0.2778 0.0
C35 C 0.17059 0.9056 0.2731 0.0
C36 C 0.16112 0.93628 0.27714 0.0
C37 C 0.13283 0.94246 0.28728 0.0
C38 C 0.06818 0.94978 0.30548 0.0
C39 C 0.0773 0.97839 0.31459 0.0
C40 C 0.057 0.00356 0.31449 0.0
C41 C 0.02678 1.00066 0.30579 0.0
C42 C 0.01803 0.97229 0.29612 0.0
C43 C 0.03858 0.94721 0.29595 0.0
C44 C 0.92754 0.10342 0.33981 0.0
C45 C 0.92891 0.13309 0.34917 0.0
C46 C 0.91944 0.13806 0.37095 0.0
C47 C 0.90834 0.11334 0.38378 0.0
C48 C 0.90667 0.08367 0.37424 0.0
C49 C 0.91619 0.07873 0.35256 0.0
C50 C 0.90987 0.09961 0.30282 0.0
C51 C 0.88855 0.07498 0.30225 0.0
C52 C 0.86001 0.07836 0.29142 0.0
C53 C 0.85212 0.10636 0.28084 0.0
C54 C 0.87416 0.13033 0.28048 0.0
C55 C 0.90264 0.12698 0.29144 0.0
C56 C 0.95899 0.07379 0.31394 0.0
C57 C 0.98257 0.06854 0.32986 0.0
C58 C 0.00421 0.04492 0.32721 0.0
C59 C 0.00405 0.02646 0.30807 0.0
C60 C 0.98182 0.03269 0.29147 0.0
C61 C 0.95987 0.05624 0.29421 0.0
H62 H 0.96974 0.40419 0.59679 0.0
N63 N 0.92684 0.42071 0.56494 0.0
H64 H 0.95979 0.39323 0.63535 0.0
H65 H 0.87362 0.42724 0.58618 0.0
H66 H 0.86354 0.41752 0.62539 0.0
H67 H 0.88907 0.41314 0.5303 0.0
H68 H 0.87645 0.36475 0.51111 0.0
H69 H 0.95647 0.36481 0.57053 0.0
H70 H 0.94309 0.31658 0.55254 0.0
H71 H 0.98852 0.40721 0.55921 0.0
H72 H 0.9214 0.48108 0.55779 0.0
H73 H 0.03011 0.44474 0.55439 0.0
H74 H 0.96307 0.51885 0.55259 0.0
H75 H 0.15119 0.56763 0.57699 0.0
H76 H 0.16709 0.58223 0.61453 0.0
H77 H 0.07626 0.6215 0.62512 0.0
H78 H 0.06007 0.6042 0.58856 0.0
H79 H 0.04824 0.61846 0.55225 0.0
H80 H 0.05101 0.66925 0.53524 0.0
H81 H 0.14671 0.65195 0.51869 0.0
H82 H 0.14249 0.60011 0.53394 0.0
H83 H 0.09106 0.5253 0.58171 0.0
H84 H 0.05066 0.48636 0.58012 0.0
H85 H 0.00679 0.53481 0.52582 0.0
N86 N 0.0965 0.57715 0.55734 0.0
H87 H 0.04762 0.57347 0.52674 0.0
C88 C 0.92231 0.41659 0.58842 0.0
C89 C 0.94651 0.4074 0.60276 0.0
C90 C 0.94078 0.40128 0.62502 0.0
C91 C 0.91083 0.40449 0.63361 0.0
C92 C 0.8868 0.41435 0.61933 0.0
C93 C 0.89253 0.4202 0.59697 0.0
C94 C 0.92341 0.39278 0.55199 0.0
C95 C 0.90139 0.39219 0.5348 0.0
C96 C 0.89401 0.36442 0.52403 0.0
C97 C 0.9084 0.33649 0.53041 0.0
C98 C 0.93169 0.33751 0.54689 0.0
C99 C 0.93925 0.3653 0.55744 0.0
C100 C 0.95167 0.44139 0.55906 0.0
C101 C 0.98258 0.4314 0.55754 0.0
C102 C 0.00642 0.45292 0.55483 0.0
C103 C 0.99983 0.48474 0.55326 0.0
C104 C 0.96883 0.49448 0.5536 0.0
C105 C 0.94505 0.47299 0.55661 0.0
C106 C 0.10471 0.58519 0.57987 0.0
C107 C 0.13476 0.57912 0.58761 0.0
C108 C 0.14385 0.58786 0.60898 0.0
C109 C 0.12316 0.60351 0.62293 0.0
C110 C 0.09284 0.60921 0.61512 0.0
C111 C 0.08358 0.59976 0.59398 0.0
C112 C 0.09507 0.60497 0.54396 0.0
C113 C 0.06949 0.62517 0.54428 0.0
C114 C 0.07136 0.65467 0.53483 0.0
C115 C 0.09928 0.6654 0.52574 0.0
C116 C 0.12453 0.64476 0.525 0.0
C117 C 0.12226 0.61492 0.53379 0.0
C118 C 0.07168 0.55431 0.55564 0.0
C119 C 0.07258 0.52815 0.56962 0.0
C120 C 0.04964 0.50548 0.56853 0.0
C121 C 0.02525 0.50787 0.55313 0.0
C122 C 0.02493 0.53288 0.53827 0.0
C123 C 0.04825 0.55542 0.53911 0.0
H124 H 0.63546 0.44892 0.83472 0.0
N125 N 0.59112 0.42521 0.80673 0.0
H126 H 0.64708 0.43173 0.87235 0.0
H127 H 0.56221 0.38146 0.82962 0.0
H128 H 0.57428 0.36359 0.86739 0.0
H129 H 0.61015 0.37315 0.7884 0.0
H130 H 0.65991 0.36321 0.77143 0.0
H131 H 0.63255 0.47006 0.79379 0.0
H132 H 0.68177 0.46077 0.7757 0.0
H133 H 0.59723 0.48391 0.8241 0.0
H134 H 0.53924 0.42629 0.78276 0.0
H135 H 0.55862 0.52462 0.82287 0.0
H136 H 0.50071 0.46779 0.78053 0.0
H137 H 0.41885 0.64523 0.83411 0.0
H138 H 0.40436 0.65506 0.87241 0.0
H139 H 0.42066 0.55859 0.88789 0.0
H140 H 0.43276 0.54868 0.84961 0.0
H141 H 0.38003 0.55571 0.82298 0.0
H142 H 0.32972 0.56092 0.80474 0.0
H143 H 0.36687 0.63147 0.7619 0.0
H144 H 0.41746 0.62609 0.7804 0.0
H145 H 0.4912 0.60129 0.80855 0.0
H146 H 0.53198 0.56303 0.80228 0.0
H147 H 0.46366 0.49003 0.80432 0.0
N148 N 0.43144 0.59107 0.81535 0.0
H149 H 0.42332 0.52823 0.80968 0.0
C150 C 0.59757 0.41668 0.82942 0.0
C151 C 0.62154 0.43072 0.84178 0.0
C152 C 0.62826 0.4208 0.86329 0.0
C153 C 0.61157 0.39635 0.87272 0.0
C154 C 0.5876 0.38237 0.86042 0.0
C155 C 0.58058 0.39262 0.83898 0.0
C156 C 0.61748 0.42219 0.79243 0.0
C157 C 0.62541 0.39248 0.78515 0.0
C158 C 0.65395 0.3869 0.77533 0.0
C159 C 0.67527 0.41112 0.77229 0.0
C160 C 0.66633 0.44139 0.77819 0.0
C161 C 0.63787 0.44685 0.78834 0.0
C162 C 0.57101 0.45164 0.8037 0.0
C163 C 0.57645 0.4801 0.8144 0.0
C164 C 0.55428 0.50367 0.81351 0.0
C165 C 0.52627 0.49953 0.80176 0.0
C166 C 0.52167 0.47163 0.79013 0.0
C167 C 0.54378 0.44798 0.79118 0.0
C168 C 0.42714 0.5964 0.83877 0.0
C169 C 0.41956 0.62633 0.84589 0.0
C170 C 0.41141 0.6319 0.86786 0.0
C171 C 0.41104 0.60759 0.88337 0.0
C172 C 0.41986 0.5778 0.87639 0.0
C173 C 0.42736 0.57215 0.85435 0.0
C174 C 0.4027 0.59042 0.8029 0.0
C175 C 0.37767 0.57173 0.8093 0.0
C176 C 0.34882 0.57478 0.79885 0.0
C177 C 0.34425 0.5967 0.78192 0.0
C178 C 0.36957 0.6146 0.77505 0.0
C179 C 0.39851 0.61139 0.78543 0.0
C180 C 0.45417 0.5679 0.8096 0.0
C181 C 0.48507 0.57704 0.80725 0.0
C182 C 0.50835 0.55509 0.80386 0.0
C183 C 0.50125 0.5233 0.80293 0.0
C184 C 0.47006 0.51426 0.80457 0.0
C185 C 0.44679 0.53625 0.80777 0.0
H186 H 0.4483 0.8791 0.09107 0.0
N187 N 0.41921 0.92414 0.06653 0.0
H188 H 0.43958 0.86699 0.12987 0.0
H189 H 0.37972 0.95149 0.09384 0.0
H190 H 0.37059 0.93917 0.13294 0.0
H191 H 0.36589 0.90244 0.05119 0.0
H192 H 0.3566 0.85348 0.03224 0.0
H193 H 0.46422 0.886 0.04925 0.0
H194 H 0.45531 0.83778 0.02944 0.0
H195 H 0.48045 0.91971 0.0793 0.0
H196 H 0.4144 0.97718 0.04446 0.0
H197 H 0.51999 0.95902 0.0748 0.0
H198 H 0.4544 0.01673 0.03939 0.0
H199 H 0.64085 0.07275 0.07671 0.0
H200 H 0.66111 0.08289 0.114 0.0
H201 H 0.57169 0.1192 0.13249 0.0
H202 H 0.55138 0.10649 0.09618 0.0
H203 H 0.54855 0.13733 0.06569 0.0
H204 H 0.55536 0.18615 0.04685 0.0
H205 H 0.62848 0.14624 0.00795 0.0
H206 H 0.62145 0.09668 0.02715 0.0
H207 H 0.59202 0.02592 0.05065 0.0
H208 H 0.55248 0.98539 0.04856 0.0
H209 H 0.48211 0.05342 0.06273 0.0
N210 N 0.58448 0.08501 0.06092 0.0
H211 H 0.52133 0.09353 0.06423 0.0
C212 C 0.41483 0.91655 0.08956 0.0
C213 C 0.43152 0.89259 0.10004 0.0
C214 C 0.4265 0.88565 0.12227 0.0
C215 C 0.40449 0.90222 0.13445 0.0
C216 C 0.38757 0.92591 0.12391 0.0
C217 C 0.39285 0.93308 0.10169 0.0
C218 C 0.41558 0.89809 0.05174 0.0
C219 C 0.38551 0.88871 0.04604 0.0
C220 C 0.3803 0.8607 0.03508 0.0
C221 C 0.4052 0.8414 0.02937 0.0
C222 C 0.43553 0.85172 0.03392 0.0
C223 C 0.44069 0.87963 0.04512 0.0
C224 C 0.44417 0.9455 0.06226 0.0
C225 C 0.47444 0.94057 0.07039 0.0
C226 C 0.49725 0.96312 0.06766 0.0
C227 C 0.49041 0.99113 0.05677 0.0
C228 C 0.46037 0.99561 0.0481 0.0
C229 C 0.43756 0.97298 0.05083 0.0
C230 C 0.59482 0.08919 0.08348 0.0
C231 C 0.62564 0.08245 0.08903 0.0
C232 C 0.63723 0.08864 0.11028 0.0
C233 C 0.61825 0.1023 0.12635 0.0
C234 C 0.58707 0.10833 0.12081 0.0
C235 C 0.57539 0.10147 0.09975 0.0
C236 C 0.58433 0.11285 0.0477 0.0
C237 C 0.56543 0.13839 0.05273 0.0
C238 C 0.56939 0.16662 0.04188 0.0
C239 C 0.59251 0.17016 0.02591 0.0
C240 C 0.61063 0.14433 0.02031 0.0
C241 C 0.60648 0.11598 0.03109 0.0
C242 C 0.55993 0.06281 0.05756 0.0
C243 C 0.56797 0.03208 0.05293 0.0
C244 C 0.54537 0.00895 0.05192 0.0
C245 C 0.5141 0.0161 0.05562 0.0
C246 C 0.50591 0.04712 0.05954 0.0
C247 C 0.52854 0.07024 0.06053 0.0
H248 H 0.12738 0.55577 0.91532 0.0
N249 N 0.08511 0.58677 0.94083 0.0
H250 H 0.13931 0.56583 0.87693 0.0
H251 H 0.05965 0.62919 0.91423 0.0
H252 H 0.07185 0.63959 0.87526 0.0
H253 H 0.10382 0.63813 0.96093 0.0
H254 H 0.1528 0.6468 0.98058 0.0
H255 H 0.12667 0.54161 0.9535 0.0
H256 H 0.17625 0.55026 0.97167 0.0
H257 H 0.08722 0.52558 0.92787 0.0
H258 H 0.03348 0.59238 0.96396 0.0
H259 H 0.04785 0.48672 0.93378 0.0
H260 H 0.99386 0.5529 0.97056 0.0
H261 H 0.93534 0.36656 0.93422 0.0
H262 H 0.92552 0.34887 0.89632 0.0
H263 H 0.89038 0.43987 0.87954 0.0
H264 H 0.90293 0.45768 0.91644 0.0
H265 H 0.87025 0.45564 0.94564 0.0
H266 H 0.82158 0.44505 0.96319 0.0
H267 H 0.86637 0.37702 0.00522 0.0
H268 H 0.91527 0.38679 0.9864 0.0
H269 H 0.98382 0.41477 0.95986 0.0
H270 H 0.02417 0.45444 0.96083 0.0
H271 H 0.95464 0.52496 0.94993 0.0
N272 N 0.92416 0.42228 0.95113 0.0
H273 H 0.91455 0.48536 0.94986 0.0
C274 C 0.09217 0.59155 0.91776 0.0
C275 C 0.11474 0.57388 0.90686 0.0
C276 C 0.12163 0.57966 0.88477 0.0
C277 C 0.1064 0.60338 0.87305 0.0
C278 C 0.08405 0.62124 0.88393 0.0
C279 C 0.07693 0.61523 0.90608 0.0
C280 C 0.11156 0.58943 0.95552 0.0
C281 C 0.11926 0.61875 0.96379 0.0
C282 C 0.14749 0.62369 0.97474 0.0
C283 C 0.16897 0.5994 0.97736 0.0
C284 C 0.16038 0.56957 0.97016 0.0
C285 C 0.13191 0.56458 0.95953 0.0
C286 C 0.06335 0.56225 0.94541 0.0
C287 C 0.06719 0.53196 0.93733 0.0
C288 C 0.04457 0.50947 0.9409 0.0
C289 C 0.0176 0.51657 0.95269 0.0
C290 C 0.01414 0.54668 0.96119 0.0
C291 C 0.03682 0.56922 0.95757 0.0
C292 C 0.91951 0.41321 0.92836 0.0
C293 C 0.9259 0.38265 0.92217 0.0
C294 C 0.91989 0.37254 0.90055 0.0
C295 C 0.90674 0.39275 0.88473 0.0
C296 C 0.9009 0.42359 0.89098 0.0
C297 C 0.90763 0.43381 0.91239 0.0
C298 C 0.89666 0.42167 0.96447 0.0
C299 C 0.87004 0.43884 0.95883 0.0
C300 C 0.84192 0.43285 0.96914 0.0
C301 C 0.83969 0.40982 0.98554 0.0
C302 C 0.86692 0.3944 0.99232 0.0
C303 C 0.89502 0.40019 0.98179 0.0
C304 C 0.94622 0.44688 0.9547 0.0
C305 C 0.97731 0.43888 0.95816 0.0
C306 C 1.00033 0.46157 0.95846 0.0
C307 C 0.99275 0.49292 0.95513 0.0
C308 C 0.96134 0.5011 0.9527 0.0
C309 C 0.93828 0.47833 0.95251 0.0
H310 H 0.55771 0.37873 0.16657 0.0
N311 N 0.58835 0.42175 0.19185 0.0
H312 H 0.56687 0.36693 0.12773 0.0
H313 H 0.62898 0.44846 0.16521 0.0
H314 H 0.63854 0.43653 0.12614 0.0
H315 H 0.6426 0.40225 0.20698 0.0
H316 H 0.65425 0.35327 0.22525 0.0
H317 H 0.54517 0.3812 0.20883 0.0
H318 H 0.5564 0.33291 0.22792 0.0
H319 H 0.52598 0.4158 0.18292 0.0
H320 H 0.59515 0.47694 0.21055 0.0
H321 H 0.48653 0.45531 0.1881 0.0
H322 H 0.55554 0.51712 0.21535 0.0
H323 H 0.37801 0.55555 0.17422 0.0
H324 H 0.36072 0.56944 0.13661 0.0
H325 H 0.43276 0.63849 0.13354 0.0
H326 H 0.44944 0.62499 0.17106 0.0
H327 H 0.47011 0.61772 0.21638 0.0
H328 H 0.46397 0.66708 0.23479 0.0
H329 H 0.36449 0.65834 0.22871 0.0
H330 H 0.37093 0.60789 0.21162 0.0
H331 H 0.41918 0.52663 0.2169 0.0
H332 H 0.45928 0.48634 0.21863 0.0
H333 H 0.52337 0.54842 0.18707 0.0
N334 N 0.42284 0.58204 0.19809 0.0
H335 H 0.48339 0.5881 0.18504 0.0
C336 C 0.59248 0.41484 0.16873 0.0
C337 C 0.57507 0.3918 0.15786 0.0
C338 C 0.58039 0.38501 0.13563 0.0
C339 C 0.60339 0.40085 0.12388 0.0
C340 C 0.62083 0.42379 0.13481 0.0
C341 C 0.61529 0.43077 0.15701 0.0
C342 C 0.59316 0.39564 0.20643 0.0
C343 C 0.62366 0.3875 0.21197 0.0
C344 C 0.63023 0.35945 0.22253 0.0
C345 C 0.60628 0.33884 0.22798 0.0
C346 C 0.5755 0.34788 0.2236 0.0
C347 C 0.56898 0.37585 0.2128 0.0
C348 C 0.5637 0.44321 0.19666 0.0
C349 C 0.5327 0.43741 0.19055 0.0
C350 C 0.51004 0.46011 0.19349 0.0
C351 C 0.51795 0.48927 0.20216 0.0
C352 C 0.5488 0.49487 0.20858 0.0
C353 C 0.57137 0.47196 0.20596 0.0
C354 C 0.41516 0.58887 0.17532 0.0
C355 C 0.39021 0.57341 0.16527 0.0
C356 C 0.38027 0.5815 0.14394 0.0
C357 C 0.39541 0.60506 0.13225 0.0
C358 C 0.42091 0.62002 0.14211 0.0
C359 C 0.43058 0.61219 0.16351 0.0
C360 C 0.42083 0.60875 0.21246 0.0
C361 C 0.44693 0.62583 0.2194 0.0
C362 C 0.44336 0.65455 0.22979 0.0
C363 C 0.41371 0.66729 0.23301 0.0
C364 C 0.38774 0.64944 0.22692 0.0
C365 C 0.39133 0.62049 0.21703 0.0
C366 C 0.44816 0.56053 0.20113 0.0
C367 C 0.44205 0.53165 0.21071 0.0
C368 C 0.46487 0.50867 0.21157 0.0
C369 C 0.49445 0.51431 0.20305 0.0
C370 C 0.5009 0.54356 0.19404 0.0
C371 C 0.47794 0.56633 0.19285 0.0
H372 H 0.37784 0.94443 0.42453 0.0
N373 N 0.42418 0.92264 0.45163 0.0
H374 H 0.3662 0.92748 0.38682 0.0
H375 H 0.45438 0.88046 0.42806 0.0
H376 H 0.44216 0.86267 0.39028 0.0
H377 H 0.40528 0.86901 0.46764 0.0
H378 H 0.35575 0.85759 0.48449 0.0
H379 H 0.38335 0.96642 0.46805 0.0
H380 H 0.33468 0.95546 0.48594 0.0
H381 H 0.41157 0.98191 0.43722 0.0
H382 H 0.48003 0.92532 0.47033 0.0
H383 H 0.44698 0.0254 0.43752 0.0
H384 H 0.51649 0.96868 0.46981 0.0
H385 H 0.58275 0.14969 0.41935 0.0
H386 H 0.60245 0.15844 0.38221 0.0
H387 H 0.61128 0.05937 0.37329 0.0
H388 H 0.5941 0.05131 0.411 0.0
H389 H 0.61685 0.04751 0.44867 0.0
H390 H 0.66698 0.0504 0.46741 0.0
H391 H 0.65181 0.14802 0.47954 0.0
H392 H 0.60076 0.14394 0.46247 0.0
H393 H 0.52942 0.08018 0.41331 0.0
H394 H 0.49154 0.03977 0.41824 0.0
H395 H 0.52993 0.01968 0.48296 0.0
N396 N 0.57725 0.09601 0.44065 0.0
H397 H 0.56874 0.05955 0.47782 0.0
C398 C 0.4174 0.91399 0.42902 0.0
C399 C 0.39248 0.9271 0.41709 0.0
C400 C 0.38571 0.91728 0.39558 0.0
C401 C 0.4033 0.8938 0.38572 0.0
C402 C 0.42817 0.88069 0.39761 0.0
C403 C 0.43525 0.89089 0.41904 0.0
C404 C 0.39825 0.9184 0.46625 0.0
C405 C 0.39025 0.88804 0.47208 0.0
C406 C 0.36184 0.8816 0.48184 0.0
C407 C 0.34075 0.90555 0.48635 0.0
C408 C 0.34987 0.93629 0.48216 0.0
C409 C 0.37812 0.94266 0.47202 0.0
C410 C 0.443 0.95012 0.45396 0.0
C411 C 0.43407 0.9788 0.44484 0.0
C412 C 0.45463 0.00374 0.44478 0.0
C413 C 0.48485 1.00054 0.45342 0.0
C414 C 0.49335 0.97217 0.46321 0.0
C415 C 0.47259 0.94731 0.46348 0.0
C416 C 0.58653 0.09996 0.41788 0.0
C417 C 0.58891 0.12996 0.40926 0.0
C418 C 0.60001 0.13483 0.38792 0.0
C419 C 0.60852 0.10965 0.37448 0.0
C420 C 0.6057 0.07948 0.38313 0.0
C421 C 0.59541 0.07472 0.40469 0.0
C422 C 0.60477 0.0955 0.45451 0.0
C423 C 0.62401 0.06926 0.45599 0.0
C424 C 0.653 0.07115 0.46644 0.0
C425 C 0.66401 0.09958 0.4749 0.0
C426 C 0.64426 0.12552 0.47377 0.0
C427 C 0.61497 0.12335 0.4639 0.0
C428 C 0.55428 0.07169 0.44423 0.0
C429 C 0.53056 0.06667 0.42839 0.0
C430 C 0.50824 0.04378 0.43142 0.0
C431 C 0.50792 0.02594 0.45086 0.0
C432 C 0.53013 0.03223 0.46744 0.0
C433 C 0.55266 0.05509 0.46435 0.0
H434 H 0.04664 0.90765 0.65977 0.0
N435 N 0.08922 0.9214 0.69242 0.0
H436 H 0.05729 0.89669 0.62127 0.0
H437 H 0.14369 0.92392 0.67234 0.0
H438 H 0.1546 0.91388 0.63325 0.0
H439 H 0.12387 0.91297 0.72857 0.0
H440 H 0.13333 0.86442 0.74842 0.0
H441 H 0.05783 0.8667 0.68606 0.0
H442 H 0.06837 0.81812 0.70462 0.0
H443 H 0.02682 0.9115 0.69749 0.0
H444 H 0.09783 0.98148 0.69882 0.0
H445 H 0.98725 0.9513 0.70141 0.0
H446 H 0.05846 0.02153 0.70366 0.0
H447 H 0.87587 0.05287 0.67548 0.0
H448 H 0.85688 0.06504 0.63791 0.0
H449 H 0.92731 0.13538 0.63226 0.0
H450 H 0.94593 0.12337 0.66924 0.0
H451 H 0.96805 0.12273 0.70636 0.0
H452 H 0.96116 0.17305 0.72348 0.0
H453 H 0.86685 0.14897 0.7393 0.0
H454 H 0.87359 0.09905 0.72093 0.0
H455 H 0.92269 0.02883 0.72183 0.0
H456 H 0.96391 0.98992 0.72442 0.0
H457 H 0.02007 0.04537 0.68094 0.0
N458 N 0.92185 0.08033 0.69778 0.0
H459 H 0.97966 0.08411 0.67908 0.0
C460 C 0.09446 0.91677 0.66907 0.0
C461 C 0.07026 0.90934 0.65424 0.0
C462 C 0.0764 0.90319 0.63205 0.0
C463 C 0.10683 0.90451 0.62405 0.0
C464 C 0.13095 0.91231 0.63886 0.0
C465 C 0.12477 0.91831 0.66114 0.0
C466 C 0.0906 0.89356 0.70563 0.0
C467 C 0.11119 0.89241 0.72368 0.0
C468 C 0.11678 0.86453 0.73483 0.0
C469 C 0.10208 0.837 0.72795 0.0
C470 C 0.08001 0.83869 0.71065 0.0
C471 C 0.07413 0.86664 0.69975 0.0
C472 C 0.06542 0.94358 0.69768 0.0
C473 C 0.034 0.93538 0.69904 0.0
C474 C 0.01132 0.95825 0.70144 0.0
C475 C 0.01957 0.98976 0.70266 0.0
C476 C 0.05115 0.99762 0.70233 0.0
C477 C 0.07373 0.97478 0.69977 0.0
C478 C 0.9124 0.0869 0.67524 0.0
C479 C 0.88728 0.07071 0.666 0.0
C480 C 0.87638 0.07781 0.64468 0.0
C481 C 0.89068 0.10113 0.63221 0.0
C482 C 0.9161 0.11701 0.64137 0.0
C483 C 0.92678 0.1101 0.66264 0.0
C484 C 0.92111 0.10707 0.71211 0.0
C485 C 0.94604 0.12791 0.7138 0.0
C486 C 0.94206 0.15685 0.72376 0.0
C487 C 0.91324 0.16545 0.73251 0.0
C488 C 0.88913 0.14357 0.73225 0.0
C489 C 0.89303 0.11482 0.72205 0.0
C490 C 0.94776 0.0594 0.70027 0.0
C491 C 0.94412 0.03269 0.71315 0.0
C492 C 0.96761 0.01039 0.71445 0.0
C493 C 0.99535 0.01438 0.70282 0.0
C494 C 0.99927 0.04163 0.6904 0.0
C495 C 0.97586 0.0639 0.68918 0.0
Mn496 Mn 0.3501 0.66601 0.01119 0.0
Mn497 Mn 0.35704 0.5884 0.01595 0.0
C498 C 0.35323 0.64305 0.04565 0.0
C499 C 0.3711 0.7156 0.0086 0.0
C500 C 0.29645 0.62004 0.00478 0.0
O501 O 0.36449 0.65353 0.98055 0.0
O502 O 0.36782 0.6018 0.98544 0.0
C503 C 0.42507 0.58461 0.0113 0.0
N504 N 0.39915 0.57886 0.02323 0.0
C505 C 0.42911 0.55515 0.05248 0.0
C506 C 0.4561 0.56063 0.04044 0.0
C507 C 0.45406 0.57547 0.01978 0.0
C508 C 0.40085 0.56465 0.04314 0.0
H509 H 0.42364 0.59614 0.99547 0.0
C510 C 0.37015 0.62625 0.97351 0.0
O511 O 0.34312 0.70969 0.00176 0.0
O512 O 0.38729 0.69241 0.01597 0.0
N513 N 0.34762 0.57234 0.04462 0.0
C514 C 0.31955 0.56978 0.05449 0.0
C515 C 0.3176 0.55583 0.07542 0.0
C516 C 0.34449 0.54454 0.08594 0.0
C517 C 0.37307 0.54715 0.07536 0.0
C518 C 0.37353 0.56095 0.05439 0.0
H519 H 0.29883 0.57853 0.04654 0.0
O520 O 0.34043 0.67005 0.04334 0.0
O521 O 0.36342 0.63019 0.02773 0.0
O522 O 0.30728 0.64752 0.00468 0.0
O523 O 0.31289 0.59615 0.00907 0.0
C524 C 0.40119 0.53704 0.08494 0.0
C525 C 0.42919 0.54109 0.07353 0.0
H526 H 0.47853 0.55376 0.04697 0.0
H527 H 0.47481 0.57992 0.01044 0.0
H528 H 0.29546 0.55394 0.08349 0.0
H529 H 0.34294 0.53408 0.10218 0.0
H530 H 0.40157 0.52647 0.1012 0.0
H531 H 0.4507 0.53356 0.08118 0.0
Mn532 Mn 0.34674 0.84745 0.26363 0.0
Mn533 Mn 0.42394 0.85697 0.26943 0.0
C534 C 0.36875 0.85201 0.29846 0.0
C535 C 0.29718 0.86817 0.25904 0.0
C536 C 0.39404 0.7953 0.25834 0.0
O537 O 0.36001 0.8604 0.23271 0.0
O538 O 0.41081 0.86918 0.239 0.0
C539 C 0.42626 0.9253 0.2663 0.0
N540 N 0.43237 0.89882 0.27777 0.0
C541 C 0.45478 0.92755 0.30807 0.0
C542 C 0.44891 0.95513 0.29651 0.0
C543 C 0.43454 0.95399 0.27555 0.0
C544 C 0.44615 0.89965 0.29797 0.0
H545 H 0.41506 0.92453 0.25023 0.0
C546 C 0.38679 0.86894 0.22633 0.0
O547 O 0.30332 0.83983 0.25337 0.0
O548 O 0.32009 0.88471 0.26646 0.0
N549 N 0.43961 0.84619 0.29817 0.0
C550 C 0.44255 0.81759 0.3075 0.0
C551 C 0.45603 0.81472 0.32866 0.0
C552 C 0.46647 0.84122 0.33996 0.0
C553 C 0.4635 0.87035 0.32993 0.0
C554 C 0.45019 0.87175 0.3087 0.0
H555 H 0.43453 0.79715 0.29891 0.0
O556 O 0.34178 0.83922 0.29595 0.0
O557 O 0.38184 0.86181 0.28054 0.0
O558 O 0.36604 0.80459 0.25926 0.0
O559 O 0.41738 0.81305 0.26131 0.0
C560 C 0.47275 0.89811 0.34029 0.0
C561 C 0.46834 0.9267 0.32939 0.0
H562 H 0.4551 0.97731 0.30364 0.0
H563 H 0.42979 0.97518 0.26658 0.0
H564 H 0.45824 0.79215 0.3363 0.0
H565 H 0.47655 0.83894 0.35637 0.0
H566 H 0.48291 0.89777 0.35676 0.0
H567 H 0.4752 0.94791 0.33764 0.0
Mn568 Mn 0.16508 0.84582 0.49539 0.0
Mn569 Mn 0.08792 0.85569 0.49031 0.0
C570 C 0.14261 0.8506 0.4607 0.0
C571 C 0.2145 0.8668 0.49993 0.0
C572 C 0.11809 0.79409 0.50167 0.0
O573 O 0.152 0.85834 0.52649 0.0
O574 O 0.10167 0.86969 0.52018 0.0
C575 C 0.08514 0.92413 0.49159 0.0
N576 N 0.07903 0.89702 0.4809 0.0
C577 C 0.05578 0.92402 0.45008 0.0
C578 C 0.06163 0.95221 0.46084 0.0
C579 C 0.07641 0.95225 0.48167 0.0
C580 C 0.06483 0.89671 0.46085 0.0
H581 H 0.09669 0.92427 0.50754 0.0
C582 C 0.12577 0.86862 0.53277 0.0
O583 O 0.20863 0.83833 0.50542 0.0
O584 O 0.19143 0.88327 0.49267 0.0
N585 N 0.0719 0.84332 0.46199 0.0
C586 C 0.06934 0.81428 0.45335 0.0
C587 C 0.0557 0.81026 0.43234 0.0
C588 C 0.04475 0.83608 0.42047 0.0
C589 C 0.04741 0.8657 0.42977 0.0
C590 C 0.0609 0.86826 0.45088 0.0
H591 H 0.07777 0.79435 0.46236 0.0
O592 O 0.16973 0.83801 0.46296 0.0
O593 O 0.12977 0.86018 0.47876 0.0
O594 O 0.14605 0.80289 0.49954 0.0
O595 O 0.09478 0.81215 0.49962 0.0
C596 C 0.0377 0.89284 0.41877 0.0
C597 C 0.04192 0.92198 0.4289 0.0
H598 H 0.05512 0.97397 0.45317 0.0
H599 H 0.08116 0.97393 0.49001 0.0
H600 H 0.05377 0.78732 0.42526 0.0
H601 H 0.03457 0.83292 0.40416 0.0
H602 H 0.02735 0.8916 0.40238 0.0
H603 H 0.03474 0.94271 0.42015 0.0
Mn604 Mn 0.16497 0.66416 0.74542 0.0
Mn605 Mn 0.15734 0.58673 0.73969 0.0
C606 C 0.16137 0.6424 0.71059 0.0
C607 C 0.14391 0.71361 0.7491 0.0
C608 C 0.21806 0.61788 0.75194 0.0
O609 O 0.15127 0.65053 0.77607 0.0
O610 O 0.14438 0.59947 0.76982 0.0
C611 C 0.08913 0.58194 0.74204 0.0
N612 N 0.11589 0.57674 0.73096 0.0
C613 C 0.08836 0.55189 0.70103 0.0
C614 C 0.06052 0.55681 0.71218 0.0
C615 C 0.06091 0.57196 0.73276 0.0
C616 C 0.11579 0.56214 0.71117 0.0
H617 H 0.08933 0.59366 0.75783 0.0
C618 C 0.14331 0.62344 0.78234 0.0
O619 O 0.17212 0.70756 0.75535 0.0
O620 O 0.12751 0.6906 0.74169 0.0
N621 N 0.16881 0.57151 0.71119 0.0
C622 C 0.19738 0.57051 0.70191 0.0
C623 C 0.20083 0.55718 0.68089 0.0
C624 C 0.17496 0.54484 0.66971 0.0
C625 C 0.14585 0.54588 0.67969 0.0
C626 C 0.14385 0.55927 0.70073 0.0
H627 H 0.21733 0.58003 0.7104 0.0
O628 O 0.17399 0.66939 0.71329 0.0
O629 O 0.15139 0.62889 0.72835 0.0
O630 O 0.208 0.64562 0.75107 0.0
O631 O 0.20095 0.59431 0.74825 0.0
C632 C 0.11862 0.53484 0.66935 0.0
C633 C 0.0899 0.53785 0.68001 0.0
H634 H 0.03868 0.54935 0.70501 0.0
H635 H 0.0395 0.57598 0.74141 0.0
H636 H 0.22336 0.55653 0.67327 0.0
H637 H 0.17766 0.5349 0.65339 0.0
H638 H 0.11943 0.5245 0.65305 0.0
H639 H 0.06906 0.52972 0.67175 0.0
Mn640 Mn 0.84271 0.16431 0.51222 0.0
Mn641 Mn 0.8528 0.08694 0.51485 0.0
C642 C 0.8474 0.14006 0.54617 0.0
C643 C 0.86335 0.21406 0.50963 0.0
C644 C 0.79131 0.1175 0.50358 0.0
O645 O 0.85559 0.15284 0.48084 0.0
O646 O 0.86721 0.10231 0.48577 0.0
C647 C 0.92122 0.08408 0.51449 0.0
N648 N 0.89398 0.07747 0.52455 0.0
C649 C 0.92048 0.05226 0.55482 0.0
C650 C 0.94882 0.0586 0.5447 0.0
C651 C 0.94918 0.07462 0.52447 0.0
C652 C 0.89336 0.06205 0.54402 0.0
H653 H 0.92161 0.09655 0.49901 0.0
C654 C 0.86623 0.12698 0.47395 0.0
O655 O 0.83489 0.20831 0.50384 0.0
O656 O 0.88006 0.19073 0.51611 0.0
N657 N 0.84004 0.06953 0.54241 0.0
C658 C 0.81093 0.06686 0.55063 0.0
C659 C 0.80661 0.05223 0.57111 0.0
C660 C 0.83222 0.04041 0.5829 0.0
C661 C 0.86193 0.04321 0.57404 0.0
C662 C 0.86477 0.05775 0.55344 0.0
H663 H 0.79116 0.07598 0.54168 0.0
O664 O 0.8347 0.16722 0.54471 0.0
O665 O 0.85715 0.12822 0.52779 0.0
O666 O 0.79993 0.14535 0.5069 0.0
O667 O 0.80946 0.09421 0.50509 0.0
C668 C 0.88888 0.03273 0.58504 0.0
C669 C 0.91814 0.03725 0.57545 0.0
H670 H 0.97045 0.05156 0.55243 0.0
H671 H 0.97097 0.07976 0.51663 0.0
H672 H 0.78362 0.05021 0.57786 0.0
H673 H 0.82884 0.02946 0.59882 0.0
H674 H 0.88741 0.02156 0.60105 0.0
H675 H 0.93872 0.02949 0.58422 0.0
Mn676 Mn 0.84957 0.34869 0.76184 0.0
Mn677 Mn 0.92718 0.35411 0.768 0.0
C678 C 0.87158 0.35197 0.7968 0.0
C679 C 0.80091 0.37154 0.75746 0.0
C680 C 0.8942 0.29407 0.75675 0.0
O681 O 0.86343 0.36151 0.73114 0.0
O682 O 0.91476 0.36674 0.73741 0.0
C683 C 0.93382 0.42211 0.76415 0.0
N684 N 0.93835 0.39551 0.77585 0.0
C685 C 0.9639 0.42319 0.80539 0.0
C686 C 0.95972 0.45085 0.79357 0.0
C687 C 0.94456 0.4503 0.77288 0.0
C688 C 0.95296 0.39576 0.79576 0.0
H689 H 0.92203 0.42182 0.74829 0.0
C690 C 0.89067 0.36841 0.72481 0.0
O691 O 0.80593 0.34312 0.75147 0.0
O692 O 0.82445 0.38699 0.76508 0.0
N693 N 0.94214 0.34302 0.79687 0.0
C694 C 0.94216 0.31475 0.80689 0.0
C695 C 0.95527 0.31156 0.82814 0.0
C696 C 0.96834 0.33739 0.83882 0.0
C697 C 0.96824 0.36619 0.82812 0.0
C698 C 0.95505 0.36793 0.80688 0.0
H699 H 0.93198 0.29486 0.79883 0.0
O700 O 0.84422 0.3401 0.79406 0.0
O701 O 0.88529 0.36139 0.77899 0.0
O702 O 0.8668 0.30507 0.75683 0.0
O703 O 0.9183 0.31044 0.76048 0.0
C704 C 0.97997 0.39341 0.83794 0.0
C705 C 0.97781 0.42189 0.82658 0.0
H706 H 0.96774 0.47268 0.80033 0.0
H707 H 0.94108 0.47157 0.76372 0.0
H708 H 0.95515 0.28927 0.83632 0.0
H709 H 0.9781 0.3349 0.85532 0.0
H710 H 0.99021 0.39279 0.85438 0.0
H711 H 0.98646 0.44273 0.83446 0.0
Mn712 Mn 0.66557 0.34818 0.99534 0.0
Mn713 Mn 0.58863 0.35836 0.9881 0.0
C714 C 0.64489 0.35394 0.96016 0.0
C715 C 0.71524 0.36799 0.00113 0.0
C716 C 0.61773 0.29611 0.99874 0.0
O717 O 0.65132 0.36037 0.02615 0.0
O718 O 0.6007 0.36909 0.01904 0.0
C719 C 0.58661 0.42654 0.99278 0.0
N720 N 0.5807 0.40064 0.98061 0.0
C721 C 0.55921 0.43088 0.9507 0.0
C722 C 0.56488 0.45787 0.96298 0.0
C723 C 0.57868 0.45568 0.98409 0.0
C724 C 0.5675 0.40248 0.96025 0.0
H725 H 0.59735 0.42496 0.00897 0.0
C726 C 0.62426 0.36856 0.03215 0.0
O727 O 0.70851 0.33954 0.00608 0.0
O728 O 0.69283 0.38522 0.99369 0.0
N729 N 0.57383 0.34902 0.95888 0.0
C730 C 0.57087 0.32087 0.9489 0.0
C731 C 0.55783 0.31904 0.92754 0.0
C732 C 0.54781 0.3461 0.91674 0.0
C733 C 0.55075 0.37476 0.92744 0.0
C734 C 0.56361 0.37512 0.94882 0.0
H735 H 0.57853 0.29999 0.95712 0.0
O736 O 0.67163 0.34078 0.96302 0.0
O737 O 0.63119 0.36343 0.97794 0.0
O738 O 0.64575 0.30544 0.9989 0.0
O739 O 0.59467 0.31406 0.9952 0.0
C740 C 0.54185 0.40303 0.91762 0.0
C741 C 0.54614 0.43108 0.92922 0.0
H742 H 0.55894 0.48041 0.9563 0.0
H743 H 0.58327 0.47642 0.99362 0.0
H744 H 0.55562 0.29683 0.91939 0.0
H745 H 0.53803 0.34462 0.90019 0.0
H746 H 0.53204 0.4035 0.90105 0.0
H747 H 0.53955 0.45269 0.92139 0.0
Mn748 Mn 0.66869 0.16532 0.24592 0.0
Mn749 Mn 0.66504 0.08729 0.24308 0.0
C750 C 0.66506 0.14083 0.21205 0.0
C751 C 0.64595 0.21424 0.24798 0.0
C752 C 0.72447 0.12191 0.25242 0.0
O753 O 0.65571 0.15356 0.277 0.0
O754 O 0.65476 0.10147 0.27352 0.0
C755 C 0.59759 0.07996 0.24936 0.0
N756 N 0.62328 0.07511 0.237 0.0
C757 C 0.59369 0.04776 0.20926 0.0
C758 C 0.56695 0.05228 0.22178 0.0
C759 C 0.56891 0.06849 0.2419 0.0
C760 C 0.62167 0.05946 0.21764 0.0
H761 H 0.59896 0.09254 0.26478 0.0
C762 C 0.65158 0.12642 0.2848 0.0
O763 O 0.67435 0.20954 0.25438 0.0
O764 O 0.63038 0.19026 0.24127 0.0
N765 N 0.67411 0.07062 0.21454 0.0
C766 C 0.70161 0.07017 0.20373 0.0
C767 C 0.70335 0.0559 0.18291 0.0
C768 C 0.67688 0.04211 0.17348 0.0
C769 C 0.64891 0.04264 0.185 0.0
C770 C 0.64863 0.057 0.20577 0.0
H771 H 0.72198 0.0809 0.21085 0.0
O772 O 0.67706 0.16831 0.21356 0.0
O773 O 0.65614 0.12828 0.23046 0.0
O774 O 0.71249 0.1489 0.2521 0.0
O775 O 0.70892 0.09727 0.2489 0.0
C776 C 0.62113 0.03017 0.17644 0.0
C777 C 0.59354 0.03273 0.18857 0.0
H778 H 0.54474 0.04369 0.216 0.0
H779 H 0.54835 0.07222 0.2516 0.0
H780 H 0.725 0.05567 0.17409 0.0
H781 H 0.67823 0.03144 0.1573 0.0
H782 H 0.62061 0.01902 0.16039 0.0
H783 H 0.57223 0.02347 0.18166 0.0
C784 C 0.2278 0.91632 0.27467 0.0
C785 C 0.20299 0.89849 0.26637 0.0
H786 H 0.27679 0.92099 0.27857 0.0
C787 C 0.2098 0.87223 0.25346 0.0
H788 H 0.22374 0.93637 0.28497 0.0
C789 C 0.24049 0.863 0.2502 0.0
C790 C 0.26506 0.88007 0.25948 0.0
H791 H 0.19142 0.85827 0.24636 0.0
H792 H 0.24491 0.84201 0.24096 0.0
C793 C 0.2584 0.90735 0.27114 0.0
C794 C 0.08565 0.72225 0.52857 0.0
C795 C 0.10274 0.69839 0.51844 0.0
H796 H 0.07679 0.77099 0.53091 0.0
C797 C 0.12424 0.70669 0.50208 0.0
H798 H 0.06944 0.71731 0.5416 0.0
C799 C 0.12932 0.73777 0.49671 0.0
C800 C 0.11232 0.76127 0.50699 0.0
H801 H 0.13733 0.68927 0.49337 0.0
H802 H 0.14634 0.74343 0.48433 0.0
C803 C 0.09005 0.75321 0.52265 0.0
C804 C 0.29301 0.57708 0.76772 0.0
C805 C 0.31275 0.60209 0.77251 0.0
H806 H 0.24794 0.56233 0.75731 0.0
C807 C 0.30157 0.63238 0.76944 0.0
H808 H 0.30105 0.55347 0.76968 0.0
C809 C 0.27106 0.63755 0.76237 0.0
C810 C 0.25102 0.61253 0.75813 0.0
H811 H 0.31608 0.65217 0.77322 0.0
H812 H 0.26306 0.6612 0.76064 0.0
C813 C 0.26256 0.58222 0.76056 0.0
C814 C 0.4176 0.78453 0.02828 0.0
C815 C 0.39928 0.8095 0.02086 0.0
H816 H 0.42333 0.7354 0.02994 0.0
C817 C 0.37358 0.80318 0.00703 0.0
H818 H 0.43731 0.78829 0.03917 0.0
C819 C 0.36525 0.77264 0.00205 0.0
C820 C 0.38262 0.74776 0.01055 0.0
H821 H 0.35931 0.8218 0.0006 0.0
H822 H 0.34457 0.76853 0.99217 0.0
C823 C 0.40946 0.75406 0.02309 0.0
C824 C 0.2161 0.6334 0.9808 0.0
C825 C 0.2009 0.60554 0.98598 0.0
H826 H 0.25786 0.65988 0.98273 0.0
C827 C 0.21718 0.58304 0.99832 0.0
H828 H 0.20471 0.65108 0.97095 0.0
C829 C 0.24806 0.58785 0.00464 0.0
C830 C 0.26329 0.61549 0.99908 0.0
H831 H 0.20618 0.56154 0.00301 0.0
H832 H 0.26 0.56983 0.01382 0.0
C833 C 0.24678 0.6384 0.98741 0.0
C834 C 0.38353 0.70846 0.25326 0.0
C835 C 0.40981 0.69975 0.24114 0.0
H836 H 0.35775 0.74542 0.26793 0.0
C837 C 0.43144 0.72284 0.23566 0.0
H838 H 0.36666 0.69143 0.2583 0.0
C839 C 0.42669 0.75367 0.24179 0.0
C840 C 0.39987 0.76237 0.25311 0.0
H841 H 0.45163 0.71745 0.22597 0.0
H842 H 0.44354 0.77088 0.23697 0.0
C843 C 0.37844 0.73944 0.25892 0.0
C844 C 0.30177 0.87183 0.5059 0.0
C845 C 0.30838 0.89812 0.49297 0.0
H846 H 0.26692 0.84123 0.51827 0.0
C847 C 0.28343 0.91564 0.4845 0.0
H848 H 0.32026 0.8581 0.51313 0.0
C849 C 0.25291 0.90633 0.4879 0.0
C850 C 0.24649 0.879 0.49958 0.0
H851 H 0.28733 0.93571 0.47417 0.0
H852 H 0.23442 0.91974 0.48036 0.0
C853 C 0.27117 0.86224 0.50901 0.0
C854 C 0.14299 0.80057 0.74261 0.0
C855 C 0.11173 0.80631 0.73714 0.0
H856 H 0.17752 0.76691 0.75107 0.0
C857 C 0.09056 0.78161 0.73848 0.0
H858 H 0.16017 0.81872 0.74153 0.0
C859 C 0.10076 0.75164 0.7435 0.0
C860 C 0.13225 0.74576 0.7477 0.0
H861 H 0.0662 0.78518 0.73496 0.0
H862 H 0.0841 0.7329 0.74337 0.0
C863 C 0.15306 0.77071 0.74799 0.0
C864 C 0.73276 0.42027 0.77482 0.0
C865 C 0.70761 0.4041 0.76534 0.0
H866 H 0.78182 0.42296 0.77946 0.0
C867 C 0.71394 0.37918 0.75103 0.0
H868 H 0.72907 0.43926 0.78617 0.0
C869 C 0.74439 0.36934 0.74762 0.0
C870 C 0.76925 0.38457 0.75809 0.0
H871 H 0.69532 0.36659 0.74297 0.0
H872 H 0.74838 0.34926 0.73731 0.0
C873 C 0.76317 0.41076 0.77109 0.0
C874 C 0.57476 0.22145 0.01078 0.0
C875 C 0.59907 0.20129 0.01658 0.0
H876 H 0.56148 0.26692 0.00043 0.0
C877 C 0.62969 0.21197 0.01505 0.0
H878 H 0.55092 0.21379 0.01152 0.0
C879 C 0.63582 0.24247 0.0087 0.0
C880 C 0.61144 0.26303 0.00369 0.0
H881 H 0.64894 0.19714 0.01964 0.0
H882 H 0.65967 0.25012 0.00829 0.0
C883 C 0.58086 0.25191 0.00437 0.0
C884 C 0.80417 0.08677 0.2613 0.0
C885 C 0.82033 0.11117 0.27162 0.0
H886 H 0.76143 0.071 0.24708 0.0
C887 C 0.80515 0.13974 0.27432 0.0
H888 H 0.81525 0.06463 0.25857 0.0
C889 C 0.77437 0.14353 0.26746 0.0
C890 C 0.75788 0.11876 0.25793 0.0
H891 H 0.81664 0.15893 0.28249 0.0
H892 H 0.76322 0.16561 0.27034 0.0
C893 C 0.7733 0.09048 0.25462 0.0
C894 C 0.91815 0.28113 0.51909 0.0
C895 C 0.89749 0.30609 0.52149 0.0
H896 H 0.92357 0.23249 0.51341 0.0
C897 C 0.86577 0.3009 0.51728 0.0
H898 H 0.94279 0.2843 0.52162 0.0
C899 C 0.85488 0.27127 0.51204 0.0
C900 C 0.87536 0.24606 0.51119 0.0
H901 H 0.84902 0.31931 0.5192 0.0
H902 H 0.8302 0.26784 0.50989 0.0
C903 C 0.90718 0.25143 0.51419 0.0
C904 C 0.70414 0.12504 0.4997 0.0
C905 C 0.69649 0.10274 0.4835 0.0
H906 H 0.74012 0.14752 0.51843 0.0
C907 C 0.72053 0.08457 0.47474 0.0
H908 H 0.68643 0.13899 0.50736 0.0
C909 C 0.75117 0.0888 0.48176 0.0
C910 C 0.75871 0.11187 0.49723 0.0
H911 H 0.71602 0.06765 0.46191 0.0
H912 H 0.76915 0.07475 0.47446 0.0
C913 C 0.73493 0.12986 0.50622 0.0
C914 C 0.8792 0.21251 0.73592 0.0
C915 C 0.90771 0.19777 0.74027 0.0
H916 H 0.85253 0.25417 0.73772 0.0
C917 C 0.9313 0.2148 0.75092 0.0
H918 H 0.86064 0.20046 0.72736 0.0
C919 C 0.92681 0.2459 0.75647 0.0
C920 C 0.89848 0.26071 0.75175 0.0
H921 H 0.95337 0.20416 0.75488 0.0
H922 H 0.94563 0.25836 0.76442 0.0
C923 C 0.87458 0.24349 0.74171 0.0
C924 C 0.80246 0.3683 0.9974 0.0
C925 C 0.80869 0.39986 0.99361 0.0
H926 H 0.76812 0.33358 0.00312 0.0
C927 C 0.78416 0.42118 0.99527 0.0
H928 H 0.8205 0.35104 0.99602 0.0
C929 C 0.75391 0.41097 0.99887 0.0
C930 C 0.74756 0.37928 0.0013 0.0
H931 H 0.78809 0.44573 0.99304 0.0
H932 H 0.73535 0.42784 0.99899 0.0
C933 C 0.77228 0.35818 0.00137 0.0
C934 C 0.59655 0.2814 0.22853 0.0
C935 C 0.61374 0.30704 0.23614 0.0
H936 H 0.593 0.23207 0.22656 0.0
C937 C 0.63974 0.30163 0.24987 0.0
H938 H 0.57665 0.28447 0.21769 0.0
C939 C 0.64943 0.27141 0.25463 0.0
C940 C 0.63313 0.24592 0.24601 0.0
H941 H 0.65317 0.32075 0.25645 0.0
H942 H 0.67026 0.26806 0.26449 0.0
C943 C 0.60604 0.25122 0.23351 0.0
C944 C 0.11938 0.84996 0.40028 0.0
C945 C 0.11527 0.88174 0.39616 0.0
H946 H 0.13182 0.81511 0.42419 0.0
C947 C 0.11987 0.90295 0.41349 0.0
H948 H 0.11638 0.83322 0.38709 0.0
C949 C 0.12816 0.89256 0.4346 0.0
C950 C 0.13202 0.86084 0.43873 0.0
H951 H 0.11687 0.92755 0.41072 0.0
H952 H 0.1318 0.90934 0.4477 0.0
C953 C 0.12825 0.83962 0.42137 0.0
C954 C 0.16384 0.62345 0.64966 0.0
C955 C 0.13312 0.61391 0.64544 0.0
H956 H 0.19693 0.63973 0.67379 0.0
C957 C 0.1119 0.61466 0.66293 0.0
H958 H 0.18066 0.62417 0.63655 0.0
C959 C 0.12121 0.62422 0.68401 0.0
C960 C 0.15209 0.63223 0.68831 0.0
H961 H 0.08816 0.6073 0.66056 0.0
H962 H 0.10427 0.62501 0.69708 0.0
C963 C 0.17318 0.63264 0.6709 0.0
C964 C 0.40611 0.64108 0.9175 0.0
C965 C 0.40038 0.61287 0.90648 0.0
H966 H 0.4008 0.6676 0.94724 0.0
C967 C 0.38394 0.58964 0.91768 0.0
H968 H 0.41901 0.65941 0.9096 0.0
C969 C 0.3742 0.59412 0.93937 0.0
C970 C 0.38002 0.6222 0.95034 0.0
H971 H 0.37818 0.56796 0.90965 0.0
H972 H 0.36174 0.57563 0.94747 0.0
C973 C 0.39579 0.64579 0.93913 0.0
C974 C 0.42508 0.89052 0.17238 0.0
C975 C 0.39957 0.89481 0.15813 0.0
H976 H 0.44111 0.87931 0.20493 0.0
C977 C 0.36958 0.89136 0.16655 0.0
H978 H 0.44845 0.89338 0.16641 0.0
C979 C 0.36525 0.88311 0.18872 0.0
C980 C 0.39086 0.87849 0.20295 0.0
H981 H 0.34949 0.89438 0.15588 0.0
H982 H 0.34188 0.88023 0.19466 0.0
C983 C 0.4208 0.8826 0.19451 0.0
C984 C 0.11964 0.63925 0.84174 0.0
C985 C 0.11408 0.60912 0.84954 0.0
H986 H 0.13352 0.66753 0.81445 0.0
C987 C 0.1171 0.58409 0.83492 0.0
H988 H 0.11764 0.65896 0.85271 0.0
C989 C 0.12614 0.58891 0.81313 0.0
C990 C 0.13256 0.61892 0.80536 0.0
H991 H 0.11256 0.56065 0.84039 0.0
H992 H 0.12844 0.56891 0.80246 0.0
C993 C 0.12892 0.6441 0.81988 0.0
C994 C 0.40538 0.61828 0.0927 0.0
C995 C 0.38431 0.61453 0.11 0.0
H996 H 0.41169 0.6301 0.05862 0.0
C997 C 0.35273 0.62055 0.10602 0.0
H998 H 0.42982 0.61382 0.09532 0.0
C999 C 0.34244 0.63007 0.08506 0.0
C1000 C 0.36344 0.63271 0.06768 0.0
H1001 H 0.3361 0.6183 0.11919 0.0
H1002 H 0.31808 0.63482 0.08231 0.0
C1003 C 0.39501 0.62732 0.07173 0.0
C1004 C 0.39094 0.85104 0.35905 0.0
C1005 C 0.39527 0.88278 0.36322 0.0
H1006 H 0.3786 0.81636 0.33502 0.0
C1007 C 0.39096 0.90408 0.34592 0.0
H1008 H 0.39372 0.83424 0.37223 0.0
C1009 C 0.38286 0.89382 0.32474 0.0
C1010 C 0.3789 0.86214 0.32054 0.0
H1011 H 0.39411 0.92865 0.34874 0.0
H1012 H 0.37951 0.91067 0.31163 0.0
C1013 C 0.38227 0.84084 0.3379 0.0
C1014 C 0.13938 0.87981 0.59449 0.0
C1015 C 0.11315 0.89712 0.60045 0.0
H1016 H 0.16407 0.85727 0.56847 0.0
C1017 C 0.09222 0.90634 0.58372 0.0
H1018 H 0.15584 0.87205 0.60695 0.0
C1019 C 0.09671 0.89753 0.56178 0.0
C1020 C 0.12243 0.8795 0.55589 0.0
H1021 H 0.07216 0.92029 0.58758 0.0
H1022 H 0.07981 0.90475 0.54944 0.0
C1023 C 0.14404 0.8712 0.57243 0.0
C1024 C 0.62338 0.40638 0.91268 0.0
C1025 C 0.61962 0.38521 0.89522 0.0
H1026 H 0.63405 0.41271 0.94711 0.0
C1027 C 0.62436 0.35349 0.89928 0.0
H1028 H 0.61989 0.43093 0.90998 0.0
C1029 C 0.63272 0.34316 0.92047 0.0
C1030 C 0.6354 0.36429 0.93798 0.0
H1031 H 0.62207 0.33678 0.88601 0.0
H1032 H 0.6366 0.31869 0.92327 0.0
C1033 C 0.6312 0.39598 0.93389 0.0
C1034 C 0.61197 0.11032 0.16732 0.0
C1035 C 0.63094 0.11105 0.14855 0.0
H1036 H 0.60778 0.12018 0.20184 0.0
C1037 C 0.66172 0.12145 0.1511 0.0
H1038 H 0.58833 0.10214 0.16626 0.0
C1039 C 0.67313 0.13069 0.17184 0.0
C1040 C 0.65409 0.12951 0.19041 0.0
H1041 H 0.67686 0.1232 0.13702 0.0
H1042 H 0.69678 0.1388 0.17336 0.0
C1043 C 0.62326 0.12004 0.18787 0.0
C1044 C 0.90602 0.09567 0.42319 0.0
C1045 C 0.89879 0.11809 0.4071 0.0
H1046 H 0.90163 0.08094 0.45667 0.0
C1047 C 0.88184 0.14442 0.41341 0.0
H1048 H 0.91966 0.07548 0.41907 0.0
C1049 C 0.87169 0.14778 0.43522 0.0
C1050 C 0.87816 0.1248 0.4511 0.0
H1051 H 0.87572 0.16204 0.40138 0.0
H1052 H 0.85819 0.16801 0.43948 0.0
C1053 C 0.89576 0.09891 0.44484 0.0
C1054 C 0.87722 0.38173 0.66332 0.0
C1055 C 0.90474 0.39674 0.65721 0.0
H1056 H 0.85111 0.36107 0.68938 0.0
C1057 C 0.92695 0.40331 0.67375 0.0
H1058 H 0.85975 0.3759 0.65102 0.0
C1059 C 0.92223 0.39431 0.69564 0.0
C1060 C 0.89499 0.37884 0.70167 0.0
H1061 H 0.94811 0.41543 0.66981 0.0
H1062 H 0.94001 0.39955 0.70786 0.0
C1063 C 0.87233 0.37303 0.68531 0.0
C1064 C 0.64212 0.09423 0.34244 0.0
C1065 C 0.62042 0.11475 0.35164 0.0
H1066 H 0.66866 0.08172 0.31409 0.0
C1067 C 0.61008 0.13997 0.3387 0.0
H1068 H 0.65145 0.07506 0.35193 0.0
C1069 C 0.62098 0.14438 0.31723 0.0
C1070 C 0.64182 0.12325 0.30799 0.0
H1071 H 0.593 0.15601 0.34488 0.0
H1072 H 0.61229 0.16373 0.30758 0.0
C1073 C 0.65231 0.09818 0.32078 0.0
C1074 C 0.89996 0.11428 0.59258 0.0
C1075 C 0.87903 0.10953 0.60986 0.0
H1076 H 0.906 0.12768 0.55879 0.0
C1077 C 0.84726 0.11443 0.6059 0.0
H1078 H 0.92454 0.11061 0.59513 0.0
C1079 C 0.83672 0.12427 0.58507 0.0
C1080 C 0.8577 0.12841 0.56782 0.0
H1081 H 0.83071 0.11142 0.61905 0.0
H1082 H 0.81224 0.12843 0.58238 0.0
C1083 C 0.88938 0.12377 0.57178 0.0
C1084 C 0.89974 0.4021 0.84382 0.0
C1085 C 0.89855 0.38173 0.86199 0.0
H1086 H 0.89114 0.40873 0.80919 0.0
C1087 C 0.88842 0.35111 0.85828 0.0
H1088 H 0.90774 0.42569 0.84574 0.0
C1089 C 0.88005 0.34117 0.837 0.0
C1090 C 0.88183 0.36155 0.81903 0.0
H1091 H 0.88628 0.33492 0.87184 0.0
H1092 H 0.87221 0.31759 0.83457 0.0
C1093 C 0.89087 0.39226 0.82271 0.0
C1094 C 0.63932 0.38944 0.09247 0.0
C1095 C 0.60905 0.39336 0.1003 0.0
H1096 H 0.66797 0.37831 0.06488 0.0
C1097 C 0.58404 0.38963 0.08552 0.0
H1098 H 0.65904 0.39196 0.10355 0.0
C1099 C 0.58909 0.38194 0.06342 0.0
C1100 C 0.61932 0.37753 0.05556 0.0
H1101 H 0.56049 0.39285 0.09101 0.0
H1102 H 0.56916 0.37917 0.05257 0.0
C1103 C 0.6444 0.38145 0.07035 0.0
loop_
_geom_bond_atom_site_label_1
_geom_bond_atom_site_label_2
_geom_bond_distance
_geom_bond_site_symmetry_2
_ccdc_geom_bond_type
H0 C27 0.929 . S
N1 C26 1.433 . S
N1 C32 1.435 . S
N1 C38 1.423 . S
H2 C28 0.930 . S
H3 C31 0.931 . S
H4 C30 0.929 . S
H5 C33 0.930 . S
H6 C34 0.932 . S
H7 C37 0.929 . S
H8 C36 0.931 . S
H9 C39 0.929 . S
H10 C43 0.932 . S
H11 C40 0.931 . S
H12 C42 0.929 . S
H13 C45 0.929 . S
H14 C46 0.930 . S
H15 C48 0.929 . S
H16 C49 0.931 . S
H17 C51 0.930 . S
H18 C52 0.932 . S
H19 C54 0.931 . S
H20 C55 0.929 . S
H21 C57 0.929 . S
H22 C58 0.931 . S
H23 C60 0.929 . S
N24 C44 1.433 . S
N24 C50 1.435 . S
N24 C56 1.423 . S
H25 C61 0.932 . S
C26 N1 1.433 . S
C26 C27 1.363 . S
C26 C31 1.370 . S
C27 H0 0.929 . S
C27 C26 1.363 . S
C27 C28 1.385 . S
C28 H2 0.930 . S
C28 C27 1.385 . S
C28 C29 1.357 . S
C29 C28 1.357 . S
C29 C30 1.406 . S
C30 H4 0.929 . S
C30 C29 1.406 . S
C30 C31 1.391 . S
C31 H3 0.931 . S
C31 C26 1.370 . S
C31 C30 1.391 . S
C32 N1 1.435 . S
C32 C33 1.358 . S
C32 C37 1.371 . S
C33 H5 0.930 . S
C33 C32 1.358 . S
C33 C34 1.405 . S
C34 H6 0.932 . S
C34 C33 1.405 . S
C34 C35 1.383 . S
C35 C34 1.383 . S
C35 C36 1.393 . S
C36 H8 0.931 . S
C36 C35 1.393 . S
C36 C37 1.382 . S
C37 H7 0.929 . S
C37 C32 1.371 . S
C37 C36 1.382 . S
C38 N1 1.423 . S
C38 C39 1.362 . S
C38 C43 1.388 . S
C39 H9 0.929 . S
C39 C38 1.362 . S
C39 C40 1.376 1_565 S
C40 H11 0.931 . S
C40 C39 1.376 1_545 S
C40 C41 1.396 . S
C41 C40 1.396 . S
C41 C42 1.348 1_545 S
C41 C59 1.472 . S
C42 H12 0.929 . S
C42 C41 1.348 1_565 S
C42 C43 1.443 . S
C43 H10 0.932 . S
C43 C38 1.388 . S
C43 C42 1.443 . S
C44 N24 1.433 . S
C44 C45 1.363 . S
C44 C49 1.370 . S
C45 H13 0.929 . S
C45 C44 1.363 . S
C45 C46 1.385 . S
C46 H14 0.930 . S
C46 C45 1.385 . S
C46 C47 1.357 . S
C47 C46 1.357 . S
C47 C48 1.406 . S
C48 H15 0.929 . S
C48 C47 1.406 . S
C48 C49 1.391 . S
C49 H16 0.931 . S
C49 C44 1.370 . S
C49 C48 1.391 . S
C50 N24 1.435 . S
C50 C51 1.358 . S
C50 C55 1.371 . S
C51 H17 0.930 . S
C51 C50 1.358 . S
C51 C52 1.405 . S
C52 H18 0.932 . S
C52 C51 1.405 . S
C52 C53 1.383 . S
C53 C52 1.383 . S
C53 C54 1.393 . S
C54 H19 0.931 . S
C54 C53 1.393 . S
C54 C55 1.382 . S
C55 H20 0.929 . S
C55 C50 1.371 . S
C55 C54 1.382 . S
C56 N24 1.423 . S
C56 C57 1.362 . S
C56 C61 1.388 . S
C57 H21 0.929 . S
C57 C56 1.362 . S
C57 C58 1.376 1_655 S
C58 H22 0.931 . S
C58 C57 1.376 1_455 S
C58 C59 1.396 . S
C59 C41 1.472 . S
C59 C58 1.396 . S
C59 C60 1.348 1_455 S
C60 H23 0.929 . S
C60 C59 1.348 1_655 S
C60 C61 1.443 . S
C61 H25 0.932 . S
C61 C56 1.388 . S
C61 C60 1.443 . S
H62 C89 0.929 . S
N63 C88 1.433 . S
N63 C94 1.435 . S
N63 C100 1.423 . S
H64 C90 0.930 . S
H65 C93 0.931 . S
H66 C92 0.929 . S
H67 C95 0.930 . S
H68 C96 0.932 . S
H69 C99 0.929 . S
H70 C98 0.931 . S
H71 C101 0.929 . S
H72 C105 0.932 . S
H73 C102 0.931 . S
H74 C104 0.929 . S
H75 C107 0.929 . S
H76 C108 0.930 . S
H77 C110 0.929 . S
H78 C111 0.931 . S
H79 C113 0.930 . S
H80 C114 0.932 . S
H81 C116 0.931 . S
H82 C117 0.929 . S
H83 C119 0.929 . S
H84 C120 0.931 . S
H85 C122 0.929 . S
N86 C106 1.433 . S
N86 C112 1.435 . S
N86 C118 1.423 . S
H87 C123 0.932 . S
C88 N63 1.433 . S
C88 C89 1.363 . S
C88 C93 1.370 . S
C89 H62 0.929 . S
C89 C88 1.363 . S
C89 C90 1.385 . S
C90 H64 0.930 . S
C90 C89 1.385 . S
C90 C91 1.357 . S
C91 C90 1.357 . S
C91 C92 1.406 . S
C92 H66 0.929 . S
C92 C91 1.406 . S
C92 C93 1.391 . S
C93 H65 0.931 . S
C93 C88 1.370 . S
C93 C92 1.391 . S
C94 N63 1.435 . S
C94 C95 1.358 . S
C94 C99 1.371 . S
C95 H67 0.930 . S
C95 C94 1.358 . S
C95 C96 1.405 . S
C96 H68 0.932 . S
C96 C95 1.405 . S
C96 C97 1.383 . S
C97 C96 1.383 . S
C97 C98 1.393 . S
C98 H70 0.931 . S
C98 C97 1.393 . S
C98 C99 1.382 . S
C99 H69 0.929 . S
C99 C94 1.371 . S
C99 C98 1.382 . S
C100 N63 1.423 . S
C100 C101 1.362 . S
C100 C105 1.388 . S
C101 H71 0.929 . S
C101 C100 1.362 . S
C101 C102 1.376 1_655 S
C102 H73 0.931 . S
C102 C101 1.376 1_455 S
C102 C103 1.396 . S
C103 C102 1.396 . S
C103 C104 1.348 1_455 S
C103 C121 1.472 . S
C104 H74 0.929 . S
C104 C103 1.348 1_655 S
C104 C105 1.443 . S
C105 H72 0.932 . S
C105 C100 1.388 . S
C105 C104 1.443 . S
C106 N86 1.433 . S
C106 C107 1.363 . S
C106 C111 1.370 . S
C107 H75 0.929 . S
C107 C106 1.363 . S
C107 C108 1.385 . S
C108 H76 0.930 . S
C108 C107 1.385 . S
C108 C109 1.357 . S
C109 C108 1.357 . S
C109 C110 1.406 . S
C110 H77 0.929 . S
C110 C109 1.406 . S
C110 C111 1.391 . S
C111 H78 0.931 . S
C111 C106 1.370 . S
C111 C110 1.391 . S
C112 N86 1.435 . S
C112 C113 1.358 . S
C112 C117 1.371 . S
C113 H79 0.930 . S
C113 C112 1.358 . S
C113 C114 1.405 . S
C114 H80 0.932 . S
C114 C113 1.405 . S
C114 C115 1.383 . S
C115 C114 1.383 . S
C115 C116 1.393 . S
C116 H81 0.931 . S
C116 C115 1.393 . S
C116 C117 1.382 . S
C117 H82 0.929 . S
C117 C112 1.371 . S
C117 C116 1.382 . S
C118 N86 1.423 . S
C118 C119 1.362 . S
C118 C123 1.388 . S
C119 H83 0.929 . S
C119 C118 1.362 . S
C119 C120 1.376 . S
C120 H84 0.931 . S
C120 C119 1.376 . S
C120 C121 1.396 . S
C121 C103 1.472 . S
C121 C120 1.396 . S
C121 C122 1.348 . S
C122 H85 0.929 . S
C122 C121 1.348 . S
C122 C123 1.443 . S
C123 H87 0.932 . S
C123 C118 1.388 . S
C123 C122 1.443 . S
H124 C151 0.929 . S
N125 C150 1.433 . S
N125 C156 1.435 . S
N125 C162 1.423 . S
H126 C152 0.930 . S
H127 C155 0.931 . S
H128 C154 0.929 . S
H129 C157 0.930 . S
H130 C158 0.932 . S
H131 C161 0.929 . S
H132 C160 0.931 . S
H133 C163 0.929 . S
H134 C167 0.932 . S
H135 C164 0.931 . S
H136 C166 0.929 . S
H137 C169 0.929 . S
H138 C170 0.930 . S
H139 C172 0.929 . S
H140 C173 0.931 . S
H141 C175 0.930 . S
H142 C176 0.932 . S
H143 C178 0.931 . S
H144 C179 0.929 . S
H145 C181 0.929 . S
H146 C182 0.931 . S
H147 C184 0.929 . S
N148 C168 1.433 . S
N148 C174 1.435 . S
N148 C180 1.423 . S
H149 C185 0.932 . S
C150 N125 1.433 . S
C150 C151 1.363 . S
C150 C155 1.370 . S
C151 H124 0.929 . S
C151 C150 1.363 . S
C151 C152 1.385 . S
C152 H126 0.930 . S
C152 C151 1.385 . S
C152 C153 1.357 . S
C153 C152 1.357 . S
C153 C154 1.406 . S
C154 H128 0.929 . S
C154 C153 1.406 . S
C154 C155 1.391 . S
C155 H127 0.931 . S
C155 C150 1.370 . S
C155 C154 1.391 . S
C156 N125 1.435 . S
C156 C157 1.358 . S
C156 C161 1.371 . S
C157 H129 0.930 . S
C157 C156 1.358 . S
C157 C158 1.405 . S
C158 H130 0.932 . S
C158 C157 1.405 . S
C158 C159 1.383 . S
C159 C158 1.383 . S
C159 C160 1.393 . S
C160 H132 0.931 . S
C160 C159 1.393 . S
C160 C161 1.382 . S
C161 H131 0.929 . S
C161 C156 1.371 . S
C161 C160 1.382 . S
C162 N125 1.423 . S
C162 C163 1.362 . S
C162 C167 1.388 . S
C163 H133 0.929 . S
C163 C162 1.362 . S
C163 C164 1.376 . S
C164 H135 0.931 . S
C164 C163 1.376 . S
C164 C165 1.396 . S
C165 C164 1.396 . S
C165 C166 1.348 . S
C165 C183 1.472 . S
C166 H136 0.929 . S
C166 C165 1.348 . S
C166 C167 1.443 . S
C167 H134 0.932 . S
C167 C162 1.388 . S
C167 C166 1.443 . S
C168 N148 1.433 . S
C168 C169 1.363 . S
C168 C173 1.370 . S
C169 H137 0.929 . S
C169 C168 1.363 . S
C169 C170 1.385 . S
C170 H138 0.930 . S
C170 C169 1.385 . S
C170 C171 1.357 . S
C171 C170 1.357 . S
C171 C172 1.406 . S
C172 H139 0.929 . S
C172 C171 1.406 . S
C172 C173 1.391 . S
C173 H140 0.931 . S
C173 C168 1.370 . S
C173 C172 1.391 . S
C174 N148 1.435 . S
C174 C175 1.358 . S
C174 C179 1.371 . S
C175 H141 0.930 . S
C175 C174 1.358 . S
C175 C176 1.405 . S
C176 H142 0.932 . S
C176 C175 1.405 . S
C176 C177 1.383 . S
C177 C176 1.383 . S
C177 C178 1.393 . S
C178 H143 0.931 . S
C178 C177 1.393 . S
C178 C179 1.382 . S
C179 H144 0.929 . S
C179 C174 1.371 . S
C179 C178 1.382 . S
C180 N148 1.423 . S
C180 C181 1.362 . S
C180 C185 1.388 . S
C181 H145 0.929 . S
C181 C180 1.362 . S
C181 C182 1.376 . S
C182 H146 0.931 . S
C182 C181 1.376 . S
C182 C183 1.396 . S
C183 C165 1.472 . S
C183 C182 1.396 . S
C183 C184 1.348 . S
C184 H147 0.929 . S
C184 C183 1.348 . S
C184 C185 1.443 . S
C185 H149 0.932 . S
C185 C180 1.388 . S
C185 C184 1.443 . S
H186 C213 0.929 . S
N187 C212 1.433 . S
N187 C218 1.435 . S
N187 C224 1.423 . S
H188 C214 0.930 . S
H189 C217 0.931 . S
H190 C216 0.929 . S
H191 C219 0.930 . S
H192 C220 0.932 . S
H193 C223 0.929 . S
H194 C222 0.931 1_556 S
H195 C225 0.929 . S
H196 C229 0.932 . S
H197 C226 0.931 . S
H198 C228 0.929 . S
H199 C231 0.929 . S
H200 C232 0.930 . S
H201 C234 0.929 . S
H202 C235 0.931 . S
H203 C237 0.930 . S
H204 C238 0.932 . S
H205 C240 0.907 1_556 S
H206 C241 0.929 . S
H207 C243 0.929 . S
H208 C244 0.931 1_565 S
H209 C246 0.929 . S
N210 C230 1.433 . S
N210 C236 1.435 . S
N210 C242 1.423 . S
H211 C247 0.932 . S
C212 N187 1.433 . S
C212 C213 1.363 . S
C212 C217 1.370 . S
C213 H186 0.929 . S
C213 C212 1.363 . S
C213 C214 1.385 . S
C214 H188 0.930 . S
C214 C213 1.385 . S
C214 C215 1.357 . S
C215 C214 1.357 . S
C215 C216 1.406 . S
C216 H190 0.929 . S
C216 C215 1.406 . S
C216 C217 1.391 . S
C217 H189 0.931 . S
C217 C212 1.370 . S
C217 C216 1.391 . S
C218 N187 1.435 . S
C218 C219 1.358 . S
C218 C223 1.371 . S
C219 H191 0.930 . S
C219 C218 1.358 . S
C219 C220 1.405 . S
C220 H192 0.932 . S
C220 C219 1.405 . S
C220 C221 1.383 . S
C221 C220 1.383 . S
C221 C222 1.393 . S
C222 H194 0.931 1_554 S
C222 C221 1.393 . S
C222 C223 1.382 . S
C223 H193 0.929 . S
C223 C218 1.371 . S
C223 C222 1.382 . S
C224 N187 1.423 . S
C224 C225 1.362 . S
C224 C229 1.388 . S
C225 H195 0.929 . S
C225 C224 1.362 . S
C225 C226 1.376 . S
C226 H197 0.931 . S
C226 C225 1.376 . S
C226 C227 1.396 . S
C227 C226 1.396 . S
C227 C228 1.348 . S
C227 C245 1.472 1_565 S
C228 H198 0.929 . S
C228 C227 1.348 . S
C228 C229 1.443 . S
C229 H196 0.932 . S
C229 C224 1.388 . S
C229 C228 1.443 . S
C230 N210 1.433 . S
C230 C231 1.363 . S
C230 C235 1.370 . S
C231 H199 0.929 . S
C231 C230 1.363 . S
C231 C232 1.385 . S
C232 H200 0.930 . S
C232 C231 1.385 . S
C232 C233 1.357 . S
C233 C232 1.357 . S
C233 C234 1.406 . S
C234 H201 0.929 . S
C234 C233 1.406 . S
C234 C235 1.391 . S
C235 H202 0.931 . S
C235 C230 1.370 . S
C235 C234 1.391 . S
C236 N210 1.435 . S
C236 C237 1.358 . S
C236 C241 1.371 . S
C237 H203 0.930 . S
C237 C236 1.358 . S
C237 C238 1.405 . S
C238 H204 0.932 . S
C238 C237 1.405 . S
C238 C239 1.383 . S
C239 C238 1.383 . S
C239 C240 1.393 . S
C240 H205 0.907 1_554 S
C240 C239 1.393 . S
C240 C241 1.382 . S
C241 H206 0.929 . S
C241 C236 1.371 . S
C241 C240 1.382 . S
C242 N210 1.423 . S
C242 C243 1.362 . S
C242 C247 1.388 . S
C243 H207 0.929 . S
C243 C242 1.362 . S
C243 C244 1.376 . S
C244 H208 0.931 1_545 S
C244 C243 1.376 . S
C244 C245 1.396 . S
C245 C227 1.472 1_545 S
C245 C244 1.396 . S
C245 C246 1.348 . S
C246 H209 0.929 . S
C246 C245 1.348 . S
C246 C247 1.443 . S
C247 H211 0.932 . S
C247 C242 1.388 . S
C247 C246 1.443 . S
H248 C275 0.929 . S
N249 C274 1.433 . S
N249 C280 1.435 . S
N249 C286 1.423 . S
H250 C276 0.930 . S
H251 C279 0.931 . S
H252 C278 0.929 . S
H253 C281 0.930 . S
H254 C282 0.932 . S
H255 C285 0.929 . S
H256 C284 0.931 1_554 S
H257 C287 0.929 . S
H258 C291 0.932 . S
H259 C288 0.931 . S
H260 C290 0.929 . S
H261 C293 0.929 . S
H262 C294 0.930 . S
H263 C296 0.929 . S
H264 C297 0.931 . S
H265 C299 0.930 . S
H266 C300 0.932 . S
H267 C302 0.931 1_554 S
H268 C303 0.929 . S
H269 C305 0.929 . S
H270 C306 0.946 . S
H271 C308 0.929 . S
N272 C292 1.433 . S
N272 C298 1.435 . S
N272 C304 1.423 . S
H273 C309 0.932 . S
C274 N249 1.433 . S
C274 C275 1.363 . S
C274 C279 1.370 . S
C275 H248 0.929 . S
C275 C274 1.363 . S
C275 C276 1.385 . S
C276 H250 0.930 . S
C276 C275 1.385 . S
C276 C277 1.357 . S
C277 C276 1.357 . S
C277 C278 1.406 . S
C278 H252 0.929 . S
C278 C277 1.406 . S
C278 C279 1.391 . S
C279 H251 0.931 . S
C279 C274 1.370 . S
C279 C278 1.391 . S
C280 N249 1.435 . S
C280 C281 1.358 . S
C280 C285 1.371 . S
C281 H253 0.930 . S
C281 C280 1.358 . S
C281 C282 1.405 . S
C282 H254 0.932 . S
C282 C281 1.405 . S
C282 C283 1.383 . S
C283 C282 1.383 . S
C283 C284 1.393 . S
C284 H256 0.931 1_556 S
C284 C283 1.393 . S
C284 C285 1.382 . S
C285 H255 0.929 . S
C285 C280 1.371 . S
C285 C284 1.382 . S
C286 N249 1.423 . S
C286 C287 1.362 . S
C286 C291 1.388 . S
C287 H257 0.929 . S
C287 C286 1.362 . S
C287 C288 1.376 . S
C288 H259 0.931 . S
C288 C287 1.376 . S
C288 C289 1.396 . S
C289 C288 1.396 . S
C289 C290 1.348 . S
C289 C307 1.472 . S
C290 H260 0.929 . S
C290 C289 1.348 . S
C290 C291 1.443 . S
C291 H258 0.932 . S
C291 C286 1.388 . S
C291 C290 1.443 . S
C292 N272 1.433 . S
C292 C293 1.363 . S
C292 C297 1.370 . S
C293 H261 0.929 . S
C293 C292 1.363 . S
C293 C294 1.385 . S
C294 H262 0.930 . S
C294 C293 1.385 . S
C294 C295 1.357 . S
C295 C294 1.357 . S
C295 C296 1.406 . S
C296 H263 0.929 . S
C296 C295 1.406 . S
C296 C297 1.391 . S
C297 H264 0.931 . S
C297 C292 1.370 . S
C297 C296 1.391 . S
C298 N272 1.435 . S
C298 C299 1.358 . S
C298 C303 1.371 . S
C299 H265 0.930 . S
C299 C298 1.358 . S
C299 C300 1.405 . S
C300 H266 0.932 . S
C300 C299 1.405 . S
C300 C301 1.383 . S
C301 C300 1.383 . S
C301 C302 1.393 . S
C302 H267 0.931 1_556 S
C302 C301 1.393 . S
C302 C303 1.382 . S
C303 H268 0.929 . S
C303 C298 1.371 . S
C303 C302 1.382 . S
C304 N272 1.423 . S
C304 C305 1.362 . S
C304 C309 1.388 . S
C305 H269 0.929 . S
C305 C304 1.362 . S
C305 C306 1.360 1_655 S
C306 H270 0.946 . S
C306 C305 1.360 1_455 S
C306 C307 1.398 . S
C307 C289 1.472 . S
C307 C306 1.398 . S
C307 C308 1.348 1_455 S
C308 H271 0.929 . S
C308 C307 1.348 1_655 S
C308 C309 1.443 . S
C309 H273 0.932 . S
C309 C304 1.388 . S
C309 C308 1.443 . S
H310 C337 0.929 . S
N311 C336 1.433 . S
N311 C342 1.435 . S
N311 C348 1.423 . S
H312 C338 0.930 . S
H313 C341 0.931 . S
H314 C340 0.929 . S
H315 C343 0.930 . S
H316 C344 0.932 . S
H317 C347 0.929 . S
H318 C346 0.931 . S
H319 C349 0.929 . S
H320 C353 0.932 . S
H321 C350 0.931 . S
H322 C352 0.929 . S
H323 C355 0.929 . S
H324 C356 0.930 . S
H325 C358 0.929 . S
H326 C359 0.931 . S
H327 C361 0.930 . S
H328 C362 0.932 . S
H329 C364 0.931 . S
H330 C365 0.929 . S
H331 C367 0.929 . S
H332 C368 0.931 . S
H333 C370 0.929 . S
N334 C354 1.433 . S
N334 C360 1.435 . S
N334 C366 1.423 . S
H335 C371 0.932 . S
C336 N311 1.433 . S
C336 C337 1.363 . S
C336 C341 1.370 . S
C337 H310 0.929 . S
C337 C336 1.363 . S
C337 C338 1.385 . S
C338 H312 0.930 . S
C338 C337 1.385 . S
C338 C339 1.357 . S
C339 C338 1.357 . S
C339 C340 1.406 . S
C340 H314 0.929 . S
C340 C339 1.406 . S
C340 C341 1.391 . S
C341 H313 0.931 . S
C341 C336 1.370 . S
C341 C340 1.391 . S
C342 N311 1.435 . S
C342 C343 1.358 . S
C342 C347 1.371 . S
C343 H315 0.930 . S
C343 C342 1.358 . S
C343 C344 1.405 . S
C344 H316 0.932 . S
C344 C343 1.405 . S
C344 C345 1.383 . S
C345 C344 1.383 . S
C345 C346 1.393 . S
C346 H318 0.931 . S
C346 C345 1.393 . S
C346 C347 1.382 . S
C347 H317 0.929 . S
C347 C342 1.371 . S
C347 C346 1.382 . S
C348 N311 1.423 . S
C348 C349 1.362 . S
C348 C353 1.388 . S
C349 H319 0.929 . S
C349 C348 1.362 . S
C349 C350 1.376 . S
C350 H321 0.931 . S
C350 C349 1.376 . S
C350 C351 1.396 . S
C351 C350 1.396 . S
C351 C352 1.348 . S
C351 C369 1.472 . S
C352 H322 0.929 . S
C352 C351 1.348 . S
C352 C353 1.443 . S
C353 H320 0.932 . S
C353 C348 1.388 . S
C353 C352 1.443 . S
C354 N334 1.433 . S
C354 C355 1.363 . S
C354 C359 1.370 . S
C355 H323 0.929 . S
C355 C354 1.363 . S
C355 C356 1.385 . S
C356 H324 0.930 . S
C356 C355 1.385 . S
C356 C357 1.357 . S
C357 C356 1.357 . S
C357 C358 1.406 . S
C358 H325 0.929 . S
C358 C357 1.406 . S
C358 C359 1.391 . S
C359 H326 0.931 . S
C359 C354 1.370 . S
C359 C358 1.391 . S
C360 N334 1.435 . S
C360 C361 1.358 . S
C360 C365 1.371 . S
C361 H327 0.930 . S
C361 C360 1.358 . S
C361 C362 1.405 . S
C362 H328 0.932 . S
C362 C361 1.405 . S
C362 C363 1.383 . S
C363 C362 1.383 . S
C363 C364 1.393 . S
C364 H329 0.931 . S
C364 C363 1.393 . S
C364 C365 1.382 . S
C365 H330 0.929 . S
C365 C360 1.371 . S
C365 C364 1.382 . S
C366 N334 1.423 . S
C366 C367 1.362 . S
C366 C371 1.388 . S
C367 H331 0.929 . S
C367 C366 1.362 . S
C367 C368 1.376 . S
C368 H332 0.931 . S
C368 C367 1.376 . S
C368 C369 1.396 . S
C369 C351 1.472 . S
C369 C368 1.396 . S
C369 C370 1.348 . S
C370 H333 0.929 . S
C370 C369 1.348 . S
C370 C371 1.443 . S
C371 H335 0.932 . S
C371 C366 1.388 . S
C371 C370 1.443 . S
H372 C399 0.929 . S
N373 C398 1.433 . S
N373 C404 1.435 . S
N373 C410 1.423 . S
H374 C400 0.930 . S
H375 C403 0.931 . S
H376 C402 0.929 . S
H377 C405 0.930 . S
H378 C406 0.932 . S
H379 C409 0.929 . S
H380 C408 0.931 . S
H381 C411 0.929 . S
H382 C415 0.932 . S
H383 C412 0.931 . S
H384 C414 0.929 . S
H385 C417 0.929 . S
H386 C418 0.930 . S
H387 C420 0.929 . S
H388 C421 0.931 . S
H389 C423 0.930 . S
H390 C424 0.932 . S
H391 C426 0.931 . S
H392 C427 0.929 . S
H393 C429 0.929 . S
H394 C430 0.931 . S
H395 C432 0.929 . S
N396 C416 1.433 . S
N396 C422 1.435 . S
N396 C428 1.423 . S
H397 C433 0.932 . S
C398 N373 1.433 . S
C398 C399 1.363 . S
C398 C403 1.370 . S
C399 H372 0.929 . S
C399 C398 1.363 . S
C399 C400 1.385 . S
C400 H374 0.930 . S
C400 C399 1.385 . S
C400 C401 1.357 . S
C401 C400 1.357 . S
C401 C402 1.406 . S
C402 H376 0.929 . S
C402 C401 1.406 . S
C402 C403 1.391 . S
C403 H375 0.931 . S
C403 C398 1.370 . S
C403 C402 1.391 . S
C404 N373 1.435 . S
C404 C405 1.358 . S
C404 C409 1.371 . S
C405 H377 0.930 . S
C405 C404 1.358 . S
C405 C406 1.405 . S
C406 H378 0.932 . S
C406 C405 1.405 . S
C406 C407 1.383 . S
C407 C406 1.383 . S
C407 C408 1.393 . S
C408 H380 0.931 . S
C408 C407 1.393 . S
C408 C409 1.382 . S
C409 H379 0.929 . S
C409 C404 1.371 . S
C409 C408 1.382 . S
C410 N373 1.423 . S
C410 C411 1.362 . S
C410 C415 1.388 . S
C411 H381 0.929 . S
C411 C410 1.362 . S
C411 C412 1.376 1_565 S
C412 H383 0.931 . S
C412 C411 1.376 1_545 S
C412 C413 1.396 . S
C413 C412 1.396 . S
C413 C414 1.348 1_545 S
C413 C431 1.472 . S
C414 H384 0.929 . S
C414 C413 1.348 1_565 S
C414 C415 1.443 . S
C415 H382 0.932 . S
C415 C410 1.388 . S
C415 C414 1.443 . S
C416 N396 1.433 . S
C416 C417 1.363 . S
C416 C421 1.370 . S
C417 H385 0.929 . S
C417 C416 1.363 . S
C417 C418 1.385 . S
C418 H386 0.930 . S
C418 C417 1.385 . S
C418 C419 1.357 . S
C419 C418 1.357 . S
C419 C420 1.406 . S
C420 H387 0.929 . S
C420 C419 1.406 . S
C420 C421 1.391 . S
C421 H388 0.931 . S
C421 C416 1.370 . S
C421 C420 1.391 . S
C422 N396 1.435 . S
C422 C423 1.358 . S
C422 C427 1.371 . S
C423 H389 0.930 . S
C423 C422 1.358 . S
C423 C424 1.405 . S
C424 H390 0.932 . S
C424 C423 1.405 . S
C424 C425 1.383 . S
C425 C424 1.383 . S
C425 C426 1.393 . S
C426 H391 0.931 . S
C426 C425 1.393 . S
C426 C427 1.382 . S
C427 H392 0.929 . S
C427 C422 1.371 . S
C427 C426 1.382 . S
C428 N396 1.423 . S
C428 C429 1.362 . S
C428 C433 1.388 . S
C429 H393 0.929 . S
C429 C428 1.362 . S
C429 C430 1.376 . S
C430 H394 0.931 . S
C430 C429 1.376 . S
C430 C431 1.396 . S
C431 C413 1.472 . S
C431 C430 1.396 . S
C431 C432 1.348 . S
C432 H395 0.929 . S
C432 C431 1.348 . S
C432 C433 1.443 . S
C433 H397 0.932 . S
C433 C428 1.388 . S
C433 C432 1.443 . S
H434 C461 0.929 . S
N435 C460 1.433 . S
N435 C466 1.435 . S
N435 C472 1.423 . S
H436 C462 0.930 . S
H437 C465 0.931 . S
H438 C464 0.929 . S
H439 C467 0.930 . S
H440 C468 0.932 . S
H441 C471 0.929 . S
H442 C470 0.931 . S
H443 C473 0.929 . S
H444 C477 0.932 . S
H445 C474 0.931 . S
H446 C476 0.929 . S
H447 C479 0.929 . S
H448 C480 0.930 . S
H449 C482 0.929 . S
H450 C483 0.931 . S
H451 C485 0.930 . S
H452 C486 0.932 . S
H453 C488 0.931 . S
H454 C489 0.929 . S
H455 C491 0.929 . S
H456 C492 0.931 1_565 S
H457 C494 0.929 . S
N458 C478 1.433 . S
N458 C484 1.435 . S
N458 C490 1.423 . S
H459 C495 0.932 . S
C460 N435 1.433 . S
C460 C461 1.363 . S
C460 C465 1.370 . S
C461 H434 0.929 . S
C461 C460 1.363 . S
C461 C462 1.385 . S
C462 H436 0.930 . S
C462 C461 1.385 . S
C462 C463 1.357 . S
C463 C462 1.357 . S
C463 C464 1.406 . S
C464 H438 0.929 . S
C464 C463 1.406 . S
C464 C465 1.391 . S
C465 H437 0.931 . S
C465 C460 1.370 . S
C465 C464 1.391 . S
C466 N435 1.435 . S
C466 C467 1.358 . S
C466 C471 1.371 . S
C467 H439 0.930 . S
C467 C466 1.358 . S
C467 C468 1.405 . S
C468 H440 0.932 . S
C468 C467 1.405 . S
C468 C469 1.383 . S
C469 C468 1.383 . S
C469 C470 1.393 . S
C470 H442 0.931 . S
C470 C469 1.393 . S
C470 C471 1.382 . S
C471 H441 0.929 . S
C471 C466 1.371 . S
C471 C470 1.382 . S
C472 N435 1.423 . S
C472 C473 1.362 . S
C472 C477 1.388 . S
C473 H443 0.929 . S
C473 C472 1.362 . S
C473 C474 1.376 1_455 S
C474 H445 0.931 . S
C474 C473 1.376 1_655 S
C474 C475 1.396 . S
C475 C474 1.396 . S
C475 C476 1.348 1_655 S
C475 C493 1.472 1_565 S
C476 H446 0.929 . S
C476 C475 1.348 1_455 S
C476 C477 1.443 . S
C477 H444 0.932 . S
C477 C472 1.388 . S
C477 C476 1.443 . S
C478 N458 1.433 . S
C478 C479 1.363 . S
C478 C483 1.370 . S
C479 H447 0.929 . S
C479 C478 1.363 . S
C479 C480 1.385 . S
C480 H448 0.930 . S
C480 C479 1.385 . S
C480 C481 1.357 . S
C481 C480 1.357 . S
C481 C482 1.406 . S
C482 H449 0.929 . S
C482 C481 1.406 . S
C482 C483 1.391 . S
C483 H450 0.931 . S
C483 C478 1.370 . S
C483 C482 1.391 . S
C484 N458 1.435 . S
C484 C485 1.358 . S
C484 C489 1.371 . S
C485 H451 0.930 . S
C485 C484 1.358 . S
C485 C486 1.405 . S
C486 H452 0.932 . S
C486 C485 1.405 . S
C486 C487 1.383 . S
C487 C486 1.383 . S
C487 C488 1.393 . S
C488 H453 0.931 . S
C488 C487 1.393 . S
C488 C489 1.382 . S
C489 H454 0.929 . S
C489 C484 1.371 . S
C489 C488 1.382 . S
C490 N458 1.423 . S
C490 C491 1.362 . S
C490 C495 1.388 . S
C491 H455 0.929 . S
C491 C490 1.362 . S
C491 C492 1.376 . S
C492 H456 0.931 1_545 S
C492 C491 1.376 . S
C492 C493 1.396 . S
C493 C475 1.472 1_545 S
C493 C492 1.396 . S
C493 C494 1.348 . S
C494 H457 0.929 . S
C494 C493 1.348 . S
C494 C495 1.443 . S
C495 H459 0.932 . S
C495 C490 1.388 . S
C495 C494 1.443 . S
Mn496 O501 2.095 1_554 S
Mn496 O511 2.162 . S
Mn496 O512 2.297 . S
Mn496 O520 2.385 . S
Mn496 O521 2.209 . S
Mn496 O522 2.097 . S
Mn497 O502 2.089 1_554 S
Mn497 N504 2.268 . S
Mn497 N513 2.317 . S
Mn497 O521 2.237 . S
Mn497 O523 2.115 1_554 S
C498 O520 1.234 . S
C498 O521 1.283 . S
C499 O511 1.281 . S
C499 O512 1.236 . S
C500 O522 1.237 1_556 S
C500 O523 1.264 . S
O501 Mn496 2.095 1_556 S
O501 C510 1.250 . S
O502 Mn497 2.089 1_556 S
O502 C510 1.258 . S
C503 N504 1.317 1_556 S
C503 C507 1.455 1_556 S
C503 H509 0.944 . S
N504 Mn497 2.268 . S
N504 C503 1.317 1_554 S
N504 C508 1.362 . S
C505 C506 1.258 . S
C505 C508 1.431 . S
C505 C525 1.449 . S
C506 C505 1.258 . S
C506 C507 1.477 . S
C506 H526 0.931 . S
C507 C503 1.455 1_554 S
C507 C506 1.477 . S
C507 H527 0.905 1_554 S
C508 N504 1.362 . S
C508 C505 1.431 . S
C508 C518 1.476 . S
H509 C503 0.944 . S
C510 O501 1.250 . S
C510 O502 1.258 . S
O511 Mn496 2.162 . S
O511 C499 1.281 . S
O512 Mn496 2.297 . S
O512 C499 1.236 . S
N513 Mn497 2.317 . S
N513 C514 1.328 . S
N513 C518 1.318 . S
C514 N513 1.328 . S
C514 C515 1.457 . S
C514 H519 0.929 . S
C515 C514 1.457 . S
C515 C516 1.291 . S
C515 H528 0.931 . S
C516 C515 1.291 . S
C516 C517 1.373 . S
C516 H529 0.929 . S
C517 C516 1.373 . S
C517 C518 1.396 . S
C517 C524 1.403 . S
C518 C508 1.476 . S
C518 N513 1.318 . S
C518 C517 1.396 . S
H519 C514 0.929 . S
O520 Mn496 2.385 . S
O520 C498 1.234 . S
O521 Mn496 2.209 . S
O521 Mn497 2.237 . S
O521 C498 1.283 . S
O522 Mn496 2.097 . S
O522 C500 1.237 1_554 S
O523 Mn497 2.115 1_556 S
O523 C500 1.264 . S
C524 C517 1.403 . S
C524 C525 1.399 . S
C524 H530 0.929 . S
C525 C505 1.449 . S
C525 C524 1.399 . S
C525 H531 0.930 . S
H526 C506 0.931 . S
H527 C507 0.905 1_556 S
H528 C515 0.931 . S
H529 C516 0.929 . S
H530 C524 0.929 . S
H531 C525 0.930 . S
Mn532 O537 2.095 . S
Mn532 O547 2.162 . S
Mn532 O548 2.297 . S
Mn532 O556 2.385 . S
Mn532 O557 2.209 . S
Mn532 O558 2.094 . S
Mn533 O538 2.121 . S
Mn533 N540 2.257 . S
Mn533 N549 2.282 . S
Mn533 O557 2.215 . S
Mn533 O559 2.117 . S
C534 O556 1.234 . S
C534 O557 1.283 . S
C535 O547 1.281 . S
C535 O548 1.236 . S
C536 O558 1.240 . S
C536 O559 1.264 . S
O537 Mn532 2.095 . S
O537 C546 1.250 . S
O538 Mn533 2.121 . S
O538 C546 1.258 . S
C539 N540 1.326 . S
C539 C543 1.460 . S
C539 H545 0.929 . S
N540 Mn533 2.257 . S
N540 C539 1.326 . S
N540 C544 1.362 . S
C541 C542 1.258 . S
C541 C544 1.431 . S
C541 C561 1.449 . S
C542 C541 1.258 . S
C542 C543 1.477 . S
C542 H562 0.931 . S
C543 C539 1.460 . S
C543 C542 1.477 . S
C543 H563 0.930 . S
C544 N540 1.362 . S
C544 C541 1.431 . S
C544 C554 1.476 . S
H545 C539 0.929 . S
C546 O537 1.250 . S
C546 O538 1.258 . S
O547 Mn532 2.162 . S
O547 C535 1.281 . S
O548 Mn532 2.297 . S
O548 C535 1.236 . S
N549 Mn533 2.282 . S
N549 C550 1.328 . S
N549 C554 1.318 . S
C550 N549 1.328 . S
C550 C551 1.457 . S
C550 H555 0.929 . S
C551 C550 1.457 . S
C551 C552 1.291 . S
C551 H564 0.931 . S
C552 C551 1.291 . S
C552 C553 1.373 . S
C552 H565 0.929 . S
C553 C552 1.373 . S
C553 C554 1.396 . S
C553 C560 1.403 . S
C554 C544 1.476 . S
C554 N549 1.318 . S
C554 C553 1.396 . S
H555 C550 0.929 . S
O556 Mn532 2.385 . S
O556 C534 1.234 . S
O557 Mn532 2.209 . S
O557 Mn533 2.215 . S
O557 C534 1.283 . S
O558 Mn532 2.094 . S
O558 C536 1.240 . S
O559 Mn533 2.117 . S
O559 C536 1.264 . S
C560 C553 1.403 . S
C560 C561 1.399 . S
C560 H566 0.929 . S
C561 C541 1.449 . S
C561 C560 1.399 . S
C561 H567 0.930 . S
H562 C542 0.931 . S
H563 C543 0.930 . S
H564 C551 0.931 . S
H565 C552 0.929 . S
H566 C560 0.929 . S
H567 C561 0.930 . S
Mn568 O573 2.095 . S
Mn568 O583 2.162 . S
Mn568 O584 2.297 . S
Mn568 O592 2.385 . S
Mn568 O593 2.209 . S
Mn568 O594 2.094 . S
Mn569 O574 2.121 . S
Mn569 N576 2.257 . S
Mn569 N585 2.282 . S
Mn569 O593 2.215 . S
Mn569 O595 2.117 . S
C570 O592 1.234 . S
C570 O593 1.283 . S
C571 O583 1.281 . S
C571 O584 1.236 . S
C572 O594 1.240 . S
C572 O595 1.264 . S
O573 Mn568 2.095 . S
O573 C582 1.250 . S
O574 Mn569 2.121 . S
O574 C582 1.258 . S
C575 N576 1.326 . S
C575 C579 1.460 . S
C575 H581 0.929 . S
N576 Mn569 2.257 . S
N576 C575 1.326 . S
N576 C580 1.362 . S
C577 C578 1.258 . S
C577 C580 1.431 . S
C577 C597 1.449 . S
C578 C577 1.258 . S
C578 C579 1.477 . S
C578 H598 0.931 . S
C579 C575 1.460 . S
C579 C578 1.477 . S
C579 H599 0.930 . S
C580 N576 1.362 . S
C580 C577 1.431 . S
C580 C590 1.476 . S
H581 C575 0.929 . S
C582 O573 1.250 . S
C582 O574 1.258 . S
O583 Mn568 2.162 . S
O583 C571 1.281 . S
O584 Mn568 2.297 . S
O584 C571 1.236 . S
N585 Mn569 2.282 . S
N585 C586 1.328 . S
N585 C590 1.318 . S
C586 N585 1.328 . S
C586 C587 1.457 . S
C586 H591 0.929 . S
C587 C586 1.457 . S
C587 C588 1.291 . S
C587 H600 0.931 . S
C588 C587 1.291 . S
C588 C589 1.373 . S
C588 H601 0.929 . S
C589 C588 1.373 . S
C589 C590 1.396 . S
C589 C596 1.403 . S
C590 C580 1.476 . S
C590 N585 1.318 . S
C590 C589 1.396 . S
H591 C586 0.929 . S
O592 Mn568 2.385 . S
O592 C570 1.234 . S
O593 Mn568 2.209 . S
O593 Mn569 2.215 . S
O593 C570 1.283 . S
O594 Mn568 2.094 . S
O594 C572 1.240 . S
O595 Mn569 2.117 . S
O595 C572 1.264 . S
C596 C589 1.403 . S
C596 C597 1.399 . S
C596 H602 0.929 . S
C597 C577 1.449 . S
C597 C596 1.399 . S
C597 H603 0.930 . S
H598 C578 0.931 . S
H599 C579 0.930 . S
H600 C587 0.931 . S
H601 C588 0.929 . S
H602 C596 0.929 . S
H603 C597 0.930 . S
Mn604 O609 2.095 . S
Mn604 O619 2.162 . S
Mn604 O620 2.297 . S
Mn604 O628 2.385 . S
Mn604 O629 2.209 . S
Mn604 O630 2.094 . S
Mn605 O610 2.121 . S
Mn605 N612 2.257 . S
Mn605 N621 2.282 . S
Mn605 O629 2.215 . S
Mn605 O631 2.117 . S
C606 O628 1.234 . S
C606 O629 1.283 . S
C607 O619 1.281 . S
C607 O620 1.236 . S
C608 O630 1.240 . S
C608 O631 1.264 . S
O609 Mn604 2.095 . S
O609 C618 1.250 . S
O610 Mn605 2.121 . S
O610 C618 1.258 . S
C611 N612 1.326 . S
C611 C615 1.460 . S
C611 H617 0.929 . S
N612 Mn605 2.257 . S
N612 C611 1.326 . S
N612 C616 1.362 . S
C613 C614 1.258 . S
C613 C616 1.431 . S
C613 C633 1.449 . S
C614 C613 1.258 . S
C614 C615 1.477 . S
C614 H634 0.931 . S
C615 C611 1.460 . S
C615 C614 1.477 . S
C615 H635 0.930 . S
C616 N612 1.362 . S
C616 C613 1.431 . S
C616 C626 1.476 . S
H617 C611 0.929 . S
C618 O609 1.250 . S
C618 O610 1.258 . S
O619 Mn604 2.162 . S
O619 C607 1.281 . S
O620 Mn604 2.297 . S
O620 C607 1.236 . S
N621 Mn605 2.282 . S
N621 C622 1.328 . S
N621 C626 1.318 . S
C622 N621 1.328 . S
C622 C623 1.457 . S
C622 H627 0.929 . S
C623 C622 1.457 . S
C623 C624 1.291 . S
C623 H636 0.931 . S
C624 C623 1.291 . S
C624 C625 1.373 . S
C624 H637 0.929 . S
C625 C624 1.373 . S
C625 C626 1.396 . S
C625 C632 1.403 . S
C626 C616 1.476 . S
C626 N621 1.318 . S
C626 C625 1.396 . S
H627 C622 0.929 . S
O628 Mn604 2.385 . S
O628 C606 1.234 . S
O629 Mn604 2.209 . S
O629 Mn605 2.215 . S
O629 C606 1.283 . S
O630 Mn604 2.094 . S
O630 C608 1.240 . S
O631 Mn605 2.117 . S
O631 C608 1.264 . S
C632 C625 1.403 . S
C632 C633 1.399 . S
C632 H638 0.929 . S
C633 C613 1.449 . S
C633 C632 1.399 . S
C633 H639 0.930 . S
H634 C614 0.931 . S
H635 C615 0.930 . S
H636 C623 0.931 . S
H637 C624 0.929 . S
H638 C632 0.929 . S
H639 C633 0.930 . S
Mn640 O645 2.095 . S
Mn640 O655 2.162 . S
Mn640 O656 2.297 . S
Mn640 O664 2.385 . S
Mn640 O665 2.209 . S
Mn640 O666 2.094 . S
Mn641 O646 2.121 . S
Mn641 N648 2.257 . S
Mn641 N657 2.282 . S
Mn641 O665 2.215 . S
Mn641 O667 2.117 . S
C642 O664 1.234 . S
C642 O665 1.283 . S
C643 O655 1.281 . S
C643 O656 1.236 . S
C644 O666 1.240 . S
C644 O667 1.264 . S
O645 Mn640 2.095 . S
O645 C654 1.250 . S
O646 Mn641 2.121 . S
O646 C654 1.258 . S
C647 N648 1.326 . S
C647 C651 1.460 . S
C647 H653 0.929 . S
N648 Mn641 2.257 . S
N648 C647 1.326 . S
N648 C652 1.362 . S
C649 C650 1.258 . S
C649 C652 1.431 . S
C649 C669 1.449 . S
C650 C649 1.258 . S
C650 C651 1.477 . S
C650 H670 0.931 . S
C651 C647 1.460 . S
C651 C650 1.477 . S
C651 H671 0.930 . S
C652 N648 1.362 . S
C652 C649 1.431 . S
C652 C662 1.476 . S
H653 C647 0.929 . S
C654 O645 1.250 . S
C654 O646 1.258 . S
O655 Mn640 2.162 . S
O655 C643 1.281 . S
O656 Mn640 2.297 . S
O656 C643 1.236 . S
N657 Mn641 2.282 . S
N657 C658 1.328 . S
N657 C662 1.318 . S
C658 N657 1.328 . S
C658 C659 1.457 . S
C658 H663 0.929 . S
C659 C658 1.457 . S
C659 C660 1.291 . S
C659 H672 0.931 . S
C660 C659 1.291 . S
C660 C661 1.373 . S
C660 H673 0.929 . S
C661 C660 1.373 . S
C661 C662 1.396 . S
C661 C668 1.403 . S
C662 C652 1.476 . S
C662 N657 1.318 . S
C662 C661 1.396 . S
H663 C658 0.929 . S
O664 Mn640 2.385 . S
O664 C642 1.234 . S
O665 Mn640 2.209 . S
O665 Mn641 2.215 . S
O665 C642 1.283 . S
O666 Mn640 2.094 . S
O666 C644 1.240 . S
O667 Mn641 2.117 . S
O667 C644 1.264 . S
C668 C661 1.403 . S
C668 C669 1.399 . S
C668 H674 0.929 . S
C669 C649 1.449 . S
C669 C668 1.399 . S
C669 H675 0.930 . S
H670 C650 0.931 . S
H671 C651 0.930 . S
H672 C659 0.931 . S
H673 C660 0.929 . S
H674 C668 0.929 . S
H675 C669 0.930 . S
Mn676 O681 2.095 . S
Mn676 O691 2.162 . S
Mn676 O692 2.297 . S
Mn676 O700 2.385 . S
Mn676 O701 2.209 . S
Mn676 O702 2.094 . S
Mn677 O682 2.121 . S
Mn677 N684 2.257 . S
Mn677 N693 2.282 . S
Mn677 O701 2.215 . S
Mn677 O703 2.117 . S
C678 O700 1.234 . S
C678 O701 1.283 . S
C679 O691 1.281 . S
C679 O692 1.236 . S
C680 O702 1.240 . S
C680 O703 1.264 . S
O681 Mn676 2.095 . S
O681 C690 1.250 . S
O682 Mn677 2.121 . S
O682 C690 1.258 . S
C683 N684 1.326 . S
C683 C687 1.460 . S
C683 H689 0.929 . S
N684 Mn677 2.257 . S
N684 C683 1.326 . S
N684 C688 1.362 . S
C685 C686 1.258 . S
C685 C688 1.431 . S
C685 C705 1.449 . S
C686 C685 1.258 . S
C686 C687 1.477 . S
C686 H706 0.931 . S
C687 C683 1.460 . S
C687 C686 1.477 . S
C687 H707 0.930 . S
C688 N684 1.362 . S
C688 C685 1.431 . S
C688 C698 1.476 . S
H689 C683 0.929 . S
C690 O681 1.250 . S
C690 O682 1.258 . S
O691 Mn676 2.162 . S
O691 C679 1.281 . S
O692 Mn676 2.297 . S
O692 C679 1.236 . S
N693 Mn677 2.282 . S
N693 C694 1.328 . S
N693 C698 1.318 . S
C694 N693 1.328 . S
C694 C695 1.457 . S
C694 H699 0.929 . S
C695 C694 1.457 . S
C695 C696 1.291 . S
C695 H708 0.931 . S
C696 C695 1.291 . S
C696 C697 1.373 . S
C696 H709 0.929 . S
C697 C696 1.373 . S
C697 C698 1.396 . S
C697 C704 1.403 . S
C698 C688 1.476 . S
C698 N693 1.318 . S
C698 C697 1.396 . S
H699 C694 0.929 . S
O700 Mn676 2.385 . S
O700 C678 1.234 . S
O701 Mn676 2.209 . S
O701 Mn677 2.215 . S
O701 C678 1.283 . S
O702 Mn676 2.094 . S
O702 C680 1.240 . S
O703 Mn677 2.117 . S
O703 C680 1.264 . S
C704 C697 1.403 . S
C704 C705 1.399 . S
C704 H710 0.929 . S
C705 C685 1.449 . S
C705 C704 1.399 . S
C705 H711 0.930 . S
H706 C686 0.931 . S
H707 C687 0.930 . S
H708 C695 0.931 . S
H709 C696 0.929 . S
H710 C704 0.929 . S
H711 C705 0.930 . S
Mn712 O717 2.095 . S
Mn712 O727 2.162 . S
Mn712 O728 2.297 1_554 S
Mn712 O736 2.385 1_554 S
Mn712 O737 2.209 1_554 S
Mn712 O738 2.094 . S
Mn713 O718 2.121 . S
Mn713 N720 2.257 1_554 S
Mn713 N729 2.282 1_554 S
Mn713 O737 2.215 1_554 S
Mn713 O739 2.117 . S
C714 O736 1.234 . S
C714 O737 1.283 . S
C715 O727 1.276 1_556 S
C715 O728 1.236 . S
C716 O738 1.240 . S
C716 O739 1.264 . S
O717 Mn712 2.095 . S
O717 C726 1.250 . S
O718 Mn713 2.121 . S
O718 C726 1.258 . S
C719 N720 1.326 1_554 S
C719 C723 1.460 . S
C719 H725 0.929 . S
N720 Mn713 2.257 1_556 S
N720 C719 1.326 1_556 S
N720 C724 1.362 . S
C721 C722 1.258 . S
C721 C724 1.431 . S
C721 C741 1.449 . S
C722 C721 1.258 . S
C722 C723 1.477 1_556 S
C722 H742 0.931 . S
C723 C719 1.460 . S
C723 C722 1.477 1_554 S
C723 H743 0.930 . S
C724 N720 1.362 . S
C724 C721 1.431 . S
C724 C734 1.476 . S
H725 C719 0.929 . S
C726 O717 1.250 . S
C726 O718 1.258 . S
O727 Mn712 2.162 . S
O727 C715 1.276 1_554 S
O728 Mn712 2.297 1_556 S
O728 C715 1.236 . S
N729 Mn713 2.282 1_556 S
N729 C730 1.328 . S
N729 C734 1.318 . S
C730 N729 1.328 . S
C730 C731 1.457 . S
C730 H735 0.929 . S
C731 C730 1.457 . S
C731 C732 1.291 . S
C731 H744 0.931 . S
C732 C731 1.291 . S
C732 C733 1.373 . S
C732 H745 0.929 . S
C733 C732 1.373 . S
C733 C734 1.396 . S
C733 C740 1.403 . S
C734 C724 1.476 . S
C734 N729 1.318 . S
C734 C733 1.396 . S
H735 C730 0.929 . S
O736 Mn712 2.385 1_556 S
O736 C714 1.234 . S
O737 Mn712 2.209 1_556 S
O737 Mn713 2.215 1_556 S
O737 C714 1.283 . S
O738 Mn712 2.094 . S
O738 C716 1.240 . S
O739 Mn713 2.117 . S
O739 C716 1.264 . S
C740 C733 1.403 . S
C740 C741 1.399 . S
C740 H746 0.929 . S
C741 C721 1.449 . S
C741 C740 1.399 . S
C741 H747 0.930 . S
H742 C722 0.931 . S
H743 C723 0.930 . S
H744 C731 0.931 . S
H745 C732 0.929 . S
H746 C740 0.929 . S
H747 C741 0.930 . S
Mn748 O753 2.095 . S
Mn748 O763 2.162 . S
Mn748 O764 2.297 . S
Mn748 O772 2.385 . S
Mn748 O773 2.209 . S
Mn748 O774 2.094 . S
Mn749 O754 2.121 . S
Mn749 N756 2.257 . S
Mn749 N765 2.282 . S
Mn749 O773 2.215 . S
Mn749 O775 2.117 . S
C750 O772 1.234 . S
C750 O773 1.283 . S
C751 O763 1.281 . S
C751 O764 1.236 . S
C752 O774 1.240 . S
C752 O775 1.264 . S
O753 Mn748 2.095 . S
O753 C762 1.250 . S
O754 Mn749 2.121 . S
O754 C762 1.258 . S
C755 N756 1.326 . S
C755 C759 1.460 . S
C755 H761 0.929 . S
N756 Mn749 2.257 . S
N756 C755 1.326 . S
N756 C760 1.362 . S
C757 C758 1.258 . S
C757 C760 1.431 . S
C757 C777 1.449 . S
C758 C757 1.258 . S
C758 C759 1.477 . S
C758 H778 0.931 . S
C759 C755 1.460 . S
C759 C758 1.477 . S
C759 H779 0.930 . S
C760 N756 1.362 . S
C760 C757 1.431 . S
C760 C770 1.476 . S
H761 C755 0.929 . S
C762 O753 1.250 . S
C762 O754 1.258 . S
O763 Mn748 2.162 . S
O763 C751 1.281 . S
O764 Mn748 2.297 . S
O764 C751 1.236 . S
N765 Mn749 2.282 . S
N765 C766 1.328 . S
N765 C770 1.318 . S
C766 N765 1.328 . S
C766 C767 1.457 . S
C766 H771 0.929 . S
C767 C766 1.457 . S
C767 C768 1.291 . S
C767 H780 0.931 . S
C768 C767 1.291 . S
C768 C769 1.373 . S
C768 H781 0.929 . S
C769 C768 1.373 . S
C769 C770 1.396 . S
C769 C776 1.403 . S
C770 C760 1.476 . S
C770 N765 1.318 . S
C770 C769 1.396 . S
H771 C766 0.929 . S
O772 Mn748 2.385 . S
O772 C750 1.234 . S
O773 Mn748 2.209 . S
O773 Mn749 2.215 . S
O773 C750 1.283 . S
O774 Mn748 2.094 . S
O774 C752 1.240 . S
O775 Mn749 2.117 . S
O775 C752 1.264 . S
C776 C769 1.403 . S
C776 C777 1.399 . S
C776 H782 0.929 . S
C777 C757 1.449 . S
C777 C776 1.399 . S
C777 H783 0.930 . S
H778 C758 0.931 . S
H779 C759 0.930 . S
H780 C767 0.931 . S
H781 C768 0.929 . S
H782 C776 0.929 . S
H783 C777 0.930 . S
C784 C785 1.387 . S
C784 H788 0.950 . S
C784 C793 1.390 . S
C785 C784 1.387 . S
C785 C787 1.387 . S
H786 C793 0.950 . S
C787 C785 1.387 . S
C787 C789 1.390 . S
C787 H791 0.950 . S
H788 C784 0.950 . S
C789 C787 1.390 . S
C789 C790 1.387 . S
C789 H792 0.950 . S
C790 C789 1.387 . S
C790 C793 1.387 . S
H791 C787 0.950 . S
H792 C789 0.950 . S
C793 C784 1.390 . S
C793 H786 0.950 . S
C793 C790 1.387 . S
C794 C795 1.387 . S
C794 H798 0.950 . S
C794 C803 1.390 . S
C795 C794 1.387 . S
C795 C797 1.387 . S
H796 C803 0.950 . S
C797 C795 1.387 . S
C797 C799 1.390 . S
C797 H801 0.950 . S
H798 C794 0.950 . S
C799 C797 1.390 . S
C799 C800 1.387 . S
C799 H802 0.950 . S
C800 C799 1.387 . S
C800 C803 1.387 . S
H801 C797 0.950 . S
H802 C799 0.950 . S
C803 C794 1.390 . S
C803 H796 0.950 . S
C803 C800 1.387 . S
C804 C805 1.387 . S
C804 H808 0.950 . S
C804 C813 1.390 . S
C805 C804 1.387 . S
C805 C807 1.387 . S
H806 C813 0.950 . S
C807 C805 1.387 . S
C807 C809 1.390 . S
C807 H811 0.950 . S
H808 C804 0.950 . S
C809 C807 1.390 . S
C809 C810 1.387 . S
C809 H812 0.950 . S
C810 C809 1.387 . S
C810 C813 1.387 . S
H811 C807 0.950 . S
H812 C809 0.950 . S
C813 C804 1.390 . S
C813 H806 0.950 . S
C813 C810 1.387 . S
C814 C815 1.387 . S
C814 H818 0.950 . S
C814 C823 1.390 . S
C815 C814 1.387 . S
C815 C817 1.387 1_554 S
H816 C823 0.950 . S
C817 C815 1.387 1_556 S
C817 C819 1.390 . S
C817 H821 0.950 . S
H818 C814 0.950 . S
C819 C817 1.390 . S
C819 C820 1.387 1_556 S
C819 H822 0.950 . S
C820 C819 1.387 1_554 S
C820 C823 1.387 . S
H821 C817 0.950 . S
H822 C819 0.950 . S
C823 C814 1.390 . S
C823 H816 0.950 . S
C823 C820 1.387 . S
C824 C825 1.387 1_556 S
C824 H828 0.950 . S
C824 C833 1.390 . S
C825 C824 1.387 1_554 S
C825 C827 1.387 . S
H826 C833 0.950 . S
C827 C825 1.387 . S
C827 C829 1.390 . S
C827 H831 0.950 . S
H828 C824 0.950 . S
C829 C827 1.390 . S
C829 C830 1.387 1_554 S
C829 H832 0.950 . S
C830 C829 1.387 1_556 S
C830 C833 1.387 . S
H831 C827 0.950 . S
H832 C829 0.950 . S
C833 C824 1.390 . S
C833 H826 0.950 . S
C833 C830 1.387 . S
C834 C835 1.387 . S
C834 H838 0.950 . S
C834 C843 1.390 . S
C835 C834 1.387 . S
C835 C837 1.387 . S
H836 C843 0.950 . S
C837 C835 1.387 . S
C837 C839 1.390 . S
C837 H841 0.950 . S
H838 C834 0.950 . S
C839 C837 1.390 . S
C839 C840 1.387 . S
C839 H842 0.950 . S
C840 C839 1.387 . S
C840 C843 1.387 . S
H841 C837 0.950 . S
H842 C839 0.950 . S
C843 C834 1.390 . S
C843 H836 0.950 . S
C843 C840 1.387 . S
C844 C845 1.387 . S
C844 H848 0.950 . S
C844 C853 1.390 . S
C845 C844 1.387 . S
C845 C847 1.387 . S
H846 C853 0.950 . S
C847 C845 1.387 . S
C847 C849 1.390 . S
C847 H851 0.950 . S
H848 C844 0.950 . S
C849 C847 1.390 . S
C849 C850 1.387 . S
C849 H852 0.950 . S
C850 C849 1.387 . S
C850 C853 1.387 . S
H851 C847 0.950 . S
H852 C849 0.950 . S
C853 C844 1.390 . S
C853 H846 0.950 . S
C853 C850 1.387 . S
C854 C855 1.387 . S
C854 H858 0.950 . S
C854 C863 1.390 . S
C855 C854 1.387 . S
C855 C857 1.387 . S
H856 C863 0.950 . S
C857 C855 1.387 . S
C857 C859 1.390 . S
C857 H861 0.950 . S
H858 C854 0.950 . S
C859 C857 1.390 . S
C859 C860 1.387 . S
C859 H862 0.950 . S
C860 C859 1.387 . S
C860 C863 1.387 . S
H861 C857 0.950 . S
H862 C859 0.950 . S
C863 C854 1.390 . S
C863 H856 0.950 . S
C863 C860 1.387 . S
C864 C865 1.387 . S
C864 H868 0.950 . S
C864 C873 1.390 . S
C865 C864 1.387 . S
C865 C867 1.387 . S
H866 C873 0.950 . S
C867 C865 1.387 . S
C867 C869 1.390 . S
C867 H871 0.950 . S
H868 C864 0.950 . S
C869 C867 1.390 . S
C869 C870 1.387 . S
C869 H872 0.950 . S
C870 C869 1.387 . S
C870 C873 1.387 . S
H871 C867 0.950 . S
H872 C869 0.950 . S
C873 C864 1.390 . S
C873 H866 0.950 . S
C873 C870 1.387 . S
C874 C875 1.387 1_556 S
C874 H878 0.950 . S
C874 C883 1.390 . S
C875 C874 1.387 1_554 S
C875 C877 1.387 . S
H876 C883 0.950 . S
C877 C875 1.387 . S
C877 C879 1.390 . S
C877 H881 0.950 . S
H878 C874 0.950 . S
C879 C877 1.390 . S
C879 C880 1.387 . S
C879 H882 0.950 . S
C880 C879 1.387 . S
C880 C883 1.387 1_554 S
H881 C877 0.950 . S
H882 C879 0.950 . S
C883 C874 1.390 . S
C883 H876 0.950 . S
C883 C880 1.387 1_556 S
C884 C885 1.387 . S
C884 H888 0.950 . S
C884 C893 1.390 . S
C885 C884 1.387 . S
C885 C887 1.387 . S
H886 C893 0.950 . S
C887 C885 1.387 . S
C887 C889 1.390 . S
C887 H891 0.950 . S
H888 C884 0.950 . S
C889 C887 1.390 . S
C889 C890 1.387 . S
C889 H892 0.950 . S
C890 C889 1.387 . S
C890 C893 1.387 . S
H891 C887 0.950 . S
H892 C889 0.950 . S
C893 C884 1.390 . S
C893 H886 0.950 . S
C893 C890 1.387 . S
C894 C895 1.387 . S
C894 H898 0.950 . S
C894 C903 1.390 . S
C895 C894 1.387 . S
C895 C897 1.387 . S
H896 C903 0.950 . S
C897 C895 1.387 . S
C897 C899 1.390 . S
C897 H901 0.950 . S
H898 C894 0.950 . S
C899 C897 1.390 . S
C899 C900 1.387 . S
C899 H902 0.950 . S
C900 C899 1.387 . S
C900 C903 1.387 . S
H901 C897 0.950 . S
H902 C899 0.950 . S
C903 C894 1.390 . S
C903 H896 0.950 . S
C903 C900 1.387 . S
C904 C905 1.387 . S
C904 H908 0.950 . S
C904 C913 1.390 . S
C905 C904 1.387 . S
C905 C907 1.387 . S
H906 C913 0.950 . S
C907 C905 1.387 . S
C907 C909 1.390 . S
C907 H911 0.950 . S
H908 C904 0.950 . S
C909 C907 1.390 . S
C909 C910 1.387 . S
C909 H912 0.950 . S
C910 C909 1.387 . S
C910 C913 1.387 . S
H911 C907 0.950 . S
H912 C909 0.950 . S
C913 C904 1.390 . S
C913 H906 0.950 . S
C913 C910 1.387 . S
C914 C915 1.387 . S
C914 H918 0.950 . S
C914 C923 1.390 . S
C915 C914 1.387 . S
C915 C917 1.387 . S
H916 C923 0.950 . S
C917 C915 1.387 . S
C917 C919 1.390 . S
C917 H921 0.950 . S
H918 C914 0.950 . S
C919 C917 1.390 . S
C919 C920 1.387 . S
C919 H922 0.950 . S
C920 C919 1.387 . S
C920 C923 1.387 . S
H921 C917 0.950 . S
H922 C919 0.950 . S
C923 C914 1.390 . S
C923 H916 0.950 . S
C923 C920 1.387 . S
C924 C925 1.387 . S
C924 H928 0.950 . S
C924 C933 1.390 . S
C925 C924 1.387 . S
C925 C927 1.387 . S
H926 C933 0.950 . S
C927 C925 1.387 . S
C927 C929 1.390 1_554 S
C927 H931 0.952 . S
H928 C924 0.950 . S
C929 C927 1.390 1_556 S
C929 C930 1.387 . S
C929 H932 0.950 . S
C930 C929 1.387 . S
C930 C933 1.387 1_556 S
H931 C927 0.952 . S
H932 C929 0.950 . S
C933 C924 1.390 . S
C933 H926 0.950 . S
C933 C930 1.387 1_554 S
C934 C935 1.387 . S
C934 H938 0.950 . S
C934 C943 1.390 . S
C935 C934 1.387 . S
C935 C937 1.387 . S
H936 C943 0.950 . S
C937 C935 1.387 . S
C937 C939 1.390 . S
C937 H941 0.950 . S
H938 C934 0.950 . S
C939 C937 1.390 . S
C939 C940 1.387 . S
C939 H942 0.950 . S
C940 C939 1.387 . S
C940 C943 1.387 . S
H941 C937 0.950 . S
H942 C939 0.950 . S
C943 C934 1.390 . S
C943 H936 0.950 . S
C943 C940 1.387 . S
C944 C945 1.387 . S
C944 H948 0.950 . S
C944 C953 1.390 . S
C945 C944 1.387 . S
C945 C947 1.387 . S
H946 C953 0.950 . S
C947 C945 1.387 . S
C947 C949 1.390 . S
C947 H951 0.950 . S
H948 C944 0.950 . S
C949 C947 1.390 . S
C949 C950 1.387 . S
C949 H952 0.950 . S
C950 C949 1.387 . S
C950 C953 1.387 . S
H951 C947 0.950 . S
H952 C949 0.950 . S
C953 C944 1.390 . S
C953 H946 0.950 . S
C953 C950 1.387 . S
C954 C955 1.387 . S
C954 H958 0.950 . S
C954 C963 1.390 . S
C955 C954 1.387 . S
C955 C957 1.387 . S
H956 C963 0.950 . S
C957 C955 1.387 . S
C957 C959 1.390 . S
C957 H961 0.950 . S
H958 C954 0.950 . S
C959 C957 1.390 . S
C959 C960 1.387 . S
C959 H962 0.950 . S
C960 C959 1.387 . S
C960 C963 1.387 . S
H961 C957 0.950 . S
H962 C959 0.950 . S
C963 C954 1.390 . S
C963 H956 0.950 . S
C963 C960 1.387 . S
C964 C965 1.387 . S
C964 H968 0.950 . S
C964 C973 1.390 . S
C965 C964 1.387 . S
C965 C967 1.387 . S
H966 C973 0.950 . S
C967 C965 1.387 . S
C967 C969 1.390 . S
C967 H971 0.950 . S
H968 C964 0.950 . S
C969 C967 1.390 . S
C969 C970 1.387 . S
C969 H972 0.950 . S
C970 C969 1.387 . S
C970 C973 1.387 . S
H971 C967 0.950 . S
H972 C969 0.950 . S
C973 C964 1.390 . S
C973 H966 0.950 . S
C973 C970 1.387 . S
C974 C975 1.387 . S
C974 H978 0.950 . S
C974 C983 1.390 . S
C975 C974 1.387 . S
C975 C977 1.387 . S
H976 C983 0.950 . S
C977 C975 1.387 . S
C977 C979 1.390 . S
C977 H981 0.950 . S
H978 C974 0.950 . S
C979 C977 1.390 . S
C979 C980 1.387 . S
C979 H982 0.950 . S
C980 C979 1.387 . S
C980 C983 1.387 . S
H981 C977 0.950 . S
H982 C979 0.950 . S
C983 C974 1.390 . S
C983 H976 0.950 . S
C983 C980 1.387 . S
C984 C985 1.387 . S
C984 H988 0.950 . S
C984 C993 1.390 . S
C985 C984 1.387 . S
C985 C987 1.387 . S
H986 C993 0.950 . S
C987 C985 1.387 . S
C987 C989 1.390 . S
C987 H991 0.950 . S
H988 C984 0.950 . S
C989 C987 1.390 . S
C989 C990 1.387 . S
C989 H992 0.950 . S
C990 C989 1.387 . S
C990 C993 1.387 . S
H991 C987 0.950 . S
H992 C989 0.950 . S
C993 C984 1.390 . S
C993 H986 0.950 . S
C993 C990 1.387 . S
C994 C995 1.387 . S
C994 H998 0.950 . S
C994 C1003 1.390 . S
C995 C994 1.387 . S
C995 C997 1.387 . S
H996 C1003 0.950 . S
C997 C995 1.387 . S
C997 C999 1.390 . S
C997 H1001 0.950 . S
H998 C994 0.950 . S
C999 C997 1.390 . S
C999 C1000 1.387 . S
C999 H1002 0.950 . S
C1000 C999 1.387 . S
C1000 C1003 1.387 . S
H1001 C997 0.950 . S
H1002 C999 0.950 . S
C1003 C994 1.390 . S
C1003 H996 0.950 . S
C1003 C1000 1.387 . S
C1004 C1005 1.387 . S
C1004 H1008 0.950 . S
C1004 C1013 1.390 . S
C1005 C1004 1.387 . S
C1005 C1007 1.387 . S
H1006 C1013 0.950 . S
C1007 C1005 1.387 . S
C1007 C1009 1.390 . S
C1007 H1011 0.950 . S
H1008 C1004 0.950 . S
C1009 C1007 1.390 . S
C1009 C1010 1.387 . S
C1009 H1012 0.950 . S
C1010 C1009 1.387 . S
C1010 C1013 1.387 . S
H1011 C1007 0.950 . S
H1012 C1009 0.950 . S
C1013 C1004 1.390 . S
C1013 H1006 0.950 . S
C1013 C1010 1.387 . S
C1014 C1015 1.387 . S
C1014 H1018 0.950 . S
C1014 C1023 1.390 . S
C1015 C1014 1.387 . S
C1015 C1017 1.387 . S
H1016 C1023 0.950 . S
C1017 C1015 1.387 . S
C1017 C1019 1.390 . S
C1017 H1021 0.950 . S
H1018 C1014 0.950 . S
C1019 C1017 1.390 . S
C1019 C1020 1.387 . S
C1019 H1022 0.950 . S
C1020 C1019 1.387 . S
C1020 C1023 1.387 . S
H1021 C1017 0.950 . S
H1022 C1019 0.950 . S
C1023 C1014 1.390 . S
C1023 H1016 0.950 . S
C1023 C1020 1.387 . S
C1024 C1025 1.387 . S
C1024 H1028 0.950 . S
C1024 C1033 1.390 . S
C1025 C1024 1.387 . S
C1025 C1027 1.387 . S
H1026 C1033 0.950 . S
C1027 C1025 1.387 . S
C1027 C1029 1.390 . S
C1027 H1031 0.950 . S
H1028 C1024 0.950 . S
C1029 C1027 1.390 . S
C1029 C1030 1.387 . S
C1029 H1032 0.950 . S
C1030 C1029 1.387 . S
C1030 C1033 1.387 . S
H1031 C1027 0.950 . S
H1032 C1029 0.950 . S
C1033 C1024 1.390 . S
C1033 H1026 0.950 . S
C1033 C1030 1.387 . S
C1034 C1035 1.387 . S
C1034 H1038 0.950 . S
C1034 C1043 1.390 . S
C1035 C1034 1.387 . S
C1035 C1037 1.387 . S
H1036 C1043 0.950 . S
C1037 C1035 1.387 . S
C1037 C1039 1.390 . S
C1037 H1041 0.950 . S
H1038 C1034 0.950 . S
C1039 C1037 1.390 . S
C1039 C1040 1.387 . S
C1039 H1042 0.950 . S
C1040 C1039 1.387 . S
C1040 C1043 1.387 . S
H1041 C1037 0.950 . S
H1042 C1039 0.950 . S
C1043 C1034 1.390 . S
C1043 H1036 0.950 . S
C1043 C1040 1.387 . S
C1044 C1045 1.387 . S
C1044 H1048 0.950 . S
C1044 C1053 1.390 . S
C1045 C1044 1.387 . S
C1045 C1047 1.387 . S
H1046 C1053 0.950 . S
C1047 C1045 1.387 . S
C1047 C1049 1.390 . S
C1047 H1051 0.950 . S
H1048 C1044 0.950 . S
C1049 C1047 1.390 . S
C1049 C1050 1.387 . S
C1049 H1052 0.950 . S
C1050 C1049 1.387 . S
C1050 C1053 1.387 . S
H1051 C1047 0.950 . S
H1052 C1049 0.950 . S
C1053 C1044 1.390 . S
C1053 H1046 0.950 . S
C1053 C1050 1.387 . S
C1054 C1055 1.387 . S
C1054 H1058 0.950 . S
C1054 C1063 1.390 . S
C1055 C1054 1.387 . S
C1055 C1057 1.387 . S
H1056 C1063 0.950 . S
C1057 C1055 1.387 . S
C1057 C1059 1.390 . S
C1057 H1061 0.950 . S
H1058 C1054 0.950 . S
C1059 C1057 1.390 . S
C1059 C1060 1.387 . S
C1059 H1062 0.950 . S
C1060 C1059 1.387 . S
C1060 C1063 1.387 . S
H1061 C1057 0.950 . S
H1062 C1059 0.950 . S
C1063 C1054 1.390 . S
C1063 H1056 0.950 . S
C1063 C1060 1.387 . S
C1064 C1065 1.387 . S
C1064 H1068 0.950 . S
C1064 C1073 1.390 . S
C1065 C1064 1.387 . S
C1065 C1067 1.387 . S
H1066 C1073 0.950 . S
C1067 C1065 1.387 . S
C1067 C1069 1.390 . S
C1067 H1071 0.950 . S
H1068 C1064 0.950 . S
C1069 C1067 1.390 . S
C1069 C1070 1.387 . S
C1069 H1072 0.950 . S
C1070 C1069 1.387 . S
C1070 C1073 1.387 . S
H1071 C1067 0.950 . S
H1072 C1069 0.950 . S
C1073 C1064 1.390 . S
C1073 H1066 0.950 . S
C1073 C1070 1.387 . S
C1074 C1075 1.387 . S
C1074 H1078 0.950 . S
C1074 C1083 1.390 . S
C1075 C1074 1.387 . S
C1075 C1077 1.387 . S
H1076 C1083 0.950 . S
C1077 C1075 1.387 . S
C1077 C1079 1.390 . S
C1077 H1081 0.950 . S
H1078 C1074 0.950 . S
C1079 C1077 1.390 . S
C1079 C1080 1.387 . S
C1079 H1082 0.950 . S
C1080 C1079 1.387 . S
C1080 C1083 1.387 . S
H1081 C1077 0.950 . S
H1082 C1079 0.950 . S
C1083 C1074 1.390 . S
C1083 H1076 0.950 . S
C1083 C1080 1.387 . S
C1084 C1085 1.387 . S
C1084 H1088 0.950 . S
C1084 C1093 1.390 . S
C1085 C1084 1.387 . S
C1085 C1087 1.387 . S
H1086 C1093 0.950 . S
C1087 C1085 1.387 . S
C1087 C1089 1.390 . S
C1087 H1091 0.950 . S
H1088 C1084 0.950 . S
C1089 C1087 1.390 . S
C1089 C1090 1.387 . S
C1089 H1092 0.950 . S
C1090 C1089 1.387 . S
C1090 C1093 1.387 . S
H1091 C1087 0.950 . S
H1092 C1089 0.950 . S
C1093 C1084 1.390 . S
C1093 H1086 0.950 . S
C1093 C1090 1.387 . S
C1094 C1095 1.387 . S
C1094 H1098 0.950 . S
C1094 C1103 1.390 . S
C1095 C1094 1.387 . S
C1095 C1097 1.387 . S
H1096 C1103 0.950 . S
C1097 C1095 1.387 . S
C1097 C1099 1.390 . S
C1097 H1101 0.950 . S
H1098 C1094 0.950 . S
C1099 C1097 1.390 . S
C1099 C1100 1.387 . S
C1099 H1102 0.950 . S
C1100 C1099 1.387 . S
C1100 C1103 1.387 . S
H1101 C1097 0.950 . S
H1102 C1099 0.950 . S
C1103 C1094 1.390 . S
C1103 H1096 0.950 . S
C1103 C1100 1.387 . S
C790 C535 1.583 . S
C785 C35 1.364 . S
C800 C572 1.568 . S
C795 C115 1.378 . S
C810 C608 1.604 . S
C805 C177 1.401 . S
C815 C221 1.385 . S
C820 C499 1.619 . S
C825 C283 1.380 1_554 S
C830 C500 1.603 . S
C835 C363 1.377 . S
C840 C536 1.566 . S
C850 C571 1.582 . S
C845 C407 1.363 . S
C860 C607 1.618 . S
C855 C469 1.383 . S
C865 C159 1.363 . S
C870 C679 1.583 . S
C880 C716 1.567 . S
C875 C239 1.378 . S
C885 C53 1.398 . S
C890 C752 1.602 . S
C900 C643 1.618 . S
C895 C97 1.386 . S
C905 C425 1.399 . S
C910 C644 1.602 . S
C915 C487 1.376 . S
C920 C680 1.567 . S
C930 C715 1.583 . S
C925 C301 1.379 1_554 S
C935 C345 1.384 . S
C940 C751 1.618 . S
C950 C570 1.883 . S
C945 C29 1.890 . S
C960 C606 1.872 . S
C955 C109 1.818 . S
C965 C171 1.768 . S
C970 C510 1.667 . S
C975 C215 1.839 . S
C980 C546 1.684 . S
C985 C277 1.825 . S
C990 C618 1.669 . S
C1000 C498 1.873 . S
C995 C357 1.820 . S
C1010 C534 1.883 . S
C1005 C401 1.890 . S
C1020 C582 1.680 . S
C1015 C463 1.837 . S
C1030 C714 1.885 . S
C1025 C153 1.890 . S
C1040 C750 1.873 . S
C1035 C233 1.820 . S
C1045 C47 1.769 . S
C1050 C654 1.670 . S
C1060 C690 1.679 . S
C1055 C91 1.837 . S
C1070 C762 1.670 . S
C1065 C419 1.769 . S
C1075 C481 1.820 . S
C1080 C642 1.874 . S
C1090 C678 1.885 . S
C1085 C295 1.837 . S
C1100 C726 1.679 . S
C1095 C339 1.837 . S
