# Generated by pormake.
# Topology tsx, (6,3)-cn, num edge types: 1
# Building blocks:
#     Node 0, Type 0, BuildingBlock: VOLQOD_clean_sbu_1, # of connection points: 6
#     Node 1, Type 0, BuildingBlock: VOLQOD_clean_sbu_1, # of connection points: 6
#     Node 2, Type 1, BuildingBlock: BELTOD_clean_linker_0, # of connection points: 3
#     Node 3, Type 1, BuildingBlock: BELTOD_clean_linker_0, # of connection points: 3
#     Node 4, Type 1, BuildingBlock: BELTOD_clean_linker_0, # of connection points: 3
#     Node 5, Type 1, BuildingBlock: BELTOD_clean_linker_0, # of connection points: 3
#     Edge 6, Type (0, 1), BuildingBlock: XUDNAN_clean_linker_2, # of connection points: 2
#     Edge 7, Type (0, 1), BuildingBlock: XUDNAN_clean_linker_2, # of connection points: 2
#     Edge 8, Type (0, 1), BuildingBlock: XUDNAN_clean_linker_2, # of connection points: 2
#     Edge 9, Type (0, 1), BuildingBlock: XUDNAN_clean_linker_2, # of connection points: 2
#     Edge 10, Type (0, 1), BuildingBlock: XUDNAN_clean_linker_2, # of connection points: 2
#     Edge 11, Type (0, 1), BuildingBlock: XUDNAN_clean_linker_2, # of connection points: 2
#     Edge 12, Type (0, 1), BuildingBlock: XUDNAN_clean_linker_2, # of connection points: 2
#     Edge 13, Type (0, 1), BuildingBlock: XUDNAN_clean_linker_2, # of connection points: 2
#     Edge 14, Type (0, 1), BuildingBlock: XUDNAN_clean_linker_2, # of connection points: 2
#     Edge 15, Type (0, 1), BuildingBlock: XUDNAN_clean_linker_2, # of connection points: 2
#     Edge 16, Type (0, 1), BuildingBlock: XUDNAN_clean_linker_2, # of connection points: 2
#     Edge 17, Type (0, 1), BuildingBlock: XUDNAN_clean_linker_2, # of connection points: 2
# Relax obj value: 0.067
# Max RMSD: 0.102
# Mean RMSD: 0.074
data_MOF--net-tsx--node1-VOLQOD_clean_sbu_1--node2-BELTOD_clean_linker_0--edge1-XUDNAN_clean_linker_2
_symmetry_space_group_name_H-M    P1
_symmetry_Int_Tables_number       1
_symmetry_cell_setting            triclinic
loop_
_symmetry_equiv_pos_as_xyz
'x, y, z'
_cell_length_a     23.129238
_cell_length_b     23.956695
_cell_length_c     45.047923
_cell_angle_alpha  90.984405
_cell_angle_beta   89.945887
_cell_angle_gamma 90.210424
loop_
_atom_site_label
_atom_site_type_symbol
_atom_site_fract_x
_atom_site_fract_y
_atom_site_fract_z
_atom_type_partial_charge
O0 O 0.01539 0.00406 0.07445 0.0
Zn1 Zn 0.04027 0.00725 0.03195 0.0
O2 O 0.97505 0.00223 0.00463 0.0
Zn3 Zn 0.98519 0.93763 0.97789 0.0
Zn4 Zn 0.90358 0.99482 0.02816 0.0
Zn5 Zn 0.97284 0.06939 0.98052 0.0
O6 O 0.98738 0.95912 0.93461 0.0
O7 O 0.9786 0.05123 0.93682 0.0
O8 O 0.09764 0.94594 0.02427 0.0
O9 O 0.06017 0.89842 0.98616 0.0
O10 O 0.92058 0.88255 0.98371 0.0
O11 O 0.86374 0.92134 0.01809 0.0
O12 O 0.84913 0.05928 0.0203 0.0
O13 O 0.08231 0.07952 0.02754 0.0
O14 O 0.89748 0.1087 0.98691 0.0
O15 O 0.03827 0.12294 0.9908 0.0
C16 C 0.96671 -0.00048 0.08735 0.0
C17 C 0.98437 0.00605 0.92186 0.0
C18 C 0.8758 0.88117 1.00019 0.0
C19 C 0.10014 0.90616 0.00522 0.0
C20 C 0.85308 0.10082 0.00307 0.0
C21 C 0.07773 0.12098 0.01047 0.0
O22 O 0.91999 0.99533 0.07249 0.0
O23 O 0.51667 0.49311 0.57488 0.0
Zn24 Zn 0.54175 0.49861 0.53259 0.0
O25 O 0.47629 0.50499 0.50572 0.0
Zn26 Zn 0.47251 0.43837 0.47951 0.0
Zn27 Zn 0.40568 0.51338 0.52973 0.0
Zn28 Zn 0.48687 0.57066 0.48134 0.0
O29 O 0.47465 0.45876 0.43585 0.0
O30 O 0.48779 0.55056 0.43792 0.0
O31 O 0.58778 0.43013 0.52336 0.0
O32 O 0.54139 0.38812 0.48601 0.0
O33 O 0.39936 0.39462 0.48801 0.0
O34 O 0.35188 0.44908 0.52026 0.0
O35 O 0.36452 0.58595 0.5213 0.0
O36 O 0.59554 0.56429 0.52933 0.0
O37 O 0.42169 0.62436 0.48764 0.0
O38 O 0.56113 0.61117 0.49114 0.0
C39 C 0.4688 0.50035 0.58821 0.0
C40 C 0.48198 0.50528 0.42301 0.0
C41 C 0.3552 0.40483 0.50419 0.0
C42 C 0.58311 0.39038 0.50444 0.0
C43 C 0.37655 0.62563 0.50382 0.0
C44 C 0.59886 0.60458 0.51133 0.0
O45 O 0.42239 0.51065 0.57415 0.0
P46 P 0.08117 0.1056 0.39717 0.0
H47 H 0.06748 0.18261 0.44717 0.0
H48 H 0.98284 0.21893 0.47346 0.0
H49 H 0.87183 0.11871 0.41649 0.0
H50 H 0.95651 0.08376 0.38992 0.0
H51 H 0.20021 0.07392 0.40967 0.0
H52 H 0.24232 0.99717 0.43712 0.0
H53 H 0.07087 0.936 0.45728 0.0
H54 H 0.02908 0.01405 0.43047 0.0
H55 H 0.08757 0.16202 0.3404 0.0
H56 H 0.03343 0.00108 0.37192 0.0
O57 O 0.12961 0.1573 0.39558 0.0
H58 H 0.05858 0.13483 0.29001 0.0
H59 H 0.00392 0.97375 0.32151 0.0
C60 C 0.01821 0.13167 0.41614 0.0
C61 C 0.02486 0.16881 0.44024 0.0
C62 C 0.97644 0.18902 0.45545 0.0
C63 C 0.92049 0.17186 0.44699 0.0
C64 C 0.91422 0.1335 0.42322 0.0
C65 C 0.96271 0.11343 0.408 0.0
C66 C 0.1116 0.04972 0.41813 0.0
C67 C 0.17168 0.04427 0.4202 0.0
C68 C 0.19568 0.00017 0.43579 0.0
C69 C 0.15994 0.96025 0.44929 0.0
C70 C 0.0996 0.96637 0.44748 0.0
C71 C 0.07565 0.01073 0.43197 0.0
C72 C 0.06361 0.08326 0.35983 0.0
C73 C 0.07016 0.12055 0.33643 0.0
C74 C 0.05359 0.10497 0.30763 0.0
C75 C 0.02918 0.05208 0.30181 0.0
C76 C 0.02241 0.01484 0.32537 0.0
C77 C 0.03969 0.03027 0.35413 0.0
P78 P 0.098 0.91325 0.60936 0.0
H79 H 0.0831 0.85216 0.55366 0.0
H80 H -0.00082 0.80753 0.52976 0.0
H81 H 0.89237 0.85829 0.60404 0.0
H82 H 0.97561 0.90393 0.62736 0.0
H83 H 0.20828 0.96571 0.59458 0.0
H84 H 0.23286 0.05111 0.5685 0.0
H85 H 0.05163 0.07851 0.5506 0.0
H86 H 0.02742 0.99389 0.57754 0.0
H87 H 0.06268 0.84839 0.66046 0.0
H88 H 0.10415 0.02026 0.64274 0.0
O89 O 0.15302 0.86842 0.60828 0.0
H90 H 0.03837 0.87382 0.71171 0.0
H91 H 0.08287 0.04564 0.6941 0.0
C92 C 0.03605 0.87978 0.59266 0.0
C93 C 0.04167 0.85333 0.56482 0.0
C94 C 0.99374 0.82828 0.55113 0.0
C95 C 0.93959 0.82907 0.56527 0.0
C96 C 0.93393 0.85635 0.59296 0.0
C97 C 0.98164 0.88216 0.60637 0.0
C98 C 0.11617 0.97319 0.58767 0.0
C99 C 0.17396 0.98973 0.58469 0.0
C100 C 0.18794 0.03842 0.56957 0.0
C101 C 0.14421 0.0716 0.5573 0.0
C102 C 0.08631 0.05418 0.55995 0.0
C103 C 0.07242 0.0056 0.57519 0.0
C104 C 0.08439 0.93243 0.64765 0.0
C105 C 0.06713 0.89153 0.66772 0.0
C106 C 0.05364 0.90615 0.69712 0.0
C107 C 0.05814 0.96198 0.70716 0.0
C108 C 0.07743 0.00249 0.68708 0.0
C109 C 0.09014 0.98791 0.65761 0.0
P110 P 0.57547 0.57783 0.90003 0.0
H111 H 0.57494 0.6867 0.9305 0.0
H112 H 0.49945 0.73869 0.95677 0.0
H113 H 0.37812 0.60502 0.93817 0.0
H114 H 0.45417 0.55313 0.91177 0.0
H115 H 0.63175 0.56047 0.95691 0.0
H116 H 0.65522 0.47596 0.98446 0.0
H117 H 0.56896 0.3753 0.91756 0.0
H118 H 0.54342 0.45956 0.89078 0.0
H119 H 0.48187 0.61461 0.86005 0.0
H120 H 0.63074 0.50689 0.85549 0.0
O121 O 0.63638 0.61537 0.8998 0.0
H122 H 0.45746 0.58942 0.80875 0.0
H123 H 0.60712 0.48221 0.80407 0.0
C124 C 0.51972 0.61653 0.91885 0.0
C125 C 0.53211 0.66861 0.93198 0.0
C126 C 0.48905 0.69809 0.94721 0.0
C127 C 0.43291 0.67589 0.9495 0.0
C128 C 0.42085 0.62337 0.93648 0.0
C129 C 0.46413 0.59373 0.92146 0.0
C130 C 0.58802 0.51602 0.92118 0.0
C131 C 0.61749 0.52021 0.94832 0.0
C132 C 0.63051 0.47215 0.96414 0.0
C133 C 0.61478 0.4193 0.95281 0.0
C134 C 0.58233 0.41559 0.92649 0.0
C135 C 0.56829 0.4637 0.91102 0.0
C136 C 0.55718 0.56119 0.86194 0.0
C137 C 0.50914 0.58524 0.84816 0.0
C138 C 0.49549 0.57124 0.81867 0.0
C139 C 0.52986 0.53318 0.80245 0.0
C140 C 0.57897 0.51063 0.81614 0.0
C141 C 0.59266 0.52484 0.8455 0.0
P142 P 0.58122 0.40466 0.1099 0.0
H143 H 0.55783 0.34404 0.05481 0.0
H144 H 0.46806 0.31422 0.03016 0.0
H145 H 0.36891 0.3927 0.10044 0.0
H146 H 0.4584 0.4245 0.12429 0.0
H147 H 0.69079 0.41401 0.07759 0.0
H148 H 0.73416 0.48909 0.04911 0.0
H149 H 0.58357 0.59127 0.06583 0.0
H150 H 0.54068 0.51581 0.0947 0.0
H151 H 0.52372 0.34835 0.15859 0.0
H152 H 0.61446 0.50375 0.14609 0.0
O153 O 0.62502 0.34946 0.10937 0.0
H154 H 0.50352 0.37533 0.21016 0.0
H155 H 0.59578 0.53042 0.19763 0.0
C156 C 0.5148 0.38493 0.09179 0.0
C157 C 0.51675 0.35517 0.06476 0.0
C158 C 0.46561 0.33849 0.05064 0.0
C159 C 0.41186 0.35092 0.06361 0.0
C160 C 0.40998 0.38223 0.09022 0.0
C161 C 0.46112 0.39993 0.10397 0.0
C162 C 0.61293 0.45978 0.08861 0.0
C163 C 0.6671 0.45255 0.07519 0.0
C164 C 0.69163 0.49539 0.05864 0.0
C165 C 0.66237 0.54627 0.05524 0.0
C166 C 0.60753 0.55289 0.06835 0.0
C167 C 0.58293 0.50985 0.08478 0.0
C168 C 0.56923 0.42458 0.14824 0.0
C169 C 0.53942 0.38824 0.16699 0.0
C170 C 0.52828 0.40356 0.19654 0.0
C171 C 0.54746 0.45537 0.20804 0.0
C172 C 0.5791 0.49083 0.18936 0.0
C173 C 0.58997 0.47553 0.15979 0.0
H174 H 0.13895 0.15054 0.05983 0.0
H175 H 0.11398 0.19337 0.96757 0.0
H176 H 0.1937 0.2625 0.97168 0.0
H177 H 0.17431 0.29271 0.08659 0.0
H178 H 0.2265 0.26766 0.11285 0.0
H179 H 0.16484 0.22511 0.10293 0.0
H180 H 0.23322 0.14411 0.08761 0.0
H181 H 0.29503 0.18638 0.0973 0.0
H182 H 0.28907 0.15618 0.0605 0.0
H183 H 0.28425 0.31824 0.98468 0.0
H184 H 0.37204 0.362 0.00675 0.0
H185 H 0.33255 0.28592 0.09097 0.0
C186 C 0.1497 0.17501 0.04058 0.0
C187 C 0.12058 0.16657 0.01334 0.0
C188 C 0.13565 0.19949 0.98868 0.0
C189 C 0.18089 0.23868 0.99081 0.0
C190 C 0.20962 0.24503 0.01789 0.0
C191 C 0.19386 0.21472 0.04246 0.0
C192 C 0.23226 0.22798 0.0688 0.0
C193 C 0.19739 0.25499 0.09429 0.0
C194 C 0.26429 0.17555 0.07914 0.0
C195 C 0.27329 0.2694 0.05505 0.0
C196 C 0.25977 0.27873 0.02565 0.0
C197 C 0.2945 0.31215 0.00783 0.0
C198 C 0.34424 0.3366 0.02044 0.0
C199 C 0.35813 0.32787 0.05058 0.0
C200 C 0.32191 0.29426 0.06806 0.0
H201 H 0.12786 0.82644 0.96319 0.0
H202 H 0.1902 0.90495 0.04476 0.0
H203 H 0.27973 0.84957 0.04113 0.0
H204 H 0.18965 0.68791 0.9755 0.0
H205 H 0.20766 0.67766 0.93686 0.0
H206 H 0.14635 0.7199 0.94726 0.0
H207 H 0.1886 0.80238 0.91759 0.0
H208 H 0.25001 0.76052 0.90717 0.0
H209 H 0.26071 0.82702 0.92572 0.0
H210 H 0.36528 0.79097 0.02673 0.0
H211 H 0.44033 0.73244 0.00271 0.0
H212 H 0.32215 0.69304 0.93053 0.0
C213 C 0.15983 0.83139 0.98059 0.0
C214 C 0.15185 0.86997 0.00432 0.0
C215 C 0.19524 0.87563 0.02638 0.0
C216 C 0.24621 0.84427 0.02456 0.0
C217 C 0.25305 0.80734 1.00062 0.0
C218 C 0.21097 0.80058 0.97909 0.0
C219 C 0.23025 0.76041 0.95477 0.0
C220 C 0.19115 0.70838 0.95354 0.0
C221 C 0.23254 0.78933 0.92454 0.0
C222 C 0.29016 0.74635 0.96574 0.0
C223 C 0.30238 0.77358 0.9923 0.0
C224 C 0.35604 0.76904 0.00606 0.0
C225 C 0.39845 0.73604 0.99219 0.0
C226 C 0.38691 0.70813 0.96485 0.0
C227 C 0.33182 0.71307 0.95169 0.0
H228 H 0.78842 0.85355 0.03878 0.0
H229 H 0.8824 0.7921 0.96143 0.0
H230 H 0.83011 0.70256 0.96417 0.0
H231 H 0.79389 0.73144 0.07836 0.0
H232 H 0.72254 0.73691 0.09425 0.0
H233 H 0.76103 0.79896 0.0839 0.0
H234 H 0.67564 0.8277 0.05028 0.0
H235 H 0.63667 0.76571 0.06068 0.0
H236 H 0.64966 0.77964 0.02204 0.0
H237 H 0.77686 0.61635 0.97865 0.0
H238 H 0.72477 0.54021 0.0034 0.0
H239 H 0.66478 0.65731 0.07114 0.0
C240 C 0.79702 0.82182 0.02196 0.0
C241 C 0.83948 0.83005 0.99984 0.0
C242 C 0.85007 0.78694 0.97859 0.0
C243 C 0.82044 0.73591 0.97988 0.0
C244 C 0.78 0.72867 0.00241 0.0
C245 C 0.76786 0.77055 0.02294 0.0
C246 C 0.72573 0.75054 0.04628 0.0
C247 C 0.75242 0.7547 0.07753 0.0
C248 C 0.66853 0.78282 0.04471 0.0
C249 C 0.71776 0.69034 0.03625 0.0
C250 C 0.74889 0.67877 0.01071 0.0
C251 C 0.7515 0.62512 0.99838 0.0
C252 C 0.72193 0.58205 0.01268 0.0
C253 C 0.69003 0.59281 0.03902 0.0
C254 C 0.68753 0.64794 0.05065 0.0
H255 H 0.81417 0.15234 0.95398 0.0
H256 H 0.78673 0.14202 0.0489 0.0
H257 H 0.71589 0.21948 0.04651 0.0
H258 H 0.80993 0.29602 0.94829 0.0
H259 H 0.77169 0.2965 0.91345 0.0
H260 H 0.81599 0.23776 0.92261 0.0
H261 H 0.72839 0.1712 0.91499 0.0
H262 H 0.68376 0.22983 0.90563 0.0
H263 H 0.66231 0.18429 0.93515 0.0
H264 H 0.65872 0.30732 0.03398 0.0
H265 H 0.61228 0.38992 0.01162 0.0
H266 H 0.67259 0.33584 0.92473 0.0
C267 C 0.79248 0.16582 0.97418 0.0
C268 C 0.80577 0.14166 1.00163 0.0
C269 C 0.77662 0.16 0.02763 0.0
C270 C 0.73657 0.20397 0.02647 0.0
C271 C 0.72534 0.22784 0.99902 0.0
C272 C 0.75164 0.20845 0.97328 0.0
C273 C 0.73346 0.2415 0.94663 0.0
C274 C 0.78588 0.26961 0.9319 0.0
C275 C 0.69998 0.20449 0.92429 0.0
C276 C 0.69432 0.2839 0.96145 0.0
C277 C 0.69011 0.27571 0.99169 0.0
C278 C 0.66043 0.31315 0.01022 0.0
C279 C 0.63439 0.35992 0.99742 0.0
C280 C 0.63777 0.36822 0.96642 0.0
C281 C 0.66773 0.3294 0.94835 0.0
H282 H 0.66875 0.62326 0.55945 0.0
H283 H 0.64002 0.67482 0.46875 0.0
H284 H 0.72439 0.73824 0.47249 0.0
H285 H 0.71036 0.75938 0.58792 0.0
H286 H 0.76349 0.73202 0.61299 0.0
H287 H 0.70108 0.69067 0.60297 0.0
H288 H 0.76795 0.6103 0.58501 0.0
H289 H 0.83056 0.65141 0.5949 0.0
H290 H 0.82279 0.62403 0.55759 0.0
H291 H 0.81479 0.79288 0.48562 0.0
H292 H 0.90002 0.83959 0.50842 0.0
H293 H 0.86611 0.7549 0.59097 0.0
C294 C 0.68016 0.64786 0.54035 0.0
C295 C 0.64805 0.64392 0.51375 0.0
C296 C 0.66399 0.67728 0.48937 0.0
C297 C 0.71191 0.71327 0.49126 0.0
C298 C 0.74286 0.71584 0.51777 0.0
C299 C 0.72724 0.68447 0.54198 0.0
C300 C 0.76695 0.69555 0.5681 0.0
C301 C 0.73346 0.72093 0.59455 0.0
C302 C 0.79896 0.64215 0.5769 0.0
C303 C 0.80777 0.73767 0.55473 0.0
C304 C 0.79347 0.74861 0.52562 0.0
C305 C 0.82613 0.78497 0.50846 0.0
C306 C 0.87448 0.81106 0.5215 0.0
C307 C 0.88913 0.80099 0.55143 0.0
C308 C 0.85527 0.76385 0.56815 0.0
H309 H 0.61883 0.32979 0.45579 0.0
H310 H 0.65323 0.35794 0.54952 0.0
H311 H 0.73802 0.29592 0.54601 0.0
H312 H 0.67001 0.18251 0.45094 0.0
H313 H 0.70215 0.19265 0.41495 0.0
H314 H 0.63898 0.23189 0.4258 0.0
H315 H 0.6935 0.3241 0.41515 0.0
H316 H 0.75678 0.28529 0.40445 0.0
H317 H 0.76156 0.33809 0.43334 0.0
H318 H 0.82387 0.23891 0.53149 0.0
H319 H 0.90627 0.19242 0.50667 0.0
H320 H 0.81858 0.20531 0.4219 0.0
C321 C 0.64323 0.3215 0.47573 0.0
C322 C 0.62925 0.34808 0.50299 0.0
C323 C 0.66318 0.33772 0.52845 0.0
C324 C 0.71123 0.3024 0.5267 0.0
C325 C 0.72485 0.27798 0.49932 0.0
C326 C 0.69186 0.28698 0.47427 0.0
C327 C 0.71924 0.26046 0.44696 0.0
C328 C 0.68027 0.21411 0.4339 0.0
C329 C 0.73363 0.30463 0.42362 0.0
C330 C 0.7735 0.23651 0.46045 0.0
C331 C 0.77544 0.24629 0.49074 0.0
C332 C 0.82265 0.23056 0.50781 0.0
C333 C 0.86945 0.20463 0.49348 0.0
C334 C 0.86895 0.19525 0.46234 0.0
C335 C 0.81986 0.21087 0.44579 0.0
H336 H 0.36059 0.29312 0.48995 0.0
H337 H 0.24505 0.42094 0.52454 0.0
H338 H 0.17155 0.34896 0.53467 0.0
H339 H 0.24463 0.19734 0.45816 0.0
H340 H 0.28363 0.13611 0.46917 0.0
H341 H 0.32256 0.19829 0.45898 0.0
H342 H 0.37576 0.19817 0.50962 0.0
H343 H 0.33686 0.13643 0.52 0.0
H344 H 0.33401 0.19808 0.54345 0.0
H345 H 0.11689 0.26339 0.5478 0.0
H346 H 0.0862 0.17038 0.56422 0.0
H347 H 0.23654 0.09694 0.52126 0.0
C348 C 0.31908 0.30616 0.49871 0.0
C349 C 0.30841 0.36272 0.50626 0.0
C350 C 0.25415 0.3779 0.5185 0.0
C351 C 0.21196 0.33733 0.52418 0.0
C352 C 0.22452 0.28173 0.51739 0.0
C353 C 0.27662 0.26605 0.50474 0.0
C354 C 0.28195 0.20302 0.50287 0.0
C355 C 0.28326 0.1825 0.47036 0.0
C356 C 0.33528 0.18278 0.52002 0.0
C357 C 0.22622 0.18588 0.51792 0.0
C358 C 0.19306 0.23187 0.52543 0.0
C359 C 0.14184 0.22695 0.54147 0.0
C360 C 0.12463 0.1738 0.55062 0.0
C361 C 0.1588 0.12621 0.54395 0.0
C362 C 0.20953 0.13247 0.52676 0.0
H363 H 0.37728 0.70554 0.46139 0.0
H364 H 0.28685 0.6552 0.54114 0.0
H365 H 0.22226 0.73693 0.53691 0.0
H366 H 0.37173 0.85336 0.47464 0.0
H367 H 0.36036 0.86907 0.4361 0.0
H368 H 0.39978 0.80744 0.44599 0.0
H369 H 0.32886 0.74617 0.41488 0.0
H370 H 0.28937 0.8076 0.4048 0.0
H371 H 0.25234 0.75044 0.42218 0.0
H372 H 0.16782 0.82532 0.52349 0.0
H373 H 0.12613 0.91001 0.50121 0.0
H374 H 0.25155 0.89819 0.42963 0.0
C375 C 0.34416 0.71168 0.47813 0.0
C376 C 0.33734 0.6741 0.5017 0.0
C377 C 0.29289 0.68346 0.52288 0.0
C378 C 0.25613 0.72982 0.5207 0.0
C379 C 0.26424 0.76607 0.49714 0.0
C380 C 0.30703 0.7572 0.47617 0.0
C381 C 0.30607 0.8011 0.45249 0.0
C382 C 0.36286 0.83473 0.45232 0.0
C383 C 0.29339 0.77474 0.42178 0.0
C384 C 0.25614 0.83635 0.4634 0.0
C385 C 0.23257 0.81579 0.48922 0.0
C386 C 0.18576 0.84166 0.50322 0.0
C387 C 0.16227 0.88953 0.49033 0.0
C388 C 0.18565 0.91086 0.46369 0.0
C389 C 0.23326 0.88367 0.45025 0.0
H390 H 0.05187 0.03492 0.12536 0.0
H391 H 0.87739 0.96754 0.12375 0.0
H392 H 0.87528 0.97054 0.17871 0.0
H393 H 0.10183 0.9632 0.19014 0.0
H394 H 0.14366 0.02191 0.20369 0.0
H395 H 0.13193 0.01228 0.16441 0.0
H396 H 0.08882 0.11176 0.16171 0.0
H397 H 0.10039 0.12174 0.20096 0.0
H398 H 0.02917 0.13068 0.18558 0.0
H399 H 0.89294 0.98107 0.23415 0.0
H400 H 0.9266 0.00327 0.28517 0.0
H401 H 0.08814 0.06619 0.24972 0.0
C402 C 0.01329 0.02032 0.1365 0.0
C403 C 0.96489 0.0006 0.12024 0.0
C404 C 0.91499 0.98276 0.13574 0.0
C405 C 0.91347 0.98416 0.16694 0.0
C406 C 0.96201 0.00394 0.18224 0.0
C407 C 0.01082 0.02203 0.16749 0.0
C408 C 0.05645 0.04339 0.18895 0.0
C409 C 0.11173 0.00807 0.18666 0.0
C410 C 0.06944 0.10558 0.184 0.0
C411 C 0.02574 0.03462 0.21816 0.0
C412 C 0.97152 0.01136 0.2139 0.0
C413 C 0.93531 -0.00072 0.23772 0.0
C414 C 0.95487 0.01175 0.26659 0.0
C415 C 0.00989 0.03652 0.27135 0.0
C416 C 0.04567 0.04775 0.24674 0.0
H417 H 0.0272 0.92625 0.88312 0.0
H418 H 0.95189 0.09202 0.88646 0.0
H419 H 0.96101 0.09789 0.83203 0.0
H420 H 0.13202 0.95606 0.82699 0.0
H421 H 0.12669 0.88832 0.80914 0.0
H422 H 0.11191 0.89592 0.84825 0.0
H423 H 0.0109 0.85094 0.84042 0.0
H424 H 0.02538 0.84318 0.80127 0.0
H425 H 0.96197 0.88026 0.81379 0.0
H426 H 0.97782 0.08583 0.77733 0.0
H427 H 0.00406 0.05811 0.72621 0.0
H428 H 0.07396 0.90241 0.75859 0.0
C429 C 0.01214 0.96358 0.87238 0.0
C430 C 0.98853 0.00858 0.88907 0.0
C431 C 0.97014 0.05702 0.87418 0.0
C432 C 0.97501 0.06073 0.84325 0.0
C433 C 0.9988 0.01583 0.8275 0.0
C434 C 0.01733 0.96828 0.84153 0.0
C435 C 0.04315 0.92684 0.81947 0.0
C436 C 0.10725 0.91618 0.82638 0.0
C437 C 0.00825 0.87207 0.8187 0.0
C438 C 0.03616 0.95855 0.79087 0.0
C439 C 0.01016 0.00961 0.796 0.0
C440 C 0.99864 0.04612 0.77305 0.0
C441 C 0.01424 0.03011 0.74406 0.0
C442 C 0.0417 0.97821 0.73817 0.0
C443 C 0.05259 0.94211 0.76209 0.0
H444 H 0.45247 0.58045 0.63147 0.0
H445 H 0.48672 0.40443 0.61709 0.0
H446 H 0.49768 0.39223 0.67121 0.0
H447 H 0.55837 0.60042 0.68617 0.0
H448 H 0.51809 0.64996 0.70844 0.0
H449 H 0.50452 0.64374 0.66919 0.0
H450 H 0.39607 0.6247 0.67948 0.0
H451 H 0.40924 0.63123 0.71883 0.0
H452 H 0.37573 0.56889 0.70377 0.0
H453 H 0.51289 0.40037 0.72576 0.0
H454 H 0.53276 0.42826 0.77771 0.0
H455 H 0.49304 0.60026 0.7571 0.0
C456 C 0.46051 0.53918 0.63997 0.0
C457 C 0.46751 0.49297 0.62049 0.0
C458 C 0.48029 0.43991 0.63195 0.0
C459 C 0.48658 0.43267 0.66257 0.0
C460 C 0.48053 0.47915 0.68132 0.0
C461 C 0.46779 0.53143 0.67055 0.0
C462 C 0.46888 0.57521 0.69528 0.0
C463 C 0.51523 0.61996 0.68941 0.0
C464 C 0.4089 0.60155 0.69959 0.0
C465 C 0.48506 0.53951 0.72147 0.0
C466 C 0.491 0.48417 0.71291 0.0
C467 C 0.50803 0.44352 0.73279 0.0
C468 C 0.51967 0.45985 0.7622 0.0
C469 C 0.51464 0.51644 0.77148 0.0
C470 C 0.49648 0.55658 0.75081 0.0
H471 H 0.50454 0.41901 0.38339 0.0
H472 H 0.46798 0.5966 0.38839 0.0
H473 H 0.47819 0.60226 0.33407 0.0
H474 H 0.61343 0.42824 0.32758 0.0
H475 H 0.59349 0.36392 0.30885 0.0
H476 H 0.57994 0.37272 0.34802 0.0
H477 H 0.47148 0.35022 0.33957 0.0
H478 H 0.48473 0.34121 0.30036 0.0
H479 H 0.43087 0.39015 0.31325 0.0
H480 H 0.49439 0.58964 0.27956 0.0
H481 H 0.51643 0.55962 0.22821 0.0
H482 H 0.54645 0.39092 0.25834 0.0
C483 C 0.49794 0.45892 0.37301 0.0
C484 C 0.48519 0.50733 0.39018 0.0
C485 C 0.47782 0.55895 0.37576 0.0
C486 C 0.48341 0.5626 0.34488 0.0
C487 C 0.4967 0.51435 0.32866 0.0
C488 C 0.50396 0.46347 0.34215 0.0
C489 C 0.52035 0.41851 0.31959 0.0
C490 C 0.58037 0.39445 0.32642 0.0
C491 C 0.47409 0.3723 0.31811 0.0
C492 C 0.52124 0.45217 0.29138 0.0
C493 C 0.50723 0.50728 0.29714 0.0
C494 C 0.50558 0.54661 0.27476 0.0
C495 C 0.51865 0.5292 0.24566 0.0
C496 C 0.53358 0.47296 0.23912 0.0
C497 C 0.53466 0.43406 0.26244 0.0
loop_
_geom_bond_atom_site_label_1
_geom_bond_atom_site_label_2
_geom_bond_distance
_geom_bond_site_symmetry_2
_ccdc_geom_bond_type
O0 Zn1 1.953 . S
O0 C16 1.225 1_565 S
Zn1 O0 1.953 . S
Zn1 O2 1.949 1_565 S
Zn1 O8 1.919 . S
Zn1 O13 1.924 1_565 S
O2 Zn1 1.949 1_545 S
O2 Zn3 1.923 1_444 S
O2 Zn4 1.950 1_455 S
O2 Zn5 1.945 1_554 S
Zn3 O2 1.923 1_666 S
Zn3 O6 1.933 . S
Zn3 O9 1.941 1_655 S
Zn3 O10 1.965 . S
Zn4 O2 1.950 1_655 S
Zn4 O11 1.938 1_545 S
Zn4 O12 1.906 . S
Zn4 O22 1.953 . S
Zn5 O2 1.945 1_556 S
Zn5 O7 1.932 . S
Zn5 O14 1.977 1_455 S
Zn5 O15 1.910 . S
O6 Zn3 1.933 . S
O6 C17 1.226 1_665 S
O7 Zn5 1.932 . S
O7 C17 1.307 . S
O8 Zn1 1.919 . S
O8 C19 1.253 1_554 S
O9 Zn3 1.941 1_455 S
O9 C19 1.283 . S
O10 Zn3 1.965 . S
O10 C18 1.303 1_556 S
O11 Zn4 1.938 1_565 S
O11 C18 1.247 . S
O12 Zn4 1.906 . S
O12 C20 1.304 1_554 S
O13 Zn1 1.924 1_545 S
O13 C21 1.311 . S
O14 Zn5 1.977 1_655 S
O14 C20 1.272 . S
O15 Zn5 1.910 . S
O15 C21 1.231 1_556 S
C16 O0 1.225 1_545 S
C16 O22 1.298 1_455 S
C17 O6 1.226 1_445 S
C17 O7 1.307 . S
C18 O10 1.303 1_554 S
C18 O11 1.247 . S
C19 O8 1.253 1_556 S
C19 O9 1.283 . S
C20 O12 1.304 1_556 S
C20 O14 1.272 . S
C21 O13 1.311 . S
C21 O15 1.231 1_554 S
O22 Zn4 1.953 . S
O22 C16 1.298 1_655 S
O23 Zn24 1.953 . S
O23 C39 1.225 . S
Zn24 O23 1.953 . S
Zn24 O25 1.949 . S
Zn24 O31 1.919 . S
Zn24 O36 1.924 . S
O25 Zn24 1.949 . S
O25 Zn26 1.923 . S
O25 Zn27 1.950 . S
O25 Zn28 1.945 . S
Zn26 O25 1.923 . S
Zn26 O29 1.933 . S
Zn26 O32 1.941 . S
Zn26 O33 1.965 . S
Zn27 O25 1.950 . S
Zn27 O34 1.938 . S
Zn27 O35 1.906 . S
Zn27 O45 1.953 . S
Zn28 O25 1.945 . S
Zn28 O30 1.932 . S
Zn28 O37 1.977 . S
Zn28 O38 1.910 . S
O29 Zn26 1.933 . S
O29 C40 1.226 . S
O30 Zn28 1.932 . S
O30 C40 1.307 . S
O31 Zn24 1.919 . S
O31 C42 1.253 . S
O32 Zn26 1.941 . S
O32 C42 1.283 . S
O33 Zn26 1.965 . S
O33 C41 1.303 . S
O34 Zn27 1.938 . S
O34 C41 1.247 . S
O35 Zn27 1.906 . S
O35 C43 1.304 . S
O36 Zn24 1.924 . S
O36 C44 1.311 . S
O37 Zn28 1.977 . S
O37 C43 1.272 . S
O38 Zn28 1.910 . S
O38 C44 1.231 . S
C39 O23 1.225 . S
C39 O45 1.298 . S
C40 O29 1.226 . S
C40 O30 1.307 . S
C41 O33 1.303 . S
C41 O34 1.247 . S
C42 O31 1.253 . S
C42 O32 1.283 . S
C43 O35 1.304 . S
C43 O37 1.272 . S
C44 O36 1.311 . S
C44 O38 1.231 . S
O45 Zn27 1.953 . S
O45 C39 1.298 . S
P46 O57 1.490 . S
P46 C60 1.812 1_455 S
P46 C66 1.803 1_545 S
P46 C72 1.819 . S
H47 C61 0.941 1_455 S
H48 C62 0.939 . S
H49 C64 0.940 . S
H50 C65 0.940 . S
H51 C67 0.939 1_545 S
H52 C68 0.942 . S
H53 C70 0.940 . S
H54 C71 0.939 . S
H55 C73 0.941 . S
H56 C77 0.939 . S
O57 P46 1.490 . S
H58 C74 0.939 . S
H59 C76 0.940 . S
C60 P46 1.812 1_655 S
C60 C61 1.389 . S
C60 C65 1.391 . S
C61 H47 0.941 1_655 S
C61 C60 1.389 . S
C61 C62 1.397 . S
C62 H48 0.939 . S
C62 C61 1.397 . S
C62 C63 1.378 . S
C63 C62 1.378 . S
C63 C64 1.378 . S
C64 H49 0.940 . S
C64 C63 1.378 . S
C64 C65 1.396 . S
C65 H50 0.940 . S
C65 C60 1.391 . S
C65 C64 1.396 . S
C66 P46 1.803 1_565 S
C66 C67 1.378 . S
C66 C71 1.400 . S
C67 H51 0.939 1_565 S
C67 C66 1.378 . S
C67 C68 1.361 . S
C68 H52 0.942 . S
C68 C67 1.361 . S
C68 C69 1.369 . S
C69 C68 1.369 . S
C69 C70 1.404 . S
C70 H53 0.940 . S
C70 C69 1.404 . S
C70 C71 1.389 . S
C71 H54 0.939 . S
C71 C66 1.400 . S
C71 C70 1.389 . S
C72 P46 1.819 . S
C72 C73 1.391 . S
C72 C77 1.391 1_545 S
C73 H55 0.941 . S
C73 C72 1.391 . S
C73 C74 1.396 . S
C74 H58 0.939 . S
C74 C73 1.396 . S
C74 C75 1.397 . S
C75 C74 1.397 . S
C75 C76 1.385 1_545 S
C76 H59 0.940 . S
C76 C75 1.385 1_565 S
C76 C77 1.388 . S
C77 H56 0.939 . S
C77 C72 1.391 1_565 S
C77 C76 1.388 . S
P78 O89 1.490 . S
P78 C92 1.812 . S
P78 C98 1.803 1_565 S
P78 C104 1.819 . S
H79 C93 0.941 . S
H80 C94 0.939 . S
H81 C96 0.940 . S
H82 C97 0.940 . S
H83 C99 0.946 . S
H84 C100 0.942 . S
H85 C102 0.940 . S
H86 C103 0.939 . S
H87 C105 0.941 . S
H88 C109 0.939 . S
O89 P78 1.490 . S
H90 C106 0.939 . S
H91 C108 0.940 . S
C92 P78 1.812 . S
C92 C93 1.389 . S
C92 C97 1.391 1_455 S
C93 H79 0.941 . S
C93 C92 1.389 . S
C93 C94 1.397 1_455 S
C94 H80 0.939 . S
C94 C93 1.397 1_655 S
C94 C95 1.378 . S
C95 C94 1.378 . S
C95 C96 1.378 . S
C96 H81 0.940 . S
C96 C95 1.378 . S
C96 C97 1.396 . S
C97 H82 0.940 . S
C97 C92 1.391 1_655 S
C97 C96 1.396 . S
C98 P78 1.803 1_545 S
C98 C99 1.378 . S
C98 C103 1.400 . S
C99 H83 0.946 . S
C99 C98 1.378 . S
C99 C100 1.361 . S
C100 H84 0.942 . S
C100 C99 1.361 . S
C100 C101 1.369 . S
C101 C100 1.369 . S
C101 C102 1.404 . S
C102 H85 0.940 . S
C102 C101 1.404 . S
C102 C103 1.389 . S
C103 H86 0.939 . S
C103 C98 1.400 . S
C103 C102 1.389 . S
C104 P78 1.819 . S
C104 C105 1.391 . S
C104 C109 1.391 1_565 S
C105 H87 0.941 . S
C105 C104 1.391 . S
C105 C106 1.396 . S
C106 H90 0.939 . S
C106 C105 1.396 . S
C106 C107 1.397 . S
C107 C106 1.397 . S
C107 C108 1.385 1_565 S
C108 H91 0.940 . S
C108 C107 1.385 1_545 S
C108 C109 1.388 . S
C109 H88 0.939 . S
C109 C104 1.391 1_545 S
C109 C108 1.388 . S
P110 O121 1.490 . S
P110 C124 1.812 . S
P110 C130 1.803 . S
P110 C136 1.819 . S
H111 C125 0.941 . S
H112 C126 0.939 . S
H113 C128 0.940 . S
H114 C129 0.940 . S
H115 C131 0.939 . S
H116 C132 0.942 . S
H117 C134 0.940 . S
H118 C135 0.939 . S
H119 C137 0.941 . S
H120 C141 0.939 . S
O121 P110 1.490 . S
H122 C138 0.939 . S
H123 C140 0.940 . S
C124 P110 1.812 . S
C124 C125 1.389 . S
C124 C129 1.391 . S
C125 H111 0.941 . S
C125 C124 1.389 . S
C125 C126 1.397 . S
C126 H112 0.939 . S
C126 C125 1.397 . S
C126 C127 1.378 . S
C127 C126 1.378 . S
C127 C128 1.378 . S
C128 H113 0.940 . S
C128 C127 1.378 . S
C128 C129 1.396 . S
C129 H114 0.940 . S
C129 C124 1.391 . S
C129 C128 1.396 . S
C130 P110 1.803 . S
C130 C131 1.378 . S
C130 C135 1.400 . S
C131 H115 0.939 . S
C131 C130 1.378 . S
C131 C132 1.361 . S
C132 H116 0.942 . S
C132 C131 1.361 . S
C132 C133 1.369 . S
C133 C132 1.369 . S
C133 C134 1.404 . S
C134 H117 0.940 . S
C134 C133 1.404 . S
C134 C135 1.389 . S
C135 H118 0.939 . S
C135 C130 1.400 . S
C135 C134 1.389 . S
C136 P110 1.819 . S
C136 C137 1.391 . S
C136 C141 1.391 . S
C137 H119 0.941 . S
C137 C136 1.391 . S
C137 C138 1.396 . S
C138 H122 0.939 . S
C138 C137 1.396 . S
C138 C139 1.397 . S
C139 C138 1.397 . S
C139 C140 1.385 . S
C140 H123 0.940 . S
C140 C139 1.385 . S
C140 C141 1.388 . S
C141 H120 0.939 . S
C141 C136 1.391 . S
C141 C140 1.388 . S
P142 O153 1.490 . S
P142 C156 1.812 . S
P142 C162 1.803 . S
P142 C168 1.819 . S
H143 C157 0.941 . S
H144 C158 0.939 . S
H145 C160 0.940 . S
H146 C161 0.940 . S
H147 C163 0.939 . S
H148 C164 0.942 . S
H149 C166 0.940 . S
H150 C167 0.939 . S
H151 C169 0.941 . S
H152 C173 0.939 . S
O153 P142 1.490 . S
H154 C170 0.939 . S
H155 C172 0.940 . S
C156 P142 1.812 . S
C156 C157 1.389 . S
C156 C161 1.391 . S
C157 H143 0.941 . S
C157 C156 1.389 . S
C157 C158 1.397 . S
C158 H144 0.939 . S
C158 C157 1.397 . S
C158 C159 1.378 . S
C159 C158 1.378 . S
C159 C160 1.378 . S
C160 H145 0.940 . S
C160 C159 1.378 . S
C160 C161 1.396 . S
C161 H146 0.940 . S
C161 C156 1.391 . S
C161 C160 1.396 . S
C162 P142 1.803 . S
C162 C163 1.378 . S
C162 C167 1.400 . S
C163 H147 0.939 . S
C163 C162 1.378 . S
C163 C164 1.361 . S
C164 H148 0.942 . S
C164 C163 1.361 . S
C164 C165 1.369 . S
C165 C164 1.369 . S
C165 C166 1.404 . S
C166 H149 0.940 . S
C166 C165 1.404 . S
C166 C167 1.389 . S
C167 H150 0.939 . S
C167 C162 1.400 . S
C167 C166 1.389 . S
C168 P142 1.819 . S
C168 C169 1.391 . S
C168 C173 1.391 . S
C169 H151 0.941 . S
C169 C168 1.391 . S
C169 C170 1.396 . S
C170 H154 0.939 . S
C170 C169 1.396 . S
C170 C171 1.397 . S
C171 C170 1.397 . S
C171 C172 1.385 . S
C172 H155 0.940 . S
C172 C171 1.385 . S
C172 C173 1.388 . S
C173 H152 0.939 . S
C173 C168 1.391 . S
C173 C172 1.388 . S
H174 C186 0.930 . S
H175 C188 0.930 . S
H176 C189 0.930 . S
H177 C193 0.959 . S
H178 C193 0.959 . S
H179 C193 0.961 . S
H180 C194 0.960 . S
H181 C194 0.961 . S
H182 C194 0.959 . S
H183 C197 0.929 1_556 S
H184 C198 0.931 . S
H185 C200 0.930 . S
C186 H174 0.930 . S
C186 C187 1.399 . S
C186 C191 1.399 . S
C187 C186 1.399 . S
C187 C188 1.376 1_554 S
C188 H175 0.930 . S
C188 C187 1.376 1_556 S
C188 C189 1.388 . S
C189 H176 0.930 . S
C189 C188 1.388 . S
C189 C190 1.390 1_556 S
C190 C189 1.390 1_554 S
C190 C191 1.394 . S
C190 C196 1.465 . S
C191 C186 1.399 . S
C191 C190 1.394 . S
C191 C192 1.516 . S
C192 C191 1.516 . S
C192 C193 1.502 . S
C192 C194 1.561 . S
C192 C195 1.526 . S
C193 H177 0.959 . S
C193 H178 0.959 . S
C193 H179 0.961 . S
C193 C192 1.502 . S
C194 H180 0.960 . S
C194 H181 0.961 . S
C194 H182 0.959 . S
C194 C192 1.561 . S
C195 C192 1.526 . S
C195 C196 1.396 . S
C195 C200 1.390 . S
C196 C190 1.465 . S
C196 C195 1.396 . S
C196 C197 1.399 . S
C197 H183 0.929 1_554 S
C197 C196 1.399 . S
C197 C198 1.385 . S
C198 H184 0.931 . S
C198 C197 1.385 . S
C198 C199 1.389 . S
C199 C198 1.389 . S
C199 C200 1.387 . S
C200 H185 0.930 . S
C200 C195 1.390 . S
C200 C199 1.387 . S
H201 C213 0.930 . S
H202 C215 0.906 1_554 S
H203 C216 0.930 1_554 S
H204 C220 0.959 . S
H205 C220 0.959 . S
H206 C220 0.961 . S
H207 C221 0.960 . S
H208 C221 0.961 . S
H209 C221 0.959 . S
H210 C224 0.929 . S
H211 C225 0.931 . S
H212 C227 0.930 . S
C213 H201 0.930 . S
C213 C214 1.399 . S
C213 C218 1.399 . S
C214 C213 1.399 . S
C214 C215 1.397 . S
C215 H202 0.906 1_556 S
C215 C214 1.397 . S
C215 C216 1.393 . S
C216 H203 0.930 1_556 S
C216 C215 1.393 . S
C216 C217 1.390 . S
C217 C216 1.390 . S
C217 C218 1.394 . S
C217 C223 1.465 . S
C218 C213 1.399 . S
C218 C217 1.394 . S
C218 C219 1.516 . S
C219 C218 1.516 . S
C219 C220 1.502 . S
C219 C221 1.561 . S
C219 C222 1.526 . S
C220 H204 0.959 . S
C220 H205 0.959 . S
C220 H206 0.961 . S
C220 C219 1.502 . S
C221 H207 0.960 . S
C221 H208 0.961 . S
C221 H209 0.959 . S
C221 C219 1.561 . S
C222 C219 1.526 . S
C222 C223 1.396 . S
C222 C227 1.390 . S
C223 C217 1.465 . S
C223 C222 1.396 . S
C223 C224 1.399 . S
C224 H210 0.929 . S
C224 C223 1.399 . S
C224 C225 1.385 . S
C225 H211 0.931 . S
C225 C224 1.385 . S
C225 C226 1.389 . S
C226 C225 1.389 . S
C226 C227 1.387 . S
C227 H212 0.930 . S
C227 C222 1.390 . S
C227 C226 1.387 . S
H228 C240 0.930 . S
H229 C242 0.930 . S
H230 C243 0.930 . S
H231 C247 0.959 . S
H232 C247 0.959 . S
H233 C247 0.961 . S
H234 C248 0.960 . S
H235 C248 0.961 . S
H236 C248 0.950 1_556 S
H237 C251 0.929 . S
H238 C252 0.931 . S
H239 C254 0.930 . S
C240 H228 0.930 . S
C240 C241 1.399 . S
C240 C245 1.399 . S
C241 C240 1.399 . S
C241 C242 1.376 . S
C242 H229 0.930 . S
C242 C241 1.376 . S
C242 C243 1.388 . S
C243 H230 0.930 . S
C243 C242 1.388 . S
C243 C244 1.390 . S
C244 C243 1.390 . S
C244 C245 1.394 . S
C244 C250 1.465 . S
C245 C240 1.399 . S
C245 C244 1.394 . S
C245 C246 1.516 . S
C246 C245 1.516 . S
C246 C247 1.502 . S
C246 C248 1.561 . S
C246 C249 1.526 . S
C247 H231 0.959 . S
C247 H232 0.959 . S
C247 H233 0.961 . S
C247 C246 1.502 . S
C248 H234 0.960 . S
C248 H235 0.961 . S
C248 H236 0.950 1_554 S
C248 C246 1.561 . S
C249 C246 1.526 . S
C249 C250 1.396 . S
C249 C254 1.390 . S
C250 C244 1.465 . S
C250 C249 1.396 . S
C250 C251 1.399 . S
C251 H237 0.929 . S
C251 C250 1.399 . S
C251 C252 1.385 . S
C252 H238 0.931 . S
C252 C251 1.385 . S
C252 C253 1.389 . S
C253 C252 1.389 . S
C253 C254 1.387 . S
C254 H239 0.930 . S
C254 C249 1.390 . S
C254 C253 1.387 . S
H255 C267 0.930 . S
H256 C269 0.930 . S
H257 C270 0.930 . S
H258 C274 0.959 . S
H259 C274 0.959 . S
H260 C274 0.961 . S
H261 C275 0.960 . S
H262 C275 0.961 . S
H263 C275 0.959 . S
H264 C278 0.929 1_554 S
H265 C279 0.931 . S
H266 C281 0.930 . S
C267 H255 0.930 . S
C267 C268 1.399 . S
C267 C272 1.399 . S
C268 C267 1.399 . S
C268 C269 1.376 1_556 S
C269 H256 0.930 . S
C269 C268 1.376 1_554 S
C269 C270 1.388 . S
C270 H257 0.930 . S
C270 C269 1.388 . S
C270 C271 1.390 1_554 S
C271 C270 1.390 1_556 S
C271 C272 1.394 . S
C271 C277 1.465 . S
C272 C267 1.399 . S
C272 C271 1.394 . S
C272 C273 1.516 . S
C273 C272 1.516 . S
C273 C274 1.502 . S
C273 C275 1.561 . S
C273 C276 1.526 . S
C274 H258 0.959 . S
C274 H259 0.959 . S
C274 H260 0.961 . S
C274 C273 1.502 . S
C275 H261 0.960 . S
C275 H262 0.961 . S
C275 H263 0.959 . S
C275 C273 1.561 . S
C276 C273 1.526 . S
C276 C277 1.396 . S
C276 C281 1.390 . S
C277 C271 1.465 . S
C277 C276 1.396 . S
C277 C278 1.399 . S
C278 H264 0.929 1_556 S
C278 C277 1.399 . S
C278 C279 1.385 . S
C279 H265 0.931 . S
C279 C278 1.385 . S
C279 C280 1.389 . S
C280 C279 1.389 . S
C280 C281 1.387 . S
C281 H266 0.930 . S
C281 C276 1.390 . S
C281 C280 1.387 . S
H282 C294 0.930 . S
H283 C296 0.930 . S
H284 C297 0.930 . S
H285 C301 0.959 . S
H286 C301 0.959 . S
H287 C301 0.961 . S
H288 C302 0.960 . S
H289 C302 0.961 . S
H290 C302 0.959 . S
H291 C305 0.929 . S
H292 C306 0.931 . S
H293 C308 0.930 . S
C294 H282 0.930 . S
C294 C295 1.399 . S
C294 C299 1.399 . S
C295 C294 1.399 . S
C295 C296 1.376 . S
C296 H283 0.930 . S
C296 C295 1.376 . S
C296 C297 1.388 . S
C297 H284 0.930 . S
C297 C296 1.388 . S
C297 C298 1.390 . S
C298 C297 1.390 . S
C298 C299 1.394 . S
C298 C304 1.465 . S
C299 C294 1.399 . S
C299 C298 1.394 . S
C299 C300 1.516 . S
C300 C299 1.516 . S
C300 C301 1.502 . S
C300 C302 1.561 . S
C300 C303 1.526 . S
C301 H285 0.959 . S
C301 H286 0.959 . S
C301 H287 0.961 . S
C301 C300 1.502 . S
C302 H288 0.960 . S
C302 H289 0.961 . S
C302 H290 0.959 . S
C302 C300 1.561 . S
C303 C300 1.526 . S
C303 C304 1.396 . S
C303 C308 1.390 . S
C304 C298 1.465 . S
C304 C303 1.396 . S
C304 C305 1.399 . S
C305 H291 0.929 . S
C305 C304 1.399 . S
C305 C306 1.385 . S
C306 H292 0.931 . S
C306 C305 1.385 . S
C306 C307 1.389 . S
C307 C306 1.389 . S
C307 C308 1.387 . S
C308 H293 0.930 . S
C308 C303 1.390 . S
C308 C307 1.387 . S
H309 C321 0.930 . S
H310 C323 0.930 . S
H311 C324 0.930 . S
H312 C328 0.959 . S
H313 C328 0.959 . S
H314 C328 0.961 . S
H315 C329 0.960 . S
H316 C329 0.961 . S
H317 C329 0.959 . S
H318 C332 0.929 . S
H319 C333 0.931 . S
H320 C335 0.930 . S
C321 H309 0.930 . S
C321 C322 1.399 . S
C321 C326 1.399 . S
C322 C321 1.399 . S
C322 C323 1.376 . S
C323 H310 0.930 . S
C323 C322 1.376 . S
C323 C324 1.388 . S
C324 H311 0.930 . S
C324 C323 1.388 . S
C324 C325 1.390 . S
C325 C324 1.390 . S
C325 C326 1.394 . S
C325 C331 1.465 . S
C326 C321 1.399 . S
C326 C325 1.394 . S
C326 C327 1.516 . S
C327 C326 1.516 . S
C327 C328 1.502 . S
C327 C329 1.561 . S
C327 C330 1.526 . S
C328 H312 0.959 . S
C328 H313 0.959 . S
C328 H314 0.961 . S
C328 C327 1.502 . S
C329 H315 0.960 . S
C329 H316 0.961 . S
C329 H317 0.959 . S
C329 C327 1.561 . S
C330 C327 1.526 . S
C330 C331 1.396 . S
C330 C335 1.390 . S
C331 C325 1.465 . S
C331 C330 1.396 . S
C331 C332 1.399 . S
C332 H318 0.929 . S
C332 C331 1.399 . S
C332 C333 1.385 . S
C333 H319 0.931 . S
C333 C332 1.385 . S
C333 C334 1.389 . S
C334 C333 1.389 . S
C334 C335 1.387 . S
C335 H320 0.930 . S
C335 C330 1.390 . S
C335 C334 1.387 . S
H336 C348 0.930 . S
H337 C350 0.930 . S
H338 C351 0.930 . S
H339 C355 0.959 . S
H340 C355 0.959 . S
H341 C355 0.961 . S
H342 C356 0.960 . S
H343 C356 0.961 . S
H344 C356 0.959 . S
H345 C359 0.929 . S
H346 C360 0.931 . S
H347 C362 0.930 . S
C348 H336 0.930 . S
C348 C349 1.399 . S
C348 C353 1.399 . S
C349 C348 1.399 . S
C349 C350 1.376 . S
C350 H337 0.930 . S
C350 C349 1.376 . S
C350 C351 1.388 . S
C351 H338 0.930 . S
C351 C350 1.388 . S
C351 C352 1.390 . S
C352 C351 1.390 . S
C352 C353 1.394 . S
C352 C358 1.465 . S
C353 C348 1.399 . S
C353 C352 1.394 . S
C353 C354 1.516 . S
C354 C353 1.516 . S
C354 C355 1.502 . S
C354 C356 1.561 . S
C354 C357 1.526 . S
C355 H339 0.959 . S
C355 H340 0.959 . S
C355 H341 0.961 . S
C355 C354 1.502 . S
C356 H342 0.960 . S
C356 H343 0.961 . S
C356 H344 0.959 . S
C356 C354 1.561 . S
C357 C354 1.526 . S
C357 C358 1.396 . S
C357 C362 1.390 . S
C358 C352 1.465 . S
C358 C357 1.396 . S
C358 C359 1.399 . S
C359 H345 0.929 . S
C359 C358 1.399 . S
C359 C360 1.385 . S
C360 H346 0.931 . S
C360 C359 1.385 . S
C360 C361 1.389 . S
C361 C360 1.389 . S
C361 C362 1.387 . S
C362 H347 0.930 . S
C362 C357 1.390 . S
C362 C361 1.387 . S
H363 C375 0.930 . S
H364 C377 0.930 . S
H365 C378 0.930 . S
H366 C382 0.959 . S
H367 C382 0.959 . S
H368 C382 0.961 . S
H369 C383 0.960 . S
H370 C383 0.961 . S
H371 C383 0.959 . S
H372 C386 0.929 . S
H373 C387 0.931 . S
H374 C389 0.930 . S
C375 H363 0.930 . S
C375 C376 1.399 . S
C375 C380 1.399 . S
C376 C375 1.399 . S
C376 C377 1.376 . S
C377 H364 0.930 . S
C377 C376 1.376 . S
C377 C378 1.388 . S
C378 H365 0.930 . S
C378 C377 1.388 . S
C378 C379 1.390 . S
C379 C378 1.390 . S
C379 C380 1.394 . S
C379 C385 1.465 . S
C380 C375 1.399 . S
C380 C379 1.394 . S
C380 C381 1.516 . S
C381 C380 1.516 . S
C381 C382 1.502 . S
C381 C383 1.561 . S
C381 C384 1.526 . S
C382 H366 0.959 . S
C382 H367 0.959 . S
C382 H368 0.961 . S
C382 C381 1.502 . S
C383 H369 0.960 . S
C383 H370 0.961 . S
C383 H371 0.959 . S
C383 C381 1.561 . S
C384 C381 1.526 . S
C384 C385 1.396 . S
C384 C389 1.390 . S
C385 C379 1.465 . S
C385 C384 1.396 . S
C385 C386 1.399 . S
C386 H372 0.929 . S
C386 C385 1.399 . S
C386 C387 1.385 . S
C387 H373 0.931 . S
C387 C386 1.385 . S
C387 C388 1.389 . S
C388 C387 1.389 . S
C388 C389 1.387 . S
C389 H374 0.930 . S
C389 C384 1.390 . S
C389 C388 1.387 . S
H390 C402 0.930 . S
H391 C404 0.930 . S
H392 C405 0.930 . S
H393 C409 0.959 . S
H394 C409 0.959 . S
H395 C409 0.961 . S
H396 C410 0.960 . S
H397 C410 0.961 . S
H398 C410 0.959 . S
H399 C413 0.929 . S
H400 C414 0.931 . S
H401 C416 0.930 . S
C402 H390 0.930 . S
C402 C403 1.410 . S
C402 C407 1.399 . S
C403 C402 1.410 . S
C403 C404 1.363 1_445 S
C404 H391 0.930 . S
C404 C403 1.363 1_665 S
C404 C405 1.388 . S
C405 H392 0.930 . S
C405 C404 1.388 . S
C405 C406 1.390 . S
C406 C405 1.390 . S
C406 C407 1.394 1_665 S
C406 C412 1.465 . S
C407 C402 1.399 . S
C407 C406 1.394 1_445 S
C407 C408 1.516 . S
C408 C407 1.516 . S
C408 C409 1.502 . S
C408 C410 1.561 1_455 S
C408 C411 1.526 . S
C409 H393 0.959 . S
C409 H394 0.959 . S
C409 H395 0.961 . S
C409 C408 1.502 . S
C410 H396 0.960 . S
C410 H397 0.961 . S
C410 H398 0.959 . S
C410 C408 1.561 1_655 S
C411 C408 1.526 . S
C411 C412 1.396 1_445 S
C411 C416 1.390 . S
C412 C406 1.465 . S
C412 C411 1.396 1_665 S
C412 C413 1.399 . S
C413 H399 0.929 . S
C413 C412 1.399 . S
C413 C414 1.385 . S
C414 H400 0.931 . S
C414 C413 1.385 . S
C414 C415 1.389 . S
C415 C414 1.389 . S
C415 C416 1.387 1_665 S
C416 H401 0.930 . S
C416 C411 1.390 . S
C416 C415 1.387 1_445 S
H417 C429 0.930 . S
H418 C431 0.930 . S
H419 C432 0.930 . S
H420 C436 0.959 . S
H421 C436 0.959 . S
H422 C436 0.961 . S
H423 C437 0.960 1_455 S
H424 C437 0.961 1_455 S
H425 C437 0.959 . S
H426 C440 0.929 . S
H427 C441 0.931 . S
H428 C443 0.930 . S
C429 H417 0.930 . S
C429 C430 1.399 1_565 S
C429 C434 1.399 . S
C430 C429 1.399 1_545 S
C430 C431 1.376 1_455 S
C431 H418 0.930 . S
C431 C430 1.376 1_655 S
C431 C432 1.388 . S
C432 H419 0.930 . S
C432 C431 1.388 . S
C432 C433 1.390 . S
C433 C432 1.390 . S
C433 C434 1.394 1_645 S
C433 C439 1.465 . S
C434 C429 1.399 . S
C434 C433 1.394 1_465 S
C434 C435 1.516 . S
C435 C434 1.516 . S
C435 C436 1.502 . S
C435 C437 1.561 1_455 S
C435 C438 1.526 . S
C436 H420 0.959 . S
C436 H421 0.959 . S
C436 H422 0.961 . S
C436 C435 1.502 . S
C437 H423 0.960 1_655 S
C437 H424 0.961 1_655 S
C437 H425 0.959 . S
C437 C435 1.561 1_655 S
C438 C435 1.526 . S
C438 C439 1.396 1_465 S
C438 C443 1.390 . S
C439 C433 1.465 . S
C439 C438 1.396 1_645 S
C439 C440 1.399 . S
C440 H426 0.929 . S
C440 C439 1.399 . S
C440 C441 1.385 . S
C441 H427 0.931 . S
C441 C440 1.385 . S
C441 C442 1.389 1_655 S
C442 C441 1.389 1_455 S
C442 C443 1.387 1_545 S
C443 H428 0.930 . S
C443 C438 1.390 . S
C443 C442 1.387 1_565 S
H444 C456 0.930 . S
H445 C458 0.930 . S
H446 C459 0.930 . S
H447 C463 0.959 . S
H448 C463 0.959 . S
H449 C463 0.961 . S
H450 C464 0.960 . S
H451 C464 0.961 . S
H452 C464 0.959 . S
H453 C467 0.929 . S
H454 C468 0.931 . S
H455 C470 0.930 . S
C456 H444 0.930 . S
C456 C457 1.399 . S
C456 C461 1.399 . S
C457 C456 1.399 . S
C457 C458 1.376 . S
C458 H445 0.930 . S
C458 C457 1.376 . S
C458 C459 1.388 . S
C459 H446 0.930 . S
C459 C458 1.388 . S
C459 C460 1.390 . S
C460 C459 1.390 . S
C460 C461 1.394 . S
C460 C466 1.465 . S
C461 C456 1.399 . S
C461 C460 1.394 . S
C461 C462 1.516 . S
C462 C461 1.516 . S
C462 C463 1.502 . S
C462 C464 1.561 . S
C462 C465 1.526 . S
C463 H447 0.959 . S
C463 H448 0.959 . S
C463 H449 0.961 . S
C463 C462 1.502 . S
C464 H450 0.960 . S
C464 H451 0.961 . S
C464 H452 0.959 . S
C464 C462 1.561 . S
C465 C462 1.526 . S
C465 C466 1.396 . S
C465 C470 1.390 . S
C466 C460 1.465 . S
C466 C465 1.396 . S
C466 C467 1.399 . S
C467 H453 0.929 . S
C467 C466 1.399 . S
C467 C468 1.385 . S
C468 H454 0.931 . S
C468 C467 1.385 . S
C468 C469 1.389 . S
C469 C468 1.389 . S
C469 C470 1.387 . S
C470 H455 0.930 . S
C470 C465 1.390 . S
C470 C469 1.387 . S
H471 C483 0.930 . S
H472 C485 0.930 . S
H473 C486 0.930 . S
H474 C490 0.959 . S
H475 C490 0.959 . S
H476 C490 0.961 . S
H477 C491 0.960 . S
H478 C491 0.961 . S
H479 C491 0.959 . S
H480 C494 0.929 . S
H481 C495 0.931 . S
H482 C497 0.930 . S
C483 H471 0.930 . S
C483 C484 1.399 . S
C483 C488 1.399 . S
C484 C483 1.399 . S
C484 C485 1.376 . S
C485 H472 0.930 . S
C485 C484 1.376 . S
C485 C486 1.388 . S
C486 H473 0.930 . S
C486 C485 1.388 . S
C486 C487 1.390 . S
C487 C486 1.390 . S
C487 C488 1.394 . S
C487 C493 1.465 . S
C488 C483 1.399 . S
C488 C487 1.394 . S
C488 C489 1.516 . S
C489 C488 1.516 . S
C489 C490 1.502 . S
C489 C491 1.561 . S
C489 C492 1.526 . S
C490 H474 0.959 . S
C490 H475 0.959 . S
C490 H476 0.961 . S
C490 C489 1.502 . S
C491 H477 0.960 . S
C491 H478 0.961 . S
C491 H479 0.959 . S
C491 C489 1.561 . S
C492 C489 1.526 . S
C492 C493 1.396 . S
C492 C497 1.390 . S
C493 C487 1.465 . S
C493 C492 1.396 . S
C493 C494 1.399 . S
C494 H480 0.929 . S
C494 C493 1.399 . S
C494 C495 1.385 . S
C495 H481 0.931 . S
C495 C494 1.385 . S
C495 C496 1.389 . S
C496 C495 1.389 . S
C496 C497 1.387 . S
C497 H482 0.930 . S
C497 C492 1.390 . S
C497 C496 1.387 . S
C199 C159 1.432 . S
C187 C21 1.417 . S
C214 C19 1.435 . S
C226 C127 1.397 . S
C241 C18 1.409 . S
C253 C165 1.365 . S
C268 C20 1.404 . S
C280 C133 1.387 . S
C295 C44 1.416 . S
C307 C95 1.420 . S
C322 C42 1.410 . S
C334 C63 1.433 . S
C361 C101 1.381 . S
C349 C41 1.408 . S
C388 C69 1.411 . S
C376 C43 1.414 . S
C403 C16 1.490 . S
C415 C75 1.482 1_665 S
C430 C17 1.451 . S
C442 C107 1.454 1_545 S
C469 C139 1.476 . S
C457 C39 1.488 . S
C484 C40 1.451 . S
C496 C171 1.454 . S
