# Generated by pormake.
# Topology anh, (6,3)-cn, num edge types: 1
# Building blocks:
#     Node 0, Type 0, BuildingBlock: GEDQOX_clean_sbu_0, # of connection points: 6
#     Node 1, Type 0, BuildingBlock: GEDQOX_clean_sbu_0, # of connection points: 6
#     Node 2, Type 0, BuildingBlock: GEDQOX_clean_sbu_0, # of connection points: 6
#     Node 3, Type 1, BuildingBlock: BELTOD_clean_linker_0, # of connection points: 3
#     Node 4, Type 1, BuildingBlock: BELTOD_clean_linker_0, # of connection points: 3
#     Node 5, Type 1, BuildingBlock: BELTOD_clean_linker_0, # of connection points: 3
#     Node 6, Type 1, BuildingBlock: BELTOD_clean_linker_0, # of connection points: 3
#     Node 7, Type 1, BuildingBlock: BELTOD_clean_linker_0, # of connection points: 3
#     Node 8, Type 1, BuildingBlock: BELTOD_clean_linker_0, # of connection points: 3
#     Edge 9, Type (0, 1), BuildingBlock: XUDNAN_clean_linker_2, # of connection points: 2
#     Edge 10, Type (0, 1), BuildingBlock: XUDNAN_clean_linker_2, # of connection points: 2
#     Edge 11, Type (0, 1), BuildingBlock: XUDNAN_clean_linker_2, # of connection points: 2
#     Edge 12, Type (0, 1), BuildingBlock: XUDNAN_clean_linker_2, # of connection points: 2
#     Edge 13, Type (0, 1), BuildingBlock: XUDNAN_clean_linker_2, # of connection points: 2
#     Edge 14, Type (0, 1), BuildingBlock: XUDNAN_clean_linker_2, # of connection points: 2
#     Edge 15, Type (0, 1), BuildingBlock: XUDNAN_clean_linker_2, # of connection points: 2
#     Edge 16, Type (0, 1), BuildingBlock: XUDNAN_clean_linker_2, # of connection points: 2
#     Edge 17, Type (0, 1), BuildingBlock: XUDNAN_clean_linker_2, # of connection points: 2
#     Edge 18, Type (0, 1), BuildingBlock: XUDNAN_clean_linker_2, # of connection points: 2
#     Edge 19, Type (0, 1), BuildingBlock: XUDNAN_clean_linker_2, # of connection points: 2
#     Edge 20, Type (0, 1), BuildingBlock: XUDNAN_clean_linker_2, # of connection points: 2
#     Edge 21, Type (0, 1), BuildingBlock: XUDNAN_clean_linker_2, # of connection points: 2
#     Edge 22, Type (0, 1), BuildingBlock: XUDNAN_clean_linker_2, # of connection points: 2
#     Edge 23, Type (0, 1), BuildingBlock: XUDNAN_clean_linker_2, # of connection points: 2
#     Edge 24, Type (0, 1), BuildingBlock: XUDNAN_clean_linker_2, # of connection points: 2
#     Edge 25, Type (0, 1), BuildingBlock: XUDNAN_clean_linker_2, # of connection points: 2
#     Edge 26, Type (0, 1), BuildingBlock: XUDNAN_clean_linker_2, # of connection points: 2
# Relax obj value: 0.176
# Max RMSD: 0.209
# Mean RMSD: 0.150
data_MOF--net-anh--node1-GEDQOX_clean_sbu_0--node2-BELTOD_clean_linker_0--edge1-XUDNAN_clean_linker_2
_symmetry_space_group_name_H-M    P1
_symmetry_Int_Tables_number       1
_symmetry_cell_setting            triclinic
loop_
_symmetry_equiv_pos_as_xyz
'x, y, z'
_cell_length_a     35.807348
_cell_length_b     33.736833
_cell_length_c     60.785202
_cell_angle_alpha  93.168703
_cell_angle_beta   91.129526
_cell_angle_gamma 106.9531
loop_
_atom_site_label
_atom_site_type_symbol
_atom_site_fract_x
_atom_site_fract_y
_atom_site_fract_z
_atom_type_partial_charge
Nd0 Nd 0.05885 0.56103 0.15195 0.0
Nd1 Nd 1.03903 0.46748 0.14343 0.0
C2 C 0.09038 0.6424 0.1508 0.0
C3 C 0.12713 0.67415 0.15856 0.0
C4 C 0.16387 0.66781 0.15565 0.0
C5 C 0.19807 0.69741 0.16416 0.0
C6 C 0.19631 0.73417 0.1757 0.0
C7 C 0.15946 0.74081 0.178 0.0
C8 C 0.12536 0.71113 0.1696 0.0
C9 C 0.05114 0.51891 0.18958 0.0
C10 C 0.13329 0.51569 0.14497 0.0
C11 C 1.00746 0.38664 0.14696 0.0
C12 C 0.96886 0.3587 0.15225 0.0
C13 C 0.93394 0.36683 0.14605 0.0
C14 C 0.89783 0.34118 0.1523 0.0
C15 C 0.89579 0.3069 0.16499 0.0
C16 C 0.93095 0.29881 0.17098 0.0
C17 C 0.96699 0.3244 0.16468 0.0
C18 C 0.04729 0.51236 0.10669 0.0
C19 C 0.96473 0.51164 0.14818 0.0
O20 O 0.0925 0.61574 0.1347 0.0
O21 O 0.06686 0.62527 0.16608 0.0
O22 O 1.03999 0.55186 0.18752 0.0
O23 O 0.06765 0.5106 0.1725 0.0
O24 O 0.12113 0.54972 0.14699 0.0
O25 O 0.107 0.47838 0.14413 0.0
O26 O 1.02654 0.412 0.16318 0.0
O27 O 1.01017 0.40425 0.12814 0.0
O28 O 0.06003 0.48005 0.10784 0.0
O29 O 1.02993 0.51792 0.12379 0.0
O30 O 0.97756 0.47857 0.15057 0.0
O31 O 0.99084 0.54822 0.14557 0.0
H32 H 0.16611 0.63975 0.14702 0.0
H33 H 0.22575 0.69095 0.16217 0.0
H34 H 0.15686 0.76904 0.18634 0.0
H35 H 0.09744 0.71694 0.1719 0.0
H36 H 0.93455 0.39322 0.13655 0.0
H37 H 0.87151 0.34824 0.14711 0.0
H38 H 0.93081 0.27327 0.18104 0.0
H39 H 0.99356 0.31776 0.16984 0.0
Nd40 Nd 0.48956 0.98989 0.52322 0.0
Nd41 Nd 0.57497 0.02398 0.51571 0.0
C42 C 0.41877 0.94936 0.53544 0.0
C43 C 0.38898 0.90882 0.53015 0.0
C44 C 0.38382 0.87677 0.54465 0.0
C45 C 0.35513 0.83878 0.54007 0.0
C46 C 0.33075 0.83204 0.52095 0.0
C47 C 0.33598 0.86411 0.50644 0.0
C48 C 0.36468 0.90206 0.511 0.0
C49 C 0.50644 0.00493 0.48005 0.0
C50 C 0.54238 0.9244 0.51577 0.0
C51 C 0.64519 0.06249 0.50191 0.0
C52 C 0.67029 0.10435 0.49815 0.0
C53 C 0.65456 0.13692 0.49406 0.0
C54 C 0.67915 0.1758 0.48923 0.0
C55 C 0.71981 0.18267 0.48847 0.0
C56 C 0.73532 0.1501 0.49313 0.0
C57 C 0.71077 0.11137 0.49793 0.0
C58 C 0.55723 0.00898 0.55887 0.0
C59 C 0.52353 0.08933 0.52548 0.0
O60 O 0.45079 0.94895 0.54608 0.0
O61 O 0.42531 0.97621 0.52022 0.0
O62 O 0.47694 0.01206 0.4897 0.0
O63 O 0.52501 0.98841 0.49275 0.0
O64 O 0.51018 0.93061 0.52358 0.0
O65 O 0.5706 0.95538 0.50882 0.0
O66 O 0.61434 0.04763 0.48873 0.0
O67 O 0.63848 0.05372 0.52239 0.0
O68 O 0.58669 1.00099 0.54945 0.0
O69 O 0.53931 0.0256 0.5459 0.0
O70 O 0.55377 0.08288 0.5153 0.0
O71 O 0.49708 0.05821 0.53372 0.0
H72 H 0.4019 0.8811 0.5596 0.0
H73 H 0.35221 0.81459 0.55147 0.0
H74 H 0.31736 0.86022 0.49174 0.0
H75 H 0.36753 0.92618 0.49956 0.0
H76 H 0.62331 0.13208 0.49424 0.0
H77 H 0.66634 0.20035 0.48592 0.0
H78 H 0.76638 0.15405 0.49234 0.0
H79 H 0.72337 0.08654 0.50101 0.0
Nd80 Nd 0.50026 0.47321 0.83702 0.0
Nd81 Nd 0.58592 0.49151 0.84684 0.0
C82 C 0.43084 0.47127 0.82046 0.0
C83 C 0.4122 0.50315 0.81537 0.0
C84 C 0.37894 0.49308 0.80126 0.0
C85 C 0.36066 0.5233 0.79679 0.0
C86 C 0.37566 0.56401 0.80628 0.0
C87 C 0.40973 0.57416 0.81988 0.0
C88 C 0.42786 0.54398 0.82438 0.0
C89 C 0.52064 0.47753 0.88134 0.0
C90 C 0.55433 0.57051 0.8436 0.0
C91 C 0.6561 0.49585 0.86271 0.0
C92 C 0.68878 0.47915 0.85729 0.0
C93 C 0.70132 0.45513 0.8723 0.0
C94 C 0.73633 0.44544 0.86931 0.0
C95 C 0.75974 0.4603 0.85146 0.0
C96 C 0.74523 0.48108 0.83543 0.0
C97 C 0.71008 0.49031 0.83829 0.0
C98 C 0.56733 0.48869 0.80267 0.0
C99 C 0.53126 0.39285 0.83947 0.0
O100 O 0.4602 0.47012 0.80833 0.0
O101 O 0.43772 0.46781 0.84137 0.0
O102 O 0.48997 0.45017 0.8723 0.0
O103 O 0.53814 0.5017 0.86734 0.0
O104 O 0.52437 0.54412 0.8325 0.0
O105 O 0.57937 0.5565 0.85471 0.0
O106 O 0.62426 0.47005 0.86963 0.0
O107 O 0.64921 0.52253 0.84956 0.0
O108 O 0.59891 0.51382 0.81194 0.0
O109 O 0.54863 0.46415 0.81623 0.0
O110 O 0.5645 0.41934 0.84738 0.0
O111 O 0.50223 0.40612 0.83234 0.0
H112 H 0.36677 0.46174 0.79401 0.0
H113 H 0.33436 0.51469 0.7863 0.0
H114 H 0.42131 0.60492 0.82793 0.0
H115 H 0.45351 0.55231 0.83534 0.0
H116 H 0.68513 0.44574 0.88695 0.0
H117 H 0.74631 0.42868 0.88174 0.0
H118 H 0.76243 0.49339 0.82157 0.0
H119 H 0.70094 0.5084 0.82623 0.0
P120 P 0.58615 0.97766 0.24911 0.0
H121 H 0.54814 0.90347 0.22029 0.0
H122 H 0.47999 0.86985 0.20899 0.0
H123 H 0.44845 0.97446 0.23864 0.0
H124 H 0.51673 0.00732 0.25048 0.0
H125 H 0.67057 0.01057 0.25011 0.0
H126 H 0.71587 0.07073 0.23492 0.0
H127 H 0.61838 0.10356 0.20628 0.0
H128 H 0.57305 0.04318 0.22186 0.0
H129 H 0.57071 0.92592 0.28671 0.0
H130 H 0.58859 0.05485 0.27494 0.0
O131 O 0.60742 0.93972 0.24727 0.0
H132 H 0.55904 0.93996 0.32547 0.0
H133 H 0.57763 0.06937 0.31376 0.0
C134 C 0.53757 0.95779 0.23645 0.0
C135 C 0.52672 0.91955 0.22408 0.0
C136 C 0.48757 0.90034 0.2175 0.0
C137 C 0.45839 0.91904 0.22314 0.0
C138 C 0.46989 0.95862 0.23442 0.0
C139 C 0.50905 0.97772 0.24103 0.0
C140 C 0.61843 0.02191 0.23681 0.0
C141 C 0.6589 0.03047 0.24038 0.0
C142 C 0.68484 0.06488 0.23158 0.0
C143 C 0.67093 0.09194 0.21915 0.0
C144 C 0.63018 0.08353 0.21583 0.0
C145 C 0.60417 0.04884 0.22461 0.0
C146 C 0.58117 0.98945 0.27803 0.0
C147 C 0.57283 0.95743 0.29257 0.0
C148 C 0.56631 0.96554 0.31477 0.0
C149 C 0.56754 0.00583 0.3228 0.0
C150 C 0.57619 0.03792 0.30812 0.0
C151 C 0.58276 0.02975 0.28593 0.0
P152 P 0.5795 0.52737 0.56854 0.0
H153 H 0.62419 0.46807 0.56526 0.0
H154 H 0.60672 0.39433 0.55442 0.0
H155 H 0.49244 0.39767 0.53205 0.0
H156 H 0.51022 0.472 0.54346 0.0
H157 H 0.58082 0.5535 0.52339 0.0
H158 H 0.57151 0.61566 0.50816 0.0
H159 H 0.5306 0.64941 0.57085 0.0
H160 H 0.538 0.58643 0.58543 0.0
H161 H 0.52821 0.45843 0.59181 0.0
H162 H 0.60162 0.58321 0.60817 0.0
O163 O 0.62795 0.54783 0.569 0.0
H164 H 0.51624 0.44853 0.63044 0.0
H165 H 0.58731 0.57478 0.64701 0.0
C166 C 0.56883 0.47595 0.55478 0.0
C167 C 0.59576 0.45336 0.55737 0.0
C168 C 0.58566 0.41089 0.55115 0.0
C169 C 0.54807 0.38962 0.54236 0.0
C170 C 0.52154 0.41277 0.53897 0.0
C171 C 0.53179 0.45547 0.5452 0.0
C172 C 0.56019 0.56491 0.55558 0.0
C173 C 0.56851 0.57351 0.5336 0.0
C174 C 0.56376 0.60962 0.52503 0.0
C175 C 0.55113 0.63849 0.53837 0.0
C176 C 0.54027 0.62821 0.55995 0.0
C177 C 0.54473 0.59192 0.56841 0.0
C178 C 0.56616 0.52155 0.59699 0.0
C179 C 0.54133 0.48409 0.60364 0.0
C180 C 0.53409 0.47859 0.62595 0.0
C181 C 0.5508 0.51076 0.64214 0.0
C182 C 0.57456 0.54884 0.63523 0.0
C183 C 0.58247 0.55395 0.61294 0.0
P184 P 0.1197 0.72958 0.90873 0.0
H185 H 0.14849 0.7712 0.86912 0.0
H186 H 0.19812 0.7619 0.8436 0.0
H187 H 0.23479 0.68703 0.88991 0.0
H188 H 0.18594 0.6966 0.91535 0.0
H189 H 1.03546 0.70991 0.91092 0.0
H190 H 0.9821 0.65081 0.89584 0.0
H191 H 0.06471 0.6035 0.86001 0.0
H192 H 0.1178 0.66264 0.87494 0.0
H193 H 0.13394 0.77125 0.95312 0.0
H194 H 0.11088 0.64673 0.9238 0.0
O195 O 0.10973 0.77496 0.91049 0.0
H196 H 0.1287 0.74426 0.98985 0.0
H197 H 0.10405 0.61942 0.96017 0.0
C198 C 0.16375 0.73484 0.89416 0.0
C199 C 0.16836 0.75428 0.87415 0.0
C200 C 0.1965 0.7489 0.85958 0.0
C201 C 0.2198 0.72364 0.8649 0.0
C202 C 0.21697 0.70666 0.88558 0.0
C203 C 0.18913 0.71225 0.90014 0.0
C204 C 0.08047 0.69121 0.89379 0.0
C205 C 0.04195 0.68738 0.8994 0.0
C206 C 1.01162 0.65332 0.891 0.0
C207 C 1.01941 0.62233 0.87696 0.0
C208 C 0.05788 0.62702 0.87069 0.0
C209 C 0.08824 0.66104 0.87918 0.0
C210 C 0.12194 0.71094 0.93576 0.0
C211 C 0.12801 0.73817 0.95459 0.0
C212 C 0.12479 0.72263 0.97556 0.0
C213 C 0.11533 0.67956 0.97798 0.0
C214 C 0.11159 0.65271 0.95901 0.0
C215 C 0.11506 0.66831 0.93812 0.0
P216 P 0.07427 0.45102 0.42086 0.0
H217 H 0.1125 0.46591 0.46447 0.0
H218 H 0.14958 0.52897 0.48596 0.0
H219 H 0.12855 0.60311 0.43403 0.0
H220 H 0.09147 0.53981 0.41259 0.0
H221 H 1.00624 0.39342 0.39775 0.0
H222 H 0.93922 0.36172 0.40825 0.0
H223 H 0.96566 0.42744 0.47226 0.0
H224 H 1.0327 0.46033 0.46143 0.0
H225 H 0.12929 0.44167 0.38748 0.0
H226 H 1.02439 0.47956 0.39042 0.0
O227 O 0.09669 0.41526 0.42578 0.0
H228 H 0.12988 0.44793 0.34765 0.0
H229 H 1.02345 0.48385 0.3505 0.0
C230 C 0.09971 0.49811 0.43682 0.0
C231 C 0.11579 0.49575 0.45773 0.0
C232 C 0.13678 0.53183 0.47006 0.0
C233 C 0.14215 0.57103 0.46165 0.0
C234 C 0.12535 0.57332 0.44081 0.0
C235 C 0.10404 0.53715 0.42857 0.0
C236 C 1.02423 0.43038 0.4285 0.0
C237 C 0.99748 0.40198 0.41384 0.0
C238 C 0.95917 0.38377 0.41986 0.0
C239 C 0.94718 0.39259 0.44095 0.0
C240 C 0.97416 0.42041 0.45584 0.0
C241 C 1.01241 0.43929 0.44962 0.0
C242 C 0.07622 0.45904 0.39177 0.0
C243 C 0.10624 0.45111 0.3795 0.0
C244 C 0.10633 0.4544 0.35668 0.0
C245 C 0.07631 0.46566 0.34569 0.0
C246 C 0.04716 0.47528 0.3583 0.0
C247 C 0.0474 0.47244 0.38115 0.0
P248 P 0.59552 0.99396 0.79416 0.0
H249 H 0.63666 0.08174 0.799 0.0
H250 H 0.61715 0.14306 0.80943 0.0
H251 H 0.50396 0.06479 0.82646 0.0
H252 H 0.52368 1.00307 0.815 0.0
H253 H 0.5744 0.91077 0.77211 0.0
H254 H 0.56457 0.84232 0.78566 0.0
H255 H 0.56794 0.89429 0.85251 0.0
H256 H 0.57863 0.9635 0.83862 0.0
H257 H 0.64334 0.01896 0.75586 0.0
H258 H 0.52125 0.96809 0.76875 0.0
O259 O 0.64396 0.00509 0.79738 0.0
H260 H 0.62711 0.01992 0.7168 0.0
H261 H 0.50464 0.96804 0.72943 0.0
C262 C 0.58203 0.0376 0.80673 0.0
C263 C 0.60793 0.0776 0.80551 0.0
C264 C 0.59665 0.11294 0.81156 0.0
C265 C 0.55889 0.10944 0.81896 0.0
C266 C 0.53316 0.06906 0.82064 0.0
C267 C 0.5445 0.03354 0.81438 0.0
C268 C 0.57621 0.94252 0.80426 0.0
C269 C 0.5716 0.90749 0.78966 0.0
C270 C 0.56606 0.86798 0.79749 0.0
C271 C 0.56555 0.86232 0.82026 0.0
C272 C 0.56862 0.89729 0.83487 0.0
C273 C 0.57416 0.93695 0.82695 0.0
C274 C 0.5835 0.99293 0.76515 0.0
C275 C 0.61301 0.00749 0.75024 0.0
C276 C 0.60368 0.00783 0.72783 0.0
C277 C 0.56456 0.99379 0.71988 0.0
C278 C 0.53503 0.97938 0.73498 0.0
C279 C 0.54445 0.97912 0.75743 0.0
P280 P 0.54073 0.4842 0.12017 0.0
H281 H 0.58505 0.47031 0.15996 0.0
H282 H 0.65341 0.47413 0.16745 0.0
H283 H 0.68551 0.53613 0.10759 0.0
H284 H 0.61722 0.5327 0.10032 0.0
H285 H 0.46339 0.43406 0.13591 0.0
H286 H 0.39998 0.44546 0.14095 0.0
H287 H 0.44983 0.57393 0.1274 0.0
H288 H 0.51367 0.56244 0.12308 0.0
H289 H 0.52735 0.4221 0.08242 0.0
H290 H 0.55167 0.55493 0.09224 0.0
O291 O 0.52974 0.43345 0.12384 0.0
H292 H 0.52834 0.4277 0.0426 0.0
H293 H 0.55207 0.56063 0.05232 0.0
C294 C 0.59411 0.50169 0.12965 0.0
C295 C 0.60661 0.48612 0.14868 0.0
C296 C 0.64643 0.48764 0.15275 0.0
C297 C 0.67646 0.50479 0.13801 0.0
C298 C 0.66436 0.52261 0.11961 0.0
C299 C 0.62438 0.52079 0.11546 0.0
C300 C 0.49533 0.49741 0.12953 0.0
C301 C 0.46151 0.46524 0.13453 0.0
C302 C 0.42414 0.47168 0.1371 0.0
C303 C 0.41788 0.51078 0.13468 0.0
C304 C 0.45198 0.5432 0.12993 0.0
C305 C 0.48947 0.53669 0.12741 0.0
C306 C 0.5394 0.48815 0.0905 0.0
C307 C 0.53252 0.45252 0.0761 0.0
C308 C 0.53286 0.45568 0.05321 0.0
C309 C 0.54036 0.4946 0.04419 0.0
C310 C 0.54659 0.53018 0.05867 0.0
C311 C 0.54599 0.52694 0.08155 0.0
H312 H 0.17568 0.45633 0.13533 0.0
H313 H 0.19427 0.58689 0.15356 0.0
H314 H 0.2653 0.59884 0.15283 0.0
H315 H 0.26001 0.44591 0.16753 0.0
H316 H 0.27274 0.41142 0.14729 0.0
H317 H 0.22275 0.41221 0.14905 0.0
H318 H 0.22139 0.42721 0.10789 0.0
H319 H 0.27135 0.42642 0.10602 0.0
H320 H 0.25774 0.47118 0.09811 0.0
H321 H 0.33683 0.59773 0.15063 0.0
H322 H 0.40008 0.58402 0.14687 0.0
H323 H 0.3399 0.45418 0.12911 0.0
C324 C 0.19458 0.48751 0.13918 0.0
C325 C 0.17782 0.52075 0.14436 0.0
C326 C 0.20487 0.56072 0.14924 0.0
C327 C 0.24592 0.56789 0.14897 0.0
C328 C 0.26124 0.53494 0.14376 0.0
C329 C 0.2364 0.49539 0.13891 0.0
C330 C 0.26118 0.46568 0.13378 0.0
C331 C 0.25371 0.43178 0.1504 0.0
C332 C 0.25238 0.44647 0.11004 0.0
C333 C 0.30351 0.49456 0.13651 0.0
C334 C 0.30257 0.5344 0.14231 0.0
C335 C 0.33752 0.56656 0.1459 0.0
C336 C 0.37397 0.55832 0.14347 0.0
C337 C 0.37689 0.51795 0.13729 0.0
C338 C 0.3402 0.48562 0.13392 0.0
H339 H 0.79282 0.22602 0.50559 0.0
H340 H 0.70661 0.2284 0.45489 0.0
H341 H 0.75344 0.28911 0.43998 0.0
H342 H 0.83972 0.34065 0.51255 0.0
H343 H 0.88769 0.33438 0.51631 0.0
H344 H 0.84542 0.29547 0.5251 0.0
H345 H 0.86468 0.23905 0.50115 0.0
H346 H 0.90682 0.27768 0.49225 0.0
H347 H 0.87175 0.24549 0.47213 0.0
H348 H 0.8124 0.34215 0.42723 0.0
H349 H 0.87842 0.38543 0.41855 0.0
H350 H 0.92624 0.3491 0.4776 0.0
C351 C 0.78354 0.23978 0.49159 0.0
C352 C 0.74597 0.22251 0.48146 0.0
C353 C 0.73497 0.24146 0.46317 0.0
C354 C 0.76144 0.27588 0.45453 0.0
C355 C 0.79865 0.29131 0.46451 0.0
C356 C 0.80956 0.27417 0.48281 0.0
C357 C 0.85222 0.29437 0.48937 0.0
C358 C 0.8565 0.3176 0.51219 0.0
C359 C 0.8752 0.26223 0.48867 0.0
C360 C 0.86404 0.32435 0.47136 0.0
C361 C 0.83262 0.32243 0.45731 0.0
C362 C 0.83703 0.34457 0.43837 0.0
C363 C 0.87458 0.36888 0.43351 0.0
C364 C 0.90718 0.37089 0.44756 0.0
C365 C 0.90162 0.34891 0.46691 0.0
H366 H 0.52023 0.61343 0.81578 0.0
H367 H 0.59996 0.63102 0.87262 0.0
H368 H 0.60895 0.70651 0.87381 0.0
H369 H 0.57449 0.70578 0.79009 0.0
H370 H 0.53154 0.71705 0.77954 0.0
H371 H 0.53023 0.6642 0.78366 0.0
H372 H 0.47132 0.65659 0.80826 0.0
H373 H 0.47222 0.70951 0.80468 0.0
H374 H 0.47463 0.69204 0.83204 0.0
H375 H 0.61006 0.78064 0.86862 0.0
H376 H 0.60595 0.84769 0.85637 0.0
H377 H 0.52582 0.7829 0.80263 0.0
C378 C 0.53942 0.63313 0.82856 0.0
C379 C 0.55927 0.61606 0.84418 0.0
C380 C 0.58445 0.64315 0.86045 0.0
C381 C 0.58967 0.68617 0.86131 0.0
C382 C 0.56981 0.70199 0.84566 0.0
C383 C 0.54543 0.67636 0.82947 0.0
C384 C 0.52881 0.70159 0.81412 0.0
C385 C 0.54207 0.69687 0.79045 0.0
C386 C 0.48406 0.68924 0.81485 0.0
C387 C 0.54736 0.74531 0.8243 0.0
C388 C 0.57081 0.74478 0.84252 0.0
C389 C 0.59157 0.78134 0.85444 0.0
C390 C 0.58873 0.81943 0.84743 0.0
C391 C 0.56532 0.82108 0.82858 0.0
C392 C 0.54415 0.78313 0.81704 0.0
H393 H 0.91888 0.56402 0.13426 0.0
H394 H 0.9072 0.44574 0.16234 0.0
H395 H 0.83595 0.43267 0.16286 0.0
H396 H 0.83986 0.58972 0.16441 0.0
H397 H 0.82216 0.61185 0.14153 0.0
H398 H 0.87283 0.61322 0.14357 0.0
H399 H 0.86666 0.57638 0.10473 0.0
H400 H 0.81597 0.57489 0.10258 0.0
H401 H 0.82946 0.52755 0.09888 0.0
H402 H 0.76386 0.43148 0.16094 0.0
H403 H 0.69888 0.44083 0.15545 0.0
H404 H 0.75182 0.5589 0.12741 0.0
C405 C 0.90144 0.53543 0.14066 0.0
C406 C 0.92015 0.50608 0.1484 0.0
C407 C 0.89499 0.46905 0.15628 0.0
C408 C 0.85388 0.46125 0.15668 0.0
C409 C 0.83661 0.49039 0.14898 0.0
C410 C 0.85954 0.52676 0.14096 0.0
C411 C 0.83273 0.55218 0.13319 0.0
C412 C 0.84249 0.59425 0.14646 0.0
C413 C 0.83644 0.55812 0.10837 0.0
C414 C 0.79146 0.52466 0.13819 0.0
C415 C 0.79476 0.48928 0.14744 0.0
C416 C 0.76131 0.45926 0.15375 0.0
C417 C 0.72395 0.46515 0.15067 0.0
C418 C 0.71859 0.50089 0.14117 0.0
C419 C 0.75368 0.53097 0.13471 0.0
H420 H 0.30901 0.78776 0.48102 0.0
H421 H 0.28183 0.78573 0.55031 0.0
H422 H 0.23007 0.71937 0.54264 0.0
H423 H 0.20947 0.74641 0.45968 0.0
H424 H 0.22199 0.71628 0.43712 0.0
H425 H 0.25705 0.76356 0.44809 0.0
H426 H 0.3073 0.72332 0.45503 0.0
H427 H 0.27245 0.67596 0.44405 0.0
H428 H 0.29404 0.67859 0.47134 0.0
H429 H 0.18152 0.65293 0.52744 0.0
H430 H 0.14004 0.59098 0.50583 0.0
H431 H 0.19824 0.63701 0.44641 0.0
C432 C 0.29196 0.7736 0.49456 0.0
C433 C 0.29961 0.79199 0.5163 0.0
C434 C 0.27696 0.772 0.53359 0.0
C435 C 0.24729 0.73444 0.52937 0.0
C436 C 0.24052 0.71726 0.50776 0.0
C437 C 0.26221 0.73617 0.49064 0.0
C438 C 0.24931 0.71103 0.46895 0.0
C439 C 0.23351 0.7358 0.45249 0.0
C440 C 0.28276 0.69635 0.45928 0.0
C441 C 0.21698 0.67499 0.47654 0.0
C442 C 0.21239 0.67916 0.49899 0.0
C443 C 0.18483 0.64935 0.50985 0.0
C444 C 0.16153 0.61421 0.49746 0.0
C445 C 0.16586 0.60918 0.47444 0.0
C446 C 0.19385 0.64023 0.46391 0.0
H447 H 0.5873 0.35275 0.8473 0.0
H448 H 0.46572 0.32955 0.82644 0.0
H449 H 0.45882 0.25479 0.82093 0.0
H450 H 0.60811 0.27986 0.80855 0.0
H451 H 0.63973 0.26344 0.82713 0.0
H452 H 0.63479 0.31498 0.83076 0.0
H453 H 0.6144 0.30168 0.87094 0.0
H454 H 0.61937 0.25008 0.86747 0.0
H455 H 0.57391 0.25737 0.87628 0.0
H456 H 0.46572 0.18261 0.81572 0.0
H457 H 0.48601 0.119 0.81105 0.0
H458 H 0.60265 0.18777 0.83628 0.0
C459 C 0.55908 0.33193 0.84182 0.0
C460 C 0.52702 0.34737 0.83738 0.0
C461 C 0.49078 0.31883 0.83001 0.0
C462 C 0.4865 0.27613 0.82683 0.0
C463 C 0.51868 0.26205 0.83113 0.0
C464 C 0.55427 0.28905 0.83852 0.0
C465 C 0.58453 0.2659 0.8412 0.0
C466 C 0.61881 0.28201 0.826 0.0
C467 C 0.59889 0.26894 0.86541 0.0
C468 C 0.56053 0.22184 0.83389 0.0
C469 C 0.52258 0.22032 0.82825 0.0
C470 C 0.49528 0.18337 0.82035 0.0
C471 C 0.50708 0.14714 0.81792 0.0
C472 C 0.54597 0.14771 0.82339 0.0
C473 C 0.57277 0.18584 0.83173 0.0
H474 H 0.49728 0.85426 0.53483 0.0
H475 H 0.59946 0.89828 0.49555 0.0
H476 H 0.61033 0.82945 0.4956 0.0
H477 H 0.53749 0.79319 0.56899 0.0
H478 H 0.49261 0.75183 0.57043 0.0
H479 H 0.49115 0.80381 0.56631 0.0
H480 H 0.44781 0.77729 0.53086 0.0
H481 H 0.44906 0.72514 0.53486 0.0
H482 H 0.46438 0.74835 0.50929 0.0
H483 H 0.61221 0.75702 0.50112 0.0
H484 H 0.60576 0.68644 0.51217 0.0
H485 H 0.50175 0.68741 0.5476 0.0
C486 C 0.52169 0.84932 0.52602 0.0
C487 C 0.54743 0.88194 0.5151 0.0
C488 C 0.57927 0.87406 0.50403 0.0
C489 C 0.58569 0.83492 0.50392 0.0
C490 C 0.56007 0.80367 0.51497 0.0
C491 C 0.52868 0.81032 0.52582 0.0
C492 C 0.50648 0.77168 0.53709 0.0
C493 C 0.50698 0.78068 0.56219 0.0
C494 C 0.46444 0.75461 0.52744 0.0
C495 C 0.53057 0.7425 0.53106 0.0
C496 C 0.56117 0.76161 0.51817 0.0
C497 C 0.58807 0.74156 0.51099 0.0
C498 C 0.58388 0.70109 0.51724 0.0
C499 C 0.55293 0.68055 0.53059 0.0
C500 C 0.52582 0.70185 0.53743 0.0
H501 H 0.80949 0.47652 0.8873 0.0
H502 H 0.80545 0.45204 0.81639 0.0
H503 H 0.87729 0.47936 0.81641 0.0
H504 H 0.86937 0.56756 0.8897 0.0
H505 H 0.89746 0.56595 0.91439 0.0
H506 H 0.84864 0.53215 0.91045 0.0
H507 H 0.87258 0.46759 0.91489 0.0
H508 H 0.92178 0.50128 0.91962 0.0
H509 H 0.91131 0.45993 0.89825 0.0
H510 H 0.94523 0.52649 0.82275 0.0
H511 H 1.00341 0.5842 0.83531 0.0
H512 H 0.96315 0.57616 0.90214 0.0
C513 C 0.8237 0.47435 0.87192 0.0
C514 C 0.80176 0.46229 0.85185 0.0
C515 C 0.82163 0.46148 0.83198 0.0
C516 C 0.8625 0.4767 0.83185 0.0
C517 C 0.88306 0.49166 0.85179 0.0
C518 C 0.86432 0.48943 0.87158 0.0
C519 C 0.89166 0.51342 0.89021 0.0
C520 C 0.87583 0.54672 0.90182 0.0
C521 C 0.89983 0.48378 0.90671 0.0
C522 C 0.9275 0.53272 0.87748 0.0
C523 C 0.92257 0.5189 0.85547 0.0
C524 C 0.94995 0.53649 0.84006 0.0
C525 C 0.9828 0.56936 0.8473 0.0
C526 C 0.98752 0.58463 0.86966 0.0
C527 C 0.96011 0.56512 0.88493 0.0
H528 H 0.27088 0.75919 0.15935 0.0
H529 H 0.20383 0.77835 0.21563 0.0
H530 H 0.26248 0.82919 0.23282 0.0
H531 H 0.35889 0.76435 0.19063 0.0
H532 H 0.3912 0.79103 0.17029 0.0
H533 H 0.34358 0.75705 0.16188 0.0
H534 H 0.32764 0.81706 0.14259 0.0
H535 H 0.37519 0.85127 0.15099 0.0
H536 H 0.33191 0.86535 0.15815 0.0
H537 H 0.32844 0.87699 0.24446 0.0
H538 H 0.39766 0.91721 0.2502 0.0
H539 H 0.42306 0.86754 0.18665 0.0
C540 C 0.2685 0.77389 0.17534 0.0
C541 C 0.23233 0.76486 0.18596 0.0
C542 C 0.23074 0.78521 0.20684 0.0
C543 C 0.26405 0.81403 0.21685 0.0
C544 C 0.29902 0.8223 0.2059 0.0
C545 C 0.30159 0.80279 0.18564 0.0
C546 C 0.34306 0.8169 0.17764 0.0
C547 C 0.36019 0.78014 0.17496 0.0
C548 C 0.34452 0.83896 0.15606 0.0
C549 C 0.36336 0.84714 0.19664 0.0
C550 C 0.33731 0.84987 0.21269 0.0
C551 C 0.34906 0.87533 0.23192 0.0
C552 C 0.38852 0.89841 0.23494 0.0
C553 C 0.41608 0.89607 0.21883 0.0
C554 C 0.40299 0.87005 0.19937 0.0
H555 H 0.57774 0.16403 0.51736 0.0
H556 H 0.46018 0.11181 0.53981 0.0
H557 H 0.45281 0.18215 0.54465 0.0
H558 H 0.60329 0.25355 0.55531 0.0
H559 H 0.6314 0.28804 0.53607 0.0
H560 H 0.62704 0.23344 0.53332 0.0
H561 H 0.60035 0.22958 0.49318 0.0
H562 H 0.60459 0.2842 0.49575 0.0
H563 H 0.55831 0.24708 0.48759 0.0
H564 H 0.4583 0.25825 0.54785 0.0
H565 H 0.47731 0.3347 0.55082 0.0
H566 H 0.5914 0.33871 0.52632 0.0
C567 C 0.55034 0.16733 0.52315 0.0
C568 C 0.51947 0.1321 0.52813 0.0
C569 C 0.4843 0.13807 0.53589 0.0
C570 C 0.47975 0.178 0.53864 0.0
C571 C 0.51067 0.21196 0.53363 0.0
C572 C 0.54536 0.20713 0.52614 0.0
C573 C 0.57447 0.24905 0.52271 0.0
C574 C 0.61122 0.25644 0.53776 0.0
C575 C 0.58504 0.25268 0.49836 0.0
C576 C 0.55079 0.27816 0.52961 0.0
C577 C 0.51396 0.25602 0.53567 0.0
C578 C 0.48698 0.2759 0.54299 0.0
C579 C 0.49799 0.31951 0.54444 0.0
C580 C 0.5358 0.34318 0.53868 0.0
C581 C 0.56232 0.32184 0.53097 0.0
H582 H 0.29831 0.55022 0.81223 0.0
H583 H 0.40329 0.64651 0.7981 0.0
H584 H 0.36903 0.69962 0.80491 0.0
H585 H 0.22499 0.60432 0.791 0.0
H586 H 0.19318 0.58485 0.81306 0.0
H587 H 0.22238 0.55438 0.8011 0.0
H588 H 0.25165 0.55025 0.83994 0.0
H589 H 0.22325 0.58108 0.85195 0.0
H590 H 0.27563 0.59763 0.85613 0.0
H591 H 0.3283 0.74229 0.82111 0.0
H592 H 0.28464 0.76989 0.8448 0.0
H593 H 0.20694 0.64541 0.84816 0.0
C594 C 0.31343 0.58225 0.80943 0.0
C595 C 0.35334 0.5944 0.80463 0.0
C596 C 0.37272 0.63676 0.80192 0.0
C597 C 0.35337 0.66703 0.80556 0.0
C598 C 0.31449 0.65425 0.81155 0.0
C599 C 0.29454 0.61267 0.81309 0.0
C600 C 0.25519 0.60716 0.82307 0.0
C601 C 0.22197 0.58646 0.80604 0.0
C602 C 0.25126 0.58263 0.84401 0.0
C603 C 0.2573 0.652 0.82843 0.0
C604 C 0.29112 0.67889 0.82111 0.0
C605 C 0.30123 0.72164 0.82638 0.0
C606 C 0.2765 0.73707 0.83985 0.0
C607 C 0.24277 0.70954 0.84807 0.0
C608 C 0.23257 0.66687 0.84178 0.0
H609 H 0.87199 0.22192 0.16904 0.0
H610 H 0.83244 0.33158 0.17826 0.0
H611 H 0.7698 0.28835 0.19136 0.0
H612 H 0.77849 0.14989 0.15104 0.0
H613 H 0.78644 0.10772 0.16556 0.0
H614 H 0.82744 0.14695 0.15581 0.0
H615 H 0.85858 0.16167 0.19537 0.0
H616 H 0.81771 0.12248 0.20523 0.0
H617 H 0.83091 0.17468 0.21766 0.0
H618 H 0.71175 0.23311 0.20475 0.0
H619 H 0.66405 0.1709 0.21788 0.0
H620 H 0.7418 0.09755 0.20047 0.0
C621 C 0.8503 0.23702 0.17387 0.0
C622 C 0.8574 0.28038 0.17244 0.0
C623 C 0.82773 0.29846 0.17874 0.0
C624 C 0.79202 0.27414 0.18637 0.0
C625 C 0.78618 0.23164 0.18766 0.0
C626 C 0.81453 0.21324 0.18159 0.0
C627 C 0.80136 0.1671 0.18508 0.0
C628 C 0.79824 0.14141 0.16306 0.0
C629 C 0.82877 0.15584 0.20183 0.0
C630 C 0.76137 0.1625 0.19432 0.0
C631 C 0.75302 0.20002 0.19553 0.0
C632 C 0.71794 0.20354 0.20375 0.0
C633 C 0.69087 0.16791 0.21105 0.0
C634 C 0.69897 0.12914 0.21023 0.0
C635 C 0.73473 0.12667 0.20156 0.0
H636 H 0.09031 0.51194 0.06941 0.0
H637 H 1.02099 0.5795 0.10444 0.0
H638 H 1.03423 0.63126 0.07649 0.0
H639 H 0.16398 0.60235 0.05176 0.0
H640 H 0.16844 0.57869 0.025 0.0
H641 H 0.15455 0.54687 0.04806 0.0
H642 H 0.092 0.50276 0.02622 0.0
H643 H 0.10581 0.53429 0.00306 0.0
H644 H 0.05881 0.52815 0.01485 0.0
H645 H 0.05335 0.67495 0.04498 0.0
H646 H 0.07476 0.70665 0.01017 0.0
H647 H 0.13283 0.61241 0.99502 0.0
C648 C 0.07796 0.53763 0.07111 0.0
C649 C 0.05475 0.54181 0.08911 0.0
C650 C 1.03895 0.57573 0.09081 0.0
C651 C 0.04638 0.60541 0.07506 0.0
C652 C 0.06957 0.60073 0.05762 0.0
C653 C 0.08499 0.56768 0.05539 0.0
C654 C 0.10808 0.56976 0.03461 0.0
C655 C 0.15133 0.57472 0.0402 0.0
C656 C 0.09009 0.53146 0.01875 0.0
C657 C 0.1028 0.60887 0.02552 0.0
C658 C 0.08072 0.62629 0.03919 0.0
C659 C 0.07099 0.66188 0.03418 0.0
C660 C 0.08363 0.6799 0.01443 0.0
C661 C 0.10582 0.66235 0.99987 0.0
C662 C 0.11584 0.62656 0.00572 0.0
H663 H 0.55429 0.97467 0.45287 0.0
H664 H 0.47666 0.05231 0.45445 0.0
H665 H 0.48698 0.064 0.41507 0.0
H666 H 0.62262 0.03339 0.41369 0.0
H667 H 0.62916 0.98748 0.39973 0.0
H668 H 0.6181 0.98751 0.42853 0.0
H669 H 0.55815 0.92298 0.42031 0.0
H670 H 0.56893 0.92281 0.3915 0.0
H671 H 0.52151 0.92483 0.39994 0.0
H672 H 0.50301 0.06513 0.37545 0.0
H673 H 0.52242 0.05405 0.33748 0.0
H674 H 0.5893 0.97492 0.36067 0.0
C675 C 0.53989 0.99448 0.44493 0.0
C676 C 0.51472 0.01269 0.45668 0.0
C677 C 0.49599 0.03803 0.44572 0.0
C678 C 0.50176 0.04497 0.42338 0.0
C679 C 0.52627 0.02622 0.41213 0.0
C680 C 0.54503 1.00143 0.42245 0.0
C681 C 0.56825 0.9834 0.40613 0.0
C682 C 0.61214 0.99888 0.4124 0.0
C683 C 0.5533 0.93568 0.40437 0.0
C684 C 0.55909 1.00147 0.38505 0.0
C685 C 0.53516 0.02642 0.389 0.0
C686 C 0.52203 0.04595 0.37215 0.0
C687 C 0.53343 0.03965 0.35063 0.0
C688 C 0.55762 0.01384 0.34602 0.0
C689 C 0.57069 0.9947 0.36359 0.0
H690 H 0.61079 0.53262 0.77081 0.0
H691 H 0.50142 0.43871 0.78074 0.0
H692 H 0.4835 0.43687 0.7411 0.0
H693 H 0.57588 0.58734 0.72962 0.0
H694 H 0.61914 0.5959 0.71369 0.0
H695 H 0.62234 0.59147 0.74302 0.0
H696 H 0.65372 0.53175 0.73675 0.0
H697 H 0.6509 0.53622 0.70743 0.0
H698 H 0.62888 0.48698 0.71887 0.0
H699 H 0.47716 0.44683 0.70042 0.0
H700 H 0.48528 0.46209 0.66136 0.0
H701 H 0.60207 0.5441 0.67761 0.0
C702 C 0.58299 0.51178 0.76465 0.0
C703 C 0.55707 0.48638 0.77888 0.0
C704 C 0.5213 0.45903 0.77018 0.0
C705 C 0.51094 0.45773 0.74769 0.0
C706 C 0.53702 0.48349 0.73411 0.0
C707 C 0.57256 0.50954 0.74221 0.0
C708 C 0.59625 0.53239 0.72397 0.0
C709 C 0.60383 0.57957 0.72781 0.0
C710 C 0.6347 0.52114 0.72162 0.0
C711 C 0.5685 0.51512 0.70431 0.0
C712 C 0.5343 0.48742 0.71054 0.0
C713 C 0.50405 0.46807 0.69531 0.0
C714 C 0.50914 0.47674 0.67306 0.0
C715 C 0.54455 0.50399 0.66608 0.0
C716 C 0.57439 0.52354 0.68215 0.0
H717 H 0.59977 0.98412 0.5904 0.0
H718 H 0.49782 0.02686 0.58087 0.0
H719 H 0.48672 0.02464 0.62087 0.0
H720 H 0.56074 0.91413 0.63369 0.0
H721 H 0.60707 0.92642 0.64865 0.0
H722 H 0.6056 0.92919 0.61915 0.0
H723 H 0.64938 0.00556 0.62339 0.0
H724 H 0.65087 1.00308 0.65289 0.0
H725 H 0.63429 0.04278 0.64072 0.0
H726 H 0.48867 0.02093 0.66218 0.0
H727 H 0.5035 0.0162 0.70161 0.0
H728 H 0.60376 0.97498 0.68412 0.0
C729 C 0.57491 0.99262 0.59673 0.0
C730 C 0.54963 0.00567 0.58259 0.0
C731 C 0.51754 0.01679 0.59145 0.0
C732 C 0.51098 0.01557 0.61413 0.0
C733 C 0.53672 1.00305 0.62769 0.0
C734 C 0.56798 0.99164 0.61932 0.0
C735 C 0.59201 0.98066 0.63752 0.0
C736 C 0.5913 0.93488 0.63457 0.0
C737 C 0.63413 0.00976 0.63869 0.0
C738 C 0.56975 0.98828 0.65747 0.0
C739 C 0.53782 1.0009 0.65145 0.0
C740 C 0.51339 0.01069 0.66707 0.0
C741 C 0.52195 0.00768 0.68945 0.0
C742 C 0.55474 0.9951 0.69605 0.0
C743 C 0.57867 0.98503 0.6797 0.0
H744 H 0.48194 0.43395 0.91551 0.0
H745 H 0.5811 0.53796 0.90146 0.0
H746 H 0.59671 0.55325 0.94128 0.0
H747 H 0.45296 0.48207 0.96379 0.0
H748 H 0.43967 0.43552 0.97867 0.0
H749 H 0.43643 0.43191 0.94898 0.0
H750 H 0.48131 0.38399 0.94799 0.0
H751 H 0.4846 0.38736 0.97769 0.0
H752 H 0.52846 0.40128 0.96222 0.0
H753 H 0.60082 0.5588 0.98251 0.0
H754 H 0.59465 0.55255 0.0226 0.0
H755 H 0.49317 0.4448 0.01063 0.0
C756 C 0.50703 0.45978 0.92086 0.0
C757 C 0.53025 0.48485 0.90536 0.0
C758 C 0.56284 0.51838 0.913 0.0
C759 C 0.57196 0.52735 0.93561 0.0
C760 C 0.54835 0.5024 0.95048 0.0
C761 C 0.51668 0.46914 0.94348 0.0
C762 C 0.49614 0.44742 0.96304 0.0
C763 C 0.45379 0.44936 0.96365 0.0
C764 C 0.49774 0.40234 0.96271 0.0
C765 C 0.52108 0.47381 0.98206 0.0
C766 C 0.55096 0.5054 0.97439 0.0
C767 C 0.57754 0.53417 0.98872 0.0
C768 C 0.57361 0.53054 0.0115 0.0
C769 C 0.54336 0.49832 0.01987 0.0
C770 C 0.51682 0.46958 0.00481 0.0
H771 H 1.03439 0.54808 0.22977 0.0
H772 H 0.07756 0.45261 0.19803 0.0
H773 H 0.08725 0.4272 0.23453 0.0
H774 H 0.10277 0.57207 0.27519 0.0
H775 H 0.06875 0.5815 0.29481 0.0
H776 H 0.06265 0.5901 0.26617 0.0
H777 H 0.99215 0.54012 0.26523 0.0
H778 H 0.99798 0.53147 0.29391 0.0
H779 H 0.98406 0.48803 0.27376 0.0
H780 H 0.0933 0.41338 0.27472 0.0
H781 H 0.09602 0.41243 0.31525 0.0
H782 H 0.05285 0.5202 0.32046 0.0
C783 C 0.04545 0.5215 0.23047 0.0
C784 C 0.0549 0.50199 0.21111 0.0
C785 C 0.06981 0.4677 0.2127 0.0
C786 C 0.07547 0.45315 0.23334 0.0
C787 C 0.06632 0.47347 0.25216 0.0
C788 C 0.0517 0.50696 0.2509 0.0
C789 C 0.04577 0.52451 0.27358 0.0
C790 C 0.07153 0.56972 0.27767 0.0
C791 C 1.00241 0.52079 0.2768 0.0
C792 C 0.05941 0.49572 0.28786 0.0
C793 C 0.07093 0.46635 0.27522 0.0
C794 C 0.08453 0.43637 0.28478 0.0
C795 C 0.0863 0.43636 0.30786 0.0
C796 C 0.07488 0.46639 0.3212 0.0
C797 C 0.06137 0.49645 0.31088 0.0
loop_
_geom_bond_atom_site_label_1
_geom_bond_atom_site_label_2
_geom_bond_distance
_geom_bond_site_symmetry_2
_ccdc_geom_bond_type
Nd0 C2 2.836 . S
Nd0 O20 2.500 . S
Nd0 O21 2.492 . S
Nd0 O22 2.487 . S
Nd0 O23 2.682 . S
Nd0 O24 2.410 . S
Nd0 O29 2.414 . S
Nd0 O31 2.424 1_455 S
Nd1 C11 2.839 1_455 S
Nd1 O23 2.414 . S
Nd1 O25 2.421 . S
Nd1 O26 2.502 1_455 S
Nd1 O27 2.494 1_455 S
Nd1 O28 2.487 . S
Nd1 O29 2.681 . S
Nd1 O30 2.412 1_455 S
C2 Nd0 2.836 . S
C2 C3 1.498 . S
C2 O20 1.258 . S
C2 O21 1.239 . S
C3 C2 1.498 . S
C3 C4 1.366 . S
C3 C8 1.407 . S
C4 C3 1.366 . S
C4 C5 1.392 . S
C4 H32 0.930 . S
C5 C4 1.392 . S
C5 C6 1.398 . S
C5 H33 0.929 . S
C6 C5 1.398 . S
C6 C7 1.352 . S
C7 C6 1.352 . S
C7 C8 1.384 . S
C7 H34 0.930 . S
C8 C3 1.407 . S
C8 C7 1.384 . S
C8 H35 0.929 . S
C9 O22 1.241 . S
C9 O23 1.273 . S
C10 O24 1.251 . S
C10 O25 1.268 . S
C11 Nd1 2.839 1_655 S
C11 C12 1.498 . S
C11 O26 1.258 . S
C11 O27 1.239 . S
C12 C11 1.498 . S
C12 C13 1.366 . S
C12 C17 1.407 . S
C13 C12 1.366 . S
C13 C14 1.392 . S
C13 H36 0.930 . S
C14 C13 1.392 . S
C14 C15 1.398 . S
C14 H37 0.929 . S
C15 C14 1.398 . S
C15 C16 1.352 . S
C16 C15 1.352 . S
C16 C17 1.384 . S
C16 H38 0.930 . S
C17 C12 1.407 . S
C17 C16 1.384 . S
C17 H39 0.929 . S
C18 O28 1.241 . S
C18 O29 1.273 . S
C19 O30 1.251 . S
C19 O31 1.268 . S
O20 Nd0 2.500 . S
O20 C2 1.258 . S
O21 Nd0 2.492 . S
O21 C2 1.239 . S
O22 Nd0 2.487 . S
O22 C9 1.241 . S
O23 Nd0 2.682 . S
O23 Nd1 2.414 . S
O23 C9 1.273 . S
O24 Nd0 2.410 . S
O24 C10 1.251 . S
O25 Nd1 2.421 . S
O25 C10 1.268 . S
O26 Nd1 2.502 1_655 S
O26 C11 1.258 . S
O27 Nd1 2.494 1_655 S
O27 C11 1.239 . S
O28 Nd1 2.487 . S
O28 C18 1.241 . S
O29 Nd0 2.414 . S
O29 Nd1 2.681 . S
O29 C18 1.273 . S
O30 Nd1 2.412 1_655 S
O30 C19 1.251 . S
O31 Nd0 2.424 1_655 S
O31 C19 1.268 . S
H32 C4 0.930 . S
H33 C5 0.929 . S
H34 C7 0.930 . S
H35 C8 0.929 . S
H36 C13 0.930 . S
H37 C14 0.929 . S
H38 C16 0.930 . S
H39 C17 0.929 . S
Nd40 C42 2.820 1_545 S
Nd40 O60 2.484 1_545 S
Nd40 O61 2.479 1_545 S
Nd40 O62 2.487 1_545 S
Nd40 O63 2.684 . S
Nd40 O64 2.388 1_545 S
Nd40 O69 2.411 . S
Nd40 O71 2.447 . S
Nd41 C51 2.836 . S
Nd41 O63 2.414 . S
Nd41 O65 2.424 1_545 S
Nd41 O66 2.500 . S
Nd41 O67 2.492 . S
Nd41 O68 2.487 . S
Nd41 O69 2.682 . S
Nd41 O70 2.410 . S
C42 Nd40 2.820 1_565 S
C42 C43 1.498 . S
C42 O60 1.258 . S
C42 O61 1.239 . S
C43 C42 1.498 . S
C43 C44 1.366 . S
C43 C48 1.407 . S
C44 C43 1.366 . S
C44 C45 1.392 . S
C44 H72 0.930 . S
C45 C44 1.392 . S
C45 C46 1.398 . S
C45 H73 0.929 . S
C46 C45 1.398 . S
C46 C47 1.352 . S
C47 C46 1.352 . S
C47 C48 1.384 . S
C47 H74 0.930 . S
C48 C43 1.407 . S
C48 C47 1.384 . S
C48 H75 0.929 . S
C49 O62 1.239 1_545 S
C49 O63 1.273 . S
C50 O64 1.251 . S
C50 O65 1.268 . S
C51 Nd41 2.836 . S
C51 C52 1.498 . S
C51 O66 1.258 . S
C51 O67 1.239 . S
C52 C51 1.498 . S
C52 C53 1.366 . S
C52 C57 1.407 . S
C53 C52 1.366 . S
C53 C54 1.392 . S
C53 H76 0.930 . S
C54 C53 1.392 . S
C54 C55 1.398 . S
C54 H77 0.929 . S
C55 C54 1.398 . S
C55 C56 1.352 . S
C56 C55 1.352 . S
C56 C57 1.384 . S
C56 H78 0.930 . S
C57 C52 1.407 . S
C57 C56 1.384 . S
C57 H79 0.929 . S
C58 O68 1.241 . S
C58 O69 1.273 . S
C59 O70 1.251 . S
C59 O71 1.268 . S
O60 Nd40 2.484 1_565 S
O60 C42 1.258 . S
O61 Nd40 2.479 1_565 S
O61 C42 1.239 . S
O62 Nd40 2.487 1_565 S
O62 C49 1.239 1_565 S
O63 Nd40 2.684 . S
O63 Nd41 2.414 . S
O63 C49 1.273 . S
O64 Nd40 2.388 1_565 S
O64 C50 1.251 . S
O65 Nd41 2.424 1_565 S
O65 C50 1.268 . S
O66 Nd41 2.500 . S
O66 C51 1.258 . S
O67 Nd41 2.492 . S
O67 C51 1.239 . S
O68 Nd41 2.487 . S
O68 C58 1.241 . S
O69 Nd40 2.411 . S
O69 Nd41 2.682 . S
O69 C58 1.273 . S
O70 Nd41 2.410 . S
O70 C59 1.251 . S
O71 Nd40 2.447 . S
O71 C59 1.268 . S
H72 C44 0.930 . S
H73 C45 0.929 . S
H74 C47 0.930 . S
H75 C48 0.929 . S
H76 C53 0.930 . S
H77 C54 0.929 . S
H78 C56 0.930 . S
H79 C57 0.929 . S
Nd80 C82 2.836 . S
Nd80 O100 2.500 . S
Nd80 O101 2.492 . S
Nd80 O102 2.487 . S
Nd80 O103 2.682 . S
Nd80 O104 2.410 . S
Nd80 O109 2.414 . S
Nd80 O111 2.424 . S
Nd81 C91 2.836 . S
Nd81 O103 2.414 . S
Nd81 O105 2.424 . S
Nd81 O106 2.500 . S
Nd81 O107 2.492 . S
Nd81 O108 2.487 . S
Nd81 O109 2.682 . S
Nd81 O110 2.410 . S
C82 Nd80 2.836 . S
C82 C83 1.498 . S
C82 O100 1.258 . S
C82 O101 1.239 . S
C83 C82 1.498 . S
C83 C84 1.366 . S
C83 C88 1.407 . S
C84 C83 1.366 . S
C84 C85 1.392 . S
C84 H112 0.930 . S
C85 C84 1.392 . S
C85 C86 1.398 . S
C85 H113 0.929 . S
C86 C85 1.398 . S
C86 C87 1.352 . S
C87 C86 1.352 . S
C87 C88 1.384 . S
C87 H114 0.930 . S
C88 C83 1.407 . S
C88 C87 1.384 . S
C88 H115 0.929 . S
C89 O102 1.241 . S
C89 O103 1.273 . S
C90 O104 1.251 . S
C90 O105 1.268 . S
C91 Nd81 2.836 . S
C91 C92 1.498 . S
C91 O106 1.258 . S
C91 O107 1.239 . S
C92 C91 1.498 . S
C92 C93 1.366 . S
C92 C97 1.407 . S
C93 C92 1.366 . S
C93 C94 1.392 . S
C93 H116 0.930 . S
C94 C93 1.392 . S
C94 C95 1.398 . S
C94 H117 0.929 . S
C95 C94 1.398 . S
C95 C96 1.352 . S
C96 C95 1.352 . S
C96 C97 1.384 . S
C96 H118 0.930 . S
C97 C92 1.407 . S
C97 C96 1.384 . S
C97 H119 0.929 . S
C98 O108 1.241 . S
C98 O109 1.273 . S
C99 O110 1.251 . S
C99 O111 1.268 . S
O100 Nd80 2.500 . S
O100 C82 1.258 . S
O101 Nd80 2.492 . S
O101 C82 1.239 . S
O102 Nd80 2.487 . S
O102 C89 1.241 . S
O103 Nd80 2.682 . S
O103 Nd81 2.414 . S
O103 C89 1.273 . S
O104 Nd80 2.410 . S
O104 C90 1.251 . S
O105 Nd81 2.424 . S
O105 C90 1.268 . S
O106 Nd81 2.500 . S
O106 C91 1.258 . S
O107 Nd81 2.492 . S
O107 C91 1.239 . S
O108 Nd81 2.487 . S
O108 C98 1.241 . S
O109 Nd80 2.414 . S
O109 Nd81 2.682 . S
O109 C98 1.273 . S
O110 Nd81 2.410 . S
O110 C99 1.251 . S
O111 Nd80 2.424 . S
O111 C99 1.268 . S
H112 C84 0.930 . S
H113 C85 0.929 . S
H114 C87 0.930 . S
H115 C88 0.929 . S
H116 C93 0.930 . S
H117 C94 0.929 . S
H118 C96 0.930 . S
H119 C97 0.929 . S
P120 O131 1.490 . S
P120 C134 1.812 . S
P120 C140 1.803 1_565 S
P120 C146 1.819 1_565 S
H121 C135 0.941 . S
H122 C136 0.939 . S
H123 C138 0.940 . S
H124 C139 0.940 1_545 S
H125 C141 0.939 . S
H126 C142 0.942 . S
H127 C144 0.940 . S
H128 C145 0.939 . S
H129 C147 0.941 . S
H130 C151 0.939 . S
O131 P120 1.490 . S
H132 C148 0.939 . S
H133 C150 0.940 . S
C134 P120 1.812 . S
C134 C135 1.389 . S
C134 C139 1.391 . S
C135 H121 0.941 . S
C135 C134 1.389 . S
C135 C136 1.397 . S
C136 H122 0.939 . S
C136 C135 1.397 . S
C136 C137 1.378 . S
C137 C136 1.378 . S
C137 C138 1.378 . S
C138 H123 0.940 . S
C138 C137 1.378 . S
C138 C139 1.396 . S
C139 H124 0.940 1_565 S
C139 C134 1.391 . S
C139 C138 1.396 . S
C140 P120 1.803 1_545 S
C140 C141 1.378 . S
C140 C145 1.400 . S
C141 H125 0.939 . S
C141 C140 1.378 . S
C141 C142 1.361 . S
C142 H126 0.942 . S
C142 C141 1.361 . S
C142 C143 1.369 . S
C143 C142 1.369 . S
C143 C144 1.404 . S
C144 H127 0.940 . S
C144 C143 1.404 . S
C144 C145 1.389 . S
C145 H128 0.939 . S
C145 C140 1.400 . S
C145 C144 1.389 . S
C146 P120 1.819 1_545 S
C146 C147 1.391 1_545 S
C146 C151 1.391 . S
C147 H129 0.941 . S
C147 C146 1.391 1_565 S
C147 C148 1.396 . S
C148 H132 0.939 . S
C148 C147 1.396 . S
C148 C149 1.397 1_565 S
C149 C148 1.397 1_545 S
C149 C150 1.385 . S
C150 H133 0.940 . S
C150 C149 1.385 . S
C150 C151 1.388 . S
C151 H130 0.939 . S
C151 C146 1.391 . S
C151 C150 1.388 . S
P152 O163 1.490 . S
P152 C166 1.812 . S
P152 C172 1.803 . S
P152 C178 1.819 . S
H153 C167 0.941 . S
H154 C168 0.939 . S
H155 C170 0.940 . S
H156 C171 0.940 . S
H157 C173 0.939 . S
H158 C174 0.942 . S
H159 C176 0.940 . S
H160 C177 0.939 . S
H161 C179 0.941 . S
H162 C183 0.939 . S
O163 P152 1.490 . S
H164 C180 0.939 . S
H165 C182 0.940 . S
C166 P152 1.812 . S
C166 C167 1.389 . S
C166 C171 1.391 . S
C167 H153 0.941 . S
C167 C166 1.389 . S
C167 C168 1.397 . S
C168 H154 0.939 . S
C168 C167 1.397 . S
C168 C169 1.378 . S
C169 C168 1.378 . S
C169 C170 1.378 . S
C170 H155 0.940 . S
C170 C169 1.378 . S
C170 C171 1.396 . S
C171 H156 0.940 . S
C171 C166 1.391 . S
C171 C170 1.396 . S
C172 P152 1.803 . S
C172 C173 1.378 . S
C172 C177 1.400 . S
C173 H157 0.939 . S
C173 C172 1.378 . S
C173 C174 1.361 . S
C174 H158 0.942 . S
C174 C173 1.361 . S
C174 C175 1.369 . S
C175 C174 1.369 . S
C175 C176 1.404 . S
C176 H159 0.940 . S
C176 C175 1.404 . S
C176 C177 1.389 . S
C177 H160 0.939 . S
C177 C172 1.400 . S
C177 C176 1.389 . S
C178 P152 1.819 . S
C178 C179 1.391 . S
C178 C183 1.391 . S
C179 H161 0.941 . S
C179 C178 1.391 . S
C179 C180 1.396 . S
C180 H164 0.939 . S
C180 C179 1.396 . S
C180 C181 1.397 . S
C181 C180 1.397 . S
C181 C182 1.385 . S
C182 H165 0.940 . S
C182 C181 1.385 . S
C182 C183 1.388 . S
C183 H162 0.939 . S
C183 C178 1.391 . S
C183 C182 1.388 . S
P184 O195 1.490 . S
P184 C198 1.812 . S
P184 C204 1.803 . S
P184 C210 1.819 . S
H185 C199 0.941 . S
H186 C200 0.939 . S
H187 C202 0.940 . S
H188 C203 0.940 . S
H189 C205 0.939 . S
H190 C206 0.942 . S
H191 C208 0.940 . S
H192 C209 0.939 1_455 S
H193 C211 0.941 . S
H194 C215 0.939 1_655 S
O195 P184 1.490 . S
H196 C212 0.939 . S
H197 C214 0.940 1_655 S
C198 P184 1.812 . S
C198 C199 1.389 . S
C198 C203 1.391 . S
C199 H185 0.941 . S
C199 C198 1.389 . S
C199 C200 1.397 . S
C200 H186 0.939 . S
C200 C199 1.397 . S
C200 C201 1.378 . S
C201 C200 1.378 . S
C201 C202 1.378 . S
C202 H187 0.940 . S
C202 C201 1.378 . S
C202 C203 1.396 . S
C203 H188 0.940 . S
C203 C198 1.391 . S
C203 C202 1.396 . S
C204 P184 1.803 . S
C204 C205 1.378 1_455 S
C204 C209 1.400 1_455 S
C205 H189 0.939 . S
C205 C204 1.378 1_655 S
C205 C206 1.361 . S
C206 H190 0.942 . S
C206 C205 1.361 . S
C206 C207 1.369 . S
C207 C206 1.369 . S
C207 C208 1.404 . S
C208 H191 0.940 . S
C208 C207 1.404 . S
C208 C209 1.389 . S
C209 H192 0.939 1_655 S
C209 C204 1.400 1_655 S
C209 C208 1.389 . S
C210 P184 1.819 . S
C210 C211 1.391 . S
C210 C215 1.391 . S
C211 H193 0.941 . S
C211 C210 1.391 . S
C211 C212 1.396 . S
C212 H196 0.939 . S
C212 C211 1.396 . S
C212 C213 1.397 . S
C213 C212 1.397 . S
C213 C214 1.385 . S
C214 H197 0.940 1_455 S
C214 C213 1.385 . S
C214 C215 1.388 . S
C215 H194 0.939 1_455 S
C215 C210 1.391 . S
C215 C214 1.388 . S
P216 O227 1.490 . S
P216 C230 1.812 . S
P216 C236 1.803 1_455 S
P216 C242 1.819 . S
H217 C231 0.941 . S
H218 C232 0.939 . S
H219 C234 0.940 . S
H220 C235 0.940 . S
H221 C237 0.939 . S
H222 C238 0.942 . S
H223 C240 0.940 . S
H224 C241 0.939 . S
H225 C243 0.941 . S
H226 C247 0.939 . S
O227 P216 1.490 . S
H228 C244 0.939 . S
H229 C246 0.940 . S
C230 P216 1.812 . S
C230 C231 1.389 . S
C230 C235 1.391 . S
C231 H217 0.941 . S
C231 C230 1.389 . S
C231 C232 1.397 . S
C232 H218 0.939 . S
C232 C231 1.397 . S
C232 C233 1.378 . S
C233 C232 1.378 . S
C233 C234 1.378 . S
C234 H219 0.940 . S
C234 C233 1.378 . S
C234 C235 1.396 . S
C235 H220 0.940 . S
C235 C230 1.391 . S
C235 C234 1.396 . S
C236 P216 1.803 1_655 S
C236 C237 1.378 . S
C236 C241 1.400 . S
C237 H221 0.939 . S
C237 C236 1.378 . S
C237 C238 1.361 . S
C238 H222 0.942 . S
C238 C237 1.361 . S
C238 C239 1.369 . S
C239 C238 1.369 . S
C239 C240 1.404 . S
C240 H223 0.940 . S
C240 C239 1.404 . S
C240 C241 1.389 . S
C241 H224 0.939 . S
C241 C236 1.400 . S
C241 C240 1.389 . S
C242 P216 1.819 . S
C242 C243 1.391 . S
C242 C247 1.391 1_455 S
C243 H225 0.941 . S
C243 C242 1.391 . S
C243 C244 1.396 . S
C244 H228 0.939 . S
C244 C243 1.396 . S
C244 C245 1.397 . S
C245 C244 1.397 . S
C245 C246 1.385 1_455 S
C246 H229 0.940 . S
C246 C245 1.385 1_655 S
C246 C247 1.388 . S
C247 H226 0.939 . S
C247 C242 1.391 1_655 S
C247 C246 1.388 . S
P248 O259 1.490 . S
P248 C262 1.812 . S
P248 C268 1.803 1_545 S
P248 C274 1.819 . S
H249 C263 0.941 . S
H250 C264 0.939 . S
H251 C266 0.940 . S
H252 C267 0.940 . S
H253 C269 0.939 . S
H254 C270 0.942 . S
H255 C272 0.940 . S
H256 C273 0.939 . S
H257 C275 0.941 . S
H258 C279 0.939 . S
O259 P248 1.490 . S
H260 C276 0.939 . S
H261 C278 0.940 . S
C262 P248 1.812 . S
C262 C263 1.389 . S
C262 C267 1.391 . S
C263 H249 0.941 . S
C263 C262 1.389 . S
C263 C264 1.397 . S
C264 H250 0.939 . S
C264 C263 1.397 . S
C264 C265 1.378 . S
C265 C264 1.378 . S
C265 C266 1.378 . S
C266 H251 0.940 . S
C266 C265 1.378 . S
C266 C267 1.396 . S
C267 H252 0.940 . S
C267 C262 1.391 . S
C267 C266 1.396 . S
C268 P248 1.803 1_565 S
C268 C269 1.378 . S
C268 C273 1.400 . S
C269 H253 0.939 . S
C269 C268 1.378 . S
C269 C270 1.361 . S
C270 H254 0.942 . S
C270 C269 1.361 . S
C270 C271 1.369 . S
C271 C270 1.369 . S
C271 C272 1.404 . S
C272 H255 0.940 . S
C272 C271 1.404 . S
C272 C273 1.389 . S
C273 H256 0.939 . S
C273 C268 1.400 . S
C273 C272 1.389 . S
C274 P248 1.819 . S
C274 C275 1.391 . S
C274 C279 1.391 1_545 S
C275 H257 0.941 . S
C275 C274 1.391 . S
C275 C276 1.396 . S
C276 H260 0.939 . S
C276 C275 1.396 . S
C276 C277 1.397 . S
C277 C276 1.397 . S
C277 C278 1.385 1_545 S
C278 H261 0.940 . S
C278 C277 1.385 1_565 S
C278 C279 1.388 . S
C279 H258 0.939 . S
C279 C274 1.391 1_565 S
C279 C278 1.388 . S
P280 O291 1.490 . S
P280 C294 1.812 . S
P280 C300 1.803 . S
P280 C306 1.819 . S
H281 C295 0.941 . S
H282 C296 0.939 . S
H283 C298 0.940 . S
H284 C299 0.940 . S
H285 C301 0.939 . S
H286 C302 0.942 . S
H287 C304 0.940 . S
H288 C305 0.939 . S
H289 C307 0.941 . S
H290 C311 0.939 . S
O291 P280 1.490 . S
H292 C308 0.939 . S
H293 C310 0.940 . S
C294 P280 1.812 . S
C294 C295 1.389 . S
C294 C299 1.391 . S
C295 H281 0.941 . S
C295 C294 1.389 . S
C295 C296 1.397 . S
C296 H282 0.939 . S
C296 C295 1.397 . S
C296 C297 1.378 . S
C297 C296 1.378 . S
C297 C298 1.378 . S
C298 H283 0.940 . S
C298 C297 1.378 . S
C298 C299 1.396 . S
C299 H284 0.940 . S
C299 C294 1.391 . S
C299 C298 1.396 . S
C300 P280 1.803 . S
C300 C301 1.378 . S
C300 C305 1.400 . S
C301 H285 0.939 . S
C301 C300 1.378 . S
C301 C302 1.361 . S
C302 H286 0.942 . S
C302 C301 1.361 . S
C302 C303 1.369 . S
C303 C302 1.369 . S
C303 C304 1.404 . S
C304 H287 0.940 . S
C304 C303 1.404 . S
C304 C305 1.389 . S
C305 H288 0.939 . S
C305 C300 1.400 . S
C305 C304 1.389 . S
C306 P280 1.819 . S
C306 C307 1.391 . S
C306 C311 1.391 . S
C307 H289 0.941 . S
C307 C306 1.391 . S
C307 C308 1.396 . S
C308 H292 0.939 . S
C308 C307 1.396 . S
C308 C309 1.397 . S
C309 C308 1.397 . S
C309 C310 1.385 . S
C310 H293 0.940 . S
C310 C309 1.385 . S
C310 C311 1.388 . S
C311 H290 0.939 . S
C311 C306 1.391 . S
C311 C310 1.388 . S
H312 C324 0.930 . S
H313 C326 0.930 . S
H314 C327 0.930 . S
H315 C331 0.959 . S
H316 C331 0.959 . S
H317 C331 0.961 . S
H318 C332 0.960 . S
H319 C332 0.961 . S
H320 C332 0.959 . S
H321 C335 0.929 . S
H322 C336 0.931 . S
H323 C338 0.930 . S
C324 H312 0.930 . S
C324 C325 1.399 . S
C324 C329 1.399 . S
C325 C324 1.399 . S
C325 C326 1.376 . S
C326 H313 0.930 . S
C326 C325 1.376 . S
C326 C327 1.388 . S
C327 H314 0.930 . S
C327 C326 1.388 . S
C327 C328 1.390 . S
C328 C327 1.390 . S
C328 C329 1.394 . S
C328 C334 1.465 . S
C329 C324 1.399 . S
C329 C328 1.394 . S
C329 C330 1.516 . S
C330 C329 1.516 . S
C330 C331 1.502 . S
C330 C332 1.561 . S
C330 C333 1.526 . S
C331 H315 0.959 . S
C331 H316 0.959 . S
C331 H317 0.961 . S
C331 C330 1.502 . S
C332 H318 0.960 . S
C332 H319 0.961 . S
C332 H320 0.959 . S
C332 C330 1.561 . S
C333 C330 1.526 . S
C333 C334 1.396 . S
C333 C338 1.390 . S
C334 C328 1.465 . S
C334 C333 1.396 . S
C334 C335 1.399 . S
C335 H321 0.929 . S
C335 C334 1.399 . S
C335 C336 1.385 . S
C336 H322 0.931 . S
C336 C335 1.385 . S
C336 C337 1.389 . S
C337 C336 1.389 . S
C337 C338 1.387 . S
C338 H323 0.930 . S
C338 C333 1.390 . S
C338 C337 1.387 . S
H339 C351 0.930 . S
H340 C353 0.930 . S
H341 C354 0.930 . S
H342 C358 0.959 . S
H343 C358 0.959 . S
H344 C358 0.961 . S
H345 C359 0.960 . S
H346 C359 0.961 . S
H347 C359 0.959 . S
H348 C362 0.929 . S
H349 C363 0.931 . S
H350 C365 0.930 . S
C351 H339 0.930 . S
C351 C352 1.399 . S
C351 C356 1.399 . S
C352 C351 1.399 . S
C352 C353 1.376 . S
C353 H340 0.930 . S
C353 C352 1.376 . S
C353 C354 1.388 . S
C354 H341 0.930 . S
C354 C353 1.388 . S
C354 C355 1.390 . S
C355 C354 1.390 . S
C355 C356 1.394 . S
C355 C361 1.465 . S
C356 C351 1.399 . S
C356 C355 1.394 . S
C356 C357 1.516 . S
C357 C356 1.516 . S
C357 C358 1.502 . S
C357 C359 1.561 . S
C357 C360 1.526 . S
C358 H342 0.959 . S
C358 H343 0.959 . S
C358 H344 0.961 . S
C358 C357 1.502 . S
C359 H345 0.960 . S
C359 H346 0.961 . S
C359 H347 0.959 . S
C359 C357 1.561 . S
C360 C357 1.526 . S
C360 C361 1.396 . S
C360 C365 1.390 . S
C361 C355 1.465 . S
C361 C360 1.396 . S
C361 C362 1.399 . S
C362 H348 0.929 . S
C362 C361 1.399 . S
C362 C363 1.385 . S
C363 H349 0.931 . S
C363 C362 1.385 . S
C363 C364 1.389 . S
C364 C363 1.389 . S
C364 C365 1.387 . S
C365 H350 0.930 . S
C365 C360 1.390 . S
C365 C364 1.387 . S
H366 C378 0.930 . S
H367 C380 0.930 . S
H368 C381 0.930 . S
H369 C385 0.959 . S
H370 C385 0.959 . S
H371 C385 0.961 . S
H372 C386 0.960 . S
H373 C386 0.961 . S
H374 C386 0.959 . S
H375 C389 0.929 . S
H376 C390 0.931 . S
H377 C392 0.930 . S
C378 H366 0.930 . S
C378 C379 1.399 . S
C378 C383 1.399 . S
C379 C378 1.399 . S
C379 C380 1.376 . S
C380 H367 0.930 . S
C380 C379 1.376 . S
C380 C381 1.388 . S
C381 H368 0.930 . S
C381 C380 1.388 . S
C381 C382 1.390 . S
C382 C381 1.390 . S
C382 C383 1.394 . S
C382 C388 1.465 . S
C383 C378 1.399 . S
C383 C382 1.394 . S
C383 C384 1.516 . S
C384 C383 1.516 . S
C384 C385 1.502 . S
C384 C386 1.561 . S
C384 C387 1.526 . S
C385 H369 0.959 . S
C385 H370 0.959 . S
C385 H371 0.961 . S
C385 C384 1.502 . S
C386 H372 0.960 . S
C386 H373 0.961 . S
C386 H374 0.959 . S
C386 C384 1.561 . S
C387 C384 1.526 . S
C387 C388 1.396 . S
C387 C392 1.390 . S
C388 C382 1.465 . S
C388 C387 1.396 . S
C388 C389 1.399 . S
C389 H375 0.929 . S
C389 C388 1.399 . S
C389 C390 1.385 . S
C390 H376 0.931 . S
C390 C389 1.385 . S
C390 C391 1.389 . S
C391 C390 1.389 . S
C391 C392 1.387 . S
C392 H377 0.930 . S
C392 C387 1.390 . S
C392 C391 1.387 . S
H393 C405 0.930 . S
H394 C407 0.930 . S
H395 C408 0.930 . S
H396 C412 0.959 . S
H397 C412 0.959 . S
H398 C412 0.961 . S
H399 C413 0.960 . S
H400 C413 0.961 . S
H401 C413 0.959 . S
H402 C416 0.929 . S
H403 C417 0.931 . S
H404 C419 0.930 . S
C405 H393 0.930 . S
C405 C406 1.399 . S
C405 C410 1.399 . S
C406 C405 1.399 . S
C406 C407 1.376 . S
C407 H394 0.930 . S
C407 C406 1.376 . S
C407 C408 1.388 . S
C408 H395 0.930 . S
C408 C407 1.388 . S
C408 C409 1.390 . S
C409 C408 1.390 . S
C409 C410 1.394 . S
C409 C415 1.465 . S
C410 C405 1.399 . S
C410 C409 1.394 . S
C410 C411 1.516 . S
C411 C410 1.516 . S
C411 C412 1.502 . S
C411 C413 1.561 . S
C411 C414 1.526 . S
C412 H396 0.959 . S
C412 H397 0.959 . S
C412 H398 0.961 . S
C412 C411 1.502 . S
C413 H399 0.960 . S
C413 H400 0.961 . S
C413 H401 0.959 . S
C413 C411 1.561 . S
C414 C411 1.526 . S
C414 C415 1.396 . S
C414 C419 1.390 . S
C415 C409 1.465 . S
C415 C414 1.396 . S
C415 C416 1.399 . S
C416 H402 0.929 . S
C416 C415 1.399 . S
C416 C417 1.385 . S
C417 H403 0.931 . S
C417 C416 1.385 . S
C417 C418 1.389 . S
C418 C417 1.389 . S
C418 C419 1.387 . S
C419 H404 0.930 . S
C419 C414 1.390 . S
C419 C418 1.387 . S
H420 C432 0.930 . S
H421 C434 0.930 . S
H422 C435 0.930 . S
H423 C439 0.959 . S
H424 C439 0.959 . S
H425 C439 0.961 . S
H426 C440 0.960 . S
H427 C440 0.961 . S
H428 C440 0.959 . S
H429 C443 0.929 . S
H430 C444 0.931 . S
H431 C446 0.930 . S
C432 H420 0.930 . S
C432 C433 1.399 . S
C432 C437 1.399 . S
C433 C432 1.399 . S
C433 C434 1.376 . S
C434 H421 0.930 . S
C434 C433 1.376 . S
C434 C435 1.388 . S
C435 H422 0.930 . S
C435 C434 1.388 . S
C435 C436 1.390 . S
C436 C435 1.390 . S
C436 C437 1.394 . S
C436 C442 1.465 . S
C437 C432 1.399 . S
C437 C436 1.394 . S
C437 C438 1.516 . S
C438 C437 1.516 . S
C438 C439 1.502 . S
C438 C440 1.561 . S
C438 C441 1.526 . S
C439 H423 0.959 . S
C439 H424 0.959 . S
C439 H425 0.961 . S
C439 C438 1.502 . S
C440 H426 0.960 . S
C440 H427 0.961 . S
C440 H428 0.959 . S
C440 C438 1.561 . S
C441 C438 1.526 . S
C441 C442 1.396 . S
C441 C446 1.390 . S
C442 C436 1.465 . S
C442 C441 1.396 . S
C442 C443 1.399 . S
C443 H429 0.929 . S
C443 C442 1.399 . S
C443 C444 1.385 . S
C444 H430 0.931 . S
C444 C443 1.385 . S
C444 C445 1.389 . S
C445 C444 1.389 . S
C445 C446 1.387 . S
C446 H431 0.930 . S
C446 C441 1.390 . S
C446 C445 1.387 . S
H447 C459 0.930 . S
H448 C461 0.930 . S
H449 C462 0.930 . S
H450 C466 0.959 . S
H451 C466 0.959 . S
H452 C466 0.961 . S
H453 C467 0.960 . S
H454 C467 0.961 . S
H455 C467 0.959 . S
H456 C470 0.929 . S
H457 C471 0.931 . S
H458 C473 0.930 . S
C459 H447 0.930 . S
C459 C460 1.399 . S
C459 C464 1.399 . S
C460 C459 1.399 . S
C460 C461 1.376 . S
C461 H448 0.930 . S
C461 C460 1.376 . S
C461 C462 1.388 . S
C462 H449 0.930 . S
C462 C461 1.388 . S
C462 C463 1.390 . S
C463 C462 1.390 . S
C463 C464 1.394 . S
C463 C469 1.465 . S
C464 C459 1.399 . S
C464 C463 1.394 . S
C464 C465 1.516 . S
C465 C464 1.516 . S
C465 C466 1.502 . S
C465 C467 1.561 . S
C465 C468 1.526 . S
C466 H450 0.959 . S
C466 H451 0.959 . S
C466 H452 0.961 . S
C466 C465 1.502 . S
C467 H453 0.960 . S
C467 H454 0.961 . S
C467 H455 0.959 . S
C467 C465 1.561 . S
C468 C465 1.526 . S
C468 C469 1.396 . S
C468 C473 1.390 . S
C469 C463 1.465 . S
C469 C468 1.396 . S
C469 C470 1.399 . S
C470 H456 0.929 . S
C470 C469 1.399 . S
C470 C471 1.385 . S
C471 H457 0.931 . S
C471 C470 1.385 . S
C471 C472 1.389 . S
C472 C471 1.389 . S
C472 C473 1.387 . S
C473 H458 0.930 . S
C473 C468 1.390 . S
C473 C472 1.387 . S
H474 C486 0.930 . S
H475 C488 0.930 . S
H476 C489 0.930 . S
H477 C493 0.959 . S
H478 C493 0.959 . S
H479 C493 0.961 . S
H480 C494 0.960 . S
H481 C494 0.961 . S
H482 C494 0.959 . S
H483 C497 0.929 . S
H484 C498 0.931 . S
H485 C500 0.930 . S
C486 H474 0.930 . S
C486 C487 1.399 . S
C486 C491 1.399 . S
C487 C486 1.399 . S
C487 C488 1.376 . S
C488 H475 0.930 . S
C488 C487 1.376 . S
C488 C489 1.388 . S
C489 H476 0.930 . S
C489 C488 1.388 . S
C489 C490 1.390 . S
C490 C489 1.390 . S
C490 C491 1.394 . S
C490 C496 1.465 . S
C491 C486 1.399 . S
C491 C490 1.394 . S
C491 C492 1.516 . S
C492 C491 1.516 . S
C492 C493 1.502 . S
C492 C494 1.561 . S
C492 C495 1.526 . S
C493 H477 0.959 . S
C493 H478 0.959 . S
C493 H479 0.961 . S
C493 C492 1.502 . S
C494 H480 0.960 . S
C494 H481 0.961 . S
C494 H482 0.959 . S
C494 C492 1.561 . S
C495 C492 1.526 . S
C495 C496 1.396 . S
C495 C500 1.390 . S
C496 C490 1.465 . S
C496 C495 1.396 . S
C496 C497 1.399 . S
C497 H483 0.929 . S
C497 C496 1.399 . S
C497 C498 1.385 . S
C498 H484 0.931 . S
C498 C497 1.385 . S
C498 C499 1.389 . S
C499 C498 1.389 . S
C499 C500 1.387 . S
C500 H485 0.930 . S
C500 C495 1.390 . S
C500 C499 1.387 . S
H501 C513 0.930 . S
H502 C515 0.930 . S
H503 C516 0.930 . S
H504 C520 0.959 . S
H505 C520 0.959 . S
H506 C520 0.961 . S
H507 C521 0.960 . S
H508 C521 0.961 . S
H509 C521 0.959 . S
H510 C524 0.929 . S
H511 C525 0.931 . S
H512 C527 0.930 . S
C513 H501 0.930 . S
C513 C514 1.399 . S
C513 C518 1.399 . S
C514 C513 1.399 . S
C514 C515 1.376 . S
C515 H502 0.930 . S
C515 C514 1.376 . S
C515 C516 1.388 . S
C516 H503 0.930 . S
C516 C515 1.388 . S
C516 C517 1.390 . S
C517 C516 1.390 . S
C517 C518 1.394 . S
C517 C523 1.465 . S
C518 C513 1.399 . S
C518 C517 1.394 . S
C518 C519 1.516 . S
C519 C518 1.516 . S
C519 C520 1.502 . S
C519 C521 1.561 . S
C519 C522 1.526 . S
C520 H504 0.959 . S
C520 H505 0.959 . S
C520 H506 0.961 . S
C520 C519 1.502 . S
C521 H507 0.960 . S
C521 H508 0.961 . S
C521 H509 0.959 . S
C521 C519 1.561 . S
C522 C519 1.526 . S
C522 C523 1.396 . S
C522 C527 1.390 . S
C523 C517 1.465 . S
C523 C522 1.396 . S
C523 C524 1.399 . S
C524 H510 0.929 . S
C524 C523 1.399 . S
C524 C525 1.385 . S
C525 H511 0.931 . S
C525 C524 1.385 . S
C525 C526 1.389 . S
C526 C525 1.389 . S
C526 C527 1.387 . S
C527 H512 0.930 . S
C527 C522 1.390 . S
C527 C526 1.387 . S
H528 C540 0.930 . S
H529 C542 0.930 . S
H530 C543 0.930 . S
H531 C547 0.959 . S
H532 C547 0.959 . S
H533 C547 0.961 . S
H534 C548 0.960 . S
H535 C548 0.961 . S
H536 C548 0.959 . S
H537 C551 0.929 . S
H538 C552 0.931 . S
H539 C554 0.930 . S
C540 H528 0.930 . S
C540 C541 1.399 . S
C540 C545 1.399 . S
C541 C540 1.399 . S
C541 C542 1.376 . S
C542 H529 0.930 . S
C542 C541 1.376 . S
C542 C543 1.388 . S
C543 H530 0.930 . S
C543 C542 1.388 . S
C543 C544 1.390 . S
C544 C543 1.390 . S
C544 C545 1.394 . S
C544 C550 1.465 . S
C545 C540 1.399 . S
C545 C544 1.394 . S
C545 C546 1.516 . S
C546 C545 1.516 . S
C546 C547 1.502 . S
C546 C548 1.561 . S
C546 C549 1.526 . S
C547 H531 0.959 . S
C547 H532 0.959 . S
C547 H533 0.961 . S
C547 C546 1.502 . S
C548 H534 0.960 . S
C548 H535 0.961 . S
C548 H536 0.959 . S
C548 C546 1.561 . S
C549 C546 1.526 . S
C549 C550 1.396 . S
C549 C554 1.390 . S
C550 C544 1.465 . S
C550 C549 1.396 . S
C550 C551 1.399 . S
C551 H537 0.929 . S
C551 C550 1.399 . S
C551 C552 1.385 . S
C552 H538 0.931 . S
C552 C551 1.385 . S
C552 C553 1.389 . S
C553 C552 1.389 . S
C553 C554 1.387 . S
C554 H539 0.930 . S
C554 C549 1.390 . S
C554 C553 1.387 . S
H555 C567 0.930 . S
H556 C569 0.930 . S
H557 C570 0.930 . S
H558 C574 0.959 . S
H559 C574 0.959 . S
H560 C574 0.961 . S
H561 C575 0.960 . S
H562 C575 0.961 . S
H563 C575 0.959 . S
H564 C578 0.929 . S
H565 C579 0.931 . S
H566 C581 0.930 . S
C567 H555 0.930 . S
C567 C568 1.399 . S
C567 C572 1.399 . S
C568 C567 1.399 . S
C568 C569 1.376 . S
C569 H556 0.930 . S
C569 C568 1.376 . S
C569 C570 1.388 . S
C570 H557 0.930 . S
C570 C569 1.388 . S
C570 C571 1.390 . S
C571 C570 1.390 . S
C571 C572 1.394 . S
C571 C577 1.465 . S
C572 C567 1.399 . S
C572 C571 1.394 . S
C572 C573 1.516 . S
C573 C572 1.516 . S
C573 C574 1.502 . S
C573 C575 1.561 . S
C573 C576 1.526 . S
C574 H558 0.959 . S
C574 H559 0.959 . S
C574 H560 0.961 . S
C574 C573 1.502 . S
C575 H561 0.960 . S
C575 H562 0.961 . S
C575 H563 0.959 . S
C575 C573 1.561 . S
C576 C573 1.526 . S
C576 C577 1.396 . S
C576 C581 1.390 . S
C577 C571 1.465 . S
C577 C576 1.396 . S
C577 C578 1.399 . S
C578 H564 0.929 . S
C578 C577 1.399 . S
C578 C579 1.385 . S
C579 H565 0.931 . S
C579 C578 1.385 . S
C579 C580 1.389 . S
C580 C579 1.389 . S
C580 C581 1.387 . S
C581 H566 0.930 . S
C581 C576 1.390 . S
C581 C580 1.387 . S
H582 C594 0.930 . S
H583 C596 0.930 . S
H584 C597 0.930 . S
H585 C601 0.959 . S
H586 C601 0.959 . S
H587 C601 0.961 . S
H588 C602 0.960 . S
H589 C602 0.961 . S
H590 C602 0.959 . S
H591 C605 0.929 . S
H592 C606 0.931 . S
H593 C608 0.930 . S
C594 H582 0.930 . S
C594 C595 1.399 . S
C594 C599 1.399 . S
C595 C594 1.399 . S
C595 C596 1.376 . S
C596 H583 0.930 . S
C596 C595 1.376 . S
C596 C597 1.388 . S
C597 H584 0.930 . S
C597 C596 1.388 . S
C597 C598 1.390 . S
C598 C597 1.390 . S
C598 C599 1.394 . S
C598 C604 1.465 . S
C599 C594 1.399 . S
C599 C598 1.394 . S
C599 C600 1.516 . S
C600 C599 1.516 . S
C600 C601 1.502 . S
C600 C602 1.561 . S
C600 C603 1.526 . S
C601 H585 0.959 . S
C601 H586 0.959 . S
C601 H587 0.961 . S
C601 C600 1.502 . S
C602 H588 0.960 . S
C602 H589 0.961 . S
C602 H590 0.959 . S
C602 C600 1.561 . S
C603 C600 1.526 . S
C603 C604 1.396 . S
C603 C608 1.390 . S
C604 C598 1.465 . S
C604 C603 1.396 . S
C604 C605 1.399 . S
C605 H591 0.929 . S
C605 C604 1.399 . S
C605 C606 1.385 . S
C606 H592 0.931 . S
C606 C605 1.385 . S
C606 C607 1.389 . S
C607 C606 1.389 . S
C607 C608 1.387 . S
C608 H593 0.930 . S
C608 C603 1.390 . S
C608 C607 1.387 . S
H609 C621 0.930 . S
H610 C623 0.930 . S
H611 C624 0.930 . S
H612 C628 0.959 . S
H613 C628 0.959 . S
H614 C628 0.961 . S
H615 C629 0.960 . S
H616 C629 0.961 . S
H617 C629 0.959 . S
H618 C632 0.929 . S
H619 C633 0.931 . S
H620 C635 0.930 . S
C621 H609 0.930 . S
C621 C622 1.399 . S
C621 C626 1.399 . S
C622 C621 1.399 . S
C622 C623 1.376 . S
C623 H610 0.930 . S
C623 C622 1.376 . S
C623 C624 1.388 . S
C624 H611 0.930 . S
C624 C623 1.388 . S
C624 C625 1.390 . S
C625 C624 1.390 . S
C625 C626 1.394 . S
C625 C631 1.465 . S
C626 C621 1.399 . S
C626 C625 1.394 . S
C626 C627 1.516 . S
C627 C626 1.516 . S
C627 C628 1.502 . S
C627 C629 1.561 . S
C627 C630 1.526 . S
C628 H612 0.959 . S
C628 H613 0.959 . S
C628 H614 0.961 . S
C628 C627 1.502 . S
C629 H615 0.960 . S
C629 H616 0.961 . S
C629 H617 0.959 . S
C629 C627 1.561 . S
C630 C627 1.526 . S
C630 C631 1.396 . S
C630 C635 1.390 . S
C631 C625 1.465 . S
C631 C630 1.396 . S
C631 C632 1.399 . S
C632 H618 0.929 . S
C632 C631 1.399 . S
C632 C633 1.385 . S
C633 H619 0.931 . S
C633 C632 1.385 . S
C633 C634 1.389 . S
C634 C633 1.389 . S
C634 C635 1.387 . S
C635 H620 0.930 . S
C635 C630 1.390 . S
C635 C634 1.387 . S
H636 C648 0.930 . S
H637 C650 0.930 . S
H638 C651 0.930 . S
H639 C655 0.959 . S
H640 C655 0.959 . S
H641 C655 0.961 . S
H642 C656 0.960 . S
H643 C656 0.961 . S
H644 C656 0.959 . S
H645 C659 0.929 . S
H646 C660 0.931 1_556 S
H647 C662 0.930 1_556 S
C648 H636 0.930 . S
C648 C649 1.399 . S
C648 C653 1.399 . S
C649 C648 1.399 . S
C649 C650 1.376 . S
C650 H637 0.930 . S
C650 C649 1.376 . S
C650 C651 1.388 . S
C651 H638 0.930 . S
C651 C650 1.388 . S
C651 C652 1.390 . S
C652 C651 1.390 . S
C652 C653 1.394 . S
C652 C658 1.465 . S
C653 C648 1.399 . S
C653 C652 1.394 . S
C653 C654 1.516 . S
C654 C653 1.516 . S
C654 C655 1.502 . S
C654 C656 1.561 1_455 S
C654 C657 1.526 . S
C655 H639 0.959 . S
C655 H640 0.959 . S
C655 H641 0.961 . S
C655 C654 1.502 . S
C656 H642 0.960 . S
C656 H643 0.961 . S
C656 H644 0.959 . S
C656 C654 1.561 1_655 S
C657 C654 1.526 . S
C657 C658 1.396 . S
C657 C662 1.390 . S
C658 C652 1.465 . S
C658 C657 1.396 . S
C658 C659 1.399 . S
C659 H645 0.929 . S
C659 C658 1.399 . S
C659 C660 1.385 . S
C660 H646 0.931 1_554 S
C660 C659 1.385 . S
C660 C661 1.389 1_554 S
C661 C660 1.389 1_556 S
C661 C662 1.387 1_556 S
C662 H647 0.930 1_554 S
C662 C657 1.390 . S
C662 C661 1.387 1_554 S
H663 C675 0.930 . S
H664 C677 0.930 . S
H665 C678 0.930 . S
H666 C682 0.959 . S
H667 C682 0.959 . S
H668 C682 0.961 . S
H669 C683 0.960 . S
H670 C683 0.961 . S
H671 C683 0.959 . S
H672 C686 0.929 . S
H673 C687 0.931 . S
H674 C689 0.930 1_565 S
C675 H663 0.930 . S
C675 C676 1.399 1_565 S
C675 C680 1.399 1_565 S
C676 C675 1.399 1_545 S
C676 C677 1.376 . S
C677 H664 0.930 . S
C677 C676 1.376 . S
C677 C678 1.388 . S
C678 H665 0.930 . S
C678 C677 1.388 . S
C678 C679 1.390 . S
C679 C678 1.390 . S
C679 C680 1.394 . S
C679 C685 1.465 . S
C680 C675 1.399 1_545 S
C680 C679 1.394 . S
C680 C681 1.516 1_545 S
C681 C680 1.516 1_565 S
C681 C682 1.502 . S
C681 C683 1.561 . S
C681 C684 1.526 1_565 S
C682 H666 0.959 . S
C682 H667 0.959 . S
C682 H668 0.961 . S
C682 C681 1.502 . S
C683 H669 0.960 . S
C683 H670 0.961 . S
C683 H671 0.959 . S
C683 C681 1.561 . S
C684 C681 1.526 1_545 S
C684 C685 1.396 . S
C684 C689 1.390 . S
C685 C679 1.465 . S
C685 C684 1.396 . S
C685 C686 1.399 . S
C686 H672 0.929 . S
C686 C685 1.399 . S
C686 C687 1.385 . S
C687 H673 0.931 . S
C687 C686 1.385 . S
C687 C688 1.389 . S
C688 C687 1.389 . S
C688 C689 1.387 . S
C689 H674 0.930 1_545 S
C689 C684 1.390 . S
C689 C688 1.387 . S
H690 C702 0.930 . S
H691 C704 0.930 . S
H692 C705 0.930 . S
H693 C709 0.959 . S
H694 C709 0.959 . S
H695 C709 0.961 . S
H696 C710 0.960 . S
H697 C710 0.961 . S
H698 C710 0.959 . S
H699 C713 0.929 . S
H700 C714 0.931 . S
H701 C716 0.930 . S
C702 H690 0.930 . S
C702 C703 1.399 . S
C702 C707 1.399 . S
C703 C702 1.399 . S
C703 C704 1.376 . S
C704 H691 0.930 . S
C704 C703 1.376 . S
C704 C705 1.388 . S
C705 H692 0.930 . S
C705 C704 1.388 . S
C705 C706 1.390 . S
C706 C705 1.390 . S
C706 C707 1.394 . S
C706 C712 1.465 . S
C707 C702 1.399 . S
C707 C706 1.394 . S
C707 C708 1.516 . S
C708 C707 1.516 . S
C708 C709 1.502 . S
C708 C710 1.561 . S
C708 C711 1.526 . S
C709 H693 0.959 . S
C709 H694 0.959 . S
C709 H695 0.961 . S
C709 C708 1.502 . S
C710 H696 0.960 . S
C710 H697 0.961 . S
C710 H698 0.959 . S
C710 C708 1.561 . S
C711 C708 1.526 . S
C711 C712 1.396 . S
C711 C716 1.390 . S
C712 C706 1.465 . S
C712 C711 1.396 . S
C712 C713 1.399 . S
C713 H699 0.929 . S
C713 C712 1.399 . S
C713 C714 1.385 . S
C714 H700 0.931 . S
C714 C713 1.385 . S
C714 C715 1.389 . S
C715 C714 1.389 . S
C715 C716 1.387 . S
C716 H701 0.930 . S
C716 C711 1.390 . S
C716 C715 1.387 . S
H717 C729 0.930 . S
H718 C731 0.930 . S
H719 C732 0.930 . S
H720 C736 0.959 . S
H721 C736 0.959 . S
H722 C736 0.961 . S
H723 C737 0.960 . S
H724 C737 0.961 . S
H725 C737 0.959 . S
H726 C740 0.929 . S
H727 C741 0.931 . S
H728 C743 0.930 . S
C729 H717 0.930 . S
C729 C730 1.399 . S
C729 C734 1.399 . S
C730 C729 1.399 . S
C730 C731 1.376 1_545 S
C731 H718 0.930 . S
C731 C730 1.376 1_565 S
C731 C732 1.388 . S
C732 H719 0.930 . S
C732 C731 1.388 . S
C732 C733 1.390 . S
C733 C732 1.390 . S
C733 C734 1.394 1_565 S
C733 C739 1.465 . S
C734 C729 1.399 . S
C734 C733 1.394 1_545 S
C734 C735 1.516 . S
C735 C734 1.516 . S
C735 C736 1.502 . S
C735 C737 1.561 . S
C735 C738 1.526 . S
C736 H720 0.959 . S
C736 H721 0.959 . S
C736 H722 0.961 . S
C736 C735 1.502 . S
C737 H723 0.960 . S
C737 H724 0.961 . S
C737 H725 0.959 . S
C737 C735 1.561 . S
C738 C735 1.526 . S
C738 C739 1.396 1_545 S
C738 C743 1.390 . S
C739 C733 1.465 . S
C739 C738 1.396 1_565 S
C739 C740 1.399 . S
C740 H726 0.929 . S
C740 C739 1.399 . S
C740 C741 1.385 . S
C741 H727 0.931 . S
C741 C740 1.385 . S
C741 C742 1.389 1_565 S
C742 C741 1.389 1_545 S
C742 C743 1.387 . S
C743 H728 0.930 . S
C743 C738 1.390 . S
C743 C742 1.387 . S
H744 C756 0.930 . S
H745 C758 0.930 . S
H746 C759 0.930 . S
H747 C763 0.959 . S
H748 C763 0.959 . S
H749 C763 0.961 . S
H750 C764 0.960 . S
H751 C764 0.961 . S
H752 C764 0.959 . S
H753 C767 0.929 . S
H754 C768 0.931 . S
H755 C770 0.945 . S
C756 H744 0.930 . S
C756 C757 1.399 . S
C756 C761 1.399 . S
C757 C756 1.399 . S
C757 C758 1.376 . S
C758 H745 0.930 . S
C758 C757 1.376 . S
C758 C759 1.388 . S
C759 H746 0.930 . S
C759 C758 1.388 . S
C759 C760 1.390 . S
C760 C759 1.390 . S
C760 C761 1.394 . S
C760 C766 1.465 . S
C761 C756 1.399 . S
C761 C760 1.394 . S
C761 C762 1.516 . S
C762 C761 1.516 . S
C762 C763 1.502 . S
C762 C764 1.561 . S
C762 C765 1.526 . S
C763 H747 0.959 . S
C763 H748 0.959 . S
C763 H749 0.961 . S
C763 C762 1.502 . S
C764 H750 0.960 . S
C764 H751 0.961 . S
C764 H752 0.959 . S
C764 C762 1.561 . S
C765 C762 1.526 . S
C765 C766 1.396 . S
C765 C770 1.390 . S
C766 C760 1.465 . S
C766 C765 1.396 . S
C766 C767 1.399 . S
C767 H753 0.929 . S
C767 C766 1.399 . S
C767 C768 1.385 1_556 S
C768 H754 0.931 . S
C768 C767 1.385 1_554 S
C768 C769 1.389 . S
C769 C768 1.389 . S
C769 C770 1.387 1_554 S
C770 H755 0.945 . S
C770 C765 1.390 . S
C770 C769 1.387 1_556 S
H771 C783 0.930 . S
H772 C785 0.930 . S
H773 C786 0.930 . S
H774 C790 0.959 . S
H775 C790 0.959 . S
H776 C790 0.961 . S
H777 C791 0.960 . S
H778 C791 0.961 . S
H779 C791 0.959 . S
H780 C794 0.929 . S
H781 C795 0.931 . S
H782 C797 0.930 . S
C783 H771 0.930 . S
C783 C784 1.399 . S
C783 C788 1.399 . S
C784 C783 1.399 . S
C784 C785 1.376 1_455 S
C785 H772 0.930 . S
C785 C784 1.376 1_655 S
C785 C786 1.388 . S
C786 H773 0.930 . S
C786 C785 1.388 . S
C786 C787 1.390 . S
C787 C786 1.390 . S
C787 C788 1.394 1_655 S
C787 C793 1.465 . S
C788 C783 1.399 . S
C788 C787 1.394 1_455 S
C788 C789 1.516 . S
C789 C788 1.516 . S
C789 C790 1.502 . S
C789 C791 1.561 . S
C789 C792 1.526 . S
C790 H774 0.959 . S
C790 H775 0.959 . S
C790 H776 0.961 . S
C790 C789 1.502 . S
C791 H777 0.960 . S
C791 H778 0.961 . S
C791 H779 0.959 . S
C791 C789 1.561 . S
C792 C789 1.526 . S
C792 C793 1.396 1_455 S
C792 C797 1.390 . S
C793 C787 1.465 . S
C793 C792 1.396 1_655 S
C793 C794 1.399 . S
C794 H780 0.929 . S
C794 C793 1.399 . S
C794 C795 1.385 . S
C795 H781 0.931 . S
C795 C794 1.385 . S
C795 C796 1.389 . S
C796 C795 1.389 . S
C796 C797 1.387 1_655 S
C797 H782 0.930 . S
C797 C792 1.390 . S
C797 C796 1.387 1_455 S
C325 C10 3.059 . S
C337 C303 2.991 . S
C352 C55 1.197 . S
C364 C239 1.199 . S
C379 C90 1.885 . S
C391 C271 1.871 . S
C406 C19 2.978 . S
C418 C297 2.948 . S
C445 C233 1.287 . S
C433 C46 1.305 . S
C472 C265 1.943 . S
C460 C99 1.969 . S
C487 C50 1.886 . S
C499 C175 1.804 . S
C514 C95 0.719 . S
C526 C207 0.592 . S
C541 C6 1.259 . S
C553 C137 1.277 . S
C580 C169 1.904 . S
C568 C59 1.945 . S
C607 C201 0.376 . S
C595 C86 0.447 . S
C622 C15 1.259 . S
C634 C143 1.221 . S
C661 C213 1.070 . S
C649 C18 1.108 . S
C676 C49 1.437 . S
C688 C149 1.477 . S
C703 C98 1.316 . S
C715 C181 1.336 . S
C742 C277 1.378 . S
C730 C58 1.374 . S
C769 C309 1.760 . S
C757 C89 1.731 . S
C784 C9 1.475 . S
C796 C245 1.472 1_655 S
