# Generated by pormake.
# Topology pto, (3,4)-cn, num edge types: 1
# Building blocks:
#     Node 0, Type 0, BuildingBlock: BELTOD_clean_linker_0, # of connection points: 3
#     Node 1, Type 0, BuildingBlock: BELTOD_clean_linker_0, # of connection points: 3
#     Node 2, Type 0, BuildingBlock: BELTOD_clean_linker_0, # of connection points: 3
#     Node 3, Type 0, BuildingBlock: BELTOD_clean_linker_0, # of connection points: 3
#     Node 4, Type 0, BuildingBlock: BELTOD_clean_linker_0, # of connection points: 3
#     Node 5, Type 0, BuildingBlock: BELTOD_clean_linker_0, # of connection points: 3
#     Node 6, Type 0, BuildingBlock: BELTOD_clean_linker_0, # of connection points: 3
#     Node 7, Type 0, BuildingBlock: BELTOD_clean_linker_0, # of connection points: 3
#     Node 8, Type 1, BuildingBlock: KOZSID_clean_sbu_0, # of connection points: 4
#     Node 9, Type 1, BuildingBlock: KOZSID_clean_sbu_0, # of connection points: 4
#     Node 10, Type 1, BuildingBlock: KOZSID_clean_sbu_0, # of connection points: 4
#     Node 11, Type 1, BuildingBlock: KOZSID_clean_sbu_0, # of connection points: 4
#     Node 12, Type 1, BuildingBlock: KOZSID_clean_sbu_0, # of connection points: 4
#     Node 13, Type 1, BuildingBlock: KOZSID_clean_sbu_0, # of connection points: 4
#     Edge 14, Type (0, 1), BuildingBlock: EZIPEK_clean_linker_0, # of connection points: 2
#     Edge 15, Type (0, 1), BuildingBlock: EZIPEK_clean_linker_0, # of connection points: 2
#     Edge 16, Type (0, 1), BuildingBlock: EZIPEK_clean_linker_0, # of connection points: 2
#     Edge 17, Type (0, 1), BuildingBlock: EZIPEK_clean_linker_0, # of connection points: 2
#     Edge 18, Type (0, 1), BuildingBlock: EZIPEK_clean_linker_0, # of connection points: 2
#     Edge 19, Type (0, 1), BuildingBlock: EZIPEK_clean_linker_0, # of connection points: 2
#     Edge 20, Type (0, 1), BuildingBlock: EZIPEK_clean_linker_0, # of connection points: 2
#     Edge 21, Type (0, 1), BuildingBlock: EZIPEK_clean_linker_0, # of connection points: 2
#     Edge 22, Type (0, 1), BuildingBlock: EZIPEK_clean_linker_0, # of connection points: 2
#     Edge 23, Type (0, 1), BuildingBlock: EZIPEK_clean_linker_0, # of connection points: 2
#     Edge 24, Type (0, 1), BuildingBlock: EZIPEK_clean_linker_0, # of connection points: 2
#     Edge 25, Type (0, 1), BuildingBlock: EZIPEK_clean_linker_0, # of connection points: 2
#     Edge 26, Type (0, 1), BuildingBlock: EZIPEK_clean_linker_0, # of connection points: 2
#     Edge 27, Type (0, 1), BuildingBlock: EZIPEK_clean_linker_0, # of connection points: 2
#     Edge 28, Type (0, 1), BuildingBlock: EZIPEK_clean_linker_0, # of connection points: 2
#     Edge 29, Type (0, 1), BuildingBlock: EZIPEK_clean_linker_0, # of connection points: 2
#     Edge 30, Type (0, 1), BuildingBlock: EZIPEK_clean_linker_0, # of connection points: 2
#     Edge 31, Type (0, 1), BuildingBlock: EZIPEK_clean_linker_0, # of connection points: 2
#     Edge 32, Type (0, 1), BuildingBlock: EZIPEK_clean_linker_0, # of connection points: 2
#     Edge 33, Type (0, 1), BuildingBlock: EZIPEK_clean_linker_0, # of connection points: 2
#     Edge 34, Type (0, 1), BuildingBlock: EZIPEK_clean_linker_0, # of connection points: 2
#     Edge 35, Type (0, 1), BuildingBlock: EZIPEK_clean_linker_0, # of connection points: 2
#     Edge 36, Type (0, 1), BuildingBlock: EZIPEK_clean_linker_0, # of connection points: 2
#     Edge 37, Type (0, 1), BuildingBlock: EZIPEK_clean_linker_0, # of connection points: 2
# Relax obj value: 0.000
# Max RMSD: 0.034
# Mean RMSD: 0.013
data_MOF--net-pto--node1-KOZSID_clean_sbu_0--node2-BELTOD_clean_linker_0--edge1-EZIPEK_clean_linker_0
_symmetry_space_group_name_H-M    P1
_symmetry_Int_Tables_number       1
_symmetry_cell_setting            triclinic
loop_
_symmetry_equiv_pos_as_xyz
'x, y, z'
_cell_length_a     33.874472
_cell_length_b     45.889377
_cell_length_c     39.818629
_cell_angle_alpha  86.219333
_cell_angle_beta   88.602927
_cell_angle_gamma 96.058777
loop_
_atom_site_label
_atom_site_type_symbol
_atom_site_fract_x
_atom_site_fract_y
_atom_site_fract_z
_atom_type_partial_charge
P0 P 0.31918 0.28657 0.34171 0.0
H1 H 0.37958 0.32249 0.29948 0.0
H2 H 0.40777 0.31723 0.24307 0.0
H3 H 0.32571 0.23994 0.23361 0.0
H4 H 0.29711 0.24537 0.28991 0.0
H5 H 0.30572 0.33174 0.38773 0.0
H6 H 0.25738 0.36786 0.38922 0.0
H7 H 0.20305 0.33382 0.30105 0.0
H8 H 0.25174 0.29761 0.29936 0.0
H9 H 0.35508 0.23196 0.34789 0.0
H10 H 0.24417 0.26254 0.37789 0.0
O11 O 0.35794 0.29897 0.3638 0.0
H12 H 0.33369 0.18363 0.37643 0.0
H13 H 0.22289 0.2141 0.4065 0.0
C14 C 0.3369 0.28396 0.29911 0.0
C15 C 0.36747 0.30451 0.28522 0.0
C16 C 0.38352 0.30155 0.25311 0.0
C17 C 0.36901 0.27806 0.23443 0.0
C18 C 0.33738 0.2581 0.2478 0.0
C19 C 0.3212 0.26117 0.27989 0.0
C20 C 0.28273 0.31238 0.34305 0.0
C21 C 0.28355 0.33203 0.36862 0.0
C22 C 0.25598 0.35258 0.36956 0.0
C23 C 0.22694 0.35353 0.34515 0.0
C24 C 0.22543 0.33341 0.31999 0.0
C25 C 0.25317 0.31288 0.319 0.0
C26 C 0.30113 0.25073 0.36054 0.0
C27 C 0.326 0.22818 0.36029 0.0
C28 C 0.31387 0.20068 0.37652 0.0
C29 C 0.27677 0.19542 0.39345 0.0
C30 C 0.25157 0.21784 0.39342 0.0
C31 C 0.26374 0.24541 0.37709 0.0
P32 P 0.28985 0.76399 0.708 0.0
H33 H 0.26499 0.72323 0.65745 0.0
H34 H 0.21408 0.68094 0.65811 0.0
H35 H 0.17623 0.69786 0.75847 0.0
H36 H 0.22717 0.7403 0.75786 0.0
H37 H 0.32896 0.82349 0.70749 0.0
H38 H 0.31373 0.87045 0.6805 0.0
H39 H 0.20454 0.82793 0.64499 0.0
H40 H 0.21956 0.78089 0.67212 0.0
H41 H 0.34785 0.73185 0.7431 0.0
H42 H 0.27365 0.79955 0.76479 0.0
O43 O 0.32646 0.75638 0.68229 0.0
H44 H 0.37692 0.7353 0.79873 0.0
H45 H 0.30314 0.80319 0.82043 0.0
C46 C 0.25034 0.73448 0.70787 0.0
C47 C 0.24571 0.71794 0.67957 0.0
C48 C 0.21668 0.6939 0.67988 0.0
C49 C 0.19175 0.68625 0.70842 0.0
C50 C 0.1954 0.70344 0.7363 0.0
C51 C 0.22446 0.72753 0.73596 0.0
C52 C 0.27513 0.79881 0.69229 0.0
C53 C 0.30132 0.82435 0.69453 0.0
C54 C 0.29273 0.85108 0.67911 0.0
C55 C 0.258 0.85256 0.66093 0.0
C56 C 0.23135 0.82715 0.65915 0.0
C57 C 0.23994 0.80038 0.67467 0.0
C58 C 0.30937 0.76595 0.74956 0.0
C59 C 0.33787 0.74747 0.75979 0.0
C60 C 0.35436 0.74935 0.79149 0.0
C61 C 0.34232 0.76962 0.81347 0.0
C62 C 0.31286 0.78752 0.80368 0.0
C63 C 0.29624 0.78552 0.77195 0.0
P64 P 0.83676 0.79232 0.28769 0.0
H65 H 0.88785 0.83165 0.32646 0.0
H66 H 0.87389 0.86523 0.36965 0.0
H67 H 0.74914 0.83483 0.36807 0.0
H68 H 0.763 0.80126 0.32456 0.0
H69 H 0.88542 0.75196 0.25772 0.0
H70 H 0.90562 0.7042 0.27748 0.0
H71 H 0.83473 0.70543 0.36868 0.0
H72 H 0.81464 0.75361 0.349 0.0
H73 H 0.81641 0.83053 0.231 0.0
H74 H 0.76665 0.74907 0.28326 0.0
O75 O 0.87625 0.80942 0.26595 0.0
H76 H 0.76157 0.82745 0.19183 0.0
H77 H 0.71148 0.74616 0.24404 0.0
C78 C 0.82636 0.81444 0.32186 0.0
C79 C 0.8575 0.83206 0.33547 0.0
C80 C 0.84961 0.85115 0.3601 0.0
C81 C 0.81052 0.85257 0.37173 0.0
C82 C 0.77947 0.83403 0.35921 0.0
C83 C 0.78738 0.81499 0.33441 0.0
C84 C 0.84924 0.75656 0.30221 0.0
C85 C 0.8742 0.74204 0.28199 0.0
C86 C 0.88565 0.71481 0.29317 0.0
C87 C 0.87188 0.70152 0.32457 0.0
C88 C 0.84575 0.71551 0.34443 0.0
C89 C 0.83444 0.74294 0.33325 0.0
C90 C 0.79598 0.78971 0.25953 0.0
C91 C 0.7938 0.81194 0.23396 0.0
C92 C 0.76255 0.81027 0.2117 0.0
C93 C 0.7328 0.78651 0.21502 0.0
C94 C 0.73439 0.76456 0.24109 0.0
C95 C 0.76584 0.76619 0.26331 0.0
P96 P 0.81584 0.24758 0.79907 0.0
H97 H 0.77352 0.2025 0.84505 0.0
H98 H 0.71828 0.20321 0.88608 0.0
H99 H 0.70697 0.29322 0.85299 0.0
H100 H 0.76206 0.2926 0.81195 0.0
H101 H 0.86977 0.2154 0.7619 0.0
H102 H 0.85956 0.17961 0.71896 0.0
H103 H 0.73455 0.19007 0.71987 0.0
H104 H 0.74468 0.22592 0.76312 0.0
H105 H 0.86685 0.29454 0.82645 0.0
H106 H 0.8029 0.2813 0.73534 0.0
O107 O 0.85101 0.23541 0.82328 0.0
H108 H 0.89196 0.34436 0.8044 0.0
H109 H 0.82811 0.33143 0.71328 0.0
C110 C 0.77211 0.24753 0.82572 0.0
C111 C 0.75886 0.22227 0.84634 0.0
C112 C 0.72745 0.22265 0.86969 0.0
C113 C 0.70885 0.24831 0.87257 0.0
C114 C 0.7211 0.27327 0.85107 0.0
C115 C 0.75255 0.27288 0.82772 0.0
C116 C 0.80785 0.2228 0.76612 0.0
C117 C 0.84015 0.21005 0.75288 0.0
C118 C 0.8344 0.18972 0.7284 0.0
C119 C 0.79632 0.18216 0.71654 0.0
C120 C 0.76411 0.19564 0.72891 0.0
C121 C 0.76989 0.21595 0.75357 0.0
C122 C 0.83376 0.28407 0.78222 0.0
C123 C 0.85839 0.30229 0.80165 0.0
C124 C 0.87259 0.33069 0.78917 0.0
C125 C 0.86199 0.34138 0.75723 0.0
C126 C 0.83666 0.32341 0.73795 0.0
C127 C 0.82246 0.29488 0.75048 0.0
P128 P 0.81433 0.79284 0.78969 0.0
H129 H 0.79686 0.75516 0.85115 0.0
H130 H 0.74224 0.75063 0.89347 0.0
H131 H 0.68679 0.81774 0.83695 0.0
H132 H 0.74051 0.82173 0.79422 0.0
H133 H 0.8761 0.78089 0.74265 0.0
H134 H 0.89882 0.73512 0.72484 0.0
H135 H 0.80065 0.68536 0.78075 0.0
H136 H 0.77686 0.73105 0.7973 0.0
H137 H 0.85421 0.8519 0.77296 0.0
H138 H 0.76103 0.79392 0.73291 0.0
O139 O 0.85379 0.80435 0.81145 0.0
H140 H 0.84483 0.8897 0.72846 0.0
H141 H 0.75102 0.83227 0.68855 0.0
C142 C 0.77233 0.78815 0.81899 0.0
C143 C 0.77252 0.76845 0.84746 0.0
C144 C 0.74156 0.76595 0.87165 0.0
C145 C 0.7105 0.78378 0.8682 0.0
C146 C 0.71039 0.80365 0.83987 0.0
C147 C 0.74106 0.80581 0.81541 0.0
C148 C 0.8253 0.75941 0.77187 0.0
C149 C 0.85892 0.76018 0.75045 0.0
C150 C 0.87189 0.73414 0.74031 0.0
C151 C 0.85166 0.70692 0.75187 0.0
C152 C 0.81675 0.70618 0.77177 0.0
C153 C 0.80342 0.73231 0.78146 0.0
C154 C 0.80835 0.8201 0.75612 0.0
C155 C 0.83186 0.84722 0.75454 0.0
C156 C 0.82651 0.86882 0.72921 0.0
C157 C 0.7973 0.8637 0.70529 0.0
C158 C 0.7738 0.83651 0.70676 0.0
C159 C 0.7795 0.81473 0.73195 0.0
P160 P 0.83788 0.24772 0.29605 0.0
H161 H 0.88055 0.26639 0.35514 0.0
H162 H 0.90567 0.31515 0.37239 0.0
H163 H 0.84675 0.35567 0.28968 0.0
H164 H 0.82106 0.30727 0.27279 0.0
H165 H 0.86848 0.19082 0.30742 0.0
H166 H 0.85571 0.15122 0.3518 0.0
H167 H 0.77262 0.20066 0.40119 0.0
H168 H 0.78675 0.24108 0.35732 0.0
H169 H 0.83446 0.26883 0.22587 0.0
H170 H 0.75205 0.22679 0.30311 0.0
O171 O 0.87847 0.24177 0.27404 0.0
H172 H 0.78008 0.27027 0.18647 0.0
H173 H 0.69801 0.22759 0.26342 0.0
C174 C 0.84847 0.28307 0.31292 0.0
C175 C 0.87199 0.28573 0.34132 0.0
C176 C 0.88643 0.31348 0.35111 0.0
C177 C 0.87807 0.33889 0.33221 0.0
C178 C 0.85335 0.33627 0.3046 0.0
C179 C 0.8387 0.30856 0.295 0.0
C180 C 0.82865 0.21893 0.32918 0.0
C181 C 0.84782 0.19338 0.32791 0.0
C182 C 0.84049 0.17074 0.35317 0.0
C183 C 0.81327 0.17304 0.37975 0.0
C184 C 0.79383 0.19855 0.38093 0.0
C185 C 0.80183 0.2215 0.35596 0.0
C186 C 0.79749 0.2475 0.26737 0.0
C187 C 0.80481 0.2597 0.2343 0.0
C188 C 0.77386 0.2606 0.21186 0.0
C189 C 0.73514 0.249 0.22209 0.0
C190 C 0.72775 0.23666 0.25513 0.0
C191 C 0.75868 0.23616 0.27774 0.0
P192 P 0.30174 0.29645 0.713 0.0
H193 H 0.31841 0.27399 0.64772 0.0
H194 H 0.29927 0.22684 0.62399 0.0
H195 H 0.22837 0.19755 0.71369 0.0
H196 H 0.24807 0.24482 0.73781 0.0
H197 H 0.30403 0.35617 0.73308 0.0
H198 H 0.25469 0.39164 0.73327 0.0
H199 H 0.1691 0.32865 0.69168 0.0
H200 H 0.2181 0.29285 0.69225 0.0
H201 H 0.36338 0.26167 0.73669 0.0
H202 H 0.27737 0.31192 0.7811 0.0
O203 O 0.34077 0.31301 0.69026 0.0
H204 H 0.39159 0.25297 0.79222 0.0
H205 H 0.30658 0.30416 0.83617 0.0
C206 C 0.28501 0.26269 0.69468 0.0
C207 C 0.29871 0.25752 0.66234 0.0
C208 C 0.28779 0.23067 0.64877 0.0
C209 C 0.26276 0.20872 0.66725 0.0
C210 C 0.24794 0.21421 0.69921 0.0
C211 C 0.25913 0.24108 0.71289 0.0
C212 C 0.26462 0.32181 0.71303 0.0
C213 C 0.27457 0.34991 0.7242 0.0
C214 C 0.24653 0.37012 0.72428 0.0
C215 C 0.20831 0.36268 0.71258 0.0
C216 C 0.19843 0.33468 0.70094 0.0
C217 C 0.2264 0.31428 0.70131 0.0
C218 C 0.31879 0.28786 0.75461 0.0
C219 C 0.35048 0.27071 0.75834 0.0
C220 C 0.36655 0.26575 0.78992 0.0
C221 C 0.35137 0.27819 0.81813 0.0
C222 C 0.31878 0.29453 0.81462 0.0
C223 C 0.30233 0.29912 0.78309 0.0
P224 P 0.31117 0.75726 0.34058 0.0
H225 H 0.36472 0.72488 0.30357 0.0
H226 H 0.39407 0.7317 0.24632 0.0
H227 H 0.33698 0.81076 0.22886 0.0
H228 H 0.30694 0.80368 0.28602 0.0
H229 H 0.34977 0.79969 0.38392 0.0
H230 H 0.32897 0.84397 0.40722 0.0
H231 H 0.2192 0.83268 0.35467 0.0
H232 H 0.23976 0.78784 0.33164 0.0
H233 H 0.27628 0.72065 0.28816 0.0
H234 H 0.25592 0.73109 0.39397 0.0
O235 O 0.34471 0.74471 0.36627 0.0
H236 H 0.22579 0.67827 0.29125 0.0
H237 H 0.20473 0.68869 0.39676 0.0
C238 C 0.3342 0.764 0.2992 0.0
C239 C 0.35874 0.74381 0.28755 0.0
C240 C 0.3753 0.7476 0.25492 0.0
C241 C 0.36764 0.77171 0.2335 0.0
C242 C 0.34315 0.79202 0.24512 0.0
C243 C 0.32622 0.78804 0.27774 0.0
C244 C 0.29596 0.79025 0.35657 0.0
C245 C 0.32115 0.80659 0.37747 0.0
C246 C 0.30939 0.83186 0.3907 0.0
C247 C 0.27252 0.84134 0.38281 0.0
C248 C 0.24768 0.8255 0.36112 0.0
C249 C 0.25935 0.8 0.3481 0.0
C250 C 0.26999 0.72902 0.34095 0.0
C251 C 0.26075 0.71416 0.31196 0.0
C252 C 0.2319 0.68996 0.31363 0.0
C253 C 0.21184 0.68043 0.34423 0.0
C254 C 0.22002 0.69584 0.37296 0.0
C255 C 0.24906 0.71998 0.37132 0.0
C256 C 0.08668 0.55991 0.38075 0.0
C257 C 0.09879 0.56916 0.41172 0.0
C258 C 0.07638 0.55173 0.43567 0.0
C259 C 0.05191 0.53299 0.41801 0.0
N260 N 0.0577 0.53709 0.38421 0.0
Co261 Co 0.02681 0.51605 0.34904 0.0
N262 N 0.99326 0.49079 0.38425 0.0
C263 C 0.99569 0.49142 0.41806 0.0
C264 C 0.97088 0.46992 0.43571 0.0
C265 C 0.95198 0.45421 0.41177 0.0
C266 C 0.9663 0.46723 0.38082 0.0
N267 N 0.99519 0.49563 0.31388 0.0
C268 C 0.96663 0.47257 0.31733 0.0
C269 C 0.95213 0.46492 0.28647 0.0
C270 C 0.97295 0.48344 0.26253 0.0
C271 C 0.99871 0.50132 0.2801 0.0
N272 N 0.0611 0.54058 0.31375 0.0
C273 C 0.05946 0.53919 0.27995 0.0
C274 C 0.08691 0.55877 0.26222 0.0
C275 C 0.10712 0.57373 0.28607 0.0
C276 C 0.09062 0.56242 0.31707 0.0
N277 N 0.06475 0.48584 0.34908 0.0
C278 C 0.11756 0.44243 0.34907 0.0
C279 C 0.10238 0.45322 0.31908 0.0
C280 C 0.07634 0.47486 0.31962 0.0
C281 C 0.10619 0.45368 0.37908 0.0
C282 C 0.07978 0.47515 0.37854 0.0
N283 N 0.98903 0.5465 0.34897 0.0
C284 C 0.95824 0.58532 0.31904 0.0
C285 C 0.94286 0.59402 0.34907 0.0
C286 C 0.94917 0.57783 0.37896 0.0
C287 C 0.97223 0.55428 0.37834 0.0
C288 C 0.98084 0.56159 0.31952 0.0
H289 H 0.97666 0.54311 0.40201 0.0
H290 H 0.992 0.55633 0.29576 0.0
H291 H 0.06577 0.48219 0.29591 0.0
H292 H 0.07185 0.48271 0.40226 0.0
C293 C 0.0231 0.51148 0.43239 0.0
C294 C 0.10273 0.57412 0.34879 0.0
C295 C 0.95488 0.45564 0.34886 0.0
C296 C 0.02954 0.52114 0.26559 0.0
H297 H 0.12115 0.58693 0.41648 0.0
H298 H 0.07742 0.55285 0.4627 0.0
H299 H 0.96783 0.46561 0.46276 0.0
H300 H 0.93074 0.43496 0.41652 0.0
H301 H 0.92989 0.44705 0.28175 0.0
H302 H 0.97083 0.48302 0.23548 0.0
H303 H 0.09092 0.56236 0.23516 0.0
H304 H 0.1307 0.59146 0.28121 0.0
H305 H 0.11068 0.445 0.2953 0.0
H306 H 0.11752 0.44581 0.40283 0.0
H307 H 0.9535 0.59721 0.29531 0.0
H308 H 0.93723 0.58383 0.40272 0.0
C309 C 0.06621 0.56821 0.74761 0.0
C310 C 0.08056 0.57892 0.77728 0.0
C311 C 0.06088 0.56186 0.80303 0.0
C312 C 0.03565 0.5419 0.78769 0.0
N313 N 0.03837 0.54486 0.75366 0.0
Co314 Co 0.00469 0.52206 0.72158 0.0
N315 N 0.97668 0.49636 0.75948 0.0
C316 C 0.98339 0.49751 0.79274 0.0
C317 C 0.96181 0.47564 0.81256 0.0
C318 C 0.94065 0.45907 0.79059 0.0
C319 C 0.95049 0.47199 0.75856 0.0
N320 N 0.96963 0.5002 0.68968 0.0
C321 C 0.94289 0.47617 0.69558 0.0
C322 C 0.92498 0.46771 0.66631 0.0
C323 C 0.94152 0.48686 0.64083 0.0
C324 C 0.96837 0.50587 0.656 0.0
N325 N 0.03424 0.54658 0.68354 0.0
C326 C 0.02878 0.54434 0.65024 0.0
C327 C 0.05385 0.56387 0.6301 0.0
C328 C 0.07661 0.57962 0.65184 0.0
C329 C 0.06387 0.56882 0.6841 0.0
N330 N 0.04392 0.49312 0.71876 0.0
C331 C 0.09742 0.45052 0.71555 0.0
C332 C 0.07674 0.45885 0.68726 0.0
C333 C 0.0506 0.4803 0.68929 0.0
C334 C 0.09142 0.46403 0.74533 0.0
C335 C 0.0645 0.48499 0.74646 0.0
N336 N 0.96556 0.55133 0.72446 0.0
C337 C 0.93576 0.59283 0.69919 0.0
C338 C 0.92123 0.59925 0.73057 0.0
C339 C 0.92663 0.58025 0.75843 0.0
C340 C 0.94872 0.55658 0.75485 0.0
C341 C 0.95717 0.56861 0.69663 0.0
H342 H 0.95272 0.54351 0.77731 0.0
H343 H 0.96757 0.56493 0.67199 0.0
H344 H 0.03582 0.48595 0.66681 0.0
H345 H 0.06061 0.49418 0.77006 0.0
C346 C 0.01029 0.51939 0.80449 0.0
C347 C 0.07947 0.58135 0.71439 0.0
C348 C 0.93554 0.4596 0.72799 0.0
C349 C 0.99709 0.5259 0.63891 0.0
H350 H 0.10279 0.59728 0.78002 0.0
H351 H 0.06451 0.56379 0.82975 0.0
H352 H 0.96202 0.47186 0.83967 0.0
H353 H 0.92078 0.43939 0.79734 0.0
H354 H 0.90328 0.44901 0.66357 0.0
H355 H 0.93619 0.48601 0.61421 0.0
H356 H 0.05459 0.56697 0.6029 0.0
H357 H 0.09932 0.59754 0.64482 0.0
H358 H 0.08082 0.44886 0.66369 0.0
H359 H 0.10711 0.45813 0.76774 0.0
H360 H 0.9316 0.60693 0.67692 0.0
H361 H 0.91527 0.58441 0.78314 0.0
C362 C 0.28097 0.98148 0.57853 0.0
C363 C 0.31685 0.97524 0.59186 0.0
C364 C 0.34577 0.99377 0.57476 0.0
C365 C 0.32595 0.01028 0.55219 0.0
N366 N 0.28605 0.00365 0.55413 0.0
Co367 Co 0.24581 0.02239 0.52631 0.0
N368 N 0.28857 0.04707 0.49843 0.0
C369 C 0.32824 0.04608 0.50025 0.0
C370 C 0.3501 0.06577 0.47786 0.0
C371 C 0.32279 0.08048 0.46104 0.0
C372 C 0.28576 0.06893 0.47435 0.0
N373 N 0.20562 0.04216 0.49941 0.0
C374 C 0.21085 0.06555 0.47648 0.0
C375 C 0.17491 0.07416 0.46579 0.0
C376 C 0.14583 0.05578 0.48292 0.0
C377 C 0.16563 0.03719 0.5031 0.0
N378 N 0.20314 0.99671 0.55328 0.0
C379 C 0.16346 0.99596 0.54957 0.0
C380 C 0.14172 0.97448 0.56985 0.0
C381 C 0.16916 0.96025 0.58711 0.0
C382 C 0.20615 0.97406 0.57641 0.0
N383 N 0.245 0.05344 0.55874 0.0
C384 C 0.24331 0.10106 0.59954 0.0
C385 C 0.20863 0.08299 0.59414 0.0
C386 C 0.21009 0.05954 0.57358 0.0
C387 C 0.27901 0.09426 0.58554 0.0
C388 C 0.27926 0.07037 0.56566 0.0
N389 N 0.24656 0.99135 0.49383 0.0
C390 C 0.2119 0.95662 0.45861 0.0
C391 C 0.24686 0.9441 0.45236 0.0
C392 C 0.28186 0.95617 0.46596 0.0
C393 C 0.28111 0.97973 0.48632 0.0
C394 C 0.21239 0.98006 0.47939 0.0
H395 H 0.30877 0.98775 0.49618 0.0
H396 H 0.18467 0.98835 0.48381 0.0
H397 H 0.18252 0.04699 0.56964 0.0
H398 H 0.30747 0.06642 0.55566 0.0
C399 C 0.34408 0.0294 0.52621 0.0
C400 C 0.24334 0.96415 0.58792 0.0
C401 C 0.24915 0.08107 0.46529 0.0
C402 C 0.14766 0.01538 0.52636 0.0
H403 H 0.32166 0.9583 0.6111 0.0
H404 H 0.37755 0.99422 0.57741 0.0
H405 H 0.38211 0.06994 0.47524 0.0
H406 H 0.32939 0.09845 0.44207 0.0
H407 H 0.17028 0.09221 0.44794 0.0
H408 H 0.11405 0.05635 0.48144 0.0
H409 H 0.10976 0.96937 0.57138 0.0
H410 H 0.16275 0.94152 0.6051 0.0
H411 H 0.18045 0.08743 0.60504 0.0
H412 H 0.30661 0.1076 0.58962 0.0
H413 H 0.18424 0.94791 0.44813 0.0
H414 H 0.30961 0.94713 0.46131 0.0
C415 C 0.45583 0.8064 0.08193 0.0
C416 C 0.44535 0.83322 0.09122 0.0
C417 C 0.46635 0.85427 0.07016 0.0
C418 C 0.48837 0.83911 0.04939 0.0
N419 N 0.48214 0.80961 0.05543 0.0
Co420 Co 0.51003 0.77926 0.03303 0.0
N421 N 0.54409 0.8103 0.00452 0.0
C422 C 0.54217 0.83966 0.00342 0.0
C423 C 0.56829 0.85534 0.98045 0.0
C424 C 0.58799 0.83479 0.96583 0.0
C425 C 0.57276 0.80766 0.98093 0.0
N426 N 0.53875 0.7489 0.01147 0.0
C427 C 0.569 0.75217 0.98818 0.0
C428 C 0.58116 0.72532 0.98069 0.0
C429 C 0.55751 0.70426 0.99973 0.0
C430 C 0.53252 0.7194 0.0178 0.0
N431 N 0.47524 0.74824 0.06094 0.0
C432 C 0.47421 0.71878 0.05963 0.0
C433 C 0.44778 0.70316 0.08244 0.0
C434 C 0.43132 0.72385 0.09968 0.0
C435 C 0.44878 0.75097 0.0863 0.0
N436 N 0.47049 0.77762 0.99676 0.0
C437 C 0.42289 0.77614 0.93984 0.0
C438 C 0.43445 0.75034 0.95506 0.0
C439 C 0.45785 0.75154 0.98344 0.0
C440 C 0.43357 0.8025 0.95437 0.0
C441 C 0.45708 0.80272 0.98273 0.0
N442 N 0.54976 0.78089 0.06884 0.0
C443 C 0.58773 0.75625 0.11051 0.0
C444 C 0.60803 0.78296 0.11793 0.0
C445 C 0.59845 0.80868 0.10093 0.0
C446 C 0.56923 0.80718 0.07673 0.0
C447 C 0.55892 0.75571 0.08599 0.0
H448 H 0.56302 0.82752 0.06459 0.0
H449 H 0.5446 0.73465 0.0812 0.0
H450 H 0.46601 0.73113 0.9936 0.0
H451 H 0.46466 0.82358 0.9923 0.0
C452 C 0.51625 0.85192 0.02491 0.0
C453 C 0.44142 0.77859 0.10004 0.0
C454 C 0.58649 0.78008 0.97188 0.0
C455 C 0.50187 0.70653 0.0398 0.0
H456 H 0.42523 0.83712 0.11158 0.0
H457 H 0.46637 0.87784 0.07053 0.0
H458 H 0.57256 0.8789 0.97504 0.0
H459 H 0.61097 0.83927 0.94625 0.0
H460 H 0.60445 0.72135 0.96301 0.0
H461 H 0.55815 0.68071 1.00008 0.0
H462 H 0.4425 0.67954 0.08708 0.0
H463 H 0.40991 0.71946 0.12049 0.0
H464 H 0.42627 0.72943 0.94459 0.0
H465 H 0.42468 0.82293 0.94334 0.0
H466 H 0.5944 0.73588 0.12335 0.0
H467 H 0.61359 0.82979 0.10621 0.0
C468 C 0.82446 0.97705 0.59595 0.0
C469 C 0.86033 0.97096 0.60948 0.0
C470 C 0.88933 0.98901 0.59189 0.0
C471 C 0.8696 0.00512 0.56889 0.0
N472 N 0.82968 0.99857 0.57079 0.0
Co473 Co 0.78955 0.01729 0.54276 0.0
N474 N 0.83244 0.04211 0.51515 0.0
C475 C 0.87213 0.04145 0.5175 0.0
C476 C 0.89414 0.06045 0.49454 0.0
C477 C 0.86694 0.07422 0.47651 0.0
C478 C 0.82976 0.06289 0.48976 0.0
N479 N 0.74941 0.03688 0.51557 0.0
C480 C 0.75466 0.05941 0.49154 0.0
C481 C 0.71868 0.06786 0.48066 0.0
C482 C 0.68961 0.05004 0.49846 0.0
C483 C 0.7094 0.03196 0.51923 0.0
N484 N 0.7467 0.99159 0.56953 0.0
C485 C 0.70705 0.99068 0.56552 0.0
C486 C 0.68515 0.96962 0.58622 0.0
C487 C 0.71242 0.95599 0.60432 0.0
C488 C 0.7495 0.9697 0.59365 0.0
N489 N 0.78835 0.0482 0.57536 0.0
C490 C 0.78679 0.09234 0.62093 0.0
C491 C 0.7518 0.07603 0.61263 0.0
C492 C 0.75323 0.05421 0.58987 0.0
C493 C 0.82253 0.08643 0.60623 0.0
C494 C 0.82266 0.06437 0.58372 0.0
N495 N 0.79076 0.98636 0.51021 0.0
C496 C 0.75695 0.9528 0.47323 0.0
C497 C 0.79248 0.94166 0.46538 0.0
C498 C 0.8271 0.9531 0.48007 0.0
C499 C 0.82562 0.97533 0.5022 0.0
C500 C 0.75675 0.97503 0.49559 0.0
H501 H 0.85308 0.98318 0.51253 0.0
H502 H 0.72873 0.98263 0.50069 0.0
H503 H 0.72553 0.04255 0.58442 0.0
H504 H 0.85091 0.06084 0.57344 0.0
C505 C 0.88784 0.02455 0.5433 0.0
C506 C 0.78649 0.96093 0.60695 0.0
C507 C 0.79299 0.07358 0.4784 0.0
C508 C 0.69131 0.01008 0.54229 0.0
H509 H 0.86508 0.95471 0.62951 0.0
H510 H 0.92109 0.98971 0.59488 0.0
H511 H 0.92617 0.06439 0.49182 0.0
H512 H 0.87372 0.09116 0.45636 0.0
H513 H 0.71393 0.0852 0.46191 0.0
H514 H 0.65782 0.05039 0.49666 0.0
H515 H 0.65318 0.96465 0.58779 0.0
H516 H 0.7058 0.93788 0.62312 0.0
H517 H 0.72353 0.0801 0.62369 0.0
H518 H 0.85026 0.09871 0.61226 0.0
H519 H 0.72953 0.94439 0.46212 0.0
H520 H 0.85522 0.94495 0.47437 0.0
C521 C 0.46739 0.29322 0.08822 0.0
C522 C 0.46265 0.32117 0.09794 0.0
C523 C 0.48708 0.34033 0.07716 0.0
C524 C 0.50537 0.32305 0.05617 0.0
N525 N 0.49356 0.294 0.0618 0.0
Co526 Co 0.51511 0.26093 0.03917 0.0
N527 N 0.55351 0.28896 0.01057 0.0
C528 C 0.55646 0.31865 0.00925 0.0
C529 C 0.5844 0.33202 0.98617 0.0
C530 C 0.60004 0.30955 0.97161 0.0
C531 C 0.58071 0.28368 0.98682 0.0
N532 N 0.53793 0.22776 0.01776 0.0
C533 C 0.56765 0.22825 0.99424 0.0
C534 C 0.57487 0.20013 0.98683 0.0
C535 C 0.54856 0.18114 0.00621 0.0
C536 C 0.52701 0.19868 0.02436 0.0
N537 N 0.4756 0.23302 0.06678 0.0
C538 C 0.46907 0.20359 0.06503 0.0
C539 C 0.44016 0.19034 0.08737 0.0
C540 C 0.42776 0.21261 0.10466 0.0
C541 C 0.45004 0.2382 0.09186 0.0
N542 N 0.47599 0.26327 0.00286 0.0
C543 C 0.42963 0.26741 0.94548 0.0
C544 C 0.4387 0.2402 0.95884 0.0
C545 C 0.46131 0.2386 0.98761 0.0
C546 C 0.44201 0.29234 0.96221 0.0
C547 C 0.46502 0.2898 0.99066 0.0
N548 N 0.55436 0.25855 0.07505 0.0
C549 C 0.58559 0.23028 0.11823 0.0
C550 C 0.61136 0.25485 0.12474 0.0
C551 C 0.60792 0.28139 0.1065 0.0
C552 C 0.57921 0.2828 0.08205 0.0
C553 C 0.55761 0.23255 0.0933 0.0
H554 H 0.57777 0.30369 0.06902 0.0
H555 H 0.53904 0.21298 0.08913 0.0
H556 H 0.46724 0.21719 0.99648 0.0
H557 H 0.47431 0.30973 0.00174 0.0
C558 C 0.53402 0.33331 0.03119 0.0
C559 C 0.44757 0.26657 0.10568 0.0
C560 C 0.58909 0.2547 0.9776 0.0
C561 C 0.49433 0.18869 0.04571 0.0
H562 H 0.44395 0.32704 0.1183 0.0
H563 H 0.49155 0.364 0.0777 0.0
H564 H 0.5926 0.35533 0.98075 0.0
H565 H 0.62307 0.31192 0.95199 0.0
H566 H 0.5965 0.19401 0.96887 0.0
H567 H 0.54497 0.15741 0.00646 0.0
H568 H 0.43059 0.16711 0.0917 0.0
H569 H 0.40576 0.21023 0.12511 0.0
H570 H 0.4291 0.22034 0.94668 0.0
H571 H 0.43506 0.31381 0.95268 0.0
H572 H 0.58743 0.20935 0.13206 0.0
H573 H 0.62742 0.30091 0.11105 0.0
C574 C 0.21052 0.40501 0.33188 0.0
C575 C 0.19854 0.37607 0.34579 0.0
C576 C 0.13275 0.39019 0.36058 0.0
C577 C 0.14571 0.41963 0.34882 0.0
N578 N 0.19875 0.45633 0.32879 0.0
N579 N 0.15077 0.34167 0.37753 0.0
C580 C 0.18513 0.4274 0.33595 0.0
C581 C 0.16031 0.3688 0.3613 0.0
N582 N 0.24582 0.41092 0.31408 0.0
N583 N 0.0938 0.3825 0.37012 0.0
H584 H 0.16986 0.32524 0.37793 0.0
H585 H 0.12523 0.33606 0.39263 0.0
H586 H 0.07301 0.39766 0.37087 0.0
H587 H 0.08135 0.36087 0.37506 0.0
H588 H 0.25426 0.43068 0.30012 0.0
H589 H 0.26547 0.39519 0.31099 0.0
H590 H 0.22836 0.46371 0.3228 0.0
H591 H 0.18113 0.47337 0.33168 0.0
C592 C 0.17657 0.63143 0.71543 0.0
C593 C 0.16286 0.65946 0.70954 0.0
C594 C 0.09425 0.63642 0.70798 0.0
C595 C 0.10837 0.60839 0.71158 0.0
N596 N 0.16279 0.57859 0.71356 0.0
N597 N 0.11002 0.68889 0.69528 0.0
C598 C 0.14955 0.60572 0.71374 0.0
C599 C 0.12202 0.66204 0.70445 0.0
N600 N 0.21516 0.62945 0.72382 0.0
N601 N 0.05426 0.63851 0.70875 0.0
H602 H 0.1295 0.70814 0.69281 0.0
H603 H 0.08146 0.69186 0.68766 0.0
H604 H 0.03309 0.62019 0.71031 0.0
H605 H 0.04194 0.65825 0.71015 0.0
H606 H 0.22593 0.60987 0.73205 0.0
H607 H 0.23593 0.64777 0.7252 0.0
H608 H 0.19267 0.57534 0.71137 0.0
H609 H 0.14372 0.55924 0.71295 0.0
C610 C 0.92226 0.67376 0.35399 0.0
C611 C 0.88618 0.67327 0.3366 0.0
C612 C 0.88267 0.61964 0.33588 0.0
C613 C 0.92144 0.6207 0.34874 0.0
N614 N 0.97944 0.64857 0.36891 0.0
N615 N 0.83186 0.64647 0.3101 0.0
C616 C 0.94139 0.64766 0.35798 0.0
C617 C 0.86607 0.64634 0.3276 0.0
N618 N 0.93812 0.69923 0.3667 0.0
N619 N 0.86165 0.59301 0.33206 0.0
H620 H 0.81807 0.66547 0.30486 0.0
H621 H 0.81819 0.62817 0.29921 0.0
H622 H 0.87308 0.57313 0.33805 0.0
H623 H 0.8319 0.59044 0.32578 0.0
H624 H 0.96207 0.70046 0.38263 0.0
H625 H 0.92528 0.71888 0.3636 0.0
H626 H 0.99746 0.66797 0.37199 0.0
H627 H 0.99413 0.62989 0.37304 0.0
C628 C 0.91758 0.37597 0.73028 0.0
C629 C 0.8783 0.37141 0.7442 0.0
C630 C 0.87374 0.4245 0.73918 0.0
C631 C 0.91473 0.42915 0.73002 0.0
N632 N 0.97666 0.41003 0.71767 0.0
N633 N 0.81886 0.3907 0.76332 0.0
C634 C 0.93686 0.40506 0.7254 0.0
C635 C 0.85611 0.3955 0.74866 0.0
N636 N 0.93619 0.3524 0.72156 0.0
N637 N 0.85181 0.44787 0.73869 0.0
H638 H 0.80462 0.36972 0.76972 0.0
H639 H 0.80288 0.40741 0.77095 0.0
H640 H 0.86413 0.46939 0.73226 0.0
H641 H 0.82104 0.44582 0.74194 0.0
H642 H 0.9633 0.35423 0.70831 0.0
H643 H 0.92289 0.33081 0.72511 0.0
H644 H 0.99546 0.39352 0.71748 0.0
H645 H 0.99159 0.43103 0.7132 0.0
C646 C 0.2702 0.16381 0.44766 0.0
C647 C 0.26534 0.16663 0.41232 0.0
C648 C 0.24807 0.1134 0.41165 0.0
C649 C 0.25149 0.11077 0.44711 0.0
N650 N 0.25836 0.13337 0.49985 0.0
N651 N 0.24279 0.14557 0.36142 0.0
C652 C 0.26015 0.13602 0.46543 0.0
C653 C 0.2521 0.14182 0.39454 0.0
N654 N 0.28601 0.18744 0.46398 0.0
N655 N 0.24241 0.08866 0.39426 0.0
H656 H 0.24566 0.1661 0.34814 0.0
H657 H 0.22922 0.12886 0.34786 0.0
H658 H 0.23837 0.06754 0.40609 0.0
H659 H 0.24424 0.08886 0.36811 0.0
H660 H 0.29469 0.18606 0.48887 0.0
H661 H 0.29319 0.20828 0.45196 0.0
H662 H 0.26084 0.15121 0.51479 0.0
H663 H 0.25107 0.11332 0.51361 0.0
C664 C 0.4014 0.78649 0.84662 0.0
C665 C 0.3619 0.77274 0.84623 0.0
C666 C 0.36065 0.76482 0.90782 0.0
C667 C 0.40146 0.77567 0.90773 0.0
N668 N 0.46263 0.79268 0.87679 0.0
N669 N 0.3052 0.74541 0.87556 0.0
C670 C 0.42239 0.78545 0.87705 0.0
C671 C 0.34176 0.76104 0.87663 0.0
N672 N 0.4185 0.80123 0.81806 0.0
N673 N 0.33978 0.75878 0.93773 0.0
H674 H 0.29033 0.74237 0.85322 0.0
H675 H 0.2909 0.73357 0.8964 0.0
H676 H 0.35277 0.76117 0.96102 0.0
H677 H 0.30907 0.75377 0.93949 0.0
H678 H 0.44557 0.81433 0.81765 0.0
H679 H 0.40401 0.80256 0.79528 0.0
H680 H 0.48014 0.79669 0.85478 0.0
H681 H 0.47919 0.79227 0.89853 0.0
C682 C 0.8019 0.86714 0.43102 0.0
C683 C 0.80224 0.87465 0.39586 0.0
C684 C 0.79566 0.92604 0.40624 0.0
C685 C 0.79383 0.91833 0.44139 0.0
N686 N 0.78846 0.8813 0.48755 0.0
N687 N 0.79265 0.90955 0.34962 0.0
C688 C 0.79491 0.88874 0.45388 0.0
C689 C 0.79695 0.90362 0.38337 0.0
N690 N 0.80944 0.83958 0.44246 0.0
N691 N 0.79775 0.95495 0.39479 0.0
H692 H 0.79427 0.89382 0.33202 0.0
H693 H 0.78437 0.92934 0.33924 0.0
H694 H 0.79617 0.97198 0.41073 0.0
H695 H 0.80385 0.96239 0.36976 0.0
H696 H 0.81421 0.8336 0.46758 0.0
H697 H 0.81339 0.82295 0.42643 0.0
H698 H 0.78483 0.85975 0.49796 0.0
H699 H 0.78366 0.89665 0.505 0.0
C700 C 0.63721 0.24679 0.89139 0.0
C701 C 0.67796 0.24953 0.89942 0.0
C702 C 0.66011 0.25255 0.95909 0.0
C703 C 0.61968 0.2522 0.95062 0.0
N704 N 0.5694 0.25246 0.90885 0.0
N705 N 0.72906 0.25919 0.93962 0.0
C706 C 0.6081 0.25027 0.91677 0.0
C707 C 0.68967 0.25349 0.93297 0.0
N708 N 0.62637 0.24005 0.85973 0.0
N709 N 0.6701 0.25147 0.9922 0.0
H710 H 0.75164 0.25985 0.92122 0.0
H711 H 0.73935 0.26553 0.96274 0.0
H712 H 0.6493 0.25145 0.01196 0.0
H713 H 0.69843 0.24836 1.0003 0.0
H714 H 0.59709 0.23465 0.85314 0.0
H715 H 0.64696 0.2377 0.84044 0.0
H716 H 0.55976 0.25459 0.88428 0.0
H717 H 0.5471 0.25417 0.92693 0.0
C718 C 0.23658 0.90341 0.65903 0.0
C719 C 0.25114 0.88041 0.64187 0.0
C720 C 0.25424 0.91082 0.58867 0.0
C721 C 0.24361 0.93477 0.60644 0.0
N722 N 0.22884 0.95542 0.65879 0.0
N723 N 0.27855 0.8629 0.59142 0.0
C724 C 0.23575 0.93147 0.64172 0.0
C725 C 0.26111 0.88424 0.6069 0.0
N726 N 0.22289 0.89819 0.69168 0.0
N727 N 0.25724 0.91345 0.55427 0.0
H728 H 0.28355 0.84293 0.60376 0.0
H729 H 0.29081 0.86571 0.56705 0.0
H730 H 0.25229 0.93258 0.54011 0.0
H731 H 0.26149 0.89605 0.53957 0.0
H732 H 0.20814 0.91303 0.7046 0.0
H733 H 0.22345 0.87795 0.70514 0.0
H734 H 0.22733 0.95529 0.68494 0.0
H735 H 0.22727 0.97616 0.6468 0.0
C736 C 0.70626 0.77262 0.15938 0.0
C737 C 0.70019 0.78468 0.19076 0.0
C738 C 0.63266 0.7938 0.17539 0.0
C739 C 0.63987 0.78385 0.14301 0.0
N740 N 0.6853 0.76824 0.10196 0.0
N741 N 0.66012 0.81002 0.2276 0.0
C742 C 0.67716 0.7744 0.1344 0.0
C743 C 0.66402 0.79616 0.19852 0.0
N744 N 0.73954 0.75895 0.15376 0.0
N745 N 0.5955 0.80024 0.18432 0.0
H746 H 0.68203 0.81144 0.24556 0.0
H747 H 0.63643 0.82185 0.23298 0.0
H748 H 0.57215 0.79952 0.16774 0.0
H749 H 0.58694 0.8043 0.20871 0.0
H750 H 0.74368 0.74685 0.13297 0.0
H751 H 0.76184 0.75769 0.17124 0.0
H752 H 0.71334 0.76437 0.09317 0.0
H753 H 0.66482 0.76941 0.0829 0.0
C754 C 0.78532 0.12922 0.70386 0.0
C755 C 0.79035 0.15926 0.69195 0.0
C756 C 0.78726 0.14524 0.63358 0.0
C757 C 0.7863 0.11532 0.64544 0.0
N758 N 0.7884 0.07848 0.69124 0.0
N759 N 0.79946 0.19646 0.64601 0.0
C760 C 0.7862 0.10718 0.68045 0.0
C761 C 0.79204 0.16746 0.65691 0.0
N762 N 0.7791 0.12183 0.73756 0.0
N763 N 0.78288 0.15229 0.60006 0.0
H764 H 0.8019 0.21334 0.66239 0.0
H765 H 0.80564 0.20379 0.62096 0.0
H766 H 0.77992 0.13658 0.58224 0.0
H767 H 0.77917 0.17335 0.59014 0.0
H768 H 0.77097 0.10046 0.74759 0.0
H769 H 0.77896 0.1374 0.75549 0.0
H770 H 0.79315 0.07156 0.7161 0.0
H771 H 0.78826 0.06161 0.67491 0.0
C772 C 0.42625 0.26354 0.20044 0.0
C773 C 0.38816 0.27382 0.20137 0.0
C774 C 0.38689 0.2755 0.1397 0.0
C775 C 0.42655 0.26825 0.13878 0.0
N776 N 0.48619 0.25882 0.16756 0.0
N777 N 0.33395 0.29315 0.17226 0.0
C778 C 0.44687 0.26318 0.16898 0.0
C779 C 0.36882 0.28066 0.17108 0.0
N780 N 0.44216 0.25328 0.22958 0.0
N781 N 0.3664 0.27704 0.11059 0.0
H782 H 0.31977 0.29717 0.19478 0.0
H783 H 0.3206 0.30163 0.15102 0.0
H784 H 0.37905 0.27392 0.08712 0.0
H785 H 0.33612 0.27913 0.10995 0.0
H786 H 0.46782 0.24264 0.2302 0.0
H787 H 0.42787 0.25307 0.25311 0.0
H788 H 0.50386 0.25836 0.18858 0.0
H789 H 0.50211 0.25785 0.14498 0.0
C790 C 0.85022 0.65864 0.7248 0.0
C791 C 0.86921 0.6793 0.74582 0.0
C792 C 0.92441 0.64923 0.75269 0.0
C793 C 0.90337 0.62702 0.73493 0.0
N794 N 0.84363 0.60848 0.70817 0.0
N795 N 0.92021 0.69124 0.7856 0.0
C796 C 0.86551 0.63113 0.72203 0.0
C797 C 0.90518 0.67376 0.76139 0.0
N798 N 0.81834 0.66565 0.70674 0.0
N799 N 0.96324 0.64736 0.76036 0.0
H800 H 0.90656 0.70906 0.79348 0.0
H801 H 0.94401 0.68631 0.80025 0.0
H802 H 0.97872 0.62991 0.75408 0.0
H803 H 0.98122 0.66449 0.76999 0.0
H804 H 0.80579 0.65277 0.68836 0.0
H805 H 0.80651 0.68565 0.70805 0.0
H806 H 0.81416 0.60914 0.70158 0.0
H807 H 0.85384 0.58802 0.70583 0.0
C808 C 0.93916 0.37507 0.33074 0.0
C809 C 0.89811 0.36815 0.33917 0.0
C810 C 0.89381 0.41878 0.35396 0.0
C811 C 0.93536 0.42499 0.34784 0.0
N812 N 0.99899 0.40789 0.33696 0.0
N813 N 0.83774 0.3815 0.36433 0.0
C814 C 0.95848 0.4027 0.33834 0.0
C815 C 0.87581 0.38947 0.35248 0.0
N816 N 0.95928 0.35581 0.31401 0.0
N817 N 0.87143 0.44107 0.36009 0.0
H818 H 0.82374 0.36018 0.36363 0.0
H819 H 0.82125 0.39525 0.3774 0.0
H820 H 0.88377 0.46271 0.36187 0.0
H821 H 0.84051 0.43857 0.36104 0.0
H822 H 0.98794 0.36105 0.3038 0.0
H823 H 0.94623 0.33541 0.30758 0.0
H824 H 0.0176 0.39169 0.33303 0.0
H825 H 0.01416 0.4278 0.34276 0.0
C826 C 0.18536 0.41037 0.69045 0.0
C827 C 0.17885 0.38452 0.71233 0.0
C828 C 0.11629 0.40028 0.73298 0.0
C829 C 0.12526 0.42763 0.71409 0.0
N830 N 0.17197 0.46085 0.67953 0.0
N831 N 0.14166 0.35702 0.75867 0.0
C832 C 0.1608 0.43328 0.69404 0.0
C833 C 0.14521 0.38 0.73475 0.0
N834 N 0.2143 0.41269 0.66559 0.0
N835 N 0.07973 0.39332 0.74846 0.0
H836 H 0.16242 0.34183 0.7611 0.0
H837 H 0.12004 0.35451 0.778 0.0
H838 H 0.05768 0.40755 0.74772 0.0
H839 H 0.07002 0.37249 0.75943 0.0
H840 H 0.21769 0.4297 0.64675 0.0
H841 H 0.23253 0.39616 0.66183 0.0
H842 H 0.19962 0.46697 0.66766 0.0
H843 H 0.1552 0.47842 0.68206 0.0
C844 C 0.19804 0.62574 0.35361 0.0
C845 C 0.18359 0.65334 0.34641 0.0
C846 C 0.11575 0.62921 0.34362 0.0
C847 C 0.13068 0.60154 0.34841 0.0
N848 N 0.18584 0.57264 0.35377 0.0
N849 N 0.13018 0.68184 0.33105 0.0
C850 C 0.17181 0.59957 0.35231 0.0
C851 C 0.14278 0.65523 0.34047 0.0
N852 N 0.2367 0.62466 0.36231 0.0
N853 N 0.07563 0.63054 0.34274 0.0
H854 H 0.14898 0.70144 0.32953 0.0
H855 H 0.10183 0.68443 0.32267 0.0
H856 H 0.05503 0.61188 0.34428 0.0
H857 H 0.06245 0.65001 0.34272 0.0
H858 H 0.24801 0.60557 0.37152 0.0
H859 H 0.2571 0.64331 0.36265 0.0
H860 H 0.21588 0.56972 0.35277 0.0
H861 H 0.16734 0.55298 0.35361 0.0
C862 C 0.80252 0.88503 0.6452 0.0
C863 C 0.79095 0.8874 0.67935 0.0
C864 C 0.7764 0.93801 0.66614 0.0
C865 C 0.78581 0.93504 0.63175 0.0
N866 N 0.8001 0.90433 0.58715 0.0
N867 N 0.75855 0.91339 0.72094 0.0
C868 C 0.79636 0.90803 0.62083 0.0
C869 C 0.77533 0.9131 0.6894 0.0
N870 N 0.82111 0.86151 0.63633 0.0
N871 N 0.76975 0.96486 0.67674 0.0
H872 H 0.75673 0.89536 0.7385 0.0
H873 H 0.74313 0.9304 0.7286 0.0
H874 H 0.76973 0.98355 0.66035 0.0
H875 H 0.76723 0.96913 0.70203 0.0
H876 H 0.83417 0.86017 0.61262 0.0
H877 H 0.82639 0.84427 0.65346 0.0
H878 H 0.80374 0.8842 0.57749 0.0
H879 H 0.79616 0.92086 0.56863 0.0
C880 C 0.67186 0.26804 0.2027 0.0
C881 C 0.70245 0.24968 0.19791 0.0
C882 C 0.67496 0.23652 0.14392 0.0
C883 C 0.6424 0.25269 0.15022 0.0
N884 N 0.60562 0.27909 0.18857 0.0
N885 N 0.72853 0.21169 0.16762 0.0
C886 C 0.63958 0.26707 0.18052 0.0
C887 C 0.70266 0.2325 0.16957 0.0
N888 N 0.67441 0.28727 0.22755 0.0
N889 N 0.68034 0.22598 0.113 0.0
H890 H 0.74887 0.20774 0.1862 0.0
H891 H 0.72724 0.19647 0.14928 0.0
H892 H 0.66105 0.22881 0.09331 0.0
H893 H 0.70585 0.2168 0.10586 0.0
H894 H 0.65519 0.30336 0.2299 0.0
H895 H 0.69785 0.28896 0.24405 0.0
H896 H 0.60026 0.28711 0.21193 0.0
H897 H 0.58121 0.27861 0.17307 0.0
C898 C 0.27086 0.15493 0.66557 0.0
C899 C 0.25291 0.17984 0.65293 0.0
C900 C 0.22596 0.15251 0.60626 0.0
C901 C 0.24282 0.12728 0.61954 0.0
N902 N 0.2724 0.1022 0.666 0.0
N903 N 0.20584 0.20043 0.61639 0.0
C904 C 0.26242 0.12779 0.65059 0.0
C905 C 0.22799 0.17797 0.62489 0.0
N906 N 0.29751 0.1575 0.69072 0.0
N907 N 0.20978 0.15272 0.57514 0.0
H908 H 0.20655 0.21934 0.62965 0.0
H909 H 0.18411 0.19916 0.59833 0.0
H910 H 0.20727 0.13452 0.56072 0.0
H911 H 0.20153 0.1716 0.56245 0.0
H912 H 0.31494 0.141 0.69823 0.0
H913 H 0.30463 0.17698 0.70239 0.0
H914 H 0.28322 0.10068 0.69024 0.0
H915 H 0.26619 0.08189 0.65585 0.0
C916 C 0.42752 0.78282 0.19478 0.0
C917 C 0.38586 0.77559 0.19896 0.0
C918 C 0.38004 0.77458 0.13775 0.0
C919 C 0.42203 0.77838 0.13411 0.0
N920 N 0.48627 0.78205 0.15917 0.0
N921 N 0.32268 0.76059 0.17516 0.0
C922 C 0.44595 0.78143 0.16263 0.0
C923 C 0.36205 0.77054 0.17061 0.0
N924 N 0.44931 0.79189 0.22137 0.0
N925 N 0.35745 0.7751 0.10979 0.0
H926 H 0.30844 0.75719 0.19883 0.0
H927 H 0.30481 0.75344 0.15577 0.0
H928 H 0.36976 0.77743 0.08536 0.0
H929 H 0.32678 0.77557 0.11076 0.0
H930 H 0.47908 0.80037 0.21902 0.0
H931 H 0.43674 0.79354 0.24525 0.0
H932 H 0.50462 0.78023 0.17964 0.0
H933 H 0.50112 0.78187 0.13594 0.0
C934 C 0.81623 0.15175 0.43958 0.0
C935 C 0.80485 0.14828 0.40585 0.0
C936 C 0.78626 0.09567 0.41944 0.0
C937 C 0.79493 0.0996 0.4536 0.0
N938 N 0.81001 0.13212 0.49776 0.0
N939 N 0.77022 0.1186 0.36571 0.0
C940 C 0.80724 0.12795 0.46418 0.0
C941 C 0.78718 0.1207 0.39639 0.0
N942 N 0.83741 0.17717 0.4478 0.0
N943 N 0.77837 0.06799 0.40881 0.0
H944 H 0.76945 0.13664 0.34846 0.0
H945 H 0.75353 0.09969 0.35877 0.0
H946 H 0.77717 0.04909 0.42502 0.0
H947 H 0.77618 0.06368 0.38353 0.0
H948 H 0.85014 0.17968 0.47113 0.0
H949 H 0.8454 0.19494 0.43042 0.0
H950 H 0.81495 0.1528 0.50716 0.0
H951 H 0.8038 0.1151 0.51645 0.0
C952 C 0.35106 0.25876 0.87883 0.0
C953 C 0.37105 0.2754 0.85097 0.0
C954 C 0.43061 0.28386 0.88413 0.0
C955 C 0.40925 0.27003 0.91299 0.0
N956 N 0.34715 0.24856 0.9394 0.0
N957 N 0.4269 0.30899 0.82917 0.0
C958 C 0.36885 0.25864 0.91081 0.0
C959 C 0.41003 0.28944 0.85419 0.0
N960 N 0.31575 0.24229 0.87449 0.0
N961 N 0.47085 0.29071 0.88489 0.0
H962 H 0.41252 0.31424 0.80707 0.0
H963 H 0.45353 0.32212 0.83176 0.0
H964 H 0.48729 0.28651 0.90615 0.0
H965 H 0.48843 0.29792 0.86351 0.0
H966 H 0.30187 0.22734 0.89304 0.0
H967 H 0.30201 0.24158 0.85135 0.0
H968 H 0.31655 0.24286 0.93979 0.0
H969 H 0.35911 0.24834 0.9633 0.0
C970 C 0.27354 0.89613 0.3829 0.0
C971 C 0.26016 0.86781 0.39794 0.0
C972 C 0.23357 0.88965 0.44713 0.0
C973 C 0.24725 0.918 0.4322 0.0
N974 N 0.27197 0.94891 0.38342 0.0
N975 N 0.22095 0.83727 0.44067 0.0
C976 C 0.26466 0.92143 0.39923 0.0
C977 C 0.23792 0.8645 0.42886 0.0
N978 N 0.29577 0.89875 0.35351 0.0
N979 N 0.21817 0.8867 0.47939 0.0
H980 H 0.22456 0.81825 0.42848 0.0
H981 H 0.20087 0.83364 0.46109 0.0
H982 H 0.21316 0.90455 0.49318 0.0
H983 H 0.2124 0.86666 0.49338 0.0
H984 H 0.31056 0.91849 0.34327 0.0
H985 H 0.30123 0.88075 0.34007 0.0
H986 H 0.28113 0.95291 0.35825 0.0
H987 H 0.26558 0.96782 0.39474 0.0
C988 C 0.63919 0.77149 0.88791 0.0
C989 C 0.67874 0.78239 0.89487 0.0
C990 C 0.65848 0.78842 0.95331 0.0
C991 C 0.61842 0.78044 0.94534 0.0
N992 N 0.56934 0.76878 0.90407 0.0
N993 N 0.72479 0.80645 0.93225 0.0
C994 C 0.60836 0.77325 0.9123 0.0
C995 C 0.68811 0.79225 0.92709 0.0
N996 N 0.63133 0.7585 0.85853 0.0
N997 N 0.66825 0.79186 0.98604 0.0
H998 H 0.74711 0.81029 0.9135 0.0
H999 H 0.7319 0.81684 0.95413 0.0
H1000 H 0.64721 0.78954 0.00588 0.0
H1001 H 0.69744 0.79455 0.99388 0.0
H1002 H 0.60385 0.74745 0.8536 0.0
H1003 H 0.65324 0.75641 0.84025 0.0
H1004 H 0.56014 0.76667 0.87949 0.0
H1005 H 0.54594 0.76952 0.92142 0.0
loop_
_geom_bond_atom_site_label_1
_geom_bond_atom_site_label_2
_geom_bond_distance
_geom_bond_site_symmetry_2
_ccdc_geom_bond_type
P0 O11 1.490 . S
P0 C14 1.812 . S
P0 C20 1.803 . S
P0 C26 1.819 . S
H1 C15 0.941 . S
H2 C16 0.939 . S
H3 C18 0.940 . S
H4 C19 0.940 . S
H5 C21 0.939 . S
H6 C22 0.942 . S
H7 C24 0.940 . S
H8 C25 0.939 . S
H9 C27 0.941 . S
H10 C31 0.939 . S
O11 P0 1.490 . S
H12 C28 0.939 . S
H13 C30 0.940 . S
C14 P0 1.812 . S
C14 C15 1.389 . S
C14 C19 1.391 . S
C15 H1 0.941 . S
C15 C14 1.389 . S
C15 C16 1.397 . S
C16 H2 0.939 . S
C16 C15 1.397 . S
C16 C17 1.378 . S
C17 C16 1.378 . S
C17 C18 1.378 . S
C18 H3 0.940 . S
C18 C17 1.378 . S
C18 C19 1.396 . S
C19 H4 0.940 . S
C19 C14 1.391 . S
C19 C18 1.396 . S
C20 P0 1.803 . S
C20 C21 1.378 . S
C20 C25 1.400 . S
C21 H5 0.939 . S
C21 C20 1.378 . S
C21 C22 1.361 . S
C22 H6 0.942 . S
C22 C21 1.361 . S
C22 C23 1.369 . S
C23 C22 1.369 . S
C23 C24 1.404 . S
C24 H7 0.940 . S
C24 C23 1.404 . S
C24 C25 1.389 . S
C25 H8 0.939 . S
C25 C20 1.400 . S
C25 C24 1.389 . S
C26 P0 1.819 . S
C26 C27 1.391 . S
C26 C31 1.391 . S
C27 H9 0.941 . S
C27 C26 1.391 . S
C27 C28 1.396 . S
C28 H12 0.939 . S
C28 C27 1.396 . S
C28 C29 1.397 . S
C29 C28 1.397 . S
C29 C30 1.385 . S
C30 H13 0.940 . S
C30 C29 1.385 . S
C30 C31 1.388 . S
C31 H10 0.939 . S
C31 C26 1.391 . S
C31 C30 1.388 . S
P32 O43 1.490 . S
P32 C46 1.812 . S
P32 C52 1.803 . S
P32 C58 1.819 . S
H33 C47 0.941 . S
H34 C48 0.939 . S
H35 C50 0.940 . S
H36 C51 0.940 . S
H37 C53 0.939 . S
H38 C54 0.942 . S
H39 C56 0.940 . S
H40 C57 0.939 . S
H41 C59 0.941 . S
H42 C63 0.939 . S
O43 P32 1.490 . S
H44 C60 0.939 . S
H45 C62 0.940 . S
C46 P32 1.812 . S
C46 C47 1.389 . S
C46 C51 1.391 . S
C47 H33 0.941 . S
C47 C46 1.389 . S
C47 C48 1.397 . S
C48 H34 0.939 . S
C48 C47 1.397 . S
C48 C49 1.378 . S
C49 C48 1.378 . S
C49 C50 1.378 . S
C50 H35 0.940 . S
C50 C49 1.378 . S
C50 C51 1.396 . S
C51 H36 0.940 . S
C51 C46 1.391 . S
C51 C50 1.396 . S
C52 P32 1.803 . S
C52 C53 1.378 . S
C52 C57 1.400 . S
C53 H37 0.939 . S
C53 C52 1.378 . S
C53 C54 1.361 . S
C54 H38 0.942 . S
C54 C53 1.361 . S
C54 C55 1.369 . S
C55 C54 1.369 . S
C55 C56 1.404 . S
C56 H39 0.940 . S
C56 C55 1.404 . S
C56 C57 1.389 . S
C57 H40 0.939 . S
C57 C52 1.400 . S
C57 C56 1.389 . S
C58 P32 1.819 . S
C58 C59 1.391 . S
C58 C63 1.391 . S
C59 H41 0.941 . S
C59 C58 1.391 . S
C59 C60 1.396 . S
C60 H44 0.939 . S
C60 C59 1.396 . S
C60 C61 1.397 . S
C61 C60 1.397 . S
C61 C62 1.385 . S
C62 H45 0.940 . S
C62 C61 1.385 . S
C62 C63 1.388 . S
C63 H42 0.939 . S
C63 C58 1.391 . S
C63 C62 1.388 . S
P64 O75 1.490 . S
P64 C78 1.812 . S
P64 C84 1.803 . S
P64 C90 1.819 . S
H65 C79 0.941 . S
H66 C80 0.939 . S
H67 C82 0.940 . S
H68 C83 0.940 . S
H69 C85 0.939 . S
H70 C86 0.942 . S
H71 C88 0.940 . S
H72 C89 0.939 . S
H73 C91 0.941 . S
H74 C95 0.939 . S
O75 P64 1.490 . S
H76 C92 0.939 . S
H77 C94 0.940 . S
C78 P64 1.812 . S
C78 C79 1.389 . S
C78 C83 1.391 . S
C79 H65 0.941 . S
C79 C78 1.389 . S
C79 C80 1.397 . S
C80 H66 0.939 . S
C80 C79 1.397 . S
C80 C81 1.378 . S
C81 C80 1.378 . S
C81 C82 1.378 . S
C82 H67 0.940 . S
C82 C81 1.378 . S
C82 C83 1.396 . S
C83 H68 0.940 . S
C83 C78 1.391 . S
C83 C82 1.396 . S
C84 P64 1.803 . S
C84 C85 1.378 . S
C84 C89 1.400 . S
C85 H69 0.939 . S
C85 C84 1.378 . S
C85 C86 1.361 . S
C86 H70 0.942 . S
C86 C85 1.361 . S
C86 C87 1.369 . S
C87 C86 1.369 . S
C87 C88 1.404 . S
C88 H71 0.940 . S
C88 C87 1.404 . S
C88 C89 1.389 . S
C89 H72 0.939 . S
C89 C84 1.400 . S
C89 C88 1.389 . S
C90 P64 1.819 . S
C90 C91 1.391 . S
C90 C95 1.391 . S
C91 H73 0.941 . S
C91 C90 1.391 . S
C91 C92 1.396 . S
C92 H76 0.939 . S
C92 C91 1.396 . S
C92 C93 1.397 . S
C93 C92 1.397 . S
C93 C94 1.385 . S
C94 H77 0.940 . S
C94 C93 1.385 . S
C94 C95 1.388 . S
C95 H74 0.939 . S
C95 C90 1.391 . S
C95 C94 1.388 . S
P96 O107 1.490 . S
P96 C110 1.812 . S
P96 C116 1.803 . S
P96 C122 1.819 . S
H97 C111 0.941 . S
H98 C112 0.939 . S
H99 C114 0.940 . S
H100 C115 0.940 . S
H101 C117 0.939 . S
H102 C118 0.942 . S
H103 C120 0.940 . S
H104 C121 0.939 . S
H105 C123 0.941 . S
H106 C127 0.939 . S
O107 P96 1.490 . S
H108 C124 0.939 . S
H109 C126 0.940 . S
C110 P96 1.812 . S
C110 C111 1.389 . S
C110 C115 1.391 . S
C111 H97 0.941 . S
C111 C110 1.389 . S
C111 C112 1.397 . S
C112 H98 0.939 . S
C112 C111 1.397 . S
C112 C113 1.378 . S
C113 C112 1.378 . S
C113 C114 1.378 . S
C114 H99 0.940 . S
C114 C113 1.378 . S
C114 C115 1.396 . S
C115 H100 0.940 . S
C115 C110 1.391 . S
C115 C114 1.396 . S
C116 P96 1.803 . S
C116 C117 1.378 . S
C116 C121 1.400 . S
C117 H101 0.939 . S
C117 C116 1.378 . S
C117 C118 1.361 . S
C118 H102 0.942 . S
C118 C117 1.361 . S
C118 C119 1.369 . S
C119 C118 1.369 . S
C119 C120 1.404 . S
C120 H103 0.940 . S
C120 C119 1.404 . S
C120 C121 1.389 . S
C121 H104 0.939 . S
C121 C116 1.400 . S
C121 C120 1.389 . S
C122 P96 1.819 . S
C122 C123 1.391 . S
C122 C127 1.391 . S
C123 H105 0.941 . S
C123 C122 1.391 . S
C123 C124 1.396 . S
C124 H108 0.939 . S
C124 C123 1.396 . S
C124 C125 1.397 . S
C125 C124 1.397 . S
C125 C126 1.385 . S
C126 H109 0.940 . S
C126 C125 1.385 . S
C126 C127 1.388 . S
C127 H106 0.939 . S
C127 C122 1.391 . S
C127 C126 1.388 . S
P128 O139 1.490 . S
P128 C142 1.812 . S
P128 C148 1.803 . S
P128 C154 1.819 . S
H129 C143 0.941 . S
H130 C144 0.939 . S
H131 C146 0.940 . S
H132 C147 0.940 . S
H133 C149 0.939 . S
H134 C150 0.942 . S
H135 C152 0.940 . S
H136 C153 0.939 . S
H137 C155 0.941 . S
H138 C159 0.939 . S
O139 P128 1.490 . S
H140 C156 0.939 . S
H141 C158 0.940 . S
C142 P128 1.812 . S
C142 C143 1.389 . S
C142 C147 1.391 . S
C143 H129 0.941 . S
C143 C142 1.389 . S
C143 C144 1.397 . S
C144 H130 0.939 . S
C144 C143 1.397 . S
C144 C145 1.378 . S
C145 C144 1.378 . S
C145 C146 1.378 . S
C146 H131 0.940 . S
C146 C145 1.378 . S
C146 C147 1.396 . S
C147 H132 0.940 . S
C147 C142 1.391 . S
C147 C146 1.396 . S
C148 P128 1.803 . S
C148 C149 1.378 . S
C148 C153 1.400 . S
C149 H133 0.939 . S
C149 C148 1.378 . S
C149 C150 1.361 . S
C150 H134 0.942 . S
C150 C149 1.361 . S
C150 C151 1.369 . S
C151 C150 1.369 . S
C151 C152 1.404 . S
C152 H135 0.940 . S
C152 C151 1.404 . S
C152 C153 1.389 . S
C153 H136 0.939 . S
C153 C148 1.400 . S
C153 C152 1.389 . S
C154 P128 1.819 . S
C154 C155 1.391 . S
C154 C159 1.391 . S
C155 H137 0.941 . S
C155 C154 1.391 . S
C155 C156 1.396 . S
C156 H140 0.939 . S
C156 C155 1.396 . S
C156 C157 1.397 . S
C157 C156 1.397 . S
C157 C158 1.385 . S
C158 H141 0.940 . S
C158 C157 1.385 . S
C158 C159 1.388 . S
C159 H138 0.939 . S
C159 C154 1.391 . S
C159 C158 1.388 . S
P160 O171 1.490 . S
P160 C174 1.812 . S
P160 C180 1.803 . S
P160 C186 1.819 . S
H161 C175 0.941 . S
H162 C176 0.939 . S
H163 C178 0.940 . S
H164 C179 0.940 . S
H165 C181 0.939 . S
H166 C182 0.942 . S
H167 C184 0.940 . S
H168 C185 0.939 . S
H169 C187 0.941 . S
H170 C191 0.939 . S
O171 P160 1.490 . S
H172 C188 0.939 . S
H173 C190 0.940 . S
C174 P160 1.812 . S
C174 C175 1.389 . S
C174 C179 1.391 . S
C175 H161 0.941 . S
C175 C174 1.389 . S
C175 C176 1.397 . S
C176 H162 0.939 . S
C176 C175 1.397 . S
C176 C177 1.378 . S
C177 C176 1.378 . S
C177 C178 1.378 . S
C178 H163 0.940 . S
C178 C177 1.378 . S
C178 C179 1.396 . S
C179 H164 0.940 . S
C179 C174 1.391 . S
C179 C178 1.396 . S
C180 P160 1.803 . S
C180 C181 1.378 . S
C180 C185 1.400 . S
C181 H165 0.939 . S
C181 C180 1.378 . S
C181 C182 1.361 . S
C182 H166 0.942 . S
C182 C181 1.361 . S
C182 C183 1.369 . S
C183 C182 1.369 . S
C183 C184 1.404 . S
C184 H167 0.940 . S
C184 C183 1.404 . S
C184 C185 1.389 . S
C185 H168 0.939 . S
C185 C180 1.400 . S
C185 C184 1.389 . S
C186 P160 1.819 . S
C186 C187 1.391 . S
C186 C191 1.391 . S
C187 H169 0.941 . S
C187 C186 1.391 . S
C187 C188 1.396 . S
C188 H172 0.939 . S
C188 C187 1.396 . S
C188 C189 1.397 . S
C189 C188 1.397 . S
C189 C190 1.385 . S
C190 H173 0.940 . S
C190 C189 1.385 . S
C190 C191 1.388 . S
C191 H170 0.939 . S
C191 C186 1.391 . S
C191 C190 1.388 . S
P192 O203 1.490 . S
P192 C206 1.812 . S
P192 C212 1.803 . S
P192 C218 1.819 . S
H193 C207 0.941 . S
H194 C208 0.939 . S
H195 C210 0.940 . S
H196 C211 0.940 . S
H197 C213 0.939 . S
H198 C214 0.942 . S
H199 C216 0.940 . S
H200 C217 0.939 . S
H201 C219 0.941 . S
H202 C223 0.939 . S
O203 P192 1.490 . S
H204 C220 0.939 . S
H205 C222 0.940 . S
C206 P192 1.812 . S
C206 C207 1.389 . S
C206 C211 1.391 . S
C207 H193 0.941 . S
C207 C206 1.389 . S
C207 C208 1.397 . S
C208 H194 0.939 . S
C208 C207 1.397 . S
C208 C209 1.378 . S
C209 C208 1.378 . S
C209 C210 1.378 . S
C210 H195 0.940 . S
C210 C209 1.378 . S
C210 C211 1.396 . S
C211 H196 0.940 . S
C211 C206 1.391 . S
C211 C210 1.396 . S
C212 P192 1.803 . S
C212 C213 1.378 . S
C212 C217 1.400 . S
C213 H197 0.939 . S
C213 C212 1.378 . S
C213 C214 1.361 . S
C214 H198 0.942 . S
C214 C213 1.361 . S
C214 C215 1.369 . S
C215 C214 1.369 . S
C215 C216 1.404 . S
C216 H199 0.940 . S
C216 C215 1.404 . S
C216 C217 1.389 . S
C217 H200 0.939 . S
C217 C212 1.400 . S
C217 C216 1.389 . S
C218 P192 1.819 . S
C218 C219 1.391 . S
C218 C223 1.391 . S
C219 H201 0.941 . S
C219 C218 1.391 . S
C219 C220 1.396 . S
C220 H204 0.939 . S
C220 C219 1.396 . S
C220 C221 1.397 . S
C221 C220 1.397 . S
C221 C222 1.385 . S
C222 H205 0.940 . S
C222 C221 1.385 . S
C222 C223 1.388 . S
C223 H202 0.939 . S
C223 C218 1.391 . S
C223 C222 1.388 . S
P224 O235 1.490 . S
P224 C238 1.812 . S
P224 C244 1.803 . S
P224 C250 1.819 . S
H225 C239 0.941 . S
H226 C240 0.939 . S
H227 C242 0.940 . S
H228 C243 0.940 . S
H229 C245 0.939 . S
H230 C246 0.942 . S
H231 C248 0.940 . S
H232 C249 0.939 . S
H233 C251 0.941 . S
H234 C255 0.939 . S
O235 P224 1.490 . S
H236 C252 0.939 . S
H237 C254 0.940 . S
C238 P224 1.812 . S
C238 C239 1.389 . S
C238 C243 1.391 . S
C239 H225 0.941 . S
C239 C238 1.389 . S
C239 C240 1.397 . S
C240 H226 0.939 . S
C240 C239 1.397 . S
C240 C241 1.378 . S
C241 C240 1.378 . S
C241 C242 1.378 . S
C242 H227 0.940 . S
C242 C241 1.378 . S
C242 C243 1.396 . S
C243 H228 0.940 . S
C243 C238 1.391 . S
C243 C242 1.396 . S
C244 P224 1.803 . S
C244 C245 1.378 . S
C244 C249 1.400 . S
C245 H229 0.939 . S
C245 C244 1.378 . S
C245 C246 1.361 . S
C246 H230 0.942 . S
C246 C245 1.361 . S
C246 C247 1.369 . S
C247 C246 1.369 . S
C247 C248 1.404 . S
C248 H231 0.940 . S
C248 C247 1.404 . S
C248 C249 1.389 . S
C249 H232 0.939 . S
C249 C244 1.400 . S
C249 C248 1.389 . S
C250 P224 1.819 . S
C250 C251 1.391 . S
C250 C255 1.391 . S
C251 H233 0.941 . S
C251 C250 1.391 . S
C251 C252 1.396 . S
C252 H236 0.939 . S
C252 C251 1.396 . S
C252 C253 1.397 . S
C253 C252 1.397 . S
C253 C254 1.385 . S
C254 H237 0.940 . S
C254 C253 1.385 . S
C254 C255 1.388 . S
C255 H234 0.939 . S
C255 C250 1.391 . S
C255 C254 1.388 . S
C256 C257 1.443 . S
C256 N260 1.376 . S
C256 C294 1.389 . S
C257 C256 1.443 . S
C257 C258 1.340 . S
C257 H297 0.951 . S
C258 C257 1.340 . S
C258 C259 1.439 . S
C258 H298 0.950 . S
C259 C258 1.439 . S
C259 N260 1.374 . S
C259 C293 1.395 . S
N260 C256 1.376 . S
N260 C259 1.374 . S
N260 Co261 2.008 . S
Co261 N260 2.008 . S
Co261 N262 1.995 . S
Co261 N267 2.008 . S
Co261 N272 1.995 . S
Co261 N277 2.282 . S
Co261 N283 2.282 1_455 S
N262 Co261 1.995 . S
N262 C263 1.376 . S
N262 C266 1.383 1_455 S
C263 N262 1.376 . S
C263 C264 1.446 1_455 S
C263 C293 1.391 . S
C264 C263 1.446 1_655 S
C264 C265 1.339 . S
C264 H299 0.949 . S
C265 C264 1.339 . S
C265 C266 1.439 . S
C265 H300 0.950 . S
C266 N262 1.383 1_655 S
C266 C265 1.439 . S
C266 C295 1.392 . S
N267 Co261 2.008 . S
N267 C268 1.376 1_455 S
N267 C271 1.374 . S
C268 N267 1.376 1_655 S
C268 C269 1.443 . S
C268 C295 1.389 . S
C269 C268 1.443 . S
C269 C270 1.345 . S
C269 H301 0.951 . S
C270 C269 1.345 . S
C270 C271 1.434 1_655 S
C270 H302 0.950 . S
C271 N267 1.374 . S
C271 C270 1.434 1_455 S
C271 C296 1.395 . S
N272 Co261 1.995 . S
N272 C273 1.376 . S
N272 C276 1.383 . S
C273 N272 1.376 . S
C273 C274 1.446 . S
C273 C296 1.391 . S
C274 C273 1.446 . S
C274 C275 1.339 . S
C274 H303 0.949 . S
C275 C274 1.339 . S
C275 C276 1.439 . S
C275 H304 0.950 . S
C276 N272 1.383 . S
C276 C275 1.439 . S
C276 C294 1.392 . S
N277 Co261 2.282 . S
N277 C280 1.332 . S
N277 C282 1.332 . S
C278 C279 1.386 . S
C278 C281 1.388 . S
C279 C278 1.386 . S
C279 C280 1.382 . S
C279 H305 0.950 . S
C280 N277 1.332 . S
C280 C279 1.382 . S
C280 H291 0.952 . S
C281 C278 1.388 . S
C281 C282 1.382 . S
C281 H306 0.950 . S
C282 N277 1.332 . S
C282 C281 1.382 . S
C282 H292 0.948 . S
N283 Co261 2.282 1_655 S
N283 C287 1.332 . S
N283 C288 1.332 . S
C284 C285 1.388 . S
C284 C288 1.382 . S
C284 H307 0.950 . S
C285 C284 1.388 . S
C285 C286 1.386 . S
C286 C285 1.386 . S
C286 C287 1.382 . S
C286 H308 0.950 . S
C287 N283 1.332 . S
C287 C286 1.382 . S
C287 H289 0.952 . S
C288 N283 1.332 . S
C288 C284 1.382 . S
C288 H290 0.948 1_655 S
H289 C287 0.952 . S
H290 C288 0.948 1_455 S
H291 C280 0.952 . S
H292 C282 0.948 . S
C293 C259 1.395 . S
C293 C263 1.391 . S
C294 C256 1.389 . S
C294 C276 1.392 . S
C295 C266 1.392 . S
C295 C268 1.389 . S
C296 C271 1.395 . S
C296 C273 1.391 . S
H297 C257 0.951 . S
H298 C258 0.950 . S
H299 C264 0.949 . S
H300 C265 0.950 . S
H301 C269 0.951 . S
H302 C270 0.950 . S
H303 C274 0.949 . S
H304 C275 0.950 . S
H305 C279 0.950 . S
H306 C281 0.950 . S
H307 C284 0.950 . S
H308 C286 0.950 . S
C309 C310 1.443 . S
C309 N313 1.376 . S
C309 C347 1.389 . S
C310 C309 1.443 . S
C310 C311 1.340 . S
C310 H350 0.951 . S
C311 C310 1.340 . S
C311 C312 1.439 . S
C311 H351 0.950 . S
C312 C311 1.439 . S
C312 N313 1.374 . S
C312 C346 1.395 . S
N313 C309 1.376 . S
N313 C312 1.374 . S
N313 Co314 2.008 . S
Co314 N313 2.008 . S
Co314 N315 1.995 1_455 S
Co314 N320 2.008 1_455 S
Co314 N325 1.995 . S
Co314 N330 2.282 . S
Co314 N336 2.282 1_455 S
N315 Co314 1.995 1_655 S
N315 C316 1.376 . S
N315 C319 1.383 . S
C316 N315 1.376 . S
C316 C317 1.446 . S
C316 C346 1.391 1_655 S
C317 C316 1.446 . S
C317 C318 1.339 . S
C317 H352 0.949 . S
C318 C317 1.339 . S
C318 C319 1.439 . S
C318 H353 0.950 . S
C319 N315 1.383 . S
C319 C318 1.439 . S
C319 C348 1.392 . S
N320 Co314 2.008 1_655 S
N320 C321 1.376 . S
N320 C324 1.374 . S
C321 N320 1.376 . S
C321 C322 1.443 . S
C321 C348 1.389 . S
C322 C321 1.443 . S
C322 C323 1.340 . S
C322 H354 0.951 . S
C323 C322 1.340 . S
C323 C324 1.439 . S
C323 H355 0.950 . S
C324 N320 1.374 . S
C324 C323 1.439 . S
C324 C349 1.395 1_655 S
N325 Co314 1.995 . S
N325 C326 1.376 . S
N325 C329 1.383 . S
C326 N325 1.376 . S
C326 C327 1.446 . S
C326 C349 1.391 . S
C327 C326 1.446 . S
C327 C328 1.339 . S
C327 H356 0.949 . S
C328 C327 1.339 . S
C328 C329 1.439 . S
C328 H357 0.950 . S
C329 N325 1.383 . S
C329 C328 1.439 . S
C329 C347 1.392 . S
N330 Co314 2.282 . S
N330 C333 1.332 . S
N330 C335 1.332 . S
C331 C332 1.386 . S
C331 C334 1.388 . S
C332 C331 1.386 . S
C332 C333 1.382 . S
C332 H358 0.950 . S
C333 N330 1.332 . S
C333 C332 1.382 . S
C333 H344 0.952 . S
C334 C331 1.388 . S
C334 C335 1.382 . S
C334 H359 0.950 . S
C335 N330 1.332 . S
C335 C334 1.382 . S
C335 H345 0.948 . S
N336 Co314 2.282 1_655 S
N336 C340 1.332 . S
N336 C341 1.332 . S
C337 C338 1.388 . S
C337 C341 1.382 . S
C337 H360 0.950 . S
C338 C337 1.388 . S
C338 C339 1.386 . S
C339 C338 1.386 . S
C339 C340 1.382 . S
C339 H361 0.950 . S
C340 N336 1.332 . S
C340 C339 1.382 . S
C340 H342 0.952 . S
C341 N336 1.332 . S
C341 C337 1.382 . S
C341 H343 0.948 . S
H342 C340 0.952 . S
H343 C341 0.948 . S
H344 C333 0.952 . S
H345 C335 0.948 . S
C346 C312 1.395 . S
C346 C316 1.391 1_455 S
C347 C309 1.389 . S
C347 C329 1.392 . S
C348 C319 1.392 . S
C348 C321 1.389 . S
C349 C324 1.395 1_455 S
C349 C326 1.391 . S
H350 C310 0.951 . S
H351 C311 0.950 . S
H352 C317 0.949 . S
H353 C318 0.950 . S
H354 C322 0.951 . S
H355 C323 0.950 . S
H356 C327 0.949 . S
H357 C328 0.950 . S
H358 C332 0.950 . S
H359 C334 0.950 . S
H360 C337 0.950 . S
H361 C339 0.950 . S
C362 C363 1.443 . S
C362 N366 1.376 . S
C362 C400 1.389 . S
C363 C362 1.443 . S
C363 C364 1.340 . S
C363 H403 0.951 . S
C364 C363 1.340 . S
C364 C365 1.464 . S
C364 H404 0.950 . S
C365 C364 1.464 . S
C365 N366 1.374 . S
C365 C399 1.375 1_565 S
N366 C362 1.376 . S
N366 C365 1.374 . S
N366 Co367 2.008 1_565 S
Co367 N366 2.008 1_545 S
Co367 N368 1.995 . S
Co367 N373 2.008 . S
Co367 N378 1.995 1_545 S
Co367 N383 2.282 . S
Co367 N389 2.282 1_545 S
N368 Co367 1.995 . S
N368 C369 1.376 . S
N368 C372 1.383 . S
C369 N368 1.376 . S
C369 C370 1.446 . S
C369 C399 1.391 . S
C370 C369 1.446 . S
C370 C371 1.339 . S
C370 H405 0.949 . S
C371 C370 1.339 . S
C371 C372 1.439 . S
C371 H406 0.950 . S
C372 N368 1.383 . S
C372 C371 1.439 . S
C372 C401 1.392 . S
N373 Co367 2.008 . S
N373 C374 1.376 . S
N373 C377 1.374 . S
C374 N373 1.376 . S
C374 C375 1.443 . S
C374 C401 1.389 . S
C375 C374 1.443 . S
C375 C376 1.340 . S
C375 H407 0.951 . S
C376 C375 1.340 . S
C376 C377 1.439 . S
C376 H408 0.950 . S
C377 N373 1.374 . S
C377 C376 1.439 . S
C377 C402 1.395 . S
N378 Co367 1.995 1_565 S
N378 C379 1.376 . S
N378 C382 1.383 . S
C379 N378 1.376 . S
C379 C380 1.446 . S
C379 C402 1.391 1_565 S
C380 C379 1.446 . S
C380 C381 1.339 . S
C380 H409 0.949 . S
C381 C380 1.339 . S
C381 C382 1.439 . S
C381 H410 0.950 . S
C382 N378 1.383 . S
C382 C381 1.439 . S
C382 C400 1.392 . S
N383 Co367 2.282 . S
N383 C386 1.332 . S
N383 C388 1.332 . S
C384 C385 1.386 . S
C384 C387 1.388 . S
C385 C384 1.386 . S
C385 C386 1.382 . S
C385 H411 0.950 . S
C386 N383 1.332 . S
C386 C385 1.382 . S
C386 H397 0.952 . S
C387 C384 1.388 . S
C387 C388 1.382 . S
C387 H412 0.950 . S
C388 N383 1.332 . S
C388 C387 1.382 . S
C388 H398 0.948 . S
N389 Co367 2.282 1_565 S
N389 C393 1.332 . S
N389 C394 1.332 . S
C390 C391 1.388 . S
C390 C394 1.382 . S
C390 H413 0.950 . S
C391 C390 1.388 . S
C391 C392 1.386 . S
C392 C391 1.386 . S
C392 C393 1.382 . S
C392 H414 0.950 . S
C393 N389 1.332 . S
C393 C392 1.382 . S
C393 H395 0.952 . S
C394 N389 1.332 . S
C394 C390 1.382 . S
C394 H396 0.948 . S
H395 C393 0.952 . S
H396 C394 0.948 . S
H397 C386 0.952 . S
H398 C388 0.948 . S
C399 C365 1.375 1_545 S
C399 C369 1.391 . S
C400 C362 1.389 . S
C400 C382 1.392 . S
C401 C372 1.392 . S
C401 C374 1.389 . S
C402 C377 1.395 . S
C402 C379 1.391 1_545 S
H403 C363 0.951 . S
H404 C364 0.950 . S
H405 C370 0.949 . S
H406 C371 0.950 . S
H407 C375 0.951 . S
H408 C376 0.950 . S
H409 C380 0.949 . S
H410 C381 0.950 . S
H411 C385 0.950 . S
H412 C387 0.950 . S
H413 C390 0.950 . S
H414 C392 0.950 . S
C415 C416 1.443 . S
C415 N419 1.376 . S
C415 C453 1.389 . S
C416 C415 1.443 . S
C416 C417 1.340 . S
C416 H456 0.951 . S
C417 C416 1.340 . S
C417 C418 1.439 . S
C417 H457 0.950 . S
C418 C417 1.439 . S
C418 N419 1.374 . S
C418 C452 1.395 . S
N419 C415 1.376 . S
N419 C418 1.374 . S
N419 Co420 2.008 . S
Co420 N419 2.008 . S
Co420 N421 1.995 1_554 S
Co420 N426 2.002 1_554 S
Co420 N431 1.995 . S
Co420 N436 2.282 1_554 S
Co420 N442 2.282 . S
N421 Co420 1.995 1_556 S
N421 C422 1.376 1_556 S
N421 C425 1.382 . S
C422 N421 1.376 1_554 S
C422 C423 1.446 1_554 S
C422 C452 1.391 . S
C423 C422 1.446 1_556 S
C423 C424 1.339 . S
C423 H458 0.949 . S
C424 C423 1.339 . S
C424 C425 1.439 . S
C424 H459 0.950 . S
C425 N421 1.382 . S
C425 C424 1.439 . S
C425 C454 1.392 . S
N426 Co420 2.002 1_556 S
N426 C427 1.385 . S
N426 C430 1.374 1_556 S
C427 N426 1.385 . S
C427 C428 1.443 . S
C427 C454 1.389 . S
C428 C427 1.443 . S
C428 C429 1.340 . S
C428 H460 0.951 . S
C429 C428 1.340 . S
C429 C430 1.439 1_556 S
C429 H461 0.950 . S
C430 N426 1.374 1_554 S
C430 C429 1.439 1_554 S
C430 C455 1.395 . S
N431 Co420 1.995 . S
N431 C432 1.376 . S
N431 C435 1.383 . S
C432 N431 1.376 . S
C432 C433 1.446 . S
C432 C455 1.391 . S
C433 C432 1.446 . S
C433 C434 1.339 . S
C433 H462 0.949 . S
C434 C433 1.339 . S
C434 C435 1.439 . S
C434 H463 0.950 . S
C435 N431 1.383 . S
C435 C434 1.439 . S
C435 C453 1.392 . S
N436 Co420 2.282 1_556 S
N436 C439 1.332 . S
N436 C441 1.332 . S
C437 C438 1.386 . S
C437 C440 1.388 . S
C438 C437 1.386 . S
C438 C439 1.382 . S
C438 H464 0.950 . S
C439 N436 1.332 . S
C439 C438 1.382 . S
C439 H450 0.952 . S
C440 C437 1.388 . S
C440 C441 1.382 . S
C440 H465 0.950 . S
C441 N436 1.332 . S
C441 C440 1.382 . S
C441 H451 0.948 . S
N442 Co420 2.282 . S
N442 C446 1.332 . S
N442 C447 1.332 . S
C443 C444 1.388 . S
C443 C447 1.382 . S
C443 H466 0.950 . S
C444 C443 1.388 . S
C444 C445 1.386 . S
C445 C444 1.386 . S
C445 C446 1.382 . S
C445 H467 0.950 . S
C446 N442 1.332 . S
C446 C445 1.382 . S
C446 H448 0.952 . S
C447 N442 1.332 . S
C447 C443 1.382 . S
C447 H449 0.948 . S
H448 C446 0.952 . S
H449 C447 0.948 . S
H450 C439 0.952 . S
H451 C441 0.948 . S
C452 C418 1.395 . S
C452 C422 1.391 . S
C453 C415 1.389 . S
C453 C435 1.392 . S
C454 C425 1.392 . S
C454 C427 1.389 . S
C455 C430 1.395 . S
C455 C432 1.391 . S
H456 C416 0.951 . S
H457 C417 0.950 . S
H458 C423 0.949 . S
H459 C424 0.950 . S
H460 C428 0.951 . S
H461 C429 0.950 . S
H462 C433 0.949 . S
H463 C434 0.950 . S
H464 C438 0.950 . S
H465 C440 0.950 . S
H466 C443 0.950 . S
H467 C445 0.950 . S
C468 C469 1.443 . S
C468 N472 1.376 . S
C468 C506 1.389 . S
C469 C468 1.443 . S
C469 C470 1.340 . S
C469 H509 0.951 . S
C470 C469 1.340 . S
C470 C471 1.453 . S
C470 H510 0.950 . S
C471 C470 1.453 . S
C471 N472 1.374 . S
C471 C505 1.384 1_565 S
N472 C468 1.376 . S
N472 C471 1.374 . S
N472 Co473 2.008 1_565 S
Co473 N472 2.008 1_545 S
Co473 N474 1.995 . S
Co473 N479 2.008 . S
Co473 N484 1.995 1_545 S
Co473 N489 2.282 . S
Co473 N495 2.282 1_545 S
N474 Co473 1.995 . S
N474 C475 1.376 . S
N474 C478 1.383 . S
C475 N474 1.376 . S
C475 C476 1.446 . S
C475 C505 1.391 . S
C476 C475 1.446 . S
C476 C477 1.339 . S
C476 H511 0.949 . S
C477 C476 1.339 . S
C477 C478 1.439 . S
C477 H512 0.950 . S
C478 N474 1.383 . S
C478 C477 1.439 . S
C478 C507 1.392 . S
N479 Co473 2.008 . S
N479 C480 1.376 . S
N479 C483 1.374 . S
C480 N479 1.376 . S
C480 C481 1.443 . S
C480 C507 1.389 . S
C481 C480 1.443 . S
C481 C482 1.340 . S
C481 H513 0.951 . S
C482 C481 1.340 . S
C482 C483 1.439 . S
C482 H514 0.950 . S
C483 N479 1.374 . S
C483 C482 1.439 . S
C483 C508 1.395 . S
N484 Co473 1.995 1_565 S
N484 C485 1.376 . S
N484 C488 1.383 . S
C485 N484 1.376 . S
C485 C486 1.446 . S
C485 C508 1.391 1_565 S
C486 C485 1.446 . S
C486 C487 1.339 . S
C486 H515 0.949 . S
C487 C486 1.339 . S
C487 C488 1.439 . S
C487 H516 0.950 . S
C488 N484 1.383 . S
C488 C487 1.439 . S
C488 C506 1.392 . S
N489 Co473 2.282 . S
N489 C492 1.332 . S
N489 C494 1.332 . S
C490 C491 1.386 . S
C490 C493 1.388 . S
C491 C490 1.386 . S
C491 C492 1.382 . S
C491 H517 0.950 . S
C492 N489 1.332 . S
C492 C491 1.382 . S
C492 H503 0.952 . S
C493 C490 1.388 . S
C493 C494 1.382 . S
C493 H518 0.950 . S
C494 N489 1.332 . S
C494 C493 1.382 . S
C494 H504 0.948 . S
N495 Co473 2.282 1_565 S
N495 C499 1.332 . S
N495 C500 1.332 . S
C496 C497 1.388 . S
C496 C500 1.382 . S
C496 H519 0.950 . S
C497 C496 1.388 . S
C497 C498 1.386 . S
C498 C497 1.386 . S
C498 C499 1.382 . S
C498 H520 0.950 . S
C499 N495 1.332 . S
C499 C498 1.382 . S
C499 H501 0.952 . S
C500 N495 1.332 . S
C500 C496 1.382 . S
C500 H502 0.948 . S
H501 C499 0.952 . S
H502 C500 0.948 . S
H503 C492 0.952 . S
H504 C494 0.948 . S
C505 C471 1.384 1_545 S
C505 C475 1.391 . S
C506 C468 1.389 . S
C506 C488 1.392 . S
C507 C478 1.392 . S
C507 C480 1.389 . S
C508 C483 1.395 . S
C508 C485 1.391 1_545 S
H509 C469 0.951 . S
H510 C470 0.950 . S
H511 C476 0.949 . S
H512 C477 0.950 . S
H513 C481 0.951 . S
H514 C482 0.950 . S
H515 C486 0.949 . S
H516 C487 0.950 . S
H517 C491 0.950 . S
H518 C493 0.950 . S
H519 C496 0.950 . S
H520 C498 0.950 . S
C521 C522 1.443 . S
C521 N525 1.376 . S
C521 C559 1.389 . S
C522 C521 1.443 . S
C522 C523 1.340 . S
C522 H562 0.951 . S
C523 C522 1.340 . S
C523 C524 1.439 . S
C523 H563 0.950 . S
C524 C523 1.439 . S
C524 N525 1.374 . S
C524 C558 1.395 . S
N525 C521 1.376 . S
N525 C524 1.374 . S
N525 Co526 2.008 . S
Co526 N525 2.008 . S
Co526 N527 1.995 . S
Co526 N532 2.008 . S
Co526 N537 1.995 . S
Co526 N542 2.308 . S
Co526 N548 2.282 . S
N527 Co526 1.995 . S
N527 C528 1.376 . S
N527 C531 1.383 1_554 S
C528 N527 1.376 . S
C528 C529 1.446 1_554 S
C528 C558 1.391 . S
C529 C528 1.446 1_556 S
C529 C530 1.339 . S
C529 H564 0.949 . S
C530 C529 1.339 . S
C530 C531 1.439 . S
C530 H565 0.950 . S
C531 N527 1.383 1_556 S
C531 C530 1.439 . S
C531 C560 1.392 . S
N532 Co526 2.008 . S
N532 C533 1.376 1_554 S
N532 C536 1.374 . S
C533 N532 1.376 1_556 S
C533 C534 1.443 . S
C533 C560 1.389 . S
C534 C533 1.443 . S
C534 C535 1.340 . S
C534 H566 0.951 . S
C535 C534 1.340 . S
C535 C536 1.439 1_556 S
C535 H567 0.950 . S
C536 N532 1.374 . S
C536 C535 1.439 1_554 S
C536 C561 1.395 . S
N537 Co526 1.995 . S
N537 C538 1.376 . S
N537 C541 1.383 . S
C538 N537 1.376 . S
C538 C539 1.446 . S
C538 C561 1.391 . S
C539 C538 1.446 . S
C539 C540 1.339 . S
C539 H568 0.949 . S
C540 C539 1.339 . S
C540 C541 1.439 . S
C540 H569 0.950 . S
C541 N537 1.383 . S
C541 C540 1.439 . S
C541 C559 1.392 . S
N542 Co526 2.308 . S
N542 C545 1.321 1_554 S
N542 C547 1.312 1_554 S
C543 C544 1.386 . S
C543 C546 1.388 . S
C544 C543 1.386 . S
C544 C545 1.382 . S
C544 H570 0.950 . S
C545 N542 1.321 1_556 S
C545 C544 1.382 . S
C545 H556 0.952 1_556 S
C546 C543 1.388 . S
C546 C547 1.382 . S
C546 H571 0.950 . S
C547 N542 1.312 1_556 S
C547 C546 1.382 . S
C547 H557 0.948 . S
N548 Co526 2.282 . S
N548 C552 1.332 . S
N548 C553 1.332 . S
C549 C550 1.388 . S
C549 C553 1.382 . S
C549 H572 0.950 . S
C550 C549 1.388 . S
C550 C551 1.386 . S
C551 C550 1.386 . S
C551 C552 1.382 . S
C551 H573 0.950 . S
C552 N548 1.332 . S
C552 C551 1.382 . S
C552 H554 0.952 . S
C553 N548 1.332 . S
C553 C549 1.382 . S
C553 H555 0.948 . S
H554 C552 0.952 . S
H555 C553 0.948 . S
H556 C545 0.952 1_554 S
H557 C547 0.948 . S
C558 C524 1.395 . S
C558 C528 1.391 . S
C559 C521 1.389 . S
C559 C541 1.392 . S
C560 C531 1.392 . S
C560 C533 1.389 . S
C561 C536 1.395 . S
C561 C538 1.391 . S
H562 C522 0.951 . S
H563 C523 0.950 . S
H564 C529 0.949 . S
H565 C530 0.950 . S
H566 C534 0.951 . S
H567 C535 0.950 . S
H568 C539 0.949 . S
H569 C540 0.950 . S
H570 C544 0.950 . S
H571 C546 0.950 . S
H572 C549 0.950 . S
H573 C551 0.950 . S
C574 C575 1.363 . S
C574 C580 1.379 . S
C574 N582 1.356 . S
C575 C574 1.363 . S
C575 C581 1.363 . S
C576 C577 1.363 . S
C576 C581 1.379 . S
C576 N583 1.356 . S
C577 C576 1.363 . S
C577 C580 1.363 . S
N578 C580 1.356 . S
N578 H590 0.984 . S
N578 H591 0.985 . S
N579 C581 1.356 . S
N579 H584 0.984 . S
N579 H585 0.985 . S
C580 C574 1.379 . S
C580 C577 1.363 . S
C580 N578 1.356 . S
C581 C575 1.363 . S
C581 C576 1.379 . S
C581 N579 1.356 . S
N582 C574 1.356 . S
N582 H588 0.984 . S
N582 H589 0.984 . S
N583 C576 1.356 . S
N583 H586 0.984 . S
N583 H587 0.985 . S
H584 N579 0.984 . S
H585 N579 0.985 . S
H586 N583 0.984 . S
H587 N583 0.985 . S
H588 N582 0.984 . S
H589 N582 0.984 . S
H590 N578 0.984 . S
H591 N578 0.985 . S
C592 C593 1.363 . S
C592 C598 1.379 . S
C592 N600 1.356 . S
C593 C592 1.363 . S
C593 C599 1.363 . S
C594 C595 1.363 . S
C594 C599 1.379 . S
C594 N601 1.356 . S
C595 C594 1.363 . S
C595 C598 1.363 . S
N596 C598 1.356 . S
N596 H608 0.984 . S
N596 H609 0.985 . S
N597 C599 1.356 . S
N597 H602 0.984 . S
N597 H603 0.985 . S
C598 C592 1.379 . S
C598 C595 1.363 . S
C598 N596 1.356 . S
C599 C593 1.363 . S
C599 C594 1.379 . S
C599 N597 1.356 . S
N600 C592 1.356 . S
N600 H606 0.984 . S
N600 H607 0.984 . S
N601 C594 1.356 . S
N601 H604 0.984 . S
N601 H605 0.985 . S
H602 N597 0.984 . S
H603 N597 0.985 . S
H604 N601 0.984 . S
H605 N601 0.985 . S
H606 N600 0.984 . S
H607 N600 0.984 . S
H608 N596 0.984 . S
H609 N596 0.985 . S
C610 C611 1.363 . S
C610 C616 1.379 . S
C610 N618 1.356 . S
C611 C610 1.363 . S
C611 C617 1.363 . S
C612 C613 1.363 . S
C612 C617 1.379 . S
C612 N619 1.356 . S
C613 C612 1.363 . S
C613 C616 1.363 . S
N614 C616 1.356 . S
N614 H626 0.984 . S
N614 H627 0.985 . S
N615 C617 1.356 . S
N615 H620 0.984 . S
N615 H621 0.985 . S
C616 C610 1.379 . S
C616 C613 1.363 . S
C616 N614 1.356 . S
C617 C611 1.363 . S
C617 C612 1.379 . S
C617 N615 1.356 . S
N618 C610 1.356 . S
N618 H624 0.984 . S
N618 H625 0.984 . S
N619 C612 1.356 . S
N619 H622 0.984 . S
N619 H623 0.985 . S
H620 N615 0.984 . S
H621 N615 0.985 . S
H622 N619 0.984 . S
H623 N619 0.985 . S
H624 N618 0.984 . S
H625 N618 0.984 . S
H626 N614 0.984 . S
H627 N614 0.985 . S
C628 C629 1.363 . S
C628 C634 1.379 . S
C628 N636 1.356 . S
C629 C628 1.363 . S
C629 C635 1.363 . S
C630 C631 1.363 . S
C630 C635 1.379 . S
C630 N637 1.356 . S
C631 C630 1.363 . S
C631 C634 1.363 . S
N632 C634 1.356 . S
N632 H644 0.984 . S
N632 H645 0.985 . S
N633 C635 1.356 . S
N633 H638 0.984 . S
N633 H639 0.985 . S
C634 C628 1.379 . S
C634 C631 1.363 . S
C634 N632 1.356 . S
C635 C629 1.363 . S
C635 C630 1.379 . S
C635 N633 1.356 . S
N636 C628 1.356 . S
N636 H642 0.984 . S
N636 H643 0.984 . S
N637 C630 1.356 . S
N637 H640 0.984 . S
N637 H641 0.985 . S
H638 N633 0.984 . S
H639 N633 0.985 . S
H640 N637 0.984 . S
H641 N637 0.985 . S
H642 N636 0.984 . S
H643 N636 0.984 . S
H644 N632 0.984 . S
H645 N632 0.985 . S
C646 C647 1.363 . S
C646 C652 1.379 . S
C646 N654 1.356 . S
C647 C646 1.363 . S
C647 C653 1.363 . S
C648 C649 1.363 . S
C648 C653 1.379 . S
C648 N655 1.356 . S
C649 C648 1.363 . S
C649 C652 1.363 . S
N650 C652 1.356 . S
N650 H662 0.984 . S
N650 H663 0.985 . S
N651 C653 1.356 . S
N651 H656 0.984 . S
N651 H657 0.985 . S
C652 C646 1.379 . S
C652 C649 1.363 . S
C652 N650 1.356 . S
C653 C647 1.363 . S
C653 C648 1.379 . S
C653 N651 1.356 . S
N654 C646 1.356 . S
N654 H660 0.984 . S
N654 H661 0.984 . S
N655 C648 1.356 . S
N655 H658 0.984 . S
N655 H659 0.985 . S
H656 N651 0.984 . S
H657 N651 0.985 . S
H658 N655 0.984 . S
H659 N655 0.985 . S
H660 N654 0.984 . S
H661 N654 0.984 . S
H662 N650 0.984 . S
H663 N650 0.985 . S
C664 C665 1.363 . S
C664 C670 1.379 . S
C664 N672 1.356 . S
C665 C664 1.363 . S
C665 C671 1.363 . S
C666 C667 1.363 . S
C666 C671 1.379 . S
C666 N673 1.356 . S
C667 C666 1.363 . S
C667 C670 1.363 . S
N668 C670 1.356 . S
N668 H680 0.984 . S
N668 H681 0.985 . S
N669 C671 1.356 . S
N669 H674 0.984 . S
N669 H675 0.985 . S
C670 C664 1.379 . S
C670 C667 1.363 . S
C670 N668 1.356 . S
C671 C665 1.363 . S
C671 C666 1.379 . S
C671 N669 1.356 . S
N672 C664 1.356 . S
N672 H678 0.984 . S
N672 H679 0.984 . S
N673 C666 1.356 . S
N673 H676 0.984 . S
N673 H677 0.985 . S
H674 N669 0.984 . S
H675 N669 0.985 . S
H676 N673 0.984 . S
H677 N673 0.985 . S
H678 N672 0.984 . S
H679 N672 0.984 . S
H680 N668 0.984 . S
H681 N668 0.985 . S
C682 C683 1.363 . S
C682 C688 1.379 . S
C682 N690 1.356 . S
C683 C682 1.363 . S
C683 C689 1.363 . S
C684 C685 1.363 . S
C684 C689 1.379 . S
C684 N691 1.356 . S
C685 C684 1.363 . S
C685 C688 1.363 . S
N686 C688 1.356 . S
N686 H698 0.984 . S
N686 H699 0.985 . S
N687 C689 1.356 . S
N687 H692 0.984 . S
N687 H693 0.985 . S
C688 C682 1.379 . S
C688 C685 1.363 . S
C688 N686 1.356 . S
C689 C683 1.363 . S
C689 C684 1.379 . S
C689 N687 1.356 . S
N690 C682 1.356 . S
N690 H696 0.984 . S
N690 H697 0.984 . S
N691 C684 1.356 . S
N691 H694 0.984 . S
N691 H695 0.985 . S
H692 N687 0.984 . S
H693 N687 0.985 . S
H694 N691 0.984 . S
H695 N691 0.985 . S
H696 N690 0.984 . S
H697 N690 0.984 . S
H698 N686 0.984 . S
H699 N686 0.985 . S
C700 C701 1.363 . S
C700 C706 1.379 . S
C700 N708 1.356 . S
C701 C700 1.363 . S
C701 C707 1.363 . S
C702 C703 1.363 . S
C702 C707 1.379 . S
C702 N709 1.356 . S
C703 C702 1.363 . S
C703 C706 1.363 . S
N704 C706 1.356 . S
N704 H716 0.984 . S
N704 H717 0.985 . S
N705 C707 1.356 . S
N705 H710 0.984 . S
N705 H711 0.985 . S
C706 C700 1.379 . S
C706 C703 1.363 . S
C706 N704 1.356 . S
C707 C701 1.363 . S
C707 C702 1.379 . S
C707 N705 1.356 . S
N708 C700 1.356 . S
N708 H714 0.984 . S
N708 H715 0.984 . S
N709 C702 1.356 . S
N709 H712 0.984 . S
N709 H713 0.985 . S
H710 N705 0.984 . S
H711 N705 0.985 . S
H712 N709 0.984 . S
H713 N709 0.985 . S
H714 N708 0.984 . S
H715 N708 0.984 . S
H716 N704 0.984 . S
H717 N704 0.985 . S
C718 C719 1.363 . S
C718 C724 1.379 . S
C718 N726 1.356 . S
C719 C718 1.363 . S
C719 C725 1.363 . S
C720 C721 1.363 . S
C720 C725 1.379 . S
C720 N727 1.356 . S
C721 C720 1.363 . S
C721 C724 1.363 . S
N722 C724 1.356 . S
N722 H734 0.984 . S
N722 H735 0.985 . S
N723 C725 1.356 . S
N723 H728 0.984 . S
N723 H729 0.985 . S
C724 C718 1.379 . S
C724 C721 1.363 . S
C724 N722 1.356 . S
C725 C719 1.363 . S
C725 C720 1.379 . S
C725 N723 1.356 . S
N726 C718 1.356 . S
N726 H732 0.984 . S
N726 H733 0.984 . S
N727 C720 1.356 . S
N727 H730 0.984 . S
N727 H731 0.985 . S
H728 N723 0.984 . S
H729 N723 0.985 . S
H730 N727 0.984 . S
H731 N727 0.985 . S
H732 N726 0.984 . S
H733 N726 0.984 . S
H734 N722 0.984 . S
H735 N722 0.985 . S
C736 C737 1.363 . S
C736 C742 1.379 . S
C736 N744 1.356 . S
C737 C736 1.363 . S
C737 C743 1.363 . S
C738 C739 1.363 . S
C738 C743 1.379 . S
C738 N745 1.356 . S
C739 C738 1.363 . S
C739 C742 1.363 . S
N740 C742 1.356 . S
N740 H752 0.984 . S
N740 H753 0.985 . S
N741 C743 1.356 . S
N741 H746 0.984 . S
N741 H747 0.985 . S
C742 C736 1.379 . S
C742 C739 1.363 . S
C742 N740 1.356 . S
C743 C737 1.363 . S
C743 C738 1.379 . S
C743 N741 1.356 . S
N744 C736 1.356 . S
N744 H750 0.984 . S
N744 H751 0.984 . S
N745 C738 1.356 . S
N745 H748 0.984 . S
N745 H749 0.985 . S
H746 N741 0.984 . S
H747 N741 0.985 . S
H748 N745 0.984 . S
H749 N745 0.985 . S
H750 N744 0.984 . S
H751 N744 0.984 . S
H752 N740 0.984 . S
H753 N740 0.985 . S
C754 C755 1.363 . S
C754 C760 1.379 . S
C754 N762 1.356 . S
C755 C754 1.363 . S
C755 C761 1.363 . S
C756 C757 1.363 . S
C756 C761 1.379 . S
C756 N763 1.356 . S
C757 C756 1.363 . S
C757 C760 1.363 . S
N758 C760 1.356 . S
N758 H770 0.984 . S
N758 H771 0.985 . S
N759 C761 1.356 . S
N759 H764 0.984 . S
N759 H765 0.985 . S
C760 C754 1.379 . S
C760 C757 1.363 . S
C760 N758 1.356 . S
C761 C755 1.363 . S
C761 C756 1.379 . S
C761 N759 1.356 . S
N762 C754 1.356 . S
N762 H768 0.984 . S
N762 H769 0.984 . S
N763 C756 1.356 . S
N763 H766 0.984 . S
N763 H767 0.985 . S
H764 N759 0.984 . S
H765 N759 0.985 . S
H766 N763 0.984 . S
H767 N763 0.985 . S
H768 N762 0.984 . S
H769 N762 0.984 . S
H770 N758 0.984 . S
H771 N758 0.985 . S
C772 C773 1.363 . S
C772 C778 1.379 . S
C772 N780 1.356 . S
C773 C772 1.363 . S
C773 C779 1.363 . S
C774 C775 1.363 . S
C774 C779 1.379 . S
C774 N781 1.356 . S
C775 C774 1.363 . S
C775 C778 1.363 . S
N776 C778 1.356 . S
N776 H788 0.984 . S
N776 H789 0.985 . S
N777 C779 1.356 . S
N777 H782 0.984 . S
N777 H783 0.985 . S
C778 C772 1.379 . S
C778 C775 1.363 . S
C778 N776 1.356 . S
C779 C773 1.363 . S
C779 C774 1.379 . S
C779 N777 1.356 . S
N780 C772 1.356 . S
N780 H786 0.984 . S
N780 H787 0.984 . S
N781 C774 1.356 . S
N781 H784 0.984 . S
N781 H785 0.985 . S
H782 N777 0.984 . S
H783 N777 0.985 . S
H784 N781 0.984 . S
H785 N781 0.985 . S
H786 N780 0.984 . S
H787 N780 0.984 . S
H788 N776 0.984 . S
H789 N776 0.985 . S
C790 C791 1.363 . S
C790 C796 1.379 . S
C790 N798 1.356 . S
C791 C790 1.363 . S
C791 C797 1.363 . S
C792 C793 1.363 . S
C792 C797 1.379 . S
C792 N799 1.356 . S
C793 C792 1.363 . S
C793 C796 1.363 . S
N794 C796 1.356 . S
N794 H806 0.984 . S
N794 H807 0.985 . S
N795 C797 1.356 . S
N795 H800 0.984 . S
N795 H801 0.985 . S
C796 C790 1.379 . S
C796 C793 1.363 . S
C796 N794 1.356 . S
C797 C791 1.363 . S
C797 C792 1.379 . S
C797 N795 1.356 . S
N798 C790 1.356 . S
N798 H804 0.984 . S
N798 H805 0.984 . S
N799 C792 1.356 . S
N799 H802 0.984 . S
N799 H803 0.985 . S
H800 N795 0.984 . S
H801 N795 0.985 . S
H802 N799 0.984 . S
H803 N799 0.985 . S
H804 N798 0.984 . S
H805 N798 0.984 . S
H806 N794 0.984 . S
H807 N794 0.985 . S
C808 C809 1.363 . S
C808 C814 1.379 . S
C808 N816 1.356 . S
C809 C808 1.363 . S
C809 C815 1.363 . S
C810 C811 1.363 . S
C810 C815 1.379 . S
C810 N817 1.356 . S
C811 C810 1.363 . S
C811 C814 1.363 . S
N812 C814 1.356 . S
N812 H824 0.984 . S
N812 H825 0.985 . S
N813 C815 1.356 . S
N813 H818 0.984 . S
N813 H819 0.985 . S
C814 C808 1.379 . S
C814 C811 1.363 . S
C814 N812 1.356 . S
C815 C809 1.363 . S
C815 C810 1.379 . S
C815 N813 1.356 . S
N816 C808 1.356 . S
N816 H822 0.984 . S
N816 H823 0.984 . S
N817 C810 1.356 . S
N817 H820 0.984 . S
N817 H821 0.985 . S
H818 N813 0.984 . S
H819 N813 0.985 . S
H820 N817 0.984 . S
H821 N817 0.985 . S
H822 N816 0.984 . S
H823 N816 0.984 . S
H824 N812 0.984 . S
H825 N812 0.985 . S
C826 C827 1.363 . S
C826 C832 1.379 . S
C826 N834 1.356 . S
C827 C826 1.363 . S
C827 C833 1.363 . S
C828 C829 1.363 . S
C828 C833 1.379 . S
C828 N835 1.356 . S
C829 C828 1.363 . S
C829 C832 1.363 . S
N830 C832 1.356 . S
N830 H842 0.984 . S
N830 H843 0.985 . S
N831 C833 1.356 . S
N831 H836 0.984 . S
N831 H837 0.985 . S
C832 C826 1.379 . S
C832 C829 1.363 . S
C832 N830 1.356 . S
C833 C827 1.363 . S
C833 C828 1.379 . S
C833 N831 1.356 . S
N834 C826 1.356 . S
N834 H840 0.984 . S
N834 H841 0.984 . S
N835 C828 1.356 . S
N835 H838 0.984 . S
N835 H839 0.985 . S
H836 N831 0.984 . S
H837 N831 0.985 . S
H838 N835 0.984 . S
H839 N835 0.985 . S
H840 N834 0.984 . S
H841 N834 0.984 . S
H842 N830 0.984 . S
H843 N830 0.985 . S
C844 C845 1.363 . S
C844 C850 1.379 . S
C844 N852 1.356 . S
C845 C844 1.363 . S
C845 C851 1.363 . S
C846 C847 1.363 . S
C846 C851 1.379 . S
C846 N853 1.356 . S
C847 C846 1.363 . S
C847 C850 1.363 . S
N848 C850 1.356 . S
N848 H860 0.984 . S
N848 H861 0.985 . S
N849 C851 1.356 . S
N849 H854 0.984 . S
N849 H855 0.985 . S
C850 C844 1.379 . S
C850 C847 1.363 . S
C850 N848 1.356 . S
C851 C845 1.363 . S
C851 C846 1.379 . S
C851 N849 1.356 . S
N852 C844 1.356 . S
N852 H858 0.984 . S
N852 H859 0.984 . S
N853 C846 1.356 . S
N853 H856 0.984 . S
N853 H857 0.985 . S
H854 N849 0.984 . S
H855 N849 0.985 . S
H856 N853 0.984 . S
H857 N853 0.985 . S
H858 N852 0.984 . S
H859 N852 0.984 . S
H860 N848 0.984 . S
H861 N848 0.985 . S
C862 C863 1.363 . S
C862 C868 1.379 . S
C862 N870 1.356 . S
C863 C862 1.363 . S
C863 C869 1.363 . S
C864 C865 1.363 . S
C864 C869 1.379 . S
C864 N871 1.356 . S
C865 C864 1.363 . S
C865 C868 1.363 . S
N866 C868 1.356 . S
N866 H878 0.984 . S
N866 H879 0.985 . S
N867 C869 1.356 . S
N867 H872 0.984 . S
N867 H873 0.985 . S
C868 C862 1.379 . S
C868 C865 1.363 . S
C868 N866 1.356 . S
C869 C863 1.363 . S
C869 C864 1.379 . S
C869 N867 1.356 . S
N870 C862 1.356 . S
N870 H876 0.984 . S
N870 H877 0.984 . S
N871 C864 1.356 . S
N871 H874 0.984 . S
N871 H875 0.985 . S
H872 N867 0.984 . S
H873 N867 0.985 . S
H874 N871 0.984 . S
H875 N871 0.985 . S
H876 N870 0.984 . S
H877 N870 0.984 . S
H878 N866 0.984 . S
H879 N866 0.985 . S
C880 C881 1.363 . S
C880 C886 1.379 . S
C880 N888 1.356 . S
C881 C880 1.363 . S
C881 C887 1.363 . S
C882 C883 1.363 . S
C882 C887 1.379 . S
C882 N889 1.356 . S
C883 C882 1.363 . S
C883 C886 1.363 . S
N884 C886 1.356 . S
N884 H896 0.984 . S
N884 H897 0.985 . S
N885 C887 1.356 . S
N885 H890 0.984 . S
N885 H891 0.985 . S
C886 C880 1.379 . S
C886 C883 1.363 . S
C886 N884 1.356 . S
C887 C881 1.363 . S
C887 C882 1.379 . S
C887 N885 1.356 . S
N888 C880 1.356 . S
N888 H894 0.984 . S
N888 H895 0.984 . S
N889 C882 1.356 . S
N889 H892 0.984 . S
N889 H893 0.985 . S
H890 N885 0.984 . S
H891 N885 0.985 . S
H892 N889 0.984 . S
H893 N889 0.985 . S
H894 N888 0.984 . S
H895 N888 0.984 . S
H896 N884 0.984 . S
H897 N884 0.985 . S
C898 C899 1.363 . S
C898 C904 1.379 . S
C898 N906 1.356 . S
C899 C898 1.363 . S
C899 C905 1.363 . S
C900 C901 1.363 . S
C900 C905 1.379 . S
C900 N907 1.356 . S
C901 C900 1.363 . S
C901 C904 1.363 . S
N902 C904 1.356 . S
N902 H914 0.984 . S
N902 H915 0.985 . S
N903 C905 1.356 . S
N903 H908 0.984 . S
N903 H909 0.985 . S
C904 C898 1.379 . S
C904 C901 1.363 . S
C904 N902 1.356 . S
C905 C899 1.363 . S
C905 C900 1.379 . S
C905 N903 1.356 . S
N906 C898 1.356 . S
N906 H912 0.984 . S
N906 H913 0.984 . S
N907 C900 1.356 . S
N907 H910 0.984 . S
N907 H911 0.985 . S
H908 N903 0.984 . S
H909 N903 0.985 . S
H910 N907 0.984 . S
H911 N907 0.985 . S
H912 N906 0.984 . S
H913 N906 0.984 . S
H914 N902 0.984 . S
H915 N902 0.985 . S
C916 C917 1.363 . S
C916 C922 1.379 . S
C916 N924 1.356 . S
C917 C916 1.363 . S
C917 C923 1.363 . S
C918 C919 1.363 . S
C918 C923 1.379 . S
C918 N925 1.356 . S
C919 C918 1.363 . S
C919 C922 1.363 . S
N920 C922 1.356 . S
N920 H932 0.984 . S
N920 H933 0.985 . S
N921 C923 1.356 . S
N921 H926 0.984 . S
N921 H927 0.985 . S
C922 C916 1.379 . S
C922 C919 1.363 . S
C922 N920 1.356 . S
C923 C917 1.363 . S
C923 C918 1.379 . S
C923 N921 1.356 . S
N924 C916 1.356 . S
N924 H930 0.984 . S
N924 H931 0.984 . S
N925 C918 1.356 . S
N925 H928 0.984 . S
N925 H929 0.985 . S
H926 N921 0.984 . S
H927 N921 0.985 . S
H928 N925 0.984 . S
H929 N925 0.985 . S
H930 N924 0.984 . S
H931 N924 0.984 . S
H932 N920 0.984 . S
H933 N920 0.985 . S
C934 C935 1.363 . S
C934 C940 1.379 . S
C934 N942 1.356 . S
C935 C934 1.363 . S
C935 C941 1.363 . S
C936 C937 1.363 . S
C936 C941 1.379 . S
C936 N943 1.356 . S
C937 C936 1.363 . S
C937 C940 1.363 . S
N938 C940 1.356 . S
N938 H950 0.984 . S
N938 H951 0.985 . S
N939 C941 1.356 . S
N939 H944 0.984 . S
N939 H945 0.985 . S
C940 C934 1.379 . S
C940 C937 1.363 . S
C940 N938 1.356 . S
C941 C935 1.363 . S
C941 C936 1.379 . S
C941 N939 1.356 . S
N942 C934 1.356 . S
N942 H948 0.984 . S
N942 H949 0.984 . S
N943 C936 1.356 . S
N943 H946 0.984 . S
N943 H947 0.985 . S
H944 N939 0.984 . S
H945 N939 0.985 . S
H946 N943 0.984 . S
H947 N943 0.985 . S
H948 N942 0.984 . S
H949 N942 0.984 . S
H950 N938 0.984 . S
H951 N938 0.985 . S
C952 C953 1.363 . S
C952 C958 1.379 . S
C952 N960 1.356 . S
C953 C952 1.363 . S
C953 C959 1.363 . S
C954 C955 1.363 . S
C954 C959 1.379 . S
C954 N961 1.356 . S
C955 C954 1.363 . S
C955 C958 1.363 . S
N956 C958 1.356 . S
N956 H968 0.984 . S
N956 H969 0.985 . S
N957 C959 1.356 . S
N957 H962 0.984 . S
N957 H963 0.985 . S
C958 C952 1.379 . S
C958 C955 1.363 . S
C958 N956 1.356 . S
C959 C953 1.363 . S
C959 C954 1.379 . S
C959 N957 1.356 . S
N960 C952 1.356 . S
N960 H966 0.984 . S
N960 H967 0.984 . S
N961 C954 1.356 . S
N961 H964 0.984 . S
N961 H965 0.985 . S
H962 N957 0.984 . S
H963 N957 0.985 . S
H964 N961 0.984 . S
H965 N961 0.985 . S
H966 N960 0.984 . S
H967 N960 0.984 . S
H968 N956 0.984 . S
H969 N956 0.985 . S
C970 C971 1.363 . S
C970 C976 1.379 . S
C970 N978 1.356 . S
C971 C970 1.363 . S
C971 C977 1.363 . S
C972 C973 1.363 . S
C972 C977 1.379 . S
C972 N979 1.356 . S
C973 C972 1.363 . S
C973 C976 1.363 . S
N974 C976 1.356 . S
N974 H986 0.984 . S
N974 H987 0.985 . S
N975 C977 1.356 . S
N975 H980 0.984 . S
N975 H981 0.985 . S
C976 C970 1.379 . S
C976 C973 1.363 . S
C976 N974 1.356 . S
C977 C971 1.363 . S
C977 C972 1.379 . S
C977 N975 1.356 . S
N978 C970 1.356 . S
N978 H984 0.984 . S
N978 H985 0.984 . S
N979 C972 1.356 . S
N979 H982 0.984 . S
N979 H983 0.985 . S
H980 N975 0.984 . S
H981 N975 0.985 . S
H982 N979 0.984 . S
H983 N979 0.985 . S
H984 N978 0.984 . S
H985 N978 0.984 . S
H986 N974 0.984 . S
H987 N974 0.985 . S
C988 C989 1.363 . S
C988 C994 1.379 . S
C988 N996 1.356 . S
C989 C988 1.363 . S
C989 C995 1.363 . S
C990 C991 1.363 . S
C990 C995 1.379 . S
C990 N997 1.356 . S
C991 C990 1.363 . S
C991 C994 1.363 . S
N992 C994 1.356 . S
N992 H1004 0.984 . S
N992 H1005 0.985 . S
N993 C995 1.356 . S
N993 H998 0.984 . S
N993 H999 0.985 . S
C994 C988 1.379 . S
C994 C991 1.363 . S
C994 N992 1.356 . S
C995 C989 1.363 . S
C995 C990 1.379 . S
C995 N993 1.356 . S
N996 C988 1.356 . S
N996 H1002 0.984 . S
N996 H1003 0.984 . S
N997 C990 1.356 . S
N997 H1000 0.984 . S
N997 H1001 0.985 . S
H998 N993 0.984 . S
H999 N993 0.985 . S
H1000 N997 0.984 . S
H1001 N997 0.985 . S
H1002 N996 0.984 . S
H1003 N996 0.984 . S
H1004 N992 0.984 . S
H1005 N992 0.985 . S
C577 C278 1.544 . S
C575 C23 1.532 . S
C595 C347 1.525 . S
C593 C49 1.510 . S
C613 C285 1.534 . S
C611 C87 1.506 . S
C631 C348 1.542 . S
C629 C125 1.509 . S
C649 C401 1.564 . S
C647 C29 1.564 . S
C667 C437 1.516 . S
C665 C61 1.497 . S
C683 C81 1.495 . S
C685 C497 1.542 . S
C703 C560 1.517 . S
C701 C113 1.476 . S
C721 C400 1.522 . S
C719 C55 1.522 . S
C737 C93 1.476 . S
C739 C444 1.528 . S
C757 C490 1.541 . S
C755 C119 1.493 . S
C775 C559 1.535 . S
C773 C17 1.536 . S
C791 C151 1.515 . S
C793 C338 1.544 . S
C811 C295 1.525 . S
C809 C177 1.503 . S
C827 C215 1.519 . S
C829 C331 1.534 . S
C845 C253 1.516 . S
C847 C294 1.542 . S
C865 C506 1.564 . S
C863 C157 1.492 . S
C883 C550 1.516 . S
C881 C189 1.466 . S
C901 C384 1.542 . S
C899 C209 1.544 . S
C917 C241 1.505 . S
C919 C453 1.517 . S
C937 C507 1.522 . S
C935 C183 1.479 . S
C955 C543 1.528 . S
C953 C221 1.521 . S
C973 C391 1.541 . S
C971 C247 1.542 . S
C989 C145 1.487 . S
C991 C454 1.535 . S
