# Generated by pormake.
# Topology tsx, (6,3)-cn, num edge types: 1
# Building blocks:
#     Node 0, Type 0, BuildingBlock: FUNLAD_clean_sbu_0, # of connection points: 6
#     Node 1, Type 0, BuildingBlock: FUNLAD_clean_sbu_0, # of connection points: 6
#     Node 2, Type 1, BuildingBlock: CUQRIR_clean_linker_1, # of connection points: 3
#     Node 3, Type 1, BuildingBlock: CUQRIR_clean_linker_1, # of connection points: 3
#     Node 4, Type 1, BuildingBlock: CUQRIR_clean_linker_1, # of connection points: 3
#     Node 5, Type 1, BuildingBlock: CUQRIR_clean_linker_1, # of connection points: 3
#     Edge 6, Type (0, 1), BuildingBlock: XUDNAN_clean_linker_2, # of connection points: 2
#     Edge 7, Type (0, 1), BuildingBlock: XUDNAN_clean_linker_2, # of connection points: 2
#     Edge 8, Type (0, 1), BuildingBlock: XUDNAN_clean_linker_2, # of connection points: 2
#     Edge 9, Type (0, 1), BuildingBlock: XUDNAN_clean_linker_2, # of connection points: 2
#     Edge 10, Type (0, 1), BuildingBlock: XUDNAN_clean_linker_2, # of connection points: 2
#     Edge 11, Type (0, 1), BuildingBlock: XUDNAN_clean_linker_2, # of connection points: 2
#     Edge 12, Type (0, 1), BuildingBlock: XUDNAN_clean_linker_2, # of connection points: 2
#     Edge 13, Type (0, 1), BuildingBlock: XUDNAN_clean_linker_2, # of connection points: 2
#     Edge 14, Type (0, 1), BuildingBlock: XUDNAN_clean_linker_2, # of connection points: 2
#     Edge 15, Type (0, 1), BuildingBlock: XUDNAN_clean_linker_2, # of connection points: 2
#     Edge 16, Type (0, 1), BuildingBlock: XUDNAN_clean_linker_2, # of connection points: 2
#     Edge 17, Type (0, 1), BuildingBlock: XUDNAN_clean_linker_2, # of connection points: 2
# Relax obj value: 0.158
# Max RMSD: 0.158
# Mean RMSD: 0.140
data_MOF--net-tsx--node1-FUNLAD_clean_sbu_0--node2-CUQRIR_clean_linker_1--edge1-XUDNAN_clean_linker_2
_symmetry_space_group_name_H-M    P1
_symmetry_Int_Tables_number       1
_symmetry_cell_setting            triclinic
loop_
_symmetry_equiv_pos_as_xyz
'x, y, z'
_cell_length_a     17.692297
_cell_length_b     19.476151
_cell_length_c     37.753771
_cell_angle_alpha  79.553595
_cell_angle_beta   92.154807
_cell_angle_gamma 89.831903
loop_
_atom_site_label
_atom_site_type_symbol
_atom_site_fract_x
_atom_site_fract_y
_atom_site_fract_z
_atom_type_partial_charge
C0 C 0.90831 0.93207 -0.00252 0.0
N1 N 0.01934 0.98339 0.0877 0.0
C2 C 0.95078 0.98028 0.103 0.0
C3 C 0.94501 0.95616 0.13987 0.0
C4 C 0.01035 0.93424 0.16129 0.0
C5 C 0.08037 0.93738 0.14466 0.0
C6 C 0.08363 0.96257 0.10769 0.0
Zn7 Zn 0.02287 0.01497 0.03333 0.0
C8 C 0.13168 0.93572 -0.00075 0.0
N9 N 0.01729 0.07717 0.91888 0.0
C10 C 0.95754 0.0712 0.8959 0.0
C11 C 0.08389 0.10432 0.90621 0.0
C12 C 0.09213 0.12751 0.86957 0.0
C13 C 0.03315 0.11885 0.84485 0.0
C14 C 0.96461 0.09076 0.85861 0.0
Zn15 Zn 0.01225 0.04536 0.97368 0.0
O16 O 0.93734 0.94286 0.02716 0.0
C17 C 0.90908 0.13127 0.00545 0.0
O18 O 0.92984 0.96761 0.96798 0.0
H19 H 0.13188 0.10734 0.92432 0.0
H20 H 0.9003 0.99651 0.08654 0.0
H21 H 0.90484 0.04981 0.90635 0.0
O22 O 0.94058 0.09754 0.03436 0.0
O23 O 0.92604 0.11695 0.97529 0.0
H24 H 0.13752 0.96512 0.09494 0.0
O25 O 0.09215 0.12316 0.98172 0.0
O26 O 0.10852 0.08628 0.03984 0.0
O27 O 0.10172 0.97498 0.9718 0.0
O28 O 0.10714 0.93726 0.03031 0.0
C29 C 0.12519 0.12836 0.01154 0.0
H30 H 0.89 0.95621 0.15149 0.0
H31 H 0.13217 0.92049 0.15998 0.0
H32 H 0.14532 0.15081 0.86093 0.0
H33 H 0.91749 0.08178 0.84098 0.0
C34 C 0.40649 0.42977 0.50062 0.0
N35 N 0.51682 0.47145 0.59334 0.0
C36 C 0.44989 0.46855 0.61013 0.0
C37 C 0.44843 0.45218 0.64769 0.0
C38 C 0.5165 0.43841 0.66826 0.0
C39 C 0.58448 0.43957 0.65008 0.0
C40 C 0.58337 0.45645 0.6125 0.0
Zn41 Zn 0.51833 0.50271 0.53854 0.0
C42 C 0.62657 0.41912 0.50436 0.0
N43 N 0.52533 0.57395 0.42484 0.0
C44 C 0.45727 0.58798 0.40696 0.0
C45 C 0.59108 0.58211 0.40703 0.0
C46 C 0.58975 0.60472 0.36965 0.0
C47 C 0.52008 0.61915 0.35049 0.0
C48 C 0.45333 0.61063 0.36973 0.0
Zn49 Zn 0.52513 0.54119 0.47947 0.0
O50 O 0.43411 0.43191 0.53181 0.0
C51 C 0.41758 0.62693 0.51146 0.0
O52 O 0.43122 0.47083 0.47336 0.0
H53 H 0.64459 0.57089 0.4218 0.0
H54 H 0.39761 0.48057 0.59441 0.0
H55 H 0.40563 0.58117 0.42158 0.0
O56 O 0.43345 0.58286 0.54012 0.0
O57 O 0.44953 0.62161 0.48264 0.0
H58 H 0.63598 0.45892 0.59866 0.0
O59 O 0.6176 0.6094 0.48754 0.0
O60 O 0.60494 0.57225 0.54549 0.0
O61 O 0.60274 0.46095 0.47633 0.0
O62 O 0.60115 0.42451 0.53485 0.0
C63 C 0.63886 0.60996 0.5201 0.0
H64 H 0.39473 0.45294 0.66046 0.0
H65 H 0.63821 0.42845 0.66474 0.0
H66 H 0.64264 0.61094 0.35593 0.0
H67 H 0.39829 0.61967 0.35611 0.0
C68 C 0.04024 0.05748 0.43949 0.0
N69 N 0.05241 0.99988 0.42506 0.0
N70 N 0.97116 0.08573 0.4292 0.0
C71 C 0.09925 0.09212 0.4596 0.0
C72 C 0.94212 0.04408 0.40716 0.0
N73 N 0.9915 0.99211 0.40466 0.0
C74 C 0.86484 0.05292 0.38879 0.0
H75 H 0.11601 0.1415 0.44222 0.0
H76 H 0.15042 0.05891 0.46697 0.0
H77 H 0.07516 0.10665 0.48379 0.0
H78 H 0.86864 0.04919 0.35993 0.0
H79 H 0.83807 0.10348 0.39073 0.0
H80 H 0.82801 0.01021 0.40158 0.0
C81 C 0.03206 1.00277 0.56034 0.0
N82 N 0.04972 0.06134 0.57325 0.0
N83 N 0.97684 0.96758 0.57934 0.0
C84 C 0.07416 0.97443 0.53249 0.0
C85 C 0.96306 1.00526 0.60521 0.0
N86 N 0.00734 0.0628 0.60144 0.0
C87 C 0.90948 0.98377 0.63522 0.0
H88 H 0.12839 1.00134 0.52659 0.0
H89 H 0.03732 0.97954 0.50794 0.0
H90 H 0.0858 0.91791 0.54187 0.0
H91 H 0.93921 0.98326 0.66168 0.0
H92 H 0.88488 0.93169 0.63484 0.0
H93 H 0.86228 0.02218 0.63241 0.0
C94 C 0.58149 0.60159 0.94355 0.0
N95 N 0.59514 0.54471 0.92855 0.0
N96 N 0.51054 0.62642 0.93446 0.0
C97 C 0.63584 0.63209 0.96793 0.0
C98 C 0.48219 0.58432 0.91255 0.0
N99 N 0.53348 0.53464 0.90896 0.0
C100 C 0.40647 0.59492 0.89271 0.0
H101 H 0.67034 0.59127 0.98557 0.0
H102 H 0.60512 0.66229 0.98492 0.0
H103 H 0.67459 0.66789 0.95121 0.0
H104 H 0.41129 0.58756 0.86441 0.0
H105 H 0.38292 0.64776 0.89272 0.0
H106 H 0.36659 0.55546 0.90603 0.0
C107 C 0.51642 0.52833 0.05975 0.0
N108 N 0.53196 0.58126 0.07753 0.0
N109 N 0.45143 0.49653 0.0708 0.0
C110 C 0.56729 0.50371 0.03361 0.0
C111 C 0.42835 0.53141 0.09644 0.0
N112 N 0.47711 0.58317 0.10034 0.0
C113 C 0.35833 0.51501 0.11765 0.0
H114 H 0.54648 0.5256 0.00598 0.0
H115 H 0.56555 0.44596 0.03673 0.0
H116 H 0.62647 0.51987 0.03761 0.0
H117 H 0.31304 0.49533 0.10111 0.0
H118 H 0.33683 0.56164 0.12722 0.0
H119 H 0.37221 0.47397 0.1415 0.0
H120 H 0.20068 0.1597 0.07138 0.0
H121 H 0.17486 0.22343 0.95514 0.0
H122 H 0.26288 0.32035 0.95767 0.0
H123 H 0.20312 0.32853 0.09198 0.0
H124 H 0.27308 0.3092 0.12842 0.0
H125 H 0.21294 0.24103 0.11747 0.0
H126 H 0.33085 0.16678 0.10946 0.0
H127 H 0.39144 0.23464 0.1206 0.0
H128 H 0.40194 0.20377 0.07883 0.0
H129 H 0.34525 0.41478 0.97289 0.0
H130 H 0.41789 0.50084 0.00029 0.0
H131 H 0.39418 0.3752 0.10622 0.0
C132 C 0.21427 0.1935 0.04641 0.0
C133 C 0.18096 0.18399 0.01306 0.0
C134 C 0.19971 0.22968 0.98101 0.0
C135 C 0.24979 0.28478 0.98213 0.0
C136 C 0.28088 0.2932 0.01546 0.0
C137 C 0.26423 0.24877 0.04701 0.0
C138 C 0.30282 0.27141 0.07944 0.0
C139 C 0.2445 0.28856 0.10587 0.0
C140 C 0.36018 0.21583 0.09818 0.0
C141 C 0.34218 0.33647 0.06122 0.0
C142 C 0.32919 0.3477 0.02427 0.0
C143 C 0.35663 0.40607 0.00174 0.0
C144 C 0.39796 0.45456 0.01746 0.0
C145 C 0.4116 0.44436 0.05522 0.0
C146 C 0.38409 0.38414 0.07729 0.0
H147 H 0.16148 0.79426 0.01441 0.0
H148 H 0.25878 0.99514 0.97255 0.0
H149 H 0.37496 0.93675 0.95837 0.0
H150 H 0.34228 0.70234 0.05051 0.0
H151 H 0.31637 0.62217 0.03596 0.0
H152 H 0.24445 0.67761 0.04889 0.0
H153 H 0.17296 0.68505 0.98742 0.0
H154 H 0.24263 0.62808 0.97428 0.0
H155 H 0.2227 0.71211 0.94647 0.0
H156 H 0.47436 0.85802 0.94294 0.0
H157 H 0.54794 0.76235 0.92466 0.0
H158 H 0.38406 0.61288 0.9726 0.0
C159 C 0.20841 0.82553 0.00329 0.0
C160 C 0.20238 0.89893 0.995 0.0
C161 C 0.26329 0.93872 0.97932 0.0
C162 C 0.32945 0.90611 0.97136 0.0
C163 C 0.33354 0.83354 0.97901 0.0
C164 C 0.27472 0.7935 0.99457 0.0
C165 C 0.29026 0.7164 0.99596 0.0
C166 C 0.29888 0.67732 0.03515 0.0
C167 C 0.22847 0.68353 0.97476 0.0
C168 C 0.3651 0.71994 0.97748 0.0
C169 C 0.38999 0.78782 0.96874 0.0
C170 C 0.45593 0.80452 0.94999 0.0
C171 C 0.49723 0.75031 0.93967 0.0
C172 C 0.47141 0.68094 0.94752 0.0
C173 C 0.40508 0.66558 0.96688 0.0
H174 H 0.9078 0.79621 0.0308 0.0
H175 H 0.76579 0.96068 0.96943 0.0
H176 H 0.65237 0.88837 0.98471 0.0
H177 H 0.79598 0.6506 0.00408 0.0
H178 H 0.81217 0.595 0.04738 0.0
H179 H 0.88232 0.65782 0.02996 0.0
H180 H 0.87869 0.7111 0.08784 0.0
H181 H 0.80799 0.64932 0.1056 0.0
H182 H 0.78987 0.74162 0.10141 0.0
H183 H 0.55468 0.80579 0.01441 0.0
H184 H 0.47951 0.7053 0.04338 0.0
H185 H 0.6852 0.59076 0.08165 0.0
C186 C 0.85292 0.81582 0.01969 0.0
C187 C 0.84493 0.88336 -0.00133 0.0
C188 C 0.77265 0.90836 0.98497 0.0
C189 C 0.70811 0.86807 0.99388 0.0
C190 C 0.71753 0.80258 0.01585 0.0
C191 C 0.78831 0.7755 0.02747 0.0
C192 C 0.78292 0.70319 0.05025 0.0
C193 C 0.82055 0.6484 0.03182 0.0
C194 C 0.81689 0.70125 0.08854 0.0
C195 C 0.69796 0.69462 0.05054 0.0
C196 C 0.66131 0.75314 0.03106 0.0
C197 C 0.58273 0.75913 0.02897 0.0
C198 C 0.5406 0.70239 0.04568 0.0
C199 C 0.57705 0.64076 0.06406 0.0
C200 C 0.65658 0.63724 0.06717 0.0
H201 H 0.75698 0.1599 0.99526 0.0
H202 H 0.97514 0.25259 0.01077 0.0
H203 H 0.91838 0.37052 0.99281 0.0
H204 H 0.69384 0.27442 0.91982 0.0
H205 H 0.59682 0.28098 0.93186 0.0
H206 H 0.6514 0.20345 0.94971 0.0
H207 H 0.62432 0.21759 0.01506 0.0
H208 H 0.56765 0.29402 -0.00267 0.0
H209 H 0.64481 0.29937 0.02922 0.0
H210 H 0.843 0.47613 0.96254 0.0
H211 H 0.74713 0.56494 0.93521 0.0
H212 H 0.5747 0.40577 0.94718 0.0
C213 C 0.7917 0.20523 -0.00366 0.0
C214 C 0.86985 0.19783 0.00508 0.0
C215 C 0.91468 0.25781 0.00505 0.0
C216 C 0.88313 0.3248 0.99452 0.0
C217 C 0.80635 0.3307 0.98483 0.0
C218 C 0.76051 0.27271 0.98692 0.0
C219 C 0.67983 0.29384 0.97466 0.0
C220 C 0.65401 0.26121 0.94209 0.0
C221 C 0.62598 0.2751 0.00594 0.0
C222 C 0.68836 0.37217 0.96409 0.0
C223 C 0.7619 0.39234 0.96972 0.0
C224 C 0.78464 0.46133 0.95917 0.0
C225 C 0.73001 0.51137 0.94369 0.0
C226 C 0.65336 0.49248 0.93996 0.0
C227 C 0.63288 0.42173 0.94981 0.0
H228 H 0.68723 0.73914 0.48566 0.0
H229 H 0.7367 0.57287 0.57689 0.0
H230 H 0.83863 0.64266 0.59818 0.0
H231 H 0.88683 0.80257 0.47311 0.0
H232 H 0.85681 0.8928 0.4627 0.0
H233 H 0.79574 0.82568 0.45112 0.0
H234 H 0.68901 0.86928 0.48701 0.0
H235 H 0.75028 0.93583 0.49885 0.0
H236 H 0.70693 0.87481 0.53374 0.0
H237 H 0.92518 0.73296 0.61361 0.0
H238 H 0.99062 0.84157 0.62224 0.0
H239 H 0.88485 0.95139 0.52282 0.0
C240 C 0.7211 0.71697 0.5095 0.0
C241 C 0.70455 0.65054 0.52954 0.0
C242 C 0.74852 0.62373 0.56118 0.0
C243 C 0.80685 0.66276 0.5734 0.0
C244 C 0.82066 0.72876 0.55375 0.0
C245 C 0.77938 0.7559 0.52242 0.0
C246 C 0.80123 0.83105 0.50861 0.0
C247 C 0.83733 0.83843 0.4717 0.0
C248 C 0.73279 0.88064 0.50698 0.0
C249 C 0.85905 0.84212 0.53772 0.0
C250 C 0.87025 0.78202 0.56314 0.0
C251 C 0.91767 0.7802 0.59368 0.0
C252 C 0.95415 0.84175 0.59854 0.0
C253 C 0.94212 0.904 0.57327 0.0
C254 C 0.89509 0.90396 0.54225 0.0
H255 H 0.70464 0.40576 0.44471 0.0
H256 H 0.67654 0.30982 0.55653 0.0
H257 H 0.76808 0.21716 0.55002 0.0
H258 H 0.71633 0.24988 0.40979 0.0
H259 H 0.78701 0.28133 0.37779 0.0
H260 H 0.72235 0.3419 0.39174 0.0
H261 H 0.83536 0.41234 0.41169 0.0
H262 H 0.9004 0.35198 0.39771 0.0
H263 H 0.90668 0.3684 0.4432 0.0
H264 H 0.8548 0.13072 0.53004 0.0
H265 H 0.93531 0.0593 0.49845 0.0
H266 H 0.91064 0.21279 0.40058 0.0
C267 C 0.71796 0.36551 0.46794 0.0
C268 C 0.68321 0.36483 0.50114 0.0
C269 C 0.70245 0.31136 0.53086 0.0
C270 C 0.75438 0.25859 0.52742 0.0
C271 C 0.78699 0.26056 0.49421 0.0
C272 C 0.77 0.31289 0.46506 0.0
C273 C 0.81175 0.30223 0.43213 0.0
C274 C 0.75602 0.2933 0.40104 0.0
C275 C 0.86682 0.36232 0.42051 0.0
C276 C 0.85383 0.23487 0.44707 0.0
C277 C 0.83875 0.2118 0.48296 0.0
C278 C 0.86778 0.14889 0.50213 0.0
C279 C 0.91355 0.10874 0.48416 0.0
C280 C 0.92943 0.13117 0.44751 0.0
C281 C 0.8998 0.19531 0.4288 0.0
H282 H 0.4125 0.2892 0.52135 0.0
H283 H 0.2615 0.46047 0.47589 0.0
H284 H 0.15204 0.38075 0.48533 0.0
H285 H 0.30091 0.14981 0.48377 0.0
H286 H 0.32393 0.0857 0.5235 0.0
H287 H 0.39007 0.15387 0.50804 0.0
H288 H 0.39211 0.18923 0.57108 0.0
H289 H 0.32493 0.12235 0.58644 0.0
H290 H 0.30449 0.21187 0.58924 0.0
H291 H 0.05944 0.28871 0.51149 0.0
H292 H 0.99112 0.18589 0.54294 0.0
H293 H 0.2018 0.07079 0.56556 0.0
C294 C 0.35656 0.30897 0.51205 0.0
C295 C 0.34495 0.38038 0.49738 0.0
C296 C 0.27123 0.40547 0.48637 0.0
C297 C 0.20893 0.36066 0.49189 0.0
C298 C 0.22191 0.29079 0.50762 0.0
C299 C 0.29421 0.26453 0.5165 0.0
C300 C 0.29269 0.18837 0.53461 0.0
C301 C 0.32906 0.14169 0.51107 0.0
C302 C 0.3308 0.17738 0.57258 0.0
C303 C 0.20826 0.1768 0.53632 0.0
C304 C 0.16836 0.23654 0.52064 0.0
C305 C 0.09 0.24098 0.52259 0.0
C306 C 0.05164 0.18265 0.54047 0.0
C307 C 0.09113 0.12026 0.55528 0.0
C308 C 0.17041 0.11736 0.55326 0.0
H309 H 0.41899 0.75886 0.47261 0.0
H310 H 0.28234 0.61585 0.54467 0.0
H311 H 0.17395 0.69868 0.5312 0.0
H312 H 0.33672 0.92185 0.49535 0.0
H313 H 0.34341 0.96831 0.44976 0.0
H314 H 0.41128 0.90057 0.46779 0.0
H315 H 0.37843 0.83804 0.41419 0.0
H316 H 0.30937 0.90467 0.39642 0.0
H317 H 0.28176 0.81441 0.40594 0.0
H318 H 0.07634 0.78748 0.50205 0.0
H319 H 1.00151 0.88768 0.46857 0.0
H320 H 0.2037 0.97869 0.4197 0.0
C321 C 0.36677 0.74598 0.48631 0.0
C322 C 0.3587 0.68128 0.5098 0.0
C323 C 0.2897 0.66563 0.52703 0.0
C324 C 0.22786 0.71208 0.51928 0.0
C325 C 0.2369 0.77441 0.49495 0.0
C326 C 0.30528 0.79242 0.47954 0.0
C327 C 0.29983 0.86214 0.45392 0.0
C328 C 0.35084 0.91643 0.46753 0.0
C329 C 0.31846 0.85429 0.41535 0.0
C330 C 0.21701 0.87964 0.45639 0.0
C331 C 0.18162 0.82784 0.47992 0.0
C332 C 0.10393 0.82908 0.48437 0.0
C333 C 0.06186 0.88561 0.46511 0.0
C334 C 0.09754 0.94097 0.44251 0.0
C335 C 0.17591 0.93764 0.43767 0.0
H336 H 0.1105 0.96384 0.21321 0.0
H337 H 0.89831 0.85897 0.1993 0.0
H338 H 0.88111 0.84221 0.26485 0.0
H339 H 0.16566 0.85601 0.30549 0.0
H340 H 0.2062 0.93178 0.31976 0.0
H341 H 0.20961 0.92204 0.27324 0.0
H342 H 0.14412 0.0429 0.2534 0.0
H343 H 0.14041 0.05295 0.29958 0.0
H344 H 0.05459 0.05911 0.27184 0.0
H345 H 0.87528 0.85761 0.32942 0.0
H346 H 0.88305 0.90387 0.38655 0.0
H347 H 0.1003 0.99392 0.35794 0.0
C348 C 0.06206 0.93453 0.224 0.0
C349 C 0.00576 0.91296 0.201 0.0
C350 C 0.94185 0.8769 0.21629 0.0
C351 C 0.932 0.86632 0.25357 0.0
C352 C 0.98733 0.89071 0.27532 0.0
C353 C 0.05182 0.92305 0.26108 0.0
C354 C 0.09837 0.95216 0.28922 0.0
C355 C 0.17447 0.91315 0.29741 0.0
C356 C 0.10993 0.03143 0.27782 0.0
C357 C 0.04741 0.93566 0.32079 0.0
C358 C 0.98442 0.8987 0.31269 0.0
C359 C 0.92519 0.88508 0.33636 0.0
C360 C 0.9296 0.91186 0.36851 0.0
C361 C 0.99219 0.95238 0.37614 0.0
C362 C 0.05281 0.96174 0.35276 0.0
H363 H 0.92791 0.15677 0.78786 0.0
H364 H 0.16733 0.11029 0.81127 0.0
H365 H 0.18844 0.12472 0.74716 0.0
H366 H 0.90964 0.05006 0.72678 0.0
H367 H 0.84256 0.10267 0.69625 0.0
H368 H 0.84774 0.11032 0.74296 0.0
H369 H 0.8703 0.24334 0.72486 0.0
H370 H 0.86547 0.23583 0.67791 0.0
H371 H 0.94723 0.27403 0.69635 0.0
H372 H 0.18268 0.11662 0.68437 0.0
H373 H 0.14756 0.07783 0.6279 0.0
H374 H 0.9128 0.12869 0.64042 0.0
C375 C 0.98509 0.15087 0.77963 0.0
C376 C 0.04593 0.13395 0.8053 0.0
C377 C 0.11966 0.12623 0.79281 0.0
C378 C 0.13254 0.13406 0.75609 0.0
C379 C 0.0713 0.14886 0.73175 0.0
C380 C 0.99882 0.15694 0.74286 0.0
C381 C 0.94142 0.16009 0.71167 0.0
C382 C 0.8819 0.10234 0.71992 0.0
C383 C 0.9039 0.23266 0.70214 0.0
C384 C 0.99266 0.14714 0.68218 0.0
C385 C 0.06763 0.14328 0.69418 0.0
C386 C 0.12462 0.12185 0.67411 0.0
C387 C 0.10423 0.10042 0.64181 0.0
C388 C 0.02764 0.10085 0.62967 0.0
C389 C 0.97171 0.12793 0.64919 0.0
H390 H 0.61803 0.48977 0.71316 0.0
H391 H 0.41438 0.36596 0.71396 0.0
H392 H 0.4073 0.36195 0.77954 0.0
H393 H 0.69543 0.40407 0.80475 0.0
H394 H 0.73129 0.48592 0.81382 0.0
H395 H 0.72687 0.46944 0.7683 0.0
H396 H 0.6474 0.5827 0.74773 0.0
H397 H 0.65155 0.5994 0.793 0.0
H398 H 0.56113 0.59435 0.77 0.0
H399 H 0.41232 0.38617 0.84299 0.0
H400 H 0.42895 0.43834 0.8981 0.0
H401 H 0.63075 0.54219 0.85594 0.0
C402 C 0.57345 0.45956 0.72725 0.0
C403 C 0.51694 0.42797 0.70833 0.0
C404 C 0.45807 0.39108 0.72777 0.0
C405 C 0.45399 0.3879 0.7651 0.0
C406 C 0.50974 0.42107 0.78274 0.0
C407 C 0.5688 0.45563 0.76444 0.0
C408 C 0.61734 0.49291 0.78872 0.0
C409 C 0.69749 0.46116 0.79422 0.0
C410 C 0.61939 0.57199 0.77398 0.0
C411 C 0.57433 0.47685 0.82306 0.0
C412 C 0.51313 0.43431 0.81937 0.0
C413 C 0.46094 0.41823 0.84642 0.0
C414 C 0.47052 0.44801 0.87749 0.0
C415 C 0.53136 0.49347 0.88095 0.0
C416 C 0.585 0.5061 0.854 0.0
H417 H 0.60435 0.56642 0.30199 0.0
H418 H 0.42483 0.71533 0.30856 0.0
H419 H 0.40579 0.73543 0.24237 0.0
H420 H 0.67746 0.65913 0.21352 0.0
H421 H 0.69693 0.57736 0.19956 0.0
H422 H 0.70468 0.58346 0.24665 0.0
H423 H 0.611 0.48104 0.26136 0.0
H424 H 0.60276 0.4748 0.21449 0.0
H425 H 0.51916 0.48721 0.23854 0.0
H426 H 0.39306 0.72535 0.17683 0.0
H427 H 0.3901 0.68602 0.11769 0.0
H428 H 0.58008 0.54801 0.15384 0.0
C429 C 0.56295 0.60521 0.28947 0.0
C430 C 0.51609 0.6392 0.31052 0.0
C431 C 0.46092 0.68804 0.29304 0.0
C432 C 0.45015 0.70034 0.25541 0.0
C433 C 0.49575 0.66425 0.23554 0.0
C434 C 0.55177 0.61832 0.25197 0.0
C435 C 0.5883 0.5811 0.22506 0.0
C436 C 0.6718 0.6015 0.22096 0.0
C437 C 0.57972 0.50136 0.2355 0.0
C438 C 0.54155 0.61051 0.19135 0.0
C439 C 0.48919 0.65931 0.19768 0.0
C440 C 0.43494 0.68846 0.17134 0.0
C441 C 0.43337 0.66598 0.13799 0.0
C442 C 0.48529 0.61479 0.1317 0.0
C443 C 0.5411 0.58835 0.15821 0.0
loop_
_geom_bond_atom_site_label_1
_geom_bond_atom_site_label_2
_geom_bond_distance
_geom_bond_site_symmetry_2
_ccdc_geom_bond_type
C0 O16 1.251 . S
C0 O18 1.254 1_554 S
N1 C2 1.333 1_445 S
N1 C6 1.307 . S
N1 Zn7 2.020 . S
C2 N1 1.333 1_665 S
C2 C3 1.379 . S
C2 H20 0.952 . S
C3 C2 1.379 . S
C3 C4 1.390 1_655 S
C3 H30 0.949 . S
C4 C3 1.390 1_455 S
C4 C5 1.357 1_565 S
C5 C4 1.357 1_545 S
C5 C6 1.370 . S
C5 H31 0.950 . S
C6 N1 1.307 . S
C6 C5 1.370 . S
C6 H24 0.948 . S
Zn7 N1 2.020 . S
Zn7 O16 2.039 1_445 S
Zn7 O22 2.034 1_455 S
Zn7 O26 2.025 . S
Zn7 O28 2.024 1_545 S
C8 O27 1.246 1_554 S
C8 O28 1.249 . S
N9 C10 1.307 1_455 S
N9 C11 1.333 . S
N9 Zn15 2.020 . S
C10 N9 1.307 1_655 S
C10 C14 1.370 . S
C10 H21 0.948 . S
C11 N9 1.333 . S
C11 C12 1.379 . S
C11 H19 0.952 . S
C12 C11 1.379 . S
C12 C13 1.390 . S
C12 H32 0.949 . S
C13 C12 1.390 . S
C13 C14 1.357 1_455 S
C14 C10 1.370 . S
C14 C13 1.357 1_655 S
C14 H33 0.950 . S
Zn15 N9 2.020 . S
Zn15 O18 2.025 1_445 S
Zn15 O23 2.024 1_455 S
Zn15 O25 2.039 . S
Zn15 O27 2.034 1_545 S
O16 C0 1.251 . S
O16 Zn7 2.039 1_665 S
C17 O22 1.246 . S
C17 O23 1.249 1_554 S
O18 C0 1.254 1_556 S
O18 Zn15 2.025 1_665 S
H19 C11 0.952 . S
H20 C2 0.952 . S
H21 C10 0.948 . S
O22 Zn7 2.034 1_655 S
O22 C17 1.246 . S
O23 Zn15 2.024 1_655 S
O23 C17 1.249 1_556 S
H24 C6 0.948 . S
O25 Zn15 2.039 . S
O25 C29 1.251 1_556 S
O26 Zn7 2.025 . S
O26 C29 1.254 . S
O27 C8 1.246 1_556 S
O27 Zn15 2.034 1_565 S
O28 Zn7 2.024 1_565 S
O28 C8 1.249 . S
C29 O25 1.251 1_554 S
C29 O26 1.254 . S
H30 C3 0.949 . S
H31 C5 0.950 . S
H32 C12 0.949 . S
H33 C14 0.950 . S
C34 O50 1.251 . S
C34 O52 1.254 . S
N35 C36 1.333 . S
N35 C40 1.307 . S
N35 Zn41 2.020 . S
C36 N35 1.333 . S
C36 C37 1.379 . S
C36 H54 0.952 . S
C37 C36 1.379 . S
C37 C38 1.390 . S
C37 H64 0.949 . S
C38 C37 1.390 . S
C38 C39 1.357 . S
C39 C38 1.357 . S
C39 C40 1.370 . S
C39 H65 0.950 . S
C40 N35 1.307 . S
C40 C39 1.370 . S
C40 H58 0.948 . S
Zn41 N35 2.020 . S
Zn41 O50 2.039 . S
Zn41 O56 2.034 . S
Zn41 O60 2.025 . S
Zn41 O62 2.024 . S
C42 O61 1.246 . S
C42 O62 1.249 . S
N43 C44 1.307 . S
N43 C45 1.333 . S
N43 Zn49 2.020 . S
C44 N43 1.307 . S
C44 C48 1.370 . S
C44 H55 0.948 . S
C45 N43 1.333 . S
C45 C46 1.379 . S
C45 H53 0.952 . S
C46 C45 1.379 . S
C46 C47 1.390 . S
C46 H66 0.949 . S
C47 C46 1.390 . S
C47 C48 1.357 . S
C48 C44 1.370 . S
C48 C47 1.357 . S
C48 H67 0.950 . S
Zn49 N43 2.020 . S
Zn49 O52 2.025 . S
Zn49 O57 2.024 . S
Zn49 O59 2.039 . S
Zn49 O61 2.034 . S
O50 C34 1.251 . S
O50 Zn41 2.039 . S
C51 O56 1.246 . S
C51 O57 1.249 . S
O52 C34 1.254 . S
O52 Zn49 2.025 . S
H53 C45 0.952 . S
H54 C36 0.952 . S
H55 C44 0.948 . S
O56 Zn41 2.034 . S
O56 C51 1.246 . S
O57 Zn49 2.024 . S
O57 C51 1.249 . S
H58 C40 0.948 . S
O59 Zn49 2.039 . S
O59 C63 1.251 . S
O60 Zn41 2.025 . S
O60 C63 1.254 . S
O61 C42 1.246 . S
O61 Zn49 2.034 . S
O62 Zn41 2.024 . S
O62 C42 1.249 . S
C63 O59 1.251 . S
C63 O60 1.254 . S
H64 C37 0.949 . S
H65 C39 0.950 . S
H66 C46 0.949 . S
H67 C48 0.950 . S
C68 N69 1.317 1_545 S
C68 N70 1.348 1_455 S
C68 C71 1.485 1_545 S
N69 C68 1.317 1_565 S
N69 N73 1.370 . S
N70 C68 1.348 1_655 S
N70 C72 1.346 . S
C71 C68 1.485 1_565 S
C71 H75 0.960 1_455 S
C71 H76 0.961 1_565 S
C71 H77 0.960 . S
C72 N70 1.346 . S
C72 N73 1.308 1_645 S
C72 C74 1.486 . S
N73 N69 1.370 . S
N73 C72 1.308 1_465 S
C74 C72 1.486 . S
C74 H78 0.960 . S
C74 H79 0.960 . S
C74 H80 0.959 . S
H75 C71 0.960 1_655 S
H76 C71 0.961 1_545 S
H77 C71 0.960 . S
H78 C74 0.960 . S
H79 C74 0.960 . S
H80 C74 0.959 . S
C81 N82 1.317 . S
C81 N83 1.348 1_445 S
C81 C84 1.485 . S
N82 C81 1.317 . S
N82 N86 1.370 . S
N83 C81 1.348 1_665 S
N83 C85 1.346 1_565 S
C84 C81 1.485 . S
C84 H88 0.968 . S
C84 H89 0.961 . S
C84 H90 0.960 . S
C85 N83 1.346 1_545 S
C85 N86 1.307 1_655 S
C85 C87 1.486 1_545 S
N86 N82 1.370 . S
N86 C85 1.307 1_455 S
C87 C85 1.486 1_565 S
C87 H91 0.960 . S
C87 H92 0.960 . S
C87 H93 0.959 . S
H88 C84 0.968 . S
H89 C84 0.961 . S
H90 C84 0.960 . S
H91 C87 0.960 . S
H92 C87 0.960 . S
H93 C87 0.959 . S
C94 N95 1.317 . S
C94 N96 1.348 . S
C94 C97 1.485 1_556 S
N95 C94 1.317 . S
N95 N99 1.370 . S
N96 C94 1.348 . S
N96 C98 1.346 . S
C97 C94 1.485 1_554 S
C97 H101 0.960 . S
C97 H102 0.961 . S
C97 H103 0.960 . S
C98 N96 1.346 . S
C98 N99 1.307 . S
C98 C100 1.486 . S
N99 N95 1.370 . S
N99 C98 1.307 . S
C100 C98 1.486 . S
C100 H104 0.960 . S
C100 H105 0.960 . S
C100 H106 0.959 . S
H101 C97 0.960 . S
H102 C97 0.961 . S
H103 C97 0.960 . S
H104 C100 0.960 . S
H105 C100 0.960 . S
H106 C100 0.959 . S
C107 N108 1.317 . S
C107 N109 1.348 . S
C107 C110 1.485 1_554 S
N108 C107 1.317 . S
N108 N112 1.370 . S
N109 C107 1.348 . S
N109 C111 1.346 . S
C110 C107 1.485 1_556 S
C110 H114 0.960 . S
C110 H115 0.961 . S
C110 H116 0.960 . S
C111 N109 1.346 . S
C111 N112 1.307 . S
C111 C113 1.486 . S
N112 N108 1.370 . S
N112 C111 1.307 . S
C113 C111 1.486 . S
C113 H117 0.960 . S
C113 H118 0.960 . S
C113 H119 0.959 . S
H114 C110 0.960 . S
H115 C110 0.961 . S
H116 C110 0.960 . S
H117 C113 0.960 . S
H118 C113 0.960 . S
H119 C113 0.959 . S
H120 C132 0.930 . S
H121 C134 0.930 . S
H122 C135 0.930 . S
H123 C139 0.959 . S
H124 C139 0.959 . S
H125 C139 0.961 . S
H126 C140 0.960 . S
H127 C140 0.961 . S
H128 C140 0.959 . S
H129 C143 0.929 . S
H130 C144 0.931 . S
H131 C146 0.930 . S
C132 H120 0.930 . S
C132 C133 1.414 . S
C132 C137 1.399 . S
C133 C132 1.414 . S
C133 C134 1.362 1_554 S
C134 H121 0.930 . S
C134 C133 1.362 1_556 S
C134 C135 1.388 . S
C135 H122 0.930 . S
C135 C134 1.388 . S
C135 C136 1.390 . S
C136 C135 1.390 . S
C136 C137 1.394 1_556 S
C136 C142 1.465 . S
C137 C132 1.399 . S
C137 C136 1.394 1_554 S
C137 C138 1.516 . S
C138 C137 1.516 . S
C138 C139 1.502 . S
C138 C140 1.561 . S
C138 C141 1.526 . S
C139 H123 0.959 . S
C139 H124 0.959 . S
C139 H125 0.961 . S
C139 C138 1.502 . S
C140 H126 0.960 . S
C140 H127 0.961 . S
C140 H128 0.959 . S
C140 C138 1.561 . S
C141 C138 1.526 . S
C141 C142 1.396 1_554 S
C141 C146 1.390 . S
C142 C136 1.465 . S
C142 C141 1.396 1_556 S
C142 C143 1.399 . S
C143 H129 0.929 . S
C143 C142 1.399 . S
C143 C144 1.385 . S
C144 H130 0.931 . S
C144 C143 1.385 . S
C144 C145 1.389 1_556 S
C145 C144 1.389 1_554 S
C145 C146 1.387 . S
C146 H131 0.930 . S
C146 C141 1.390 . S
C146 C145 1.387 . S
H147 C159 0.930 . S
H148 C161 0.930 . S
H149 C162 0.930 . S
H150 C166 0.959 . S
H151 C166 0.959 . S
H152 C166 0.961 . S
H153 C167 0.960 . S
H154 C167 0.961 . S
H155 C167 0.959 . S
H156 C170 0.929 . S
H157 C171 0.931 . S
H158 C173 0.930 . S
C159 H147 0.930 . S
C159 C160 1.399 . S
C159 C164 1.399 . S
C160 C159 1.399 . S
C160 C161 1.376 1_554 S
C161 H148 0.930 . S
C161 C160 1.376 1_556 S
C161 C162 1.388 . S
C162 H149 0.930 . S
C162 C161 1.388 . S
C162 C163 1.390 . S
C163 C162 1.390 . S
C163 C164 1.394 1_556 S
C163 C169 1.465 . S
C164 C159 1.399 . S
C164 C163 1.394 1_554 S
C164 C165 1.516 . S
C165 C164 1.516 . S
C165 C166 1.502 . S
C165 C167 1.561 . S
C165 C168 1.526 . S
C166 H150 0.959 . S
C166 H151 0.959 . S
C166 H152 0.961 . S
C166 C165 1.502 . S
C167 H153 0.960 . S
C167 H154 0.961 . S
C167 H155 0.959 . S
C167 C165 1.561 . S
C168 C165 1.526 . S
C168 C169 1.396 1_554 S
C168 C173 1.390 . S
C169 C163 1.465 . S
C169 C168 1.396 1_556 S
C169 C170 1.399 . S
C170 H156 0.929 . S
C170 C169 1.399 . S
C170 C171 1.385 . S
C171 H157 0.931 . S
C171 C170 1.385 . S
C171 C172 1.389 . S
C172 C171 1.389 . S
C172 C173 1.387 1_556 S
C173 H158 0.930 . S
C173 C168 1.390 . S
C173 C172 1.387 1_554 S
H174 C186 0.930 . S
H175 C188 0.930 . S
H176 C189 0.930 . S
H177 C193 0.959 . S
H178 C193 0.959 . S
H179 C193 0.961 . S
H180 C194 0.960 . S
H181 C194 0.961 . S
H182 C194 0.959 1_554 S
H183 C197 0.929 . S
H184 C198 0.931 . S
H185 C200 0.930 1_556 S
C186 H174 0.930 . S
C186 C187 1.399 1_556 S
C186 C191 1.399 1_556 S
C187 C186 1.399 1_554 S
C187 C188 1.376 . S
C188 H175 0.930 . S
C188 C187 1.376 . S
C188 C189 1.388 . S
C189 H176 0.930 . S
C189 C188 1.388 . S
C189 C190 1.390 . S
C190 C189 1.390 . S
C190 C191 1.394 . S
C190 C196 1.465 . S
C191 C186 1.399 1_554 S
C191 C190 1.394 . S
C191 C192 1.516 1_554 S
C192 C191 1.516 1_556 S
C192 C193 1.502 . S
C192 C194 1.561 . S
C192 C195 1.526 1_556 S
C193 H177 0.959 . S
C193 H178 0.959 . S
C193 H179 0.961 . S
C193 C192 1.502 . S
C194 H180 0.960 . S
C194 H181 0.961 . S
C194 H182 0.959 1_556 S
C194 C192 1.561 . S
C195 C192 1.526 1_554 S
C195 C196 1.396 . S
C195 C200 1.390 . S
C196 C190 1.465 . S
C196 C195 1.396 . S
C196 C197 1.399 . S
C197 H183 0.929 . S
C197 C196 1.399 . S
C197 C198 1.385 . S
C198 H184 0.931 . S
C198 C197 1.385 . S
C198 C199 1.389 . S
C199 C198 1.389 . S
C199 C200 1.387 . S
C200 H185 0.930 1_554 S
C200 C195 1.390 . S
C200 C199 1.387 . S
H201 C213 0.930 . S
H202 C215 0.930 . S
H203 C216 0.930 . S
H204 C220 0.959 . S
H205 C220 0.959 . S
H206 C220 0.961 . S
H207 C221 0.960 . S
H208 C221 0.961 . S
H209 C221 0.959 . S
H210 C224 0.929 . S
H211 C225 0.931 . S
H212 C227 0.930 . S
C213 H201 0.930 . S
C213 C214 1.399 1_554 S
C213 C218 1.399 . S
C214 C213 1.399 1_556 S
C214 C215 1.376 . S
C215 H202 0.930 . S
C215 C214 1.376 . S
C215 C216 1.388 . S
C216 H203 0.930 . S
C216 C215 1.388 . S
C216 C217 1.390 . S
C217 C216 1.390 . S
C217 C218 1.394 1_556 S
C217 C223 1.465 . S
C218 C213 1.399 . S
C218 C217 1.394 1_554 S
C218 C219 1.516 . S
C219 C218 1.516 . S
C219 C220 1.502 . S
C219 C221 1.561 . S
C219 C222 1.526 . S
C220 H204 0.959 . S
C220 H205 0.959 . S
C220 H206 0.961 . S
C220 C219 1.502 . S
C221 H207 0.960 . S
C221 H208 0.961 . S
C221 H209 0.959 . S
C221 C219 1.561 . S
C222 C219 1.526 . S
C222 C223 1.396 1_554 S
C222 C227 1.390 . S
C223 C217 1.465 . S
C223 C222 1.396 1_556 S
C223 C224 1.399 . S
C224 H210 0.929 . S
C224 C223 1.399 . S
C224 C225 1.385 . S
C225 H211 0.931 . S
C225 C224 1.385 . S
C225 C226 1.389 . S
C226 C225 1.389 . S
C226 C227 1.387 1_556 S
C227 H212 0.930 . S
C227 C222 1.390 . S
C227 C226 1.387 1_554 S
H228 C240 0.930 . S
H229 C242 0.930 . S
H230 C243 0.930 . S
H231 C247 0.959 . S
H232 C247 0.959 . S
H233 C247 0.961 . S
H234 C248 0.960 . S
H235 C248 0.961 . S
H236 C248 0.959 . S
H237 C251 0.929 . S
H238 C252 0.931 . S
H239 C254 0.930 . S
C240 H228 0.930 . S
C240 C241 1.399 . S
C240 C245 1.399 . S
C241 C240 1.399 . S
C241 C242 1.376 . S
C242 H229 0.930 . S
C242 C241 1.376 . S
C242 C243 1.388 . S
C243 H230 0.930 . S
C243 C242 1.388 . S
C243 C244 1.390 . S
C244 C243 1.390 . S
C244 C245 1.394 . S
C244 C250 1.465 . S
C245 C240 1.399 . S
C245 C244 1.394 . S
C245 C246 1.516 . S
C246 C245 1.516 . S
C246 C247 1.502 . S
C246 C248 1.561 . S
C246 C249 1.526 . S
C247 H231 0.959 . S
C247 H232 0.959 . S
C247 H233 0.961 . S
C247 C246 1.502 . S
C248 H234 0.960 . S
C248 H235 0.961 . S
C248 H236 0.959 . S
C248 C246 1.561 . S
C249 C246 1.526 . S
C249 C250 1.396 . S
C249 C254 1.390 . S
C250 C244 1.465 . S
C250 C249 1.396 . S
C250 C251 1.399 . S
C251 H237 0.929 . S
C251 C250 1.399 . S
C251 C252 1.385 . S
C252 H238 0.931 . S
C252 C251 1.385 . S
C252 C253 1.389 . S
C253 C252 1.389 . S
C253 C254 1.387 . S
C254 H239 0.930 . S
C254 C249 1.390 . S
C254 C253 1.387 . S
H255 C267 0.930 . S
H256 C269 0.930 . S
H257 C270 0.930 . S
H258 C274 0.959 . S
H259 C274 0.959 . S
H260 C274 0.961 . S
H261 C275 0.960 . S
H262 C275 0.961 . S
H263 C275 0.959 . S
H264 C278 0.929 . S
H265 C279 0.931 . S
H266 C281 0.930 . S
C267 H255 0.930 . S
C267 C268 1.399 . S
C267 C272 1.399 . S
C268 C267 1.399 . S
C268 C269 1.376 . S
C269 H256 0.930 . S
C269 C268 1.376 . S
C269 C270 1.388 . S
C270 H257 0.930 . S
C270 C269 1.388 . S
C270 C271 1.390 . S
C271 C270 1.390 . S
C271 C272 1.394 . S
C271 C277 1.465 . S
C272 C267 1.399 . S
C272 C271 1.394 . S
C272 C273 1.516 . S
C273 C272 1.516 . S
C273 C274 1.502 . S
C273 C275 1.561 . S
C273 C276 1.526 . S
C274 H258 0.959 . S
C274 H259 0.959 . S
C274 H260 0.961 . S
C274 C273 1.502 . S
C275 H261 0.960 . S
C275 H262 0.961 . S
C275 H263 0.959 . S
C275 C273 1.561 . S
C276 C273 1.526 . S
C276 C277 1.396 . S
C276 C281 1.390 . S
C277 C271 1.465 . S
C277 C276 1.396 . S
C277 C278 1.399 . S
C278 H264 0.929 . S
C278 C277 1.399 . S
C278 C279 1.385 . S
C279 H265 0.931 . S
C279 C278 1.385 . S
C279 C280 1.389 . S
C280 C279 1.389 . S
C280 C281 1.387 . S
C281 H266 0.930 . S
C281 C276 1.390 . S
C281 C280 1.387 . S
H282 C294 0.930 . S
H283 C296 0.930 . S
H284 C297 0.930 . S
H285 C301 0.959 . S
H286 C301 0.959 . S
H287 C301 0.961 . S
H288 C302 0.960 . S
H289 C302 0.961 . S
H290 C302 0.959 . S
H291 C305 0.929 . S
H292 C306 0.931 . S
H293 C308 0.930 . S
C294 H282 0.930 . S
C294 C295 1.399 . S
C294 C299 1.399 . S
C295 C294 1.399 . S
C295 C296 1.376 . S
C296 H283 0.930 . S
C296 C295 1.376 . S
C296 C297 1.388 . S
C297 H284 0.930 . S
C297 C296 1.388 . S
C297 C298 1.390 . S
C298 C297 1.390 . S
C298 C299 1.394 . S
C298 C304 1.465 . S
C299 C294 1.399 . S
C299 C298 1.394 . S
C299 C300 1.516 . S
C300 C299 1.516 . S
C300 C301 1.502 . S
C300 C302 1.561 . S
C300 C303 1.526 . S
C301 H285 0.959 . S
C301 H286 0.959 . S
C301 H287 0.961 . S
C301 C300 1.502 . S
C302 H288 0.960 . S
C302 H289 0.961 . S
C302 H290 0.959 . S
C302 C300 1.561 . S
C303 C300 1.526 . S
C303 C304 1.396 . S
C303 C308 1.390 . S
C304 C298 1.465 . S
C304 C303 1.396 . S
C304 C305 1.399 . S
C305 H291 0.929 . S
C305 C304 1.399 . S
C305 C306 1.385 . S
C306 H292 0.931 . S
C306 C305 1.385 . S
C306 C307 1.389 . S
C307 C306 1.389 . S
C307 C308 1.387 . S
C308 H293 0.930 . S
C308 C303 1.390 . S
C308 C307 1.387 . S
H309 C321 0.930 . S
H310 C323 0.930 . S
H311 C324 0.930 . S
H312 C328 0.959 . S
H313 C328 0.959 . S
H314 C328 0.961 . S
H315 C329 0.960 . S
H316 C329 0.961 . S
H317 C329 0.959 . S
H318 C332 0.929 . S
H319 C333 0.931 . S
H320 C335 0.930 . S
C321 H309 0.930 . S
C321 C322 1.399 . S
C321 C326 1.399 . S
C322 C321 1.399 . S
C322 C323 1.376 . S
C323 H310 0.930 . S
C323 C322 1.376 . S
C323 C324 1.388 . S
C324 H311 0.930 . S
C324 C323 1.388 . S
C324 C325 1.390 . S
C325 C324 1.390 . S
C325 C326 1.394 . S
C325 C331 1.465 . S
C326 C321 1.399 . S
C326 C325 1.394 . S
C326 C327 1.516 . S
C327 C326 1.516 . S
C327 C328 1.502 . S
C327 C329 1.561 . S
C327 C330 1.526 . S
C328 H312 0.959 . S
C328 H313 0.959 . S
C328 H314 0.961 . S
C328 C327 1.502 . S
C329 H315 0.960 . S
C329 H316 0.961 . S
C329 H317 0.959 . S
C329 C327 1.561 . S
C330 C327 1.526 . S
C330 C331 1.396 . S
C330 C335 1.390 . S
C331 C325 1.465 . S
C331 C330 1.396 . S
C331 C332 1.399 . S
C332 H318 0.929 . S
C332 C331 1.399 . S
C332 C333 1.385 . S
C333 H319 0.931 . S
C333 C332 1.385 . S
C333 C334 1.389 . S
C334 C333 1.389 . S
C334 C335 1.387 . S
C335 H320 0.930 . S
C335 C330 1.390 . S
C335 C334 1.387 . S
H336 C348 0.930 . S
H337 C350 0.930 . S
H338 C351 0.930 . S
H339 C355 0.959 . S
H340 C355 0.959 . S
H341 C355 0.961 . S
H342 C356 0.960 . S
H343 C356 0.961 . S
H344 C356 0.959 . S
H345 C359 0.929 . S
H346 C360 0.931 . S
H347 C362 0.930 . S
C348 H336 0.930 . S
C348 C349 1.399 1_545 S
C348 C353 1.399 . S
C349 C348 1.399 1_565 S
C349 C350 1.376 1_455 S
C350 H337 0.930 . S
C350 C349 1.376 1_655 S
C350 C351 1.388 . S
C351 H338 0.930 . S
C351 C350 1.388 . S
C351 C352 1.390 1_655 S
C352 C351 1.390 1_455 S
C352 C353 1.394 1_565 S
C352 C358 1.465 . S
C353 C348 1.399 . S
C353 C352 1.394 1_545 S
C353 C354 1.516 . S
C354 C353 1.516 . S
C354 C355 1.502 . S
C354 C356 1.561 1_455 S
C354 C357 1.526 . S
C355 H339 0.959 . S
C355 H340 0.959 . S
C355 H341 0.961 . S
C355 C354 1.502 . S
C356 H342 0.960 . S
C356 H343 0.961 . S
C356 H344 0.959 . S
C356 C354 1.561 1_655 S
C357 C354 1.526 . S
C357 C358 1.396 1_545 S
C357 C362 1.390 . S
C358 C352 1.465 . S
C358 C357 1.396 1_565 S
C358 C359 1.399 1_455 S
C359 H345 0.929 . S
C359 C358 1.399 1_655 S
C359 C360 1.385 . S
C360 H346 0.931 . S
C360 C359 1.385 . S
C360 C361 1.389 1_655 S
C361 C360 1.389 1_455 S
C361 C362 1.387 1_565 S
C362 H347 0.930 . S
C362 C357 1.390 . S
C362 C361 1.387 1_545 S
H363 C375 0.930 . S
H364 C377 0.940 . S
H365 C378 0.930 . S
H366 C382 0.959 . S
H367 C382 0.959 . S
H368 C382 0.961 . S
H369 C383 0.960 . S
H370 C383 0.961 . S
H371 C383 0.959 . S
H372 C386 0.929 . S
H373 C387 0.931 . S
H374 C389 0.930 1_655 S
C375 H363 0.930 . S
C375 C376 1.399 . S
C375 C380 1.399 . S
C376 C375 1.399 . S
C376 C377 1.361 1_545 S
C377 H364 0.940 . S
C377 C376 1.361 1_565 S
C377 C378 1.395 . S
C378 H365 0.930 . S
C378 C377 1.395 . S
C378 C379 1.390 1_565 S
C379 C378 1.390 1_545 S
C379 C380 1.394 . S
C379 C385 1.465 . S
C380 C375 1.399 . S
C380 C379 1.394 . S
C380 C381 1.516 . S
C381 C380 1.516 . S
C381 C382 1.502 1_455 S
C381 C383 1.561 . S
C381 C384 1.526 . S
C382 H366 0.959 . S
C382 H367 0.959 . S
C382 H368 0.961 . S
C382 C381 1.502 1_655 S
C383 H369 0.960 . S
C383 H370 0.961 . S
C383 H371 0.959 . S
C383 C381 1.561 . S
C384 C381 1.526 . S
C384 C385 1.396 . S
C384 C389 1.390 . S
C385 C379 1.465 . S
C385 C384 1.396 . S
C385 C386 1.399 1_545 S
C386 H372 0.929 . S
C386 C385 1.399 1_565 S
C386 C387 1.385 . S
C387 H373 0.931 . S
C387 C386 1.385 . S
C387 C388 1.389 1_565 S
C388 C387 1.389 1_545 S
C388 C389 1.387 . S
C389 H374 0.930 1_455 S
C389 C384 1.390 . S
C389 C388 1.387 . S
H390 C402 0.930 . S
H391 C404 0.930 . S
H392 C405 0.930 . S
H393 C409 0.959 . S
H394 C409 0.959 . S
H395 C409 0.961 . S
H396 C410 0.960 . S
H397 C410 0.961 . S
H398 C410 0.959 . S
H399 C413 0.929 . S
H400 C414 0.931 . S
H401 C416 0.930 . S
C402 H390 0.930 . S
C402 C403 1.399 . S
C402 C407 1.399 . S
C403 C402 1.399 . S
C403 C404 1.376 . S
C404 H391 0.930 . S
C404 C403 1.376 . S
C404 C405 1.388 . S
C405 H392 0.930 . S
C405 C404 1.388 . S
C405 C406 1.390 . S
C406 C405 1.390 . S
C406 C407 1.394 . S
C406 C412 1.465 . S
C407 C402 1.399 . S
C407 C406 1.394 . S
C407 C408 1.516 . S
C408 C407 1.516 . S
C408 C409 1.502 . S
C408 C410 1.561 . S
C408 C411 1.526 . S
C409 H393 0.959 . S
C409 H394 0.959 . S
C409 H395 0.961 . S
C409 C408 1.502 . S
C410 H396 0.960 . S
C410 H397 0.961 . S
C410 H398 0.959 . S
C410 C408 1.561 . S
C411 C408 1.526 . S
C411 C412 1.396 . S
C411 C416 1.390 . S
C412 C406 1.465 . S
C412 C411 1.396 . S
C412 C413 1.399 . S
C413 H399 0.929 . S
C413 C412 1.399 . S
C413 C414 1.385 . S
C414 H400 0.931 . S
C414 C413 1.385 . S
C414 C415 1.389 . S
C415 C414 1.389 . S
C415 C416 1.387 . S
C416 H401 0.930 . S
C416 C411 1.390 . S
C416 C415 1.387 . S
H417 C429 0.930 . S
H418 C431 0.930 . S
H419 C432 0.930 . S
H420 C436 0.959 . S
H421 C436 0.959 . S
H422 C436 0.961 . S
H423 C437 0.960 . S
H424 C437 0.961 . S
H425 C437 0.959 . S
H426 C440 0.929 . S
H427 C441 0.931 . S
H428 C443 0.930 . S
C429 H417 0.930 . S
C429 C430 1.399 . S
C429 C434 1.399 . S
C430 C429 1.399 . S
C430 C431 1.376 . S
C431 H418 0.930 . S
C431 C430 1.376 . S
C431 C432 1.388 . S
C432 H419 0.930 . S
C432 C431 1.388 . S
C432 C433 1.390 . S
C433 C432 1.390 . S
C433 C434 1.394 . S
C433 C439 1.465 . S
C434 C429 1.399 . S
C434 C433 1.394 . S
C434 C435 1.516 . S
C435 C434 1.516 . S
C435 C436 1.502 . S
C435 C437 1.561 . S
C435 C438 1.526 . S
C436 H420 0.959 . S
C436 H421 0.959 . S
C436 H422 0.961 . S
C436 C435 1.502 . S
C437 H423 0.960 . S
C437 H424 0.961 . S
C437 H425 0.959 . S
C437 C435 1.561 . S
C438 C435 1.526 . S
C438 C439 1.396 . S
C438 C443 1.390 . S
C439 C433 1.465 . S
C439 C438 1.396 . S
C439 C440 1.399 . S
C440 H426 0.929 . S
C440 C439 1.399 . S
C440 C441 1.385 . S
C441 H427 0.931 . S
C441 C440 1.385 . S
C441 C442 1.389 . S
C442 C441 1.389 . S
C442 C443 1.387 . S
C443 H428 0.930 . S
C443 C438 1.390 . S
C443 C442 1.387 . S
C145 N109 1.379 . S
C133 C29 1.382 . S
C160 C8 1.376 . S
C172 N96 1.343 . S
C187 C0 1.488 . S
C199 N108 1.486 . S
C214 C17 1.485 1_556 S
C226 N95 1.471 . S
C241 C63 1.351 . S
C253 N83 1.324 . S
C268 C42 1.392 . S
C280 N70 1.386 . S
C307 N82 1.495 . S
C295 C34 1.486 . S
C334 N69 1.494 . S
C322 C51 1.470 . S
C349 C4 1.525 . S
C361 N73 1.513 . S
C376 C13 1.517 . S
C388 N86 1.504 . S
C415 N99 1.514 . S
C403 C38 1.525 . S
C430 C47 1.525 . S
C442 N112 1.521 . S
