# Generated by pormake.
# Topology zzz, (3,6)-cn, num edge types: 1
# Building blocks:
#     Node 0, Type 0, BuildingBlock: MIDCAF_clean_linker_0, # of connection points: 3
#     Node 1, Type 0, BuildingBlock: MIDCAF_clean_linker_0, # of connection points: 3
#     Node 2, Type 0, BuildingBlock: MIDCAF_clean_linker_0, # of connection points: 3
#     Node 3, Type 0, BuildingBlock: MIDCAF_clean_linker_0, # of connection points: 3
#     Node 4, Type 0, BuildingBlock: MIDCAF_clean_linker_0, # of connection points: 3
#     Node 5, Type 0, BuildingBlock: MIDCAF_clean_linker_0, # of connection points: 3
#     Node 6, Type 0, BuildingBlock: MIDCAF_clean_linker_0, # of connection points: 3
#     Node 7, Type 0, BuildingBlock: MIDCAF_clean_linker_0, # of connection points: 3
#     Node 8, Type 1, BuildingBlock: CUWYAW_clean_sbu_0, # of connection points: 6
#     Node 9, Type 1, BuildingBlock: CUWYAW_clean_sbu_0, # of connection points: 6
#     Node 10, Type 1, BuildingBlock: CUWYAW_clean_sbu_0, # of connection points: 6
#     Node 11, Type 1, BuildingBlock: CUWYAW_clean_sbu_0, # of connection points: 6
#     Edge 12, Type (0, 1), BuildingBlock: XIVTED_clean_linker_0, # of connection points: 2
#     Edge 13, Type (0, 1), BuildingBlock: XIVTED_clean_linker_0, # of connection points: 2
#     Edge 14, Type (0, 1), BuildingBlock: XIVTED_clean_linker_0, # of connection points: 2
#     Edge 15, Type (0, 1), BuildingBlock: XIVTED_clean_linker_0, # of connection points: 2
#     Edge 16, Type (0, 1), BuildingBlock: XIVTED_clean_linker_0, # of connection points: 2
#     Edge 17, Type (0, 1), BuildingBlock: XIVTED_clean_linker_0, # of connection points: 2
#     Edge 18, Type (0, 1), BuildingBlock: XIVTED_clean_linker_0, # of connection points: 2
#     Edge 19, Type (0, 1), BuildingBlock: XIVTED_clean_linker_0, # of connection points: 2
#     Edge 20, Type (0, 1), BuildingBlock: XIVTED_clean_linker_0, # of connection points: 2
#     Edge 21, Type (0, 1), BuildingBlock: XIVTED_clean_linker_0, # of connection points: 2
#     Edge 22, Type (0, 1), BuildingBlock: XIVTED_clean_linker_0, # of connection points: 2
#     Edge 23, Type (0, 1), BuildingBlock: XIVTED_clean_linker_0, # of connection points: 2
#     Edge 24, Type (0, 1), BuildingBlock: XIVTED_clean_linker_0, # of connection points: 2
#     Edge 25, Type (0, 1), BuildingBlock: XIVTED_clean_linker_0, # of connection points: 2
#     Edge 26, Type (0, 1), BuildingBlock: XIVTED_clean_linker_0, # of connection points: 2
#     Edge 27, Type (0, 1), BuildingBlock: XIVTED_clean_linker_0, # of connection points: 2
#     Edge 28, Type (0, 1), BuildingBlock: XIVTED_clean_linker_0, # of connection points: 2
#     Edge 29, Type (0, 1), BuildingBlock: XIVTED_clean_linker_0, # of connection points: 2
#     Edge 30, Type (0, 1), BuildingBlock: XIVTED_clean_linker_0, # of connection points: 2
#     Edge 31, Type (0, 1), BuildingBlock: XIVTED_clean_linker_0, # of connection points: 2
#     Edge 32, Type (0, 1), BuildingBlock: XIVTED_clean_linker_0, # of connection points: 2
#     Edge 33, Type (0, 1), BuildingBlock: XIVTED_clean_linker_0, # of connection points: 2
#     Edge 34, Type (0, 1), BuildingBlock: XIVTED_clean_linker_0, # of connection points: 2
#     Edge 35, Type (0, 1), BuildingBlock: XIVTED_clean_linker_0, # of connection points: 2
# Relax obj value: 0.431
# Max RMSD: 0.251
# Mean RMSD: 0.232
data_MOF--net-zzz--node1-CUWYAW_clean_sbu_0--node2-MIDCAF_clean_linker_0--edge1-XIVTED_clean_linker_0
_symmetry_space_group_name_H-M    P1
_symmetry_Int_Tables_number       1
_symmetry_cell_setting            triclinic
loop_
_symmetry_equiv_pos_as_xyz
'x, y, z'
_cell_length_a     58.179708
_cell_length_b     58.219166
_cell_length_c     19.030573
_cell_angle_alpha  89.719838
_cell_angle_beta   90.139649
_cell_angle_gamma 90.099485
loop_
_atom_site_label
_atom_site_type_symbol
_atom_site_fract_x
_atom_site_fract_y
_atom_site_fract_z
_atom_type_partial_charge
C0 C 0.79155 0.50882 0.48145 0.0
C1 C 0.80642 0.52798 0.48263 0.0
C2 C 0.79885 0.54856 0.45127 0.0
C3 C 0.77812 0.54937 0.414 0.0
H4 H 0.67938 0.55713 0.3114 0.0
H5 H 0.64366 0.55663 0.24379 0.0
H6 H 0.65035 0.48344 0.21667 0.0
H7 H 0.68624 0.48413 0.28344 0.0
H8 H 0.7241 0.51445 0.10352 0.0
H9 H 0.74242 0.51451 0.98796 0.0
H10 H 0.79971 0.55258 0.07376 0.0
H11 H 0.78164 0.55243 0.18852 0.0
H12 H 0.76047 0.49418 0.43905 0.0
H13 H 0.79681 0.49266 0.50475 0.0
H14 H 0.80951 0.56382 0.45241 0.0
H15 H 0.77372 0.56496 0.38572 0.0
N16 N 0.72457 0.52443 0.35822 0.0
N17 N 0.71962 0.5263 0.23534 0.0
N18 N 0.75601 0.53199 0.28352 0.0
C19 C 0.71062 0.52336 0.30027 0.0
C20 C 0.74217 0.53066 0.22644 0.0
C21 C 0.74754 0.52874 0.34923 0.0
C22 C 0.68551 0.52065 0.30316 0.0
C23 C 0.67237 0.54071 0.29532 0.0
C24 C 0.65212 0.54048 0.25538 0.0
C25 C 0.64449 0.52008 0.2236 0.0
C26 C 0.65576 0.49943 0.24051 0.0
C27 C 0.6762 0.49974 0.27973 0.0
C28 C 0.75167 0.53315 0.15517 0.0
C29 C 0.7404 0.52324 0.09719 0.0
C30 C 0.75079 0.5233 0.03109 0.0
C31 C 0.77236 0.53366 0.02182 0.0
C32 C 0.78287 0.54481 0.07893 0.0
C33 C 0.77269 0.54444 0.145 0.0
C34 C 0.76418 0.52977 0.40801 0.0
C35 C 0.77061 0.50971 0.44432 0.0
C36 C 0.03145 0.78407 0.48475 0.0
C37 C 1.01094 0.79513 0.46509 0.0
C38 C 0.99758 0.7854 0.41085 0.0
C39 C 1.00543 0.76609 0.37396 0.0
H40 H 0.06703 0.67332 0.22261 0.0
H41 H 0.05457 0.64035 0.15493 0.0
H42 H 0.98446 0.66441 0.1635 0.0
H43 H 0.99714 0.69785 0.2321 0.0
H44 H 0.09349 0.72536 0.14436 0.0
H45 H 0.11802 0.75008 0.07301 0.0
H46 H 0.11834 0.80062 0.23878 0.0
H47 H 0.09485 0.77573 0.31049 0.0
H48 H 0.05607 0.75803 0.46068 0.0
H49 H 0.04238 0.7911 0.5255 0.0
H50 H 0.98156 0.79332 0.39484 0.0
H51 H 0.99568 0.75997 0.32923 0.0
N52 N 0.02974 0.72211 0.31198 0.0
N53 N 0.06249 0.71806 0.24035 0.0
N54 N 0.05963 0.74932 0.31581 0.0
C55 C 0.04191 0.70988 0.26342 0.0
C56 C 0.07142 0.73782 0.266 0.0
C57 C 0.03899 0.74173 0.33928 0.0
C58 C 0.03308 0.68826 0.2324 0.0
C59 C 0.04887 0.67144 0.21116 0.0
C60 C 0.04169 0.65239 0.17268 0.0
C61 C 0.01851 0.6497 0.15355 0.0
C62 C 1.00247 0.66607 0.17704 0.0
C63 C 1.00967 0.6851 0.21676 0.0
C64 C 0.09149 0.74894 0.23213 0.0
C65 C 0.09949 0.74139 0.16652 0.0
C66 C 0.11347 0.75565 0.12537 0.0
C67 C 0.11958 0.77772 0.14897 0.0
C68 C 0.11402 0.78384 0.2183 0.0
C69 C 0.10021 0.76958 0.25945 0.0
C70 C 0.02685 0.75635 0.39037 0.0
C71 C 0.03934 0.76504 0.44761 0.0
C72 C 0.71377 0.98925 0.37452 0.0
C73 C 0.71411 0.9906 0.44835 0.0
C74 C 0.73501 0.99626 0.48184 0.0
C75 C 0.75446 1.00224 0.44227 0.0
H76 H 0.81569 0.9763 0.23055 0.0
H77 H 0.84901 0.96373 0.16192 0.0
H78 H 0.87535 0.03315 0.16233 0.0
H79 H 0.84244 0.04551 0.23049 0.0
H80 H 0.79181 0.07403 0.14788 0.0
H81 H 0.76962 0.10192 0.08003 0.0
H82 H 0.7177 0.10196 0.24231 0.0
H83 H 0.74007 0.07502 0.31037 0.0
H84 H 0.7318 0.99587 0.27845 0.0
H85 H 0.69803 0.98529 0.3466 0.0
H86 H 0.73603 0.99716 0.53858 0.0
H87 H 0.76974 1.00829 0.46913 0.0
N88 N 0.7906 1.0076 0.30609 0.0
N89 N 0.79736 0.04201 0.24364 0.0
N90 N 0.76329 0.03731 0.30651 0.0
C91 C 0.80452 0.02079 0.26445 0.0
C92 C 0.77681 0.05041 0.2646 0.0
C93 C 0.77002 0.01615 0.3279 0.0
C94 C 0.82638 1.01191 0.23545 0.0
C95 C 0.82894 0.98868 0.21746 0.0
C96 C 0.84791 0.98154 0.17767 0.0
C97 C 0.86479 0.99746 0.1562 0.0
C98 C 0.86285 0.02036 0.17837 0.0
C99 C 0.84386 0.0275 0.21714 0.0
C100 C 0.76732 0.07174 0.23347 0.0
C101 C 0.77605 0.08065 0.17011 0.0
C102 C 0.76326 0.09656 0.13098 0.0
C103 C 0.74152 0.10377 0.15453 0.0
C104 C 0.7343 0.09694 0.222 0.0
C105 C 0.74706 0.08115 0.26099 0.0
C106 C 0.75341 1.00247 0.36866 0.0
C107 C 0.73317 0.99523 0.33524 0.0
C108 C 0.42949 0.72149 0.21081 0.0
C109 C 0.42604 0.72754 0.13993 0.0
C110 C 0.43425 0.74895 0.11609 0.0
C111 C 0.44749 0.7629 0.1602 0.0
H112 H 0.52571 0.80155 0.16838 0.0
H113 H 0.53235 0.83717 0.10273 0.0
H114 H 0.49804 0.87535 0.26562 0.0
H115 H 0.49166 0.83955 0.33139 0.0
H116 H 0.5418 0.75297 0.38932 0.0
H117 H 0.55403 0.72082 0.46451 0.0
H118 H 0.48482 0.71471 0.54438 0.0
H119 H 0.47293 0.74663 0.47027 0.0
H120 H 0.44585 0.72949 0.30793 0.0
H121 H 0.42366 0.70512 0.23132 0.0
H122 H 0.43148 0.7544 0.06224 0.0
H123 H 0.45473 0.7786 0.13891 0.0
N124 N 0.48069 0.78707 0.24773 0.0
N125 N 0.50737 0.78571 0.34127 0.0
N126 N 0.47897 0.75721 0.32973 0.0
C127 C 0.49875 0.79643 0.28285 0.0
C128 C 0.4972 0.76601 0.36501 0.0
C129 C 0.47063 0.76748 0.27108 0.0
C130 C 0.50856 0.81797 0.25531 0.0
C131 C 0.52051 0.81771 0.19138 0.0
C132 C 0.52423 0.8381 0.15378 0.0
C133 C 0.51557 0.85907 0.17873 0.0
C134 C 0.50479 0.85944 0.24488 0.0
C135 C 0.50137 0.83905 0.28292 0.0
C136 C 0.50645 0.7523 0.42422 0.0
C137 C 0.52954 0.74532 0.42526 0.0
C138 C 0.53642 0.72669 0.46755 0.0
C139 C 0.52035 0.71492 0.50995 0.0
C140 C 0.49775 0.72336 0.5131 0.0
C141 C 0.49089 0.74171 0.47052 0.0
C142 C 0.4527 0.75571 0.22907 0.0
C143 C 0.44256 0.73543 0.25483 0.0
C144 C 0.22185 0.50947 0.02602 0.0
C145 C 0.22133 0.49779 0.96171 0.0
C146 C 0.24136 0.48626 0.93975 0.0
C147 C 0.26082 0.48502 0.98411 0.0
H148 H 0.34358 0.52157 0.11614 0.0
H149 H 0.38168 0.52674 0.1681 0.0
H150 H 0.38195 0.4552 0.2302 0.0
H151 H 0.34466 0.45015 0.1756 0.0
H152 H 0.30758 0.49785 0.34457 0.0
H153 H 0.29121 0.50315 0.46179 0.0
H154 H 0.22731 0.47342 0.39039 0.0
H155 H 0.24334 0.46868 0.27318 0.0
H156 H 0.24029 0.5167 0.12037 0.0
H157 H 0.20694 0.5189 0.04389 0.0
H158 H 0.24148 0.47712 0.89033 0.0
H159 H 0.27546 0.47485 0.96818 0.0
N160 N 0.30111 0.48929 0.0931 0.0
N161 N 0.30766 0.48262 0.21384 0.0
N162 N 0.27023 0.48748 0.17298 0.0
C163 C 0.31594 0.48517 0.14782 0.0
C164 C 0.28495 0.48366 0.22687 0.0
C165 C 0.27795 0.49029 0.1061 0.0
C166 C 0.3412 0.48544 0.14157 0.0
C167 C 0.35253 0.50668 0.13675 0.0
C168 C 0.37416 0.50972 0.16838 0.0
C169 C 0.3847 0.49161 0.20611 0.0
C170 C 0.37462 0.46966 0.20216 0.0
C171 C 0.35318 0.46664 0.17007 0.0
C172 C 0.27656 0.4831 0.29977 0.0
C173 C 0.29022 0.49192 0.35451 0.0
C174 C 0.28095 0.49492 0.42151 0.0
C175 C 0.25814 0.48854 0.43502 0.0
C176 C 0.2451 0.47814 0.38158 0.0
C177 C 0.25415 0.47566 0.31434 0.0
C178 C 0.26046 0.49533 0.05086 0.0
C179 C 0.24106 0.50825 0.0698 0.0
C180 C 0.0196 0.22212 0.95254 0.0
C181 C 0.03501 0.21148 0.90588 0.0
C182 C 0.05624 0.22224 0.89269 0.0
C183 C 0.06271 0.24195 0.9298 0.0
H184 H 0.0881 0.33716 0.11152 0.0
H185 H 0.08081 0.37182 0.17917 0.0
H186 H 1.01023 0.35077 0.20771 0.0
H187 H 0.0176 0.31614 0.13815 0.0
H188 H 0.09135 0.28194 0.26938 0.0
H189 H 0.09775 0.25635 0.36896 0.0
H190 H 0.1062 0.19944 0.22638 0.0
H191 H 0.10039 0.22493 0.12742 0.0
H192 H 0.01452 0.24887 0.02848 0.0
H193 H 1.00305 0.21437 0.96351 0.0
H194 H 0.06862 0.21445 0.85775 0.0
H195 H 0.07996 0.24864 0.92317 0.0
N196 N 0.05072 0.28838 0.04704 0.0
N197 N 0.07557 0.29004 0.14494 0.0
N198 N 0.07331 0.25647 0.07908 0.0
C199 C 0.06023 0.30043 0.10143 0.0
C200 C 0.0821 0.26804 0.13454 0.0
C201 C 0.05788 0.26638 0.03499 0.0
C202 C 0.05337 0.32411 0.1192 0.0
C203 C 0.07078 0.34046 0.12965 0.0
C204 C 0.06666 0.36015 0.16925 0.0
C205 C 0.04508 0.36382 0.20032 0.0
C206 C 0.02703 0.3485 0.18443 0.0
C207 C 0.03117 0.32874 0.14418 0.0
C208 C 0.09436 0.25524 0.19057 0.0
C209 C 0.09552 0.26415 0.2591 0.0
C210 C 0.09911 0.24946 0.31636 0.0
C211 C 0.10162 0.22571 0.30585 0.0
C212 C 0.10412 0.21759 0.2368 0.0
C213 C 0.10055 0.23223 0.17968 0.0
C214 C 0.04793 0.25167 0.97971 0.0
C215 C 0.02598 0.24209 0.9889 0.0
C216 C 0.28993 0.02409 0.9541 0.0
C217 C 0.30593 0.04214 0.94612 0.0
C218 C 0.3002 0.06389 0.97239 0.0
C219 C 0.28013 0.06708 0.0111 0.0
H220 H 0.19842 1.00053 0.14011 0.0
H221 H 0.16364 0.98712 0.19987 0.0
H222 H 0.13918 0.05707 0.20997 0.0
H223 H 0.17354 0.07006 0.14926 0.0
H224 H 0.22392 0.05579 0.33047 0.0
H225 H 0.24541 0.05452 0.44036 0.0
H226 H 0.30492 0.08215 0.33374 0.0
H227 H 0.28352 0.08365 0.2246 0.0
H228 H 0.2585 1.01277 1.00321 0.0
H229 H 0.29384 1.00712 0.93444 0.0
H230 H 0.31184 0.07829 0.9659 0.0
H231 H 0.27705 0.08374 0.0344 0.0
N232 N 0.22634 0.04252 0.07946 0.0
N233 N 0.22041 0.05506 0.19565 0.0
N234 N 0.25593 0.06096 0.14248 0.0
C235 C 0.2122 0.04522 0.13624 0.0
C236 C 0.24223 0.06285 0.19951 0.0
C237 C 0.24828 0.05104 0.08237 0.0
C238 C 0.18852 0.03629 0.13945 0.0
C239 C 0.18492 1.01276 0.1514 0.0
C240 C 0.16519 1.00519 0.187 0.0
C241 C 0.14879 0.02106 0.21154 0.0
C242 C 0.15125 0.04426 0.19194 0.0
C243 C 0.17094 0.05177 0.15655 0.0
C244 C 0.2523 0.06909 0.26825 0.0
C245 C 0.24133 0.0624 0.33096 0.0
C246 C 0.25363 0.06161 0.39405 0.0
C247 C 0.277 0.06769 0.39547 0.0
C248 C 0.28694 0.0773 0.33472 0.0
C249 C 0.27472 0.07796 0.27169 0.0
C250 C 0.26507 0.04868 0.02432 0.0
C251 C 0.26962 0.02734 0.99304 0.0
C252 C 0.41994 0.31085 0.1475 0.0
C253 C 0.41606 0.30988 0.22045 0.0
C254 C 0.41422 0.28805 0.25248 0.0
C255 C 0.42044 0.26825 0.21569 0.0
H256 H 0.50369 0.18995 0.1306 0.0
H257 H 0.51223 0.15833 0.21274 0.0
H258 H 0.44655 0.16837 0.31251 0.0
H259 H 0.43791 0.19941 0.23169 0.0
H260 H 0.46505 0.25429 0.90479 0.0
H261 H 0.48091 0.287 0.8409 0.0
H262 H 0.53354 0.29432 0.99962 0.0
H263 H 0.51749 0.26141 0.06337 0.0
H264 H 0.43053 0.29292 0.056 0.0
H265 H 0.42121 0.32704 0.11968 0.0
H266 H 0.41003 0.28638 0.30762 0.0
H267 H 0.42138 0.25209 0.24409 0.0
N268 N 0.44777 0.23241 0.15094 0.0
N269 N 0.47951 0.2252 0.07752 0.0
N270 N 0.45658 0.25792 0.06035 0.0
C271 C 0.46553 0.21854 0.13174 0.0
C272 C 0.47457 0.24479 0.04069 0.0
C273 C 0.4432 0.25214 0.1155 0.0
C274 C 0.47029 0.19761 0.17498 0.0
C275 C 0.49097 0.18519 0.1694 0.0
C276 C 0.49583 0.16704 0.21629 0.0
C277 C 0.48018 0.16112 0.2697 0.0
C278 C 0.45913 0.17278 0.27278 0.0
C279 C 0.45423 0.19066 0.22613 0.0
C280 C 0.4902 0.25513 0.98856 0.0
C281 C 0.48086 0.262 0.92364 0.0
C282 C 0.48985 0.28096 0.88741 0.0
C283 C 0.5082 0.29364 0.91592 0.0
C284 C 0.51915 0.28514 0.97681 0.0
C285 C 0.51028 0.26598 0.01265 0.0
C286 C 0.42804 0.26995 0.14586 0.0
C287 C 0.42559 0.29107 0.11052 0.0
C288 C 0.98053 0.03312 0.53227 0.0
Eu289 Eu 0.99582 1.00995 0.63834 0.0
C290 C 0.98917 0.05559 0.50707 0.0
C291 C 0.98566 0.07555 0.54706 0.0
C292 C 0.99865 0.09529 0.53429 0.0
C293 C 0.01541 0.0955 0.48134 0.0
C294 C 0.01755 0.07622 0.43763 0.0
C295 C 1.0045 0.05649 0.45022 0.0
C296 C 0.97387 0.99509 0.7555 0.0
C297 C 0.01903 0.04732 0.74543 0.0
C298 C 0.04324 0.97636 0.88172 0.0
Eu299 Eu 0.0276 0.99319 0.76483 0.0
C300 C 0.05994 0.95823 0.89746 0.0
C301 C 0.07106 0.94675 0.84256 0.0
C302 C 0.08602 0.92861 0.85715 0.0
C303 C 0.09004 0.92159 0.92692 0.0
C304 C 0.0793 0.93364 0.98181 0.0
C305 C 0.06436 0.95182 0.96711 0.0
C306 C 0.05273 0.99899 0.64391 0.0
C307 C 1.00652 0.95614 0.65173 0.0
O308 O 0.99487 0.0159 0.52534 0.0
O309 O 0.97027 0.03308 0.59361 0.0
O310 O 0.96582 0.99239 0.69222 0.0
O311 O 0.99218 1.00671 0.754 0.0
O312 O 1.0117 0.04295 0.68087 0.0
O313 O 0.02342 0.03071 0.79119 0.0
O314 O 0.02402 0.96936 0.85242 0.0
O315 O 0.05175 0.99487 0.85194 0.0
O316 O 0.06153 0.99187 0.70271 0.0
O317 O 0.03182 1.00239 0.65451 0.0
O318 O 0.01426 0.96001 0.71638 0.0
O319 O 1.00072 0.97296 0.60798 0.0
H320 H 0.97395 0.07556 0.59121 0.0
H321 H 0.99652 0.10986 0.56884 0.0
H322 H 0.02985 0.0761 0.39499 0.0
H323 H 1.00746 0.04145 0.41816 0.0
H324 H 0.06782 0.95156 0.78837 0.0
H325 H 0.09416 0.91985 0.81376 0.0
H326 H 0.0817 0.92845 0.03605 0.0
H327 H 0.05586 0.96052 1.01 0.0
C328 C 0.48473 0.97584 0.5462 0.0
Eu329 Eu 0.50202 0.99339 0.65882 0.0
C330 C 0.46001 0.97466 0.53006 0.0
C331 C 0.44442 0.96749 0.58235 0.0
C332 C 0.42153 0.97463 0.57995 0.0
C333 C 0.41411 0.98925 0.52585 0.0
C334 C 0.42895 0.99426 0.46973 0.0
C335 C 0.45173 0.98683 0.47151 0.0
C336 C 0.50398 0.97323 0.78741 0.0
C337 C 0.46683 0.01781 0.76267 0.0
C338 C 0.54091 0.03818 0.89573 0.0
Eu339 Eu 0.52195 0.02371 0.7807 0.0
C340 C 0.56105 0.05299 0.90937 0.0
C341 C 0.55828 0.07397 0.94437 0.0
C342 C 0.57714 0.08846 0.95563 0.0
C343 C 0.59919 0.08215 0.93246 0.0
C344 C 0.60183 0.06116 0.89705 0.0
C345 C 0.583 0.04682 0.88534 0.0
C346 C 0.51409 0.05068 0.66495 0.0
C347 C 0.55762 1.00177 0.66834 0.0
O348 O 0.49272 0.99686 0.54871 0.0
O349 O 0.49212 0.96309 0.59853 0.0
O350 O 0.48744 0.96987 0.74279 0.0
O351 O 0.51903 0.9863 0.76125 0.0
O352 O 0.47034 1.01181 0.69664 0.0
O353 O 0.48406 0.01971 0.80811 0.0
O354 O 0.54502 0.0179 0.86896 0.0
O355 O 0.52313 0.04828 0.86684 0.0
O356 O 0.52249 0.0583 0.72347 0.0
O357 O 0.5107 0.02947 0.6718 0.0
O358 O 0.5548 0.01509 0.7239 0.0
O359 O 0.54024 0.99143 0.63595 0.0
H360 H 0.4503 0.95826 0.62854 0.0
H361 H 0.4103 0.97055 0.62361 0.0
H362 H 0.42338 1.00529 0.42698 0.0
H363 H 0.46341 0.99267 0.43089 0.0
H364 H 0.54149 0.0792 0.96281 0.0
H365 H 0.57443 0.10457 0.98251 0.0
H366 H 0.61857 0.05542 0.87981 0.0
H367 H 0.58574 0.03084 0.8577 0.0
C368 C 0.54671 0.48546 0.52435 0.0
Eu369 Eu 0.53443 0.49803 0.64861 0.0
C370 C 0.53573 0.46807 0.47876 0.0
C371 C 0.53584 0.44477 0.49837 0.0
C372 C 0.52069 0.42935 0.46691 0.0
C373 C 0.50496 0.43684 0.41548 0.0
C374 C 0.50653 0.4596 0.39078 0.0
C375 C 0.52175 0.47509 0.42228 0.0
C376 C 0.55704 0.50734 0.77162 0.0
C377 C 0.51546 0.4581 0.75109 0.0
C378 C 0.47439 0.51994 0.87942 0.0
Eu379 Eu 0.49933 0.51148 0.76988 0.0
C380 C 0.45833 0.53864 0.8948 0.0
C381 C 0.44958 0.55224 0.83989 0.0
C382 C 0.43696 0.572 0.85456 0.0
C383 C 0.43304 0.57861 0.92444 0.0
C384 C 0.44091 0.56429 0.97928 0.0
C385 C 0.45351 0.54446 0.96448 0.0
C386 C 0.4824 0.50943 0.63685 0.0
C387 C 0.52378 0.55212 0.68186 0.0
O388 O 0.53429 0.50389 0.53564 0.0
O389 O 0.5568 0.47776 0.58168 0.0
O390 O 0.56775 0.50229 0.7137 0.0
O391 O 0.53599 0.50768 0.75842 0.0
O392 O 0.52352 0.46301 0.68781 0.0
O393 O 0.50773 0.47415 0.7942 0.0
O394 O 0.49598 0.52627 0.87409 0.0
O395 O 0.46801 0.50573 0.82973 0.0
O396 O 0.47592 0.52437 0.68298 0.0
O397 O 0.49668 0.4957 0.66393 0.0
O398 O 0.51375 0.54639 0.74198 0.0
O399 O 0.53077 0.53664 0.63562 0.0
H400 H 0.54662 0.43862 0.54091 0.0
H401 H 0.52071 0.41169 0.48505 0.0
H402 H 0.4949 0.46595 0.35069 0.0
H403 H 0.52141 0.49292 0.40578 0.0
H404 H 0.45323 0.54807 0.78567 0.0
H405 H 0.43093 0.58252 0.81119 0.0
H406 H 0.43849 0.56905 0.03369 0.0
H407 H 0.46031 0.53424 1.00745 0.0
C408 C 0.04837 0.5452 0.54213 0.0
Eu409 Eu 0.02504 0.52178 0.63359 0.0
C410 C 0.07293 0.55122 0.54547 0.0
C411 C 0.0826 0.55958 0.60838 0.0
C412 C 0.1063 0.55841 0.61967 0.0
C413 C 0.12046 0.54865 0.56862 0.0
C414 C 0.11112 0.54228 0.50348 0.0
C415 C 0.08749 0.54372 0.49177 0.0
C416 C 1.00886 0.54025 0.75437 0.0
C417 C 0.06345 0.49839 0.74084 0.0
C418 C 0.98641 0.46584 0.82884 0.0
Eu419 Eu 1.01057 0.48707 0.73515 0.0
C420 C 0.96346 0.47347 0.85021 0.0
C421 C 0.94536 0.45776 0.85748 0.0
C422 C 0.92267 0.46563 0.86141 0.0
C423 C 0.9178 0.48931 0.85664 0.0
C424 C 0.9362 0.50489 0.85154 0.0
C425 C 0.95869 0.49709 0.84919 0.0
C426 C 0.02666 0.46879 0.61429 0.0
C427 C 0.97232 0.51184 0.63446 0.0
O428 O 0.04429 0.5232 0.53566 0.0
O429 O 0.03502 0.55485 0.58856 0.0
O430 O 1.00451 0.5484 0.69223 0.0
O431 O 0.02193 0.52301 0.75018 0.0
O432 O 0.05935 0.51017 0.68239 0.0
O433 O 0.04656 0.4887 0.77607 0.0
O434 O 1.00328 0.47972 0.84531 0.0
O435 O 0.98755 0.45892 0.76373 0.0
O436 O 0.03119 0.46063 0.67635 0.0
O437 O 0.01343 0.48592 0.61841 0.0
O438 O 0.97706 0.5035 0.6975 0.0
O439 O 0.98911 0.51773 0.59162 0.0
H440 H 0.07178 0.56524 0.65114 0.0
H441 H 0.11326 0.5632 0.6704 0.0
H442 H 0.12191 0.53467 0.46357 0.0
H443 H 0.08043 0.53705 0.44322 0.0
H444 H 0.94869 0.43945 0.85726 0.0
H445 H 0.909 0.45313 0.86696 0.0
H446 H 0.93333 0.52317 0.84594 0.0
H447 H 0.97228 0.50964 0.842 0.0
H448 H 0.1041 0.03643 0.22918 0.0
H449 H 0.0945 0.98119 0.61406 0.0
H450 H 0.15461 0.99117 0.32173 0.0
H451 H 0.03968 0.02067 0.52078 0.0
H452 H 0.11591 0.98402 0.50445 0.0
H453 H 0.07923 0.02987 0.3313 0.0
C454 C 0.10988 0.02491 0.27037 0.0
C455 C 0.13162 0.0144 0.26645 0.0
C456 C 0.09914 0.99198 0.50741 0.0
C457 C 0.1032 1.00691 0.38385 0.0
C458 C 0.08692 0.99042 0.57022 0.0
C459 C 0.06522 1.00061 0.57637 0.0
C460 C 0.08977 1.00407 0.45004 0.0
C461 C 0.05623 1.01234 0.51784 0.0
C462 C 0.09564 0.02116 0.32867 0.0
C463 C 0.13797 0.99946 0.32138 0.0
N464 N 0.0686 0.01388 0.45714 0.0
N465 N 0.12398 0.99637 0.37774 0.0
H466 H 0.47638 0.167 0.41053 0.0
H467 H 0.50711 0.03845 0.52571 0.0
H468 H 0.49724 0.11692 0.2573 0.0
H469 H 0.51001 0.09679 0.66397 0.0
H470 H 0.49937 0.06476 0.42628 0.0
H471 H 0.48437 0.1394 0.50394 0.0
C472 C 0.48262 0.15011 0.39655 0.0
C473 C 0.48606 0.14424 0.32597 0.0
C474 C 0.50171 0.0717 0.4785 0.0
C475 C 0.49529 0.11232 0.43328 0.0
C476 C 0.50591 0.0567 0.53521 0.0
C477 C 0.50899 0.06544 0.60322 0.0
C478 C 0.50029 0.09549 0.4905 0.0
C479 C 0.50771 0.08928 0.61249 0.0
C480 C 0.48728 0.13436 0.45 0.0
C481 C 0.49445 0.12215 0.3111 0.0
N482 N 0.50334 0.10338 0.55709 0.0
N483 N 0.49864 0.10688 0.36435 0.0
H484 H 0.39131 0.5302 0.28644 0.0
H485 H 0.48212 0.47208 0.54828 0.0
H486 H 0.42064 0.46326 0.24873 0.0
H487 H 0.45807 0.54181 0.56581 0.0
H488 H 0.46064 0.46843 0.43726 0.0
H489 H 0.41765 0.53526 0.38414 0.0
C490 C 0.40359 0.51669 0.29732 0.0
C491 C 0.40348 0.49618 0.25852 0.0
C492 C 0.46053 0.48468 0.46464 0.0
C493 C 0.4335 0.50168 0.37362 0.0
C494 C 0.47268 0.48673 0.52811 0.0
C495 C 0.47178 0.50726 0.56634 0.0
C496 C 0.44781 0.50343 0.43864 0.0
C497 C 0.45914 0.52564 0.53816 0.0
C498 C 0.41854 0.51953 0.35416 0.0
C499 C 0.41965 0.47921 0.27746 0.0
N500 N 0.44769 0.52328 0.47625 0.0
N501 N 0.43379 0.48223 0.33396 0.0
H502 H 1.0091 0.394 0.22312 0.0
H503 H 0.0579 0.43484 0.59461 0.0
H504 H 0.0751 0.37368 0.30625 0.0
H505 H 1.00451 0.47235 0.48665 0.0
H506 H 0.06286 0.41088 0.49072 0.0
H507 H 1.00523 0.42141 0.32057 0.0
C508 C 0.0228 0.39538 0.26148 0.0
C509 C 0.04254 0.38162 0.256 0.0
C510 C 0.05014 0.42443 0.48937 0.0
C511 C 0.03813 0.41268 0.36777 0.0
C512 C 0.0473 0.4381 0.54875 0.0
C513 C 0.03076 0.45556 0.54924 0.0
C514 C 0.0361 0.42794 0.43009 0.0
C515 C 0.0175 0.45907 0.4883 0.0
C516 C 0.02064 0.41108 0.31685 0.0
C517 C 0.05976 0.38416 0.30735 0.0
N518 N 0.02028 0.44522 0.43133 0.0
N519 N 0.05707 0.3992 0.36105 0.0
H520 H 0.86086 0.97074 0.03848 0.0
H521 H 0.98475 1.00653 0.89095 0.0
H522 H 0.91034 1.01025 0.15647 0.0
H523 H 0.9323 0.97352 0.76654 0.0
H524 H 0.96016 1.00264 0.99473 0.0
H525 H 0.88931 0.96582 0.94552 0.0
C526 C 0.87786 0.97798 0.0456 0.0
C527 C 0.88311 0.99112 0.10523 0.0
C528 C 0.95411 0.99605 0.94488 0.0
C529 C 0.91571 0.98591 0.9981 0.0
C530 C 0.96815 0.99825 0.88567 0.0
C531 C 0.96041 0.99058 0.81996 0.0
C532 C 0.93217 0.98609 0.93833 0.0
C533 C 0.93883 0.97986 0.81613 0.0
C534 C 0.89405 0.97534 0.9921 0.0
C535 C 0.90539 1.00032 0.11093 0.0
N536 N 0.9254 0.97809 0.87432 0.0
N537 N 0.92077 0.99772 0.05784 0.0
H538 H 0.47941 0.88764 0.15192 0.0
H539 H 0.54342 0.96466 0.8626 0.0
H540 H 0.55046 0.87687 0.09701 0.0
H541 H 0.47047 0.95149 0.86158 0.0
H542 H 0.54735 0.93932 0.96591 0.0
H543 H 0.47719 0.91828 0.06383 0.0
C544 C 0.4947 0.89203 0.12233 0.0
C545 C 0.51516 0.87964 0.13187 0.0
C546 C 0.53049 0.94217 0.94328 0.0
C547 C 0.51264 0.91463 0.03039 0.0
C548 C 0.52822 0.95668 0.8847 0.0
C549 C 0.5066 0.96 0.85341 0.0
C550 C 0.51093 0.93136 0.97138 0.0
C551 C 0.48746 0.94923 0.88387 0.0
C552 C 0.49334 0.90938 0.0716 0.0
C553 C 0.53431 0.88588 0.09102 0.0
N554 N 0.49006 0.93542 0.94115 0.0
N555 N 0.53258 0.90293 0.04196 0.0
H556 H 0.64699 0.54848 0.11024 0.0
H557 H 0.53798 0.50158 0.90202 0.0
H558 H 0.6063 0.49314 0.19617 0.0
H559 H 0.60083 0.52137 0.79854 0.0
H560 H 0.55735 0.50602 0.01657 0.0
H561 H 0.62425 0.54687 1.00213 0.0
C562 C 0.6329 0.53633 0.10701 0.0
C563 C 0.62843 0.52102 0.1626 0.0
C564 C 0.56678 0.5095 0.96867 0.0
C565 C 0.60241 0.51907 0.03856 0.0
C566 C 0.55575 0.50712 0.90353 0.0
C567 C 0.56788 0.51116 0.84096 0.0
C568 C 0.58986 0.51656 0.97098 0.0
C569 C 0.59092 0.51805 0.84561 0.0
C570 C 0.62011 0.53529 0.045 0.0
C571 C 0.61027 0.50528 0.15465 0.0
N572 N 0.60112 0.52071 0.90947 0.0
N573 N 0.59783 0.50474 0.09377 0.0
H574 H 0.03249 0.60462 0.15534 0.0
H575 H 0.98405 0.57963 0.76956 0.0
H576 H 0.98987 0.65197 0.03877 0.0
H577 H 0.02599 0.53181 0.88652 0.0
H578 H 0.98219 0.60431 0.87302 0.0
H579 H 0.02653 0.57592 0.0637 0.0
C580 C 0.02166 0.60891 0.1108 0.0
C581 C 1.01187 0.63088 0.10451 0.0
C582 C 0.99164 0.58833 0.87642 0.0
C583 C 1.00502 0.59801 0.99891 0.0
C584 C 0.9927 0.57422 0.81732 0.0
C585 C 1.00544 0.55379 0.8192 0.0
C586 C 1.0035 0.58206 0.93798 0.0
C587 C 0.01613 0.54752 0.88264 0.0
C588 C 0.01824 0.59248 0.05847 0.0
C589 C 0.9977 0.63528 0.04611 0.0
N590 N 0.01513 0.56172 0.93924 0.0
N591 N 0.99494 0.61912 0.99525 0.0
H592 H 0.06833 0.22986 0.40592 0.0
H593 H 0.06165 0.09454 0.45476 0.0
H594 H 0.12083 0.1833 0.33373 0.0
H595 H 1.00573 0.14147 0.49315 0.0
H596 H 0.08732 0.1273 0.4371 0.0
H597 H 0.05047 0.1985 0.47021 0.0
C598 C 0.07665 0.21324 0.40544 0.0
C599 C 0.09587 0.20913 0.36273 0.0
C600 C 0.06948 0.1304 0.45008 0.0
C601 C 0.07484 0.17289 0.43447 0.0
C602 C 0.05474 0.11173 0.45932 0.0
C603 C 0.03135 0.11526 0.47387 0.0
C604 C 0.0608 0.15279 0.45546 0.0
C605 C 0.02358 0.1379 0.48171 0.0
C606 C 0.06617 0.19521 0.44152 0.0
C607 C 0.10566 0.1871 0.36432 0.0
N608 N 0.03822 0.1558 0.47167 0.0
N609 N 0.09473 0.16965 0.39821 0.0
H610 H 0.27563 0.02613 0.46249 0.0
H611 H 0.40868 0.03531 0.52582 0.0
H612 H 0.31368 0.08981 0.45677 0.0
H613 H 0.37056 0.97206 0.54436 0.0
H614 H 0.37272 0.05674 0.5277 0.0
H615 H 0.30767 1.00793 0.52307 0.0
C616 C 0.29037 0.03658 0.47628 0.0
C617 C 0.29224 0.05942 0.45274 0.0
C618 C 0.37211 0.0382 0.5321 0.0
C619 C 0.32931 0.03837 0.52001 0.0
C620 C 0.39261 0.02599 0.53033 0.0
C621 C 0.39236 1.00194 0.53262 0.0
C622 C 0.35116 0.02624 0.53494 0.0
C623 C 0.3713 0.99061 0.54097 0.0
C624 C 0.30882 0.02604 0.51028 0.0
C625 C 0.31181 0.07198 0.47213 0.0
N626 N 0.35142 1.00286 0.54039 0.0
N627 N 0.32984 0.06114 0.5031 0.0
H628 H 0.43353 0.31326 0.35471 0.0
H629 H 0.48531 0.43327 0.28352 0.0
H630 H 0.40677 0.35545 0.18559 0.0
H631 H 0.48097 0.40546 0.494 0.0
H632 H 0.45594 0.40575 0.24604 0.0
H633 H 0.44912 0.34725 0.40913 0.0
C634 C 0.43022 0.32961 0.32952 0.0
C635 C 0.41924 0.33106 0.26364 0.0
C636 C 0.46127 0.40592 0.30059 0.0
C637 C 0.43831 0.37027 0.32532 0.0
C638 C 0.4781 0.42158 0.32205 0.0
C639 C 0.48619 0.4213 0.39166 0.0
C640 C 0.45274 0.38971 0.34885 0.0
C641 C 0.47605 0.40574 0.43913 0.0
C642 C 0.43947 0.34914 0.36071 0.0
C643 C 0.41597 0.35313 0.23454 0.0
N644 N 0.46018 0.39034 0.4166 0.0
N645 N 0.42608 0.37178 0.26444 0.0
H646 H 0.23182 0.46318 0.52551 0.0
H647 H 0.15931 0.57481 0.58604 0.0
H648 H 0.25671 0.53187 0.48727 0.0
H649 H 0.13413 0.50522 0.59189 0.0
H650 H 0.19888 0.56009 0.59487 0.0
H651 H 0.20144 0.47888 0.59933 0.0
C652 C 0.23133 0.48152 0.53482 0.0
C653 C 0.24627 0.49634 0.49895 0.0
C654 C 0.18464 0.54809 0.59626 0.0
C655 C 0.21116 0.51448 0.5803 0.0
C656 C 0.16219 0.5565 0.59099 0.0
C657 C 0.14378 0.54107 0.58684 0.0
C658 C 0.18839 0.5242 0.59721 0.0
C659 C 0.14806 0.51755 0.59397 0.0
C660 C 0.21394 0.49053 0.57656 0.0
C661 C 0.24522 0.51992 0.5133 0.0
N662 N 0.16994 0.5098 0.59786 0.0
N663 N 0.22742 0.52839 0.55114 0.0
H664 H 0.14918 0.81424 0.17099 0.0
H665 H 0.08983 0.88098 0.85501 0.0
H666 H 0.10626 0.78329 0.01178 0.0
H667 H 0.1209 0.91402 0.03436 0.0
H668 H 0.10685 0.8447 0.89209 0.0
H669 H 0.15004 0.84968 0.10151 0.0
C670 C 0.14039 0.81465 0.12077 0.0
C671 C 0.12699 0.7959 0.09856 0.0
C672 C 0.1103 0.85996 0.9227 0.0
C673 C 0.12807 0.83633 0.01874 0.0
C674 C 0.10067 0.88076 0.90133 0.0
C675 C 0.10356 0.90054 0.94239 0.0
C676 C 0.12276 0.85882 0.98589 0.0
C677 C 0.1177 0.89907 1.00217 0.0
C678 C 0.14092 0.83489 0.08113 0.0
C679 C 0.11666 0.79723 0.03181 0.0
N680 N 0.12648 0.87849 0.02276 0.0
N681 N 0.11702 0.81725 0.99506 0.0
H682 H 0.70746 0.13554 0.18151 0.0
H683 H 0.63752 0.0901 0.8512 0.0
H684 H 0.73596 0.09468 0.01422 0.0
H685 H 0.60797 0.10665 0.05267 0.0
H686 H 0.67412 0.10625 0.8907 0.0
H687 H 0.6722 0.14001 0.11258 0.0
C688 C 0.70661 0.12803 0.12963 0.0
C689 C 0.72443 0.11393 0.10503 0.0
C690 C 0.65943 0.10679 0.92551 0.0
C691 C 0.68432 0.11929 0.0258 0.0
C692 C 0.63858 0.0974 0.90334 0.0
C693 C 0.61976 0.09632 0.94945 0.0
C694 C 0.66146 0.1153 0.99407 0.0
C695 C 0.62197 0.10688 0.01536 0.0
C696 C 0.68649 0.13064 0.09034 0.0
C697 C 0.72266 0.10541 0.0362 0.0
N698 N 0.64256 0.11557 0.03613 0.0
N699 N 0.70273 0.10778 0.99968 0.0
H700 H 0.44069 0.71972 1.00535 0.0
H701 H 0.40235 0.59048 0.02791 0.0
H702 H 0.39248 0.69453 0.16 0.0
H703 H 0.4422 0.61927 0.85781 0.0
H704 H 0.39261 0.6294 0.0654 0.0
H705 H 0.43461 0.68514 0.93729 0.0
C706 C 0.42828 0.70728 0.02425 0.0
C707 C 0.41755 0.70989 0.08977 0.0
C708 C 0.40308 0.62719 0.01899 0.0
C709 C 0.41121 0.66959 0.01279 0.0
C710 C 0.40875 0.60497 0.99784 0.0
C711 C 0.4234 0.6016 0.94031 0.0
C712 C 0.41238 0.64615 0.98287 0.0
C713 C 0.43084 0.62098 0.90243 0.0
C714 C 0.42499 0.68731 0.98544 0.0
C715 C 0.40178 0.69292 0.11108 0.0
N716 N 0.42557 0.64239 0.92509 0.0
N717 N 0.3995 0.67324 0.07359 0.0
H718 H 0.77872 0.49319 0.95296 0.0
H719 H 0.90179 0.52977 0.91094 0.0
H720 H 0.79771 0.56482 0.94675 0.0
H721 H 0.87876 0.46891 0.80171 0.0
H722 H 0.86273 0.54353 0.91311 0.0
H723 H 0.8122 0.4842 0.88132 0.0
C724 C 0.78936 0.50717 0.93389 0.0
C725 C 0.78598 0.52969 0.95768 0.0
C726 C 0.86622 0.52735 0.88738 0.0
C727 C 0.82446 0.51943 0.87789 0.0
C728 C 0.88866 0.5194 0.8861 0.0
C729 C 0.89379 0.49798 0.85643 0.0
C730 C 0.84845 0.51353 0.86116 0.0
C731 C 0.87563 0.48521 0.82701 0.0
C732 C 0.80856 0.50199 0.89327 0.0
C733 C 0.80023 0.54712 0.9313 0.0
N734 N 0.85365 0.49296 0.83146 0.0
N735 N 0.81932 0.54155 0.89454 0.0
H736 H 0.0423 0.19508 0.77195 0.0
H737 H 0.01961 0.06404 0.87971 0.0
H738 H 0.01779 0.17411 0.97616 0.0
H739 H 0.02363 0.08611 0.66343 0.0
H740 H 0.02203 0.10414 0.91656 0.0
H741 H 0.03803 0.15532 0.73124 0.0
C742 C 0.03586 0.18217 0.80807 0.0
C743 C 0.0303 0.18804 0.87757 0.0
C744 C 0.02233 0.10025 0.86099 0.0
C745 C 0.02572 0.14239 0.83161 0.0
C746 C 0.0211 0.0773 0.83987 0.0
C747 C 0.02132 0.07164 0.76824 0.0
C748 C 0.02413 0.11779 0.81029 0.0
C749 C 0.02315 0.08967 0.71913 0.0
C750 C 0.0334 0.15949 0.78477 0.0
C751 C 0.02199 0.17054 0.92193 0.0
N752 N 0.02459 0.11191 0.74101 0.0
N753 N 0.02016 0.14856 0.89845 0.0
H754 H 0.34667 0.05669 1.00116 0.0
H755 H 0.42638 1.01049 0.69036 0.0
H756 H 0.31907 0.01829 0.82694 0.0
H757 H 0.45225 0.03347 0.89087 0.0
H758 H 0.38704 0.01575 0.73323 0.0
H759 H 0.38528 0.05095 0.9554 0.0
C760 C 0.34871 0.04716 0.95283 0.0
C761 C 0.32949 0.03816 0.91752 0.0
C762 C 0.40133 0.01959 0.76781 0.0
C763 C 0.37405 0.03132 0.86473 0.0
C764 C 0.42385 0.01665 0.74335 0.0
C765 C 0.44279 0.02148 0.78708 0.0
C766 C 0.39766 0.02766 0.83633 0.0
C767 C 0.43831 0.02947 0.85518 0.0
C768 C 0.37085 0.04375 0.92695 0.0
C769 C 0.33337 0.02552 0.85591 0.0
N770 N 0.41629 0.03235 0.87747 0.0
N771 N 0.35519 0.0226 0.83118 0.0
H772 H 0.51124 0.30875 0.77836 0.0
H773 H 0.50902 0.44147 0.88468 0.0
H774 H 0.51548 0.33268 0.9922 0.0
H775 H 0.52209 0.41905 0.67262 0.0
H776 H 0.50963 0.40145 0.92374 0.0
H777 H 0.51413 0.34868 0.73721 0.0
C778 C 0.51305 0.32235 0.81662 0.0
C779 C 0.51322 0.31726 0.88891 0.0
C780 C 0.51243 0.40526 0.86866 0.0
C781 C 0.51617 0.36306 0.84219 0.0
C782 C 0.51195 0.42815 0.84619 0.0
C783 C 0.51546 0.43373 0.77514 0.0
C784 C 0.51619 0.38765 0.81978 0.0
C785 C 0.51933 0.41563 0.72793 0.0
C786 C 0.5147 0.34514 0.7931 0.0
C787 C 0.51563 0.33565 0.93601 0.0
N788 N 0.51947 0.39342 0.751 0.0
N789 N 0.51677 0.35765 0.9119 0.0
H790 H 0.21222 0.50555 0.8201 0.0
H791 H 0.07734 0.47944 0.86575 0.0
H792 H 0.17962 0.48607 0.01472 0.0
H793 H 0.1041 0.51326 0.6812 0.0
H794 H 0.11601 0.47786 0.91446 0.0
H795 H 0.17422 0.50475 0.76183 0.0
C796 C 0.19715 0.50095 0.85036 0.0
C797 C 0.19908 0.4961 0.9226 0.0
C798 C 0.11354 0.48564 0.8632 0.0
C799 C 0.15573 0.49501 0.85653 0.0
C800 C 0.09137 0.4865 0.83512 0.0
C801 C 0.08733 0.49665 0.76917 0.0
C802 C 0.13212 0.4949 0.82529 0.0
C803 C 0.10638 0.50545 0.73235 0.0
C804 C 0.17548 0.50061 0.81725 0.0
C805 C 0.17896 0.49027 0.95927 0.0
N806 N 0.12794 0.50441 0.76084 0.0
N807 N 0.15829 0.4899 0.92601 0.0
H808 H 0.99398 0.8334 0.39764 0.0
H809 H 0.01601 0.91652 0.72534 0.0
H810 H 0.01555 0.80943 0.60233 0.0
H811 H 0.99229 0.94036 0.52261 0.0
H812 H 0.01371 0.87702 0.68321 0.0
H813 H 0.99024 0.87216 0.44491 0.0
C814 C 0.99751 0.83614 0.45287 0.0
C815 C 1.00523 0.818 0.49584 0.0
C816 C 1.00889 0.89087 0.648 0.0
C817 C 1.00148 0.86268 0.5501 0.0
C818 C 1.01023 0.91351 0.67203 0.0
C819 C 1.00443 0.93194 0.62747 0.0
C820 C 1.00177 0.8865 0.57871 0.0
C821 C 0.99701 0.9268 0.55893 0.0
C822 C 0.99559 0.85839 0.4797 0.0
C823 C 1.0099 0.82286 0.56681 0.0
N824 N 0.996 0.90463 0.53665 0.0
N825 N 1.00813 0.84469 0.59146 0.0
H826 H 0.67734 0.96143 0.42626 0.0
H827 H 0.59764 0.02183 0.71445 0.0
H828 H 0.70038 0.01611 0.56185 0.0
H829 H 0.57191 0.97401 0.5602 0.0
H830 H 0.63627 0.01691 0.66722 0.0
H831 H 0.63971 0.96265 0.48316 0.0
C832 C 0.6746 0.97359 0.46826 0.0
C833 C 0.69217 0.98877 0.48879 0.0
C834 C 0.62219 1.00743 0.6438 0.0
C835 C 0.64898 0.99019 0.55453 0.0
C836 C 0.60006 1.01022 0.67078 0.0
C837 C 0.58133 0.99841 0.64114 0.0
C838 C 0.6258 0.99265 0.58675 0.0
C839 C 0.58572 0.98358 0.58466 0.0
C840 C 0.65307 0.97425 0.50081 0.0
C841 C 0.68758 1.00387 0.54452 0.0
N842 N 0.60744 0.98117 0.55928 0.0
N843 N 0.66646 1.00428 0.57499 0.0
H844 H 0.5462 0.67967 0.45671 0.0
H845 H 0.50841 0.58975 0.75514 0.0
H846 H 0.50675 0.69834 0.63944 0.0
H847 H 0.54529 0.57118 0.56721 0.0
H848 H 0.51107 0.63016 0.72019 0.0
H849 H 0.55008 0.64081 0.50395 0.0
C850 C 0.53874 0.67579 0.50749 0.0
C851 C 0.52599 0.6924 0.54381 0.0
C852 C 0.51872 0.61725 0.68685 0.0
C853 C 0.52994 0.64753 0.59765 0.0
C854 C 0.51723 0.59412 0.70681 0.0
C855 C 0.52651 0.57689 0.66393 0.0
C856 C 0.52959 0.6233 0.6235 0.0
C857 C 0.53773 0.58375 0.60189 0.0
C858 C 0.54077 0.65345 0.53414 0.0
C859 C 0.51643 0.68607 0.60894 0.0
N860 N 0.53885 0.60633 0.58347 0.0
N861 N 0.51843 0.66415 0.63342 0.0
H862 H 0.82274 0.50501 0.60059 0.0
H863 H 0.95518 0.5341 0.51791 0.0
H864 H 0.84555 0.5461 0.42469 0.0
H865 H 0.93354 0.49602 0.70125 0.0
H866 H 0.9149 0.53846 0.48348 0.0
H867 H 0.86291 0.50133 0.63919 0.0
C868 C 0.83612 0.51328 0.57012 0.0
C869 C 0.83058 0.52605 0.5095 0.0
C870 C 0.91892 0.52921 0.53144 0.0
C871 C 0.8767 0.52182 0.55322 0.0
C872 C 0.94199 0.52668 0.55107 0.0
C873 C 0.94786 0.51479 0.61285 0.0
C874 C 0.90145 0.51967 0.57357 0.0
C875 C 0.92988 0.50556 0.65363 0.0
C876 C 0.85907 0.51123 0.5923 0.0
C877 C 0.84877 0.53647 0.47246 0.0
N878 N 0.90756 0.50815 0.63327 0.0
N879 N 0.87087 0.53407 0.49472 0.0
loop_
_geom_bond_atom_site_label_1
_geom_bond_atom_site_label_2
_geom_bond_distance
_geom_bond_site_symmetry_2
_ccdc_geom_bond_type
C0 C1 1.384 . S
C0 H13 0.947 . S
C0 C35 1.382 . S
C1 C0 1.384 . S
C1 C2 1.378 . S
C2 C1 1.378 . S
C2 C3 1.378 . S
C2 H14 0.952 . S
C3 C2 1.378 . S
C3 H15 0.950 . S
C3 C34 1.383 . S
H4 C23 0.947 . S
H5 C24 0.946 . S
H6 C26 0.953 . S
H7 C27 0.945 . S
H8 C29 0.952 . S
H9 C30 0.949 . S
H10 C32 0.950 . S
H11 C33 0.948 . S
H12 C35 0.951 . S
H13 C0 0.947 . S
H14 C2 0.952 . S
H15 C3 0.950 . S
N16 C19 1.382 . S
N16 C21 1.363 . S
N17 C19 1.371 . S
N17 C20 1.372 . S
N18 C20 1.361 . S
N18 C21 1.377 . S
C19 N16 1.382 . S
C19 N17 1.371 . S
C19 C22 1.480 . S
C20 N17 1.372 . S
C20 N18 1.361 . S
C20 C28 1.457 . S
C21 N16 1.363 . S
C21 N18 1.377 . S
C21 C34 1.479 . S
C22 C19 1.480 . S
C22 C23 1.383 . S
C22 C27 1.385 . S
C23 H4 0.947 . S
C23 C22 1.383 . S
C23 C24 1.388 . S
C24 H5 0.946 . S
C24 C23 1.388 . S
C24 C25 1.384 . S
C25 C24 1.384 . S
C25 C26 1.377 . S
C26 H6 0.953 . S
C26 C25 1.377 . S
C26 C27 1.369 . S
C27 H7 0.945 . S
C27 C22 1.385 . S
C27 C26 1.369 . S
C28 C20 1.457 . S
C28 C29 1.372 . S
C28 C33 1.364 . S
C29 H8 0.952 . S
C29 C28 1.372 . S
C29 C30 1.389 . S
C30 H9 0.949 . S
C30 C29 1.389 . S
C30 C31 1.387 . S
C31 C30 1.387 . S
C31 C32 1.372 . S
C32 H10 0.950 . S
C32 C31 1.372 . S
C32 C33 1.379 . S
C33 H11 0.948 . S
C33 C28 1.364 . S
C33 C32 1.379 . S
C34 C3 1.383 . S
C34 C21 1.479 . S
C34 C35 1.398 . S
C35 C0 1.382 . S
C35 H12 0.951 . S
C35 C34 1.398 . S
C36 C37 1.384 1_655 S
C36 H49 0.948 . S
C36 C71 1.382 1_655 S
C37 C36 1.384 1_455 S
C37 C38 1.378 . S
C38 C37 1.378 . S
C38 C39 1.378 . S
C38 H50 0.952 . S
C39 C38 1.378 . S
C39 H51 0.950 . S
C39 C70 1.383 . S
H40 C59 0.947 . S
H41 C60 0.952 . S
H42 C62 0.953 . S
H43 C63 0.945 . S
H44 C65 0.949 1_655 S
H45 C66 0.956 . S
H46 C68 0.950 . S
H47 C69 0.948 . S
H48 C71 0.951 1_655 S
H49 C36 0.948 . S
H50 C38 0.952 . S
H51 C39 0.950 . S
N52 C55 1.382 . S
N52 C57 1.363 . S
N53 C55 1.371 . S
N53 C56 1.372 . S
N54 C56 1.361 . S
N54 C57 1.377 . S
C55 N52 1.382 . S
C55 N53 1.371 . S
C55 C58 1.480 . S
C56 N53 1.372 . S
C56 N54 1.361 . S
C56 C64 1.457 . S
C57 N52 1.363 . S
C57 N54 1.377 . S
C57 C70 1.479 . S
C58 C55 1.480 . S
C58 C59 1.383 . S
C58 C63 1.385 . S
C59 H40 0.947 . S
C59 C58 1.383 . S
C59 C60 1.386 1_455 S
C60 H41 0.952 . S
C60 C59 1.386 1_655 S
C60 C61 1.381 1_655 S
C61 C60 1.381 1_455 S
C61 C62 1.377 . S
C62 H42 0.953 . S
C62 C61 1.377 . S
C62 C63 1.369 . S
C63 H43 0.945 . S
C63 C58 1.385 . S
C63 C62 1.369 . S
C64 C56 1.457 . S
C64 C65 1.376 . S
C64 C69 1.364 . S
C65 H44 0.949 1_455 S
C65 C64 1.376 . S
C65 C66 1.386 1_455 S
C66 H45 0.956 . S
C66 C65 1.386 1_655 S
C66 C67 1.383 1_655 S
C67 C66 1.383 1_455 S
C67 C68 1.372 . S
C68 H46 0.950 . S
C68 C67 1.372 . S
C68 C69 1.379 . S
C69 H47 0.948 . S
C69 C64 1.364 . S
C69 C68 1.379 . S
C70 C39 1.383 . S
C70 C57 1.479 . S
C70 C71 1.398 . S
C71 C36 1.382 1_455 S
C71 H48 0.951 1_455 S
C71 C70 1.398 . S
C72 C73 1.384 1_565 S
C72 H85 0.948 . S
C72 C107 1.382 1_565 S
C73 C72 1.384 1_545 S
C73 C74 1.378 . S
C74 C73 1.378 . S
C74 C75 1.378 . S
C74 H86 0.952 . S
C75 C74 1.378 . S
C75 H87 0.950 . S
C75 C106 1.383 . S
H76 C95 0.947 . S
H77 C96 0.952 . S
H78 C98 0.953 . S
H79 C99 0.945 . S
H80 C101 0.949 1_565 S
H81 C102 0.957 . S
H82 C104 0.950 . S
H83 C105 0.948 . S
H84 C107 0.951 1_565 S
H85 C72 0.948 . S
H86 C74 0.952 . S
H87 C75 0.950 . S
N88 C91 1.382 . S
N88 C93 1.363 . S
N89 C91 1.371 . S
N89 C92 1.372 . S
N90 C92 1.361 . S
N90 C93 1.377 . S
C91 N88 1.382 . S
C91 N89 1.371 . S
C91 C94 1.480 . S
C92 N89 1.372 . S
C92 N90 1.361 . S
C92 C100 1.457 . S
C93 N88 1.363 . S
C93 N90 1.377 . S
C93 C106 1.479 . S
C94 C91 1.480 . S
C94 C95 1.383 . S
C94 C99 1.385 . S
C95 H76 0.947 . S
C95 C94 1.383 . S
C95 C96 1.386 1_545 S
C96 H77 0.952 . S
C96 C95 1.386 1_565 S
C96 C97 1.382 1_565 S
C97 C96 1.382 1_545 S
C97 C98 1.377 . S
C98 H78 0.953 . S
C98 C97 1.377 . S
C98 C99 1.369 . S
C99 H79 0.945 . S
C99 C94 1.385 . S
C99 C98 1.369 . S
C100 C92 1.457 . S
C100 C101 1.376 . S
C100 C105 1.364 . S
C101 H80 0.949 1_545 S
C101 C100 1.376 . S
C101 C102 1.386 1_545 S
C102 H81 0.957 . S
C102 C101 1.386 1_565 S
C102 C103 1.383 1_565 S
C103 C102 1.383 1_545 S
C103 C104 1.372 . S
C104 H82 0.950 . S
C104 C103 1.372 . S
C104 C105 1.379 . S
C105 H83 0.948 . S
C105 C100 1.364 . S
C105 C104 1.379 . S
C106 C75 1.383 . S
C106 C93 1.479 . S
C106 C107 1.398 . S
C107 C72 1.382 1_545 S
C107 H84 0.951 1_545 S
C107 C106 1.398 . S
C108 C109 1.384 . S
C108 H121 0.947 . S
C108 C143 1.382 . S
C109 C108 1.384 . S
C109 C110 1.378 . S
C110 C109 1.378 . S
C110 C111 1.378 . S
C110 H122 0.952 . S
C111 C110 1.378 . S
C111 H123 0.950 . S
C111 C142 1.383 . S
H112 C131 0.947 . S
H113 C132 0.946 . S
H114 C134 0.953 . S
H115 C135 0.945 . S
H116 C137 0.952 . S
H117 C138 0.949 . S
H118 C140 0.950 . S
H119 C141 0.948 . S
H120 C143 0.951 . S
H121 C108 0.947 . S
H122 C110 0.952 . S
H123 C111 0.950 . S
N124 C127 1.382 . S
N124 C129 1.363 . S
N125 C127 1.371 . S
N125 C128 1.372 . S
N126 C128 1.361 . S
N126 C129 1.377 . S
C127 N124 1.382 . S
C127 N125 1.371 . S
C127 C130 1.480 . S
C128 N125 1.372 . S
C128 N126 1.361 . S
C128 C136 1.457 . S
C129 N124 1.363 . S
C129 N126 1.377 . S
C129 C142 1.479 . S
C130 C127 1.480 . S
C130 C131 1.383 . S
C130 C135 1.385 . S
C131 H112 0.947 . S
C131 C130 1.383 . S
C131 C132 1.388 . S
C132 H113 0.946 . S
C132 C131 1.388 . S
C132 C133 1.384 . S
C133 C132 1.384 . S
C133 C134 1.377 . S
C134 H114 0.953 . S
C134 C133 1.377 . S
C134 C135 1.369 . S
C135 H115 0.945 . S
C135 C130 1.385 . S
C135 C134 1.369 . S
C136 C128 1.457 . S
C136 C137 1.372 . S
C136 C141 1.364 . S
C137 H116 0.952 . S
C137 C136 1.372 . S
C137 C138 1.389 . S
C138 H117 0.949 . S
C138 C137 1.389 . S
C138 C139 1.387 . S
C139 C138 1.387 . S
C139 C140 1.372 . S
C140 H118 0.950 . S
C140 C139 1.372 . S
C140 C141 1.379 . S
C141 H119 0.948 . S
C141 C136 1.364 . S
C141 C140 1.379 . S
C142 C111 1.383 . S
C142 C129 1.479 . S
C142 C143 1.398 . S
C143 C108 1.382 . S
C143 H120 0.951 . S
C143 C142 1.398 . S
C144 C145 1.384 . S
C144 H157 0.947 . S
C144 C179 1.382 . S
C145 C144 1.384 . S
C145 C146 1.378 . S
C146 C145 1.378 . S
C146 C147 1.378 . S
C146 H158 0.952 . S
C147 C146 1.378 . S
C147 H159 0.950 . S
C147 C178 1.383 . S
H148 C167 0.947 1_556 S
H149 C168 0.946 . S
H150 C170 0.953 . S
H151 C171 0.945 . S
H152 C173 0.952 . S
H153 C174 0.949 . S
H154 C176 0.950 . S
H155 C177 0.948 . S
H156 C179 0.951 . S
H157 C144 0.947 . S
H158 C146 0.952 . S
H159 C147 0.950 . S
N160 C163 1.382 . S
N160 C165 1.363 1_554 S
N161 C163 1.371 . S
N161 C164 1.372 . S
N162 C164 1.361 . S
N162 C165 1.377 1_554 S
C163 N160 1.382 . S
C163 N161 1.371 . S
C163 C166 1.480 . S
C164 N161 1.372 . S
C164 N162 1.361 . S
C164 C172 1.457 . S
C165 N160 1.363 1_556 S
C165 N162 1.377 1_556 S
C165 C178 1.479 . S
C166 C163 1.480 . S
C166 C167 1.383 . S
C166 C171 1.385 . S
C167 H148 0.947 1_554 S
C167 C166 1.383 . S
C167 C168 1.388 . S
C168 H149 0.946 . S
C168 C167 1.388 . S
C168 C169 1.384 . S
C169 C168 1.384 . S
C169 C170 1.377 . S
C170 H150 0.953 . S
C170 C169 1.377 . S
C170 C171 1.369 . S
C171 H151 0.945 . S
C171 C166 1.385 . S
C171 C170 1.369 . S
C172 C164 1.457 . S
C172 C173 1.372 . S
C172 C177 1.364 . S
C173 H152 0.952 . S
C173 C172 1.372 . S
C173 C174 1.389 . S
C174 H153 0.949 . S
C174 C173 1.389 . S
C174 C175 1.387 . S
C175 C174 1.387 . S
C175 C176 1.372 . S
C176 H154 0.950 . S
C176 C175 1.372 . S
C176 C177 1.379 . S
C177 H155 0.948 . S
C177 C172 1.364 . S
C177 C176 1.379 . S
C178 C147 1.383 . S
C178 C165 1.479 . S
C178 C179 1.398 . S
C179 C144 1.382 . S
C179 H156 0.951 . S
C179 C178 1.398 . S
C180 C181 1.384 . S
C180 H193 0.948 1_455 S
C180 C215 1.382 . S
C181 C180 1.384 . S
C181 C182 1.378 . S
C182 C181 1.378 . S
C182 C183 1.378 . S
C182 H194 0.952 . S
C183 C182 1.378 . S
C183 H195 0.950 . S
C183 C214 1.383 . S
H184 C203 0.947 1_556 S
H185 C204 0.949 . S
H186 C206 0.953 . S
H187 C207 0.945 . S
H188 C209 0.947 1_655 S
H189 C210 0.954 . S
H190 C212 0.950 . S
H191 C213 0.948 . S
H192 C215 0.950 1_655 S
H193 C180 0.948 1_655 S
H194 C182 0.952 . S
H195 C183 0.950 . S
N196 C199 1.382 . S
N196 C201 1.363 1_554 S
N197 C199 1.371 . S
N197 C200 1.372 . S
N198 C200 1.361 . S
N198 C201 1.377 1_554 S
C199 N196 1.382 . S
C199 N197 1.371 . S
C199 C202 1.480 . S
C200 N197 1.372 . S
C200 N198 1.361 . S
C200 C208 1.457 . S
C201 N196 1.363 1_556 S
C201 N198 1.377 1_556 S
C201 C214 1.479 . S
C202 C199 1.480 . S
C202 C203 1.383 . S
C202 C207 1.385 . S
C203 H184 0.947 1_554 S
C203 C202 1.383 . S
C203 C204 1.387 1_455 S
C204 H185 0.949 . S
C204 C203 1.387 1_655 S
C204 C205 1.382 1_655 S
C205 C204 1.382 1_455 S
C205 C206 1.377 . S
C206 H186 0.953 . S
C206 C205 1.377 . S
C206 C207 1.369 . S
C207 H187 0.945 . S
C207 C202 1.385 . S
C207 C206 1.369 . S
C208 C200 1.457 . S
C208 C209 1.379 . S
C208 C213 1.364 . S
C209 H188 0.947 1_455 S
C209 C208 1.379 . S
C209 C210 1.387 1_455 S
C210 H189 0.954 . S
C210 C209 1.387 1_655 S
C210 C211 1.384 1_655 S
C211 C210 1.384 1_455 S
C211 C212 1.372 . S
C212 H190 0.950 . S
C212 C211 1.372 . S
C212 C213 1.379 . S
C213 H191 0.948 . S
C213 C208 1.364 . S
C213 C212 1.379 . S
C214 C183 1.383 . S
C214 C201 1.479 . S
C214 C215 1.399 . S
C215 C180 1.382 . S
C215 H192 0.950 1_455 S
C215 C214 1.399 . S
C216 C217 1.384 . S
C216 H229 0.948 1_545 S
C216 C251 1.382 . S
C217 C216 1.384 . S
C217 C218 1.378 . S
C218 C217 1.378 . S
C218 C219 1.378 . S
C218 H230 0.952 . S
C219 C218 1.378 . S
C219 H231 0.950 . S
C219 C250 1.383 . S
H220 C239 0.947 1_556 S
H221 C240 0.949 . S
H222 C242 0.953 . S
H223 C243 0.945 . S
H224 C245 0.947 1_565 S
H225 C246 0.954 . S
H226 C248 0.950 . S
H227 C249 0.948 . S
H228 C251 0.950 1_565 S
H229 C216 0.948 1_565 S
H230 C218 0.952 . S
H231 C219 0.950 . S
N232 C235 1.382 . S
N232 C237 1.363 1_554 S
N233 C235 1.371 . S
N233 C236 1.372 . S
N234 C236 1.361 . S
N234 C237 1.377 1_554 S
C235 N232 1.382 . S
C235 N233 1.371 . S
C235 C238 1.480 . S
C236 N233 1.372 . S
C236 N234 1.361 . S
C236 C244 1.457 . S
C237 N232 1.363 1_556 S
C237 N234 1.377 1_556 S
C237 C250 1.479 . S
C238 C235 1.480 . S
C238 C239 1.383 . S
C238 C243 1.385 . S
C239 H220 0.947 1_554 S
C239 C238 1.383 . S
C239 C240 1.387 1_545 S
C240 H221 0.949 . S
C240 C239 1.387 1_565 S
C240 C241 1.382 1_565 S
C241 C240 1.382 1_545 S
C241 C242 1.377 . S
C242 H222 0.953 . S
C242 C241 1.377 . S
C242 C243 1.369 . S
C243 H223 0.945 . S
C243 C238 1.385 . S
C243 C242 1.369 . S
C244 C236 1.457 . S
C244 C245 1.379 . S
C244 C249 1.364 . S
C245 H224 0.947 1_545 S
C245 C244 1.379 . S
C245 C246 1.387 1_545 S
C246 H225 0.954 . S
C246 C245 1.387 1_565 S
C246 C247 1.384 1_565 S
C247 C246 1.384 1_545 S
C247 C248 1.372 . S
C248 H226 0.950 . S
C248 C247 1.372 . S
C248 C249 1.379 . S
C249 H227 0.948 . S
C249 C244 1.364 . S
C249 C248 1.379 . S
C250 C219 1.383 . S
C250 C237 1.479 . S
C250 C251 1.399 . S
C251 C216 1.382 . S
C251 H228 0.950 1_545 S
C251 C250 1.399 . S
C252 C253 1.384 . S
C252 H265 0.947 . S
C252 C287 1.382 . S
C253 C252 1.384 . S
C253 C254 1.378 . S
C254 C253 1.378 . S
C254 C255 1.378 . S
C254 H266 0.952 . S
C255 C254 1.378 . S
C255 H267 0.950 . S
C255 C286 1.383 . S
H256 C275 0.947 . S
H257 C276 0.946 . S
H258 C278 0.953 . S
H259 C279 0.945 1_556 S
H260 C281 0.952 . S
H261 C282 0.949 . S
H262 C284 0.950 . S
H263 C285 0.948 . S
H264 C287 0.951 . S
H265 C252 0.947 . S
H266 C254 0.952 . S
H267 C255 0.950 . S
N268 C271 1.382 . S
N268 C273 1.363 . S
N269 C271 1.371 1_556 S
N269 C272 1.372 . S
N270 C272 1.361 1_554 S
N270 C273 1.377 . S
C271 N268 1.382 . S
C271 N269 1.371 1_554 S
C271 C274 1.480 . S
C272 N269 1.372 . S
C272 N270 1.361 1_556 S
C272 C280 1.457 . S
C273 N268 1.363 . S
C273 N270 1.377 . S
C273 C286 1.479 . S
C274 C271 1.480 . S
C274 C275 1.383 . S
C274 C279 1.385 . S
C275 H256 0.947 . S
C275 C274 1.383 . S
C275 C276 1.388 . S
C276 H257 0.946 . S
C276 C275 1.388 . S
C276 C277 1.384 . S
C277 C276 1.384 . S
C277 C278 1.377 . S
C278 H258 0.953 . S
C278 C277 1.377 . S
C278 C279 1.369 . S
C279 H259 0.945 1_554 S
C279 C274 1.385 . S
C279 C278 1.369 . S
C280 C272 1.457 . S
C280 C281 1.372 . S
C280 C285 1.364 . S
C281 H260 0.952 . S
C281 C280 1.372 . S
C281 C282 1.389 . S
C282 H261 0.949 . S
C282 C281 1.389 . S
C282 C283 1.387 . S
C283 C282 1.387 . S
C283 C284 1.372 . S
C284 H262 0.950 . S
C284 C283 1.372 . S
C284 C285 1.379 . S
C285 H263 0.948 . S
C285 C280 1.364 . S
C285 C284 1.379 . S
C286 C255 1.383 . S
C286 C273 1.479 . S
C286 C287 1.398 . S
C287 C252 1.382 . S
C287 H264 0.951 . S
C287 C286 1.398 . S
C288 Eu289 2.835 . S
C288 C290 1.500 . S
C288 O308 1.257 . S
C288 O309 1.260 . S
Eu289 C288 2.835 . S
Eu289 O308 2.473 . S
Eu289 O309 2.480 . S
Eu289 O310 2.430 . S
Eu289 O311 2.670 1_545 S
Eu289 O312 2.394 . S
Eu289 O317 2.355 1_655 S
Eu289 O319 2.374 1_545 S
C290 C288 1.500 . S
C290 C291 1.377 . S
C290 C295 1.377 . S
C291 C290 1.377 . S
C291 C292 1.395 . S
C291 H320 0.931 . S
C292 C291 1.395 . S
C292 C293 1.383 . S
C292 H321 0.931 . S
C293 C292 1.383 . S
C293 C294 1.394 . S
C294 C293 1.394 . S
C294 C295 1.378 . S
C294 H322 0.931 1_655 S
C295 C290 1.377 . S
C295 C294 1.378 . S
C295 H323 0.931 1_655 S
C296 O310 1.259 . S
C296 O311 1.270 1_545 S
C297 O312 1.251 1_455 S
C297 O313 1.251 . S
C298 Eu299 2.835 . S
C298 C300 1.500 . S
C298 O314 1.257 . S
C298 O315 1.260 . S
Eu299 C298 2.835 . S
Eu299 O311 2.355 1_455 S
Eu299 O313 2.374 1_565 S
Eu299 O314 2.473 . S
Eu299 O315 2.480 . S
Eu299 O316 2.430 . S
Eu299 O317 2.670 1_565 S
Eu299 O318 2.394 . S
C300 C298 1.500 . S
C300 C301 1.377 . S
C300 C305 1.377 . S
C301 C300 1.377 . S
C301 C302 1.395 . S
C301 H324 0.931 . S
C302 C301 1.395 . S
C302 C303 1.383 . S
C302 H325 0.931 . S
C303 C302 1.383 . S
C303 C304 1.394 . S
C304 C303 1.394 . S
C304 C305 1.378 . S
C304 H326 0.931 1_455 S
C305 C300 1.377 . S
C305 C304 1.378 . S
C305 H327 0.931 1_455 S
C306 O316 1.280 . S
C306 O317 1.255 1_565 S
C307 O318 1.251 1_655 S
C307 O319 1.251 . S
O308 C288 1.257 . S
O308 Eu289 2.473 . S
O309 C288 1.260 . S
O309 Eu289 2.480 . S
O310 Eu289 2.430 . S
O310 C296 1.259 . S
O311 Eu289 2.670 1_565 S
O311 C296 1.270 1_565 S
O311 Eu299 2.355 1_655 S
O312 Eu289 2.394 . S
O312 C297 1.251 1_655 S
O313 C297 1.251 . S
O313 Eu299 2.374 1_545 S
O314 C298 1.257 . S
O314 Eu299 2.473 . S
O315 C298 1.260 . S
O315 Eu299 2.480 . S
O316 Eu299 2.430 . S
O316 C306 1.280 . S
O317 Eu289 2.355 1_455 S
O317 Eu299 2.670 1_545 S
O317 C306 1.255 1_545 S
O318 Eu299 2.394 . S
O318 C307 1.251 1_455 S
O319 Eu289 2.374 1_565 S
O319 C307 1.251 . S
H320 C291 0.931 . S
H321 C292 0.931 . S
H322 C294 0.931 1_455 S
H323 C295 0.931 1_455 S
H324 C301 0.931 . S
H325 C302 0.931 . S
H326 C304 0.931 1_655 S
H327 C305 0.931 1_655 S
C328 Eu329 2.835 . S
C328 C330 1.500 . S
C328 O348 1.257 . S
C328 O349 1.260 . S
Eu329 C328 2.835 . S
Eu329 O348 2.473 . S
Eu329 O349 2.480 . S
Eu329 O350 2.430 . S
Eu329 O351 2.670 . S
Eu329 O352 2.394 . S
Eu329 O357 2.355 1_565 S
Eu329 O359 2.374 . S
C330 C328 1.500 . S
C330 C331 1.377 . S
C330 C335 1.377 . S
C331 C330 1.377 . S
C331 C332 1.395 . S
C331 H360 0.931 . S
C332 C331 1.395 . S
C332 C333 1.383 . S
C332 H361 0.931 . S
C333 C332 1.383 . S
C333 C334 1.394 . S
C334 C333 1.394 . S
C334 C335 1.378 . S
C334 H362 0.931 1_565 S
C335 C330 1.377 . S
C335 C334 1.378 . S
C335 H363 0.931 1_565 S
C336 O350 1.259 . S
C336 O351 1.270 . S
C337 O352 1.251 1_545 S
C337 O353 1.251 . S
C338 Eu339 2.835 . S
C338 C340 1.500 . S
C338 O354 1.257 . S
C338 O355 1.260 . S
Eu339 C338 2.835 . S
Eu339 O351 2.355 1_545 S
Eu339 O353 2.374 . S
Eu339 O354 2.473 . S
Eu339 O355 2.480 . S
Eu339 O356 2.430 . S
Eu339 O357 2.670 . S
Eu339 O358 2.394 . S
C340 C338 1.500 . S
C340 C341 1.377 . S
C340 C345 1.377 . S
C341 C340 1.377 . S
C341 C342 1.395 . S
C341 H364 0.931 . S
C342 C341 1.395 . S
C342 C343 1.383 . S
C342 H365 0.931 . S
C343 C342 1.383 . S
C343 C344 1.394 . S
C344 C343 1.394 . S
C344 C345 1.378 . S
C344 H366 0.931 1_545 S
C345 C340 1.377 . S
C345 C344 1.378 . S
C345 H367 0.931 1_545 S
C346 O356 1.259 . S
C346 O357 1.270 . S
C347 O358 1.251 1_565 S
C347 O359 1.251 . S
O348 C328 1.257 . S
O348 Eu329 2.473 . S
O349 C328 1.260 . S
O349 Eu329 2.480 . S
O350 Eu329 2.430 . S
O350 C336 1.259 . S
O351 Eu329 2.670 . S
O351 C336 1.270 . S
O351 Eu339 2.355 1_565 S
O352 Eu329 2.394 . S
O352 C337 1.251 1_565 S
O353 C337 1.251 . S
O353 Eu339 2.374 . S
O354 C338 1.257 . S
O354 Eu339 2.473 . S
O355 C338 1.260 . S
O355 Eu339 2.480 . S
O356 Eu339 2.430 . S
O356 C346 1.259 . S
O357 Eu329 2.355 1_545 S
O357 Eu339 2.670 . S
O357 C346 1.270 . S
O358 Eu339 2.394 . S
O358 C347 1.251 1_545 S
O359 Eu329 2.374 . S
O359 C347 1.251 . S
H360 C331 0.931 . S
H361 C332 0.931 . S
H362 C334 0.931 1_545 S
H363 C335 0.931 1_545 S
H364 C341 0.931 . S
H365 C342 0.931 . S
H366 C344 0.931 1_565 S
H367 C345 0.931 1_565 S
C368 Eu369 2.835 . S
C368 C370 1.500 . S
C368 O388 1.257 . S
C368 O389 1.260 . S
Eu369 C368 2.835 . S
Eu369 O388 2.473 . S
Eu369 O389 2.480 . S
Eu369 O390 2.430 . S
Eu369 O391 2.670 . S
Eu369 O392 2.394 . S
Eu369 O397 2.355 . S
Eu369 O399 2.374 . S
C370 C368 1.500 . S
C370 C371 1.377 . S
C370 C375 1.377 . S
C371 C370 1.377 . S
C371 C372 1.395 . S
C371 H400 0.931 . S
C372 C371 1.395 . S
C372 C373 1.383 . S
C372 H401 0.931 . S
C373 C372 1.383 . S
C373 C374 1.394 . S
C374 C373 1.394 . S
C374 C375 1.378 . S
C374 H402 0.931 . S
C375 C370 1.377 . S
C375 C374 1.378 . S
C375 H403 0.931 . S
C376 O390 1.259 . S
C376 O391 1.270 . S
C377 O392 1.251 . S
C377 O393 1.251 . S
C378 Eu379 2.835 . S
C378 C380 1.500 . S
C378 O394 1.257 . S
C378 O395 1.260 . S
Eu379 C378 2.835 . S
Eu379 O391 2.355 . S
Eu379 O393 2.374 . S
Eu379 O394 2.473 . S
Eu379 O395 2.480 . S
Eu379 O396 2.430 . S
Eu379 O397 2.670 . S
Eu379 O398 2.394 . S
C380 C378 1.500 . S
C380 C381 1.377 . S
C380 C385 1.377 . S
C381 C380 1.377 . S
C381 C382 1.395 . S
C381 H404 0.931 . S
C382 C381 1.395 . S
C382 C383 1.383 . S
C382 H405 0.931 . S
C383 C382 1.383 . S
C383 C384 1.394 . S
C384 C383 1.394 . S
C384 C385 1.378 . S
C384 H406 0.931 . S
C385 C380 1.377 . S
C385 C384 1.378 . S
C385 H407 0.931 . S
C386 O396 1.259 . S
C386 O397 1.270 . S
C387 O398 1.251 . S
C387 O399 1.251 . S
O388 C368 1.257 . S
O388 Eu369 2.473 . S
O389 C368 1.260 . S
O389 Eu369 2.480 . S
O390 Eu369 2.430 . S
O390 C376 1.259 . S
O391 Eu369 2.670 . S
O391 C376 1.270 . S
O391 Eu379 2.355 . S
O392 Eu369 2.394 . S
O392 C377 1.251 . S
O393 C377 1.251 . S
O393 Eu379 2.374 . S
O394 C378 1.257 . S
O394 Eu379 2.473 . S
O395 C378 1.260 . S
O395 Eu379 2.480 . S
O396 Eu379 2.430 . S
O396 C386 1.259 . S
O397 Eu369 2.355 . S
O397 Eu379 2.670 . S
O397 C386 1.270 . S
O398 Eu379 2.394 . S
O398 C387 1.251 . S
O399 Eu369 2.374 . S
O399 C387 1.251 . S
H400 C371 0.931 . S
H401 C372 0.931 . S
H402 C374 0.931 . S
H403 C375 0.931 . S
H404 C381 0.931 . S
H405 C382 0.931 . S
H406 C384 0.931 . S
H407 C385 0.931 . S
C408 Eu409 2.835 . S
C408 C410 1.500 . S
C408 O428 1.257 . S
C408 O429 1.260 . S
Eu409 C408 2.835 . S
Eu409 O428 2.473 . S
Eu409 O429 2.480 . S
Eu409 O430 2.430 . S
Eu409 O431 2.670 1_455 S
Eu409 O432 2.394 . S
Eu409 O437 2.355 . S
Eu409 O439 2.374 1_455 S
C410 C408 1.500 . S
C410 C411 1.377 . S
C410 C415 1.377 . S
C411 C410 1.377 . S
C411 C412 1.395 . S
C411 H440 0.931 . S
C412 C411 1.395 . S
C412 C413 1.383 . S
C412 H441 0.931 . S
C413 C412 1.383 . S
C413 C414 1.394 . S
C414 C413 1.394 . S
C414 C415 1.378 . S
C414 H442 0.931 . S
C415 C410 1.377 . S
C415 C414 1.378 . S
C415 H443 0.931 . S
C416 O430 1.267 . S
C416 O431 1.264 1_455 S
C417 O432 1.251 . S
C417 O433 1.251 . S
C418 Eu419 2.835 . S
C418 C420 1.500 . S
C418 O434 1.257 . S
C418 O435 1.260 . S
Eu419 C418 2.835 . S
Eu419 O431 2.355 . S
Eu419 O433 2.374 1_655 S
Eu419 O434 2.473 . S
Eu419 O435 2.480 . S
Eu419 O436 2.430 . S
Eu419 O437 2.670 1_655 S
Eu419 O438 2.394 . S
C420 C418 1.500 . S
C420 C421 1.377 . S
C420 C425 1.377 . S
C421 C420 1.377 . S
C421 C422 1.395 . S
C421 H444 0.931 . S
C422 C421 1.395 . S
C422 C423 1.383 . S
C422 H445 0.931 . S
C423 C422 1.383 . S
C423 C424 1.394 . S
C424 C423 1.394 . S
C424 C425 1.378 . S
C424 H446 0.931 . S
C425 C420 1.377 . S
C425 C424 1.378 . S
C425 H447 0.931 . S
C426 O436 1.261 . S
C426 O437 1.268 1_655 S
C427 O438 1.251 . S
C427 O439 1.251 . S
O428 C408 1.257 . S
O428 Eu409 2.473 . S
O429 C408 1.260 . S
O429 Eu409 2.480 . S
O430 Eu409 2.430 . S
O430 C416 1.267 . S
O431 Eu409 2.670 1_655 S
O431 C416 1.264 1_655 S
O431 Eu419 2.355 . S
O432 Eu409 2.394 . S
O432 C417 1.251 . S
O433 C417 1.251 . S
O433 Eu419 2.374 1_455 S
O434 C418 1.257 . S
O434 Eu419 2.473 . S
O435 C418 1.260 . S
O435 Eu419 2.480 . S
O436 Eu419 2.430 . S
O436 C426 1.261 . S
O437 Eu409 2.355 . S
O437 Eu419 2.670 1_455 S
O437 C426 1.268 1_455 S
O438 Eu419 2.394 . S
O438 C427 1.251 . S
O439 Eu409 2.374 1_655 S
O439 C427 1.251 . S
H440 C411 0.931 . S
H441 C412 0.931 . S
H442 C414 0.931 . S
H443 C415 0.931 . S
H444 C421 0.931 . S
H445 C422 0.931 . S
H446 C424 0.931 . S
H447 C425 0.931 . S
H448 C454 0.930 . S
H449 C458 0.930 . S
H450 C463 0.929 . S
H451 C461 0.929 . S
H452 C456 0.929 . S
H453 C462 0.929 . S
C454 H448 0.930 . S
C454 C455 1.389 . S
C454 C462 1.378 . S
C455 C454 1.389 . S
C455 C463 1.412 1_545 S
C456 H452 0.929 . S
C456 C458 1.378 . S
C456 C460 1.356 . S
C457 C460 1.461 1_545 S
C457 C462 1.385 . S
C457 N465 1.391 1_545 S
C458 H449 0.930 . S
C458 C456 1.378 . S
C458 C459 1.368 1_565 S
C459 C458 1.368 1_545 S
C459 C461 1.432 . S
C460 C456 1.356 . S
C460 C457 1.461 1_565 S
C460 N464 1.421 1_565 S
C461 H451 0.929 . S
C461 C459 1.432 . S
C461 N464 1.384 . S
C462 H453 0.929 . S
C462 C454 1.378 . S
C462 C457 1.385 . S
C463 H450 0.929 . S
C463 C455 1.412 1_565 S
C463 N465 1.384 . S
N464 C460 1.421 1_545 S
N464 C461 1.384 . S
N465 C457 1.391 1_565 S
N465 C463 1.384 . S
H466 C472 0.930 . S
H467 C476 0.930 . S
H468 C481 0.929 . S
H469 C479 0.929 . S
H470 C474 0.929 . S
H471 C480 0.929 . S
C472 H466 0.930 . S
C472 C473 1.367 . S
C472 C480 1.378 . S
C473 C472 1.367 . S
C473 C481 1.433 . S
C474 H470 0.929 . S
C474 C476 1.378 . S
C474 C478 1.350 . S
C475 C478 1.463 . S
C475 C480 1.350 . S
C475 N483 1.427 . S
C476 H467 0.930 . S
C476 C474 1.378 . S
C476 C477 1.367 . S
C477 C476 1.367 . S
C477 C479 1.433 . S
C478 C474 1.350 . S
C478 C475 1.463 . S
C478 N482 1.427 . S
C479 H469 0.929 . S
C479 C477 1.433 . S
C479 N482 1.384 . S
C480 H471 0.929 . S
C480 C472 1.378 . S
C480 C475 1.350 . S
C481 H468 0.929 . S
C481 C473 1.433 . S
C481 N483 1.384 . S
N482 C478 1.427 . S
N482 C479 1.384 . S
N483 C475 1.427 . S
N483 C481 1.384 . S
H484 C490 0.930 . S
H485 C494 0.930 . S
H486 C499 0.929 . S
H487 C497 0.929 . S
H488 C492 0.929 . S
H489 C498 0.929 . S
C490 H484 0.930 . S
C490 C491 1.367 . S
C490 C498 1.378 . S
C491 C490 1.367 . S
C491 C499 1.433 . S
C492 H488 0.929 . S
C492 C494 1.378 . S
C492 C496 1.350 . S
C493 C496 1.463 . S
C493 C498 1.350 . S
C493 N501 1.427 . S
C494 H485 0.930 . S
C494 C492 1.378 . S
C494 C495 1.367 . S
C495 C494 1.367 . S
C495 C497 1.433 . S
C496 C492 1.350 . S
C496 C493 1.463 . S
C496 N500 1.427 . S
C497 H487 0.929 . S
C497 C495 1.433 . S
C497 N500 1.384 . S
C498 H489 0.929 . S
C498 C490 1.378 . S
C498 C493 1.350 . S
C499 H486 0.929 . S
C499 C491 1.433 . S
C499 N501 1.384 . S
N500 C496 1.427 . S
N500 C497 1.384 . S
N501 C493 1.427 . S
N501 C499 1.384 . S
H502 C508 0.930 . S
H503 C512 0.930 . S
H504 C517 0.929 . S
H505 C515 0.929 . S
H506 C510 0.929 . S
H507 C516 0.929 . S
C508 H502 0.930 . S
C508 C509 1.365 . S
C508 C516 1.378 . S
C509 C508 1.365 . S
C509 C517 1.435 1_655 S
C510 H506 0.929 . S
C510 C512 1.378 . S
C510 C514 1.350 . S
C511 C514 1.463 . S
C511 C516 1.349 1_455 S
C511 N519 1.428 . S
C512 H503 0.930 . S
C512 C510 1.378 . S
C512 C513 1.367 . S
C513 C512 1.367 . S
C513 C515 1.433 1_455 S
C514 C510 1.350 . S
C514 C511 1.463 . S
C514 N518 1.427 1_455 S
C515 H505 0.929 . S
C515 C513 1.433 1_655 S
C515 N518 1.384 . S
C516 H507 0.929 . S
C516 C508 1.378 . S
C516 C511 1.349 1_655 S
C517 H504 0.929 . S
C517 C509 1.435 1_455 S
C517 N519 1.384 . S
N518 C514 1.427 1_655 S
N518 C515 1.384 . S
N519 C511 1.428 . S
N519 C517 1.384 . S
H520 C526 0.930 . S
H521 C530 0.930 . S
H522 C535 0.929 . S
H523 C533 0.929 . S
H524 C528 0.929 1_554 S
H525 C534 0.929 . S
C526 H520 0.930 . S
C526 C527 1.373 . S
C526 C534 1.378 . S
C527 C526 1.373 . S
C527 C535 1.427 1_565 S
C528 H524 0.929 1_556 S
C528 C530 1.378 . S
C528 C532 1.356 . S
C529 C532 1.462 1_564 S
C529 C534 1.365 . S
C529 N537 1.412 1_565 S
C530 H521 0.930 . S
C530 C528 1.378 . S
C530 C531 1.364 . S
C531 C530 1.364 . S
C531 C533 1.436 1_545 S
C532 C528 1.356 . S
C532 C529 1.462 1_546 S
C532 N536 1.421 1_545 S
C533 H523 0.929 . S
C533 C531 1.436 1_565 S
C533 N536 1.384 . S
C534 H525 0.929 . S
C534 C526 1.378 . S
C534 C529 1.365 . S
C535 H522 0.929 . S
C535 C527 1.427 1_545 S
C535 N537 1.384 . S
N536 C532 1.421 1_565 S
N536 C533 1.384 . S
N537 C529 1.412 1_545 S
N537 C535 1.384 . S
H538 C544 0.930 . S
H539 C548 0.930 . S
H540 C553 0.929 . S
H541 C551 0.929 . S
H542 C546 0.929 1_554 S
H543 C552 0.929 . S
C544 H538 0.930 . S
C544 C545 1.367 . S
C544 C552 1.378 . S
C545 C544 1.367 . S
C545 C553 1.433 . S
C546 H542 0.929 1_556 S
C546 C548 1.378 . S
C546 C550 1.350 . S
C547 C550 1.463 1_554 S
C547 C552 1.350 . S
C547 N555 1.427 . S
C548 H539 0.930 . S
C548 C546 1.378 . S
C548 C549 1.367 . S
C549 C548 1.367 . S
C549 C551 1.433 . S
C550 C546 1.350 . S
C550 C547 1.463 1_556 S
C550 N554 1.427 . S
C551 H541 0.929 . S
C551 C549 1.433 . S
C551 N554 1.384 . S
C552 H543 0.929 . S
C552 C544 1.378 . S
C552 C547 1.350 . S
C553 H540 0.929 . S
C553 C545 1.433 . S
C553 N555 1.384 . S
N554 C550 1.427 . S
N554 C551 1.384 . S
N555 C547 1.427 . S
N555 C553 1.384 . S
H556 C562 0.930 . S
H557 C566 0.930 . S
H558 C571 0.929 . S
H559 C569 0.929 . S
H560 C564 0.929 . S
H561 C570 0.929 . S
C562 H556 0.930 . S
C562 C563 1.367 . S
C562 C570 1.378 . S
C563 C562 1.367 . S
C563 C571 1.433 . S
C564 H560 0.929 . S
C564 C566 1.378 . S
C564 C568 1.350 . S
C565 C568 1.463 1_554 S
C565 C570 1.350 . S
C565 N573 1.427 . S
C566 H557 0.930 . S
C566 C564 1.378 . S
C566 C567 1.367 . S
C567 C566 1.367 . S
C567 C569 1.433 . S
C568 C564 1.350 . S
C568 C565 1.463 1_556 S
C568 N572 1.427 . S
C569 H559 0.929 . S
C569 C567 1.433 . S
C569 N572 1.384 . S
C570 H561 0.929 . S
C570 C562 1.378 . S
C570 C565 1.350 . S
C571 H558 0.929 . S
C571 C563 1.433 . S
C571 N573 1.384 . S
N572 C568 1.427 . S
N572 C569 1.384 . S
N573 C565 1.427 . S
N573 C571 1.384 . S
H574 C580 0.930 . S
H575 C584 0.930 . S
H576 C589 0.929 . S
H577 C587 0.929 . S
H578 C582 0.929 . S
H579 C588 0.929 . S
C580 H574 0.930 . S
C580 C581 1.379 . S
C580 C588 1.378 . S
C581 C580 1.379 . S
C581 C589 1.421 1_655 S
C582 H578 0.929 . S
C582 C584 1.378 . S
C582 C586 1.343 1_455 S
C583 C586 1.462 1_554 S
C583 C588 1.374 . S
C583 N591 1.404 1_655 S
C584 H575 0.930 . S
C584 C582 1.378 . S
C584 C585 1.349 1_455 S
C585 C584 1.349 1_655 S
C585 C587 1.452 . S
C586 C582 1.343 1_655 S
C586 C583 1.462 1_556 S
C586 N590 1.434 . S
C587 H577 0.929 . S
C587 C585 1.452 . S
C587 N590 1.384 . S
C588 H579 0.929 . S
C588 C580 1.378 . S
C588 C583 1.374 . S
C589 H576 0.929 . S
C589 C581 1.421 1_455 S
C589 N591 1.384 . S
N590 C586 1.434 . S
N590 C587 1.384 . S
N591 C583 1.404 1_455 S
N591 C589 1.384 . S
H592 C598 0.930 . S
H593 C602 0.934 1_455 S
H594 C607 0.929 . S
H595 C605 0.929 . S
H596 C600 0.929 1_455 S
H597 C606 0.929 . S
C598 H592 0.930 . S
C598 C599 1.367 1_655 S
C598 C606 1.378 . S
C599 C598 1.367 1_455 S
C599 C607 1.433 . S
C600 H596 0.929 1_655 S
C600 C602 1.378 . S
C600 C604 1.350 . S
C601 C604 1.463 . S
C601 C606 1.350 . S
C601 N609 1.427 1_655 S
C602 H593 0.934 1_655 S
C602 C600 1.378 . S
C602 C603 1.367 . S
C603 C602 1.367 . S
C603 C605 1.433 . S
C604 C600 1.350 . S
C604 C601 1.463 . S
C604 N608 1.427 . S
C605 H595 0.929 . S
C605 C603 1.433 . S
C605 N608 1.384 . S
C606 H597 0.929 . S
C606 C598 1.378 . S
C606 C601 1.350 . S
C607 H594 0.929 . S
C607 C599 1.433 . S
C607 N609 1.384 . S
N608 C604 1.427 . S
N608 C605 1.384 . S
N609 C601 1.427 1_455 S
N609 C607 1.384 . S
H610 C616 0.940 . S
H611 C620 0.930 . S
H612 C625 0.929 . S
H613 C623 0.929 . S
H614 C618 0.929 . S
H615 C624 0.929 . S
C616 H610 0.940 . S
C616 C617 1.370 . S
C616 C624 1.366 1_545 S
C617 C616 1.370 . S
C617 C625 1.433 1_545 S
C618 H614 0.929 . S
C618 C620 1.378 . S
C618 C622 1.350 . S
C619 C622 1.463 . S
C619 C624 1.350 . S
C619 N627 1.427 . S
C620 H611 0.930 . S
C620 C618 1.378 . S
C620 C621 1.367 . S
C621 C620 1.367 . S
C621 C623 1.433 . S
C622 C618 1.350 . S
C622 C619 1.463 . S
C622 N626 1.427 . S
C623 H613 0.929 . S
C623 C621 1.433 . S
C623 N626 1.384 . S
C624 H615 0.929 . S
C624 C616 1.366 1_565 S
C624 C619 1.350 . S
C625 H612 0.929 . S
C625 C617 1.433 1_565 S
C625 N627 1.384 . S
N626 C622 1.427 . S
N626 C623 1.384 . S
N627 C619 1.427 . S
N627 C625 1.384 . S
H628 C634 0.930 . S
H629 C638 0.930 . S
H630 C643 0.929 . S
H631 C641 0.929 . S
H632 C636 0.929 . S
H633 C642 0.929 . S
C634 H628 0.930 . S
C634 C635 1.367 . S
C634 C642 1.378 . S
C635 C634 1.367 . S
C635 C643 1.433 . S
C636 H632 0.929 . S
C636 C638 1.378 . S
C636 C640 1.350 . S
C637 C640 1.463 . S
C637 C642 1.350 . S
C637 N645 1.427 . S
C638 H629 0.930 . S
C638 C636 1.378 . S
C638 C639 1.367 . S
C639 C638 1.367 . S
C639 C641 1.433 . S
C640 C636 1.350 . S
C640 C637 1.463 . S
C640 N644 1.427 . S
C641 H631 0.929 . S
C641 C639 1.433 . S
C641 N644 1.384 . S
C642 H633 0.929 . S
C642 C634 1.378 . S
C642 C637 1.350 . S
C643 H630 0.929 . S
C643 C635 1.433 . S
C643 N645 1.384 . S
N644 C640 1.427 . S
N644 C641 1.384 . S
N645 C637 1.427 . S
N645 C643 1.384 . S
H646 C652 0.930 . S
H647 C656 0.930 . S
H648 C661 0.929 . S
H649 C659 0.929 . S
H650 C654 0.929 . S
H651 C660 0.929 . S
C652 H646 0.930 . S
C652 C653 1.367 . S
C652 C660 1.378 . S
C653 C652 1.367 . S
C653 C661 1.433 . S
C654 H650 0.929 . S
C654 C656 1.378 . S
C654 C658 1.350 . S
C655 C658 1.463 . S
C655 C660 1.350 . S
C655 N663 1.427 . S
C656 H647 0.930 . S
C656 C654 1.378 . S
C656 C657 1.367 . S
C657 C656 1.367 . S
C657 C659 1.433 . S
C658 C654 1.350 . S
C658 C655 1.463 . S
C658 N662 1.427 . S
C659 H649 0.929 . S
C659 C657 1.433 . S
C659 N662 1.384 . S
C660 H651 0.929 . S
C660 C652 1.378 . S
C660 C655 1.350 . S
C661 H648 0.929 . S
C661 C653 1.433 . S
C661 N663 1.384 . S
N662 C658 1.427 . S
N662 C659 1.384 . S
N663 C655 1.427 . S
N663 C661 1.384 . S
H664 C670 0.930 . S
H665 C674 0.930 . S
H666 C679 0.929 . S
H667 C677 0.929 . S
H668 C672 0.929 . S
H669 C678 0.929 . S
C670 H664 0.930 . S
C670 C671 1.367 1_455 S
C670 C678 1.378 . S
C671 C670 1.367 1_655 S
C671 C679 1.433 . S
C672 H668 0.929 . S
C672 C674 1.378 . S
C672 C676 1.350 1_556 S
C673 C676 1.463 . S
C673 C678 1.350 . S
C673 N681 1.427 . S
C674 H665 0.930 . S
C674 C672 1.378 . S
C674 C675 1.367 . S
C675 C674 1.367 . S
C675 C677 1.433 1_556 S
C676 C672 1.350 1_554 S
C676 C673 1.463 . S
C676 N680 1.427 . S
C677 H667 0.929 . S
C677 C675 1.433 1_554 S
C677 N680 1.384 . S
C678 H669 0.929 . S
C678 C670 1.378 . S
C678 C673 1.350 . S
C679 H666 0.929 . S
C679 C671 1.433 . S
C679 N681 1.384 1_655 S
N680 C676 1.427 . S
N680 C677 1.384 . S
N681 C673 1.427 . S
N681 C679 1.384 1_455 S
H682 C688 0.930 . S
H683 C692 0.952 . S
H684 C697 0.929 . S
H685 C695 0.929 . S
H686 C690 0.929 1_565 S
H687 C696 0.929 . S
C688 H682 0.930 . S
C688 C689 1.367 1_545 S
C688 C696 1.378 . S
C689 C688 1.367 1_565 S
C689 C697 1.433 . S
C690 H686 0.929 1_545 S
C690 C692 1.378 . S
C690 C694 1.350 1_556 S
C691 C694 1.463 . S
C691 C696 1.350 . S
C691 N699 1.427 1_545 S
C692 H683 0.952 . S
C692 C690 1.378 . S
C692 C693 1.367 . S
C693 C692 1.367 . S
C693 C695 1.433 . S
C694 C690 1.350 1_554 S
C694 C691 1.463 . S
C694 N698 1.427 . S
C695 H685 0.929 . S
C695 C693 1.433 . S
C695 N698 1.384 1_556 S
C696 H687 0.929 . S
C696 C688 1.378 . S
C696 C691 1.350 . S
C697 H684 0.929 . S
C697 C689 1.433 . S
C697 N699 1.384 . S
N698 C694 1.427 . S
N698 C695 1.384 1_554 S
N699 C691 1.427 1_565 S
N699 C697 1.384 . S
H700 C706 0.930 . S
H701 C710 0.930 . S
H702 C715 0.929 . S
H703 C713 0.929 . S
H704 C708 0.929 . S
H705 C714 0.929 1_556 S
C706 H700 0.930 . S
C706 C707 1.367 . S
C706 C714 1.378 . S
C707 C706 1.367 . S
C707 C715 1.433 . S
C708 H704 0.929 . S
C708 C710 1.378 . S
C708 C712 1.350 . S
C709 C712 1.463 . S
C709 C714 1.350 . S
C709 N717 1.427 . S
C710 H701 0.930 . S
C710 C708 1.378 . S
C710 C711 1.367 1_554 S
C711 C710 1.367 1_556 S
C711 C713 1.433 . S
C712 C708 1.350 . S
C712 C709 1.463 . S
C712 N716 1.427 1_554 S
C713 H703 0.929 . S
C713 C711 1.433 . S
C713 N716 1.384 . S
C714 H705 0.929 1_554 S
C714 C706 1.378 . S
C714 C709 1.350 . S
C715 H702 0.929 . S
C715 C707 1.433 . S
C715 N717 1.384 . S
N716 C712 1.427 1_556 S
N716 C713 1.384 . S
N717 C709 1.427 . S
N717 C715 1.384 . S
H718 C724 0.930 . S
H719 C728 0.930 . S
H720 C733 0.929 . S
H721 C731 0.929 . S
H722 C726 0.929 . S
H723 C732 0.929 1_556 S
C724 H718 0.930 . S
C724 C725 1.367 . S
C724 C732 1.378 . S
C725 C724 1.367 . S
C725 C733 1.433 . S
C726 H722 0.929 . S
C726 C728 1.378 . S
C726 C730 1.350 . S
C727 C730 1.463 . S
C727 C732 1.350 . S
C727 N735 1.427 . S
C728 H719 0.930 . S
C728 C726 1.378 . S
C728 C729 1.367 1_554 S
C729 C728 1.367 1_556 S
C729 C731 1.433 . S
C730 C726 1.350 . S
C730 C727 1.463 . S
C730 N734 1.427 1_554 S
C731 H721 0.929 . S
C731 C729 1.433 . S
C731 N734 1.384 . S
C732 H723 0.929 1_554 S
C732 C724 1.378 . S
C732 C727 1.350 . S
C733 H720 0.929 . S
C733 C725 1.433 . S
C733 N735 1.384 . S
N734 C730 1.427 1_556 S
N734 C731 1.384 . S
N735 C727 1.427 . S
N735 C733 1.384 . S
H736 C742 0.930 . S
H737 C746 0.930 . S
H738 C751 0.929 1_655 S
H739 C749 0.929 . S
H740 C744 0.929 . S
H741 C750 0.929 . S
C742 H736 0.930 . S
C742 C743 1.367 . S
C742 C750 1.378 . S
C743 C742 1.367 . S
C743 C751 1.433 . S
C744 H740 0.929 . S
C744 C746 1.378 . S
C744 C748 1.350 . S
C745 C748 1.463 . S
C745 C750 1.350 . S
C745 N753 1.427 . S
C746 H737 0.930 . S
C746 C744 1.378 . S
C746 C747 1.367 . S
C747 C746 1.367 . S
C747 C749 1.433 . S
C748 C744 1.350 . S
C748 C745 1.463 . S
C748 N752 1.427 . S
C749 H739 0.929 . S
C749 C747 1.433 . S
C749 N752 1.384 . S
C750 H741 0.929 . S
C750 C742 1.378 . S
C750 C745 1.350 . S
C751 H738 0.929 1_455 S
C751 C743 1.433 . S
C751 N753 1.384 . S
N752 C748 1.427 . S
N752 C749 1.384 . S
N753 C745 1.427 . S
N753 C751 1.384 . S
H754 C760 0.930 . S
H755 C764 0.930 . S
H756 C769 0.929 . S
H757 C767 0.929 . S
H758 C762 0.929 . S
H759 C768 0.929 . S
C760 H754 0.930 . S
C760 C761 1.367 . S
C760 C768 1.378 . S
C761 C760 1.367 . S
C761 C769 1.433 1_545 S
C762 H758 0.929 . S
C762 C764 1.378 . S
C762 C766 1.350 1_565 S
C763 C766 1.463 . S
C763 C768 1.350 . S
C763 N771 1.427 1_545 S
C764 H755 0.930 . S
C764 C762 1.378 . S
C764 C765 1.367 1_565 S
C765 C764 1.367 1_545 S
C765 C767 1.433 . S
C766 C762 1.350 1_545 S
C766 C763 1.463 . S
C766 N770 1.427 . S
C767 H757 0.929 . S
C767 C765 1.433 . S
C767 N770 1.384 . S
C768 H759 0.929 . S
C768 C760 1.378 . S
C768 C763 1.350 . S
C769 H756 0.929 . S
C769 C761 1.433 1_565 S
C769 N771 1.384 . S
N770 C766 1.427 . S
N770 C767 1.384 . S
N771 C763 1.427 1_565 S
N771 C769 1.384 . S
H772 C778 0.930 . S
H773 C782 0.930 . S
H774 C787 0.929 . S
H775 C785 0.929 . S
H776 C780 0.929 . S
H777 C786 0.929 . S
C778 H772 0.930 . S
C778 C779 1.367 . S
C778 C786 1.378 . S
C779 C778 1.367 . S
C779 C787 1.433 . S
C780 H776 0.929 . S
C780 C782 1.378 . S
C780 C784 1.350 . S
C781 C784 1.463 . S
C781 C786 1.350 . S
C781 N789 1.427 . S
C782 H773 0.930 . S
C782 C780 1.378 . S
C782 C783 1.367 . S
C783 C782 1.367 . S
C783 C785 1.433 . S
C784 C780 1.350 . S
C784 C781 1.463 . S
C784 N788 1.427 . S
C785 H775 0.929 . S
C785 C783 1.433 . S
C785 N788 1.384 . S
C786 H777 0.929 . S
C786 C778 1.378 . S
C786 C781 1.350 . S
C787 H774 0.929 . S
C787 C779 1.433 . S
C787 N789 1.384 . S
N788 C784 1.427 . S
N788 C785 1.384 . S
N789 C781 1.427 . S
N789 C787 1.384 . S
H790 C796 0.930 . S
H791 C800 0.930 . S
H792 C805 0.929 . S
H793 C803 0.929 . S
H794 C798 0.929 . S
H795 C804 0.929 . S
C796 H790 0.930 . S
C796 C797 1.367 . S
C796 C804 1.378 . S
C797 C796 1.367 . S
C797 C805 1.433 . S
C798 H794 0.929 . S
C798 C800 1.378 . S
C798 C802 1.350 . S
C799 C802 1.463 . S
C799 C804 1.350 . S
C799 N807 1.427 . S
C800 H791 0.930 . S
C800 C798 1.378 . S
C800 C801 1.367 . S
C801 C800 1.367 . S
C801 C803 1.433 . S
C802 C798 1.350 . S
C802 C799 1.463 . S
C802 N806 1.427 . S
C803 H793 0.929 . S
C803 C801 1.433 . S
C803 N806 1.384 . S
C804 H795 0.929 . S
C804 C796 1.378 . S
C804 C799 1.350 . S
C805 H792 0.929 . S
C805 C797 1.433 . S
C805 N807 1.384 . S
N806 C802 1.427 . S
N806 C803 1.384 . S
N807 C799 1.427 . S
N807 C805 1.384 . S
H808 C814 0.930 . S
H809 C818 0.929 . S
H810 C823 0.929 . S
H811 C821 0.929 . S
H812 C816 0.929 . S
H813 C822 0.929 . S
C814 H808 0.930 . S
C814 C815 1.367 . S
C814 C822 1.378 . S
C815 C814 1.367 . S
C815 C823 1.433 1_655 S
C816 H812 0.929 . S
C816 C818 1.378 . S
C816 C820 1.350 1_455 S
C817 C820 1.463 . S
C817 C822 1.350 . S
C817 N825 1.427 1_655 S
C818 H809 0.929 . S
C818 C816 1.378 . S
C818 C819 1.368 1_455 S
C819 C818 1.368 1_655 S
C819 C821 1.433 . S
C820 C816 1.350 1_655 S
C820 C817 1.463 . S
C820 N824 1.427 . S
C821 H811 0.929 . S
C821 C819 1.433 . S
C821 N824 1.384 . S
C822 H813 0.929 . S
C822 C814 1.378 . S
C822 C817 1.350 . S
C823 H810 0.929 . S
C823 C815 1.433 1_455 S
C823 N825 1.384 . S
N824 C820 1.427 . S
N824 C821 1.384 . S
N825 C817 1.427 1_455 S
N825 C823 1.384 . S
H826 C832 0.930 . S
H827 C836 0.930 . S
H828 C841 0.929 . S
H829 C839 0.929 . S
H830 C834 0.929 . S
H831 C840 0.929 . S
C832 H826 0.930 . S
C832 C833 1.367 . S
C832 C840 1.378 . S
C833 C832 1.367 . S
C833 C841 1.433 1_565 S
C834 H830 0.929 . S
C834 C836 1.378 . S
C834 C838 1.350 1_545 S
C835 C838 1.463 . S
C835 C840 1.350 . S
C835 N843 1.427 1_565 S
C836 H827 0.930 . S
C836 C834 1.378 . S
C836 C837 1.367 1_545 S
C837 C836 1.367 1_565 S
C837 C839 1.433 . S
C838 C834 1.350 1_565 S
C838 C835 1.463 . S
C838 N842 1.427 . S
C839 H829 0.929 . S
C839 C837 1.433 . S
C839 N842 1.384 . S
C840 H831 0.929 . S
C840 C832 1.378 . S
C840 C835 1.350 . S
C841 H828 0.929 . S
C841 C833 1.433 1_545 S
C841 N843 1.384 . S
N842 C838 1.427 . S
N842 C839 1.384 . S
N843 C835 1.427 1_545 S
N843 C841 1.384 . S
H844 C850 0.930 . S
H845 C854 0.930 . S
H846 C859 0.929 . S
H847 C857 0.929 . S
H848 C852 0.929 . S
H849 C858 0.929 . S
C850 H844 0.930 . S
C850 C851 1.367 . S
C850 C858 1.378 . S
C851 C850 1.367 . S
C851 C859 1.433 . S
C852 H848 0.929 . S
C852 C854 1.378 . S
C852 C856 1.350 . S
C853 C856 1.463 . S
C853 C858 1.350 . S
C853 N861 1.427 . S
C854 H845 0.930 . S
C854 C852 1.378 . S
C854 C855 1.367 . S
C855 C854 1.367 . S
C855 C857 1.433 . S
C856 C852 1.350 . S
C856 C853 1.463 . S
C856 N860 1.427 . S
C857 H847 0.929 . S
C857 C855 1.433 . S
C857 N860 1.384 . S
C858 H849 0.929 . S
C858 C850 1.378 . S
C858 C853 1.350 . S
C859 H846 0.929 . S
C859 C851 1.433 . S
C859 N861 1.384 . S
N860 C856 1.427 . S
N860 C857 1.384 . S
N861 C853 1.427 . S
N861 C859 1.384 . S
H862 C868 0.930 . S
H863 C872 0.930 . S
H864 C877 0.929 . S
H865 C875 0.929 . S
H866 C870 0.929 . S
H867 C876 0.929 . S
C868 H862 0.930 . S
C868 C869 1.367 . S
C868 C876 1.378 . S
C869 C868 1.367 . S
C869 C877 1.433 . S
C870 H866 0.929 . S
C870 C872 1.378 . S
C870 C874 1.350 . S
C871 C874 1.463 . S
C871 C876 1.350 . S
C871 N879 1.427 . S
C872 H863 0.930 . S
C872 C870 1.378 . S
C872 C873 1.367 . S
C873 C872 1.367 . S
C873 C875 1.433 . S
C874 C870 1.350 . S
C874 C871 1.463 . S
C874 N878 1.427 . S
C875 H865 0.929 . S
C875 C873 1.433 . S
C875 N878 1.384 . S
C876 H867 0.929 . S
C876 C868 1.378 . S
C876 C871 1.350 . S
C877 H864 0.929 . S
C877 C869 1.433 . S
C877 N879 1.384 . S
N878 C874 1.427 . S
N878 C875 1.384 . S
N879 C871 1.427 . S
N879 C877 1.384 . S
C455 C241 2.148 . S
C459 C306 2.392 1_545 S
C477 C346 2.425 . S
C473 C277 2.228 . S
C495 C386 2.412 . S
C491 C169 2.153 . S
C513 C426 2.411 1_455 S
C509 C205 2.166 1_655 S
C531 C296 2.395 . S
C527 C97 2.141 1_565 S
C545 C133 2.227 . S
C549 C336 2.429 . S
C563 C25 2.167 . S
C567 C376 2.411 . S
C581 C61 2.165 1_655 S
C585 C416 2.408 1_655 S
C603 C293 0.376 . S
C599 C211 0.362 . S
C621 C333 0.401 . S
C617 C247 0.363 . S
C639 C373 0.366 . S
C635 C253 0.375 . S
C653 C175 0.384 . S
C657 C413 0.410 . S
C671 C67 0.420 1_655 S
C675 C303 0.385 . S
C693 C343 0.380 . S
C689 C103 0.417 1_565 S
C711 C383 0.397 . S
C707 C109 0.355 . S
C725 C31 0.443 . S
C729 C423 0.394 . S
C743 C181 2.848 . S
C747 C297 3.183 . S
C761 C217 2.805 . S
C765 C337 3.148 . S
C783 C377 3.149 . S
C779 C283 2.744 . S
C801 C417 3.167 . S
C797 C145 2.820 . S
C815 C37 2.842 1_655 S
C819 C307 3.192 . S
C837 C347 3.149 . S
C833 C73 2.808 1_565 S
C855 C387 3.148 . S
C851 C139 2.715 . S
C869 C1 2.834 . S
C873 C427 3.173 . S
