# Generated by pormake.
# Topology ssa, (4,4)-cn, num edge types: 1
# Building blocks:
#     Node 0, Type 0, BuildingBlock: GIZVER_clean_linker_0, # of connection points: 4
#     Node 1, Type 0, BuildingBlock: GIZVER_clean_linker_0, # of connection points: 4
#     Node 2, Type 0, BuildingBlock: GIZVER_clean_linker_0, # of connection points: 4
#     Node 3, Type 0, BuildingBlock: GIZVER_clean_linker_0, # of connection points: 4
#     Node 4, Type 0, BuildingBlock: GIZVER_clean_linker_0, # of connection points: 4
#     Node 5, Type 0, BuildingBlock: GIZVER_clean_linker_0, # of connection points: 4
#     Node 6, Type 1, BuildingBlock: MUDLON_clean_sbu_0, # of connection points: 4
#     Node 7, Type 1, BuildingBlock: MUDLON_clean_sbu_0, # of connection points: 4
#     Node 8, Type 1, BuildingBlock: MUDLON_clean_sbu_0, # of connection points: 4
#     Node 9, Type 1, BuildingBlock: MUDLON_clean_sbu_0, # of connection points: 4
#     Node 10, Type 1, BuildingBlock: MUDLON_clean_sbu_0, # of connection points: 4
#     Node 11, Type 1, BuildingBlock: MUDLON_clean_sbu_0, # of connection points: 4
#     Edge 12, Type (0, 1), BuildingBlock: EZIPEK_clean_linker_0, # of connection points: 2
#     Edge 13, Type (0, 1), BuildingBlock: EZIPEK_clean_linker_0, # of connection points: 2
#     Edge 14, Type (0, 1), BuildingBlock: EZIPEK_clean_linker_0, # of connection points: 2
#     Edge 15, Type (0, 1), BuildingBlock: EZIPEK_clean_linker_0, # of connection points: 2
#     Edge 16, Type (0, 1), BuildingBlock: EZIPEK_clean_linker_0, # of connection points: 2
#     Edge 17, Type (0, 1), BuildingBlock: EZIPEK_clean_linker_0, # of connection points: 2
#     Edge 18, Type (0, 1), BuildingBlock: EZIPEK_clean_linker_0, # of connection points: 2
#     Edge 19, Type (0, 1), BuildingBlock: EZIPEK_clean_linker_0, # of connection points: 2
#     Edge 20, Type (0, 1), BuildingBlock: EZIPEK_clean_linker_0, # of connection points: 2
#     Edge 21, Type (0, 1), BuildingBlock: EZIPEK_clean_linker_0, # of connection points: 2
#     Edge 22, Type (0, 1), BuildingBlock: EZIPEK_clean_linker_0, # of connection points: 2
#     Edge 23, Type (0, 1), BuildingBlock: EZIPEK_clean_linker_0, # of connection points: 2
#     Edge 24, Type (0, 1), BuildingBlock: EZIPEK_clean_linker_0, # of connection points: 2
#     Edge 25, Type (0, 1), BuildingBlock: EZIPEK_clean_linker_0, # of connection points: 2
#     Edge 26, Type (0, 1), BuildingBlock: EZIPEK_clean_linker_0, # of connection points: 2
#     Edge 27, Type (0, 1), BuildingBlock: EZIPEK_clean_linker_0, # of connection points: 2
#     Edge 28, Type (0, 1), BuildingBlock: EZIPEK_clean_linker_0, # of connection points: 2
#     Edge 29, Type (0, 1), BuildingBlock: EZIPEK_clean_linker_0, # of connection points: 2
#     Edge 30, Type (0, 1), BuildingBlock: EZIPEK_clean_linker_0, # of connection points: 2
#     Edge 31, Type (0, 1), BuildingBlock: EZIPEK_clean_linker_0, # of connection points: 2
#     Edge 32, Type (0, 1), BuildingBlock: EZIPEK_clean_linker_0, # of connection points: 2
#     Edge 33, Type (0, 1), BuildingBlock: EZIPEK_clean_linker_0, # of connection points: 2
#     Edge 34, Type (0, 1), BuildingBlock: EZIPEK_clean_linker_0, # of connection points: 2
#     Edge 35, Type (0, 1), BuildingBlock: EZIPEK_clean_linker_0, # of connection points: 2
# Relax obj value: 0.001
# Max RMSD: 0.030
# Mean RMSD: 0.018
data_MOF--net-ssa--node1-MUDLON_clean_sbu_0--node2-GIZVER_clean_linker_0--edge1-EZIPEK_clean_linker_0
_symmetry_space_group_name_H-M    P1
_symmetry_Int_Tables_number       1
_symmetry_cell_setting            triclinic
loop_
_symmetry_equiv_pos_as_xyz
'x, y, z'
_cell_length_a     33.086072
_cell_length_b     32.983057
_cell_length_c     30.520622
_cell_angle_alpha  90.148406
_cell_angle_beta   89.6737
_cell_angle_gamma 119.64888
loop_
_atom_site_label
_atom_site_type_symbol
_atom_site_fract_x
_atom_site_fract_y
_atom_site_fract_z
_atom_type_partial_charge
H0 H 0.10032 0.61055 0.03458 0.0
H1 H 0.09191 0.47559 0.0411 0.0
H2 H 0.13621 0.56622 0.15303 0.0
H3 H 0.09623 0.56937 0.96753 0.0
H4 H 0.10598 0.52104 0.96921 0.0
H5 H 0.01736 0.5577 0.96492 0.0
H6 H 0.91087 0.42234 0.92326 0.0
H7 H 0.04043 0.44 0.97142 0.0
C8 C 0.10305 0.5839 0.05285 0.0
C9 C 0.11874 0.59274 0.09644 0.0
C10 C 0.09315 0.54143 0.03239 0.0
C11 C 0.09818 0.5078 0.05653 0.0
C12 C 0.11375 0.51698 0.10001 0.0
C13 C 0.12364 0.55911 0.11955 0.0
C14 C 0.08436 0.53502 0.98359 0.0
C15 C 0.03393 0.50227 0.97206 0.0
C16 C 1.00466 0.52059 0.96172 0.0
C17 C 0.96025 0.4917 0.94423 0.0
C18 C 0.9445 0.44419 0.93826 0.0
C19 C 0.97323 0.42542 0.94778 0.0
C20 C 0.01764 0.45425 0.96551 0.0
H21 H 0.59496 0.98961 0.60664 0.0
H22 H 0.48256 0.01924 0.62443 0.0
H23 H 0.61919 0.11514 0.67178 0.0
H24 H 0.51116 0.92592 0.61034 0.0
H25 H 0.46582 0.93994 0.61187 0.0
H26 H 0.55936 0.94103 0.53971 0.0
H27 H 0.47417 0.90646 0.42519 0.0
H28 H 0.42619 0.9355 0.54573 0.0
C29 C 0.5824 0.01294 0.61673 0.0
C30 C 0.61277 0.05487 0.63812 0.0
C31 C 0.53513 0.99977 0.61115 0.0
C32 C 0.51911 0.02972 0.62677 0.0
C33 C 0.54937 0.0712 0.64903 0.0
C34 C 0.59607 0.08371 0.65379 0.0
C35 C 0.5004 0.95048 0.59697 0.0
C36 C 0.49546 0.94361 0.54772 0.0
C37 C 0.52885 0.93787 0.52358 0.0
C38 C 0.52042 0.92345 0.47961 0.0
C39 C 0.48055 0.91799 0.45909 0.0
C40 C 0.44602 0.9213 0.48258 0.0
C41 C 0.45363 0.9346 0.52696 0.0
H42 H 0.53328 0.55465 0.12694 0.0
H43 H 0.43454 0.4075 0.13641 0.0
H44 H 0.40203 0.50781 0.19202 0.0
H45 H 0.55685 0.49134 0.12929 0.0
H46 H 0.5144 0.43252 0.11922 0.0
H47 H 0.59663 0.54432 0.0692 0.0
H48 H 0.57942 0.48024 0.94281 0.0
H49 H 0.47858 0.40812 0.04403 0.0
C50 C 0.49911 0.52649 0.13595 0.0
C51 C 0.46841 0.53659 0.15938 0.0
C52 C 0.48718 0.47996 0.12694 0.0
C53 C 0.44355 0.44355 0.14135 0.0
C54 C 0.41276 0.45358 0.1648 0.0
C55 C 0.42524 0.50006 0.1731 0.0
C56 C 0.5243 0.46911 0.11083 0.0
C57 C 0.53498 0.47632 0.06205 0.0
C58 C 0.57584 0.5161 0.04683 0.0
C59 C 0.59221 0.51737 1.00382 0.0
C60 C 0.56641 0.47992 0.97563 0.0
C61 C 0.52541 0.44095 0.98959 0.0
C62 C 0.50923 0.43935 0.03263 0.0
H63 H 0.03 0.62228 0.61018 0.0
H64 H 0.00721 0.48161 0.61174 0.0
H65 H 0.91213 0.51396 0.67844 0.0
H66 H 0.0938 0.60728 0.59445 0.0
H67 H 0.08633 0.55057 0.60163 0.0
H68 H 0.07538 0.63079 0.52395 0.0
H69 H 0.09312 0.56144 0.41227 0.0
H70 H 0.07009 0.49848 0.53972 0.0
C71 C 0.00867 0.58575 0.61865 0.0
C72 C 0.96857 0.57148 0.64453 0.0
C73 C 0.02277 0.5533 0.60627 0.0
C74 C 0.9957 0.50641 0.61939 0.0
C75 C 0.95581 0.4923 0.64537 0.0
C76 C 0.94222 0.52473 0.65728 0.0
C77 C 0.07036 0.56987 0.58636 0.0
C78 C 0.06955 0.5638 0.53712 0.0
C79 C 0.07451 0.60022 0.5097 0.0
C80 C 0.08296 0.59954 0.46464 0.0
C81 C 0.08459 0.56107 0.44668 0.0
C82 C 0.08072 0.52487 0.4736 0.0
C83 C 0.07171 0.52565 0.51865 0.0
H84 H 0.5309 0.9501 1.03163 0.0
H85 H 0.40357 0.95537 0.0433 0.0
H86 H 0.45929 0.92156 0.15535 0.0
H87 H 0.48644 0.94303 0.96691 0.0
H88 H 0.42835 0.93179 0.97256 0.0
H89 H 0.5506 0.02233 0.95412 0.0
H90 H 0.51238 0.11948 0.9022 0.0
H91 H 0.40946 0.99535 0.96745 0.0
C92 C 0.50293 0.94851 0.05155 0.0
C93 C 0.49995 0.93637 0.09612 0.0
C94 C 0.46793 0.95496 1.03201 0.0
C95 C 0.43123 0.95163 0.05815 0.0
C96 C 0.42779 0.9392 0.10257 0.0
C97 C 0.46244 0.93212 0.1213 0.0
C98 C 0.46478 0.95627 0.98262 0.0
C99 C 0.47887 0.00418 0.96465 0.0
C100 C 0.52479 0.03314 0.94988 0.0
C101 C 0.53688 0.07469 0.92734 0.0
C102 C 0.50322 0.08788 0.92048 0.0
C103 C 0.45726 0.05939 0.93468 0.0
C104 C 0.44524 0.01788 0.95741 0.0
H105 H 0.62498 0.55093 0.55187 0.0
H106 H 0.49859 0.42376 0.52114 0.0
H107 H 0.55328 0.44825 0.65176 0.0
H108 H 0.60925 0.51381 0.4771 0.0
H109 H 0.5528 0.46828 0.46331 0.0
H110 H 0.6305 0.59051 0.45372 0.0
H111 H 0.52642 0.61538 0.39648 0.0
H112 H 0.4851 0.48744 0.46556 0.0
C113 C 0.59469 0.51881 0.56228 0.0
C114 C 0.59181 0.5035 0.60572 0.0
C115 C 0.56115 0.49036 0.53124 0.0
C116 C 0.52341 0.44712 0.54495 0.0
C117 C 0.52045 0.43196 0.58858 0.0
C118 C 0.55437 0.46069 0.61864 0.0
C119 C 0.57157 0.50094 0.48278 0.0
C120 C 0.55905 0.53606 0.46465 0.0
C121 C 0.59417 0.57992 0.44904 0.0
C122 C 0.58239 0.60879 0.42475 0.0
C123 C 0.53555 0.59405 0.41662 0.0
C124 C 0.50052 0.55057 0.43125 0.0
C125 C 0.51218 0.52195 0.45589 0.0
Mg126 Mg 0.2332 0.44648 0.31007 0.0
C127 C 0.17202 0.44138 0.23699 0.0
O128 O 0.14567 0.40173 0.25737 0.0
C129 C 0.31425 0.47939 0.36489 0.0
O130 O 0.2847 0.43783 0.38017 0.0
C131 C 0.14685 0.41894 0.37587 0.0
O132 O 0.12533 0.37569 0.36168 0.0
O133 O 0.18743 0.44752 0.3618 0.0
O134 O 0.2127 0.46867 0.25139 0.0
O135 O 0.24938 0.39148 0.29186 0.0
C136 C 0.2441 0.37658 0.25256 0.0
O137 O 0.21367 0.38074 0.22853 0.0
O138 O 0.30164 0.49637 0.33388 0.0
Mg139 Mg 0.79591 0.23312 0.78509 0.0
C140 C 0.78155 0.1698 0.70842 0.0
O141 O 0.79526 0.20975 0.68849 0.0
C142 C 0.86752 0.25288 0.86413 0.0
O143 O 0.85222 0.20836 0.87126 0.0
C144 C 0.71967 0.18103 0.84866 0.0
O145 O 0.75001 0.16833 0.85998 0.0
O146 O 0.72975 0.21065 0.81802 0.0
O147 O 0.78378 0.17035 0.75004 0.0
O148 O 0.81576 0.29116 0.74003 0.0
C149 C 0.85824 0.31091 0.72815 0.0
O150 O 0.88412 0.29321 0.74093 0.0
O151 O 0.85089 0.26598 0.8334 0.0
Mg152 Mg 0.60848 0.81033 0.2668 0.0
C153 C 0.58615 0.86572 0.20827 0.0
O154 O 0.5547 0.85074 0.23959 0.0
C155 C 0.63291 0.76232 0.32687 0.0
O156 O 0.59129 0.75597 0.33559 0.0
C157 C 0.56084 0.83146 0.34531 0.0
O158 O 0.52356 0.79172 0.33581 0.0
O159 O 0.59752 0.84526 0.32256 0.0
O160 O 0.61854 0.85535 0.20998 0.0
O161 O 0.55741 0.73981 0.24708 0.0
C162 C 0.5254 0.72484 0.21855 0.0
O163 O 0.51326 0.75345 0.20084 0.0
O164 O 0.65616 0.7897 0.29545 0.0
Mg165 Mg 0.7952 0.59335 0.81417 0.0
C166 C 0.73506 0.58366 0.7381 0.0
O167 O 0.7648 0.62864 0.73775 0.0
C168 C 0.84902 0.56725 0.87402 0.0
O169 O 0.86067 0.60945 0.88755 0.0
C170 C 0.7414 0.58521 0.89205 0.0
O171 O 0.7358 0.54354 0.88441 0.0
O172 O 0.76867 0.61882 0.86723 0.0
O173 O 0.73843 0.55814 0.7675 0.0
O174 O 0.8551 0.63892 0.77333 0.0
C175 C 0.86032 0.61237 0.74623 0.0
O176 O 0.83079 0.56739 0.74769 0.0
O177 O 0.81898 0.54866 0.84376 0.0
Mg178 Mg 0.22142 0.8071 0.29193 0.0
C179 C 0.18145 0.74642 0.21676 0.0
O180 O 0.16588 0.77609 0.21498 0.0
C181 C 0.30152 0.86451 0.35477 0.0
O182 O 0.30416 0.89867 0.3307 0.0
C183 C 0.15438 0.77182 0.36619 0.0
O184 O 0.19011 0.80494 0.38702 0.0
O185 O 0.15356 0.77458 0.32463 0.0
O186 O 0.20883 0.75014 0.24771 0.0
O187 O 0.25089 0.86544 0.24546 0.0
C188 C 0.28873 0.8691 0.23075 0.0
O189 O 0.30312 0.84153 0.24673 0.0
O190 O 0.27168 0.82277 0.3448 0.0
Mg191 Mg 0.44718 0.23871 0.77836 0.0
C192 C 0.50535 0.19074 0.75452 0.0
O193 O 0.51239 0.19106 0.79683 0.0
C194 C 0.45765 0.29737 0.85605 0.0
O195 O 0.41261 0.26855 0.85427 0.0
C196 C 0.4163 0.17335 0.85025 0.0
O197 O 0.45913 0.20591 0.85823 0.0
O198 O 0.39682 0.17726 0.81582 0.0
O199 O 0.48405 0.21093 0.7396 0.0
O200 O 0.42934 0.27528 0.72916 0.0
C201 C 0.42487 0.26391 0.68886 0.0
O202 O 0.41637 0.22186 0.67796 0.0
O203 O 0.48402 0.29361 0.82755 0.0
C204 C 0.09233 0.46201 0.16204 0.0
C205 C 0.12261 0.48466 0.12644 0.0
C206 C 0.1807 0.46833 0.15858 0.0
C207 C 0.15406 0.45402 0.19796 0.0
N208 N 0.08678 0.44366 0.23909 0.0
N209 N 0.19653 0.51141 0.09053 0.0
C210 C 0.11 0.45172 0.20005 0.0
C211 C 0.16682 0.48773 0.12423 0.0
N212 N 0.04706 0.45187 0.1598 0.0
N213 N 0.21865 0.46262 0.15357 0.0
H214 H 0.18682 0.52443 0.06393 0.0
H215 H 0.23143 0.52027 0.0901 0.0
H216 H 0.23001 0.44849 0.17779 0.0
H217 H 0.23638 0.46792 0.12395 0.0
H218 H 0.02205 0.43181 0.18317 0.0
H219 H 0.03372 0.45959 0.13211 0.0
H220 H 0.05683 0.44619 0.24317 0.0
H221 H 0.09993 0.43947 0.2686 0.0
C222 C 0.67166 0.05821 0.69125 0.0
C223 C 0.66155 0.06817 0.64877 0.0
C224 C 0.74323 0.12755 0.63893 0.0
C225 C 0.74972 0.12555 0.68454 0.0
N226 N 0.73101 0.07334 0.74558 0.0
N227 N 0.68815 0.10634 0.57909 0.0
C228 C 0.71739 0.08555 0.70811 0.0
C229 C 0.69792 0.10011 0.62113 0.0
N230 N 0.63677 0.02489 0.71632 0.0
N231 N 0.78067 0.15533 0.61317 0.0
H232 H 0.65551 0.08534 0.56518 0.0
H233 H 0.71162 0.13274 0.55855 0.0
H234 H 0.81423 0.17327 0.62604 0.0
H235 H 0.7794 0.15687 0.57919 0.0
H236 H 0.6403 0.0198 0.74941 0.0
H237 H 0.60345 1.00327 0.70405 0.0
H238 H 0.70992 0.04309 0.76325 0.0
H239 H 0.76562 0.0908 0.75571 0.0
C240 C 0.48734 0.6191 0.14282 0.0
C241 C 0.48276 0.58506 0.17368 0.0
C242 C 0.49561 0.6399 0.23337 0.0
C243 C 0.50642 0.676 0.20245 0.0
N244 N 0.52323 0.70132 0.12669 0.0
N245 N 0.49385 0.56706 0.24771 0.0
C246 C 0.5049 0.66605 0.15678 0.0
C247 C 0.49012 0.59658 0.21883 0.0
N248 N 0.47448 0.60666 0.10027 0.0
N249 N 0.48921 0.64638 0.27656 0.0
H250 H 0.49115 0.53539 0.23826 0.0
H251 H 0.50436 0.57631 0.28006 0.0
H252 H 0.49072 0.67685 0.28826 0.0
H253 H 0.4773 0.61966 0.2997 0.0
H254 H 0.4725 0.6291 0.0775 0.0
H255 H 0.46186 0.57271 0.08875 0.0
H256 H 0.52712 0.69593 0.09364 0.0
H257 H 0.53939 0.73643 0.13509 0.0
C258 C 0.97013 0.6233 0.70546 0.0
C259 C 0.95496 0.60489 0.66283 0.0
C260 C 0.8883 0.61742 0.6699 0.0
C261 C 0.89951 0.62866 0.71465 0.0
N262 N 0.9582 0.6596 0.77014 0.0
N263 N 0.90949 0.59801 0.59947 0.0
C264 C 0.94337 0.63815 0.73053 0.0
C265 C 0.91758 0.60727 0.64316 0.0
N266 N 0.00796 0.62312 0.72294 0.0
N267 N 0.84796 0.61361 0.65429 0.0
H268 H 0.93096 0.59053 0.57989 0.0
H269 H 0.88415 0.60099 0.58207 0.0
H270 H 0.82751 0.62296 0.67332 0.0
H271 H 0.83446 0.60088 0.62339 0.0
H272 H 0.0178 0.63065 0.75558 0.0
H273 H 0.02888 0.61383 0.70467 0.0
H274 H 0.99105 0.67013 0.78284 0.0
H275 H 0.93868 0.6705 0.78857 0.0
C276 C 0.39149 0.95779 0.16648 0.0
C277 C 0.3861 0.92941 0.12944 0.0
C278 C 0.30525 0.87667 0.15129 0.0
C279 C 0.31441 0.89859 0.19265 0.0
N280 N 0.36371 0.96262 0.23921 0.0
N281 N 0.33775 0.85962 0.08745 0.0
C282 C 0.35658 0.94056 0.19979 0.0
C283 C 0.34256 0.88877 0.1214 0.0
N284 N 0.43008 1.00092 0.16968 0.0
N285 N 0.26088 0.8435 0.14126 0.0
H286 H 0.36435 0.86617 0.06528 0.0
H287 H 0.30847 0.82691 0.08333 0.0
H288 H 0.23333 0.83501 0.16292 0.0
H289 H 0.2509 0.8284 0.11035 0.0
H290 H 0.43472 0.02485 0.19416 0.0
H291 H 0.45584 0.01427 0.14546 0.0
H292 H 0.39561 0.99012 0.24913 0.0
H293 H 0.33713 0.95222 0.26242 0.0
C294 C 0.44727 0.37405 0.62797 0.0
C295 C 0.48712 0.38332 0.60282 0.0
C296 C 0.48329 0.3118 0.63034 0.0
C297 C 0.44293 0.30189 0.6554 0.0
N298 N 0.38084 0.31802 0.67084 0.0
N299 N 0.53498 0.35508 0.5704 0.0
C300 C 0.42303 0.33128 0.65177 0.0
C301 C 0.50193 0.34979 0.60044 0.0
N302 N 0.43383 0.40705 0.63038 0.0
N303 N 0.50663 0.28793 0.63784 0.0
H304 H 0.55026 0.38317 0.54875 0.0
H305 H 0.54377 0.32934 0.56401 0.0
H306 H 0.49646 0.26156 0.66104 0.0
H307 H 0.53908 0.29748 0.62425 0.0
H308 H 0.40866 0.40529 0.65212 0.0
H309 H 0.44959 0.43748 0.61159 0.0
H310 H 0.3624 0.33569 0.66638 0.0
H311 H 0.36237 0.28685 0.68822 0.0
C312 C 0.53658 0.85915 0.45984 0.0
C313 C 0.54781 0.90637 0.45483 0.0
C314 C 0.57397 0.90688 0.37961 0.0
C315 C 0.56115 0.85904 0.38401 0.0
N316 N 0.54611 0.79535 0.43245 0.0
N317 N 0.5903 0.97884 0.41646 0.0
C318 C 0.54762 0.83701 0.42555 0.0
C319 C 0.57166 0.93154 0.41694 0.0
N320 N 0.5125 0.83446 0.49597 0.0
N321 N 0.58483 0.92782 0.33936 0.0
H322 H 0.58825 0.99697 0.44373 0.0
H323 H 0.61137 1.0001 0.3912 0.0
H324 H 0.58529 0.91074 0.3108 0.0
H325 H 0.5896 0.96101 0.33358 0.0
H326 H 0.49777 0.79839 0.49855 0.0
H327 H 0.50517 0.84969 0.52254 0.0
H328 H 0.5407 0.77983 0.46321 0.0
H329 H 0.55515 0.77877 0.40833 0.0
C330 C 0.63859 0.58106 0.95055 0.0
C331 C 0.63829 0.55468 0.98729 0.0
C332 C 0.7188 0.5756 0.97044 0.0
C333 C 0.71392 0.59021 0.92826 0.0
N334 N 0.67123 0.61159 0.87866 0.0
N335 N 0.67962 0.52885 0.03426 0.0
C336 C 0.67502 0.59577 0.91888 0.0
C337 C 0.6794 0.55376 0.99868 0.0
N338 N 0.60287 0.59014 0.94547 0.0
N339 N 0.7611 0.58183 0.98271 0.0
H340 H 0.65189 0.51313 0.05622 0.0
H341 H 0.70645 0.52192 0.04089 0.0
H342 H 0.79021 0.59853 0.96224 0.0
H343 H 0.76832 0.57506 1.01416 0.0
H344 H 0.60209 0.61179 0.92112 0.0
H345 H 0.576 0.57914 0.9685 0.0
H346 H 0.64121 0.61102 0.86773 0.0
H347 H 0.69791 0.62388 0.85543 0.0
C348 C 0.14548 0.66578 0.42173 0.0
C349 C 0.09913 0.64273 0.43786 0.0
C350 C 0.0871 0.70431 0.40554 0.0
C351 C 0.13211 0.7246 0.38646 0.0
N352 N 0.19759 0.71546 0.36541 0.0
N353 N 0.02307 0.63577 0.43949 0.0
C354 C 0.1592 0.7024 0.39111 0.0
C355 C 0.069 0.66075 0.42813 0.0
N356 N 0.17732 0.65441 0.43721 0.0
N357 N 0.06215 0.72703 0.40276 0.0
H358 H 0.00888 0.60383 0.4558 0.0
H359 H 0.99843 0.64479 0.42979 0.0
H360 H 0.07394 0.75793 0.38506 0.0
H361 H 0.03126 0.71676 0.41988 0.0
H362 H 0.21264 0.67351 0.42956 0.0
H363 H 0.1697 0.62944 0.4615 0.0
H364 H 0.21625 0.69763 0.36492 0.0
H365 H 0.20709 0.74015 0.34064 0.0
C366 C 0.42107 0.10939 0.94598 0.0
C367 C 0.4223 0.07313 0.92221 0.0
C368 C 0.38463 0.0876 0.85996 0.0
C369 C 0.3965 0.13124 0.87876 0.0
N370 N 0.40902 0.17664 0.94366 0.0
N371 N 0.39675 0.02055 0.86082 0.0
C372 C 0.40798 0.139 0.92377 0.0
C373 C 0.40012 0.05915 0.88087 0.0
N374 N 0.43493 0.11655 0.98872 0.0
N375 N 0.35978 0.0744 0.82203 0.0
H376 H 0.40704 0.99891 0.87614 0.0
H377 H 0.38429 0.01004 0.82923 0.0
H378 H 0.3468 0.09439 0.80796 0.0
H379 H 0.34834 0.04226 0.80695 0.0
H380 H 0.43602 0.14279 1.00845 0.0
H381 H 0.44389 0.09434 1.00503 0.0
H382 H 0.41876 0.18652 0.97597 0.0
H383 H 0.39852 0.19755 0.92711 0.0
C384 C 0.442 0.5153 0.37119 0.0
C385 C 0.45251 0.53272 0.41468 0.0
C386 C 0.37269 0.51781 0.42478 0.0
C387 C 0.36289 0.50256 0.38057 0.0
N388 N 0.3894 0.49281 0.30953 0.0
N389 N 0.43106 0.55703 0.48109 0.0
C390 C 0.39804 0.50346 0.35303 0.0
C391 C 0.41872 0.5358 0.44104 0.0
N392 N 0.47345 0.50822 0.34791 0.0
N393 N 0.33774 0.51453 0.45132 0.0
H394 H 0.46415 0.56952 0.4943 0.0
H395 H 0.40974 0.56507 0.50007 0.0
H396 H 0.30446 0.50451 0.43981 0.0
H397 H 0.34091 0.51959 0.48508 0.0
H398 H 0.46614 0.49084 0.31802 0.0
H399 H 0.5061 0.51652 0.35993 0.0
H400 H 0.41513 0.49852 0.28671 0.0
H401 H 0.35702 0.48123 0.2952 0.0
C402 C 0.96978 0.36938 0.89022 0.0
C403 C 0.95768 0.37692 0.93297 0.0
C404 C 0.89308 0.29638 0.9357 0.0
C405 C 0.9037 0.28973 0.89203 0.0
N406 N 0.95926 0.31363 0.8331 0.0
N407 N 0.9174 0.34532 1.00085 0.0
C408 C 0.94476 0.32422 0.87128 0.0
C409 C 0.92269 0.33932 0.95732 0.0
N410 N 1.00291 0.40606 0.86659 0.0
N411 N 0.853 0.26329 0.95524 0.0
H412 H 0.93876 0.3767 1.01697 0.0
H413 H 0.89511 0.3184 1.02161 0.0
H414 H 0.8309 0.2312 0.94076 0.0
H415 H 0.84033 0.26848 0.98477 0.0
H416 H 0.00894 0.40417 0.83332 0.0
H417 H 0.02289 0.43938 0.87969 0.0
H418 H 0.99089 0.33582 0.81793 0.0
H419 H 0.94141 0.28054 0.81891 0.0
C420 C 0.93411 0.52106 0.88077 0.0
C421 C 0.93211 0.51165 0.92639 0.0
C422 C 0.8699 0.53106 0.93566 0.0
C423 C 0.87478 0.54441 0.89093 0.0
N424 N 0.91512 0.55765 0.82177 0.0
N425 N 0.90197 0.51162 0.99839 0.0
C426 C 0.90762 0.54057 0.86359 0.0
C427 C 0.90113 0.51787 0.9542 0.0
N428 N 0.96097 0.5108 0.85372 0.0
N429 N 0.83415 0.52927 0.95984 0.0
H430 H 0.92346 0.50068 1.01284 0.0
H431 H 0.88393 0.52035 1.02108 0.0
H432 H 0.80997 0.53735 0.94667 0.0
H433 H 0.82573 0.51579 0.99146 0.0
H434 H 0.9592 0.5109 0.81967 0.0
H435 H 0.9832 0.49926 0.86515 0.0
H436 H 0.94237 0.56121 0.80191 0.0
H437 H 0.896 0.57149 0.80771 0.0
C438 C 0.37884 0.8571 0.44369 0.0
C439 C 0.40008 0.90314 0.4606 0.0
C440 C 0.34437 0.916 0.4192 0.0
C441 C 0.33225 0.87518 0.39385 0.0
N442 N 0.34569 0.81031 0.37922 0.0
N443 N 0.40433 0.97824 0.46231 0.0
C444 C 0.35087 0.84603 0.40571 0.0
C445 C 0.38292 0.93308 0.44818 0.0
N446 N 0.38698 0.82456 0.46305 0.0
N447 N 0.31819 0.93747 0.417 0.0
H448 H 0.43229 0.99184 0.4839 0.0
H449 H 0.39617 1.00281 0.45015 0.0
H450 H 0.28741 0.92382 0.39917 0.0
H451 H 0.32375 0.96522 0.43729 0.0
H452 H 0.3696 0.78948 0.45401 0.0
H453 H 0.40729 0.83192 0.49117 0.0
H454 H 0.36242 0.79115 0.38515 0.0
H455 H 0.32982 0.8033 0.34868 0.0
C456 C 0.5163 0.36597 0.95982 0.0
C457 C 0.50283 0.40068 0.95892 0.0
C458 C 0.46013 0.36787 0.89047 0.0
C459 C 0.47599 0.33483 0.8899 0.0
N460 N 0.52328 0.30537 0.92108 0.0
N461 N 0.46488 0.43749 0.92301 0.0
C462 C 0.50525 0.33471 0.92377 0.0
C463 C 0.47521 0.40214 0.92426 0.0
N464 N 0.53939 0.36274 0.99552 0.0
N465 N 0.43082 0.36663 0.85837 0.0
H466 H 0.47304 0.46144 0.94847 0.0
H467 H 0.45005 0.4446 0.89625 0.0
H468 H 0.42293 0.34565 0.83057 0.0
H469 H 0.413 0.3852 0.85966 0.0
H470 H 0.54585 0.33533 1.00087 0.0
H471 H 0.54921 0.38578 1.02189 0.0
H472 H 0.54882 0.30691 0.94185 0.0
H473 H 0.51537 0.28134 0.89591 0.0
C474 C 0.13665 0.49395 0.46446 0.0
C475 C 0.09296 0.49031 0.45487 0.0
C476 C 0.08079 0.43416 0.39621 0.0
C477 C 0.12396 0.43685 0.40671 0.0
N478 N 0.18559 0.45858 0.45896 0.0
N479 N 0.01865 0.4486 0.41945 0.0
C480 C 0.14939 0.46324 0.44359 0.0
C481 C 0.06341 0.45747 0.42337 0.0
N482 N 0.16739 0.52859 0.49136 0.0
N483 N 0.0578 0.41227 0.35878 0.0
H484 H 1.00511 0.46522 0.43885 0.0
H485 H 0.99389 0.42179 0.40018 0.0
H486 H 0.0689 0.39491 0.33764 0.0
H487 H 0.02951 0.4144 0.34676 0.0
H488 H 0.20171 0.53624 0.49527 0.0
H489 H 0.16013 0.55243 0.50695 0.0
H490 H 0.20278 0.47359 0.48812 0.0
H491 H 0.19511 0.43557 0.44501 0.0
C492 C 0.58981 0.09733 0.86168 0.0
C493 C 0.58378 0.10258 0.9071 0.0
C494 C 0.66558 0.16406 0.91242 0.0
C495 C 0.67231 0.15628 0.8679 0.0
N496 N 0.6433 0.1117 0.80132 0.0
N497 N 0.61571 0.13767 0.97696 0.0
C498 C 0.63501 0.12212 0.84269 0.0
C499 C 0.62167 0.13506 0.93286 0.0
N500 N 0.55217 0.06882 0.83657 0.0
N501 N 0.70089 0.20015 0.93466 0.0
H502 H 0.58363 0.11839 0.99264 0.0
H503 H 0.64283 0.15671 0.99859 0.0
H504 H 0.73341 0.22191 0.92061 0.0
H505 H 0.69722 0.21095 0.96576 0.0
H506 H 0.55316 0.06823 0.80253 0.0
H507 H 0.51895 0.04765 0.84946 0.0
H508 H 0.61901 0.08354 0.78306 0.0
H509 H 0.67578 0.12919 0.78603 0.0
C510 C 0.62571 0.65099 0.35695 0.0
C511 C 0.61783 0.65234 0.4026 0.0
C512 C 0.64714 0.73644 0.39832 0.0
C513 C 0.64767 0.73341 0.35199 0.0
N514 N 0.65364 0.69394 0.28836 0.0
N515 N 0.63324 0.69688 0.46878 0.0
C516 C 0.64311 0.69274 0.3318 0.0
C517 C 0.63345 0.69562 0.42405 0.0
N518 N 0.6134 0.6091 0.33754 0.0
N519 N 0.65658 0.77789 0.41697 0.0
H520 H 0.62306 0.66703 0.48771 0.0
H521 H 0.6459 0.72733 0.48713 0.0
H522 H 0.66821 0.80817 0.39825 0.0
H523 H 0.65259 0.78245 0.45012 0.0
H524 H 0.61287 0.60411 0.30384 0.0
H525 H 0.60244 0.57861 0.35569 0.0
H526 H 0.65344 0.66636 0.27155 0.0
H527 H 0.66667 0.72451 0.26998 0.0
C528 C 0.54758 0.14609 0.65861 0.0
C529 C 0.5323 0.09962 0.67244 0.0
C530 C 0.49287 0.11122 0.73547 0.0
C531 C 0.51394 0.1595 0.72533 0.0
N532 N 0.56491 0.22421 0.67914 0.0
N533 N 0.49563 0.03965 0.72764 0.0
C534 C 0.54197 0.17729 0.68713 0.0
C535 C 0.50613 0.08251 0.71174 0.0
N536 N 0.56696 0.16009 0.61792 0.0
N537 N 0.4587 0.09224 0.76665 0.0
H538 H 0.50513 0.01752 0.71188 0.0
H539 H 0.48085 0.02752 0.75842 0.0
H540 H 0.44687 0.11165 0.78393 0.0
H541 H 0.43855 0.05647 0.77185 0.0
H542 H 0.57479 0.19198 0.60407 0.0
H543 H 0.57123 0.13789 0.59632 0.0
H544 H 0.58962 0.23992 0.65437 0.0
H545 H 0.56212 0.24813 0.69955 0.0
C546 C 0.32675 0.39741 0.16066 0.0
C547 C 0.36871 0.41626 0.18466 0.0
C548 C 0.32413 0.38322 0.25264 0.0
C549 C 0.28309 0.37354 0.22975 0.0
N550 N 0.24322 0.34534 0.16129 0.0
N551 N 0.40864 0.41785 0.25077 0.0
C552 C 0.28368 0.37208 0.18332 0.0
C553 C 0.36772 0.40545 0.22987 0.0
N554 N 0.32801 0.40592 0.11677 0.0
N555 N 0.32076 0.37023 0.29554 0.0
H556 H 0.4405 0.43303 0.23426 0.0
H557 H 0.41151 0.41301 0.28399 0.0
H558 H 0.28855 0.34923 0.3105 0.0
H559 H 0.34881 0.37679 0.31532 0.0
H560 H 0.2985 0.39804 0.09854 0.0
H561 H 0.35907 0.42294 0.09904 0.0
H562 H 0.24161 0.3403 0.12751 0.0
H563 H 0.2122 0.32355 0.17783 0.0
C564 C 0.89388 0.40768 0.64311 0.0
C565 C 0.93126 0.44512 0.66543 0.0
C566 C 0.91538 0.39618 0.73065 0.0
C567 C 0.88089 0.35746 0.707 0.0
N568 N 0.83976 0.32443 0.63972 0.0
N569 N 0.98186 0.47427 0.72812 0.0
C570 C 0.87059 0.3627 0.66298 0.0
C571 C 0.94326 0.43911 0.70855 0.0
N572 N 0.88006 0.41549 0.6034 0.0
N573 N 0.9201 0.39242 0.77475 0.0
H574 H 1.00271 0.50664 0.7134 0.0
H575 H 0.99545 0.47027 0.75743 0.0
H576 H 0.89968 0.36182 0.79237 0.0
H577 H 0.94104 0.42063 0.7948 0.0
H578 H 0.84985 0.39125 0.5876 0.0
H579 H 0.89732 0.4476 0.58735 0.0
H580 H 0.83465 0.32478 0.60614 0.0
H581 H 0.82119 0.2913 0.65356 0.0
C582 C 0.53233 0.8817 0.10707 0.0
C583 C 0.53378 0.92461 0.11684 0.0
C584 C 0.5839 0.93579 0.18008 0.0
C585 C 0.58061 0.892 0.17138 0.0
N586 N 0.56536 0.8313 0.11951 0.0
N587 N 0.57081 0.99819 0.15474 0.0
C588 C 0.55969 0.86789 0.13219 0.0
C589 C 0.56309 0.95364 0.15075 0.0
N590 N 0.50231 0.85246 0.0761 0.0
N591 N 0.6055 0.95933 0.21739 0.0
H592 H 0.55618 0.01204 0.13343 0.0
H593 H 0.59463 0.02258 0.17645 0.0
H594 H 0.62367 0.94849 0.23767 0.0
H595 H 0.60423 0.9884 0.22896 0.0
H596 H 0.49567 0.81845 0.07127 0.0
H597 H 0.48127 0.86076 0.05724 0.0
H598 H 0.55428 0.81454 0.08942 0.0
H599 H 0.58563 0.82107 0.13728 0.0
C600 C 0.62781 0.55642 0.67042 0.0
C601 C 0.63095 0.52821 0.63691 0.0
C602 C 0.70071 0.53404 0.67111 0.0
C603 C 0.69846 0.56346 0.70398 0.0
N604 N 0.66296 0.60629 0.73369 0.0
N605 N 0.67228 0.49391 0.60169 0.0
C606 C 0.66298 0.57588 0.70312 0.0
C607 C 0.66808 0.51822 0.63617 0.0
N608 N 0.59027 0.56327 0.67161 0.0
N609 N 0.73371 0.52065 0.67369 0.0
H610 H 0.70114 0.48986 0.59619 0.0
H611 H 0.64809 0.47997 0.57646 0.0
H612 H 0.75969 0.53336 0.69729 0.0
H613 H 0.7342 0.49502 0.65415 0.0
H614 H 0.58246 0.57862 0.69769 0.0
H615 H 0.56523 0.5515 0.64698 0.0
H616 H 0.64175 0.62127 0.73214 0.0
H617 H 0.68579 0.61841 0.76012 0.0
C618 C 0.17942 0.67277 0.11916 0.0
C619 C 0.13204 0.63731 0.11957 0.0
C620 C 0.11651 0.67519 0.18168 0.0
C621 C 0.16488 0.70818 0.18399 0.0
N622 N 0.24308 0.7381 0.15659 0.0
N623 N 0.05503 0.60337 0.15013 0.0
C624 C 0.19656 0.70701 0.15304 0.0
C625 C 0.1003 0.63863 0.15014 0.0
N626 N 0.2078 0.67349 0.08605 0.0
N627 N 0.08617 0.67845 0.2102 0.0
H628 H 0.04167 0.57776 0.12584 0.0
H629 H 0.03095 0.59824 0.17459 0.0
H630 H 0.09686 0.70136 0.23672 0.0
H631 H 0.05019 0.65961 0.20705 0.0
H632 H 0.24173 0.70028 0.08109 0.0
H633 H 0.19606 0.64869 0.06104 0.0
H634 H 0.26875 0.73653 0.13808 0.0
H635 H 0.25676 0.76457 0.17997 0.0
loop_
_geom_bond_atom_site_label_1
_geom_bond_atom_site_label_2
_geom_bond_distance
_geom_bond_site_symmetry_2
_ccdc_geom_bond_type
H0 C8 0.930 . S
H1 C11 0.930 . S
H2 C13 0.930 . S
H3 C14 0.970 . S
H4 C14 0.970 . S
H5 C16 0.930 . S
H6 C18 0.930 . S
H7 C20 0.930 . S
C8 H0 0.930 . S
C8 C9 1.382 . S
C8 C10 1.426 . S
C9 C8 1.382 . S
C9 C13 1.389 . S
C10 C8 1.426 . S
C10 C11 1.375 . S
C10 C14 1.532 1_554 S
C11 H1 0.930 . S
C11 C10 1.375 . S
C11 C12 1.416 . S
C12 C11 1.416 . S
C12 C13 1.371 . S
C13 H2 0.930 . S
C13 C9 1.389 . S
C13 C12 1.371 . S
C14 H3 0.970 . S
C14 H4 0.970 . S
C14 C10 1.532 1_556 S
C14 C15 1.499 . S
C15 C14 1.499 . S
C15 C16 1.370 . S
C15 C20 1.415 . S
C16 H5 0.930 . S
C16 C15 1.370 . S
C16 C17 1.407 1_455 S
C17 C16 1.407 1_655 S
C17 C18 1.365 . S
C18 H6 0.930 . S
C18 C17 1.365 . S
C18 C19 1.393 . S
C19 C18 1.393 . S
C19 C20 1.387 1_655 S
C20 H7 0.930 . S
C20 C15 1.415 . S
C20 C19 1.387 1_455 S
H21 C29 0.930 . S
H22 C32 0.930 . S
H23 C34 0.930 . S
H24 C35 0.970 . S
H25 C35 0.970 . S
H26 C37 0.930 . S
H27 C39 0.930 . S
H28 C41 0.930 . S
C29 H21 0.930 . S
C29 C30 1.382 . S
C29 C31 1.426 . S
C30 C29 1.382 . S
C30 C34 1.389 . S
C31 C29 1.426 . S
C31 C32 1.375 . S
C31 C35 1.532 1_545 S
C32 H22 0.930 . S
C32 C31 1.375 . S
C32 C33 1.416 . S
C33 C32 1.416 . S
C33 C34 1.371 . S
C34 H23 0.930 . S
C34 C30 1.389 . S
C34 C33 1.371 . S
C35 H24 0.970 . S
C35 H25 0.970 . S
C35 C31 1.532 1_565 S
C35 C36 1.499 . S
C36 C35 1.499 . S
C36 C37 1.370 . S
C36 C41 1.415 . S
C37 H26 0.930 . S
C37 C36 1.370 . S
C37 C38 1.407 . S
C38 C37 1.407 . S
C38 C39 1.365 . S
C39 H27 0.930 . S
C39 C38 1.365 . S
C39 C40 1.393 . S
C40 C39 1.393 . S
C40 C41 1.387 . S
C41 H28 0.930 . S
C41 C36 1.415 . S
C41 C40 1.387 . S
H42 C50 0.930 . S
H43 C53 0.930 . S
H44 C55 0.930 . S
H45 C56 0.970 . S
H46 C56 0.970 . S
H47 C58 0.930 . S
H48 C60 0.930 . S
H49 C62 0.930 . S
C50 H42 0.930 . S
C50 C51 1.382 . S
C50 C52 1.426 . S
C51 C50 1.382 . S
C51 C55 1.389 . S
C52 C50 1.426 . S
C52 C53 1.375 . S
C52 C56 1.532 . S
C53 H43 0.930 . S
C53 C52 1.375 . S
C53 C54 1.416 . S
C54 C53 1.416 . S
C54 C55 1.371 . S
C55 H44 0.930 . S
C55 C51 1.389 . S
C55 C54 1.371 . S
C56 H45 0.970 . S
C56 H46 0.970 . S
C56 C52 1.532 . S
C56 C57 1.499 . S
C57 C56 1.499 . S
C57 C58 1.370 1_554 S
C57 C62 1.415 1_554 S
C58 H47 0.930 . S
C58 C57 1.370 1_556 S
C58 C59 1.407 . S
C59 C58 1.407 . S
C59 C60 1.365 . S
C60 H48 0.930 . S
C60 C59 1.365 . S
C60 C61 1.393 . S
C61 C60 1.393 . S
C61 C62 1.387 . S
C62 H49 0.930 . S
C62 C57 1.415 1_556 S
C62 C61 1.387 . S
H63 C71 0.930 1_455 S
H64 C74 0.930 1_455 S
H65 C76 0.930 . S
H66 C77 0.970 . S
H67 C77 0.970 . S
H68 C79 0.930 . S
H69 C81 0.930 . S
H70 C83 0.930 . S
C71 H63 0.930 1_655 S
C71 C72 1.382 . S
C71 C73 1.426 1_655 S
C72 C71 1.382 . S
C72 C76 1.389 . S
C73 C71 1.426 1_455 S
C73 C74 1.375 1_455 S
C73 C77 1.532 . S
C74 H64 0.930 1_655 S
C74 C73 1.375 1_655 S
C74 C75 1.416 . S
C75 C74 1.416 . S
C75 C76 1.371 . S
C76 H65 0.930 . S
C76 C72 1.389 . S
C76 C75 1.371 . S
C77 H66 0.970 . S
C77 H67 0.970 . S
C77 C73 1.532 . S
C77 C78 1.499 . S
C78 C77 1.499 . S
C78 C79 1.370 . S
C78 C83 1.415 . S
C79 H68 0.930 . S
C79 C78 1.370 . S
C79 C80 1.407 . S
C80 C79 1.407 . S
C80 C81 1.365 . S
C81 H69 0.930 . S
C81 C80 1.365 . S
C81 C82 1.393 . S
C82 C81 1.393 . S
C82 C83 1.387 . S
C83 H70 0.930 . S
C83 C78 1.415 . S
C83 C82 1.387 . S
H84 C92 0.930 . S
H85 C95 0.930 . S
H86 C97 0.930 . S
H87 C98 0.970 . S
H88 C98 0.970 . S
H89 C100 0.938 . S
H90 C102 0.930 . S
H91 C104 0.930 1_565 S
C92 H84 0.930 . S
C92 C93 1.382 . S
C92 C94 1.426 . S
C93 C92 1.382 . S
C93 C97 1.389 . S
C94 C92 1.426 . S
C94 C95 1.375 . S
C94 C98 1.532 1_554 S
C95 H85 0.930 . S
C95 C94 1.375 . S
C95 C96 1.416 . S
C96 C95 1.416 . S
C96 C97 1.371 . S
C97 H86 0.930 . S
C97 C93 1.389 . S
C97 C96 1.371 . S
C98 H87 0.970 . S
C98 H88 0.970 . S
C98 C94 1.532 1_556 S
C98 C99 1.499 . S
C99 C98 1.499 . S
C99 C100 1.370 1_565 S
C99 C104 1.415 1_565 S
C100 H89 0.938 . S
C100 C99 1.370 1_545 S
C100 C101 1.407 . S
C101 C100 1.407 . S
C101 C102 1.365 . S
C102 H90 0.930 . S
C102 C101 1.365 . S
C102 C103 1.393 . S
C103 C102 1.393 . S
C103 C104 1.387 . S
C104 H91 0.930 1_545 S
C104 C99 1.415 1_545 S
C104 C103 1.387 . S
H105 C113 0.930 . S
H106 C116 0.930 . S
H107 C118 0.930 . S
H108 C119 0.970 . S
H109 C119 0.970 . S
H110 C121 0.930 . S
H111 C123 0.930 . S
H112 C125 0.930 . S
C113 H105 0.930 . S
C113 C114 1.382 . S
C113 C115 1.426 . S
C114 C113 1.382 . S
C114 C118 1.389 . S
C115 C113 1.426 . S
C115 C116 1.375 . S
C115 C119 1.532 . S
C116 H106 0.930 . S
C116 C115 1.375 . S
C116 C117 1.416 . S
C117 C116 1.416 . S
C117 C118 1.371 . S
C118 H107 0.930 . S
C118 C114 1.389 . S
C118 C117 1.371 . S
C119 H108 0.970 . S
C119 H109 0.970 . S
C119 C115 1.532 . S
C119 C120 1.499 . S
C120 C119 1.499 . S
C120 C121 1.370 . S
C120 C125 1.415 . S
C121 H110 0.930 . S
C121 C120 1.370 . S
C121 C122 1.407 . S
C122 C121 1.407 . S
C122 C123 1.365 . S
C123 H111 0.930 . S
C123 C122 1.365 . S
C123 C124 1.393 . S
C124 C123 1.393 . S
C124 C125 1.387 . S
C125 H112 0.930 . S
C125 C120 1.415 . S
C125 C124 1.387 . S
Mg126 O133 2.141 . S
Mg126 O134 2.048 . S
Mg126 O135 2.048 . S
Mg126 O138 2.141 . S
C127 O128 1.313 . S
C127 O134 1.195 . S
O128 C127 1.313 . S
C129 O130 1.245 . S
C129 O138 1.289 . S
O130 C129 1.245 . S
C131 O132 1.245 . S
C131 O133 1.289 . S
O132 C131 1.245 . S
O133 Mg126 2.141 . S
O133 C131 1.289 . S
O134 Mg126 2.048 . S
O134 C127 1.195 . S
O135 Mg126 2.048 . S
O135 C136 1.195 . S
C136 O135 1.195 . S
C136 O137 1.313 . S
O137 C136 1.313 . S
O138 Mg126 2.141 . S
O138 C129 1.289 . S
Mg139 O146 2.141 . S
Mg139 O147 2.048 . S
Mg139 O148 2.048 . S
Mg139 O151 2.141 . S
C140 O141 1.313 . S
C140 O147 1.195 . S
O141 C140 1.313 . S
C142 O143 1.245 . S
C142 O151 1.289 . S
O143 C142 1.245 . S
C144 O145 1.245 . S
C144 O146 1.289 . S
O145 C144 1.245 . S
O146 Mg139 2.141 . S
O146 C144 1.289 . S
O147 Mg139 2.048 . S
O147 C140 1.195 . S
O148 Mg139 2.048 . S
O148 C149 1.195 . S
C149 O148 1.195 . S
C149 O150 1.313 . S
O150 C149 1.313 . S
O151 Mg139 2.141 . S
O151 C142 1.289 . S
Mg152 O159 2.141 . S
Mg152 O160 2.048 . S
Mg152 O161 2.048 . S
Mg152 O164 2.141 . S
C153 O154 1.313 . S
C153 O160 1.195 . S
O154 C153 1.313 . S
C155 O156 1.245 . S
C155 O164 1.289 . S
O156 C155 1.245 . S
C157 O158 1.245 . S
C157 O159 1.289 . S
O158 C157 1.245 . S
O159 Mg152 2.141 . S
O159 C157 1.289 . S
O160 Mg152 2.048 . S
O160 C153 1.195 . S
O161 Mg152 2.048 . S
O161 C162 1.195 . S
C162 O161 1.195 . S
C162 O163 1.313 . S
O163 C162 1.313 . S
O164 Mg152 2.141 . S
O164 C155 1.289 . S
Mg165 O172 2.141 . S
Mg165 O173 2.048 . S
Mg165 O174 2.048 . S
Mg165 O177 2.141 . S
C166 O167 1.313 . S
C166 O173 1.195 . S
O167 C166 1.313 . S
C168 O169 1.245 . S
C168 O177 1.289 . S
O169 C168 1.245 . S
C170 O171 1.245 . S
C170 O172 1.289 . S
O171 C170 1.245 . S
O172 Mg165 2.141 . S
O172 C170 1.289 . S
O173 Mg165 2.048 . S
O173 C166 1.195 . S
O174 Mg165 2.048 . S
O174 C175 1.195 . S
C175 O174 1.195 . S
C175 O176 1.313 . S
O176 C175 1.313 . S
O177 Mg165 2.141 . S
O177 C168 1.289 . S
Mg178 O185 2.141 . S
Mg178 O186 2.048 . S
Mg178 O187 2.048 . S
Mg178 O190 2.141 . S
C179 O180 1.313 . S
C179 O186 1.195 . S
O180 C179 1.313 . S
C181 O182 1.245 . S
C181 O190 1.289 . S
O182 C181 1.245 . S
C183 O184 1.245 . S
C183 O185 1.289 . S
O184 C183 1.245 . S
O185 Mg178 2.141 . S
O185 C183 1.289 . S
O186 Mg178 2.048 . S
O186 C179 1.195 . S
O187 Mg178 2.048 . S
O187 C188 1.195 . S
C188 O187 1.195 . S
C188 O189 1.313 . S
O189 C188 1.313 . S
O190 Mg178 2.141 . S
O190 C181 1.289 . S
Mg191 O198 2.141 . S
Mg191 O199 2.048 . S
Mg191 O200 2.048 . S
Mg191 O203 2.141 . S
C192 O193 1.313 . S
C192 O199 1.195 . S
O193 C192 1.313 . S
C194 O195 1.245 . S
C194 O203 1.289 . S
O195 C194 1.245 . S
C196 O197 1.245 . S
C196 O198 1.289 . S
O197 C196 1.245 . S
O198 Mg191 2.141 . S
O198 C196 1.289 . S
O199 Mg191 2.048 . S
O199 C192 1.195 . S
O200 Mg191 2.048 . S
O200 C201 1.195 . S
C201 O200 1.195 . S
C201 O202 1.313 . S
O202 C201 1.313 . S
O203 Mg191 2.141 . S
O203 C194 1.289 . S
C204 C205 1.363 . S
C204 C210 1.379 . S
C204 N212 1.356 . S
C205 C204 1.363 . S
C205 C211 1.363 . S
C206 C207 1.363 . S
C206 C211 1.379 . S
C206 N213 1.356 . S
C207 C206 1.363 . S
C207 C210 1.363 . S
N208 C210 1.356 . S
N208 H220 0.984 . S
N208 H221 0.985 . S
N209 C211 1.356 . S
N209 H214 0.984 . S
N209 H215 0.985 . S
C210 C204 1.379 . S
C210 C207 1.363 . S
C210 N208 1.356 . S
C211 C205 1.363 . S
C211 C206 1.379 . S
C211 N209 1.356 . S
N212 C204 1.356 . S
N212 H218 0.984 . S
N212 H219 0.984 . S
N213 C206 1.356 . S
N213 H216 0.984 . S
N213 H217 0.985 . S
H214 N209 0.984 . S
H215 N209 0.985 . S
H216 N213 0.984 . S
H217 N213 0.985 . S
H218 N212 0.984 . S
H219 N212 0.984 . S
H220 N208 0.984 . S
H221 N208 0.985 . S
C222 C223 1.363 . S
C222 C228 1.379 . S
C222 N230 1.356 . S
C223 C222 1.363 . S
C223 C229 1.363 . S
C224 C225 1.363 . S
C224 C229 1.379 . S
C224 N231 1.356 . S
C225 C224 1.363 . S
C225 C228 1.363 . S
N226 C228 1.356 . S
N226 H238 0.984 . S
N226 H239 0.985 . S
N227 C229 1.356 . S
N227 H232 0.984 . S
N227 H233 0.985 . S
C228 C222 1.379 . S
C228 C225 1.363 . S
C228 N226 1.356 . S
C229 C223 1.363 . S
C229 C224 1.379 . S
C229 N227 1.356 . S
N230 C222 1.356 . S
N230 H236 0.984 . S
N230 H237 0.984 . S
N231 C224 1.356 . S
N231 H234 0.984 . S
N231 H235 0.985 . S
H232 N227 0.984 . S
H233 N227 0.985 . S
H234 N231 0.984 . S
H235 N231 0.985 . S
H236 N230 0.984 . S
H237 N230 0.984 . S
H238 N226 0.984 . S
H239 N226 0.985 . S
C240 C241 1.363 . S
C240 C246 1.379 . S
C240 N248 1.356 . S
C241 C240 1.363 . S
C241 C247 1.363 . S
C242 C243 1.363 . S
C242 C247 1.379 . S
C242 N249 1.356 . S
C243 C242 1.363 . S
C243 C246 1.363 . S
N244 C246 1.356 . S
N244 H256 0.984 . S
N244 H257 0.985 . S
N245 C247 1.356 . S
N245 H250 0.984 . S
N245 H251 0.985 . S
C246 C240 1.379 . S
C246 C243 1.363 . S
C246 N244 1.356 . S
C247 C241 1.363 . S
C247 C242 1.379 . S
C247 N245 1.356 . S
N248 C240 1.356 . S
N248 H254 0.984 . S
N248 H255 0.984 . S
N249 C242 1.356 . S
N249 H252 0.984 . S
N249 H253 0.985 . S
H250 N245 0.984 . S
H251 N245 0.985 . S
H252 N249 0.984 . S
H253 N249 0.985 . S
H254 N248 0.984 . S
H255 N248 0.984 . S
H256 N244 0.984 . S
H257 N244 0.985 . S
C258 C259 1.363 . S
C258 C264 1.379 . S
C258 N266 1.356 . S
C259 C258 1.363 . S
C259 C265 1.363 . S
C260 C261 1.363 . S
C260 C265 1.379 . S
C260 N267 1.356 . S
C261 C260 1.363 . S
C261 C264 1.363 . S
N262 C264 1.356 . S
N262 H274 0.984 . S
N262 H275 0.985 . S
N263 C265 1.356 . S
N263 H268 0.984 . S
N263 H269 0.985 . S
C264 C258 1.379 . S
C264 C261 1.363 . S
C264 N262 1.356 . S
C265 C259 1.363 . S
C265 C260 1.379 . S
C265 N263 1.356 . S
N266 C258 1.356 . S
N266 H272 0.984 1_655 S
N266 H273 0.984 . S
N267 C260 1.356 . S
N267 H270 0.984 . S
N267 H271 0.985 . S
H268 N263 0.984 . S
H269 N263 0.985 . S
H270 N267 0.984 . S
H271 N267 0.985 . S
H272 N266 0.984 1_455 S
H273 N266 0.984 . S
H274 N262 0.984 . S
H275 N262 0.985 . S
C276 C277 1.363 . S
C276 C282 1.379 . S
C276 N284 1.356 . S
C277 C276 1.363 . S
C277 C283 1.363 . S
C278 C279 1.363 . S
C278 C283 1.379 . S
C278 N285 1.356 . S
C279 C278 1.363 . S
C279 C282 1.363 . S
N280 C282 1.356 . S
N280 H292 0.984 . S
N280 H293 0.985 . S
N281 C283 1.356 . S
N281 H286 0.984 . S
N281 H287 0.985 . S
C282 C276 1.379 . S
C282 C279 1.363 . S
C282 N280 1.356 . S
C283 C277 1.363 . S
C283 C278 1.379 . S
C283 N281 1.356 . S
N284 C276 1.356 . S
N284 H290 0.983 . S
N284 H291 0.984 . S
N285 C278 1.356 . S
N285 H288 0.984 . S
N285 H289 0.985 . S
H286 N281 0.984 . S
H287 N281 0.985 . S
H288 N285 0.984 . S
H289 N285 0.985 . S
H290 N284 0.983 . S
H291 N284 0.984 . S
H292 N280 0.984 . S
H293 N280 0.985 . S
C294 C295 1.363 . S
C294 C300 1.379 . S
C294 N302 1.356 . S
C295 C294 1.363 . S
C295 C301 1.363 . S
C296 C297 1.363 . S
C296 C301 1.379 . S
C296 N303 1.356 . S
C297 C296 1.363 . S
C297 C300 1.363 . S
N298 C300 1.356 . S
N298 H310 0.984 . S
N298 H311 0.985 . S
N299 C301 1.356 . S
N299 H304 0.984 . S
N299 H305 0.985 . S
C300 C294 1.379 . S
C300 C297 1.363 . S
C300 N298 1.356 . S
C301 C295 1.363 . S
C301 C296 1.379 . S
C301 N299 1.356 . S
N302 C294 1.356 . S
N302 H308 0.984 . S
N302 H309 0.984 . S
N303 C296 1.356 . S
N303 H306 0.984 . S
N303 H307 0.985 . S
H304 N299 0.984 . S
H305 N299 0.985 . S
H306 N303 0.984 . S
H307 N303 0.985 . S
H308 N302 0.984 . S
H309 N302 0.984 . S
H310 N298 0.984 . S
H311 N298 0.985 . S
C312 C313 1.363 . S
C312 C318 1.379 . S
C312 N320 1.356 . S
C313 C312 1.363 . S
C313 C319 1.363 . S
C314 C315 1.363 . S
C314 C319 1.379 . S
C314 N321 1.356 . S
C315 C314 1.363 . S
C315 C318 1.363 . S
N316 C318 1.356 . S
N316 H328 0.984 . S
N316 H329 0.985 . S
N317 C319 1.356 . S
N317 H322 0.984 . S
N317 H323 0.985 1_565 S
C318 C312 1.379 . S
C318 C315 1.363 . S
C318 N316 1.356 . S
C319 C313 1.363 . S
C319 C314 1.379 . S
C319 N317 1.356 . S
N320 C312 1.356 . S
N320 H326 0.984 . S
N320 H327 0.984 . S
N321 C314 1.356 . S
N321 H324 0.984 . S
N321 H325 0.985 . S
H322 N317 0.984 . S
H323 N317 0.985 1_545 S
H324 N321 0.984 . S
H325 N321 0.985 . S
H326 N320 0.984 . S
H327 N320 0.984 . S
H328 N316 0.984 . S
H329 N316 0.985 . S
C330 C331 1.363 . S
C330 C336 1.379 . S
C330 N338 1.356 . S
C331 C330 1.363 . S
C331 C337 1.363 . S
C332 C333 1.363 . S
C332 C337 1.379 . S
C332 N339 1.356 . S
C333 C332 1.363 . S
C333 C336 1.363 . S
N334 C336 1.356 . S
N334 H346 0.984 . S
N334 H347 0.985 . S
N335 C337 1.356 . S
N335 H340 0.984 . S
N335 H341 0.985 . S
C336 C330 1.379 . S
C336 C333 1.363 . S
C336 N334 1.356 . S
C337 C331 1.363 . S
C337 C332 1.379 . S
C337 N335 1.356 . S
N338 C330 1.356 . S
N338 H344 0.984 . S
N338 H345 0.984 . S
N339 C332 1.356 . S
N339 H342 0.984 . S
N339 H343 0.985 . S
H340 N335 0.984 . S
H341 N335 0.985 . S
H342 N339 0.984 . S
H343 N339 0.985 . S
H344 N338 0.984 . S
H345 N338 0.984 . S
H346 N334 0.984 . S
H347 N334 0.985 . S
C348 C349 1.363 . S
C348 C354 1.379 . S
C348 N356 1.356 . S
C349 C348 1.363 . S
C349 C355 1.363 . S
C350 C351 1.363 . S
C350 C355 1.379 . S
C350 N357 1.356 . S
C351 C350 1.363 . S
C351 C354 1.363 . S
N352 C354 1.356 . S
N352 H364 0.984 . S
N352 H365 0.985 . S
N353 C355 1.356 . S
N353 H358 0.984 . S
N353 H359 0.985 . S
C354 C348 1.379 . S
C354 C351 1.363 . S
C354 N352 1.356 . S
C355 C349 1.363 . S
C355 C350 1.379 . S
C355 N353 1.356 . S
N356 C348 1.356 . S
N356 H362 0.984 . S
N356 H363 0.984 . S
N357 C350 1.356 . S
N357 H360 0.984 . S
N357 H361 0.985 . S
H358 N353 0.984 . S
H359 N353 0.985 . S
H360 N357 0.984 . S
H361 N357 0.985 . S
H362 N356 0.984 . S
H363 N356 0.984 . S
H364 N352 0.984 . S
H365 N352 0.985 . S
C366 C367 1.363 . S
C366 C372 1.379 . S
C366 N374 1.356 . S
C367 C366 1.363 . S
C367 C373 1.363 . S
C368 C369 1.363 . S
C368 C373 1.379 . S
C368 N375 1.356 . S
C369 C368 1.363 . S
C369 C372 1.363 . S
N370 C372 1.356 . S
N370 H382 0.984 . S
N370 H383 0.985 . S
N371 C373 1.356 . S
N371 H376 0.984 . S
N371 H377 0.985 . S
C372 C366 1.379 . S
C372 C369 1.363 . S
C372 N370 1.356 . S
C373 C367 1.363 . S
C373 C368 1.379 . S
C373 N371 1.356 . S
N374 C366 1.356 . S
N374 H380 0.984 . S
N374 H381 0.984 . S
N375 C368 1.356 . S
N375 H378 0.984 . S
N375 H379 0.985 . S
H376 N371 0.984 . S
H377 N371 0.985 . S
H378 N375 0.984 . S
H379 N375 0.985 . S
H380 N374 0.984 . S
H381 N374 0.984 . S
H382 N370 0.984 . S
H383 N370 0.985 . S
C384 C385 1.363 . S
C384 C390 1.379 . S
C384 N392 1.356 . S
C385 C384 1.363 . S
C385 C391 1.363 . S
C386 C387 1.363 . S
C386 C391 1.379 . S
C386 N393 1.356 . S
C387 C386 1.363 . S
C387 C390 1.363 . S
N388 C390 1.356 . S
N388 H400 0.984 . S
N388 H401 0.985 . S
N389 C391 1.356 . S
N389 H394 0.984 . S
N389 H395 0.985 . S
C390 C384 1.379 . S
C390 C387 1.363 . S
C390 N388 1.356 . S
C391 C385 1.363 . S
C391 C386 1.379 . S
C391 N389 1.356 . S
N392 C384 1.356 . S
N392 H398 0.984 . S
N392 H399 0.984 . S
N393 C386 1.356 . S
N393 H396 0.984 . S
N393 H397 0.985 . S
H394 N389 0.984 . S
H395 N389 0.985 . S
H396 N393 0.984 . S
H397 N393 0.985 . S
H398 N392 0.984 . S
H399 N392 0.984 . S
H400 N388 0.984 . S
H401 N388 0.985 . S
C402 C403 1.363 . S
C402 C408 1.379 . S
C402 N410 1.356 1_655 S
C403 C402 1.363 . S
C403 C409 1.363 . S
C404 C405 1.363 . S
C404 C409 1.379 . S
C404 N411 1.356 . S
C405 C404 1.363 . S
C405 C408 1.363 . S
N406 C408 1.356 . S
N406 H418 0.984 . S
N406 H419 0.985 . S
N407 C409 1.356 . S
N407 H412 0.984 . S
N407 H413 0.985 . S
C408 C402 1.379 . S
C408 C405 1.363 . S
C408 N406 1.356 . S
C409 C403 1.363 . S
C409 C404 1.379 . S
C409 N407 1.356 . S
N410 C402 1.356 1_455 S
N410 H416 0.984 . S
N410 H417 0.984 . S
N411 C404 1.356 . S
N411 H414 0.984 . S
N411 H415 0.985 . S
H412 N407 0.984 . S
H413 N407 0.985 . S
H414 N411 0.984 . S
H415 N411 0.985 . S
H416 N410 0.984 . S
H417 N410 0.984 . S
H418 N406 0.984 . S
H419 N406 0.985 . S
C420 C421 1.363 . S
C420 C426 1.379 . S
C420 N428 1.356 . S
C421 C420 1.363 . S
C421 C427 1.363 . S
C422 C423 1.363 . S
C422 C427 1.379 . S
C422 N429 1.356 . S
C423 C422 1.363 . S
C423 C426 1.363 . S
N424 C426 1.356 . S
N424 H436 0.984 . S
N424 H437 0.985 . S
N425 C427 1.356 . S
N425 H430 0.984 . S
N425 H431 0.985 . S
C426 C420 1.379 . S
C426 C423 1.363 . S
C426 N424 1.356 . S
C427 C421 1.363 . S
C427 C422 1.379 . S
C427 N425 1.356 . S
N428 C420 1.356 . S
N428 H434 0.984 . S
N428 H435 0.984 . S
N429 C422 1.356 . S
N429 H432 0.984 . S
N429 H433 0.985 . S
H430 N425 0.984 . S
H431 N425 0.985 . S
H432 N429 0.984 . S
H433 N429 0.985 . S
H434 N428 0.984 . S
H435 N428 0.984 . S
H436 N424 0.984 . S
H437 N424 0.985 . S
C438 C439 1.363 . S
C438 C444 1.379 . S
C438 N446 1.356 . S
C439 C438 1.363 . S
C439 C445 1.363 . S
C440 C441 1.363 . S
C440 C445 1.379 . S
C440 N447 1.356 . S
C441 C440 1.363 . S
C441 C444 1.363 . S
N442 C444 1.356 . S
N442 H454 0.984 . S
N442 H455 0.985 . S
N443 C445 1.356 . S
N443 H448 0.984 . S
N443 H449 0.985 1_565 S
C444 C438 1.379 . S
C444 C441 1.363 . S
C444 N442 1.356 . S
C445 C439 1.363 . S
C445 C440 1.379 . S
C445 N443 1.356 . S
N446 C438 1.356 . S
N446 H452 0.984 . S
N446 H453 0.984 . S
N447 C440 1.356 . S
N447 H450 0.984 . S
N447 H451 0.985 . S
H448 N443 0.984 . S
H449 N443 0.985 1_545 S
H450 N447 0.984 . S
H451 N447 0.985 . S
H452 N446 0.984 . S
H453 N446 0.984 . S
H454 N442 0.984 . S
H455 N442 0.985 . S
C456 C457 1.363 . S
C456 C462 1.379 . S
C456 N464 1.356 . S
C457 C456 1.363 . S
C457 C463 1.363 . S
C458 C459 1.363 . S
C458 C463 1.379 . S
C458 N465 1.356 . S
C459 C458 1.363 . S
C459 C462 1.363 . S
N460 C462 1.356 . S
N460 H472 0.984 . S
N460 H473 0.985 . S
N461 C463 1.356 . S
N461 H466 0.984 . S
N461 H467 0.985 . S
C462 C456 1.379 . S
C462 C459 1.363 . S
C462 N460 1.356 . S
C463 C457 1.363 . S
C463 C458 1.379 . S
C463 N461 1.356 . S
N464 C456 1.356 . S
N464 H470 0.984 . S
N464 H471 0.984 . S
N465 C458 1.356 . S
N465 H468 0.984 . S
N465 H469 0.985 . S
H466 N461 0.984 . S
H467 N461 0.985 . S
H468 N465 0.984 . S
H469 N465 0.985 . S
H470 N464 0.984 . S
H471 N464 0.984 . S
H472 N460 0.984 . S
H473 N460 0.985 . S
C474 C475 1.363 . S
C474 C480 1.379 . S
C474 N482 1.356 . S
C475 C474 1.363 . S
C475 C481 1.363 . S
C476 C477 1.363 . S
C476 C481 1.379 . S
C476 N483 1.356 . S
C477 C476 1.363 . S
C477 C480 1.363 . S
N478 C480 1.356 . S
N478 H490 0.984 . S
N478 H491 0.985 . S
N479 C481 1.356 . S
N479 H484 0.984 . S
N479 H485 0.985 . S
C480 C474 1.379 . S
C480 C477 1.363 . S
C480 N478 1.356 . S
C481 C475 1.363 . S
C481 C476 1.379 . S
C481 N479 1.356 . S
N482 C474 1.356 . S
N482 H488 0.984 . S
N482 H489 0.984 . S
N483 C476 1.356 . S
N483 H486 0.984 . S
N483 H487 0.985 . S
H484 N479 0.984 . S
H485 N479 0.985 . S
H486 N483 0.984 . S
H487 N483 0.985 . S
H488 N482 0.984 . S
H489 N482 0.984 . S
H490 N478 0.984 . S
H491 N478 0.985 . S
C492 C493 1.363 . S
C492 C498 1.379 . S
C492 N500 1.356 . S
C493 C492 1.363 . S
C493 C499 1.363 . S
C494 C495 1.363 . S
C494 C499 1.379 . S
C494 N501 1.356 . S
C495 C494 1.363 . S
C495 C498 1.363 . S
N496 C498 1.356 . S
N496 H508 0.984 . S
N496 H509 0.985 . S
N497 C499 1.356 . S
N497 H502 0.984 . S
N497 H503 0.985 . S
C498 C492 1.379 . S
C498 C495 1.363 . S
C498 N496 1.356 . S
C499 C493 1.363 . S
C499 C494 1.379 . S
C499 N497 1.356 . S
N500 C492 1.356 . S
N500 H506 0.984 . S
N500 H507 0.984 . S
N501 C494 1.356 . S
N501 H504 0.984 . S
N501 H505 0.985 . S
H502 N497 0.984 . S
H503 N497 0.985 . S
H504 N501 0.984 . S
H505 N501 0.985 . S
H506 N500 0.984 . S
H507 N500 0.984 . S
H508 N496 0.984 . S
H509 N496 0.985 . S
C510 C511 1.363 . S
C510 C516 1.379 . S
C510 N518 1.356 . S
C511 C510 1.363 . S
C511 C517 1.363 . S
C512 C513 1.363 . S
C512 C517 1.379 . S
C512 N519 1.356 . S
C513 C512 1.363 . S
C513 C516 1.363 . S
N514 C516 1.356 . S
N514 H526 0.984 . S
N514 H527 0.985 . S
N515 C517 1.356 . S
N515 H520 0.984 . S
N515 H521 0.985 . S
C516 C510 1.379 . S
C516 C513 1.363 . S
C516 N514 1.356 . S
C517 C511 1.363 . S
C517 C512 1.379 . S
C517 N515 1.356 . S
N518 C510 1.356 . S
N518 H524 0.984 . S
N518 H525 0.984 . S
N519 C512 1.356 . S
N519 H522 0.984 . S
N519 H523 0.985 . S
H520 N515 0.984 . S
H521 N515 0.985 . S
H522 N519 0.984 . S
H523 N519 0.985 . S
H524 N518 0.984 . S
H525 N518 0.984 . S
H526 N514 0.984 . S
H527 N514 0.985 . S
C528 C529 1.363 . S
C528 C534 1.379 . S
C528 N536 1.356 . S
C529 C528 1.363 . S
C529 C535 1.363 . S
C530 C531 1.363 . S
C530 C535 1.379 . S
C530 N537 1.356 . S
C531 C530 1.363 . S
C531 C534 1.363 . S
N532 C534 1.356 . S
N532 H544 0.984 . S
N532 H545 0.985 . S
N533 C535 1.356 . S
N533 H538 0.984 . S
N533 H539 0.985 . S
C534 C528 1.379 . S
C534 C531 1.363 . S
C534 N532 1.356 . S
C535 C529 1.363 . S
C535 C530 1.379 . S
C535 N533 1.356 . S
N536 C528 1.356 . S
N536 H542 0.984 . S
N536 H543 0.984 . S
N537 C530 1.356 . S
N537 H540 0.984 . S
N537 H541 0.985 . S
H538 N533 0.984 . S
H539 N533 0.985 . S
H540 N537 0.984 . S
H541 N537 0.985 . S
H542 N536 0.984 . S
H543 N536 0.984 . S
H544 N532 0.984 . S
H545 N532 0.985 . S
C546 C547 1.363 . S
C546 C552 1.379 . S
C546 N554 1.356 . S
C547 C546 1.363 . S
C547 C553 1.363 . S
C548 C549 1.363 . S
C548 C553 1.379 . S
C548 N555 1.356 . S
C549 C548 1.363 . S
C549 C552 1.363 . S
N550 C552 1.356 . S
N550 H562 0.984 . S
N550 H563 0.985 . S
N551 C553 1.356 . S
N551 H556 0.984 . S
N551 H557 0.985 . S
C552 C546 1.379 . S
C552 C549 1.363 . S
C552 N550 1.356 . S
C553 C547 1.363 . S
C553 C548 1.379 . S
C553 N551 1.356 . S
N554 C546 1.356 . S
N554 H560 0.984 . S
N554 H561 0.984 . S
N555 C548 1.356 . S
N555 H558 0.984 . S
N555 H559 0.985 . S
H556 N551 0.984 . S
H557 N551 0.985 . S
H558 N555 0.984 . S
H559 N555 0.985 . S
H560 N554 0.984 . S
H561 N554 0.984 . S
H562 N550 0.984 . S
H563 N550 0.985 . S
C564 C565 1.363 . S
C564 C570 1.379 . S
C564 N572 1.356 . S
C565 C564 1.363 . S
C565 C571 1.363 . S
C566 C567 1.363 . S
C566 C571 1.379 . S
C566 N573 1.356 . S
C567 C566 1.363 . S
C567 C570 1.363 . S
N568 C570 1.356 . S
N568 H580 0.984 . S
N568 H581 0.985 . S
N569 C571 1.356 . S
N569 H574 0.984 . S
N569 H575 0.985 . S
C570 C564 1.379 . S
C570 C567 1.363 . S
C570 N568 1.356 . S
C571 C565 1.363 . S
C571 C566 1.379 . S
C571 N569 1.356 . S
N572 C564 1.356 . S
N572 H578 0.984 . S
N572 H579 0.984 . S
N573 C566 1.356 . S
N573 H576 0.984 . S
N573 H577 0.985 . S
H574 N569 0.984 . S
H575 N569 0.985 . S
H576 N573 0.984 . S
H577 N573 0.985 . S
H578 N572 0.984 . S
H579 N572 0.984 . S
H580 N568 0.984 . S
H581 N568 0.985 . S
C582 C583 1.363 . S
C582 C588 1.379 . S
C582 N590 1.356 . S
C583 C582 1.363 . S
C583 C589 1.363 . S
C584 C585 1.363 . S
C584 C589 1.379 . S
C584 N591 1.356 . S
C585 C584 1.363 . S
C585 C588 1.363 . S
N586 C588 1.356 . S
N586 H598 0.984 . S
N586 H599 0.985 . S
N587 C589 1.356 . S
N587 H592 0.984 . S
N587 H593 0.985 1_565 S
C588 C582 1.379 . S
C588 C585 1.363 . S
C588 N586 1.356 . S
C589 C583 1.363 . S
C589 C584 1.379 . S
C589 N587 1.356 . S
N590 C582 1.356 . S
N590 H596 0.984 . S
N590 H597 0.984 . S
N591 C584 1.356 . S
N591 H594 0.984 . S
N591 H595 0.985 . S
H592 N587 0.984 . S
H593 N587 0.985 1_545 S
H594 N591 0.984 . S
H595 N591 0.985 . S
H596 N590 0.984 . S
H597 N590 0.984 . S
H598 N586 0.984 . S
H599 N586 0.985 . S
C600 C601 1.363 . S
C600 C606 1.379 . S
C600 N608 1.356 . S
C601 C600 1.363 . S
C601 C607 1.363 . S
C602 C603 1.363 . S
C602 C607 1.379 . S
C602 N609 1.356 . S
C603 C602 1.363 . S
C603 C606 1.363 . S
N604 C606 1.356 . S
N604 H616 0.984 . S
N604 H617 0.985 . S
N605 C607 1.356 . S
N605 H610 0.984 . S
N605 H611 0.985 . S
C606 C600 1.379 . S
C606 C603 1.363 . S
C606 N604 1.356 . S
C607 C601 1.363 . S
C607 C602 1.379 . S
C607 N605 1.356 . S
N608 C600 1.356 . S
N608 H614 0.984 . S
N608 H615 0.984 . S
N609 C602 1.356 . S
N609 H612 0.984 . S
N609 H613 0.985 . S
H610 N605 0.984 . S
H611 N605 0.985 . S
H612 N609 0.984 . S
H613 N609 0.985 . S
H614 N608 0.984 . S
H615 N608 0.984 . S
H616 N604 0.984 . S
H617 N604 0.985 . S
C618 C619 1.363 . S
C618 C624 1.379 . S
C618 N626 1.356 . S
C619 C618 1.363 . S
C619 C625 1.363 . S
C620 C621 1.363 . S
C620 C625 1.379 . S
C620 N627 1.356 . S
C621 C620 1.363 . S
C621 C624 1.363 . S
N622 C624 1.356 . S
N622 H634 0.984 . S
N622 H635 0.985 . S
N623 C625 1.356 . S
N623 H628 0.984 . S
N623 H629 0.985 . S
C624 C618 1.379 . S
C624 C621 1.363 . S
C624 N622 1.356 . S
C625 C619 1.363 . S
C625 C620 1.379 . S
C625 N623 1.356 . S
N626 C618 1.356 . S
N626 H632 0.984 . S
N626 H633 0.984 . S
N627 C620 1.356 . S
N627 H630 0.984 . S
N627 H631 0.985 . S
H628 N623 0.984 . S
H629 N623 0.985 . S
H630 N627 0.984 . S
H631 N627 0.985 . S
H632 N626 0.984 . S
H633 N626 0.984 . S
H634 N622 0.984 . S
H635 N622 0.985 . S
C205 C12 1.486 . S
C207 C127 1.564 . S
C223 C30 1.468 . S
C225 C140 1.540 . S
C243 C162 1.522 . S
C241 C51 1.487 . S
C261 C175 1.502 . S
C259 C72 1.469 . S
C279 C188 1.526 . S
C277 C96 1.488 . S
C297 C201 1.506 . S
C295 C117 1.468 . S
C313 C38 1.487 . S
C315 C157 1.520 . S
C331 C59 1.466 . S
C333 C170 1.499 . S
C351 C183 1.512 . S
C349 C80 1.478 . S
C369 C196 1.480 . S
C367 C103 1.469 . S
C385 C124 1.490 . S
C387 C129 1.547 . S
C405 C142 1.534 . S
C403 C19 1.479 . S
C423 C168 1.518 . S
C421 C17 1.484 . S
C439 C40 1.483 . S
C441 C181 1.485 . S
C459 C194 1.499 . S
C457 C61 1.495 . S
C475 C82 1.473 . S
C477 C131 1.526 . S
C493 C101 1.474 . S
C495 C144 1.560 . S
C511 C122 1.463 . S
C513 C155 1.496 . S
C529 C33 1.469 . S
C531 C192 1.530 . S
C549 C136 1.550 . S
C547 C54 1.451 . S
C565 C75 1.470 . S
C567 C149 1.570 . S
C583 C93 1.497 . S
C585 C153 1.506 . S
C601 C114 1.514 . S
C603 C166 1.526 . S
C619 C9 1.494 . S
C621 C179 1.507 . S
