# Generated by pormake.
# Topology eea, (3,6)-cn, num edge types: 1
# Building blocks:
#     Node 0, Type 0, BuildingBlock: QEWDON_clean_linker_0, # of connection points: 3
#     Node 1, Type 0, BuildingBlock: QEWDON_clean_linker_0, # of connection points: 3
#     Node 2, Type 0, BuildingBlock: QEWDON_clean_linker_0, # of connection points: 3
#     Node 3, Type 0, BuildingBlock: QEWDON_clean_linker_0, # of connection points: 3
#     Node 4, Type 0, BuildingBlock: QEWDON_clean_linker_0, # of connection points: 3
#     Node 5, Type 0, BuildingBlock: QEWDON_clean_linker_0, # of connection points: 3
#     Node 6, Type 0, BuildingBlock: QEWDON_clean_linker_0, # of connection points: 3
#     Node 7, Type 0, BuildingBlock: QEWDON_clean_linker_0, # of connection points: 3
#     Node 8, Type 0, BuildingBlock: QEWDON_clean_linker_0, # of connection points: 3
#     Node 9, Type 0, BuildingBlock: QEWDON_clean_linker_0, # of connection points: 3
#     Node 10, Type 0, BuildingBlock: QEWDON_clean_linker_0, # of connection points: 3
#     Node 11, Type 0, BuildingBlock: QEWDON_clean_linker_0, # of connection points: 3
#     Node 12, Type 0, BuildingBlock: QEWDON_clean_linker_0, # of connection points: 3
#     Node 13, Type 0, BuildingBlock: QEWDON_clean_linker_0, # of connection points: 3
#     Node 14, Type 0, BuildingBlock: QEWDON_clean_linker_0, # of connection points: 3
#     Node 15, Type 0, BuildingBlock: QEWDON_clean_linker_0, # of connection points: 3
#     Node 16, Type 0, BuildingBlock: QEWDON_clean_linker_0, # of connection points: 3
#     Node 17, Type 0, BuildingBlock: QEWDON_clean_linker_0, # of connection points: 3
#     Node 18, Type 1, BuildingBlock: HISSIN_clean_sbu_0, # of connection points: 6
#     Node 19, Type 1, BuildingBlock: HISSIN_clean_sbu_0, # of connection points: 6
#     Node 20, Type 1, BuildingBlock: HISSIN_clean_sbu_0, # of connection points: 6
#     Node 21, Type 1, BuildingBlock: HISSIN_clean_sbu_0, # of connection points: 6
#     Node 22, Type 1, BuildingBlock: HISSIN_clean_sbu_0, # of connection points: 6
#     Node 23, Type 1, BuildingBlock: HISSIN_clean_sbu_0, # of connection points: 6
#     Node 24, Type 1, BuildingBlock: HISSIN_clean_sbu_0, # of connection points: 6
#     Node 25, Type 1, BuildingBlock: HISSIN_clean_sbu_0, # of connection points: 6
#     Node 26, Type 1, BuildingBlock: HISSIN_clean_sbu_0, # of connection points: 6
#     Edge 27, Type (0, 1), BuildingBlock: ZUJKAS_clean_linker_0, # of connection points: 2
#     Edge 28, Type (0, 1), BuildingBlock: ZUJKAS_clean_linker_0, # of connection points: 2
#     Edge 29, Type (0, 1), BuildingBlock: ZUJKAS_clean_linker_0, # of connection points: 2
#     Edge 30, Type (0, 1), BuildingBlock: ZUJKAS_clean_linker_0, # of connection points: 2
#     Edge 31, Type (0, 1), BuildingBlock: ZUJKAS_clean_linker_0, # of connection points: 2
#     Edge 32, Type (0, 1), BuildingBlock: ZUJKAS_clean_linker_0, # of connection points: 2
#     Edge 33, Type (0, 1), BuildingBlock: ZUJKAS_clean_linker_0, # of connection points: 2
#     Edge 34, Type (0, 1), BuildingBlock: ZUJKAS_clean_linker_0, # of connection points: 2
#     Edge 35, Type (0, 1), BuildingBlock: ZUJKAS_clean_linker_0, # of connection points: 2
#     Edge 36, Type (0, 1), BuildingBlock: ZUJKAS_clean_linker_0, # of connection points: 2
#     Edge 37, Type (0, 1), BuildingBlock: ZUJKAS_clean_linker_0, # of connection points: 2
#     Edge 38, Type (0, 1), BuildingBlock: ZUJKAS_clean_linker_0, # of connection points: 2
#     Edge 39, Type (0, 1), BuildingBlock: ZUJKAS_clean_linker_0, # of connection points: 2
#     Edge 40, Type (0, 1), BuildingBlock: ZUJKAS_clean_linker_0, # of connection points: 2
#     Edge 41, Type (0, 1), BuildingBlock: ZUJKAS_clean_linker_0, # of connection points: 2
#     Edge 42, Type (0, 1), BuildingBlock: ZUJKAS_clean_linker_0, # of connection points: 2
#     Edge 43, Type (0, 1), BuildingBlock: ZUJKAS_clean_linker_0, # of connection points: 2
#     Edge 44, Type (0, 1), BuildingBlock: ZUJKAS_clean_linker_0, # of connection points: 2
#     Edge 45, Type (0, 1), BuildingBlock: ZUJKAS_clean_linker_0, # of connection points: 2
#     Edge 46, Type (0, 1), BuildingBlock: ZUJKAS_clean_linker_0, # of connection points: 2
#     Edge 47, Type (0, 1), BuildingBlock: ZUJKAS_clean_linker_0, # of connection points: 2
#     Edge 48, Type (0, 1), BuildingBlock: ZUJKAS_clean_linker_0, # of connection points: 2
#     Edge 49, Type (0, 1), BuildingBlock: ZUJKAS_clean_linker_0, # of connection points: 2
#     Edge 50, Type (0, 1), BuildingBlock: ZUJKAS_clean_linker_0, # of connection points: 2
#     Edge 51, Type (0, 1), BuildingBlock: ZUJKAS_clean_linker_0, # of connection points: 2
#     Edge 52, Type (0, 1), BuildingBlock: ZUJKAS_clean_linker_0, # of connection points: 2
#     Edge 53, Type (0, 1), BuildingBlock: ZUJKAS_clean_linker_0, # of connection points: 2
#     Edge 54, Type (0, 1), BuildingBlock: ZUJKAS_clean_linker_0, # of connection points: 2
#     Edge 55, Type (0, 1), BuildingBlock: ZUJKAS_clean_linker_0, # of connection points: 2
#     Edge 56, Type (0, 1), BuildingBlock: ZUJKAS_clean_linker_0, # of connection points: 2
#     Edge 57, Type (0, 1), BuildingBlock: ZUJKAS_clean_linker_0, # of connection points: 2
#     Edge 58, Type (0, 1), BuildingBlock: ZUJKAS_clean_linker_0, # of connection points: 2
#     Edge 59, Type (0, 1), BuildingBlock: ZUJKAS_clean_linker_0, # of connection points: 2
#     Edge 60, Type (0, 1), BuildingBlock: ZUJKAS_clean_linker_0, # of connection points: 2
#     Edge 61, Type (0, 1), BuildingBlock: ZUJKAS_clean_linker_0, # of connection points: 2
#     Edge 62, Type (0, 1), BuildingBlock: ZUJKAS_clean_linker_0, # of connection points: 2
#     Edge 63, Type (0, 1), BuildingBlock: ZUJKAS_clean_linker_0, # of connection points: 2
#     Edge 64, Type (0, 1), BuildingBlock: ZUJKAS_clean_linker_0, # of connection points: 2
#     Edge 65, Type (0, 1), BuildingBlock: ZUJKAS_clean_linker_0, # of connection points: 2
#     Edge 66, Type (0, 1), BuildingBlock: ZUJKAS_clean_linker_0, # of connection points: 2
#     Edge 67, Type (0, 1), BuildingBlock: ZUJKAS_clean_linker_0, # of connection points: 2
#     Edge 68, Type (0, 1), BuildingBlock: ZUJKAS_clean_linker_0, # of connection points: 2
#     Edge 69, Type (0, 1), BuildingBlock: ZUJKAS_clean_linker_0, # of connection points: 2
#     Edge 70, Type (0, 1), BuildingBlock: ZUJKAS_clean_linker_0, # of connection points: 2
#     Edge 71, Type (0, 1), BuildingBlock: ZUJKAS_clean_linker_0, # of connection points: 2
#     Edge 72, Type (0, 1), BuildingBlock: ZUJKAS_clean_linker_0, # of connection points: 2
#     Edge 73, Type (0, 1), BuildingBlock: ZUJKAS_clean_linker_0, # of connection points: 2
#     Edge 74, Type (0, 1), BuildingBlock: ZUJKAS_clean_linker_0, # of connection points: 2
#     Edge 75, Type (0, 1), BuildingBlock: ZUJKAS_clean_linker_0, # of connection points: 2
#     Edge 76, Type (0, 1), BuildingBlock: ZUJKAS_clean_linker_0, # of connection points: 2
#     Edge 77, Type (0, 1), BuildingBlock: ZUJKAS_clean_linker_0, # of connection points: 2
#     Edge 78, Type (0, 1), BuildingBlock: ZUJKAS_clean_linker_0, # of connection points: 2
#     Edge 79, Type (0, 1), BuildingBlock: ZUJKAS_clean_linker_0, # of connection points: 2
#     Edge 80, Type (0, 1), BuildingBlock: ZUJKAS_clean_linker_0, # of connection points: 2
# Relax obj value: 0.085
# Max RMSD: 0.253
# Mean RMSD: 0.174
data_MOF--net-eea--node1-HISSIN_clean_sbu_0--node2-QEWDON_clean_linker_0--edge1-ZUJKAS_clean_linker_0
_symmetry_space_group_name_H-M    P1
_symmetry_Int_Tables_number       1
_symmetry_cell_setting            triclinic
loop_
_symmetry_equiv_pos_as_xyz
'x, y, z'
_cell_length_a     75.248611
_cell_length_b     75.935487
_cell_length_c     81.177762
_cell_angle_alpha  93.173995
_cell_angle_beta   93.942453
_cell_angle_gamma 119.77771
loop_
_atom_site_label
_atom_site_type_symbol
_atom_site_fract_x
_atom_site_fract_y
_atom_site_fract_z
_atom_type_partial_charge
H0 H 0.22485 0.13081 0.42582 0.0
C1 C 0.22807 0.11937 0.42061 0.0
C2 C 0.24277 0.11597 0.42924 0.0
C3 C 0.21704 0.10761 0.4056 0.0
H4 H 0.25728 0.09756 0.42945 0.0
C5 C 0.24643 0.1007 0.42264 0.0
C6 C 0.23549 0.08879 0.4077 0.0
C7 C 0.22108 0.09257 0.39916 0.0
C8 C 0.20054 0.11017 0.39698 0.0
H9 H 0.21242 0.08326 0.38772 0.0
C10 C 0.20342 0.12973 0.39529 0.0
C11 C 0.18791 0.13208 0.38681 0.0
C12 C 0.18177 0.09296 0.39028 0.0
H13 H 0.1789 0.07769 0.39167 0.0
C14 C 0.16636 0.09523 0.38188 0.0
H15 H 0.21791 0.14312 0.40019 0.0
C16 C 0.16939 0.11466 0.38009 0.0
H17 H 0.1571 0.11605 0.37368 0.0
H18 H 0.15197 0.08189 0.3768 0.0
H19 H 0.90272 0.09942 0.43636 0.0
C20 C 0.9147 0.11251 0.43132 0.0
C21 C 0.92092 0.1323 0.43845 0.0
C22 C 0.92427 0.1095 0.41805 0.0
H23 H 0.94225 0.16443 0.43791 0.0
C24 C 0.93682 0.14919 0.43205 0.0
C25 C 0.9466 0.14645 0.41882 0.0
C26 C 0.93996 0.12658 0.41175 0.0
C27 C 0.91883 0.08861 0.41131 0.0
H28 H 0.94713 0.12438 0.40131 0.0
C29 C 0.89816 0.07267 0.40852 0.0
C30 C 0.89327 0.05291 0.40221 0.0
C31 C 0.93455 0.08451 0.40778 0.0
H32 H 0.9506 0.09632 0.41007 0.0
C33 C 0.92977 0.06504 0.40146 0.0
H34 H 0.88594 0.07562 0.41125 0.0
C35 C 0.90932 0.04935 0.39865 0.0
H36 H 0.90607 0.03446 0.3935 0.0
H37 H 0.942 0.0621 0.39873 0.0
H38 H 0.91796 0.8016 0.45303 0.0
C39 C 0.905 0.80116 0.44589 0.0
C40 C 0.88498 0.7892 0.45039 0.0
C41 C 0.90857 0.81392 0.43312 0.0
H42 H 0.85303 0.78044 0.445 0.0
C43 C 0.86843 0.78948 0.44146 0.0
C44 C 0.87166 0.80197 0.42856 0.0
C45 C 0.89182 0.81413 0.42448 0.0
C46 C 0.92989 0.82911 0.43027 0.0
H47 H 0.89462 0.82408 0.41471 0.0
C48 C 0.94439 0.82332 0.42637 0.0
C49 C 0.96462 0.83828 0.42394 0.0
C50 C 0.93581 0.84988 0.43171 0.0
H51 H 0.92499 0.8547 0.4348 0.0
C52 C 0.95579 0.86466 0.42944 0.0
H53 H 0.93994 0.80733 0.42518 0.0
C54 C 0.97011 0.85896 0.42559 0.0
H55 H 0.98543 0.87075 0.4236 0.0
H56 H 0.96019 0.88062 0.43061 0.0
H57 H 0.11419 0.20162 0.59456 0.0
C58 C 0.10161 0.2019 0.60009 0.0
C59 C 0.09491 0.21529 0.59502 0.0
C60 C 0.0916 0.18827 0.61177 0.0
H61 H 0.07254 0.22487 0.5978 0.0
C62 C 0.07827 0.21517 0.6021 0.0
C63 C 0.06814 0.20168 0.61389 0.0
C64 C 0.07509 0.18844 0.61871 0.0
C65 C 0.09698 0.17251 0.61572 0.0
H66 H 0.06753 0.17806 0.62787 0.0
C67 C 0.11745 0.17762 0.62074 0.0
C68 C 0.12192 0.16237 0.62507 0.0
C69 C 0.08121 0.15201 0.6146 0.0
H70 H 0.06541 0.14766 0.61057 0.0
C71 C 0.08564 0.13687 0.61848 0.0
H72 H 0.12966 0.19343 0.62183 0.0
C73 C 0.10579 0.14197 0.62372 0.0
H74 H 0.10879 0.12986 0.62662 0.0
H75 H 0.07339 0.12111 0.61748 0.0
H76 H 0.7974 0.91166 0.62334 0.0
C77 C 0.7946 0.89734 0.62765 0.0
C78 C 0.78099 0.87891 0.61788 0.0
C79 C 0.80489 0.89738 0.6428 0.0
H80 H 0.76781 0.84619 0.61575 0.0
C81 C 0.77783 0.86044 0.62339 0.0
C82 C 0.78796 0.86025 0.63847 0.0
C83 C 0.80123 0.87872 0.64817 0.0
C84 C 0.81992 0.91679 0.6529 0.0
H85 H 0.80915 0.8786 0.65979 0.0
C86 C 0.81579 0.93286 0.65505 0.0
C87 C 0.82972 0.95093 0.66508 0.0
C88 C 0.83842 0.91922 0.66069 0.0
H89 H 0.8423 0.90733 0.65899 0.0
C90 C 0.85226 0.93713 0.67067 0.0
H91 H 0.80151 0.93116 0.64931 0.0
C92 C 0.84793 0.95289 0.67294 0.0
H93 H 0.85898 0.96675 0.6806 0.0
H94 H 0.86643 0.93883 0.67661 0.0
H95 H 0.09143 0.87576 0.6072 0.0
C96 C 0.10596 0.88846 0.61291 0.0
C97 C 0.12447 0.89267 0.60652 0.0
C98 C 0.10604 0.90121 0.62617 0.0
H99 H 0.1574 0.91328 0.60891 0.0
C100 C 0.14311 0.90953 0.61394 0.0
C101 C 0.14343 0.9222 0.62735 0.0
C102 C 0.12484 0.91783 0.63344 0.0
C103 C 0.08649 0.89857 0.63152 0.0
H104 H 0.12486 0.92788 0.64348 0.0
C105 C 0.07105 0.87965 0.63576 0.0
C106 C 0.05294 0.87775 0.64145 0.0
C107 C 0.08341 0.91538 0.63259 0.0
H108 H 0.09494 0.93003 0.6292 0.0
C109 C 0.06537 0.91346 0.63789 0.0
H110 H 0.07345 0.86669 0.63516 0.0
C111 C 0.05026 0.89483 0.64233 0.0
H112 H 0.03633 0.89373 0.64632 0.0
H113 H 0.0631 0.92648 0.63858 0.0
H114 H 0.88936 0.45866 0.75327 0.0
C115 C 0.89273 0.44747 0.74775 0.0
C116 C 0.90609 0.44261 0.75675 0.0
C117 C 0.88336 0.43761 0.7318 0.0
H118 H 0.91904 0.42288 0.75698 0.0
C119 C 0.90978 0.42755 0.7497 0.0
C120 C 0.90061 0.41763 0.73377 0.0
C121 C 0.88788 0.42318 0.72478 0.0
C122 C 0.86816 0.44157 0.7226 0.0
H123 H 0.88123 0.41607 0.71228 0.0
C124 C 0.87153 0.4615 0.72241 0.0
C125 C 0.85731 0.46514 0.7133 0.0
C126 C 0.85014 0.42527 0.7138 0.0
H127 H 0.84687 0.40969 0.71398 0.0
C128 C 0.83601 0.42885 0.70477 0.0
H129 H 0.88544 0.47424 0.72896 0.0
C130 C 0.83957 0.44866 0.70445 0.0
H131 H 0.82829 0.45108 0.69748 0.0
H132 H 0.8222 0.4162 0.69805 0.0
H133 H 0.57017 0.43305 0.76885 0.0
C134 C 0.58208 0.44653 0.76419 0.0
C135 C 0.5881 0.46596 0.7721 0.0
C136 C 0.59165 0.44442 0.75051 0.0
H137 H 0.60942 0.4983 0.77274 0.0
C138 C 0.60403 0.48337 0.76627 0.0
C139 C 0.61383 0.48153 0.75273 0.0
C140 C 0.60717 0.4621 0.74471 0.0
C141 C 0.58625 0.42394 0.74256 0.0
H142 H 0.61425 0.46079 0.73389 0.0
C143 C 0.56577 0.40749 0.74047 0.0
C144 C 0.56087 0.38836 0.73252 0.0
C145 C 0.60183 0.42081 0.73688 0.0
H146 H 0.61783 0.43282 0.73872 0.0
C147 C 0.59707 0.4021 0.72879 0.0
H148 H 0.55369 0.4096 0.74502 0.0
C149 C 0.57679 0.38607 0.72647 0.0
H150 H 0.57362 0.37188 0.71982 0.0
H151 H 0.60917 0.40002 0.72427 0.0
H152 H 0.59612 0.13929 0.78535 0.0
C153 C 0.58166 0.13718 0.77964 0.0
C154 C 0.56305 0.12319 0.78549 0.0
C155 C 0.58167 0.14895 0.76684 0.0
H156 H 0.53011 0.1106 0.78306 0.0
C157 C 0.54441 0.12104 0.77836 0.0
C158 C 0.5441 0.13277 0.76569 0.0
C159 C 0.56278 0.14639 0.75984 0.0
C160 C 0.60131 0.16509 0.76147 0.0
H161 H 0.5627 0.15561 0.75015 0.0
C162 C 0.6177 0.16165 0.75857 0.0
C163 C 0.63579 0.17699 0.75276 0.0
C164 C 0.60349 0.18422 0.75898 0.0
H165 H 0.59147 0.18757 0.7615 0.0
C166 C 0.62116 0.19931 0.75319 0.0
H167 H 0.61627 0.14707 0.76069 0.0
C168 C 0.63705 0.1957 0.74993 0.0
H169 H 0.65025 0.20762 0.74495 0.0
H170 H 0.62249 0.21385 0.7511 0.0
H171 H 0.7797 0.53587 0.92737 0.0
C172 C 0.76756 0.53664 0.93323 0.0
C173 C 0.76024 0.54928 0.92747 0.0
C174 C 0.75839 0.52403 0.94576 0.0
H175 H 0.73789 0.5589 0.93007 0.0
C176 C 0.74377 0.54941 0.93461 0.0
C177 C 0.73448 0.53702 0.94722 0.0
C178 C 0.7421 0.52461 0.95283 0.0
C179 C 0.76461 0.5091 0.95071 0.0
H180 H 0.73527 0.51526 0.96275 0.0
C181 C 0.78552 0.51443 0.95317 0.0
C182 C 0.79103 0.5 0.95789 0.0
C183 C 0.74933 0.48912 0.95286 0.0
H184 H 0.73314 0.48439 0.95073 0.0
C185 C 0.75469 0.47487 0.95757 0.0
H186 H 0.79742 0.52974 0.95146 0.0
C187 C 0.77532 0.48023 0.96015 0.0
H188 H 0.77897 0.46891 0.96414 0.0
H189 H 0.74277 0.45958 0.95928 0.0
H190 H 0.46365 0.24343 0.96316 0.0
C191 C 0.45989 0.22954 0.96876 0.0
C192 C 0.44631 0.21056 0.95973 0.0
C193 C 0.46878 0.2306 0.98487 0.0
H194 H 0.43253 0.17798 0.95943 0.0
C195 C 0.44207 0.19256 0.96676 0.0
C196 C 0.451 0.19335 0.98275 0.0
C197 C 0.46377 0.21242 0.99186 0.0
C198 C 0.48374 0.25053 0.99437 0.0
H199 H 0.47001 0.21313 1.00447 0.0
C200 C 0.48074 0.26738 0.99401 0.0
C201 C 0.49464 0.28607 1.00339 0.0
C202 C 0.5011 0.25271 1.00406 0.0
H203 H 0.50416 0.24022 1.00433 0.0
C204 C 0.51484 0.27111 0.01345 0.0
H205 H 0.46755 0.26591 0.98645 0.0
C206 C 0.51161 0.28765 0.01323 0.0
H207 H 0.52236 0.30162 0.02089 0.0
H208 H 0.52803 0.27255 0.02097 0.0
H209 H 0.75796 0.21106 0.92922 0.0
C210 C 0.77091 0.22379 0.93676 0.0
C211 C 0.79114 0.23015 0.93318 0.0
C212 C 0.76724 0.23489 0.94915 0.0
H213 H 0.8233 0.25221 0.93999 0.0
C214 C 0.80769 0.24717 0.94272 0.0
C215 C 0.80426 0.25839 0.95516 0.0
C216 C 0.78395 0.25214 0.95827 0.0
C217 C 0.74595 0.22998 0.95135 0.0
H218 H 0.78107 0.26083 0.96768 0.0
C219 C 0.73117 0.21067 0.95546 0.0
C220 C 0.71097 0.20638 0.95743 0.0
C221 C 0.74039 0.2449 0.94919 0.0
H222 H 0.75152 0.25983 0.94597 0.0
C223 C 0.72039 0.24064 0.95095 0.0
H224 H 0.73541 0.19913 0.9572 0.0
C225 C 0.70575 0.22153 0.95503 0.0
H226 H 0.69042 0.21873 0.95664 0.0
H227 H 0.71623 0.25222 0.94923 0.0
H228 H 0.5574 0.79935 0.08125 0.0
C229 C 0.55999 0.78737 0.07629 0.0
C230 C 0.57219 0.78165 0.08596 0.0
C231 C 0.55067 0.77726 0.06039 0.0
H232 H 0.58315 0.76029 0.08733 0.0
C233 C 0.57482 0.76558 0.07957 0.0
C234 C 0.56573 0.75546 0.06369 0.0
C235 C 0.55413 0.76177 0.05408 0.0
C236 C 0.53645 0.78189 0.05047 0.0
H237 H 0.54751 0.7544 0.04163 0.0
C238 C 0.54136 0.80213 0.04888 0.0
C239 C 0.52826 0.80617 0.03859 0.0
C240 C 0.51795 0.76579 0.04208 0.0
H241 H 0.51354 0.75005 0.04334 0.0
C242 C 0.50489 0.76979 0.032 0.0
H243 H 0.55561 0.81469 0.05518 0.0
C244 C 0.51005 0.78984 0.03015 0.0
H245 H 0.49963 0.79262 0.02232 0.0
H246 H 0.49072 0.75729 0.0256 0.0
H247 H 0.23763 0.76937 0.10745 0.0
C248 C 0.2493 0.78244 0.10217 0.0
C249 C 0.25535 0.80222 0.10918 0.0
C250 C 0.25855 0.7794 0.08867 0.0
H251 H 0.27574 0.83439 0.10792 0.0
C252 C 0.2708 0.81911 0.10244 0.0
C253 C 0.28027 0.81642 0.08895 0.0
C254 C 0.27386 0.79651 0.08206 0.0
C255 C 0.25305 0.75843 0.08198 0.0
H256 H 0.28119 0.79431 0.07174 0.0
C257 C 0.23248 0.74219 0.08027 0.0
C258 C 0.22748 0.72235 0.07412 0.0
C259 C 0.26857 0.75449 0.07748 0.0
H260 H 0.28459 0.76645 0.07899 0.0
C261 C 0.2637 0.73497 0.07122 0.0
H262 H 0.22039 0.74498 0.08377 0.0
C263 C 0.24335 0.71902 0.0695 0.0
H264 H 0.24003 0.7041 0.06437 0.0
H265 H 0.27577 0.73217 0.06772 0.0
H266 H 0.25808 0.46825 0.11817 0.0
C267 C 0.24458 0.46766 0.11187 0.0
C268 C 0.22496 0.4547 0.11674 0.0
C269 C 0.24699 0.48062 0.09945 0.0
H270 H 0.19259 0.44498 0.11258 0.0
C271 C 0.20771 0.45457 0.10871 0.0
C272 C 0.20983 0.46731 0.09619 0.0
C273 C 0.22952 0.48019 0.09157 0.0
C274 C 0.26785 0.49638 0.09607 0.0
H275 H 0.2314 0.49053 0.08228 0.0
C276 C 0.28277 0.4913 0.09191 0.0
C277 C 0.30259 0.50671 0.08905 0.0
C278 C 0.27296 0.51693 0.09732 0.0
H279 H 0.26182 0.52124 0.10064 0.0
C280 C 0.29255 0.53218 0.0946 0.0
H281 H 0.27895 0.47549 0.09088 0.0
C282 C 0.30728 0.52715 0.09051 0.0
H283 H 0.32229 0.53928 0.08819 0.0
H284 H 0.29632 0.54796 0.09563 0.0
H285 H 0.44223 0.87128 0.26074 0.0
C286 C 0.42985 0.87196 0.26628 0.0
C287 C 0.42381 0.88583 0.26127 0.0
C288 C 0.41956 0.85845 0.27796 0.0
H289 H 0.40272 0.89693 0.26454 0.0
C290 C 0.40754 0.88637 0.26843 0.0
C291 C 0.39709 0.87302 0.28021 0.0
C292 C 0.40328 0.85915 0.2849 0.0
C293 C 0.42469 0.84252 0.28198 0.0
H294 H 0.39508 0.84848 0.29368 0.0
C295 C 0.44529 0.84734 0.28579 0.0
C296 C 0.4499 0.83193 0.28912 0.0
C297 C 0.4088 0.82215 0.28161 0.0
H298 H 0.39286 0.81797 0.27852 0.0
C299 C 0.41331 0.80688 0.28489 0.0
H300 H 0.45767 0.863 0.28612 0.0
C301 C 0.43368 0.81168 0.28859 0.0
H302 H 0.43674 0.79957 0.29129 0.0
H303 H 0.40095 0.79124 0.28454 0.0
H304 H 0.13535 0.5816 0.29226 0.0
C305 C 0.13153 0.56699 0.29652 0.0
C306 C 0.11761 0.54898 0.2864 0.0
C307 C 0.14072 0.56617 0.31195 0.0
H308 H 0.10296 0.51613 0.28371 0.0
C309 C 0.1132 0.53004 0.29167 0.0
C310 C 0.1224 0.52897 0.3069 0.0
C311 C 0.13577 0.54703 0.31708 0.0
C312 C 0.15586 0.58514 0.32261 0.0
H313 H 0.1428 0.54617 0.32888 0.0
C314 C 0.15309 0.60217 0.32407 0.0
C315 C 0.16706 0.61989 0.33458 0.0
C316 C 0.1731 0.58622 0.33161 0.0
H317 H 0.17608 0.57367 0.33046 0.0
C318 C 0.18685 0.60358 0.34216 0.0
H319 H 0.14005 0.6016 0.31701 0.0
C320 C 0.18382 0.62024 0.34376 0.0
H321 H 0.19458 0.63334 0.35229 0.0
H322 H 0.19992 0.60412 0.34916 0.0
H323 H 0.42365 0.54298 0.26535 0.0
C324 C 0.43737 0.55518 0.27257 0.0
C325 C 0.45695 0.56081 0.2677 0.0
C326 C 0.43531 0.56643 0.28588 0.0
H327 H 0.48964 0.58117 0.27366 0.0
C328 C 0.47447 0.57717 0.27696 0.0
C329 C 0.47267 0.58894 0.28998 0.0
C330 C 0.45297 0.58332 0.29445 0.0
C331 C 0.41465 0.5622 0.28961 0.0
H332 H 0.45122 0.59253 0.30417 0.0
C333 C 0.39981 0.54287 0.29362 0.0
C334 C 0.38022 0.53919 0.2971 0.0
C335 C 0.40973 0.57777 0.28905 0.0
H336 H 0.42089 0.59272 0.2859 0.0
C337 C 0.39032 0.57412 0.29234 0.0
H338 H 0.40353 0.53081 0.29411 0.0
C339 C 0.37564 0.55499 0.29633 0.0
H340 H 0.36079 0.55266 0.29912 0.0
H341 H 0.38666 0.5862 0.29186 0.0
Eu342 Eu 0.4916 0.00233 1.00572 0.0
Eu343 Eu 0.50857 0.01858 0.04544 0.0
C344 C 0.48282 0.03386 0.02488 0.0
C345 C 0.49068 0.00061 0.95884 0.0
C346 C 0.51209 0.01364 0.95999 0.0
C347 C 0.48817 0.00511 0.92956 0.0
C348 C 0.52149 0.02244 0.94601 0.0
C349 C 0.47882 0.99627 0.94353 0.0
C350 C 0.50961 0.01849 0.93064 0.0
C351 C 0.48042 0.99288 0.97375 0.0
O352 O 0.47525 0.99409 0.04491 0.0
O353 O 0.46846 0.97676 0.01892 0.0
C354 C 0.46364 0.97815 0.03403 0.0
O355 O 0.51452 0.99246 0.01297 0.0
O356 O 0.5055 0.03176 0.0689 0.0
O357 O 0.52976 0.0244 0.0675 0.0
O358 O 0.50913 0.98956 0.04029 0.0
C359 C 0.51538 0.98486 0.02694 0.0
O360 O 0.51983 0.03333 1.00631 0.0
O361 O 0.53651 0.03558 0.03178 0.0
O362 O 0.50027 0.0403 0.03416 0.0
O363 O 0.48713 0.9833 0.98284 0.0
O364 O 0.47736 0.0057 0.98272 0.0
O365 O 0.47373 0.01597 0.01622 0.0
C366 C 0.51383 0.01921 0.0922 0.0
C367 C 0.50193 0.99785 0.09095 0.0
C368 C 0.51295 0.02038 0.12207 0.0
C369 C 0.4956 0.98781 0.10519 0.0
C370 C 0.51932 0.0304 0.10782 0.0
C371 C 0.50094 0.99895 0.12094 0.0
C372 C 0.51982 0.02986 0.0772 0.0
C373 C 0.53663 0.04141 0.01681 0.0
H374 H 0.52149 0.0173 0.97177 0.0
H375 H 0.47846 0.00198 0.91804 0.0
H376 H 0.53803 0.03247 0.94729 0.0
H377 H 0.46224 0.98646 0.94247 0.0
H378 H 0.49744 0.98896 0.07895 0.0
H379 H 0.51709 0.02947 0.13394 0.0
H380 H 0.48661 0.97131 0.10384 0.0
H381 H 0.52835 0.04691 0.10898 0.0
Eu382 Eu 0.01419 0.4975 1.00468 0.0
Eu383 Eu 0.99969 0.4935 0.04235 0.0
C384 C 0.97663 0.45579 0.01386 0.0
C385 C 0.01479 0.49846 0.95779 0.0
C386 C 0.99325 0.48745 0.95448 0.0
C387 C 0.01749 0.50504 0.92891 0.0
C388 C 0.98387 0.4851 0.93841 0.0
C389 C 0.02683 0.50731 0.94496 0.0
C390 C 0.99589 0.49382 0.92542 0.0
C391 C 0.02489 0.50107 0.97457 0.0
O392 O 0.0301 0.49439 0.04501 0.0
O393 O 0.02998 0.48292 0.01823 0.0
C394 C 0.03707 0.48664 0.03405 0.0
O395 O 0.04012 0.52394 0.0209 0.0
O396 O 0.99364 0.47838 0.06509 0.0
O397 O 0.98808 0.50356 0.06253 0.0
O398 O 0.0216 0.52707 0.0409 0.0
C399 C 0.03822 0.53468 0.03315 0.0
O400 O 0.99352 0.51114 1.00574 0.0
O401 O 0.9742 0.49294 0.02571 0.0
O402 O 0.98414 0.46145 0.02956 0.0
O403 O 0.02688 0.51623 0.98444 0.0
O404 O 0.01899 0.48451 0.98196 0.0
O405 O 0.98334 0.46869 1.00259 0.0
C406 C 0.99955 0.49988 0.08927 0.0
C407 C 0.01762 0.51902 0.09196 0.0
C408 C 1.00198 0.49637 0.11873 0.0
C409 C 0.02778 0.52682 0.10799 0.0
C410 C 0.99178 0.48866 0.10274 0.0
C411 C 0.02014 0.51553 0.12157 0.0
C412 C 0.98905 0.49106 0.07247 0.0
C413 C 0.97672 0.50395 0.01324 0.0
H414 H 0.98372 0.4806 0.9643 0.0
H415 H 0.02718 0.51224 0.91928 0.0
H416 H 0.96723 0.47618 0.93612 0.0
H417 H 0.04348 0.51601 0.94737 0.0
H418 H 0.02395 0.52787 0.08168 0.0
H419 H 0.99587 0.48707 0.12881 0.0
H420 H 0.04159 0.5417 0.10973 0.0
H421 H 0.97795 0.47378 0.10084 0.0
Eu422 Eu 0.52425 0.5178 0.03692 0.0
Eu423 Eu 0.50573 0.51524 0.9981 0.0
C424 C 0.5308 0.55695 0.02064 0.0
C425 C 0.52832 0.51686 0.08393 0.0
C426 C 0.5396 0.52991 0.09827 0.0
C427 C 0.4991 0.49863 0.09956 0.0
C428 C 0.53066 0.52756 0.1131 0.0
C429 C 0.50802 0.50112 0.08465 0.0
C430 C 0.51024 0.51197 0.11395 0.0
C431 C 0.53751 0.52089 0.06816 0.0
O432 O 0.5393 0.52502 0.99722 0.0
O433 O 0.54683 0.51499 0.02173 0.0
C434 C 0.5513 0.521 1.00693 0.0
O435 O 0.50147 0.4848 0.02875 0.0
O436 O 0.5075 0.53033 0.97568 0.0
O437 O 0.48403 0.4987 0.97602 0.0
O438 O 0.50544 0.48592 1.00107 0.0
C439 C 0.49996 0.47571 0.01408 0.0
O440 O 0.49503 0.51884 0.03873 0.0
O441 O 0.47821 0.50494 1.01253 0.0
O442 O 0.51323 0.54524 1.01147 0.0
O443 O 0.53264 0.50516 0.0576 0.0
O444 O 0.53745 0.53579 0.06097 0.0
O445 O 0.54073 0.54893 0.02798 0.0
C446 C 0.49907 0.50853 0.95122 0.0
C447 C 0.51446 0.50322 0.95132 0.0
C448 C 0.49535 0.50474 0.92108 0.0
C449 C 0.52029 0.49871 0.9364 0.0
C450 C 0.48952 0.50923 0.93604 0.0
C451 C 0.51083 0.49945 0.92108 0.0
C452 C 0.49327 0.51368 0.96691 0.0
C453 C 0.47821 0.51039 0.0282 0.0
H454 H 0.55519 0.5423 0.09789 0.0
H455 H 0.48344 0.48633 0.09975 0.0
H456 H 0.53961 0.53843 0.12376 0.0
H457 H 0.49896 0.49097 0.07366 0.0
H458 H 0.52208 0.50271 0.96297 0.0
H459 H 0.4876 0.50523 0.90951 0.0
H460 H 0.53246 0.495 0.93687 0.0
H461 H 0.4776 0.5133 0.93575 0.0
Eu462 Eu 0.16073 0.33169 0.3392 0.0
Eu463 Eu 0.17428 0.35001 0.37896 0.0
C464 C 0.15474 0.36835 0.35394 0.0
C465 C 0.15745 0.32985 0.29218 0.0
C466 C 0.16679 0.35115 0.29294 0.0
C467 C 0.16003 0.32839 0.26253 0.0
C468 C 0.17279 0.36103 0.27859 0.0
C469 C 0.15401 0.31853 0.2769 0.0
C470 C 0.16965 0.34979 0.26321 0.0
C471 C 0.15256 0.3195 0.30739 0.0
O472 O 0.13997 0.32816 0.37597 0.0
O473 O 0.13642 0.30756 0.35268 0.0
C474 C 0.12945 0.311 0.36618 0.0
O475 O 0.17946 0.31869 0.35028 0.0
O476 O 0.16893 0.3626 0.40169 0.0
O477 O 0.1948 0.3575 0.40178 0.0
O478 O 0.17252 0.31963 0.37718 0.0
C479 C 0.17858 0.31246 0.36511 0.0
O480 O 0.18849 0.3629 0.34006 0.0
O481 O 0.20341 0.36519 0.36625 0.0
O482 O 0.16919 0.37288 0.36615 0.0
O483 O 0.16833 0.32126 0.31662 0.0
O484 O 0.13994 0.32199 0.31617 0.0
O485 O 0.14642 0.3511 0.34429 0.0
C486 C 0.17733 0.351 0.42566 0.0
C487 C 0.16657 0.3296 0.42426 0.0
C488 C 0.17585 0.35156 0.45547 0.0
C489 C 0.16056 0.31924 0.43838 0.0
C490 C 0.18191 0.36191 0.44132 0.0
C491 C 0.16509 0.33008 0.45419 0.0
C492 C 0.1835 0.36187 0.41077 0.0
C493 C 0.20467 0.37095 0.35118 0.0
H494 H 0.16968 0.36015 0.30469 0.0
H495 H 0.15762 0.31926 0.25098 0.0
H496 H 0.17989 0.37748 0.27955 0.0
H497 H 0.14702 0.30209 0.27613 0.0
H498 H 0.16285 0.32091 0.41224 0.0
H499 H 0.17934 0.36041 0.46738 0.0
H500 H 0.15257 0.30273 0.43692 0.0
H501 H 0.19009 0.37844 0.4426 0.0
Eu502 Eu 0.676 0.83198 0.33509 0.0
Eu503 Eu 0.66212 0.82933 0.37302 0.0
C504 C 0.6396 0.79005 0.34604 0.0
C505 C 0.67692 0.83141 0.28792 0.0
C506 C 0.65542 0.81987 0.28446 0.0
C507 C 0.67978 0.83713 0.25889 0.0
C508 C 0.64612 0.817 0.26825 0.0
C509 C 0.68902 0.83993 0.27506 0.0
C510 C 0.65821 0.82572 0.25528 0.0
C511 C 0.68691 0.83594 0.30498 0.0
O512 O 0.68432 0.81739 0.37339 0.0
O513 O 0.70157 0.83192 0.35114 0.0
C514 C 0.70011 0.82289 0.36475 0.0
O515 O 0.69013 0.86404 0.34762 0.0
O516 O 0.65098 0.81295 0.39469 0.0
O517 O 0.65624 0.84369 0.39432 0.0
O518 O 0.69314 0.8576 0.37445 0.0
C519 C 0.69895 0.87016 0.36295 0.0
O520 O 0.64457 0.82867 0.33221 0.0
O521 O 0.64592 0.84275 0.35825 0.0
O522 O 0.63734 0.80053 0.35829 0.0
O523 O 0.68572 0.84991 0.31408 0.0
O524 O 0.68376 0.82044 0.31307 0.0
O525 O 0.65536 0.7984 0.3373 0.0
C526 C 0.66253 0.83393 0.42 0.0
C527 C 0.68366 0.8407 0.42258 0.0
C528 C 0.66177 0.838 0.44973 0.0
C529 C 0.69381 0.84609 0.43869 0.0
C530 C 0.65165 0.83262 0.43362 0.0
C531 C 0.68296 0.8448 0.45246 0.0
C532 C 0.65178 0.82849 0.40316 0.0
C533 C 0.63781 0.83715 0.34268 0.0
H534 H 0.64584 0.81332 0.29432 0.0
H535 H 0.68954 0.84435 0.24929 0.0
H536 H 0.6295 0.80793 0.26588 0.0
H537 H 0.70564 0.84909 0.27758 0.0
H538 H 0.69227 0.84179 0.41214 0.0
H539 H 0.65304 0.8371 0.46003 0.0
H540 H 0.71007 0.85103 0.44038 0.0
H541 H 0.63534 0.82752 0.43179 0.0
Eu542 Eu 0.18617 0.84889 0.37264 0.0
Eu543 Eu 0.16764 0.84625 0.33382 0.0
C544 C 0.19214 0.88807 0.35657 0.0
C545 C 0.18895 0.84844 0.41951 0.0
C546 C 0.17331 0.85318 0.42125 0.0
C547 C 0.18688 0.83932 0.44781 0.0
C548 C 0.16481 0.85138 0.43625 0.0
C549 C 0.1955 0.84129 0.43281 0.0
C550 C 0.17159 0.8446 0.4498 0.0
C551 C 0.19863 0.8512 0.40398 0.0
O552 O 0.20135 0.85664 0.33296 0.0
O553 O 0.2095 0.84725 0.35762 0.0
C554 C 0.21374 0.85316 0.34274 0.0
O555 O 0.16457 0.81578 0.36386 0.0
O556 O 0.16879 0.86144 0.31158 0.0
O557 O 0.14618 0.82946 0.31167 0.0
O558 O 0.16892 0.81761 0.3363 0.0
C559 C 0.16403 0.80719 0.34922 0.0
O560 O 0.157 0.85008 0.37429 0.0
O561 O 0.14009 0.83503 0.34835 0.0
O562 O 0.17486 0.87624 0.34707 0.0
O563 O 0.19202 0.83488 0.39367 0.0
O564 O 0.20105 0.86683 0.39643 0.0
O565 O 0.20212 0.88029 0.3642 0.0
C566 C 0.16126 0.84016 0.287 0.0
C567 C 0.17716 0.83555 0.28713 0.0
C568 C 0.15821 0.83726 0.25688 0.0
C569 C 0.18359 0.83188 0.27223 0.0
C570 C 0.15178 0.84094 0.27181 0.0
C571 C 0.17423 0.83274 0.25691 0.0
C572 C 0.15501 0.84467 0.30269 0.0
C573 C 0.14006 0.84095 0.36389 0.0
H574 H 0.16792 0.85863 0.4111 0.0
H575 H 0.19224 0.83371 0.45785 0.0
H576 H 0.15332 0.85588 0.43734 0.0
H577 H 0.20742 0.83738 0.43164 0.0
H578 H 0.18472 0.835 0.29878 0.0
H579 H 0.15052 0.83782 0.2453 0.0
H580 H 0.19617 0.82876 0.27274 0.0
H581 H 0.13949 0.84449 0.27151 0.0
Eu582 Eu 0.82783 0.66408 0.67228 0.0
Eu583 Eu 0.84192 0.68287 0.71195 0.0
C584 C 0.82293 0.70152 0.68677 0.0
C585 C 0.82334 0.66163 0.6252 0.0
C586 C 0.83028 0.68257 0.62558 0.0
C587 C 0.8269 0.66036 0.59571 0.0
C588 C 0.83547 0.69234 0.61109 0.0
C589 C 0.82163 0.65059 0.61019 0.0
C590 C 0.83397 0.68137 0.596 0.0
C591 C 0.81911 0.6515 0.64054 0.0
O592 O 0.80752 0.6618 0.70912 0.0
O593 O 0.8034 0.64054 0.68613 0.0
C594 C 0.79666 0.64452 0.69956 0.0
O595 O 0.84617 0.65074 0.68341 0.0
O596 O 0.83751 0.69652 0.73452 0.0
O597 O 0.86232 0.68981 0.73478 0.0
O598 O 0.83955 0.6522 0.71036 0.0
C599 C 0.84536 0.64473 0.69831 0.0
O600 O 0.85603 0.69496 0.67283 0.0
O601 O 0.87088 0.69752 0.69912 0.0
O602 O 0.83736 0.70593 0.69895 0.0
O603 O 0.83523 0.6537 0.64954 0.0
O604 O 0.8065 0.65371 0.64954 0.0
O605 O 0.8143 0.6842 0.6772 0.0
C606 C 0.84506 0.68458 0.75864 0.0
C607 C 0.82836 0.66455 0.75736 0.0
C608 C 0.84966 0.6841 0.78849 0.0
C609 C 0.8223 0.65438 0.77156 0.0
C610 C 0.85568 0.69429 0.77426 0.0
C611 C 0.83288 0.66402 0.78731 0.0
C612 C 0.85162 0.69512 0.74367 0.0
C613 C 0.8722 0.70304 0.68398 0.0
H614 H 0.83197 0.69141 0.63712 0.0
H615 H 0.82536 0.65143 0.58426 0.0
H616 H 0.84109 0.70858 0.61178 0.0
H617 H 0.81642 0.63444 0.60971 0.0
H618 H 0.82009 0.65674 0.74536 0.0
H619 H 0.858 0.69203 0.80044 0.0
H620 H 0.80951 0.63885 0.77018 0.0
H621 H 0.86863 0.70974 0.77546 0.0
Eu622 Eu 0.34734 0.15995 0.67424 0.0
Eu623 Eu 0.33326 0.16075 0.71196 0.0
C624 C 0.31259 0.12032 0.68746 0.0
C625 C 0.3506 0.16186 0.62757 0.0
C626 C 0.33922 0.17185 0.62587 0.0
C627 C 0.34792 0.15599 0.59761 0.0
C628 C 0.33212 0.1738 0.61007 0.0
C629 C 0.35508 0.15414 0.61338 0.0
C630 C 0.33616 0.16565 0.59574 0.0
C631 C 0.35667 0.15811 0.64397 0.0
O632 O 0.35623 0.14975 0.71438 0.0
O633 O 0.37255 0.16014 0.69086 0.0
C634 C 0.37148 0.15335 0.7055 0.0
O635 O 0.36101 0.19304 0.6838 0.0
O636 O 0.32172 0.14495 0.73388 0.0
O637 O 0.32733 0.17577 0.73274 0.0
O638 O 0.36316 0.1899 0.7117 0.0
C639 C 0.3689 0.20091 0.69915 0.0
O640 O 0.31785 0.16075 0.6702 0.0
O641 O 0.31636 0.17275 0.69642 0.0
O642 O 0.30856 0.13213 0.69693 0.0
O643 O 0.36724 0.17396 0.65487 0.0
O644 O 0.34229 0.1427 0.65034 0.0
O645 O 0.33032 0.12782 0.68136 0.0
C646 C 0.33348 0.16648 0.75907 0.0
C647 C 0.35149 0.18537 0.7637 0.0
C648 C 0.33517 0.15738 0.78713 0.0
C649 C 0.36117 0.19027 0.77996 0.0
C650 C 0.32542 0.15257 0.77091 0.0
C651 C 0.35314 0.17632 0.79188 0.0
C652 C 0.32297 0.16092 0.74201 0.0
C653 C 0.31014 0.16853 0.68042 0.0
H654 H 0.33553 0.17779 0.63674 0.0
H655 H 0.351 0.14919 0.58691 0.0
H656 H 0.3233 0.1815 0.6091 0.0
H657 H 0.36367 0.1462 0.61451 0.0
H658 H 0.35812 0.19638 0.75479 0.0
H659 H 0.32875 0.14611 0.79587 0.0
H660 H 0.37481 0.20509 0.78321 0.0
H661 H 0.3116 0.13787 0.76758 0.0
Eu662 Eu 0.85762 0.1805 0.70486 0.0
Eu663 Eu 0.84006 0.18008 0.66605 0.0
C664 C 0.8656 0.22094 0.68962 0.0
C665 C 0.86053 0.17771 0.7514 0.0
C666 C 0.83979 0.1723 0.75128 0.0
C667 C 0.86352 0.17886 0.78146 0.0
C668 C 0.83104 0.17057 0.76618 0.0
C669 C 0.87226 0.18068 0.76653 0.0
C670 C 0.84291 0.17416 0.78147 0.0
C671 C 0.87036 0.18183 0.73596 0.0
O672 O 0.87363 0.18969 0.66571 0.0
O673 O 0.87954 0.17698 0.68923 0.0
C674 C 0.8848 0.18422 0.6749 0.0
O675 O 0.8334 0.14825 0.69591 0.0
O676 O 0.84315 0.19594 0.6439 0.0
O677 O 0.81852 0.16465 0.64371 0.0
O678 O 0.8385 0.15002 0.66854 0.0
C679 C 0.83226 0.13939 0.68125 0.0
O680 O 0.82837 0.18131 0.7072 0.0
O681 O 0.81269 0.17216 0.68018 0.0
O682 O 0.84828 0.20996 0.67997 0.0
O683 O 0.86458 0.16618 0.72505 0.0
O684 O 0.87151 0.19746 0.72914 0.0
O685 O 0.87476 0.21223 0.69705 0.0
C686 C 0.83403 0.17465 0.61904 0.0
C687 C 0.84533 0.16452 0.6186 0.0
C688 C 0.83476 0.17657 0.58933 0.0
C689 C 0.8513 0.16041 0.6036 0.0
C690 C 0.82875 0.18061 0.60434 0.0
C691 C 0.84619 0.16649 0.58877 0.0
C692 C 0.8285 0.17979 0.63489 0.0
C693 C 0.81233 0.17556 0.6962 0.0
H694 H 0.83052 0.16996 0.73968 0.0
H695 H 0.87314 0.18196 0.79302 0.0
H696 H 0.81508 0.1667 0.76575 0.0
H697 H 0.88835 0.18499 0.76684 0.0
H698 H 0.84964 0.1599 0.62989 0.0
H699 H 0.83084 0.18175 0.57822 0.0
H700 H 0.85983 0.15238 0.60362 0.0
H701 H 0.82019 0.18862 0.60451 0.0
H702 H 0.31241 0.85013 0.10702 0.0
H703 H 0.34228 0.87816 0.0968 0.0
H704 H 0.31831 0.85047 0.04654 0.0
H705 H 0.28794 0.82282 0.05659 0.0
H706 H 0.3708 0.87492 0.07987 0.0
H707 H 0.33399 0.9092 0.04197 0.0
H708 H 0.3207 0.89142 0.05672 0.0
H709 H 0.32322 0.88233 0.03658 0.0
C710 C 0.31321 0.85024 0.09376 0.0
C711 C 0.29771 0.83423 0.08263 0.0
C712 C 0.3304 0.8662 0.08795 0.0
C713 C 0.33245 0.86655 0.07089 0.0
C714 C 0.3169 0.85075 0.05972 0.0
H715 H 0.43262 0.9447 0.01459 0.0
H716 H 0.40082 0.91725 0.02329 0.0
C717 C 0.29965 0.83481 0.06551 0.0
C718 C 0.35146 0.88277 0.06495 0.0
H719 H 0.36932 0.92084 0.03932 0.0
C720 C 0.37047 0.88502 0.07107 0.0
C721 C 0.35101 0.89586 0.05338 0.0
C722 C 0.33116 0.89475 0.04688 0.0
C723 C 0.38901 0.89989 0.06586 0.0
C724 C 0.38856 0.91302 0.05436 0.0
C725 C 0.36957 0.91069 0.04811 0.0
C726 C 0.40774 0.92964 0.04905 0.0
C727 C 0.40893 0.90126 0.07253 0.0
C728 C 0.42202 0.94577 0.06064 0.0
C729 C 0.44015 0.96146 0.05573 0.0
C730 C 0.44436 0.96137 0.03911 0.0
C731 C 0.42993 0.94521 0.0275 0.0
C732 C 0.41172 0.92954 0.03242 0.0
H733 H 0.40623 0.88711 0.07791 0.0
H734 H 0.41924 0.90416 0.06263 0.0
H735 H 0.417 0.91414 0.08248 0.0
H736 H 0.4191 0.94628 0.07349 0.0
H737 H 0.45087 0.97364 0.06503 0.0
H738 H 0.19865 0.46785 0.06341 0.0
H739 H 0.16918 0.47049 0.05167 0.0
H740 H 0.15072 0.47158 0.10064 0.0
H741 H 0.18013 0.46918 0.11247 0.0
H742 H 0.12465 0.44315 0.0557 0.0
H743 H 0.15616 0.52388 0.08088 0.0
H744 H 0.1722 0.51261 0.07862 0.0
H745 H 0.15667 0.50718 0.09553 0.0
C746 C 0.18832 0.46871 0.07166 0.0
C747 C 0.19169 0.46827 0.08886 0.0
C748 C 0.17148 0.47012 0.06493 0.0
C749 C 0.15791 0.4714 0.07532 0.0
C750 C 0.16112 0.47078 0.09245 0.0
H751 H 0.05298 0.48882 0.06591 0.0
H752 H 0.08178 0.4841 0.0751 0.0
C753 C 0.17783 0.46923 0.09916 0.0
C754 C 0.1404 0.47349 0.06836 0.0
H755 H 0.1215 0.50609 0.06872 0.0
C756 C 0.12396 0.45693 0.05841 0.0
C757 C 0.1396 0.49148 0.072 0.0
C758 C 0.15714 0.5099 0.08223 0.0
C759 C 0.10639 0.45768 0.05239 0.0
C760 C 0.10551 0.47565 0.05613 0.0
C761 C 0.12214 0.4923 0.06589 0.0
C762 C 0.08738 0.4775 0.05034 0.0
C763 C 0.08868 0.43897 0.04258 0.0
C764 C 0.08092 0.47538 0.03334 0.0
C765 C 0.06431 0.47793 0.02803 0.0
C766 C 0.05401 0.48292 0.03961 0.0
C767 C 0.06053 0.485 0.05663 0.0
C768 C 0.07703 0.48232 0.06192 0.0
H769 H 0.0894 0.42499 0.04468 0.0
H770 H 0.07365 0.43671 0.04587 0.0
H771 H 0.08935 0.4409 0.02915 0.0
H772 H 0.08896 0.47214 0.02416 0.0
H773 H 0.05983 0.47639 0.01483 0.0
H774 H 0.59883 0.7493 0.06757 0.0
H775 H 0.59962 0.71826 0.05879 0.0
H776 H 0.53642 0.68983 0.03724 0.0
H777 H 0.53515 0.7202 0.04641 0.0
H778 H 0.56983 0.67716 0.06823 0.0
H779 H 0.5689 0.68139 1.00019 0.0
H780 H 0.57792 0.70357 0.01499 0.0
H781 H 0.55077 0.68651 1.00959 0.0
C782 C 0.5851 0.73643 0.06096 0.0
C783 C 0.56697 0.73732 0.0576 0.0
C784 C 0.58565 0.71881 0.05587 0.0
C785 C 0.56818 0.70198 0.04715 0.0
C786 C 0.55018 0.70288 0.04364 0.0
H787 H 0.51173 0.578 1.01134 0.0
H788 H 0.52433 0.61436 0.0176 0.0
C789 C 0.54954 0.72031 0.04885 0.0
C790 C 0.56792 0.68276 0.04267 0.0
H791 H 0.55871 0.64868 1.0095 0.0
C792 C 0.56784 0.67102 0.05542 0.0
C793 C 0.56525 0.67493 0.02594 0.0
C794 C 0.56588 0.6873 1.01186 0.0
C795 C 0.56379 0.651 0.05185 0.0
C796 C 0.56023 0.6428 0.03507 0.0
C797 C 0.56138 0.65499 0.02234 0.0
C798 C 0.55351 0.62111 0.03048 0.0
C799 C 0.56208 0.63841 0.06605 0.0
C800 C 0.56594 0.61295 0.03536 0.0
C801 C 0.5587 0.59211 0.03194 0.0
C802 C 0.53901 0.57916 0.02339 0.0
C803 C 0.52694 0.58754 0.01798 0.0
C804 C 0.53413 0.60833 0.02152 0.0
H805 H 0.56092 0.64555 0.07794 0.0
H806 H 0.54841 0.62286 0.06344 0.0
H807 H 0.576 0.63688 0.06769 0.0
H808 H 0.58113 0.62264 0.04197 0.0
H809 H 0.56846 0.58614 0.03612 0.0
H810 H 0.84183 0.2649 0.96826 0.0
H811 H 0.87163 0.29717 0.98063 0.0
H812 H 0.83644 0.32744 0.97356 0.0
H813 H 0.80663 0.29528 0.96132 0.0
H814 H 0.89248 0.33181 0.96602 0.0
H815 H 0.86147 0.3478 0.0212 0.0
H816 H 0.84897 0.32311 1.00927 0.0
H817 H 0.84529 0.34331 1.00233 0.0
C818 C 0.84041 0.27841 0.96949 0.0
C819 C 0.82184 0.27752 0.96389 0.0
C820 C 0.85742 0.29682 0.97658 0.0
C821 C 0.85619 0.31468 0.97826 0.0
C822 C 0.83761 0.31377 0.97282 0.0
H823 H 0.9547 0.4395 0.98327 0.0
H824 H 0.92628 0.40483 0.97521 0.0
C825 C 0.82057 0.29537 0.96581 0.0
C826 C 0.87469 0.3345 0.98466 0.0
H827 H 0.89205 0.37589 0.01324 0.0
C828 C 0.89245 0.34136 0.97645 0.0
C829 C 0.87477 0.34684 0.99842 0.0
C830 C 0.85668 0.33981 1.00842 0.0
C831 C 0.91005 0.36048 0.98128 0.0
C832 C 0.90971 0.3733 0.99444 0.0
C833 C 0.89221 0.36617 1.00301 0.0
C834 C 0.92721 0.39429 0.99932 0.0
C835 C 0.92886 0.3667 0.97228 0.0
C836 C 0.93687 0.40009 0.01568 0.0
C837 C 0.95302 0.42001 0.02039 0.0
C838 C 0.95979 0.43455 1.00883 0.0
C839 C 0.95002 0.42868 0.99246 0.0
C840 C 0.93383 0.4088 0.98779 0.0
H841 H 0.92891 0.3532 0.96629 0.0
H842 H 0.92889 0.37622 0.96238 0.0
H843 H 0.94325 0.37574 0.98086 0.0
H844 H 0.93193 0.38918 0.02481 0.0
H845 H 0.96015 0.424 0.03311 0.0
H846 H 0.69962 0.50338 0.95467 0.0
H847 H 0.66927 0.50185 0.96508 0.0
H848 H 0.69683 0.56696 0.96469 0.0
H849 H 0.72771 0.56878 0.95489 0.0
H850 H 0.67858 0.55344 0.99317 0.0
H851 H 0.62494 0.5067 0.93763 0.0
H852 H 0.63863 0.49529 0.94683 0.0
H853 H 0.65257 0.51898 0.93789 0.0
C854 C 0.69939 0.51744 0.95699 0.0
C855 C 0.71615 0.53622 0.95391 0.0
C856 C 0.68187 0.51649 0.96273 0.0
C857 C 0.6806 0.53423 0.96536 0.0
C858 C 0.69741 0.55305 0.96261 0.0
H859 H 0.56672 0.53462 0.97768 0.0
H860 H 0.59851 0.53887 0.96798 0.0
C861 C 0.715 0.55404 0.9569 0.0
C862 C 0.66177 0.53312 0.9711 0.0
H863 H 0.60972 0.51062 0.9613 0.0
C864 C 0.66353 0.54416 0.98617 0.0
C865 C 0.64218 0.52126 0.96183 0.0
C866 C 0.63943 0.51004 0.94507 0.0
C867 C 0.64617 0.54329 0.99242 0.0
C868 C 0.62646 0.53072 0.98349 0.0
C869 C 0.62478 0.52006 0.96823 0.0
C870 C 0.60738 0.52849 0.98967 0.0
C871 C 0.64917 0.55608 1.00838 0.0
C872 C 0.60163 0.52101 1.00502 0.0
C873 C 0.58349 0.51865 1.01067 0.0
C874 C 0.57059 0.52353 1.00099 0.0
C875 C 0.57628 0.53078 0.98551 0.0
C876 C 0.59446 0.53321 0.97992 0.0
H877 H 0.66526 0.56898 1.01103 0.0
H878 H 0.63858 0.56231 1.00795 0.0
H879 H 0.64588 0.54646 0.01882 0.0
H880 H 0.61107 0.51678 1.01258 0.0
H881 H 0.57953 0.51287 0.02258 0.0
H882 H 0.41634 0.15507 0.97956 0.0
H883 H 0.4136 0.12375 0.98905 0.0
H884 H 0.47687 0.15781 1.01078 0.0
H885 H 0.4801 0.18876 1.00086 0.0
H886 H 0.44188 0.10906 0.97977 0.0
H887 H 0.44353 0.12269 0.04781 0.0
H888 H 0.43525 0.13488 0.03306 0.0
H889 H 0.46224 0.14428 0.03851 0.0
C890 C 0.42965 0.15589 0.98638 0.0
C891 C 0.44841 0.1745 0.98951 0.0
C892 C 0.42799 0.13804 0.9919 0.0
C893 C 0.44493 0.13864 1.00085 0.0
C894 C 0.46348 0.15718 1.00423 0.0
H895 H 0.50112 0.07445 0.0353 0.0
H896 H 0.48771 0.09728 0.03005 0.0
C897 C 0.46525 0.17489 0.99858 0.0
C898 C 0.44426 0.11979 1.00535 0.0
H899 H 0.4535 0.09863 0.03846 0.0
C900 C 0.4439 0.10639 0.99258 0.0
C901 C 0.44702 0.11658 0.02207 0.0
C902 C 0.44686 0.13026 0.03618 0.0
C903 C 0.44777 0.09065 0.9961 0.0
C904 C 0.45154 0.08802 1.01286 0.0
C905 C 0.45066 0.10072 0.02563 0.0
C906 C 0.45849 0.07361 0.01734 0.0
C907 C 0.44921 0.07794 0.98183 0.0
C908 C 0.44628 0.05266 1.01232 0.0
C909 C 0.45401 0.03961 0.01512 0.0
C910 C 0.47396 0.04728 0.02321 0.0
C911 C 0.48573 0.06809 0.02899 0.0
C912 C 0.47807 0.08115 0.02603 0.0
H913 H 0.45017 0.08474 0.96992 0.0
H914 H 0.4629 0.07616 0.98427 0.0
H915 H 0.43528 0.06254 0.98033 0.0
H916 H 0.43094 0.04647 1.00594 0.0
H917 H 0.44446 0.02358 1.01071 0.0
H918 H 0.71536 0.18612 0.98283 0.0
H919 H 0.68815 0.15555 0.9933 0.0
H920 H 0.64411 0.1518 0.95434 0.0
H921 H 0.67114 0.18216 0.94381 0.0
H922 H 0.65122 0.15329 1.00391 0.0
H923 H 0.63354 0.09264 0.95356 0.0
H924 H 0.65755 0.11665 0.95642 0.0
H925 H 0.63466 0.11516 0.94653 0.0
C926 C 0.69996 0.17847 0.9763 0.0
C927 C 0.69534 0.18651 0.96252 0.0
C928 C 0.68445 0.16111 0.98233 0.0
C929 C 0.66417 0.15133 0.97451 0.0
C930 C 0.6597 0.15894 0.96042 0.0
H931 H 0.54191 0.05919 0.98781 0.0
H932 H 0.57386 0.0854 0.97871 0.0
C933 C 0.67512 0.17635 0.95449 0.0
C934 C 0.64725 0.13423 0.98175 0.0
H935 H 0.60867 0.08474 0.97279 0.0
C936 C 0.64206 0.13819 0.99726 0.0
C937 C 0.63531 0.11463 0.97296 0.0
C938 C 0.6406 0.10939 0.9565 0.0
C939 C 0.62466 0.12332 1.00389 0.0
C940 C 0.61242 0.10381 0.99494 0.0
C941 C 0.61801 0.0997 0.97964 0.0
C942 C 0.59315 0.08779 1.00074 0.0
C943 C 0.61901 0.12899 0.02003 0.0
C944 C 0.59334 0.08025 0.01613 0.0
C945 C 0.57499 0.06533 0.02148 0.0
C946 C 0.55613 0.0575 1.01144 0.0
C947 C 0.55609 0.0649 0.99593 0.0
C948 C 0.57439 0.07987 0.99066 0.0
H949 H 0.62687 0.14579 0.02312 0.0
H950 H 0.60212 0.1227 0.01953 0.0
H951 H 0.62376 0.12256 0.03024 0.0
H952 H 0.60769 0.08579 0.02396 0.0
H953 H 0.57562 0.05982 0.03341 0.0
H954 H 0.8241 0.53544 0.97348 0.0
H955 H 0.8593 0.54238 0.98071 0.0
H956 H 0.84233 0.48294 0.95728 0.0
H957 H 0.80767 0.47641 0.94926 0.0
H958 H 0.87102 0.52324 1.00083 0.0
H959 H 0.89623 0.51619 0.93989 0.0
H960 H 0.87362 0.51831 0.94191 0.0
H961 H 0.87217 0.49389 0.94204 0.0
C962 C 0.82804 0.5241 0.96945 0.0
C963 C 0.81299 0.50532 0.96086 0.0
C964 C 0.84814 0.52802 0.9737 0.0
C965 C 0.85361 0.5133 0.96937 0.0
C966 C 0.83873 0.49478 0.96043 0.0
H967 H 0.93747 0.4859 0.02183 0.0
H968 H 0.90939 0.49093 1.01128 0.0
C969 C 0.81876 0.49092 0.95608 0.0
C970 C 0.87415 0.51632 0.97545 0.0
H971 H 0.91349 0.51013 0.96341 0.0
C972 C 0.88048 0.52073 0.99259 0.0
C973 C 0.8868 0.51345 0.96475 0.0
C974 C 0.88195 0.51043 0.94611 0.0
C975 C 0.89841 0.52121 0.99938 0.0
C976 C 0.91004 0.51654 0.98881 0.0
C977 C 0.9044 0.51332 0.97158 0.0
C978 C 0.92744 0.51393 0.99541 0.0
C979 C 0.90461 0.52665 0.01784 0.0
C980 C 0.94685 0.52464 0.98959 0.0
C981 C 0.96293 0.52152 0.99542 0.0
C982 C 0.95992 0.50764 1.00719 0.0
C983 C 0.94045 0.49691 0.01294 0.0
C984 C 0.92437 0.49988 1.007 0.0
H985 H 0.89894 0.53659 0.02296 0.0
H986 H 0.89763 0.51249 0.02415 0.0
H987 H 0.9216 0.53459 0.02085 0.0
H988 H 0.94956 0.53542 0.98054 0.0
H989 H 0.97771 0.52999 0.99069 0.0
H990 H 0.45823 0.2865 1.00197 0.0
H991 H 0.45353 0.31604 1.00083 0.0
H992 H 0.51939 0.35566 1.0039 0.0
H993 H 0.52416 0.32625 1.00378 0.0
H994 H 0.46524 0.34762 0.02258 0.0
H995 H 0.50152 0.376 0.96571 0.0
H996 H 0.49533 0.35121 0.97166 0.0
H997 H 0.51907 0.37366 0.98023 0.0
C998 C 0.4717 0.30145 1.00201 0.0
C999 C 0.49158 0.30393 1.00286 0.0
C1000 C 0.46898 0.31833 1.00151 0.0
C1001 C 0.48607 0.33802 1.00193 0.0
C1002 C 0.50592 0.34057 1.00307 0.0
H1003 H 0.50295 0.45323 0.03796 0.0
H1004 H 0.49588 0.41815 0.0342 0.0
C1005 C 0.50864 0.32372 1.00332 0.0
C1006 C 0.48339 0.35607 1.00194 0.0
H1007 H 0.49983 0.40072 0.98462 0.0
C1008 C 0.47251 0.35909 0.0141 0.0
C1009 C 0.49236 0.37078 0.9906 0.0
C1010 C 0.5025 0.36761 0.97621 0.0
C1011 C 0.47136 0.37698 0.01583 0.0
C1012 C 0.48203 0.39254 1.0055 0.0
C1013 C 0.49192 0.38898 0.99275 0.0
C1014 C 0.48423 0.41304 1.00818 0.0
C1015 C 0.45874 0.37893 0.0287 0.0
C1016 C 0.48046 0.42207 0.99475 0.0
C1017 C 0.48511 0.44234 0.99677 0.0
C1018 C 0.49332 0.45385 1.01231 0.0
C1019 C 0.49638 0.44462 0.02589 0.0
C1020 C 0.49216 0.42448 0.02378 0.0
H1021 H 0.44577 0.36374 0.03072 0.0
H1022 H 0.4686 0.38572 0.04071 0.0
H1023 H 0.45237 0.38875 0.02507 0.0
H1024 H 0.47441 0.41359 0.98258 0.0
H1025 H 0.48253 0.4491 0.98611 0.0
H1026 H 0.21396 0.68306 0.08089 0.0
H1027 H 0.17912 0.65388 0.07549 0.0
H1028 H 0.1568 0.69314 0.05904 0.0
H1029 H 0.19192 0.72236 0.06357 0.0
H1030 H 0.14294 0.64447 0.08717 0.0
H1031 H 0.13752 0.651 0.01935 0.0
H1032 H 0.16136 0.6656 0.03273 0.0
H1033 H 0.14213 0.67311 0.03232 0.0
C1034 C 0.2017 0.68552 0.07598 0.0
C1035 C 0.20586 0.70503 0.07237 0.0
C1036 C 0.18173 0.66882 0.07307 0.0
C1037 C 0.16539 0.67123 0.06657 0.0
C1038 C 0.16924 0.69084 0.06372 0.0
H1039 H 0.03966 0.5635 0.05615 0.0
H1040 H 0.06884 0.59784 0.06485 0.0
C1041 C 0.18931 0.70758 0.0665 0.0
C1042 C 0.14464 0.65295 0.06222 0.0
H1043 H 0.10899 0.62404 0.02933 0.0
C1044 C 0.13539 0.64007 0.07456 0.0
C1045 C 0.13493 0.64716 0.04571 0.0
C1046 C 0.14452 0.65981 0.03171 0.0
C1047 C 0.11704 0.62126 0.07077 0.0
C1048 C 0.10744 0.61541 0.05423 0.0
C1049 C 0.11633 0.62862 0.04201 0.0
C1050 C 0.08936 0.59488 0.04894 0.0
C1051 C 0.10869 0.6074 0.08431 0.0
C1052 C 0.09101 0.58202 0.03683 0.0
C1053 C 0.07436 0.56259 0.03168 0.0
C1054 C 0.05562 0.55551 0.03857 0.0
C1055 C 0.0539 0.56845 0.05066 0.0
C1056 C 0.0706 0.58803 0.05572 0.0
H1057 H 0.12024 0.61221 0.09537 0.0
H1058 H 0.09506 0.60778 0.0883 0.0
H1059 H 0.10376 0.59141 0.07976 0.0
H1060 H 0.10532 0.58696 0.03143 0.0
H1061 H 0.07629 0.55307 0.02239 0.0
H1062 H 0.34286 0.52489 0.10193 0.0
H1063 H 0.37019 0.52051 0.0912 0.0
H1064 H 0.32575 0.47362 0.05398 0.0
H1065 H 0.29823 0.47797 0.06466 0.0
H1066 H 0.37352 0.48298 0.08507 0.0
H1067 H 0.37032 0.52006 0.02847 0.0
H1068 H 0.35963 0.52295 0.04699 0.0
H1069 H 0.34654 0.4994 0.03376 0.0
C1070 C 0.33887 0.51348 0.09157 0.0
C1071 C 0.31844 0.50187 0.08405 0.0
C1072 C 0.35448 0.51096 0.08549 0.0
C1073 C 0.35002 0.49693 0.07169 0.0
C1074 C 0.32951 0.48465 0.06457 0.0
H1075 H 0.43911 0.48948 1.01174 0.0
H1076 H 0.40709 0.48388 0.02211 0.0
C1077 C 0.31381 0.48704 0.07075 0.0
C1078 C 0.36712 0.49612 0.06429 0.0
H1079 H 0.39574 0.5108 0.03158 0.0
C1080 C 0.37831 0.48888 0.07331 0.0
C1081 C 0.37326 0.5038 0.04893 0.0
C1082 C 0.36196 0.51213 0.03894 0.0
C1083 C 0.39563 0.48926 0.06743 0.0
C1084 C 0.40227 0.49767 0.05235 0.0
C1085 C 0.3907 0.50441 0.04314 0.0
C1086 C 0.42163 0.50045 0.04625 0.0
C1087 C 0.40651 0.48051 0.0774 0.0
C1088 C 0.44052 0.51187 0.05625 0.0
C1089 C 0.45881 0.51498 0.05041 0.0
C1090 C 0.4587 0.50703 0.0343 0.0
C1091 C 0.43979 0.49583 0.0242 0.0
C1092 C 0.42145 0.49259 0.03012 0.0
H1093 H 0.39595 0.46888 0.0851 0.0
H1094 H 0.41298 0.4734 0.06924 0.0
H1095 H 0.41934 0.49292 0.08593 0.0
H1096 H 0.44119 0.51864 0.06854 0.0
H1097 H 0.47308 0.52382 0.05851 0.0
H1098 H 0.53829 0.83669 0.06306 0.0
H1099 H 0.54146 0.87003 0.05974 0.0
H1100 H 0.53296 0.85659 1.00649 0.0
H1101 H 0.52922 0.8231 1.00977 0.0
H1102 H 0.56648 0.90373 0.04373 0.0
H1103 H 0.4853 0.86537 0.01495 0.0
H1104 H 0.49617 0.85173 0.02499 0.0
H1105 H 0.5013 0.85838 1.00422 0.0
C1106 C 0.53742 0.84104 0.05067 0.0
C1107 C 0.53321 0.8273 0.03666 0.0
C1108 C 0.53921 0.86003 0.04878 0.0
C1109 C 0.53695 0.86554 0.03287 0.0
C1110 C 0.5342 0.85239 0.01887 0.0
H1111 H 0.52253 0.96573 1.0008 0.0
H1112 H 0.53088 0.93845 1.00167 0.0
C1113 C 0.53213 0.83333 0.02075 0.0
C1114 C 0.53605 0.88435 0.03095 0.0
H1115 H 0.50429 0.90125 0.01602 0.0
C1116 C 0.55292 0.90322 0.03763 0.0
C1117 C 0.51826 0.88359 0.02309 0.0
C1118 C 0.49915 0.86368 0.01654 0.0
C1119 C 0.55248 0.9214 0.03659 0.0
C1120 C 0.53469 0.92057 0.02873 0.0
C1121 C 0.51797 0.90177 0.02187 0.0
C1122 C 0.53239 0.93875 0.0284 0.0
C1123 C 0.57096 0.94136 0.04385 0.0
C1124 C 0.53059 0.94793 0.04316 0.0
C1125 C 0.52566 0.96336 0.04271 0.0
C1126 C 0.52243 0.96987 0.02747 0.0
C1127 C 0.52494 0.96109 1.01273 0.0
C1128 C 0.52973 0.94554 0.0132 0.0
H1129 H 0.58499 0.94005 0.04595 0.0
H1130 H 0.57403 0.95351 0.03559 0.0
H1131 H 0.56784 0.94611 0.05598 0.0
H1132 H 0.53223 0.94263 0.05497 0.0
H1133 H 0.52389 0.96984 0.05428 0.0
H1134 H 0.95163 0.18406 0.41356 0.0
H1135 H 0.98177 0.21314 0.40435 0.0
H1136 H 0.01214 0.17776 0.40155 0.0
H1137 H 0.9825 0.14897 0.41118 0.0
H1138 H 0.03689 0.21654 0.41806 0.0
H1139 H 0.99997 0.21933 0.35731 0.0
H1140 H 0.98719 0.22009 0.37502 0.0
H1141 H 0.98837 0.19758 0.36908 0.0
C1142 C 0.96476 0.18252 0.41102 0.0
C1143 C 0.96458 0.16413 0.41297 0.0
C1144 C 0.98187 0.19906 0.4056 0.0
C1145 C 0.99906 0.19748 0.40203 0.0
C1146 C 0.99897 0.17924 0.40411 0.0
H1147 H 0.10331 0.27297 0.34991 0.0
H1148 H 0.07133 0.24603 0.35872 0.0
C1149 C 0.98194 0.16274 0.4095 0.0
C1150 C 0.01749 0.21494 0.3966 0.0
H1151 H 0.0345 0.24546 0.36518 0.0
C1152 C 0.03637 0.22292 0.40652 0.0
C1153 C 0.01677 0.22304 0.38145 0.0
C1154 C 0.99705 0.21451 0.36999 0.0
C1155 C 0.0546 0.23878 0.40172 0.0
C1156 C 0.05384 0.24711 0.3867 0.0
C1157 C 0.03497 0.23913 0.37674 0.0
C1158 C 0.07263 0.26382 0.38099 0.0
C1159 C 0.07459 0.24615 0.41257 0.0
C1160 C 0.08371 0.28287 0.39044 0.0
C1161 C 0.102 0.29827 0.38549 0.0
C1162 C 0.1095 0.29496 0.37091 0.0
C1163 C 0.09803 0.27603 0.36122 0.0
C1164 C 0.07973 0.26062 0.36621 0.0
H1165 H 0.07333 0.235 0.42139 0.0
H1166 H 0.08728 0.249 0.40494 0.0
H1167 H 0.07878 0.26069 0.41993 0.0
H1168 H 0.0783 0.28577 0.40173 0.0
H1169 H 0.11034 0.31268 0.39322 0.0
H1170 H 0.83224 0.7709 0.41845 0.0
H1171 H 0.80291 0.77367 0.40695 0.0
H1172 H 0.84201 0.83884 0.40829 0.0
H1173 H 0.87125 0.8363 0.42032 0.0
H1174 H 0.80578 0.82794 0.42176 0.0
H1175 H 0.78988 0.78429 0.36021 0.0
H1176 H 0.79058 0.77072 0.37744 0.0
H1177 H 0.81359 0.79336 0.37354 0.0
C1178 C 0.83462 0.78583 0.41627 0.0
C1179 C 0.85415 0.80337 0.42028 0.0
C1180 C 0.81787 0.78736 0.40954 0.0
C1181 C 0.8203 0.80643 0.40656 0.0
C1182 C 0.8398 0.82394 0.41039 0.0
H1183 H 0.73519 0.83223 0.35032 0.0
H1184 H 0.76387 0.82792 0.36074 0.0
C1185 C 0.85655 0.82244 0.41713 0.0
C1186 C 0.80237 0.80829 0.40016 0.0
H1187 H 0.76499 0.79305 0.36752 0.0
C1188 C 0.79688 0.82034 0.40989 0.0
C1189 C 0.79088 0.79852 0.3846 0.0
C1190 C 0.7966 0.78615 0.37325 0.0
C1191 C 0.78013 0.82276 0.40455 0.0
C1192 C 0.76831 0.81257 0.38918 0.0
C1193 C 0.77392 0.80067 0.37937 0.0
C1194 C 0.7505 0.81463 0.38281 0.0
C1195 C 0.77552 0.83657 0.41525 0.0
C1196 C 0.73326 0.8083 0.39162 0.0
C1197 C 0.71679 0.81079 0.38571 0.0
C1198 C 0.71719 0.81955 0.37081 0.0
C1199 C 0.73433 0.82548 0.36186 0.0
C1200 C 0.75077 0.823 0.36778 0.0
H1201 H 0.78889 0.84708 0.4244 0.0
H1202 H 0.77121 0.8458 0.40755 0.0
H1203 H 0.76238 0.82714 0.42224 0.0
H1204 H 0.73253 0.80143 0.40308 0.0
H1205 H 0.70382 0.80596 0.3929 0.0
H1206 H 0.23791 0.07665 0.37591 0.0
H1207 H 0.23446 0.04397 0.36578 0.0
H1208 H 0.23362 0.028 0.41597 0.0
H1209 H 0.23655 0.06032 0.42617 0.0
H1210 H 0.25748 0.02279 0.37459 0.0
H1211 H 0.17664 0.98455 0.39008 0.0
H1212 H 0.19155 0.01167 0.38874 0.0
H1213 H 0.19583 0.00101 0.40676 0.0
C1214 C 0.23724 0.06627 0.3848 0.0
C1215 C 0.23728 0.07095 0.40182 0.0
C1216 C 0.23541 0.0477 0.379 0.0
C1217 C 0.23351 0.03355 0.39013 0.0
C1218 C 0.23489 0.03872 0.40721 0.0
H1219 H 0.22639 0.91668 0.37659 0.0
H1220 H 0.23759 0.9527 0.3831 0.0
C1221 C 0.23673 0.05725 0.41302 0.0
C1222 C 0.22815 0.0127 0.38383 0.0
H1223 H 0.18932 0.9632 0.38102 0.0
C1224 C 0.24259 0.00972 0.37594 0.0
C1225 C 0.20856 0.99582 0.38537 0.0
C1226 C 0.19214 0.99833 0.39306 0.0
C1227 C 0.23808 0.99008 0.36988 0.0
C1228 C 0.21873 0.97313 0.37195 0.0
C1229 C 0.20417 0.97623 0.37952 0.0
C1230 C 0.21323 0.95191 0.36671 0.0
C1231 C 0.25394 0.98765 0.3612 0.0
C1232 C 0.19572 0.93949 0.35542 0.0
C1233 C 0.18915 0.91884 0.35177 0.0
C1234 C 0.19993 0.91022 0.35943 0.0
C1235 C 0.21776 0.92283 0.37044 0.0
C1236 C 0.22429 0.94348 0.37409 0.0
H1237 H 0.26536 0.00215 0.35667 0.0
H1238 H 0.26239 0.98303 0.37006 0.0
H1239 H 0.24652 0.97566 0.35052 0.0
H1240 H 0.1869 0.94571 0.34967 0.0
H1241 H 0.17539 0.90956 0.34322 0.0
H1242 H 0.48226 0.60504 0.32276 0.0
H1243 H 0.51147 0.63806 0.33469 0.0
H1244 H 0.534 0.6493 0.28677 0.0
H1245 H 0.50472 0.61683 0.27463 0.0
H1246 H 0.5647 0.65758 0.31652 0.0
H1247 H 0.51681 0.69428 0.32256 0.0
H1248 H 0.50801 0.66996 0.33053 0.0
H1249 H 0.50847 0.67158 0.3086 0.0
C1250 C 0.4934 0.61455 0.31475 0.0
C1251 C 0.49111 0.6082 0.29772 0.0
C1252 C 0.51011 0.63335 0.3216 0.0
C1253 C 0.52479 0.64607 0.31157 0.0
C1254 C 0.52286 0.63961 0.29472 0.0
H1255 H 0.63457 0.76472 0.31851 0.0
H1256 H 0.60727 0.72927 0.3112 0.0
C1257 C 0.50615 0.62095 0.28784 0.0
C1258 C 0.54182 0.66651 0.31835 0.0
H1259 H 0.55235 0.71474 0.33062 0.0
C1260 C 0.56206 0.67009 0.31972 0.0
C1261 C 0.53823 0.6827 0.32252 0.0
C1262 C 0.51675 0.67963 0.32094 0.0
C1263 C 0.57889 0.68955 0.32514 0.0
C1264 C 0.57537 0.70594 0.32883 0.0
C1265 C 0.55505 0.7022 0.32775 0.0
C1266 C 0.59247 0.72717 0.33354 0.0
C1267 C 0.60023 0.69228 0.32705 0.0
C1268 C 0.59297 0.73797 0.34833 0.0
C1269 C 0.60837 0.75831 0.35242 0.0
C1270 C 0.62363 0.76831 0.3418 0.0
C1271 C 0.62318 0.75743 0.32703 0.0
C1272 C 0.60765 0.73711 0.32289 0.0
H1273 H 0.59973 0.67764 0.32882 0.0
H1274 H 0.60765 0.69784 0.31562 0.0
H1275 H 0.60997 0.70359 0.33775 0.0
H1276 H 0.58137 0.73066 0.3567 0.0
H1277 H 0.60826 0.76619 0.36392 0.0
H1278 H 0.38715 0.86896 0.31222 0.0
H1279 H 0.35626 0.86608 0.32286 0.0
H1280 H 0.33559 0.87416 0.27449 0.0
H1281 H 0.36599 0.87626 0.26359 0.0
H1282 H 0.34147 0.89296 0.32425 0.0
H1283 H 0.28612 0.82155 0.28486 0.0
H1284 H 0.31351 0.83107 0.28722 0.0
H1285 H 0.30274 0.84186 0.27334 0.0
C1286 C 0.37596 0.86997 0.30381 0.0
C1287 C 0.37902 0.87269 0.28701 0.0
C1288 C 0.35837 0.86845 0.30994 0.0
C1289 C 0.34342 0.86953 0.29941 0.0
C1290 C 0.3467 0.87286 0.28277 0.0
H1291 H 0.22624 0.8619 0.31184 0.0
H1292 H 0.258 0.86643 0.30182 0.0
C1293 C 0.36426 0.87433 0.27661 0.0
C1294 C 0.32439 0.86714 0.30584 0.0
H1295 H 0.27186 0.838 0.30032 0.0
C1296 C 0.32625 0.88089 0.31907 0.0
C1297 C 0.30453 0.85136 0.2991 0.0
C1298 C 0.30153 0.83549 0.28545 0.0
C1299 C 0.30878 0.87953 0.32551 0.0
C1300 C 0.28895 0.86383 0.31869 0.0
C1301 C 0.28709 0.85007 0.30549 0.0
C1302 C 0.26988 0.86141 0.32502 0.0
C1303 C 0.31168 0.89517 0.33932 0.0
C1304 C 0.26589 0.85686 0.34136 0.0
C1305 C 0.24771 0.85422 0.34715 0.0
C1306 C 0.23312 0.85604 0.3367 0.0
C1307 C 0.23715 0.8605 0.32029 0.0
C1308 C 0.25529 0.86307 0.31451 0.0
H1309 H 0.32731 0.90889 0.34041 0.0
H1310 H 0.30005 0.90001 0.33731 0.0
H1311 H 0.30968 0.88835 0.35127 0.0
H1312 H 0.27676 0.85513 0.34959 0.0
H1313 H 0.2451 0.85071 0.35982 0.0
H1314 H 0.11539 0.51417 0.33725 0.0
H1315 H 0.11697 0.48452 0.34595 0.0
H1316 H 0.12511 0.46981 0.296 0.0
H1317 H 0.12394 0.49956 0.28725 0.0
H1318 H 0.09421 0.44014 0.33258 0.0
H1319 H 0.17835 0.48202 0.32697 0.0
H1320 H 0.16343 0.49465 0.32806 0.0
H1321 H 0.16192 0.48042 0.30909 0.0
C1322 C 0.11726 0.50446 0.32809 0.0
C1323 C 0.11974 0.50928 0.31161 0.0
C1324 C 0.11804 0.48751 0.33305 0.0
C1325 C 0.12139 0.47522 0.32163 0.0
C1326 C 0.12264 0.47926 0.30498 0.0
H1327 H 0.12542 0.36439 0.32978 0.0
H1328 H 0.11601 0.38988 0.32317 0.0
C1329 C 0.12182 0.49616 0.3 0.0
C1330 C 0.12546 0.45934 0.32739 0.0
H1331 H 0.16375 0.44788 0.33318 0.0
C1332 C 0.10938 0.44177 0.33275 0.0
C1333 C 0.14538 0.46178 0.32782 0.0
C1334 C 0.16335 0.48079 0.32282 0.0
C1335 C 0.11265 0.42627 0.33822 0.0
C1336 C 0.13245 0.42847 0.33818 0.0
C1337 C 0.14858 0.44624 0.33313 0.0
C1338 C 0.13685 0.41244 0.34307 0.0
C1339 C 0.09501 0.4078 0.34415 0.0
C1340 C 0.15185 0.41679 0.35634 0.0
C1341 C 0.15738 0.40232 0.36011 0.0
C1342 C 0.1481 0.38328 0.35057 0.0
C1343 C 0.13285 0.37887 0.33742 0.0
C1344 C 0.12731 0.39336 0.33368 0.0
H1345 H 0.08253 0.41073 0.34735 0.0
H1346 H 0.08843 0.39499 0.33413 0.0
H1347 H 0.10036 0.40296 0.35518 0.0
H1348 H 0.15947 0.43152 0.36365 0.0
H1349 H 0.16918 0.40621 0.37032 0.0
H1350 H 0.33956 0.51672 0.28521 0.0
H1351 H 0.31285 0.48584 0.29546 0.0
H1352 H 0.35856 0.48574 0.33044 0.0
H1353 H 0.38547 0.51677 0.32025 0.0
H1354 H 0.31163 0.44556 0.29914 0.0
H1355 H 0.31315 0.48816 0.35791 0.0
H1356 H 0.32284 0.50083 0.33966 0.0
H1357 H 0.33719 0.49194 0.3516 0.0
C1358 C 0.34395 0.51003 0.295 0.0
C1359 C 0.36456 0.51921 0.30201 0.0
C1360 C 0.3287 0.49238 0.30079 0.0
C1361 C 0.33374 0.48368 0.31379 0.0
C1362 C 0.35439 0.49235 0.32046 0.0
H1363 H 0.24299 0.38903 0.36903 0.0
H1364 H 0.27579 0.41506 0.3605 0.0
C1365 C 0.36973 0.50995 0.31456 0.0
C1366 C 0.31709 0.46606 0.32072 0.0
H1367 H 0.28781 0.45352 0.3531 0.0
C1368 C 0.30653 0.44719 0.31101 0.0
C1369 C 0.31062 0.46827 0.33626 0.0
C1370 C 0.3214 0.48837 0.34702 0.0
C1371 C 0.28933 0.4305 0.31629 0.0
C1372 C 0.28217 0.43297 0.33146 0.0
C1373 C 0.29325 0.45166 0.34146 0.0
C1374 C 0.26247 0.41686 0.3366 0.0
C1375 C 0.27899 0.4104 0.30552 0.0
C1376 C 0.24406 0.40952 0.32616 0.0
C1377 C 0.22539 0.39465 0.33094 0.0
C1378 C 0.22463 0.38696 0.34642 0.0
C1379 C 0.24303 0.3946 0.35703 0.0
C1380 C 0.26179 0.40945 0.35216 0.0
H1381 H 0.28997 0.40901 0.29783 0.0
H1382 H 0.27237 0.39731 0.3131 0.0
H1383 H 0.26635 0.40949 0.29695 0.0
H1384 H 0.24407 0.41545 0.31433 0.0
H1385 H 0.21153 0.3893 0.32249 0.0
H1386 H 0.46863 0.81203 0.27663 0.0
H1387 H 0.50286 0.8175 0.28577 0.0
H1388 H 0.51404 0.8678 0.3206 0.0
H1389 H 0.47969 0.8624 0.31152 0.0
H1390 H 0.5449 0.85739 0.28846 0.0
H1391 H 0.51968 0.82325 0.34755 0.0
H1392 H 0.50154 0.81786 0.32959 0.0
H1393 H 0.5135 0.84225 0.34159 0.0
C1394 C 0.47843 0.82435 0.28616 0.0
C1395 C 0.47145 0.83671 0.29345 0.0
C1396 C 0.49799 0.8275 0.29131 0.0
C1397 C 0.51085 0.84293 0.30393 0.0
C1398 C 0.50425 0.85575 0.31088 0.0
H1399 H 0.62235 0.85811 0.35928 0.0
H1400 H 0.59297 0.86193 0.34979 0.0
C1401 C 0.48472 0.85272 0.30562 0.0
C1402 C 0.53071 0.84483 0.3103 0.0
H1403 H 0.55354 0.83325 0.34238 0.0
C1404 C 0.54691 0.85228 0.3003 0.0
C1405 C 0.53323 0.83822 0.32576 0.0
C1406 C 0.51611 0.82983 0.3368 0.0
C1407 C 0.56561 0.85317 0.30534 0.0
C1408 C 0.5679 0.84584 0.32057 0.0
C1409 C 0.55181 0.83884 0.33071 0.0
C1410 C 0.58646 0.84449 0.32593 0.0
C1411 C 0.58276 0.86213 0.29436 0.0
C1412 C 0.59252 0.8333 0.31575 0.0
C1413 C 0.6094 0.83124 0.32108 0.0
C1414 C 0.62039 0.84003 0.33685 0.0
C1415 C 0.61424 0.85116 0.34707 0.0
C1416 C 0.59745 0.85336 0.34166 0.0
H1417 H 0.58129 0.87296 0.2865 0.0
H1418 H 0.59811 0.87024 0.30179 0.0
H1419 H 0.58197 0.84967 0.28595 0.0
H1420 H 0.58395 0.82579 0.30378 0.0
H1421 H 0.61356 0.8224 0.31294 0.0
H1422 H 0.19714 0.6602 0.33823 0.0
H1423 H 0.19298 0.68995 0.34094 0.0
H1424 H 0.1269 0.65093 0.33482 0.0
H1425 H 0.1309 0.62094 0.33357 0.0
H1426 H 0.17675 0.70365 0.31989 0.0
H1427 H 0.13314 0.68709 0.37477 0.0
H1428 H 0.14486 0.6726 0.36805 0.0
H1429 H 0.12041 0.66729 0.35791 0.0
C1430 C 0.18169 0.65783 0.33788 0.0
C1431 C 0.16438 0.63805 0.33586 0.0
C1432 C 0.17934 0.67493 0.33923 0.0
C1433 C 0.15963 0.67272 0.33836 0.0
C1434 C 0.14228 0.65305 0.33597 0.0
H1435 H 0.14935 0.7804 0.32121 0.0
H1436 H 0.14539 0.74636 0.31801 0.0
C1437 C 0.14461 0.63588 0.33495 0.0
C1438 C 0.15749 0.69114 0.33945 0.0
H1439 H 0.13664 0.71512 0.36084 0.0
C1440 C 0.168 0.70617 0.32887 0.0
C1441 C 0.14623 0.69449 0.35128 0.0
C1442 C 0.1357 0.67961 0.36376 0.0
C1443 C 0.16792 0.72461 0.32997 0.0
C1444 C 0.15619 0.72775 0.34148 0.0
C1445 C 0.14542 0.71259 0.3519 0.0
C1446 C 0.15606 0.7472 0.34367 0.0
C1447 C 0.18118 0.74084 0.31929 0.0
C1448 C 0.16205 0.75841 0.35937 0.0
C1449 C 0.16371 0.77757 0.36132 0.0
C1450 C 0.15967 0.78596 0.34756 0.0
C1451 C 0.15283 0.77439 0.33199 0.0
C1452 C 0.15073 0.75502 0.33012 0.0
H1453 H 0.19348 0.73832 0.31488 0.0
H1454 H 0.17145 0.74039 0.30818 0.0
H1455 H 0.18857 0.75628 0.32615 0.0
H1456 H 0.16614 0.75264 0.37003 0.0
H1457 H 0.16905 0.78617 0.37347 0.0
H1458 H 0.87793 0.01343 0.40899 0.0
H1459 H 0.84294 0.98479 0.40178 0.0
H1460 H 0.8242 0.02514 0.38164 0.0
H1461 H 0.85941 0.05397 0.38853 0.0
H1462 H 0.79602 0.99487 0.40323 0.0
H1463 H 0.81889 0.96146 0.35197 0.0
H1464 H 0.83472 0.968 0.37145 0.0
H1465 H 0.83433 0.9878 0.36058 0.0
C1466 C 0.86642 0.01624 0.40297 0.0
C1467 C 0.87154 0.03595 0.39914 0.0
C1468 C 0.84642 0.99988 0.39892 0.0
C1469 C 0.83113 0.00286 0.39099 0.0
C1470 C 0.83587 0.02258 0.38772 0.0
H1471 H 0.71663 0.89986 0.34202 0.0
H1472 H 0.74719 0.93367 0.34852 0.0
C1473 C 0.85595 0.03902 0.39173 0.0
C1474 C 0.8104 0.98514 0.3857 0.0
H1475 H 0.78567 0.94049 0.36031 0.0
C1476 C 0.79365 0.98304 0.39374 0.0
C1477 C 0.80738 0.96993 0.37317 0.0
C1478 C 0.82472 0.9719 0.36366 0.0
C1479 C 0.77402 0.96563 0.39001 0.0
C1480 C 0.77124 0.94995 0.37804 0.0
C1481 C 0.78786 0.95248 0.36956 0.0
C1482 C 0.75153 0.93038 0.37455 0.0
C1483 C 0.75644 0.96415 0.3989 0.0
C1484 C 0.7438 0.91735 0.38706 0.0
C1485 C 0.72635 0.898 0.38339 0.0
C1486 C 0.71638 0.89126 0.36711 0.0
C1487 C 0.72391 0.90455 0.35469 0.0
C1488 C 0.74137 0.92389 0.35837 0.0
H1489 H 0.75951 0.97942 0.40393 0.0
H1490 H 0.7418 0.9566 0.3905 0.0
H1491 H 0.75443 0.9549 0.40947 0.0
H1492 H 0.75165 0.92188 0.39955 0.0
H1493 H 0.72101 0.88814 0.39325 0.0
H1494 H 0.00447 0.85496 0.43752 0.0
H1495 H 0.03157 0.85012 0.4269 0.0
H1496 H 0.98722 0.80477 0.38871 0.0
H1497 H 0.95995 0.80967 0.39926 0.0
H1498 H 0.03507 0.81357 0.42049 0.0
H1499 H 0.03205 0.85032 0.36367 0.0
H1500 H 0.02072 0.85274 0.38194 0.0
H1501 H 0.00822 0.82933 0.3685 0.0
C1502 C 1.00044 0.84377 0.42698 0.0
C1503 C 0.98012 0.83281 0.41913 0.0
C1504 C 0.01592 0.84099 0.42095 0.0
C1505 C 0.01147 0.82732 0.40688 0.0
C1506 C 0.99101 0.81558 0.39948 0.0
H1507 H 0.10092 0.81937 0.34751 0.0
H1508 H 0.0688 0.8137 0.35775 0.0
C1509 C 0.97543 0.81825 0.4056 0.0
C1510 C 0.02856 0.8264 0.39952 0.0
H1511 H 0.05721 0.84072 0.36678 0.0
C1512 C 0.03983 0.81933 0.40868 0.0
C1513 C 0.03471 0.8339 0.3841 0.0
C1514 C 0.02345 0.84215 0.37395 0.0
C1515 C 0.0572 0.81972 0.40289 0.0
C1516 C 0.06383 0.82793 0.38775 0.0
C1517 C 0.05219 0.83447 0.37839 0.0
C1518 C 0.08325 0.83074 0.38175 0.0
C1519 C 0.06819 0.81121 0.41305 0.0
C1520 C 0.10214 0.84244 0.39171 0.0
C1521 C 0.1205 0.84562 0.38594 0.0
C1522 C 0.12046 0.83743 0.36994 0.0
C1523 C 0.10155 0.82591 0.35989 0.0
C1524 C 0.08315 0.82263 0.36573 0.0
H1525 H 0.05769 0.79971 0.42087 0.0
H1526 H 0.07468 0.80401 0.40501 0.0
H1527 H 0.08102 0.82377 0.42147 0.0
H1528 H 0.10276 0.84939 0.40391 0.0
H1529 H 0.13475 0.85472 0.394 0.0
H1530 H 0.203 0.16422 0.41082 0.0
H1531 H 0.20564 0.19748 0.40832 0.0
H1532 H 0.18195 0.17948 0.35661 0.0
H1533 H 0.17936 0.14626 0.35895 0.0
H1534 H 0.22157 0.22353 0.36908 0.0
H1535 H 0.14867 0.19964 0.39771 0.0
H1536 H 0.16728 0.19365 0.40689 0.0
H1537 H 0.15358 0.18129 0.38693 0.0
C1538 C 0.19865 0.16748 0.39887 0.0
C1539 C 0.19085 0.15265 0.3851 0.0
C1540 C 0.20011 0.18641 0.39749 0.0
C1541 C 0.19393 0.19076 0.38231 0.0
C1542 C 0.18677 0.17628 0.36842 0.0
H1543 H 0.18456 0.28867 0.34217 0.0
H1544 H 0.1904 0.26043 0.34714 0.0
C1545 C 0.18517 0.15733 0.3698 0.0
C1546 C 0.1938 0.20998 0.38108 0.0
H1547 H 0.16521 0.23236 0.38876 0.0
C1548 C 0.20936 0.2256 0.37345 0.0
C1549 C 0.17788 0.2125 0.38689 0.0
C1550 C 0.16079 0.19593 0.39504 0.0
C1551 C 0.20935 0.24383 0.3714 0.0
C1552 C 0.19303 0.24613 0.37675 0.0
C1553 C 0.17769 0.23057 0.38466 0.0
C1554 C 0.19108 0.2642 0.37385 0.0
C1555 C 0.22689 0.26048 0.36369 0.0
C1556 C 0.18913 0.27547 0.38718 0.0
C1557 C 0.18546 0.2914 0.38437 0.0
C1558 C 0.18368 0.29638 0.36814 0.0
C1559 C 0.18601 0.28533 0.35483 0.0
C1560 C 0.18951 0.26927 0.35765 0.0
H1561 H 0.24093 0.25911 0.36521 0.0
H1562 H 0.22235 0.25921 0.35019 0.0
H1563 H 0.23074 0.27583 0.36924 0.0
H1564 H 0.19017 0.27173 0.39977 0.0
H1565 H 0.18378 0.29965 0.3949 0.0
H1566 H 0.64989 0.48468 0.74496 0.0
H1567 H 0.67964 0.51412 0.73611 0.0
H1568 H 0.64889 0.54904 0.74009 0.0
H1569 H 0.61868 0.51933 0.74869 0.0
H1570 H 0.66813 0.55188 0.71001 0.0
H1571 H 0.72106 0.56622 0.76659 0.0
H1572 H 0.70808 0.54031 0.75722 0.0
H1573 H 0.69342 0.55065 0.76586 0.0
C1574 C 0.64934 0.49856 0.74384 0.0
C1575 C 0.63189 0.49966 0.74747 0.0
C1576 C 0.66645 0.51543 0.73893 0.0
C1577 C 0.66654 0.5338 0.73765 0.0
C1578 C 0.64912 0.53499 0.74111 0.0
H1579 H 0.7785 0.64723 0.72688 0.0
H1580 H 0.74603 0.6214 0.73559 0.0
C1581 C 0.63196 0.51808 0.7461 0.0
C1582 C 0.68486 0.5516 0.7325 0.0
H1583 H 0.73647 0.58314 0.74325 0.0
C1584 C 0.68305 0.55887 0.71732 0.0
C1585 C 0.70423 0.5608 0.74217 0.0
C1586 C 0.70686 0.55425 0.75895 0.0
C1587 C 0.70031 0.57471 0.71128 0.0
C1588 C 0.71987 0.58326 0.7206 0.0
C1589 C 0.72151 0.57641 0.73603 0.0
C1590 C 0.73891 0.59927 0.71461 0.0
C1591 C 0.69746 0.58222 0.69503 0.0
C1592 C 0.74574 0.59538 0.6999 0.0
C1593 C 0.76435 0.61015 0.69483 0.0
C1594 C 0.77652 0.62905 0.70444 0.0
C1595 C 0.76953 0.6329 0.71912 0.0
C1596 C 0.75096 0.61814 0.72415 0.0
H1597 H 0.68119 0.57814 0.69179 0.0
H1598 H 0.70745 0.59902 0.69548 0.0
H1599 H 0.70176 0.57503 0.68498 0.0
H1600 H 0.7369 0.58074 0.69253 0.0
H1601 H 0.76931 0.60664 0.68352 0.0
H1602 H 0.51358 0.13049 0.7836 0.0
H1603 H 0.4825 0.13101 0.77361 0.0
H1604 H 0.4999 0.13518 0.72383 0.0
H1605 H 0.53056 0.13372 0.73359 0.0
H1606 H 0.48036 0.16131 0.75934 0.0
H1607 H 0.44018 0.09063 0.71592 0.0
H1608 H 0.46162 0.09606 0.73086 0.0
H1609 H 0.46605 0.1075 0.71162 0.0
C1610 C 0.51057 0.13099 0.77045 0.0
C1611 C 0.52456 0.13192 0.75939 0.0
C1612 C 0.49286 0.13147 0.76478 0.0
C1613 C 0.48868 0.13286 0.74793 0.0
C1614 C 0.50253 0.13366 0.73683 0.0
H1615 H 0.40312 0.15516 0.68953 0.0
H1616 H 0.4308 0.14962 0.70048 0.0
C1617 C 0.52021 0.13309 0.74247 0.0
C1618 C 0.47051 0.13466 0.74219 0.0
H1619 H 0.4275 0.1138 0.71408 0.0
C1620 C 0.46869 0.1508 0.74956 0.0
C1621 C 0.45528 0.12094 0.72942 0.0
C1622 C 0.45572 0.10269 0.7216 0.0
C1623 C 0.45239 0.15391 0.74422 0.0
C1624 C 0.4374 0.14041 0.73126 0.0
C1625 C 0.43906 0.12415 0.724 0.0
C1626 C 0.42023 0.14332 0.72472 0.0
C1627 C 0.45166 0.17196 0.75213 0.0
C1628 C 0.40494 0.14138 0.73468 0.0
C1629 C 0.389 0.1445 0.72845 0.0
C1630 C 0.38809 0.14964 0.71214 0.0
C1631 C 0.40335 0.15133 0.70217 0.0
C1632 C 0.41919 0.14811 0.70838 0.0
H1633 H 0.46646 0.18311 0.75954 0.0
H1634 H 0.44799 0.17988 0.74253 0.0
H1635 H 0.43936 0.16655 0.76053 0.0
H1636 H 0.40532 0.13742 0.74726 0.0
H1637 H 0.3775 0.14302 0.73646 0.0
H1638 H 0.93509 0.41356 0.73669 0.0
H1639 H 0.93744 0.38356 0.72733 0.0
H1640 H 0.87398 0.35299 0.70611 0.0
H1641 H 0.87112 0.38221 0.71592 0.0
H1642 H 0.90849 0.34198 0.73694 0.0
H1643 H 0.90743 0.34611 0.66891 0.0
H1644 H 0.91613 0.36825 0.68371 0.0
H1645 H 0.88905 0.35091 0.67824 0.0
C1646 C 0.92164 0.40046 0.73001 0.0
C1647 C 0.90293 0.40037 0.72701 0.0
C1648 C 0.92309 0.38345 0.72457 0.0
C1649 C 0.90598 0.36631 0.71582 0.0
C1650 C 0.88748 0.36631 0.71253 0.0
H1651 H 0.84795 0.2433 0.68055 0.0
H1652 H 0.86207 0.27993 0.68664 0.0
C1653 C 0.88592 0.38311 0.71811 0.0
C1654 C 0.90645 0.34747 0.71137 0.0
H1655 H 0.89697 0.31326 0.67824 0.0
C1656 C 0.9065 0.33581 0.72413 0.0
C1657 C 0.90377 0.33962 0.69465 0.0
C1658 C 0.90426 0.35193 0.68056 0.0
C1659 C 0.90232 0.31574 0.7206 0.0
C1660 C 0.89852 0.30744 0.70383 0.0
C1661 C 0.89981 0.31964 0.69107 0.0
C1662 C 0.89097 0.28555 0.69929 0.0
C1663 C 0.90056 0.30317 0.73483 0.0
C1664 C 0.9027 0.27664 0.70413 0.0
C1665 C 0.89456 0.25562 0.70083 0.0
C1666 C 0.87467 0.24326 0.69244 0.0
C1667 C 0.86329 0.25238 0.68707 0.0
C1668 C 0.87136 0.27332 0.6905 0.0
H1669 H 0.89991 0.31059 0.74678 0.0
H1670 H 0.88657 0.28782 0.7324 0.0
H1671 H 0.9142 0.30116 0.73623 0.0
H1672 H 0.91804 0.28589 0.71061 0.0
H1673 H 0.9038 0.24907 0.70495 0.0
H1674 H 0.17283 0.95009 0.61002 0.0
H1675 H 0.20356 0.98227 0.62103 0.0
H1676 H 0.1883 0.9695 0.67086 0.0
H1677 H 0.15773 0.937 0.65997 0.0
H1678 H 0.20256 0.01381 0.64 0.0
H1679 H 0.25018 0.98737 0.67394 0.0
H1680 H 0.22907 0.97104 0.65831 0.0
H1681 H 0.22404 0.97611 0.67882 0.0
C1682 C 0.17626 0.95389 0.62335 0.0
C1683 C 0.1629 0.94096 0.63414 0.0
C1684 C 0.19375 0.97234 0.6296 0.0
C1685 C 0.1983 0.97815 0.64675 0.0
C1686 C 0.18524 0.96514 0.6576 0.0
H1687 H 0.27324 0.10056 0.69591 0.0
H1688 H 0.24598 0.06567 0.68647 0.0
C1689 C 0.16769 0.94668 0.65135 0.0
C1690 C 0.21585 0.99851 0.65315 0.0
H1691 H 0.26153 0.02281 0.67817 0.0
C1692 C 0.21549 0.01579 0.6483 0.0
C1693 C 0.23274 0.001 0.66388 0.0
C1694 C 0.23422 0.98292 0.66897 0.0
C1695 C 0.23143 0.03553 0.65408 0.0
C1696 C 0.24805 0.03803 0.66515 0.0
C1697 C 0.24864 0.02078 0.6698 0.0
C1698 C 0.265 0.05854 0.67188 0.0
C1699 C 0.23049 0.05358 0.64819 0.0
C1700 C 0.28486 0.06583 0.66716 0.0
C1701 C 0.30051 0.08578 0.67253 0.0
C1702 C 0.29656 0.09871 0.68279 0.0
C1703 C 0.2768 0.09106 0.68796 0.0
C1704 C 0.26117 0.07115 0.68255 0.0
H1705 H 0.21912 0.04913 0.63707 0.0
H1706 H 0.22585 0.06046 0.65823 0.0
H1707 H 0.24582 0.06544 0.64518 0.0
H1708 H 0.28809 0.05626 0.65897 0.0
H1709 H 0.31557 0.09117 0.66837 0.0
H1710 H 0.06158 0.2332 0.6232 0.0
H1711 H 0.03079 0.23093 0.63363 0.0
H1712 H 1.00219 0.16541 0.63024 0.0
H1713 H 0.03245 0.16747 0.61922 0.0
H1714 H 0.97609 0.17756 0.61747 0.0
H1715 H 0.01281 0.21888 0.6798 0.0
H1716 H 0.02495 0.23299 0.66292 0.0
H1717 H 0.02532 0.20995 0.6662 0.0
C1718 C 0.0487 0.2183 0.62461 0.0
C1719 C 0.04961 0.20054 0.6205 0.0
C1720 C 0.0312 0.21704 0.63075 0.0
C1721 C 0.01431 0.19801 0.63301 0.0
C1722 C 0.01509 0.18027 0.62875 0.0
H1723 H 0.91155 0.17338 0.6894 0.0
H1724 H 0.94273 0.17667 0.67904 0.0
C1725 C 0.03252 0.1815 0.62258 0.0
C1726 C 0.99554 0.19641 0.63938 0.0
H1727 H 0.97826 0.21068 0.67257 0.0
C1728 C 0.97656 0.18479 0.62952 0.0
C1729 C 0.99612 0.20562 0.65521 0.0
C1730 C 0.01584 0.2174 0.66674 0.0
C1731 C 0.95819 0.18226 0.63497 0.0
C1732 C 0.95884 0.19195 0.6506 0.0
C1733 C 0.97779 0.2034 0.66054 0.0
C1734 C 0.93999 0.19018 0.65692 0.0
C1735 C 0.93818 0.16885 0.62408 0.0
C1736 C 0.92822 0.19693 0.64806 0.0
C1737 C 0.91033 0.19498 0.6539 0.0
C1738 C 0.90393 0.18643 0.66884 0.0
C1739 C 0.91596 0.17999 0.67784 0.0
C1740 C 0.93383 0.18189 0.67195 0.0
H1741 H 0.93953 0.15823 0.61496 0.0
H1742 H 0.92552 0.15975 0.63162 0.0
H1743 H 0.93392 0.17857 0.61704 0.0
H1744 H 0.9329 0.20379 0.63663 0.0
H1745 H 0.90156 0.20023 0.64667 0.0
H1746 H 0.78241 0.84659 0.66922 0.0
H1747 H 0.785 0.81764 0.67841 0.0
H1748 H 0.79227 0.80184 0.62848 0.0
H1749 H 0.79007 0.83089 0.61924 0.0
H1750 H 0.76243 0.77323 0.6659 0.0
H1751 H 0.84619 0.81503 0.65884 0.0
H1752 H 0.83117 0.82756 0.65987 0.0
H1753 H 0.82932 0.81285 0.64106 0.0
C1754 C 0.78434 0.83679 0.66018 0.0
C1755 C 0.78622 0.84107 0.64355 0.0
C1756 C 0.7857 0.82025 0.66543 0.0
C1757 C 0.78906 0.80786 0.65413 0.0
C1758 C 0.78981 0.8114 0.63736 0.0
H1759 H 0.79339 0.69756 0.66288 0.0
H1760 H 0.78406 0.72312 0.65633 0.0
C1761 C 0.7884 0.82788 0.63209 0.0
C1762 C 0.79343 0.79227 0.66009 0.0
H1763 H 0.83193 0.78106 0.66551 0.0
C1764 C 0.7776 0.77489 0.66587 0.0
C1765 C 0.81335 0.79477 0.66026 0.0
C1766 C 0.83108 0.81362 0.65481 0.0
C1767 C 0.78109 0.75958 0.67147 0.0
C1768 C 0.80086 0.76179 0.67112 0.0
C1769 C 0.81677 0.77941 0.66569 0.0
C1770 C 0.80537 0.74584 0.67594 0.0
C1771 C 0.7637 0.74129 0.67783 0.0
C1772 C 0.82063 0.75028 0.68902 0.0
C1773 C 0.82611 0.73576 0.69276 0.0
C1774 C 0.81652 0.7166 0.68337 0.0
C1775 C 0.80106 0.71214 0.67039 0.0
C1776 C 0.79558 0.72666 0.66669 0.0
H1777 H 0.75137 0.74433 0.68127 0.0
H1778 H 0.75681 0.7283 0.66795 0.0
H1779 H 0.7694 0.73666 0.68881 0.0
H1780 H 0.82846 0.76509 0.69621 0.0
H1781 H 0.83808 0.73969 0.70283 0.0
H1782 H 0.03701 0.83911 0.6258 0.0
H1783 H 0.00772 0.80751 0.633 0.0
H1784 H 1.00307 0.8407 0.67573 0.0
H1785 H 0.0323 0.87216 0.66877 0.0
H1786 H 1.00002 0.78724 0.66397 0.0
H1787 H 0.94621 0.81506 0.64668 0.0
H1788 H 0.97182 0.82633 0.64033 0.0
H1789 H 0.96816 0.83234 0.66109 0.0
C1790 C 0.02995 0.83958 0.63687 0.0
C1791 C 0.03674 0.85817 0.64657 0.0
C1792 C 0.01321 0.82155 0.64094 0.0
C1793 C 1.00307 0.8219 0.65473 0.0
C1794 C 0.01048 0.84022 0.66488 0.0
H1795 H 0.90892 0.72548 0.70383 0.0
H1796 H 0.94124 0.75325 0.69625 0.0
C1797 C 0.02713 0.85817 0.66084 0.0
C1798 C 0.98407 0.80345 0.65812 0.0
H1799 H 0.93273 0.78483 0.66013 0.0
C1800 C 0.98526 0.78661 0.66307 0.0
C1801 C 0.96484 0.80265 0.65673 0.0
C1802 C 0.96254 0.81997 0.65078 0.0
C1803 C 0.96771 0.76911 0.66705 0.0
C1804 C 0.94862 0.76862 0.66621 0.0
C1805 C 0.94741 0.78531 0.6609 0.0
C1806 C 0.92957 0.75095 0.67063 0.0
C1807 C 0.96969 0.75124 0.67196 0.0
C1808 C 0.91223 0.74064 0.65881 0.0
C1809 C 0.89373 0.72492 0.66311 0.0
C1810 C 0.89214 0.71922 0.67939 0.0
C1811 C 0.90962 0.72942 0.69118 0.0
C1812 C 0.92816 0.74521 0.68684 0.0
H1813 H 0.98382 0.75192 0.66795 0.0
H1814 H 0.97058 0.75141 0.68567 0.0
H1815 H 0.95608 0.73658 0.66651 0.0
H1816 H 0.91296 0.74491 0.64625 0.0
H1817 H 0.88062 0.71739 0.65369 0.0
H1818 H 0.13346 0.14816 0.6514 0.0
H1819 H 0.16747 0.15301 0.65989 0.0
H1820 H 0.19254 0.19245 0.62128 0.0
H1821 H 0.1583 0.18759 0.61263 0.0
H1822 H 0.18945 0.142 0.6393 0.0
H1823 H 0.23429 0.22433 0.66272 0.0
H1824 H 0.20646 0.21012 0.66005 0.0
H1825 H 0.22048 0.21825 0.64233 0.0
C1826 C 0.14622 0.15797 0.64475 0.0
C1827 C 0.14315 0.16734 0.63123 0.0
C1828 C 0.16567 0.16078 0.64966 0.0
C1829 C 0.18256 0.17312 0.64126 0.0
C1830 C 0.17977 0.18308 0.62809 0.0
H1831 H 0.29333 0.16229 0.64809 0.0
H1832 H 0.26357 0.1649 0.63761 0.0
C1833 C 0.16022 0.1803 0.62316 0.0
C1834 C 0.20261 0.17427 0.64572 0.0
H1835 H 0.25254 0.20641 0.66208 0.0
C1836 C 0.20328 0.1561 0.6442 0.0
C1837 C 0.22057 0.19265 0.65222 0.0
C1838 C 0.22052 0.21247 0.65458 0.0
C1839 C 0.22132 0.15575 0.64917 0.0
C1840 C 0.23934 0.17414 0.65559 0.0
C1841 C 0.23875 0.19236 0.65702 0.0
C1842 C 0.25858 0.17445 0.66162 0.0
C1843 C 0.22076 0.13556 0.64799 0.0
C1844 C 0.26612 0.17965 0.67852 0.0
C1845 C 0.28319 0.17824 0.68457 0.0
C1846 C 0.29311 0.17165 0.67382 0.0
C1847 C 0.28598 0.16722 0.65677 0.0
C1848 C 0.26892 0.16866 0.65074 0.0
H1849 H 0.20473 0.12244 0.64628 0.0
H1850 H 0.22857 0.13452 0.63718 0.0
H1851 H 0.22898 0.1342 0.65931 0.0
H1852 H 0.2584 0.18421 0.68712 0.0
H1853 H 0.28827 0.18186 0.69775 0.0
H1854 H 0.81802 0.9678 0.6409 0.0
H1855 H 0.81411 0.99793 0.64423 0.0
H1856 H 0.82746 0.00203 0.69731 0.0
H1857 H 0.83189 0.97225 0.694 0.0
H1858 H 0.78918 0.00748 0.6612 0.0
H1859 H 0.87117 0.05742 0.68648 0.0
H1860 H 0.86127 0.03174 0.67711 0.0
H1861 H 0.85738 0.03624 0.69821 0.0
C1862 C 0.81993 0.97506 0.65328 0.0
C1863 C 0.82553 0.96794 0.66719 0.0
C1864 C 0.8177 0.99223 0.65516 0.0
C1865 C 0.82093 0.00244 0.67098 0.0
C1866 C 0.82545 0.99469 0.68496 0.0
H1867 H 0.82503 0.1143 0.70588 0.0
H1868 H 0.81925 0.07958 0.7033 0.0
C1869 C 0.82794 0.97769 0.68307 0.0
C1870 C 0.82044 0.02168 0.67279 0.0
H1871 H 0.84989 0.07215 0.68695 0.0
C1872 C 0.80244 0.02163 0.66681 0.0
C1873 C 0.83785 0.04015 0.67999 0.0
C1874 C 0.85808 0.0415 0.68566 0.0
C1875 C 0.80134 0.03958 0.66805 0.0
C1876 C 0.81866 0.05788 0.67544 0.0
C1877 C 0.83659 0.05794 0.68145 0.0
C1878 C 0.81895 0.07746 0.6766 0.0
C1879 C 0.78174 0.03893 0.66159 0.0
C1880 C 0.82042 0.08755 0.66238 0.0
C1881 C 0.8239 0.10746 0.66379 0.0
C1882 C 0.82595 0.11754 0.67948 0.0
C1883 C 0.82352 0.10698 0.69362 0.0
C1884 C 0.8202 0.08715 0.69219 0.0
H1885 H 0.76869 0.02305 0.65867 0.0
H1886 H 0.7775 0.04717 0.67082 0.0
H1887 H 0.78421 0.04673 0.65009 0.0
H1888 H 0.81975 0.08034 0.65027 0.0
H1889 H 0.82565 0.11515 0.65267 0.0
H1890 H 0.54845 0.34798 0.734 0.0
H1891 H 0.51388 0.31881 0.72847 0.0
H1892 H 0.48937 0.35908 0.72268 0.0
H1893 H 0.52429 0.38847 0.72667 0.0
H1894 H 0.48189 0.30619 0.74378 0.0
H1895 H 0.46196 0.32188 0.68132 0.0
H1896 H 0.4876 0.33622 0.69206 0.0
H1897 H 0.468 0.34193 0.69727 0.0
C1898 C 0.53583 0.35074 0.73117 0.0
C1899 C 0.53937 0.3707 0.73045 0.0
C1900 C 0.51595 0.33397 0.72822 0.0
C1901 C 0.49895 0.33664 0.72479 0.0
C1902 C 0.50224 0.35654 0.72479 0.0
H1903 H 0.3779 0.22712 0.72681 0.0
H1904 H 0.40757 0.26157 0.73322 0.0
C1905 C 0.52226 0.3734 0.72739 0.0
C1906 C 0.47797 0.31839 0.72138 0.0
H1907 H 0.43568 0.29373 0.69258 0.0
C1908 C 0.47179 0.30349 0.73258 0.0
C1909 C 0.46483 0.31474 0.70668 0.0
C1910 C 0.47098 0.32943 0.69356 0.0
C1911 C 0.45326 0.28483 0.72929 0.0
C1912 C 0.43991 0.28133 0.71476 0.0
C1913 C 0.44581 0.29647 0.70377 0.0
C1914 C 0.42049 0.26156 0.71017 0.0
C1915 C 0.44884 0.26873 0.74103 0.0
C1916 C 0.41703 0.25062 0.69462 0.0
C1917 C 0.39969 0.23124 0.6907 0.0
C1918 C 0.38567 0.22232 0.70239 0.0
C1919 C 0.38866 0.23356 0.71767 0.0
C1920 C 0.4057 0.25316 0.7214 0.0
H1921 H 0.4631 0.27155 0.74851 0.0
H1922 H 0.43828 0.26901 0.7498 0.0
H1923 H 0.44148 0.25326 0.73421 0.0
H1924 H 0.42812 0.25679 0.68569 0.0
H1925 H 0.39776 0.22288 0.67884 0.0
H1926 H 0.67714 0.20501 0.75732 0.0
H1927 H 0.70522 0.20147 0.74799 0.0
H1928 H 0.6632 0.13767 0.73251 0.0
H1929 H 0.63445 0.14159 0.74034 0.0
H1930 H 0.72315 0.18221 0.75597 0.0
H1931 H 0.68844 0.15317 0.69085 0.0
H1932 H 0.67697 0.16217 0.7054 0.0
H1933 H 0.67315 0.13679 0.70548 0.0
C1934 C 0.67366 0.19026 0.75163 0.0
C1935 C 0.65327 0.17375 0.74917 0.0
C1936 C 0.6899 0.18819 0.74648 0.0
C1937 C 0.68639 0.16943 0.73906 0.0
C1938 C 0.66629 0.15251 0.73761 0.0
H1939 H 0.79623 0.15981 0.72444 0.0
H1940 H 0.76496 0.1562 0.73481 0.0
C1941 C 0.64986 0.15469 0.74242 0.0
C1942 C 0.7039 0.168 0.73283 0.0
H1943 H 0.71993 0.1544 0.69845 0.0
C1944 C 0.72241 0.17615 0.74336 0.0
C1945 C 0.70317 0.16037 0.7163 0.0
C1946 C 0.68445 0.15283 0.7038 0.0
C1947 C 0.74023 0.17734 0.73782 0.0
C1948 C 0.73931 0.16911 0.72146 0.0
C1949 C 0.72069 0.16058 0.71102 0.0
C1950 C 0.75765 0.16996 0.71468 0.0
C1951 C 0.76002 0.18834 0.74938 0.0
C1952 C 0.76343 0.17771 0.69937 0.0
C1953 C 0.7809 0.17905 0.69312 0.0
C1954 C 0.79319 0.17305 0.70222 0.0
C1955 C 0.78725 0.16494 0.71735 0.0
C1956 C 0.76945 0.16303 0.72335 0.0
H1957 H 0.75963 0.19924 0.75887 0.0
H1958 H 0.76216 0.17706 0.75607 0.0
H1959 H 0.77354 0.19693 0.7425 0.0
H1960 H 0.75461 0.18308 0.69235 0.0
H1961 H 0.78515 0.18535 0.68142 0.0
H1962 H 0.85419 0.48372 0.68639 0.0
H1963 H 0.85722 0.51734 0.68624 0.0
H1964 H 0.87097 0.52724 0.73952 0.0
H1965 H 0.86794 0.49354 0.73978 0.0
H1966 H 0.83651 0.5319 0.72476 0.0
H1967 H 0.9095 0.57619 0.69672 0.0
H1968 H 0.89194 0.55111 0.68649 0.0
H1969 H 0.90373 0.55383 0.70718 0.0
C1970 C 0.85803 0.49315 0.69805 0.0
C1971 C 0.86077 0.48607 0.7131 0.0
C1972 C 0.85992 0.51237 0.69793 0.0
C1973 C 0.86451 0.52475 0.71285 0.0
C1974 C 0.86761 0.5179 0.72789 0.0
H1975 H 0.85178 0.63286 0.72826 0.0
H1976 H 0.85847 0.60512 0.73324 0.0
C1977 C 0.86592 0.49874 0.72801 0.0
C1978 C 0.86426 0.54403 0.71276 0.0
H1979 H 0.88788 0.59068 0.69814 0.0
C1980 C 0.84786 0.54491 0.71917 0.0
C1981 C 0.87905 0.56078 0.70533 0.0
C1982 C 0.89717 0.56061 0.69863 0.0
C1983 C 0.84534 0.56186 0.7177 0.0
C1984 C 0.85997 0.57856 0.71002 0.0
C1985 C 0.87671 0.57787 0.70403 0.0
C1986 C 0.85751 0.59635 0.70723 0.0
C1987 C 0.82649 0.56128 0.72365 0.0
C1988 C 0.85563 0.60113 0.69099 0.0
C1989 C 0.85211 0.61715 0.6881 0.0
C1990 C 0.85033 0.6286 0.70142 0.0
C1991 C 0.85281 0.62415 0.71772 0.0
C1992 C 0.85655 0.60825 0.72059 0.0
H1993 H 0.81438 0.54552 0.72536 0.0
H1994 H 0.83089 0.57062 0.73581 0.0
H1995 H 0.81983 0.56763 0.71477 0.0
H1996 H 0.8564 0.59216 0.68051 0.0
H1997 H 0.8503 0.62022 0.67541 0.0
H1998 H 0.43336 0.87479 0.23202 0.0
H1999 H 0.44823 0.89575 0.20949 0.0
H2000 H 0.45106 0.94725 0.2374 0.0
H2001 H 0.43608 0.92629 0.26004 0.0
H2002 H 0.43458 0.942 0.20536 0.0
H2003 H 0.50719 0.93992 0.20676 0.0
H2004 H 0.48478 0.91495 0.20489 0.0
H2005 H 0.49097 0.93202 0.22338 0.0
C2006 C 0.43747 0.89067 0.23351 0.0
C2007 C 0.43367 0.89891 0.24789 0.0
C2008 C 0.446 0.90265 0.22061 0.0
C2009 C 0.45111 0.92318 0.22186 0.0
C2010 C 0.44733 0.93147 0.23619 0.0
H2011 H 0.5223 0.00799 0.15194 0.0
H2012 H 0.51027 0.99078 0.17684 0.0
C2013 C 0.43872 0.91947 0.24909 0.0
C2014 C 0.45948 0.93567 0.20788 0.0
H2015 H 0.49801 0.95163 0.18265 0.0
C2016 C 0.44854 0.94425 0.20048 0.0
C2017 C 0.47786 0.93885 0.20165 0.0
C2018 C 0.491 0.93113 0.20969 0.0
C2019 C 0.45514 0.95541 0.18673 0.0
C2020 C 0.47294 0.95771 0.17998 0.0
C2021 C 0.48422 0.94965 0.18769 0.0
C2022 C 0.48006 0.96831 0.16488 0.0
C2023 C 0.44307 0.9648 0.17968 0.0
C2024 C 0.46717 0.96128 0.14982 0.0
C2025 C 0.47392 0.97121 0.13561 0.0
C2026 C 0.49381 0.98829 0.13608 0.0
C2027 C 0.50678 0.99511 0.15116 0.0
C2028 C 0.49998 0.9852 0.16539 0.0
H2029 H 0.43391 0.96687 0.18897 0.0
H2030 H 0.45342 0.97984 0.17534 0.0
H2031 H 0.43218 0.95455 0.16894 0.0
H2032 H 0.4519 0.94801 0.14903 0.0
H2033 H 0.46343 0.96562 0.12428 0.0
H2034 H 0.07736 0.52623 0.27332 0.0
H2035 H 0.06258 0.52529 0.2452 0.0
H2036 H 0.12198 0.57228 0.23417 0.0
H2037 H 0.13696 0.57328 0.26228 0.0
H2038 H 0.06835 0.56431 0.22645 0.0
H2039 H 0.09816 0.51579 0.20028 0.0
H2040 H 0.09268 0.5156 0.22161 0.0
H2041 H 0.11461 0.53731 0.21531 0.0
C2042 C 0.08724 0.53645 0.26493 0.0
C2043 C 0.10832 0.54976 0.26994 0.0
C2044 C 0.07876 0.53597 0.24895 0.0
C2045 C 0.09124 0.54868 0.2377 0.0
C2046 C 0.11215 0.56241 0.24276 0.0
H2047 H 0.06189 0.53615 0.13051 0.0
H2048 H 0.0801 0.54725 0.15851 0.0
C2049 C 0.12063 0.563 0.2588 0.0
C2050 C 0.08259 0.54661 0.22037 0.0
H2051 H 0.07781 0.52316 0.18196 0.0
C2052 C 0.07049 0.55546 0.21664 0.0
C2053 C 0.08558 0.53515 0.20771 0.0
C2054 C 0.0984 0.52531 0.21129 0.0
C2055 C 0.06109 0.55297 0.20046 0.0
C2056 C 0.06347 0.54087 0.18787 0.0
C2057 C 0.07598 0.53242 0.1916 0.0
C2058 C 0.05247 0.53597 0.1709 0.0
C2059 C 0.04887 0.56347 0.19702 0.0
C2060 C 0.03088 0.52602 0.16854 0.0
C2061 C 0.02042 0.51992 0.15254 0.0
C2062 C 0.03133 0.52334 0.13855 0.0
C2063 C 0.05299 0.53353 0.14097 0.0
C2064 C 0.06344 0.53977 0.15698 0.0
H2065 H 0.05411 0.57709 0.20606 0.0
H2066 H 0.05014 0.5683 0.18428 0.0
H2067 H 0.0324 0.55277 0.19822 0.0
H2068 H 0.02204 0.52248 0.17908 0.0
H2069 H 1.00376 0.51232 0.15116 0.0
H2070 H 0.43518 0.52042 0.25442 0.0
H2071 H 0.43853 0.50596 0.22779 0.0
H2072 H 0.48734 0.56539 0.21906 0.0
H2073 H 0.48337 0.58003 0.24489 0.0
H2074 H 0.45954 0.547 0.19227 0.0
H2075 H 0.48334 0.49374 0.21627 0.0
H2076 H 0.45927 0.49031 0.22205 0.0
H2077 H 0.48287 0.51325 0.22966 0.0
C2078 C 0.44659 0.53039 0.24679 0.0
C2079 C 0.4592 0.55136 0.25197 0.0
C2080 C 0.44863 0.52206 0.23166 0.0
C2081 C 0.46341 0.53454 0.22154 0.0
C2082 C 0.47591 0.55542 0.22669 0.0
H2083 H 0.52794 0.51863 0.14608 0.0
H2084 H 0.51336 0.52094 0.17146 0.0
C2085 C 0.47378 0.56374 0.24163 0.0
C2086 C 0.46581 0.52642 0.20529 0.0
H2087 H 0.48151 0.49542 0.18738 0.0
C2088 C 0.46414 0.53556 0.19115 0.0
C2089 C 0.47191 0.51157 0.2039 0.0
C2090 C 0.47464 0.50171 0.21877 0.0
C2091 C 0.4693 0.53102 0.17584 0.0
C2092 C 0.47565 0.51634 0.17446 0.0
C2093 C 0.47652 0.50656 0.18844 0.0
C2094 C 0.4834 0.51251 0.15909 0.0
C2095 C 0.46907 0.54292 0.1616 0.0
C2096 C 0.47123 0.50635 0.1437 0.0
C2097 C 0.4797 0.50553 0.12907 0.0
C2098 C 0.50044 0.51048 0.12956 0.0
C2099 C 0.51212 0.51527 0.14514 0.0
C2100 C 0.50372 0.51635 0.15972 0.0
H2101 H 0.46862 0.55684 0.16587 0.0
H2102 H 0.48285 0.54758 0.15488 0.0
H2103 H 0.45514 0.53321 0.15273 0.0
H2104 H 0.45535 0.50281 0.14295 0.0
H2105 H 0.47021 0.50183 0.11735 0.0
H2106 H 0.88763 0.45049 0.78186 0.0
H2107 H 0.9023 0.46375 0.81071 0.0
H2108 H 0.95967 0.46865 0.79941 0.0
H2109 H 0.94543 0.45619 0.77049 0.0
H2110 H 0.91568 0.44548 0.83213 0.0
H2111 H 0.97968 0.523 0.82591 0.0
H2112 H 0.95927 0.5082 0.80936 0.0
H2113 H 0.98065 0.50387 0.81266 0.0
C2114 C 0.90354 0.4549 0.78543 0.0
C2115 C 0.91538 0.45229 0.77389 0.0
C2116 C 0.91185 0.46235 0.80193 0.0
C2117 C 0.93216 0.46745 0.80716 0.0
C2118 C 0.94412 0.46525 0.79559 0.0
H2119 H 0.00866 0.48648 0.89638 0.0
H2120 H 0.99229 0.48148 0.86814 0.0
C2121 C 0.93587 0.45787 0.77911 0.0
C2122 C 0.94032 0.47333 0.82495 0.0
H2123 H 0.98155 0.50895 0.85141 0.0
C2124 C 0.9299 0.45952 0.83641 0.0
C2125 C 0.95887 0.49166 0.83049 0.0
C2126 C 0.97015 0.50762 0.81898 0.0
C2127 C 0.93802 0.4631 0.85312 0.0
C2128 C 0.95695 0.48104 0.8585 0.0
C2129 C 0.96707 0.49516 0.84718 0.0
C2130 C 0.96702 0.48486 0.87563 0.0
C2131 C 0.92677 0.44729 0.86477 0.0
C2132 C 0.95831 0.48864 0.88914 0.0
C2133 C 0.96771 0.49166 0.90532 0.0
C2134 C 0.98601 0.49098 0.90823 0.0
C2135 C 0.99476 0.48739 0.89459 0.0
C2136 C 0.98539 0.48444 0.87844 0.0
H2137 H 0.91414 0.4328 0.85806 0.0
H2138 H 0.93761 0.44398 0.87207 0.0
H2139 H 0.91998 0.45328 0.87364 0.0
H2140 H 0.94426 0.48926 0.88716 0.0
H2141 H 0.96075 0.49472 0.91551 0.0
H2142 H 0.57617 0.49394 0.77937 0.0
H2143 H 0.56207 0.49864 0.80447 0.0
H2144 H 0.56368 0.44737 0.82323 0.0
H2145 H 0.57832 0.44292 0.79842 0.0
H2146 H 0.52574 0.47119 0.81794 0.0
H2147 H 0.59596 0.4936 0.86091 0.0
H2148 H 0.59608 0.4931 0.83866 0.0
H2149 H 0.58617 0.46978 0.84832 0.0
C2150 C 0.57364 0.48374 0.78889 0.0
C2151 C 0.57849 0.46813 0.78693 0.0
C2152 C 0.56547 0.48637 0.80316 0.0
C2153 C 0.56212 0.47354 0.81581 0.0
C2154 C 0.56646 0.45765 0.81374 0.0
H2155 H 0.51971 0.46931 0.91315 0.0
H2156 H 0.53127 0.46257 0.88734 0.0
C2157 C 0.57462 0.45499 0.79946 0.0
C2158 C 0.55417 0.47688 0.83119 0.0
H2159 H 0.56641 0.48881 0.87314 0.0
C2160 C 0.53463 0.47509 0.83001 0.0
C2161 C 0.56582 0.48197 0.84691 0.0
C2162 C 0.58725 0.48492 0.84884 0.0
C2163 C 0.52628 0.47795 0.8442 0.0
C2164 C 0.53795 0.48307 0.85991 0.0
C2165 C 0.55747 0.48482 0.86108 0.0
C2166 C 0.53033 0.48688 0.87533 0.0
C2167 C 0.50487 0.47505 0.84227 0.0
C2168 C 0.52612 0.50289 0.8772 0.0
C2169 C 0.51958 0.50683 0.89196 0.0
C2170 C 0.51727 0.49493 0.90521 0.0
C2171 C 0.52153 0.47891 0.90328 0.0
C2172 C 0.52804 0.47497 0.8885 0.0
H2173 H 0.49601 0.46597 0.83037 0.0
H2174 H 0.49618 0.46732 0.85266 0.0
H2175 H 0.506 0.49019 0.84236 0.0
H2176 H 0.52825 0.51258 0.86735 0.0
H2177 H 0.51679 0.51951 0.89314 0.0
H2178 H 0.53741 0.08282 0.78873 0.0
H2179 H 0.53339 0.06556 0.81398 0.0
H2180 H 0.58392 0.12064 0.84018 0.0
H2181 H 0.58786 0.13812 0.81501 0.0
H2182 H 0.56244 0.0602 0.83646 0.0
H2183 H 0.53281 0.10718 0.86564 0.0
H2184 H 0.53447 0.10516 0.84361 0.0
H2185 H 0.55732 0.12082 0.85766 0.0
C2186 C 0.54782 0.09119 0.79983 0.0
C2187 C 0.56283 0.11188 0.79993 0.0
C2188 C 0.54556 0.08129 0.81421 0.0
C2189 C 0.55817 0.09191 0.82898 0.0
C2190 C 0.5739 0.11225 0.82892 0.0
H2191 H 0.54062 0.05804 0.93009 0.0
H2192 H 0.55497 0.07572 0.9059 0.0
C2193 C 0.57624 0.12215 0.81451 0.0
C2194 C 0.55382 0.08208 0.84464 0.0
H2195 H 0.53448 0.08288 0.88132 0.0
C2196 C 0.55645 0.0652 0.84634 0.0
C2197 C 0.54601 0.08866 0.85748 0.0
C2198 C 0.54231 0.10635 0.85606 0.0
C2199 C 0.55145 0.0547 0.86058 0.0
C2200 C 0.54313 0.06096 0.87325 0.0
C2201 C 0.54088 0.07809 0.87164 0.0
C2202 C 0.53583 0.04958 0.88799 0.0
C2203 C 0.55533 0.03713 0.86197 0.0
C2204 C 0.52035 0.02894 0.88601 0.0
C2205 C 0.51227 0.0187 0.89985 0.0
C2206 C 0.51931 0.02893 0.91598 0.0
C2207 C 0.53503 0.04955 0.91791 0.0
C2208 C 0.54317 0.05975 0.90407 0.0
H2209 H 0.56753 0.03848 0.85428 0.0
H2210 H 0.55997 0.03622 0.87504 0.0
H2211 H 0.54099 0.02266 0.85741 0.0
H2212 H 0.51408 0.02086 0.87374 0.0
H2213 H 0.50034 0.00279 0.89787 0.0
H2214 H 0.10561 0.2553 0.59349 0.0
H2215 H 0.1188 0.27594 0.57036 0.0
H2216 H 0.11803 0.22535 0.54273 0.0
H2217 H 0.10497 0.2047 0.5658 0.0
H2218 H 0.15327 0.26158 0.54046 0.0
H2219 H 0.08436 0.26949 0.52721 0.0
H2220 H 0.09649 0.27832 0.54814 0.0
H2221 H 0.0848 0.25172 0.54086 0.0
C2222 C 0.10824 0.24858 0.58248 0.0
C2223 C 0.10418 0.22834 0.58147 0.0
C2224 C 0.11571 0.26037 0.56925 0.0
C2225 C 0.11904 0.25207 0.55468 0.0
C2226 C 0.11552 0.23206 0.55383 0.0
H2227 H 0.12887 0.29508 0.45727 0.0
H2228 H 0.11859 0.27647 0.48172 0.0
C2229 C 0.10815 0.2203 0.56707 0.0
C2230 C 0.126 0.2641 0.54025 0.0
H2231 H 0.11261 0.28851 0.51211 0.0
C2232 C 0.14439 0.26749 0.53426 0.0
C2233 C 0.11424 0.27154 0.53201 0.0
C2234 C 0.09378 0.26745 0.53726 0.0
C2235 C 0.15143 0.27821 0.52034 0.0
C2236 C 0.13995 0.28611 0.51238 0.0
C2237 C 0.12149 0.28262 0.51831 0.0
C2238 C 0.14647 0.29752 0.49757 0.0
C2239 C 0.1708 0.2805 0.51404 0.0
C2240 C 0.16548 0.31569 0.49836 0.0
C2241 C 0.17153 0.32626 0.48433 0.0
C2242 C 0.1586 0.31899 0.46923 0.0
C2243 C 0.1394 0.30095 0.46858 0.0
C2244 C 0.13341 0.29036 0.4826 0.0
H2245 H 0.17461 0.26913 0.51864 0.0
H2246 H 0.16928 0.27878 0.50026 0.0
H2247 H 0.18389 0.29593 0.51848 0.0
H2248 H 0.17564 0.32174 0.50986 0.0
H2249 H 0.18647 0.34 0.48528 0.0
H2250 H 0.79805 0.9041 0.59367 0.0
H2251 H 0.7818 0.90209 0.5659 0.0
H2252 H 0.72507 0.85093 0.57714 0.0
H2253 H 0.74099 0.85322 0.60504 0.0
H2254 H 0.76579 0.86869 0.54225 0.0
H2255 H 0.7054 0.88691 0.55656 0.0
H2256 H 0.7269 0.8925 0.5715 0.0
H2257 H 0.70498 0.86711 0.5679 0.0
C2258 C 0.78197 0.89273 0.59035 0.0
C2259 C 0.77078 0.87882 0.60154 0.0
C2260 C 0.77276 0.89153 0.57446 0.0
C2261 C 0.75217 0.87653 0.56954 0.0
C2262 C 0.74086 0.86288 0.58079 0.0
H2263 H 0.66899 0.82507 0.48001 0.0
H2264 H 0.68663 0.83428 0.50823 0.0
C2265 C 0.75004 0.86406 0.59666 0.0
C2266 C 0.74295 0.87408 0.55226 0.0
H2267 H 0.70187 0.87139 0.52915 0.0
C2268 C 0.75197 0.86954 0.53934 0.0
C2269 C 0.72489 0.87515 0.54855 0.0
C2270 C 0.71507 0.88088 0.56184 0.0
C2271 C 0.74298 0.8653 0.52283 0.0
C2272 C 0.72467 0.86593 0.51917 0.0
C2273 C 0.71588 0.87087 0.53204 0.0
C2274 C 0.71402 0.8608 0.50211 0.0
C2275 C 0.75272 0.85945 0.50954 0.0
C2276 C 0.72352 0.87282 0.48939 0.0
C2277 C 0.71346 0.86764 0.47326 0.0
C2278 C 0.69367 0.85041 0.4696 0.0
C2279 C 0.68413 0.83856 0.48245 0.0
C2280 C 0.6942 0.84375 0.49856 0.0
H2281 H 0.76405 0.8554 0.51487 0.0
H2282 H 0.74079 0.84632 0.50095 0.0
H2283 H 0.76091 0.87252 0.50217 0.0
H2284 H 0.73868 0.88626 0.49197 0.0
H2285 H 0.72108 0.87728 0.46371 0.0
H2286 H 0.15252 0.88099 0.59951 0.0
H2287 H 0.15593 0.86753 0.57264 0.0
H2288 H 0.09928 0.8631 0.55211 0.0
H2289 H 0.09644 0.8778 0.57862 0.0
H2290 H 0.13355 0.8334 0.55142 0.0
H2291 H 0.13918 0.90024 0.52228 0.0
H2292 H 0.13958 0.89894 0.54439 0.0
H2293 H 0.11556 0.88566 0.53117 0.0
C2294 C 0.14078 0.87719 0.58928 0.0
C2295 C 0.12445 0.88092 0.59118 0.0
C2296 C 0.14266 0.86931 0.57395 0.0
C2297 C 0.12817 0.86484 0.56023 0.0
C2298 C 0.11097 0.86699 0.5624 0.0
H2299 H 0.13199 0.83356 0.45568 0.0
H2300 H 0.11962 0.83594 0.48235 0.0
C2301 C 0.1092 0.87512 0.57768 0.0
C2302 C 0.13187 0.85922 0.54352 0.0
H2303 H 0.14017 0.87504 0.50475 0.0
C2304 C 0.13489 0.84244 0.5412 0.0
C2305 C 0.13381 0.87114 0.5302 0.0
C2306 C 0.13207 0.89011 0.53212 0.0
C2307 C 0.13988 0.83737 0.52596 0.0
C2308 C 0.14188 0.84935 0.51276 0.0
C2309 C 0.13844 0.86581 0.51492 0.0
C2310 C 0.14878 0.84595 0.49687 0.0
C2311 C 0.14312 0.81933 0.52405 0.0
C2312 C 0.16927 0.85079 0.49626 0.0
C2313 C 0.17653 0.84982 0.48104 0.0
C2314 C 0.16339 0.84394 0.4661 0.0
C2315 C 0.14266 0.83849 0.46687 0.0
C2316 C 0.13548 0.83966 0.4821 0.0
H2317 H 0.1371 0.8093 0.53415 0.0
H2318 H 0.13549 0.81018 0.51191 0.0
H2319 H 0.15986 0.82488 0.52438 0.0
H2320 H 0.17986 0.85603 0.50753 0.0
H2321 H 0.19265 0.85447 0.48096 0.0
H2322 H 0.61056 0.79307 0.10075 0.0
H2323 H 0.62364 0.80425 0.13002 0.0
H2324 H 0.56776 0.80397 0.13933 0.0
H2325 H 0.55417 0.79192 0.11012 0.0
H2326 H 0.63092 0.83743 0.15118 0.0
H2327 H 0.56947 0.76513 0.1712 0.0
H2328 H 0.57397 0.76824 0.14973 0.0
H2329 H 0.56054 0.77923 0.15958 0.0
C2330 C 0.60105 0.7954 0.10902 0.0
C2331 C 0.58119 0.79129 0.10316 0.0
C2332 C 0.6086 0.80192 0.12572 0.0
C2333 C 0.59649 0.80452 0.13691 0.0
C2334 C 0.57716 0.80162 0.13095 0.0
H2335 H 0.62303 0.82664 0.24551 0.0
H2336 H 0.60744 0.82306 0.21712 0.0
C2337 C 0.56953 0.79498 0.11422 0.0
C2338 C 0.60388 0.80926 0.15488 0.0
H2339 H 0.59413 0.78928 0.19209 0.0
C2340 C 0.6228 0.82699 0.16015 0.0
C2341 C 0.59325 0.79559 0.16657 0.0
C2342 C 0.57327 0.77589 0.16153 0.0
C2343 C 0.63156 0.83123 0.17674 0.0
C2344 C 0.62122 0.81726 0.18827 0.0
C2345 C 0.60198 0.79992 0.18317 0.0
C2346 C 0.63071 0.81969 0.20544 0.0
C2347 C 0.65189 0.85052 0.18177 0.0
C2348 C 0.6487 0.81857 0.20822 0.0
C2349 C 0.65749 0.82034 0.22438 0.0
C2350 C 0.64846 0.82326 0.2381 0.0
C2351 C 0.63027 0.82416 0.23524 0.0
C2352 C 0.62142 0.82229 0.21904 0.0
H2353 H 0.65506 0.86202 0.17282 0.0
H2354 H 0.65223 0.85734 0.19433 0.0
H2355 H 0.66447 0.84686 0.18211 0.0
H2356 H 0.65582 0.81608 0.19787 0.0
H2357 H 0.67125 0.81916 0.22611 0.0
H2358 H 0.24283 0.83004 0.11529 0.0
H2359 H 0.22879 0.83558 0.14016 0.0
H2360 H 0.23259 0.78646 0.16113 0.0
H2361 H 0.24718 0.78123 0.13661 0.0
H2362 H 0.19298 0.80812 0.15409 0.0
H2363 H 0.2635 0.83417 0.19766 0.0
H2364 H 0.26367 0.83277 0.1754 0.0
H2365 H 0.25473 0.81006 0.18584 0.0
C2366 C 0.24084 0.82054 0.12526 0.0
C2367 C 0.24619 0.80524 0.12399 0.0
C2368 C 0.23271 0.82364 0.13941 0.0
C2369 C 0.22994 0.81162 0.15258 0.0
C2370 C 0.23493 0.79613 0.15123 0.0
H2371 H 0.18486 0.80399 0.24862 0.0
H2372 H 0.19773 0.79895 0.22295 0.0
C2373 C 0.24304 0.79301 0.13711 0.0
C2374 C 0.22168 0.81514 0.1677 0.0
H2375 H 0.23312 0.82743 0.20966 0.0
C2376 C 0.20177 0.81246 0.16623 0.0
C2377 C 0.23322 0.82082 0.18352 0.0
C2378 C 0.25504 0.82482 0.18575 0.0
C2379 C 0.19288 0.81481 0.18025 0.0
C2380 C 0.20435 0.82029 0.19608 0.0
C2381 C 0.22432 0.82314 0.19751 0.0
C2382 C 0.19595 0.82309 0.21137 0.0
C2383 C 0.17109 0.81089 0.17805 0.0
C2384 C 0.1908 0.83843 0.21341 0.0
C2385 C 0.18352 0.84141 0.2281 0.0
C2386 C 0.18138 0.82919 0.24108 0.0
C2387 C 0.18654 0.81382 0.23896 0.0
C2388 C 0.1938 0.81085 0.22427 0.0
H2389 H 0.16274 0.80202 0.16595 0.0
H2390 H 0.16233 0.80247 0.18818 0.0
H2391 H 0.17145 0.82569 0.17846 0.0
H2392 H 0.19277 0.84834 0.20376 0.0
H2393 H 0.18004 0.85361 0.22944 0.0
H2394 H 0.19467 0.41556 0.11973 0.0
H2395 H 0.18771 0.39774 0.14477 0.0
H2396 H 0.24265 0.4484 0.17132 0.0
H2397 H 0.2493 0.46666 0.14652 0.0
H2398 H 0.20991 0.3855 0.16519 0.0
H2399 H 0.19775 0.44338 0.19942 0.0
H2400 H 0.19931 0.44243 0.17734 0.0
H2401 H 0.22237 0.45348 0.19164 0.0
C2402 C 0.2053 0.42291 0.13089 0.0
C2403 C 0.22241 0.44265 0.13116 0.0
C2404 C 0.20136 0.41265 0.14517 0.0
C2405 C 0.21441 0.42192 0.16001 0.0
C2406 C 0.23212 0.44114 0.16009 0.0
H2407 H 0.20535 0.38548 0.26047 0.0
H2408 H 0.21688 0.40271 0.23549 0.0
C2409 C 0.23605 0.45145 0.14583 0.0
C2410 C 0.20901 0.41176 0.17548 0.0
H2411 H 0.19639 0.417 0.21438 0.0
C2412 C 0.20697 0.39238 0.17596 0.0
C2413 C 0.2051 0.42074 0.1895 0.0
C2414 C 0.20604 0.44106 0.18948 0.0
C2415 C 0.2013 0.38183 0.19012 0.0
C2416 C 0.19729 0.39077 0.20407 0.0
C2417 C 0.19952 0.41021 0.20367 0.0
C2418 C 0.19035 0.38008 0.21913 0.0
C2419 C 0.19988 0.3613 0.1901 0.0
C2420 C 0.17146 0.36179 0.21826 0.0
C2421 C 0.16472 0.35198 0.23254 0.0
C2422 C 0.1767 0.36032 0.24801 0.0
C2423 C 0.19558 0.37875 0.24883 0.0
C2424 C 0.20228 0.38855 0.23454 0.0
H2425 H 0.20839 0.35897 0.18036 0.0
H2426 H 0.20606 0.35958 0.20235 0.0
H2427 H 0.18347 0.34912 0.18759 0.0
H2428 H 0.16178 0.35522 0.20655 0.0
H2429 H 0.14995 0.33803 0.23149 0.0
H2430 H 0.73938 0.55385 0.90067 0.0
H2431 H 0.75364 0.57431 0.87775 0.0
H2432 H 0.81512 0.59294 0.89941 0.0
H2433 H 0.80092 0.57247 0.92248 0.0
H2434 H 0.78042 0.61599 0.87895 0.0
H2435 H 0.8148 0.57265 0.85162 0.0
H2436 H 0.79649 0.56276 0.86666 0.0
H2437 H 0.82293 0.58152 0.87327 0.0
C2438 C 0.75595 0.56239 0.90063 0.0
C2439 C 0.76903 0.56158 0.91344 0.0
C2440 C 0.76407 0.574 0.88747 0.0
C2441 C 0.78542 0.58497 0.88676 0.0
C2442 C 0.79857 0.58427 0.89953 0.0
H2443 H 0.85748 0.66339 0.81354 0.0
H2444 H 0.84668 0.64528 0.83828 0.0
C2445 C 0.79044 0.57259 0.91271 0.0
C2446 C 0.79378 0.59746 0.8728 0.0
H2447 H 0.82107 0.60265 0.83967 0.0
C2448 C 0.78931 0.61308 0.87036 0.0
C2449 C 0.80544 0.59368 0.86165 0.0
C2450 C 0.81009 0.57664 0.86329 0.0
C2451 C 0.79617 0.62502 0.85708 0.0
C2452 C 0.80754 0.62103 0.84578 0.0
C2453 C 0.81234 0.60566 0.84836 0.0
C2454 C 0.81407 0.63225 0.83093 0.0
C2455 C 0.79134 0.64192 0.85533 0.0
C2456 C 0.79931 0.63077 0.81853 0.0
C2457 C 0.80541 0.64113 0.80443 0.0
C2458 C 0.82643 0.65314 0.8024 0.0
C2459 C 0.84118 0.65451 0.81482 0.0
C2460 C 0.83505 0.64407 0.82891 0.0
H2461 H 0.78745 0.6465 0.86718 0.0
H2462 H 0.80454 0.65554 0.85119 0.0
H2463 H 0.77787 0.63656 0.84587 0.0
H2464 H 0.78303 0.62146 0.81971 0.0
H2465 H 0.79365 0.63987 0.79517 0.0
H2466 H 0.46576 0.23162 0.93413 0.0
H2467 H 0.45068 0.22815 0.90551 0.0
H2468 H 0.39122 0.1832 0.91821 0.0
H2469 H 0.40616 0.18658 0.94681 0.0
H2470 H 0.4265 0.18687 0.88434 0.0
H2471 H 0.38351 0.22806 0.89392 0.0
H2472 H 0.40573 0.23302 0.90776 0.0
H2473 H 0.38145 0.21031 0.90853 0.0
C2474 C 0.44943 0.22122 0.93086 0.0
C2475 C 0.43711 0.20937 0.94267 0.0
C2476 C 0.44088 0.21919 0.91453 0.0
C2477 C 0.41986 0.20554 0.90986 0.0
C2478 C 0.40746 0.19394 0.92166 0.0
H2479 H 0.33512 0.16719 0.82082 0.0
H2480 H 0.3521 0.17454 0.8491 0.0
C2481 C 0.41601 0.1958 0.93793 0.0
C2482 C 0.41099 0.20261 0.89244 0.0
H2483 H 0.37776 0.21041 0.86742 0.0
C2484 C 0.41596 0.19212 0.88055 0.0
C2485 C 0.39715 0.20936 0.8877 0.0
C2486 C 0.39165 0.22094 0.90007 0.0
C2487 C 0.407 0.18773 0.86402 0.0
C2488 C 0.39316 0.19454 0.8592 0.0
C2489 C 0.38839 0.20523 0.87112 0.0
C2490 C 0.38304 0.19027 0.84196 0.0
C2491 C 0.41188 0.17519 0.85205 0.0
C2492 C 0.39479 0.1969 0.82856 0.0
C2493 C 0.38512 0.19239 0.81232 0.0
C2494 C 0.36349 0.18143 0.80918 0.0
C2495 C 0.35179 0.17528 0.82271 0.0
C2496 C 0.36147 0.17964 0.83892 0.0
H2497 H 0.4179 0.16647 0.85865 0.0
H2498 H 0.39804 0.16429 0.84349 0.0
H2499 H 0.4239 0.18551 0.84451 0.0
H2500 H 0.41145 0.20553 0.83064 0.0
H2501 H 0.39464 0.19725 0.80223 0.0
H2502 H 0.77327 0.18923 0.92265 0.0
H2503 H 0.77995 0.17376 0.89817 0.0
H2504 H 0.82393 0.23364 0.88605 0.0
H2505 H 0.81734 0.2491 0.9102 0.0
H2506 H 0.77531 0.1789 0.86476 0.0
H2507 H 0.85673 0.20417 0.88526 0.0
H2508 H 0.83936 0.20463 0.89933 0.0
H2509 H 0.85182 0.225 0.88643 0.0
C2510 C 0.78438 0.19906 0.91476 0.0
C2511 C 0.79503 0.22038 0.91854 0.0
C2512 C 0.78822 0.19021 0.90083 0.0
C2513 C 0.8028 0.20254 0.89052 0.0
C2514 C 0.81309 0.2238 0.89411 0.0
H2515 H 0.81951 0.19111 0.78909 0.0
H2516 H 0.80776 0.19408 0.81581 0.0
C2517 C 0.80931 0.23262 0.90796 0.0
C2518 C 0.8069 0.19353 0.87559 0.0
H2519 H 0.84626 0.19523 0.85589 0.0
C2520 C 0.79075 0.18216 0.86291 0.0
C2521 C 0.82696 0.19742 0.8733 0.0
C2522 C 0.84466 0.20829 0.88689 0.0
C2523 C 0.79439 0.17566 0.8476 0.0
C2524 C 0.81478 0.18105 0.84483 0.0
C2525 C 0.83067 0.19132 0.8579 0.0
C2526 C 0.82028 0.17746 0.82824 0.0
C2527 C 0.77638 0.16329 0.83451 0.0
C2528 C 0.83156 0.16742 0.82633 0.0
C2529 C 0.83849 0.16586 0.81105 0.0
C2530 C 0.83428 0.17434 0.79738 0.0
C2531 C 0.82267 0.18405 0.79926 0.0
C2532 C 0.81586 0.18571 0.81455 0.0
H2533 H 0.76183 0.15458 0.84021 0.0
H2534 H 0.77448 0.17373 0.82648 0.0
H2535 H 0.7788 0.15242 0.8266 0.0
H2536 H 0.83527 0.16105 0.83675 0.0
H2537 H 0.84728 0.15817 0.80996 0.0
H2538 H 0.22524 0.12346 0.4551 0.0
H2539 H 0.24133 0.13783 0.48348 0.0
H2540 H 0.29931 0.14687 0.46946 0.0
H2541 H 0.28343 0.13287 0.44098 0.0
H2542 H 0.25909 0.1196 0.50277 0.0
H2543 H 0.31578 0.20079 0.49761 0.0
H2544 H 0.29431 0.18538 0.48196 0.0
H2545 H 0.31693 0.18297 0.48283 0.0
C2546 C 0.24156 0.12904 0.45795 0.0
C2547 C 0.25309 0.12703 0.44582 0.0
C2548 C 0.25069 0.13715 0.47417 0.0
C2549 C 0.27154 0.14359 0.47852 0.0
C2550 C 0.28329 0.14232 0.4663 0.0
H2551 H 0.35413 0.17195 0.56672 0.0
H2552 H 0.33773 0.1681 0.53867 0.0
C2553 C 0.27415 0.13414 0.45008 0.0
C2554 C 0.2804 0.14939 0.49613 0.0
H2555 H 0.31942 0.18744 0.52278 0.0
C2556 C 0.2721 0.13452 0.50723 0.0
C2557 C 0.29747 0.1688 0.50181 0.0
C2558 C 0.30658 0.18549 0.49048 0.0
C2559 C 0.28086 0.13826 0.52375 0.0
C2560 C 0.29809 0.15763 0.52944 0.0
C2561 C 0.30617 0.17265 0.5184 0.0
C2562 C 0.30851 0.16207 0.54656 0.0
C2563 C 0.27212 0.12113 0.53474 0.0
C2564 C 0.29773 0.16061 0.56033 0.0
C2565 C 0.30693 0.16246 0.57636 0.0
C2566 C 0.32721 0.16606 0.57894 0.0
C2567 C 0.33835 0.16872 0.56516 0.0
C2568 C 0.32907 0.16672 0.54913 0.0
H2569 H 0.26241 0.10603 0.52741 0.0
H2570 H 0.28462 0.12069 0.5425 0.0
H2571 H 0.26234 0.12356 0.54314 0.0
H2572 H 0.28197 0.15744 0.55864 0.0
H2573 H 0.29784 0.16022 0.58665 0.0
H2574 H 0.90846 0.16015 0.44446 0.0
H2575 H 0.89456 0.16587 0.46933 0.0
H2576 H 0.89894 0.11722 0.49069 0.0
H2577 H 0.91271 0.11135 0.46587 0.0
H2578 H 0.86227 0.11555 0.49483 0.0
H2579 H 0.92801 0.1936 0.514 0.0
H2580 H 0.91582 0.19031 0.49337 0.0
H2581 H 0.92897 0.17658 0.49814 0.0
C2582 C 0.90652 0.15073 0.45449 0.0
C2583 C 0.91173 0.13533 0.45322 0.0
C2584 C 0.89862 0.15404 0.4687 0.0
C2585 C 0.89603 0.14219 0.48198 0.0
C2586 C 0.90085 0.12656 0.4806 0.0
H2587 H 0.88326 0.16959 0.5838 0.0
H2588 H 0.89441 0.16299 0.55776 0.0
C2589 C 0.90863 0.12317 0.46638 0.0
C2590 C 0.88838 0.14603 0.49737 0.0
H2591 H 0.89942 0.18212 0.52953 0.0
C2592 C 0.87037 0.13011 0.50243 0.0
C2593 C 0.89914 0.16495 0.50737 0.0
C2594 C 0.91916 0.1823 0.50307 0.0
C2595 C 0.86277 0.13259 0.51718 0.0
C2596 C 0.87326 0.15167 0.52697 0.0
C2597 C 0.89131 0.16757 0.52194 0.0
C2598 C 0.86615 0.1553 0.54274 0.0
C2599 C 0.8439 0.11461 0.52235 0.0
C2600 C 0.8466 0.15332 0.54294 0.0
C2601 C 0.84006 0.15683 0.55786 0.0
C2602 C 0.85303 0.1626 0.57287 0.0
C2603 C 0.87271 0.1648 0.57256 0.0
C2604 C 0.87919 0.16121 0.55765 0.0
H2605 H 0.84101 0.09995 0.51597 0.0
H2606 H 0.84542 0.11393 0.53597 0.0
H2607 H 0.83023 0.11618 0.51901 0.0
H2608 H 0.83643 0.14916 0.53154 0.0
H2609 H 0.82477 0.15485 0.55764 0.0
H2610 H 0.86176 0.78835 0.47497 0.0
H2611 H 0.85472 0.76903 0.49906 0.0
H2612 H 0.89285 0.74486 0.48381 0.0
H2613 H 0.90009 0.76439 0.45956 0.0
H2614 H 0.83582 0.72757 0.49945 0.0
H2615 H 0.91501 0.76509 0.53246 0.0
H2616 H 0.90809 0.77576 0.51554 0.0
H2617 H 0.91248 0.75482 0.5114 0.0
C2618 C 0.8686 0.77887 0.47668 0.0
C2619 C 0.88135 0.77776 0.46527 0.0
C2620 C 0.86464 0.7679 0.49051 0.0
C2621 C 0.87337 0.75562 0.49334 0.0
C2622 C 0.88624 0.75454 0.48205 0.0
H2623 H 0.85646 0.6768 0.57271 0.0
H2624 H 0.86596 0.69386 0.54733 0.0
C2625 C 0.89032 0.76564 0.46818 0.0
C2626 C 0.86828 0.74353 0.50785 0.0
H2627 H 0.889 0.73735 0.54437 0.0
C2628 C 0.84747 0.7297 0.50925 0.0
C2629 C 0.88349 0.74626 0.52061 0.0
C2630 C 0.90601 0.7614 0.52007 0.0
C2631 C 0.84143 0.71866 0.5231 0.0
C2632 C 0.85657 0.72169 0.536 0.0
C2633 C 0.87743 0.73512 0.53445 0.0
C2634 C 0.85094 0.71146 0.55141 0.0
C2635 C 0.81887 0.70377 0.52381 0.0
C2636 C 0.83956 0.7159 0.56219 0.0
C2637 C 0.8341 0.70618 0.57667 0.0
C2638 C 0.83991 0.69182 0.58065 0.0
C2639 C 0.85149 0.68756 0.56988 0.0
C2640 C 0.85705 0.69738 0.55544 0.0
H2641 H 0.80992 0.69952 0.51135 0.0
H2642 H 0.81668 0.68968 0.52898 0.0
H2643 H 0.81247 0.71088 0.53203 0.0
H2644 H 0.83492 0.72692 0.55941 0.0
H2645 H 0.82508 0.70972 0.58464 0.0
loop_
_geom_bond_atom_site_label_1
_geom_bond_atom_site_label_2
_geom_bond_distance
_geom_bond_site_symmetry_2
_ccdc_geom_bond_type
H0 C1 0.949 . S
C1 H0 0.949 . S
C1 C2 1.395 . S
C1 C3 1.391 . S
C2 C1 1.395 . S
C2 C5 1.390 . S
C3 C1 1.391 . S
C3 C7 1.387 . S
C3 C8 1.491 . S
H4 C5 0.950 . S
C5 C2 1.390 . S
C5 H4 0.950 . S
C5 C6 1.378 . S
C6 C5 1.378 . S
C6 C7 1.409 . S
C7 C3 1.387 . S
C7 C6 1.409 . S
C7 H9 0.951 . S
C8 C3 1.491 . S
C8 C10 1.382 . S
C8 C12 1.404 . S
H9 C7 0.951 . S
C10 C8 1.382 . S
C10 C11 1.390 . S
C10 H15 0.949 . S
C11 C10 1.390 . S
C11 C16 1.399 . S
C12 C8 1.404 . S
C12 H13 0.950 . S
C12 C14 1.375 . S
H13 C12 0.950 . S
C14 C12 1.375 . S
C14 C16 1.382 . S
C14 H18 0.950 . S
H15 C10 0.949 . S
C16 C11 1.399 . S
C16 C14 1.382 . S
C16 H17 0.952 . S
H17 C16 0.952 . S
H18 C14 0.950 . S
H19 C20 0.949 . S
C20 H19 0.949 . S
C20 C21 1.395 . S
C20 C22 1.391 . S
C21 C20 1.395 . S
C21 C24 1.390 . S
C22 C20 1.391 . S
C22 C26 1.387 . S
C22 C27 1.491 . S
H23 C24 0.950 . S
C24 C21 1.390 . S
C24 H23 0.950 . S
C24 C25 1.378 . S
C25 C24 1.378 . S
C25 C26 1.409 . S
C26 C22 1.387 . S
C26 C25 1.409 . S
C26 H28 0.951 . S
C27 C22 1.491 . S
C27 C29 1.382 . S
C27 C31 1.404 . S
H28 C26 0.951 . S
C29 C27 1.382 . S
C29 C30 1.390 . S
C29 H34 0.949 . S
C30 C29 1.390 . S
C30 C35 1.399 . S
C31 C27 1.404 . S
C31 H32 0.950 . S
C31 C33 1.375 . S
H32 C31 0.950 . S
C33 C31 1.375 . S
C33 C35 1.382 . S
C33 H37 0.950 . S
H34 C29 0.949 . S
C35 C30 1.399 . S
C35 C33 1.382 . S
C35 H36 0.952 . S
H36 C35 0.952 . S
H37 C33 0.950 . S
H38 C39 0.949 . S
C39 H38 0.949 . S
C39 C40 1.395 . S
C39 C41 1.391 . S
C40 C39 1.395 . S
C40 C43 1.390 . S
C41 C39 1.391 . S
C41 C45 1.387 . S
C41 C46 1.491 . S
H42 C43 0.950 . S
C43 C40 1.390 . S
C43 H42 0.950 . S
C43 C44 1.378 . S
C44 C43 1.378 . S
C44 C45 1.409 . S
C45 C41 1.387 . S
C45 C44 1.409 . S
C45 H47 0.951 . S
C46 C41 1.491 . S
C46 C48 1.382 . S
C46 C50 1.404 . S
H47 C45 0.951 . S
C48 C46 1.382 . S
C48 C49 1.390 . S
C48 H53 0.949 . S
C49 C48 1.390 . S
C49 C54 1.399 . S
C50 C46 1.404 . S
C50 H51 0.950 . S
C50 C52 1.375 . S
H51 C50 0.950 . S
C52 C50 1.375 . S
C52 C54 1.382 . S
C52 H56 0.950 . S
H53 C48 0.949 . S
C54 C49 1.399 . S
C54 C52 1.382 . S
C54 H55 0.952 . S
H55 C54 0.952 . S
H56 C52 0.950 . S
H57 C58 0.949 . S
C58 H57 0.949 . S
C58 C59 1.395 . S
C58 C60 1.391 . S
C59 C58 1.395 . S
C59 C62 1.390 . S
C60 C58 1.391 . S
C60 C64 1.387 . S
C60 C65 1.491 . S
H61 C62 0.950 . S
C62 C59 1.390 . S
C62 H61 0.950 . S
C62 C63 1.378 . S
C63 C62 1.378 . S
C63 C64 1.409 . S
C64 C60 1.387 . S
C64 C63 1.409 . S
C64 H66 0.951 . S
C65 C60 1.491 . S
C65 C67 1.382 . S
C65 C69 1.404 . S
H66 C64 0.951 . S
C67 C65 1.382 . S
C67 C68 1.390 . S
C67 H72 0.949 . S
C68 C67 1.390 . S
C68 C73 1.399 . S
C69 C65 1.404 . S
C69 H70 0.950 . S
C69 C71 1.375 . S
H70 C69 0.950 . S
C71 C69 1.375 . S
C71 C73 1.382 . S
C71 H75 0.950 . S
H72 C67 0.949 . S
C73 C68 1.399 . S
C73 C71 1.382 . S
C73 H74 0.952 . S
H74 C73 0.952 . S
H75 C71 0.950 . S
H76 C77 0.949 . S
C77 H76 0.949 . S
C77 C78 1.395 . S
C77 C79 1.391 . S
C78 C77 1.395 . S
C78 C81 1.390 . S
C79 C77 1.391 . S
C79 C83 1.387 . S
C79 C84 1.491 . S
H80 C81 0.950 . S
C81 C78 1.390 . S
C81 H80 0.950 . S
C81 C82 1.378 . S
C82 C81 1.378 . S
C82 C83 1.409 . S
C83 C79 1.387 . S
C83 C82 1.409 . S
C83 H85 0.951 . S
C84 C79 1.491 . S
C84 C86 1.382 . S
C84 C88 1.404 . S
H85 C83 0.951 . S
C86 C84 1.382 . S
C86 C87 1.390 . S
C86 H91 0.949 . S
C87 C86 1.390 . S
C87 C92 1.399 . S
C88 C84 1.404 . S
C88 H89 0.950 . S
C88 C90 1.375 . S
H89 C88 0.950 . S
C90 C88 1.375 . S
C90 C92 1.382 . S
C90 H94 0.950 . S
H91 C86 0.949 . S
C92 C87 1.399 . S
C92 C90 1.382 . S
C92 H93 0.952 . S
H93 C92 0.952 . S
H94 C90 0.950 . S
H95 C96 0.949 . S
C96 H95 0.949 . S
C96 C97 1.395 . S
C96 C98 1.391 . S
C97 C96 1.395 . S
C97 C100 1.390 . S
C98 C96 1.391 . S
C98 C102 1.387 . S
C98 C103 1.491 . S
H99 C100 0.950 . S
C100 C97 1.390 . S
C100 H99 0.950 . S
C100 C101 1.378 . S
C101 C100 1.378 . S
C101 C102 1.409 . S
C102 C98 1.387 . S
C102 C101 1.409 . S
C102 H104 0.951 . S
C103 C98 1.491 . S
C103 C105 1.382 . S
C103 C107 1.404 . S
H104 C102 0.951 . S
C105 C103 1.382 . S
C105 C106 1.390 . S
C105 H110 0.949 . S
C106 C105 1.390 . S
C106 C111 1.399 . S
C107 C103 1.404 . S
C107 H108 0.950 . S
C107 C109 1.375 . S
H108 C107 0.950 . S
C109 C107 1.375 . S
C109 C111 1.382 . S
C109 H113 0.950 . S
H110 C105 0.949 . S
C111 C106 1.399 . S
C111 C109 1.382 . S
C111 H112 0.952 . S
H112 C111 0.952 . S
H113 C109 0.950 . S
H114 C115 0.949 . S
C115 H114 0.949 . S
C115 C116 1.395 . S
C115 C117 1.391 . S
C116 C115 1.395 . S
C116 C119 1.390 . S
C117 C115 1.391 . S
C117 C121 1.387 . S
C117 C122 1.491 . S
H118 C119 0.950 . S
C119 C116 1.390 . S
C119 H118 0.950 . S
C119 C120 1.378 . S
C120 C119 1.378 . S
C120 C121 1.409 . S
C121 C117 1.387 . S
C121 C120 1.409 . S
C121 H123 0.951 . S
C122 C117 1.491 . S
C122 C124 1.382 . S
C122 C126 1.404 . S
H123 C121 0.951 . S
C124 C122 1.382 . S
C124 C125 1.390 . S
C124 H129 0.949 . S
C125 C124 1.390 . S
C125 C130 1.399 . S
C126 C122 1.404 . S
C126 H127 0.950 . S
C126 C128 1.375 . S
H127 C126 0.950 . S
C128 C126 1.375 . S
C128 C130 1.382 . S
C128 H132 0.950 . S
H129 C124 0.949 . S
C130 C125 1.399 . S
C130 C128 1.382 . S
C130 H131 0.952 . S
H131 C130 0.952 . S
H132 C128 0.950 . S
H133 C134 0.949 . S
C134 H133 0.949 . S
C134 C135 1.395 . S
C134 C136 1.391 . S
C135 C134 1.395 . S
C135 C138 1.390 . S
C136 C134 1.391 . S
C136 C140 1.387 . S
C136 C141 1.491 . S
H137 C138 0.950 . S
C138 C135 1.390 . S
C138 H137 0.950 . S
C138 C139 1.378 . S
C139 C138 1.378 . S
C139 C140 1.409 . S
C140 C136 1.387 . S
C140 C139 1.409 . S
C140 H142 0.951 . S
C141 C136 1.491 . S
C141 C143 1.382 . S
C141 C145 1.404 . S
H142 C140 0.951 . S
C143 C141 1.382 . S
C143 C144 1.390 . S
C143 H148 0.949 . S
C144 C143 1.390 . S
C144 C149 1.399 . S
C145 C141 1.404 . S
C145 H146 0.950 . S
C145 C147 1.375 . S
H146 C145 0.950 . S
C147 C145 1.375 . S
C147 C149 1.382 . S
C147 H151 0.950 . S
H148 C143 0.949 . S
C149 C144 1.399 . S
C149 C147 1.382 . S
C149 H150 0.952 . S
H150 C149 0.952 . S
H151 C147 0.950 . S
H152 C153 0.949 . S
C153 H152 0.949 . S
C153 C154 1.395 . S
C153 C155 1.391 . S
C154 C153 1.395 . S
C154 C157 1.390 . S
C155 C153 1.391 . S
C155 C159 1.387 . S
C155 C160 1.491 . S
H156 C157 0.950 . S
C157 C154 1.390 . S
C157 H156 0.950 . S
C157 C158 1.378 . S
C158 C157 1.378 . S
C158 C159 1.409 . S
C159 C155 1.387 . S
C159 C158 1.409 . S
C159 H161 0.951 . S
C160 C155 1.491 . S
C160 C162 1.382 . S
C160 C164 1.404 . S
H161 C159 0.951 . S
C162 C160 1.382 . S
C162 C163 1.390 . S
C162 H167 0.949 . S
C163 C162 1.390 . S
C163 C168 1.399 . S
C164 C160 1.404 . S
C164 H165 0.950 . S
C164 C166 1.375 . S
H165 C164 0.950 . S
C166 C164 1.375 . S
C166 C168 1.382 . S
C166 H170 0.950 . S
H167 C162 0.949 . S
C168 C163 1.399 . S
C168 C166 1.382 . S
C168 H169 0.952 . S
H169 C168 0.952 . S
H170 C166 0.950 . S
H171 C172 0.949 . S
C172 H171 0.949 . S
C172 C173 1.395 . S
C172 C174 1.391 . S
C173 C172 1.395 . S
C173 C176 1.390 . S
C174 C172 1.391 . S
C174 C178 1.387 . S
C174 C179 1.491 . S
H175 C176 0.950 . S
C176 C173 1.390 . S
C176 H175 0.950 . S
C176 C177 1.378 . S
C177 C176 1.378 . S
C177 C178 1.409 . S
C178 C174 1.387 . S
C178 C177 1.409 . S
C178 H180 0.951 . S
C179 C174 1.491 . S
C179 C181 1.382 . S
C179 C183 1.404 . S
H180 C178 0.951 . S
C181 C179 1.382 . S
C181 C182 1.390 . S
C181 H186 0.949 . S
C182 C181 1.390 . S
C182 C187 1.399 . S
C183 C179 1.404 . S
C183 H184 0.950 . S
C183 C185 1.375 . S
H184 C183 0.950 . S
C185 C183 1.375 . S
C185 C187 1.382 . S
C185 H189 0.950 . S
H186 C181 0.949 . S
C187 C182 1.399 . S
C187 C185 1.382 . S
C187 H188 0.952 . S
H188 C187 0.952 . S
H189 C185 0.950 . S
H190 C191 0.949 . S
C191 H190 0.949 . S
C191 C192 1.395 . S
C191 C193 1.391 . S
C192 C191 1.395 . S
C192 C195 1.390 . S
C193 C191 1.391 . S
C193 C197 1.387 . S
C193 C198 1.491 . S
H194 C195 0.950 . S
C195 C192 1.390 . S
C195 H194 0.950 . S
C195 C196 1.378 . S
C196 C195 1.378 . S
C196 C197 1.409 . S
C197 C193 1.387 . S
C197 C196 1.409 . S
C197 H199 0.951 1_556 S
C198 C193 1.491 . S
C198 C200 1.382 . S
C198 C202 1.404 1_556 S
H199 C197 0.951 1_554 S
C200 C198 1.382 . S
C200 C201 1.390 1_556 S
C200 H205 0.949 . S
C201 C200 1.390 1_554 S
C201 C206 1.399 . S
C202 C198 1.404 1_554 S
C202 H203 0.950 . S
C202 C204 1.375 . S
H203 C202 0.950 . S
C204 C202 1.375 . S
C204 C206 1.382 . S
C204 H208 0.950 . S
H205 C200 0.949 . S
C206 C201 1.399 . S
C206 C204 1.382 . S
C206 H207 0.952 . S
H207 C206 0.952 . S
H208 C204 0.950 . S
H209 C210 0.949 . S
C210 H209 0.949 . S
C210 C211 1.395 . S
C210 C212 1.391 . S
C211 C210 1.395 . S
C211 C214 1.390 . S
C212 C210 1.391 . S
C212 C216 1.387 . S
C212 C217 1.491 . S
H213 C214 0.950 . S
C214 C211 1.390 . S
C214 H213 0.950 . S
C214 C215 1.378 . S
C215 C214 1.378 . S
C215 C216 1.409 . S
C216 C212 1.387 . S
C216 C215 1.409 . S
C216 H218 0.951 . S
C217 C212 1.491 . S
C217 C219 1.382 . S
C217 C221 1.404 . S
H218 C216 0.951 . S
C219 C217 1.382 . S
C219 C220 1.390 . S
C219 H224 0.949 . S
C220 C219 1.390 . S
C220 C225 1.399 . S
C221 C217 1.404 . S
C221 H222 0.950 . S
C221 C223 1.375 . S
H222 C221 0.950 . S
C223 C221 1.375 . S
C223 C225 1.382 . S
C223 H227 0.950 . S
H224 C219 0.949 . S
C225 C220 1.399 . S
C225 C223 1.382 . S
C225 H226 0.952 . S
H226 C225 0.952 . S
H227 C223 0.950 . S
H228 C229 0.949 . S
C229 H228 0.949 . S
C229 C230 1.395 . S
C229 C231 1.391 . S
C230 C229 1.395 . S
C230 C233 1.390 . S
C231 C229 1.391 . S
C231 C235 1.387 . S
C231 C236 1.491 . S
H232 C233 0.950 . S
C233 C230 1.390 . S
C233 H232 0.950 . S
C233 C234 1.378 . S
C234 C233 1.378 . S
C234 C235 1.409 . S
C235 C231 1.387 . S
C235 C234 1.409 . S
C235 H237 0.951 . S
C236 C231 1.491 . S
C236 C238 1.382 . S
C236 C240 1.404 . S
H237 C235 0.951 . S
C238 C236 1.382 . S
C238 C239 1.390 . S
C238 H243 0.949 . S
C239 C238 1.390 . S
C239 C244 1.399 . S
C240 C236 1.404 . S
C240 H241 0.950 . S
C240 C242 1.375 . S
H241 C240 0.950 . S
C242 C240 1.375 . S
C242 C244 1.382 . S
C242 H246 0.950 . S
H243 C238 0.949 . S
C244 C239 1.399 . S
C244 C242 1.382 . S
C244 H245 0.952 . S
H245 C244 0.952 . S
H246 C242 0.950 . S
H247 C248 0.949 . S
C248 H247 0.949 . S
C248 C249 1.395 . S
C248 C250 1.391 . S
C249 C248 1.395 . S
C249 C252 1.390 . S
C250 C248 1.391 . S
C250 C254 1.387 . S
C250 C255 1.491 . S
H251 C252 0.950 . S
C252 C249 1.390 . S
C252 H251 0.950 . S
C252 C253 1.378 . S
C253 C252 1.378 . S
C253 C254 1.409 . S
C254 C250 1.387 . S
C254 C253 1.409 . S
C254 H256 0.951 . S
C255 C250 1.491 . S
C255 C257 1.382 . S
C255 C259 1.404 . S
H256 C254 0.951 . S
C257 C255 1.382 . S
C257 C258 1.390 . S
C257 H262 0.949 . S
C258 C257 1.390 . S
C258 C263 1.399 . S
C259 C255 1.404 . S
C259 H260 0.950 . S
C259 C261 1.375 . S
H260 C259 0.950 . S
C261 C259 1.375 . S
C261 C263 1.382 . S
C261 H265 0.950 . S
H262 C257 0.949 . S
C263 C258 1.399 . S
C263 C261 1.382 . S
C263 H264 0.952 . S
H264 C263 0.952 . S
H265 C261 0.950 . S
H266 C267 0.949 . S
C267 H266 0.949 . S
C267 C268 1.395 . S
C267 C269 1.391 . S
C268 C267 1.395 . S
C268 C271 1.390 . S
C269 C267 1.391 . S
C269 C273 1.387 . S
C269 C274 1.491 . S
H270 C271 0.950 . S
C271 C268 1.390 . S
C271 H270 0.950 . S
C271 C272 1.378 . S
C272 C271 1.378 . S
C272 C273 1.409 . S
C273 C269 1.387 . S
C273 C272 1.409 . S
C273 H275 0.951 . S
C274 C269 1.491 . S
C274 C276 1.382 . S
C274 C278 1.404 . S
H275 C273 0.951 . S
C276 C274 1.382 . S
C276 C277 1.390 . S
C276 H281 0.949 . S
C277 C276 1.390 . S
C277 C282 1.399 . S
C278 C274 1.404 . S
C278 H279 0.950 . S
C278 C280 1.375 . S
H279 C278 0.950 . S
C280 C278 1.375 . S
C280 C282 1.382 . S
C280 H284 0.950 . S
H281 C276 0.949 . S
C282 C277 1.399 . S
C282 C280 1.382 . S
C282 H283 0.952 . S
H283 C282 0.952 . S
H284 C280 0.950 . S
H285 C286 0.949 . S
C286 H285 0.949 . S
C286 C287 1.395 . S
C286 C288 1.391 . S
C287 C286 1.395 . S
C287 C290 1.390 . S
C288 C286 1.391 . S
C288 C292 1.387 . S
C288 C293 1.491 . S
H289 C290 0.950 . S
C290 C287 1.390 . S
C290 H289 0.950 . S
C290 C291 1.378 . S
C291 C290 1.378 . S
C291 C292 1.409 . S
C292 C288 1.387 . S
C292 C291 1.409 . S
C292 H294 0.951 . S
C293 C288 1.491 . S
C293 C295 1.382 . S
C293 C297 1.404 . S
H294 C292 0.951 . S
C295 C293 1.382 . S
C295 C296 1.390 . S
C295 H300 0.949 . S
C296 C295 1.390 . S
C296 C301 1.399 . S
C297 C293 1.404 . S
C297 H298 0.950 . S
C297 C299 1.375 . S
H298 C297 0.950 . S
C299 C297 1.375 . S
C299 C301 1.382 . S
C299 H303 0.950 . S
H300 C295 0.949 . S
C301 C296 1.399 . S
C301 C299 1.382 . S
C301 H302 0.952 . S
H302 C301 0.952 . S
H303 C299 0.950 . S
H304 C305 0.949 . S
C305 H304 0.949 . S
C305 C306 1.395 . S
C305 C307 1.391 . S
C306 C305 1.395 . S
C306 C309 1.390 . S
C307 C305 1.391 . S
C307 C311 1.387 . S
C307 C312 1.491 . S
H308 C309 0.950 . S
C309 C306 1.390 . S
C309 H308 0.950 . S
C309 C310 1.378 . S
C310 C309 1.378 . S
C310 C311 1.409 . S
C311 C307 1.387 . S
C311 C310 1.409 . S
C311 H313 0.951 . S
C312 C307 1.491 . S
C312 C314 1.382 . S
C312 C316 1.404 . S
H313 C311 0.951 . S
C314 C312 1.382 . S
C314 C315 1.390 . S
C314 H319 0.949 . S
C315 C314 1.390 . S
C315 C320 1.399 . S
C316 C312 1.404 . S
C316 H317 0.950 . S
C316 C318 1.375 . S
H317 C316 0.950 . S
C318 C316 1.375 . S
C318 C320 1.382 . S
C318 H322 0.950 . S
H319 C314 0.949 . S
C320 C315 1.399 . S
C320 C318 1.382 . S
C320 H321 0.952 . S
H321 C320 0.952 . S
H322 C318 0.950 . S
H323 C324 0.949 . S
C324 H323 0.949 . S
C324 C325 1.395 . S
C324 C326 1.391 . S
C325 C324 1.395 . S
C325 C328 1.390 . S
C326 C324 1.391 . S
C326 C330 1.387 . S
C326 C331 1.491 . S
H327 C328 0.950 . S
C328 C325 1.390 . S
C328 H327 0.950 . S
C328 C329 1.378 . S
C329 C328 1.378 . S
C329 C330 1.409 . S
C330 C326 1.387 . S
C330 C329 1.409 . S
C330 H332 0.951 . S
C331 C326 1.491 . S
C331 C333 1.382 . S
C331 C335 1.404 . S
H332 C330 0.951 . S
C333 C331 1.382 . S
C333 C334 1.390 . S
C333 H338 0.949 . S
C334 C333 1.390 . S
C334 C339 1.399 . S
C335 C331 1.404 . S
C335 H336 0.950 . S
C335 C337 1.375 . S
H336 C335 0.950 . S
C337 C335 1.375 . S
C337 C339 1.382 . S
C337 H341 0.950 . S
H338 C333 0.949 . S
C339 C334 1.399 . S
C339 C337 1.382 . S
C339 H340 0.952 . S
H340 C339 0.952 . S
H341 C337 0.950 . S
Eu342 C351 2.828 1_565 S
Eu342 O353 2.421 . S
Eu342 O355 2.418 . S
Eu342 O360 2.373 1_565 S
Eu342 O363 2.488 . S
Eu342 O364 2.471 1_565 S
Eu342 O365 2.328 1_566 S
Eu343 O352 2.373 1_545 S
Eu343 O356 2.488 . S
Eu343 O357 2.471 1_545 S
Eu343 O358 2.349 1_545 S
Eu343 O361 2.392 . S
Eu343 O362 2.418 . S
Eu343 C372 2.826 . S
C344 O362 1.244 . S
C344 O365 1.284 . S
C345 C346 1.379 . S
C345 C349 1.373 . S
C345 C351 1.505 . S
C346 C345 1.379 . S
C346 C348 1.369 . S
C346 H374 0.930 . S
C347 C349 1.383 . S
C347 C350 1.382 . S
C347 H375 0.930 . S
C348 C346 1.369 . S
C348 C350 1.392 . S
C348 H376 0.930 . S
C349 C345 1.373 . S
C349 C347 1.383 . S
C349 H377 0.931 1_545 S
C350 C347 1.382 . S
C350 C348 1.392 . S
C351 Eu342 2.828 1_545 S
C351 C345 1.505 . S
C351 O363 1.249 1_545 S
C351 O364 1.244 . S
O352 Eu343 2.373 1_565 S
O352 C354 1.258 . S
O353 Eu342 2.421 . S
O353 C354 1.201 1_556 S
C354 O352 1.258 . S
C354 O353 1.201 1_554 S
O355 Eu342 2.418 . S
O355 C359 1.244 1_556 S
O356 Eu343 2.488 . S
O356 C372 1.242 . S
O357 Eu343 2.471 1_565 S
O357 C372 1.249 1_565 S
O358 Eu343 2.349 1_565 S
O358 C359 1.265 . S
C359 O355 1.244 1_554 S
C359 O358 1.265 . S
O360 Eu342 2.373 1_545 S
O360 C373 1.264 . S
O361 Eu343 2.392 . S
O361 C373 1.233 1_554 S
O362 Eu343 2.418 . S
O362 C344 1.244 . S
O363 Eu342 2.488 . S
O363 C351 1.249 1_565 S
O364 Eu342 2.471 1_545 S
O364 C351 1.244 . S
O365 Eu342 2.328 1_544 S
O365 C344 1.284 . S
C366 C367 1.379 . S
C366 C370 1.373 1_565 S
C366 C372 1.507 1_565 S
C367 C366 1.379 . S
C367 C369 1.369 . S
C367 H378 0.930 . S
C368 C370 1.383 1_565 S
C368 C371 1.382 . S
C368 H379 0.930 1_565 S
C369 C367 1.369 . S
C369 C371 1.392 . S
C369 H380 0.930 . S
C370 C366 1.373 1_545 S
C370 C368 1.383 1_545 S
C370 H381 0.931 . S
C371 C368 1.382 . S
C371 C369 1.392 . S
C372 Eu343 2.826 . S
C372 O356 1.242 . S
C372 O357 1.249 1_545 S
C372 C366 1.507 1_545 S
C373 O360 1.264 . S
C373 O361 1.233 1_556 S
H374 C346 0.930 . S
H375 C347 0.930 . S
H376 C348 0.930 . S
H377 C349 0.931 1_565 S
H378 C367 0.930 . S
H379 C368 0.930 1_545 S
H380 C369 0.930 . S
H381 C370 0.931 . S
Eu382 C391 2.828 1_455 S
Eu382 O393 2.392 1_556 S
Eu382 O395 2.418 . S
Eu382 O400 2.373 1_455 S
Eu382 O403 2.488 . S
Eu382 O404 2.471 1_455 S
Eu382 O405 2.349 1_455 S
Eu383 O392 2.373 1_655 S
Eu383 O396 2.488 . S
Eu383 O397 2.471 1_655 S
Eu383 O398 2.349 1_655 S
Eu383 O401 2.392 . S
Eu383 O402 2.418 . S
Eu383 C412 2.828 1_655 S
C384 O402 1.244 . S
C384 O405 1.265 1_554 S
C385 C386 1.379 . S
C385 C389 1.373 . S
C385 C391 1.505 . S
C386 C385 1.379 . S
C386 C388 1.369 . S
C386 H414 0.930 . S
C387 C389 1.383 . S
C387 C390 1.382 . S
C387 H415 0.930 . S
C388 C386 1.369 . S
C388 C390 1.392 . S
C388 H416 0.930 . S
C389 C385 1.373 . S
C389 C387 1.383 . S
C389 H417 0.931 1_655 S
C390 C387 1.382 . S
C390 C388 1.392 . S
C391 Eu382 2.828 1_655 S
C391 C385 1.505 . S
C391 O403 1.249 1_655 S
C391 O404 1.244 . S
O392 Eu383 2.373 1_455 S
O392 C394 1.258 . S
O393 Eu382 2.392 1_554 S
O393 C394 1.242 . S
C394 O392 1.258 . S
C394 O393 1.242 . S
O395 Eu382 2.418 . S
O395 C399 1.244 1_556 S
O396 Eu383 2.488 . S
O396 C412 1.249 1_655 S
O397 Eu383 2.471 1_455 S
O397 C412 1.244 . S
O398 Eu383 2.349 1_455 S
O398 C399 1.265 . S
C399 O395 1.244 1_554 S
C399 O398 1.265 . S
O400 Eu382 2.373 1_655 S
O400 C413 1.258 . S
O401 Eu383 2.392 . S
O401 C413 1.242 1_554 S
O402 Eu383 2.418 . S
O402 C384 1.244 . S
O403 Eu382 2.488 . S
O403 C391 1.249 1_455 S
O404 Eu382 2.471 1_655 S
O404 C391 1.244 . S
O405 Eu382 2.349 1_655 S
O405 C384 1.265 1_556 S
C406 C407 1.379 . S
C406 C410 1.373 . S
C406 C412 1.505 . S
C407 C406 1.379 . S
C407 C409 1.369 . S
C407 H418 0.930 . S
C408 C410 1.383 . S
C408 C411 1.382 . S
C408 H419 0.930 . S
C409 C407 1.369 . S
C409 C411 1.392 . S
C409 H420 0.930 . S
C410 C406 1.373 . S
C410 C408 1.383 . S
C410 H421 0.931 1_455 S
C411 C408 1.382 . S
C411 C409 1.392 . S
C412 Eu383 2.828 1_455 S
C412 O396 1.249 1_455 S
C412 O397 1.244 . S
C412 C406 1.505 . S
C413 O400 1.258 . S
C413 O401 1.242 1_556 S
H414 C386 0.930 . S
H415 C387 0.930 . S
H416 C388 0.930 . S
H417 C389 0.931 1_455 S
H418 C407 0.930 . S
H419 C408 0.930 . S
H420 C409 0.930 . S
H421 C410 0.931 1_655 S
Eu422 C431 2.828 . S
Eu422 O433 2.392 . S
Eu422 O435 2.418 . S
Eu422 O440 2.373 . S
Eu422 O443 2.488 . S
Eu422 O444 2.471 . S
Eu422 O445 2.349 . S
Eu423 O432 2.373 . S
Eu423 O436 2.488 . S
Eu423 O437 2.471 . S
Eu423 O438 2.349 1_556 S
Eu423 O441 2.392 1_556 S
Eu423 O442 2.427 . S
Eu423 C452 2.828 . S
C424 O442 1.193 1_554 S
C424 O445 1.265 . S
C425 C426 1.379 . S
C425 C429 1.373 . S
C425 C431 1.505 . S
C426 C425 1.379 . S
C426 C428 1.369 . S
C426 H454 0.930 . S
C427 C429 1.383 . S
C427 C430 1.382 . S
C427 H455 0.930 . S
C428 C426 1.369 . S
C428 C430 1.392 . S
C428 H456 0.930 . S
C429 C425 1.373 . S
C429 C427 1.383 . S
C429 H457 0.931 . S
C430 C427 1.382 . S
C430 C428 1.392 . S
C431 Eu422 2.828 . S
C431 C425 1.505 . S
C431 O443 1.249 . S
C431 O444 1.244 . S
O432 Eu423 2.373 . S
O432 C434 1.258 1_556 S
O433 Eu422 2.392 . S
O433 C434 1.242 . S
C434 O432 1.258 1_554 S
C434 O433 1.242 . S
O435 Eu422 2.418 . S
O435 C439 1.244 . S
O436 Eu423 2.488 . S
O436 C452 1.249 . S
O437 Eu423 2.471 . S
O437 C452 1.244 . S
O438 Eu423 2.349 1_554 S
O438 C439 1.265 . S
C439 O435 1.244 . S
C439 O438 1.265 . S
O440 Eu422 2.373 . S
O440 C453 1.258 . S
O441 Eu423 2.392 1_554 S
O441 C453 1.242 . S
O442 Eu423 2.427 . S
O442 C424 1.193 1_556 S
O443 Eu422 2.488 . S
O443 C431 1.249 . S
O444 Eu422 2.471 . S
O444 C431 1.244 . S
O445 Eu422 2.349 . S
O445 C424 1.265 . S
C446 C447 1.379 . S
C446 C450 1.373 . S
C446 C452 1.505 . S
C447 C446 1.379 . S
C447 C449 1.369 . S
C447 H458 0.930 . S
C448 C450 1.383 . S
C448 C451 1.382 . S
C448 H459 0.930 . S
C449 C447 1.369 . S
C449 C451 1.392 . S
C449 H460 0.930 . S
C450 C446 1.373 . S
C450 C448 1.383 . S
C450 H461 0.931 . S
C451 C448 1.382 . S
C451 C449 1.392 . S
C452 Eu423 2.828 . S
C452 O436 1.249 . S
C452 O437 1.244 . S
C452 C446 1.505 . S
C453 O440 1.258 . S
C453 O441 1.242 . S
H454 C426 0.930 . S
H455 C427 0.930 . S
H456 C428 0.930 . S
H457 C429 0.931 . S
H458 C447 0.930 . S
H459 C448 0.930 . S
H460 C449 0.930 . S
H461 C450 0.931 . S
Eu462 C471 2.828 . S
Eu462 O473 2.392 . S
Eu462 O475 2.418 . S
Eu462 O480 2.373 . S
Eu462 O483 2.488 . S
Eu462 O484 2.471 . S
Eu462 O485 2.349 . S
Eu463 O472 2.373 . S
Eu463 O476 2.488 . S
Eu463 O477 2.471 . S
Eu463 O478 2.349 . S
Eu463 O481 2.392 . S
Eu463 O482 2.418 . S
Eu463 C492 2.828 . S
C464 O482 1.244 . S
C464 O485 1.265 . S
C465 C466 1.379 . S
C465 C469 1.373 . S
C465 C471 1.505 . S
C466 C465 1.379 . S
C466 C468 1.369 . S
C466 H494 0.930 . S
C467 C469 1.383 . S
C467 C470 1.382 . S
C467 H495 0.930 . S
C468 C466 1.369 . S
C468 C470 1.392 . S
C468 H496 0.930 . S
C469 C465 1.373 . S
C469 C467 1.383 . S
C469 H497 0.931 . S
C470 C467 1.382 . S
C470 C468 1.392 . S
C471 Eu462 2.828 . S
C471 C465 1.505 . S
C471 O483 1.249 . S
C471 O484 1.244 . S
O472 Eu463 2.373 . S
O472 C474 1.258 . S
O473 Eu462 2.392 . S
O473 C474 1.242 . S
C474 O472 1.258 . S
C474 O473 1.242 . S
O475 Eu462 2.418 . S
O475 C479 1.244 . S
O476 Eu463 2.488 . S
O476 C492 1.249 . S
O477 Eu463 2.471 . S
O477 C492 1.244 . S
O478 Eu463 2.349 . S
O478 C479 1.265 . S
C479 O475 1.244 . S
C479 O478 1.265 . S
O480 Eu462 2.373 . S
O480 C493 1.258 . S
O481 Eu463 2.392 . S
O481 C493 1.242 . S
O482 Eu463 2.418 . S
O482 C464 1.244 . S
O483 Eu462 2.488 . S
O483 C471 1.249 . S
O484 Eu462 2.471 . S
O484 C471 1.244 . S
O485 Eu462 2.349 . S
O485 C464 1.265 . S
C486 C487 1.379 . S
C486 C490 1.373 . S
C486 C492 1.505 . S
C487 C486 1.379 . S
C487 C489 1.369 . S
C487 H498 0.930 . S
C488 C490 1.383 . S
C488 C491 1.382 . S
C488 H499 0.930 . S
C489 C487 1.369 . S
C489 C491 1.392 . S
C489 H500 0.930 . S
C490 C486 1.373 . S
C490 C488 1.383 . S
C490 H501 0.931 . S
C491 C488 1.382 . S
C491 C489 1.392 . S
C492 Eu463 2.828 . S
C492 O476 1.249 . S
C492 O477 1.244 . S
C492 C486 1.505 . S
C493 O480 1.258 . S
C493 O481 1.242 . S
H494 C466 0.930 . S
H495 C467 0.930 . S
H496 C468 0.930 . S
H497 C469 0.931 . S
H498 C487 0.930 . S
H499 C488 0.930 . S
H500 C489 0.930 . S
H501 C490 0.931 . S
Eu502 C511 2.828 . S
Eu502 O513 2.392 . S
Eu502 O515 2.418 . S
Eu502 O520 2.373 . S
Eu502 O523 2.488 . S
Eu502 O524 2.471 . S
Eu502 O525 2.349 . S
Eu503 O512 2.373 . S
Eu503 O516 2.488 . S
Eu503 O517 2.471 . S
Eu503 O518 2.349 . S
Eu503 O521 2.392 . S
Eu503 O522 2.418 . S
Eu503 C532 2.828 . S
C504 O522 1.244 . S
C504 O525 1.265 . S
C505 C506 1.379 . S
C505 C509 1.373 . S
C505 C511 1.505 . S
C506 C505 1.379 . S
C506 C508 1.369 . S
C506 H534 0.930 . S
C507 C509 1.383 . S
C507 C510 1.382 . S
C507 H535 0.930 . S
C508 C506 1.369 . S
C508 C510 1.392 . S
C508 H536 0.930 . S
C509 C505 1.373 . S
C509 C507 1.383 . S
C509 H537 0.931 . S
C510 C507 1.382 . S
C510 C508 1.392 . S
C511 Eu502 2.828 . S
C511 C505 1.505 . S
C511 O523 1.249 . S
C511 O524 1.244 . S
O512 Eu503 2.373 . S
O512 C514 1.258 . S
O513 Eu502 2.392 . S
O513 C514 1.242 . S
C514 O512 1.258 . S
C514 O513 1.242 . S
O515 Eu502 2.418 . S
O515 C519 1.244 . S
O516 Eu503 2.488 . S
O516 C532 1.249 . S
O517 Eu503 2.471 . S
O517 C532 1.244 . S
O518 Eu503 2.349 . S
O518 C519 1.265 . S
C519 O515 1.244 . S
C519 O518 1.265 . S
O520 Eu502 2.373 . S
O520 C533 1.258 . S
O521 Eu503 2.392 . S
O521 C533 1.242 . S
O522 Eu503 2.418 . S
O522 C504 1.244 . S
O523 Eu502 2.488 . S
O523 C511 1.249 . S
O524 Eu502 2.471 . S
O524 C511 1.244 . S
O525 Eu502 2.349 . S
O525 C504 1.265 . S
C526 C527 1.379 . S
C526 C530 1.373 . S
C526 C532 1.505 . S
C527 C526 1.379 . S
C527 C529 1.369 . S
C527 H538 0.930 . S
C528 C530 1.383 . S
C528 C531 1.382 . S
C528 H539 0.930 . S
C529 C527 1.369 . S
C529 C531 1.392 . S
C529 H540 0.930 . S
C530 C526 1.373 . S
C530 C528 1.383 . S
C530 H541 0.931 . S
C531 C528 1.382 . S
C531 C529 1.392 . S
C532 Eu503 2.828 . S
C532 O516 1.249 . S
C532 O517 1.244 . S
C532 C526 1.505 . S
C533 O520 1.258 . S
C533 O521 1.242 . S
H534 C506 0.930 . S
H535 C507 0.930 . S
H536 C508 0.930 . S
H537 C509 0.931 . S
H538 C527 0.930 . S
H539 C528 0.930 . S
H540 C529 0.930 . S
H541 C530 0.931 . S
Eu542 C551 2.828 . S
Eu542 O553 2.392 . S
Eu542 O555 2.418 . S
Eu542 O560 2.373 . S
Eu542 O563 2.488 . S
Eu542 O564 2.471 . S
Eu542 O565 2.349 . S
Eu543 O552 2.373 . S
Eu543 O556 2.488 . S
Eu543 O557 2.471 . S
Eu543 O558 2.349 . S
Eu543 O561 2.392 . S
Eu543 O562 2.418 . S
Eu543 C572 2.828 . S
C544 O562 1.244 . S
C544 O565 1.265 . S
C545 C546 1.379 . S
C545 C549 1.373 . S
C545 C551 1.505 . S
C546 C545 1.379 . S
C546 C548 1.369 . S
C546 H574 0.930 . S
C547 C549 1.383 . S
C547 C550 1.382 . S
C547 H575 0.930 . S
C548 C546 1.369 . S
C548 C550 1.392 . S
C548 H576 0.930 . S
C549 C545 1.373 . S
C549 C547 1.383 . S
C549 H577 0.931 . S
C550 C547 1.382 . S
C550 C548 1.392 . S
C551 Eu542 2.828 . S
C551 C545 1.505 . S
C551 O563 1.249 . S
C551 O564 1.244 . S
O552 Eu543 2.373 . S
O552 C554 1.258 . S
O553 Eu542 2.392 . S
O553 C554 1.242 . S
C554 O552 1.258 . S
C554 O553 1.242 . S
O555 Eu542 2.418 . S
O555 C559 1.244 . S
O556 Eu543 2.488 . S
O556 C572 1.249 . S
O557 Eu543 2.471 . S
O557 C572 1.244 . S
O558 Eu543 2.349 . S
O558 C559 1.265 . S
C559 O555 1.244 . S
C559 O558 1.265 . S
O560 Eu542 2.373 . S
O560 C573 1.258 . S
O561 Eu543 2.392 . S
O561 C573 1.242 . S
O562 Eu543 2.418 . S
O562 C544 1.244 . S
O563 Eu542 2.488 . S
O563 C551 1.249 . S
O564 Eu542 2.471 . S
O564 C551 1.244 . S
O565 Eu542 2.349 . S
O565 C544 1.265 . S
C566 C567 1.379 . S
C566 C570 1.373 . S
C566 C572 1.505 . S
C567 C566 1.379 . S
C567 C569 1.369 . S
C567 H578 0.930 . S
C568 C570 1.383 . S
C568 C571 1.382 . S
C568 H579 0.930 . S
C569 C567 1.369 . S
C569 C571 1.392 . S
C569 H580 0.930 . S
C570 C566 1.373 . S
C570 C568 1.383 . S
C570 H581 0.931 . S
C571 C568 1.382 . S
C571 C569 1.392 . S
C572 Eu543 2.828 . S
C572 O556 1.249 . S
C572 O557 1.244 . S
C572 C566 1.505 . S
C573 O560 1.258 . S
C573 O561 1.242 . S
H574 C546 0.930 . S
H575 C547 0.930 . S
H576 C548 0.930 . S
H577 C549 0.931 . S
H578 C567 0.930 . S
H579 C568 0.930 . S
H580 C569 0.930 . S
H581 C570 0.931 . S
Eu582 C591 2.828 . S
Eu582 O593 2.392 . S
Eu582 O595 2.418 . S
Eu582 O600 2.373 . S
Eu582 O603 2.488 . S
Eu582 O604 2.471 . S
Eu582 O605 2.349 . S
Eu583 O592 2.373 . S
Eu583 O596 2.488 . S
Eu583 O597 2.471 . S
Eu583 O598 2.349 . S
Eu583 O601 2.392 . S
Eu583 O602 2.418 . S
Eu583 C612 2.828 . S
C584 O602 1.244 . S
C584 O605 1.265 . S
C585 C586 1.379 . S
C585 C589 1.373 . S
C585 C591 1.505 . S
C586 C585 1.379 . S
C586 C588 1.369 . S
C586 H614 0.930 . S
C587 C589 1.383 . S
C587 C590 1.382 . S
C587 H615 0.930 . S
C588 C586 1.369 . S
C588 C590 1.392 . S
C588 H616 0.930 . S
C589 C585 1.373 . S
C589 C587 1.383 . S
C589 H617 0.931 . S
C590 C587 1.382 . S
C590 C588 1.392 . S
C591 Eu582 2.828 . S
C591 C585 1.505 . S
C591 O603 1.249 . S
C591 O604 1.244 . S
O592 Eu583 2.373 . S
O592 C594 1.258 . S
O593 Eu582 2.392 . S
O593 C594 1.242 . S
C594 O592 1.258 . S
C594 O593 1.242 . S
O595 Eu582 2.418 . S
O595 C599 1.244 . S
O596 Eu583 2.488 . S
O596 C612 1.249 . S
O597 Eu583 2.471 . S
O597 C612 1.244 . S
O598 Eu583 2.349 . S
O598 C599 1.265 . S
C599 O595 1.244 . S
C599 O598 1.265 . S
O600 Eu582 2.373 . S
O600 C613 1.258 . S
O601 Eu583 2.392 . S
O601 C613 1.242 . S
O602 Eu583 2.418 . S
O602 C584 1.244 . S
O603 Eu582 2.488 . S
O603 C591 1.249 . S
O604 Eu582 2.471 . S
O604 C591 1.244 . S
O605 Eu582 2.349 . S
O605 C584 1.265 . S
C606 C607 1.379 . S
C606 C610 1.373 . S
C606 C612 1.505 . S
C607 C606 1.379 . S
C607 C609 1.369 . S
C607 H618 0.930 . S
C608 C610 1.383 . S
C608 C611 1.382 . S
C608 H619 0.930 . S
C609 C607 1.369 . S
C609 C611 1.392 . S
C609 H620 0.930 . S
C610 C606 1.373 . S
C610 C608 1.383 . S
C610 H621 0.931 . S
C611 C608 1.382 . S
C611 C609 1.392 . S
C612 Eu583 2.828 . S
C612 O596 1.249 . S
C612 O597 1.244 . S
C612 C606 1.505 . S
C613 O600 1.258 . S
C613 O601 1.242 . S
H614 C586 0.930 . S
H615 C587 0.930 . S
H616 C588 0.930 . S
H617 C589 0.931 . S
H618 C607 0.930 . S
H619 C608 0.930 . S
H620 C609 0.930 . S
H621 C610 0.931 . S
Eu622 C631 2.828 . S
Eu622 O633 2.392 . S
Eu622 O635 2.418 . S
Eu622 O640 2.373 . S
Eu622 O643 2.488 . S
Eu622 O644 2.471 . S
Eu622 O645 2.349 . S
Eu623 O632 2.373 . S
Eu623 O636 2.488 . S
Eu623 O637 2.471 . S
Eu623 O638 2.349 . S
Eu623 O641 2.392 . S
Eu623 O642 2.418 . S
Eu623 C652 2.828 . S
C624 O642 1.244 . S
C624 O645 1.265 . S
C625 C626 1.379 . S
C625 C629 1.373 . S
C625 C631 1.505 . S
C626 C625 1.379 . S
C626 C628 1.369 . S
C626 H654 0.930 . S
C627 C629 1.383 . S
C627 C630 1.382 . S
C627 H655 0.930 . S
C628 C626 1.369 . S
C628 C630 1.392 . S
C628 H656 0.930 . S
C629 C625 1.373 . S
C629 C627 1.383 . S
C629 H657 0.931 . S
C630 C627 1.382 . S
C630 C628 1.392 . S
C631 Eu622 2.828 . S
C631 C625 1.505 . S
C631 O643 1.249 . S
C631 O644 1.244 . S
O632 Eu623 2.373 . S
O632 C634 1.258 . S
O633 Eu622 2.392 . S
O633 C634 1.242 . S
C634 O632 1.258 . S
C634 O633 1.242 . S
O635 Eu622 2.418 . S
O635 C639 1.244 . S
O636 Eu623 2.488 . S
O636 C652 1.249 . S
O637 Eu623 2.471 . S
O637 C652 1.244 . S
O638 Eu623 2.349 . S
O638 C639 1.265 . S
C639 O635 1.244 . S
C639 O638 1.265 . S
O640 Eu622 2.373 . S
O640 C653 1.258 . S
O641 Eu623 2.392 . S
O641 C653 1.242 . S
O642 Eu623 2.418 . S
O642 C624 1.244 . S
O643 Eu622 2.488 . S
O643 C631 1.249 . S
O644 Eu622 2.471 . S
O644 C631 1.244 . S
O645 Eu622 2.349 . S
O645 C624 1.265 . S
C646 C647 1.379 . S
C646 C650 1.373 . S
C646 C652 1.505 . S
C647 C646 1.379 . S
C647 C649 1.369 . S
C647 H658 0.930 . S
C648 C650 1.383 . S
C648 C651 1.382 . S
C648 H659 0.930 . S
C649 C647 1.369 . S
C649 C651 1.392 . S
C649 H660 0.930 . S
C650 C646 1.373 . S
C650 C648 1.383 . S
C650 H661 0.931 . S
C651 C648 1.382 . S
C651 C649 1.392 . S
C652 Eu623 2.828 . S
C652 O636 1.249 . S
C652 O637 1.244 . S
C652 C646 1.505 . S
C653 O640 1.258 . S
C653 O641 1.242 . S
H654 C626 0.930 . S
H655 C627 0.930 . S
H656 C628 0.930 . S
H657 C629 0.931 . S
H658 C647 0.930 . S
H659 C648 0.930 . S
H660 C649 0.930 . S
H661 C650 0.931 . S
Eu662 C671 2.828 . S
Eu662 O673 2.392 . S
Eu662 O675 2.418 . S
Eu662 O680 2.373 . S
Eu662 O683 2.488 . S
Eu662 O684 2.471 . S
Eu662 O685 2.349 . S
Eu663 O672 2.373 . S
Eu663 O676 2.488 . S
Eu663 O677 2.471 . S
Eu663 O678 2.349 . S
Eu663 O681 2.392 . S
Eu663 O682 2.418 . S
Eu663 C692 2.828 . S
C664 O682 1.244 . S
C664 O685 1.265 . S
C665 C666 1.379 . S
C665 C669 1.373 . S
C665 C671 1.505 . S
C666 C665 1.379 . S
C666 C668 1.369 . S
C666 H694 0.930 . S
C667 C669 1.383 . S
C667 C670 1.382 . S
C667 H695 0.930 . S
C668 C666 1.369 . S
C668 C670 1.392 . S
C668 H696 0.930 . S
C669 C665 1.373 . S
C669 C667 1.383 . S
C669 H697 0.931 . S
C670 C667 1.382 . S
C670 C668 1.392 . S
C671 Eu662 2.828 . S
C671 C665 1.505 . S
C671 O683 1.249 . S
C671 O684 1.244 . S
O672 Eu663 2.373 . S
O672 C674 1.258 . S
O673 Eu662 2.392 . S
O673 C674 1.242 . S
C674 O672 1.258 . S
C674 O673 1.242 . S
O675 Eu662 2.418 . S
O675 C679 1.244 . S
O676 Eu663 2.488 . S
O676 C692 1.249 . S
O677 Eu663 2.471 . S
O677 C692 1.244 . S
O678 Eu663 2.349 . S
O678 C679 1.265 . S
C679 O675 1.244 . S
C679 O678 1.265 . S
O680 Eu662 2.373 . S
O680 C693 1.258 . S
O681 Eu663 2.392 . S
O681 C693 1.242 . S
O682 Eu663 2.418 . S
O682 C664 1.244 . S
O683 Eu662 2.488 . S
O683 C671 1.249 . S
O684 Eu662 2.471 . S
O684 C671 1.244 . S
O685 Eu662 2.349 . S
O685 C664 1.265 . S
C686 C687 1.379 . S
C686 C690 1.373 . S
C686 C692 1.505 . S
C687 C686 1.379 . S
C687 C689 1.369 . S
C687 H698 0.930 . S
C688 C690 1.383 . S
C688 C691 1.382 . S
C688 H699 0.930 . S
C689 C687 1.369 . S
C689 C691 1.392 . S
C689 H700 0.930 . S
C690 C686 1.373 . S
C690 C688 1.383 . S
C690 H701 0.931 . S
C691 C688 1.382 . S
C691 C689 1.392 . S
C692 Eu663 2.828 . S
C692 O676 1.249 . S
C692 O677 1.244 . S
C692 C686 1.505 . S
C693 O680 1.258 . S
C693 O681 1.242 . S
H694 C666 0.930 . S
H695 C667 0.930 . S
H696 C668 0.930 . S
H697 C669 0.931 . S
H698 C687 0.930 . S
H699 C688 0.930 . S
H700 C689 0.930 . S
H701 C690 0.931 . S
H702 C710 0.929 . S
H703 C712 0.930 . S
H704 C714 0.930 . S
H705 C717 0.929 . S
H706 C720 0.930 . S
H707 C722 0.960 . S
H708 C722 0.960 . S
H709 C722 0.960 . S
C710 H702 0.929 . S
C710 C711 1.377 . S
C710 C712 1.384 . S
C711 C710 1.377 . S
C711 C717 1.390 . S
C712 H703 0.930 . S
C712 C710 1.384 . S
C712 C713 1.372 . S
C713 C712 1.372 . S
C713 C714 1.400 . S
C713 C718 1.490 . S
C714 H704 0.930 . S
C714 C713 1.400 . S
C714 C717 1.386 . S
H715 C731 0.930 1_556 S
H716 C732 0.931 . S
C717 H705 0.929 . S
C717 C711 1.390 . S
C717 C714 1.386 . S
C718 C713 1.490 . S
C718 C720 1.395 . S
C718 C721 1.403 . S
H719 C725 0.930 . S
C720 H706 0.930 . S
C720 C718 1.395 . S
C720 C723 1.403 . S
C721 C718 1.403 . S
C721 C722 1.524 . S
C721 C725 1.400 . S
C722 H707 0.960 . S
C722 H708 0.960 . S
C722 H709 0.960 . S
C722 C721 1.524 . S
C723 C720 1.403 . S
C723 C724 1.392 . S
C723 C727 1.495 . S
C724 C723 1.392 . S
C724 C725 1.385 . S
C724 C726 1.478 . S
C725 H719 0.930 . S
C725 C721 1.400 . S
C725 C724 1.385 . S
C726 C724 1.478 . S
C726 C728 1.381 . S
C726 C732 1.383 . S
C727 C723 1.495 . S
C727 H733 0.959 . S
C727 H734 0.961 . S
C727 H735 0.960 . S
C728 C726 1.381 . S
C728 C729 1.394 . S
C728 H736 0.930 . S
C729 C728 1.394 . S
C729 C730 1.383 . S
C729 H737 0.929 . S
C730 C729 1.383 . S
C730 C731 1.377 . S
C731 H715 0.930 1_554 S
C731 C730 1.377 . S
C731 C732 1.379 . S
C732 H716 0.931 . S
C732 C726 1.383 . S
C732 C731 1.379 . S
H733 C727 0.959 . S
H734 C727 0.961 . S
H735 C727 0.960 . S
H736 C728 0.930 . S
H737 C729 0.929 . S
H738 C746 0.929 . S
H739 C748 0.930 . S
H740 C750 0.930 . S
H741 C753 0.929 . S
H742 C756 0.930 . S
H743 C758 0.960 . S
H744 C758 0.960 . S
H745 C758 0.960 . S
C746 H738 0.929 . S
C746 C747 1.377 . S
C746 C748 1.384 . S
C747 C746 1.377 . S
C747 C753 1.390 . S
C748 H739 0.930 . S
C748 C746 1.384 . S
C748 C749 1.372 . S
C749 C748 1.372 . S
C749 C750 1.400 . S
C749 C754 1.490 . S
C750 H740 0.930 . S
C750 C749 1.400 . S
C750 C753 1.386 . S
H751 C767 0.930 . S
H752 C768 0.931 . S
C753 H741 0.929 . S
C753 C747 1.390 . S
C753 C750 1.386 . S
C754 C749 1.490 . S
C754 C756 1.395 . S
C754 C757 1.403 . S
H755 C761 0.930 . S
C756 H742 0.930 . S
C756 C754 1.395 . S
C756 C759 1.403 . S
C757 C754 1.403 . S
C757 C758 1.524 . S
C757 C761 1.400 . S
C758 H743 0.960 . S
C758 H744 0.960 . S
C758 H745 0.960 . S
C758 C757 1.524 . S
C759 C756 1.403 . S
C759 C760 1.392 . S
C759 C763 1.495 . S
C760 C759 1.392 . S
C760 C761 1.385 . S
C760 C762 1.478 . S
C761 H755 0.930 . S
C761 C757 1.400 . S
C761 C760 1.385 . S
C762 C760 1.478 . S
C762 C764 1.381 . S
C762 C768 1.383 . S
C763 C759 1.495 . S
C763 H769 0.959 . S
C763 H770 0.961 . S
C763 H771 0.960 . S
C764 C762 1.381 . S
C764 C765 1.394 . S
C764 H772 0.930 . S
C765 C764 1.394 . S
C765 C766 1.383 . S
C765 H773 0.929 . S
C766 C765 1.383 . S
C766 C767 1.377 . S
C767 H751 0.930 . S
C767 C766 1.377 . S
C767 C768 1.379 . S
C768 H752 0.931 . S
C768 C762 1.383 . S
C768 C767 1.379 . S
H769 C763 0.959 . S
H770 C763 0.961 . S
H771 C763 0.960 . S
H772 C764 0.930 . S
H773 C765 0.929 . S
H774 C782 0.929 . S
H775 C784 0.930 . S
H776 C786 0.930 . S
H777 C789 0.929 . S
H778 C792 0.930 . S
H779 C794 0.954 1_556 S
H780 C794 0.961 . S
H781 C794 0.957 1_556 S
C782 H774 0.929 . S
C782 C783 1.377 . S
C782 C784 1.384 . S
C783 C782 1.377 . S
C783 C789 1.390 . S
C784 H775 0.930 . S
C784 C782 1.384 . S
C784 C785 1.372 . S
C785 C784 1.372 . S
C785 C786 1.400 . S
C785 C790 1.490 . S
C786 H776 0.930 . S
C786 C785 1.400 . S
C786 C789 1.386 . S
H787 C803 0.930 . S
H788 C804 0.931 . S
C789 H777 0.929 . S
C789 C783 1.390 . S
C789 C786 1.386 . S
C790 C785 1.490 . S
C790 C792 1.395 . S
C790 C793 1.403 . S
H791 C797 0.930 . S
C792 H778 0.930 . S
C792 C790 1.395 . S
C792 C795 1.403 . S
C793 C790 1.403 . S
C793 C794 1.531 . S
C793 C797 1.400 . S
C794 H779 0.954 1_554 S
C794 H780 0.961 . S
C794 H781 0.957 1_554 S
C794 C793 1.531 . S
C795 C792 1.403 . S
C795 C796 1.392 . S
C795 C799 1.495 . S
C796 C795 1.392 . S
C796 C797 1.385 . S
C796 C798 1.478 . S
C797 H791 0.930 . S
C797 C793 1.400 . S
C797 C796 1.385 . S
C798 C796 1.478 . S
C798 C800 1.381 . S
C798 C804 1.383 . S
C799 C795 1.495 . S
C799 H805 0.959 . S
C799 H806 0.961 . S
C799 H807 0.960 . S
C800 C798 1.381 . S
C800 C801 1.394 . S
C800 H808 0.930 . S
C801 C800 1.394 . S
C801 C802 1.383 . S
C801 H809 0.929 . S
C802 C801 1.383 . S
C802 C803 1.377 . S
C803 H787 0.930 . S
C803 C802 1.377 . S
C803 C804 1.379 . S
C804 H788 0.931 . S
C804 C798 1.383 . S
C804 C803 1.379 . S
H805 C799 0.959 . S
H806 C799 0.961 . S
H807 C799 0.960 . S
H808 C800 0.930 . S
H809 C801 0.929 . S
H810 C818 0.929 . S
H811 C820 0.930 . S
H812 C822 0.930 . S
H813 C825 0.929 . S
H814 C828 0.930 . S
H815 C830 0.960 . S
H816 C830 0.960 . S
H817 C830 0.984 . S
C818 H810 0.929 . S
C818 C819 1.377 . S
C818 C820 1.384 . S
C819 C818 1.377 . S
C819 C825 1.390 . S
C820 H811 0.930 . S
C820 C818 1.384 . S
C820 C821 1.372 . S
C821 C820 1.372 . S
C821 C822 1.400 . S
C821 C826 1.490 . S
C822 H812 0.930 . S
C822 C821 1.400 . S
C822 C825 1.386 . S
H823 C839 0.930 . S
H824 C840 0.931 . S
C825 H813 0.929 . S
C825 C819 1.390 . S
C825 C822 1.386 . S
C826 C821 1.490 . S
C826 C828 1.395 . S
C826 C829 1.403 . S
H827 C833 0.930 1_554 S
C828 H814 0.930 . S
C828 C826 1.395 . S
C828 C831 1.403 . S
C829 C826 1.403 . S
C829 C830 1.524 1_556 S
C829 C833 1.400 . S
C830 H815 0.960 . S
C830 H816 0.960 . S
C830 H817 0.984 . S
C830 C829 1.524 1_554 S
C831 C828 1.403 . S
C831 C832 1.392 . S
C831 C835 1.495 . S
C832 C831 1.392 . S
C832 C833 1.385 . S
C832 C834 1.478 . S
C833 H827 0.930 1_556 S
C833 C829 1.400 . S
C833 C832 1.385 . S
C834 C832 1.478 . S
C834 C836 1.381 . S
C834 C840 1.383 . S
C835 C831 1.495 . S
C835 H841 0.959 . S
C835 H842 0.961 . S
C835 H843 0.960 . S
C836 C834 1.381 . S
C836 C837 1.394 1_556 S
C836 H844 0.930 . S
C837 C836 1.394 1_554 S
C837 C838 1.383 1_554 S
C837 H845 0.929 . S
C838 C837 1.383 1_556 S
C838 C839 1.377 . S
C839 H823 0.930 . S
C839 C838 1.377 . S
C839 C840 1.379 . S
C840 H824 0.931 . S
C840 C834 1.383 . S
C840 C839 1.379 . S
H841 C835 0.959 . S
H842 C835 0.961 . S
H843 C835 0.960 . S
H844 C836 0.930 . S
H845 C837 0.929 . S
H846 C854 0.929 . S
H847 C856 0.930 . S
H848 C858 0.930 . S
H849 C861 0.929 . S
H850 C864 0.930 . S
H851 C866 0.960 . S
H852 C866 0.960 . S
H853 C866 0.960 . S
C854 H846 0.929 . S
C854 C855 1.377 . S
C854 C856 1.384 . S
C855 C854 1.377 . S
C855 C861 1.390 . S
C856 H847 0.930 . S
C856 C854 1.384 . S
C856 C857 1.372 . S
C857 C856 1.372 . S
C857 C858 1.400 . S
C857 C862 1.490 . S
C858 H848 0.930 . S
C858 C857 1.400 . S
C858 C861 1.386 . S
H859 C875 0.930 . S
H860 C876 0.931 . S
C861 H849 0.929 . S
C861 C855 1.390 . S
C861 C858 1.386 . S
C862 C857 1.490 . S
C862 C864 1.395 . S
C862 C865 1.403 . S
H863 C869 0.930 . S
C864 H850 0.930 . S
C864 C862 1.395 . S
C864 C867 1.403 . S
C865 C862 1.403 . S
C865 C866 1.524 . S
C865 C869 1.400 . S
C866 H851 0.960 . S
C866 H852 0.960 . S
C866 H853 0.960 . S
C866 C865 1.524 . S
C867 C864 1.403 . S
C867 C868 1.392 . S
C867 C871 1.495 1_556 S
C868 C867 1.392 . S
C868 C869 1.385 . S
C868 C870 1.478 . S
C869 H863 0.930 . S
C869 C865 1.400 . S
C869 C868 1.385 . S
C870 C868 1.478 . S
C870 C872 1.381 . S
C870 C876 1.383 . S
C871 C867 1.495 1_554 S
C871 H877 0.959 . S
C871 H878 0.961 . S
C871 H879 0.960 . S
C872 C870 1.381 . S
C872 C873 1.394 . S
C872 H880 0.930 . S
C873 C872 1.394 . S
C873 C874 1.383 . S
C873 H881 0.929 . S
C874 C873 1.383 . S
C874 C875 1.377 . S
C875 H859 0.930 . S
C875 C874 1.377 . S
C875 C876 1.379 . S
C876 H860 0.931 . S
C876 C870 1.383 . S
C876 C875 1.379 . S
H877 C871 0.959 . S
H878 C871 0.961 . S
H879 C871 0.960 . S
H880 C872 0.930 . S
H881 C873 0.929 . S
H882 C890 0.929 . S
H883 C892 0.930 . S
H884 C894 0.930 . S
H885 C897 0.929 . S
H886 C900 0.930 . S
H887 C902 0.960 . S
H888 C902 0.960 . S
H889 C902 0.960 . S
C890 H882 0.929 . S
C890 C891 1.377 . S
C890 C892 1.384 . S
C891 C890 1.377 . S
C891 C897 1.390 . S
C892 H883 0.930 . S
C892 C890 1.384 . S
C892 C893 1.372 . S
C893 C892 1.372 . S
C893 C894 1.400 . S
C893 C898 1.490 . S
C894 H884 0.930 . S
C894 C893 1.400 . S
C894 C897 1.386 . S
H895 C911 0.930 . S
H896 C912 0.931 . S
C897 H885 0.929 . S
C897 C891 1.390 . S
C897 C894 1.386 . S
C898 C893 1.490 . S
C898 C900 1.395 . S
C898 C901 1.403 1_556 S
H899 C905 0.930 . S
C900 H886 0.930 . S
C900 C898 1.395 . S
C900 C903 1.403 . S
C901 C898 1.403 1_554 S
C901 C902 1.524 . S
C901 C905 1.400 . S
C902 H887 0.960 . S
C902 H888 0.960 . S
C902 H889 0.960 . S
C902 C901 1.524 . S
C903 C900 1.403 . S
C903 C904 1.392 . S
C903 C907 1.495 . S
C904 C903 1.392 . S
C904 C905 1.385 1_556 S
C904 C906 1.478 . S
C905 H899 0.930 . S
C905 C901 1.400 . S
C905 C904 1.385 1_554 S
C906 C904 1.478 . S
C906 C908 1.381 1_556 S
C906 C912 1.383 . S
C907 C903 1.495 . S
C907 H913 0.959 . S
C907 H914 0.961 . S
C907 H915 0.960 . S
C908 C906 1.381 1_554 S
C908 C909 1.394 . S
C908 H916 0.930 . S
C909 C908 1.394 . S
C909 C910 1.383 . S
C909 H917 0.929 . S
C910 C909 1.383 . S
C910 C911 1.377 1_554 S
C911 H895 0.930 . S
C911 C910 1.377 1_556 S
C911 C912 1.379 . S
C912 H896 0.931 . S
C912 C906 1.383 . S
C912 C911 1.379 . S
H913 C907 0.959 . S
H914 C907 0.961 . S
H915 C907 0.960 . S
H916 C908 0.930 . S
H917 C909 0.929 . S
H918 C926 0.929 . S
H919 C928 0.880 1_554 S
H920 C930 0.930 . S
H921 C933 0.929 . S
H922 C936 0.969 . S
H923 C938 0.960 . S
H924 C938 0.960 . S
H925 C938 0.960 . S
C926 H918 0.929 . S
C926 C927 1.377 . S
C926 C928 1.384 . S
C927 C926 1.377 . S
C927 C933 1.390 . S
C928 H919 0.880 1_556 S
C928 C926 1.384 . S
C928 C929 1.372 . S
C929 C928 1.372 . S
C929 C930 1.400 . S
C929 C934 1.490 . S
C930 H920 0.930 . S
C930 C929 1.400 . S
C930 C933 1.386 . S
H931 C947 0.930 . S
H932 C948 0.931 . S
C933 H921 0.929 . S
C933 C927 1.390 . S
C933 C930 1.386 . S
C934 C929 1.490 . S
C934 C936 1.338 1_556 S
C934 C937 1.403 . S
H935 C941 0.930 . S
C936 H922 0.969 . S
C936 C934 1.338 1_554 S
C936 C939 1.424 . S
C937 C934 1.403 . S
C937 C938 1.524 . S
C937 C941 1.400 . S
C938 H923 0.960 . S
C938 H924 0.960 . S
C938 H925 0.960 . S
C938 C937 1.524 . S
C939 C936 1.424 . S
C939 C940 1.392 1_554 S
C939 C943 1.495 . S
C940 C939 1.392 1_556 S
C940 C941 1.385 . S
C940 C942 1.478 . S
C941 H935 0.930 . S
C941 C937 1.400 . S
C941 C940 1.385 . S
C942 C940 1.478 . S
C942 C944 1.381 1_556 S
C942 C948 1.383 . S
C943 C939 1.495 . S
C943 H949 0.959 . S
C943 H950 0.961 . S
C943 H951 0.960 . S
C944 C942 1.381 1_554 S
C944 C945 1.394 . S
C944 H952 0.930 . S
C945 C944 1.394 . S
C945 C946 1.383 1_554 S
C945 H953 0.929 . S
C946 C945 1.383 1_556 S
C946 C947 1.377 . S
C947 H931 0.930 . S
C947 C946 1.377 . S
C947 C948 1.379 . S
C948 H932 0.931 . S
C948 C942 1.383 . S
C948 C947 1.379 . S
H949 C943 0.959 . S
H950 C943 0.961 . S
H951 C943 0.960 . S
H952 C944 0.930 . S
H953 C945 0.929 . S
H954 C962 0.929 . S
H955 C964 0.930 . S
H956 C966 0.930 . S
H957 C969 0.929 . S
H958 C972 0.930 . S
H959 C974 0.960 . S
H960 C974 0.960 . S
H961 C974 0.960 . S
C962 H954 0.929 . S
C962 C963 1.377 . S
C962 C964 1.384 . S
C963 C962 1.377 . S
C963 C969 1.390 . S
C964 H955 0.930 . S
C964 C962 1.384 . S
C964 C965 1.372 . S
C965 C964 1.372 . S
C965 C966 1.400 . S
C965 C970 1.490 . S
C966 H956 0.930 . S
C966 C965 1.400 . S
C966 C969 1.386 . S
H967 C983 0.946 . S
H968 C984 0.931 . S
C969 H957 0.929 . S
C969 C963 1.390 . S
C969 C966 1.386 . S
C970 C965 1.490 . S
C970 C972 1.395 . S
C970 C973 1.403 . S
H971 C977 0.930 . S
C972 H958 0.930 . S
C972 C970 1.395 . S
C972 C975 1.403 . S
C973 C970 1.403 . S
C973 C974 1.524 . S
C973 C977 1.400 . S
C974 H959 0.960 . S
C974 H960 0.960 . S
C974 H961 0.960 . S
C974 C973 1.524 . S
C975 C972 1.403 . S
C975 C976 1.392 . S
C975 C979 1.517 . S
C976 C975 1.392 . S
C976 C977 1.385 . S
C976 C978 1.478 . S
C977 H971 0.930 . S
C977 C973 1.400 . S
C977 C976 1.385 . S
C978 C976 1.478 . S
C978 C980 1.381 . S
C978 C984 1.383 . S
C979 C975 1.517 . S
C979 H985 0.951 1_556 S
C979 H986 0.930 1_556 S
C979 H987 0.979 . S
C980 C978 1.381 . S
C980 C981 1.394 . S
C980 H988 0.930 . S
C981 C980 1.394 . S
C981 C982 1.383 . S
C981 H989 0.929 . S
C982 C981 1.383 . S
C982 C983 1.377 . S
C983 H967 0.946 . S
C983 C982 1.377 . S
C983 C984 1.379 . S
C984 H968 0.931 . S
C984 C978 1.383 . S
C984 C983 1.379 . S
H985 C979 0.951 1_554 S
H986 C979 0.930 1_554 S
H987 C979 0.979 . S
H988 C980 0.930 . S
H989 C981 0.929 . S
H990 C998 0.929 . S
H991 C1000 0.930 . S
H992 C1002 0.930 . S
H993 C1005 0.929 . S
H994 C1008 0.930 . S
H995 C1010 0.960 . S
H996 C1010 0.960 . S
H997 C1010 0.960 . S
C998 H990 0.929 . S
C998 C999 1.377 1_556 S
C998 C1000 1.384 . S
C999 C998 1.377 1_554 S
C999 C1005 1.390 . S
C1000 H991 0.930 . S
C1000 C998 1.384 . S
C1000 C1001 1.372 1_556 S
C1001 C1000 1.372 1_554 S
C1001 C1002 1.400 . S
C1001 C1006 1.490 . S
C1002 H992 0.930 . S
C1002 C1001 1.400 . S
C1002 C1005 1.386 . S
H1003 C1019 0.930 . S
H1004 C1020 0.931 . S
C1005 H993 0.929 . S
C1005 C999 1.390 . S
C1005 C1002 1.386 . S
C1006 C1001 1.490 . S
C1006 C1008 1.395 . S
C1006 C1009 1.403 1_554 S
H1007 C1013 0.920 1_556 S
C1008 H994 0.930 . S
C1008 C1006 1.395 . S
C1008 C1011 1.403 . S
C1009 C1006 1.403 1_556 S
C1009 C1010 1.524 . S
C1009 C1013 1.399 1_556 S
C1010 H995 0.960 . S
C1010 H996 0.960 . S
C1010 H997 0.960 . S
C1010 C1009 1.524 . S
C1011 C1008 1.403 . S
C1011 C1012 1.392 . S
C1011 C1015 1.495 . S
C1012 C1011 1.392 . S
C1012 C1013 1.396 . S
C1012 C1014 1.478 . S
C1013 H1007 0.920 1_554 S
C1013 C1009 1.399 1_554 S
C1013 C1012 1.396 . S
C1014 C1012 1.478 . S
C1014 C1016 1.391 . S
C1014 C1020 1.383 . S
C1015 C1011 1.495 . S
C1015 H1021 0.959 . S
C1015 H1022 0.961 . S
C1015 H1023 0.960 . S
C1016 C1014 1.391 . S
C1016 C1017 1.398 . S
C1016 H1024 0.922 1_554 S
C1017 C1016 1.398 . S
C1017 C1018 1.411 . S
C1017 H1025 0.899 1_554 S
C1018 C1017 1.411 . S
C1018 C1019 1.377 . S
C1019 H1003 0.930 . S
C1019 C1018 1.377 . S
C1019 C1020 1.379 . S
C1020 H1004 0.931 . S
C1020 C1014 1.383 . S
C1020 C1019 1.379 . S
H1021 C1015 0.959 . S
H1022 C1015 0.961 . S
H1023 C1015 0.960 . S
H1024 C1016 0.922 1_556 S
H1025 C1017 0.899 1_556 S
H1026 C1034 0.929 . S
H1027 C1036 0.930 . S
H1028 C1038 0.930 . S
H1029 C1041 0.929 . S
H1030 C1044 0.930 . S
H1031 C1046 0.945 1_556 S
H1032 C1046 0.938 1_556 S
H1033 C1046 0.976 . S
C1034 H1026 0.929 . S
C1034 C1035 1.377 . S
C1034 C1036 1.384 . S
C1035 C1034 1.377 . S
C1035 C1041 1.390 . S
C1036 H1027 0.930 . S
C1036 C1034 1.384 . S
C1036 C1037 1.372 . S
C1037 C1036 1.372 . S
C1037 C1038 1.400 . S
C1037 C1042 1.490 . S
C1038 H1028 0.930 . S
C1038 C1037 1.400 . S
C1038 C1041 1.386 . S
H1039 C1055 0.930 . S
H1040 C1056 0.931 . S
C1041 H1029 0.929 . S
C1041 C1035 1.390 . S
C1041 C1038 1.386 . S
C1042 C1037 1.490 . S
C1042 C1044 1.395 . S
C1042 C1045 1.403 . S
H1043 C1049 0.930 . S
C1044 H1030 0.930 . S
C1044 C1042 1.395 . S
C1044 C1047 1.403 . S
C1045 C1042 1.403 . S
C1045 C1046 1.546 . S
C1045 C1049 1.400 . S
C1046 H1031 0.945 1_554 S
C1046 H1032 0.938 1_554 S
C1046 H1033 0.976 . S
C1046 C1045 1.546 . S
C1047 C1044 1.403 . S
C1047 C1048 1.392 . S
C1047 C1051 1.495 . S
C1048 C1047 1.392 . S
C1048 C1049 1.385 . S
C1048 C1050 1.478 . S
C1049 H1043 0.930 . S
C1049 C1045 1.400 . S
C1049 C1048 1.385 . S
C1050 C1048 1.478 . S
C1050 C1052 1.381 . S
C1050 C1056 1.383 . S
C1051 C1047 1.495 . S
C1051 H1057 0.959 . S
C1051 H1058 0.961 . S
C1051 H1059 0.960 . S
C1052 C1050 1.381 . S
C1052 C1053 1.394 . S
C1052 H1060 0.930 . S
C1053 C1052 1.394 . S
C1053 C1054 1.383 . S
C1053 H1061 0.929 . S
C1054 C1053 1.383 . S
C1054 C1055 1.377 . S
C1055 H1039 0.930 . S
C1055 C1054 1.377 . S
C1055 C1056 1.379 . S
C1056 H1040 0.931 . S
C1056 C1050 1.383 . S
C1056 C1055 1.379 . S
H1057 C1051 0.959 . S
H1058 C1051 0.961 . S
H1059 C1051 0.960 . S
H1060 C1052 0.930 . S
H1061 C1053 0.929 . S
H1062 C1070 0.929 . S
H1063 C1072 0.930 . S
H1064 C1074 0.930 . S
H1065 C1077 0.929 . S
H1066 C1080 0.930 . S
H1067 C1082 0.960 . S
H1068 C1082 0.960 . S
H1069 C1082 0.960 . S
C1070 H1062 0.929 . S
C1070 C1071 1.377 . S
C1070 C1072 1.384 . S
C1071 C1070 1.377 . S
C1071 C1077 1.390 . S
C1072 H1063 0.930 . S
C1072 C1070 1.384 . S
C1072 C1073 1.372 . S
C1073 C1072 1.372 . S
C1073 C1074 1.400 . S
C1073 C1078 1.490 . S
C1074 H1064 0.930 . S
C1074 C1073 1.400 . S
C1074 C1077 1.386 . S
H1075 C1091 0.930 . S
H1076 C1092 0.931 . S
C1077 H1065 0.929 . S
C1077 C1071 1.390 . S
C1077 C1074 1.386 . S
C1078 C1073 1.490 . S
C1078 C1080 1.395 . S
C1078 C1081 1.403 . S
H1079 C1085 0.930 . S
C1080 H1066 0.930 . S
C1080 C1078 1.395 . S
C1080 C1083 1.403 . S
C1081 C1078 1.403 . S
C1081 C1082 1.524 . S
C1081 C1085 1.400 . S
C1082 H1067 0.960 . S
C1082 H1068 0.960 . S
C1082 H1069 0.960 . S
C1082 C1081 1.524 . S
C1083 C1080 1.403 . S
C1083 C1084 1.392 . S
C1083 C1087 1.495 . S
C1084 C1083 1.392 . S
C1084 C1085 1.385 . S
C1084 C1086 1.478 . S
C1085 H1079 0.930 . S
C1085 C1081 1.400 . S
C1085 C1084 1.385 . S
C1086 C1084 1.478 . S
C1086 C1088 1.381 . S
C1086 C1092 1.383 . S
C1087 C1083 1.495 . S
C1087 H1093 0.959 . S
C1087 H1094 0.961 . S
C1087 H1095 0.960 . S
C1088 C1086 1.381 . S
C1088 C1089 1.394 . S
C1088 H1096 0.930 . S
C1089 C1088 1.394 . S
C1089 C1090 1.383 . S
C1089 H1097 0.929 . S
C1090 C1089 1.383 . S
C1090 C1091 1.377 . S
C1091 H1075 0.930 . S
C1091 C1090 1.377 . S
C1091 C1092 1.379 . S
C1092 H1076 0.931 . S
C1092 C1086 1.383 . S
C1092 C1091 1.379 . S
H1093 C1087 0.959 . S
H1094 C1087 0.961 . S
H1095 C1087 0.960 . S
H1096 C1088 0.930 . S
H1097 C1089 0.929 . S
H1098 C1106 0.929 . S
H1099 C1108 0.930 . S
H1100 C1110 0.930 1_556 S
H1101 C1113 0.875 1_556 S
H1102 C1116 0.930 . S
H1103 C1118 0.960 . S
H1104 C1118 0.960 1_554 S
H1105 C1118 0.960 . S
C1106 H1098 0.929 . S
C1106 C1107 1.377 . S
C1106 C1108 1.384 . S
C1107 C1106 1.377 . S
C1107 C1113 1.390 . S
C1108 H1099 0.930 . S
C1108 C1106 1.384 . S
C1108 C1109 1.372 . S
C1109 C1108 1.372 . S
C1109 C1110 1.400 . S
C1109 C1114 1.490 . S
C1110 H1100 0.930 1_554 S
C1110 C1109 1.400 . S
C1110 C1113 1.386 . S
H1111 C1127 0.930 . S
H1112 C1128 0.923 1_556 S
C1113 H1101 0.875 1_554 S
C1113 C1107 1.390 . S
C1113 C1110 1.386 . S
C1114 C1109 1.490 . S
C1114 C1116 1.395 . S
C1114 C1117 1.403 . S
H1115 C1121 0.953 . S
C1116 H1102 0.930 . S
C1116 C1114 1.395 . S
C1116 C1119 1.403 . S
C1117 C1114 1.403 . S
C1117 C1118 1.524 1_554 S
C1117 C1121 1.400 . S
C1118 H1103 0.960 . S
C1118 H1104 0.960 1_556 S
C1118 H1105 0.960 . S
C1118 C1117 1.524 1_556 S
C1119 C1116 1.403 . S
C1119 C1120 1.392 . S
C1119 C1123 1.495 . S
C1120 C1119 1.392 . S
C1120 C1121 1.385 . S
C1120 C1122 1.478 . S
C1121 H1115 0.953 . S
C1121 C1117 1.400 . S
C1121 C1120 1.385 . S
C1122 C1120 1.478 . S
C1122 C1124 1.381 . S
C1122 C1128 1.392 . S
C1123 C1119 1.495 . S
C1123 H1129 0.959 . S
C1123 H1130 0.961 . S
C1123 H1131 0.960 . S
C1124 C1122 1.381 . S
C1124 C1125 1.394 . S
C1124 H1132 0.930 . S
C1125 C1124 1.394 . S
C1125 C1126 1.383 . S
C1125 H1133 0.929 . S
C1126 C1125 1.383 . S
C1126 C1127 1.377 1_554 S
C1127 H1111 0.930 . S
C1127 C1126 1.377 1_556 S
C1127 C1128 1.378 1_556 S
C1128 H1112 0.923 1_554 S
C1128 C1122 1.392 . S
C1128 C1127 1.378 1_554 S
H1129 C1123 0.959 . S
H1130 C1123 0.961 . S
H1131 C1123 0.960 . S
H1132 C1124 0.930 . S
H1133 C1125 0.929 . S
H1134 C1142 0.929 . S
H1135 C1144 0.930 . S
H1136 C1146 0.930 . S
H1137 C1149 0.929 . S
H1138 C1152 0.930 . S
H1139 C1154 0.960 . S
H1140 C1154 0.960 . S
H1141 C1154 0.960 . S
C1142 H1134 0.929 . S
C1142 C1143 1.377 . S
C1142 C1144 1.384 . S
C1143 C1142 1.377 . S
C1143 C1149 1.390 . S
C1144 H1135 0.930 . S
C1144 C1142 1.384 . S
C1144 C1145 1.372 . S
C1145 C1144 1.372 . S
C1145 C1146 1.400 . S
C1145 C1150 1.490 . S
C1146 H1136 0.930 . S
C1146 C1145 1.400 . S
C1146 C1149 1.386 . S
H1147 C1163 0.930 . S
H1148 C1164 0.931 . S
C1149 H1137 0.929 . S
C1149 C1143 1.390 . S
C1149 C1146 1.386 . S
C1150 C1145 1.490 . S
C1150 C1152 1.395 . S
C1150 C1153 1.403 . S
H1151 C1157 0.932 . S
C1152 H1138 0.930 . S
C1152 C1150 1.395 . S
C1152 C1155 1.403 1_655 S
C1153 C1150 1.403 . S
C1153 C1154 1.524 . S
C1153 C1157 1.398 1_655 S
C1154 H1139 0.960 . S
C1154 H1140 0.960 . S
C1154 H1141 0.960 . S
C1154 C1153 1.524 . S
C1155 C1152 1.403 1_455 S
C1155 C1156 1.392 . S
C1155 C1159 1.495 . S
C1156 C1155 1.392 . S
C1156 C1157 1.385 . S
C1156 C1158 1.478 . S
C1157 H1151 0.932 . S
C1157 C1153 1.398 1_455 S
C1157 C1156 1.385 . S
C1158 C1156 1.478 . S
C1158 C1160 1.381 . S
C1158 C1164 1.383 . S
C1159 C1155 1.495 . S
C1159 H1165 0.959 . S
C1159 H1166 0.961 . S
C1159 H1167 0.960 . S
C1160 C1158 1.381 . S
C1160 C1161 1.394 . S
C1160 H1168 0.930 . S
C1161 C1160 1.394 . S
C1161 C1162 1.383 . S
C1161 H1169 0.929 . S
C1162 C1161 1.383 . S
C1162 C1163 1.377 . S
C1163 H1147 0.930 . S
C1163 C1162 1.377 . S
C1163 C1164 1.379 . S
C1164 H1148 0.931 . S
C1164 C1158 1.383 . S
C1164 C1163 1.379 . S
H1165 C1159 0.959 . S
H1166 C1159 0.961 . S
H1167 C1159 0.960 . S
H1168 C1160 0.930 . S
H1169 C1161 0.929 . S
H1170 C1178 0.929 . S
H1171 C1180 0.930 . S
H1172 C1182 0.930 . S
H1173 C1185 0.929 . S
H1174 C1188 0.930 . S
H1175 C1190 0.960 . S
H1176 C1190 0.960 . S
H1177 C1190 0.960 . S
C1178 H1170 0.929 . S
C1178 C1179 1.377 . S
C1178 C1180 1.384 . S
C1179 C1178 1.377 . S
C1179 C1185 1.390 . S
C1180 H1171 0.930 . S
C1180 C1178 1.384 . S
C1180 C1181 1.372 . S
C1181 C1180 1.372 . S
C1181 C1182 1.400 . S
C1181 C1186 1.490 . S
C1182 H1172 0.930 . S
C1182 C1181 1.400 . S
C1182 C1185 1.386 . S
H1183 C1199 0.930 . S
H1184 C1200 0.931 . S
C1185 H1173 0.929 . S
C1185 C1179 1.390 . S
C1185 C1182 1.386 . S
C1186 C1181 1.490 . S
C1186 C1188 1.395 . S
C1186 C1189 1.403 . S
H1187 C1193 0.930 . S
C1188 H1174 0.930 . S
C1188 C1186 1.395 . S
C1188 C1191 1.403 . S
C1189 C1186 1.403 . S
C1189 C1190 1.524 . S
C1189 C1193 1.400 . S
C1190 H1175 0.960 . S
C1190 H1176 0.960 . S
C1190 H1177 0.960 . S
C1190 C1189 1.524 . S
C1191 C1188 1.403 . S
C1191 C1192 1.392 . S
C1191 C1195 1.495 . S
C1192 C1191 1.392 . S
C1192 C1193 1.385 . S
C1192 C1194 1.478 . S
C1193 H1187 0.930 . S
C1193 C1189 1.400 . S
C1193 C1192 1.385 . S
C1194 C1192 1.478 . S
C1194 C1196 1.381 . S
C1194 C1200 1.383 . S
C1195 C1191 1.495 . S
C1195 H1201 0.959 . S
C1195 H1202 0.961 . S
C1195 H1203 0.960 . S
C1196 C1194 1.381 . S
C1196 C1197 1.394 . S
C1196 H1204 0.930 . S
C1197 C1196 1.394 . S
C1197 C1198 1.383 . S
C1197 H1205 0.929 . S
C1198 C1197 1.383 . S
C1198 C1199 1.377 . S
C1199 H1183 0.930 . S
C1199 C1198 1.377 . S
C1199 C1200 1.379 . S
C1200 H1184 0.931 . S
C1200 C1194 1.383 . S
C1200 C1199 1.379 . S
H1201 C1195 0.959 . S
H1202 C1195 0.961 . S
H1203 C1195 0.960 . S
H1204 C1196 0.930 . S
H1205 C1197 0.929 . S
H1206 C1214 0.929 . S
H1207 C1216 0.930 . S
H1208 C1218 0.930 . S
H1209 C1221 0.929 . S
H1210 C1224 0.930 . S
H1211 C1226 0.960 . S
H1212 C1226 0.960 . S
H1213 C1226 0.960 . S
C1214 H1206 0.929 . S
C1214 C1215 1.377 . S
C1214 C1216 1.384 . S
C1215 C1214 1.377 . S
C1215 C1221 1.390 . S
C1216 H1207 0.930 . S
C1216 C1214 1.384 . S
C1216 C1217 1.372 . S
C1217 C1216 1.372 . S
C1217 C1218 1.400 . S
C1217 C1222 1.490 . S
C1218 H1208 0.930 . S
C1218 C1217 1.400 . S
C1218 C1221 1.386 . S
H1219 C1235 0.930 . S
H1220 C1236 0.931 . S
C1221 H1209 0.929 . S
C1221 C1215 1.390 . S
C1221 C1218 1.386 . S
C1222 C1217 1.490 . S
C1222 C1224 1.395 . S
C1222 C1225 1.403 . S
H1223 C1229 0.930 1_565 S
C1224 H1210 0.930 . S
C1224 C1222 1.395 . S
C1224 C1227 1.403 . S
C1225 C1222 1.403 . S
C1225 C1226 1.524 . S
C1225 C1229 1.400 . S
C1226 H1211 0.960 . S
C1226 H1212 0.960 . S
C1226 H1213 0.960 . S
C1226 C1225 1.524 . S
C1227 C1224 1.403 . S
C1227 C1228 1.392 . S
C1227 C1231 1.495 . S
C1228 C1227 1.392 . S
C1228 C1229 1.385 . S
C1228 C1230 1.478 1_545 S
C1229 H1223 0.930 1_545 S
C1229 C1225 1.400 . S
C1229 C1228 1.385 . S
C1230 C1228 1.478 1_565 S
C1230 C1232 1.381 . S
C1230 C1236 1.383 . S
C1231 C1227 1.495 . S
C1231 H1237 0.959 . S
C1231 H1238 0.961 . S
C1231 H1239 0.960 . S
C1232 C1230 1.381 . S
C1232 C1233 1.394 . S
C1232 H1240 0.930 . S
C1233 C1232 1.394 . S
C1233 C1234 1.383 . S
C1233 H1241 0.929 . S
C1234 C1233 1.383 . S
C1234 C1235 1.377 . S
C1235 H1219 0.930 . S
C1235 C1234 1.377 . S
C1235 C1236 1.379 . S
C1236 H1220 0.931 . S
C1236 C1230 1.383 . S
C1236 C1235 1.379 . S
H1237 C1231 0.959 . S
H1238 C1231 0.961 . S
H1239 C1231 0.960 . S
H1240 C1232 0.930 . S
H1241 C1233 0.929 . S
H1242 C1250 0.929 . S
H1243 C1252 0.930 . S
H1244 C1254 0.930 . S
H1245 C1257 0.929 . S
H1246 C1260 0.930 . S
H1247 C1262 0.960 . S
H1248 C1262 0.960 . S
H1249 C1262 0.960 . S
C1250 H1242 0.929 . S
C1250 C1251 1.377 . S
C1250 C1252 1.384 . S
C1251 C1250 1.377 . S
C1251 C1257 1.390 . S
C1252 H1243 0.930 . S
C1252 C1250 1.384 . S
C1252 C1253 1.372 . S
C1253 C1252 1.372 . S
C1253 C1254 1.400 . S
C1253 C1258 1.490 . S
C1254 H1244 0.930 . S
C1254 C1253 1.400 . S
C1254 C1257 1.386 . S
H1255 C1271 0.930 . S
H1256 C1272 0.931 . S
C1257 H1245 0.929 . S
C1257 C1251 1.390 . S
C1257 C1254 1.386 . S
C1258 C1253 1.490 . S
C1258 C1260 1.395 . S
C1258 C1261 1.403 . S
H1259 C1265 0.930 . S
C1260 H1246 0.930 . S
C1260 C1258 1.395 . S
C1260 C1263 1.403 . S
C1261 C1258 1.403 . S
C1261 C1262 1.524 . S
C1261 C1265 1.400 . S
C1262 H1247 0.960 . S
C1262 H1248 0.960 . S
C1262 H1249 0.960 . S
C1262 C1261 1.524 . S
C1263 C1260 1.403 . S
C1263 C1264 1.392 . S
C1263 C1267 1.495 . S
C1264 C1263 1.392 . S
C1264 C1265 1.385 . S
C1264 C1266 1.478 . S
C1265 H1259 0.930 . S
C1265 C1261 1.400 . S
C1265 C1264 1.385 . S
C1266 C1264 1.478 . S
C1266 C1268 1.381 . S
C1266 C1272 1.383 . S
C1267 C1263 1.495 . S
C1267 H1273 0.959 . S
C1267 H1274 0.961 . S
C1267 H1275 0.960 . S
C1268 C1266 1.381 . S
C1268 C1269 1.394 . S
C1268 H1276 0.930 . S
C1269 C1268 1.394 . S
C1269 C1270 1.383 . S
C1269 H1277 0.929 . S
C1270 C1269 1.383 . S
C1270 C1271 1.377 . S
C1271 H1255 0.930 . S
C1271 C1270 1.377 . S
C1271 C1272 1.379 . S
C1272 H1256 0.931 . S
C1272 C1266 1.383 . S
C1272 C1271 1.379 . S
H1273 C1267 0.959 . S
H1274 C1267 0.961 . S
H1275 C1267 0.960 . S
H1276 C1268 0.930 . S
H1277 C1269 0.929 . S
H1278 C1286 0.929 . S
H1279 C1288 0.930 . S
H1280 C1290 0.930 . S
H1281 C1293 0.929 . S
H1282 C1296 0.930 . S
H1283 C1298 0.960 . S
H1284 C1298 0.960 . S
H1285 C1298 0.960 . S
C1286 H1278 0.929 . S
C1286 C1287 1.377 . S
C1286 C1288 1.384 . S
C1287 C1286 1.377 . S
C1287 C1293 1.390 . S
C1288 H1279 0.930 . S
C1288 C1286 1.384 . S
C1288 C1289 1.372 . S
C1289 C1288 1.372 . S
C1289 C1290 1.400 . S
C1289 C1294 1.490 . S
C1290 H1280 0.930 . S
C1290 C1289 1.400 . S
C1290 C1293 1.386 . S
H1291 C1307 0.930 . S
H1292 C1308 0.931 . S
C1293 H1281 0.929 . S
C1293 C1287 1.390 . S
C1293 C1290 1.386 . S
C1294 C1289 1.490 . S
C1294 C1296 1.395 . S
C1294 C1297 1.403 . S
H1295 C1301 0.930 . S
C1296 H1282 0.930 . S
C1296 C1294 1.395 . S
C1296 C1299 1.403 . S
C1297 C1294 1.403 . S
C1297 C1298 1.524 . S
C1297 C1301 1.400 . S
C1298 H1283 0.960 . S
C1298 H1284 0.960 . S
C1298 H1285 0.960 . S
C1298 C1297 1.524 . S
C1299 C1296 1.403 . S
C1299 C1300 1.392 . S
C1299 C1303 1.495 . S
C1300 C1299 1.392 . S
C1300 C1301 1.385 . S
C1300 C1302 1.478 . S
C1301 H1295 0.930 . S
C1301 C1297 1.400 . S
C1301 C1300 1.385 . S
C1302 C1300 1.478 . S
C1302 C1304 1.381 . S
C1302 C1308 1.383 . S
C1303 C1299 1.495 . S
C1303 H1309 0.959 . S
C1303 H1310 0.961 . S
C1303 H1311 0.960 . S
C1304 C1302 1.381 . S
C1304 C1305 1.394 . S
C1304 H1312 0.930 . S
C1305 C1304 1.394 . S
C1305 C1306 1.383 . S
C1305 H1313 0.929 . S
C1306 C1305 1.383 . S
C1306 C1307 1.377 . S
C1307 H1291 0.930 . S
C1307 C1306 1.377 . S
C1307 C1308 1.379 . S
C1308 H1292 0.931 . S
C1308 C1302 1.383 . S
C1308 C1307 1.379 . S
H1309 C1303 0.959 . S
H1310 C1303 0.961 . S
H1311 C1303 0.960 . S
H1312 C1304 0.930 . S
H1313 C1305 0.929 . S
H1314 C1322 0.929 . S
H1315 C1324 0.930 . S
H1316 C1326 0.930 . S
H1317 C1329 0.929 . S
H1318 C1332 0.930 . S
H1319 C1334 0.960 . S
H1320 C1334 0.960 . S
H1321 C1334 0.960 . S
C1322 H1314 0.929 . S
C1322 C1323 1.377 . S
C1322 C1324 1.384 . S
C1323 C1322 1.377 . S
C1323 C1329 1.390 . S
C1324 H1315 0.930 . S
C1324 C1322 1.384 . S
C1324 C1325 1.372 . S
C1325 C1324 1.372 . S
C1325 C1326 1.400 . S
C1325 C1330 1.490 . S
C1326 H1316 0.930 . S
C1326 C1325 1.400 . S
C1326 C1329 1.386 . S
H1327 C1343 0.930 . S
H1328 C1344 0.931 . S
C1329 H1317 0.929 . S
C1329 C1323 1.390 . S
C1329 C1326 1.386 . S
C1330 C1325 1.490 . S
C1330 C1332 1.395 . S
C1330 C1333 1.403 . S
H1331 C1337 0.930 . S
C1332 H1318 0.930 . S
C1332 C1330 1.395 . S
C1332 C1335 1.403 . S
C1333 C1330 1.403 . S
C1333 C1334 1.524 . S
C1333 C1337 1.400 . S
C1334 H1319 0.960 . S
C1334 H1320 0.960 . S
C1334 H1321 0.960 . S
C1334 C1333 1.524 . S
C1335 C1332 1.403 . S
C1335 C1336 1.392 . S
C1335 C1339 1.495 . S
C1336 C1335 1.392 . S
C1336 C1337 1.385 . S
C1336 C1338 1.478 . S
C1337 H1331 0.930 . S
C1337 C1333 1.400 . S
C1337 C1336 1.385 . S
C1338 C1336 1.478 . S
C1338 C1340 1.381 . S
C1338 C1344 1.383 . S
C1339 C1335 1.495 . S
C1339 H1345 0.959 . S
C1339 H1346 0.961 . S
C1339 H1347 0.960 . S
C1340 C1338 1.381 . S
C1340 C1341 1.394 . S
C1340 H1348 0.930 . S
C1341 C1340 1.394 . S
C1341 C1342 1.383 . S
C1341 H1349 0.929 . S
C1342 C1341 1.383 . S
C1342 C1343 1.377 . S
C1343 H1327 0.930 . S
C1343 C1342 1.377 . S
C1343 C1344 1.379 . S
C1344 H1328 0.931 . S
C1344 C1338 1.383 . S
C1344 C1343 1.379 . S
H1345 C1339 0.959 . S
H1346 C1339 0.961 . S
H1347 C1339 0.960 . S
H1348 C1340 0.930 . S
H1349 C1341 0.929 . S
H1350 C1358 0.929 . S
H1351 C1360 0.930 . S
H1352 C1362 0.930 . S
H1353 C1365 0.929 . S
H1354 C1368 0.930 . S
H1355 C1370 0.960 . S
H1356 C1370 0.960 . S
H1357 C1370 0.960 . S
C1358 H1350 0.929 . S
C1358 C1359 1.377 . S
C1358 C1360 1.384 . S
C1359 C1358 1.377 . S
C1359 C1365 1.390 . S
C1360 H1351 0.930 . S
C1360 C1358 1.384 . S
C1360 C1361 1.372 . S
C1361 C1360 1.372 . S
C1361 C1362 1.400 . S
C1361 C1366 1.490 . S
C1362 H1352 0.930 . S
C1362 C1361 1.400 . S
C1362 C1365 1.386 . S
H1363 C1379 0.930 . S
H1364 C1380 0.931 . S
C1365 H1353 0.929 . S
C1365 C1359 1.390 . S
C1365 C1362 1.386 . S
C1366 C1361 1.490 . S
C1366 C1368 1.395 . S
C1366 C1369 1.403 . S
H1367 C1373 0.930 . S
C1368 H1354 0.930 . S
C1368 C1366 1.395 . S
C1368 C1371 1.403 . S
C1369 C1366 1.403 . S
C1369 C1370 1.524 . S
C1369 C1373 1.400 . S
C1370 H1355 0.960 . S
C1370 H1356 0.960 . S
C1370 H1357 0.960 . S
C1370 C1369 1.524 . S
C1371 C1368 1.403 . S
C1371 C1372 1.392 . S
C1371 C1375 1.495 . S
C1372 C1371 1.392 . S
C1372 C1373 1.385 . S
C1372 C1374 1.478 . S
C1373 H1367 0.930 . S
C1373 C1369 1.400 . S
C1373 C1372 1.385 . S
C1374 C1372 1.478 . S
C1374 C1376 1.381 . S
C1374 C1380 1.383 . S
C1375 C1371 1.495 . S
C1375 H1381 0.959 . S
C1375 H1382 0.961 . S
C1375 H1383 0.960 . S
C1376 C1374 1.381 . S
C1376 C1377 1.394 . S
C1376 H1384 0.930 . S
C1377 C1376 1.394 . S
C1377 C1378 1.383 . S
C1377 H1385 0.929 . S
C1378 C1377 1.383 . S
C1378 C1379 1.377 . S
C1379 H1363 0.930 . S
C1379 C1378 1.377 . S
C1379 C1380 1.379 . S
C1380 H1364 0.931 . S
C1380 C1374 1.383 . S
C1380 C1379 1.379 . S
H1381 C1375 0.959 . S
H1382 C1375 0.961 . S
H1383 C1375 0.960 . S
H1384 C1376 0.930 . S
H1385 C1377 0.929 . S
H1386 C1394 0.929 . S
H1387 C1396 0.930 . S
H1388 C1398 0.930 . S
H1389 C1401 0.929 . S
H1390 C1404 0.930 . S
H1391 C1406 0.960 . S
H1392 C1406 0.960 . S
H1393 C1406 0.960 . S
C1394 H1386 0.929 . S
C1394 C1395 1.377 . S
C1394 C1396 1.384 . S
C1395 C1394 1.377 . S
C1395 C1401 1.390 . S
C1396 H1387 0.930 . S
C1396 C1394 1.384 . S
C1396 C1397 1.372 . S
C1397 C1396 1.372 . S
C1397 C1398 1.400 . S
C1397 C1402 1.490 . S
C1398 H1388 0.930 . S
C1398 C1397 1.400 . S
C1398 C1401 1.386 . S
H1399 C1415 0.930 . S
H1400 C1416 0.931 . S
C1401 H1389 0.929 . S
C1401 C1395 1.390 . S
C1401 C1398 1.386 . S
C1402 C1397 1.490 . S
C1402 C1404 1.395 . S
C1402 C1405 1.403 . S
H1403 C1409 0.930 . S
C1404 H1390 0.930 . S
C1404 C1402 1.395 . S
C1404 C1407 1.403 . S
C1405 C1402 1.403 . S
C1405 C1406 1.524 . S
C1405 C1409 1.400 . S
C1406 H1391 0.960 . S
C1406 H1392 0.960 . S
C1406 H1393 0.960 . S
C1406 C1405 1.524 . S
C1407 C1404 1.403 . S
C1407 C1408 1.392 . S
C1407 C1411 1.495 . S
C1408 C1407 1.392 . S
C1408 C1409 1.385 . S
C1408 C1410 1.478 . S
C1409 H1403 0.930 . S
C1409 C1405 1.400 . S
C1409 C1408 1.385 . S
C1410 C1408 1.478 . S
C1410 C1412 1.381 . S
C1410 C1416 1.383 . S
C1411 C1407 1.495 . S
C1411 H1417 0.959 . S
C1411 H1418 0.961 . S
C1411 H1419 0.960 . S
C1412 C1410 1.381 . S
C1412 C1413 1.394 . S
C1412 H1420 0.930 . S
C1413 C1412 1.394 . S
C1413 C1414 1.383 . S
C1413 H1421 0.929 . S
C1414 C1413 1.383 . S
C1414 C1415 1.377 . S
C1415 H1399 0.930 . S
C1415 C1414 1.377 . S
C1415 C1416 1.379 . S
C1416 H1400 0.931 . S
C1416 C1410 1.383 . S
C1416 C1415 1.379 . S
H1417 C1411 0.959 . S
H1418 C1411 0.961 . S
H1419 C1411 0.960 . S
H1420 C1412 0.930 . S
H1421 C1413 0.929 . S
H1422 C1430 0.929 . S
H1423 C1432 0.930 . S
H1424 C1434 0.930 . S
H1425 C1437 0.929 . S
H1426 C1440 0.930 . S
H1427 C1442 0.960 . S
H1428 C1442 0.960 . S
H1429 C1442 0.960 . S
C1430 H1422 0.929 . S
C1430 C1431 1.377 . S
C1430 C1432 1.384 . S
C1431 C1430 1.377 . S
C1431 C1437 1.390 . S
C1432 H1423 0.930 . S
C1432 C1430 1.384 . S
C1432 C1433 1.372 . S
C1433 C1432 1.372 . S
C1433 C1434 1.400 . S
C1433 C1438 1.490 . S
C1434 H1424 0.930 . S
C1434 C1433 1.400 . S
C1434 C1437 1.386 . S
H1435 C1451 0.930 . S
H1436 C1452 0.931 . S
C1437 H1425 0.929 . S
C1437 C1431 1.390 . S
C1437 C1434 1.386 . S
C1438 C1433 1.490 . S
C1438 C1440 1.395 . S
C1438 C1441 1.403 . S
H1439 C1445 0.930 . S
C1440 H1426 0.930 . S
C1440 C1438 1.395 . S
C1440 C1443 1.403 . S
C1441 C1438 1.403 . S
C1441 C1442 1.524 . S
C1441 C1445 1.400 . S
C1442 H1427 0.960 . S
C1442 H1428 0.960 . S
C1442 H1429 0.960 . S
C1442 C1441 1.524 . S
C1443 C1440 1.403 . S
C1443 C1444 1.392 . S
C1443 C1447 1.495 . S
C1444 C1443 1.392 . S
C1444 C1445 1.385 . S
C1444 C1446 1.478 . S
C1445 H1439 0.930 . S
C1445 C1441 1.400 . S
C1445 C1444 1.385 . S
C1446 C1444 1.478 . S
C1446 C1448 1.381 . S
C1446 C1452 1.383 . S
C1447 C1443 1.495 . S
C1447 H1453 0.959 . S
C1447 H1454 0.961 . S
C1447 H1455 0.960 . S
C1448 C1446 1.381 . S
C1448 C1449 1.394 . S
C1448 H1456 0.930 . S
C1449 C1448 1.394 . S
C1449 C1450 1.383 . S
C1449 H1457 0.929 . S
C1450 C1449 1.383 . S
C1450 C1451 1.377 . S
C1451 H1435 0.930 . S
C1451 C1450 1.377 . S
C1451 C1452 1.379 . S
C1452 H1436 0.931 . S
C1452 C1446 1.383 . S
C1452 C1451 1.379 . S
H1453 C1447 0.959 . S
H1454 C1447 0.961 . S
H1455 C1447 0.960 . S
H1456 C1448 0.930 . S
H1457 C1449 0.929 . S
H1458 C1466 0.929 . S
H1459 C1468 0.930 1_565 S
H1460 C1470 0.930 1_565 S
H1461 C1473 0.929 . S
H1462 C1476 0.930 . S
H1463 C1478 0.960 . S
H1464 C1478 0.960 . S
H1465 C1478 0.960 . S
C1466 H1458 0.929 . S
C1466 C1467 1.377 . S
C1466 C1468 1.384 . S
C1467 C1466 1.377 . S
C1467 C1473 1.390 . S
C1468 H1459 0.930 1_545 S
C1468 C1466 1.384 . S
C1468 C1469 1.372 1_545 S
C1469 C1468 1.372 1_565 S
C1469 C1470 1.400 1_565 S
C1469 C1474 1.490 . S
C1470 H1460 0.930 1_545 S
C1470 C1469 1.400 1_545 S
C1470 C1473 1.386 . S
H1471 C1487 0.930 . S
H1472 C1488 0.931 . S
C1473 H1461 0.929 . S
C1473 C1467 1.390 . S
C1473 C1470 1.386 . S
C1474 C1469 1.490 . S
C1474 C1476 1.395 . S
C1474 C1477 1.403 . S
H1475 C1481 0.930 . S
C1476 H1462 0.930 . S
C1476 C1474 1.395 . S
C1476 C1479 1.403 . S
C1477 C1474 1.403 . S
C1477 C1478 1.524 . S
C1477 C1481 1.400 . S
C1478 H1463 0.960 . S
C1478 H1464 0.960 . S
C1478 H1465 0.960 . S
C1478 C1477 1.524 . S
C1479 C1476 1.403 . S
C1479 C1480 1.392 . S
C1479 C1483 1.495 . S
C1480 C1479 1.392 . S
C1480 C1481 1.385 . S
C1480 C1482 1.478 . S
C1481 H1475 0.930 . S
C1481 C1477 1.400 . S
C1481 C1480 1.385 . S
C1482 C1480 1.478 . S
C1482 C1484 1.381 . S
C1482 C1488 1.383 . S
C1483 C1479 1.495 . S
C1483 H1489 0.959 . S
C1483 H1490 0.961 . S
C1483 H1491 0.960 . S
C1484 C1482 1.381 . S
C1484 C1485 1.394 . S
C1484 H1492 0.930 . S
C1485 C1484 1.394 . S
C1485 C1486 1.383 . S
C1485 H1493 0.929 . S
C1486 C1485 1.383 . S
C1486 C1487 1.377 . S
C1487 H1471 0.930 . S
C1487 C1486 1.377 . S
C1487 C1488 1.379 . S
C1488 H1472 0.931 . S
C1488 C1482 1.383 . S
C1488 C1487 1.379 . S
H1489 C1483 0.959 . S
H1490 C1483 0.961 . S
H1491 C1483 0.960 . S
H1492 C1484 0.930 . S
H1493 C1485 0.929 . S
H1494 C1502 0.929 . S
H1495 C1504 0.930 . S
H1496 C1506 0.930 . S
H1497 C1509 0.929 . S
H1498 C1512 0.930 . S
H1499 C1514 0.960 . S
H1500 C1514 0.960 . S
H1501 C1514 0.960 . S
C1502 H1494 0.929 . S
C1502 C1503 1.377 1_455 S
C1502 C1504 1.384 . S
C1503 C1502 1.377 1_655 S
C1503 C1509 1.390 . S
C1504 H1495 0.930 . S
C1504 C1502 1.384 . S
C1504 C1505 1.372 . S
C1505 C1504 1.372 . S
C1505 C1506 1.400 . S
C1505 C1510 1.490 . S
C1506 H1496 0.930 . S
C1506 C1505 1.400 . S
C1506 C1509 1.386 1_455 S
H1507 C1523 0.930 . S
H1508 C1524 0.931 . S
C1509 H1497 0.929 . S
C1509 C1503 1.390 . S
C1509 C1506 1.386 1_655 S
C1510 C1505 1.490 . S
C1510 C1512 1.395 . S
C1510 C1513 1.403 . S
H1511 C1517 0.930 . S
C1512 H1498 0.930 . S
C1512 C1510 1.395 . S
C1512 C1515 1.403 . S
C1513 C1510 1.403 . S
C1513 C1514 1.524 . S
C1513 C1517 1.400 . S
C1514 H1499 0.960 . S
C1514 H1500 0.960 . S
C1514 H1501 0.960 . S
C1514 C1513 1.524 . S
C1515 C1512 1.403 . S
C1515 C1516 1.392 . S
C1515 C1519 1.495 . S
C1516 C1515 1.392 . S
C1516 C1517 1.385 . S
C1516 C1518 1.478 . S
C1517 H1511 0.930 . S
C1517 C1513 1.400 . S
C1517 C1516 1.385 . S
C1518 C1516 1.478 . S
C1518 C1520 1.381 . S
C1518 C1524 1.383 . S
C1519 C1515 1.495 . S
C1519 H1525 0.959 . S
C1519 H1526 0.961 . S
C1519 H1527 0.960 . S
C1520 C1518 1.381 . S
C1520 C1521 1.394 . S
C1520 H1528 0.930 . S
C1521 C1520 1.394 . S
C1521 C1522 1.383 . S
C1521 H1529 0.929 . S
C1522 C1521 1.383 . S
C1522 C1523 1.377 . S
C1523 H1507 0.930 . S
C1523 C1522 1.377 . S
C1523 C1524 1.379 . S
C1524 H1508 0.931 . S
C1524 C1518 1.383 . S
C1524 C1523 1.379 . S
H1525 C1519 0.959 . S
H1526 C1519 0.961 . S
H1527 C1519 0.960 . S
H1528 C1520 0.930 . S
H1529 C1521 0.929 . S
H1530 C1538 0.929 . S
H1531 C1540 0.930 . S
H1532 C1542 0.930 . S
H1533 C1545 0.929 . S
H1534 C1548 0.930 . S
H1535 C1550 0.960 . S
H1536 C1550 0.960 . S
H1537 C1550 0.960 . S
C1538 H1530 0.929 . S
C1538 C1539 1.377 . S
C1538 C1540 1.384 . S
C1539 C1538 1.377 . S
C1539 C1545 1.390 . S
C1540 H1531 0.930 . S
C1540 C1538 1.384 . S
C1540 C1541 1.372 . S
C1541 C1540 1.372 . S
C1541 C1542 1.400 . S
C1541 C1546 1.490 . S
C1542 H1532 0.930 . S
C1542 C1541 1.400 . S
C1542 C1545 1.386 . S
H1543 C1559 0.930 . S
H1544 C1560 0.931 . S
C1545 H1533 0.929 . S
C1545 C1539 1.390 . S
C1545 C1542 1.386 . S
C1546 C1541 1.490 . S
C1546 C1548 1.395 . S
C1546 C1549 1.403 . S
H1547 C1553 0.930 . S
C1548 H1534 0.930 . S
C1548 C1546 1.395 . S
C1548 C1551 1.403 . S
C1549 C1546 1.403 . S
C1549 C1550 1.524 . S
C1549 C1553 1.400 . S
C1550 H1535 0.960 . S
C1550 H1536 0.960 . S
C1550 H1537 0.960 . S
C1550 C1549 1.524 . S
C1551 C1548 1.403 . S
C1551 C1552 1.392 . S
C1551 C1555 1.495 . S
C1552 C1551 1.392 . S
C1552 C1553 1.385 . S
C1552 C1554 1.478 . S
C1553 H1547 0.930 . S
C1553 C1549 1.400 . S
C1553 C1552 1.385 . S
C1554 C1552 1.478 . S
C1554 C1556 1.381 . S
C1554 C1560 1.383 . S
C1555 C1551 1.495 . S
C1555 H1561 0.959 . S
C1555 H1562 0.961 . S
C1555 H1563 0.960 . S
C1556 C1554 1.381 . S
C1556 C1557 1.394 . S
C1556 H1564 0.930 . S
C1557 C1556 1.394 . S
C1557 C1558 1.383 . S
C1557 H1565 0.929 . S
C1558 C1557 1.383 . S
C1558 C1559 1.377 . S
C1559 H1543 0.930 . S
C1559 C1558 1.377 . S
C1559 C1560 1.379 . S
C1560 H1544 0.931 . S
C1560 C1554 1.383 . S
C1560 C1559 1.379 . S
H1561 C1555 0.959 . S
H1562 C1555 0.961 . S
H1563 C1555 0.960 . S
H1564 C1556 0.930 . S
H1565 C1557 0.929 . S
H1566 C1574 0.929 . S
H1567 C1576 0.930 . S
H1568 C1578 0.930 . S
H1569 C1581 0.929 . S
H1570 C1584 0.930 . S
H1571 C1586 0.960 . S
H1572 C1586 0.960 . S
H1573 C1586 0.960 . S
C1574 H1566 0.929 . S
C1574 C1575 1.377 . S
C1574 C1576 1.384 . S
C1575 C1574 1.377 . S
C1575 C1581 1.390 . S
C1576 H1567 0.930 . S
C1576 C1574 1.384 . S
C1576 C1577 1.372 . S
C1577 C1576 1.372 . S
C1577 C1578 1.400 . S
C1577 C1582 1.490 . S
C1578 H1568 0.930 . S
C1578 C1577 1.400 . S
C1578 C1581 1.386 . S
H1579 C1595 0.930 . S
H1580 C1596 0.931 . S
C1581 H1569 0.929 . S
C1581 C1575 1.390 . S
C1581 C1578 1.386 . S
C1582 C1577 1.490 . S
C1582 C1584 1.395 . S
C1582 C1585 1.403 . S
H1583 C1589 0.930 . S
C1584 H1570 0.930 . S
C1584 C1582 1.395 . S
C1584 C1587 1.403 . S
C1585 C1582 1.403 . S
C1585 C1586 1.524 . S
C1585 C1589 1.400 . S
C1586 H1571 0.960 . S
C1586 H1572 0.960 . S
C1586 H1573 0.960 . S
C1586 C1585 1.524 . S
C1587 C1584 1.403 . S
C1587 C1588 1.392 . S
C1587 C1591 1.495 . S
C1588 C1587 1.392 . S
C1588 C1589 1.385 . S
C1588 C1590 1.478 . S
C1589 H1583 0.930 . S
C1589 C1585 1.400 . S
C1589 C1588 1.385 . S
C1590 C1588 1.478 . S
C1590 C1592 1.381 . S
C1590 C1596 1.383 . S
C1591 C1587 1.495 . S
C1591 H1597 0.959 . S
C1591 H1598 0.961 . S
C1591 H1599 0.960 . S
C1592 C1590 1.381 . S
C1592 C1593 1.394 . S
C1592 H1600 0.930 . S
C1593 C1592 1.394 . S
C1593 C1594 1.383 . S
C1593 H1601 0.929 . S
C1594 C1593 1.383 . S
C1594 C1595 1.377 . S
C1595 H1579 0.930 . S
C1595 C1594 1.377 . S
C1595 C1596 1.379 . S
C1596 H1580 0.931 . S
C1596 C1590 1.383 . S
C1596 C1595 1.379 . S
H1597 C1591 0.959 . S
H1598 C1591 0.961 . S
H1599 C1591 0.960 . S
H1600 C1592 0.930 . S
H1601 C1593 0.929 . S
H1602 C1610 0.929 . S
H1603 C1612 0.930 . S
H1604 C1614 0.930 . S
H1605 C1617 0.929 . S
H1606 C1620 0.930 . S
H1607 C1622 0.960 . S
H1608 C1622 0.960 . S
H1609 C1622 0.960 . S
C1610 H1602 0.929 . S
C1610 C1611 1.377 . S
C1610 C1612 1.384 . S
C1611 C1610 1.377 . S
C1611 C1617 1.390 . S
C1612 H1603 0.930 . S
C1612 C1610 1.384 . S
C1612 C1613 1.372 . S
C1613 C1612 1.372 . S
C1613 C1614 1.400 . S
C1613 C1618 1.490 . S
C1614 H1604 0.930 . S
C1614 C1613 1.400 . S
C1614 C1617 1.386 . S
H1615 C1631 0.930 . S
H1616 C1632 0.931 . S
C1617 H1605 0.929 . S
C1617 C1611 1.390 . S
C1617 C1614 1.386 . S
C1618 C1613 1.490 . S
C1618 C1620 1.395 . S
C1618 C1621 1.403 . S
H1619 C1625 0.930 . S
C1620 H1606 0.930 . S
C1620 C1618 1.395 . S
C1620 C1623 1.403 . S
C1621 C1618 1.403 . S
C1621 C1622 1.524 . S
C1621 C1625 1.400 . S
C1622 H1607 0.960 . S
C1622 H1608 0.960 . S
C1622 H1609 0.960 . S
C1622 C1621 1.524 . S
C1623 C1620 1.403 . S
C1623 C1624 1.392 . S
C1623 C1627 1.495 . S
C1624 C1623 1.392 . S
C1624 C1625 1.385 . S
C1624 C1626 1.478 . S
C1625 H1619 0.930 . S
C1625 C1621 1.400 . S
C1625 C1624 1.385 . S
C1626 C1624 1.478 . S
C1626 C1628 1.381 . S
C1626 C1632 1.383 . S
C1627 C1623 1.495 . S
C1627 H1633 0.959 . S
C1627 H1634 0.961 . S
C1627 H1635 0.960 . S
C1628 C1626 1.381 . S
C1628 C1629 1.394 . S
C1628 H1636 0.930 . S
C1629 C1628 1.394 . S
C1629 C1630 1.383 . S
C1629 H1637 0.929 . S
C1630 C1629 1.383 . S
C1630 C1631 1.377 . S
C1631 H1615 0.930 . S
C1631 C1630 1.377 . S
C1631 C1632 1.379 . S
C1632 H1616 0.931 . S
C1632 C1626 1.383 . S
C1632 C1631 1.379 . S
H1633 C1627 0.959 . S
H1634 C1627 0.961 . S
H1635 C1627 0.960 . S
H1636 C1628 0.930 . S
H1637 C1629 0.929 . S
H1638 C1646 0.929 . S
H1639 C1648 0.930 . S
H1640 C1650 0.930 . S
H1641 C1653 0.929 . S
H1642 C1656 0.930 . S
H1643 C1658 0.960 . S
H1644 C1658 0.960 . S
H1645 C1658 0.960 . S
C1646 H1638 0.929 . S
C1646 C1647 1.377 . S
C1646 C1648 1.384 . S
C1647 C1646 1.377 . S
C1647 C1653 1.390 . S
C1648 H1639 0.930 . S
C1648 C1646 1.384 . S
C1648 C1649 1.372 . S
C1649 C1648 1.372 . S
C1649 C1650 1.400 . S
C1649 C1654 1.490 . S
C1650 H1640 0.930 . S
C1650 C1649 1.400 . S
C1650 C1653 1.386 . S
H1651 C1667 0.930 . S
H1652 C1668 0.931 . S
C1653 H1641 0.929 . S
C1653 C1647 1.390 . S
C1653 C1650 1.386 . S
C1654 C1649 1.490 . S
C1654 C1656 1.395 . S
C1654 C1657 1.403 . S
H1655 C1661 0.930 . S
C1656 H1642 0.930 . S
C1656 C1654 1.395 . S
C1656 C1659 1.403 . S
C1657 C1654 1.403 . S
C1657 C1658 1.524 . S
C1657 C1661 1.400 . S
C1658 H1643 0.960 . S
C1658 H1644 0.960 . S
C1658 H1645 0.960 . S
C1658 C1657 1.524 . S
C1659 C1656 1.403 . S
C1659 C1660 1.392 . S
C1659 C1663 1.495 . S
C1660 C1659 1.392 . S
C1660 C1661 1.385 . S
C1660 C1662 1.478 . S
C1661 H1655 0.930 . S
C1661 C1657 1.400 . S
C1661 C1660 1.385 . S
C1662 C1660 1.478 . S
C1662 C1664 1.381 . S
C1662 C1668 1.383 . S
C1663 C1659 1.495 . S
C1663 H1669 0.959 . S
C1663 H1670 0.961 . S
C1663 H1671 0.960 . S
C1664 C1662 1.381 . S
C1664 C1665 1.394 . S
C1664 H1672 0.930 . S
C1665 C1664 1.394 . S
C1665 C1666 1.383 . S
C1665 H1673 0.929 . S
C1666 C1665 1.383 . S
C1666 C1667 1.377 . S
C1667 H1651 0.930 . S
C1667 C1666 1.377 . S
C1667 C1668 1.379 . S
C1668 H1652 0.931 . S
C1668 C1662 1.383 . S
C1668 C1667 1.379 . S
H1669 C1663 0.959 . S
H1670 C1663 0.961 . S
H1671 C1663 0.960 . S
H1672 C1664 0.930 . S
H1673 C1665 0.929 . S
H1674 C1682 0.929 . S
H1675 C1684 0.930 . S
H1676 C1686 0.930 . S
H1677 C1689 0.929 . S
H1678 C1692 0.930 . S
H1679 C1694 0.960 . S
H1680 C1694 0.960 . S
H1681 C1694 0.960 . S
C1682 H1674 0.929 . S
C1682 C1683 1.377 . S
C1682 C1684 1.384 . S
C1683 C1682 1.377 . S
C1683 C1689 1.390 . S
C1684 H1675 0.930 . S
C1684 C1682 1.384 . S
C1684 C1685 1.372 . S
C1685 C1684 1.372 . S
C1685 C1686 1.400 . S
C1685 C1690 1.490 . S
C1686 H1676 0.930 . S
C1686 C1685 1.400 . S
C1686 C1689 1.386 . S
H1687 C1703 0.930 . S
H1688 C1704 0.931 . S
C1689 H1677 0.929 . S
C1689 C1683 1.390 . S
C1689 C1686 1.386 . S
C1690 C1685 1.490 . S
C1690 C1692 1.395 . S
C1690 C1693 1.403 . S
H1691 C1697 0.930 1_545 S
C1692 H1678 0.930 . S
C1692 C1690 1.395 . S
C1692 C1695 1.403 1_565 S
C1693 C1690 1.403 . S
C1693 C1694 1.524 . S
C1693 C1697 1.400 . S
C1694 H1679 0.960 . S
C1694 H1680 0.960 . S
C1694 H1681 0.960 . S
C1694 C1693 1.524 . S
C1695 C1692 1.403 1_545 S
C1695 C1696 1.392 . S
C1695 C1699 1.495 . S
C1696 C1695 1.392 . S
C1696 C1697 1.385 1_545 S
C1696 C1698 1.478 . S
C1697 H1691 0.930 1_565 S
C1697 C1693 1.400 . S
C1697 C1696 1.385 1_565 S
C1698 C1696 1.478 . S
C1698 C1700 1.381 . S
C1698 C1704 1.383 . S
C1699 C1695 1.495 . S
C1699 H1705 0.959 . S
C1699 H1706 0.961 . S
C1699 H1707 0.960 . S
C1700 C1698 1.381 . S
C1700 C1701 1.394 . S
C1700 H1708 0.930 . S
C1701 C1700 1.394 . S
C1701 C1702 1.383 . S
C1701 H1709 0.929 . S
C1702 C1701 1.383 . S
C1702 C1703 1.377 . S
C1703 H1687 0.930 . S
C1703 C1702 1.377 . S
C1703 C1704 1.379 . S
C1704 H1688 0.931 . S
C1704 C1698 1.383 . S
C1704 C1703 1.379 . S
H1705 C1699 0.959 . S
H1706 C1699 0.961 . S
H1707 C1699 0.960 . S
H1708 C1700 0.930 . S
H1709 C1701 0.929 . S
H1710 C1718 0.929 . S
H1711 C1720 0.930 . S
H1712 C1722 0.930 . S
H1713 C1725 0.929 . S
H1714 C1728 0.930 . S
H1715 C1730 0.960 . S
H1716 C1730 0.960 . S
H1717 C1730 0.960 . S
C1718 H1710 0.929 . S
C1718 C1719 1.377 . S
C1718 C1720 1.384 . S
C1719 C1718 1.377 . S
C1719 C1725 1.390 . S
C1720 H1711 0.930 . S
C1720 C1718 1.384 . S
C1720 C1721 1.372 . S
C1721 C1720 1.372 . S
C1721 C1722 1.400 . S
C1721 C1726 1.490 . S
C1722 H1712 0.930 . S
C1722 C1721 1.400 . S
C1722 C1725 1.386 . S
H1723 C1739 0.930 . S
H1724 C1740 0.931 . S
C1725 H1713 0.929 . S
C1725 C1719 1.390 . S
C1725 C1722 1.386 . S
C1726 C1721 1.490 . S
C1726 C1728 1.395 . S
C1726 C1729 1.403 . S
H1727 C1733 0.936 . S
C1728 H1714 0.930 . S
C1728 C1726 1.395 . S
C1728 C1731 1.403 1_455 S
C1729 C1726 1.403 . S
C1729 C1730 1.524 . S
C1729 C1733 1.378 1_455 S
C1730 H1715 0.960 . S
C1730 H1716 0.960 . S
C1730 H1717 0.960 . S
C1730 C1729 1.524 . S
C1731 C1728 1.403 1_655 S
C1731 C1732 1.392 . S
C1731 C1735 1.495 . S
C1732 C1731 1.392 . S
C1732 C1733 1.402 . S
C1732 C1734 1.478 . S
C1733 H1727 0.936 . S
C1733 C1729 1.378 1_655 S
C1733 C1732 1.402 . S
C1734 C1732 1.478 . S
C1734 C1736 1.381 . S
C1734 C1740 1.383 . S
C1735 C1731 1.495 . S
C1735 H1741 0.959 . S
C1735 H1742 0.961 . S
C1735 H1743 0.960 . S
C1736 C1734 1.381 . S
C1736 C1737 1.394 . S
C1736 H1744 0.930 . S
C1737 C1736 1.394 . S
C1737 C1738 1.383 . S
C1737 H1745 0.929 . S
C1738 C1737 1.383 . S
C1738 C1739 1.377 . S
C1739 H1723 0.930 . S
C1739 C1738 1.377 . S
C1739 C1740 1.379 . S
C1740 H1724 0.931 . S
C1740 C1734 1.383 . S
C1740 C1739 1.379 . S
H1741 C1735 0.959 . S
H1742 C1735 0.961 . S
H1743 C1735 0.960 . S
H1744 C1736 0.930 . S
H1745 C1737 0.929 . S
H1746 C1754 0.929 . S
H1747 C1756 0.930 . S
H1748 C1758 0.930 . S
H1749 C1761 0.929 . S
H1750 C1764 0.930 . S
H1751 C1766 0.960 . S
H1752 C1766 0.960 . S
H1753 C1766 0.960 . S
C1754 H1746 0.929 . S
C1754 C1755 1.377 . S
C1754 C1756 1.384 . S
C1755 C1754 1.377 . S
C1755 C1761 1.390 . S
C1756 H1747 0.930 . S
C1756 C1754 1.384 . S
C1756 C1757 1.372 . S
C1757 C1756 1.372 . S
C1757 C1758 1.400 . S
C1757 C1762 1.490 . S
C1758 H1748 0.930 . S
C1758 C1757 1.400 . S
C1758 C1761 1.386 . S
H1759 C1775 0.930 . S
H1760 C1776 0.931 . S
C1761 H1749 0.929 . S
C1761 C1755 1.390 . S
C1761 C1758 1.386 . S
C1762 C1757 1.490 . S
C1762 C1764 1.395 . S
C1762 C1765 1.403 . S
H1763 C1769 0.930 . S
C1764 H1750 0.930 . S
C1764 C1762 1.395 . S
C1764 C1767 1.403 . S
C1765 C1762 1.403 . S
C1765 C1766 1.524 . S
C1765 C1769 1.400 . S
C1766 H1751 0.960 . S
C1766 H1752 0.960 . S
C1766 H1753 0.960 . S
C1766 C1765 1.524 . S
C1767 C1764 1.403 . S
C1767 C1768 1.392 . S
C1767 C1771 1.495 . S
C1768 C1767 1.392 . S
C1768 C1769 1.385 . S
C1768 C1770 1.478 . S
C1769 H1763 0.930 . S
C1769 C1765 1.400 . S
C1769 C1768 1.385 . S
C1770 C1768 1.478 . S
C1770 C1772 1.381 . S
C1770 C1776 1.383 . S
C1771 C1767 1.495 . S
C1771 H1777 0.959 . S
C1771 H1778 0.961 . S
C1771 H1779 0.960 . S
C1772 C1770 1.381 . S
C1772 C1773 1.394 . S
C1772 H1780 0.930 . S
C1773 C1772 1.394 . S
C1773 C1774 1.383 . S
C1773 H1781 0.929 . S
C1774 C1773 1.383 . S
C1774 C1775 1.377 . S
C1775 H1759 0.930 . S
C1775 C1774 1.377 . S
C1775 C1776 1.379 . S
C1776 H1760 0.931 . S
C1776 C1770 1.383 . S
C1776 C1775 1.379 . S
H1777 C1771 0.959 . S
H1778 C1771 0.961 . S
H1779 C1771 0.960 . S
H1780 C1772 0.930 . S
H1781 C1773 0.929 . S
H1782 C1790 0.929 . S
H1783 C1792 0.930 . S
H1784 C1794 0.910 1_655 S
H1785 C1797 0.929 . S
H1786 C1800 0.930 . S
H1787 C1802 0.960 . S
H1788 C1802 0.960 . S
H1789 C1802 0.960 . S
C1790 H1782 0.929 . S
C1790 C1791 1.377 . S
C1790 C1792 1.384 1_455 S
C1791 C1790 1.377 . S
C1791 C1797 1.390 . S
C1792 H1783 0.930 . S
C1792 C1790 1.384 1_655 S
C1792 C1793 1.372 . S
C1793 C1792 1.372 . S
C1793 C1794 1.398 1_655 S
C1793 C1798 1.490 . S
C1794 H1784 0.910 1_455 S
C1794 C1793 1.398 1_455 S
C1794 C1797 1.406 . S
H1795 C1811 0.930 . S
H1796 C1812 0.931 . S
C1797 H1785 0.929 . S
C1797 C1791 1.390 . S
C1797 C1794 1.406 . S
C1798 C1793 1.490 . S
C1798 C1800 1.395 . S
C1798 C1801 1.403 . S
H1799 C1805 0.930 . S
C1800 H1786 0.930 . S
C1800 C1798 1.395 . S
C1800 C1803 1.403 . S
C1801 C1798 1.403 . S
C1801 C1802 1.524 . S
C1801 C1805 1.400 . S
C1802 H1787 0.960 . S
C1802 H1788 0.960 . S
C1802 H1789 0.960 . S
C1802 C1801 1.524 . S
C1803 C1800 1.403 . S
C1803 C1804 1.392 . S
C1803 C1807 1.495 . S
C1804 C1803 1.392 . S
C1804 C1805 1.385 . S
C1804 C1806 1.478 . S
C1805 H1799 0.930 . S
C1805 C1801 1.400 . S
C1805 C1804 1.385 . S
C1806 C1804 1.478 . S
C1806 C1808 1.381 . S
C1806 C1812 1.383 . S
C1807 C1803 1.495 . S
C1807 H1813 0.959 . S
C1807 H1814 0.961 . S
C1807 H1815 0.960 . S
C1808 C1806 1.381 . S
C1808 C1809 1.394 . S
C1808 H1816 0.930 . S
C1809 C1808 1.394 . S
C1809 C1810 1.383 . S
C1809 H1817 0.929 . S
C1810 C1809 1.383 . S
C1810 C1811 1.377 . S
C1811 H1795 0.930 . S
C1811 C1810 1.377 . S
C1811 C1812 1.379 . S
C1812 H1796 0.931 . S
C1812 C1806 1.383 . S
C1812 C1811 1.379 . S
H1813 C1807 0.959 . S
H1814 C1807 0.961 . S
H1815 C1807 0.960 . S
H1816 C1808 0.930 . S
H1817 C1809 0.929 . S
H1818 C1826 0.929 . S
H1819 C1828 0.930 . S
H1820 C1830 0.930 . S
H1821 C1833 0.929 . S
H1822 C1836 0.930 . S
H1823 C1838 0.960 . S
H1824 C1838 0.960 . S
H1825 C1838 0.960 . S
C1826 H1818 0.929 . S
C1826 C1827 1.377 . S
C1826 C1828 1.384 . S
C1827 C1826 1.377 . S
C1827 C1833 1.390 . S
C1828 H1819 0.930 . S
C1828 C1826 1.384 . S
C1828 C1829 1.372 . S
C1829 C1828 1.372 . S
C1829 C1830 1.400 . S
C1829 C1834 1.490 . S
C1830 H1820 0.930 . S
C1830 C1829 1.400 . S
C1830 C1833 1.386 . S
H1831 C1847 0.930 . S
H1832 C1848 0.931 . S
C1833 H1821 0.929 . S
C1833 C1827 1.390 . S
C1833 C1830 1.386 . S
C1834 C1829 1.490 . S
C1834 C1836 1.395 . S
C1834 C1837 1.403 . S
H1835 C1841 0.930 . S
C1836 H1822 0.930 . S
C1836 C1834 1.395 . S
C1836 C1839 1.403 . S
C1837 C1834 1.403 . S
C1837 C1838 1.524 . S
C1837 C1841 1.400 . S
C1838 H1823 0.960 . S
C1838 H1824 0.960 . S
C1838 H1825 0.960 . S
C1838 C1837 1.524 . S
C1839 C1836 1.403 . S
C1839 C1840 1.392 . S
C1839 C1843 1.495 . S
C1840 C1839 1.392 . S
C1840 C1841 1.385 . S
C1840 C1842 1.478 . S
C1841 H1835 0.930 . S
C1841 C1837 1.400 . S
C1841 C1840 1.385 . S
C1842 C1840 1.478 . S
C1842 C1844 1.381 . S
C1842 C1848 1.383 . S
C1843 C1839 1.495 . S
C1843 H1849 0.959 . S
C1843 H1850 0.961 . S
C1843 H1851 0.960 . S
C1844 C1842 1.381 . S
C1844 C1845 1.394 . S
C1844 H1852 0.930 . S
C1845 C1844 1.394 . S
C1845 C1846 1.383 . S
C1845 H1853 0.929 . S
C1846 C1845 1.383 . S
C1846 C1847 1.377 . S
C1847 H1831 0.930 . S
C1847 C1846 1.377 . S
C1847 C1848 1.379 . S
C1848 H1832 0.931 . S
C1848 C1842 1.383 . S
C1848 C1847 1.379 . S
H1849 C1843 0.959 . S
H1850 C1843 0.961 . S
H1851 C1843 0.960 . S
H1852 C1844 0.930 . S
H1853 C1845 0.929 . S
H1854 C1862 0.929 . S
H1855 C1864 0.930 . S
H1856 C1866 0.930 . S
H1857 C1869 0.929 . S
H1858 C1872 0.930 . S
H1859 C1874 0.960 . S
H1860 C1874 0.960 . S
H1861 C1874 0.960 . S
C1862 H1854 0.929 . S
C1862 C1863 1.377 . S
C1862 C1864 1.384 1_565 S
C1863 C1862 1.377 . S
C1863 C1869 1.390 . S
C1864 H1855 0.930 . S
C1864 C1862 1.384 1_545 S
C1864 C1865 1.372 . S
C1865 C1864 1.372 . S
C1865 C1866 1.400 . S
C1865 C1870 1.490 . S
C1866 H1856 0.930 . S
C1866 C1865 1.400 . S
C1866 C1869 1.386 1_545 S
H1867 C1883 0.930 . S
H1868 C1884 0.931 . S
C1869 H1857 0.929 . S
C1869 C1863 1.390 . S
C1869 C1866 1.386 1_565 S
C1870 C1865 1.490 . S
C1870 C1872 1.395 . S
C1870 C1873 1.403 . S
H1871 C1877 0.930 . S
C1872 H1858 0.930 . S
C1872 C1870 1.395 . S
C1872 C1875 1.403 . S
C1873 C1870 1.403 . S
C1873 C1874 1.524 . S
C1873 C1877 1.400 . S
C1874 H1859 0.960 . S
C1874 H1860 0.960 . S
C1874 H1861 0.960 . S
C1874 C1873 1.524 . S
C1875 C1872 1.403 . S
C1875 C1876 1.392 . S
C1875 C1879 1.495 . S
C1876 C1875 1.392 . S
C1876 C1877 1.385 . S
C1876 C1878 1.478 . S
C1877 H1871 0.930 . S
C1877 C1873 1.400 . S
C1877 C1876 1.385 . S
C1878 C1876 1.478 . S
C1878 C1880 1.381 . S
C1878 C1884 1.383 . S
C1879 C1875 1.495 . S
C1879 H1885 0.959 . S
C1879 H1886 0.961 . S
C1879 H1887 0.960 . S
C1880 C1878 1.381 . S
C1880 C1881 1.394 . S
C1880 H1888 0.930 . S
C1881 C1880 1.394 . S
C1881 C1882 1.383 . S
C1881 H1889 0.929 . S
C1882 C1881 1.383 . S
C1882 C1883 1.377 . S
C1883 H1867 0.930 . S
C1883 C1882 1.377 . S
C1883 C1884 1.379 . S
C1884 H1868 0.931 . S
C1884 C1878 1.383 . S
C1884 C1883 1.379 . S
H1885 C1879 0.959 . S
H1886 C1879 0.961 . S
H1887 C1879 0.960 . S
H1888 C1880 0.930 . S
H1889 C1881 0.929 . S
H1890 C1898 0.929 . S
H1891 C1900 0.930 . S
H1892 C1902 0.930 . S
H1893 C1905 0.929 . S
H1894 C1908 0.930 . S
H1895 C1910 0.960 . S
H1896 C1910 0.960 . S
H1897 C1910 0.960 . S
C1898 H1890 0.929 . S
C1898 C1899 1.377 . S
C1898 C1900 1.384 . S
C1899 C1898 1.377 . S
C1899 C1905 1.390 . S
C1900 H1891 0.930 . S
C1900 C1898 1.384 . S
C1900 C1901 1.372 . S
C1901 C1900 1.372 . S
C1901 C1902 1.400 . S
C1901 C1906 1.490 . S
C1902 H1892 0.930 . S
C1902 C1901 1.400 . S
C1902 C1905 1.386 . S
H1903 C1919 0.930 . S
H1904 C1920 0.931 . S
C1905 H1893 0.929 . S
C1905 C1899 1.390 . S
C1905 C1902 1.386 . S
C1906 C1901 1.490 . S
C1906 C1908 1.395 . S
C1906 C1909 1.403 . S
H1907 C1913 0.930 . S
C1908 H1894 0.930 . S
C1908 C1906 1.395 . S
C1908 C1911 1.403 . S
C1909 C1906 1.403 . S
C1909 C1910 1.524 . S
C1909 C1913 1.400 . S
C1910 H1895 0.960 . S
C1910 H1896 0.960 . S
C1910 H1897 0.960 . S
C1910 C1909 1.524 . S
C1911 C1908 1.403 . S
C1911 C1912 1.392 . S
C1911 C1915 1.495 . S
C1912 C1911 1.392 . S
C1912 C1913 1.385 . S
C1912 C1914 1.478 . S
C1913 H1907 0.930 . S
C1913 C1909 1.400 . S
C1913 C1912 1.385 . S
C1914 C1912 1.478 . S
C1914 C1916 1.381 . S
C1914 C1920 1.383 . S
C1915 C1911 1.495 . S
C1915 H1921 0.959 . S
C1915 H1922 0.961 . S
C1915 H1923 0.960 . S
C1916 C1914 1.381 . S
C1916 C1917 1.394 . S
C1916 H1924 0.930 . S
C1917 C1916 1.394 . S
C1917 C1918 1.383 . S
C1917 H1925 0.929 . S
C1918 C1917 1.383 . S
C1918 C1919 1.377 . S
C1919 H1903 0.930 . S
C1919 C1918 1.377 . S
C1919 C1920 1.379 . S
C1920 H1904 0.931 . S
C1920 C1914 1.383 . S
C1920 C1919 1.379 . S
H1921 C1915 0.959 . S
H1922 C1915 0.961 . S
H1923 C1915 0.960 . S
H1924 C1916 0.930 . S
H1925 C1917 0.929 . S
H1926 C1934 0.929 . S
H1927 C1936 0.930 . S
H1928 C1938 0.930 . S
H1929 C1941 0.929 . S
H1930 C1944 0.930 . S
H1931 C1946 0.960 . S
H1932 C1946 0.960 . S
H1933 C1946 0.960 . S
C1934 H1926 0.929 . S
C1934 C1935 1.377 . S
C1934 C1936 1.384 . S
C1935 C1934 1.377 . S
C1935 C1941 1.390 . S
C1936 H1927 0.930 . S
C1936 C1934 1.384 . S
C1936 C1937 1.372 . S
C1937 C1936 1.372 . S
C1937 C1938 1.400 . S
C1937 C1942 1.490 . S
C1938 H1928 0.930 . S
C1938 C1937 1.400 . S
C1938 C1941 1.386 . S
H1939 C1955 0.930 . S
H1940 C1956 0.931 . S
C1941 H1929 0.929 . S
C1941 C1935 1.390 . S
C1941 C1938 1.386 . S
C1942 C1937 1.490 . S
C1942 C1944 1.395 . S
C1942 C1945 1.403 . S
H1943 C1949 0.930 . S
C1944 H1930 0.930 . S
C1944 C1942 1.395 . S
C1944 C1947 1.403 . S
C1945 C1942 1.403 . S
C1945 C1946 1.524 . S
C1945 C1949 1.400 . S
C1946 H1931 0.960 . S
C1946 H1932 0.960 . S
C1946 H1933 0.960 . S
C1946 C1945 1.524 . S
C1947 C1944 1.403 . S
C1947 C1948 1.392 . S
C1947 C1951 1.495 . S
C1948 C1947 1.392 . S
C1948 C1949 1.385 . S
C1948 C1950 1.478 . S
C1949 H1943 0.930 . S
C1949 C1945 1.400 . S
C1949 C1948 1.385 . S
C1950 C1948 1.478 . S
C1950 C1952 1.381 . S
C1950 C1956 1.383 . S
C1951 C1947 1.495 . S
C1951 H1957 0.959 . S
C1951 H1958 0.961 . S
C1951 H1959 0.960 . S
C1952 C1950 1.381 . S
C1952 C1953 1.394 . S
C1952 H1960 0.930 . S
C1953 C1952 1.394 . S
C1953 C1954 1.383 . S
C1953 H1961 0.929 . S
C1954 C1953 1.383 . S
C1954 C1955 1.377 . S
C1955 H1939 0.930 . S
C1955 C1954 1.377 . S
C1955 C1956 1.379 . S
C1956 H1940 0.931 . S
C1956 C1950 1.383 . S
C1956 C1955 1.379 . S
H1957 C1951 0.959 . S
H1958 C1951 0.961 . S
H1959 C1951 0.960 . S
H1960 C1952 0.930 . S
H1961 C1953 0.929 . S
H1962 C1970 0.929 . S
H1963 C1972 0.930 . S
H1964 C1974 0.930 . S
H1965 C1977 0.929 . S
H1966 C1980 0.930 . S
H1967 C1982 0.960 . S
H1968 C1982 0.960 . S
H1969 C1982 0.960 . S
C1970 H1962 0.929 . S
C1970 C1971 1.377 . S
C1970 C1972 1.384 . S
C1971 C1970 1.377 . S
C1971 C1977 1.390 . S
C1972 H1963 0.930 . S
C1972 C1970 1.384 . S
C1972 C1973 1.372 . S
C1973 C1972 1.372 . S
C1973 C1974 1.400 . S
C1973 C1978 1.490 . S
C1974 H1964 0.930 . S
C1974 C1973 1.400 . S
C1974 C1977 1.386 . S
H1975 C1991 0.930 . S
H1976 C1992 0.931 . S
C1977 H1965 0.929 . S
C1977 C1971 1.390 . S
C1977 C1974 1.386 . S
C1978 C1973 1.490 . S
C1978 C1980 1.395 . S
C1978 C1981 1.403 . S
H1979 C1985 0.930 . S
C1980 H1966 0.930 . S
C1980 C1978 1.395 . S
C1980 C1983 1.403 . S
C1981 C1978 1.403 . S
C1981 C1982 1.524 . S
C1981 C1985 1.400 . S
C1982 H1967 0.960 . S
C1982 H1968 0.960 . S
C1982 H1969 0.960 . S
C1982 C1981 1.524 . S
C1983 C1980 1.403 . S
C1983 C1984 1.392 . S
C1983 C1987 1.495 . S
C1984 C1983 1.392 . S
C1984 C1985 1.385 . S
C1984 C1986 1.478 . S
C1985 H1979 0.930 . S
C1985 C1981 1.400 . S
C1985 C1984 1.385 . S
C1986 C1984 1.478 . S
C1986 C1988 1.381 . S
C1986 C1992 1.383 . S
C1987 C1983 1.495 . S
C1987 H1993 0.959 . S
C1987 H1994 0.961 . S
C1987 H1995 0.960 . S
C1988 C1986 1.381 . S
C1988 C1989 1.394 . S
C1988 H1996 0.930 . S
C1989 C1988 1.394 . S
C1989 C1990 1.383 . S
C1989 H1997 0.929 . S
C1990 C1989 1.383 . S
C1990 C1991 1.377 . S
C1991 H1975 0.930 . S
C1991 C1990 1.377 . S
C1991 C1992 1.379 . S
C1992 H1976 0.931 . S
C1992 C1986 1.383 . S
C1992 C1991 1.379 . S
H1993 C1987 0.959 . S
H1994 C1987 0.961 . S
H1995 C1987 0.960 . S
H1996 C1988 0.930 . S
H1997 C1989 0.929 . S
H1998 C2006 0.929 . S
H1999 C2008 0.930 . S
H2000 C2010 0.930 . S
H2001 C2013 0.929 . S
H2002 C2016 0.930 . S
H2003 C2018 0.960 . S
H2004 C2018 0.960 . S
H2005 C2018 0.960 . S
C2006 H1998 0.929 . S
C2006 C2007 1.377 . S
C2006 C2008 1.384 . S
C2007 C2006 1.377 . S
C2007 C2013 1.390 . S
C2008 H1999 0.930 . S
C2008 C2006 1.384 . S
C2008 C2009 1.372 . S
C2009 C2008 1.372 . S
C2009 C2010 1.400 . S
C2009 C2014 1.490 . S
C2010 H2000 0.930 . S
C2010 C2009 1.400 . S
C2010 C2013 1.386 . S
H2011 C2027 0.930 . S
H2012 C2028 0.931 . S
C2013 H2001 0.929 . S
C2013 C2007 1.390 . S
C2013 C2010 1.386 . S
C2014 C2009 1.490 . S
C2014 C2016 1.395 . S
C2014 C2017 1.403 . S
H2015 C2021 0.930 . S
C2016 H2002 0.930 . S
C2016 C2014 1.395 . S
C2016 C2019 1.403 . S
C2017 C2014 1.403 . S
C2017 C2018 1.524 . S
C2017 C2021 1.400 . S
C2018 H2003 0.960 . S
C2018 H2004 0.960 . S
C2018 H2005 0.960 . S
C2018 C2017 1.524 . S
C2019 C2016 1.403 . S
C2019 C2020 1.392 . S
C2019 C2023 1.495 . S
C2020 C2019 1.392 . S
C2020 C2021 1.385 . S
C2020 C2022 1.478 . S
C2021 H2015 0.930 . S
C2021 C2017 1.400 . S
C2021 C2020 1.385 . S
C2022 C2020 1.478 . S
C2022 C2024 1.381 . S
C2022 C2028 1.383 . S
C2023 C2019 1.495 . S
C2023 H2029 0.959 . S
C2023 H2030 0.961 . S
C2023 H2031 0.960 . S
C2024 C2022 1.381 . S
C2024 C2025 1.394 . S
C2024 H2032 0.930 . S
C2025 C2024 1.394 . S
C2025 C2026 1.383 . S
C2025 H2033 0.929 . S
C2026 C2025 1.383 . S
C2026 C2027 1.377 . S
C2027 H2011 0.930 . S
C2027 C2026 1.377 . S
C2027 C2028 1.379 . S
C2028 H2012 0.931 . S
C2028 C2022 1.383 . S
C2028 C2027 1.379 . S
H2029 C2023 0.959 . S
H2030 C2023 0.961 . S
H2031 C2023 0.960 . S
H2032 C2024 0.930 . S
H2033 C2025 0.929 . S
H2034 C2042 0.929 . S
H2035 C2044 0.930 . S
H2036 C2046 0.930 . S
H2037 C2049 0.929 . S
H2038 C2052 0.930 . S
H2039 C2054 0.960 . S
H2040 C2054 0.960 . S
H2041 C2054 0.960 . S
C2042 H2034 0.929 . S
C2042 C2043 1.377 . S
C2042 C2044 1.384 . S
C2043 C2042 1.377 . S
C2043 C2049 1.390 . S
C2044 H2035 0.930 . S
C2044 C2042 1.384 . S
C2044 C2045 1.372 . S
C2045 C2044 1.372 . S
C2045 C2046 1.400 . S
C2045 C2050 1.490 . S
C2046 H2036 0.930 . S
C2046 C2045 1.400 . S
C2046 C2049 1.386 . S
H2047 C2063 0.930 . S
H2048 C2064 0.931 . S
C2049 H2037 0.929 . S
C2049 C2043 1.390 . S
C2049 C2046 1.386 . S
C2050 C2045 1.490 . S
C2050 C2052 1.395 . S
C2050 C2053 1.403 . S
H2051 C2057 0.930 . S
C2052 H2038 0.930 . S
C2052 C2050 1.395 . S
C2052 C2055 1.403 . S
C2053 C2050 1.403 . S
C2053 C2054 1.524 . S
C2053 C2057 1.400 . S
C2054 H2039 0.960 . S
C2054 H2040 0.960 . S
C2054 H2041 0.960 . S
C2054 C2053 1.524 . S
C2055 C2052 1.403 . S
C2055 C2056 1.392 . S
C2055 C2059 1.495 . S
C2056 C2055 1.392 . S
C2056 C2057 1.385 . S
C2056 C2058 1.478 . S
C2057 H2051 0.930 . S
C2057 C2053 1.400 . S
C2057 C2056 1.385 . S
C2058 C2056 1.478 . S
C2058 C2060 1.381 . S
C2058 C2064 1.383 . S
C2059 C2055 1.495 . S
C2059 H2065 0.959 . S
C2059 H2066 0.961 . S
C2059 H2067 0.960 . S
C2060 C2058 1.381 . S
C2060 C2061 1.394 . S
C2060 H2068 0.930 . S
C2061 C2060 1.394 . S
C2061 C2062 1.383 . S
C2061 H2069 0.929 . S
C2062 C2061 1.383 . S
C2062 C2063 1.377 . S
C2063 H2047 0.930 . S
C2063 C2062 1.377 . S
C2063 C2064 1.379 . S
C2064 H2048 0.931 . S
C2064 C2058 1.383 . S
C2064 C2063 1.379 . S
H2065 C2059 0.959 . S
H2066 C2059 0.961 . S
H2067 C2059 0.960 . S
H2068 C2060 0.930 . S
H2069 C2061 0.929 . S
H2070 C2078 0.929 . S
H2071 C2080 0.930 . S
H2072 C2082 0.930 . S
H2073 C2085 0.929 . S
H2074 C2088 0.930 . S
H2075 C2090 0.960 . S
H2076 C2090 0.960 . S
H2077 C2090 0.960 . S
C2078 H2070 0.929 . S
C2078 C2079 1.377 . S
C2078 C2080 1.384 . S
C2079 C2078 1.377 . S
C2079 C2085 1.390 . S
C2080 H2071 0.930 . S
C2080 C2078 1.384 . S
C2080 C2081 1.372 . S
C2081 C2080 1.372 . S
C2081 C2082 1.400 . S
C2081 C2086 1.490 . S
C2082 H2072 0.930 . S
C2082 C2081 1.400 . S
C2082 C2085 1.386 . S
H2083 C2099 0.930 . S
H2084 C2100 0.931 . S
C2085 H2073 0.929 . S
C2085 C2079 1.390 . S
C2085 C2082 1.386 . S
C2086 C2081 1.490 . S
C2086 C2088 1.395 . S
C2086 C2089 1.403 . S
H2087 C2093 0.930 . S
C2088 H2074 0.930 . S
C2088 C2086 1.395 . S
C2088 C2091 1.403 . S
C2089 C2086 1.403 . S
C2089 C2090 1.524 . S
C2089 C2093 1.400 . S
C2090 H2075 0.960 . S
C2090 H2076 0.960 . S
C2090 H2077 0.960 . S
C2090 C2089 1.524 . S
C2091 C2088 1.403 . S
C2091 C2092 1.392 . S
C2091 C2095 1.495 . S
C2092 C2091 1.392 . S
C2092 C2093 1.385 . S
C2092 C2094 1.478 . S
C2093 H2087 0.930 . S
C2093 C2089 1.400 . S
C2093 C2092 1.385 . S
C2094 C2092 1.478 . S
C2094 C2096 1.381 . S
C2094 C2100 1.383 . S
C2095 C2091 1.495 . S
C2095 H2101 0.959 . S
C2095 H2102 0.961 . S
C2095 H2103 0.960 . S
C2096 C2094 1.381 . S
C2096 C2097 1.394 . S
C2096 H2104 0.930 . S
C2097 C2096 1.394 . S
C2097 C2098 1.383 . S
C2097 H2105 0.929 . S
C2098 C2097 1.383 . S
C2098 C2099 1.377 . S
C2099 H2083 0.930 . S
C2099 C2098 1.377 . S
C2099 C2100 1.379 . S
C2100 H2084 0.931 . S
C2100 C2094 1.383 . S
C2100 C2099 1.379 . S
H2101 C2095 0.959 . S
H2102 C2095 0.961 . S
H2103 C2095 0.960 . S
H2104 C2096 0.930 . S
H2105 C2097 0.929 . S
H2106 C2114 0.929 . S
H2107 C2116 0.930 . S
H2108 C2118 0.930 . S
H2109 C2121 0.929 . S
H2110 C2124 0.930 . S
H2111 C2126 0.960 . S
H2112 C2126 0.960 . S
H2113 C2126 0.960 . S
C2114 H2106 0.929 . S
C2114 C2115 1.377 . S
C2114 C2116 1.384 . S
C2115 C2114 1.377 . S
C2115 C2121 1.390 . S
C2116 H2107 0.930 . S
C2116 C2114 1.384 . S
C2116 C2117 1.372 . S
C2117 C2116 1.372 . S
C2117 C2118 1.400 . S
C2117 C2122 1.490 . S
C2118 H2108 0.930 . S
C2118 C2117 1.400 . S
C2118 C2121 1.386 . S
H2119 C2135 0.930 . S
H2120 C2136 0.931 . S
C2121 H2109 0.929 . S
C2121 C2115 1.390 . S
C2121 C2118 1.386 . S
C2122 C2117 1.490 . S
C2122 C2124 1.395 . S
C2122 C2125 1.403 . S
H2123 C2129 0.930 . S
C2124 H2110 0.930 . S
C2124 C2122 1.395 . S
C2124 C2127 1.403 . S
C2125 C2122 1.403 . S
C2125 C2126 1.524 . S
C2125 C2129 1.400 . S
C2126 H2111 0.960 . S
C2126 H2112 0.960 . S
C2126 H2113 0.960 . S
C2126 C2125 1.524 . S
C2127 C2124 1.403 . S
C2127 C2128 1.392 . S
C2127 C2131 1.495 . S
C2128 C2127 1.392 . S
C2128 C2129 1.385 . S
C2128 C2130 1.478 . S
C2129 H2123 0.930 . S
C2129 C2125 1.400 . S
C2129 C2128 1.385 . S
C2130 C2128 1.478 . S
C2130 C2132 1.381 . S
C2130 C2136 1.383 . S
C2131 C2127 1.495 . S
C2131 H2137 0.959 . S
C2131 H2138 0.961 . S
C2131 H2139 0.960 . S
C2132 C2130 1.381 . S
C2132 C2133 1.394 . S
C2132 H2140 0.930 . S
C2133 C2132 1.394 . S
C2133 C2134 1.383 . S
C2133 H2141 0.929 . S
C2134 C2133 1.383 . S
C2134 C2135 1.377 . S
C2135 H2119 0.930 . S
C2135 C2134 1.377 . S
C2135 C2136 1.379 . S
C2136 H2120 0.931 . S
C2136 C2130 1.383 . S
C2136 C2135 1.379 . S
H2137 C2131 0.959 . S
H2138 C2131 0.961 . S
H2139 C2131 0.960 . S
H2140 C2132 0.930 . S
H2141 C2133 0.929 . S
H2142 C2150 0.929 . S
H2143 C2152 0.930 . S
H2144 C2154 0.930 . S
H2145 C2157 0.929 . S
H2146 C2160 0.930 . S
H2147 C2162 0.960 . S
H2148 C2162 0.960 . S
H2149 C2162 0.960 . S
C2150 H2142 0.929 . S
C2150 C2151 1.377 . S
C2150 C2152 1.384 . S
C2151 C2150 1.377 . S
C2151 C2157 1.390 . S
C2152 H2143 0.930 . S
C2152 C2150 1.384 . S
C2152 C2153 1.372 . S
C2153 C2152 1.372 . S
C2153 C2154 1.400 . S
C2153 C2158 1.490 . S
C2154 H2144 0.930 . S
C2154 C2153 1.400 . S
C2154 C2157 1.386 . S
H2155 C2171 0.930 . S
H2156 C2172 0.931 . S
C2157 H2145 0.929 . S
C2157 C2151 1.390 . S
C2157 C2154 1.386 . S
C2158 C2153 1.490 . S
C2158 C2160 1.395 . S
C2158 C2161 1.403 . S
H2159 C2165 0.930 . S
C2160 H2146 0.930 . S
C2160 C2158 1.395 . S
C2160 C2163 1.403 . S
C2161 C2158 1.403 . S
C2161 C2162 1.524 . S
C2161 C2165 1.400 . S
C2162 H2147 0.960 . S
C2162 H2148 0.960 . S
C2162 H2149 0.960 . S
C2162 C2161 1.524 . S
C2163 C2160 1.403 . S
C2163 C2164 1.392 . S
C2163 C2167 1.495 . S
C2164 C2163 1.392 . S
C2164 C2165 1.385 . S
C2164 C2166 1.478 . S
C2165 H2159 0.930 . S
C2165 C2161 1.400 . S
C2165 C2164 1.385 . S
C2166 C2164 1.478 . S
C2166 C2168 1.381 . S
C2166 C2172 1.383 . S
C2167 C2163 1.495 . S
C2167 H2173 0.959 . S
C2167 H2174 0.961 . S
C2167 H2175 0.960 . S
C2168 C2166 1.381 . S
C2168 C2169 1.394 . S
C2168 H2176 0.930 . S
C2169 C2168 1.394 . S
C2169 C2170 1.383 . S
C2169 H2177 0.929 . S
C2170 C2169 1.383 . S
C2170 C2171 1.377 . S
C2171 H2155 0.930 . S
C2171 C2170 1.377 . S
C2171 C2172 1.379 . S
C2172 H2156 0.931 . S
C2172 C2166 1.383 . S
C2172 C2171 1.379 . S
H2173 C2167 0.959 . S
H2174 C2167 0.961 . S
H2175 C2167 0.960 . S
H2176 C2168 0.930 . S
H2177 C2169 0.929 . S
H2178 C2186 0.929 . S
H2179 C2188 0.930 . S
H2180 C2190 0.930 . S
H2181 C2193 0.929 . S
H2182 C2196 0.930 . S
H2183 C2198 0.960 . S
H2184 C2198 0.960 . S
H2185 C2198 0.960 . S
C2186 H2178 0.929 . S
C2186 C2187 1.377 . S
C2186 C2188 1.384 . S
C2187 C2186 1.377 . S
C2187 C2193 1.390 . S
C2188 H2179 0.930 . S
C2188 C2186 1.384 . S
C2188 C2189 1.372 . S
C2189 C2188 1.372 . S
C2189 C2190 1.400 . S
C2189 C2194 1.490 . S
C2190 H2180 0.930 . S
C2190 C2189 1.400 . S
C2190 C2193 1.386 . S
H2191 C2207 0.930 . S
H2192 C2208 0.931 . S
C2193 H2181 0.929 . S
C2193 C2187 1.390 . S
C2193 C2190 1.386 . S
C2194 C2189 1.490 . S
C2194 C2196 1.395 . S
C2194 C2197 1.403 . S
H2195 C2201 0.930 . S
C2196 H2182 0.930 . S
C2196 C2194 1.395 . S
C2196 C2199 1.403 . S
C2197 C2194 1.403 . S
C2197 C2198 1.524 . S
C2197 C2201 1.400 . S
C2198 H2183 0.960 . S
C2198 H2184 0.960 . S
C2198 H2185 0.960 . S
C2198 C2197 1.524 . S
C2199 C2196 1.403 . S
C2199 C2200 1.392 . S
C2199 C2203 1.495 . S
C2200 C2199 1.392 . S
C2200 C2201 1.385 . S
C2200 C2202 1.478 . S
C2201 H2195 0.930 . S
C2201 C2197 1.400 . S
C2201 C2200 1.385 . S
C2202 C2200 1.478 . S
C2202 C2204 1.381 . S
C2202 C2208 1.383 . S
C2203 C2199 1.495 . S
C2203 H2209 0.959 . S
C2203 H2210 0.961 . S
C2203 H2211 0.960 . S
C2204 C2202 1.381 . S
C2204 C2205 1.394 . S
C2204 H2212 0.930 . S
C2205 C2204 1.394 . S
C2205 C2206 1.383 . S
C2205 H2213 0.929 . S
C2206 C2205 1.383 . S
C2206 C2207 1.377 . S
C2207 H2191 0.930 . S
C2207 C2206 1.377 . S
C2207 C2208 1.379 . S
C2208 H2192 0.931 . S
C2208 C2202 1.383 . S
C2208 C2207 1.379 . S
H2209 C2203 0.959 . S
H2210 C2203 0.961 . S
H2211 C2203 0.960 . S
H2212 C2204 0.930 . S
H2213 C2205 0.929 . S
H2214 C2222 0.929 . S
H2215 C2224 0.930 . S
H2216 C2226 0.930 . S
H2217 C2229 0.929 . S
H2218 C2232 0.930 . S
H2219 C2234 0.960 . S
H2220 C2234 0.960 . S
H2221 C2234 0.960 . S
C2222 H2214 0.929 . S
C2222 C2223 1.377 . S
C2222 C2224 1.384 . S
C2223 C2222 1.377 . S
C2223 C2229 1.390 . S
C2224 H2215 0.930 . S
C2224 C2222 1.384 . S
C2224 C2225 1.372 . S
C2225 C2224 1.372 . S
C2225 C2226 1.400 . S
C2225 C2230 1.490 . S
C2226 H2216 0.930 . S
C2226 C2225 1.400 . S
C2226 C2229 1.386 . S
H2227 C2243 0.930 . S
H2228 C2244 0.931 . S
C2229 H2217 0.929 . S
C2229 C2223 1.390 . S
C2229 C2226 1.386 . S
C2230 C2225 1.490 . S
C2230 C2232 1.395 . S
C2230 C2233 1.403 . S
H2231 C2237 0.930 . S
C2232 H2218 0.930 . S
C2232 C2230 1.395 . S
C2232 C2235 1.403 . S
C2233 C2230 1.403 . S
C2233 C2234 1.524 . S
C2233 C2237 1.400 . S
C2234 H2219 0.960 . S
C2234 H2220 0.960 . S
C2234 H2221 0.960 . S
C2234 C2233 1.524 . S
C2235 C2232 1.403 . S
C2235 C2236 1.392 . S
C2235 C2239 1.495 . S
C2236 C2235 1.392 . S
C2236 C2237 1.385 . S
C2236 C2238 1.478 . S
C2237 H2231 0.930 . S
C2237 C2233 1.400 . S
C2237 C2236 1.385 . S
C2238 C2236 1.478 . S
C2238 C2240 1.381 . S
C2238 C2244 1.383 . S
C2239 C2235 1.495 . S
C2239 H2245 0.959 . S
C2239 H2246 0.961 . S
C2239 H2247 0.960 . S
C2240 C2238 1.381 . S
C2240 C2241 1.394 . S
C2240 H2248 0.930 . S
C2241 C2240 1.394 . S
C2241 C2242 1.383 . S
C2241 H2249 0.929 . S
C2242 C2241 1.383 . S
C2242 C2243 1.377 . S
C2243 H2227 0.930 . S
C2243 C2242 1.377 . S
C2243 C2244 1.379 . S
C2244 H2228 0.931 . S
C2244 C2238 1.383 . S
C2244 C2243 1.379 . S
H2245 C2239 0.959 . S
H2246 C2239 0.961 . S
H2247 C2239 0.960 . S
H2248 C2240 0.930 . S
H2249 C2241 0.929 . S
H2250 C2258 0.929 . S
H2251 C2260 0.930 . S
H2252 C2262 0.930 . S
H2253 C2265 0.929 . S
H2254 C2268 0.930 . S
H2255 C2270 0.960 . S
H2256 C2270 0.960 . S
H2257 C2270 0.960 . S
C2258 H2250 0.929 . S
C2258 C2259 1.377 . S
C2258 C2260 1.384 . S
C2259 C2258 1.377 . S
C2259 C2265 1.390 . S
C2260 H2251 0.930 . S
C2260 C2258 1.384 . S
C2260 C2261 1.372 . S
C2261 C2260 1.372 . S
C2261 C2262 1.400 . S
C2261 C2266 1.490 . S
C2262 H2252 0.930 . S
C2262 C2261 1.400 . S
C2262 C2265 1.386 . S
H2263 C2279 0.930 . S
H2264 C2280 0.931 . S
C2265 H2253 0.929 . S
C2265 C2259 1.390 . S
C2265 C2262 1.386 . S
C2266 C2261 1.490 . S
C2266 C2268 1.395 . S
C2266 C2269 1.403 . S
H2267 C2273 0.930 . S
C2268 H2254 0.930 . S
C2268 C2266 1.395 . S
C2268 C2271 1.403 . S
C2269 C2266 1.403 . S
C2269 C2270 1.524 . S
C2269 C2273 1.400 . S
C2270 H2255 0.960 . S
C2270 H2256 0.960 . S
C2270 H2257 0.960 . S
C2270 C2269 1.524 . S
C2271 C2268 1.403 . S
C2271 C2272 1.392 . S
C2271 C2275 1.495 . S
C2272 C2271 1.392 . S
C2272 C2273 1.385 . S
C2272 C2274 1.478 . S
C2273 H2267 0.930 . S
C2273 C2269 1.400 . S
C2273 C2272 1.385 . S
C2274 C2272 1.478 . S
C2274 C2276 1.381 . S
C2274 C2280 1.383 . S
C2275 C2271 1.495 . S
C2275 H2281 0.959 . S
C2275 H2282 0.961 . S
C2275 H2283 0.960 . S
C2276 C2274 1.381 . S
C2276 C2277 1.394 . S
C2276 H2284 0.930 . S
C2277 C2276 1.394 . S
C2277 C2278 1.383 . S
C2277 H2285 0.929 . S
C2278 C2277 1.383 . S
C2278 C2279 1.377 . S
C2279 H2263 0.930 . S
C2279 C2278 1.377 . S
C2279 C2280 1.379 . S
C2280 H2264 0.931 . S
C2280 C2274 1.383 . S
C2280 C2279 1.379 . S
H2281 C2275 0.959 . S
H2282 C2275 0.961 . S
H2283 C2275 0.960 . S
H2284 C2276 0.930 . S
H2285 C2277 0.929 . S
H2286 C2294 0.929 . S
H2287 C2296 0.930 . S
H2288 C2298 0.930 . S
H2289 C2301 0.929 . S
H2290 C2304 0.930 . S
H2291 C2306 0.960 . S
H2292 C2306 0.960 . S
H2293 C2306 0.960 . S
C2294 H2286 0.929 . S
C2294 C2295 1.377 . S
C2294 C2296 1.384 . S
C2295 C2294 1.377 . S
C2295 C2301 1.390 . S
C2296 H2287 0.930 . S
C2296 C2294 1.384 . S
C2296 C2297 1.372 . S
C2297 C2296 1.372 . S
C2297 C2298 1.400 . S
C2297 C2302 1.490 . S
C2298 H2288 0.930 . S
C2298 C2297 1.400 . S
C2298 C2301 1.386 . S
H2299 C2315 0.930 . S
H2300 C2316 0.931 . S
C2301 H2289 0.929 . S
C2301 C2295 1.390 . S
C2301 C2298 1.386 . S
C2302 C2297 1.490 . S
C2302 C2304 1.395 . S
C2302 C2305 1.403 . S
H2303 C2309 0.930 . S
C2304 H2290 0.930 . S
C2304 C2302 1.395 . S
C2304 C2307 1.403 . S
C2305 C2302 1.403 . S
C2305 C2306 1.524 . S
C2305 C2309 1.400 . S
C2306 H2291 0.960 . S
C2306 H2292 0.960 . S
C2306 H2293 0.960 . S
C2306 C2305 1.524 . S
C2307 C2304 1.403 . S
C2307 C2308 1.392 . S
C2307 C2311 1.495 . S
C2308 C2307 1.392 . S
C2308 C2309 1.385 . S
C2308 C2310 1.478 . S
C2309 H2303 0.930 . S
C2309 C2305 1.400 . S
C2309 C2308 1.385 . S
C2310 C2308 1.478 . S
C2310 C2312 1.381 . S
C2310 C2316 1.383 . S
C2311 C2307 1.495 . S
C2311 H2317 0.959 . S
C2311 H2318 0.961 . S
C2311 H2319 0.960 . S
C2312 C2310 1.381 . S
C2312 C2313 1.394 . S
C2312 H2320 0.930 . S
C2313 C2312 1.394 . S
C2313 C2314 1.383 . S
C2313 H2321 0.929 . S
C2314 C2313 1.383 . S
C2314 C2315 1.377 . S
C2315 H2299 0.930 . S
C2315 C2314 1.377 . S
C2315 C2316 1.379 . S
C2316 H2300 0.931 . S
C2316 C2310 1.383 . S
C2316 C2315 1.379 . S
H2317 C2311 0.959 . S
H2318 C2311 0.961 . S
H2319 C2311 0.960 . S
H2320 C2312 0.930 . S
H2321 C2313 0.929 . S
H2322 C2330 0.929 . S
H2323 C2332 0.930 . S
H2324 C2334 0.930 . S
H2325 C2337 0.929 . S
H2326 C2340 0.930 . S
H2327 C2342 0.960 . S
H2328 C2342 0.960 . S
H2329 C2342 0.960 . S
C2330 H2322 0.929 . S
C2330 C2331 1.377 . S
C2330 C2332 1.384 . S
C2331 C2330 1.377 . S
C2331 C2337 1.390 . S
C2332 H2323 0.930 . S
C2332 C2330 1.384 . S
C2332 C2333 1.372 . S
C2333 C2332 1.372 . S
C2333 C2334 1.400 . S
C2333 C2338 1.490 . S
C2334 H2324 0.930 . S
C2334 C2333 1.400 . S
C2334 C2337 1.386 . S
H2335 C2351 0.930 . S
H2336 C2352 0.931 . S
C2337 H2325 0.929 . S
C2337 C2331 1.390 . S
C2337 C2334 1.386 . S
C2338 C2333 1.490 . S
C2338 C2340 1.395 . S
C2338 C2341 1.403 . S
H2339 C2345 0.930 . S
C2340 H2326 0.930 . S
C2340 C2338 1.395 . S
C2340 C2343 1.403 . S
C2341 C2338 1.403 . S
C2341 C2342 1.524 . S
C2341 C2345 1.400 . S
C2342 H2327 0.960 . S
C2342 H2328 0.960 . S
C2342 H2329 0.960 . S
C2342 C2341 1.524 . S
C2343 C2340 1.403 . S
C2343 C2344 1.392 . S
C2343 C2347 1.495 . S
C2344 C2343 1.392 . S
C2344 C2345 1.385 . S
C2344 C2346 1.478 . S
C2345 H2339 0.930 . S
C2345 C2341 1.400 . S
C2345 C2344 1.385 . S
C2346 C2344 1.478 . S
C2346 C2348 1.381 . S
C2346 C2352 1.383 . S
C2347 C2343 1.495 . S
C2347 H2353 0.959 . S
C2347 H2354 0.961 . S
C2347 H2355 0.960 . S
C2348 C2346 1.381 . S
C2348 C2349 1.394 . S
C2348 H2356 0.930 . S
C2349 C2348 1.394 . S
C2349 C2350 1.383 . S
C2349 H2357 0.929 . S
C2350 C2349 1.383 . S
C2350 C2351 1.377 . S
C2351 H2335 0.930 . S
C2351 C2350 1.377 . S
C2351 C2352 1.379 . S
C2352 H2336 0.931 . S
C2352 C2346 1.383 . S
C2352 C2351 1.379 . S
H2353 C2347 0.959 . S
H2354 C2347 0.961 . S
H2355 C2347 0.960 . S
H2356 C2348 0.930 . S
H2357 C2349 0.929 . S
H2358 C2366 0.929 . S
H2359 C2368 0.930 . S
H2360 C2370 0.930 . S
H2361 C2373 0.929 . S
H2362 C2376 0.930 . S
H2363 C2378 0.960 . S
H2364 C2378 0.960 . S
H2365 C2378 0.960 . S
C2366 H2358 0.929 . S
C2366 C2367 1.377 . S
C2366 C2368 1.384 . S
C2367 C2366 1.377 . S
C2367 C2373 1.390 . S
C2368 H2359 0.930 . S
C2368 C2366 1.384 . S
C2368 C2369 1.372 . S
C2369 C2368 1.372 . S
C2369 C2370 1.400 . S
C2369 C2374 1.490 . S
C2370 H2360 0.930 . S
C2370 C2369 1.400 . S
C2370 C2373 1.386 . S
H2371 C2387 0.930 . S
H2372 C2388 0.931 . S
C2373 H2361 0.929 . S
C2373 C2367 1.390 . S
C2373 C2370 1.386 . S
C2374 C2369 1.490 . S
C2374 C2376 1.395 . S
C2374 C2377 1.403 . S
H2375 C2381 0.930 . S
C2376 H2362 0.930 . S
C2376 C2374 1.395 . S
C2376 C2379 1.403 . S
C2377 C2374 1.403 . S
C2377 C2378 1.524 . S
C2377 C2381 1.400 . S
C2378 H2363 0.960 . S
C2378 H2364 0.960 . S
C2378 H2365 0.960 . S
C2378 C2377 1.524 . S
C2379 C2376 1.403 . S
C2379 C2380 1.392 . S
C2379 C2383 1.495 . S
C2380 C2379 1.392 . S
C2380 C2381 1.385 . S
C2380 C2382 1.478 . S
C2381 H2375 0.930 . S
C2381 C2377 1.400 . S
C2381 C2380 1.385 . S
C2382 C2380 1.478 . S
C2382 C2384 1.381 . S
C2382 C2388 1.383 . S
C2383 C2379 1.495 . S
C2383 H2389 0.959 . S
C2383 H2390 0.961 . S
C2383 H2391 0.960 . S
C2384 C2382 1.381 . S
C2384 C2385 1.394 . S
C2384 H2392 0.930 . S
C2385 C2384 1.394 . S
C2385 C2386 1.383 . S
C2385 H2393 0.929 . S
C2386 C2385 1.383 . S
C2386 C2387 1.377 . S
C2387 H2371 0.930 . S
C2387 C2386 1.377 . S
C2387 C2388 1.379 . S
C2388 H2372 0.931 . S
C2388 C2382 1.383 . S
C2388 C2387 1.379 . S
H2389 C2383 0.959 . S
H2390 C2383 0.961 . S
H2391 C2383 0.960 . S
H2392 C2384 0.930 . S
H2393 C2385 0.929 . S
H2394 C2402 0.929 . S
H2395 C2404 0.930 . S
H2396 C2406 0.930 . S
H2397 C2409 0.929 . S
H2398 C2412 0.930 . S
H2399 C2414 0.960 . S
H2400 C2414 0.960 . S
H2401 C2414 0.960 . S
C2402 H2394 0.929 . S
C2402 C2403 1.377 . S
C2402 C2404 1.384 . S
C2403 C2402 1.377 . S
C2403 C2409 1.390 . S
C2404 H2395 0.930 . S
C2404 C2402 1.384 . S
C2404 C2405 1.372 . S
C2405 C2404 1.372 . S
C2405 C2406 1.400 . S
C2405 C2410 1.490 . S
C2406 H2396 0.930 . S
C2406 C2405 1.400 . S
C2406 C2409 1.386 . S
H2407 C2423 0.930 . S
H2408 C2424 0.931 . S
C2409 H2397 0.929 . S
C2409 C2403 1.390 . S
C2409 C2406 1.386 . S
C2410 C2405 1.490 . S
C2410 C2412 1.395 . S
C2410 C2413 1.403 . S
H2411 C2417 0.930 . S
C2412 H2398 0.930 . S
C2412 C2410 1.395 . S
C2412 C2415 1.403 . S
C2413 C2410 1.403 . S
C2413 C2414 1.524 . S
C2413 C2417 1.400 . S
C2414 H2399 0.960 . S
C2414 H2400 0.960 . S
C2414 H2401 0.960 . S
C2414 C2413 1.524 . S
C2415 C2412 1.403 . S
C2415 C2416 1.392 . S
C2415 C2419 1.495 . S
C2416 C2415 1.392 . S
C2416 C2417 1.385 . S
C2416 C2418 1.478 . S
C2417 H2411 0.930 . S
C2417 C2413 1.400 . S
C2417 C2416 1.385 . S
C2418 C2416 1.478 . S
C2418 C2420 1.381 . S
C2418 C2424 1.383 . S
C2419 C2415 1.495 . S
C2419 H2425 0.959 . S
C2419 H2426 0.961 . S
C2419 H2427 0.960 . S
C2420 C2418 1.381 . S
C2420 C2421 1.394 . S
C2420 H2428 0.930 . S
C2421 C2420 1.394 . S
C2421 C2422 1.383 . S
C2421 H2429 0.929 . S
C2422 C2421 1.383 . S
C2422 C2423 1.377 . S
C2423 H2407 0.930 . S
C2423 C2422 1.377 . S
C2423 C2424 1.379 . S
C2424 H2408 0.931 . S
C2424 C2418 1.383 . S
C2424 C2423 1.379 . S
H2425 C2419 0.959 . S
H2426 C2419 0.961 . S
H2427 C2419 0.960 . S
H2428 C2420 0.930 . S
H2429 C2421 0.929 . S
H2430 C2438 0.929 . S
H2431 C2440 0.930 . S
H2432 C2442 0.930 . S
H2433 C2445 0.929 . S
H2434 C2448 0.930 . S
H2435 C2450 0.960 . S
H2436 C2450 0.960 . S
H2437 C2450 0.960 . S
C2438 H2430 0.929 . S
C2438 C2439 1.377 . S
C2438 C2440 1.384 . S
C2439 C2438 1.377 . S
C2439 C2445 1.390 . S
C2440 H2431 0.930 . S
C2440 C2438 1.384 . S
C2440 C2441 1.372 . S
C2441 C2440 1.372 . S
C2441 C2442 1.400 . S
C2441 C2446 1.490 . S
C2442 H2432 0.930 . S
C2442 C2441 1.400 . S
C2442 C2445 1.386 . S
H2443 C2459 0.930 . S
H2444 C2460 0.931 . S
C2445 H2433 0.929 . S
C2445 C2439 1.390 . S
C2445 C2442 1.386 . S
C2446 C2441 1.490 . S
C2446 C2448 1.395 . S
C2446 C2449 1.403 . S
H2447 C2453 0.930 . S
C2448 H2434 0.930 . S
C2448 C2446 1.395 . S
C2448 C2451 1.403 . S
C2449 C2446 1.403 . S
C2449 C2450 1.524 . S
C2449 C2453 1.400 . S
C2450 H2435 0.960 . S
C2450 H2436 0.960 . S
C2450 H2437 0.960 . S
C2450 C2449 1.524 . S
C2451 C2448 1.403 . S
C2451 C2452 1.392 . S
C2451 C2455 1.495 . S
C2452 C2451 1.392 . S
C2452 C2453 1.385 . S
C2452 C2454 1.478 . S
C2453 H2447 0.930 . S
C2453 C2449 1.400 . S
C2453 C2452 1.385 . S
C2454 C2452 1.478 . S
C2454 C2456 1.381 . S
C2454 C2460 1.383 . S
C2455 C2451 1.495 . S
C2455 H2461 0.959 . S
C2455 H2462 0.961 . S
C2455 H2463 0.960 . S
C2456 C2454 1.381 . S
C2456 C2457 1.394 . S
C2456 H2464 0.930 . S
C2457 C2456 1.394 . S
C2457 C2458 1.383 . S
C2457 H2465 0.929 . S
C2458 C2457 1.383 . S
C2458 C2459 1.377 . S
C2459 H2443 0.930 . S
C2459 C2458 1.377 . S
C2459 C2460 1.379 . S
C2460 H2444 0.931 . S
C2460 C2454 1.383 . S
C2460 C2459 1.379 . S
H2461 C2455 0.959 . S
H2462 C2455 0.961 . S
H2463 C2455 0.960 . S
H2464 C2456 0.930 . S
H2465 C2457 0.929 . S
H2466 C2474 0.929 . S
H2467 C2476 0.930 . S
H2468 C2478 0.930 . S
H2469 C2481 0.929 . S
H2470 C2484 0.930 . S
H2471 C2486 0.960 . S
H2472 C2486 0.960 . S
H2473 C2486 0.960 . S
C2474 H2466 0.929 . S
C2474 C2475 1.377 . S
C2474 C2476 1.384 . S
C2475 C2474 1.377 . S
C2475 C2481 1.390 . S
C2476 H2467 0.930 . S
C2476 C2474 1.384 . S
C2476 C2477 1.372 . S
C2477 C2476 1.372 . S
C2477 C2478 1.400 . S
C2477 C2482 1.490 . S
C2478 H2468 0.930 . S
C2478 C2477 1.400 . S
C2478 C2481 1.386 . S
H2479 C2495 0.930 . S
H2480 C2496 0.931 . S
C2481 H2469 0.929 . S
C2481 C2475 1.390 . S
C2481 C2478 1.386 . S
C2482 C2477 1.490 . S
C2482 C2484 1.395 . S
C2482 C2485 1.403 . S
H2483 C2489 0.930 . S
C2484 H2470 0.930 . S
C2484 C2482 1.395 . S
C2484 C2487 1.403 . S
C2485 C2482 1.403 . S
C2485 C2486 1.524 . S
C2485 C2489 1.400 . S
C2486 H2471 0.960 . S
C2486 H2472 0.960 . S
C2486 H2473 0.960 . S
C2486 C2485 1.524 . S
C2487 C2484 1.403 . S
C2487 C2488 1.392 . S
C2487 C2491 1.495 . S
C2488 C2487 1.392 . S
C2488 C2489 1.385 . S
C2488 C2490 1.478 . S
C2489 H2483 0.930 . S
C2489 C2485 1.400 . S
C2489 C2488 1.385 . S
C2490 C2488 1.478 . S
C2490 C2492 1.381 . S
C2490 C2496 1.383 . S
C2491 C2487 1.495 . S
C2491 H2497 0.959 . S
C2491 H2498 0.961 . S
C2491 H2499 0.960 . S
C2492 C2490 1.381 . S
C2492 C2493 1.394 . S
C2492 H2500 0.930 . S
C2493 C2492 1.394 . S
C2493 C2494 1.383 . S
C2493 H2501 0.929 . S
C2494 C2493 1.383 . S
C2494 C2495 1.377 . S
C2495 H2479 0.930 . S
C2495 C2494 1.377 . S
C2495 C2496 1.379 . S
C2496 H2480 0.931 . S
C2496 C2490 1.383 . S
C2496 C2495 1.379 . S
H2497 C2491 0.959 . S
H2498 C2491 0.961 . S
H2499 C2491 0.960 . S
H2500 C2492 0.930 . S
H2501 C2493 0.929 . S
H2502 C2510 0.929 . S
H2503 C2512 0.930 . S
H2504 C2514 0.930 . S
H2505 C2517 0.929 . S
H2506 C2520 0.930 . S
H2507 C2522 0.960 . S
H2508 C2522 0.960 . S
H2509 C2522 0.960 . S
C2510 H2502 0.929 . S
C2510 C2511 1.377 . S
C2510 C2512 1.384 . S
C2511 C2510 1.377 . S
C2511 C2517 1.390 . S
C2512 H2503 0.930 . S
C2512 C2510 1.384 . S
C2512 C2513 1.372 . S
C2513 C2512 1.372 . S
C2513 C2514 1.400 . S
C2513 C2518 1.490 . S
C2514 H2504 0.930 . S
C2514 C2513 1.400 . S
C2514 C2517 1.386 . S
H2515 C2531 0.930 . S
H2516 C2532 0.931 . S
C2517 H2505 0.929 . S
C2517 C2511 1.390 . S
C2517 C2514 1.386 . S
C2518 C2513 1.490 . S
C2518 C2520 1.395 . S
C2518 C2521 1.403 . S
H2519 C2525 0.930 . S
C2520 H2506 0.930 . S
C2520 C2518 1.395 . S
C2520 C2523 1.403 . S
C2521 C2518 1.403 . S
C2521 C2522 1.524 . S
C2521 C2525 1.400 . S
C2522 H2507 0.960 . S
C2522 H2508 0.960 . S
C2522 H2509 0.960 . S
C2522 C2521 1.524 . S
C2523 C2520 1.403 . S
C2523 C2524 1.392 . S
C2523 C2527 1.495 . S
C2524 C2523 1.392 . S
C2524 C2525 1.385 . S
C2524 C2526 1.478 . S
C2525 H2519 0.930 . S
C2525 C2521 1.400 . S
C2525 C2524 1.385 . S
C2526 C2524 1.478 . S
C2526 C2528 1.381 . S
C2526 C2532 1.383 . S
C2527 C2523 1.495 . S
C2527 H2533 0.959 . S
C2527 H2534 0.961 . S
C2527 H2535 0.960 . S
C2528 C2526 1.381 . S
C2528 C2529 1.394 . S
C2528 H2536 0.930 . S
C2529 C2528 1.394 . S
C2529 C2530 1.383 . S
C2529 H2537 0.929 . S
C2530 C2529 1.383 . S
C2530 C2531 1.377 . S
C2531 H2515 0.930 . S
C2531 C2530 1.377 . S
C2531 C2532 1.379 . S
C2532 H2516 0.931 . S
C2532 C2526 1.383 . S
C2532 C2531 1.379 . S
H2533 C2527 0.959 . S
H2534 C2527 0.961 . S
H2535 C2527 0.960 . S
H2536 C2528 0.930 . S
H2537 C2529 0.929 . S
H2538 C2546 0.929 . S
H2539 C2548 0.930 . S
H2540 C2550 0.930 . S
H2541 C2553 0.929 . S
H2542 C2556 0.930 . S
H2543 C2558 0.960 . S
H2544 C2558 0.960 . S
H2545 C2558 0.960 . S
C2546 H2538 0.929 . S
C2546 C2547 1.377 . S
C2546 C2548 1.384 . S
C2547 C2546 1.377 . S
C2547 C2553 1.390 . S
C2548 H2539 0.930 . S
C2548 C2546 1.384 . S
C2548 C2549 1.372 . S
C2549 C2548 1.372 . S
C2549 C2550 1.400 . S
C2549 C2554 1.490 . S
C2550 H2540 0.930 . S
C2550 C2549 1.400 . S
C2550 C2553 1.386 . S
H2551 C2567 0.930 . S
H2552 C2568 0.931 . S
C2553 H2541 0.929 . S
C2553 C2547 1.390 . S
C2553 C2550 1.386 . S
C2554 C2549 1.490 . S
C2554 C2556 1.395 . S
C2554 C2557 1.403 . S
H2555 C2561 0.930 . S
C2556 H2542 0.930 . S
C2556 C2554 1.395 . S
C2556 C2559 1.403 . S
C2557 C2554 1.403 . S
C2557 C2558 1.524 . S
C2557 C2561 1.400 . S
C2558 H2543 0.960 . S
C2558 H2544 0.960 . S
C2558 H2545 0.960 . S
C2558 C2557 1.524 . S
C2559 C2556 1.403 . S
C2559 C2560 1.392 . S
C2559 C2563 1.495 . S
C2560 C2559 1.392 . S
C2560 C2561 1.385 . S
C2560 C2562 1.478 . S
C2561 H2555 0.930 . S
C2561 C2557 1.400 . S
C2561 C2560 1.385 . S
C2562 C2560 1.478 . S
C2562 C2564 1.381 . S
C2562 C2568 1.383 . S
C2563 C2559 1.495 . S
C2563 H2569 0.959 . S
C2563 H2570 0.961 . S
C2563 H2571 0.960 . S
C2564 C2562 1.381 . S
C2564 C2565 1.394 . S
C2564 H2572 0.930 . S
C2565 C2564 1.394 . S
C2565 C2566 1.383 . S
C2565 H2573 0.929 . S
C2566 C2565 1.383 . S
C2566 C2567 1.377 . S
C2567 H2551 0.930 . S
C2567 C2566 1.377 . S
C2567 C2568 1.379 . S
C2568 H2552 0.931 . S
C2568 C2562 1.383 . S
C2568 C2567 1.379 . S
H2569 C2563 0.959 . S
H2570 C2563 0.961 . S
H2571 C2563 0.960 . S
H2572 C2564 0.930 . S
H2573 C2565 0.929 . S
H2574 C2582 0.929 . S
H2575 C2584 0.930 . S
H2576 C2586 0.930 . S
H2577 C2589 0.929 . S
H2578 C2592 0.930 . S
H2579 C2594 0.960 . S
H2580 C2594 0.960 . S
H2581 C2594 0.960 . S
C2582 H2574 0.929 . S
C2582 C2583 1.377 . S
C2582 C2584 1.384 . S
C2583 C2582 1.377 . S
C2583 C2589 1.390 . S
C2584 H2575 0.930 . S
C2584 C2582 1.384 . S
C2584 C2585 1.372 . S
C2585 C2584 1.372 . S
C2585 C2586 1.400 . S
C2585 C2590 1.490 . S
C2586 H2576 0.930 . S
C2586 C2585 1.400 . S
C2586 C2589 1.386 . S
H2587 C2603 0.930 . S
H2588 C2604 0.931 . S
C2589 H2577 0.929 . S
C2589 C2583 1.390 . S
C2589 C2586 1.386 . S
C2590 C2585 1.490 . S
C2590 C2592 1.395 . S
C2590 C2593 1.403 . S
H2591 C2597 0.930 . S
C2592 H2578 0.930 . S
C2592 C2590 1.395 . S
C2592 C2595 1.403 . S
C2593 C2590 1.403 . S
C2593 C2594 1.524 . S
C2593 C2597 1.400 . S
C2594 H2579 0.960 . S
C2594 H2580 0.960 . S
C2594 H2581 0.960 . S
C2594 C2593 1.524 . S
C2595 C2592 1.403 . S
C2595 C2596 1.392 . S
C2595 C2599 1.495 . S
C2596 C2595 1.392 . S
C2596 C2597 1.385 . S
C2596 C2598 1.478 . S
C2597 H2591 0.930 . S
C2597 C2593 1.400 . S
C2597 C2596 1.385 . S
C2598 C2596 1.478 . S
C2598 C2600 1.381 . S
C2598 C2604 1.383 . S
C2599 C2595 1.495 . S
C2599 H2605 0.959 . S
C2599 H2606 0.961 . S
C2599 H2607 0.960 . S
C2600 C2598 1.381 . S
C2600 C2601 1.394 . S
C2600 H2608 0.930 . S
C2601 C2600 1.394 . S
C2601 C2602 1.383 . S
C2601 H2609 0.929 . S
C2602 C2601 1.383 . S
C2602 C2603 1.377 . S
C2603 H2587 0.930 . S
C2603 C2602 1.377 . S
C2603 C2604 1.379 . S
C2604 H2588 0.931 . S
C2604 C2598 1.383 . S
C2604 C2603 1.379 . S
H2605 C2599 0.959 . S
H2606 C2599 0.961 . S
H2607 C2599 0.960 . S
H2608 C2600 0.930 . S
H2609 C2601 0.929 . S
H2610 C2618 0.929 . S
H2611 C2620 0.930 . S
H2612 C2622 0.930 . S
H2613 C2625 0.929 . S
H2614 C2628 0.930 . S
H2615 C2630 0.960 . S
H2616 C2630 0.960 . S
H2617 C2630 0.960 . S
C2618 H2610 0.929 . S
C2618 C2619 1.377 . S
C2618 C2620 1.384 . S
C2619 C2618 1.377 . S
C2619 C2625 1.390 . S
C2620 H2611 0.930 . S
C2620 C2618 1.384 . S
C2620 C2621 1.372 . S
C2621 C2620 1.372 . S
C2621 C2622 1.400 . S
C2621 C2626 1.490 . S
C2622 H2612 0.930 . S
C2622 C2621 1.400 . S
C2622 C2625 1.386 . S
H2623 C2639 0.930 . S
H2624 C2640 0.931 . S
C2625 H2613 0.929 . S
C2625 C2619 1.390 . S
C2625 C2622 1.386 . S
C2626 C2621 1.490 . S
C2626 C2628 1.395 . S
C2626 C2629 1.403 . S
H2627 C2633 0.930 . S
C2628 H2614 0.930 . S
C2628 C2626 1.395 . S
C2628 C2631 1.403 . S
C2629 C2626 1.403 . S
C2629 C2630 1.524 . S
C2629 C2633 1.400 . S
C2630 H2615 0.960 . S
C2630 H2616 0.960 . S
C2630 H2617 0.960 . S
C2630 C2629 1.524 . S
C2631 C2628 1.403 . S
C2631 C2632 1.392 . S
C2631 C2635 1.495 . S
C2632 C2631 1.392 . S
C2632 C2633 1.385 . S
C2632 C2634 1.478 . S
C2633 H2627 0.930 . S
C2633 C2629 1.400 . S
C2633 C2632 1.385 . S
C2634 C2632 1.478 . S
C2634 C2636 1.381 . S
C2634 C2640 1.383 . S
C2635 C2631 1.495 . S
C2635 H2641 0.959 . S
C2635 H2642 0.961 . S
C2635 H2643 0.960 . S
C2636 C2634 1.381 . S
C2636 C2637 1.394 . S
C2636 H2644 0.930 . S
C2637 C2636 1.394 . S
C2637 C2638 1.383 . S
C2637 H2645 0.929 . S
C2638 C2637 1.383 . S
C2638 C2639 1.377 . S
C2639 H2623 0.930 . S
C2639 C2638 1.377 . S
C2639 C2640 1.379 . S
C2640 H2624 0.931 . S
C2640 C2634 1.383 . S
C2640 C2639 1.379 . S
H2641 C2635 0.959 . S
H2642 C2635 0.961 . S
H2643 C2635 0.960 . S
H2644 C2636 0.930 . S
H2645 C2637 0.929 . S
C711 C253 1.757 . S
C730 C354 1.764 . S
C747 C272 1.904 . S
C766 C394 1.902 . S
C783 C234 1.629 . S
C802 C424 1.621 . S
C819 C215 1.469 . S
C838 C384 1.462 1_556 S
C874 C434 1.540 1_556 S
C855 C177 1.550 . S
C891 C196 1.358 . S
C910 C344 1.367 . S
C946 C373 1.726 . S
C927 C220 1.577 . S
C982 C413 1.680 . S
C963 C182 1.586 . S
C999 C201 1.655 . S
C1018 C439 1.749 . S
C1035 C258 1.429 . S
C1054 C399 1.543 . S
C1071 C277 1.311 . S
C1090 C453 1.437 . S
C1126 C359 1.514 . S
C1107 C239 1.377 . S
C1162 C474 1.769 . S
C1143 C25 1.760 . S
C1179 C44 1.904 . S
C1198 C514 1.899 . S
C1215 C6 1.630 . S
C1234 C544 1.622 . S
C1251 C329 1.468 . S
C1270 C504 1.449 . S
C1287 C291 1.551 . S
C1306 C554 1.549 . S
C1323 C310 1.358 . S
C1342 C464 1.364 . S
C1359 C334 1.561 . S
C1378 C493 1.727 . S
C1395 C296 1.577 . S
C1414 C533 1.695 . S
C1450 C559 1.772 . S
C1431 C315 1.652 . S
C1467 C30 1.426 . S
C1486 C519 1.548 . S
C1522 C573 1.441 . S
C1503 C49 1.309 . S
C1539 C11 1.383 . S
C1558 C479 1.501 . S
C1594 C594 1.762 . S
C1575 C139 1.755 . S
C1611 C158 1.903 . S
C1630 C634 1.893 . S
C1666 C664 1.630 . S
C1647 C120 1.631 . S
C1702 C624 1.434 . S
C1683 C101 1.465 . S
C1738 C674 1.545 . S
C1719 C63 1.552 . S
C1755 C82 1.357 . S
C1774 C584 1.364 . S
C1791 C106 1.571 . S
C1810 C613 1.714 . S
C1827 C68 1.585 . S
C1846 C653 1.693 . S
C1882 C679 1.765 . S
C1863 C87 1.649 . S
C1899 C144 1.428 . S
C1918 C639 1.546 . S
C1935 C163 1.311 . S
C1954 C693 1.450 . S
C1971 C125 1.385 . S
C1990 C599 1.516 . S
C2007 C287 1.514 . S
C2026 C371 1.509 . S
C2062 C411 2.096 . S
C2043 C306 2.148 . S
C2079 C325 1.644 . S
C2098 C430 1.675 . S
C2115 C116 1.923 . S
C2134 C390 1.946 . S
C2151 C135 1.829 . S
C2170 C451 1.802 . S
C2206 C350 1.277 . S
C2187 C154 1.259 . S
C2223 C59 1.509 . S
C2242 C491 1.460 . S
C2259 C78 2.152 . S
C2278 C531 2.128 . S
C2295 C97 1.638 . S
C2314 C550 1.657 . S
C2331 C230 1.917 . S
C2350 C510 1.923 . S
C2386 C571 1.797 . S
C2367 C249 1.829 . S
C2403 C268 1.255 . S
C2422 C470 1.270 . S
C2439 C173 1.512 . S
C2458 C611 1.507 . S
C2475 C192 2.149 . S
C2494 C651 2.130 . S
C2530 C670 1.671 . S
C2511 C211 1.644 . S
C2547 C2 1.918 . S
C2566 C630 1.929 . S
C2583 C21 1.831 . S
C2602 C691 1.793 . S
C2619 C40 1.259 . S
C2638 C590 1.276 . S
