# Generated by pormake.
# Topology ptr, (4,4)-cn, num edge types: 1
# Building blocks:
#     Node 0, Type 0, BuildingBlock: TATPOV_clean_sbu_0, # of connection points: 4
#     Node 1, Type 0, BuildingBlock: TATPOV_clean_sbu_0, # of connection points: 4
#     Node 2, Type 0, BuildingBlock: TATPOV_clean_sbu_0, # of connection points: 4
#     Node 3, Type 0, BuildingBlock: TATPOV_clean_sbu_0, # of connection points: 4
#     Node 4, Type 0, BuildingBlock: TATPOV_clean_sbu_0, # of connection points: 4
#     Node 5, Type 0, BuildingBlock: TATPOV_clean_sbu_0, # of connection points: 4
#     Node 6, Type 0, BuildingBlock: TATPOV_clean_sbu_0, # of connection points: 4
#     Node 7, Type 0, BuildingBlock: TATPOV_clean_sbu_0, # of connection points: 4
#     Node 8, Type 0, BuildingBlock: TATPOV_clean_sbu_0, # of connection points: 4
#     Node 9, Type 0, BuildingBlock: TATPOV_clean_sbu_0, # of connection points: 4
#     Node 10, Type 0, BuildingBlock: TATPOV_clean_sbu_0, # of connection points: 4
#     Node 11, Type 0, BuildingBlock: TATPOV_clean_sbu_0, # of connection points: 4
#     Node 12, Type 0, BuildingBlock: TATPOV_clean_sbu_0, # of connection points: 4
#     Node 13, Type 0, BuildingBlock: TATPOV_clean_sbu_0, # of connection points: 4
#     Node 14, Type 0, BuildingBlock: TATPOV_clean_sbu_0, # of connection points: 4
#     Node 15, Type 0, BuildingBlock: TATPOV_clean_sbu_0, # of connection points: 4
#     Node 16, Type 0, BuildingBlock: TATPOV_clean_sbu_0, # of connection points: 4
#     Node 17, Type 0, BuildingBlock: TATPOV_clean_sbu_0, # of connection points: 4
#     Node 18, Type 1, BuildingBlock: KUFVIS_clean_linker_0, # of connection points: 4
#     Node 19, Type 1, BuildingBlock: KUFVIS_clean_linker_0, # of connection points: 4
#     Node 20, Type 1, BuildingBlock: KUFVIS_clean_linker_0, # of connection points: 4
#     Node 21, Type 1, BuildingBlock: KUFVIS_clean_linker_0, # of connection points: 4
#     Node 22, Type 1, BuildingBlock: KUFVIS_clean_linker_0, # of connection points: 4
#     Node 23, Type 1, BuildingBlock: KUFVIS_clean_linker_0, # of connection points: 4
#     Node 24, Type 1, BuildingBlock: KUFVIS_clean_linker_0, # of connection points: 4
#     Node 25, Type 1, BuildingBlock: KUFVIS_clean_linker_0, # of connection points: 4
#     Node 26, Type 1, BuildingBlock: KUFVIS_clean_linker_0, # of connection points: 4
#     Node 27, Type 1, BuildingBlock: KUFVIS_clean_linker_0, # of connection points: 4
#     Node 28, Type 1, BuildingBlock: KUFVIS_clean_linker_0, # of connection points: 4
#     Node 29, Type 1, BuildingBlock: KUFVIS_clean_linker_0, # of connection points: 4
#     Node 30, Type 1, BuildingBlock: KUFVIS_clean_linker_0, # of connection points: 4
#     Node 31, Type 1, BuildingBlock: KUFVIS_clean_linker_0, # of connection points: 4
#     Node 32, Type 1, BuildingBlock: KUFVIS_clean_linker_0, # of connection points: 4
#     Node 33, Type 1, BuildingBlock: KUFVIS_clean_linker_0, # of connection points: 4
#     Node 34, Type 1, BuildingBlock: KUFVIS_clean_linker_0, # of connection points: 4
#     Node 35, Type 1, BuildingBlock: KUFVIS_clean_linker_0, # of connection points: 4
#     Edge 36, Type (0, 1), BuildingBlock: TEMPAE_clean_linker_10, # of connection points: 2
#     Edge 37, Type (0, 1), BuildingBlock: TEMPAE_clean_linker_10, # of connection points: 2
#     Edge 38, Type (0, 1), BuildingBlock: TEMPAE_clean_linker_10, # of connection points: 2
#     Edge 39, Type (0, 1), BuildingBlock: TEMPAE_clean_linker_10, # of connection points: 2
#     Edge 40, Type (0, 1), BuildingBlock: TEMPAE_clean_linker_10, # of connection points: 2
#     Edge 41, Type (0, 1), BuildingBlock: TEMPAE_clean_linker_10, # of connection points: 2
#     Edge 42, Type (0, 1), BuildingBlock: TEMPAE_clean_linker_10, # of connection points: 2
#     Edge 43, Type (0, 1), BuildingBlock: TEMPAE_clean_linker_10, # of connection points: 2
#     Edge 44, Type (0, 1), BuildingBlock: TEMPAE_clean_linker_10, # of connection points: 2
#     Edge 45, Type (0, 1), BuildingBlock: TEMPAE_clean_linker_10, # of connection points: 2
#     Edge 46, Type (0, 1), BuildingBlock: TEMPAE_clean_linker_10, # of connection points: 2
#     Edge 47, Type (0, 1), BuildingBlock: TEMPAE_clean_linker_10, # of connection points: 2
#     Edge 48, Type (0, 1), BuildingBlock: TEMPAE_clean_linker_10, # of connection points: 2
#     Edge 49, Type (0, 1), BuildingBlock: TEMPAE_clean_linker_10, # of connection points: 2
#     Edge 50, Type (0, 1), BuildingBlock: TEMPAE_clean_linker_10, # of connection points: 2
#     Edge 51, Type (0, 1), BuildingBlock: TEMPAE_clean_linker_10, # of connection points: 2
#     Edge 52, Type (0, 1), BuildingBlock: TEMPAE_clean_linker_10, # of connection points: 2
#     Edge 53, Type (0, 1), BuildingBlock: TEMPAE_clean_linker_10, # of connection points: 2
#     Edge 54, Type (0, 1), BuildingBlock: TEMPAE_clean_linker_10, # of connection points: 2
#     Edge 55, Type (0, 1), BuildingBlock: TEMPAE_clean_linker_10, # of connection points: 2
#     Edge 56, Type (0, 1), BuildingBlock: TEMPAE_clean_linker_10, # of connection points: 2
#     Edge 57, Type (0, 1), BuildingBlock: TEMPAE_clean_linker_10, # of connection points: 2
#     Edge 58, Type (0, 1), BuildingBlock: TEMPAE_clean_linker_10, # of connection points: 2
#     Edge 59, Type (0, 1), BuildingBlock: TEMPAE_clean_linker_10, # of connection points: 2
#     Edge 60, Type (0, 1), BuildingBlock: TEMPAE_clean_linker_10, # of connection points: 2
#     Edge 61, Type (0, 1), BuildingBlock: TEMPAE_clean_linker_10, # of connection points: 2
#     Edge 62, Type (0, 1), BuildingBlock: TEMPAE_clean_linker_10, # of connection points: 2
#     Edge 63, Type (0, 1), BuildingBlock: TEMPAE_clean_linker_10, # of connection points: 2
#     Edge 64, Type (0, 1), BuildingBlock: TEMPAE_clean_linker_10, # of connection points: 2
#     Edge 65, Type (0, 1), BuildingBlock: TEMPAE_clean_linker_10, # of connection points: 2
#     Edge 66, Type (0, 1), BuildingBlock: TEMPAE_clean_linker_10, # of connection points: 2
#     Edge 67, Type (0, 1), BuildingBlock: TEMPAE_clean_linker_10, # of connection points: 2
#     Edge 68, Type (0, 1), BuildingBlock: TEMPAE_clean_linker_10, # of connection points: 2
#     Edge 69, Type (0, 1), BuildingBlock: TEMPAE_clean_linker_10, # of connection points: 2
#     Edge 70, Type (0, 1), BuildingBlock: TEMPAE_clean_linker_10, # of connection points: 2
#     Edge 71, Type (0, 1), BuildingBlock: TEMPAE_clean_linker_10, # of connection points: 2
#     Edge 72, Type (0, 1), BuildingBlock: TEMPAE_clean_linker_10, # of connection points: 2
#     Edge 73, Type (0, 1), BuildingBlock: TEMPAE_clean_linker_10, # of connection points: 2
#     Edge 74, Type (0, 1), BuildingBlock: TEMPAE_clean_linker_10, # of connection points: 2
#     Edge 75, Type (0, 1), BuildingBlock: TEMPAE_clean_linker_10, # of connection points: 2
#     Edge 76, Type (0, 1), BuildingBlock: TEMPAE_clean_linker_10, # of connection points: 2
#     Edge 77, Type (0, 1), BuildingBlock: TEMPAE_clean_linker_10, # of connection points: 2
#     Edge 78, Type (0, 1), BuildingBlock: TEMPAE_clean_linker_10, # of connection points: 2
#     Edge 79, Type (0, 1), BuildingBlock: TEMPAE_clean_linker_10, # of connection points: 2
#     Edge 80, Type (0, 1), BuildingBlock: TEMPAE_clean_linker_10, # of connection points: 2
#     Edge 81, Type (0, 1), BuildingBlock: TEMPAE_clean_linker_10, # of connection points: 2
#     Edge 82, Type (0, 1), BuildingBlock: TEMPAE_clean_linker_10, # of connection points: 2
#     Edge 83, Type (0, 1), BuildingBlock: TEMPAE_clean_linker_10, # of connection points: 2
#     Edge 84, Type (0, 1), BuildingBlock: TEMPAE_clean_linker_10, # of connection points: 2
#     Edge 85, Type (0, 1), BuildingBlock: TEMPAE_clean_linker_10, # of connection points: 2
#     Edge 86, Type (0, 1), BuildingBlock: TEMPAE_clean_linker_10, # of connection points: 2
#     Edge 87, Type (0, 1), BuildingBlock: TEMPAE_clean_linker_10, # of connection points: 2
#     Edge 88, Type (0, 1), BuildingBlock: TEMPAE_clean_linker_10, # of connection points: 2
#     Edge 89, Type (0, 1), BuildingBlock: TEMPAE_clean_linker_10, # of connection points: 2
#     Edge 90, Type (0, 1), BuildingBlock: TEMPAE_clean_linker_10, # of connection points: 2
#     Edge 91, Type (0, 1), BuildingBlock: TEMPAE_clean_linker_10, # of connection points: 2
#     Edge 92, Type (0, 1), BuildingBlock: TEMPAE_clean_linker_10, # of connection points: 2
#     Edge 93, Type (0, 1), BuildingBlock: TEMPAE_clean_linker_10, # of connection points: 2
#     Edge 94, Type (0, 1), BuildingBlock: TEMPAE_clean_linker_10, # of connection points: 2
#     Edge 95, Type (0, 1), BuildingBlock: TEMPAE_clean_linker_10, # of connection points: 2
#     Edge 96, Type (0, 1), BuildingBlock: TEMPAE_clean_linker_10, # of connection points: 2
#     Edge 97, Type (0, 1), BuildingBlock: TEMPAE_clean_linker_10, # of connection points: 2
#     Edge 98, Type (0, 1), BuildingBlock: TEMPAE_clean_linker_10, # of connection points: 2
#     Edge 99, Type (0, 1), BuildingBlock: TEMPAE_clean_linker_10, # of connection points: 2
#     Edge 100, Type (0, 1), BuildingBlock: TEMPAE_clean_linker_10, # of connection points: 2
#     Edge 101, Type (0, 1), BuildingBlock: TEMPAE_clean_linker_10, # of connection points: 2
#     Edge 102, Type (0, 1), BuildingBlock: TEMPAE_clean_linker_10, # of connection points: 2
#     Edge 103, Type (0, 1), BuildingBlock: TEMPAE_clean_linker_10, # of connection points: 2
#     Edge 104, Type (0, 1), BuildingBlock: TEMPAE_clean_linker_10, # of connection points: 2
#     Edge 105, Type (0, 1), BuildingBlock: TEMPAE_clean_linker_10, # of connection points: 2
#     Edge 106, Type (0, 1), BuildingBlock: TEMPAE_clean_linker_10, # of connection points: 2
#     Edge 107, Type (0, 1), BuildingBlock: TEMPAE_clean_linker_10, # of connection points: 2
# Relax obj value: 0.070
# Max RMSD: 0.192
# Mean RMSD: 0.120
data_MOF--net-ptr--node1-TATPOV_clean_sbu_0--node2-KUFVIS_clean_linker_0--edge1-TEMPAE_clean_linker_10
_symmetry_space_group_name_H-M    P1
_symmetry_Int_Tables_number       1
_symmetry_cell_setting            triclinic
loop_
_symmetry_equiv_pos_as_xyz
'x, y, z'
_cell_length_a     79.302842
_cell_length_b     80.203738
_cell_length_c     48.128486
_cell_angle_alpha  89.497985
_cell_angle_beta   91.167863
_cell_angle_gamma 121.20961
loop_
_atom_site_label
_atom_site_type_symbol
_atom_site_fract_x
_atom_site_fract_y
_atom_site_fract_z
_atom_type_partial_charge
Zn0 Zn 0.96773 0.3737 0.03045 0.0
Zn1 Zn 1.00025 0.3725 0.02124 0.0
O2 O 0.97671 0.3436 0.0215 0.0
O3 O 0.95024 0.34449 0.03167 0.0
O4 O 0.02408 0.36926 0.02163 0.0
O5 O 0.97863 0.38872 0.06594 0.0
O6 O 1.00637 0.39029 0.05578 0.0
C7 C 0.95825 0.3348 0.02622 0.0
C8 C 0.98873 0.39264 0.97858 0.0
O9 O 1.0006 0.38702 0.98569 0.0
O10 O 0.97422 0.38867 0.99381 0.0
C11 C 0.03912 0.37681 0.00619 0.0
O12 O 0.04039 0.38834 0.98574 0.0
C13 C 0.99664 0.39504 0.07123 0.0
Zn14 Zn 0.65555 0.59857 0.02092 0.0
Zn15 Zn 0.65182 0.63023 0.01824 0.0
O16 O 0.68182 0.64099 0.01489 0.0
O17 O 0.68492 0.61529 0.01905 0.0
O18 O 0.65046 0.65484 0.02086 0.0
O19 O 0.64325 0.59115 0.05821 0.0
O20 O 0.63802 0.61556 0.05431 0.0
C21 C 0.69261 0.63348 0.0161 0.0
C22 C 0.63133 0.59874 0.97417 0.0
O23 O 0.63559 0.61532 0.98363 0.0
O24 O 0.63806 0.58919 0.98618 0.0
C25 C 0.65724 0.66866 0.00321 0.0
O26 O 0.66527 0.66711 0.98052 0.0
C27 C 0.63615 0.60086 0.06755 0.0
Zn28 Zn 0.37587 0.98371 0.03436 0.0
Zn29 Zn 0.37932 0.0184 0.02626 0.0
O30 O 0.349 0.99805 0.03028 0.0
O31 O 0.34685 0.97016 0.04033 0.0
O32 O 0.37963 0.04368 0.01907 0.0
O33 O 0.38649 0.98536 0.99583 0.0
O34 O 0.39191 0.01514 0.99125 0.0
C35 C 0.33865 0.97993 0.03624 0.0
C36 C 0.40253 0.01273 0.07379 0.0
O37 O 0.3981 0.02383 0.06044 0.0
O38 O 0.39469 0.99497 0.06706 0.0
C39 C 0.37404 0.05158 0.03658 0.0
O40 O 0.36853 0.04367 0.06127 0.0
C41 C 0.39322 1.001 0.98206 0.0
Zn42 Zn 0.05368 0.64374 0.99298 0.0
Zn43 Zn 0.01968 0.64339 -0.00361 0.0
O44 O 0.04245 0.67251 -0.00213 0.0
O45 O 0.07006 0.67301 0.99102 0.0
O46 O 0.99537 0.64562 0.99449 0.0
O47 O 0.0441 0.62761 0.9578 0.0
O48 O 0.01591 0.62651 0.96192 0.0
C49 C 0.06114 0.68204 0.99501 0.0
C50 C 0.03026 0.62464 0.0426 0.0
O51 O 0.01765 0.62821 0.03179 0.0
O52 O 0.04652 0.63027 0.03083 0.0
C53 C 0.99146 0.65496 0.01189 0.0
O54 O 1.00324 0.66307 0.03356 0.0
C55 C 0.02665 0.62158 0.9493 0.0
Zn56 Zn 0.36394 0.4124 0.00349 0.0
Zn57 Zn 0.36814 0.38088 -0.00132 0.0
O58 O 0.33787 0.36969 0.00257 0.0
O59 O 0.33454 0.39534 0.00415 0.0
O60 O 0.36967 0.35645 0.9932 0.0
O61 O 0.37738 0.42254 0.9668 0.0
O62 O 0.38156 0.39745 0.96387 0.0
C63 C 0.32699 0.37707 0.00387 0.0
C64 C 0.38806 0.40939 0.04717 0.0
O65 O 0.3851 0.39453 0.03352 0.0
O66 O 0.38014 0.41894 0.03937 0.0
C67 C 0.37352 0.34767 0.0122 0.0
O68 O 0.37709 0.35459 0.03766 0.0
C69 C 0.38396 0.41338 0.95416 0.0
Zn70 Zn 0.6382 0.02304 0.98347 0.0
Zn71 Zn 0.63606 0.98863 0.98746 0.0
O72 O 0.66629 0.00954 0.98506 0.0
O73 O 0.66728 0.03727 0.97835 0.0
O74 O 0.63527 0.96296 0.98974 0.0
O75 O 0.6269 0.01874 0.02196 0.0
O76 O 0.62267 0.98929 0.02318 0.0
C77 C 0.67606 0.02794 0.98091 0.0
C78 C 0.61312 0.99598 0.94146 0.0
O79 O 0.61804 0.98484 0.95345 0.0
O80 O 0.62002 0.01324 0.95001 0.0
C81 C 0.64305 0.9596 0.01072 0.0
O82 O 0.65148 0.97299 0.0302 0.0
C83 C 0.62061 1.00254 0.03404 0.0
Zn84 Zn 0.62237 0.69917 0.36822 0.0
Zn85 Zn 0.6576 0.70306 0.36518 0.0
O86 O 0.63716 0.67309 0.36559 0.0
O87 O 0.6084 0.67014 0.37273 0.0
O88 O 0.68408 0.70441 0.36447 0.0
O89 O 0.63061 0.71666 0.40115 0.0
O90 O 0.65987 0.71986 0.39978 0.0
C91 C 0.61861 0.66238 0.36935 0.0
C92 C 0.64269 0.71805 0.31781 0.0
O93 O 0.65639 0.71604 0.32854 0.0
O94 O 0.62655 0.7115 0.33031 0.0
C95 C 0.68921 0.69799 0.38523 0.0
O96 O 0.67738 0.69104 0.40652 0.0
C97 C 0.64799 0.72409 0.41078 0.0
Zn98 Zn 0.32756 0.93645 0.34622 0.0
Zn99 Zn 0.32415 0.96758 0.34917 0.0
O100 O 0.35445 0.97875 0.34461 0.0
O101 O 0.35681 0.95252 0.34496 0.0
O102 O 0.3217 0.9918 0.35065 0.0
O103 O 0.31494 0.92694 0.38257 0.0
O104 O 0.31188 0.9526 0.38615 0.0
C105 C 0.36489 0.97083 0.3441 0.0
C106 C 0.30254 0.93658 0.30311 0.0
O107 O 0.30661 0.95244 0.31503 0.0
O108 O 0.31031 0.92714 0.31196 0.0
C109 C 0.32769 1.00316 0.37162 0.0
O110 O 0.33568 0.99915 0.39283 0.0
C111 C 0.30922 0.93655 0.39595 0.0
Zn112 Zn 0.0463 0.31836 0.36667 0.0
Zn113 Zn 0.04937 0.3521 0.35344 0.0
O114 O 0.01921 0.33242 0.35879 0.0
O115 O 0.01717 0.3049 0.37104 0.0
O116 O 0.04989 0.37723 0.34432 0.0
O117 O 0.05802 0.31849 0.32981 0.0
O118 O 0.06078 0.34652 0.31884 0.0
C119 C 1.00893 0.31453 0.36587 0.0
C120 C 0.07211 0.34866 0.40411 0.0
O121 O 0.06828 0.35909 0.38803 0.0
O122 O 0.06398 0.33053 0.39989 0.0
C123 C 0.045 0.38557 0.36214 0.0
O124 O 0.04023 0.37808 0.38718 0.0
C125 C 0.06325 0.33244 0.31287 0.0
Zn126 Zn 0.73293 0.98282 0.32006 0.0
Zn127 Zn 0.69793 0.97942 0.32183 0.0
O128 O 0.71886 0.00918 0.32214 0.0
O129 O 0.74761 0.01192 0.31589 0.0
O130 O 0.67216 0.97943 0.31874 0.0
O131 O 0.72553 0.96563 0.28689 0.0
O132 O 0.69634 0.96263 0.2876 0.0
C133 C 0.73746 0.01978 0.31892 0.0
C134 C 0.71104 0.96365 0.37002 0.0
O135 O 0.69759 0.96597 0.359 0.0
O136 O 0.72729 0.97008 0.35785 0.0
C137 C 0.66752 0.9886 0.33543 0.0
O138 O 0.67918 0.9976 0.3569 0.0
C139 C 0.70826 0.95835 0.27686 0.0
Zn140 Zn 0.03094 0.7441 0.3506 0.0
Zn141 Zn 0.03229 0.71247 0.33631 0.0
O142 O 1.00219 0.70203 0.34222 0.0
O143 O 1.00168 0.72824 0.3543 0.0
O144 O 0.03305 0.68798 0.32696 0.0
O145 O 0.04362 0.75654 0.31417 0.0
O146 O 0.04449 0.73054 0.30226 0.0
C147 C 0.99267 0.71015 0.34934 0.0
C148 C 0.05546 0.73791 0.38762 0.0
O149 O 0.05107 0.72396 0.37082 0.0
O150 O 0.04806 0.74849 0.38427 0.0
C151 C 0.03588 0.67812 0.34541 0.0
O152 O 0.03816 0.68369 0.3715 0.0
C153 C 0.04822 0.74776 0.29696 0.0
Zn154 Zn 0.30961 0.36238 0.3429 0.0
Zn155 Zn 0.30539 0.32778 0.33777 0.0
O156 O 0.33574 0.34795 0.3358 0.0
O157 O 0.33841 0.37671 0.33593 0.0
O158 O 0.30442 0.3019 0.3395 0.0
O159 O 0.29956 0.35717 0.38171 0.0
O160 O 0.29111 0.32676 0.37394 0.0
C161 C 0.34629 0.36652 0.33463 0.0
C162 C 0.28372 0.33954 0.29689 0.0
O163 O 0.28885 0.32726 0.30334 0.0
O164 O 0.29028 0.35502 0.311 0.0
C165 C 0.30815 0.29349 0.32034 0.0
O166 O 0.31226 0.30123 0.2954 0.0
C167 C 0.29077 0.33951 0.38914 0.0
Zn168 Zn 0.29723 0.04102 0.69004 0.0
Zn169 Zn 0.33016 0.03897 0.68929 0.0
O170 O 0.30629 0.01043 0.68742 0.0
O171 O 0.27951 0.01188 0.69191 0.0
O172 O 0.35348 0.03522 0.69237 0.0
O173 O 0.30671 0.05682 0.72546 0.0
O174 O 0.33398 0.0559 0.7236 0.0
C175 C 0.28758 1.00191 0.68925 0.0
C176 C 0.3226 0.05927 0.64188 0.0
O177 O 0.33407 0.05461 0.6538 0.0
O178 O 0.30618 0.05457 0.65244 0.0
C179 C 0.35801 0.02689 0.67409 0.0
O180 O 0.34748 0.02076 0.65094 0.0
C181 C 0.32358 0.06166 0.73523 0.0
Zn182 Zn 0.98689 0.26997 0.69182 0.0
Zn183 Zn 0.98461 0.30228 0.68858 0.0
O184 O 0.01456 0.31196 0.68538 0.0
O185 O 0.01625 0.28549 0.69023 0.0
O186 O 0.98416 0.32748 0.69118 0.0
O187 O 0.97426 0.26267 0.72883 0.0
O188 O 0.97007 0.28769 0.72444 0.0
C189 C 0.02469 0.30372 0.68692 0.0
C190 C 0.96352 0.27086 0.64456 0.0
O191 O 0.96827 0.28762 0.65385 0.0
O192 O 0.96969 0.26093 0.65688 0.0
C193 C 0.98219 0.33704 0.6714 0.0
O194 O 0.98012 0.33063 0.64579 0.0
C195 C 0.96751 0.27276 0.73781 0.0
Zn196 Zn 0.71294 0.65715 0.70789 0.0
Zn197 Zn 0.71565 0.69027 0.69294 0.0
O198 O 0.68532 0.67033 0.69844 0.0
O199 O 0.68386 0.6433 0.71195 0.0
O200 O 0.71649 0.71556 0.68267 0.0
O201 O 0.72494 0.65667 0.67167 0.0
O202 O 0.72702 0.68409 0.65881 0.0
C203 C 0.67529 0.65251 0.70608 0.0
C204 C 0.73881 0.68769 0.74414 0.0
O205 O 0.73498 0.69774 0.72727 0.0
O206 O 0.73041 0.66943 0.74109 0.0
C207 C 0.7199 0.72886 0.70016 0.0
O208 O 0.7234 0.72662 0.7263 0.0
C209 C 0.72988 0.67011 0.65395 0.0
Zn210 Zn 0.38643 0.30888 0.66738 0.0
Zn211 Zn 0.35278 0.30833 0.66465 0.0
O212 O 0.37525 0.3376 0.66624 0.0
O213 O 0.40293 0.33789 0.66123 0.0
O214 O 0.32835 0.31039 0.66047 0.0
O215 O 0.37783 0.29028 0.63512 0.0
O216 O 0.35103 0.29184 0.63032 0.0
C217 C 0.39394 0.347 0.6635 0.0
C218 C 0.36191 0.29125 0.71536 0.0
O219 O 0.34934 0.2933 0.70118 0.0
O220 O 0.37915 0.29788 0.70637 0.0
C221 C 0.32332 0.31835 0.67869 0.0
O222 O 0.33382 0.32481 0.70182 0.0
C223 C 0.36183 0.28537 0.62225 0.0
Zn224 Zn 0.69572 0.08306 0.66309 0.0
Zn225 Zn 0.69741 0.05058 0.6665 0.0
O226 O 0.66744 0.04125 0.6694 0.0
O227 O 0.66638 0.06806 0.66464 0.0
O228 O 0.6977 0.02526 0.66355 0.0
O229 O 0.70841 0.09043 0.62612 0.0
O230 O 0.71223 0.06519 0.63068 0.0
C231 C 0.6576 0.0498 0.66785 0.0
C232 C 0.71871 0.08195 0.71068 0.0
O233 O 0.71377 0.06509 0.70154 0.0
O234 O 0.7128 0.09201 0.69809 0.0
C235 C 0.6932 0.01226 0.68213 0.0
O236 O 0.68794 0.01477 0.70671 0.0
C237 C 0.71502 0.08018 0.61725 0.0
Zn238 Zn 0.98209 0.70087 0.68307 0.0
Zn239 Zn 0.97632 0.6659 0.67215 0.0
O240 O 1.00681 0.68551 0.67088 0.0
O241 O 0.01134 0.71406 0.68271 0.0
O242 O 0.97436 0.63951 0.67125 0.0
O243 O 0.96871 0.69293 0.71936 0.0
O244 O 0.9613 0.66322 0.70852 0.0
C245 C 0.01831 0.70364 0.67613 0.0
C246 C 0.95807 0.68204 0.63278 0.0
O247 O 0.96096 0.6681 0.63843 0.0
O248 O 0.9657 0.69706 0.64819 0.0
C249 C 0.9824 0.63369 0.65432 0.0
O250 O 0.99208 0.64481 0.63318 0.0
C251 C 0.95996 0.67494 0.72478 0.0
H252 H 0.21997 0.32773 0.10252 0.0
H253 H 0.17755 0.3373 0.06103 0.0
H254 H 0.18159 0.33765 0.15112 0.0
H255 H 0.15056 0.32744 0.14998 0.0
H256 H 0.11579 0.34958 0.11639 0.0
H257 H 0.16128 0.35218 0.06695 0.0
C258 C 0.20768 0.33005 0.10368 0.0
C259 C 0.20125 0.33187 0.1296 0.0
C260 C 0.19961 0.33263 0.07917 0.0
C261 C 0.18369 0.33568 0.08038 0.0
C262 C 0.17607 0.33665 0.10636 0.0
C263 C 0.18559 0.33526 0.13086 0.0
C264 C 0.15884 0.33973 0.10836 0.0
C265 C 0.14773 0.33464 0.13303 0.0
C266 C 0.13246 0.33842 0.13618 0.0
C267 C 0.12756 0.34658 0.11409 0.0
C268 C 0.13761 0.35112 0.08907 0.0
C269 C 0.15332 0.34788 0.08619 0.0
H270 H 0.65846 0.87703 0.09661 0.0
H271 H 0.64625 0.82368 0.05858 0.0
H272 H 0.67375 0.8399 0.1405 0.0
H273 H 0.65323 0.80738 0.1469 0.0
H274 H 0.66078 0.76269 0.11239 0.0
H275 H 0.66361 0.80715 0.05899 0.0
C276 C 0.65916 0.86387 0.09755 0.0
C277 C 0.66688 0.85995 0.1213 0.0
C278 C 0.65213 0.85114 0.07486 0.0
C279 C 0.65222 0.83366 0.07601 0.0
C280 C 0.65956 0.82904 0.10009 0.0
C281 C 0.66722 0.84261 0.12236 0.0
C282 C 0.65903 0.8101 0.10272 0.0
C283 C 0.65625 0.80124 0.12911 0.0
C284 C 0.65691 0.78421 0.13282 0.0
C285 C 0.65999 0.77572 0.10975 0.0
C286 C 0.66202 0.78365 0.08317 0.0
C287 C 0.66154 0.80085 0.07954 0.0
H288 H 0.23123 0.90936 0.11545 0.0
H289 H 0.18171 0.86791 0.06569 0.0
H290 H 0.1868 0.85621 0.15248 0.0
H291 H 0.15288 0.84534 0.14831 0.0
H292 H 0.11325 0.7906 0.10882 0.0
H293 H 0.16625 0.83218 0.06762 0.0
C294 C 0.21735 0.89557 0.11373 0.0
C295 C 0.21029 0.8834 0.13685 0.0
C296 C 0.20738 0.8901 0.08806 0.0
C297 C 0.18942 0.87217 0.08559 0.0
C298 C 0.18135 0.86005 0.10919 0.0
C299 C 0.19216 0.86577 0.13461 0.0
C300 C 0.16186 0.84133 0.10783 0.0
C301 C 0.14909 0.83565 0.13067 0.0
C302 C 0.13148 0.81743 0.13112 0.0
C303 C 0.12649 0.80497 0.10831 0.0
C304 C 0.13883 0.81018 0.08544 0.0
C305 C 0.15644 0.82847 0.08496 0.0
H306 H 0.35753 0.13042 0.9216 0.0
H307 H 0.3571 0.17632 0.96547 0.0
H308 H 0.36327 0.17906 0.87598 0.0
H309 H 0.3449 0.1919 0.87705 0.0
H310 H 0.35721 0.24618 0.91139 0.0
H311 H 0.36891 0.2086 0.96083 0.0
C312 C 0.35859 0.14445 0.92105 0.0
C313 C 0.36012 0.15361 0.89561 0.0
C314 C 0.35824 0.15288 0.94613 0.0
C315 C 0.35826 0.17046 0.94593 0.0
C316 C 0.35913 0.17987 0.92039 0.0
C317 C 0.36101 0.17158 0.89559 0.0
C318 C 0.35772 0.19794 0.91889 0.0
C319 C 0.35063 0.20217 0.89412 0.0
C320 C 0.35069 0.21964 0.89093 0.0
C321 C 0.35671 0.23245 0.91348 0.0
C322 C 0.36261 0.22822 0.93876 0.0
C323 C 0.36348 0.21118 0.94146 0.0
H324 H 0.78175 0.10795 0.90431 0.0
H325 H 0.82905 0.14846 0.95794 0.0
H326 H 0.82373 0.16444 0.87336 0.0
H327 H 0.8568 0.17903 0.87658 0.0
H328 H 0.89756 0.22781 0.92693 0.0
H329 H 0.84371 0.18293 0.96227 0.0
C330 C 0.79494 0.12216 0.90752 0.0
C331 C 0.8017 0.13563 0.88586 0.0
C332 C 0.80451 0.12671 0.9335 0.0
C333 C 0.82161 0.14511 0.93784 0.0
C334 C 0.82925 0.15883 0.91589 0.0
C335 C 0.81884 0.15392 0.89009 0.0
C336 C 0.84818 0.17804 0.91931 0.0
C337 C 0.86078 0.18649 0.89639 0.0
C338 C 0.87828 0.20478 0.8986 0.0
C339 C 0.88377 0.21401 0.92451 0.0
C340 C 0.87136 0.20643 0.94724 0.0
C341 C 0.85352 0.18843 0.94479 0.0
H342 H 0.80952 0.70142 0.91319 0.0
H343 H 0.83911 0.67507 0.95158 0.0
H344 H 0.85678 0.7017 0.87063 0.0
H345 H 0.85896 0.6736 0.8668 0.0
H346 H 0.90357 0.66593 0.90614 0.0
H347 H 0.87461 0.68845 0.95354 0.0
C348 C 0.82159 0.69872 0.91303 0.0
C349 C 0.8331 0.70312 0.8893 0.0
C350 C 0.8238 0.68876 0.93539 0.0
C351 C 0.83818 0.68361 0.93471 0.0
C352 C 0.85047 0.68844 0.91156 0.0
C353 C 0.84777 0.69823 0.88887 0.0
C354 C 0.86502 0.68196 0.91025 0.0
C355 C 0.86769 0.67474 0.88508 0.0
C356 C 0.88141 0.6687 0.88345 0.0
C357 C 0.89242 0.66988 0.90725 0.0
C358 C 0.88993 0.67678 0.93241 0.0
C359 C 0.8762 0.68278 0.93405 0.0
H360 H 0.89006 0.67078 0.44408 0.0
H361 H 0.84236 0.67186 0.40241 0.0
H362 H 0.85195 0.68192 0.49134 0.0
H363 H 0.81967 0.6664 0.49213 0.0
H364 H 0.77897 0.68129 0.45836 0.0
H365 H 0.8256 0.68757 0.40739 0.0
C366 C 0.87732 0.67239 0.44503 0.0
C367 C 0.87196 0.67618 0.47054 0.0
C368 C 0.86705 0.67125 0.42048 0.0
C369 C 0.85036 0.67313 0.42153 0.0
C370 C 0.84399 0.6762 0.44733 0.0
C371 C 0.85544 0.67824 0.47157 0.0
C372 C 0.82554 0.67717 0.44954 0.0
C373 C 0.81515 0.67199 0.47485 0.0
C374 C 0.79853 0.67362 0.47821 0.0
C375 C 0.79169 0.67977 0.45584 0.0
C376 C 0.8011 0.68443 0.4303 0.0
C377 C 0.81813 0.68332 0.42706 0.0
H378 H 0.32711 0.21657 0.42889 0.0
H379 H 0.32857 0.17021 0.38782 0.0
H380 H 0.33098 0.17419 0.47798 0.0
H381 H 0.34615 0.15902 0.47676 0.0
H382 H 0.3322 0.10336 0.44658 0.0
H383 H 0.32028 0.13949 0.39427 0.0
C384 C 0.32807 0.20356 0.4302 0.0
C385 C 0.3302 0.19692 0.45612 0.0
C386 C 0.32719 0.19385 0.40578 0.0
C387 C 0.32854 0.17702 0.40708 0.0
C388 C 0.33027 0.16953 0.43318 0.0
C389 C 0.33041 0.17954 0.45756 0.0
C390 C 0.33212 0.15164 0.43557 0.0
C391 C 0.33977 0.1482 0.46048 0.0
C392 C 0.33937 0.13068 0.46503 0.0
C393 C 0.33289 0.11711 0.44345 0.0
C394 C 0.32682 0.12058 0.41777 0.0
C395 C 0.326 0.13761 0.41385 0.0
H396 H 0.90104 0.24505 0.45033 0.0
H397 H 0.85423 0.2038 0.39677 0.0
H398 H 0.85824 0.18935 0.48264 0.0
H399 H 0.82521 0.17397 0.47833 0.0
H400 H 0.78632 0.12421 0.42805 0.0
H401 H 0.83999 0.16992 0.39365 0.0
C402 C 0.88768 0.23094 0.44735 0.0
C403 C 0.88054 0.21786 0.46951 0.0
C404 C 0.8785 0.22591 0.4211 0.0
C405 C 0.86131 0.20754 0.41711 0.0
C406 C 0.85327 0.19428 0.43953 0.0
C407 C 0.86333 0.1996 0.46556 0.0
C408 C 0.8346 0.17489 0.43607 0.0
C409 C 0.8217 0.16634 0.45868 0.0
C410 C 0.80457 0.14774 0.45639 0.0
C411 C 0.79978 0.13828 0.43063 0.0
C412 C 0.81251 0.14607 0.40825 0.0
C413 C 0.82991 0.16435 0.41083 0.0
H414 H 0.03503 0.46877 0.25072 0.0
H415 H 0.02953 0.51202 0.29394 0.0
H416 H 0.03805 0.51611 0.20483 0.0
H417 H 0.01822 0.52731 0.20511 0.0
H418 H 0.02724 0.58048 0.23922 0.0
H419 H 0.03999 0.54412 0.28978 0.0
C420 C 0.03508 0.48232 0.25008 0.0
C421 C 0.03645 0.49141 0.22465 0.0
C422 C 0.03325 0.49 0.27496 0.0
C423 C 0.03184 0.5068 0.27459 0.0
C424 C 0.03283 0.51625 0.24906 0.0
C425 C 0.03596 0.50867 0.22444 0.0
C426 C 0.0302 0.5336 0.24737 0.0
C427 C 0.02319 0.5375 0.22225 0.0
C428 C 0.02239 0.55449 0.2188 0.0
C429 C 0.02738 0.56709 0.24145 0.0
C430 C 0.03297 0.56304 0.26712 0.0
C431 C 0.03477 0.54653 0.27009 0.0
H432 H 0.45236 0.43744 0.23951 0.0
H433 H 0.49872 0.47955 0.29232 0.0
H434 H 0.49811 0.49044 0.20406 0.0
H435 H 0.52992 0.50759 0.21021 0.0
H436 H 0.56844 0.55766 0.25989 0.0
H437 H 0.51425 0.51275 0.294 0.0
C438 C 0.4663 0.45111 0.24167 0.0
C439 C 0.4748 0.46278 0.2183 0.0
C440 C 0.47483 0.45704 0.26817 0.0
C441 C 0.4922 0.47527 0.2717 0.0
C442 C 0.50112 0.48764 0.2486 0.0
C443 C 0.49199 0.48118 0.22202 0.0
C444 C 0.51987 0.50711 0.25198 0.0
C445 C 0.53308 0.51537 0.22964 0.0
C446 C 0.5502 0.53396 0.23182 0.0
C447 C 0.55491 0.54364 0.25738 0.0
C448 C 0.54202 0.53613 0.2796 0.0
C449 C 0.52445 0.51796 0.27697 0.0
H450 H 0.47689 0.02575 0.24393 0.0
H451 H 0.5108 1.0037 0.28137 0.0
H452 H 0.52326 0.02705 0.19782 0.0
H453 H 0.52857 1.00188 0.19378 0.0
H454 H 0.57737 0.9993 0.22866 0.0
H455 H 0.54516 0.01578 0.28053 0.0
C456 C 0.48936 0.0237 0.24288 0.0
C457 C 0.49963 0.02752 0.21809 0.0
C458 C 0.49348 0.01541 0.26565 0.0
C459 C 0.50842 0.01101 0.26406 0.0
C460 C 0.51956 0.01524 0.23966 0.0
C461 C 0.51502 0.02366 0.21681 0.0
C462 C 0.53509 0.00996 0.23728 0.0
C463 C 0.53812 1.0038 0.21139 0.0
C464 C 0.55329 0.99987 0.208 0.0
C465 C 0.5652 1.00167 0.23101 0.0
C466 C 0.5621 0.00692 0.25714 0.0
C467 C 0.54708 0.01114 0.26038 0.0
H468 H 0.54447 0.98808 0.77096 0.0
H469 H 0.50893 0.0088 0.73515 0.0
H470 H 0.49293 0.97788 0.81349 0.0
H471 H 0.48505 1.00144 0.82104 0.0
H472 H 0.43506 1.00078 0.78373 0.0
H473 H 0.47415 0.99343 0.73234 0.0
C474 C 0.53115 0.98874 0.7716 0.0
C475 C 0.51906 0.98166 0.79479 0.0
C476 C 0.52744 0.99823 0.75008 0.0
C477 C 0.51116 1.00065 0.75137 0.0
C478 C 0.49842 0.99332 0.77428 0.0
C479 C 0.50249 0.98367 0.79576 0.0
C480 C 0.48139 0.99636 0.77657 0.0
C481 C 0.47605 0.9998 0.80285 0.0
C482 C 0.45944 1.00159 0.80575 0.0
C483 C 0.44823 0.99998 0.78195 0.0
C484 C 0.45371 0.99755 0.75558 0.0
C485 C 0.47029 0.99576 0.75281 0.0
H486 H 0.99405 0.55176 0.76545 0.0
H487 H 0.99416 0.5057 0.72187 0.0
H488 H 0.98422 0.50164 0.81077 0.0
H489 H 0.99705 0.4843 0.81284 0.0
H490 H 0.99166 0.43427 0.7737 0.0
H491 H 0.98443 0.47471 0.72412 0.0
C492 C 0.99238 0.53746 0.76594 0.0
C493 C 0.98949 0.52775 0.79121 0.0
C494 C 0.99333 0.52925 0.74101 0.0
C495 C 0.99247 0.51125 0.74132 0.0
C496 C 0.99008 0.50111 0.76674 0.0
C497 C 0.98768 0.50936 0.79128 0.0
C498 C 0.99053 0.4824 0.76822 0.0
C499 C 0.9941 0.47591 0.79407 0.0
C500 C 0.99365 0.45821 0.79639 0.0
C501 C 0.99128 0.44759 0.77233 0.0
C502 C 0.9883 0.45367 0.74643 0.0
C503 C 0.98752 0.47079 0.7443 0.0
H504 H 0.56864 0.57336 0.78154 0.0
H505 H 0.51986 0.53501 0.72821 0.0
H506 H 0.52377 0.51809 0.81271 0.0
H507 H 0.49072 0.50632 0.80926 0.0
H508 H 0.4482 0.45802 0.75939 0.0
H509 H 0.50393 0.49962 0.72495 0.0
C510 C 0.55487 0.55963 0.7784 0.0
C511 C 0.54732 0.54619 0.80009 0.0
C512 C 0.54524 0.55568 0.7525 0.0
C513 C 0.52734 0.53795 0.74824 0.0
C514 C 0.51896 0.52437 0.77026 0.0
C515 C 0.52937 0.52861 0.79597 0.0
C516 C 0.49931 0.50595 0.76697 0.0
C517 C 0.48635 0.49855 0.78968 0.0
C518 C 0.46813 0.48088 0.78761 0.0
C519 C 0.46243 0.47134 0.76187 0.0
C520 C 0.47533 0.47773 0.73959 0.0
C521 C 0.49376 0.49507 0.74199 0.0
H522 H 0.69671 0.80477 0.59125 0.0
H523 H 0.70857 0.85783 0.62995 0.0
H524 H 0.68226 0.84243 0.5472 0.0
H525 H 0.70192 0.87468 0.54103 0.0
H526 H 0.69432 0.91929 0.57567 0.0
H527 H 0.69215 0.87519 0.62919 0.0
C528 C 0.69611 0.81799 0.59039 0.0
C529 C 0.68882 0.82224 0.56647 0.0
C530 C 0.70277 0.83042 0.61337 0.0
C531 C 0.70287 0.84805 0.61227 0.0
C532 C 0.69595 0.85302 0.588 0.0
C533 C 0.68857 0.83961 0.56549 0.0
C534 C 0.69646 0.87203 0.58539 0.0
C535 C 0.69898 0.88081 0.55891 0.0
C536 C 0.69814 0.89777 0.55517 0.0
C537 C 0.69528 0.90635 0.5783 0.0
C538 C 0.69354 0.89859 0.60493 0.0
C539 C 0.69407 0.88139 0.60859 0.0
H540 H 0.1258 0.77088 0.57012 0.0
H541 H 0.16783 0.81808 0.62124 0.0
H542 H 0.17331 0.82126 0.53166 0.0
H543 H 0.20494 0.84019 0.54168 0.0
H544 H 0.2355 0.89625 0.58073 0.0
H545 H 0.18278 0.8506 0.6172 0.0
C546 C 0.13951 0.78483 0.57178 0.0
C547 C 0.14939 0.79466 0.54773 0.0
C548 C 0.14598 0.79333 0.59799 0.0
C549 C 0.16305 0.81185 0.60067 0.0
C550 C 0.17349 0.82224 0.57684 0.0
C551 C 0.16624 0.81343 0.5504 0.0
C552 C 0.19131 0.84249 0.5791 0.0
C553 C 0.20579 0.84961 0.5583 0.0
C554 C 0.22159 0.86901 0.55858 0.0
C555 C 0.22349 0.88115 0.58051 0.0
C556 C 0.20982 0.87446 0.60182 0.0
C557 C 0.19367 0.85521 0.60115 0.0
H558 H 0.13884 0.36235 0.57955 0.0
H559 H 0.16965 0.33814 0.62056 0.0
H560 H 0.18724 0.36374 0.53891 0.0
H561 H 0.19081 0.33705 0.53556 0.0
H562 H 0.23621 0.33106 0.57566 0.0
H563 H 0.20444 0.35042 0.62306 0.0
C564 C 0.15116 0.36002 0.57993 0.0
C565 C 0.16286 0.36438 0.55645 0.0
C566 C 0.15371 0.35083 0.60302 0.0
C567 C 0.16848 0.34614 0.60313 0.0
C568 C 0.18088 0.3508 0.58009 0.0
C569 C 0.17799 0.36011 0.55691 0.0
C570 C 0.19586 0.34478 0.57929 0.0
C571 C 0.19941 0.33831 0.55405 0.0
C572 C 0.21386 0.33321 0.5525 0.0
C573 C 0.22455 0.3343 0.57659 0.0
C574 C 0.22102 0.34013 0.60196 0.0
C575 C 0.20672 0.34544 0.60344 0.0
C576 C 0.02479 0.4264 0.08951 0.0
C577 C 1.00651 0.40938 0.09383 0.0
C578 C 0.03272 0.44169 0.10904 0.0
C579 C 0.02235 0.43955 0.13373 0.0
C580 C 1.00443 0.42188 0.13878 0.0
C581 C 0.99655 0.40716 0.11853 0.0
C582 C 0.05156 0.46047 0.10253 0.0
C583 C 0.99323 0.41873 0.16524 0.0
C584 C 0.04595 0.47079 0.19789 0.0
C585 C 0.03657 0.48161 0.19846 0.0
C586 C 0.04229 0.45769 0.17619 0.0
C587 C 0.02955 0.45592 0.15392 0.0
C588 C 0.02174 0.4683 0.15287 0.0
C589 C 0.02512 0.48081 0.17531 0.0
C590 C 0.05075 0.44464 0.17834 0.0
C591 C 1.00864 0.46736 0.12898 0.0
H592 H 0.03232 0.42822 0.07016 0.0
H593 H 0.98242 0.39397 0.12181 0.0
H594 H 0.04822 0.47214 0.09871 0.0
H595 H 0.06209 0.46518 0.1204 0.0
H596 H 0.05881 0.45913 0.08389 0.0
H597 H 0.98051 0.40357 0.16704 0.0
H598 H 1.00315 0.42198 0.1836 0.0
H599 H 0.98761 0.42884 0.16587 0.0
H600 H 0.05537 0.47175 0.2152 0.0
H601 H 0.01777 0.48904 0.17539 0.0
H602 H 0.05725 0.44421 0.15838 0.0
H603 H 0.03874 0.42954 0.18296 0.0
H604 H 0.06222 0.44943 0.19503 0.0
H605 H 0.01501 0.46699 0.10884 0.0
H606 H 1.00644 0.47996 0.12898 0.0
H607 H 0.994 0.45378 0.13048 0.0
C608 C 0.63172 0.5895 0.11639 0.0
C609 C 0.62424 0.59379 0.09263 0.0
C610 C 0.61973 0.58039 0.13932 0.0
C611 C 0.59959 0.57472 0.13782 0.0
C612 C 0.59201 0.57915 0.11382 0.0
C613 C 0.60458 0.58899 0.09164 0.0
C614 C 0.62853 0.57662 0.16497 0.0
C615 C 0.57049 0.57279 0.11112 0.0
C616 C 0.56569 0.53384 0.1865 0.0
C617 C 0.56259 0.54412 0.20723 0.0
C618 C 0.57726 0.54355 0.16335 0.0
C619 C 0.58648 0.56408 0.16137 0.0
C620 C 0.58349 0.57454 0.18217 0.0
C621 C 0.57123 0.56441 0.2044 0.0
C622 C 0.57968 0.53185 0.14106 0.0
C623 C 0.59345 0.59649 0.18118 0.0
H624 H 0.64695 0.59317 0.11691 0.0
H625 H 0.59879 0.59202 0.07291 0.0
H626 H 0.62547 0.58263 0.1836 0.0
H627 H 0.62164 0.5607 0.16819 0.0
H628 H 0.64474 0.5832 0.16351 0.0
H629 H 0.56698 0.57745 0.09112 0.0
H630 H 0.56128 0.55667 0.11257 0.0
H631 H 0.56627 0.57887 0.1284 0.0
H632 H 0.55929 0.51825 0.18842 0.0
H633 H 0.56843 0.57253 0.21961 0.0
H634 H 0.5953 0.53584 0.14037 0.0
H635 H 0.57577 0.53527 0.12039 0.0
H636 H 0.57035 0.5159 0.14463 0.0
H637 H 0.60966 0.60317 0.18002 0.0
H638 H 0.59019 0.6025 0.19965 0.0
H639 H 0.5886 0.60097 0.16227 0.0
C640 C 0.4154 0.00917 0.11949 0.0
C641 C 0.41804 0.02043 0.09576 0.0
C642 C 0.43103 0.01407 0.1383 0.0
C643 C 0.45001 0.0303 0.13281 0.0
C644 C 0.45261 0.04216 0.10933 0.0
C645 C 0.43649 0.03719 0.0912 0.0
C646 C 0.42739 1.00134 0.1635 0.0
C647 C 0.47262 0.05935 0.10242 0.0
C648 C 0.48435 0.04511 0.19568 0.0
C649 C 0.49196 0.03281 0.19303 0.0
C650 C 0.47174 0.04562 0.17522 0.0
C651 C 0.46704 0.03396 0.1511 0.0
C652 C 0.47656 0.02335 0.1468 0.0
C653 C 0.48879 0.02277 0.1679 0.0
C654 C 0.46196 0.05712 0.18079 0.0
C655 C 0.47247 0.0112 0.12097 0.0
H656 H 0.40114 0.99617 0.12295 0.0
H657 H 0.43863 0.04569 0.07254 0.0
H658 H 0.43554 0.99359 0.16163 0.0
H659 H 0.43292 0.01041 0.1826 0.0
H660 H 0.41149 0.99031 0.16601 0.0
H661 H 0.47171 0.06857 0.0858 0.0
H662 H 0.47987 0.06851 0.12108 0.0
H663 H 0.4822 0.054 0.09524 0.0
H664 H 0.4871 0.05331 0.21475 0.0
H665 H 0.49456 0.01323 0.16553 0.0
H666 H 0.44645 0.04695 0.18677 0.0
H667 H 0.46166 0.06497 0.16188 0.0
H668 H 0.46953 0.06785 0.19788 0.0
H669 H 0.45757 0.99792 0.12217 0.0
H670 H 0.48339 0.00662 0.11853 0.0
H671 H 0.47265 0.01941 0.10219 0.0
C672 C 0.39543 0.98815 0.93632 0.0
C673 C 0.40371 1.00307 0.95618 0.0
C674 C 0.40575 0.9893 0.91235 0.0
C675 C 0.42517 1.00536 0.90884 0.0
C676 C 0.43368 0.02036 0.92911 0.0
C677 C 0.42266 0.01922 0.95232 0.0
C678 C 0.39586 0.97336 0.89075 0.0
C679 C 0.45458 0.03731 0.92665 0.0
C680 C 0.45478 0.99552 0.85737 0.0
C681 C 0.4532 1.00472 0.83336 0.0
C682 C 0.44672 0.99657 0.8826 0.0
C683 C 0.43628 0.00651 0.88362 0.0
C684 C 0.43532 0.01646 0.85982 0.0
C685 C 0.4442 0.01585 0.83528 0.0
C686 C 0.44872 0.9864 0.90787 0.0
C687 C 0.42399 0.02688 0.85977 0.0
H688 H 0.38076 0.97565 0.93946 0.0
H689 H 0.42915 0.03056 0.96804 0.0
H690 H 0.39597 0.97976 0.87016 0.0
H691 H 0.40411 0.96574 0.88877 0.0
H692 H 0.38036 0.96244 0.89596 0.0
H693 H 0.45914 0.04757 0.94447 0.0
H694 H 0.46484 0.03182 0.92556 0.0
H695 H 0.45619 0.04546 0.90719 0.0
H696 H 0.46163 0.98687 0.8563 0.0
H697 H 0.44352 0.02368 0.81725 0.0
H698 H 0.43425 0.97326 0.91245 0.0
H699 H 0.45333 0.9961 0.92633 0.0
H700 H 0.4596 0.98182 0.90482 0.0
H701 H 0.40819 0.01623 0.8637 0.0
H702 H 0.42508 0.03432 0.83973 0.0
H703 H 0.42948 0.03785 0.87669 0.0
C704 C 0.98068 0.41299 0.94793 0.0
C705 C 0.99172 0.40406 0.95277 0.0
C706 C 0.98263 0.42333 0.92338 0.0
C707 C 0.99583 0.42469 0.90291 0.0
C708 C 1.00744 0.41618 0.9079 0.0
C709 C 1.00531 0.40602 0.93285 0.0
C710 C 0.97006 0.43227 0.91898 0.0
C711 C 0.02159 0.41722 0.88649 0.0
C712 C 0.98189 0.43003 0.829 0.0
C713 C 0.99463 0.44999 0.82388 0.0
C714 C 0.98253 0.42161 0.85431 0.0
C715 C 0.99607 0.43346 0.8754 0.0
C716 C 1.00894 0.45366 0.87055 0.0
C717 C 1.0081 0.4617 0.84479 0.0
C718 C 0.96848 0.40004 0.85859 0.0
C719 C 0.02347 0.46677 0.89264 0.0
H720 H 0.9703 0.41179 0.96331 0.0
H721 H 0.01396 0.39925 0.93644 0.0
H722 H 0.97938 0.44784 0.91313 0.0
H723 H 0.95938 0.42472 0.90162 0.0
H724 H 0.96169 0.43126 0.9378 0.0
H725 H 0.03065 0.41123 0.89436 0.0
H726 H 0.01322 0.40885 0.86772 0.0
H727 H 0.03158 0.43253 0.87994 0.0
H728 H 0.97114 0.42092 0.81321 0.0
H729 H 0.01811 0.47709 0.84095 0.0
H730 H 0.95832 0.39773 0.87569 0.0
H731 H 0.97679 0.3929 0.86478 0.0
H732 H 0.95954 0.3927 0.83961 0.0
H733 H 0.01545 0.46667 0.91132 0.0
H734 H 0.03279 0.48205 0.8854 0.0
H735 H 0.0332 0.46124 0.89911 0.0
C736 C 0.61098 0.57068 0.94204 0.0
C737 C 0.61807 0.59014 0.94951 0.0
C738 C 0.59844 0.56217 0.91884 0.0
C739 C 0.59296 0.57342 0.90252 0.0
C740 C 0.59988 0.593 0.91005 0.0
C741 C 0.6123 0.60112 0.93354 0.0
C742 C 0.59128 0.54122 0.91157 0.0
C743 C 0.59447 0.6055 0.89297 0.0
C744 C 0.57911 0.55975 0.82677 0.0
C745 C 0.55853 0.55104 0.82687 0.0
C746 C 0.59042 0.56691 0.85128 0.0
C747 C 0.58092 0.56504 0.87666 0.0
C748 C 0.56008 0.55549 0.87716 0.0
C749 C 0.5491 0.54861 0.85219 0.0
C750 C 0.6126 0.57695 0.84983 0.0
C751 C 0.54943 0.55305 0.90392 0.0
H752 H 0.6152 0.562 0.95436 0.0
H753 H 0.61767 0.61613 0.93918 0.0
H754 H 0.57494 0.5327 0.90984 0.0
H755 H 0.59702 0.54052 0.89106 0.0
H756 H 0.59603 0.53416 0.92724 0.0
H757 H 0.6005 0.62022 0.90214 0.0
H758 H 0.60021 0.60717 0.87165 0.0
H759 H 0.57821 0.59833 0.89106 0.0
H760 H 0.58645 0.56136 0.8073 0.0
H761 H 0.53322 0.54201 0.85234 0.0
H762 H 0.61804 0.56962 0.86385 0.0
H763 H 0.61949 0.59226 0.85702 0.0
H764 H 0.61766 0.57699 0.82845 0.0
H765 H 0.5539 0.5459 0.91979 0.0
H766 H 0.53315 0.54426 0.90105 0.0
H767 H 0.55357 0.56757 0.91222 0.0
C768 C 0.03008 0.60968 0.90337 0.0
C769 C 0.01839 0.60748 0.92612 0.0
C770 C 0.02309 0.59553 0.88229 0.0
C771 C 1.00425 0.57839 0.88463 0.0
C772 C 0.99236 0.57612 0.90762 0.0
C773 C 0.99946 0.59089 0.92788 0.0
C774 C 0.03596 0.59884 0.85766 0.0
C775 C 0.97253 0.55778 0.91138 0.0
C776 C 0.98223 0.55023 0.81755 0.0
C777 C 0.98978 0.53777 0.81743 0.0
C778 C 0.98622 0.56308 0.83972 0.0
C779 C 0.99727 0.56288 0.86301 0.0
C780 C 1.00326 0.54903 0.86429 0.0
C781 C 0.99971 0.53684 0.84134 0.0
C782 C 0.97982 0.5778 0.83724 0.0
C783 C 0.01443 0.54784 0.88924 0.0
H784 H 0.04473 0.62252 0.90207 0.0
H785 H 0.99056 0.58905 0.94577 0.0
H786 H 0.04028 0.58772 0.85743 0.0
H787 H 0.02766 0.59724 0.83803 0.0
H788 H 0.04958 0.61352 0.85803 0.0
H789 H 0.96482 0.55856 0.92989 0.0
H790 H 0.96296 0.555 0.89275 0.0
H791 H 0.9745 0.54512 0.91374 0.0
H792 H 0.97393 0.55063 0.79965 0.0
H793 H 1.00565 0.52734 0.84163 0.0
H794 H 0.99304 0.59265 0.83546 0.0
H795 H 0.97195 0.57766 0.85609 0.0
H796 H 0.97007 0.57508 0.81879 0.0
H797 H 0.02968 0.56067 0.88956 0.0
H798 H 0.01526 0.53444 0.88895 0.0
H799 H 1.00736 0.54812 0.90876 0.0
C800 C 0.41485 0.4255 0.92795 0.0
C801 C 0.39573 0.42217 0.92919 0.0
C802 C 0.42711 0.43584 0.90569 0.0
C803 C 0.41972 0.44227 0.88369 0.0
C804 C 0.40017 0.43842 0.88457 0.0
C805 C 0.38855 0.42879 0.90767 0.0
C806 C 0.44807 0.44024 0.90599 0.0
C807 C 0.39146 0.44428 0.861 0.0
C808 C 0.45477 0.48221 0.83442 0.0
C809 C 0.4557 0.47128 0.8125 0.0
C810 C 0.44344 0.473 0.85801 0.0
C811 C 0.43218 0.45237 0.85928 0.0
C812 C 0.43283 0.44126 0.83718 0.0
C813 C 0.44495 0.4508 0.81456 0.0
C814 C 0.44363 0.48534 0.88166 0.0
C815 C 0.42066 0.41924 0.83732 0.0
H816 H 0.42046 0.42066 0.94495 0.0
H817 H 0.37375 0.42624 0.90882 0.0
H818 H 0.45037 0.43312 0.88803 0.0
H819 H 0.45846 0.45617 0.90392 0.0
H820 H 0.45186 0.43516 0.92537 0.0
H821 H 0.37581 0.43961 0.86449 0.0
H822 H 0.40005 0.46033 0.85836 0.0
H823 H 0.39233 0.43775 0.84125 0.0
H824 H 0.4628 0.49797 0.8332 0.0
H825 H 0.44604 0.44202 0.79855 0.0
H826 H 0.44781 0.48101 0.90139 0.0
H827 H 0.42866 0.48291 0.8843 0.0
H828 H 0.45407 0.50115 0.87823 0.0
H829 H 0.42567 0.41349 0.85457 0.0
H830 H 0.42168 0.41281 0.81753 0.0
H831 H 0.40494 0.4142 0.84084 0.0
C832 C 0.60002 1.00101 0.89701 0.0
C833 C 0.59811 0.98862 0.91893 0.0
C834 C 0.58468 0.99561 0.87753 0.0
C835 C 0.56672 0.97759 0.88058 0.0
C836 C 0.56493 0.96471 0.90222 0.0
C837 C 0.5808 0.97031 0.92102 0.0
C838 C 0.58747 0.00955 0.85427 0.0
C839 C 0.54592 0.94561 0.90653 0.0
C840 C 0.52633 0.98227 0.84577 0.0
C841 C 0.52585 0.97498 0.81919 0.0
C842 C 0.53803 0.98124 0.86721 0.0
C843 C 0.54976 0.97307 0.86172 0.0
C844 C 0.54758 0.96375 0.83595 0.0
C845 C 0.5354 0.96456 0.81513 0.0
C846 C 0.53939 0.9907 0.89479 0.0
C847 C 0.55975 0.95485 0.82918 0.0
H848 H 0.61344 0.01516 0.89544 0.0
H849 H 0.57924 0.96085 0.93827 0.0
H850 H 0.58363 1.00188 0.83395 0.0
H851 H 0.57747 0.0152 0.85709 0.0
H852 H 0.60286 0.02214 0.8535 0.0
H853 H 0.54786 0.93602 0.92138 0.0
H854 H 0.53476 0.94852 0.91488 0.0
H855 H 0.53995 0.9377 0.88656 0.0
H856 H 0.51896 0.99026 0.84924 0.0
H857 H 0.53464 0.95841 0.79485 0.0
H858 H 0.55328 1.00511 0.89594 0.0
H859 H 0.5397 0.9817 0.91221 0.0
H860 H 0.52684 0.99296 0.89762 0.0
H861 H 0.57506 0.96669 0.82477 0.0
H862 H 0.55379 0.94517 0.81067 0.0
H863 H 0.56048 0.94638 0.847 0.0
C864 C 0.59035 0.98266 0.06149 0.0
C865 C 0.60958 0.99874 0.05978 0.0
C866 C 0.57862 0.98036 0.08438 0.0
C867 C 0.58665 0.99413 0.10633 0.0
C868 C 0.60641 0.00993 0.10511 0.0
C869 C 0.6175 0.01227 0.08151 0.0
C870 C 0.55742 0.96376 0.08447 0.0
C871 C 0.61576 0.02455 0.12852 0.0
C872 C 0.55729 1.00496 0.15636 0.0
C873 C 0.55795 0.9952 0.18033 0.0
C874 C 0.56519 1.00344 0.13133 0.0
C875 C 0.5745 0.99242 0.13051 0.0
C876 C 0.57403 0.98151 0.15402 0.0
C877 C 0.56536 0.98269 0.17841 0.0
C878 C 0.56471 0.01467 0.1063 0.0
C879 C 0.58407 0.96984 0.15421 0.0
H880 H 0.58419 0.97243 0.04431 0.0
H881 H 0.63238 0.02472 0.07998 0.0
H882 H 0.55427 0.95525 0.10395 0.0
H883 H 0.54753 0.96971 0.08367 0.0
H884 H 0.55375 0.95375 0.06653 0.0
H885 H 0.6317 0.03504 0.12526 0.0
H886 H 0.6082 0.03287 0.1304 0.0
H887 H 0.61406 0.0169 0.14854 0.0
H888 H 0.55162 0.01465 0.15747 0.0
H889 H 0.56531 0.97452 0.1965 0.0
H890 H 0.56056 1.00556 0.08726 0.0
H891 H 0.5796 0.02763 0.10316 0.0
H892 H 0.55415 0.01971 0.1088 0.0
H893 H 0.57957 0.96025 0.13568 0.0
H894 H 0.58074 0.96071 0.17315 0.0
H895 H 0.60027 0.97995 0.15335 0.0
C896 C 1.00776 0.59599 0.07176 0.0
C897 C 0.0259 0.61335 0.06851 0.0
C898 C 1.00435 0.58408 0.09514 0.0
C899 C 0.01921 0.5901 0.11607 0.0
C900 C 0.03726 0.60805 0.11326 0.0
C901 C 0.04053 0.61925 0.08923 0.0
C902 C 0.98521 0.56475 0.09692 0.0
C903 C 0.05325 0.61534 0.13551 0.0
C904 C 1.00832 0.57082 0.18973 0.0
C905 C 0.01784 0.56013 0.19124 0.0
C906 C 1.00783 0.57998 0.16503 0.0
C907 C 0.01628 0.5777 0.14084 0.0
C908 C 0.02405 0.56529 0.14144 0.0
C909 C 0.02502 0.5569 0.16671 0.0
C910 C 0.99967 0.59331 0.16547 0.0
C911 C 0.03254 0.56189 0.11581 0.0
H912 H 0.99657 0.59134 0.05545 0.0
H913 H 0.05454 0.63272 0.08665 0.0
H914 H 0.98829 0.55274 0.0964 0.0
H915 H 0.97792 0.56355 0.11687 0.0
H916 H 0.97482 0.56261 0.07957 0.0
H917 H 0.06579 0.63023 0.13103 0.0
H918 H 0.04714 0.61556 0.15596 0.0
H919 H 0.05896 0.60534 0.13732 0.0
H920 H 1.00206 0.57286 0.20827 0.0
H921 H 0.03242 0.54871 0.16743 0.0
H922 H 0.98937 0.59021 0.14766 0.0
H923 H 0.01196 0.60865 0.16345 0.0
H924 H 0.99184 0.59196 0.18502 0.0
H925 H 0.02268 0.55905 0.09749 0.0
H926 H 0.03482 0.54941 0.11845 0.0
H927 H 0.04697 0.57513 0.11133 0.0
C928 C 0.39582 0.421 0.09609 0.0
C929 C 0.40153 0.41628 0.07149 0.0
C930 C 0.40884 0.42859 0.11903 0.0
C931 C 0.4283 0.43234 0.11679 0.0
C932 C 0.4342 0.42783 0.09175 0.0
C933 C 0.42057 0.41947 0.06954 0.0
C934 C 0.40172 0.43247 0.14569 0.0
C935 C 0.45501 0.43229 0.0882 0.0
C936 C 0.46412 0.46815 0.17088 0.0
C937 C 0.46505 0.45555 0.19046 0.0
C938 C 0.45311 0.4609 0.14599 0.0
C939 C 0.44222 0.44054 0.141 0.0
C940 C 0.44363 0.42784 0.16016 0.0
C941 C 0.45538 0.43554 0.18422 0.0
C942 C 0.45255 0.47499 0.12553 0.0
C943 C 0.43193 0.406 0.15601 0.0
H944 H 0.38106 0.41853 0.09746 0.0
H945 H 0.42501 0.41609 0.05025 0.0
H946 H 0.4039 0.4246 0.16315 0.0
H947 H 0.41045 0.44825 0.15072 0.0
H948 H 0.38588 0.42786 0.1444 0.0
H949 H 0.45737 0.42838 0.06715 0.0
H950 H 0.46558 0.44807 0.09178 0.0
H951 H 0.4585 0.42423 0.10383 0.0
H952 H 0.4714 0.4836 0.17534 0.0
H953 H 0.4565 0.42568 0.19863 0.0
H954 H 0.43783 0.47345 0.12569 0.0
H955 H 0.45494 0.47167 0.10413 0.0
H956 H 0.46387 0.49037 0.13052 0.0
H957 H 0.41593 0.40071 0.15585 0.0
H958 H 0.435 0.39816 0.17259 0.0
H959 H 0.43526 0.40211 0.13565 0.0
C960 C 0.67283 0.74611 0.44708 0.0
C961 C 0.65447 0.73864 0.43355 0.0
C962 C 0.6789 0.76026 0.46818 0.0
C963 C 0.6664 0.76721 0.47563 0.0
C964 C 0.64798 0.75986 0.46183 0.0
C965 C 0.64222 0.74564 0.44115 0.0
C966 C 0.69856 0.76762 0.48271 0.0
C967 C 0.63427 0.76695 0.46899 0.0
C968 C 0.6709 0.78818 0.54761 0.0
C969 C 0.68188 0.80835 0.54267 0.0
C970 C 0.66608 0.77471 0.52608 0.0
C971 C 0.67204 0.7815 0.49871 0.0
C972 C 0.68261 0.80181 0.49335 0.0
C973 C 0.68746 0.81502 0.51543 0.0
C974 C 0.65472 0.75319 0.53269 0.0
C975 C 0.68895 0.80957 0.46434 0.0
H976 H 0.6824 0.74085 0.44131 0.0
H977 H 0.62807 0.74015 0.4307 0.0
H978 H 0.70779 0.7837 0.4808 0.0
H979 H 0.69631 0.7642 0.50521 0.0
H980 H 0.70673 0.76107 0.47413 0.0
H981 H 0.6208 0.76033 0.45551 0.0
H982 H 0.62972 0.7634 0.49093 0.0
H983 H 0.642 0.78304 0.46689 0.0
H984 H 0.66623 0.7829 0.56853 0.0
H985 H 0.6961 0.83056 0.51149 0.0
H986 H 0.66308 0.74638 0.52594 0.0
H987 H 0.64043 0.74589 0.5211 0.0
H988 H 0.65175 0.75034 0.55523 0.0
H989 H 0.69875 0.80474 0.4563 0.0
H990 H 0.69688 0.82575 0.46358 0.0
H991 H 0.67589 0.80361 0.45017 0.0
C992 C 0.29613 0.91046 0.43186 0.0
C993 C 0.29827 0.92797 0.42189 0.0
C994 C 0.28424 0.90072 0.45455 0.0
C995 C 0.27432 0.90873 0.46788 0.0
C996 C 0.27691 0.92673 0.45865 0.0
C997 C 0.28885 0.93616 0.43566 0.0
C998 C 0.28186 0.88155 0.46375 0.0
C999 C 0.2667 0.93578 0.47267 0.0
C1000 C 0.22821 0.87413 0.50766 0.0
C1001 C 0.23543 0.87743 0.53513 0.0
C1002 C 0.24074 0.88419 0.48553 0.0
C1003 C 0.26092 0.89793 0.49108 0.0
C1004 C 0.2684 0.90093 0.51868 0.0
C1005 C 0.25559 0.89054 0.54034 0.0
C1006 C 0.23231 0.8804 0.45628 0.0
C1007 C 0.28984 0.91538 0.52539 0.0
H1008 H 0.30342 0.90401 0.42152 0.0
H1009 H 0.29043 0.94966 0.42811 0.0
H1010 H 0.28591 0.88223 0.48608 0.0
H1011 H 0.2662 0.86973 0.4613 0.0
H1012 H 0.29108 0.8776 0.45165 0.0
H1013 H 0.27097 0.95027 0.46385 0.0
H1014 H 0.25048 0.92603 0.47034 0.0
H1015 H 0.27027 0.93748 0.49526 0.0
H1016 H 0.21261 0.86422 0.50354 0.0
H1017 H 0.26129 0.89297 0.56153 0.0
H1018 H 0.24042 0.87576 0.44297 0.0
H1019 H 0.23419 0.89403 0.44726 0.0
H1020 H 0.21639 0.86898 0.45544 0.0
H1021 H 0.29936 0.91142 0.51417 0.0
H1022 H 0.29328 0.91607 0.548 0.0
H1023 H 0.29375 0.93014 0.51826 0.0
C1024 C 0.08364 0.34686 0.45162 0.0
C1025 C 0.08693 0.35733 0.42688 0.0
C1026 C 0.09872 0.35242 0.4716 0.0
C1027 C 0.11776 0.36864 0.46647 0.0
C1028 C 0.12093 0.37991 0.44212 0.0
C1029 C 0.10537 0.37419 0.42263 0.0
C1030 C 0.09447 0.34025 0.49758 0.0
C1031 C 0.141 0.39719 0.43575 0.0
C1032 C 0.14947 0.38296 0.53183 0.0
C1033 C 0.15682 0.37037 0.53049 0.0
C1034 C 0.13813 0.38405 0.50989 0.0
C1035 C 0.13434 0.37252 0.48584 0.0
C1036 C 0.14379 0.36172 0.48299 0.0
C1037 C 0.15483 0.36068 0.50542 0.0
C1038 C 0.12855 0.39592 0.51375 0.0
C1039 C 0.14058 0.34962 0.45738 0.0
H1040 H 0.06936 0.33385 0.45492 0.0
H1041 H 0.10799 0.38214 0.40331 0.0
H1042 H 0.10278 0.33259 0.49731 0.0
H1043 H 0.0994 0.3497 0.51632 0.0
H1044 H 0.07854 0.32917 0.4995 0.0
H1045 H 0.14024 0.40641 0.41901 0.0
H1046 H 0.14799 0.4063 0.45454 0.0
H1047 H 0.15071 0.39192 0.42886 0.0
H1048 H 0.15135 0.39089 0.55091 0.0
H1049 H 0.16043 0.35093 0.50406 0.0
H1050 H 0.11288 0.38603 0.51928 0.0
H1051 H 0.12878 0.40351 0.49426 0.0
H1052 H 0.13591 0.40688 0.53061 0.0
H1053 H 0.12558 0.33641 0.45772 0.0
H1054 H 0.15148 0.3449 0.45625 0.0
H1055 H 0.14156 0.35791 0.4383 0.0
C1056 C 0.07503 0.31661 0.28031 0.0
C1057 C 0.0728 0.33243 0.28667 0.0
C1058 C 0.08462 0.3165 0.25622 0.0
C1059 C 0.09223 0.3326 0.23795 0.0
C1060 C 0.08995 0.34857 0.24407 0.0
C1061 C 0.08024 0.34829 0.26835 0.0
C1062 C 0.08669 0.29917 0.25037 0.0
C1063 C 0.09785 0.36599 0.22502 0.0
C1064 C 0.13262 0.34155 0.18794 0.0
C1065 C 0.12197 0.33476 0.16282 0.0
C1066 C 0.12309 0.34062 0.2127 0.0
C1067 C 0.10242 0.33266 0.21228 0.0
C1068 C 0.09151 0.32509 0.18718 0.0
C1069 C 0.10142 0.32622 0.16278 0.0
C1070 C 0.13521 0.34876 0.2391 0.0
C1071 C 0.06945 0.3163 0.18592 0.0
H1072 H 0.06934 0.30425 0.29427 0.0
H1073 H 0.07864 0.36058 0.27308 0.0
H1074 H 0.07964 0.2926 0.23001 0.0
H1075 H 0.10251 0.30393 0.24902 0.0
H1076 H 0.07989 0.28777 0.26663 0.0
H1077 H 0.09489 0.37724 0.23274 0.0
H1078 H 0.114 0.37273 0.22285 0.0
H1079 H 0.09107 0.3613 0.20398 0.0
H1080 H 0.14853 0.34833 0.18801 0.0
H1081 H 0.09311 0.32075 0.14344 0.0
H1082 H 0.12921 0.33765 0.25581 0.0
H1083 H 0.13434 0.3614 0.24631 0.0
H1084 H 0.15095 0.35358 0.23623 0.0
H1085 H 0.06222 0.30441 0.20139 0.0
H1086 H 0.06305 0.31034 0.16501 0.0
H1087 H 0.06587 0.32753 0.19129 0.0
C1088 C 0.66162 0.73321 0.27424 0.0
C1089 C 0.64554 0.72849 0.29112 0.0
C1090 C 0.66409 0.74293 0.24881 0.0
C1091 C 0.65027 0.7482 0.24028 0.0
C1092 C 0.63423 0.74379 0.25747 0.0
C1093 C 0.63201 0.73392 0.28256 0.0
C1094 C 0.68128 0.74725 0.23085 0.0
C1095 C 0.61927 0.74931 0.24923 0.0
C1096 C 0.66408 0.78671 0.18425 0.0
C1097 C 0.6546 0.77517 0.16071 0.0
C1098 C 0.66286 0.77816 0.21032 0.0
C1099 C 0.65202 0.75759 0.21283 0.0
C1100 C 0.64229 0.74588 0.1892 0.0
C1101 C 0.64357 0.75481 0.16353 0.0
C1102 C 0.67324 0.79111 0.23514 0.0
C1103 C 0.63056 0.7239 0.19101 0.0
H1104 H 0.67214 0.72909 0.2807 0.0
H1105 H 0.61962 0.73051 0.29556 0.0
H1106 H 0.67576 0.73956 0.21064 0.0
H1107 H 0.69019 0.76308 0.22633 0.0
H1108 H 0.69102 0.74268 0.24079 0.0
H1109 H 0.60813 0.74557 0.26551 0.0
H1110 H 0.6268 0.7652 0.2451 0.0
H1111 H 0.61149 0.74168 0.22974 0.0
H1112 H 0.67281 0.80243 0.18219 0.0
H1113 H 0.63589 0.74578 0.14556 0.0
H1114 H 0.68425 0.78786 0.24397 0.0
H1115 H 0.66246 0.78815 0.25163 0.0
H1116 H 0.68088 0.80684 0.22977 0.0
H1117 H 0.64003 0.71854 0.19936 0.0
H1118 H 0.62437 0.7169 0.17051 0.0
H1119 H 0.61822 0.71914 0.20557 0.0
C1120 C 0.28188 0.93979 0.26564 0.0
C1121 C 0.28796 0.92841 0.27985 0.0
C1122 C 0.26814 0.93195 0.24345 0.0
C1123 C 0.26013 0.91221 0.23563 0.0
C1124 C 0.26581 0.90054 0.25041 0.0
C1125 C 0.27974 0.9088 0.27217 0.0
C1126 C 0.26261 0.94491 0.22789 0.0
C1127 C 0.25746 0.87939 0.2429 0.0
C1128 C 0.21425 0.88773 0.1888 0.0
C1129 C 0.22256 0.88928 0.16276 0.0
C1130 C 0.22627 0.89501 0.21285 0.0
C1131 C 0.24701 0.90415 0.21066 0.0
C1132 C 0.25538 0.90535 0.18451 0.0
C1133 C 0.24305 0.8977 0.16102 0.0
C1134 C 0.21683 0.8932 0.24051 0.0
C1135 C 0.2774 0.91496 0.18123 0.0
H1136 H 0.28811 0.95492 0.27152 0.0
H1137 H 0.28414 0.8998 0.28327 0.0
H1138 H 0.26745 0.94653 0.20605 0.0
H1139 H 0.24636 0.93816 0.22734 0.0
H1140 H 0.2694 0.95963 0.23738 0.0
H1141 H 0.26229 0.87194 0.25775 0.0
H1142 H 0.24111 0.87148 0.24242 0.0
H1143 H 0.26222 0.87835 0.2218 0.0
H1144 H 0.19845 0.88132 0.19024 0.0
H1145 H 0.24954 0.89854 0.14105 0.0
H1146 H 0.22202 0.90792 0.24908 0.0
H1147 H 0.22131 0.88561 0.25561 0.0
H1148 H 0.20048 0.88509 0.23885 0.0
H1149 H 0.28494 0.9302 0.18896 0.0
H1150 H 0.28155 0.91516 0.15926 0.0
H1151 H 0.28302 0.90716 0.19386 0.0
C1152 C 0.71447 0.93744 0.24567 0.0
C1153 C 0.70194 0.94398 0.25385 0.0
C1154 C 0.70877 0.92332 0.22485 0.0
C1155 C 0.69014 0.91557 0.21155 0.0
C1156 C 0.67739 0.92211 0.21953 0.0
C1157 C 0.68341 0.93618 0.24071 0.0
C1158 C 0.72276 0.91669 0.21708 0.0
C1159 C 0.65748 0.91431 0.20556 0.0
C1160 C 0.68467 0.89417 0.1396 0.0
C1161 C 0.67409 0.87404 0.14489 0.0
C1162 C 0.6897 0.90777 0.16102 0.0
C1163 C 0.68439 0.90116 0.18861 0.0
C1164 C 0.67424 0.8809 0.1943 0.0
C1165 C 0.66914 0.86756 0.17234 0.0
C1166 C 0.70057 0.92923 0.15405 0.0
C1167 C 0.66856 0.87332 0.22352 0.0
H1168 H 0.72877 0.94323 0.25576 0.0
H1169 H 0.67362 0.94109 0.24692 0.0
H1170 H 0.71545 0.90065 0.21944 0.0
H1171 H 0.72682 0.92012 0.19495 0.0
H1172 H 0.73649 0.92373 0.23002 0.0
H1173 H 0.64922 0.9207 0.21435 0.0
H1174 H 0.65933 0.91753 0.18298 0.0
H1175 H 0.64851 0.89823 0.20779 0.0
H1176 H 0.68886 0.89933 0.11852 0.0
H1177 H 0.66081 0.85205 0.17656 0.0
H1178 H 0.71507 0.93685 0.16508 0.0
H1179 H 0.6921 0.93583 0.16119 0.0
H1180 H 0.70306 0.93193 0.1314 0.0
H1181 H 0.6819 0.87965 0.23721 0.0
H1182 H 0.66098 0.85717 0.22454 0.0
H1183 H 0.65867 0.8779 0.23197 0.0
C1184 C 0.06606 0.74973 0.2533 0.0
C1185 C 0.0591 0.75823 0.27164 0.0
C1186 C 0.07757 0.76019 0.23046 0.0
C1187 C 0.08227 0.7796 0.22584 0.0
C1188 C 0.075 0.78813 0.24396 0.0
C1189 C 0.06351 0.77736 0.26657 0.0
C1190 C 0.08497 0.75056 0.21147 0.0
C1191 C 0.07962 0.80876 0.23971 0.0
C1192 C 0.12747 0.81169 0.18249 0.0
C1193 C 0.11895 0.81026 0.15614 0.0
C1194 C 0.11568 0.8022 0.20555 0.0
C1195 C 0.09489 0.79102 0.20214 0.0
C1196 C 0.08619 0.79026 0.17585 0.0
C1197 C 0.09832 0.79992 0.15321 0.0
C1198 C 0.1255 0.80347 0.2333 0.0
C1199 C 0.0641 0.77865 0.17139 0.0
H1200 H 0.06277 0.735 0.25702 0.0
H1201 H 0.05823 0.78411 0.28057 0.0
H1202 H 0.08002 0.75063 0.18977 0.0
H1203 H 0.10134 0.75889 0.21174 0.0
H1204 H 0.07973 0.73526 0.21758 0.0
H1205 H 0.07247 0.81311 0.25531 0.0
H1206 H 0.0958 0.81903 0.2411 0.0
H1207 H 0.07467 0.81033 0.21865 0.0
H1208 H 0.14339 0.81947 0.18483 0.0
H1209 H 0.09166 0.79894 0.13292 0.0
H1210 H 0.12259 0.78884 0.23934 0.0
H1211 H 0.11926 0.80829 0.24962 0.0
H1212 H 0.14172 0.81372 0.23291 0.0
H1213 H 0.05848 0.76296 0.17496 0.0
H1214 H 0.05963 0.78042 0.15006 0.0
H1215 H 0.05686 0.78318 0.18655 0.0
C1216 C 0.2639 0.32066 0.25454 0.0
C1217 C 0.26992 0.33611 0.2733 0.0
C1218 C 0.25139 0.31817 0.23171 0.0
C1219 C 0.24473 0.33139 0.22769 0.0
C1220 C 0.2503 0.34662 0.24703 0.0
C1221 C 0.26279 0.34879 0.26947 0.0
C1222 C 0.24575 0.30176 0.21146 0.0
C1223 C 0.24357 0.36105 0.24356 0.0
C1224 C 0.23279 0.34188 0.15538 0.0
C1225 C 0.21209 0.3316 0.15504 0.0
C1226 C 0.2435 0.34137 0.17854 0.0
C1227 C 0.23331 0.33047 0.2022 0.0
C1228 C 0.21241 0.32006 0.20209 0.0
C1229 C 0.20202 0.32078 0.17849 0.0
C1230 C 0.26576 0.35287 0.17785 0.0
C1231 C 0.20106 0.30835 0.22699 0.0
H1232 H 0.26925 0.31076 0.25738 0.0
H1233 H 0.26712 0.36068 0.28396 0.0
H1234 H 0.22951 0.29311 0.20831 0.0
H1235 H 0.25231 0.30786 0.19097 0.0
H1236 H 0.25084 0.29187 0.21861 0.0
H1237 H 0.24818 0.3713 0.26139 0.0
H1238 H 0.24981 0.36966 0.22434 0.0
H1239 H 0.22728 0.35326 0.24131 0.0
H1240 H 0.24069 0.35056 0.13753 0.0
H1241 H 0.18604 0.3127 0.17824 0.0
H1242 H 0.27163 0.34329 0.18301 0.0
H1243 H 0.27169 0.3646 0.19374 0.0
H1244 H 0.27138 0.35962 0.15724 0.0
H1245 H 0.20553 0.29774 0.23277 0.0
H1246 H 0.18486 0.3003 0.22311 0.0
H1247 H 0.20456 0.31817 0.24508 0.0
C1248 C 0.25876 0.31804 0.41219 0.0
C1249 C 0.27828 0.33372 0.41376 0.0
C1250 C 0.24551 0.31475 0.43346 0.0
C1251 C 0.2522 0.32713 0.45705 0.0
C1252 C 0.27227 0.34221 0.4594 0.0
C1253 C 0.28498 0.34555 0.43746 0.0
C1254 C 0.22415 0.29887 0.42987 0.0
C1255 C 0.28016 0.35533 0.48464 0.0
C1256 C 0.22098 0.33891 0.5016 0.0
C1257 C 0.21925 0.32822 0.52569 0.0
C1258 C 0.23019 0.33735 0.47799 0.0
C1259 C 0.23827 0.3252 0.47881 0.0
C1260 C 0.23515 0.3132 0.50218 0.0
C1261 C 0.22534 0.31459 0.52512 0.0
C1262 C 0.23261 0.34986 0.45301 0.0
C1263 C 0.24367 0.30019 0.50404 0.0
H1264 H 0.25355 0.30913 0.39356 0.0
H1265 H 0.30009 0.35769 0.43854 0.0
H1266 H 0.21866 0.28995 0.44899 0.0
H1267 H 0.21509 0.30558 0.42616 0.0
H1268 H 0.22181 0.28911 0.41209 0.0
H1269 H 0.29645 0.3651 0.48436 0.0
H1270 H 0.27345 0.36448 0.48555 0.0
H1271 H 0.27614 0.34647 0.5039 0.0
H1272 H 0.21631 0.34944 0.50171 0.0
H1273 H 0.22349 0.30579 0.54333 0.0
H1274 H 0.2294 0.34134 0.43353 0.0
H1275 H 0.24809 0.3622 0.4522 0.0
H1276 H 0.22279 0.3559 0.45375 0.0
H1277 H 0.24072 0.29173 0.48459 0.0
H1278 H 0.23766 0.28987 0.52175 0.0
H1279 H 0.25992 0.30935 0.50688 0.0
C1280 C 0.72125 0.94728 0.40508 0.0
C1281 C 0.7079 0.95297 0.39662 0.0
C1282 C 0.71899 0.93737 0.43015 0.0
C1283 C 0.70307 0.93314 0.44748 0.0
C1284 C 0.68937 0.9386 0.43901 0.0
C1285 C 0.69188 0.94838 0.41358 0.0
C1286 C 0.73385 0.93169 0.43826 0.0
C1287 C 0.67229 0.93446 0.45709 0.0
C1288 C 0.69009 0.89494 0.50391 0.0
C1289 C 0.69997 0.90662 0.5272 0.0
C1290 C 0.69077 0.90334 0.47786 0.0
C1291 C 0.70149 0.9239 0.47507 0.0
C1292 C 0.71157 0.93574 0.49845 0.0
C1293 C 0.71081 0.92697 0.5241 0.0
C1294 C 0.68001 0.89023 0.45333 0.0
C1295 C 0.72324 0.95771 0.49638 0.0
H1296 H 0.73358 0.95056 0.39205 0.0
H1297 H 0.68149 0.95268 0.4072 0.0
H1298 H 0.74184 0.93944 0.45759 0.0
H1299 H 0.72623 0.91583 0.44263 0.0
H1300 H 0.74483 0.9352 0.42182 0.0
H1301 H 0.66251 0.93895 0.44709 0.0
H1302 H 0.66341 0.91867 0.46191 0.0
H1303 H 0.67794 0.94233 0.47714 0.0
H1304 H 0.6815 0.87923 0.50617 0.0
H1305 H 0.71877 0.93612 0.54185 0.0
H1306 H 0.69058 0.89291 0.43664 0.0
H1307 H 0.66905 0.8936 0.44462 0.0
H1308 H 0.67226 0.87454 0.45896 0.0
H1309 H 0.73549 0.9624 0.48167 0.0
H1310 H 0.72955 0.96484 0.51678 0.0
H1311 H 0.71369 0.963 0.48808 0.0
C1312 C 0.06681 0.74831 0.43622 0.0
C1313 C 0.07005 0.74282 0.4103 0.0
C1314 C 0.08148 0.75556 0.4571 0.0
C1315 C 0.10012 0.75804 0.45155 0.0
C1316 C 0.10334 0.75208 0.42555 0.0
C1317 C 0.0881 0.74424 0.4053 0.0
C1318 C 0.07718 0.76112 0.48484 0.0
C1319 C 0.12314 0.75494 0.41859 0.0
C1320 C 0.13923 0.79705 0.49868 0.0
C1321 C 0.14052 0.78577 0.52012 0.0
C1322 C 0.12742 0.78821 0.47489 0.0
C1323 C 0.11626 0.7676 0.47281 0.0
C1324 C 0.11866 0.75623 0.49333 0.0
C1325 C 0.13101 0.76548 0.51647 0.0
C1326 C 0.12576 0.80089 0.45297 0.0
C1327 C 0.10691 0.73423 0.49214 0.0
H1328 H 0.05281 0.74717 0.44002 0.0
H1329 H 0.09067 0.74025 0.38504 0.0
H1330 H 0.08092 0.75417 0.50197 0.0
H1331 H 0.08646 0.77713 0.48781 0.0
H1332 H 0.06146 0.75674 0.48658 0.0
H1333 H 0.12266 0.74777 0.3987 0.0
H1334 H 0.1341 0.77077 0.41686 0.0
H1335 H 0.12844 0.74913 0.43539 0.0
H1336 H 0.14643 0.81271 0.50117 0.0
H1337 H 0.13235 0.75666 0.53255 0.0
H1338 H 0.11138 0.79998 0.45476 0.0
H1339 H 0.1263 0.79575 0.43186 0.0
H1340 H 0.1377 0.81641 0.45517 0.0
H1341 H 0.09126 0.72896 0.49665 0.0
H1342 H 0.11241 0.72764 0.50749 0.0
H1343 H 0.1073 0.72895 0.47109 0.0
C1344 C 0.31999 0.0724 0.78187 0.0
C1345 C 0.33168 0.07531 0.75883 0.0
C1346 C 0.3268 0.08617 0.80343 0.0
C1347 C 0.34538 0.10364 0.80124 0.0
C1348 C 0.35725 0.10662 0.77794 0.0
C1349 C 0.35038 0.0922 0.75721 0.0
C1350 C 0.314 0.08212 0.82839 0.0
C1351 C 0.37678 0.12534 0.77433 0.0
C1352 C 0.34891 0.14414 0.84586 0.0
C1353 C 0.35943 0.14352 0.86927 0.0
C1354 C 0.34544 0.13219 0.82266 0.0
C1355 C 0.35205 0.11883 0.82323 0.0
C1356 C 0.36355 0.11885 0.84608 0.0
C1357 C 0.3675 0.13151 0.86846 0.0
C1358 C 0.33377 0.13315 0.79816 0.0
C1359 C 0.37058 0.10459 0.8478 0.0
H1360 H 0.30551 0.05932 0.78299 0.0
H1361 H 0.35923 0.09454 0.73906 0.0
H1362 H 0.32255 0.08382 0.8478 0.0
H1363 H 0.30912 0.0928 0.82923 0.0
H1364 H 0.30072 0.06721 0.8279 0.0
H1365 H 0.38456 0.12506 0.75556 0.0
H1366 H 0.3743 0.13772 0.7725 0.0
H1367 H 0.3865 0.1282 0.79279 0.0
H1368 H 0.34252 0.15325 0.84608 0.0
H1369 H 0.37627 0.13138 0.88592 0.0
H1370 H 0.31873 0.12001 0.79791 0.0
H1371 H 0.34081 0.13334 0.77837 0.0
H1372 H 0.33241 0.14625 0.799 0.0
H1373 H 0.35765 0.08954 0.84928 0.0
H1374 H 0.38044 0.10733 0.86612 0.0
H1375 H 0.37854 0.10527 0.82875 0.0
C1376 C 0.9357 0.26198 0.76067 0.0
C1377 C 0.95501 0.26577 0.76237 0.0
C1378 C 0.9224 0.25199 0.78209 0.0
C1379 C 0.92888 0.24635 0.80606 0.0
C1380 C 0.9487 0.25104 0.80834 0.0
C1381 C 0.96143 0.26033 0.78615 0.0
C1382 C 0.90123 0.24672 0.77854 0.0
C1383 C 0.95638 0.24595 0.83401 0.0
C1384 C 0.8997 0.2355 0.87195 0.0
C1385 C 0.89043 0.21509 0.87389 0.0
C1386 C 0.91227 0.24582 0.85009 0.0
C1387 C 0.91498 0.23548 0.82878 0.0
C1388 C 0.90495 0.21485 0.82971 0.0
C1389 C 0.89303 0.20491 0.85248 0.0
C1390 C 0.92306 0.26783 0.85023 0.0
C1391 C 0.90703 0.20331 0.80685 0.0
H1392 H 0.9307 0.26586 0.74192 0.0
H1393 H 0.97638 0.2632 0.78723 0.0
H1394 H 0.89138 0.23062 0.77871 0.0
H1395 H 0.89695 0.25252 0.79611 0.0
H1396 H 0.89863 0.25242 0.75882 0.0
H1397 H 0.97251 0.25188 0.83328 0.0
H1398 H 0.95325 0.25174 0.85281 0.0
H1399 H 0.94874 0.22989 0.83626 0.0
H1400 H 0.89726 0.24356 0.88769 0.0
H1401 H 0.88607 0.18921 0.85369 0.0
H1402 H 0.91917 0.27315 0.83126 0.0
H1403 H 0.93921 0.27391 0.85005 0.0
H1404 H 0.9196 0.27367 0.86869 0.0
H1405 H 0.90403 0.20774 0.78631 0.0
H1406 H 0.89687 0.18735 0.80936 0.0
H1407 H 0.92238 0.20639 0.80672 0.0
C1408 C 0.75171 0.68708 0.79118 0.0
C1409 C 0.75427 0.69693 0.76601 0.0
C1410 C 0.76747 0.6928 0.81001 0.0
C1411 C 0.78644 0.70857 0.80327 0.0
C1412 C 0.78887 0.71935 0.77862 0.0
C1413 C 0.77265 0.71346 0.76029 0.0
C1414 C 0.76402 0.68116 0.83636 0.0
C1415 C 0.8088 0.7362 0.77062 0.0
C1416 C 0.82047 0.72279 0.86608 0.0
C1417 C 0.82702 0.70959 0.86388 0.0
C1418 C 0.80873 0.72419 0.84504 0.0
C1419 C 0.80365 0.71229 0.82111 0.0
C1420 C 0.81236 0.70089 0.81724 0.0
C1421 C 0.82389 0.69961 0.83873 0.0
C1422 C 0.80005 0.73676 0.84989 0.0
C1423 C 0.80776 0.68836 0.7917 0.0
H1424 H 0.73747 0.67432 0.79562 0.0
H1425 H 0.77471 0.72094 0.74064 0.0
H1426 H 0.77191 0.6731 0.83543 0.0
H1427 H 0.76995 0.69101 0.85465 0.0
H1428 H 0.74813 0.67046 0.83962 0.0
H1429 H 0.80754 0.74542 0.75434 0.0
H1430 H 0.81686 0.74544 0.78891 0.0
H1431 H 0.81777 0.73046 0.76236 0.0
H1432 H 0.82321 0.73089 0.88524 0.0
H1433 H 0.82888 0.6894 0.83675 0.0
H1434 H 0.78463 0.72744 0.85687 0.0
H1435 H 0.79968 0.74411 0.83045 0.0
H1436 H 0.80847 0.748 0.86611 0.0
H1437 H 0.7926 0.67548 0.79309 0.0
H1438 H 0.81817 0.68311 0.78956 0.0
H1439 H 0.80832 0.69654 0.77269 0.0
C1440 C 0.74339 0.65459 0.62394 0.0
C1441 C 0.73964 0.66969 0.62819 0.0
C1442 C 0.75316 0.65412 0.60028 0.0
C1443 C 0.75933 0.66908 0.58025 0.0
C1444 C 0.75553 0.68431 0.58426 0.0
C1445 C 0.74574 0.68445 0.60821 0.0
C1446 C 0.75692 0.63763 0.59674 0.0
C1447 C 0.76181 0.70047 0.56323 0.0
C1448 C 0.79963 0.67871 0.52965 0.0
C1449 C 0.78859 0.67 0.50532 0.0
C1450 C 0.79028 0.67812 0.55445 0.0
C1451 C 0.76943 0.6686 0.55483 0.0
C1452 C 0.75822 0.65901 0.53064 0.0
C1453 C 0.76793 0.65977 0.50623 0.0
C1454 C 0.80272 0.68836 0.57991 0.0
C1455 C 0.73597 0.64857 0.53023 0.0
H1456 H 0.73878 0.64311 0.63924 0.0
H1457 H 0.74295 0.69617 0.6113 0.0
H1458 H 0.74972 0.62954 0.57726 0.0
H1459 H 0.77297 0.64354 0.59492 0.0
H1460 H 0.75133 0.62721 0.61437 0.0
H1461 H 0.75785 0.71129 0.56947 0.0
H1462 H 0.778 0.70814 0.56049 0.0
H1463 H 0.75476 0.69426 0.54274 0.0
H1464 H 0.81559 0.68678 0.52897 0.0
H1465 H 0.75934 0.65283 0.48752 0.0
H1466 H 0.79774 0.67829 0.59792 0.0
H1467 H 0.80096 0.70078 0.58536 0.0
H1468 H 0.81863 0.69399 0.57672 0.0
H1469 H 0.72991 0.63762 0.54714 0.0
H1470 H 0.72941 0.64109 0.51012 0.0
H1471 H 0.73125 0.65917 0.53399 0.0
C1472 C 0.34763 0.08706 0.61364 0.0
C1473 C 0.32855 0.07081 0.61613 0.0
C1474 C 0.35277 0.09929 0.59028 0.0
C1475 C 0.33866 0.09467 0.56862 0.0
C1476 C 0.31961 0.07779 0.57067 0.0
C1477 C 0.31468 0.06629 0.59467 0.0
C1478 C 0.37297 0.1175 0.58928 0.0
C1479 C 0.30432 0.07197 0.54765 0.0
C1480 C 0.33735 0.12988 0.51711 0.0
C1481 C 0.34381 0.1254 0.49291 0.0
C1482 C 0.33735 0.12131 0.54268 0.0
C1483 C 0.34337 0.1075 0.54389 0.0
C1484 C 0.35139 0.10412 0.52012 0.0
C1485 C 0.35193 0.11347 0.49511 0.0
C1486 C 0.32944 0.12591 0.56787 0.0
C1487 C 0.35772 0.08931 0.52034 0.0
H1488 H 0.35826 0.09066 0.6305 0.0
H1489 H 0.29995 0.05366 0.59664 0.0
H1490 H 0.3803 0.11813 0.56959 0.0
H1491 H 0.37149 0.13051 0.58981 0.0
H1492 H 0.38261 0.11839 0.60698 0.0
H1493 H 0.29077 0.05767 0.55162 0.0
H1494 H 0.30015 0.08315 0.5454 0.0
H1495 H 0.31049 0.07114 0.52757 0.0
H1496 H 0.33106 0.13907 0.51586 0.0
H1497 H 0.35766 0.11045 0.4768 0.0
H1498 H 0.33868 0.12776 0.58656 0.0
H1499 H 0.31429 0.11363 0.57192 0.0
H1500 H 0.32884 0.13936 0.56491 0.0
H1501 H 0.36717 0.0913 0.5388 0.0
H1502 H 0.36585 0.09015 0.50134 0.0
H1503 H 0.34446 0.07444 0.52156 0.0
C1504 C 0.94458 0.27356 0.60406 0.0
C1505 C 0.95039 0.2625 0.61974 0.0
C1506 C 0.93226 0.26563 0.58042 0.0
C1507 C 0.92554 0.24618 0.57241 0.0
C1508 C 0.93106 0.23485 0.58843 0.0
C1509 C 0.94345 0.24315 0.61181 0.0
C1510 C 0.92676 0.27819 0.5637 0.0
C1511 C 0.92416 0.21404 0.58061 0.0
C1512 C 0.88204 0.2209 0.52154 0.0
C1513 C 0.89168 0.22352 0.49636 0.0
C1514 C 0.89285 0.22804 0.5466 0.0
C1515 C 0.91372 0.23803 0.54634 0.0
C1516 C 0.92346 0.24023 0.52106 0.0
C1517 C 0.91233 0.23284 0.49646 0.0
C1518 C 0.88197 0.22528 0.57323 0.0
C1519 C 0.94568 0.25068 0.51988 0.0
H1520 H 0.94982 0.28849 0.61005 0.0
H1521 H 0.94772 0.2344 0.62388 0.0
H1522 H 0.93272 0.28028 0.54246 0.0
H1523 H 0.91049 0.27085 0.56151 0.0
H1524 H 0.93252 0.29275 0.57333 0.0
H1525 H 0.92892 0.20687 0.59609 0.0
H1526 H 0.90784 0.2054 0.57865 0.0
H1527 H 0.93009 0.21369 0.56009 0.0
H1528 H 0.86611 0.2138 0.52152 0.0
H1529 H 0.91983 0.23459 0.4771 0.0
H1530 H 0.8861 0.23969 0.58197 0.0
H1531 H 0.88626 0.21786 0.58891 0.0
H1532 H 0.86571 0.21657 0.57008 0.0
H1533 H 0.95226 0.26584 0.5276 0.0
H1534 H 0.95094 0.25119 0.49849 0.0
H1535 H 0.95123 0.24331 0.5336 0.0
C1536 C 0.339 0.26695 0.58197 0.0
C1537 C 0.35564 0.27155 0.59851 0.0
C1538 C 0.33333 0.25391 0.55944 0.0
C1539 C 0.3445 0.24521 0.55345 0.0
C1540 C 0.36105 0.2495 0.57042 0.0
C1541 C 0.36644 0.26263 0.5926 0.0
C1542 C 0.31567 0.24978 0.54168 0.0
C1543 C 0.37334 0.24052 0.56483 0.0
C1544 C 0.32402 0.20055 0.50641 0.0
C1545 C 0.33332 0.209 0.48129 0.0
C1546 C 0.32716 0.21216 0.52999 0.0
C1547 C 0.33985 0.23267 0.52837 0.0
C1548 C 0.34911 0.24125 0.50301 0.0
C1549 C 0.34586 0.22934 0.47994 0.0
C1550 C 0.31711 0.20248 0.55673 0.0
C1551 C 0.36282 0.26303 0.50035 0.0
H1552 H 0.33052 0.27369 0.58641 0.0
H1553 H 0.37922 0.26591 0.60535 0.0
H1554 H 0.32043 0.25513 0.52024 0.0
H1555 H 0.3051 0.23384 0.54028 0.0
H1556 H 0.30791 0.25686 0.54994 0.0
H1557 H 0.38508 0.2445 0.58091 0.0
H1558 H 0.36383 0.2244 0.56402 0.0
H1559 H 0.38039 0.24541 0.54431 0.0
H1560 H 0.31418 0.18489 0.50759 0.0
H1561 H 0.35344 0.236 0.46082 0.0
H1562 H 0.30839 0.20875 0.56411 0.0
H1563 H 0.32835 0.20531 0.5731 0.0
H1564 H 0.30716 0.18646 0.55435 0.0
H1565 H 0.35529 0.27073 0.50691 0.0
H1566 H 0.368 0.26749 0.47877 0.0
H1567 H 0.37588 0.26795 0.51428 0.0
C1568 C 0.72092 0.09185 0.5685 0.0
C1569 C 0.72753 0.08702 0.59268 0.0
C1570 C 0.73361 0.10102 0.54622 0.0
C1571 C 0.75358 0.10623 0.54879 0.0
C1572 C 0.76026 0.10119 0.57317 0.0
C1573 C 0.74701 0.09131 0.5947 0.0
C1574 C 0.72572 0.10544 0.52015 0.0
C1575 C 0.78158 0.10703 0.57704 0.0
C1576 C 0.78331 0.11708 0.48336 0.0
C1577 C 0.79217 0.13743 0.48093 0.0
C1578 C 0.77066 0.10677 0.50518 0.0
C1579 C 0.76746 0.11708 0.526 0.0
C1580 C 0.77702 0.13767 0.52456 0.0
C1581 C 0.78901 0.14757 0.50182 0.0
C1582 C 0.76039 0.08479 0.50558 0.0
C1583 C 0.77441 0.14921 0.54688 0.0
H1584 H 0.70584 0.08861 0.56718 0.0
H1585 H 0.75215 0.08791 0.61374 0.0
H1586 H 0.73296 0.12144 0.51745 0.0
H1587 H 0.72918 0.09963 0.50168 0.0
H1588 H 0.70952 0.09909 0.52069 0.0
H1589 H 0.78432 0.10171 0.59703 0.0
H1590 H 0.78616 0.10125 0.5598 0.0
H1591 H 0.7911 0.12316 0.57652 0.0
H1592 H 0.78615 0.10905 0.46806 0.0
H1593 H 0.79562 0.16321 0.50024 0.0
H1594 H 0.74417 0.07833 0.5056 0.0
H1595 H 0.76444 0.07989 0.52484 0.0
H1596 H 0.76415 0.07895 0.48743 0.0
H1597 H 0.75891 0.14566 0.54673 0.0
H1598 H 0.78421 0.16519 0.544 0.0
H1599 H 0.77755 0.14521 0.56766 0.0
C1600 C 0.93985 0.69497 0.60626 0.0
C1601 C 0.94505 0.68073 0.60916 0.0
C1602 C 0.92726 0.69407 0.58468 0.0
C1603 C 0.91974 0.67865 0.5652 0.0
C1604 C 0.92484 0.66416 0.56794 0.0
C1605 C 0.93737 0.66533 0.58997 0.0
C1606 C 0.92215 0.70977 0.58262 0.0
C1607 C 0.91723 0.64759 0.54739 0.0
C1608 C 0.87509 0.66845 0.52052 0.0
C1609 C 0.88403 0.67802 0.49576 0.0
C1610 C 0.88651 0.6685 0.54335 0.0
C1611 C 0.90731 0.67829 0.54128 0.0
C1612 C 0.9164 0.6883 0.51653 0.0
C1613 C 0.90469 0.68819 0.49424 0.0
C1614 C 0.87631 0.65788 0.56954 0.0
C1615 C 0.93851 0.69899 0.51345 0.0
H1616 H 0.94553 0.70688 0.62104 0.0
H1617 H 0.94125 0.65424 0.59205 0.0
H1618 H 0.92764 0.71786 0.56283 0.0
H1619 H 0.90591 0.7031 0.58242 0.0
H1620 H 0.92858 0.72035 0.60009 0.0
H1621 H 0.92214 0.63724 0.55277 0.0
H1622 H 0.90088 0.63947 0.54649 0.0
H1623 H 0.92245 0.65345 0.52628 0.0
H1624 H 0.85916 0.66045 0.52176 0.0
H1625 H 0.91175 0.69592 0.47535 0.0
H1626 H 0.88207 0.66806 0.58749 0.0
H1627 H 0.87947 0.64616 0.57395 0.0
H1628 H 0.86007 0.65129 0.56802 0.0
H1629 H 0.94576 0.71073 0.52927 0.0
H1630 H 0.94321 0.70559 0.49253 0.0
H1631 H 0.9439 0.68885 0.51709 0.0
C1632 C 0.95273 0.67834 0.77342 0.0
C1633 C 0.94668 0.66777 0.74855 0.0
C1634 C 0.93926 0.67447 0.79447 0.0
C1635 C 0.91911 0.66008 0.7901 0.0
C1636 C 0.91309 0.64869 0.76551 0.0
C1637 C 0.92706 0.65256 0.74505 0.0
C1638 C 0.94644 0.68655 0.82075 0.0
C1639 C 0.89174 0.63345 0.7599 0.0
C1640 C 0.8906 0.64808 0.85648 0.0
C1641 C 0.88589 0.66273 0.85676 0.0
C1642 C 0.9001 0.64588 0.83381 0.0
C1643 C 0.90449 0.65828 0.81058 0.0
C1644 C 0.89758 0.67141 0.80934 0.0
C1645 C 0.8885 0.67362 0.83258 0.0
C1646 C 0.90717 0.63169 0.836 0.0
C1647 C 0.90141 0.68445 0.78451 0.0
H1648 H 0.96793 0.69012 0.776 0.0
H1649 H 0.92237 0.64462 0.72554 0.0
H1650 H 0.94035 0.69625 0.82159 0.0
H1651 H 0.9412 0.67697 0.8393 0.0
H1652 H 0.96278 0.69572 0.82202 0.0
H1653 H 0.89 0.62369 0.74242 0.0
H1654 H 0.88489 0.62446 0.77863 0.0
H1655 H 0.88349 0.64079 0.75448 0.0
H1656 H 0.88807 0.6392 0.87482 0.0
H1657 H 0.88484 0.6849 0.83251 0.0
H1658 H 0.92324 0.63984 0.84079 0.0
H1659 H 0.90484 0.62388 0.81608 0.0
H1660 H 0.89959 0.6208 0.85272 0.0
H1661 H 0.91718 0.69624 0.78464 0.0
H1662 H 0.89228 0.69127 0.78467 0.0
H1663 H 0.89836 0.67612 0.76489 0.0
C1664 C 0.37049 0.28578 0.76316 0.0
C1665 C 0.35641 0.28021 0.74167 0.0
C1666 C 0.3665 0.2744 0.78716 0.0
C1667 C 0.34819 0.25666 0.78936 0.0
C1668 C 0.33372 0.25113 0.76794 0.0
C1669 C 0.33792 0.26315 0.74444 0.0
C1670 C 0.38212 0.28116 0.80988 0.0
C1671 C 0.31423 0.23212 0.7692 0.0
C1672 C 0.35289 0.22221 0.83885 0.0
C1673 C 0.34606 0.22555 0.86364 0.0
C1674 C 0.35212 0.231 0.81385 0.0
C1675 C 0.34477 0.24377 0.81375 0.0
C1676 C 0.33654 0.24606 0.83818 0.0
C1677 C 0.33699 0.23667 0.86268 0.0
C1678 C 0.36048 0.22769 0.78801 0.0
C1679 C 0.32871 0.25965 0.8391 0.0
H1680 H 0.38476 0.29902 0.76106 0.0
H1681 H 0.32712 0.25871 0.72764 0.0
H1682 H 0.3758 0.28127 0.83019 0.0
H1683 H 0.38752 0.2709 0.81165 0.0
H1684 H 0.39492 0.296 0.8059 0.0
H1685 H 0.30394 0.23076 0.75214 0.0
H1686 H 0.31678 0.21981 0.76764 0.0
H1687 H 0.30709 0.23068 0.78938 0.0
H1688 H 0.35994 0.2137 0.8392 0.0
H1689 H 0.33108 0.23885 0.88148 0.0
H1690 H 0.37498 0.24088 0.78366 0.0
H1691 H 0.35064 0.22512 0.76976 0.0
H1692 H 0.36259 0.21508 0.79028 0.0
H1693 H 0.34122 0.27495 0.838 0.0
H1694 H 0.32056 0.2579 0.85846 0.0
H1695 H 0.31881 0.25719 0.821 0.0
C1696 C 0.73782 0.07947 0.75128 0.0
C1697 C 0.73175 0.09035 0.73563 0.0
C1698 C 0.75009 0.08751 0.77496 0.0
C1699 C 0.75649 0.10688 0.7831 0.0
C1700 C 0.75067 0.118 0.76715 0.0
C1701 C 0.73837 0.10961 0.74371 0.0
C1702 C 0.75593 0.07517 0.79156 0.0
C1703 C 0.75718 0.1387 0.7751 0.0
C1704 C 0.76981 0.12036 0.85907 0.0
C1705 C 0.79048 0.1301 0.85903 0.0
C1706 C 0.75864 0.11279 0.83453 0.0
C1707 C 0.76834 0.11518 0.80915 0.0
C1708 C 0.78924 0.12559 0.80876 0.0
C1709 C 0.80009 0.13294 0.83376 0.0
C1710 C 0.73641 0.10191 0.83587 0.0
C1711 C 0.80009 0.12855 0.78205 0.0
H1712 H 0.73284 0.06463 0.74518 0.0
H1713 H 0.7339 0.11823 0.73172 0.0
H1714 H 0.77223 0.08276 0.79365 0.0
H1715 H 0.75002 0.07297 0.81285 0.0
H1716 H 0.75039 0.06067 0.78189 0.0
H1717 H 0.75213 0.1457 0.75976 0.0
H1718 H 0.75125 0.13886 0.79571 0.0
H1719 H 0.7735 0.14761 0.77693 0.0
H1720 H 0.76232 0.11837 0.87852 0.0
H1721 H 0.81604 0.14032 0.83367 0.0
H1722 H 0.73011 0.08678 0.82818 0.0
H1723 H 0.73054 0.10902 0.8222 0.0
H1724 H 0.73117 0.10129 0.85731 0.0
H1725 H 0.79624 0.11422 0.77333 0.0
H1726 H 0.81635 0.13754 0.7851 0.0
H1727 H 0.79552 0.13576 0.76641 0.0
C1728 C 0.07242 0.38155 0.99601 0.0
C1729 C 0.05557 0.37343 0.01254 0.0
C1730 C 0.08841 0.37916 0.00293 0.0
C1731 C 0.08759 0.36853 0.02704 0.0
C1732 C 0.07044 0.35996 0.04342 0.0
C1733 C 0.05469 0.36245 0.03594 0.0
C1734 C 0.10632 0.38836 0.98481 0.0
C1735 C 0.0689 0.34853 0.06938 0.0
C1736 C 0.11864 0.3464 0.04504 0.0
C1737 C 0.13064 0.35885 0.06648 0.0
C1738 C 0.10576 0.35036 0.02982 0.0
C1739 C 0.10485 0.36707 0.03645 0.0
C1740 C 0.1185 0.38069 0.05606 0.0
C1741 C 0.13121 0.37639 0.07087 0.0
C1742 C 0.09172 0.3356 0.00878 0.0
C1743 C 0.11819 0.39874 0.06376 0.0
H1744 H 0.07325 0.39 0.97783 0.0
H1745 H 0.04177 0.35605 0.04885 0.0
H1746 H 0.1191 0.40018 -0.00354 0.0
H1747 H 0.11028 0.37745 0.97914 0.0
H1748 H 0.10397 0.3946 0.96545 0.0
H1749 H 0.05436 0.34236 0.07941 0.0
H1750 H 0.0712 0.33639 0.06431 0.0
H1751 H 0.08059 0.35811 0.08461 0.0
H1752 H 0.11799 0.3327 0.04192 0.0
H1753 H 0.14035 0.3859 0.08769 0.0
H1754 H 0.08994 0.34293 0.99028 0.0
H1755 H 0.077 0.32658 0.01819 0.0
H1756 H 0.09681 0.32575 0.00199 0.0
H1757 H 0.11695 0.40612 0.04492 0.0
H1758 H 0.13162 0.40927 0.0758 0.0
H1759 H 0.10513 0.39452 0.07665 0.0
C1760 C 0.65072 0.68927 0.0349 0.0
C1761 C 0.65731 0.68688 0.00925 0.0
C1762 C 0.65192 0.70683 0.04184 0.0
C1763 C 0.65978 0.72246 0.02262 0.0
C1764 C 0.66588 0.71997 -0.00368 0.0
C1765 C 0.66465 0.70224 0.98998 0.0
C1766 C 0.64528 0.70883 0.07018 0.0
C1767 C 0.67415 0.73617 0.97516 0.0
C1768 C 0.64781 0.76076 0.04307 0.0
C1769 C 0.6642 0.77294 0.05997 0.0
C1770 C 0.64685 0.74514 0.02847 0.0
C1771 C 0.6626 0.74164 0.03112 0.0
C1772 C 0.67998 0.75515 0.04594 0.0
C1773 C 0.68054 0.77063 0.06021 0.0
C1774 C 0.62819 0.73132 0.01253 0.0
C1775 C 0.69718 0.75213 0.04926 0.0
H1776 H 0.645 0.67753 0.04994 0.0
H1777 H 0.66971 0.70055 0.97005 0.0
H1778 H 0.65797 0.72056 0.08211 0.0
H1779 H 0.63403 0.71305 0.06803 0.0
H1780 H 0.63894 0.69513 0.08239 0.0
H1781 H 0.67642 0.73133 0.95476 0.0
H1782 H 0.66412 0.74186 0.9721 0.0
H1783 H 0.68851 0.74845 0.98285 0.0
H1784 H 0.63504 0.76236 0.04324 0.0
H1785 H 0.69311 0.77992 0.0736 0.0
H1786 H 0.61927 0.71797 0.02505 0.0
H1787 H 0.63162 0.72683 0.99272 0.0
H1788 H 0.61913 0.73794 0.00791 0.0
H1789 H 0.69317 0.73982 0.06373 0.0
H1790 H 0.71054 0.76529 0.05774 0.0
H1791 H 0.70081 0.74829 0.02909 0.0
C1792 C 0.30806 0.9576 0.06136 0.0
C1793 C 0.317 0.96984 0.03861 0.0
C1794 C 0.2875 0.94582 0.06287 0.0
C1795 C 0.27549 0.94576 0.04054 0.0
C1796 C 0.28445 0.95842 0.01768 0.0
C1797 C 0.30517 0.97052 0.01713 0.0
C1798 C 0.27868 0.93309 0.08818 0.0
C1799 C 0.27232 0.9585 0.99318 0.0
C1800 C 0.22792 0.89774 0.04647 0.0
C1801 C 0.2178 0.90307 0.06435 0.0
C1802 C 0.24582 0.91202 0.03477 0.0
C1803 C 0.25372 0.93192 0.04158 0.0
C1804 C 0.24187 0.9374 0.05579 0.0
C1805 C 0.22386 0.92285 0.06672 0.0
C1806 C 0.25752 0.9056 0.0185 0.0
C1807 C 0.24947 0.95838 0.06329 0.0
H1808 H 0.31725 0.95709 0.07795 0.0
H1809 H 0.31214 0.97975 -0.00071 0.0
H1810 H 0.26761 0.93579 0.09747 0.0
H1811 H 0.27098 0.9175 0.08209 0.0
H1812 H 0.29 0.93574 0.10437 0.0
H1813 H 0.28077 0.97169 0.98011 0.0
H1814 H 0.26786 0.94547 0.98011 0.0
H1815 H 0.25865 0.9577 -0.0 0.0
H1816 H 0.22328 0.88247 0.04453 0.0
H1817 H 0.21599 0.92698 0.08054 0.0
H1818 H 0.26871 0.90536 0.03245 0.0
H1819 H 0.26542 0.91591 0.00133 0.0
H1820 H 0.24792 0.89074 0.0097 0.0
H1821 H 0.2596 0.96246 0.0816 0.0
H1822 H 0.23727 0.96068 0.06869 0.0
H1823 H 0.25788 0.96829 0.04602 0.0
C1824 C 0.36711 0.07801 0.04812 0.0
C1825 C 0.3725 0.06874 0.02859 0.0
C1826 C 0.36458 0.09357 0.04041 0.0
C1827 C 0.36732 0.09994 0.01244 0.0
C1828 C 0.3731 0.09087 0.99277 0.0
C1829 C 0.37569 0.07549 0.00109 0.0
C1830 C 0.3586 0.10295 0.06204 0.0
C1831 C 0.37612 0.09711 0.96267 0.0
C1832 C 0.34227 0.12379 0.97649 0.0
C1833 C 0.35835 0.1426 0.97178 0.0
C1834 C 0.34455 0.11014 0.99197 0.0
C1835 C 0.36338 0.11546 0.00305 0.0
C1836 C 0.37909 0.1351 0.00102 0.0
C1837 C 0.37639 0.14845 0.98527 0.0
C1838 C 0.32734 0.08945 0.99366 0.0
C1839 C 0.39931 0.14154 0.01291 0.0
H1840 H 0.36466 0.07298 0.06946 0.0
H1841 H 0.37984 0.06847 0.98582 0.0
H1842 H 0.3688 0.11899 0.06204 0.0
H1843 H 0.34363 0.10013 0.05696 0.0
H1844 H 0.35849 0.09734 0.08326 0.0
H1845 H 0.38098 0.08886 0.95009 0.0
H1846 H 0.36217 0.09491 0.95344 0.0
H1847 H 0.38734 0.11288 0.96114 0.0
H1848 H 0.3284 0.11917 0.96564 0.0
H1849 H 0.38893 0.16287 0.98124 0.0
H1850 H 0.32624 0.08349 0.01487 0.0
H1851 H 0.3296 0.08014 0.97912 0.0
H1852 H 0.31315 0.08838 0.98804 0.0
H1853 H 0.39827 0.13523 0.03386 0.0
H1854 H 0.40867 0.15767 0.01436 0.0
H1855 H 0.40671 0.13625 -0.0007 0.0
C1856 C 0.92931 0.30262 0.03995 0.0
C1857 C 0.9456 0.31342 0.02282 0.0
C1858 C 0.91557 0.28282 0.03453 0.0
C1859 C 0.91769 0.2739 0.01068 0.0
C1860 C 0.93453 0.28461 0.99389 0.0
C1861 C 0.94846 0.30414 0.0005 0.0
C1862 C 0.89838 0.27174 0.05364 0.0
C1863 C 0.93719 0.27586 0.9679 0.0
C1864 C 0.89053 0.2203 0.99117 0.0
C1865 C 0.87685 0.21948 0.97152 0.0
C1866 C 0.90267 0.23744 0.00656 0.0
C1867 C 0.90149 0.25424 0.0013 0.0
C1868 C 0.88637 0.25278 0.9834 0.0
C1869 C 0.87405 0.2353 0.96904 0.0
C1870 C 0.91795 0.23808 0.02643 0.0
C1871 C 0.88468 0.2703 0.97674 0.0
H1872 H 0.92715 0.30976 0.05735 0.0
H1873 H 0.96095 0.31252 0.98711 0.0
H1874 H 0.88486 0.2701 0.0437 0.0
H1875 H 0.89562 0.25689 0.05766 0.0
H1876 H 0.90089 0.27938 0.07382 0.0
H1877 H 0.95127 0.28597 0.95744 0.0
H1878 H 0.93692 0.26221 0.97296 0.0
H1879 H 0.92482 0.27204 0.95303 0.0
H1880 H 0.89294 0.2082 0.99273 0.0
H1881 H 0.86375 0.23477 0.95336 0.0
H1882 H 0.91969 0.24689 0.04511 0.0
H1883 H 0.93241 0.24501 0.01607 0.0
H1884 H 0.91403 0.22322 0.03308 0.0
H1885 H 0.88486 0.27783 0.99603 0.0
H1886 H 0.871 0.26629 0.96465 0.0
H1887 H 0.89754 0.28084 0.96434 0.0
C1888 C 0.72145 0.659 0.99025 0.0
C1889 C 0.71402 0.64547 0.01193 0.0
C1890 C 0.74113 0.66738 0.98219 0.0
C1891 C 0.75372 0.66253 -0.00318 0.0
C1892 C 0.74667 0.65023 0.02032 0.0
C1893 C 0.72676 0.64151 0.02726 0.0
C1894 C 0.74796 0.68014 0.95666 0.0
C1895 C 0.75982 0.64534 0.03713 0.0
C1896 C 0.79209 0.66186 0.95217 0.0
C1897 C 0.80826 0.68069 0.95632 0.0
C1898 C 0.77446 0.65549 0.96617 0.0
C1899 C 0.77321 0.66817 0.98521 0.0
C1900 C 0.79008 0.68667 0.99107 0.0
C1901 C 0.80737 0.6929 0.97608 0.0
C1902 C 0.75675 0.63577 0.95891 0.0
C1903 C 0.78953 0.70032 0.01191 0.0
H1904 H 0.71151 0.66192 0.97831 0.0
H1905 H 0.72099 0.63112 0.0442 0.0
H1906 H 0.76194 0.69399 0.96117 0.0
H1907 H 0.75089 0.6726 0.9399 0.0
H1908 H 0.73684 0.6836 0.94883 0.0
H1909 H 0.75323 0.63855 0.05735 0.0
H1910 H 0.76227 0.63499 0.02531 0.0
H1911 H 0.77445 0.65864 0.04108 0.0
H1912 H 0.79277 0.65268 0.93637 0.0
H1913 H 0.81986 0.7076 0.97883 0.0
H1914 H 0.74512 0.63769 0.94895 0.0
H1915 H 0.75047 0.627 0.97797 0.0
H1916 H 0.76043 0.62742 0.94449 0.0
H1917 H 0.7813 0.70686 0.00284 0.0
H1918 H 0.80459 0.71233 0.01787 0.0
H1919 H 0.78177 0.69231 0.03092 0.0
C1920 C 0.96415 0.65186 0.98111 0.0
C1921 C 0.97476 0.65805 0.00637 0.0
C1922 C 0.94937 0.65597 0.97444 0.0
C1923 C 0.94486 0.66638 0.99359 0.0
C1924 C 0.955 0.67207 0.01955 0.0
C1925 C 0.96991 0.66793 0.02558 0.0
C1926 C 0.93899 0.64967 0.94643 0.0
C1927 C 0.95044 0.68294 0.04063 0.0
C1928 C 0.92274 0.69209 0.95539 0.0
C1929 C 0.90264 0.67789 0.95603 0.0
C1930 C 0.9367 0.68942 0.96988 0.0
C1931 C 0.93031 0.67209 0.98533 0.0
C1932 C 0.90984 0.65876 0.98845 0.0
C1933 C 0.8962 0.66176 0.97354 0.0
C1934 C 0.95833 0.70406 0.96596 0.0
C1935 C 0.90237 0.64029 0.00509 0.0
H1936 H 0.96772 0.6442 0.96613 0.0
H1937 H 0.97795 0.6727 0.04521 0.0
H1938 H 0.92281 0.6405 0.94914 0.0
H1939 H 0.94187 0.66267 0.93422 0.0
H1940 H 0.94387 0.64129 0.9342 0.0
H1941 H 0.95814 0.68456 0.06087 0.0
H1942 H 0.95502 0.69767 0.03261 0.0
H1943 H 0.93433 0.67527 0.04413 0.0
H1944 H 0.92769 0.70439 0.94142 0.0
H1945 H 0.88066 0.65061 0.9736 0.0
H1946 H 0.96448 0.69796 0.95144 0.0
H1947 H 0.96663 0.70712 0.98594 0.0
H1948 H 0.96081 0.71801 0.95723 0.0
H1949 H 0.90402 0.62957 0.99286 0.0
H1950 H 0.88656 0.63364 0.01017 0.0
H1951 H 0.91106 0.64314 0.02469 0.0
C1952 C 0.3681 0.3212 0.97917 0.0
C1953 C 0.3736 0.32957 0.00576 0.0
C1954 C 0.36771 0.30392 0.97287 0.0
C1955 C 0.37305 0.29474 0.99361 0.0
C1956 C 0.3788 0.30319 0.02043 0.0
C1957 C 0.37896 0.32045 0.02621 0.0
C1958 C 0.3614 0.2954 0.94399 0.0
C1959 C 0.38471 0.29394 0.04302 0.0
C1960 C 0.35225 0.24141 0.97661 0.0
C1961 C 0.36765 0.24241 0.9615 0.0
C1962 C 0.35435 0.2581 0.98939 0.0
C1963 C 0.3723 0.27619 0.9869 0.0
C1964 C 0.38853 0.27677 0.97408 0.0
C1965 C 0.38596 0.25986 0.96136 0.0
C1966 C 0.33667 0.25673 0.00291 0.0
C1967 C 0.408 0.29563 0.97123 0.0
H1968 H 0.36391 0.32807 0.96321 0.0
H1969 H 0.38328 0.32679 0.04682 0.0
H1970 H 0.37335 0.29425 0.93433 0.0
H1971 H 0.34829 0.28044 0.94511 0.0
H1972 H 0.35772 0.30431 0.93023 0.0
H1973 H 0.38924 0.30253 0.06261 0.0
H1974 H 0.37223 0.27904 0.04743 0.0
H1975 H 0.39711 0.29245 0.03601 0.0
H1976 H 0.33795 0.22803 0.97614 0.0
H1977 H 0.39772 0.26074 0.94911 0.0
H1978 H 0.33029 0.26319 0.98889 0.0
H1979 H 0.34099 0.26506 0.02268 0.0
H1980 H 0.32505 0.24138 0.00718 0.0
H1981 H 0.40657 0.3047 0.9549 0.0
H1982 H 0.41996 0.2931 0.96533 0.0
H1983 H 0.41231 0.30407 0.99092 0.0
C1984 C 0.70617 0.05233 0.95685 0.0
C1985 C 0.69771 0.03891 0.97851 0.0
C1986 C 0.72659 0.06517 0.95578 0.0
C1987 C 0.73892 0.06501 0.97743 0.0
C1988 C 0.73051 0.05105 -0.00099 0.0
C1989 C 0.70992 0.03798 -0.00083 0.0
C1990 C 0.73485 0.07935 0.93181 0.0
C1991 C 0.74298 0.05055 0.0227 0.0
C1992 C 0.79039 0.09299 0.95075 0.0
C1993 C 0.79476 0.11205 0.95569 0.0
C1994 C 0.77319 0.0769 0.96118 0.0
C1995 C 0.76037 0.08012 0.97721 0.0
C1996 C 0.76672 0.09928 0.98641 0.0
C1997 C 0.78387 0.11513 0.97533 0.0
C1998 C 0.76731 0.05677 0.95132 0.0
C1999 C 0.75394 0.10328 0.00458 0.0
H2000 H 0.69668 0.053 0.94089 0.0
H2001 H 0.7033 0.02778 0.01618 0.0
H2002 H 0.74164 0.09451 0.93961 0.0
H2003 H 0.74655 0.07812 0.92151 0.0
H2004 H 0.72337 0.07681 0.91596 0.0
H2005 H 0.73535 0.03635 0.03377 0.0
H2006 H 0.75737 0.05329 0.01536 0.0
H2007 H 0.74604 0.06221 0.0378 0.0
H2008 H 0.7989 0.09062 0.93563 0.0
H2009 H 0.78725 0.12986 0.97926 0.0
H2010 H 0.75707 0.05281 0.93316 0.0
H2011 H 0.75953 0.04574 0.96775 0.0
H2012 H 0.78032 0.05612 0.94481 0.0
H2013 H 0.74208 0.10307 0.99163 0.0
H2014 H 0.76258 0.11778 0.01481 0.0
H2015 H 0.74684 0.09189 0.02077 0.0
C2016 C 0.6341 0.92655 0.99259 0.0
C2017 C 0.64245 0.94083 0.01356 0.0
C2018 C 0.63337 0.9087 0.99551 0.0
C2019 C 0.64108 0.90501 0.02002 0.0
C2020 C 0.6496 0.91943 0.04116 0.0
C2021 C 0.6502 0.9371 0.03764 0.0
C2022 C 0.62428 0.89376 0.97251 0.0
C2023 C 0.658 0.91615 0.06774 0.0
C2024 C 0.62732 0.85693 0.05282 0.0
C2025 C 0.64514 0.85739 0.05057 0.0
C2026 C 0.62466 0.87118 0.03987 0.0
C2027 C 0.64023 0.88615 0.02436 0.0
C2028 C 0.65698 0.88485 0.01868 0.0
C2029 C 0.65925 0.87044 0.03195 0.0
C2030 C 0.60643 0.87178 0.04621 0.0
C2031 C 0.67377 0.90023 0.00186 0.0
H2032 H 0.62809 0.92931 0.97388 0.0
H2033 H 0.65668 0.94799 0.05397 0.0
H2034 H 0.6349 0.88963 0.96563 0.0
H2035 H 0.61117 0.88032 0.98029 0.0
H2036 H 0.6197 0.89916 0.95427 0.0
H2037 H 0.66421 0.92887 0.08202 0.0
H2038 H 0.64632 0.90321 0.07878 0.0
H2039 H 0.66982 0.91319 0.06291 0.0
H2040 H 0.61653 0.84699 0.06753 0.0
H2041 H 0.67315 0.87096 0.03051 0.0
H2042 H 0.60135 0.87653 0.02782 0.0
H2043 H 0.60992 0.88246 0.06315 0.0
H2044 H 0.5942 0.85733 0.0531 0.0
H2045 H 0.66823 0.90487 0.98387 0.0
H2046 H 0.6833 0.89494 0.99416 0.0
H2047 H 0.68298 0.91323 0.01512 0.0
C2048 C 0.06568 0.71247 0.01636 0.0
C2049 C 0.07286 0.70343 -0.0005 0.0
C2050 C 0.07804 0.73182 0.02534 0.0
C2051 C 0.09792 0.74254 0.01673 0.0
C2052 C 0.10469 0.73402 -0.00227 0.0
C2053 C 0.09217 0.71449 0.98963 0.0
C2054 C 0.07023 0.74026 0.04579 0.0
C2055 C 0.12554 0.74511 0.98733 0.0
C2056 C 0.12511 0.79598 0.03842 0.0
C2057 C 0.13343 0.7951 0.06392 0.0
C2058 C 0.1146 0.77923 0.02158 0.0
C2059 C 0.11214 0.76128 0.03088 0.0
C2060 C 0.1218 0.76081 0.0557 0.0
C2061 C 0.13241 0.77776 0.07179 0.0
C2062 C 0.10501 0.78048 0.99489 0.0
C2063 C 0.11957 0.74205 0.06656 0.0
H2064 H 0.05079 0.70402 0.02408 0.0
H2065 H 0.09774 0.70767 0.97628 0.0
H2066 H 0.07768 0.74216 0.0663 0.0
H2067 H 0.07349 0.75484 0.03885 0.0
H2068 H 0.05406 0.73075 0.04854 0.0
H2069 H 0.1274 0.73792 0.96901 0.0
H2070 H 0.12987 0.76024 0.98163 0.0
H2071 H 0.13582 0.74603 0.00407 0.0
H2072 H 0.12569 0.80935 0.03256 0.0
H2073 H 0.13872 0.77711 0.09169 0.0
H2074 H 0.08904 0.77425 -0.00184 0.0
H2075 H 0.1065 0.7719 0.97818 0.0
H2076 H 0.1115 0.7958 0.98783 0.0
H2077 H 0.10398 0.73183 0.07215 0.0
H2078 H 0.12905 0.74444 0.08522 0.0
H2079 H 0.12337 0.7349 0.05031 0.0
C2080 C 0.29853 0.35975 0.03481 0.0
C2081 C 0.30561 0.36475 0.00782 0.0
C2082 C 0.27852 0.35217 0.04023 0.0
C2083 C 0.26526 0.34931 0.01796 0.0
C2084 C 0.2722 0.35318 0.99038 0.0
C2085 C 0.29243 0.36121 0.98567 0.0
C2086 C 0.27186 0.34842 0.07003 0.0
C2087 C 0.25853 0.34986 0.96601 0.0
C2088 C 0.21328 0.3203 0.04435 0.0
C2089 C 0.21072 0.33538 0.05355 0.0
C2090 C 0.23007 0.32443 0.02946 0.0
C2091 C 0.24476 0.34409 0.02436 0.0
C2092 C 0.24101 0.35909 0.03068 0.0
C2093 C 0.22388 0.3545 0.045 0.0
C2094 C 0.23309 0.30793 0.02208 0.0
C2095 C 0.25621 0.38026 0.02565 0.0
H2096 H 0.30888 0.36288 0.05191 0.0
H2097 H 0.29807 0.3654 0.96483 0.0
H2098 H 0.26659 0.35828 0.07593 0.0
H2099 H 0.25935 0.33324 0.0724 0.0
H2100 H 0.28387 0.35077 0.08478 0.0
H2101 H 0.26508 0.34943 0.94605 0.0
H2102 H 0.2442 0.33604 0.96843 0.0
H2103 H 0.25551 0.3619 0.96493 0.0
H2104 H 0.20317 0.30552 0.05119 0.0
H2105 H 0.22203 0.36617 0.05246 0.0
H2106 H 0.24286 0.30693 0.03797 0.0
H2107 H 0.24029 0.31051 0.00167 0.0
H2108 H 0.2189 0.29373 0.0214 0.0
H2109 H 0.26861 0.38504 0.04083 0.0
H2110 H 0.25 0.3898 0.02803 0.0
H2111 H 0.26233 0.38234 0.00454 0.0
C2112 C 0.71355 0.69159 0.4094 0.0
C2113 C 0.70798 0.69792 0.38558 0.0
C2114 C 0.73097 0.69105 0.41038 0.0
C2115 C 0.74328 0.69694 0.3869 0.0
C2116 C 0.73783 0.70342 0.36275 0.0
C2117 C 0.72027 0.70386 0.36238 0.0
C2118 C 0.73617 0.68409 0.43667 0.0
C2119 C 0.7505 0.70977 0.33732 0.0
C2120 C 0.79413 0.70873 0.41017 0.0
C2121 C 0.79207 0.69034 0.40811 0.0
C2122 C 0.77916 0.71185 0.40035 0.0
C2123 C 0.76174 0.69616 0.38825 0.0
C2124 C 0.76084 0.67837 0.38286 0.0
C2125 C 0.77603 0.67565 0.39295 0.0
C2126 C 0.78094 0.73115 0.4063 0.0
C2127 C 0.74275 0.66131 0.36969 0.0
H2128 H 0.70426 0.687 0.42747 0.0
H2129 H 0.7161 0.70875 0.34384 0.0
H2130 H 0.73729 0.67117 0.43212 0.0
H2131 H 0.75075 0.69565 0.44493 0.0
H2132 H 0.72509 0.68011 0.45313 0.0
H2133 H 0.74441 0.71471 0.32034 0.0
H2134 H 0.76561 0.72183 0.34274 0.0
H2135 H 0.75181 0.69753 0.3295 0.0
H2136 H 0.80633 0.71999 0.42235 0.0
H2137 H 0.77423 0.66131 0.39179 0.0
H2138 H 0.77233 0.72969 0.42501 0.0
H2139 H 0.77488 0.73563 0.38877 0.0
H2140 H 0.79652 0.74283 0.4103 0.0
H2141 H 0.73104 0.65428 0.38541 0.0
H2142 H 0.74587 0.65023 0.36178 0.0
H2143 H 0.73693 0.66617 0.3523 0.0
C2144 C 0.33202 0.03266 0.39606 0.0
C2145 C 0.3257 0.02066 0.37239 0.0
C2146 C 0.3303 0.0492 0.3975 0.0
C2147 C 0.32206 0.05406 0.37469 0.0
C2148 C 0.31567 0.04208 0.35066 0.0
C2149 C 0.31755 0.02552 0.3498 0.0
C2150 C 0.33729 0.0615 0.42362 0.0
C2151 C 0.30684 0.04674 0.32593 0.0
C2152 C 0.30465 0.08728 0.3993 0.0
C2153 C 0.32176 0.10563 0.39608 0.0
C2154 C 0.30364 0.07027 0.3897 0.0
C2155 C 0.32018 0.07167 0.3766 0.0
C2156 C 0.33647 0.09037 0.37023 0.0
C2157 C 0.33706 0.10714 0.3801 0.0
C2158 C 0.28587 0.05074 0.39672 0.0
C2159 C 0.35433 0.09266 0.35602 0.0
H2160 H 0.33832 0.0291 0.41365 0.0
H2161 H 0.31262 0.01639 0.33139 0.0
H2162 H 0.34887 0.07668 0.41853 0.0
H2163 H 0.32489 0.06205 0.43289 0.0
H2164 H 0.34339 0.05579 0.43948 0.0
H2165 H 0.30272 0.03609 0.30872 0.0
H2166 H 0.2935 0.04681 0.33222 0.0
H2167 H 0.31748 0.06153 0.31807 0.0
H2168 H 0.29296 0.08603 0.41213 0.0
H2169 H 0.35047 0.12125 0.37805 0.0
H2170 H 0.28946 0.04458 0.41507 0.0
H2171 H 0.28174 0.0403 0.37929 0.0
H2172 H 0.27297 0.05201 0.40177 0.0
H2173 H 0.36323 0.08977 0.37121 0.0
H2174 H 0.3638 0.10763 0.34771 0.0
H2175 H 0.34993 0.08205 0.33874 0.0
C2176 C 0.9785 0.29181 0.39088 0.0
C2177 C 0.98734 0.3046 0.36864 0.0
C2178 C 0.95797 0.2805 0.39296 0.0
C2179 C 0.94586 0.28155 0.37176 0.0
C2180 C 0.95471 0.29479 0.34945 0.0
C2181 C 0.97544 0.30636 0.3483 0.0
C2182 C 0.94929 0.26709 0.41768 0.0
C2183 C 0.94244 0.29608 0.32613 0.0
C2184 C 0.89798 0.23426 0.37814 0.0
C2185 C 0.88902 0.23959 0.39809 0.0
C2186 C 0.91545 0.2485 0.3655 0.0
C2187 C 0.92408 0.2683 0.37346 0.0
C2188 C 0.91318 0.27389 0.38982 0.0
C2189 C 0.8956 0.2594 0.40176 0.0
C2190 C 0.9261 0.24205 0.34694 0.0
C2191 C 0.92154 0.29481 0.39842 0.0
H2192 H 0.98773 0.29054 0.40666 0.0
H2193 H 0.98233 0.31609 0.33088 0.0
H2194 H 0.93872 0.26991 0.42831 0.0
H2195 H 0.94105 0.25168 0.41062 0.0
H2196 H 0.96075 0.2689 0.43308 0.0
H2197 H 0.95088 0.30987 0.31427 0.0
H2198 H 0.93784 0.28373 0.31159 0.0
H2199 H 0.92886 0.295 0.334 0.0
H2200 H 0.89284 0.21896 0.37506 0.0
H2201 H 0.88849 0.26351 0.41698 0.0
H2202 H 0.93754 0.24111 0.35934 0.0
H2203 H 0.9336 0.25271 0.32999 0.0
H2204 H 0.91585 0.22748 0.33768 0.0
H2205 H 0.93225 0.29836 0.41588 0.0
H2206 H 0.90981 0.29735 0.40552 0.0
H2207 H 0.92949 0.30493 0.38111 0.0
C2208 C 0.03903 0.41249 0.37444 0.0
C2209 C 0.04371 0.4029 0.35446 0.0
C2210 C 0.03694 0.42839 0.36721 0.0
C2211 C 0.03947 0.43482 0.33929 0.0
C2212 C 0.04445 0.42537 0.31911 0.0
C2213 C 0.04656 0.40961 0.32694 0.0
C2214 C 0.03177 0.43813 0.38934 0.0
C2215 C 0.04723 0.4317 0.28905 0.0
C2216 C 0.01619 0.46098 0.30512 0.0
C2217 C 0.03281 0.47945 0.30055 0.0
C2218 C 0.01776 0.44669 0.32003 0.0
C2219 C 0.03642 0.45103 0.3306 0.0
C2220 C 0.05275 0.47036 0.32872 0.0
C2221 C 0.05075 0.48435 0.31359 0.0
C2222 C 0.99991 0.42636 0.32164 0.0
C2223 C 0.07284 0.47574 0.34001 0.0
H2224 H 0.03683 0.40748 0.39578 0.0
H2225 H 0.05016 0.40234 0.31133 0.0
H2226 H 0.04269 0.45403 0.38975 0.0
H2227 H 0.01716 0.43627 0.38446 0.0
H2228 H 0.0313 0.43207 0.41035 0.0
H2229 H 0.05132 0.42302 0.276 0.0
H2230 H 0.03342 0.43018 0.2804 0.0
H2231 H 0.05893 0.4473 0.28747 0.0
H2232 H 1.00242 0.45707 0.29452 0.0
H2233 H 0.06371 0.49849 0.30956 0.0
H2234 H 0.99877 0.42007 0.34262 0.0
H2235 H 1.00136 0.41683 0.30653 0.0
H2236 H 0.98604 0.42613 0.3167 0.0
H2237 H 0.0717 0.4692 0.36081 0.0
H2238 H 0.08288 0.4918 0.34161 0.0
H2239 H 0.07953 0.46995 0.32594 0.0
C2240 C 0.59071 0.62888 0.38008 0.0
C2241 C 0.60825 0.64097 0.36592 0.0
C2242 C 0.57848 0.60913 0.37283 0.0
C2243 C 0.58355 0.60155 0.35019 0.0
C2244 C 0.60189 0.61341 0.33703 0.0
C2245 C 0.61417 0.63291 0.34539 0.0
C2246 C 0.55953 0.59678 0.38821 0.0
C2247 C 0.60778 0.60603 0.31251 0.0
C2248 C 0.55832 0.54893 0.32576 0.0
C2249 C 0.5467 0.54919 0.30366 0.0
C2250 C 0.5691 0.56535 0.34307 0.0
C2251 C 0.56866 0.5825 0.33738 0.0
C2252 C 0.55562 0.58214 0.31648 0.0
C2253 C 0.54466 0.56539 0.30008 0.0
C2254 C 0.58217 0.56485 0.36584 0.0
C2255 C 0.55477 0.60008 0.30939 0.0
H2256 H 0.58618 0.63505 0.39616 0.0
H2257 H 0.62766 0.64225 0.3343 0.0
H2258 H 0.547 0.59538 0.37561 0.0
H2259 H 0.55677 0.58188 0.39173 0.0
H2260 H 0.55978 0.60333 0.40858 0.0
H2261 H 0.62303 0.6166 0.30579 0.0
H2262 H 0.60675 0.59204 0.31768 0.0
H2263 H 0.59749 0.60324 0.29474 0.0
H2264 H 0.56014 0.53649 0.32819 0.0
H2265 H 0.53593 0.56565 0.2826 0.0
H2266 H 0.58223 0.57294 0.38446 0.0
H2267 H 0.59753 0.57193 0.35845 0.0
H2268 H 0.57738 0.54965 0.37193 0.0
H2269 H 0.55235 0.60628 0.32833 0.0
H2270 H 0.54286 0.59695 0.29398 0.0
H2271 H 0.56906 0.61139 0.30063 0.0
C2272 C 0.39446 0.99381 0.31719 0.0
C2273 C 0.38641 0.98243 0.34093 0.0
C2274 C 0.41407 1.00055 0.31002 0.0
C2275 C 0.42592 0.99618 0.32749 0.0
C2276 C 0.41829 0.98621 0.3528 0.0
C2277 C 0.39847 0.9791 0.35893 0.0
C2278 C 0.42154 0.01091 0.28264 0.0
C2279 C 0.43062 0.98192 0.37249 0.0
C2280 C 0.46302 0.99002 0.28758 0.0
C2281 C 0.47954 0.00889 0.28876 0.0
C2282 C 0.44575 0.98534 0.30154 0.0
C2283 C 0.44521 0.99986 0.31744 0.0
C2284 C 0.46257 0.01837 0.32094 0.0
C2285 C 0.47949 0.02279 0.30614 0.0
C2286 C 0.42756 0.96546 0.29701 0.0
C2287 C 0.46283 0.03402 0.33845 0.0
H2288 H 0.38499 0.99609 0.30311 0.0
H2289 H 0.39214 0.97021 0.37729 0.0
H2290 H 0.43588 0.02468 0.28572 0.0
H2291 H 0.42402 1.00159 0.26842 0.0
H2292 H 0.411 0.01433 0.2724 0.0
H2293 H 0.42388 0.97741 0.39329 0.0
H2294 H 0.43209 0.96995 0.36391 0.0
H2295 H 0.44568 0.99488 0.37495 0.0
H2296 H 0.46297 0.97947 0.27357 0.0
H2297 H 0.49219 0.03751 0.30655 0.0
H2298 H 0.41643 0.96695 0.28468 0.0
H2299 H 0.42085 0.95874 0.31716 0.0
H2300 H 0.43081 0.95542 0.28579 0.0
H2301 H 0.45538 0.0405 0.32686 0.0
H2302 H 0.47813 0.04586 0.34366 0.0
H2303 H 0.45474 0.02781 0.35801 0.0
C2304 C 0.63985 0.98424 0.30391 0.0
C2305 C 0.65015 0.99064 0.32937 0.0
C2306 C 0.62452 0.98754 0.29688 0.0
C2307 C 0.61912 0.99734 0.31586 0.0
C2308 C 0.62897 1.00322 0.34201 0.0
C2309 C 0.64441 0.99991 0.34839 0.0
C2310 C 0.61449 0.98106 0.26869 0.0
C2311 C 0.62353 0.01346 0.36297 0.0
C2312 C 0.59539 0.0223 0.27905 0.0
C2313 C 0.57535 0.00787 0.28003 0.0
C2314 C 0.60977 0.01974 0.29252 0.0
C2315 C 0.60396 1.00229 0.30736 0.0
C2316 C 0.58359 0.98854 0.31064 0.0
C2317 C 0.5695 0.99145 0.29676 0.0
C2318 C 0.63126 0.03485 0.28846 0.0
C2319 C 0.57669 0.9699 0.32662 0.0
H2320 H 0.64412 0.97708 0.28904 0.0
H2321 H 0.65218 1.00485 0.3682 0.0
H2322 H 0.59833 0.97141 0.27108 0.0
H2323 H 0.617 0.99394 0.2565 0.0
H2324 H 0.61998 0.97313 0.25665 0.0
H2325 H 0.63134 0.01556 0.38325 0.0
H2326 H 0.62728 0.02796 0.35485 0.0
H2327 H 0.6074 1.00503 0.36643 0.0
H2328 H 0.59993 0.03481 0.26563 0.0
H2329 H 0.55405 0.98008 0.29704 0.0
H2330 H 0.63772 0.02904 0.27399 0.0
H2331 H 0.63962 0.03816 0.30843 0.0
H2332 H 0.6333 0.04862 0.27968 0.0
H2333 H 0.57902 0.95976 0.31403 0.0
H2334 H 0.56077 0.96256 0.33151 0.0
H2335 H 0.5853 0.97276 0.34629 0.0
C2336 C 0.03227 0.65325 0.31054 0.0
C2337 C 0.03668 0.66058 0.33777 0.0
C2338 C 0.03282 0.63659 0.30321 0.0
C2339 C 0.03805 0.62705 0.32351 0.0
C2340 C 0.04267 0.63446 0.35098 0.0
C2341 C 0.04186 0.65106 0.35779 0.0
C2342 C 0.02767 0.62913 0.27368 0.0
C2343 C 0.04845 0.62483 0.37316 0.0
C2344 C 0.02022 0.5746 0.30402 0.0
C2345 C 0.03653 0.57675 0.28999 0.0
C2346 C 0.02094 0.59062 0.31695 0.0
C2347 C 0.03842 0.60922 0.31576 0.0
C2348 C 0.05549 0.611 0.30387 0.0
C2349 C 0.05429 0.59475 0.29093 0.0
C2350 C 1.00239 0.58797 0.32941 0.0
C2351 C 0.07451 0.63045 0.30245 0.0
H2352 H 0.02823 0.66044 0.29492 0.0
H2353 H 0.04538 0.65661 0.37889 0.0
H2354 H 0.04027 0.62899 0.26435 0.0
H2355 H 0.01496 0.61391 0.27349 0.0
H2356 H 0.02385 0.63815 0.26039 0.0
H2357 H 0.05193 0.63255 0.39343 0.0
H2358 H 0.0363 0.60953 0.3761 0.0
H2359 H 0.06152 0.62436 0.36656 0.0
H2360 H 1.00633 0.5608 0.30264 0.0
H2361 H 0.06675 0.59653 0.27946 0.0
H2362 H 0.99611 0.59454 0.31541 0.0
H2363 H 1.00568 0.59553 0.34974 0.0
H2364 H 0.99106 0.57234 0.33236 0.0
H2365 H 0.07293 0.6397 0.28657 0.0
H2366 H 0.08711 0.62886 0.29676 0.0
H2367 H 0.07795 0.63822 0.32264 0.0
C2368 C 0.38083 0.37773 0.35026 0.0
C2369 C 0.36756 0.37656 0.32961 0.0
C2370 C 0.40132 0.39014 0.34699 0.0
C2371 C 0.40845 0.40136 0.32241 0.0
C2372 C 0.39495 0.39945 0.30108 0.0
C2373 C 0.37468 0.38727 0.30514 0.0
C2374 C 0.41515 0.39194 0.37033 0.0
C2375 C 0.40184 0.41076 0.27422 0.0
C2376 C 0.45434 0.44981 0.30996 0.0
C2377 C 0.46393 0.44413 0.29165 0.0
C2378 C 0.43733 0.43573 0.32369 0.0
C2379 C 0.42984 0.41567 0.3186 0.0
C2380 C 0.44125 0.41007 0.30352 0.0
C2381 C 0.45826 0.42443 0.29026 0.0
C2382 C 0.42598 0.44233 0.34047 0.0
C2383 C 0.43406 0.38891 0.29791 0.0
H2384 H 0.37518 0.36966 0.36942 0.0
H2385 H 0.36429 0.38639 0.28935 0.0
H2386 H 0.4284 0.39245 0.36223 0.0
H2387 H 0.42023 0.40575 0.38174 0.0
H2388 H 0.40784 0.37968 0.38529 0.0
H2389 H 0.38948 0.40678 0.25922 0.0
H2390 H 0.40929 0.42662 0.27856 0.0
H2391 H 0.41271 0.40808 0.26422 0.0
H2392 H 0.45873 0.46504 0.31107 0.0
H2393 H 0.4658 0.42007 0.27616 0.0
H2394 H 0.41949 0.43292 0.35895 0.0
H2395 H 0.4137 0.44121 0.3275 0.0
H2396 H 0.43549 0.45771 0.34741 0.0
H2397 H 0.42704 0.37982 0.3165 0.0
H2398 H 0.44627 0.38689 0.29148 0.0
H2399 H 0.42281 0.38353 0.28087 0.0
C2400 C 0.30861 0.27003 0.35462 0.0
C2401 C 0.30947 0.27601 0.32693 0.0
C2402 C 0.31122 0.25448 0.36168 0.0
C2403 C 0.31454 0.24437 0.34053 0.0
C2404 C 0.31482 0.24989 0.31243 0.0
C2405 C 0.31242 0.26573 0.30597 0.0
C2406 C 0.31092 0.24921 0.39197 0.0
C2407 C 0.31805 0.23934 0.28928 0.0
C2408 C 0.34108 0.22055 0.37142 0.0
C2409 C 0.32514 0.20249 0.37958 0.0
C2410 C 0.33805 0.23375 0.35601 0.0
C2411 C 0.31858 0.22868 0.3485 0.0
C2412 C 0.30274 0.2095 0.3537 0.0
C2413 C 0.3062 0.19664 0.3694 0.0
C2414 C 0.35543 0.25396 0.35094 0.0
C2415 C 0.28182 0.2033 0.34556 0.0
H2416 H 0.30636 0.27782 0.37101 0.0
H2417 H 0.31304 0.27017 0.2845 0.0
H2418 H 0.29947 0.23369 0.39528 0.0
H2419 H 0.32533 0.25104 0.39824 0.0
H2420 H 0.30791 0.25833 0.40584 0.0
H2421 H 0.31597 0.24414 0.26843 0.0
H2422 H 0.33324 0.24204 0.29089 0.0
H2423 H 0.30776 0.22338 0.29111 0.0
H2424 H 0.35569 0.2252 0.37974 0.0
H2425 H 0.29381 0.18282 0.37611 0.0
H2426 H 0.35523 0.26425 0.36601 0.0
H2427 H 0.3546 0.25908 0.32976 0.0
H2428 H 0.36968 0.25453 0.35352 0.0
H2429 H 0.27604 0.20945 0.36061 0.0
H2430 H 0.27203 0.18717 0.3456 0.0
H2431 H 0.28116 0.20889 0.32465 0.0
C2432 C 0.76529 0.0533 0.30814 0.0
C2433 C 0.74779 0.04116 0.32235 0.0
C2434 C 0.77728 0.07313 0.31511 0.0
C2435 C 0.77206 0.0807 0.33759 0.0
C2436 C 0.75378 0.06874 0.35084 0.0
C2437 C 0.7417 0.04918 0.3427 0.0
C2438 C 0.79613 0.0856 0.29957 0.0
C2439 C 0.74775 0.07609 0.37524 0.0
C2440 C 0.81056 0.1172 0.38763 0.0
C2441 C 0.80806 0.13313 0.38413 0.0
C2442 C 0.7999 0.10046 0.37116 0.0
C2443 C 0.78676 0.09986 0.35024 0.0
C2444 C 0.78592 0.11679 0.34459 0.0
C2445 C 0.79636 0.1332 0.36201 0.0
C2446 C 0.80114 0.08273 0.37826 0.0
C2447 C 0.77277 0.11706 0.32173 0.0
H2448 H 0.76992 0.04715 0.29218 0.0
H2449 H 0.72823 0.03978 0.35379 0.0
H2450 H 0.7987 0.10043 0.29601 0.0
H2451 H 0.80878 0.08717 0.31208 0.0
H2452 H 0.79588 0.07904 0.27922 0.0
H2453 H 0.73261 0.06535 0.38218 0.0
H2454 H 0.75818 0.07926 0.39295 0.0
H2455 H 0.74841 0.08987 0.36982 0.0
H2456 H 0.81937 0.11711 0.40511 0.0
H2457 H 0.79422 0.14544 0.35962 0.0
H2458 H 0.80377 0.07667 0.35935 0.0
H2459 H 0.78692 0.07123 0.38697 0.0
H2460 H 0.81308 0.08605 0.39372 0.0
H2461 H 0.77281 0.10894 0.30319 0.0
H2462 H 0.77743 0.1322 0.31551 0.0
H2463 H 0.75741 0.10989 0.32911 0.0
C2464 C 0.96417 0.70024 0.37946 0.0
C2465 C 0.97121 0.69876 0.35376 0.0
C2466 C 0.94398 0.69231 0.38358 0.0
C2467 C 0.93043 0.68309 0.36112 0.0
C2468 C 0.93741 0.68102 0.33524 0.0
C2469 C 0.9578 0.68881 0.3319 0.0
C2470 C 0.93727 0.69444 0.41183 0.0
C2471 C 0.9236 0.67158 0.31068 0.0
C2472 C 0.87989 0.65501 0.39155 0.0
C2473 C 0.87592 0.67005 0.39433 0.0
C2474 C 0.89655 0.65809 0.3773 0.0
C2475 C 0.90925 0.67652 0.36523 0.0
C2476 C 0.90326 0.69039 0.36383 0.0
C2477 C 0.88665 0.68703 0.37859 0.0
C2478 C 0.90206 0.6427 0.37893 0.0
C2479 C 0.91591 0.70993 0.35017 0.0
H2480 H 0.9746 0.70804 0.39629 0.0
H2481 H 0.96334 0.68799 0.31186 0.0
H2482 H 0.93086 0.70386 0.41022 0.0
H2483 H 0.92561 0.68001 0.41958 0.0
H2484 H 0.94954 0.70095 0.42744 0.0
H2485 H 0.93036 0.66729 0.29438 0.0
H2486 H 0.90957 0.65851 0.31706 0.0
H2487 H 0.91995 0.68207 0.30143 0.0
H2488 H 0.87155 0.64183 0.4037 0.0
H2489 H 0.88363 0.69869 0.38067 0.0
H2490 H 0.91294 0.64636 0.39618 0.0
H2491 H 0.90897 0.6421 0.35947 0.0
H2492 H 0.88901 0.62805 0.38303 0.0
H2493 H 0.92843 0.71953 0.36434 0.0
H2494 H 0.90745 0.71718 0.34554 0.0
H2495 H 0.92212 0.70836 0.3306 0.0
C2496 C 0.37922 0.0136 0.66007 0.0
C2497 C 0.37407 0.02291 0.67986 0.0
C2498 C 0.39352 0.00865 0.6662 0.0
C2499 C 0.40274 0.01293 0.69283 0.0
C2500 C 0.39799 0.0228 0.71258 0.0
C2501 C 0.38381 0.02772 0.70583 0.0
C2502 C 0.39833 0.99834 0.64451 0.0
C2503 C 0.40744 0.02765 0.74128 0.0
C2504 C 0.42174 0.98425 0.73029 0.0
C2505 C 0.44202 0.99795 0.73155 0.0
C2506 C 0.40881 0.98811 0.71525 0.0
C2507 C 0.41639 1.00612 0.70118 0.0
C2508 C 0.43709 0.01896 0.69977 0.0
C2509 C 0.44971 0.01473 0.7151 0.0
C2510 C 0.3869 0.9739 0.71719 0.0
C2511 C 0.44582 0.03814 0.68461 0.0
H2512 H 0.37185 0.0099 0.63989 0.0
H2513 H 0.38003 0.03495 0.72125 0.0
H2514 H 0.41453 1.00549 0.64238 0.0
H2515 H 0.39271 0.98308 0.65108 0.0
H2516 H 0.39168 0.99812 0.62388 0.0
H2517 H 0.40261 0.03592 0.75388 0.0
H2518 H 0.40362 0.01402 0.75249 0.0
H2519 H 0.42372 0.03642 0.73972 0.0
H2520 H 0.41583 0.97134 0.74322 0.0
H2521 H 0.46537 0.02542 0.71633 0.0
H2522 H 0.37947 0.97197 0.69669 0.0
H2523 H 0.38053 0.97973 0.73178 0.0
H2524 H 0.38356 0.95941 0.72487 0.0
H2525 H 0.4379 0.03642 0.66457 0.0
H2526 H 0.46172 0.04439 0.68052 0.0
H2527 H 0.4443 0.04869 0.69746 0.0
C2528 C 0.98496 0.36228 0.7047 0.0
C2529 C 0.98233 0.35532 0.67735 0.0
C2530 C 0.98525 0.37953 0.71081 0.0
C2531 C 0.98284 0.39021 0.68908 0.0
C2532 C 0.98012 0.38327 0.66141 0.0
C2533 C 0.97991 0.36594 0.65587 0.0
C2534 C 0.98822 0.38636 0.74065 0.0
C2535 C 0.97745 0.39419 0.6377 0.0
C2536 C 0.96746 0.42412 0.71789 0.0
C2537 C 0.98583 0.4411 0.72249 0.0
C2538 C 0.96598 0.40788 0.70449 0.0
C2539 C 0.98333 0.40864 0.69577 0.0
C2540 C 1.00165 0.42647 0.69788 0.0
C2541 C 1.00268 0.44249 0.7113 0.0
C2542 C 0.94611 0.3893 0.70244 0.0
C2543 C 0.02052 0.42805 0.68876 0.0
H2544 H 0.98684 0.35425 0.72148 0.0
H2545 H 0.97786 0.36072 0.63465 0.0
H2546 H 1.00159 0.40111 0.74261 0.0
H2547 H 0.9755 0.38746 0.74724 0.0
H2548 H 0.98985 0.3764 0.75513 0.0
H2549 H 0.9753 0.3868 0.61739 0.0
H2550 H 0.96452 0.39566 0.64141 0.0
H2551 H 0.99054 0.40914 0.63647 0.0
H2552 H 0.95449 0.42289 0.72711 0.0
H2553 H 0.01694 0.45546 0.71544 0.0
H2554 H 0.94518 0.37903 0.7188 0.0
H2555 H 0.94409 0.3821 0.68204 0.0
H2556 H 0.93385 0.39199 0.70532 0.0
H2557 H 0.02492 0.4205 0.70407 0.0
H2558 H 0.03276 0.44348 0.68729 0.0
H2559 H 0.01842 0.42088 0.66833 0.0
C2560 C 0.64477 0.62891 0.73026 0.0
C2561 C 0.65358 0.64196 0.70825 0.0
C2562 C 0.62429 0.61639 0.73122 0.0
C2563 C 0.61221 0.61654 0.70921 0.0
C2564 C 0.62095 0.6302 0.68732 0.0
C2565 C 0.64161 0.64291 0.68721 0.0
C2566 C 0.6157 0.60252 0.75549 0.0
C2567 C 0.60871 0.63073 0.66332 0.0
C2568 C 0.56652 0.56682 0.71131 0.0
C2569 C 0.5556 0.57027 0.73043 0.0
C2570 C 0.584 0.5824 0.70049 0.0
C2571 C 0.59066 0.60169 0.70936 0.0
C2572 C 0.57794 0.60532 0.72494 0.0
C2573 C 0.56044 0.5895 0.7352 0.0
C2574 C 0.59672 0.57793 0.68293 0.0
C2575 C 0.58415 0.62562 0.73444 0.0
H2576 H 0.65402 0.62824 0.7466 0.0
H2577 H 0.64845 0.65282 0.66996 0.0
H2578 H 0.60417 0.6042 0.76545 0.0
H2579 H 0.60861 0.58724 0.74806 0.0
H2580 H 0.62704 0.60496 0.77152 0.0
H2581 H 0.6167 0.64469 0.65174 0.0
H2582 H 0.60524 0.61868 0.64873 0.0
H2583 H 0.59452 0.6286 0.67047 0.0
H2584 H 0.56282 0.55196 0.7076 0.0
H2585 H 0.55197 0.59217 0.75001 0.0
H2586 H 0.60835 0.57803 0.69629 0.0
H2587 H 0.60411 0.58914 0.66659 0.0
H2588 H 0.58796 0.56336 0.67293 0.0
H2589 H 0.59422 0.62951 0.75278 0.0
H2590 H 0.57125 0.62661 0.74054 0.0
H2591 H 0.59221 0.63649 0.71795 0.0
C2592 C 0.72484 0.76188 0.71017 0.0
C2593 C 0.71941 0.74648 0.69142 0.0
C2594 C 0.72402 0.77842 0.7024 0.0
C2595 C 0.71746 0.77959 0.67528 0.0
C2596 C 0.71207 0.76415 0.65621 0.0
C2597 C 0.71318 0.74787 0.66446 0.0
C2598 C 0.73004 0.79459 0.72325 0.0
C2599 C 0.70489 0.76471 0.62709 0.0
C2600 C 0.69451 0.80938 0.65476 0.0
C2601 C 0.70914 0.82367 0.63788 0.0
C2602 C 0.6976 0.79583 0.66915 0.0
C2603 C 0.71579 0.79665 0.66662 0.0
C2604 C 0.73133 0.81241 0.6521 0.0
C2605 C 0.72778 0.82569 0.63776 0.0
C2606 C 0.68061 0.77938 0.68444 0.0
C2607 C 0.75106 0.81409 0.64919 0.0
H2608 H 0.72974 0.76102 0.73103 0.0
H2609 H 0.70892 0.73609 0.64981 0.0
H2610 H 0.74186 0.80862 0.71464 0.0
H2611 H 0.71734 0.79633 0.72748 0.0
H2612 H 0.73541 0.79178 0.74321 0.0
H2613 H 0.70131 0.75159 0.61477 0.0
H2614 H 0.6915 0.76578 0.62794 0.0
H2615 H 0.7163 0.77782 0.61604 0.0
H2616 H 0.67994 0.80751 0.6543 0.0
H2617 H 0.73894 0.83643 0.62419 0.0
H2618 H 0.68568 0.77654 0.70459 0.0
H2619 H 0.67426 0.76586 0.67182 0.0
H2620 H 0.66876 0.78251 0.68835 0.0
H2621 H 0.75609 0.81107 0.66926 0.0
H2622 H 0.76251 0.82878 0.64185 0.0
H2623 H 0.74965 0.80313 0.63392 0.0
C2624 C 0.25572 0.97043 0.69578 0.0
C2625 C 0.27491 0.98056 0.68535 0.0
C2626 C 0.24243 0.95087 0.68852 0.0
C2627 C 0.24828 0.94145 0.66967 0.0
C2628 C 0.268 0.95129 0.66034 0.0
C2629 C 0.28115 0.97065 0.66861 0.0
C2630 C 0.22182 0.9407 0.69977 0.0
C2631 C 0.27483 0.94189 0.63996 0.0
C2632 C 0.22099 0.88794 0.64956 0.0
C2633 C 0.21296 0.88864 0.6237 0.0
C2634 C 0.23106 0.90472 0.66636 0.0
C2635 C 0.2334 0.92253 0.65662 0.0
C2636 C 0.22358 0.92268 0.63178 0.0
C2637 C 0.21333 0.90566 0.61577 0.0
C2638 C 0.24066 0.90377 0.69321 0.0
C2639 C 0.22569 0.94128 0.62047 0.0
H2640 H 0.25089 0.97798 0.70902 0.0
H2641 H 0.29595 0.97842 0.66046 0.0
H2642 H 0.21144 0.94014 0.68347 0.0
H2643 H 0.21691 0.92545 0.70567 0.0
H2644 H 0.22081 0.94839 0.71816 0.0
H2645 H 0.29088 0.95104 0.636 0.0
H2646 H 0.2716 0.92751 0.64781 0.0
H2647 H 0.26669 0.93935 0.6199 0.0
H2648 H 0.22087 0.87481 0.65553 0.0
H2649 H 0.20724 0.90616 0.59561 0.0
H2650 H 0.2396 0.91289 0.70948 0.0
H2651 H 0.25653 0.90947 0.6898 0.0
H2652 H 0.23383 0.88856 0.70092 0.0
H2653 H 0.22255 0.94895 0.63674 0.0
H2654 H 0.21567 0.93856 0.60235 0.0
H2655 H 0.2411 0.95119 0.61384 0.0
C2656 C 0.0582 0.30959 0.69725 0.0
C2657 C 0.04616 0.31478 0.68253 0.0
C2658 C 0.07783 0.31701 0.68973 0.0
C2659 C 0.08533 0.32934 0.66631 0.0
C2660 C 0.07357 0.33554 0.65241 0.0
C2661 C 0.05416 0.32837 0.66098 0.0
C2662 C 0.09009 0.31063 0.70573 0.0
C2663 C 0.0809 0.34845 0.62708 0.0
C2664 C 0.13898 0.35616 0.64472 0.0
C2665 C 0.13845 0.34353 0.62436 0.0
C2666 C 0.12209 0.35121 0.66002 0.0
C2667 C 0.10423 0.33355 0.65401 0.0
C2668 C 0.104 0.32037 0.63438 0.0
C2669 C 0.1212 0.32548 0.61995 0.0
C2670 C 0.12309 0.36538 0.68135 0.0
C2671 C 0.08526 0.30149 0.62705 0.0
H2672 H 0.05202 0.29916 0.71409 0.0
H2673 H 0.04479 0.33225 0.64947 0.0
H2674 H 0.09133 0.29971 0.69337 0.0
H2675 H 0.10525 0.32318 0.70954 0.0
H2676 H 0.08347 0.30396 0.726 0.0
H2677 H 0.07064 0.35323 0.62005 0.0
H2678 H 0.09559 0.36155 0.63141 0.0
H2679 H 0.08263 0.34039 0.60981 0.0
H2680 H 0.15229 0.3703 0.64764 0.0
H2681 H 0.12078 0.31599 0.60368 0.0
H2682 H 0.1152 0.3576 0.70041 0.0
H2683 H 0.11575 0.37298 0.67284 0.0
H2684 H 0.13855 0.37654 0.68709 0.0
H2685 H 0.07861 0.29275 0.64604 0.0
H2686 H 0.08779 0.29252 0.61219 0.0
H2687 H 0.07436 0.30469 0.61759 0.0
C2688 C 0.30054 0.3296 0.69344 0.0
C2689 C 0.30665 0.32149 0.67307 0.0
C2690 C 0.28548 0.33358 0.68779 0.0
C2691 C 0.27642 0.32952 0.66107 0.0
C2692 C 0.28229 0.32102 0.6406 0.0
C2693 C 0.29723 0.31705 0.64688 0.0
C2694 C 0.27951 0.34244 0.71022 0.0
C2695 C 0.27307 0.31649 0.61176 0.0
C2696 C 0.22713 0.32359 0.64111 0.0
C2697 C 0.23322 0.34071 0.62595 0.0
C2698 C 0.24096 0.32046 0.6552 0.0
C2699 C 0.26132 0.33473 0.65371 0.0
C2700 C 0.26725 0.35287 0.64087 0.0
C2701 C 0.25309 0.35563 0.62711 0.0
C2702 C 0.23394 0.30105 0.66902 0.0
C2703 C 0.28873 0.36854 0.63882 0.0
H2704 H 0.30766 0.33302 0.71378 0.0
H2705 H 0.3018 0.31079 0.63098 0.0
H2706 H 0.28323 0.35729 0.70395 0.0
H2707 H 0.26332 0.33366 0.71304 0.0
H2708 H 0.28697 0.34345 0.73046 0.0
H2709 H 0.27904 0.30961 0.59838 0.0
H2710 H 0.25687 0.30654 0.61301 0.0
H2711 H 0.27573 0.3301 0.60158 0.0
H2712 H 0.21182 0.3119 0.63971 0.0
H2713 H 0.25782 0.3687 0.61487 0.0
H2714 H 0.24208 0.30292 0.68889 0.0
H2715 H 0.23676 0.29176 0.65524 0.0
H2716 H 0.21789 0.29326 0.67318 0.0
H2717 H 0.29657 0.3705 0.65899 0.0
H2718 H 0.29067 0.38275 0.63234 0.0
H2719 H 0.29582 0.36412 0.62325 0.0
C2720 C 0.68851 0.97971 0.69596 0.0
C2721 C 0.69334 0.99416 0.67569 0.0
C2722 C 0.68808 0.96234 0.68975 0.0
C2723 C 0.69251 0.95926 0.6626 0.0
C2724 C 0.69762 0.97389 0.64218 0.0
C2725 C 0.698 0.9911 0.64896 0.0
C2726 C 0.68265 0.94718 0.71214 0.0
C2727 C 0.70244 0.97126 0.61292 0.0
C2728 C 0.70833 0.92372 0.64217 0.0
C2729 C 0.6914 0.90943 0.628 0.0
C2730 C 0.70847 0.93928 0.65574 0.0
C2731 C 0.69131 0.94061 0.65489 0.0
C2732 C 0.67369 0.92518 0.64283 0.0
C2733 C 0.67398 0.90981 0.62946 0.0
C2734 C 0.72753 0.95525 0.66858 0.0
C2735 C 0.65501 0.92584 0.64151 0.0
H2736 H 0.68492 0.98189 0.7167 0.0
H2737 H 0.70177 1.00211 0.63311 0.0
H2738 H 0.66887 0.93355 0.70605 0.0
H2739 H 0.69436 0.94359 0.71458 0.0
H2740 H 0.68046 0.95211 0.73252 0.0
H2741 H 0.70644 0.98413 0.5996 0.0
H2742 H 0.7149 0.96868 0.61332 0.0
H2743 H 0.68957 0.95827 0.60323 0.0
H2744 H 0.72192 0.92368 0.64052 0.0
H2745 H 0.661 0.89899 0.618 0.0
H2746 H 0.72485 0.95998 0.68876 0.0
H2747 H 0.73415 0.96809 0.65459 0.0
H2748 H 0.73835 0.95054 0.67192 0.0
H2749 H 0.65219 0.93023 0.66187 0.0
H2750 H 0.64198 0.91154 0.6354 0.0
H2751 H 0.65665 0.93688 0.626 0.0
C2752 C 0.04698 0.71161 0.64685 0.0
C2753 C 0.03973 0.71335 0.67221 0.0
C2754 C 0.06672 0.7246 0.63988 0.0
C2755 C 0.07955 0.7392 0.65919 0.0
C2756 C 0.07271 0.73961 0.68594 0.0
C2757 C 0.05273 0.72696 0.69191 0.0
C2758 C 0.0733 0.72384 0.61094 0.0
C2759 C 0.0861 0.7543 0.70755 0.0
C2760 C 0.13238 0.76774 0.63458 0.0
C2761 C 0.1326 0.78343 0.62124 0.0
C2762 C 0.11576 0.75397 0.64935 0.0
C2763 C 0.09885 0.75567 0.64972 0.0
C2764 C 0.09966 0.77231 0.6379 0.0
C2765 C 0.11665 0.78611 0.62407 0.0
C2766 C 0.11581 0.73691 0.66267 0.0
C2767 C 0.08192 0.77464 0.63742 0.0
H2768 H 0.03683 0.70119 0.63157 0.0
H2769 H 0.04707 0.72821 0.71162 0.0
H2770 H 0.07629 0.73709 0.59931 0.0
H2771 H 0.08719 0.72368 0.61183 0.0
H2772 H 0.06201 0.71081 0.59916 0.0
H2773 H 0.07988 0.75011 0.72869 0.0
H2774 H 0.10086 0.7559 0.70771 0.0
H2775 H 0.08814 0.76875 0.70254 0.0
H2776 H 0.14464 0.76554 0.63189 0.0
H2777 H 0.11676 0.79806 0.61317 0.0
H2778 H 0.10801 0.72403 0.64878 0.0
H2779 H 0.108 0.73302 0.68273 0.0
H2780 H 0.13106 0.74004 0.66637 0.0
H2781 H 0.06994 0.76288 0.62456 0.0
H2782 H 0.08535 0.78892 0.62873 0.0
H2783 H 0.07623 0.77328 0.65867 0.0
C2784 C 0.98998 0.60794 0.64104 0.0
C2785 C 0.98283 0.61567 0.66045 0.0
C2786 C 0.99194 0.59185 0.6477 0.0
C2787 C 0.987 0.58354 0.67458 0.0
C2788 C 0.97931 0.59098 0.69397 0.0
C2789 C 0.97716 0.60678 0.68659 0.0
C2790 C 0.99981 0.58413 0.62624 0.0
C2791 C 0.974 0.58273 0.72299 0.0
C2792 C 0.97759 0.53444 0.69931 0.0
C2793 C 0.9947 0.5402 0.71533 0.0
C2794 C 0.97559 0.5481 0.68322 0.0
C2795 C 0.99098 0.56796 0.68356 0.0
C2796 C 1.00912 0.57328 0.69713 0.0
C2797 C 0.01078 0.55929 0.7127 0.0
C2798 C 0.95623 0.54164 0.66838 0.0
C2799 C 0.02596 0.59421 0.69816 0.0
H2800 H 0.99431 0.61461 0.62072 0.0
H2801 H 0.97165 0.6126 0.70179 0.0
H2802 H 0.01492 0.58785 0.63242 0.0
H2803 H 0.99053 0.568 0.62496 0.0
H2804 H 1.00038 0.59033 0.60531 0.0
H2805 H 0.96786 0.58991 0.73541 0.0
H2806 H 0.96298 0.56688 0.72203 0.0
H2807 H 0.98728 0.58458 0.73405 0.0
H2808 H 0.96504 0.51976 0.70156 0.0
H2809 H 0.02393 0.56381 0.72536 0.0
H2810 H 0.95862 0.54909 0.64804 0.0
H2811 H 0.94728 0.54558 0.68112 0.0
H2812 H 0.94765 0.52562 0.66495 0.0
H2813 H 0.02842 0.60107 0.67738 0.0
H2814 H 0.0399 0.59546 0.70571 0.0
H2815 H 0.02225 0.60258 0.71246 0.0
C2816 C 0.40124 0.37766 0.68689 0.0
C2817 C 0.4056 0.36847 0.66607 0.0
C2818 C 0.41427 0.39743 0.69329 0.0
C2819 C 0.43169 0.40843 0.67773 0.0
C2820 C 0.43528 0.39955 0.65517 0.0
C2821 C 0.42243 0.37953 0.65004 0.0
C2822 C 0.41006 0.40613 0.71798 0.0
C2823 C 0.45312 0.41092 0.63726 0.0
C2824 C 0.45673 0.46219 0.69569 0.0
C2825 C 0.47004 0.46374 0.71656 0.0
C2826 C 0.44546 0.44475 0.68056 0.0
C2827 C 0.44703 0.42837 0.6874 0.0
C2828 C 0.46167 0.4305 0.70688 0.0
C2829 C 0.47318 0.44828 0.72092 0.0
C2830 C 0.43071 0.44338 0.65903 0.0
C2831 C 0.46368 0.41342 0.71531 0.0
H2832 H 0.38831 0.36907 0.69944 0.0
H2833 H 0.42574 0.37243 0.63379 0.0
H2834 H 0.42186 0.41049 0.73406 0.0
H2835 H 0.41003 0.41945 0.71171 0.0
H2836 H 0.39565 0.39578 0.72746 0.0
H2837 H 0.45169 0.40316 0.61754 0.0
H2838 H 0.45547 0.42551 0.63229 0.0
H2839 H 0.46645 0.41319 0.64866 0.0
H2840 H 0.45406 0.47405 0.69269 0.0
H2841 H 0.48318 0.4494 0.73753 0.0
H2842 H 0.41585 0.43624 0.66825 0.0
H2843 H 0.42992 0.43445 0.64101 0.0
H2844 H 0.43446 0.45804 0.65153 0.0
H2845 H 0.45035 0.40264 0.72668 0.0
H2846 H 0.47683 0.41789 0.72895 0.0
H2847 H 0.46478 0.40597 0.69675 0.0
C2848 C 0.62457 0.04544 0.65831 0.0
C2849 C 0.63605 0.03907 0.67188 0.0
C2850 C 0.60487 0.03804 0.66548 0.0
C2851 C 0.59666 0.02439 0.68734 0.0
C2852 C 0.60785 0.01708 0.70004 0.0
C2853 C 0.62739 0.02435 0.69187 0.0
C2854 C 0.59327 0.04573 0.65081 0.0
C2855 C 0.59972 1.00266 0.72366 0.0
C2856 C 0.55976 0.02523 0.73519 0.0
C2857 C 0.54259 0.00752 0.72865 0.0
C2858 C 0.57725 0.03136 0.7209 0.0
C2859 C 0.57746 0.01956 0.69931 0.0
C2860 C 0.55968 1.00246 0.6911 0.0
C2861 C 0.54246 0.99647 0.70619 0.0
C2862 C 0.59586 0.04962 0.73052 0.0
C2863 C 0.55915 0.98977 0.66773 0.0
H2864 H 0.63122 0.05673 0.64264 0.0
H2865 H 0.63628 0.01951 0.7025 0.0
H2866 H 0.57815 0.03363 0.64548 0.0
H2867 H 0.59186 0.05584 0.6648 0.0
H2868 H 0.60051 0.05371 0.63149 0.0
H2869 H 0.60969 0.99734 0.7299 0.0
H2870 H 0.59758 0.00966 0.74195 0.0
H2871 H 0.58511 0.98995 0.71776 0.0
H2872 H 0.5599 0.03346 0.75305 0.0
H2873 H 0.52925 0.98254 0.70162 0.0
H2874 H 0.60323 0.05944 0.71269 0.0
H2875 H 0.60631 0.04569 0.73963 0.0
H2876 H 0.59295 0.05776 0.74638 0.0
H2877 H 0.56764 0.9988 0.64977 0.0
H2878 H 0.54381 0.97918 0.66065 0.0
H2879 H 0.56609 0.98149 0.6749 0.0
loop_
_geom_bond_atom_site_label_1
_geom_bond_atom_site_label_2
_geom_bond_distance
_geom_bond_site_symmetry_2
_ccdc_geom_bond_type
Zn0 O3 2.031 1_554 S
Zn0 O5 2.049 . S
Zn0 O10 2.067 1_554 S
Zn1 O2 1.962 1_455 S
Zn1 O4 1.986 . S
Zn1 O6 1.996 1_455 S
Zn1 O9 1.943 1_554 S
O2 Zn1 1.962 1_655 S
O2 C7 1.254 1_554 S
O3 Zn0 2.031 1_556 S
O3 C7 1.269 . S
O4 Zn1 1.986 . S
O4 C11 1.262 . S
O5 Zn0 2.049 . S
O5 C13 1.260 . S
O6 Zn1 1.996 1_655 S
O6 C13 1.257 . S
C7 O2 1.254 1_556 S
C7 O3 1.269 . S
C8 O9 1.249 . S
C8 O10 1.270 1_455 S
O9 Zn1 1.943 1_556 S
O9 C8 1.249 . S
O10 Zn0 2.067 1_556 S
O10 C8 1.270 1_655 S
C11 O4 1.262 . S
C11 O12 1.232 . S
O12 C11 1.232 . S
C13 O5 1.260 . S
C13 O6 1.257 . S
Zn14 O17 2.031 1_554 S
Zn14 O19 2.049 . S
Zn14 O24 2.067 1_554 S
Zn15 O16 1.962 . S
Zn15 O18 1.986 . S
Zn15 O20 1.996 . S
Zn15 O23 1.943 1_554 S
O16 Zn15 1.962 . S
O16 C21 1.232 1_554 S
O17 Zn14 2.031 1_556 S
O17 C21 1.281 . S
O18 Zn15 1.986 . S
O18 C25 1.262 . S
O19 Zn14 2.049 . S
O19 C27 1.260 . S
O20 Zn15 1.996 . S
O20 C27 1.257 . S
C21 O16 1.232 1_556 S
C21 O17 1.281 . S
C22 O23 1.249 . S
C22 O24 1.270 . S
O23 Zn15 1.943 1_556 S
O23 C22 1.249 . S
O24 Zn14 2.067 1_556 S
O24 C22 1.270 . S
C25 O18 1.262 . S
C25 O26 1.232 . S
O26 C25 1.232 . S
C27 O19 1.260 . S
C27 O20 1.257 . S
Zn28 O31 2.031 . S
Zn28 O33 2.049 1_554 S
Zn28 O38 2.067 . S
Zn29 O30 1.962 1_545 S
Zn29 O32 1.986 1_554 S
Zn29 O34 1.996 1_544 S
Zn29 O37 1.943 . S
O30 Zn29 1.962 1_565 S
O30 C35 1.254 . S
O31 Zn28 2.031 . S
O31 C35 1.269 . S
O32 Zn29 1.986 1_556 S
O32 C39 1.262 . S
O33 Zn28 2.049 1_556 S
O33 C41 1.260 . S
O34 Zn29 1.996 1_566 S
O34 C41 1.257 . S
C35 O30 1.254 . S
C35 O31 1.269 . S
C36 O37 1.249 . S
C36 O38 1.270 1_545 S
O37 Zn29 1.943 . S
O37 C36 1.249 . S
O38 Zn28 2.067 . S
O38 C36 1.270 1_565 S
C39 O32 1.262 . S
C39 O40 1.232 1_556 S
O40 C39 1.232 1_554 S
C41 O33 1.260 . S
C41 O34 1.257 . S
Zn42 O45 2.031 . S
Zn42 O47 2.049 1_554 S
Zn42 O52 2.067 . S
Zn43 O44 1.962 1_655 S
Zn43 O46 1.986 1_554 S
Zn43 O48 1.996 1_654 S
Zn43 O51 1.943 . S
O44 Zn43 1.962 1_455 S
O44 C49 1.254 . S
O45 Zn42 2.031 . S
O45 C49 1.269 . S
O46 Zn43 1.986 1_556 S
O46 C53 1.262 . S
O47 Zn42 2.049 1_556 S
O47 C55 1.260 . S
O48 Zn43 1.996 1_456 S
O48 C55 1.257 . S
C49 O44 1.254 . S
C49 O45 1.269 . S
C50 O51 1.249 . S
C50 O52 1.270 1_655 S
O51 Zn43 1.943 . S
O51 C50 1.249 . S
O52 Zn42 2.067 . S
O52 C50 1.270 1_455 S
C53 O46 1.262 . S
C53 O54 1.232 1_556 S
O54 C53 1.232 1_554 S
C55 O47 1.260 . S
C55 O48 1.257 . S
Zn56 O59 2.031 . S
Zn56 O61 2.049 1_554 S
Zn56 O66 2.067 . S
Zn57 O58 1.962 . S
Zn57 O60 1.986 1_554 S
Zn57 O62 1.996 1_554 S
Zn57 O65 1.943 . S
O58 Zn57 1.962 . S
O58 C63 1.254 . S
O59 Zn56 2.031 . S
O59 C63 1.269 . S
O60 Zn57 1.986 1_556 S
O60 C67 1.287 . S
O61 Zn56 2.049 1_556 S
O61 C69 1.260 . S
O62 Zn57 1.996 1_556 S
O62 C69 1.257 . S
C63 O58 1.254 . S
C63 O59 1.269 . S
C64 O65 1.249 . S
C64 O66 1.270 . S
O65 Zn57 1.943 . S
O65 C64 1.249 . S
O66 Zn56 2.067 . S
O66 C64 1.270 . S
C67 O60 1.287 . S
C67 O68 1.196 1_556 S
O68 C67 1.196 1_554 S
C69 O61 1.260 . S
C69 O62 1.257 . S
Zn70 O73 2.031 1_554 S
Zn70 O75 2.049 . S
Zn70 O80 2.067 1_554 S
Zn71 O72 1.962 1_565 S
Zn71 O74 1.986 . S
Zn71 O76 1.996 1_565 S
Zn71 O79 1.943 1_554 S
O72 Zn71 1.962 1_545 S
O72 C77 1.254 . S
O73 Zn70 2.031 1_556 S
O73 C77 1.269 1_556 S
O74 Zn71 1.986 . S
O74 C81 1.262 . S
O75 Zn70 2.049 . S
O75 C83 1.260 . S
O76 Zn71 1.996 1_545 S
O76 C83 1.257 . S
C77 O72 1.254 . S
C77 O73 1.269 1_554 S
C78 O79 1.249 . S
C78 O80 1.270 1_565 S
O79 Zn71 1.943 1_556 S
O79 C78 1.249 . S
O80 Zn70 2.067 1_556 S
O80 C78 1.270 1_545 S
C81 O74 1.262 . S
C81 O82 1.232 . S
O82 C81 1.232 . S
C83 O75 1.260 . S
C83 O76 1.257 . S
Zn84 O87 2.031 . S
Zn84 O89 2.049 . S
Zn84 O94 2.067 . S
Zn85 O86 1.962 . S
Zn85 O88 1.986 . S
Zn85 O90 1.996 . S
Zn85 O93 1.943 . S
O86 Zn85 1.962 . S
O86 C91 1.254 . S
O87 Zn84 2.031 . S
O87 C91 1.269 . S
O88 Zn85 1.986 . S
O88 C95 1.262 . S
O89 Zn84 2.049 . S
O89 C97 1.260 . S
O90 Zn85 1.996 . S
O90 C97 1.257 . S
C91 O86 1.254 . S
C91 O87 1.269 . S
C92 O93 1.249 . S
C92 O94 1.270 . S
O93 Zn85 1.943 . S
O93 C92 1.249 . S
O94 Zn84 2.067 . S
O94 C92 1.270 . S
C95 O88 1.262 . S
C95 O96 1.232 . S
O96 C95 1.232 . S
C97 O89 1.260 . S
C97 O90 1.257 . S
Zn98 O101 2.031 . S
Zn98 O103 2.049 . S
Zn98 O108 2.067 . S
Zn99 O100 1.962 . S
Zn99 O102 1.986 1_565 S
Zn99 O104 1.996 . S
Zn99 O107 1.943 . S
O100 Zn99 1.962 . S
O100 C105 1.254 . S
O101 Zn98 2.031 . S
O101 C105 1.269 . S
O102 Zn99 1.986 1_545 S
O102 C109 1.262 . S
O103 Zn98 2.049 . S
O103 C111 1.260 . S
O104 Zn99 1.996 . S
O104 C111 1.257 . S
C105 O100 1.254 . S
C105 O101 1.269 . S
C106 O107 1.249 . S
C106 O108 1.270 . S
O107 Zn99 1.943 . S
O107 C106 1.249 . S
O108 Zn98 2.067 . S
O108 C106 1.270 . S
C109 O102 1.262 . S
C109 O110 1.232 . S
O110 C109 1.232 . S
C111 O103 1.260 . S
C111 O104 1.257 . S
Zn112 O115 2.031 . S
Zn112 O117 2.049 . S
Zn112 O122 2.067 . S
Zn113 O114 1.962 1_455 S
Zn113 O116 1.986 . S
Zn113 O118 1.996 . S
Zn113 O121 1.943 . S
O114 Zn113 1.962 1_655 S
O114 C119 1.254 . S
O115 Zn112 2.031 . S
O115 C119 1.269 1_455 S
O116 Zn113 1.986 . S
O116 C123 1.262 . S
O117 Zn112 2.049 . S
O117 C125 1.260 . S
O118 Zn113 1.996 . S
O118 C125 1.257 . S
C119 O114 1.254 . S
C119 O115 1.269 1_655 S
C120 O121 1.249 . S
C120 O122 1.270 . S
O121 Zn113 1.943 . S
O121 C120 1.249 . S
O122 Zn112 2.067 . S
O122 C120 1.270 . S
C123 O116 1.262 . S
C123 O124 1.232 . S
O124 C123 1.232 . S
C125 O117 1.260 . S
C125 O118 1.257 . S
Zn126 O129 2.031 . S
Zn126 O131 2.049 . S
Zn126 O136 2.067 . S
Zn127 O128 1.962 1_565 S
Zn127 O130 1.986 . S
Zn127 O132 1.996 . S
Zn127 O135 1.943 . S
O128 Zn127 1.962 1_545 S
O128 C133 1.254 . S
O129 Zn126 2.031 . S
O129 C133 1.269 1_565 S
O130 Zn127 1.986 . S
O130 C137 1.262 . S
O131 Zn126 2.049 . S
O131 C139 1.260 . S
O132 Zn127 1.996 . S
O132 C139 1.257 . S
C133 O128 1.254 . S
C133 O129 1.269 1_545 S
C134 O135 1.249 . S
C134 O136 1.270 . S
O135 Zn127 1.943 . S
O135 C134 1.249 . S
O136 Zn126 2.067 . S
O136 C134 1.270 . S
C137 O130 1.262 . S
C137 O138 1.232 . S
O138 C137 1.232 . S
C139 O131 1.260 . S
C139 O132 1.257 . S
Zn140 O143 2.053 . S
Zn140 O145 2.049 . S
Zn140 O150 2.067 . S
Zn141 O142 1.962 1_455 S
Zn141 O144 1.986 . S
Zn141 O146 1.996 . S
Zn141 O149 1.943 . S
O142 Zn141 1.962 1_655 S
O142 C147 1.254 . S
O143 Zn140 2.053 . S
O143 C147 1.251 1_455 S
O144 Zn141 1.986 . S
O144 C151 1.262 . S
O145 Zn140 2.049 . S
O145 C153 1.260 . S
O146 Zn141 1.996 . S
O146 C153 1.257 . S
C147 O142 1.254 . S
C147 O143 1.251 1_655 S
C148 O149 1.249 . S
C148 O150 1.270 . S
O149 Zn141 1.943 . S
O149 C148 1.249 . S
O150 Zn140 2.067 . S
O150 C148 1.270 . S
C151 O144 1.262 . S
C151 O152 1.232 . S
O152 C151 1.232 . S
C153 O145 1.260 . S
C153 O146 1.257 . S
Zn154 O157 2.031 . S
Zn154 O159 2.049 . S
Zn154 O164 2.067 . S
Zn155 O156 1.962 . S
Zn155 O158 1.986 . S
Zn155 O160 1.996 . S
Zn155 O163 1.943 . S
O156 Zn155 1.962 . S
O156 C161 1.254 . S
O157 Zn154 2.031 . S
O157 C161 1.269 . S
O158 Zn155 1.986 . S
O158 C165 1.262 . S
O159 Zn154 2.049 . S
O159 C167 1.260 . S
O160 Zn155 1.996 . S
O160 C167 1.257 . S
C161 O156 1.254 . S
C161 O157 1.269 . S
C162 O163 1.249 . S
C162 O164 1.270 . S
O163 Zn155 1.943 . S
O163 C162 1.249 . S
O164 Zn154 2.067 . S
O164 C162 1.270 . S
C165 O158 1.262 . S
C165 O166 1.232 . S
O166 C165 1.232 . S
C167 O159 1.260 . S
C167 O160 1.257 . S
Zn168 O171 2.031 . S
Zn168 O173 2.049 . S
Zn168 O178 2.067 . S
Zn169 O170 1.962 1_545 S
Zn169 O172 1.986 . S
Zn169 O174 1.996 . S
Zn169 O177 1.943 . S
O170 Zn169 1.962 1_565 S
O170 C175 1.254 . S
O171 Zn168 2.031 . S
O171 C175 1.269 1_545 S
O172 Zn169 1.986 . S
O172 C179 1.262 . S
O173 Zn168 2.049 . S
O173 C181 1.260 . S
O174 Zn169 1.996 . S
O174 C181 1.257 . S
C175 O170 1.254 . S
C175 O171 1.269 1_565 S
C176 O177 1.249 . S
C176 O178 1.270 . S
O177 Zn169 1.943 . S
O177 C176 1.249 . S
O178 Zn168 2.067 . S
O178 C176 1.270 . S
C179 O172 1.262 . S
C179 O180 1.232 . S
O180 C179 1.232 . S
C181 O173 1.260 . S
C181 O174 1.257 . S
Zn182 O185 2.031 1_655 S
Zn182 O187 2.049 . S
Zn182 O192 2.067 . S
Zn183 O184 1.962 1_655 S
Zn183 O186 1.986 . S
Zn183 O188 1.996 . S
Zn183 O191 1.943 . S
O184 Zn183 1.962 1_455 S
O184 C189 1.254 . S
O185 Zn182 2.031 1_455 S
O185 C189 1.270 . S
O186 Zn183 1.986 . S
O186 C193 1.262 . S
O187 Zn182 2.049 . S
O187 C195 1.260 . S
O188 Zn183 1.996 . S
O188 C195 1.257 . S
C189 O184 1.254 . S
C189 O185 1.270 . S
C190 O191 1.249 . S
C190 O192 1.270 . S
O191 Zn183 1.943 . S
O191 C190 1.249 . S
O192 Zn182 2.067 . S
O192 C190 1.270 . S
C193 O186 1.262 . S
C193 O194 1.232 . S
O194 C193 1.232 . S
C195 O187 1.260 . S
C195 O188 1.257 . S
Zn196 O199 2.031 . S
Zn196 O201 2.049 . S
Zn196 O206 2.067 . S
Zn197 O198 1.962 . S
Zn197 O200 1.986 . S
Zn197 O202 1.996 . S
Zn197 O205 1.943 . S
O198 Zn197 1.962 . S
O198 C203 1.254 . S
O199 Zn196 2.031 . S
O199 C203 1.269 . S
O200 Zn197 1.986 . S
O200 C207 1.262 . S
O201 Zn196 2.049 . S
O201 C209 1.260 . S
O202 Zn197 1.996 . S
O202 C209 1.257 . S
C203 O198 1.254 . S
C203 O199 1.269 . S
C204 O205 1.249 . S
C204 O206 1.270 . S
O205 Zn197 1.943 . S
O205 C204 1.249 . S
O206 Zn196 2.067 . S
O206 C204 1.270 . S
C207 O200 1.262 . S
C207 O208 1.232 . S
O208 C207 1.232 . S
C209 O201 1.260 . S
C209 O202 1.257 . S
Zn210 O213 2.031 . S
Zn210 O215 2.049 . S
Zn210 O220 2.067 . S
Zn211 O212 1.962 . S
Zn211 O214 1.986 . S
Zn211 O216 1.996 . S
Zn211 O219 1.943 . S
O212 Zn211 1.962 . S
O212 C217 1.254 . S
O213 Zn210 2.031 . S
O213 C217 1.269 . S
O214 Zn211 1.986 . S
O214 C221 1.262 . S
O215 Zn210 2.049 . S
O215 C223 1.260 . S
O216 Zn211 1.996 . S
O216 C223 1.257 . S
C217 O212 1.254 . S
C217 O213 1.269 . S
C218 O219 1.249 . S
C218 O220 1.270 . S
O219 Zn211 1.943 . S
O219 C218 1.249 . S
O220 Zn210 2.067 . S
O220 C218 1.270 . S
C221 O214 1.262 . S
C221 O222 1.232 . S
O222 C221 1.232 . S
C223 O215 1.260 . S
C223 O216 1.257 . S
Zn224 O227 2.031 . S
Zn224 O229 2.049 . S
Zn224 O234 2.067 . S
Zn225 O226 1.962 . S
Zn225 O228 1.986 1_545 S
Zn225 O230 1.996 . S
Zn225 O233 1.943 . S
O226 Zn225 1.962 . S
O226 C231 1.254 . S
O227 Zn224 2.031 . S
O227 C231 1.269 . S
O228 Zn225 1.986 1_565 S
O228 C235 1.262 . S
O229 Zn224 2.049 . S
O229 C237 1.260 . S
O230 Zn225 1.996 . S
O230 C237 1.257 . S
C231 O226 1.254 . S
C231 O227 1.269 . S
C232 O233 1.249 . S
C232 O234 1.270 . S
O233 Zn225 1.943 . S
O233 C232 1.249 . S
O234 Zn224 2.067 . S
O234 C232 1.270 . S
C235 O228 1.262 . S
C235 O236 1.232 . S
O236 C235 1.232 . S
C237 O229 1.260 . S
C237 O230 1.257 . S
Zn238 O241 2.031 . S
Zn238 O243 2.049 . S
Zn238 O248 2.067 . S
Zn239 O240 1.962 1_655 S
Zn239 O242 1.986 . S
Zn239 O244 1.996 . S
Zn239 O247 1.943 . S
O240 Zn239 1.962 1_455 S
O240 C245 1.254 . S
O241 Zn238 2.031 . S
O241 C245 1.269 1_655 S
O242 Zn239 1.986 . S
O242 C249 1.262 . S
O243 Zn238 2.049 . S
O243 C251 1.260 . S
O244 Zn239 1.996 . S
O244 C251 1.257 . S
C245 O240 1.254 . S
C245 O241 1.269 1_455 S
C246 O247 1.249 . S
C246 O248 1.270 . S
O247 Zn239 1.943 . S
O247 C246 1.249 . S
O248 Zn238 2.067 . S
O248 C246 1.270 . S
C249 O242 1.262 . S
C249 O250 1.232 . S
O250 C249 1.232 . S
C251 O243 1.260 . S
C251 O244 1.257 . S
H252 C258 0.930 . S
H253 C261 0.931 . S
H254 C263 0.931 . S
H255 C265 0.930 . S
H256 C267 0.930 . S
H257 C269 0.931 . S
C258 H252 0.930 . S
C258 C259 1.380 . S
C258 C260 1.394 . S
C259 C258 1.380 . S
C259 C263 1.382 . S
C260 C258 1.394 . S
C260 C261 1.400 . S
C261 H253 0.931 . S
C261 C260 1.400 . S
C261 C262 1.375 . S
C262 C261 1.375 . S
C262 C263 1.415 . S
C262 C264 1.501 . S
C263 H254 0.931 . S
C263 C259 1.382 . S
C263 C262 1.415 . S
C264 C262 1.501 . S
C264 C265 1.384 . S
C264 C269 1.408 . S
C265 H255 0.930 . S
C265 C264 1.384 . S
C265 C266 1.389 . S
C266 C265 1.389 . S
C266 C267 1.405 . S
C267 H256 0.930 . S
C267 C266 1.405 . S
C267 C268 1.364 . S
C268 C267 1.364 . S
C268 C269 1.400 . S
C269 H257 0.931 . S
C269 C264 1.408 . S
C269 C268 1.400 . S
H270 C276 0.930 . S
H271 C279 0.931 . S
H272 C281 0.931 . S
H273 C283 0.930 . S
H274 C285 0.930 . S
H275 C287 0.931 . S
C276 H270 0.930 . S
C276 C277 1.380 . S
C276 C278 1.394 . S
C277 C276 1.380 . S
C277 C281 1.382 . S
C278 C276 1.394 . S
C278 C279 1.400 . S
C279 H271 0.931 . S
C279 C278 1.400 . S
C279 C280 1.375 . S
C280 C279 1.375 . S
C280 C281 1.415 . S
C280 C282 1.501 . S
C281 H272 0.931 . S
C281 C277 1.382 . S
C281 C280 1.415 . S
C282 C280 1.501 . S
C282 C283 1.384 . S
C282 C287 1.408 . S
C283 H273 0.930 . S
C283 C282 1.384 . S
C283 C284 1.389 . S
C284 C283 1.389 . S
C284 C285 1.405 . S
C285 H274 0.930 . S
C285 C284 1.405 . S
C285 C286 1.364 . S
C286 C285 1.364 . S
C286 C287 1.400 . S
C287 H275 0.931 . S
C287 C282 1.408 . S
C287 C286 1.400 . S
H288 C294 0.930 . S
H289 C297 0.931 . S
H290 C299 0.931 . S
H291 C301 0.930 . S
H292 C303 0.930 . S
H293 C305 0.931 . S
C294 H288 0.930 . S
C294 C295 1.380 . S
C294 C296 1.394 . S
C295 C294 1.380 . S
C295 C299 1.382 . S
C296 C294 1.394 . S
C296 C297 1.400 . S
C297 H289 0.931 . S
C297 C296 1.400 . S
C297 C298 1.375 . S
C298 C297 1.375 . S
C298 C299 1.415 . S
C298 C300 1.501 . S
C299 H290 0.931 . S
C299 C295 1.382 . S
C299 C298 1.415 . S
C300 C298 1.501 . S
C300 C301 1.384 . S
C300 C305 1.408 . S
C301 H291 0.930 . S
C301 C300 1.384 . S
C301 C302 1.389 . S
C302 C301 1.389 . S
C302 C303 1.405 . S
C303 H292 0.930 . S
C303 C302 1.405 . S
C303 C304 1.364 . S
C304 C303 1.364 . S
C304 C305 1.400 . S
C305 H293 0.931 . S
C305 C300 1.408 . S
C305 C304 1.400 . S
H306 C312 0.930 . S
H307 C315 0.931 . S
H308 C317 0.931 . S
H309 C319 0.930 . S
H310 C321 0.930 . S
H311 C323 0.931 . S
C312 H306 0.930 . S
C312 C313 1.380 . S
C312 C314 1.394 . S
C313 C312 1.380 . S
C313 C317 1.382 . S
C314 C312 1.394 . S
C314 C315 1.400 . S
C315 H307 0.931 . S
C315 C314 1.400 . S
C315 C316 1.375 . S
C316 C315 1.375 . S
C316 C317 1.415 . S
C316 C318 1.501 . S
C317 H308 0.931 . S
C317 C313 1.382 . S
C317 C316 1.415 . S
C318 C316 1.501 . S
C318 C319 1.384 . S
C318 C323 1.408 . S
C319 H309 0.930 . S
C319 C318 1.384 . S
C319 C320 1.389 . S
C320 C319 1.389 . S
C320 C321 1.405 . S
C321 H310 0.930 . S
C321 C320 1.405 . S
C321 C322 1.364 . S
C322 C321 1.364 . S
C322 C323 1.400 . S
C323 H311 0.931 . S
C323 C318 1.408 . S
C323 C322 1.400 . S
H324 C330 0.930 . S
H325 C333 0.931 . S
H326 C335 0.931 . S
H327 C337 0.930 . S
H328 C339 0.930 . S
H329 C341 0.931 . S
C330 H324 0.930 . S
C330 C331 1.380 . S
C330 C332 1.394 . S
C331 C330 1.380 . S
C331 C335 1.382 . S
C332 C330 1.394 . S
C332 C333 1.400 . S
C333 H325 0.931 . S
C333 C332 1.400 . S
C333 C334 1.375 . S
C334 C333 1.375 . S
C334 C335 1.415 . S
C334 C336 1.501 . S
C335 H326 0.931 . S
C335 C331 1.382 . S
C335 C334 1.415 . S
C336 C334 1.501 . S
C336 C337 1.384 . S
C336 C341 1.408 . S
C337 H327 0.930 . S
C337 C336 1.384 . S
C337 C338 1.389 . S
C338 C337 1.389 . S
C338 C339 1.405 . S
C339 H328 0.930 . S
C339 C338 1.405 . S
C339 C340 1.364 . S
C340 C339 1.364 . S
C340 C341 1.400 . S
C341 H329 0.931 . S
C341 C336 1.408 . S
C341 C340 1.400 . S
H342 C348 0.930 . S
H343 C351 0.931 . S
H344 C353 0.931 . S
H345 C355 0.930 . S
H346 C357 0.930 . S
H347 C359 0.931 . S
C348 H342 0.930 . S
C348 C349 1.380 . S
C348 C350 1.394 . S
C349 C348 1.380 . S
C349 C353 1.382 . S
C350 C348 1.394 . S
C350 C351 1.400 . S
C351 H343 0.931 . S
C351 C350 1.400 . S
C351 C352 1.375 . S
C352 C351 1.375 . S
C352 C353 1.415 . S
C352 C354 1.501 . S
C353 H344 0.931 . S
C353 C349 1.382 . S
C353 C352 1.415 . S
C354 C352 1.501 . S
C354 C355 1.384 . S
C354 C359 1.408 . S
C355 H345 0.930 . S
C355 C354 1.384 . S
C355 C356 1.389 . S
C356 C355 1.389 . S
C356 C357 1.405 . S
C357 H346 0.930 . S
C357 C356 1.405 . S
C357 C358 1.364 . S
C358 C357 1.364 . S
C358 C359 1.400 . S
C359 H347 0.931 . S
C359 C354 1.408 . S
C359 C358 1.400 . S
H360 C366 0.930 . S
H361 C369 0.931 . S
H362 C371 0.931 . S
H363 C373 0.930 . S
H364 C375 0.930 . S
H365 C377 0.931 . S
C366 H360 0.930 . S
C366 C367 1.380 . S
C366 C368 1.394 . S
C367 C366 1.380 . S
C367 C371 1.382 . S
C368 C366 1.394 . S
C368 C369 1.400 . S
C369 H361 0.931 . S
C369 C368 1.400 . S
C369 C370 1.375 . S
C370 C369 1.375 . S
C370 C371 1.415 . S
C370 C372 1.501 . S
C371 H362 0.931 . S
C371 C367 1.382 . S
C371 C370 1.415 . S
C372 C370 1.501 . S
C372 C373 1.384 . S
C372 C377 1.408 . S
C373 H363 0.930 . S
C373 C372 1.384 . S
C373 C374 1.389 . S
C374 C373 1.389 . S
C374 C375 1.405 . S
C375 H364 0.930 . S
C375 C374 1.405 . S
C375 C376 1.364 . S
C376 C375 1.364 . S
C376 C377 1.400 . S
C377 H365 0.931 . S
C377 C372 1.408 . S
C377 C376 1.400 . S
H378 C384 0.930 . S
H379 C387 0.931 . S
H380 C389 0.931 . S
H381 C391 0.930 . S
H382 C393 0.930 . S
H383 C395 0.931 . S
C384 H378 0.930 . S
C384 C385 1.380 . S
C384 C386 1.394 . S
C385 C384 1.380 . S
C385 C389 1.382 . S
C386 C384 1.394 . S
C386 C387 1.400 . S
C387 H379 0.931 . S
C387 C386 1.400 . S
C387 C388 1.375 . S
C388 C387 1.375 . S
C388 C389 1.415 . S
C388 C390 1.501 . S
C389 H380 0.931 . S
C389 C385 1.382 . S
C389 C388 1.415 . S
C390 C388 1.501 . S
C390 C391 1.384 . S
C390 C395 1.408 . S
C391 H381 0.930 . S
C391 C390 1.384 . S
C391 C392 1.389 . S
C392 C391 1.389 . S
C392 C393 1.405 . S
C393 H382 0.930 . S
C393 C392 1.405 . S
C393 C394 1.364 . S
C394 C393 1.364 . S
C394 C395 1.400 . S
C395 H383 0.931 . S
C395 C390 1.408 . S
C395 C394 1.400 . S
H396 C402 0.930 . S
H397 C405 0.931 . S
H398 C407 0.931 . S
H399 C409 0.930 . S
H400 C411 0.930 . S
H401 C413 0.931 . S
C402 H396 0.930 . S
C402 C403 1.380 . S
C402 C404 1.394 . S
C403 C402 1.380 . S
C403 C407 1.382 . S
C404 C402 1.394 . S
C404 C405 1.400 . S
C405 H397 0.931 . S
C405 C404 1.400 . S
C405 C406 1.375 . S
C406 C405 1.375 . S
C406 C407 1.415 . S
C406 C408 1.501 . S
C407 H398 0.931 . S
C407 C403 1.382 . S
C407 C406 1.415 . S
C408 C406 1.501 . S
C408 C409 1.384 . S
C408 C413 1.408 . S
C409 H399 0.930 . S
C409 C408 1.384 . S
C409 C410 1.389 . S
C410 C409 1.389 . S
C410 C411 1.405 . S
C411 H400 0.930 . S
C411 C410 1.405 . S
C411 C412 1.364 . S
C412 C411 1.364 . S
C412 C413 1.400 . S
C413 H401 0.931 . S
C413 C408 1.408 . S
C413 C412 1.400 . S
H414 C420 0.930 . S
H415 C423 0.931 . S
H416 C425 0.931 . S
H417 C427 0.930 . S
H418 C429 0.930 . S
H419 C431 0.941 . S
C420 H414 0.930 . S
C420 C421 1.380 . S
C420 C422 1.394 1_655 S
C421 C420 1.380 . S
C421 C425 1.382 . S
C422 C420 1.394 1_455 S
C422 C423 1.400 . S
C423 H415 0.931 . S
C423 C422 1.400 . S
C423 C424 1.375 . S
C424 C423 1.375 . S
C424 C425 1.415 1_455 S
C424 C426 1.501 . S
C425 H416 0.931 . S
C425 C421 1.382 . S
C425 C424 1.415 1_655 S
C426 C424 1.501 . S
C426 C427 1.384 . S
C426 C431 1.421 . S
C427 H417 0.930 . S
C427 C426 1.384 . S
C427 C428 1.389 . S
C428 C427 1.389 . S
C428 C429 1.405 . S
C429 H418 0.930 . S
C429 C428 1.405 . S
C429 C430 1.361 . S
C430 C429 1.361 . S
C430 C431 1.388 . S
C431 H419 0.941 . S
C431 C426 1.421 . S
C431 C430 1.388 . S
H432 C438 0.930 . S
H433 C441 0.931 . S
H434 C443 0.931 . S
H435 C445 0.930 . S
H436 C447 0.930 . S
H437 C449 0.931 . S
C438 H432 0.930 . S
C438 C439 1.380 . S
C438 C440 1.394 . S
C439 C438 1.380 . S
C439 C443 1.382 . S
C440 C438 1.394 . S
C440 C441 1.400 . S
C441 H433 0.931 . S
C441 C440 1.400 . S
C441 C442 1.375 . S
C442 C441 1.375 . S
C442 C443 1.415 . S
C442 C444 1.501 . S
C443 H434 0.931 . S
C443 C439 1.382 . S
C443 C442 1.415 . S
C444 C442 1.501 . S
C444 C445 1.384 . S
C444 C449 1.408 . S
C445 H435 0.930 . S
C445 C444 1.384 . S
C445 C446 1.389 . S
C446 C445 1.389 . S
C446 C447 1.405 . S
C447 H436 0.930 . S
C447 C446 1.405 . S
C447 C448 1.364 . S
C448 C447 1.364 . S
C448 C449 1.400 . S
C449 H437 0.931 . S
C449 C444 1.408 . S
C449 C448 1.400 . S
H450 C456 0.975 . S
H451 C459 0.931 . S
H452 C461 0.931 . S
H453 C463 0.930 . S
H454 C465 0.930 . S
H455 C467 0.916 . S
C456 H450 0.975 . S
C456 C457 1.370 . S
C456 C458 1.364 1_545 S
C457 C456 1.370 . S
C457 C461 1.382 . S
C458 C456 1.364 1_565 S
C458 C459 1.400 . S
C459 H451 0.931 . S
C459 C458 1.400 . S
C459 C460 1.375 . S
C460 C459 1.375 . S
C460 C461 1.415 1_565 S
C460 C462 1.501 . S
C461 H452 0.931 . S
C461 C457 1.382 . S
C461 C460 1.415 1_545 S
C462 C460 1.501 . S
C462 C463 1.384 . S
C462 C467 1.393 . S
C463 H453 0.930 . S
C463 C462 1.384 . S
C463 C464 1.389 . S
C464 C463 1.389 . S
C464 C465 1.405 . S
C465 H454 0.930 . S
C465 C464 1.405 . S
C465 C466 1.364 . S
C466 C465 1.364 . S
C466 C467 1.440 . S
C467 H455 0.916 . S
C467 C462 1.393 . S
C467 C466 1.440 . S
H468 C474 0.964 . S
H469 C477 0.931 . S
H470 C479 0.923 . S
H471 C481 0.930 . S
H472 C483 0.945 . S
H473 C485 0.931 . S
C474 H468 0.964 . S
C474 C475 1.378 1_545 S
C474 C476 1.393 1_545 S
C475 C474 1.378 1_565 S
C475 C479 1.402 . S
C476 C474 1.393 1_565 S
C476 C477 1.400 . S
C477 H469 0.931 . S
C477 C476 1.400 . S
C477 C478 1.375 . S
C478 C477 1.375 . S
C478 C479 1.407 . S
C478 C480 1.501 . S
C479 H470 0.923 . S
C479 C475 1.402 . S
C479 C478 1.407 . S
C480 C478 1.501 . S
C480 C481 1.384 . S
C480 C485 1.408 1_565 S
C481 H471 0.930 . S
C481 C480 1.384 . S
C481 C482 1.389 . S
C482 C481 1.389 . S
C482 C483 1.418 . S
C483 H472 0.945 . S
C483 C482 1.418 . S
C483 C484 1.369 1_565 S
C484 C483 1.369 1_545 S
C484 C485 1.400 . S
C485 H473 0.931 . S
C485 C480 1.408 1_545 S
C485 C484 1.400 . S
H486 C492 0.971 . S
H487 C495 0.931 . S
H488 C497 0.934 . S
H489 C499 0.930 . S
H490 C501 0.930 . S
H491 C503 0.931 . S
C492 H486 0.971 . S
C492 C493 1.372 . S
C492 C494 1.369 1_655 S
C493 C492 1.372 . S
C493 C497 1.354 1_655 S
C494 C492 1.369 1_455 S
C494 C495 1.412 . S
C495 H487 0.931 . S
C495 C494 1.412 . S
C495 C496 1.375 . S
C496 C495 1.375 . S
C496 C497 1.420 . S
C496 C498 1.501 . S
C497 H488 0.934 . S
C497 C493 1.354 1_455 S
C497 C496 1.420 . S
C498 C496 1.501 . S
C498 C499 1.384 . S
C498 C503 1.408 1_455 S
C499 H489 0.930 . S
C499 C498 1.384 . S
C499 C500 1.389 . S
C500 C499 1.389 . S
C500 C501 1.405 . S
C501 H490 0.930 . S
C501 C500 1.405 . S
C501 C502 1.364 1_455 S
C502 C501 1.364 1_655 S
C502 C503 1.400 . S
C503 H491 0.931 . S
C503 C498 1.408 1_655 S
C503 C502 1.400 . S
H504 C510 0.930 . S
H505 C513 0.931 . S
H506 C515 0.931 . S
H507 C517 0.930 . S
H508 C519 0.930 . S
H509 C521 0.931 . S
C510 H504 0.930 . S
C510 C511 1.380 . S
C510 C512 1.394 . S
C511 C510 1.380 . S
C511 C515 1.382 . S
C512 C510 1.394 . S
C512 C513 1.400 . S
C513 H505 0.931 . S
C513 C512 1.400 . S
C513 C514 1.375 . S
C514 C513 1.375 . S
C514 C515 1.415 . S
C514 C516 1.501 . S
C515 H506 0.931 . S
C515 C511 1.382 . S
C515 C514 1.415 . S
C516 C514 1.501 . S
C516 C517 1.384 . S
C516 C521 1.408 . S
C517 H507 0.930 . S
C517 C516 1.384 . S
C517 C518 1.389 . S
C518 C517 1.389 . S
C518 C519 1.405 . S
C519 H508 0.930 . S
C519 C518 1.405 . S
C519 C520 1.364 . S
C520 C519 1.364 . S
C520 C521 1.400 . S
C521 H509 0.931 . S
C521 C516 1.408 . S
C521 C520 1.400 . S
H522 C528 0.930 . S
H523 C531 0.931 . S
H524 C533 0.931 . S
H525 C535 0.930 . S
H526 C537 0.930 . S
H527 C539 0.931 . S
C528 H522 0.930 . S
C528 C529 1.380 . S
C528 C530 1.394 . S
C529 C528 1.380 . S
C529 C533 1.382 . S
C530 C528 1.394 . S
C530 C531 1.400 . S
C531 H523 0.931 . S
C531 C530 1.400 . S
C531 C532 1.375 . S
C532 C531 1.375 . S
C532 C533 1.415 . S
C532 C534 1.501 . S
C533 H524 0.931 . S
C533 C529 1.382 . S
C533 C532 1.415 . S
C534 C532 1.501 . S
C534 C535 1.384 . S
C534 C539 1.408 . S
C535 H525 0.930 . S
C535 C534 1.384 . S
C535 C536 1.389 . S
C536 C535 1.389 . S
C536 C537 1.405 . S
C537 H526 0.930 . S
C537 C536 1.405 . S
C537 C538 1.364 . S
C538 C537 1.364 . S
C538 C539 1.400 . S
C539 H527 0.931 . S
C539 C534 1.408 . S
C539 C538 1.400 . S
H540 C546 0.930 . S
H541 C549 0.931 . S
H542 C551 0.931 . S
H543 C553 0.930 . S
H544 C555 0.930 . S
H545 C557 0.931 . S
C546 H540 0.930 . S
C546 C547 1.380 . S
C546 C548 1.394 . S
C547 C546 1.380 . S
C547 C551 1.382 . S
C548 C546 1.394 . S
C548 C549 1.400 . S
C549 H541 0.931 . S
C549 C548 1.400 . S
C549 C550 1.375 . S
C550 C549 1.375 . S
C550 C551 1.415 . S
C550 C552 1.501 . S
C551 H542 0.931 . S
C551 C547 1.382 . S
C551 C550 1.415 . S
C552 C550 1.501 . S
C552 C553 1.384 . S
C552 C557 1.408 . S
C553 H543 0.930 . S
C553 C552 1.384 . S
C553 C554 1.389 . S
C554 C553 1.389 . S
C554 C555 1.405 . S
C555 H544 0.930 . S
C555 C554 1.405 . S
C555 C556 1.364 . S
C556 C555 1.364 . S
C556 C557 1.400 . S
C557 H545 0.931 . S
C557 C552 1.408 . S
C557 C556 1.400 . S
H558 C564 0.930 . S
H559 C567 0.931 . S
H560 C569 0.931 . S
H561 C571 0.930 . S
H562 C573 0.930 . S
H563 C575 0.931 . S
C564 H558 0.930 . S
C564 C565 1.380 . S
C564 C566 1.394 . S
C565 C564 1.380 . S
C565 C569 1.382 . S
C566 C564 1.394 . S
C566 C567 1.400 . S
C567 H559 0.931 . S
C567 C566 1.400 . S
C567 C568 1.375 . S
C568 C567 1.375 . S
C568 C569 1.415 . S
C568 C570 1.501 . S
C569 H560 0.931 . S
C569 C565 1.382 . S
C569 C568 1.415 . S
C570 C568 1.501 . S
C570 C571 1.384 . S
C570 C575 1.408 . S
C571 H561 0.930 . S
C571 C570 1.384 . S
C571 C572 1.389 . S
C572 C571 1.389 . S
C572 C573 1.405 . S
C573 H562 0.930 . S
C573 C572 1.405 . S
C573 C574 1.364 . S
C574 C573 1.364 . S
C574 C575 1.400 . S
C575 H563 0.931 . S
C575 C570 1.408 . S
C575 C574 1.400 . S
C576 C577 1.395 1_455 S
C576 C578 1.364 1_455 S
C576 H592 0.940 . S
C577 C576 1.395 1_655 S
C577 C581 1.376 . S
C578 C576 1.364 1_655 S
C578 C579 1.383 . S
C578 C582 1.536 1_655 S
C579 C578 1.383 . S
C579 C580 1.410 . S
C579 C587 1.503 . S
C580 C579 1.410 . S
C580 C581 1.392 . S
C580 C583 1.511 . S
C581 C577 1.376 . S
C581 C580 1.392 . S
C581 H593 0.929 . S
C582 C578 1.536 1_455 S
C582 H594 0.960 . S
C582 H595 0.962 . S
C582 H596 0.960 . S
C583 C580 1.511 . S
C583 H597 0.961 . S
C583 H598 0.961 . S
C583 H599 0.961 . S
C584 C585 1.370 1_455 S
C584 C586 1.363 . S
C584 H600 0.931 . S
C585 C584 1.370 1_655 S
C585 C589 1.408 . S
C586 C584 1.363 . S
C586 C587 1.370 1_455 S
C586 C590 1.524 . S
C587 C579 1.503 . S
C587 C586 1.370 1_655 S
C587 C588 1.403 . S
C588 C587 1.403 . S
C588 C589 1.404 . S
C588 C591 1.539 . S
C589 C585 1.408 . S
C589 C588 1.404 . S
C589 H601 0.930 . S
C590 C586 1.524 . S
C590 H602 0.956 . S
C590 H603 0.961 . S
C590 H604 0.961 . S
C591 C588 1.539 . S
C591 H605 0.958 . S
C591 H606 0.961 . S
C591 H607 0.960 . S
H592 C576 0.940 . S
H593 C581 0.929 . S
H594 C582 0.960 . S
H595 C582 0.962 . S
H596 C582 0.960 . S
H597 C583 0.961 . S
H598 C583 0.961 . S
H599 C583 0.961 . S
H600 C584 0.931 . S
H601 C589 0.930 . S
H602 C590 0.956 . S
H603 C590 0.961 . S
H604 C590 0.961 . S
H605 C591 0.958 . S
H606 C591 0.961 . S
H607 C591 0.960 . S
C608 C609 1.391 . S
C608 C610 1.394 . S
C608 H624 0.931 . S
C609 C608 1.391 . S
C609 C613 1.376 . S
C610 C608 1.394 . S
C610 C611 1.369 . S
C610 C614 1.531 . S
C611 C610 1.369 . S
C611 C612 1.410 . S
C611 C619 1.503 . S
C612 C611 1.410 . S
C612 C613 1.392 . S
C612 C615 1.511 . S
C613 C609 1.376 . S
C613 C612 1.392 . S
C613 H625 0.929 . S
C614 C610 1.531 . S
C614 H626 0.960 . S
C614 H627 0.962 . S
C614 H628 0.960 . S
C615 C612 1.511 . S
C615 H629 0.961 . S
C615 H630 0.961 . S
C615 H631 0.961 . S
C616 C617 1.370 . S
C616 C618 1.363 . S
C616 H632 0.931 . S
C617 C616 1.370 . S
C617 C621 1.408 . S
C618 C616 1.363 . S
C618 C619 1.370 . S
C618 C622 1.524 . S
C619 C611 1.503 . S
C619 C618 1.370 . S
C619 C620 1.403 . S
C620 C619 1.403 . S
C620 C621 1.404 . S
C620 C623 1.539 . S
C621 C617 1.408 . S
C621 C620 1.404 . S
C621 H633 0.930 . S
C622 C618 1.524 . S
C622 H634 0.956 . S
C622 H635 0.961 . S
C622 H636 0.961 . S
C623 C620 1.539 . S
C623 H637 0.958 . S
C623 H638 0.961 . S
C623 H639 0.960 . S
H624 C608 0.931 . S
H625 C613 0.929 . S
H626 C614 0.960 . S
H627 C614 0.962 . S
H628 C614 0.960 . S
H629 C615 0.961 . S
H630 C615 0.961 . S
H631 C615 0.961 . S
H632 C616 0.931 . S
H633 C621 0.930 . S
H634 C622 0.956 . S
H635 C622 0.961 . S
H636 C622 0.961 . S
H637 C623 0.958 . S
H638 C623 0.961 . S
H639 C623 0.960 . S
C640 C641 1.404 . S
C640 C642 1.368 1_545 S
C640 H656 0.947 1_545 S
C641 C640 1.404 . S
C641 C645 1.376 . S
C642 C640 1.368 1_565 S
C642 C643 1.369 1_565 S
C642 C646 1.531 . S
C643 C642 1.369 1_545 S
C643 C644 1.410 . S
C643 C651 1.503 . S
C644 C643 1.410 . S
C644 C645 1.392 . S
C644 C647 1.511 . S
C645 C641 1.376 . S
C645 C644 1.392 . S
C645 H657 0.929 . S
C646 C642 1.531 . S
C646 H658 0.960 . S
C646 H659 0.962 1_565 S
C646 H660 0.960 . S
C647 C644 1.511 . S
C647 H661 0.961 . S
C647 H662 0.961 . S
C647 H663 0.961 . S
C648 C649 1.370 . S
C648 C650 1.363 . S
C648 H664 0.931 . S
C649 C648 1.370 . S
C649 C653 1.408 1_545 S
C650 C648 1.363 . S
C650 C651 1.370 . S
C650 C654 1.524 . S
C651 C643 1.503 . S
C651 C650 1.370 . S
C651 C652 1.403 1_545 S
C652 C651 1.403 1_565 S
C652 C653 1.404 . S
C652 C655 1.539 . S
C653 C649 1.408 1_565 S
C653 C652 1.404 . S
C653 H665 0.930 . S
C654 C650 1.524 . S
C654 H666 0.956 . S
C654 H667 0.961 . S
C654 H668 0.961 . S
C655 C652 1.539 . S
C655 H669 0.958 . S
C655 H670 0.961 . S
C655 H671 0.960 . S
H656 C640 0.947 1_565 S
H657 C645 0.929 . S
H658 C646 0.960 . S
H659 C646 0.962 1_545 S
H660 C646 0.960 . S
H661 C647 0.961 . S
H662 C647 0.961 . S
H663 C647 0.961 . S
H664 C648 0.931 . S
H665 C653 0.930 . S
H666 C654 0.956 . S
H667 C654 0.961 . S
H668 C654 0.961 . S
H669 C655 0.958 . S
H670 C655 0.961 . S
H671 C655 0.960 . S
C672 C673 1.391 . S
C672 C674 1.394 . S
C672 H688 0.931 . S
C673 C672 1.391 . S
C673 C677 1.376 1_565 S
C674 C672 1.394 . S
C674 C675 1.369 . S
C674 C678 1.531 . S
C675 C674 1.369 . S
C675 C676 1.410 1_565 S
C675 C683 1.503 . S
C676 C675 1.410 1_545 S
C676 C677 1.392 . S
C676 C679 1.511 . S
C677 C673 1.376 1_545 S
C677 C676 1.392 . S
C677 H689 0.929 . S
C678 C674 1.531 . S
C678 H690 0.960 . S
C678 H691 0.962 . S
C678 H692 0.960 . S
C679 C676 1.511 . S
C679 H693 0.961 . S
C679 H694 0.961 . S
C679 H695 0.961 . S
C680 C681 1.370 . S
C680 C682 1.363 . S
C680 H696 0.931 . S
C681 C680 1.370 . S
C681 C685 1.413 1_565 S
C682 C680 1.363 . S
C682 C683 1.370 . S
C682 C686 1.524 . S
C683 C675 1.503 . S
C683 C682 1.370 . S
C683 C684 1.402 1_565 S
C684 C683 1.402 1_545 S
C684 C685 1.398 . S
C684 C687 1.543 . S
C685 C681 1.413 1_545 S
C685 C684 1.398 . S
C685 H697 0.928 . S
C686 C682 1.524 . S
C686 H698 0.956 . S
C686 H699 1.001 . S
C686 H700 0.961 . S
C687 C684 1.543 . S
C687 H701 0.958 1_545 S
C687 H702 0.961 . S
C687 H703 0.960 . S
H688 C672 0.931 . S
H689 C677 0.929 . S
H690 C678 0.960 . S
H691 C678 0.962 . S
H692 C678 0.960 . S
H693 C679 0.961 . S
H694 C679 0.961 . S
H695 C679 0.961 . S
H696 C680 0.931 . S
H697 C685 0.928 . S
H698 C686 0.956 . S
H699 C686 1.001 . S
H700 C686 0.961 . S
H701 C687 0.958 1_565 S
H702 C687 0.961 . S
H703 C687 0.960 . S
C704 C705 1.391 1_655 S
C704 C706 1.394 . S
C704 H720 0.931 . S
C705 C704 1.391 1_455 S
C705 C709 1.376 . S
C706 C704 1.394 . S
C706 C707 1.369 1_655 S
C706 C710 1.531 . S
C707 C706 1.369 1_455 S
C707 C708 1.410 . S
C707 C715 1.503 . S
C708 C707 1.410 . S
C708 C709 1.392 . S
C708 C711 1.511 . S
C709 C705 1.376 . S
C709 C708 1.392 . S
C709 H721 0.929 . S
C710 C706 1.531 . S
C710 H722 0.960 . S
C710 H723 0.962 . S
C710 H724 0.960 . S
C711 C708 1.511 . S
C711 H725 0.961 . S
C711 H726 0.961 . S
C711 H727 0.961 . S
C712 C713 1.370 1_655 S
C712 C714 1.363 . S
C712 H728 0.931 . S
C713 C712 1.370 1_455 S
C713 C717 1.408 . S
C714 C712 1.363 . S
C714 C715 1.370 1_655 S
C714 C718 1.524 . S
C715 C707 1.503 . S
C715 C714 1.370 1_455 S
C715 C716 1.403 . S
C716 C715 1.403 . S
C716 C717 1.404 . S
C716 C719 1.539 . S
C717 C713 1.408 . S
C717 C716 1.404 . S
C717 H729 0.930 . S
C718 C714 1.524 . S
C718 H730 0.956 . S
C718 H731 0.961 . S
C718 H732 0.961 . S
C719 C716 1.539 . S
C719 H733 0.958 . S
C719 H734 0.961 . S
C719 H735 0.960 . S
H720 C704 0.931 . S
H721 C709 0.929 . S
H722 C710 0.960 . S
H723 C710 0.962 . S
H724 C710 0.960 . S
H725 C711 0.961 . S
H726 C711 0.961 . S
H727 C711 0.961 . S
H728 C712 0.931 . S
H729 C717 0.930 . S
H730 C718 0.956 . S
H731 C718 0.961 . S
H732 C718 0.961 . S
H733 C719 0.958 . S
H734 C719 0.961 . S
H735 C719 0.960 . S
C736 C737 1.391 . S
C736 C738 1.394 . S
C736 H752 0.931 . S
C737 C736 1.391 . S
C737 C741 1.376 . S
C738 C736 1.394 . S
C738 C739 1.369 . S
C738 C742 1.531 . S
C739 C738 1.369 . S
C739 C740 1.410 . S
C739 C747 1.503 . S
C740 C739 1.410 . S
C740 C741 1.392 . S
C740 C743 1.511 . S
C741 C737 1.376 . S
C741 C740 1.392 . S
C741 H753 0.929 . S
C742 C738 1.531 . S
C742 H754 0.960 . S
C742 H755 0.962 . S
C742 H756 0.960 . S
C743 C740 1.511 . S
C743 H757 0.961 . S
C743 H758 0.961 . S
C743 H759 0.961 . S
C744 C745 1.370 . S
C744 C746 1.363 . S
C744 H760 0.931 . S
C745 C744 1.370 . S
C745 C749 1.408 . S
C746 C744 1.363 . S
C746 C747 1.370 . S
C746 C750 1.524 . S
C747 C739 1.503 . S
C747 C746 1.370 . S
C747 C748 1.403 . S
C748 C747 1.403 . S
C748 C749 1.404 . S
C748 C751 1.539 . S
C749 C745 1.408 . S
C749 C748 1.404 . S
C749 H761 0.930 . S
C750 C746 1.524 . S
C750 H762 0.956 . S
C750 H763 0.961 . S
C750 H764 0.961 . S
C751 C748 1.539 . S
C751 H765 0.958 . S
C751 H766 0.961 . S
C751 H767 0.960 . S
H752 C736 0.931 . S
H753 C741 0.929 . S
H754 C742 0.960 . S
H755 C742 0.962 . S
H756 C742 0.960 . S
H757 C743 0.961 . S
H758 C743 0.961 . S
H759 C743 0.961 . S
H760 C744 0.931 . S
H761 C749 0.930 . S
H762 C750 0.956 . S
H763 C750 0.961 . S
H764 C750 0.961 . S
H765 C751 0.958 . S
H766 C751 0.961 . S
H767 C751 0.960 . S
C768 C769 1.391 . S
C768 C770 1.394 . S
C768 H784 0.931 . S
C769 C768 1.391 . S
C769 C773 1.376 1_455 S
C770 C768 1.394 . S
C770 C771 1.369 . S
C770 C774 1.531 . S
C771 C770 1.369 . S
C771 C772 1.410 1_455 S
C771 C779 1.503 . S
C772 C771 1.410 1_655 S
C772 C773 1.392 . S
C772 C775 1.511 . S
C773 C769 1.376 1_655 S
C773 C772 1.392 . S
C773 H785 0.929 . S
C774 C770 1.531 . S
C774 H786 0.960 . S
C774 H787 0.962 . S
C774 H788 0.960 . S
C775 C772 1.511 . S
C775 H789 0.961 . S
C775 H790 0.961 . S
C775 H791 0.961 . S
C776 C777 1.327 1_655 S
C776 C778 1.363 . S
C776 H792 0.931 . S
C777 C776 1.327 1_455 S
C777 C781 1.439 . S
C778 C776 1.363 . S
C778 C779 1.370 1_655 S
C778 C782 1.524 . S
C779 C771 1.503 . S
C779 C778 1.370 1_455 S
C779 C780 1.403 . S
C780 C779 1.403 . S
C780 C781 1.404 . S
C780 C783 1.539 . S
C781 C777 1.439 . S
C781 C780 1.404 . S
C781 H793 0.930 . S
C782 C778 1.524 . S
C782 H794 0.956 . S
C782 H795 0.961 . S
C782 H796 0.961 . S
C783 C780 1.539 . S
C783 H797 0.958 . S
C783 H798 0.961 . S
C783 H799 0.960 . S
H784 C768 0.931 . S
H785 C773 0.929 . S
H786 C774 0.960 . S
H787 C774 0.962 . S
H788 C774 0.960 . S
H789 C775 0.961 . S
H790 C775 0.961 . S
H791 C775 0.961 . S
H792 C776 0.931 . S
H793 C781 0.930 . S
H794 C782 0.956 . S
H795 C782 0.961 . S
H796 C782 0.961 . S
H797 C783 0.958 . S
H798 C783 0.961 . S
H799 C783 0.960 . S
C800 C801 1.391 . S
C800 C802 1.394 . S
C800 H816 0.931 . S
C801 C800 1.391 . S
C801 C805 1.376 . S
C802 C800 1.394 . S
C802 C803 1.369 . S
C802 C806 1.531 . S
C803 C802 1.369 . S
C803 C804 1.410 . S
C803 C811 1.503 . S
C804 C803 1.410 . S
C804 C805 1.392 . S
C804 C807 1.511 . S
C805 C801 1.376 . S
C805 C804 1.392 . S
C805 H817 0.929 . S
C806 C802 1.531 . S
C806 H818 0.960 . S
C806 H819 0.962 . S
C806 H820 0.960 . S
C807 C804 1.511 . S
C807 H821 0.961 . S
C807 H822 0.961 . S
C807 H823 0.961 . S
C808 C809 1.370 . S
C808 C810 1.363 . S
C808 H824 0.931 . S
C809 C808 1.370 . S
C809 C813 1.408 . S
C810 C808 1.363 . S
C810 C811 1.370 . S
C810 C814 1.524 . S
C811 C803 1.503 . S
C811 C810 1.370 . S
C811 C812 1.403 . S
C812 C811 1.403 . S
C812 C813 1.404 . S
C812 C815 1.539 . S
C813 C809 1.408 . S
C813 C812 1.404 . S
C813 H825 0.930 . S
C814 C810 1.524 . S
C814 H826 0.956 . S
C814 H827 0.961 . S
C814 H828 0.961 . S
C815 C812 1.539 . S
C815 H829 0.958 . S
C815 H830 0.961 . S
C815 H831 0.960 . S
H816 C800 0.931 . S
H817 C805 0.929 . S
H818 C806 0.960 . S
H819 C806 0.962 . S
H820 C806 0.960 . S
H821 C807 0.961 . S
H822 C807 0.961 . S
H823 C807 0.961 . S
H824 C808 0.931 . S
H825 C813 0.930 . S
H826 C814 0.956 . S
H827 C814 0.961 . S
H828 C814 0.961 . S
H829 C815 0.958 . S
H830 C815 0.961 . S
H831 C815 0.960 . S
C832 C833 1.391 1_545 S
C832 C834 1.394 . S
C832 H848 0.931 . S
C833 C832 1.391 1_565 S
C833 C837 1.376 . S
C834 C832 1.394 . S
C834 C835 1.369 1_545 S
C834 C838 1.531 . S
C835 C834 1.369 1_565 S
C835 C836 1.410 . S
C835 C843 1.503 . S
C836 C835 1.410 . S
C836 C837 1.392 . S
C836 C839 1.511 . S
C837 C833 1.376 . S
C837 C836 1.392 . S
C837 H849 0.929 . S
C838 C834 1.531 . S
C838 H850 0.960 . S
C838 H851 0.962 . S
C838 H852 0.960 . S
C839 C836 1.511 . S
C839 H853 0.961 . S
C839 H854 0.961 . S
C839 H855 0.961 . S
C840 C841 1.370 1_545 S
C840 C842 1.363 . S
C840 H856 0.931 . S
C841 C840 1.370 1_565 S
C841 C845 1.408 . S
C842 C840 1.363 . S
C842 C843 1.370 1_545 S
C842 C846 1.524 . S
C843 C835 1.503 . S
C843 C842 1.370 1_565 S
C843 C844 1.403 . S
C844 C843 1.403 . S
C844 C845 1.404 . S
C844 C847 1.539 . S
C845 C841 1.408 . S
C845 C844 1.404 . S
C845 H857 0.930 . S
C846 C842 1.524 . S
C846 H858 0.956 . S
C846 H859 0.961 . S
C846 H860 0.961 . S
C847 C844 1.539 . S
C847 H861 0.958 . S
C847 H862 0.961 . S
C847 H863 0.960 . S
H848 C832 0.931 . S
H849 C837 0.929 . S
H850 C838 0.960 . S
H851 C838 0.962 . S
H852 C838 0.960 . S
H853 C839 0.961 . S
H854 C839 0.961 . S
H855 C839 0.961 . S
H856 C840 0.931 . S
H857 C845 0.930 . S
H858 C846 0.956 . S
H859 C846 0.961 . S
H860 C846 0.961 . S
H861 C847 0.958 . S
H862 C847 0.961 . S
H863 C847 0.960 . S
C864 C865 1.391 . S
C864 C866 1.397 1_545 S
C864 H880 0.931 . S
C865 C864 1.391 . S
C865 C869 1.376 . S
C866 C864 1.397 1_565 S
C866 C867 1.368 . S
C866 C870 1.526 . S
C867 C866 1.368 . S
C867 C868 1.421 1_565 S
C867 C875 1.510 . S
C868 C867 1.421 1_545 S
C868 C869 1.392 . S
C868 C871 1.518 . S
C869 C865 1.376 . S
C869 C868 1.392 . S
C869 H881 0.929 . S
C870 C866 1.526 . S
C870 H882 0.960 . S
C870 H883 0.962 1_565 S
C870 H884 0.960 . S
C871 C868 1.518 . S
C871 H885 0.964 . S
C871 H886 1.005 . S
C871 H887 0.910 1_545 S
C872 C873 1.342 1_545 S
C872 C874 1.363 . S
C872 H888 0.931 . S
C873 C872 1.342 1_565 S
C873 C877 1.460 . S
C874 C872 1.363 . S
C874 C875 1.327 1_545 S
C874 C878 1.524 . S
C875 C867 1.510 . S
C875 C874 1.327 1_565 S
C875 C876 1.428 . S
C876 C875 1.428 . S
C876 C877 1.404 . S
C876 C879 1.539 . S
C877 C873 1.460 . S
C877 C876 1.404 . S
C877 H889 0.930 . S
C878 C874 1.524 . S
C878 H890 0.956 . S
C878 H891 0.961 . S
C878 H892 0.961 . S
C879 C876 1.539 . S
C879 H893 0.958 . S
C879 H894 0.961 . S
C879 H895 0.960 . S
H880 C864 0.931 . S
H881 C869 0.929 . S
H882 C870 0.960 . S
H883 C870 0.962 1_545 S
H884 C870 0.960 . S
H885 C871 0.964 . S
H886 C871 1.005 . S
H887 C871 0.910 1_565 S
H888 C872 0.931 . S
H889 C877 0.930 . S
H890 C878 0.956 . S
H891 C878 0.961 . S
H892 C878 0.961 . S
H893 C879 0.958 . S
H894 C879 0.961 . S
H895 C879 0.960 . S
C896 C897 1.391 . S
C896 C898 1.394 . S
C896 H912 0.931 . S
C897 C896 1.391 . S
C897 C901 1.376 1_655 S
C898 C896 1.394 . S
C898 C899 1.369 1_655 S
C898 C902 1.531 . S
C899 C898 1.369 1_455 S
C899 C900 1.410 . S
C899 C907 1.503 . S
C900 C899 1.410 . S
C900 C901 1.392 . S
C900 C903 1.511 . S
C901 C897 1.376 1_455 S
C901 C900 1.392 . S
C901 H913 0.929 . S
C902 C898 1.531 . S
C902 H914 0.944 1_655 S
C902 H915 0.962 . S
C902 H916 0.960 . S
C903 C900 1.511 . S
C903 H917 0.961 . S
C903 H918 0.961 . S
C903 H919 0.961 . S
C904 C905 1.345 1_655 S
C904 C906 1.363 . S
C904 H920 0.931 . S
C905 C904 1.345 1_455 S
C905 C909 1.425 . S
C906 C904 1.363 . S
C906 C907 1.370 1_655 S
C906 C910 1.524 . S
C907 C899 1.503 . S
C907 C906 1.370 1_455 S
C907 C908 1.403 . S
C908 C907 1.403 . S
C908 C909 1.404 . S
C908 C911 1.539 . S
C909 C905 1.425 . S
C909 C908 1.404 . S
C909 H921 0.930 . S
C910 C906 1.524 . S
C910 H922 0.956 . S
C910 H923 0.961 . S
C910 H924 0.961 . S
C911 C908 1.539 . S
C911 H925 0.958 . S
C911 H926 0.961 . S
C911 H927 0.960 . S
H912 C896 0.931 . S
H913 C901 0.929 . S
H914 C902 0.944 1_455 S
H915 C902 0.962 . S
H916 C902 0.960 . S
H917 C903 0.961 . S
H918 C903 0.961 . S
H919 C903 0.961 . S
H920 C904 0.931 . S
H921 C909 0.930 . S
H922 C910 0.956 . S
H923 C910 0.961 . S
H924 C910 0.961 . S
H925 C911 0.958 . S
H926 C911 0.961 . S
H927 C911 0.960 . S
C928 C929 1.391 . S
C928 C930 1.394 . S
C928 H944 0.931 . S
C929 C928 1.391 . S
C929 C933 1.376 . S
C930 C928 1.394 . S
C930 C931 1.369 . S
C930 C934 1.531 . S
C931 C930 1.369 . S
C931 C932 1.410 . S
C931 C939 1.503 . S
C932 C931 1.410 . S
C932 C933 1.392 . S
C932 C935 1.511 . S
C933 C929 1.376 . S
C933 C932 1.392 . S
C933 H945 0.929 . S
C934 C930 1.531 . S
C934 H946 0.960 . S
C934 H947 0.962 . S
C934 H948 0.960 . S
C935 C932 1.511 . S
C935 H949 0.961 . S
C935 H950 0.961 . S
C935 H951 0.961 . S
C936 C937 1.370 . S
C936 C938 1.363 . S
C936 H952 0.931 . S
C937 C936 1.370 . S
C937 C941 1.408 . S
C938 C936 1.363 . S
C938 C939 1.370 . S
C938 C942 1.524 . S
C939 C931 1.503 . S
C939 C938 1.370 . S
C939 C940 1.403 . S
C940 C939 1.403 . S
C940 C941 1.404 . S
C940 C943 1.539 . S
C941 C937 1.408 . S
C941 C940 1.404 . S
C941 H953 0.930 . S
C942 C938 1.524 . S
C942 H954 0.956 . S
C942 H955 0.961 . S
C942 H956 0.961 . S
C943 C940 1.539 . S
C943 H957 0.958 . S
C943 H958 0.961 . S
C943 H959 0.960 . S
H944 C928 0.931 . S
H945 C933 0.929 . S
H946 C934 0.960 . S
H947 C934 0.962 . S
H948 C934 0.960 . S
H949 C935 0.961 . S
H950 C935 0.961 . S
H951 C935 0.961 . S
H952 C936 0.931 . S
H953 C941 0.930 . S
H954 C942 0.956 . S
H955 C942 0.961 . S
H956 C942 0.961 . S
H957 C943 0.958 . S
H958 C943 0.961 . S
H959 C943 0.960 . S
C960 C961 1.391 . S
C960 C962 1.394 . S
C960 H976 0.931 . S
C961 C960 1.391 . S
C961 C965 1.376 . S
C962 C960 1.394 . S
C962 C963 1.369 . S
C962 C966 1.531 . S
C963 C962 1.369 . S
C963 C964 1.410 . S
C963 C971 1.503 . S
C964 C963 1.410 . S
C964 C965 1.392 . S
C964 C967 1.511 . S
C965 C961 1.376 . S
C965 C964 1.392 . S
C965 H977 0.929 . S
C966 C962 1.531 . S
C966 H978 0.960 . S
C966 H979 0.962 . S
C966 H980 0.960 . S
C967 C964 1.511 . S
C967 H981 0.961 . S
C967 H982 0.961 . S
C967 H983 0.961 . S
C968 C969 1.370 . S
C968 C970 1.363 . S
C968 H984 0.931 . S
C969 C968 1.370 . S
C969 C973 1.408 . S
C970 C968 1.363 . S
C970 C971 1.370 . S
C970 C974 1.524 . S
C971 C963 1.503 . S
C971 C970 1.370 . S
C971 C972 1.403 . S
C972 C971 1.403 . S
C972 C973 1.404 . S
C972 C975 1.539 . S
C973 C969 1.408 . S
C973 C972 1.404 . S
C973 H985 0.930 . S
C974 C970 1.524 . S
C974 H986 0.956 . S
C974 H987 0.961 . S
C974 H988 0.961 . S
C975 C972 1.539 . S
C975 H989 0.958 . S
C975 H990 0.961 . S
C975 H991 0.960 . S
H976 C960 0.931 . S
H977 C965 0.929 . S
H978 C966 0.960 . S
H979 C966 0.962 . S
H980 C966 0.960 . S
H981 C967 0.961 . S
H982 C967 0.961 . S
H983 C967 0.961 . S
H984 C968 0.931 . S
H985 C973 0.930 . S
H986 C974 0.956 . S
H987 C974 0.961 . S
H988 C974 0.961 . S
H989 C975 0.958 . S
H990 C975 0.961 . S
H991 C975 0.960 . S
C992 C993 1.391 . S
C992 C994 1.394 . S
C992 H1008 0.931 . S
C993 C992 1.391 . S
C993 C997 1.376 . S
C994 C992 1.394 . S
C994 C995 1.369 . S
C994 C998 1.531 . S
C995 C994 1.369 . S
C995 C996 1.410 . S
C995 C1003 1.503 . S
C996 C995 1.410 . S
C996 C997 1.392 . S
C996 C999 1.511 . S
C997 C993 1.376 . S
C997 C996 1.392 . S
C997 H1009 0.929 . S
C998 C994 1.531 . S
C998 H1010 0.960 . S
C998 H1011 0.962 . S
C998 H1012 0.960 . S
C999 C996 1.511 . S
C999 H1013 0.961 . S
C999 H1014 0.961 . S
C999 H1015 0.961 . S
C1000 C1001 1.370 . S
C1000 C1002 1.363 . S
C1000 H1016 0.931 . S
C1001 C1000 1.370 . S
C1001 C1005 1.408 . S
C1002 C1000 1.363 . S
C1002 C1003 1.370 . S
C1002 C1006 1.524 . S
C1003 C995 1.503 . S
C1003 C1002 1.370 . S
C1003 C1004 1.403 . S
C1004 C1003 1.403 . S
C1004 C1005 1.404 . S
C1004 C1007 1.539 . S
C1005 C1001 1.408 . S
C1005 C1004 1.404 . S
C1005 H1017 0.930 . S
C1006 C1002 1.524 . S
C1006 H1018 0.956 . S
C1006 H1019 0.961 . S
C1006 H1020 0.961 . S
C1007 C1004 1.539 . S
C1007 H1021 0.958 . S
C1007 H1022 0.961 . S
C1007 H1023 0.960 . S
H1008 C992 0.931 . S
H1009 C997 0.929 . S
H1010 C998 0.960 . S
H1011 C998 0.962 . S
H1012 C998 0.960 . S
H1013 C999 0.961 . S
H1014 C999 0.961 . S
H1015 C999 0.961 . S
H1016 C1000 0.931 . S
H1017 C1005 0.930 . S
H1018 C1006 0.956 . S
H1019 C1006 0.961 . S
H1020 C1006 0.961 . S
H1021 C1007 0.958 . S
H1022 C1007 0.961 . S
H1023 C1007 0.960 . S
C1024 C1025 1.391 . S
C1024 C1026 1.394 . S
C1024 H1040 0.931 . S
C1025 C1024 1.391 . S
C1025 C1029 1.376 . S
C1026 C1024 1.394 . S
C1026 C1027 1.369 . S
C1026 C1030 1.531 . S
C1027 C1026 1.369 . S
C1027 C1028 1.410 . S
C1027 C1035 1.503 . S
C1028 C1027 1.410 . S
C1028 C1029 1.392 . S
C1028 C1031 1.511 . S
C1029 C1025 1.376 . S
C1029 C1028 1.392 . S
C1029 H1041 0.929 . S
C1030 C1026 1.531 . S
C1030 H1042 0.960 . S
C1030 H1043 0.962 . S
C1030 H1044 0.960 . S
C1031 C1028 1.511 . S
C1031 H1045 0.961 . S
C1031 H1046 0.961 . S
C1031 H1047 0.961 . S
C1032 C1033 1.370 . S
C1032 C1034 1.363 . S
C1032 H1048 0.931 . S
C1033 C1032 1.370 . S
C1033 C1037 1.408 . S
C1034 C1032 1.363 . S
C1034 C1035 1.370 . S
C1034 C1038 1.524 . S
C1035 C1027 1.503 . S
C1035 C1034 1.370 . S
C1035 C1036 1.403 . S
C1036 C1035 1.403 . S
C1036 C1037 1.404 . S
C1036 C1039 1.539 . S
C1037 C1033 1.408 . S
C1037 C1036 1.404 . S
C1037 H1049 0.930 . S
C1038 C1034 1.524 . S
C1038 H1050 0.956 . S
C1038 H1051 0.961 . S
C1038 H1052 0.961 . S
C1039 C1036 1.539 . S
C1039 H1053 0.958 . S
C1039 H1054 0.961 . S
C1039 H1055 0.960 . S
H1040 C1024 0.931 . S
H1041 C1029 0.929 . S
H1042 C1030 0.960 . S
H1043 C1030 0.962 . S
H1044 C1030 0.960 . S
H1045 C1031 0.961 . S
H1046 C1031 0.961 . S
H1047 C1031 0.961 . S
H1048 C1032 0.931 . S
H1049 C1037 0.930 . S
H1050 C1038 0.956 . S
H1051 C1038 0.961 . S
H1052 C1038 0.961 . S
H1053 C1039 0.958 . S
H1054 C1039 0.961 . S
H1055 C1039 0.960 . S
C1056 C1057 1.391 . S
C1056 C1058 1.394 . S
C1056 H1072 0.931 . S
C1057 C1056 1.391 . S
C1057 C1061 1.376 . S
C1058 C1056 1.394 . S
C1058 C1059 1.369 . S
C1058 C1062 1.531 . S
C1059 C1058 1.369 . S
C1059 C1060 1.410 . S
C1059 C1067 1.503 . S
C1060 C1059 1.410 . S
C1060 C1061 1.392 . S
C1060 C1063 1.511 . S
C1061 C1057 1.376 . S
C1061 C1060 1.392 . S
C1061 H1073 0.929 . S
C1062 C1058 1.531 . S
C1062 H1074 0.960 . S
C1062 H1075 0.962 . S
C1062 H1076 0.960 . S
C1063 C1060 1.511 . S
C1063 H1077 0.961 . S
C1063 H1078 0.961 . S
C1063 H1079 0.961 . S
C1064 C1065 1.370 . S
C1064 C1066 1.363 . S
C1064 H1080 0.931 . S
C1065 C1064 1.370 . S
C1065 C1069 1.408 . S
C1066 C1064 1.363 . S
C1066 C1067 1.370 . S
C1066 C1070 1.524 . S
C1067 C1059 1.503 . S
C1067 C1066 1.370 . S
C1067 C1068 1.403 . S
C1068 C1067 1.403 . S
C1068 C1069 1.404 . S
C1068 C1071 1.539 . S
C1069 C1065 1.408 . S
C1069 C1068 1.404 . S
C1069 H1081 0.930 . S
C1070 C1066 1.524 . S
C1070 H1082 0.956 . S
C1070 H1083 0.961 . S
C1070 H1084 0.961 . S
C1071 C1068 1.539 . S
C1071 H1085 0.958 . S
C1071 H1086 0.961 . S
C1071 H1087 0.960 . S
H1072 C1056 0.931 . S
H1073 C1061 0.929 . S
H1074 C1062 0.960 . S
H1075 C1062 0.962 . S
H1076 C1062 0.960 . S
H1077 C1063 0.961 . S
H1078 C1063 0.961 . S
H1079 C1063 0.961 . S
H1080 C1064 0.931 . S
H1081 C1069 0.930 . S
H1082 C1070 0.956 . S
H1083 C1070 0.961 . S
H1084 C1070 0.961 . S
H1085 C1071 0.958 . S
H1086 C1071 0.961 . S
H1087 C1071 0.960 . S
C1088 C1089 1.391 . S
C1088 C1090 1.394 . S
C1088 H1104 0.931 . S
C1089 C1088 1.391 . S
C1089 C1093 1.376 . S
C1090 C1088 1.394 . S
C1090 C1091 1.369 . S
C1090 C1094 1.531 . S
C1091 C1090 1.369 . S
C1091 C1092 1.410 . S
C1091 C1099 1.503 . S
C1092 C1091 1.410 . S
C1092 C1093 1.392 . S
C1092 C1095 1.511 . S
C1093 C1089 1.376 . S
C1093 C1092 1.392 . S
C1093 H1105 0.929 . S
C1094 C1090 1.531 . S
C1094 H1106 0.960 . S
C1094 H1107 0.962 . S
C1094 H1108 0.960 . S
C1095 C1092 1.511 . S
C1095 H1109 0.961 . S
C1095 H1110 0.961 . S
C1095 H1111 0.961 . S
C1096 C1097 1.370 . S
C1096 C1098 1.363 . S
C1096 H1112 0.931 . S
C1097 C1096 1.370 . S
C1097 C1101 1.408 . S
C1098 C1096 1.363 . S
C1098 C1099 1.370 . S
C1098 C1102 1.524 . S
C1099 C1091 1.503 . S
C1099 C1098 1.370 . S
C1099 C1100 1.403 . S
C1100 C1099 1.403 . S
C1100 C1101 1.404 . S
C1100 C1103 1.539 . S
C1101 C1097 1.408 . S
C1101 C1100 1.404 . S
C1101 H1113 0.930 . S
C1102 C1098 1.524 . S
C1102 H1114 0.956 . S
C1102 H1115 0.961 . S
C1102 H1116 0.961 . S
C1103 C1100 1.539 . S
C1103 H1117 0.958 . S
C1103 H1118 0.961 . S
C1103 H1119 0.960 . S
H1104 C1088 0.931 . S
H1105 C1093 0.929 . S
H1106 C1094 0.960 . S
H1107 C1094 0.962 . S
H1108 C1094 0.960 . S
H1109 C1095 0.961 . S
H1110 C1095 0.961 . S
H1111 C1095 0.961 . S
H1112 C1096 0.931 . S
H1113 C1101 0.930 . S
H1114 C1102 0.956 . S
H1115 C1102 0.961 . S
H1116 C1102 0.961 . S
H1117 C1103 0.958 . S
H1118 C1103 0.961 . S
H1119 C1103 0.960 . S
C1120 C1121 1.391 . S
C1120 C1122 1.394 . S
C1120 H1136 0.931 . S
C1121 C1120 1.391 . S
C1121 C1125 1.376 . S
C1122 C1120 1.394 . S
C1122 C1123 1.369 . S
C1122 C1126 1.531 . S
C1123 C1122 1.369 . S
C1123 C1124 1.410 . S
C1123 C1131 1.503 . S
C1124 C1123 1.410 . S
C1124 C1125 1.392 . S
C1124 C1127 1.511 . S
C1125 C1121 1.376 . S
C1125 C1124 1.392 . S
C1125 H1137 0.929 . S
C1126 C1122 1.531 . S
C1126 H1138 0.960 . S
C1126 H1139 0.962 . S
C1126 H1140 0.960 . S
C1127 C1124 1.511 . S
C1127 H1141 0.961 . S
C1127 H1142 0.961 . S
C1127 H1143 0.961 . S
C1128 C1129 1.370 . S
C1128 C1130 1.363 . S
C1128 H1144 0.931 . S
C1129 C1128 1.370 . S
C1129 C1133 1.408 . S
C1130 C1128 1.363 . S
C1130 C1131 1.370 . S
C1130 C1134 1.524 . S
C1131 C1123 1.503 . S
C1131 C1130 1.370 . S
C1131 C1132 1.403 . S
C1132 C1131 1.403 . S
C1132 C1133 1.404 . S
C1132 C1135 1.539 . S
C1133 C1129 1.408 . S
C1133 C1132 1.404 . S
C1133 H1145 0.930 . S
C1134 C1130 1.524 . S
C1134 H1146 0.956 . S
C1134 H1147 0.961 . S
C1134 H1148 0.961 . S
C1135 C1132 1.539 . S
C1135 H1149 0.958 . S
C1135 H1150 0.961 . S
C1135 H1151 0.960 . S
H1136 C1120 0.931 . S
H1137 C1125 0.929 . S
H1138 C1126 0.960 . S
H1139 C1126 0.962 . S
H1140 C1126 0.960 . S
H1141 C1127 0.961 . S
H1142 C1127 0.961 . S
H1143 C1127 0.961 . S
H1144 C1128 0.931 . S
H1145 C1133 0.930 . S
H1146 C1134 0.956 . S
H1147 C1134 0.961 . S
H1148 C1134 0.961 . S
H1149 C1135 0.958 . S
H1150 C1135 0.961 . S
H1151 C1135 0.960 . S
C1152 C1153 1.391 . S
C1152 C1154 1.394 . S
C1152 H1168 0.931 . S
C1153 C1152 1.391 . S
C1153 C1157 1.376 . S
C1154 C1152 1.394 . S
C1154 C1155 1.369 . S
C1154 C1158 1.531 . S
C1155 C1154 1.369 . S
C1155 C1156 1.410 . S
C1155 C1163 1.503 . S
C1156 C1155 1.410 . S
C1156 C1157 1.392 . S
C1156 C1159 1.511 . S
C1157 C1153 1.376 . S
C1157 C1156 1.392 . S
C1157 H1169 0.929 . S
C1158 C1154 1.531 . S
C1158 H1170 0.960 . S
C1158 H1171 0.962 . S
C1158 H1172 0.960 . S
C1159 C1156 1.511 . S
C1159 H1173 0.961 . S
C1159 H1174 0.961 . S
C1159 H1175 0.961 . S
C1160 C1161 1.370 . S
C1160 C1162 1.363 . S
C1160 H1176 0.931 . S
C1161 C1160 1.370 . S
C1161 C1165 1.408 . S
C1162 C1160 1.363 . S
C1162 C1163 1.370 . S
C1162 C1166 1.524 . S
C1163 C1155 1.503 . S
C1163 C1162 1.370 . S
C1163 C1164 1.403 . S
C1164 C1163 1.403 . S
C1164 C1165 1.404 . S
C1164 C1167 1.539 . S
C1165 C1161 1.408 . S
C1165 C1164 1.404 . S
C1165 H1177 0.930 . S
C1166 C1162 1.524 . S
C1166 H1178 0.956 . S
C1166 H1179 0.961 . S
C1166 H1180 0.961 . S
C1167 C1164 1.539 . S
C1167 H1181 0.958 . S
C1167 H1182 0.961 . S
C1167 H1183 0.960 . S
H1168 C1152 0.931 . S
H1169 C1157 0.929 . S
H1170 C1158 0.960 . S
H1171 C1158 0.962 . S
H1172 C1158 0.960 . S
H1173 C1159 0.961 . S
H1174 C1159 0.961 . S
H1175 C1159 0.961 . S
H1176 C1160 0.931 . S
H1177 C1165 0.930 . S
H1178 C1166 0.956 . S
H1179 C1166 0.961 . S
H1180 C1166 0.961 . S
H1181 C1167 0.958 . S
H1182 C1167 0.961 . S
H1183 C1167 0.960 . S
C1184 C1185 1.391 . S
C1184 C1186 1.394 . S
C1184 H1200 0.931 . S
C1185 C1184 1.391 . S
C1185 C1189 1.376 . S
C1186 C1184 1.394 . S
C1186 C1187 1.369 . S
C1186 C1190 1.531 . S
C1187 C1186 1.369 . S
C1187 C1188 1.410 . S
C1187 C1195 1.503 . S
C1188 C1187 1.410 . S
C1188 C1189 1.392 . S
C1188 C1191 1.511 . S
C1189 C1185 1.376 . S
C1189 C1188 1.392 . S
C1189 H1201 0.929 . S
C1190 C1186 1.531 . S
C1190 H1202 0.960 . S
C1190 H1203 0.962 . S
C1190 H1204 0.960 . S
C1191 C1188 1.511 . S
C1191 H1205 0.961 . S
C1191 H1206 0.961 . S
C1191 H1207 0.961 . S
C1192 C1193 1.370 . S
C1192 C1194 1.363 . S
C1192 H1208 0.931 . S
C1193 C1192 1.370 . S
C1193 C1197 1.408 . S
C1194 C1192 1.363 . S
C1194 C1195 1.370 . S
C1194 C1198 1.524 . S
C1195 C1187 1.503 . S
C1195 C1194 1.370 . S
C1195 C1196 1.403 . S
C1196 C1195 1.403 . S
C1196 C1197 1.404 . S
C1196 C1199 1.539 . S
C1197 C1193 1.408 . S
C1197 C1196 1.404 . S
C1197 H1209 0.930 . S
C1198 C1194 1.524 . S
C1198 H1210 0.956 . S
C1198 H1211 0.961 . S
C1198 H1212 0.961 . S
C1199 C1196 1.539 . S
C1199 H1213 0.958 . S
C1199 H1214 0.961 . S
C1199 H1215 0.960 . S
H1200 C1184 0.931 . S
H1201 C1189 0.929 . S
H1202 C1190 0.960 . S
H1203 C1190 0.962 . S
H1204 C1190 0.960 . S
H1205 C1191 0.961 . S
H1206 C1191 0.961 . S
H1207 C1191 0.961 . S
H1208 C1192 0.931 . S
H1209 C1197 0.930 . S
H1210 C1198 0.956 . S
H1211 C1198 0.961 . S
H1212 C1198 0.961 . S
H1213 C1199 0.958 . S
H1214 C1199 0.961 . S
H1215 C1199 0.960 . S
C1216 C1217 1.391 . S
C1216 C1218 1.394 . S
C1216 H1232 0.931 . S
C1217 C1216 1.391 . S
C1217 C1221 1.376 . S
C1218 C1216 1.394 . S
C1218 C1219 1.369 . S
C1218 C1222 1.531 . S
C1219 C1218 1.369 . S
C1219 C1220 1.410 . S
C1219 C1227 1.503 . S
C1220 C1219 1.410 . S
C1220 C1221 1.392 . S
C1220 C1223 1.511 . S
C1221 C1217 1.376 . S
C1221 C1220 1.392 . S
C1221 H1233 0.929 . S
C1222 C1218 1.531 . S
C1222 H1234 0.960 . S
C1222 H1235 0.962 . S
C1222 H1236 0.960 . S
C1223 C1220 1.511 . S
C1223 H1237 0.961 . S
C1223 H1238 0.961 . S
C1223 H1239 0.961 . S
C1224 C1225 1.370 . S
C1224 C1226 1.363 . S
C1224 H1240 0.931 . S
C1225 C1224 1.370 . S
C1225 C1229 1.408 . S
C1226 C1224 1.363 . S
C1226 C1227 1.370 . S
C1226 C1230 1.524 . S
C1227 C1219 1.503 . S
C1227 C1226 1.370 . S
C1227 C1228 1.403 . S
C1228 C1227 1.403 . S
C1228 C1229 1.404 . S
C1228 C1231 1.539 . S
C1229 C1225 1.408 . S
C1229 C1228 1.404 . S
C1229 H1241 0.930 . S
C1230 C1226 1.524 . S
C1230 H1242 0.956 . S
C1230 H1243 0.961 . S
C1230 H1244 0.961 . S
C1231 C1228 1.539 . S
C1231 H1245 0.958 . S
C1231 H1246 0.961 . S
C1231 H1247 0.960 . S
H1232 C1216 0.931 . S
H1233 C1221 0.929 . S
H1234 C1222 0.960 . S
H1235 C1222 0.962 . S
H1236 C1222 0.960 . S
H1237 C1223 0.961 . S
H1238 C1223 0.961 . S
H1239 C1223 0.961 . S
H1240 C1224 0.931 . S
H1241 C1229 0.930 . S
H1242 C1230 0.956 . S
H1243 C1230 0.961 . S
H1244 C1230 0.961 . S
H1245 C1231 0.958 . S
H1246 C1231 0.961 . S
H1247 C1231 0.960 . S
C1248 C1249 1.391 . S
C1248 C1250 1.394 . S
C1248 H1264 0.931 . S
C1249 C1248 1.391 . S
C1249 C1253 1.376 . S
C1250 C1248 1.394 . S
C1250 C1251 1.369 . S
C1250 C1254 1.531 . S
C1251 C1250 1.369 . S
C1251 C1252 1.410 . S
C1251 C1259 1.503 . S
C1252 C1251 1.410 . S
C1252 C1253 1.392 . S
C1252 C1255 1.511 . S
C1253 C1249 1.376 . S
C1253 C1252 1.392 . S
C1253 H1265 0.929 . S
C1254 C1250 1.531 . S
C1254 H1266 0.960 . S
C1254 H1267 0.962 . S
C1254 H1268 0.960 . S
C1255 C1252 1.511 . S
C1255 H1269 0.961 . S
C1255 H1270 0.961 . S
C1255 H1271 0.961 . S
C1256 C1257 1.370 . S
C1256 C1258 1.363 . S
C1256 H1272 0.931 . S
C1257 C1256 1.370 . S
C1257 C1261 1.408 . S
C1258 C1256 1.363 . S
C1258 C1259 1.370 . S
C1258 C1262 1.524 . S
C1259 C1251 1.503 . S
C1259 C1258 1.370 . S
C1259 C1260 1.403 . S
C1260 C1259 1.403 . S
C1260 C1261 1.404 . S
C1260 C1263 1.539 . S
C1261 C1257 1.408 . S
C1261 C1260 1.404 . S
C1261 H1273 0.930 . S
C1262 C1258 1.524 . S
C1262 H1274 0.956 . S
C1262 H1275 0.961 . S
C1262 H1276 0.961 . S
C1263 C1260 1.539 . S
C1263 H1277 0.958 . S
C1263 H1278 0.961 . S
C1263 H1279 0.960 . S
H1264 C1248 0.931 . S
H1265 C1253 0.929 . S
H1266 C1254 0.960 . S
H1267 C1254 0.962 . S
H1268 C1254 0.960 . S
H1269 C1255 0.961 . S
H1270 C1255 0.961 . S
H1271 C1255 0.961 . S
H1272 C1256 0.931 . S
H1273 C1261 0.930 . S
H1274 C1262 0.956 . S
H1275 C1262 0.961 . S
H1276 C1262 0.961 . S
H1277 C1263 0.958 . S
H1278 C1263 0.961 . S
H1279 C1263 0.960 . S
C1280 C1281 1.391 . S
C1280 C1282 1.394 . S
C1280 H1296 0.931 . S
C1281 C1280 1.391 . S
C1281 C1285 1.376 . S
C1282 C1280 1.394 . S
C1282 C1283 1.369 . S
C1282 C1286 1.531 . S
C1283 C1282 1.369 . S
C1283 C1284 1.410 . S
C1283 C1291 1.503 . S
C1284 C1283 1.410 . S
C1284 C1285 1.392 . S
C1284 C1287 1.511 . S
C1285 C1281 1.376 . S
C1285 C1284 1.392 . S
C1285 H1297 0.929 . S
C1286 C1282 1.531 . S
C1286 H1298 0.960 . S
C1286 H1299 0.962 . S
C1286 H1300 0.960 . S
C1287 C1284 1.511 . S
C1287 H1301 0.961 . S
C1287 H1302 0.961 . S
C1287 H1303 0.961 . S
C1288 C1289 1.370 . S
C1288 C1290 1.363 . S
C1288 H1304 0.931 . S
C1289 C1288 1.370 . S
C1289 C1293 1.408 . S
C1290 C1288 1.363 . S
C1290 C1291 1.370 . S
C1290 C1294 1.524 . S
C1291 C1283 1.503 . S
C1291 C1290 1.370 . S
C1291 C1292 1.403 . S
C1292 C1291 1.403 . S
C1292 C1293 1.404 . S
C1292 C1295 1.539 . S
C1293 C1289 1.408 . S
C1293 C1292 1.404 . S
C1293 H1305 0.930 . S
C1294 C1290 1.524 . S
C1294 H1306 0.956 . S
C1294 H1307 0.961 . S
C1294 H1308 0.961 . S
C1295 C1292 1.539 . S
C1295 H1309 0.958 . S
C1295 H1310 0.961 . S
C1295 H1311 0.960 . S
H1296 C1280 0.931 . S
H1297 C1285 0.929 . S
H1298 C1286 0.960 . S
H1299 C1286 0.962 . S
H1300 C1286 0.960 . S
H1301 C1287 0.961 . S
H1302 C1287 0.961 . S
H1303 C1287 0.961 . S
H1304 C1288 0.931 . S
H1305 C1293 0.930 . S
H1306 C1294 0.956 . S
H1307 C1294 0.961 . S
H1308 C1294 0.961 . S
H1309 C1295 0.958 . S
H1310 C1295 0.961 . S
H1311 C1295 0.960 . S
C1312 C1313 1.391 . S
C1312 C1314 1.394 . S
C1312 H1328 0.931 . S
C1313 C1312 1.391 . S
C1313 C1317 1.376 . S
C1314 C1312 1.394 . S
C1314 C1315 1.369 . S
C1314 C1318 1.531 . S
C1315 C1314 1.369 . S
C1315 C1316 1.410 . S
C1315 C1323 1.503 . S
C1316 C1315 1.410 . S
C1316 C1317 1.392 . S
C1316 C1319 1.511 . S
C1317 C1313 1.376 . S
C1317 C1316 1.392 . S
C1317 H1329 0.929 . S
C1318 C1314 1.531 . S
C1318 H1330 0.960 . S
C1318 H1331 0.962 . S
C1318 H1332 0.960 . S
C1319 C1316 1.511 . S
C1319 H1333 0.961 . S
C1319 H1334 0.961 . S
C1319 H1335 0.961 . S
C1320 C1321 1.370 . S
C1320 C1322 1.363 . S
C1320 H1336 0.931 . S
C1321 C1320 1.370 . S
C1321 C1325 1.408 . S
C1322 C1320 1.363 . S
C1322 C1323 1.370 . S
C1322 C1326 1.524 . S
C1323 C1315 1.503 . S
C1323 C1322 1.370 . S
C1323 C1324 1.403 . S
C1324 C1323 1.403 . S
C1324 C1325 1.404 . S
C1324 C1327 1.539 . S
C1325 C1321 1.408 . S
C1325 C1324 1.404 . S
C1325 H1337 0.930 . S
C1326 C1322 1.524 . S
C1326 H1338 0.956 . S
C1326 H1339 0.961 . S
C1326 H1340 0.961 . S
C1327 C1324 1.539 . S
C1327 H1341 0.958 . S
C1327 H1342 0.961 . S
C1327 H1343 0.960 . S
H1328 C1312 0.931 . S
H1329 C1317 0.929 . S
H1330 C1318 0.960 . S
H1331 C1318 0.962 . S
H1332 C1318 0.960 . S
H1333 C1319 0.961 . S
H1334 C1319 0.961 . S
H1335 C1319 0.961 . S
H1336 C1320 0.931 . S
H1337 C1325 0.930 . S
H1338 C1326 0.956 . S
H1339 C1326 0.961 . S
H1340 C1326 0.961 . S
H1341 C1327 0.958 . S
H1342 C1327 0.961 . S
H1343 C1327 0.960 . S
C1344 C1345 1.391 . S
C1344 C1346 1.394 . S
C1344 H1360 0.931 . S
C1345 C1344 1.391 . S
C1345 C1349 1.376 . S
C1346 C1344 1.394 . S
C1346 C1347 1.369 . S
C1346 C1350 1.531 . S
C1347 C1346 1.369 . S
C1347 C1348 1.410 . S
C1347 C1355 1.503 . S
C1348 C1347 1.410 . S
C1348 C1349 1.392 . S
C1348 C1351 1.511 . S
C1349 C1345 1.376 . S
C1349 C1348 1.392 . S
C1349 H1361 0.929 . S
C1350 C1346 1.531 . S
C1350 H1362 0.960 . S
C1350 H1363 0.962 . S
C1350 H1364 0.960 . S
C1351 C1348 1.511 . S
C1351 H1365 0.961 . S
C1351 H1366 0.961 . S
C1351 H1367 0.961 . S
C1352 C1353 1.370 . S
C1352 C1354 1.363 . S
C1352 H1368 0.931 . S
C1353 C1352 1.370 . S
C1353 C1357 1.408 . S
C1354 C1352 1.363 . S
C1354 C1355 1.370 . S
C1354 C1358 1.524 . S
C1355 C1347 1.503 . S
C1355 C1354 1.370 . S
C1355 C1356 1.403 . S
C1356 C1355 1.403 . S
C1356 C1357 1.404 . S
C1356 C1359 1.539 . S
C1357 C1353 1.408 . S
C1357 C1356 1.404 . S
C1357 H1369 0.930 . S
C1358 C1354 1.524 . S
C1358 H1370 0.956 . S
C1358 H1371 0.961 . S
C1358 H1372 0.961 . S
C1359 C1356 1.539 . S
C1359 H1373 0.958 . S
C1359 H1374 0.961 . S
C1359 H1375 0.960 . S
H1360 C1344 0.931 . S
H1361 C1349 0.929 . S
H1362 C1350 0.960 . S
H1363 C1350 0.962 . S
H1364 C1350 0.960 . S
H1365 C1351 0.961 . S
H1366 C1351 0.961 . S
H1367 C1351 0.961 . S
H1368 C1352 0.931 . S
H1369 C1357 0.930 . S
H1370 C1358 0.956 . S
H1371 C1358 0.961 . S
H1372 C1358 0.961 . S
H1373 C1359 0.958 . S
H1374 C1359 0.961 . S
H1375 C1359 0.960 . S
C1376 C1377 1.391 . S
C1376 C1378 1.394 . S
C1376 H1392 0.931 . S
C1377 C1376 1.391 . S
C1377 C1381 1.376 . S
C1378 C1376 1.394 . S
C1378 C1379 1.369 . S
C1378 C1382 1.531 . S
C1379 C1378 1.369 . S
C1379 C1380 1.410 . S
C1379 C1387 1.503 . S
C1380 C1379 1.410 . S
C1380 C1381 1.392 . S
C1380 C1383 1.511 . S
C1381 C1377 1.376 . S
C1381 C1380 1.392 . S
C1381 H1393 0.929 . S
C1382 C1378 1.531 . S
C1382 H1394 0.960 . S
C1382 H1395 0.962 . S
C1382 H1396 0.960 . S
C1383 C1380 1.511 . S
C1383 H1397 0.961 . S
C1383 H1398 0.961 . S
C1383 H1399 0.961 . S
C1384 C1385 1.370 . S
C1384 C1386 1.363 . S
C1384 H1400 0.931 . S
C1385 C1384 1.370 . S
C1385 C1389 1.408 . S
C1386 C1384 1.363 . S
C1386 C1387 1.370 . S
C1386 C1390 1.524 . S
C1387 C1379 1.503 . S
C1387 C1386 1.370 . S
C1387 C1388 1.403 . S
C1388 C1387 1.403 . S
C1388 C1389 1.404 . S
C1388 C1391 1.539 . S
C1389 C1385 1.408 . S
C1389 C1388 1.404 . S
C1389 H1401 0.930 . S
C1390 C1386 1.524 . S
C1390 H1402 0.956 . S
C1390 H1403 0.961 . S
C1390 H1404 0.961 . S
C1391 C1388 1.539 . S
C1391 H1405 0.958 . S
C1391 H1406 0.961 . S
C1391 H1407 0.960 . S
H1392 C1376 0.931 . S
H1393 C1381 0.929 . S
H1394 C1382 0.960 . S
H1395 C1382 0.962 . S
H1396 C1382 0.960 . S
H1397 C1383 0.961 . S
H1398 C1383 0.961 . S
H1399 C1383 0.961 . S
H1400 C1384 0.931 . S
H1401 C1389 0.930 . S
H1402 C1390 0.956 . S
H1403 C1390 0.961 . S
H1404 C1390 0.961 . S
H1405 C1391 0.958 . S
H1406 C1391 0.961 . S
H1407 C1391 0.960 . S
C1408 C1409 1.391 . S
C1408 C1410 1.394 . S
C1408 H1424 0.931 . S
C1409 C1408 1.391 . S
C1409 C1413 1.376 . S
C1410 C1408 1.394 . S
C1410 C1411 1.369 . S
C1410 C1414 1.531 . S
C1411 C1410 1.369 . S
C1411 C1412 1.410 . S
C1411 C1419 1.503 . S
C1412 C1411 1.410 . S
C1412 C1413 1.392 . S
C1412 C1415 1.511 . S
C1413 C1409 1.376 . S
C1413 C1412 1.392 . S
C1413 H1425 0.929 . S
C1414 C1410 1.531 . S
C1414 H1426 0.960 . S
C1414 H1427 0.962 . S
C1414 H1428 0.960 . S
C1415 C1412 1.511 . S
C1415 H1429 0.961 . S
C1415 H1430 0.961 . S
C1415 H1431 0.961 . S
C1416 C1417 1.370 . S
C1416 C1418 1.363 . S
C1416 H1432 0.931 . S
C1417 C1416 1.370 . S
C1417 C1421 1.408 . S
C1418 C1416 1.363 . S
C1418 C1419 1.370 . S
C1418 C1422 1.524 . S
C1419 C1411 1.503 . S
C1419 C1418 1.370 . S
C1419 C1420 1.403 . S
C1420 C1419 1.403 . S
C1420 C1421 1.404 . S
C1420 C1423 1.539 . S
C1421 C1417 1.408 . S
C1421 C1420 1.404 . S
C1421 H1433 0.930 . S
C1422 C1418 1.524 . S
C1422 H1434 0.956 . S
C1422 H1435 0.961 . S
C1422 H1436 0.961 . S
C1423 C1420 1.539 . S
C1423 H1437 0.958 . S
C1423 H1438 0.961 . S
C1423 H1439 0.960 . S
H1424 C1408 0.931 . S
H1425 C1413 0.929 . S
H1426 C1414 0.960 . S
H1427 C1414 0.962 . S
H1428 C1414 0.960 . S
H1429 C1415 0.961 . S
H1430 C1415 0.961 . S
H1431 C1415 0.961 . S
H1432 C1416 0.931 . S
H1433 C1421 0.930 . S
H1434 C1422 0.956 . S
H1435 C1422 0.961 . S
H1436 C1422 0.961 . S
H1437 C1423 0.958 . S
H1438 C1423 0.961 . S
H1439 C1423 0.960 . S
C1440 C1441 1.391 . S
C1440 C1442 1.394 . S
C1440 H1456 0.931 . S
C1441 C1440 1.391 . S
C1441 C1445 1.376 . S
C1442 C1440 1.394 . S
C1442 C1443 1.369 . S
C1442 C1446 1.531 . S
C1443 C1442 1.369 . S
C1443 C1444 1.410 . S
C1443 C1451 1.503 . S
C1444 C1443 1.410 . S
C1444 C1445 1.392 . S
C1444 C1447 1.511 . S
C1445 C1441 1.376 . S
C1445 C1444 1.392 . S
C1445 H1457 0.929 . S
C1446 C1442 1.531 . S
C1446 H1458 0.960 . S
C1446 H1459 0.962 . S
C1446 H1460 0.960 . S
C1447 C1444 1.511 . S
C1447 H1461 0.961 . S
C1447 H1462 0.961 . S
C1447 H1463 0.961 . S
C1448 C1449 1.370 . S
C1448 C1450 1.363 . S
C1448 H1464 0.931 . S
C1449 C1448 1.370 . S
C1449 C1453 1.408 . S
C1450 C1448 1.363 . S
C1450 C1451 1.370 . S
C1450 C1454 1.524 . S
C1451 C1443 1.503 . S
C1451 C1450 1.370 . S
C1451 C1452 1.403 . S
C1452 C1451 1.403 . S
C1452 C1453 1.404 . S
C1452 C1455 1.539 . S
C1453 C1449 1.408 . S
C1453 C1452 1.404 . S
C1453 H1465 0.930 . S
C1454 C1450 1.524 . S
C1454 H1466 0.956 . S
C1454 H1467 0.961 . S
C1454 H1468 0.961 . S
C1455 C1452 1.539 . S
C1455 H1469 0.958 . S
C1455 H1470 0.961 . S
C1455 H1471 0.960 . S
H1456 C1440 0.931 . S
H1457 C1445 0.929 . S
H1458 C1446 0.960 . S
H1459 C1446 0.962 . S
H1460 C1446 0.960 . S
H1461 C1447 0.961 . S
H1462 C1447 0.961 . S
H1463 C1447 0.961 . S
H1464 C1448 0.931 . S
H1465 C1453 0.930 . S
H1466 C1454 0.956 . S
H1467 C1454 0.961 . S
H1468 C1454 0.961 . S
H1469 C1455 0.958 . S
H1470 C1455 0.961 . S
H1471 C1455 0.960 . S
C1472 C1473 1.391 . S
C1472 C1474 1.394 . S
C1472 H1488 0.931 . S
C1473 C1472 1.391 . S
C1473 C1477 1.376 . S
C1474 C1472 1.394 . S
C1474 C1475 1.369 . S
C1474 C1478 1.531 . S
C1475 C1474 1.369 . S
C1475 C1476 1.410 . S
C1475 C1483 1.503 . S
C1476 C1475 1.410 . S
C1476 C1477 1.392 . S
C1476 C1479 1.511 . S
C1477 C1473 1.376 . S
C1477 C1476 1.392 . S
C1477 H1489 0.929 . S
C1478 C1474 1.531 . S
C1478 H1490 0.960 . S
C1478 H1491 0.962 . S
C1478 H1492 0.960 . S
C1479 C1476 1.511 . S
C1479 H1493 0.961 . S
C1479 H1494 0.961 . S
C1479 H1495 0.961 . S
C1480 C1481 1.370 . S
C1480 C1482 1.363 . S
C1480 H1496 0.931 . S
C1481 C1480 1.370 . S
C1481 C1485 1.408 . S
C1482 C1480 1.363 . S
C1482 C1483 1.370 . S
C1482 C1486 1.524 . S
C1483 C1475 1.503 . S
C1483 C1482 1.370 . S
C1483 C1484 1.403 . S
C1484 C1483 1.403 . S
C1484 C1485 1.404 . S
C1484 C1487 1.539 . S
C1485 C1481 1.408 . S
C1485 C1484 1.404 . S
C1485 H1497 0.930 . S
C1486 C1482 1.524 . S
C1486 H1498 0.956 . S
C1486 H1499 0.961 . S
C1486 H1500 0.961 . S
C1487 C1484 1.539 . S
C1487 H1501 0.958 . S
C1487 H1502 0.961 . S
C1487 H1503 0.960 . S
H1488 C1472 0.931 . S
H1489 C1477 0.929 . S
H1490 C1478 0.960 . S
H1491 C1478 0.962 . S
H1492 C1478 0.960 . S
H1493 C1479 0.961 . S
H1494 C1479 0.961 . S
H1495 C1479 0.961 . S
H1496 C1480 0.931 . S
H1497 C1485 0.930 . S
H1498 C1486 0.956 . S
H1499 C1486 0.961 . S
H1500 C1486 0.961 . S
H1501 C1487 0.958 . S
H1502 C1487 0.961 . S
H1503 C1487 0.960 . S
C1504 C1505 1.391 . S
C1504 C1506 1.394 . S
C1504 H1520 0.931 . S
C1505 C1504 1.391 . S
C1505 C1509 1.376 . S
C1506 C1504 1.394 . S
C1506 C1507 1.369 . S
C1506 C1510 1.531 . S
C1507 C1506 1.369 . S
C1507 C1508 1.410 . S
C1507 C1515 1.503 . S
C1508 C1507 1.410 . S
C1508 C1509 1.392 . S
C1508 C1511 1.511 . S
C1509 C1505 1.376 . S
C1509 C1508 1.392 . S
C1509 H1521 0.929 . S
C1510 C1506 1.531 . S
C1510 H1522 0.960 . S
C1510 H1523 0.962 . S
C1510 H1524 0.960 . S
C1511 C1508 1.511 . S
C1511 H1525 0.961 . S
C1511 H1526 0.961 . S
C1511 H1527 0.961 . S
C1512 C1513 1.370 . S
C1512 C1514 1.363 . S
C1512 H1528 0.931 . S
C1513 C1512 1.370 . S
C1513 C1517 1.408 . S
C1514 C1512 1.363 . S
C1514 C1515 1.370 . S
C1514 C1518 1.524 . S
C1515 C1507 1.503 . S
C1515 C1514 1.370 . S
C1515 C1516 1.403 . S
C1516 C1515 1.403 . S
C1516 C1517 1.404 . S
C1516 C1519 1.539 . S
C1517 C1513 1.408 . S
C1517 C1516 1.404 . S
C1517 H1529 0.930 . S
C1518 C1514 1.524 . S
C1518 H1530 0.956 . S
C1518 H1531 0.961 . S
C1518 H1532 0.961 . S
C1519 C1516 1.539 . S
C1519 H1533 0.958 . S
C1519 H1534 0.961 . S
C1519 H1535 0.960 . S
H1520 C1504 0.931 . S
H1521 C1509 0.929 . S
H1522 C1510 0.960 . S
H1523 C1510 0.962 . S
H1524 C1510 0.960 . S
H1525 C1511 0.961 . S
H1526 C1511 0.961 . S
H1527 C1511 0.961 . S
H1528 C1512 0.931 . S
H1529 C1517 0.930 . S
H1530 C1518 0.956 . S
H1531 C1518 0.961 . S
H1532 C1518 0.961 . S
H1533 C1519 0.958 . S
H1534 C1519 0.961 . S
H1535 C1519 0.960 . S
C1536 C1537 1.391 . S
C1536 C1538 1.394 . S
C1536 H1552 0.931 . S
C1537 C1536 1.391 . S
C1537 C1541 1.376 . S
C1538 C1536 1.394 . S
C1538 C1539 1.369 . S
C1538 C1542 1.531 . S
C1539 C1538 1.369 . S
C1539 C1540 1.410 . S
C1539 C1547 1.503 . S
C1540 C1539 1.410 . S
C1540 C1541 1.392 . S
C1540 C1543 1.511 . S
C1541 C1537 1.376 . S
C1541 C1540 1.392 . S
C1541 H1553 0.929 . S
C1542 C1538 1.531 . S
C1542 H1554 0.960 . S
C1542 H1555 0.962 . S
C1542 H1556 0.960 . S
C1543 C1540 1.511 . S
C1543 H1557 0.961 . S
C1543 H1558 0.961 . S
C1543 H1559 0.961 . S
C1544 C1545 1.370 . S
C1544 C1546 1.363 . S
C1544 H1560 0.931 . S
C1545 C1544 1.370 . S
C1545 C1549 1.408 . S
C1546 C1544 1.363 . S
C1546 C1547 1.370 . S
C1546 C1550 1.524 . S
C1547 C1539 1.503 . S
C1547 C1546 1.370 . S
C1547 C1548 1.403 . S
C1548 C1547 1.403 . S
C1548 C1549 1.404 . S
C1548 C1551 1.539 . S
C1549 C1545 1.408 . S
C1549 C1548 1.404 . S
C1549 H1561 0.930 . S
C1550 C1546 1.524 . S
C1550 H1562 0.956 . S
C1550 H1563 0.961 . S
C1550 H1564 0.961 . S
C1551 C1548 1.539 . S
C1551 H1565 0.958 . S
C1551 H1566 0.961 . S
C1551 H1567 0.960 . S
H1552 C1536 0.931 . S
H1553 C1541 0.929 . S
H1554 C1542 0.960 . S
H1555 C1542 0.962 . S
H1556 C1542 0.960 . S
H1557 C1543 0.961 . S
H1558 C1543 0.961 . S
H1559 C1543 0.961 . S
H1560 C1544 0.931 . S
H1561 C1549 0.930 . S
H1562 C1550 0.956 . S
H1563 C1550 0.961 . S
H1564 C1550 0.961 . S
H1565 C1551 0.958 . S
H1566 C1551 0.961 . S
H1567 C1551 0.960 . S
C1568 C1569 1.391 . S
C1568 C1570 1.394 . S
C1568 H1584 0.931 . S
C1569 C1568 1.391 . S
C1569 C1573 1.376 . S
C1570 C1568 1.394 . S
C1570 C1571 1.369 . S
C1570 C1574 1.531 . S
C1571 C1570 1.369 . S
C1571 C1572 1.410 . S
C1571 C1579 1.503 . S
C1572 C1571 1.410 . S
C1572 C1573 1.392 . S
C1572 C1575 1.511 . S
C1573 C1569 1.376 . S
C1573 C1572 1.392 . S
C1573 H1585 0.929 . S
C1574 C1570 1.531 . S
C1574 H1586 0.960 . S
C1574 H1587 0.962 . S
C1574 H1588 0.960 . S
C1575 C1572 1.511 . S
C1575 H1589 0.961 . S
C1575 H1590 0.961 . S
C1575 H1591 0.961 . S
C1576 C1577 1.370 . S
C1576 C1578 1.363 . S
C1576 H1592 0.931 . S
C1577 C1576 1.370 . S
C1577 C1581 1.408 . S
C1578 C1576 1.363 . S
C1578 C1579 1.370 . S
C1578 C1582 1.524 . S
C1579 C1571 1.503 . S
C1579 C1578 1.370 . S
C1579 C1580 1.403 . S
C1580 C1579 1.403 . S
C1580 C1581 1.404 . S
C1580 C1583 1.539 . S
C1581 C1577 1.408 . S
C1581 C1580 1.404 . S
C1581 H1593 0.930 . S
C1582 C1578 1.524 . S
C1582 H1594 0.956 . S
C1582 H1595 0.961 . S
C1582 H1596 0.961 . S
C1583 C1580 1.539 . S
C1583 H1597 0.958 . S
C1583 H1598 0.961 . S
C1583 H1599 0.960 . S
H1584 C1568 0.931 . S
H1585 C1573 0.929 . S
H1586 C1574 0.960 . S
H1587 C1574 0.962 . S
H1588 C1574 0.960 . S
H1589 C1575 0.961 . S
H1590 C1575 0.961 . S
H1591 C1575 0.961 . S
H1592 C1576 0.931 . S
H1593 C1581 0.930 . S
H1594 C1582 0.956 . S
H1595 C1582 0.961 . S
H1596 C1582 0.961 . S
H1597 C1583 0.958 . S
H1598 C1583 0.961 . S
H1599 C1583 0.960 . S
C1600 C1601 1.391 . S
C1600 C1602 1.394 . S
C1600 H1616 0.931 . S
C1601 C1600 1.391 . S
C1601 C1605 1.376 . S
C1602 C1600 1.394 . S
C1602 C1603 1.369 . S
C1602 C1606 1.531 . S
C1603 C1602 1.369 . S
C1603 C1604 1.410 . S
C1603 C1611 1.503 . S
C1604 C1603 1.410 . S
C1604 C1605 1.392 . S
C1604 C1607 1.511 . S
C1605 C1601 1.376 . S
C1605 C1604 1.392 . S
C1605 H1617 0.929 . S
C1606 C1602 1.531 . S
C1606 H1618 0.960 . S
C1606 H1619 0.962 . S
C1606 H1620 0.960 . S
C1607 C1604 1.511 . S
C1607 H1621 0.961 . S
C1607 H1622 0.961 . S
C1607 H1623 0.961 . S
C1608 C1609 1.370 . S
C1608 C1610 1.363 . S
C1608 H1624 0.931 . S
C1609 C1608 1.370 . S
C1609 C1613 1.408 . S
C1610 C1608 1.363 . S
C1610 C1611 1.370 . S
C1610 C1614 1.524 . S
C1611 C1603 1.503 . S
C1611 C1610 1.370 . S
C1611 C1612 1.403 . S
C1612 C1611 1.403 . S
C1612 C1613 1.404 . S
C1612 C1615 1.539 . S
C1613 C1609 1.408 . S
C1613 C1612 1.404 . S
C1613 H1625 0.930 . S
C1614 C1610 1.524 . S
C1614 H1626 0.956 . S
C1614 H1627 0.961 . S
C1614 H1628 0.961 . S
C1615 C1612 1.539 . S
C1615 H1629 0.958 . S
C1615 H1630 0.961 . S
C1615 H1631 0.960 . S
H1616 C1600 0.931 . S
H1617 C1605 0.929 . S
H1618 C1606 0.960 . S
H1619 C1606 0.962 . S
H1620 C1606 0.960 . S
H1621 C1607 0.961 . S
H1622 C1607 0.961 . S
H1623 C1607 0.961 . S
H1624 C1608 0.931 . S
H1625 C1613 0.930 . S
H1626 C1614 0.956 . S
H1627 C1614 0.961 . S
H1628 C1614 0.961 . S
H1629 C1615 0.958 . S
H1630 C1615 0.961 . S
H1631 C1615 0.960 . S
C1632 C1633 1.391 . S
C1632 C1634 1.394 . S
C1632 H1648 0.931 . S
C1633 C1632 1.391 . S
C1633 C1637 1.376 . S
C1634 C1632 1.394 . S
C1634 C1635 1.369 . S
C1634 C1638 1.531 . S
C1635 C1634 1.369 . S
C1635 C1636 1.410 . S
C1635 C1643 1.503 . S
C1636 C1635 1.410 . S
C1636 C1637 1.392 . S
C1636 C1639 1.511 . S
C1637 C1633 1.376 . S
C1637 C1636 1.392 . S
C1637 H1649 0.929 . S
C1638 C1634 1.531 . S
C1638 H1650 0.960 . S
C1638 H1651 0.962 . S
C1638 H1652 0.960 . S
C1639 C1636 1.511 . S
C1639 H1653 0.961 . S
C1639 H1654 0.961 . S
C1639 H1655 0.961 . S
C1640 C1641 1.370 . S
C1640 C1642 1.363 . S
C1640 H1656 0.931 . S
C1641 C1640 1.370 . S
C1641 C1645 1.408 . S
C1642 C1640 1.363 . S
C1642 C1643 1.370 . S
C1642 C1646 1.524 . S
C1643 C1635 1.503 . S
C1643 C1642 1.370 . S
C1643 C1644 1.403 . S
C1644 C1643 1.403 . S
C1644 C1645 1.404 . S
C1644 C1647 1.539 . S
C1645 C1641 1.408 . S
C1645 C1644 1.404 . S
C1645 H1657 0.930 . S
C1646 C1642 1.524 . S
C1646 H1658 0.956 . S
C1646 H1659 0.961 . S
C1646 H1660 0.961 . S
C1647 C1644 1.539 . S
C1647 H1661 0.958 . S
C1647 H1662 0.961 . S
C1647 H1663 0.960 . S
H1648 C1632 0.931 . S
H1649 C1637 0.929 . S
H1650 C1638 0.960 . S
H1651 C1638 0.962 . S
H1652 C1638 0.960 . S
H1653 C1639 0.961 . S
H1654 C1639 0.961 . S
H1655 C1639 0.961 . S
H1656 C1640 0.931 . S
H1657 C1645 0.930 . S
H1658 C1646 0.956 . S
H1659 C1646 0.961 . S
H1660 C1646 0.961 . S
H1661 C1647 0.958 . S
H1662 C1647 0.961 . S
H1663 C1647 0.960 . S
C1664 C1665 1.391 . S
C1664 C1666 1.394 . S
C1664 H1680 0.931 . S
C1665 C1664 1.391 . S
C1665 C1669 1.376 . S
C1666 C1664 1.394 . S
C1666 C1667 1.369 . S
C1666 C1670 1.531 . S
C1667 C1666 1.369 . S
C1667 C1668 1.410 . S
C1667 C1675 1.503 . S
C1668 C1667 1.410 . S
C1668 C1669 1.392 . S
C1668 C1671 1.511 . S
C1669 C1665 1.376 . S
C1669 C1668 1.392 . S
C1669 H1681 0.929 . S
C1670 C1666 1.531 . S
C1670 H1682 0.960 . S
C1670 H1683 0.962 . S
C1670 H1684 0.960 . S
C1671 C1668 1.511 . S
C1671 H1685 0.961 . S
C1671 H1686 0.961 . S
C1671 H1687 0.961 . S
C1672 C1673 1.370 . S
C1672 C1674 1.363 . S
C1672 H1688 0.931 . S
C1673 C1672 1.370 . S
C1673 C1677 1.408 . S
C1674 C1672 1.363 . S
C1674 C1675 1.370 . S
C1674 C1678 1.524 . S
C1675 C1667 1.503 . S
C1675 C1674 1.370 . S
C1675 C1676 1.403 . S
C1676 C1675 1.403 . S
C1676 C1677 1.404 . S
C1676 C1679 1.539 . S
C1677 C1673 1.408 . S
C1677 C1676 1.404 . S
C1677 H1689 0.930 . S
C1678 C1674 1.524 . S
C1678 H1690 0.956 . S
C1678 H1691 0.961 . S
C1678 H1692 0.961 . S
C1679 C1676 1.539 . S
C1679 H1693 0.958 . S
C1679 H1694 0.961 . S
C1679 H1695 0.960 . S
H1680 C1664 0.931 . S
H1681 C1669 0.929 . S
H1682 C1670 0.960 . S
H1683 C1670 0.962 . S
H1684 C1670 0.960 . S
H1685 C1671 0.961 . S
H1686 C1671 0.961 . S
H1687 C1671 0.961 . S
H1688 C1672 0.931 . S
H1689 C1677 0.930 . S
H1690 C1678 0.956 . S
H1691 C1678 0.961 . S
H1692 C1678 0.961 . S
H1693 C1679 0.958 . S
H1694 C1679 0.961 . S
H1695 C1679 0.960 . S
C1696 C1697 1.391 . S
C1696 C1698 1.394 . S
C1696 H1712 0.931 . S
C1697 C1696 1.391 . S
C1697 C1701 1.376 . S
C1698 C1696 1.394 . S
C1698 C1699 1.369 . S
C1698 C1702 1.531 . S
C1699 C1698 1.369 . S
C1699 C1700 1.410 . S
C1699 C1707 1.503 . S
C1700 C1699 1.410 . S
C1700 C1701 1.392 . S
C1700 C1703 1.511 . S
C1701 C1697 1.376 . S
C1701 C1700 1.392 . S
C1701 H1713 0.929 . S
C1702 C1698 1.531 . S
C1702 H1714 0.960 . S
C1702 H1715 0.962 . S
C1702 H1716 0.960 . S
C1703 C1700 1.511 . S
C1703 H1717 0.961 . S
C1703 H1718 0.961 . S
C1703 H1719 0.961 . S
C1704 C1705 1.370 . S
C1704 C1706 1.363 . S
C1704 H1720 0.931 . S
C1705 C1704 1.370 . S
C1705 C1709 1.408 . S
C1706 C1704 1.363 . S
C1706 C1707 1.370 . S
C1706 C1710 1.524 . S
C1707 C1699 1.503 . S
C1707 C1706 1.370 . S
C1707 C1708 1.403 . S
C1708 C1707 1.403 . S
C1708 C1709 1.404 . S
C1708 C1711 1.539 . S
C1709 C1705 1.408 . S
C1709 C1708 1.404 . S
C1709 H1721 0.930 . S
C1710 C1706 1.524 . S
C1710 H1722 0.956 . S
C1710 H1723 0.961 . S
C1710 H1724 0.961 . S
C1711 C1708 1.539 . S
C1711 H1725 0.958 . S
C1711 H1726 0.961 . S
C1711 H1727 0.960 . S
H1712 C1696 0.931 . S
H1713 C1701 0.929 . S
H1714 C1702 0.960 . S
H1715 C1702 0.962 . S
H1716 C1702 0.960 . S
H1717 C1703 0.961 . S
H1718 C1703 0.961 . S
H1719 C1703 0.961 . S
H1720 C1704 0.931 . S
H1721 C1709 0.930 . S
H1722 C1710 0.956 . S
H1723 C1710 0.961 . S
H1724 C1710 0.961 . S
H1725 C1711 0.958 . S
H1726 C1711 0.961 . S
H1727 C1711 0.960 . S
C1728 C1729 1.391 . S
C1728 C1730 1.394 . S
C1728 H1744 0.931 . S
C1729 C1728 1.391 . S
C1729 C1733 1.376 . S
C1730 C1728 1.394 . S
C1730 C1731 1.369 . S
C1730 C1734 1.531 . S
C1731 C1730 1.369 . S
C1731 C1732 1.410 . S
C1731 C1739 1.503 . S
C1732 C1731 1.410 . S
C1732 C1733 1.392 . S
C1732 C1735 1.511 . S
C1733 C1729 1.376 . S
C1733 C1732 1.392 . S
C1733 H1745 0.929 . S
C1734 C1730 1.531 . S
C1734 H1746 0.960 . S
C1734 H1747 0.962 . S
C1734 H1748 0.960 . S
C1735 C1732 1.511 . S
C1735 H1749 0.961 . S
C1735 H1750 0.961 . S
C1735 H1751 0.961 . S
C1736 C1737 1.370 . S
C1736 C1738 1.363 . S
C1736 H1752 0.931 . S
C1737 C1736 1.370 . S
C1737 C1741 1.408 . S
C1738 C1736 1.363 . S
C1738 C1739 1.370 . S
C1738 C1742 1.524 . S
C1739 C1731 1.503 . S
C1739 C1738 1.370 . S
C1739 C1740 1.403 . S
C1740 C1739 1.403 . S
C1740 C1741 1.404 . S
C1740 C1743 1.539 . S
C1741 C1737 1.408 . S
C1741 C1740 1.404 . S
C1741 H1753 0.930 . S
C1742 C1738 1.524 . S
C1742 H1754 0.956 . S
C1742 H1755 0.961 . S
C1742 H1756 0.961 . S
C1743 C1740 1.539 . S
C1743 H1757 0.958 . S
C1743 H1758 0.961 . S
C1743 H1759 0.960 . S
H1744 C1728 0.931 . S
H1745 C1733 0.929 . S
H1746 C1734 0.960 . S
H1747 C1734 0.962 . S
H1748 C1734 0.960 . S
H1749 C1735 0.961 . S
H1750 C1735 0.961 . S
H1751 C1735 0.961 . S
H1752 C1736 0.931 . S
H1753 C1741 0.930 . S
H1754 C1742 0.956 . S
H1755 C1742 0.961 . S
H1756 C1742 0.961 . S
H1757 C1743 0.958 . S
H1758 C1743 0.961 . S
H1759 C1743 0.960 . S
C1760 C1761 1.391 . S
C1760 C1762 1.394 . S
C1760 H1776 0.931 . S
C1761 C1760 1.391 . S
C1761 C1765 1.376 . S
C1762 C1760 1.394 . S
C1762 C1763 1.369 . S
C1762 C1766 1.531 . S
C1763 C1762 1.369 . S
C1763 C1764 1.410 . S
C1763 C1771 1.503 . S
C1764 C1763 1.410 . S
C1764 C1765 1.392 . S
C1764 C1767 1.511 . S
C1765 C1761 1.376 . S
C1765 C1764 1.392 . S
C1765 H1777 0.929 . S
C1766 C1762 1.531 . S
C1766 H1778 0.960 . S
C1766 H1779 0.962 . S
C1766 H1780 0.960 . S
C1767 C1764 1.511 . S
C1767 H1781 0.961 . S
C1767 H1782 0.961 . S
C1767 H1783 0.961 . S
C1768 C1769 1.370 . S
C1768 C1770 1.363 . S
C1768 H1784 0.931 . S
C1769 C1768 1.370 . S
C1769 C1773 1.408 . S
C1770 C1768 1.363 . S
C1770 C1771 1.370 . S
C1770 C1774 1.524 . S
C1771 C1763 1.503 . S
C1771 C1770 1.370 . S
C1771 C1772 1.403 . S
C1772 C1771 1.403 . S
C1772 C1773 1.404 . S
C1772 C1775 1.539 . S
C1773 C1769 1.408 . S
C1773 C1772 1.404 . S
C1773 H1785 0.930 . S
C1774 C1770 1.524 . S
C1774 H1786 0.956 . S
C1774 H1787 0.961 . S
C1774 H1788 0.961 . S
C1775 C1772 1.539 . S
C1775 H1789 0.958 . S
C1775 H1790 0.961 . S
C1775 H1791 0.960 . S
H1776 C1760 0.931 . S
H1777 C1765 0.929 . S
H1778 C1766 0.960 . S
H1779 C1766 0.962 . S
H1780 C1766 0.960 . S
H1781 C1767 0.961 . S
H1782 C1767 0.961 . S
H1783 C1767 0.961 . S
H1784 C1768 0.931 . S
H1785 C1773 0.930 . S
H1786 C1774 0.956 . S
H1787 C1774 0.961 . S
H1788 C1774 0.961 . S
H1789 C1775 0.958 . S
H1790 C1775 0.961 . S
H1791 C1775 0.960 . S
C1792 C1793 1.391 . S
C1792 C1794 1.394 . S
C1792 H1808 0.931 . S
C1793 C1792 1.391 . S
C1793 C1797 1.376 . S
C1794 C1792 1.394 . S
C1794 C1795 1.369 . S
C1794 C1798 1.531 . S
C1795 C1794 1.369 . S
C1795 C1796 1.410 . S
C1795 C1803 1.503 . S
C1796 C1795 1.410 . S
C1796 C1797 1.392 . S
C1796 C1799 1.511 . S
C1797 C1793 1.376 . S
C1797 C1796 1.392 . S
C1797 H1809 0.929 . S
C1798 C1794 1.531 . S
C1798 H1810 0.960 . S
C1798 H1811 0.962 . S
C1798 H1812 0.960 . S
C1799 C1796 1.511 . S
C1799 H1813 0.961 . S
C1799 H1814 0.961 . S
C1799 H1815 0.961 . S
C1800 C1801 1.370 . S
C1800 C1802 1.363 . S
C1800 H1816 0.931 . S
C1801 C1800 1.370 . S
C1801 C1805 1.408 . S
C1802 C1800 1.363 . S
C1802 C1803 1.370 . S
C1802 C1806 1.524 . S
C1803 C1795 1.503 . S
C1803 C1802 1.370 . S
C1803 C1804 1.403 . S
C1804 C1803 1.403 . S
C1804 C1805 1.404 . S
C1804 C1807 1.539 . S
C1805 C1801 1.408 . S
C1805 C1804 1.404 . S
C1805 H1817 0.930 . S
C1806 C1802 1.524 . S
C1806 H1818 0.956 . S
C1806 H1819 0.961 . S
C1806 H1820 0.961 . S
C1807 C1804 1.539 . S
C1807 H1821 0.958 . S
C1807 H1822 0.961 . S
C1807 H1823 0.960 . S
H1808 C1792 0.931 . S
H1809 C1797 0.929 . S
H1810 C1798 0.960 . S
H1811 C1798 0.962 . S
H1812 C1798 0.960 . S
H1813 C1799 0.961 . S
H1814 C1799 0.961 . S
H1815 C1799 0.961 . S
H1816 C1800 0.931 . S
H1817 C1805 0.930 . S
H1818 C1806 0.956 . S
H1819 C1806 0.961 . S
H1820 C1806 0.961 . S
H1821 C1807 0.958 . S
H1822 C1807 0.961 . S
H1823 C1807 0.960 . S
C1824 C1825 1.391 1_554 S
C1824 C1826 1.394 1_554 S
C1824 H1840 0.931 . S
C1825 C1824 1.391 1_556 S
C1825 C1829 1.376 . S
C1826 C1824 1.394 1_556 S
C1826 C1827 1.369 . S
C1826 C1830 1.531 1_556 S
C1827 C1826 1.369 . S
C1827 C1828 1.410 . S
C1827 C1835 1.503 . S
C1828 C1827 1.410 . S
C1828 C1829 1.392 . S
C1828 C1831 1.511 . S
C1829 C1825 1.376 . S
C1829 C1828 1.392 . S
C1829 H1841 0.929 . S
C1830 C1826 1.531 1_554 S
C1830 H1842 0.960 . S
C1830 H1843 0.962 . S
C1830 H1844 0.960 . S
C1831 C1828 1.511 . S
C1831 H1845 0.961 . S
C1831 H1846 0.961 . S
C1831 H1847 0.961 . S
C1832 C1833 1.370 . S
C1832 C1834 1.363 . S
C1832 H1848 0.931 . S
C1833 C1832 1.370 . S
C1833 C1837 1.408 . S
C1834 C1832 1.363 . S
C1834 C1835 1.370 . S
C1834 C1838 1.524 . S
C1835 C1827 1.503 . S
C1835 C1834 1.370 . S
C1835 C1836 1.403 . S
C1836 C1835 1.403 . S
C1836 C1837 1.404 . S
C1836 C1839 1.539 . S
C1837 C1833 1.408 . S
C1837 C1836 1.404 . S
C1837 H1849 0.930 . S
C1838 C1834 1.524 . S
C1838 H1850 0.956 . S
C1838 H1851 0.961 . S
C1838 H1852 0.961 . S
C1839 C1836 1.539 . S
C1839 H1853 0.958 . S
C1839 H1854 0.961 . S
C1839 H1855 0.960 . S
H1840 C1824 0.931 . S
H1841 C1829 0.929 . S
H1842 C1830 0.960 . S
H1843 C1830 0.962 . S
H1844 C1830 0.960 . S
H1845 C1831 0.961 . S
H1846 C1831 0.961 . S
H1847 C1831 0.961 . S
H1848 C1832 0.931 . S
H1849 C1837 0.930 . S
H1850 C1838 0.956 . S
H1851 C1838 0.961 . S
H1852 C1838 0.961 . S
H1853 C1839 0.958 . S
H1854 C1839 0.961 . S
H1855 C1839 0.960 . S
C1856 C1857 1.391 . S
C1856 C1858 1.394 . S
C1856 H1872 0.931 . S
C1857 C1856 1.391 . S
C1857 C1861 1.376 . S
C1858 C1856 1.394 . S
C1858 C1859 1.369 . S
C1858 C1862 1.531 . S
C1859 C1858 1.369 . S
C1859 C1860 1.410 . S
C1859 C1867 1.503 . S
C1860 C1859 1.410 . S
C1860 C1861 1.392 . S
C1860 C1863 1.511 . S
C1861 C1857 1.376 . S
C1861 C1860 1.392 . S
C1861 H1873 0.929 . S
C1862 C1858 1.531 . S
C1862 H1874 0.960 . S
C1862 H1875 0.962 . S
C1862 H1876 0.960 . S
C1863 C1860 1.511 . S
C1863 H1877 0.961 . S
C1863 H1878 0.961 . S
C1863 H1879 0.961 . S
C1864 C1865 1.370 . S
C1864 C1866 1.363 . S
C1864 H1880 0.931 . S
C1865 C1864 1.370 . S
C1865 C1869 1.408 . S
C1866 C1864 1.363 . S
C1866 C1867 1.370 . S
C1866 C1870 1.527 . S
C1867 C1859 1.503 . S
C1867 C1866 1.370 . S
C1867 C1868 1.403 . S
C1868 C1867 1.403 . S
C1868 C1869 1.404 . S
C1868 C1871 1.539 . S
C1869 C1865 1.408 . S
C1869 C1868 1.404 . S
C1869 H1881 0.930 . S
C1870 C1866 1.527 . S
C1870 H1882 0.956 1_556 S
C1870 H1883 0.959 1_556 S
C1870 H1884 0.959 1_556 S
C1871 C1868 1.539 . S
C1871 H1885 0.958 . S
C1871 H1886 0.961 . S
C1871 H1887 0.960 . S
H1872 C1856 0.931 . S
H1873 C1861 0.929 . S
H1874 C1862 0.960 . S
H1875 C1862 0.962 . S
H1876 C1862 0.960 . S
H1877 C1863 0.961 . S
H1878 C1863 0.961 . S
H1879 C1863 0.961 . S
H1880 C1864 0.931 . S
H1881 C1869 0.930 . S
H1882 C1870 0.956 1_554 S
H1883 C1870 0.959 1_554 S
H1884 C1870 0.959 1_554 S
H1885 C1871 0.958 . S
H1886 C1871 0.961 . S
H1887 C1871 0.960 . S
C1888 C1889 1.391 . S
C1888 C1890 1.394 . S
C1888 H1904 0.931 . S
C1889 C1888 1.391 . S
C1889 C1893 1.376 1_556 S
C1890 C1888 1.394 . S
C1890 C1891 1.369 . S
C1890 C1894 1.531 . S
C1891 C1890 1.369 . S
C1891 C1892 1.410 . S
C1891 C1899 1.503 . S
C1892 C1891 1.410 . S
C1892 C1893 1.392 1_556 S
C1892 C1895 1.511 1_556 S
C1893 C1889 1.376 1_554 S
C1893 C1892 1.392 1_554 S
C1893 H1905 0.929 . S
C1894 C1890 1.531 . S
C1894 H1906 0.960 . S
C1894 H1907 0.962 . S
C1894 H1908 0.960 . S
C1895 C1892 1.511 1_554 S
C1895 H1909 0.961 . S
C1895 H1910 0.961 . S
C1895 H1911 0.961 . S
C1896 C1897 1.370 . S
C1896 C1898 1.363 . S
C1896 H1912 0.931 . S
C1897 C1896 1.370 . S
C1897 C1901 1.408 . S
C1898 C1896 1.363 . S
C1898 C1899 1.370 . S
C1898 C1902 1.524 . S
C1899 C1891 1.503 . S
C1899 C1898 1.370 . S
C1899 C1900 1.403 . S
C1900 C1899 1.403 . S
C1900 C1901 1.404 . S
C1900 C1903 1.539 . S
C1901 C1897 1.408 . S
C1901 C1900 1.404 . S
C1901 H1913 0.930 . S
C1902 C1898 1.524 . S
C1902 H1914 0.956 . S
C1902 H1915 0.961 . S
C1902 H1916 0.961 . S
C1903 C1900 1.539 . S
C1903 H1917 0.958 . S
C1903 H1918 0.961 . S
C1903 H1919 0.960 . S
H1904 C1888 0.931 . S
H1905 C1893 0.929 . S
H1906 C1894 0.960 . S
H1907 C1894 0.962 . S
H1908 C1894 0.960 . S
H1909 C1895 0.961 . S
H1910 C1895 0.961 . S
H1911 C1895 0.961 . S
H1912 C1896 0.931 . S
H1913 C1901 0.930 . S
H1914 C1902 0.956 . S
H1915 C1902 0.961 . S
H1916 C1902 0.961 . S
H1917 C1903 0.958 . S
H1918 C1903 0.961 . S
H1919 C1903 0.960 . S
C1920 C1921 1.391 . S
C1920 C1922 1.394 . S
C1920 H1936 0.931 . S
C1921 C1920 1.391 . S
C1921 C1925 1.376 . S
C1922 C1920 1.394 . S
C1922 C1923 1.369 . S
C1922 C1926 1.531 . S
C1923 C1922 1.369 . S
C1923 C1924 1.410 . S
C1923 C1931 1.503 . S
C1924 C1923 1.410 . S
C1924 C1925 1.392 . S
C1924 C1927 1.511 . S
C1925 C1921 1.376 . S
C1925 C1924 1.392 . S
C1925 H1937 0.929 1_556 S
C1926 C1922 1.531 . S
C1926 H1938 0.960 . S
C1926 H1939 0.962 . S
C1926 H1940 0.960 . S
C1927 C1924 1.511 . S
C1927 H1941 0.961 . S
C1927 H1942 0.961 . S
C1927 H1943 0.961 1_556 S
C1928 C1929 1.370 . S
C1928 C1930 1.363 . S
C1928 H1944 0.931 . S
C1929 C1928 1.370 . S
C1929 C1933 1.408 . S
C1930 C1928 1.363 . S
C1930 C1931 1.370 . S
C1930 C1934 1.524 . S
C1931 C1923 1.503 . S
C1931 C1930 1.370 . S
C1931 C1932 1.403 . S
C1932 C1931 1.403 . S
C1932 C1933 1.404 . S
C1932 C1935 1.539 1_556 S
C1933 C1929 1.408 . S
C1933 C1932 1.404 . S
C1933 H1945 0.930 . S
C1934 C1930 1.524 . S
C1934 H1946 0.956 . S
C1934 H1947 0.961 . S
C1934 H1948 0.961 . S
C1935 C1932 1.539 1_554 S
C1935 H1949 0.958 . S
C1935 H1950 0.961 . S
C1935 H1951 0.960 . S
H1936 C1920 0.931 . S
H1937 C1925 0.929 1_554 S
H1938 C1926 0.960 . S
H1939 C1926 0.962 . S
H1940 C1926 0.960 . S
H1941 C1927 0.961 . S
H1942 C1927 0.961 . S
H1943 C1927 0.961 1_554 S
H1944 C1928 0.931 . S
H1945 C1933 0.930 . S
H1946 C1934 0.956 . S
H1947 C1934 0.961 . S
H1948 C1934 0.961 . S
H1949 C1935 0.958 . S
H1950 C1935 0.961 . S
H1951 C1935 0.960 . S
C1952 C1953 1.391 . S
C1952 C1954 1.394 . S
C1952 H1968 0.931 . S
C1953 C1952 1.391 . S
C1953 C1957 1.376 . S
C1954 C1952 1.394 . S
C1954 C1955 1.369 . S
C1954 C1958 1.531 . S
C1955 C1954 1.369 . S
C1955 C1956 1.410 . S
C1955 C1963 1.503 . S
C1956 C1955 1.410 . S
C1956 C1957 1.392 . S
C1956 C1959 1.511 . S
C1957 C1953 1.376 . S
C1957 C1956 1.392 . S
C1957 H1969 0.929 1_556 S
C1958 C1954 1.531 . S
C1958 H1970 0.960 . S
C1958 H1971 0.962 . S
C1958 H1972 0.960 . S
C1959 C1956 1.511 . S
C1959 H1973 0.961 1_556 S
C1959 H1974 0.961 . S
C1959 H1975 0.961 . S
C1960 C1961 1.370 . S
C1960 C1962 1.363 . S
C1960 H1976 0.931 . S
C1961 C1960 1.370 . S
C1961 C1965 1.408 . S
C1962 C1960 1.363 . S
C1962 C1963 1.370 . S
C1962 C1966 1.524 . S
C1963 C1955 1.503 . S
C1963 C1962 1.370 . S
C1963 C1964 1.403 . S
C1964 C1963 1.403 . S
C1964 C1965 1.404 . S
C1964 C1967 1.539 . S
C1965 C1961 1.408 . S
C1965 C1964 1.404 . S
C1965 H1977 0.930 . S
C1966 C1962 1.524 . S
C1966 H1978 0.956 . S
C1966 H1979 0.961 1_556 S
C1966 H1980 0.961 1_556 S
C1967 C1964 1.539 . S
C1967 H1981 0.958 . S
C1967 H1982 0.961 . S
C1967 H1983 0.960 . S
H1968 C1952 0.931 . S
H1969 C1957 0.929 1_554 S
H1970 C1958 0.960 . S
H1971 C1958 0.962 . S
H1972 C1958 0.960 . S
H1973 C1959 0.961 1_554 S
H1974 C1959 0.961 . S
H1975 C1959 0.961 . S
H1976 C1960 0.931 . S
H1977 C1965 0.930 . S
H1978 C1966 0.956 . S
H1979 C1966 0.961 1_554 S
H1980 C1966 0.961 1_554 S
H1981 C1967 0.958 . S
H1982 C1967 0.961 . S
H1983 C1967 0.960 . S
C1984 C1985 1.391 . S
C1984 C1986 1.394 . S
C1984 H2000 0.931 . S
C1985 C1984 1.391 . S
C1985 C1989 1.376 . S
C1986 C1984 1.394 . S
C1986 C1987 1.369 . S
C1986 C1990 1.531 . S
C1987 C1986 1.369 . S
C1987 C1988 1.410 . S
C1987 C1995 1.503 . S
C1988 C1987 1.410 . S
C1988 C1989 1.392 . S
C1988 C1991 1.511 . S
C1989 C1985 1.376 . S
C1989 C1988 1.392 . S
C1989 H2001 0.929 1_556 S
C1990 C1986 1.531 . S
C1990 H2002 0.960 . S
C1990 H2003 0.962 . S
C1990 H2004 0.960 . S
C1991 C1988 1.511 . S
C1991 H2005 0.961 . S
C1991 H2006 0.961 . S
C1991 H2007 0.961 1_556 S
C1992 C1993 1.370 . S
C1992 C1994 1.363 . S
C1992 H2008 0.931 . S
C1993 C1992 1.370 . S
C1993 C1997 1.408 . S
C1994 C1992 1.363 . S
C1994 C1995 1.370 . S
C1994 C1998 1.524 . S
C1995 C1987 1.503 . S
C1995 C1994 1.370 . S
C1995 C1996 1.403 . S
C1996 C1995 1.403 . S
C1996 C1997 1.404 . S
C1996 C1999 1.539 1_556 S
C1997 C1993 1.408 . S
C1997 C1996 1.404 . S
C1997 H2009 0.930 . S
C1998 C1994 1.524 . S
C1998 H2010 0.956 . S
C1998 H2011 0.961 . S
C1998 H2012 0.961 . S
C1999 C1996 1.539 1_554 S
C1999 H2013 0.958 . S
C1999 H2014 0.961 . S
C1999 H2015 0.960 . S
H2000 C1984 0.931 . S
H2001 C1989 0.929 1_554 S
H2002 C1990 0.960 . S
H2003 C1990 0.962 . S
H2004 C1990 0.960 . S
H2005 C1991 0.961 . S
H2006 C1991 0.961 . S
H2007 C1991 0.961 1_554 S
H2008 C1992 0.931 . S
H2009 C1997 0.930 . S
H2010 C1998 0.956 . S
H2011 C1998 0.961 . S
H2012 C1998 0.961 . S
H2013 C1999 0.958 . S
H2014 C1999 0.961 . S
H2015 C1999 0.960 . S
C2016 C2017 1.391 . S
C2016 C2018 1.394 . S
C2016 H2032 0.931 . S
C2017 C2016 1.391 . S
C2017 C2021 1.376 . S
C2018 C2016 1.394 . S
C2018 C2019 1.369 . S
C2018 C2022 1.531 . S
C2019 C2018 1.369 . S
C2019 C2020 1.410 . S
C2019 C2027 1.503 . S
C2020 C2019 1.410 . S
C2020 C2021 1.392 . S
C2020 C2023 1.511 . S
C2021 C2017 1.376 . S
C2021 C2020 1.392 . S
C2021 H2033 0.929 . S
C2022 C2018 1.531 . S
C2022 H2034 0.960 . S
C2022 H2035 0.962 . S
C2022 H2036 0.960 . S
C2023 C2020 1.511 . S
C2023 H2037 0.961 . S
C2023 H2038 0.961 . S
C2023 H2039 0.961 . S
C2024 C2025 1.370 . S
C2024 C2026 1.363 . S
C2024 H2040 0.931 . S
C2025 C2024 1.370 . S
C2025 C2029 1.408 . S
C2026 C2024 1.363 . S
C2026 C2027 1.370 . S
C2026 C2030 1.524 . S
C2027 C2019 1.503 . S
C2027 C2026 1.370 . S
C2027 C2028 1.403 . S
C2028 C2027 1.403 . S
C2028 C2029 1.404 . S
C2028 C2031 1.539 . S
C2029 C2025 1.408 . S
C2029 C2028 1.404 . S
C2029 H2041 0.930 . S
C2030 C2026 1.524 . S
C2030 H2042 0.956 . S
C2030 H2043 0.961 . S
C2030 H2044 0.961 . S
C2031 C2028 1.539 . S
C2031 H2045 0.958 . S
C2031 H2046 0.961 . S
C2031 H2047 0.960 . S
H2032 C2016 0.931 . S
H2033 C2021 0.929 . S
H2034 C2022 0.960 . S
H2035 C2022 0.962 . S
H2036 C2022 0.960 . S
H2037 C2023 0.961 . S
H2038 C2023 0.961 . S
H2039 C2023 0.961 . S
H2040 C2024 0.931 . S
H2041 C2029 0.930 . S
H2042 C2030 0.956 . S
H2043 C2030 0.961 . S
H2044 C2030 0.961 . S
H2045 C2031 0.958 . S
H2046 C2031 0.961 . S
H2047 C2031 0.960 . S
C2048 C2049 1.391 . S
C2048 C2050 1.394 . S
C2048 H2064 0.931 . S
C2049 C2048 1.391 . S
C2049 C2053 1.376 . S
C2050 C2048 1.394 . S
C2050 C2051 1.369 . S
C2050 C2054 1.531 . S
C2051 C2050 1.369 . S
C2051 C2052 1.410 . S
C2051 C2059 1.503 . S
C2052 C2051 1.410 . S
C2052 C2053 1.392 . S
C2052 C2055 1.511 . S
C2053 C2049 1.376 . S
C2053 C2052 1.392 . S
C2053 H2065 0.929 . S
C2054 C2050 1.531 . S
C2054 H2066 0.960 . S
C2054 H2067 0.962 . S
C2054 H2068 0.960 . S
C2055 C2052 1.511 . S
C2055 H2069 0.961 . S
C2055 H2070 0.961 . S
C2055 H2071 0.961 . S
C2056 C2057 1.370 . S
C2056 C2058 1.363 . S
C2056 H2072 0.931 . S
C2057 C2056 1.370 . S
C2057 C2061 1.408 . S
C2058 C2056 1.363 . S
C2058 C2059 1.370 . S
C2058 C2062 1.524 . S
C2059 C2051 1.503 . S
C2059 C2058 1.370 . S
C2059 C2060 1.403 . S
C2060 C2059 1.403 . S
C2060 C2061 1.404 . S
C2060 C2063 1.539 . S
C2061 C2057 1.408 . S
C2061 C2060 1.404 . S
C2061 H2073 0.930 . S
C2062 C2058 1.524 . S
C2062 H2074 0.956 . S
C2062 H2075 0.961 . S
C2062 H2076 0.961 . S
C2063 C2060 1.539 . S
C2063 H2077 0.958 . S
C2063 H2078 0.961 . S
C2063 H2079 0.960 . S
H2064 C2048 0.931 . S
H2065 C2053 0.929 . S
H2066 C2054 0.960 . S
H2067 C2054 0.962 . S
H2068 C2054 0.960 . S
H2069 C2055 0.961 . S
H2070 C2055 0.961 . S
H2071 C2055 0.961 . S
H2072 C2056 0.931 . S
H2073 C2061 0.930 . S
H2074 C2062 0.956 . S
H2075 C2062 0.961 . S
H2076 C2062 0.961 . S
H2077 C2063 0.958 . S
H2078 C2063 0.961 . S
H2079 C2063 0.960 . S
C2080 C2081 1.391 . S
C2080 C2082 1.394 . S
C2080 H2096 0.931 . S
C2081 C2080 1.391 . S
C2081 C2085 1.376 . S
C2082 C2080 1.394 . S
C2082 C2083 1.369 . S
C2082 C2086 1.531 . S
C2083 C2082 1.369 . S
C2083 C2084 1.410 . S
C2083 C2091 1.503 . S
C2084 C2083 1.410 . S
C2084 C2085 1.392 . S
C2084 C2087 1.511 . S
C2085 C2081 1.376 . S
C2085 C2084 1.392 . S
C2085 H2097 0.929 . S
C2086 C2082 1.531 . S
C2086 H2098 0.960 . S
C2086 H2099 0.962 . S
C2086 H2100 0.960 . S
C2087 C2084 1.511 . S
C2087 H2101 0.961 . S
C2087 H2102 0.961 . S
C2087 H2103 0.961 . S
C2088 C2089 1.370 . S
C2088 C2090 1.363 . S
C2088 H2104 0.931 . S
C2089 C2088 1.370 . S
C2089 C2093 1.408 . S
C2090 C2088 1.363 . S
C2090 C2091 1.370 . S
C2090 C2094 1.524 . S
C2091 C2083 1.503 . S
C2091 C2090 1.370 . S
C2091 C2092 1.403 . S
C2092 C2091 1.403 . S
C2092 C2093 1.404 . S
C2092 C2095 1.539 . S
C2093 C2089 1.408 . S
C2093 C2092 1.404 . S
C2093 H2105 0.930 . S
C2094 C2090 1.524 . S
C2094 H2106 0.956 . S
C2094 H2107 0.961 . S
C2094 H2108 0.961 . S
C2095 C2092 1.539 . S
C2095 H2109 0.958 . S
C2095 H2110 0.961 . S
C2095 H2111 0.960 . S
H2096 C2080 0.931 . S
H2097 C2085 0.929 . S
H2098 C2086 0.960 . S
H2099 C2086 0.962 . S
H2100 C2086 0.960 . S
H2101 C2087 0.961 . S
H2102 C2087 0.961 . S
H2103 C2087 0.961 . S
H2104 C2088 0.931 . S
H2105 C2093 0.930 . S
H2106 C2094 0.956 . S
H2107 C2094 0.961 . S
H2108 C2094 0.961 . S
H2109 C2095 0.958 . S
H2110 C2095 0.961 . S
H2111 C2095 0.960 . S
C2112 C2113 1.391 . S
C2112 C2114 1.394 . S
C2112 H2128 0.931 . S
C2113 C2112 1.391 . S
C2113 C2117 1.376 . S
C2114 C2112 1.394 . S
C2114 C2115 1.369 . S
C2114 C2118 1.531 . S
C2115 C2114 1.369 . S
C2115 C2116 1.410 . S
C2115 C2123 1.503 . S
C2116 C2115 1.410 . S
C2116 C2117 1.392 . S
C2116 C2119 1.511 . S
C2117 C2113 1.376 . S
C2117 C2116 1.392 . S
C2117 H2129 0.929 . S
C2118 C2114 1.531 . S
C2118 H2130 0.960 . S
C2118 H2131 0.962 . S
C2118 H2132 0.960 . S
C2119 C2116 1.511 . S
C2119 H2133 0.961 . S
C2119 H2134 0.961 . S
C2119 H2135 0.961 . S
C2120 C2121 1.370 . S
C2120 C2122 1.363 . S
C2120 H2136 0.931 . S
C2121 C2120 1.370 . S
C2121 C2125 1.408 . S
C2122 C2120 1.363 . S
C2122 C2123 1.370 . S
C2122 C2126 1.524 . S
C2123 C2115 1.503 . S
C2123 C2122 1.370 . S
C2123 C2124 1.403 . S
C2124 C2123 1.403 . S
C2124 C2125 1.404 . S
C2124 C2127 1.539 . S
C2125 C2121 1.408 . S
C2125 C2124 1.404 . S
C2125 H2137 0.930 . S
C2126 C2122 1.524 . S
C2126 H2138 0.956 . S
C2126 H2139 0.961 . S
C2126 H2140 0.961 . S
C2127 C2124 1.539 . S
C2127 H2141 0.958 . S
C2127 H2142 0.961 . S
C2127 H2143 0.960 . S
H2128 C2112 0.931 . S
H2129 C2117 0.929 . S
H2130 C2118 0.960 . S
H2131 C2118 0.962 . S
H2132 C2118 0.960 . S
H2133 C2119 0.961 . S
H2134 C2119 0.961 . S
H2135 C2119 0.961 . S
H2136 C2120 0.931 . S
H2137 C2125 0.930 . S
H2138 C2126 0.956 . S
H2139 C2126 0.961 . S
H2140 C2126 0.961 . S
H2141 C2127 0.958 . S
H2142 C2127 0.961 . S
H2143 C2127 0.960 . S
C2144 C2145 1.391 . S
C2144 C2146 1.394 . S
C2144 H2160 0.931 . S
C2145 C2144 1.391 . S
C2145 C2149 1.376 . S
C2146 C2144 1.394 . S
C2146 C2147 1.369 . S
C2146 C2150 1.531 . S
C2147 C2146 1.369 . S
C2147 C2148 1.410 . S
C2147 C2155 1.503 . S
C2148 C2147 1.410 . S
C2148 C2149 1.392 . S
C2148 C2151 1.511 . S
C2149 C2145 1.376 . S
C2149 C2148 1.392 . S
C2149 H2161 0.929 . S
C2150 C2146 1.531 . S
C2150 H2162 0.960 . S
C2150 H2163 0.962 . S
C2150 H2164 0.960 . S
C2151 C2148 1.511 . S
C2151 H2165 0.961 . S
C2151 H2166 0.961 . S
C2151 H2167 0.961 . S
C2152 C2153 1.370 . S
C2152 C2154 1.363 . S
C2152 H2168 0.931 . S
C2153 C2152 1.370 . S
C2153 C2157 1.408 . S
C2154 C2152 1.363 . S
C2154 C2155 1.370 . S
C2154 C2158 1.524 . S
C2155 C2147 1.503 . S
C2155 C2154 1.370 . S
C2155 C2156 1.403 . S
C2156 C2155 1.403 . S
C2156 C2157 1.404 . S
C2156 C2159 1.539 . S
C2157 C2153 1.408 . S
C2157 C2156 1.404 . S
C2157 H2169 0.930 . S
C2158 C2154 1.524 . S
C2158 H2170 0.956 . S
C2158 H2171 0.961 . S
C2158 H2172 0.961 . S
C2159 C2156 1.539 . S
C2159 H2173 0.958 . S
C2159 H2174 0.961 . S
C2159 H2175 0.960 . S
H2160 C2144 0.931 . S
H2161 C2149 0.929 . S
H2162 C2150 0.960 . S
H2163 C2150 0.962 . S
H2164 C2150 0.960 . S
H2165 C2151 0.961 . S
H2166 C2151 0.961 . S
H2167 C2151 0.961 . S
H2168 C2152 0.931 . S
H2169 C2157 0.930 . S
H2170 C2158 0.956 . S
H2171 C2158 0.961 . S
H2172 C2158 0.961 . S
H2173 C2159 0.958 . S
H2174 C2159 0.961 . S
H2175 C2159 0.960 . S
C2176 C2177 1.391 . S
C2176 C2178 1.394 . S
C2176 H2192 0.931 . S
C2177 C2176 1.391 . S
C2177 C2181 1.376 . S
C2178 C2176 1.394 . S
C2178 C2179 1.369 . S
C2178 C2182 1.531 . S
C2179 C2178 1.369 . S
C2179 C2180 1.410 . S
C2179 C2187 1.503 . S
C2180 C2179 1.410 . S
C2180 C2181 1.392 . S
C2180 C2183 1.511 . S
C2181 C2177 1.376 . S
C2181 C2180 1.392 . S
C2181 H2193 0.929 . S
C2182 C2178 1.531 . S
C2182 H2194 0.960 . S
C2182 H2195 0.962 . S
C2182 H2196 0.960 . S
C2183 C2180 1.511 . S
C2183 H2197 0.961 . S
C2183 H2198 0.961 . S
C2183 H2199 0.961 . S
C2184 C2185 1.370 . S
C2184 C2186 1.363 . S
C2184 H2200 0.931 . S
C2185 C2184 1.370 . S
C2185 C2189 1.408 . S
C2186 C2184 1.363 . S
C2186 C2187 1.370 . S
C2186 C2190 1.524 . S
C2187 C2179 1.503 . S
C2187 C2186 1.370 . S
C2187 C2188 1.403 . S
C2188 C2187 1.403 . S
C2188 C2189 1.404 . S
C2188 C2191 1.539 . S
C2189 C2185 1.408 . S
C2189 C2188 1.404 . S
C2189 H2201 0.930 . S
C2190 C2186 1.524 . S
C2190 H2202 0.956 . S
C2190 H2203 0.961 . S
C2190 H2204 0.961 . S
C2191 C2188 1.539 . S
C2191 H2205 0.958 . S
C2191 H2206 0.961 . S
C2191 H2207 0.960 . S
H2192 C2176 0.931 . S
H2193 C2181 0.929 . S
H2194 C2182 0.960 . S
H2195 C2182 0.962 . S
H2196 C2182 0.960 . S
H2197 C2183 0.961 . S
H2198 C2183 0.961 . S
H2199 C2183 0.961 . S
H2200 C2184 0.931 . S
H2201 C2189 0.930 . S
H2202 C2190 0.956 . S
H2203 C2190 0.961 . S
H2204 C2190 0.961 . S
H2205 C2191 0.958 . S
H2206 C2191 0.961 . S
H2207 C2191 0.960 . S
C2208 C2209 1.391 . S
C2208 C2210 1.394 . S
C2208 H2224 0.931 1_455 S
C2209 C2208 1.391 . S
C2209 C2213 1.376 . S
C2210 C2208 1.394 . S
C2210 C2211 1.369 . S
C2210 C2214 1.531 1_455 S
C2211 C2210 1.369 . S
C2211 C2212 1.410 . S
C2211 C2219 1.503 . S
C2212 C2211 1.410 . S
C2212 C2213 1.392 . S
C2212 C2215 1.511 . S
C2213 C2209 1.376 . S
C2213 C2212 1.392 . S
C2213 H2225 0.929 . S
C2214 C2210 1.531 1_655 S
C2214 H2226 0.960 . S
C2214 H2227 0.962 . S
C2214 H2228 0.960 . S
C2215 C2212 1.511 . S
C2215 H2229 0.961 . S
C2215 H2230 0.961 . S
C2215 H2231 0.961 . S
C2216 C2217 1.370 1_655 S
C2216 C2218 1.336 1_655 S
C2216 H2232 0.931 . S
C2217 C2216 1.370 1_455 S
C2217 C2221 1.408 . S
C2218 C2216 1.336 1_455 S
C2218 C2219 1.396 . S
C2218 C2222 1.528 1_455 S
C2219 C2211 1.503 . S
C2219 C2218 1.396 . S
C2219 C2220 1.403 . S
C2220 C2219 1.403 . S
C2220 C2221 1.404 . S
C2220 C2223 1.539 . S
C2221 C2217 1.408 . S
C2221 C2220 1.404 . S
C2221 H2233 0.930 . S
C2222 C2218 1.528 1_655 S
C2222 H2234 0.956 . S
C2222 H2235 0.893 1_655 S
C2222 H2236 0.961 . S
C2223 C2220 1.539 . S
C2223 H2237 0.958 . S
C2223 H2238 0.961 . S
C2223 H2239 0.960 . S
H2224 C2208 0.931 1_655 S
H2225 C2213 0.929 . S
H2226 C2214 0.960 . S
H2227 C2214 0.962 . S
H2228 C2214 0.960 . S
H2229 C2215 0.961 . S
H2230 C2215 0.961 . S
H2231 C2215 0.961 . S
H2232 C2216 0.931 . S
H2233 C2221 0.930 . S
H2234 C2222 0.956 . S
H2235 C2222 0.893 1_455 S
H2236 C2222 0.961 . S
H2237 C2223 0.958 . S
H2238 C2223 0.961 . S
H2239 C2223 0.960 . S
C2240 C2241 1.391 . S
C2240 C2242 1.394 . S
C2240 H2256 0.931 . S
C2241 C2240 1.391 . S
C2241 C2245 1.376 . S
C2242 C2240 1.394 . S
C2242 C2243 1.369 . S
C2242 C2246 1.531 . S
C2243 C2242 1.369 . S
C2243 C2244 1.410 . S
C2243 C2251 1.503 . S
C2244 C2243 1.410 . S
C2244 C2245 1.392 . S
C2244 C2247 1.511 . S
C2245 C2241 1.376 . S
C2245 C2244 1.392 . S
C2245 H2257 0.929 . S
C2246 C2242 1.531 . S
C2246 H2258 0.960 . S
C2246 H2259 0.962 . S
C2246 H2260 0.960 . S
C2247 C2244 1.511 . S
C2247 H2261 0.961 . S
C2247 H2262 0.961 . S
C2247 H2263 0.961 . S
C2248 C2249 1.370 . S
C2248 C2250 1.363 . S
C2248 H2264 0.931 . S
C2249 C2248 1.370 . S
C2249 C2253 1.408 . S
C2250 C2248 1.363 . S
C2250 C2251 1.370 . S
C2250 C2254 1.524 . S
C2251 C2243 1.503 . S
C2251 C2250 1.370 . S
C2251 C2252 1.403 . S
C2252 C2251 1.403 . S
C2252 C2253 1.404 . S
C2252 C2255 1.539 . S
C2253 C2249 1.408 . S
C2253 C2252 1.404 . S
C2253 H2265 0.930 . S
C2254 C2250 1.524 . S
C2254 H2266 0.956 . S
C2254 H2267 0.961 . S
C2254 H2268 0.961 . S
C2255 C2252 1.539 . S
C2255 H2269 0.958 . S
C2255 H2270 0.961 . S
C2255 H2271 0.960 . S
H2256 C2240 0.931 . S
H2257 C2245 0.929 . S
H2258 C2246 0.960 . S
H2259 C2246 0.962 . S
H2260 C2246 0.960 . S
H2261 C2247 0.961 . S
H2262 C2247 0.961 . S
H2263 C2247 0.961 . S
H2264 C2248 0.931 . S
H2265 C2253 0.930 . S
H2266 C2254 0.956 . S
H2267 C2254 0.961 . S
H2268 C2254 0.961 . S
H2269 C2255 0.958 . S
H2270 C2255 0.961 . S
H2271 C2255 0.960 . S
C2272 C2273 1.391 . S
C2272 C2274 1.394 . S
C2272 H2288 0.931 . S
C2273 C2272 1.391 . S
C2273 C2277 1.376 1_565 S
C2274 C2272 1.394 . S
C2274 C2275 1.369 . S
C2274 C2278 1.531 . S
C2275 C2274 1.369 . S
C2275 C2276 1.410 1_565 S
C2275 C2283 1.503 . S
C2276 C2275 1.410 1_545 S
C2276 C2277 1.392 . S
C2276 C2279 1.511 . S
C2277 C2273 1.376 1_545 S
C2277 C2276 1.392 . S
C2277 H2289 0.929 . S
C2278 C2274 1.531 . S
C2278 H2290 0.960 . S
C2278 H2291 0.962 . S
C2278 H2292 0.960 . S
C2279 C2276 1.511 . S
C2279 H2293 0.961 . S
C2279 H2294 0.961 . S
C2279 H2295 0.961 . S
C2280 C2281 1.370 . S
C2280 C2282 1.363 . S
C2280 H2296 0.931 . S
C2281 C2280 1.370 . S
C2281 C2285 1.408 1_565 S
C2282 C2280 1.363 . S
C2282 C2283 1.370 . S
C2282 C2286 1.524 . S
C2283 C2275 1.503 . S
C2283 C2282 1.370 . S
C2283 C2284 1.403 1_565 S
C2284 C2283 1.403 1_545 S
C2284 C2285 1.404 . S
C2284 C2287 1.539 . S
C2285 C2281 1.408 1_545 S
C2285 C2284 1.404 . S
C2285 H2297 0.930 . S
C2286 C2282 1.524 . S
C2286 H2298 0.956 . S
C2286 H2299 0.961 . S
C2286 H2300 0.961 . S
C2287 C2284 1.539 . S
C2287 H2301 0.958 . S
C2287 H2302 0.961 . S
C2287 H2303 0.960 . S
H2288 C2272 0.931 . S
H2289 C2277 0.929 . S
H2290 C2278 0.960 . S
H2291 C2278 0.962 . S
H2292 C2278 0.960 . S
H2293 C2279 0.961 . S
H2294 C2279 0.961 . S
H2295 C2279 0.961 . S
H2296 C2280 0.931 . S
H2297 C2285 0.930 . S
H2298 C2286 0.956 . S
H2299 C2286 0.961 . S
H2300 C2286 0.961 . S
H2301 C2287 0.958 . S
H2302 C2287 0.961 . S
H2303 C2287 0.960 . S
C2304 C2305 1.391 . S
C2304 C2306 1.394 . S
C2304 H2320 0.931 . S
C2305 C2304 1.391 . S
C2305 C2309 1.376 . S
C2306 C2304 1.394 . S
C2306 C2307 1.369 . S
C2306 C2310 1.531 . S
C2307 C2306 1.369 . S
C2307 C2308 1.410 . S
C2307 C2315 1.503 . S
C2308 C2307 1.410 . S
C2308 C2309 1.392 . S
C2308 C2311 1.511 1_565 S
C2309 C2305 1.376 . S
C2309 C2308 1.392 . S
C2309 H2321 0.929 1_565 S
C2310 C2306 1.531 . S
C2310 H2322 0.960 . S
C2310 H2323 0.962 . S
C2310 H2324 0.960 . S
C2311 C2308 1.511 1_545 S
C2311 H2325 0.961 . S
C2311 H2326 0.961 . S
C2311 H2327 0.961 . S
C2312 C2313 1.370 1_545 S
C2312 C2314 1.363 . S
C2312 H2328 0.931 . S
C2313 C2312 1.370 1_565 S
C2313 C2317 1.408 . S
C2314 C2312 1.363 . S
C2314 C2315 1.370 1_545 S
C2314 C2318 1.524 . S
C2315 C2307 1.503 . S
C2315 C2314 1.370 1_565 S
C2315 C2316 1.403 . S
C2316 C2315 1.403 . S
C2316 C2317 1.404 . S
C2316 C2319 1.539 . S
C2317 C2313 1.408 . S
C2317 C2316 1.404 . S
C2317 H2329 0.930 . S
C2318 C2314 1.524 . S
C2318 H2330 0.956 . S
C2318 H2331 0.961 . S
C2318 H2332 0.961 . S
C2319 C2316 1.539 . S
C2319 H2333 0.958 . S
C2319 H2334 0.961 . S
C2319 H2335 0.960 . S
H2320 C2304 0.931 . S
H2321 C2309 0.929 1_545 S
H2322 C2310 0.960 . S
H2323 C2310 0.962 . S
H2324 C2310 0.960 . S
H2325 C2311 0.961 . S
H2326 C2311 0.961 . S
H2327 C2311 0.961 . S
H2328 C2312 0.931 . S
H2329 C2317 0.930 . S
H2330 C2318 0.956 . S
H2331 C2318 0.961 . S
H2332 C2318 0.961 . S
H2333 C2319 0.958 . S
H2334 C2319 0.961 . S
H2335 C2319 0.960 . S
C2336 C2337 1.391 . S
C2336 C2338 1.394 . S
C2336 H2352 0.931 . S
C2337 C2336 1.391 . S
C2337 C2341 1.376 . S
C2338 C2336 1.394 . S
C2338 C2339 1.369 . S
C2338 C2342 1.531 . S
C2339 C2338 1.369 . S
C2339 C2340 1.389 1_455 S
C2339 C2347 1.503 . S
C2340 C2339 1.389 1_655 S
C2340 C2341 1.407 1_655 S
C2340 C2343 1.519 . S
C2341 C2337 1.376 . S
C2341 C2340 1.407 1_455 S
C2341 H2353 0.929 1_455 S
C2342 C2338 1.531 . S
C2342 H2354 0.960 . S
C2342 H2355 0.962 . S
C2342 H2356 0.960 . S
C2343 C2340 1.519 . S
C2343 H2357 0.961 . S
C2343 H2358 0.961 . S
C2343 H2359 0.961 . S
C2344 C2345 1.334 1_655 S
C2344 C2346 1.363 . S
C2344 H2360 0.931 . S
C2345 C2344 1.334 1_455 S
C2345 C2349 1.432 . S
C2346 C2344 1.363 . S
C2346 C2347 1.370 1_655 S
C2346 C2350 1.524 . S
C2347 C2339 1.503 . S
C2347 C2346 1.370 1_455 S
C2347 C2348 1.403 . S
C2348 C2347 1.403 . S
C2348 C2349 1.404 . S
C2348 C2351 1.539 . S
C2349 C2345 1.432 . S
C2349 C2348 1.404 . S
C2349 H2361 0.930 . S
C2350 C2346 1.524 . S
C2350 H2362 0.956 . S
C2350 H2363 0.961 . S
C2350 H2364 0.961 . S
C2351 C2348 1.539 . S
C2351 H2365 0.958 . S
C2351 H2366 0.961 . S
C2351 H2367 0.960 . S
H2352 C2336 0.931 . S
H2353 C2341 0.929 1_655 S
H2354 C2342 0.960 . S
H2355 C2342 0.962 . S
H2356 C2342 0.960 . S
H2357 C2343 0.961 . S
H2358 C2343 0.961 . S
H2359 C2343 0.961 . S
H2360 C2344 0.931 . S
H2361 C2349 0.930 . S
H2362 C2350 0.956 . S
H2363 C2350 0.961 . S
H2364 C2350 0.961 . S
H2365 C2351 0.958 . S
H2366 C2351 0.961 . S
H2367 C2351 0.960 . S
C2368 C2369 1.391 . S
C2368 C2370 1.394 . S
C2368 H2384 0.931 . S
C2369 C2368 1.391 . S
C2369 C2373 1.376 . S
C2370 C2368 1.394 . S
C2370 C2371 1.369 . S
C2370 C2374 1.531 . S
C2371 C2370 1.369 . S
C2371 C2372 1.410 . S
C2371 C2379 1.503 . S
C2372 C2371 1.410 . S
C2372 C2373 1.392 . S
C2372 C2375 1.511 . S
C2373 C2369 1.376 . S
C2373 C2372 1.392 . S
C2373 H2385 0.929 . S
C2374 C2370 1.531 . S
C2374 H2386 0.960 . S
C2374 H2387 0.962 . S
C2374 H2388 0.960 . S
C2375 C2372 1.511 . S
C2375 H2389 0.961 . S
C2375 H2390 0.961 . S
C2375 H2391 0.961 . S
C2376 C2377 1.370 . S
C2376 C2378 1.363 . S
C2376 H2392 0.931 . S
C2377 C2376 1.370 . S
C2377 C2381 1.408 . S
C2378 C2376 1.363 . S
C2378 C2379 1.370 . S
C2378 C2382 1.524 . S
C2379 C2371 1.503 . S
C2379 C2378 1.370 . S
C2379 C2380 1.403 . S
C2380 C2379 1.403 . S
C2380 C2381 1.404 . S
C2380 C2383 1.539 . S
C2381 C2377 1.408 . S
C2381 C2380 1.404 . S
C2381 H2393 0.930 . S
C2382 C2378 1.524 . S
C2382 H2394 0.956 . S
C2382 H2395 0.961 . S
C2382 H2396 0.961 . S
C2383 C2380 1.539 . S
C2383 H2397 0.958 . S
C2383 H2398 0.961 . S
C2383 H2399 0.960 . S
H2384 C2368 0.931 . S
H2385 C2373 0.929 . S
H2386 C2374 0.960 . S
H2387 C2374 0.962 . S
H2388 C2374 0.960 . S
H2389 C2375 0.961 . S
H2390 C2375 0.961 . S
H2391 C2375 0.961 . S
H2392 C2376 0.931 . S
H2393 C2381 0.930 . S
H2394 C2382 0.956 . S
H2395 C2382 0.961 . S
H2396 C2382 0.961 . S
H2397 C2383 0.958 . S
H2398 C2383 0.961 . S
H2399 C2383 0.960 . S
C2400 C2401 1.391 . S
C2400 C2402 1.394 . S
C2400 H2416 0.931 . S
C2401 C2400 1.391 . S
C2401 C2405 1.376 . S
C2402 C2400 1.394 . S
C2402 C2403 1.369 . S
C2402 C2406 1.531 . S
C2403 C2402 1.369 . S
C2403 C2404 1.410 . S
C2403 C2411 1.503 . S
C2404 C2403 1.410 . S
C2404 C2405 1.392 . S
C2404 C2407 1.511 . S
C2405 C2401 1.376 . S
C2405 C2404 1.392 . S
C2405 H2417 0.929 . S
C2406 C2402 1.531 . S
C2406 H2418 0.960 . S
C2406 H2419 0.962 . S
C2406 H2420 0.960 . S
C2407 C2404 1.511 . S
C2407 H2421 0.961 . S
C2407 H2422 0.961 . S
C2407 H2423 0.961 . S
C2408 C2409 1.370 . S
C2408 C2410 1.363 . S
C2408 H2424 0.931 . S
C2409 C2408 1.370 . S
C2409 C2413 1.408 . S
C2410 C2408 1.363 . S
C2410 C2411 1.370 . S
C2410 C2414 1.524 . S
C2411 C2403 1.503 . S
C2411 C2410 1.370 . S
C2411 C2412 1.403 . S
C2412 C2411 1.403 . S
C2412 C2413 1.404 . S
C2412 C2415 1.539 . S
C2413 C2409 1.408 . S
C2413 C2412 1.404 . S
C2413 H2425 0.930 . S
C2414 C2410 1.524 . S
C2414 H2426 0.956 . S
C2414 H2427 0.961 . S
C2414 H2428 0.961 . S
C2415 C2412 1.539 . S
C2415 H2429 0.958 . S
C2415 H2430 0.961 . S
C2415 H2431 0.960 . S
H2416 C2400 0.931 . S
H2417 C2405 0.929 . S
H2418 C2406 0.960 . S
H2419 C2406 0.962 . S
H2420 C2406 0.960 . S
H2421 C2407 0.961 . S
H2422 C2407 0.961 . S
H2423 C2407 0.961 . S
H2424 C2408 0.931 . S
H2425 C2413 0.930 . S
H2426 C2414 0.956 . S
H2427 C2414 0.961 . S
H2428 C2414 0.961 . S
H2429 C2415 0.958 . S
H2430 C2415 0.961 . S
H2431 C2415 0.960 . S
C2432 C2433 1.391 . S
C2432 C2434 1.394 . S
C2432 H2448 0.931 . S
C2433 C2432 1.391 . S
C2433 C2437 1.376 . S
C2434 C2432 1.394 . S
C2434 C2435 1.369 . S
C2434 C2438 1.531 . S
C2435 C2434 1.369 . S
C2435 C2436 1.410 . S
C2435 C2443 1.503 . S
C2436 C2435 1.410 . S
C2436 C2437 1.392 . S
C2436 C2439 1.511 . S
C2437 C2433 1.376 . S
C2437 C2436 1.392 . S
C2437 H2449 0.929 . S
C2438 C2434 1.531 . S
C2438 H2450 0.960 . S
C2438 H2451 0.962 . S
C2438 H2452 0.960 . S
C2439 C2436 1.511 . S
C2439 H2453 0.961 . S
C2439 H2454 0.961 . S
C2439 H2455 0.961 . S
C2440 C2441 1.370 . S
C2440 C2442 1.363 . S
C2440 H2456 0.931 . S
C2441 C2440 1.370 . S
C2441 C2445 1.408 . S
C2442 C2440 1.363 . S
C2442 C2443 1.370 . S
C2442 C2446 1.524 . S
C2443 C2435 1.503 . S
C2443 C2442 1.370 . S
C2443 C2444 1.403 . S
C2444 C2443 1.403 . S
C2444 C2445 1.404 . S
C2444 C2447 1.539 . S
C2445 C2441 1.408 . S
C2445 C2444 1.404 . S
C2445 H2457 0.930 . S
C2446 C2442 1.524 . S
C2446 H2458 0.956 . S
C2446 H2459 0.961 . S
C2446 H2460 0.961 . S
C2447 C2444 1.539 . S
C2447 H2461 0.958 . S
C2447 H2462 0.961 . S
C2447 H2463 0.960 . S
H2448 C2432 0.931 . S
H2449 C2437 0.929 . S
H2450 C2438 0.960 . S
H2451 C2438 0.962 . S
H2452 C2438 0.960 . S
H2453 C2439 0.961 . S
H2454 C2439 0.961 . S
H2455 C2439 0.961 . S
H2456 C2440 0.931 . S
H2457 C2445 0.930 . S
H2458 C2446 0.956 . S
H2459 C2446 0.961 . S
H2460 C2446 0.961 . S
H2461 C2447 0.958 . S
H2462 C2447 0.961 . S
H2463 C2447 0.960 . S
C2464 C2465 1.391 . S
C2464 C2466 1.394 . S
C2464 H2480 0.931 . S
C2465 C2464 1.391 . S
C2465 C2469 1.376 . S
C2466 C2464 1.394 . S
C2466 C2467 1.369 . S
C2466 C2470 1.531 . S
C2467 C2466 1.369 . S
C2467 C2468 1.410 . S
C2467 C2475 1.503 . S
C2468 C2467 1.410 . S
C2468 C2469 1.392 . S
C2468 C2471 1.511 . S
C2469 C2465 1.376 . S
C2469 C2468 1.392 . S
C2469 H2481 0.929 . S
C2470 C2466 1.531 . S
C2470 H2482 0.960 . S
C2470 H2483 0.962 . S
C2470 H2484 0.960 . S
C2471 C2468 1.511 . S
C2471 H2485 0.961 . S
C2471 H2486 0.961 . S
C2471 H2487 0.961 . S
C2472 C2473 1.370 . S
C2472 C2474 1.363 . S
C2472 H2488 0.931 . S
C2473 C2472 1.370 . S
C2473 C2477 1.408 . S
C2474 C2472 1.363 . S
C2474 C2475 1.370 . S
C2474 C2478 1.524 . S
C2475 C2467 1.503 . S
C2475 C2474 1.370 . S
C2475 C2476 1.403 . S
C2476 C2475 1.403 . S
C2476 C2477 1.404 . S
C2476 C2479 1.539 . S
C2477 C2473 1.408 . S
C2477 C2476 1.404 . S
C2477 H2489 0.930 . S
C2478 C2474 1.524 . S
C2478 H2490 0.956 . S
C2478 H2491 0.961 . S
C2478 H2492 0.961 . S
C2479 C2476 1.539 . S
C2479 H2493 0.958 . S
C2479 H2494 0.961 . S
C2479 H2495 0.960 . S
H2480 C2464 0.931 . S
H2481 C2469 0.929 . S
H2482 C2470 0.960 . S
H2483 C2470 0.962 . S
H2484 C2470 0.960 . S
H2485 C2471 0.961 . S
H2486 C2471 0.961 . S
H2487 C2471 0.961 . S
H2488 C2472 0.931 . S
H2489 C2477 0.930 . S
H2490 C2478 0.956 . S
H2491 C2478 0.961 . S
H2492 C2478 0.961 . S
H2493 C2479 0.958 . S
H2494 C2479 0.961 . S
H2495 C2479 0.960 . S
C2496 C2497 1.391 . S
C2496 C2498 1.394 . S
C2496 H2512 0.931 . S
C2497 C2496 1.391 . S
C2497 C2501 1.376 . S
C2498 C2496 1.394 . S
C2498 C2499 1.369 . S
C2498 C2502 1.531 . S
C2499 C2498 1.369 . S
C2499 C2500 1.410 . S
C2499 C2507 1.503 . S
C2500 C2499 1.410 . S
C2500 C2501 1.392 . S
C2500 C2503 1.511 1_545 S
C2501 C2497 1.376 . S
C2501 C2500 1.392 . S
C2501 H2513 0.929 1_545 S
C2502 C2498 1.531 . S
C2502 H2514 0.960 . S
C2502 H2515 0.962 . S
C2502 H2516 0.960 . S
C2503 C2500 1.511 1_565 S
C2503 H2517 0.961 . S
C2503 H2518 0.961 . S
C2503 H2519 0.961 . S
C2504 C2505 1.361 1_565 S
C2504 C2506 1.325 1_565 S
C2504 H2520 0.983 . S
C2505 C2504 1.361 1_545 S
C2505 C2509 1.408 . S
C2506 C2504 1.325 1_545 S
C2506 C2507 1.370 . S
C2506 C2510 1.524 1_545 S
C2507 C2499 1.503 . S
C2507 C2506 1.370 . S
C2507 C2508 1.403 . S
C2508 C2507 1.403 . S
C2508 C2509 1.404 . S
C2508 C2511 1.539 . S
C2509 C2505 1.408 . S
C2509 C2508 1.404 . S
C2509 H2521 0.930 . S
C2510 C2506 1.524 1_565 S
C2510 H2522 0.956 1_565 S
C2510 H2523 0.961 . S
C2510 H2524 0.961 . S
C2511 C2508 1.539 . S
C2511 H2525 0.958 . S
C2511 H2526 0.961 . S
C2511 H2527 0.960 . S
H2512 C2496 0.931 . S
H2513 C2501 0.929 1_565 S
H2514 C2502 0.960 . S
H2515 C2502 0.962 . S
H2516 C2502 0.960 . S
H2517 C2503 0.961 . S
H2518 C2503 0.961 . S
H2519 C2503 0.961 . S
H2520 C2504 0.983 . S
H2521 C2509 0.930 . S
H2522 C2510 0.956 1_545 S
H2523 C2510 0.961 . S
H2524 C2510 0.961 . S
H2525 C2511 0.958 . S
H2526 C2511 0.961 . S
H2527 C2511 0.960 . S
C2528 C2529 1.391 . S
C2528 C2530 1.394 . S
C2528 H2544 0.931 . S
C2529 C2528 1.391 . S
C2529 C2533 1.376 1_655 S
C2530 C2528 1.394 . S
C2530 C2531 1.369 . S
C2530 C2534 1.531 . S
C2531 C2530 1.369 . S
C2531 C2532 1.410 1_655 S
C2531 C2539 1.503 . S
C2532 C2531 1.410 1_455 S
C2532 C2533 1.392 . S
C2532 C2535 1.511 . S
C2533 C2529 1.376 1_455 S
C2533 C2532 1.392 . S
C2533 H2545 0.929 . S
C2534 C2530 1.531 . S
C2534 H2546 0.960 . S
C2534 H2547 0.962 . S
C2534 H2548 0.960 . S
C2535 C2532 1.511 . S
C2535 H2549 0.961 . S
C2535 H2550 0.961 . S
C2535 H2551 0.961 . S
C2536 C2537 1.370 . S
C2536 C2538 1.363 . S
C2536 H2552 0.931 . S
C2537 C2536 1.370 . S
C2537 C2541 1.408 1_655 S
C2538 C2536 1.363 . S
C2538 C2539 1.370 . S
C2538 C2542 1.524 . S
C2539 C2531 1.503 . S
C2539 C2538 1.370 . S
C2539 C2540 1.403 1_655 S
C2540 C2539 1.403 1_455 S
C2540 C2541 1.404 . S
C2540 C2543 1.539 . S
C2541 C2537 1.408 1_455 S
C2541 C2540 1.404 . S
C2541 H2553 0.930 . S
C2542 C2538 1.524 . S
C2542 H2554 0.956 . S
C2542 H2555 0.961 . S
C2542 H2556 0.961 . S
C2543 C2540 1.539 . S
C2543 H2557 0.958 . S
C2543 H2558 0.961 . S
C2543 H2559 0.960 . S
H2544 C2528 0.931 . S
H2545 C2533 0.929 . S
H2546 C2534 0.960 . S
H2547 C2534 0.962 . S
H2548 C2534 0.960 . S
H2549 C2535 0.961 . S
H2550 C2535 0.961 . S
H2551 C2535 0.961 . S
H2552 C2536 0.931 . S
H2553 C2541 0.930 . S
H2554 C2542 0.956 . S
H2555 C2542 0.961 . S
H2556 C2542 0.961 . S
H2557 C2543 0.958 . S
H2558 C2543 0.961 . S
H2559 C2543 0.960 . S
C2560 C2561 1.391 . S
C2560 C2562 1.394 . S
C2560 H2576 0.931 . S
C2561 C2560 1.391 . S
C2561 C2565 1.376 . S
C2562 C2560 1.394 . S
C2562 C2563 1.369 . S
C2562 C2566 1.531 . S
C2563 C2562 1.369 . S
C2563 C2564 1.410 . S
C2563 C2571 1.503 . S
C2564 C2563 1.410 . S
C2564 C2565 1.392 . S
C2564 C2567 1.511 . S
C2565 C2561 1.376 . S
C2565 C2564 1.392 . S
C2565 H2577 0.929 . S
C2566 C2562 1.531 . S
C2566 H2578 0.960 . S
C2566 H2579 0.962 . S
C2566 H2580 0.960 . S
C2567 C2564 1.511 . S
C2567 H2581 0.961 . S
C2567 H2582 0.961 . S
C2567 H2583 0.961 . S
C2568 C2569 1.370 . S
C2568 C2570 1.363 . S
C2568 H2584 0.931 . S
C2569 C2568 1.370 . S
C2569 C2573 1.408 . S
C2570 C2568 1.363 . S
C2570 C2571 1.370 . S
C2570 C2574 1.524 . S
C2571 C2563 1.503 . S
C2571 C2570 1.370 . S
C2571 C2572 1.403 . S
C2572 C2571 1.403 . S
C2572 C2573 1.404 . S
C2572 C2575 1.539 . S
C2573 C2569 1.408 . S
C2573 C2572 1.404 . S
C2573 H2585 0.930 . S
C2574 C2570 1.524 . S
C2574 H2586 0.956 . S
C2574 H2587 0.961 . S
C2574 H2588 0.961 . S
C2575 C2572 1.539 . S
C2575 H2589 0.958 . S
C2575 H2590 0.961 . S
C2575 H2591 0.960 . S
H2576 C2560 0.931 . S
H2577 C2565 0.929 . S
H2578 C2566 0.960 . S
H2579 C2566 0.962 . S
H2580 C2566 0.960 . S
H2581 C2567 0.961 . S
H2582 C2567 0.961 . S
H2583 C2567 0.961 . S
H2584 C2568 0.931 . S
H2585 C2573 0.930 . S
H2586 C2574 0.956 . S
H2587 C2574 0.961 . S
H2588 C2574 0.961 . S
H2589 C2575 0.958 . S
H2590 C2575 0.961 . S
H2591 C2575 0.960 . S
C2592 C2593 1.391 . S
C2592 C2594 1.394 . S
C2592 H2608 0.931 . S
C2593 C2592 1.391 . S
C2593 C2597 1.376 . S
C2594 C2592 1.394 . S
C2594 C2595 1.369 . S
C2594 C2598 1.531 . S
C2595 C2594 1.369 . S
C2595 C2596 1.410 . S
C2595 C2603 1.503 . S
C2596 C2595 1.410 . S
C2596 C2597 1.392 . S
C2596 C2599 1.511 . S
C2597 C2593 1.376 . S
C2597 C2596 1.392 . S
C2597 H2609 0.929 . S
C2598 C2594 1.531 . S
C2598 H2610 0.960 . S
C2598 H2611 0.962 . S
C2598 H2612 0.960 . S
C2599 C2596 1.511 . S
C2599 H2613 0.961 . S
C2599 H2614 0.961 . S
C2599 H2615 0.961 . S
C2600 C2601 1.370 . S
C2600 C2602 1.363 . S
C2600 H2616 0.931 . S
C2601 C2600 1.370 . S
C2601 C2605 1.408 . S
C2602 C2600 1.363 . S
C2602 C2603 1.370 . S
C2602 C2606 1.524 . S
C2603 C2595 1.503 . S
C2603 C2602 1.370 . S
C2603 C2604 1.403 . S
C2604 C2603 1.403 . S
C2604 C2605 1.404 . S
C2604 C2607 1.539 . S
C2605 C2601 1.408 . S
C2605 C2604 1.404 . S
C2605 H2617 0.930 . S
C2606 C2602 1.524 . S
C2606 H2618 0.956 . S
C2606 H2619 0.961 . S
C2606 H2620 0.961 . S
C2607 C2604 1.539 . S
C2607 H2621 0.958 . S
C2607 H2622 0.961 . S
C2607 H2623 0.960 . S
H2608 C2592 0.931 . S
H2609 C2597 0.929 . S
H2610 C2598 0.960 . S
H2611 C2598 0.962 . S
H2612 C2598 0.960 . S
H2613 C2599 0.961 . S
H2614 C2599 0.961 . S
H2615 C2599 0.961 . S
H2616 C2600 0.931 . S
H2617 C2605 0.930 . S
H2618 C2606 0.956 . S
H2619 C2606 0.961 . S
H2620 C2606 0.961 . S
H2621 C2607 0.958 . S
H2622 C2607 0.961 . S
H2623 C2607 0.960 . S
C2624 C2625 1.391 . S
C2624 C2626 1.394 . S
C2624 H2640 0.931 . S
C2625 C2624 1.391 . S
C2625 C2629 1.376 . S
C2626 C2624 1.394 . S
C2626 C2627 1.369 . S
C2626 C2630 1.531 . S
C2627 C2626 1.369 . S
C2627 C2628 1.410 . S
C2627 C2635 1.503 . S
C2628 C2627 1.410 . S
C2628 C2629 1.392 . S
C2628 C2631 1.511 . S
C2629 C2625 1.376 . S
C2629 C2628 1.392 . S
C2629 H2641 0.929 . S
C2630 C2626 1.531 . S
C2630 H2642 0.960 . S
C2630 H2643 0.962 . S
C2630 H2644 0.960 . S
C2631 C2628 1.511 . S
C2631 H2645 0.961 . S
C2631 H2646 0.961 . S
C2631 H2647 0.961 . S
C2632 C2633 1.370 . S
C2632 C2634 1.363 . S
C2632 H2648 0.931 . S
C2633 C2632 1.370 . S
C2633 C2637 1.408 . S
C2634 C2632 1.363 . S
C2634 C2635 1.370 . S
C2634 C2638 1.524 . S
C2635 C2627 1.503 . S
C2635 C2634 1.370 . S
C2635 C2636 1.403 . S
C2636 C2635 1.403 . S
C2636 C2637 1.404 . S
C2636 C2639 1.539 . S
C2637 C2633 1.408 . S
C2637 C2636 1.404 . S
C2637 H2649 0.930 . S
C2638 C2634 1.524 . S
C2638 H2650 0.956 . S
C2638 H2651 0.961 . S
C2638 H2652 0.961 . S
C2639 C2636 1.539 . S
C2639 H2653 0.958 . S
C2639 H2654 0.961 . S
C2639 H2655 0.960 . S
H2640 C2624 0.931 . S
H2641 C2629 0.929 . S
H2642 C2630 0.960 . S
H2643 C2630 0.962 . S
H2644 C2630 0.960 . S
H2645 C2631 0.961 . S
H2646 C2631 0.961 . S
H2647 C2631 0.961 . S
H2648 C2632 0.931 . S
H2649 C2637 0.930 . S
H2650 C2638 0.956 . S
H2651 C2638 0.961 . S
H2652 C2638 0.961 . S
H2653 C2639 0.958 . S
H2654 C2639 0.961 . S
H2655 C2639 0.960 . S
C2656 C2657 1.391 . S
C2656 C2658 1.394 . S
C2656 H2672 0.931 . S
C2657 C2656 1.391 . S
C2657 C2661 1.376 . S
C2658 C2656 1.394 . S
C2658 C2659 1.369 . S
C2658 C2662 1.531 . S
C2659 C2658 1.369 . S
C2659 C2660 1.410 . S
C2659 C2667 1.503 . S
C2660 C2659 1.410 . S
C2660 C2661 1.392 . S
C2660 C2663 1.511 . S
C2661 C2657 1.376 . S
C2661 C2660 1.392 . S
C2661 H2673 0.929 . S
C2662 C2658 1.531 . S
C2662 H2674 0.960 . S
C2662 H2675 0.962 . S
C2662 H2676 0.960 . S
C2663 C2660 1.511 . S
C2663 H2677 0.961 . S
C2663 H2678 0.961 . S
C2663 H2679 0.961 . S
C2664 C2665 1.370 . S
C2664 C2666 1.363 . S
C2664 H2680 0.931 . S
C2665 C2664 1.370 . S
C2665 C2669 1.408 . S
C2666 C2664 1.363 . S
C2666 C2667 1.370 . S
C2666 C2670 1.524 . S
C2667 C2659 1.503 . S
C2667 C2666 1.370 . S
C2667 C2668 1.403 . S
C2668 C2667 1.403 . S
C2668 C2669 1.404 . S
C2668 C2671 1.539 . S
C2669 C2665 1.408 . S
C2669 C2668 1.404 . S
C2669 H2681 0.930 . S
C2670 C2666 1.524 . S
C2670 H2682 0.956 . S
C2670 H2683 0.961 . S
C2670 H2684 0.961 . S
C2671 C2668 1.539 . S
C2671 H2685 0.958 . S
C2671 H2686 0.961 . S
C2671 H2687 0.960 . S
H2672 C2656 0.931 . S
H2673 C2661 0.929 . S
H2674 C2662 0.960 . S
H2675 C2662 0.962 . S
H2676 C2662 0.960 . S
H2677 C2663 0.961 . S
H2678 C2663 0.961 . S
H2679 C2663 0.961 . S
H2680 C2664 0.931 . S
H2681 C2669 0.930 . S
H2682 C2670 0.956 . S
H2683 C2670 0.961 . S
H2684 C2670 0.961 . S
H2685 C2671 0.958 . S
H2686 C2671 0.961 . S
H2687 C2671 0.960 . S
C2688 C2689 1.391 . S
C2688 C2690 1.394 . S
C2688 H2704 0.931 . S
C2689 C2688 1.391 . S
C2689 C2693 1.376 . S
C2690 C2688 1.394 . S
C2690 C2691 1.369 . S
C2690 C2694 1.531 . S
C2691 C2690 1.369 . S
C2691 C2692 1.410 . S
C2691 C2699 1.503 . S
C2692 C2691 1.410 . S
C2692 C2693 1.392 . S
C2692 C2695 1.511 . S
C2693 C2689 1.376 . S
C2693 C2692 1.392 . S
C2693 H2705 0.929 . S
C2694 C2690 1.531 . S
C2694 H2706 0.960 . S
C2694 H2707 0.962 . S
C2694 H2708 0.960 . S
C2695 C2692 1.511 . S
C2695 H2709 0.961 . S
C2695 H2710 0.961 . S
C2695 H2711 0.961 . S
C2696 C2697 1.370 . S
C2696 C2698 1.363 . S
C2696 H2712 0.931 . S
C2697 C2696 1.370 . S
C2697 C2701 1.408 . S
C2698 C2696 1.363 . S
C2698 C2699 1.370 . S
C2698 C2702 1.524 . S
C2699 C2691 1.503 . S
C2699 C2698 1.370 . S
C2699 C2700 1.403 . S
C2700 C2699 1.403 . S
C2700 C2701 1.404 . S
C2700 C2703 1.539 . S
C2701 C2697 1.408 . S
C2701 C2700 1.404 . S
C2701 H2713 0.930 . S
C2702 C2698 1.524 . S
C2702 H2714 0.956 . S
C2702 H2715 0.961 . S
C2702 H2716 0.961 . S
C2703 C2700 1.539 . S
C2703 H2717 0.958 . S
C2703 H2718 0.961 . S
C2703 H2719 0.960 . S
H2704 C2688 0.931 . S
H2705 C2693 0.929 . S
H2706 C2694 0.960 . S
H2707 C2694 0.962 . S
H2708 C2694 0.960 . S
H2709 C2695 0.961 . S
H2710 C2695 0.961 . S
H2711 C2695 0.961 . S
H2712 C2696 0.931 . S
H2713 C2701 0.930 . S
H2714 C2702 0.956 . S
H2715 C2702 0.961 . S
H2716 C2702 0.961 . S
H2717 C2703 0.958 . S
H2718 C2703 0.961 . S
H2719 C2703 0.960 . S
C2720 C2721 1.391 . S
C2720 C2722 1.394 . S
C2720 H2736 0.931 . S
C2721 C2720 1.391 . S
C2721 C2725 1.376 . S
C2722 C2720 1.394 . S
C2722 C2723 1.369 . S
C2722 C2726 1.531 . S
C2723 C2722 1.369 . S
C2723 C2724 1.410 . S
C2723 C2731 1.503 . S
C2724 C2723 1.410 . S
C2724 C2725 1.392 . S
C2724 C2727 1.511 . S
C2725 C2721 1.376 . S
C2725 C2724 1.392 . S
C2725 H2737 0.929 . S
C2726 C2722 1.531 . S
C2726 H2738 0.960 . S
C2726 H2739 0.962 . S
C2726 H2740 0.960 . S
C2727 C2724 1.511 . S
C2727 H2741 0.961 . S
C2727 H2742 0.961 . S
C2727 H2743 0.961 . S
C2728 C2729 1.370 . S
C2728 C2730 1.363 . S
C2728 H2744 0.931 . S
C2729 C2728 1.370 . S
C2729 C2733 1.408 . S
C2730 C2728 1.363 . S
C2730 C2731 1.370 . S
C2730 C2734 1.524 . S
C2731 C2723 1.503 . S
C2731 C2730 1.370 . S
C2731 C2732 1.403 . S
C2732 C2731 1.403 . S
C2732 C2733 1.404 . S
C2732 C2735 1.539 . S
C2733 C2729 1.408 . S
C2733 C2732 1.404 . S
C2733 H2745 0.930 . S
C2734 C2730 1.524 . S
C2734 H2746 0.956 . S
C2734 H2747 0.961 . S
C2734 H2748 0.961 . S
C2735 C2732 1.539 . S
C2735 H2749 0.958 . S
C2735 H2750 0.961 . S
C2735 H2751 0.960 . S
H2736 C2720 0.931 . S
H2737 C2725 0.929 . S
H2738 C2726 0.960 . S
H2739 C2726 0.962 . S
H2740 C2726 0.960 . S
H2741 C2727 0.961 . S
H2742 C2727 0.961 . S
H2743 C2727 0.961 . S
H2744 C2728 0.931 . S
H2745 C2733 0.930 . S
H2746 C2734 0.956 . S
H2747 C2734 0.961 . S
H2748 C2734 0.961 . S
H2749 C2735 0.958 . S
H2750 C2735 0.961 . S
H2751 C2735 0.960 . S
C2752 C2753 1.391 . S
C2752 C2754 1.394 . S
C2752 H2768 0.931 . S
C2753 C2752 1.391 . S
C2753 C2757 1.376 . S
C2754 C2752 1.394 . S
C2754 C2755 1.369 . S
C2754 C2758 1.531 . S
C2755 C2754 1.369 . S
C2755 C2756 1.410 . S
C2755 C2763 1.503 . S
C2756 C2755 1.410 . S
C2756 C2757 1.392 . S
C2756 C2759 1.511 . S
C2757 C2753 1.376 . S
C2757 C2756 1.392 . S
C2757 H2769 0.929 . S
C2758 C2754 1.531 . S
C2758 H2770 0.960 . S
C2758 H2771 0.962 . S
C2758 H2772 0.960 . S
C2759 C2756 1.511 . S
C2759 H2773 0.961 . S
C2759 H2774 0.961 . S
C2759 H2775 0.961 . S
C2760 C2761 1.370 . S
C2760 C2762 1.363 . S
C2760 H2776 0.931 . S
C2761 C2760 1.370 . S
C2761 C2765 1.408 . S
C2762 C2760 1.363 . S
C2762 C2763 1.370 . S
C2762 C2766 1.524 . S
C2763 C2755 1.503 . S
C2763 C2762 1.370 . S
C2763 C2764 1.403 . S
C2764 C2763 1.403 . S
C2764 C2765 1.404 . S
C2764 C2767 1.539 . S
C2765 C2761 1.408 . S
C2765 C2764 1.404 . S
C2765 H2777 0.930 . S
C2766 C2762 1.524 . S
C2766 H2778 0.956 . S
C2766 H2779 0.961 . S
C2766 H2780 0.961 . S
C2767 C2764 1.539 . S
C2767 H2781 0.958 . S
C2767 H2782 0.961 . S
C2767 H2783 0.960 . S
H2768 C2752 0.931 . S
H2769 C2757 0.929 . S
H2770 C2758 0.960 . S
H2771 C2758 0.962 . S
H2772 C2758 0.960 . S
H2773 C2759 0.961 . S
H2774 C2759 0.961 . S
H2775 C2759 0.961 . S
H2776 C2760 0.931 . S
H2777 C2765 0.930 . S
H2778 C2766 0.956 . S
H2779 C2766 0.961 . S
H2780 C2766 0.961 . S
H2781 C2767 0.958 . S
H2782 C2767 0.961 . S
H2783 C2767 0.960 . S
C2784 C2785 1.391 1_455 S
C2784 C2786 1.394 . S
C2784 H2800 0.931 . S
C2785 C2784 1.391 1_655 S
C2785 C2789 1.376 . S
C2786 C2784 1.394 . S
C2786 C2787 1.369 1_455 S
C2786 C2790 1.531 . S
C2787 C2786 1.369 1_655 S
C2787 C2788 1.410 . S
C2787 C2795 1.503 . S
C2788 C2787 1.410 . S
C2788 C2789 1.392 . S
C2788 C2791 1.511 . S
C2789 C2785 1.376 . S
C2789 C2788 1.392 . S
C2789 H2801 0.929 . S
C2790 C2786 1.531 . S
C2790 H2802 0.960 . S
C2790 H2803 0.962 . S
C2790 H2804 0.960 . S
C2791 C2788 1.511 . S
C2791 H2805 0.961 . S
C2791 H2806 0.961 . S
C2791 H2807 0.961 . S
C2792 C2793 1.370 . S
C2792 C2794 1.363 . S
C2792 H2808 0.966 . S
C2793 C2792 1.370 . S
C2793 C2797 1.408 . S
C2794 C2792 1.363 . S
C2794 C2795 1.370 . S
C2794 C2798 1.524 . S
C2795 C2787 1.503 . S
C2795 C2794 1.370 . S
C2795 C2796 1.403 . S
C2796 C2795 1.403 . S
C2796 C2797 1.404 . S
C2796 C2799 1.539 . S
C2797 C2793 1.408 . S
C2797 C2796 1.404 . S
C2797 H2809 0.930 . S
C2798 C2794 1.524 . S
C2798 H2810 0.956 1_655 S
C2798 H2811 0.961 . S
C2798 H2812 0.961 . S
C2799 C2796 1.539 . S
C2799 H2813 0.958 1_655 S
C2799 H2814 0.961 . S
C2799 H2815 0.960 . S
H2800 C2784 0.931 . S
H2801 C2789 0.929 . S
H2802 C2790 0.960 . S
H2803 C2790 0.962 . S
H2804 C2790 0.960 . S
H2805 C2791 0.961 . S
H2806 C2791 0.961 . S
H2807 C2791 0.961 . S
H2808 C2792 0.966 . S
H2809 C2797 0.930 . S
H2810 C2798 0.956 1_455 S
H2811 C2798 0.961 . S
H2812 C2798 0.961 . S
H2813 C2799 0.958 1_455 S
H2814 C2799 0.961 . S
H2815 C2799 0.960 . S
C2816 C2817 1.391 . S
C2816 C2818 1.394 . S
C2816 H2832 0.931 . S
C2817 C2816 1.391 . S
C2817 C2821 1.376 . S
C2818 C2816 1.394 . S
C2818 C2819 1.369 . S
C2818 C2822 1.531 . S
C2819 C2818 1.369 . S
C2819 C2820 1.410 . S
C2819 C2827 1.503 . S
C2820 C2819 1.410 . S
C2820 C2821 1.392 . S
C2820 C2823 1.511 . S
C2821 C2817 1.376 . S
C2821 C2820 1.392 . S
C2821 H2833 0.929 . S
C2822 C2818 1.531 . S
C2822 H2834 0.960 . S
C2822 H2835 0.962 . S
C2822 H2836 0.960 . S
C2823 C2820 1.511 . S
C2823 H2837 0.961 . S
C2823 H2838 0.961 . S
C2823 H2839 0.961 . S
C2824 C2825 1.370 . S
C2824 C2826 1.363 . S
C2824 H2840 0.931 . S
C2825 C2824 1.370 . S
C2825 C2829 1.408 . S
C2826 C2824 1.363 . S
C2826 C2827 1.370 . S
C2826 C2830 1.524 . S
C2827 C2819 1.503 . S
C2827 C2826 1.370 . S
C2827 C2828 1.403 . S
C2828 C2827 1.403 . S
C2828 C2829 1.404 . S
C2828 C2831 1.539 . S
C2829 C2825 1.408 . S
C2829 C2828 1.404 . S
C2829 H2841 0.930 . S
C2830 C2826 1.524 . S
C2830 H2842 0.956 . S
C2830 H2843 0.961 . S
C2830 H2844 0.961 . S
C2831 C2828 1.539 . S
C2831 H2845 0.958 . S
C2831 H2846 0.961 . S
C2831 H2847 0.960 . S
H2832 C2816 0.931 . S
H2833 C2821 0.929 . S
H2834 C2822 0.960 . S
H2835 C2822 0.962 . S
H2836 C2822 0.960 . S
H2837 C2823 0.961 . S
H2838 C2823 0.961 . S
H2839 C2823 0.961 . S
H2840 C2824 0.931 . S
H2841 C2829 0.930 . S
H2842 C2830 0.956 . S
H2843 C2830 0.961 . S
H2844 C2830 0.961 . S
H2845 C2831 0.958 . S
H2846 C2831 0.961 . S
H2847 C2831 0.960 . S
C2848 C2849 1.391 . S
C2848 C2850 1.394 . S
C2848 H2864 0.931 . S
C2849 C2848 1.391 . S
C2849 C2853 1.376 . S
C2850 C2848 1.394 . S
C2850 C2851 1.369 . S
C2850 C2854 1.531 . S
C2851 C2850 1.369 . S
C2851 C2852 1.405 1_545 S
C2851 C2859 1.503 . S
C2852 C2851 1.405 1_565 S
C2852 C2853 1.395 1_565 S
C2852 C2855 1.514 . S
C2853 C2849 1.376 . S
C2853 C2852 1.395 1_545 S
C2853 H2865 0.929 . S
C2854 C2850 1.531 . S
C2854 H2866 0.960 . S
C2854 H2867 0.962 . S
C2854 H2868 0.960 . S
C2855 C2852 1.514 . S
C2855 H2869 0.961 . S
C2855 H2870 0.961 . S
C2855 H2871 0.961 . S
C2856 C2857 1.359 1_545 S
C2856 C2858 1.363 . S
C2856 H2872 0.931 . S
C2857 C2856 1.359 1_565 S
C2857 C2861 1.431 . S
C2858 C2856 1.363 . S
C2858 C2859 1.370 . S
C2858 C2862 1.524 . S
C2859 C2851 1.503 . S
C2859 C2858 1.370 . S
C2859 C2860 1.403 1_545 S
C2860 C2859 1.403 1_565 S
C2860 C2861 1.404 . S
C2860 C2863 1.539 . S
C2861 C2857 1.431 . S
C2861 C2860 1.404 . S
C2861 H2873 0.930 . S
C2862 C2858 1.524 . S
C2862 H2874 0.956 . S
C2862 H2875 0.961 . S
C2862 H2876 0.961 . S
C2863 C2860 1.539 . S
C2863 H2877 0.958 . S
C2863 H2878 0.961 . S
C2863 H2879 0.960 . S
H2864 C2848 0.931 . S
H2865 C2853 0.929 . S
H2866 C2854 0.960 . S
H2867 C2854 0.962 . S
H2868 C2854 0.960 . S
H2869 C2855 0.961 . S
H2870 C2855 0.961 . S
H2871 C2855 0.961 . S
H2872 C2856 0.931 . S
H2873 C2861 0.930 . S
H2874 C2862 0.956 . S
H2875 C2862 0.961 . S
H2876 C2862 0.961 . S
H2877 C2863 0.958 . S
H2878 C2863 0.961 . S
H2879 C2863 0.960 . S
C577 C13 1.442 . S
C585 C421 1.555 . S
C609 C27 1.427 . S
C617 C446 1.448 . S
C649 C457 1.541 . S
C641 C36 1.429 . S
C673 C41 1.491 . S
C681 C482 1.522 . S
C705 C8 1.540 . S
C713 C500 1.644 . S
C737 C22 1.447 . S
C745 C511 1.538 . S
C769 C55 1.447 . S
C777 C493 1.575 1_455 S
C809 C518 1.438 . S
C801 C69 1.416 . S
C841 C475 1.542 . S
C833 C78 1.502 . S
C865 C83 1.486 . S
C873 C464 1.504 . S
C905 C428 1.646 . S
C897 C50 1.518 . S
C929 C64 1.469 . S
C937 C439 1.522 . S
C961 C97 1.521 . S
C969 C529 1.594 . S
C993 C111 1.375 . S
C1001 C554 1.479 . S
C1033 C565 1.576 . S
C1025 C120 1.476 . S
C1057 C125 1.455 . S
C1065 C266 1.558 . S
C1089 C92 1.632 . S
C1097 C284 1.679 . S
C1121 C106 1.506 . S
C1129 C295 1.540 . S
C1153 C139 1.503 . S
C1161 C277 1.556 . S
C1185 C153 1.421 . S
C1193 C302 1.455 . S
C1225 C259 1.575 . S
C1217 C162 1.485 . S
C1257 C572 1.557 . S
C1249 C167 1.513 . S
C1289 C536 1.647 . S
C1281 C134 1.603 . S
C1321 C547 1.540 . S
C1313 C148 1.506 . S
C1345 C181 1.534 . S
C1353 C313 1.565 . S
C1377 C195 1.359 . S
C1385 C338 1.476 . S
C1409 C204 1.480 . S
C1417 C349 1.578 . S
C1441 C209 1.472 . S
C1449 C374 1.576 . S
C1481 C392 1.695 . S
C1473 C176 1.634 . S
C1513 C403 1.545 . S
C1505 C190 1.494 . S
C1545 C385 1.578 . S
C1537 C223 1.510 . S
C1577 C410 1.479 . S
C1569 C237 1.364 . S
C1601 C246 1.508 . S
C1609 C367 1.548 . S
C1641 C356 1.545 . S
C1633 C251 1.420 . S
C1665 C218 1.620 . S
C1673 C320 1.658 . S
C1705 C331 1.552 . S
C1697 C232 1.471 . S
C1737 C268 1.320 . S
C1729 C11 1.395 . S
C1761 C25 1.258 . S
C1769 C286 1.211 . S
C1801 C296 1.292 . S
C1793 C35 1.366 . S
C1833 C314 1.309 . S
C1825 C39 1.383 . S
C1865 C340 1.372 . S
C1857 C7 1.460 . S
C1897 C350 1.284 . S
C1889 C21 1.366 . S
C1921 C53 1.429 . S
C1929 C358 1.363 . S
C1953 C67 1.327 . S
C1961 C322 1.217 . S
C1985 C77 1.378 1_556 S
C1993 C332 1.325 . S
C2017 C81 1.415 . S
C2025 C278 1.371 . S
C2057 C304 1.406 . S
C2049 C49 1.481 . S
C2081 C63 1.378 . S
C2089 C260 1.292 . S
C2121 C376 1.328 . S
C2113 C95 1.370 . S
C2145 C109 1.322 . S
C2153 C394 1.278 . S
C2177 C119 1.419 . S
C2185 C404 1.340 . S
C2217 C422 1.263 . S
C2209 C123 1.318 . S
C2241 C91 1.452 . S
C2249 C448 1.362 . S
C2273 C105 1.315 . S
C2281 C458 1.244 . S
C2305 C137 1.366 . S
C2313 C466 1.290 . S
C2337 C151 1.255 . S
C2345 C430 1.206 . S
C2377 C440 1.308 . S
C2369 C161 1.391 . S
C2401 C165 1.415 . S
C2409 C386 1.350 . S
C2433 C133 1.507 . S
C2441 C412 1.422 . S
C2473 C368 1.340 . S
C2465 C147 1.423 . S
C2505 C484 1.274 . S
C2497 C179 1.355 . S
C2529 C193 1.215 . S
C2537 C502 1.160 . S
C2561 C203 1.370 . S
C2569 C512 1.294 . S
C2601 C530 1.309 . S
C2593 C207 1.372 . S
C2633 C556 1.391 . S
C2625 C175 1.487 . S
C2657 C189 1.393 . S
C2665 C566 1.347 . S
C2689 C221 1.390 . S
C2697 C574 1.324 . S
C2721 C235 1.330 . S
C2729 C538 1.284 . S
C2761 C548 1.372 . S
C2753 C245 1.423 . S
C2793 C494 1.224 1_655 S
C2785 C249 1.309 . S
C2825 C520 1.378 . S
C2817 C217 1.472 . S
C2849 C231 1.344 . S
C2857 C476 1.275 . S
