# Generated by pormake.
# Topology anh, (6,3)-cn, num edge types: 1
# Building blocks:
#     Node 0, Type 0, BuildingBlock: MIFKUJ_clean_sbu_0, # of connection points: 6
#     Node 1, Type 0, BuildingBlock: MIFKUJ_clean_sbu_0, # of connection points: 6
#     Node 2, Type 0, BuildingBlock: MIFKUJ_clean_sbu_0, # of connection points: 6
#     Node 3, Type 1, BuildingBlock: INOVEN_clean_linker_0, # of connection points: 3
#     Node 4, Type 1, BuildingBlock: INOVEN_clean_linker_0, # of connection points: 3
#     Node 5, Type 1, BuildingBlock: INOVEN_clean_linker_0, # of connection points: 3
#     Node 6, Type 1, BuildingBlock: INOVEN_clean_linker_0, # of connection points: 3
#     Node 7, Type 1, BuildingBlock: INOVEN_clean_linker_0, # of connection points: 3
#     Node 8, Type 1, BuildingBlock: INOVEN_clean_linker_0, # of connection points: 3
#     Edge 9, Type (0, 1), BuildingBlock: AJUNOK_clean_linker_0, # of connection points: 2
#     Edge 10, Type (0, 1), BuildingBlock: AJUNOK_clean_linker_0, # of connection points: 2
#     Edge 11, Type (0, 1), BuildingBlock: AJUNOK_clean_linker_0, # of connection points: 2
#     Edge 12, Type (0, 1), BuildingBlock: AJUNOK_clean_linker_0, # of connection points: 2
#     Edge 13, Type (0, 1), BuildingBlock: AJUNOK_clean_linker_0, # of connection points: 2
#     Edge 14, Type (0, 1), BuildingBlock: AJUNOK_clean_linker_0, # of connection points: 2
#     Edge 15, Type (0, 1), BuildingBlock: AJUNOK_clean_linker_0, # of connection points: 2
#     Edge 16, Type (0, 1), BuildingBlock: AJUNOK_clean_linker_0, # of connection points: 2
#     Edge 17, Type (0, 1), BuildingBlock: AJUNOK_clean_linker_0, # of connection points: 2
#     Edge 18, Type (0, 1), BuildingBlock: AJUNOK_clean_linker_0, # of connection points: 2
#     Edge 19, Type (0, 1), BuildingBlock: AJUNOK_clean_linker_0, # of connection points: 2
#     Edge 20, Type (0, 1), BuildingBlock: AJUNOK_clean_linker_0, # of connection points: 2
#     Edge 21, Type (0, 1), BuildingBlock: AJUNOK_clean_linker_0, # of connection points: 2
#     Edge 22, Type (0, 1), BuildingBlock: AJUNOK_clean_linker_0, # of connection points: 2
#     Edge 23, Type (0, 1), BuildingBlock: AJUNOK_clean_linker_0, # of connection points: 2
#     Edge 24, Type (0, 1), BuildingBlock: AJUNOK_clean_linker_0, # of connection points: 2
#     Edge 25, Type (0, 1), BuildingBlock: AJUNOK_clean_linker_0, # of connection points: 2
#     Edge 26, Type (0, 1), BuildingBlock: AJUNOK_clean_linker_0, # of connection points: 2
# Relax obj value: 0.066
# Max RMSD: 0.136
# Mean RMSD: 0.097
data_MOF--net-anh--node1-MIFKUJ_clean_sbu_0--node2-INOVEN_clean_linker_0--edge1-AJUNOK_clean_linker_0
_symmetry_space_group_name_H-M    P1
_symmetry_Int_Tables_number       1
_symmetry_cell_setting            triclinic
loop_
_symmetry_equiv_pos_as_xyz
'x, y, z'
_cell_length_a     24.160102
_cell_length_b     24.176656
_cell_length_c     33.596867
_cell_angle_alpha  96.709416
_cell_angle_beta   93.156841
_cell_angle_gamma 119.83771
loop_
_atom_site_label
_atom_site_type_symbol
_atom_site_fract_x
_atom_site_fract_y
_atom_site_fract_z
_atom_type_partial_charge
Zn0 Zn 0.11761 0.62698 0.17486 0.0
Zn1 Zn 0.92538 0.50488 0.15733 0.0
C2 C 0.21765 0.60084 0.19719 0.0
O3 O 0.23839 0.65504 0.22242 0.0
C4 C 0.81701 0.51596 0.15295 0.0
O5 O 0.80683 0.47366 0.12099 0.0
O6 O 0.18866 0.71699 0.17254 0.0
O7 O 0.06113 0.59804 0.12258 0.0
O8 O 0.95628 0.53405 0.10549 0.0
C9 C 0.18696 0.75684 0.15164 0.0
O10 O 0.13209 0.7448 0.13278 0.0
O11 O 0.16341 0.57619 0.17545 0.0
C12 C 0.84122 0.37839 0.17231 0.0
O13 O 0.86325 0.40941 0.20961 0.0
O14 O 0.8639 0.4087 0.14341 0.0
O15 O -0.00305 0.52179 0.19998 0.0
O16 O 0.07192 0.62163 0.2239 0.0
O17 O 0.87042 0.54268 0.17586 0.0
C18 C 0.01188 0.57067 0.0962 0.0
C19 C 0.02105 0.57026 0.22819 0.0
Zn20 Zn 0.56166 0.1318 0.49926 0.0
Zn21 Zn 0.48706 0.93311 0.49897 0.0
C22 C 0.70613 0.21642 0.52011 0.0
O23 O 0.70628 0.19034 0.55225 0.0
C24 C 0.37593 0.81683 0.4827 0.0
O25 O 0.41449 0.81226 0.45811 0.0
O26 O 0.51865 0.18088 0.48663 0.0
O27 O 0.52475 0.0497 0.45649 0.0
O28 O 0.48485 0.94458 0.44125 0.0
C29 C 0.53926 0.21699 0.45991 0.0
O30 O 0.58093 0.21327 0.43792 0.0
O31 O 0.65432 0.19481 0.4964 0.0
C32 C 0.52533 0.85665 0.53382 0.0
O33 O 0.47929 0.85065 0.55517 0.0
O34 O 0.54334 0.89634 0.50921 0.0
O35 O 0.51867 0.01949 0.52862 0.0
O36 O 0.55087 0.11656 0.55727 0.0
O37 O 0.39642 0.86974 0.50657 0.0
C38 C 0.50183 -0.00136 0.43004 0.0
C39 C 0.52981 0.05812 0.56054 0.0
Zn40 Zn 0.61487 0.48818 0.83219 0.0
Zn41 Zn 0.49988 0.55712 0.82173 0.0
C42 C 0.57759 0.35993 0.84115 0.0
O43 O 0.59722 0.38918 0.87884 0.0
C44 C 0.53179 0.68085 0.80269 0.0
O45 O 0.48475 0.64376 0.77336 0.0
O46 O 0.70647 0.51135 0.84154 0.0
O47 O 0.61426 0.53919 0.78871 0.0
O48 O 0.51418 0.51312 0.77155 0.0
C49 C 0.73369 0.50827 0.81059 0.0
O50 O 0.70363 0.497 0.7742 0.0
O51 O 0.57516 0.39157 0.81386 0.0
C52 C 0.36438 0.50208 0.83184 0.0
O53 O 0.38001 0.483 0.86343 0.0
O54 O 0.4075 0.53366 0.81042 0.0
O55 O 0.51407 0.53656 0.87669 0.0
O56 O 0.5835 0.50232 0.88499 0.0
O57 O 0.55046 0.65513 0.827 0.0
C58 C 0.566 0.51714 0.7621 0.0
C59 C 0.5444 0.51828 0.89866 0.0
H60 H 0.48647 0.02836 0.14428 0.0
H61 H 0.38126 0.94621 0.242 0.0
H62 H 0.58257 0.08808 0.26618 0.0
N63 N 0.59995 0.11355 0.1949 0.0
N64 N 0.60846 0.13666 0.16302 0.0
C65 C 0.48488 0.02595 0.17621 0.0
C66 C 0.42746 0.98201 0.19007 0.0
C67 C 0.54048 0.06544 0.20449 0.0
C68 C 0.53865 0.05899 0.24519 0.0
C69 C 0.48176 0.01646 0.25921 0.0
C70 C 0.42593 0.9793 0.23155 0.0
H71 H 0.55592 0.50562 0.47488 0.0
H72 H 0.57607 0.41863 0.57513 0.0
H73 H 0.59633 0.6067 0.59653 0.0
N74 N 0.57033 0.61125 0.51947 0.0
N75 N 0.60015 0.66828 0.53732 0.0
C76 C 0.56732 0.50876 0.50702 0.0
C77 C 0.56621 0.45667 0.52201 0.0
C78 C 0.5802 0.5638 0.53384 0.0
C79 C 0.59106 0.56605 0.57574 0.0
C80 C 0.58768 0.51307 0.59099 0.0
C81 C 0.57769 0.45954 0.56378 0.0
H82 H 0.01374 0.49932 0.81205 0.0
H83 H 0.95632 0.58421 0.90923 0.0
H84 H 0.11275 0.55114 0.9324 0.0
N85 N 0.11678 0.51066 0.85947 0.0
N86 N 0.12999 0.50434 0.82455 0.0
C87 C 0.0218 0.52236 0.84315 0.0
C88 C 0.97871 0.54056 0.85779 0.0
C89 C 0.07236 0.52962 0.87043 0.0
C90 C 0.07758 0.55209 0.91147 0.0
C91 C 0.03591 0.57176 0.92582 0.0
C92 C 0.98944 0.56979 0.89824 0.0
H93 H 0.08952 0.5681 0.5077 0.0
H94 H 0.11552 0.64694 0.39717 0.0
H95 H 0.93708 0.47847 0.40724 0.0
N96 N 0.96777 0.47254 0.48417 0.0
N97 N 0.9082 0.44564 0.47616 0.0
C98 C 0.0706 0.56766 0.47759 0.0
C99 C 0.10961 0.61379 0.45443 0.0
C100 C 0.00742 0.51976 0.46118 0.0
C101 C 0.98447 0.51716 0.421 0.0
C102 C 0.02338 0.56299 0.39795 0.0
C103 C 0.08487 0.61208 0.4153 0.0
H104 H 0.57978 0.08128 0.84502 0.0
H105 H 0.53685 0.13175 0.73329 0.0
H106 H 0.53359 0.95308 0.73174 0.0
N107 N 0.56665 0.96701 0.81063 0.0
N108 N 0.58593 0.93363 0.79162 0.0
C109 C 0.56605 0.06962 0.81258 0.0
C110 C 0.55917 0.11356 0.79144 0.0
C111 C 0.55819 0.01187 0.7909 0.0
C112 C 0.54073 -0.00234 0.74865 0.0
C113 C 0.53171 0.03989 0.72793 0.0
C114 C 0.54128 0.09758 0.74951 0.0
H115 H 0.56492 0.56415 0.18973 0.0
H116 H 0.62803 0.53504 0.07599 0.0
H117 H 0.45409 0.5419 0.07753 0.0
N118 N 0.45867 0.56073 0.15851 0.0
N119 N 0.40119 0.53453 0.14342 0.0
C120 C 0.55832 0.55743 0.15701 0.0
C121 C 0.60283 0.55018 0.13507 0.0
C122 C 0.50395 0.55373 0.13638 0.0
C123 C 0.49537 0.54408 0.09372 0.0
C124 C 0.53994 0.53719 0.07185 0.0
C125 C 0.59346 0.54054 0.09277 0.0
C126 C 0.3276 0.61375 0.20552 0.0
C127 C 0.26222 0.57646 0.1886 0.0
C128 C 0.37329 0.59825 0.19257 0.0
C129 C 0.35505 0.54481 0.16223 0.0
H130 H 0.34441 0.65712 0.22753 0.0
H131 H 0.4234 0.6301 0.20487 0.0
S132 S 0.19015 0.42662 0.11226 0.0
N133 N 0.18138 0.4794 0.14304 0.0
N134 N 0.26778 0.45152 0.11854 0.0
C135 C 0.28985 0.5051 0.14703 0.0
C136 C 0.24322 0.52044 0.16026 0.0
C137 C 0.74954 0.32246 0.49771 0.0
C138 C 0.76185 0.27843 0.51452 0.0
C139 C 0.79921 0.37894 0.48775 0.0
C140 C 0.86316 0.39411 0.49423 0.0
H141 H 0.70073 0.3126 0.49127 0.0
H142 H 0.78734 0.41015 0.47327 0.0
S143 S 0.92238 0.29797 0.5406 0.0
N144 N 0.84343 0.25581 0.54002 0.0
N145 N 0.93774 0.36289 0.52082 0.0
C146 C 0.87731 0.35262 0.51306 0.0
C147 C 0.82621 0.29453 0.52343 0.0
C148 C 0.59843 0.78674 0.78102 0.0
C149 C 0.55866 0.75128 0.80833 0.0
C150 C 0.61221 0.84985 0.77915 0.0
C151 C 0.5859 0.87928 0.80389 0.0
H152 H 0.61593 0.76423 0.75936 0.0
H153 H 0.63968 0.8742 0.75589 0.0
S154 S 0.4832 0.80811 0.8832 0.0
N155 N 0.49719 0.75122 0.86312 0.0
N156 N 0.52217 0.86982 0.85916 0.0
C157 C 0.54944 0.84592 0.83337 0.0
C158 C 0.53591 0.78164 0.83554 0.0
C159 C 0.70182 0.47591 0.1574 0.0
C160 C 0.76493 0.52888 0.16142 0.0
C161 C 0.64862 0.48441 0.15422 0.0
C162 C 0.65673 0.54611 0.15445 0.0
H163 H 0.6934 0.42706 0.15394 0.0
H164 H 0.60085 0.44193 0.14783 0.0
S165 S 0.81183 0.70096 0.16821 0.0
N166 N 0.8328 0.64561 0.16937 0.0
N167 N 0.73226 0.66148 0.16227 0.0
C168 C 0.7195 0.59993 0.16157 0.0
C169 C 0.7739 0.59135 0.1654 0.0
C170 C 0.28683 0.70989 0.44843 0.0
C171 C 0.30941 0.76213 0.48034 0.0
C172 C 0.22289 0.65992 0.44229 0.0
C173 C 0.17869 0.65997 0.46771 0.0
H174 H 0.31805 0.70842 0.42692 0.0
H175 H 0.20711 0.62213 0.41625 0.0
S176 S 0.21461 0.78053 0.55877 0.0
N177 N 0.28388 0.80752 0.54033 0.0
N178 N 0.16246 0.71289 0.52817 0.0
C179 C 0.20102 0.70945 0.50126 0.0
C180 C 0.26668 0.76086 0.50764 0.0
C181 C 0.53356 0.24323 0.84725 0.0
C182 C 0.57474 0.29757 0.83016 0.0
C183 C 0.5317 0.18398 0.83722 0.0
C184 C 0.57245 0.17817 0.81082 0.0
H185 H 0.50121 0.24601 0.8674 0.0
H186 H 0.49632 0.14194 0.84863 0.0
S187 S 0.69713 0.30985 0.7644 0.0
N188 N 0.66186 0.34385 0.78947 0.0
N189 N 0.66049 0.23402 0.77199 0.0
C190 C 0.61709 0.23377 0.79618 0.0
C191 C 0.61767 0.29309 0.80545 0.0
C192 C 0.6093 0.82536 0.53305 0.0
C193 C 0.5442 0.80753 0.53113 0.0
C194 C 0.62742 0.77852 0.5331 0.0
C195 C 0.58087 0.71277 0.52937 0.0
H196 H 0.64634 0.87584 0.53628 0.0
H197 H 0.67806 0.79374 0.53704 0.0
S198 S 0.40369 0.64123 0.51904 0.0
N199 N 0.4329 0.71984 0.52279 0.0
N200 N 0.46686 0.63175 0.52135 0.0
C201 C 0.51543 0.69416 0.52495 0.0
C202 C 0.49713 0.74174 0.52618 0.0
C203 C 0.80206 0.47463 0.84503 0.0
C204 C 0.79409 0.50766 0.81569 0.0
C205 C 0.861 0.47877 0.85435 0.0
C206 C 0.91478 0.51809 0.83576 0.0
H207 H 0.76305 0.44709 0.8619 0.0
H208 H 0.86617 0.45567 0.87893 0.0
S209 S 0.91533 0.60434 0.75163 0.0
N210 N 0.84096 0.57169 0.76309 0.0
N211 N 0.95411 0.58301 0.78274 0.0
C212 C 0.90604 0.54654 0.80377 0.0
C213 C 0.84496 0.54064 0.79332 0.0
C214 C 0.25231 0.87656 0.15466 0.0
C215 C 0.2477 0.81586 0.14853 0.0
C216 C 0.31281 0.93362 0.16225 0.0
C217 C 0.36993 0.93128 0.16289 0.0
H218 H 0.20954 0.87985 0.15748 0.0
H219 H 0.31506 0.97916 0.17175 0.0
S220 S 0.38226 0.78454 0.13978 0.0
N221 N 0.30417 0.75692 0.13708 0.0
N222 N 0.41753 0.86411 0.15051 0.0
C223 C 0.36523 0.87122 0.15161 0.0
C224 C 0.30404 0.81334 0.14477 0.0
C225 C 0.58571 0.33347 0.45557 0.0
C226 C 0.53392 0.2754 0.46364 0.0
C227 C 0.59309 0.39332 0.47139 0.0
C228 C 0.54844 0.39635 0.49511 0.0
H229 H 0.62404 0.33329 0.44039 0.0
H230 H 0.63653 0.43722 0.46799 0.0
S231 S 0.39708 0.25878 0.51648 0.0
N232 N 0.43167 0.22476 0.49057 0.0
N233 N 0.44557 0.33758 0.51996 0.0
C234 C 0.49272 0.33885 0.49912 0.0
C235 C 0.48533 0.27809 0.48332 0.0
C236 C 0.25302 0.45979 0.84928 0.0
C237 C 0.29889 0.49238 0.82379 0.0
C238 C 0.19447 0.45845 0.84696 0.0
C239 C 0.17945 0.48974 0.81905 0.0
H240 H 0.26347 0.43773 0.87263 0.0
H241 H 0.16229 0.43601 0.8688 0.0
S242 S 0.27741 0.57257 0.74116 0.0
N243 N 0.32135 0.5497 0.76613 0.0
N244 N 0.21054 0.54683 0.76229 0.0
C245 C 0.22176 0.51711 0.79096 0.0
C246 C 0.28187 0.51887 0.79331 0.0
C247 C 0.77833 0.27151 0.19349 0.0
C248 C 0.78603 0.31144 0.16467 0.0
C249 C 0.72202 0.21178 0.19109 0.0
C250 C 0.67028 0.19 0.1601 0.0
H251 H 0.81532 0.28748 0.21896 0.0
H252 H 0.71796 0.18408 0.215 0.0
S253 S 0.6683 0.27396 0.07527 0.0
N254 N 0.73951 0.32299 0.1022 0.0
N255 N 0.63238 0.2107 0.09849 0.0
C256 C 0.67882 0.22757 0.12975 0.0
C257 C 0.73691 0.28839 0.13185 0.0
C258 C 0.96523 0.54758 0.02416 0.0
C259 C 0.01982 0.57867 0.05351 0.0
C260 C 0.97112 0.54841 0.98316 0.0
C261 C 0.03181 0.58103 0.96971 0.0
H262 H 0.9174 0.52031 0.03266 0.0
H263 H 0.92763 0.52051 0.96178 0.0
S264 S 0.18979 0.67594 0.03432 0.0
N265 N 0.13688 0.64656 0.06636 0.0
N266 N 0.14735 0.64991 0.98902 0.0
C267 C 0.08674 0.6152 -0.00128 0.0
C268 C 0.0809 0.61374 0.04065 0.0
C269 C 0.52096 0.06171 0.3733 0.0
C270 C 0.49354 0.00152 0.38642 0.0
C271 C 0.51517 0.06601 0.33229 0.0
C272 C 0.48215 0.01018 0.30261 0.0
H273 H 0.54811 0.10598 0.39478 0.0
H274 H 0.53735 0.1136 0.32375 0.0
S275 S 0.39998 0.84035 0.32078 0.0
N276 N 0.42967 0.88438 0.36628 0.0
N277 N 0.42119 0.89256 0.28906 0.0
C278 C 0.45359 0.9495 0.31521 0.0
C279 C 0.45889 0.94512 0.35709 0.0
C280 C 0.62641 0.5641 0.70517 0.0
C281 C 0.57458 0.51272 0.71901 0.0
C282 C 0.63152 0.56328 0.66371 0.0
C283 C 0.58574 0.51043 0.63487 0.0
H284 H 0.66183 0.60623 0.72639 0.0
H285 H 0.67096 0.60466 0.6541 0.0
S286 S 0.4439 0.36191 0.65641 0.0
N287 N 0.47881 0.40654 0.70134 0.0
N288 N 0.48833 0.40428 0.6235 0.0
C289 C 0.53515 0.45769 0.64867 0.0
C290 C 0.52956 0.45906 0.69074 0.0
C291 C 0.55808 0.01863 0.61875 0.0
C292 C 0.51808 0.0372 0.5999 0.0
C293 C 0.55868 0.01434 0.66002 0.0
C294 C 0.51879 0.02793 0.68324 0.0
H295 H 0.59239 0.01218 0.60233 0.0
H296 H 0.59385 0.00506 0.67434 0.0
S297 S 0.39525 0.06394 0.64495 0.0
N298 N 0.43136 0.05984 0.60528 0.0
N299 N 0.43029 0.04907 0.6825 0.0
C300 C 0.47385 0.03971 0.66341 0.0
C301 C 0.47414 0.04519 0.62174 0.0
C302 C 0.53157 0.56879 0.96428 0.0
C303 C 0.53604 0.5184 0.94198 0.0
C304 C 0.5298 0.57315 0.00622 0.0
C305 C 0.53196 0.52698 0.02707 0.0
H306 H 0.53211 0.60655 0.94953 0.0
H307 H 0.52946 0.61427 0.02266 0.0
S308 S 0.53161 0.37955 0.98155 0.0
N309 N 0.53424 0.41724 0.94312 0.0
N310 N 0.53062 0.42526 0.02176 0.0
C311 C 0.53231 0.47431 0.00473 0.0
C312 C 0.53446 0.47007 0.96222 0.0
C313 C 0.00909 0.61101 0.29682 0.0
C314 C 0.00679 0.56068 0.26984 0.0
C315 C 0.00815 0.60871 0.33828 0.0
C316 C 0.00522 0.55612 0.35413 0.0
H317 H 0.01471 0.65382 0.28604 0.0
H318 H 0.01374 0.65007 0.35843 0.0
S319 S -0.00358 0.41124 0.29615 0.0
N320 N -0.00133 0.45545 0.26166 0.0
N321 N -0.0024 0.45162 0.33968 0.0
C322 C -0.00087 0.50381 0.32722 0.0
C323 C -0.0002 0.50598 0.28498 0.0
loop_
_geom_bond_atom_site_label_1
_geom_bond_atom_site_label_2
_geom_bond_distance
_geom_bond_site_symmetry_2
_ccdc_geom_bond_type
Zn0 O6 1.969 . S
Zn0 O7 1.965 . S
Zn0 O11 2.024 . S
Zn0 O16 1.969 . S
Zn1 O8 1.969 . S
Zn1 O14 1.969 . S
Zn1 O15 1.965 . S
Zn1 O17 2.024 . S
C2 O3 1.229 . S
C2 O11 1.058 . S
O3 C2 1.229 . S
C4 O5 1.229 . S
C4 O17 1.058 . S
O5 C4 1.229 . S
O6 Zn0 1.969 . S
O6 C9 1.267 . S
O7 Zn0 1.965 . S
O7 C18 1.260 . S
O8 Zn1 1.969 . S
O8 C18 1.258 1_655 S
C9 O6 1.267 . S
C9 O10 1.228 . S
O10 C9 1.228 . S
O11 Zn0 2.024 . S
O11 C2 1.058 . S
C12 O13 1.228 . S
C12 O14 1.267 . S
O13 C12 1.228 . S
O14 Zn1 1.969 . S
O14 C12 1.267 . S
O15 Zn1 1.965 . S
O15 C19 1.260 1_655 S
O16 Zn0 1.969 . S
O16 C19 1.258 . S
O17 Zn1 2.024 . S
O17 C4 1.058 . S
C18 O7 1.260 . S
C18 O8 1.258 1_455 S
C19 O15 1.260 1_455 S
C19 O16 1.258 . S
Zn20 O26 1.969 . S
Zn20 O27 1.965 . S
Zn20 O31 2.024 . S
Zn20 O36 1.969 . S
Zn21 O28 1.969 . S
Zn21 O34 1.969 . S
Zn21 O35 1.965 1_565 S
Zn21 O37 2.024 . S
C22 O23 1.229 . S
C22 O31 1.058 . S
O23 C22 1.229 . S
C24 O25 1.229 . S
C24 O37 1.058 . S
O25 C24 1.229 . S
O26 Zn20 1.969 . S
O26 C29 1.267 . S
O27 Zn20 1.965 . S
O27 C38 1.260 . S
O28 Zn21 1.969 . S
O28 C38 1.258 1_565 S
C29 O26 1.267 . S
C29 O30 1.228 . S
O30 C29 1.228 . S
O31 Zn20 2.024 . S
O31 C22 1.058 . S
C32 O33 1.228 . S
C32 O34 1.267 . S
O33 C32 1.228 . S
O34 Zn21 1.969 . S
O34 C32 1.267 . S
O35 Zn21 1.965 1_545 S
O35 C39 1.260 . S
O36 Zn20 1.969 . S
O36 C39 1.258 . S
O37 Zn21 2.024 . S
O37 C24 1.058 . S
C38 O27 1.260 . S
C38 O28 1.258 1_545 S
C39 O35 1.260 . S
C39 O36 1.258 . S
Zn40 O46 1.969 . S
Zn40 O47 1.965 . S
Zn40 O51 2.024 . S
Zn40 O56 1.969 . S
Zn41 O48 1.969 . S
Zn41 O54 1.969 . S
Zn41 O55 1.965 . S
Zn41 O57 2.024 . S
C42 O43 1.229 . S
C42 O51 1.058 . S
O43 C42 1.229 . S
C44 O45 1.229 . S
C44 O57 1.058 . S
O45 C44 1.229 . S
O46 Zn40 1.969 . S
O46 C49 1.267 . S
O47 Zn40 1.965 . S
O47 C58 1.260 . S
O48 Zn41 1.969 . S
O48 C58 1.258 . S
C49 O46 1.267 . S
C49 O50 1.228 . S
O50 C49 1.228 . S
O51 Zn40 2.024 . S
O51 C42 1.058 . S
C52 O53 1.228 . S
C52 O54 1.267 . S
O53 C52 1.228 . S
O54 Zn41 1.969 . S
O54 C52 1.267 . S
O55 Zn41 1.965 . S
O55 C59 1.260 . S
O56 Zn40 1.969 . S
O56 C59 1.258 . S
O57 Zn41 2.024 . S
O57 C44 1.058 . S
C58 O47 1.260 . S
C58 O48 1.258 . S
C59 O55 1.260 . S
C59 O56 1.258 . S
H60 C65 0.929 . S
H61 C70 0.931 . S
H62 C68 0.930 . S
N63 N64 1.234 . S
N63 C67 1.453 . S
N64 N63 1.234 . S
C65 H60 0.929 . S
C65 C66 1.373 1_545 S
C65 C67 1.368 . S
C66 C65 1.373 1_565 S
C66 C70 1.397 . S
C67 N63 1.453 . S
C67 C65 1.368 . S
C67 C68 1.373 . S
C68 H62 0.930 . S
C68 C67 1.373 . S
C68 C69 1.371 . S
C69 C68 1.371 . S
C69 C70 1.383 1_545 S
C70 H61 0.931 . S
C70 C66 1.397 . S
C70 C69 1.383 1_565 S
H71 C76 0.929 . S
H72 C81 0.931 . S
H73 C79 0.930 . S
N74 N75 1.234 . S
N74 C78 1.453 . S
N75 N74 1.234 . S
C76 H71 0.929 . S
C76 C77 1.373 . S
C76 C78 1.368 . S
C77 C76 1.373 . S
C77 C81 1.397 . S
C78 N74 1.453 . S
C78 C76 1.368 . S
C78 C79 1.373 . S
C79 H73 0.930 . S
C79 C78 1.373 . S
C79 C80 1.371 . S
C80 C79 1.371 . S
C80 C81 1.383 . S
C81 H72 0.931 . S
C81 C77 1.397 . S
C81 C80 1.383 . S
H82 C87 0.929 . S
H83 C92 0.931 . S
H84 C90 0.930 . S
N85 N86 1.234 . S
N85 C89 1.453 . S
N86 N85 1.234 . S
C87 H82 0.929 . S
C87 C88 1.373 1_455 S
C87 C89 1.368 . S
C88 C87 1.373 1_655 S
C88 C92 1.397 . S
C89 N85 1.453 . S
C89 C87 1.368 . S
C89 C90 1.373 . S
C90 H84 0.930 . S
C90 C89 1.373 . S
C90 C91 1.371 . S
C91 C90 1.371 . S
C91 C92 1.383 1_455 S
C92 H83 0.931 . S
C92 C88 1.397 . S
C92 C91 1.383 1_655 S
H93 C98 0.929 . S
H94 C103 0.931 . S
H95 C101 0.930 1_655 S
N96 N97 1.234 . S
N96 C100 1.453 1_655 S
N97 N96 1.234 . S
C98 H93 0.929 . S
C98 C99 1.373 . S
C98 C100 1.368 . S
C99 C98 1.373 . S
C99 C103 1.397 . S
C100 N96 1.453 1_455 S
C100 C98 1.368 . S
C100 C101 1.373 . S
C101 H95 0.930 1_455 S
C101 C100 1.373 . S
C101 C102 1.371 . S
C102 C101 1.371 . S
C102 C103 1.383 . S
C103 H94 0.931 . S
C103 C99 1.397 . S
C103 C102 1.383 . S
H104 C109 0.929 . S
H105 C114 0.931 . S
H106 C112 0.930 1_565 S
N107 N108 1.234 . S
N107 C111 1.453 1_565 S
N108 N107 1.234 . S
C109 H104 0.929 . S
C109 C110 1.373 . S
C109 C111 1.368 . S
C110 C109 1.373 . S
C110 C114 1.397 . S
C111 N107 1.453 1_545 S
C111 C109 1.368 . S
C111 C112 1.373 . S
C112 H106 0.930 1_545 S
C112 C111 1.373 . S
C112 C113 1.371 . S
C113 C112 1.371 . S
C113 C114 1.383 . S
C114 H105 0.931 . S
C114 C110 1.397 . S
C114 C113 1.383 . S
H115 C120 0.929 . S
H116 C125 0.931 . S
H117 C123 0.930 . S
N118 N119 1.234 . S
N118 C122 1.453 . S
N119 N118 1.234 . S
C120 H115 0.929 . S
C120 C121 1.373 . S
C120 C122 1.368 . S
C121 C120 1.373 . S
C121 C125 1.397 . S
C122 N118 1.453 . S
C122 C120 1.368 . S
C122 C123 1.373 . S
C123 H117 0.930 . S
C123 C122 1.373 . S
C123 C124 1.371 . S
C124 C123 1.371 . S
C124 C125 1.383 . S
C125 H116 0.931 . S
C125 C121 1.397 . S
C125 C124 1.383 . S
C126 C127 1.369 . S
C126 C128 1.419 . S
C126 H130 0.930 . S
C127 C126 1.369 . S
C127 C136 1.429 . S
C128 C126 1.419 . S
C128 C129 1.363 . S
C128 H131 0.929 . S
C129 C128 1.363 . S
C129 C135 1.428 . S
H130 C126 0.930 . S
H131 C128 0.929 . S
S132 N133 1.613 . S
S132 N134 1.610 . S
N133 S132 1.613 . S
N133 C136 1.350 . S
N134 S132 1.610 . S
N134 C135 1.351 . S
C135 C129 1.428 . S
C135 N134 1.351 . S
C135 C136 1.434 . S
C136 C127 1.429 . S
C136 N133 1.350 . S
C136 C135 1.434 . S
C137 C138 1.369 . S
C137 C139 1.419 . S
C137 H141 0.930 . S
C138 C137 1.369 . S
C138 C147 1.429 . S
C139 C137 1.419 . S
C139 C140 1.363 . S
C139 H142 0.929 . S
C140 C139 1.363 . S
C140 C146 1.428 . S
H141 C137 0.930 . S
H142 C139 0.929 . S
S143 N144 1.613 . S
S143 N145 1.610 . S
N144 S143 1.613 . S
N144 C147 1.350 . S
N145 S143 1.610 . S
N145 C146 1.351 . S
C146 C140 1.428 . S
C146 N145 1.351 . S
C146 C147 1.434 . S
C147 C138 1.429 . S
C147 N144 1.350 . S
C147 C146 1.434 . S
C148 C149 1.369 . S
C148 C150 1.419 . S
C148 H152 0.930 . S
C149 C148 1.369 . S
C149 C158 1.429 . S
C150 C148 1.419 . S
C150 C151 1.363 . S
C150 H153 0.929 . S
C151 C150 1.363 . S
C151 C157 1.428 . S
H152 C148 0.930 . S
H153 C150 0.929 . S
S154 N155 1.613 . S
S154 N156 1.610 . S
N155 S154 1.613 . S
N155 C158 1.350 . S
N156 S154 1.610 . S
N156 C157 1.351 . S
C157 C151 1.428 . S
C157 N156 1.351 . S
C157 C158 1.434 . S
C158 C149 1.429 . S
C158 N155 1.350 . S
C158 C157 1.434 . S
C159 C160 1.369 . S
C159 C161 1.419 . S
C159 H163 0.930 . S
C160 C159 1.369 . S
C160 C169 1.429 . S
C161 C159 1.419 . S
C161 C162 1.363 . S
C161 H164 0.929 . S
C162 C161 1.363 . S
C162 C168 1.428 . S
H163 C159 0.930 . S
H164 C161 0.929 . S
S165 N166 1.613 . S
S165 N167 1.610 . S
N166 S165 1.613 . S
N166 C169 1.350 . S
N167 S165 1.610 . S
N167 C168 1.351 . S
C168 C162 1.428 . S
C168 N167 1.351 . S
C168 C169 1.434 . S
C169 C160 1.429 . S
C169 N166 1.350 . S
C169 C168 1.434 . S
C170 C171 1.369 . S
C170 C172 1.419 . S
C170 H174 0.930 . S
C171 C170 1.369 . S
C171 C180 1.429 . S
C172 C170 1.419 . S
C172 C173 1.363 . S
C172 H175 0.929 . S
C173 C172 1.363 . S
C173 C179 1.428 . S
H174 C170 0.930 . S
H175 C172 0.929 . S
S176 N177 1.613 . S
S176 N178 1.610 . S
N177 S176 1.613 . S
N177 C180 1.350 . S
N178 S176 1.610 . S
N178 C179 1.351 . S
C179 C173 1.428 . S
C179 N178 1.351 . S
C179 C180 1.434 . S
C180 C171 1.429 . S
C180 N177 1.350 . S
C180 C179 1.434 . S
C181 C182 1.369 . S
C181 C183 1.419 . S
C181 H185 0.930 . S
C182 C181 1.369 . S
C182 C191 1.429 . S
C183 C181 1.419 . S
C183 C184 1.363 . S
C183 H186 0.929 . S
C184 C183 1.363 . S
C184 C190 1.428 . S
H185 C181 0.930 . S
H186 C183 0.929 . S
S187 N188 1.613 . S
S187 N189 1.610 . S
N188 S187 1.613 . S
N188 C191 1.350 . S
N189 S187 1.610 . S
N189 C190 1.351 . S
C190 C184 1.428 . S
C190 N189 1.351 . S
C190 C191 1.434 . S
C191 C182 1.429 . S
C191 N188 1.350 . S
C191 C190 1.434 . S
C192 C193 1.369 . S
C192 C194 1.419 . S
C192 H196 0.930 . S
C193 C192 1.369 . S
C193 C202 1.429 . S
C194 C192 1.419 . S
C194 C195 1.363 . S
C194 H197 0.929 . S
C195 C194 1.363 . S
C195 C201 1.428 . S
H196 C192 0.930 . S
H197 C194 0.929 . S
S198 N199 1.613 . S
S198 N200 1.610 . S
N199 S198 1.613 . S
N199 C202 1.350 . S
N200 S198 1.610 . S
N200 C201 1.351 . S
C201 C195 1.428 . S
C201 N200 1.351 . S
C201 C202 1.434 . S
C202 C193 1.429 . S
C202 N199 1.350 . S
C202 C201 1.434 . S
C203 C204 1.369 . S
C203 C205 1.419 . S
C203 H207 0.930 . S
C204 C203 1.369 . S
C204 C213 1.429 . S
C205 C203 1.419 . S
C205 C206 1.363 . S
C205 H208 0.929 . S
C206 C205 1.363 . S
C206 C212 1.428 . S
H207 C203 0.930 . S
H208 C205 0.929 . S
S209 N210 1.613 . S
S209 N211 1.610 . S
N210 S209 1.613 . S
N210 C213 1.350 . S
N211 S209 1.610 . S
N211 C212 1.351 . S
C212 C206 1.428 . S
C212 N211 1.351 . S
C212 C213 1.434 . S
C213 C204 1.429 . S
C213 N210 1.350 . S
C213 C212 1.434 . S
C214 C215 1.369 . S
C214 C216 1.419 . S
C214 H218 0.930 . S
C215 C214 1.369 . S
C215 C224 1.429 . S
C216 C214 1.419 . S
C216 C217 1.363 . S
C216 H219 0.929 . S
C217 C216 1.363 . S
C217 C223 1.428 . S
H218 C214 0.930 . S
H219 C216 0.929 . S
S220 N221 1.613 . S
S220 N222 1.610 . S
N221 S220 1.613 . S
N221 C224 1.350 . S
N222 S220 1.610 . S
N222 C223 1.351 . S
C223 C217 1.428 . S
C223 N222 1.351 . S
C223 C224 1.434 . S
C224 C215 1.429 . S
C224 N221 1.350 . S
C224 C223 1.434 . S
C225 C226 1.369 . S
C225 C227 1.419 . S
C225 H229 0.930 . S
C226 C225 1.369 . S
C226 C235 1.429 . S
C227 C225 1.419 . S
C227 C228 1.363 . S
C227 H230 0.929 . S
C228 C227 1.363 . S
C228 C234 1.428 . S
H229 C225 0.930 . S
H230 C227 0.929 . S
S231 N232 1.613 . S
S231 N233 1.610 . S
N232 S231 1.613 . S
N232 C235 1.350 . S
N233 S231 1.610 . S
N233 C234 1.351 . S
C234 C228 1.428 . S
C234 N233 1.351 . S
C234 C235 1.434 . S
C235 C226 1.429 . S
C235 N232 1.350 . S
C235 C234 1.434 . S
C236 C237 1.369 . S
C236 C238 1.419 . S
C236 H240 0.930 . S
C237 C236 1.369 . S
C237 C246 1.429 . S
C238 C236 1.419 . S
C238 C239 1.363 . S
C238 H241 0.929 . S
C239 C238 1.363 . S
C239 C245 1.428 . S
H240 C236 0.930 . S
H241 C238 0.929 . S
S242 N243 1.613 . S
S242 N244 1.610 . S
N243 S242 1.613 . S
N243 C246 1.350 . S
N244 S242 1.610 . S
N244 C245 1.351 . S
C245 C239 1.428 . S
C245 N244 1.351 . S
C245 C246 1.434 . S
C246 C237 1.429 . S
C246 N243 1.350 . S
C246 C245 1.434 . S
C247 C248 1.369 . S
C247 C249 1.419 . S
C247 H251 0.930 . S
C248 C247 1.369 . S
C248 C257 1.429 . S
C249 C247 1.419 . S
C249 C250 1.363 . S
C249 H252 0.929 . S
C250 C249 1.363 . S
C250 C256 1.428 . S
H251 C247 0.930 . S
H252 C249 0.929 . S
S253 N254 1.613 . S
S253 N255 1.610 . S
N254 S253 1.613 . S
N254 C257 1.350 . S
N255 S253 1.610 . S
N255 C256 1.351 . S
C256 C250 1.428 . S
C256 N255 1.351 . S
C256 C257 1.434 . S
C257 C248 1.429 . S
C257 N254 1.350 . S
C257 C256 1.434 . S
C258 C259 1.369 1_655 S
C258 C260 1.419 1_554 S
C258 H262 0.930 . S
C259 C258 1.369 1_455 S
C259 C268 1.429 . S
C260 C258 1.419 1_556 S
C260 C261 1.363 1_655 S
C260 H263 0.929 . S
C261 C260 1.363 1_455 S
C261 C267 1.428 1_556 S
H262 C258 0.930 . S
H263 C260 0.929 . S
S264 N265 1.613 . S
S264 N266 1.610 1_554 S
N265 S264 1.613 . S
N265 C268 1.350 . S
N266 S264 1.610 1_556 S
N266 C267 1.351 1_556 S
C267 C261 1.428 1_554 S
C267 N266 1.351 1_554 S
C267 C268 1.434 . S
C268 C259 1.429 . S
C268 N265 1.350 . S
C268 C267 1.434 . S
C269 C270 1.369 . S
C269 C271 1.419 . S
C269 H273 0.930 . S
C270 C269 1.369 . S
C270 C279 1.429 1_545 S
C271 C269 1.419 . S
C271 C272 1.363 . S
C271 H274 0.929 . S
C272 C271 1.363 . S
C272 C278 1.428 1_545 S
H273 C269 0.930 . S
H274 C271 0.929 . S
S275 N276 1.613 . S
S275 N277 1.610 . S
N276 S275 1.613 . S
N276 C279 1.350 . S
N277 S275 1.610 . S
N277 C278 1.351 . S
C278 C272 1.428 1_565 S
C278 N277 1.351 . S
C278 C279 1.434 . S
C279 C270 1.429 1_565 S
C279 N276 1.350 . S
C279 C278 1.434 . S
C280 C281 1.369 . S
C280 C282 1.419 . S
C280 H284 0.930 . S
C281 C280 1.369 . S
C281 C290 1.429 . S
C282 C280 1.419 . S
C282 C283 1.363 . S
C282 H285 0.929 . S
C283 C282 1.363 . S
C283 C289 1.428 . S
H284 C280 0.930 . S
H285 C282 0.929 . S
S286 N287 1.613 . S
S286 N288 1.610 . S
N287 S286 1.613 . S
N287 C290 1.350 . S
N288 S286 1.610 . S
N288 C289 1.351 . S
C289 C283 1.428 . S
C289 N288 1.351 . S
C289 C290 1.434 . S
C290 C281 1.429 . S
C290 N287 1.350 . S
C290 C289 1.434 . S
C291 C292 1.369 . S
C291 C293 1.419 . S
C291 H295 0.930 . S
C292 C291 1.369 . S
C292 C301 1.429 . S
C293 C291 1.419 . S
C293 C294 1.363 . S
C293 H296 0.929 . S
C294 C293 1.363 . S
C294 C300 1.428 . S
H295 C291 0.930 . S
H296 C293 0.929 . S
S297 N298 1.613 . S
S297 N299 1.610 . S
N298 S297 1.613 . S
N298 C301 1.350 . S
N299 S297 1.610 . S
N299 C300 1.351 . S
C300 C294 1.428 . S
C300 N299 1.351 . S
C300 C301 1.434 . S
C301 C292 1.429 . S
C301 N298 1.350 . S
C301 C300 1.434 . S
C302 C303 1.369 . S
C302 C304 1.419 1_556 S
C302 H306 0.930 . S
C303 C302 1.369 . S
C303 C312 1.429 . S
C304 C302 1.419 1_554 S
C304 C305 1.363 . S
C304 H307 0.929 . S
C305 C304 1.363 . S
C305 C311 1.429 1_554 S
H306 C302 0.930 . S
H307 C304 0.929 . S
S308 N309 1.613 . S
S308 N310 1.610 1_556 S
N309 S308 1.613 . S
N309 C312 1.350 . S
N310 S308 1.610 1_554 S
N310 C311 1.351 1_554 S
C311 C305 1.429 1_556 S
C311 N310 1.351 1_556 S
C311 C312 1.433 . S
C312 C303 1.429 . S
C312 N309 1.350 . S
C312 C311 1.433 . S
C313 C314 1.369 . S
C313 C315 1.419 . S
C313 H317 0.930 1_455 S
C314 C313 1.369 . S
C314 C323 1.429 . S
C315 C313 1.419 . S
C315 C316 1.363 . S
C315 H318 0.929 1_455 S
C316 C315 1.363 . S
C316 C322 1.428 . S
H317 C313 0.930 1_655 S
H318 C315 0.929 1_655 S
S319 N320 1.613 . S
S319 N321 1.610 . S
N320 S319 1.613 . S
N320 C323 1.350 . S
N321 S319 1.610 . S
N321 C322 1.351 . S
C322 C316 1.428 . S
C322 N321 1.351 . S
C322 C323 1.434 . S
C323 C314 1.429 . S
C323 N320 1.350 . S
C323 C322 1.434 . S
C127 C2 1.499 . S
C129 N119 1.541 . S
C138 C22 1.496 . S
C140 N97 1.554 . S
C149 C44 1.490 . S
C151 N108 1.547 . S
C160 C4 1.454 . S
C162 C121 1.555 . S
C173 C99 1.551 . S
C171 C24 1.460 . S
C184 C110 1.534 . S
C182 C42 1.434 . S
C193 C32 1.416 . S
C195 N75 1.382 . S
C204 C49 1.227 . S
C206 C88 1.256 . S
C215 C9 1.204 . S
C217 C66 1.244 . S
C228 C77 1.284 . S
C226 C29 1.221 . S
C239 N86 1.348 . S
C237 C52 1.320 . S
C248 C12 1.331 . S
C250 N64 1.347 . S
C261 C91 1.485 . S
C259 C18 1.493 . S
C270 C38 1.467 . S
C272 C69 1.463 . S
C281 C58 1.460 . S
C283 C80 1.486 . S
C294 C113 1.517 . S
C292 C39 1.505 . S
C305 C124 1.522 . S
C303 C59 1.512 . S
C314 C19 1.500 . S
C316 C102 1.534 . S
