# Generated by pormake.
# Topology ssa, (4,4)-cn, num edge types: 1
# Building blocks:
#     Node 0, Type 0, BuildingBlock: NAWXER_clean_sbu_0, # of connection points: 4
#     Node 1, Type 0, BuildingBlock: NAWXER_clean_sbu_0, # of connection points: 4
#     Node 2, Type 0, BuildingBlock: NAWXER_clean_sbu_0, # of connection points: 4
#     Node 3, Type 0, BuildingBlock: NAWXER_clean_sbu_0, # of connection points: 4
#     Node 4, Type 0, BuildingBlock: NAWXER_clean_sbu_0, # of connection points: 4
#     Node 5, Type 0, BuildingBlock: NAWXER_clean_sbu_0, # of connection points: 4
#     Node 6, Type 1, BuildingBlock: NAWXER_clean_linker_0, # of connection points: 4
#     Node 7, Type 1, BuildingBlock: NAWXER_clean_linker_0, # of connection points: 4
#     Node 8, Type 1, BuildingBlock: NAWXER_clean_linker_0, # of connection points: 4
#     Node 9, Type 1, BuildingBlock: NAWXER_clean_linker_0, # of connection points: 4
#     Node 10, Type 1, BuildingBlock: NAWXER_clean_linker_0, # of connection points: 4
#     Node 11, Type 1, BuildingBlock: NAWXER_clean_linker_0, # of connection points: 4
#     Edge 12, Type (0, 1), BuildingBlock: OJICUG_clean_linker_0, # of connection points: 2
#     Edge 13, Type (0, 1), BuildingBlock: OJICUG_clean_linker_0, # of connection points: 2
#     Edge 14, Type (0, 1), BuildingBlock: OJICUG_clean_linker_0, # of connection points: 2
#     Edge 15, Type (0, 1), BuildingBlock: OJICUG_clean_linker_0, # of connection points: 2
#     Edge 16, Type (0, 1), BuildingBlock: OJICUG_clean_linker_0, # of connection points: 2
#     Edge 17, Type (0, 1), BuildingBlock: OJICUG_clean_linker_0, # of connection points: 2
#     Edge 18, Type (0, 1), BuildingBlock: OJICUG_clean_linker_0, # of connection points: 2
#     Edge 19, Type (0, 1), BuildingBlock: OJICUG_clean_linker_0, # of connection points: 2
#     Edge 20, Type (0, 1), BuildingBlock: OJICUG_clean_linker_0, # of connection points: 2
#     Edge 21, Type (0, 1), BuildingBlock: OJICUG_clean_linker_0, # of connection points: 2
#     Edge 22, Type (0, 1), BuildingBlock: OJICUG_clean_linker_0, # of connection points: 2
#     Edge 23, Type (0, 1), BuildingBlock: OJICUG_clean_linker_0, # of connection points: 2
#     Edge 24, Type (0, 1), BuildingBlock: OJICUG_clean_linker_0, # of connection points: 2
#     Edge 25, Type (0, 1), BuildingBlock: OJICUG_clean_linker_0, # of connection points: 2
#     Edge 26, Type (0, 1), BuildingBlock: OJICUG_clean_linker_0, # of connection points: 2
#     Edge 27, Type (0, 1), BuildingBlock: OJICUG_clean_linker_0, # of connection points: 2
#     Edge 28, Type (0, 1), BuildingBlock: OJICUG_clean_linker_0, # of connection points: 2
#     Edge 29, Type (0, 1), BuildingBlock: OJICUG_clean_linker_0, # of connection points: 2
#     Edge 30, Type (0, 1), BuildingBlock: OJICUG_clean_linker_0, # of connection points: 2
#     Edge 31, Type (0, 1), BuildingBlock: OJICUG_clean_linker_0, # of connection points: 2
#     Edge 32, Type (0, 1), BuildingBlock: OJICUG_clean_linker_0, # of connection points: 2
#     Edge 33, Type (0, 1), BuildingBlock: OJICUG_clean_linker_0, # of connection points: 2
#     Edge 34, Type (0, 1), BuildingBlock: OJICUG_clean_linker_0, # of connection points: 2
#     Edge 35, Type (0, 1), BuildingBlock: OJICUG_clean_linker_0, # of connection points: 2
# Relax obj value: 0.014
# Max RMSD: 0.030
# Mean RMSD: 0.028
data_MOF--net-ssa--node1-NAWXER_clean_sbu_0--node2-NAWXER_clean_linker_0--edge1-OJICUG_clean_linker_0
_symmetry_space_group_name_H-M    P1
_symmetry_Int_Tables_number       1
_symmetry_cell_setting            triclinic
loop_
_symmetry_equiv_pos_as_xyz
'x, y, z'
_cell_length_a     44.402841
_cell_length_b     44.420653
_cell_length_c     30.663741
_cell_angle_alpha  89.757006
_cell_angle_beta   89.980618
_cell_angle_gamma 119.99486
loop_
_atom_site_label
_atom_site_type_symbol
_atom_site_fract_x
_atom_site_fract_y
_atom_site_fract_z
_atom_type_partial_charge
C0 C 0.03802 0.5434 0.00757 0.0
C1 C 0.97576 0.43652 0.92378 0.0
O2 O 0.00968 0.52028 0.02547 0.0
Zn3 Zn 0.96831 0.4687 0.01371 0.0
O4 O 0.04735 0.53726 0.97096 0.0
Zn5 Zn 0.00819 0.49065 0.96478 0.0
O6 O 0.96677 0.50154 0.95657 0.0
O7 O 0.92809 0.47513 0.00898 0.0
O8 O 0.00405 0.46362 0.91329 0.0
O9 O 0.96092 0.43556 0.96002 0.0
O10 O 0.97384 0.44482 0.06361 0.0
O11 O 0.01789 0.4645 0.01737 0.0
C12 C 0.93803 0.49429 0.97504 0.0
C13 C 0.0034 0.44889 0.05315 0.0
C14 C 0.44847 0.00381 0.55678 0.0
C15 C 0.48927 0.93774 0.47155 0.0
O16 O 0.44453 0.97414 0.56633 0.0
Zn17 Zn 0.46692 0.96885 0.51476 0.0
O18 O 0.46331 0.01862 0.52079 0.0
Zn19 Zn 0.48788 0.00939 0.46631 0.0
O20 O 0.45996 0.0072 0.41682 0.0
O21 O 0.4325 0.96299 0.4625 0.0
O22 O 0.49571 0.96657 0.45395 0.0
O23 O 0.47313 0.92857 0.50782 0.0
O24 O 0.51885 0.00918 0.52521 0.0
O25 O 0.53536 0.04749 0.47151 0.0
C26 C 0.43288 0.97885 0.42727 0.0
C27 C 0.54203 0.03742 0.50728 0.0
C28 C 0.4864 0.43241 0.00225 0.0
C29 C 0.52837 0.54135 0.08182 0.0
O30 O 0.47608 0.45216 0.98566 0.0
Zn31 Zn 0.48113 0.5015 0.99804 0.0
O32 O 0.50409 0.44131 0.03721 0.0
Zn33 Zn 0.50598 0.48551 0.04584 0.0
O34 O 0.45465 0.47353 0.06242 0.0
O35 O 0.43379 0.49128 0.00918 0.0
O36 O 0.53233 0.516 0.09358 0.0
O37 O 0.51009 0.5385 0.04806 0.0
O38 O 0.50687 0.5273 0.94614 0.0
O39 O 0.53745 0.51487 0.9923 0.0
C40 C 0.43001 0.47724 0.04654 0.0
C41 C 0.5355 0.52931 0.95705 0.0
C42 C 0.00607 0.5802 0.42857 0.0
C43 C 0.93804 0.46924 0.5065 0.0
O44 O 0.01984 0.5783 0.46449 0.0
Zn45 Zn 0.00898 0.54224 0.5169 0.0
O46 O 0.97641 0.55522 0.41766 0.0
Zn47 Zn 0.96945 0.52501 0.46765 0.0
O48 O 0.96199 0.55058 0.52168 0.0
O49 O 0.00475 0.56509 0.5685 0.0
O50 O 0.92846 0.47868 0.47246 0.0
O51 O 0.96682 0.49038 0.52492 0.0
O52 O 0.04734 0.53347 0.51105 0.0
O53 O 0.00978 0.51294 0.45671 0.0
C54 C 0.97657 0.56409 0.55808 0.0
C55 C 0.03766 0.51737 0.47495 0.0
C56 C 0.57314 0.98166 0.0633 0.0
C57 C 0.5207 0.03942 0.98402 0.0
O58 O 0.57432 0.0099 0.07378 0.0
Zn59 Zn 0.54869 0.01252 0.02418 0.0
O60 O 0.55809 0.9663 0.02782 0.0
Zn61 Zn 0.52984 0.97245 0.97532 0.0
O62 O 0.55851 0.97958 0.92358 0.0
O63 O 0.58277 0.02325 0.96981 0.0
O64 O 0.51644 0.01168 0.96583 0.0
O65 O 0.53799 0.04979 0.01927 0.0
O66 O 0.49852 0.96894 0.03641 0.0
O67 O 0.48356 0.93137 0.98256 0.0
C68 C 0.58366 0.00941 0.93357 0.0
C69 C 0.47646 0.94006 0.01903 0.0
C70 C 0.5359 0.52265 0.58798 0.0
C71 C 0.43254 0.48109 0.49579 0.0
O72 O 0.51063 0.5279 0.5952 0.0
Zn73 Zn 0.4832 0.50163 0.54509 0.0
O74 O 0.53566 0.50533 0.55454 0.0
Zn75 Zn 0.50355 0.47918 0.4995 0.0
O76 O 0.53266 0.50752 0.45091 0.0
O77 O 0.51495 0.5351 0.49458 0.0
O78 O 0.45481 0.47323 0.48153 0.0
O79 O 0.43789 0.49666 0.53212 0.0
O80 O 0.47301 0.45072 0.56157 0.0
O81 O 0.49393 0.43186 0.50979 0.0
C82 C 0.53225 0.53505 0.46125 0.0
C83 C 0.4786 0.42711 0.54639 0.0
C84 C 0.32674 0.47851 0.19532 0.0
C85 C 0.31714 0.45539 0.16018 0.0
C86 C 0.30162 0.4771 0.22393 0.0
C87 C 0.2664 0.45171 0.21896 0.0
C88 C 0.28196 0.43058 0.1543 0.0
C89 C 0.25683 0.42867 0.18356 0.0
C90 C 0.23912 0.4514 0.24737 0.0
C91 C 0.30751 0.43826 0.3479 0.0
C92 C 0.32348 0.46568 0.37807 0.0
C93 C 0.28247 0.4366 0.3187 0.0
C94 C 0.27294 0.46234 0.31905 0.0
C95 C 0.3142 0.49166 0.37768 0.0
C96 C 0.28907 0.48984 0.34877 0.0
C97 C 0.24358 0.45903 0.29249 0.0
C98 C 0.10898 0.44576 0.35312 0.0
C99 C 0.12263 0.47667 0.37741 0.0
C100 C 0.13047 0.43969 0.32557 0.0
C101 C 0.16585 0.46458 0.32169 0.0
C102 C 0.1582 0.50118 0.37383 0.0
C103 C 0.17959 0.49509 0.34644 0.0
C104 C 0.18966 0.45864 0.29433 0.0
C105 C 0.11399 0.46519 0.20194 0.0
C106 C 0.09792 0.43777 0.17202 0.0
C107 C 0.14187 0.46913 0.22739 0.0
C108 C 0.15363 0.44508 0.22448 0.0
C109 C 0.10993 0.41399 0.16868 0.0
C110 C 0.13743 0.41758 0.19469 0.0
C111 C 0.18423 0.44957 0.24973 0.0
H112 H 0.35367 0.49833 0.19997 0.0
H113 H 0.30981 0.49661 0.24911 0.0
H114 H 0.27398 0.41254 0.12733 0.0
H115 H 0.22983 0.40928 0.17834 0.0
H116 H 0.31365 0.41754 0.34759 0.0
H117 H 0.26977 0.41465 0.29686 0.0
H118 H 0.3264 0.51353 0.39968 0.0
H119 H 0.28201 0.50992 0.34982 0.0
H120 H 0.08174 0.42617 0.35564 0.0
H121 H 0.11957 0.41555 0.30764 0.0
H122 H 0.16943 0.52547 0.39148 0.0
H123 H 0.20692 0.5145 0.34416 0.0
H124 H 0.10586 0.48442 0.20442 0.0
H125 H 0.15476 0.49155 0.24843 0.0
H126 H 0.09814 0.3927 0.14576 0.0
H127 H 0.14622 0.39892 0.19131 0.0
N128 N 0.20933 0.44645 0.22809 0.0
N129 N 0.21889 0.46275 0.31372 0.0
C130 C 0.89557 0.31937 0.76612 0.0
C131 C 0.88642 0.32816 0.80603 0.0
C132 C 0.86998 0.29383 0.73952 0.0
C133 C 0.83483 0.27698 0.75225 0.0
C134 C 0.85115 0.31159 0.81815 0.0
C135 C 0.82573 0.28618 0.79172 0.0
C136 C 0.80743 0.2481 0.72667 0.0
C137 C 0.84001 0.34063 0.63643 0.0
C138 C 0.85927 0.34018 0.60036 0.0
C139 C 0.82297 0.3115 0.66367 0.0
C140 C 0.82454 0.28132 0.65488 0.0
C141 C 0.86109 0.31008 0.59184 0.0
C142 C 0.84338 0.28067 0.61852 0.0
C143 C 0.80387 0.2495 0.68115 0.0
C144 C 0.66116 0.13325 0.6471 0.0
C145 C 0.66626 0.12307 0.60574 0.0
C146 C 0.68954 0.15529 0.67279 0.0
C147 C 0.72355 0.16672 0.65811 0.0
C148 C 0.70019 0.13495 0.59061 0.0
C149 C 0.72863 0.15659 0.61668 0.0
C150 C 0.75379 0.19271 0.68305 0.0
C151 C 0.69785 0.09961 0.77365 0.0
C152 C 0.68686 0.10695 0.81328 0.0
C153 C 0.72079 0.12668 0.7459 0.0
C154 C 0.73272 0.16159 0.75694 0.0
C155 C 0.69904 0.14191 0.82413 0.0
C156 C 0.72174 0.16878 0.79649 0.0
C157 C 0.7573 0.19115 0.72877 0.0
H158 H 0.92254 0.33151 0.75606 0.0
H159 H 0.8778 0.2866 0.70973 0.0
H160 H 0.84309 0.31829 0.84819 0.0
H161 H 0.79882 0.27361 0.80223 0.0
H162 H 0.8385 0.36367 0.64381 0.0
H163 H 0.80799 0.31227 0.69109 0.0
H164 H 0.87583 0.30919 0.5642 0.0
H165 H 0.84446 0.25743 0.61088 0.0
H166 H 0.63518 0.1249 0.65906 0.0
H167 H 0.68482 0.1641 0.70355 0.0
H168 H 0.70467 0.12738 0.5588 0.0
H169 H 0.75467 0.16573 0.60429 0.0
H170 H 0.68922 0.073 0.76449 0.0
H171 H 0.72944 0.12033 0.7161 0.0
H172 H 0.69067 0.1486 0.85391 0.0
H173 H 0.73042 0.19537 0.80588 0.0
N174 N 0.784 0.21905 0.74859 0.0
N175 N 0.77735 0.22171 0.66115 0.0
C176 C 0.59998 0.68201 0.21003 0.0
C177 C 0.57506 0.66869 0.17658 0.0
C178 C 0.60469 0.71065 0.23444 0.0
C179 C 0.58402 0.72584 0.22632 0.0
C180 C 0.55559 0.68502 0.16746 0.0
C181 C 0.56014 0.71332 0.19191 0.0
C182 C 0.5848 0.75309 0.25474 0.0
C183 C 0.54788 0.6558 0.33271 0.0
C184 C 0.57281 0.65943 0.36367 0.0
C185 C 0.54973 0.68506 0.31302 0.0
C186 C 0.57681 0.71846 0.32343 0.0
C187 C 0.59965 0.69302 0.37445 0.0
C188 C 0.60155 0.72231 0.35456 0.0
C189 C 0.58016 0.74917 0.30031 0.0
C190 C 0.52382 0.84364 0.33705 0.0
C191 C 0.53687 0.85573 0.37898 0.0
C192 C 0.5362 0.82568 0.31257 0.0
C193 C 0.56256 0.82007 0.32899 0.0
C194 C 0.56223 0.84895 0.39624 0.0
C195 C 0.57492 0.8312 0.37144 0.0
C196 C 0.57492 0.80008 0.30327 0.0
C197 C 0.6049 0.89623 0.22092 0.0
C198 C 0.58891 0.88925 0.17972 0.0
C199 C 0.60235 0.86904 0.24705 0.0
C200 C 0.58338 0.83445 0.23258 0.0
C201 C 0.56966 0.85456 0.16578 0.0
C202 C 0.56711 0.82759 0.19175 0.0
C203 C 0.58178 0.80517 0.2579 0.0
H204 H 0.61567 0.67025 0.2174 0.0
H205 H 0.62386 0.72037 0.26024 0.0
H206 H 0.53586 0.67516 0.14233 0.0
H207 H 0.54385 0.72453 0.18506 0.0
H208 H 0.52641 0.63039 0.3245 0.0
H209 H 0.53014 0.68163 0.28937 0.0
H210 H 0.61921 0.69663 0.3982 0.0
H211 H 0.62266 0.74791 0.36288 0.0
H212 H 0.50372 0.8478 0.32328 0.0
H213 H 0.52478 0.81582 0.28093 0.0
H214 H 0.57274 0.85798 0.42849 0.0
H215 H 0.59465 0.82648 0.38523 0.0
H216 H 0.62 0.92269 0.23247 0.0
H217 H 0.61574 0.87511 0.27806 0.0
H218 H 0.55629 0.84814 0.13474 0.0
H219 H 0.55223 0.80118 0.17985 0.0
N220 N 0.58574 0.78107 0.23546 0.0
N221 N 0.57518 0.77264 0.32293 0.0
C222 C 0.89455 0.59896 0.71661 0.0
C223 C 0.88575 0.58027 0.67732 0.0
C224 C 0.8686 0.59868 0.74298 0.0
C225 C 0.83344 0.57937 0.73065 0.0
C226 C 0.85049 0.56034 0.66583 0.0
C227 C 0.82473 0.56005 0.69203 0.0
C228 C 0.80562 0.58105 0.75535 0.0
C229 C 0.83773 0.52331 0.84862 0.0
C230 C 0.85843 0.5443 0.88288 0.0
C231 C 0.82025 0.53475 0.82135 0.0
C232 C 0.82277 0.56716 0.82826 0.0
C233 C 0.86115 0.57685 0.88964 0.0
C234 C 0.84296 0.58795 0.86293 0.0
C235 C 0.80215 0.57781 0.8012 0.0
C236 C 0.65745 0.54697 0.83011 0.0
C237 C 0.6599 0.57269 0.85878 0.0
C238 C 0.68727 0.54977 0.81107 0.0
C239 C 0.72005 0.57857 0.81986 0.0
C240 C 0.6929 0.6013 0.86799 0.0
C241 C 0.72278 0.60413 0.84878 0.0
C242 C 0.75109 0.5826 0.79708 0.0
C243 C 0.67928 0.59592 0.71029 0.0
C244 C 0.66452 0.56918 0.67924 0.0
C245 C 0.71018 0.60339 0.73149 0.0
C246 C 0.72626 0.58361 0.72285 0.0
C247 C 0.6828 0.55209 0.66753 0.0
C248 C 0.7132 0.55911 0.68921 0.0
C249 C 0.75409 0.58512 0.75119 0.0
H250 H 0.9215 0.61466 0.72621 0.0
H251 H 0.87614 0.61446 0.77211 0.0
H252 H 0.84275 0.54499 0.6363 0.0
H253 H 0.79784 0.54484 0.68185 0.0
H254 H 0.8355 0.49825 0.8426 0.0
H255 H 0.8043 0.51806 0.7952 0.0
H256 H 0.87703 0.59346 0.91587 0.0
H257 H 0.84484 0.61283 0.86907 0.0
H258 H 0.63256 0.5242 0.82321 0.0
H259 H 0.68476 0.5296 0.7891 0.0
H260 H 0.69559 0.6215 0.88999 0.0
H261 H 0.7479 0.62655 0.85579 0.0
H262 H 0.66619 0.60992 0.71974 0.0
H263 H 0.72046 0.62337 0.75622 0.0
H264 H 0.673 0.53234 0.64249 0.0
H265 H 0.72541 0.54393 0.68127 0.0
N266 N 0.78125 0.58424 0.73218 0.0
N267 N 0.77517 0.57904 0.82043 0.0
C268 C 0.13562 0.66087 0.14939 0.0
C269 C 0.12607 0.66601 0.10754 0.0
C270 C 0.15743 0.68921 0.17525 0.0
C271 C 0.16936 0.72321 0.16014 0.0
C272 C 0.13861 0.69998 0.092 0.0
C273 C 0.1601 0.72837 0.11814 0.0
C274 C 0.1945 0.75343 0.18572 0.0
C275 C 0.09833 0.69678 0.2718 0.0
C276 C 0.10489 0.6861 0.31229 0.0
C277 C 0.12596 0.72002 0.24493 0.0
C278 C 0.16064 0.73259 0.2578 0.0
C279 C 0.13965 0.69893 0.3249 0.0
C280 C 0.16706 0.72196 0.29819 0.0
C281 C 0.1908 0.75751 0.23078 0.0
C282 C 0.31525 0.89817 0.27019 0.0
C283 C 0.32299 0.89014 0.31165 0.0
C284 C 0.29076 0.87179 0.24343 0.0
C285 C 0.27395 0.83698 0.25757 0.0
C286 C 0.30604 0.85524 0.32546 0.0
C287 C 0.28168 0.82906 0.29888 0.0
C288 C 0.24713 0.80853 0.23094 0.0
C289 C 0.34679 0.84744 0.15567 0.0
C290 C 0.34668 0.85887 0.11286 0.0
C291 C 0.31598 0.83 0.17972 0.0
C292 C 0.28437 0.8242 0.16188 0.0
C293 C 0.31493 0.85222 0.09453 0.0
C294 C 0.28408 0.83498 0.1188 0.0
C295 C 0.25121 0.80384 0.1862 0.0
H296 H 0.12679 0.63487 0.16174 0.0
H297 H 0.16553 0.68449 0.20662 0.0
H298 H 0.13154 0.70454 0.05985 0.0
H299 H 0.16963 0.75441 0.10551 0.0
H300 H 0.0719 0.68765 0.26122 0.0
H301 H 0.12021 0.72836 0.21437 0.0
H302 H 0.14582 0.69078 0.35533 0.0
H303 H 0.19348 0.73115 0.30896 0.0
H304 H 0.3277 0.92483 0.25876 0.0
H305 H 0.28466 0.87863 0.21203 0.0
H306 H 0.31194 0.84797 0.35671 0.0
H307 H 0.26909 0.80242 0.3105 0.0
H308 H 0.37073 0.85155 0.17039 0.0
H309 H 0.31685 0.82048 0.21198 0.0
H310 H 0.31403 0.86084 0.06172 0.0
H311 H 0.25994 0.83017 0.10395 0.0
N312 N 0.22447 0.77676 0.16534 0.0
N313 N 0.2173 0.78501 0.25136 0.0
C314 C 0.44667 0.10862 0.86147 0.0
C315 C 0.47776 0.12237 0.88557 0.0
C316 C 0.44073 0.12984 0.83306 0.0
C317 C 0.4659 0.16503 0.8282 0.0
C318 C 0.50261 0.15773 0.88082 0.0
C319 C 0.49663 0.17883 0.85265 0.0
C320 C 0.46009 0.18877 0.80039 0.0
C321 C 0.46529 0.11227 0.70848 0.0
C322 C 0.43784 0.09663 0.67846 0.0
C323 C 0.46955 0.14014 0.73406 0.0
C324 C 0.44586 0.15235 0.73108 0.0
C325 C 0.41425 0.10891 0.67532 0.0
C326 C 0.41822 0.13645 0.70138 0.0
C327 C 0.45107 0.18331 0.75584 0.0
C328 C 0.48472 0.3262 0.69672 0.0
C329 C 0.46083 0.31661 0.66232 0.0
C330 C 0.48283 0.30126 0.72624 0.0
C331 C 0.45618 0.26641 0.72292 0.0
C332 C 0.43487 0.2817 0.65803 0.0
C333 C 0.43248 0.25685 0.68817 0.0
C334 C 0.45493 0.23915 0.75234 0.0
C335 C 0.45047 0.31542 0.84821 0.0
C336 C 0.4733 0.32513 0.88416 0.0
C337 C 0.44718 0.28964 0.81915 0.0
C338 C 0.46768 0.27392 0.82426 0.0
C339 C 0.49349 0.30902 0.88912 0.0
C340 C 0.49103 0.28426 0.8594 0.0
C341 C 0.46251 0.24376 0.79758 0.0
H342 H 0.42683 0.08154 0.86481 0.0
H343 H 0.41646 0.1189 0.81532 0.0
H344 H 0.52707 0.16903 0.89817 0.0
H345 H 0.51629 0.20603 0.84958 0.0
H346 H 0.48436 0.10393 0.71084 0.0
H347 H 0.49205 0.15277 0.75509 0.0
H348 H 0.39291 0.09743 0.65237 0.0
H349 H 0.39983 0.14559 0.69798 0.0
H350 H 0.50531 0.35295 0.70023 0.0
H351 H 0.50262 0.30924 0.75112 0.0
H352 H 0.41618 0.27375 0.63172 0.0
H353 H 0.41211 0.23006 0.68423 0.0
H354 H 0.4348 0.32743 0.84248 0.0
H355 H 0.42801 0.28152 0.79346 0.0
H356 H 0.51069 0.31467 0.91665 0.0
H357 H 0.50694 0.27239 0.86476 0.0
N358 N 0.46505 0.21842 0.81916 0.0
N359 N 0.44893 0.20882 0.7337 0.0
C360 C 0.01922 0.44095 0.12919 0.0
C361 C 0.0235 0.43996 0.08389 0.0
H362 H 0.03977 0.4414 0.19276 0.0
C363 C 0.05048 0.43505 0.06819 0.0
H364 H 0.99888 0.44503 0.14226 0.0
C365 C 0.07357 0.43262 0.09701 0.0
C366 C 0.07058 0.43568 0.14217 0.0
H367 H 0.05447 0.43426 0.03344 0.0
H368 H 0.09484 0.43011 0.0838 0.0
C369 C 0.04278 0.43919 0.15806 0.0
C370 C 0.57887 0.04904 0.57309 0.0
C371 C 0.57523 0.05853 0.5304 0.0
H372 H 0.61058 0.06208 0.63008 0.0
C373 C 0.60278 0.08862 0.51159 0.0
H374 H 0.55823 0.02599 0.58864 0.0
C375 C 0.63307 0.10921 0.53554 0.0
C376 C 0.63593 0.10016 0.57871 0.0
H377 H 0.60073 0.09652 0.47877 0.0
H378 H 0.65375 0.13274 0.5209 0.0
C379 C 0.60879 0.06972 0.597 0.0
C380 C 0.54998 0.60477 0.08418 0.0
C381 C 0.54464 0.57454 0.10581 0.0
H382 H 0.56493 0.65836 0.08922 0.0
C383 C 0.55312 0.57638 0.15022 0.0
H384 H 0.54438 0.60438 0.04973 0.0
C385 C 0.56464 0.60751 0.17313 0.0
C386 C 0.56808 0.63722 0.1518 0.0
H387 H 0.54934 0.55347 0.16762 0.0
H388 H 0.56923 0.60784 0.20786 0.0
C389 C 0.56173 0.63573 0.10681 0.0
C390 C 0.96326 0.57491 0.63423 0.0
C391 C 0.95803 0.57468 0.58897 0.0
H392 H 0.9441 0.57648 0.69802 0.0
C393 C 0.93155 0.58037 0.57338 0.0
H394 H 0.9834 0.57046 0.64718 0.0
C395 C 0.90932 0.58394 0.60226 0.0
C396 C 0.91279 0.58161 0.6475 0.0
H397 H 0.92714 0.5808 0.53868 0.0
H398 H 0.88866 0.58746 0.58905 0.0
C399 C 0.94074 0.5783 0.66331 0.0
C400 C 0.44035 0.92459 0.08651 0.0
C401 C 0.44326 0.9178 0.04239 0.0
H402 H 0.40782 0.91161 0.14288 0.0
C403 C 0.41414 0.89087 0.02146 0.0
H404 H 0.46225 0.94507 0.10379 0.0
C405 C 0.3826 0.87163 0.04413 0.0
C406 C 0.37984 0.87869 0.08825 0.0
H407 H 0.41554 0.88509 0.98749 0.0
H408 H 0.36045 0.8511 0.0273 0.0
C409 C 0.40916 0.90526 0.10912 0.0
C410 C 0.46598 0.39879 0.61959 0.0
C411 C 0.47099 0.39694 0.57456 0.0
H412 H 0.45928 0.37499 0.68241 0.0
C413 C 0.47104 0.36745 0.55816 0.0
H414 H 0.46605 0.42121 0.63347 0.0
C415 C 0.46662 0.34063 0.58647 0.0
C416 C 0.46289 0.34333 0.63159 0.0
H417 H 0.47492 0.36533 0.52368 0.0
H418 H 0.46721 0.31832 0.57335 0.0
C419 C 0.46232 0.37247 0.64778 0.0
C420 C 0.50261 0.88874 0.47003 0.0
C421 C 0.50079 0.91588 0.44871 0.0
H422 H 0.51589 0.84849 0.46474 0.0
C423 C 0.51099 0.92291 0.4047 0.0
H424 H 0.49507 0.8828 0.50395 0.0
C425 C 0.52262 0.90335 0.38244 0.0
C426 C 0.52468 0.87637 0.40361 0.0
H427 H 0.50991 0.94358 0.38718 0.0
H428 H 0.53042 0.90963 0.34862 0.0
C429 C 0.51473 0.86931 0.44772 0.0
C430 C 0.59952 0.56304 0.95085 0.0
C431 C 0.56705 0.54716 0.92999 0.0
H432 H 0.65419 0.58354 0.94471 0.0
C433 C 0.56563 0.54406 0.88445 0.0
H434 H 0.60126 0.56588 0.986 0.0
C435 C 0.59618 0.55414 0.8606 0.0
C436 C 0.62845 0.56777 0.88203 0.0
H437 H 0.54086 0.53176 0.86773 0.0
H438 H 0.59442 0.55001 0.82569 0.0
C439 C 0.62989 0.57334 0.92716 0.0
C440 C 0.02224 0.60629 0.35313 0.0
C441 C 0.02704 0.60973 0.39857 0.0
H442 H 0.04332 0.62753 0.29001 0.0
C443 C 0.05526 0.64027 0.41509 0.0
H444 H 0.00085 0.58297 0.33939 0.0
C445 C 0.07931 0.66579 0.38699 0.0
C446 C 0.0761 0.66135 0.34151 0.0
H447 H 0.05951 0.64393 0.44992 0.0
H448 H 0.10111 0.68862 0.40104 0.0
C449 C 0.04661 0.63184 0.32484 0.0
C450 C 0.48773 0.04675 0.92313 0.0
C451 C 0.50676 0.05951 0.96197 0.0
H452 H 0.46406 0.05661 0.86854 0.0
C453 C 0.51368 0.09202 0.97751 0.0
H454 H 0.48175 0.02169 0.91025 0.0
C455 C 0.50306 0.11197 0.95361 0.0
C456 C 0.4854 0.09978 0.91373 0.0
H457 H 0.52806 0.10244 0.00745 0.0
H458 H 0.50921 0.13721 0.96597 0.0
C459 C 0.47726 0.06665 0.89928 0.0
C460 C 0.40016 0.46114 0.42539 0.0
C461 C 0.40269 0.47451 0.46763 0.0
H462 H 0.37398 0.44859 0.36403 0.0
C463 C 0.37793 0.48345 0.48099 0.0
H464 H 0.41885 0.45409 0.41381 0.0
C465 C 0.35177 0.47987 0.45234 0.0
C466 C 0.34993 0.4675 0.40958 0.0
H467 H 0.37906 0.49371 0.5133 0.0
H468 H 0.33307 0.48697 0.46368 0.0
C469 C 0.37423 0.45779 0.39675 0.0
C470 C 0.9318 0.37483 0.90934 0.0
C471 C 0.95762 0.40722 0.89329 0.0
H472 H 0.88983 0.32425 0.89437 0.0
C473 C 0.96261 0.41215 0.84798 0.0
H474 H 0.92764 0.37009 0.94411 0.0
C475 C 0.94044 0.3859 0.81928 0.0
C476 C 0.91313 0.35432 0.83552 0.0
H477 H 0.98226 0.43692 0.83472 0.0
H478 H 0.94355 0.39103 0.78453 0.0
C479 C 0.90996 0.34865 0.88082 0.0
C480 C 0.9338 0.54063 0.93427 0.0
C481 C 0.91702 0.50828 0.95578 0.0
H482 H 0.92819 0.57763 0.89513 0.0
C483 C 0.88054 0.48871 0.95556 0.0
H484 H 0.96192 0.55627 0.93405 0.0
C485 C 0.8613 0.50064 0.93239 0.0
C486 C 0.87824 0.53272 0.91021 0.0
H487 H 0.86703 0.4636 0.97164 0.0
H488 H 0.83324 0.48467 0.93132 0.0
C489 C 0.91458 0.55292 0.91215 0.0
C490 C 0.4078 0.96594 0.35196 0.0
C491 C 0.40306 0.96165 0.39734 0.0
H492 H 0.3862 0.94619 0.28896 0.0
C493 C 0.37039 0.937 0.41391 0.0
H494 H 0.43282 0.98469 0.33835 0.0
C495 C 0.34368 0.91536 0.3858 0.0
C496 C 0.34921 0.91748 0.34048 0.0
H497 H 0.36588 0.93346 0.44877 0.0
H498 H 0.31907 0.89598 0.39973 0.0
C499 C 0.3811 0.94389 0.32371 0.0
C500 C 0.50951 0.39663 0.97018 0.0
C501 C 0.48145 0.40214 0.97698 0.0
H502 H 0.52997 0.3701 0.93397 0.0
C503 C 0.45033 0.3817 0.95432 0.0
H504 H 0.5341 0.41273 0.98642 0.0
C505 C 0.44733 0.35621 0.92516 0.0
C506 C 0.47586 0.3514 0.91674 0.0
H507 H 0.42839 0.38571 0.95886 0.0
H508 H 0.42261 0.34049 0.90918 0.0
C509 C 0.50698 0.372 0.93995 0.0
C510 C 0.09069 0.51108 0.46892 0.0
C511 C 0.05852 0.50462 0.45242 0.0
H512 H 0.13601 0.50665 0.45848 0.0
C513 C 0.0467 0.48687 0.41264 0.0
H514 H 0.10039 0.52449 0.49958 0.0
C515 C 0.06708 0.47691 0.38907 0.0
C516 C 0.09975 0.48434 0.40473 0.0
H517 H 0.02197 0.48134 0.39898 0.0
H518 H 0.05772 0.46451 0.35777 0.0
C519 C 0.11112 0.50101 0.44527 0.0
C520 C 0.64289 0.05935 0.9179 0.0
C521 C 0.61241 0.03036 0.90252 0.0
H522 H 0.69051 0.10547 0.90204 0.0
C523 C 0.60834 0.02456 0.85729 0.0
H524 H 0.64709 0.0644 0.95254 0.0
C525 C 0.63325 0.04858 0.82806 0.0
C526 C 0.66269 0.07874 0.84358 0.0
H527 H 0.58507 0.00256 0.8444 0.0
H528 H 0.62854 0.04443 0.79337 0.0
C529 C 0.66772 0.08308 0.88888 0.0
C530 C 0.56273 0.59918 0.45647 0.0
C531 C 0.54989 0.56718 0.4351 0.0
H532 H 0.58003 0.65329 0.45067 0.0
C533 C 0.54901 0.56636 0.38939 0.0
H534 H 0.56373 0.60046 0.49178 0.0
C535 C 0.55822 0.59681 0.36564 0.0
C536 C 0.56879 0.62844 0.38737 0.0
H537 H 0.539 0.54194 0.37224 0.0
H538 H 0.55579 0.59538 0.33046 0.0
C539 C 0.57221 0.62949 0.4329 0.0
C540 C 0.44136 0.01878 0.63354 0.0
C541 C 0.43987 0.0235 0.5884 0.0
H542 H 0.4422 0.03852 0.69763 0.0
C543 C 0.43453 0.05045 0.57355 0.0
H544 H 0.44576 0.99842 0.64592 0.0
C545 C 0.43218 0.07309 0.60303 0.0
C546 C 0.43569 0.06967 0.64802 0.0
H547 H 0.43331 0.05476 0.53895 0.0
H548 H 0.42936 0.09437 0.59041 0.0
C549 C 0.43964 0.04188 0.66307 0.0
C550 C 0.36962 0.46798 0.05716 0.0
C551 C 0.39918 0.46821 0.07406 0.0
H552 H 0.31994 0.46311 0.07138 0.0
C553 C 0.40025 0.46192 0.11891 0.0
H554 H 0.36802 0.47272 0.02279 0.0
C555 C 0.37319 0.45699 0.1465 0.0
C556 C 0.34412 0.45762 0.12988 0.0
H557 H 0.4226 0.46197 0.13314 0.0
H558 H 0.37519 0.45316 0.18108 0.0
C559 C 0.34213 0.4624 0.08484 0.0
C560 C 0.88055 0.41849 0.529 0.0
C561 C 0.91687 0.4343 0.52583 0.0
H562 H 0.83369 0.37626 0.55619 0.0
C563 C 0.93367 0.41791 0.54509 0.0
H564 H 0.86708 0.43081 0.51475 0.0
C565 C 0.91469 0.38665 0.56788 0.0
C566 C 0.8786 0.37159 0.57279 0.0
H567 H 0.96169 0.42959 0.54308 0.0
H568 H 0.92837 0.37489 0.58306 0.0
C569 C 0.86157 0.38755 0.55287 0.0
C570 C 0.59202 0.93843 0.07739 0.0
C571 C 0.5848 0.96365 0.09364 0.0
H572 H 0.60009 0.89595 0.09195 0.0
C573 C 0.58376 0.96746 0.13903 0.0
H574 H 0.59338 0.93517 0.04258 0.0
C575 C 0.58701 0.94445 0.16749 0.0
C576 C 0.59156 0.91749 0.15092 0.0
H577 H 0.57806 0.98658 0.15244 0.0
H578 H 0.58383 0.94645 0.20218 0.0
C579 C 0.59559 0.91579 0.10568 0.0
C580 C 0.57541 0.51075 0.63146 0.0
C581 C 0.56537 0.53462 0.61804 0.0
H582 H 0.61371 0.50275 0.66265 0.0
C583 C 0.58659 0.56993 0.62799 0.0
H584 H 0.5593 0.48334 0.62417 0.0
C585 C 0.61859 0.5814 0.64896 0.0
C586 C 0.6295 0.55759 0.66046 0.0
H587 H 0.57944 0.58879 0.61729 0.0
H588 H 0.63537 0.60898 0.65436 0.0
C589 C 0.60684 0.522 0.65289 0.0
C590 C 0.09019 0.60343 0.01268 0.0
C591 C 0.06001 0.57597 0.03144 0.0
H592 H 0.13491 0.6539 0.02228 0.0
C593 C 0.05119 0.57914 0.07458 0.0
H594 H 0.0976 0.60173 0.97952 0.0
C595 C 0.07247 0.60862 0.09885 0.0
C596 C 0.10291 0.63576 0.08051 0.0
H597 H 0.0281 0.55854 0.0901 0.0
H598 H 0.06517 0.61015 0.13215 0.0
C599 C 0.11141 0.63325 0.03701 0.0
loop_
_geom_bond_atom_site_label_1
_geom_bond_atom_site_label_2
_geom_bond_distance
_geom_bond_site_symmetry_2
_ccdc_geom_bond_type
C0 O2 1.247 . S
C0 O4 1.258 . S
C1 O8 1.247 . S
C1 O9 1.258 . S
O2 C0 1.247 . S
O2 Zn3 2.028 1_455 S
Zn3 O2 2.028 1_655 S
Zn3 O7 2.035 1_554 S
Zn3 O9 2.035 1_554 S
Zn3 O10 2.028 1_655 S
O4 C0 1.258 . S
O4 Zn5 2.035 1_554 S
Zn5 O4 2.035 1_556 S
Zn5 O6 2.028 1_455 S
Zn5 O8 2.028 1_455 S
Zn5 O11 2.035 1_556 S
O6 Zn5 2.028 1_655 S
O6 C12 1.247 . S
O7 Zn3 2.035 1_556 S
O7 C12 1.258 . S
O8 C1 1.247 . S
O8 Zn5 2.028 1_655 S
O9 C1 1.258 . S
O9 Zn3 2.035 1_556 S
O10 Zn3 2.028 1_455 S
O10 C13 1.247 . S
O11 Zn5 2.035 1_554 S
O11 C13 1.258 . S
C12 O6 1.247 . S
C12 O7 1.258 . S
C13 O10 1.247 . S
C13 O11 1.258 . S
C14 O16 1.247 . S
C14 O18 1.258 . S
C15 O22 1.247 . S
C15 O23 1.258 . S
O16 C14 1.247 . S
O16 Zn17 2.028 1_545 S
Zn17 O16 2.028 1_565 S
Zn17 O21 2.035 . S
Zn17 O23 2.035 . S
Zn17 O24 2.028 1_565 S
O18 C14 1.258 . S
O18 Zn19 2.035 . S
Zn19 O18 2.035 . S
Zn19 O20 2.028 1_545 S
Zn19 O22 2.028 1_545 S
Zn19 O25 2.035 . S
O20 Zn19 2.028 1_565 S
O20 C26 1.247 . S
O21 Zn17 2.035 . S
O21 C26 1.258 . S
O22 C15 1.247 . S
O22 Zn19 2.028 1_565 S
O23 C15 1.258 . S
O23 Zn17 2.035 . S
O24 Zn17 2.028 1_545 S
O24 C27 1.247 . S
O25 Zn19 2.035 . S
O25 C27 1.258 . S
C26 O20 1.247 . S
C26 O21 1.258 . S
C27 O24 1.247 . S
C27 O25 1.258 . S
C28 O30 1.247 . S
C28 O32 1.258 . S
C29 O36 1.247 . S
C29 O37 1.258 . S
O30 C28 1.247 . S
O30 Zn31 2.028 . S
Zn31 O30 2.028 . S
Zn31 O35 2.035 1_556 S
Zn31 O37 2.035 1_556 S
Zn31 O38 2.028 . S
O32 C28 1.258 . S
O32 Zn33 2.035 1_556 S
Zn33 O32 2.035 1_554 S
Zn33 O34 2.028 . S
Zn33 O36 2.028 . S
Zn33 O39 2.035 1_554 S
O34 Zn33 2.028 . S
O34 C40 1.247 . S
O35 Zn31 2.035 1_554 S
O35 C40 1.258 . S
O36 C29 1.247 . S
O36 Zn33 2.028 . S
O37 C29 1.258 . S
O37 Zn31 2.035 1_554 S
O38 Zn31 2.028 . S
O38 C41 1.247 . S
O39 Zn33 2.035 1_556 S
O39 C41 1.258 . S
C40 O34 1.247 . S
C40 O35 1.258 . S
C41 O38 1.247 . S
C41 O39 1.258 . S
C42 O44 1.247 . S
C42 O46 1.258 . S
C43 O50 1.247 . S
C43 O51 1.258 . S
O44 C42 1.247 . S
O44 Zn45 2.028 . S
Zn45 O44 2.028 . S
Zn45 O49 2.035 1_455 S
Zn45 O51 2.035 1_455 S
Zn45 O52 2.028 . S
O46 C42 1.258 . S
O46 Zn47 2.035 1_455 S
Zn47 O46 2.035 1_655 S
Zn47 O48 2.028 . S
Zn47 O50 2.028 . S
Zn47 O53 2.035 1_655 S
O48 Zn47 2.028 . S
O48 C54 1.247 . S
O49 Zn45 2.035 1_655 S
O49 C54 1.258 . S
O50 C43 1.247 . S
O50 Zn47 2.028 . S
O51 C43 1.258 . S
O51 Zn45 2.035 1_655 S
O52 Zn45 2.028 . S
O52 C55 1.247 . S
O53 Zn47 2.035 1_455 S
O53 C55 1.258 . S
C54 O48 1.247 . S
C54 O49 1.258 . S
C55 O52 1.247 . S
C55 O53 1.258 . S
C56 O58 1.247 . S
C56 O60 1.258 . S
C57 O64 1.247 . S
C57 O65 1.258 . S
O58 C56 1.247 . S
O58 Zn59 2.028 1_565 S
Zn59 O58 2.028 1_545 S
Zn59 O63 2.035 1_554 S
Zn59 O65 2.035 1_554 S
Zn59 O66 2.028 1_545 S
O60 C56 1.258 . S
O60 Zn61 2.035 1_554 S
Zn61 O60 2.035 1_556 S
Zn61 O62 2.028 1_565 S
Zn61 O64 2.028 1_565 S
Zn61 O67 2.035 1_556 S
O62 Zn61 2.028 1_545 S
O62 C68 1.247 . S
O63 Zn59 2.035 1_556 S
O63 C68 1.258 . S
O64 C57 1.247 . S
O64 Zn61 2.028 1_545 S
O65 C57 1.258 . S
O65 Zn59 2.035 1_556 S
O66 Zn59 2.028 1_565 S
O66 C69 1.247 . S
O67 Zn61 2.035 1_554 S
O67 C69 1.258 . S
C68 O62 1.247 . S
C68 O63 1.258 . S
C69 O66 1.247 . S
C69 O67 1.258 . S
C70 O72 1.247 . S
C70 O74 1.258 . S
C71 O78 1.247 . S
C71 O79 1.258 . S
O72 C70 1.247 . S
O72 Zn73 2.028 . S
Zn73 O72 2.028 . S
Zn73 O77 2.035 . S
Zn73 O79 2.035 . S
Zn73 O80 2.028 . S
O74 C70 1.258 . S
O74 Zn75 2.035 . S
Zn75 O74 2.035 . S
Zn75 O76 2.028 . S
Zn75 O78 2.028 . S
Zn75 O81 2.035 . S
O76 Zn75 2.028 . S
O76 C82 1.247 . S
O77 Zn73 2.035 . S
O77 C82 1.258 . S
O78 C71 1.247 . S
O78 Zn75 2.028 . S
O79 C71 1.258 . S
O79 Zn73 2.035 . S
O80 Zn73 2.028 . S
O80 C83 1.247 . S
O81 Zn75 2.035 . S
O81 C83 1.258 . S
C82 O76 1.247 . S
C82 O77 1.258 . S
C83 O80 1.247 . S
C83 O81 1.258 . S
C84 C85 1.384 . S
C84 C86 1.384 . S
C84 H112 0.931 . S
C85 C84 1.384 . S
C85 C88 1.382 . S
C86 C84 1.384 . S
C86 C87 1.381 . S
C86 H113 0.930 . S
C87 C86 1.381 . S
C87 C89 1.381 . S
C87 C90 1.487 . S
C88 C85 1.382 . S
C88 C89 1.387 . S
C88 H114 0.930 . S
C89 C87 1.381 . S
C89 C88 1.387 . S
C89 H115 0.931 . S
C90 C87 1.487 . S
C90 C97 1.399 . S
C90 N128 1.343 . S
C91 C92 1.384 . S
C91 C93 1.384 . S
C91 H116 0.931 . S
C92 C91 1.384 . S
C92 C95 1.382 . S
C93 C91 1.384 . S
C93 C94 1.381 . S
C93 H117 0.930 . S
C94 C93 1.381 . S
C94 C96 1.381 . S
C94 C97 1.487 . S
C95 C92 1.382 . S
C95 C96 1.387 . S
C95 H118 0.930 . S
C96 C94 1.381 . S
C96 C95 1.387 . S
C96 H119 0.931 . S
C97 C90 1.399 . S
C97 C94 1.487 . S
C97 N129 1.343 . S
C98 C99 1.384 . S
C98 C100 1.384 . S
C98 H120 0.931 . S
C99 C98 1.384 . S
C99 C102 1.382 . S
C100 C98 1.384 . S
C100 C101 1.381 . S
C100 H121 0.930 . S
C101 C100 1.381 . S
C101 C103 1.381 . S
C101 C104 1.487 . S
C102 C99 1.382 . S
C102 C103 1.387 . S
C102 H122 0.930 . S
C103 C101 1.381 . S
C103 C102 1.387 . S
C103 H123 0.931 . S
C104 C101 1.487 . S
C104 C111 1.399 . S
C104 N129 1.343 . S
C105 C106 1.384 . S
C105 C107 1.384 . S
C105 H124 0.931 . S
C106 C105 1.384 . S
C106 C109 1.382 . S
C107 C105 1.384 . S
C107 C108 1.381 . S
C107 H125 0.930 . S
C108 C107 1.381 . S
C108 C110 1.381 . S
C108 C111 1.487 . S
C109 C106 1.382 . S
C109 C110 1.387 . S
C109 H126 0.930 . S
C110 C108 1.381 . S
C110 C109 1.387 . S
C110 H127 0.931 . S
C111 C104 1.399 . S
C111 C108 1.487 . S
C111 N128 1.343 . S
H112 C84 0.931 . S
H113 C86 0.930 . S
H114 C88 0.930 . S
H115 C89 0.931 . S
H116 C91 0.931 . S
H117 C93 0.930 . S
H118 C95 0.930 . S
H119 C96 0.931 . S
H120 C98 0.931 . S
H121 C100 0.930 . S
H122 C102 0.930 . S
H123 C103 0.931 . S
H124 C105 0.931 . S
H125 C107 0.930 . S
H126 C109 0.930 . S
H127 C110 0.931 . S
N128 C90 1.343 . S
N128 C111 1.343 . S
N129 C97 1.343 . S
N129 C104 1.343 . S
C130 C131 1.384 . S
C130 C132 1.384 . S
C130 H158 0.931 . S
C131 C130 1.384 . S
C131 C134 1.382 . S
C132 C130 1.384 . S
C132 C133 1.381 . S
C132 H159 0.930 . S
C133 C132 1.381 . S
C133 C135 1.381 . S
C133 C136 1.487 . S
C134 C131 1.382 . S
C134 C135 1.387 . S
C134 H160 0.930 . S
C135 C133 1.381 . S
C135 C134 1.387 . S
C135 H161 0.931 . S
C136 C133 1.487 . S
C136 C143 1.399 . S
C136 N174 1.343 . S
C137 C138 1.384 . S
C137 C139 1.384 . S
C137 H162 0.931 . S
C138 C137 1.384 . S
C138 C141 1.382 . S
C139 C137 1.384 . S
C139 C140 1.381 . S
C139 H163 0.930 . S
C140 C139 1.381 . S
C140 C142 1.381 . S
C140 C143 1.487 . S
C141 C138 1.382 . S
C141 C142 1.387 . S
C141 H164 0.930 . S
C142 C140 1.381 . S
C142 C141 1.387 . S
C142 H165 0.931 . S
C143 C136 1.399 . S
C143 C140 1.487 . S
C143 N175 1.343 . S
C144 C145 1.384 . S
C144 C146 1.384 . S
C144 H166 0.931 . S
C145 C144 1.384 . S
C145 C148 1.382 . S
C146 C144 1.384 . S
C146 C147 1.381 . S
C146 H167 0.930 . S
C147 C146 1.381 . S
C147 C149 1.381 . S
C147 C150 1.487 . S
C148 C145 1.382 . S
C148 C149 1.387 . S
C148 H168 0.930 . S
C149 C147 1.381 . S
C149 C148 1.387 . S
C149 H169 0.931 . S
C150 C147 1.487 . S
C150 C157 1.399 . S
C150 N175 1.343 . S
C151 C152 1.384 . S
C151 C153 1.384 . S
C151 H170 0.931 . S
C152 C151 1.384 . S
C152 C155 1.382 . S
C153 C151 1.384 . S
C153 C154 1.381 . S
C153 H171 0.930 . S
C154 C153 1.381 . S
C154 C156 1.381 . S
C154 C157 1.487 . S
C155 C152 1.382 . S
C155 C156 1.387 . S
C155 H172 0.930 . S
C156 C154 1.381 . S
C156 C155 1.387 . S
C156 H173 0.931 . S
C157 C150 1.399 . S
C157 C154 1.487 . S
C157 N174 1.343 . S
H158 C130 0.931 . S
H159 C132 0.930 . S
H160 C134 0.930 . S
H161 C135 0.931 . S
H162 C137 0.931 . S
H163 C139 0.930 . S
H164 C141 0.930 . S
H165 C142 0.931 . S
H166 C144 0.931 . S
H167 C146 0.930 . S
H168 C148 0.930 . S
H169 C149 0.931 . S
H170 C151 0.931 . S
H171 C153 0.930 . S
H172 C155 0.930 . S
H173 C156 0.931 . S
N174 C136 1.343 . S
N174 C157 1.343 . S
N175 C143 1.343 . S
N175 C150 1.343 . S
C176 C177 1.384 . S
C176 C178 1.384 . S
C176 H204 0.931 . S
C177 C176 1.384 . S
C177 C180 1.382 . S
C178 C176 1.384 . S
C178 C179 1.381 . S
C178 H205 0.930 . S
C179 C178 1.381 . S
C179 C181 1.381 . S
C179 C182 1.487 . S
C180 C177 1.382 . S
C180 C181 1.387 . S
C180 H206 0.930 . S
C181 C179 1.381 . S
C181 C180 1.387 . S
C181 H207 0.931 . S
C182 C179 1.487 . S
C182 C189 1.399 . S
C182 N220 1.343 . S
C183 C184 1.384 . S
C183 C185 1.384 . S
C183 H208 0.931 . S
C184 C183 1.384 . S
C184 C187 1.382 . S
C185 C183 1.384 . S
C185 C186 1.381 . S
C185 H209 0.930 . S
C186 C185 1.381 . S
C186 C188 1.381 . S
C186 C189 1.487 . S
C187 C184 1.382 . S
C187 C188 1.387 . S
C187 H210 0.930 . S
C188 C186 1.381 . S
C188 C187 1.387 . S
C188 H211 0.931 . S
C189 C182 1.399 . S
C189 C186 1.487 . S
C189 N221 1.343 . S
C190 C191 1.384 . S
C190 C192 1.384 . S
C190 H212 0.931 . S
C191 C190 1.384 . S
C191 C194 1.382 . S
C192 C190 1.384 . S
C192 C193 1.381 . S
C192 H213 0.930 . S
C193 C192 1.381 . S
C193 C195 1.381 . S
C193 C196 1.487 . S
C194 C191 1.382 . S
C194 C195 1.387 . S
C194 H214 0.930 . S
C195 C193 1.381 . S
C195 C194 1.387 . S
C195 H215 0.931 . S
C196 C193 1.487 . S
C196 C203 1.399 . S
C196 N221 1.343 . S
C197 C198 1.384 . S
C197 C199 1.384 . S
C197 H216 0.931 . S
C198 C197 1.384 . S
C198 C201 1.382 . S
C199 C197 1.384 . S
C199 C200 1.381 . S
C199 H217 0.930 . S
C200 C199 1.381 . S
C200 C202 1.381 . S
C200 C203 1.487 . S
C201 C198 1.382 . S
C201 C202 1.387 . S
C201 H218 0.930 . S
C202 C200 1.381 . S
C202 C201 1.387 . S
C202 H219 0.931 . S
C203 C196 1.399 . S
C203 C200 1.487 . S
C203 N220 1.343 . S
H204 C176 0.931 . S
H205 C178 0.930 . S
H206 C180 0.930 . S
H207 C181 0.931 . S
H208 C183 0.931 . S
H209 C185 0.930 . S
H210 C187 0.930 . S
H211 C188 0.931 . S
H212 C190 0.931 . S
H213 C192 0.930 . S
H214 C194 0.930 . S
H215 C195 0.931 . S
H216 C197 0.931 . S
H217 C199 0.930 . S
H218 C201 0.930 . S
H219 C202 0.931 . S
N220 C182 1.343 . S
N220 C203 1.343 . S
N221 C189 1.343 . S
N221 C196 1.343 . S
C222 C223 1.384 . S
C222 C224 1.384 . S
C222 H250 0.931 . S
C223 C222 1.384 . S
C223 C226 1.382 . S
C224 C222 1.384 . S
C224 C225 1.381 . S
C224 H251 0.930 . S
C225 C224 1.381 . S
C225 C227 1.381 . S
C225 C228 1.487 . S
C226 C223 1.382 . S
C226 C227 1.387 . S
C226 H252 0.930 . S
C227 C225 1.381 . S
C227 C226 1.387 . S
C227 H253 0.931 . S
C228 C225 1.487 . S
C228 C235 1.399 . S
C228 N266 1.343 . S
C229 C230 1.384 . S
C229 C231 1.384 . S
C229 H254 0.931 . S
C230 C229 1.384 . S
C230 C233 1.382 . S
C231 C229 1.384 . S
C231 C232 1.381 . S
C231 H255 0.930 . S
C232 C231 1.381 . S
C232 C234 1.381 . S
C232 C235 1.487 . S
C233 C230 1.382 . S
C233 C234 1.387 . S
C233 H256 0.930 . S
C234 C232 1.381 . S
C234 C233 1.387 . S
C234 H257 0.931 . S
C235 C228 1.399 . S
C235 C232 1.487 . S
C235 N267 1.343 . S
C236 C237 1.384 . S
C236 C238 1.384 . S
C236 H258 0.931 . S
C237 C236 1.384 . S
C237 C240 1.382 . S
C238 C236 1.384 . S
C238 C239 1.381 . S
C238 H259 0.930 . S
C239 C238 1.381 . S
C239 C241 1.381 . S
C239 C242 1.487 . S
C240 C237 1.382 . S
C240 C241 1.387 . S
C240 H260 0.930 . S
C241 C239 1.381 . S
C241 C240 1.387 . S
C241 H261 0.931 . S
C242 C239 1.487 . S
C242 C249 1.399 . S
C242 N267 1.343 . S
C243 C244 1.384 . S
C243 C245 1.384 . S
C243 H262 0.931 . S
C244 C243 1.384 . S
C244 C247 1.382 . S
C245 C243 1.384 . S
C245 C246 1.381 . S
C245 H263 0.930 . S
C246 C245 1.381 . S
C246 C248 1.381 . S
C246 C249 1.487 . S
C247 C244 1.382 . S
C247 C248 1.387 . S
C247 H264 0.930 . S
C248 C246 1.381 . S
C248 C247 1.387 . S
C248 H265 0.931 . S
C249 C242 1.399 . S
C249 C246 1.487 . S
C249 N266 1.343 . S
H250 C222 0.931 . S
H251 C224 0.930 . S
H252 C226 0.930 . S
H253 C227 0.931 . S
H254 C229 0.931 . S
H255 C231 0.930 . S
H256 C233 0.930 . S
H257 C234 0.931 . S
H258 C236 0.931 . S
H259 C238 0.930 . S
H260 C240 0.930 . S
H261 C241 0.931 . S
H262 C243 0.931 . S
H263 C245 0.930 . S
H264 C247 0.930 . S
H265 C248 0.931 . S
N266 C228 1.343 . S
N266 C249 1.343 . S
N267 C235 1.343 . S
N267 C242 1.343 . S
C268 C269 1.384 . S
C268 C270 1.384 . S
C268 H296 0.931 . S
C269 C268 1.384 . S
C269 C272 1.382 . S
C270 C268 1.384 . S
C270 C271 1.381 . S
C270 H297 0.930 . S
C271 C270 1.381 . S
C271 C273 1.381 . S
C271 C274 1.487 . S
C272 C269 1.382 . S
C272 C273 1.387 . S
C272 H298 0.930 . S
C273 C271 1.381 . S
C273 C272 1.387 . S
C273 H299 0.931 . S
C274 C271 1.487 . S
C274 C281 1.399 . S
C274 N312 1.343 . S
C275 C276 1.384 . S
C275 C277 1.384 . S
C275 H300 0.931 . S
C276 C275 1.384 . S
C276 C279 1.382 . S
C277 C275 1.384 . S
C277 C278 1.381 . S
C277 H301 0.930 . S
C278 C277 1.381 . S
C278 C280 1.381 . S
C278 C281 1.487 . S
C279 C276 1.382 . S
C279 C280 1.387 . S
C279 H302 0.930 . S
C280 C278 1.381 . S
C280 C279 1.387 . S
C280 H303 0.931 . S
C281 C274 1.399 . S
C281 C278 1.487 . S
C281 N313 1.343 . S
C282 C283 1.384 . S
C282 C284 1.384 . S
C282 H304 0.931 . S
C283 C282 1.384 . S
C283 C286 1.382 . S
C284 C282 1.384 . S
C284 C285 1.381 . S
C284 H305 0.930 . S
C285 C284 1.381 . S
C285 C287 1.381 . S
C285 C288 1.487 . S
C286 C283 1.382 . S
C286 C287 1.387 . S
C286 H306 0.930 . S
C287 C285 1.381 . S
C287 C286 1.387 . S
C287 H307 0.931 . S
C288 C285 1.487 . S
C288 C295 1.399 . S
C288 N313 1.343 . S
C289 C290 1.384 . S
C289 C291 1.384 . S
C289 H308 0.931 . S
C290 C289 1.384 . S
C290 C293 1.382 . S
C291 C289 1.384 . S
C291 C292 1.381 . S
C291 H309 0.930 . S
C292 C291 1.381 . S
C292 C294 1.381 . S
C292 C295 1.487 . S
C293 C290 1.382 . S
C293 C294 1.387 . S
C293 H310 0.930 . S
C294 C292 1.381 . S
C294 C293 1.387 . S
C294 H311 0.931 . S
C295 C288 1.399 . S
C295 C292 1.487 . S
C295 N312 1.343 . S
H296 C268 0.931 . S
H297 C270 0.930 . S
H298 C272 0.930 . S
H299 C273 0.931 . S
H300 C275 0.931 . S
H301 C277 0.930 . S
H302 C279 0.930 . S
H303 C280 0.931 . S
H304 C282 0.931 . S
H305 C284 0.930 . S
H306 C286 0.930 . S
H307 C287 0.931 . S
H308 C289 0.931 . S
H309 C291 0.930 . S
H310 C293 0.930 . S
H311 C294 0.931 . S
N312 C274 1.343 . S
N312 C295 1.343 . S
N313 C281 1.343 . S
N313 C288 1.343 . S
C314 C315 1.384 . S
C314 C316 1.384 . S
C314 H342 0.931 . S
C315 C314 1.384 . S
C315 C318 1.382 . S
C316 C314 1.384 . S
C316 C317 1.381 . S
C316 H343 0.930 . S
C317 C316 1.381 . S
C317 C319 1.381 . S
C317 C320 1.487 . S
C318 C315 1.382 . S
C318 C319 1.387 . S
C318 H344 0.930 . S
C319 C317 1.381 . S
C319 C318 1.387 . S
C319 H345 0.931 . S
C320 C317 1.487 . S
C320 C327 1.399 . S
C320 N358 1.343 . S
C321 C322 1.384 . S
C321 C323 1.384 . S
C321 H346 0.931 . S
C322 C321 1.384 . S
C322 C325 1.382 . S
C323 C321 1.384 . S
C323 C324 1.381 . S
C323 H347 0.930 . S
C324 C323 1.381 . S
C324 C326 1.381 . S
C324 C327 1.487 . S
C325 C322 1.382 . S
C325 C326 1.387 . S
C325 H348 0.930 . S
C326 C324 1.381 . S
C326 C325 1.387 . S
C326 H349 0.931 . S
C327 C320 1.399 . S
C327 C324 1.487 . S
C327 N359 1.343 . S
C328 C329 1.384 . S
C328 C330 1.384 . S
C328 H350 0.931 . S
C329 C328 1.384 . S
C329 C332 1.382 . S
C330 C328 1.384 . S
C330 C331 1.381 . S
C330 H351 0.930 . S
C331 C330 1.381 . S
C331 C333 1.381 . S
C331 C334 1.487 . S
C332 C329 1.382 . S
C332 C333 1.387 . S
C332 H352 0.930 . S
C333 C331 1.381 . S
C333 C332 1.387 . S
C333 H353 0.931 . S
C334 C331 1.487 . S
C334 C341 1.399 . S
C334 N359 1.343 . S
C335 C336 1.384 . S
C335 C337 1.384 . S
C335 H354 0.931 . S
C336 C335 1.384 . S
C336 C339 1.382 . S
C337 C335 1.384 . S
C337 C338 1.381 . S
C337 H355 0.930 . S
C338 C337 1.381 . S
C338 C340 1.381 . S
C338 C341 1.487 . S
C339 C336 1.382 . S
C339 C340 1.387 . S
C339 H356 0.930 . S
C340 C338 1.381 . S
C340 C339 1.387 . S
C340 H357 0.931 . S
C341 C334 1.399 . S
C341 C338 1.487 . S
C341 N358 1.343 . S
H342 C314 0.931 . S
H343 C316 0.930 . S
H344 C318 0.930 . S
H345 C319 0.931 . S
H346 C321 0.931 . S
H347 C323 0.930 . S
H348 C325 0.930 . S
H349 C326 0.931 . S
H350 C328 0.931 . S
H351 C330 0.930 . S
H352 C332 0.930 . S
H353 C333 0.931 . S
H354 C335 0.931 . S
H355 C337 0.930 . S
H356 C339 0.930 . S
H357 C340 0.931 . S
N358 C320 1.343 . S
N358 C341 1.343 . S
N359 C327 1.343 . S
N359 C334 1.343 . S
C360 C361 1.387 . S
C360 H364 0.950 . S
C360 C369 1.390 . S
C361 C360 1.387 . S
C361 C363 1.387 . S
H362 C369 0.950 . S
C363 C361 1.387 . S
C363 C365 1.390 . S
C363 H367 0.950 . S
H364 C360 0.950 . S
C365 C363 1.390 . S
C365 C366 1.387 . S
C365 H368 0.950 . S
C366 C365 1.387 . S
C366 C369 1.387 . S
H367 C363 0.950 . S
H368 C365 0.950 . S
C369 C360 1.390 . S
C369 H362 0.950 . S
C369 C366 1.387 . S
C370 C371 1.387 . S
C370 H374 0.950 . S
C370 C379 1.390 . S
C371 C370 1.387 . S
C371 C373 1.387 . S
H372 C379 0.950 . S
C373 C371 1.387 . S
C373 C375 1.390 . S
C373 H377 0.950 . S
H374 C370 0.950 . S
C375 C373 1.390 . S
C375 C376 1.387 . S
C375 H378 0.950 . S
C376 C375 1.387 . S
C376 C379 1.387 . S
H377 C373 0.950 . S
H378 C375 0.950 . S
C379 C370 1.390 . S
C379 H372 0.950 . S
C379 C376 1.387 . S
C380 C381 1.387 . S
C380 H384 0.950 . S
C380 C389 1.390 . S
C381 C380 1.387 . S
C381 C383 1.387 . S
H382 C389 0.950 . S
C383 C381 1.387 . S
C383 C385 1.390 . S
C383 H387 0.950 . S
H384 C380 0.950 . S
C385 C383 1.390 . S
C385 C386 1.387 . S
C385 H388 0.950 . S
C386 C385 1.387 . S
C386 C389 1.387 . S
H387 C383 0.950 . S
H388 C385 0.950 . S
C389 C380 1.390 . S
C389 H382 0.950 . S
C389 C386 1.387 . S
C390 C391 1.387 . S
C390 H394 0.950 . S
C390 C399 1.390 . S
C391 C390 1.387 . S
C391 C393 1.387 . S
H392 C399 0.950 . S
C393 C391 1.387 . S
C393 C395 1.390 . S
C393 H397 0.950 . S
H394 C390 0.950 . S
C395 C393 1.390 . S
C395 C396 1.387 . S
C395 H398 0.950 . S
C396 C395 1.387 . S
C396 C399 1.387 . S
H397 C393 0.950 . S
H398 C395 0.950 . S
C399 C390 1.390 . S
C399 H392 0.950 . S
C399 C396 1.387 . S
C400 C401 1.387 . S
C400 H404 0.950 . S
C400 C409 1.390 . S
C401 C400 1.387 . S
C401 C403 1.387 . S
H402 C409 0.950 . S
C403 C401 1.387 . S
C403 C405 1.390 . S
C403 H407 0.950 . S
H404 C400 0.950 . S
C405 C403 1.390 . S
C405 C406 1.387 . S
C405 H408 0.950 . S
C406 C405 1.387 . S
C406 C409 1.387 . S
H407 C403 0.950 . S
H408 C405 0.950 . S
C409 C400 1.390 . S
C409 H402 0.950 . S
C409 C406 1.387 . S
C410 C411 1.387 . S
C410 H414 0.950 . S
C410 C419 1.390 . S
C411 C410 1.387 . S
C411 C413 1.387 . S
H412 C419 0.950 . S
C413 C411 1.387 . S
C413 C415 1.390 . S
C413 H417 0.950 . S
H414 C410 0.950 . S
C415 C413 1.390 . S
C415 C416 1.387 . S
C415 H418 0.950 . S
C416 C415 1.387 . S
C416 C419 1.387 . S
H417 C413 0.950 . S
H418 C415 0.950 . S
C419 C410 1.390 . S
C419 H412 0.950 . S
C419 C416 1.387 . S
C420 C421 1.387 . S
C420 H424 0.950 . S
C420 C429 1.390 . S
C421 C420 1.387 . S
C421 C423 1.387 . S
H422 C429 0.950 . S
C423 C421 1.387 . S
C423 C425 1.390 . S
C423 H427 0.950 . S
H424 C420 0.950 . S
C425 C423 1.390 . S
C425 C426 1.387 . S
C425 H428 0.950 . S
C426 C425 1.387 . S
C426 C429 1.387 . S
H427 C423 0.950 . S
H428 C425 0.950 . S
C429 C420 1.390 . S
C429 H422 0.950 . S
C429 C426 1.387 . S
C430 C431 1.387 . S
C430 H434 0.950 . S
C430 C439 1.390 . S
C431 C430 1.387 . S
C431 C433 1.387 . S
H432 C439 0.950 . S
C433 C431 1.387 . S
C433 C435 1.390 . S
C433 H437 0.950 . S
H434 C430 0.950 . S
C435 C433 1.390 . S
C435 C436 1.387 . S
C435 H438 0.950 . S
C436 C435 1.387 . S
C436 C439 1.387 . S
H437 C433 0.950 . S
H438 C435 0.950 . S
C439 C430 1.390 . S
C439 H432 0.950 . S
C439 C436 1.387 . S
C440 C441 1.387 . S
C440 H444 0.950 . S
C440 C449 1.390 . S
C441 C440 1.387 . S
C441 C443 1.387 . S
H442 C449 0.950 . S
C443 C441 1.387 . S
C443 C445 1.390 . S
C443 H447 0.950 . S
H444 C440 0.950 . S
C445 C443 1.390 . S
C445 C446 1.387 . S
C445 H448 0.950 . S
C446 C445 1.387 . S
C446 C449 1.387 . S
H447 C443 0.950 . S
H448 C445 0.950 . S
C449 C440 1.390 . S
C449 H442 0.950 . S
C449 C446 1.387 . S
C450 C451 1.387 . S
C450 H454 0.950 . S
C450 C459 1.390 . S
C451 C450 1.387 . S
C451 C453 1.387 . S
H452 C459 0.950 . S
C453 C451 1.387 . S
C453 C455 1.390 . S
C453 H457 0.950 . S
H454 C450 0.950 . S
C455 C453 1.390 . S
C455 C456 1.387 . S
C455 H458 0.950 . S
C456 C455 1.387 . S
C456 C459 1.387 . S
H457 C453 0.950 . S
H458 C455 0.950 . S
C459 C450 1.390 . S
C459 H452 0.950 . S
C459 C456 1.387 . S
C460 C461 1.387 . S
C460 H464 0.950 . S
C460 C469 1.390 . S
C461 C460 1.387 . S
C461 C463 1.387 . S
H462 C469 0.950 . S
C463 C461 1.387 . S
C463 C465 1.390 . S
C463 H467 0.950 . S
H464 C460 0.950 . S
C465 C463 1.390 . S
C465 C466 1.387 . S
C465 H468 0.950 . S
C466 C465 1.387 . S
C466 C469 1.387 . S
H467 C463 0.950 . S
H468 C465 0.950 . S
C469 C460 1.390 . S
C469 H462 0.950 . S
C469 C466 1.387 . S
C470 C471 1.387 . S
C470 H474 0.950 . S
C470 C479 1.390 . S
C471 C470 1.387 . S
C471 C473 1.387 . S
H472 C479 0.950 . S
C473 C471 1.387 . S
C473 C475 1.390 . S
C473 H477 0.950 . S
H474 C470 0.950 . S
C475 C473 1.390 . S
C475 C476 1.387 . S
C475 H478 0.950 . S
C476 C475 1.387 . S
C476 C479 1.387 . S
H477 C473 0.950 . S
H478 C475 0.950 . S
C479 C470 1.390 . S
C479 H472 0.950 . S
C479 C476 1.387 . S
C480 C481 1.387 . S
C480 H484 0.950 . S
C480 C489 1.390 . S
C481 C480 1.387 . S
C481 C483 1.387 . S
H482 C489 0.950 . S
C483 C481 1.387 . S
C483 C485 1.390 . S
C483 H487 0.950 . S
H484 C480 0.950 . S
C485 C483 1.390 . S
C485 C486 1.387 . S
C485 H488 0.950 . S
C486 C485 1.387 . S
C486 C489 1.387 . S
H487 C483 0.950 . S
H488 C485 0.950 . S
C489 C480 1.390 . S
C489 H482 0.950 . S
C489 C486 1.387 . S
C490 C491 1.387 . S
C490 H494 0.950 . S
C490 C499 1.390 . S
C491 C490 1.387 . S
C491 C493 1.387 . S
H492 C499 0.950 . S
C493 C491 1.387 . S
C493 C495 1.390 . S
C493 H497 0.950 . S
H494 C490 0.950 . S
C495 C493 1.390 . S
C495 C496 1.387 . S
C495 H498 0.950 . S
C496 C495 1.387 . S
C496 C499 1.387 . S
H497 C493 0.950 . S
H498 C495 0.950 . S
C499 C490 1.390 . S
C499 H492 0.950 . S
C499 C496 1.387 . S
C500 C501 1.387 . S
C500 H504 0.950 . S
C500 C509 1.390 . S
C501 C500 1.387 . S
C501 C503 1.387 . S
H502 C509 0.950 . S
C503 C501 1.387 . S
C503 C505 1.390 . S
C503 H507 0.950 . S
H504 C500 0.950 . S
C505 C503 1.390 . S
C505 C506 1.387 . S
C505 H508 0.950 . S
C506 C505 1.387 . S
C506 C509 1.387 . S
H507 C503 0.950 . S
H508 C505 0.950 . S
C509 C500 1.390 . S
C509 H502 0.950 . S
C509 C506 1.387 . S
C510 C511 1.387 . S
C510 H514 0.950 . S
C510 C519 1.390 . S
C511 C510 1.387 . S
C511 C513 1.387 . S
H512 C519 0.950 . S
C513 C511 1.387 . S
C513 C515 1.390 . S
C513 H517 0.950 . S
H514 C510 0.950 . S
C515 C513 1.390 . S
C515 C516 1.387 . S
C515 H518 0.950 . S
C516 C515 1.387 . S
C516 C519 1.387 . S
H517 C513 0.950 . S
H518 C515 0.950 . S
C519 C510 1.390 . S
C519 H512 0.950 . S
C519 C516 1.387 . S
C520 C521 1.387 . S
C520 H524 0.950 . S
C520 C529 1.390 . S
C521 C520 1.387 . S
C521 C523 1.387 . S
H522 C529 0.950 . S
C523 C521 1.387 . S
C523 C525 1.390 . S
C523 H527 0.950 . S
H524 C520 0.950 . S
C525 C523 1.390 . S
C525 C526 1.387 . S
C525 H528 0.950 . S
C526 C525 1.387 . S
C526 C529 1.387 . S
H527 C523 0.950 . S
H528 C525 0.950 . S
C529 C520 1.390 . S
C529 H522 0.950 . S
C529 C526 1.387 . S
C530 C531 1.387 . S
C530 H534 0.950 . S
C530 C539 1.390 . S
C531 C530 1.387 . S
C531 C533 1.387 . S
H532 C539 0.950 . S
C533 C531 1.387 . S
C533 C535 1.390 . S
C533 H537 0.950 . S
H534 C530 0.950 . S
C535 C533 1.390 . S
C535 C536 1.387 . S
C535 H538 0.950 . S
C536 C535 1.387 . S
C536 C539 1.387 . S
H537 C533 0.950 . S
H538 C535 0.950 . S
C539 C530 1.390 . S
C539 H532 0.950 . S
C539 C536 1.387 . S
C540 C541 1.387 . S
C540 H544 0.950 . S
C540 C549 1.390 . S
C541 C540 1.387 . S
C541 C543 1.387 . S
H542 C549 0.950 . S
C543 C541 1.387 . S
C543 C545 1.390 . S
C543 H547 0.950 . S
H544 C540 0.950 . S
C545 C543 1.390 . S
C545 C546 1.387 . S
C545 H548 0.950 . S
C546 C545 1.387 . S
C546 C549 1.387 . S
H547 C543 0.950 . S
H548 C545 0.950 . S
C549 C540 1.390 . S
C549 H542 0.950 . S
C549 C546 1.387 . S
C550 C551 1.387 . S
C550 H554 0.950 . S
C550 C559 1.390 . S
C551 C550 1.387 . S
C551 C553 1.387 . S
H552 C559 0.950 . S
C553 C551 1.387 . S
C553 C555 1.390 . S
C553 H557 0.950 . S
H554 C550 0.950 . S
C555 C553 1.390 . S
C555 C556 1.387 . S
C555 H558 0.950 . S
C556 C555 1.387 . S
C556 C559 1.387 . S
H557 C553 0.950 . S
H558 C555 0.950 . S
C559 C550 1.390 . S
C559 H552 0.950 . S
C559 C556 1.387 . S
C560 C561 1.387 . S
C560 H564 0.950 . S
C560 C569 1.390 . S
C561 C560 1.387 . S
C561 C563 1.387 . S
H562 C569 0.950 . S
C563 C561 1.387 . S
C563 C565 1.390 . S
C563 H567 0.950 . S
H564 C560 0.950 . S
C565 C563 1.390 . S
C565 C566 1.387 . S
C565 H568 0.950 . S
C566 C565 1.387 . S
C566 C569 1.387 . S
H567 C563 0.950 . S
H568 C565 0.950 . S
C569 C560 1.390 . S
C569 H562 0.950 . S
C569 C566 1.387 . S
C570 C571 1.387 . S
C570 H574 0.950 . S
C570 C579 1.390 . S
C571 C570 1.387 . S
C571 C573 1.387 . S
H572 C579 0.950 . S
C573 C571 1.387 . S
C573 C575 1.390 . S
C573 H577 0.950 . S
H574 C570 0.950 . S
C575 C573 1.390 . S
C575 C576 1.387 . S
C575 H578 0.950 . S
C576 C575 1.387 . S
C576 C579 1.387 . S
H577 C573 0.950 . S
H578 C575 0.950 . S
C579 C570 1.390 . S
C579 H572 0.950 . S
C579 C576 1.387 . S
C580 C581 1.387 . S
C580 H584 0.950 . S
C580 C589 1.390 . S
C581 C580 1.387 . S
C581 C583 1.387 . S
H582 C589 0.950 . S
C583 C581 1.387 . S
C583 C585 1.390 . S
C583 H587 0.950 . S
H584 C580 0.950 . S
C585 C583 1.390 . S
C585 C586 1.387 . S
C585 H588 0.950 . S
C586 C585 1.387 . S
C586 C589 1.387 . S
H587 C583 0.950 . S
H588 C585 0.950 . S
C589 C580 1.390 . S
C589 H582 0.950 . S
C589 C586 1.387 . S
C590 C591 1.387 . S
C590 H594 0.950 . S
C590 C599 1.390 . S
C591 C590 1.387 . S
C591 C593 1.387 . S
H592 C599 0.950 . S
C593 C591 1.387 . S
C593 C595 1.390 . S
C593 H597 0.950 . S
H594 C590 0.950 . S
C595 C593 1.390 . S
C595 C596 1.387 . S
C595 H598 0.950 . S
C596 C595 1.387 . S
C596 C599 1.387 . S
H597 C593 0.950 . S
H598 C595 0.950 . S
C599 C590 1.390 . S
C599 H592 0.950 . S
C599 C596 1.387 . S
C361 C13 1.787 . S
C366 C106 1.747 . S
C371 C27 1.787 . S
C376 C145 1.747 . S
C386 C177 1.719 . S
C381 C29 1.785 . S
C396 C223 1.721 . S
C391 C54 1.787 . S
C406 C290 1.747 . S
C401 C69 1.787 . S
C416 C329 1.747 . S
C411 C83 1.787 . S
C421 C15 1.785 . S
C426 C191 1.745 . S
C431 C41 1.785 . S
C436 C237 1.745 . S
C446 C276 1.722 . S
C441 C42 1.788 . S
C456 C315 1.722 . S
C451 C57 1.787 . S
C461 C71 1.786 . S
C466 C92 1.720 . S
C476 C131 1.718 . S
C471 C1 1.785 . S
C486 C230 1.746 . S
C481 C12 1.786 . S
C491 C26 1.785 . S
C496 C283 1.718 . S
C506 C336 1.719 . S
C501 C28 1.786 . S
C511 C55 1.787 . S
C516 C99 1.721 . S
C521 C68 1.787 . S
C526 C152 1.721 . S
C531 C82 1.787 . S
C536 C184 1.747 . S
C541 C14 1.786 . S
C546 C322 1.746 . S
C556 C85 1.747 . S
C551 C40 1.787 . S
C561 C43 1.786 . S
C566 C138 1.745 . S
C571 C56 1.787 . S
C576 C198 1.721 . S
C581 C70 1.786 . S
C586 C244 1.720 . S
C591 C0 1.787 . S
C596 C269 1.747 . S
