# Generated by pormake.
# Topology hwx, (6,3)-cn, num edge types: 1
# Building blocks:
#     Node 0, Type 0, BuildingBlock: OJICUG_clean_sbu_0, # of connection points: 6
#     Node 1, Type 0, BuildingBlock: OJICUG_clean_sbu_0, # of connection points: 6
#     Node 2, Type 0, BuildingBlock: OJICUG_clean_sbu_0, # of connection points: 6
#     Node 3, Type 0, BuildingBlock: OJICUG_clean_sbu_0, # of connection points: 6
#     Node 4, Type 1, BuildingBlock: QEWDON_clean_linker_0, # of connection points: 3
#     Node 5, Type 1, BuildingBlock: QEWDON_clean_linker_0, # of connection points: 3
#     Node 6, Type 1, BuildingBlock: QEWDON_clean_linker_0, # of connection points: 3
#     Node 7, Type 1, BuildingBlock: QEWDON_clean_linker_0, # of connection points: 3
#     Node 8, Type 1, BuildingBlock: QEWDON_clean_linker_0, # of connection points: 3
#     Node 9, Type 1, BuildingBlock: QEWDON_clean_linker_0, # of connection points: 3
#     Node 10, Type 1, BuildingBlock: QEWDON_clean_linker_0, # of connection points: 3
#     Node 11, Type 1, BuildingBlock: QEWDON_clean_linker_0, # of connection points: 3
#     Edge 12, Type (0, 1), BuildingBlock: XUDNAN_clean_linker_2, # of connection points: 2
#     Edge 13, Type (0, 1), BuildingBlock: XUDNAN_clean_linker_2, # of connection points: 2
#     Edge 14, Type (0, 1), BuildingBlock: XUDNAN_clean_linker_2, # of connection points: 2
#     Edge 15, Type (0, 1), BuildingBlock: XUDNAN_clean_linker_2, # of connection points: 2
#     Edge 16, Type (0, 1), BuildingBlock: XUDNAN_clean_linker_2, # of connection points: 2
#     Edge 17, Type (0, 1), BuildingBlock: XUDNAN_clean_linker_2, # of connection points: 2
#     Edge 18, Type (0, 1), BuildingBlock: XUDNAN_clean_linker_2, # of connection points: 2
#     Edge 19, Type (0, 1), BuildingBlock: XUDNAN_clean_linker_2, # of connection points: 2
#     Edge 20, Type (0, 1), BuildingBlock: XUDNAN_clean_linker_2, # of connection points: 2
#     Edge 21, Type (0, 1), BuildingBlock: XUDNAN_clean_linker_2, # of connection points: 2
#     Edge 22, Type (0, 1), BuildingBlock: XUDNAN_clean_linker_2, # of connection points: 2
#     Edge 23, Type (0, 1), BuildingBlock: XUDNAN_clean_linker_2, # of connection points: 2
#     Edge 24, Type (0, 1), BuildingBlock: XUDNAN_clean_linker_2, # of connection points: 2
#     Edge 25, Type (0, 1), BuildingBlock: XUDNAN_clean_linker_2, # of connection points: 2
#     Edge 26, Type (0, 1), BuildingBlock: XUDNAN_clean_linker_2, # of connection points: 2
#     Edge 27, Type (0, 1), BuildingBlock: XUDNAN_clean_linker_2, # of connection points: 2
#     Edge 28, Type (0, 1), BuildingBlock: XUDNAN_clean_linker_2, # of connection points: 2
#     Edge 29, Type (0, 1), BuildingBlock: XUDNAN_clean_linker_2, # of connection points: 2
#     Edge 30, Type (0, 1), BuildingBlock: XUDNAN_clean_linker_2, # of connection points: 2
#     Edge 31, Type (0, 1), BuildingBlock: XUDNAN_clean_linker_2, # of connection points: 2
#     Edge 32, Type (0, 1), BuildingBlock: XUDNAN_clean_linker_2, # of connection points: 2
#     Edge 33, Type (0, 1), BuildingBlock: XUDNAN_clean_linker_2, # of connection points: 2
#     Edge 34, Type (0, 1), BuildingBlock: XUDNAN_clean_linker_2, # of connection points: 2
#     Edge 35, Type (0, 1), BuildingBlock: XUDNAN_clean_linker_2, # of connection points: 2
# Relax obj value: 0.002
# Max RMSD: 0.100
# Mean RMSD: 0.076
data_MOF--net-hwx--node1-OJICUG_clean_sbu_0--node2-QEWDON_clean_linker_0--edge1-XUDNAN_clean_linker_2
_symmetry_space_group_name_H-M    P1
_symmetry_Int_Tables_number       1
_symmetry_cell_setting            triclinic
loop_
_symmetry_equiv_pos_as_xyz
'x, y, z'
_cell_length_a     55.836904
_cell_length_b     55.640209
_cell_length_c     19.869973
_cell_angle_alpha  92.486149
_cell_angle_beta   92.787847
_cell_angle_gamma 89.879036
loop_
_atom_site_label
_atom_site_type_symbol
_atom_site_fract_x
_atom_site_fract_y
_atom_site_fract_z
_atom_type_partial_charge
Sc0 Sc 0.2306 0.24172 0.07758 0.0
Sc1 Sc 0.199 0.19333 -0.00485 0.0
Sc2 Sc 0.23082 0.23341 0.9002 0.0
O3 O 0.22016 0.22287 0.99095 0.0
C4 C 0.22289 0.28448 0.9774 0.0
C5 C 0.17576 0.22994 0.1018 0.0
C6 C 0.17598 0.2197 0.86703 0.0
C7 C 0.23461 0.18744 0.12329 0.0
C8 C 0.27862 0.23942 -0.00515 0.0
C9 C 0.23352 0.1759 0.88135 0.0
O10 O 0.22347 0.27612 0.03591 0.0
O11 O 0.17524 0.21179 0.06081 0.0
O12 O 0.1944 0.23227 0.85664 0.0
O13 O 0.23994 0.20963 0.12949 0.0
O14 O 0.26797 0.23532 0.93725 0.0
O15 O 0.22036 0.17163 0.92956 0.0
O16 O 0.26743 0.24281 0.04887 0.0
O17 O 0.21981 0.17892 0.07796 0.0
O18 O 0.23802 0.19698 0.86322 0.0
O19 O 0.19455 0.2426 0.11474 0.0
O20 O 0.22549 0.27133 0.92428 0.0
O21 O 0.17577 0.20443 0.91279 0.0
Sc22 Sc 0.2666 0.74214 0.42409 0.0
Sc23 Sc 0.29754 0.69651 0.50902 0.0
Sc24 Sc 0.26923 0.74224 0.60148 0.0
O25 O 0.27777 0.72698 0.51131 0.0
C26 C 0.27557 0.78922 0.51596 0.0
C27 C 0.32014 0.7262 0.39378 0.0
C28 C 0.32397 0.72989 0.62645 0.0
C29 C 0.25954 0.68598 0.38656 0.0
C30 C 0.22028 0.74413 0.51488 0.0
C31 C 0.26867 0.68638 0.63509 0.0
O32 O 0.27705 0.77797 0.45933 0.0
O33 O 0.32082 0.7106 0.43852 0.0
O34 O 0.3067 0.74465 0.63449 0.0
O35 O 0.25438 0.708 0.3786 0.0
O36 O 0.23149 0.74019 0.57094 0.0
O37 O 0.2766 0.67874 0.57957 0.0
O38 O 0.23085 0.74708 0.46025 0.0
O39 O 0.27518 0.67925 0.43034 0.0
O40 O 0.26681 0.70861 0.65112 0.0
O41 O 0.30155 0.73881 0.38056 0.0
O42 O 0.27101 0.77867 0.56925 0.0
O43 O 0.32215 0.71104 0.58763 0.0
Sc44 Sc 0.77195 0.78464 0.9027 0.0
Sc45 Sc 0.80793 0.82565 0.00361 0.0
Sc46 Sc 0.77277 0.78284 0.07979 0.0
O47 O 0.78418 0.79772 -0.00468 0.0
C48 C 0.72448 0.78364 0.98576 0.0
C49 C 0.77277 0.84158 0.88259 0.0
C50 C 0.77301 0.83901 0.12179 0.0
C51 C 0.82759 0.79361 0.88124 0.0
C52 C 0.77875 0.73605 0.98288 0.0
C53 C 0.82856 0.79158 0.11786 0.0
O54 O 0.73512 0.78462 0.93079 0.0
O55 O 0.78828 0.84627 0.93021 0.0
O56 O 0.76579 0.81755 0.12728 0.0
O57 O 0.8077 0.78319 0.86527 0.0
O58 O 0.77809 0.74658 0.04085 0.0
O59 O 0.83066 0.80817 0.07667 0.0
O60 O 0.77657 0.74732 0.92846 0.0
O61 O 0.83002 0.80954 0.92878 0.0
O62 O 0.80872 0.78107 0.12566 0.0
O63 O 0.76535 0.82036 0.86684 0.0
O64 O 0.73571 0.78258 0.04289 0.0
O65 O 0.78849 0.84468 0.08039 0.0
Sc66 Sc 0.72666 0.2903 0.61381 0.0
Sc67 Sc 0.68766 0.32694 0.51939 0.0
Sc68 Sc 0.72608 0.28668 0.43515 0.0
O69 O 0.71354 0.30123 0.52274 0.0
C70 C 0.7742 0.29138 0.52946 0.0
C71 C 0.72199 0.34717 0.64158 0.0
C72 C 0.7212 0.3426 0.40383 0.0
C73 C 0.67047 0.29526 0.63736 0.0
C74 C 0.72372 0.2406 0.52634 0.0
C75 C 0.66964 0.29043 0.39943 0.0
O76 O 0.76351 0.29187 0.58472 0.0
O77 O 0.70593 0.3497 0.59503 0.0
O78 O 0.72999 0.32176 0.39189 0.0
O79 O 0.69117 0.28686 0.65268 0.0
O80 O 0.7245 0.25018 0.46935 0.0
O81 O 0.66644 0.30715 0.44355 0.0
O82 O 0.724 0.25282 0.58201 0.0
O83 O 0.66685 0.31005 0.5912 0.0
O84 O 0.6902 0.28136 0.38929 0.0
O85 O 0.73105 0.32681 0.65503 0.0
O86 O 0.76301 0.28978 0.47203 0.0
O87 O 0.70566 0.3466 0.44734 0.0
H88 H 0.23051 0.52563 0.10894 0.0
C89 C 0.23223 0.53474 0.06227 0.0
C90 C 0.22456 0.5587 0.05779 0.0
C91 C 0.24418 0.52328 0.00902 0.0
H92 H 0.22378 0.58968 -0.00358 0.0
C93 C 0.22821 0.57071 -0.00137 0.0
C94 C 0.2412 0.55997 0.94693 0.0
C95 C 0.24889 0.53608 0.95162 0.0
C96 C 0.25631 0.50017 0.0202 0.0
H97 H 0.26016 0.52816 0.91361 0.0
C98 C 0.24484 0.47811 0.00317 0.0
C99 C 0.2565 0.45631 0.01758 0.0
C100 C 0.27952 0.50038 0.05057 0.0
H101 H 0.28853 0.51727 0.06403 0.0
C102 C 0.29117 0.47885 0.06433 0.0
H103 H 0.22683 0.47795 0.98014 0.0
C104 C 0.27975 0.45694 0.04822 0.0
H105 H 0.28922 0.44043 0.05911 0.0
H106 H 0.30909 0.47913 0.08777 0.0
H107 H 0.98143 0.72098 0.40593 0.0
C108 C 0.97232 0.72599 0.4514 0.0
C109 C 0.94946 0.73663 0.44682 0.0
C110 C 0.98288 0.72079 0.51492 0.0
H111 H 0.92059 0.75177 0.50272 0.0
C112 C 0.93781 0.74271 0.50605 0.0
C113 C 0.94816 0.73777 0.5695 0.0
C114 C 0.97077 0.72678 0.57373 0.0
C115 C 0.00552 0.70715 0.52041 0.0
H116 H 0.97875 0.72245 0.62255 0.0
C117 C 0.02773 0.71827 0.51224 0.0
C118 C 0.04929 0.70534 0.52222 0.0
C119 C 0.00487 0.683 0.53763 0.0
H120 H 0.9879 0.67423 0.54448 0.0
C121 C 0.02608 0.66999 0.54627 0.0
H122 H 0.02819 0.73709 0.50029 0.0
C123 C 0.04814 0.68103 0.53877 0.0
H124 H 0.06432 0.67045 0.54538 0.0
H125 H 0.02543 0.65131 0.55914 0.0
H126 H 0.795 0.49904 0.94796 0.0
C127 C 0.79026 0.48937 0.99159 0.0
C128 C 0.77966 0.46646 0.98283 0.0
C129 C 0.79598 0.49911 0.05702 0.0
H130 H 0.7646 0.43687 0.03263 0.0
C131 C 0.77384 0.45399 0.03961 0.0
C132 C 0.77926 0.46339 0.10495 0.0
C133 C 0.79037 0.48601 0.11336 0.0
C134 C 0.80958 0.52196 0.06754 0.0
H135 H 0.79497 0.49334 0.16376 0.0
C136 C 0.8011 0.54363 0.04063 0.0
C137 C 0.8137 0.56537 0.05549 0.0
C138 C 0.83108 0.52212 0.10732 0.0
H139 H 0.83804 0.50567 0.1281 0.0
C140 C 0.84387 0.5434 0.12054 0.0
H141 H 0.78435 0.54372 0.0107 0.0
C142 C 0.83524 0.56487 0.09516 0.0
H143 H 0.84555 0.58116 0.10637 0.0
H144 H 0.86048 0.54328 0.15101 0.0
H145 H 0.0117 0.25032 0.57222 0.0
C146 C 0.02179 0.25396 0.52857 0.0
C147 C 0.047 0.25576 0.53461 0.0
C148 C 0.00968 0.25488 0.46511 0.0
H149 H 0.07913 0.25786 0.47969 0.0
C150 C 0.05975 0.25873 0.47615 0.0
C151 C 0.04793 0.26011 0.41242 0.0
C152 C 0.02274 0.25891 0.40803 0.0
C153 C 0.98475 0.24593 0.45487 0.0
H154 H 0.01315 0.25949 0.3594 0.0
C155 C 0.96486 0.25883 0.47866 0.0
C156 C 0.94139 0.24997 0.46381 0.0
C157 C 0.98105 0.22395 0.4184 0.0
H158 H 0.99612 0.21371 0.40005 0.0
C159 C 0.95802 0.21491 0.40528 0.0
H160 H 0.96758 0.2759 0.50634 0.0
C161 C 0.93833 0.22781 0.42754 0.0
H162 H 0.92059 0.22032 0.41667 0.0
H163 H 0.9554 0.19789 0.37741 0.0
H164 H 0.75542 0.99706 0.40682 0.0
C165 C 0.751 0.98954 0.45412 0.0
C166 C 0.741 0.96644 0.4541 0.0
C167 C 0.75591 1.00277 0.51515 0.0
H168 H 0.72931 0.93841 0.51604 0.0
C169 C 0.73593 0.95672 0.51565 0.0
C170 C 0.74136 0.9693 0.5771 0.0
C171 C 0.75137 0.99248 0.5768 0.0
C172 C 0.76829 0.02615 0.51375 0.0
H173 H 0.75622 1.00212 0.62405 0.0
C174 C 0.75579 0.04801 0.52207 0.0
C175 C 0.76753 0.07012 0.51452 0.0
C176 C 0.79261 0.02647 0.49924 0.0
H177 H 0.80242 0.0098 0.49223 0.0
C178 C 0.8044 0.04827 0.49308 0.0
H179 H 0.73689 0.04775 0.53209 0.0
C180 C 0.79199 0.06994 0.50036 0.0
H181 H 0.8016 0.08661 0.49545 0.0
H182 H 0.8232 0.04837 0.4821 0.0
H183 H 0.51829 0.21698 0.09303 0.0
C184 C 0.52736 0.22229 0.04901 0.0
C185 C 0.55029 0.23283 0.05653 0.0
C186 C 0.51668 0.21756 0.98413 0.0
H187 H 0.57895 0.24856 0.00478 0.0
C188 C 0.56183 0.23935 -0.00103 0.0
C189 C 0.5515 0.23469 0.93418 0.0
C190 C 0.52883 0.22377 0.92699 0.0
C191 C 0.49394 0.20401 0.97484 0.0
H192 H 0.52081 0.21968 0.87703 0.0
C193 C 0.47176 0.21484 0.9884 0.0
C194 C 0.45015 0.202 0.97447 0.0
C195 C 0.49448 0.18023 0.94858 0.0
H196 H 0.51139 0.17168 0.93759 0.0
C197 C 0.47327 0.16729 0.93619 0.0
H198 H 0.47132 0.23338 0.00747 0.0
C199 C 0.45127 0.17806 0.94883 0.0
H200 H 0.43508 0.16753 0.93895 0.0
H201 H 0.47386 0.14889 0.91631 0.0
H202 H 0.29528 0.02188 0.58139 0.0
C203 C 0.29239 0.03323 0.53878 0.0
C204 C 0.28122 0.0558 0.54771 0.0
C205 C 0.30073 0.02583 0.47524 0.0
H206 H 0.2707 0.08848 0.49931 0.0
C207 C 0.27834 0.07063 0.49263 0.0
C208 C 0.28663 0.06351 0.42977 0.0
C209 C 0.29768 0.04113 0.42086 0.0
C210 C 0.3142 1.00303 0.466 0.0
H211 H 0.3044 0.0359 0.37207 0.0
C212 C 0.30478 0.98096 0.48471 0.0
C213 C 0.31722 0.95928 0.47175 0.0
C214 C 0.33646 1.00329 0.43592 0.0
H215 H 0.3442 0.02006 0.42164 0.0
C216 C 0.34903 0.98197 0.42425 0.0
H217 H 0.28744 0.98061 0.50694 0.0
C218 C 0.33949 0.96011 0.44174 0.0
H219 H 0.34968 0.94382 0.43232 0.0
H220 H 0.36621 0.98239 0.40132 0.0
H221 H 0.48825 0.75273 0.93231 0.0
C222 C 0.4775 0.75471 0.97616 0.0
C223 C 0.45241 0.75762 0.96826 0.0
C224 C 0.48852 0.75234 0.04057 0.0
H225 H 0.41936 0.75837 0.02006 0.0
C226 C 0.43873 0.7584 0.02604 0.0
C227 C 0.44956 0.75651 0.0908 0.0
C228 C 0.47462 0.75442 0.09745 0.0
C229 C 0.51313 0.74256 0.04884 0.0
H230 H 0.48336 0.75268 0.14691 0.0
C231 C 0.5334 0.75482 0.02828 0.0
C232 C 0.55656 0.74527 0.04108 0.0
C233 C 0.51616 0.72042 0.07973 0.0
H234 H 0.50079 0.71056 0.09526 0.0
C235 C 0.53891 0.71071 0.09079 0.0
H236 H 0.53123 0.77197 0.00483 0.0
C237 C 0.55898 0.72305 0.07192 0.0
H238 H 0.5765 0.71508 0.08105 0.0
H239 H 0.541 0.69361 0.11439 0.0
H240 H 0.1691 0.25929 0.2159 0.0
H241 H 0.13091 0.2148 0.06083 0.0
H242 H 0.09322 0.22233 0.11645 0.0
H243 H 0.13839 0.23925 0.35129 0.0
H244 H 0.13712 0.26789 0.39696 0.0
H245 H 0.16095 0.26176 0.34092 0.0
H246 H 0.14962 0.29982 0.27577 0.0
H247 H 0.12572 0.3061 0.33181 0.0
H248 H 0.11934 0.30344 0.242 0.0
H249 H 0.061 0.2297 0.1944 0.0
H250 H 0.03585 0.23671 0.29065 0.0
H251 H 0.09293 0.27924 0.39388 0.0
C252 C 0.15272 0.25156 0.19302 0.0
C253 C 0.15308 0.23637 0.13407 0.0
C254 C 0.13125 0.22633 0.10622 0.0
C255 C 0.10963 0.23063 0.13713 0.0
C256 C 0.10993 0.24521 0.19574 0.0
C257 C 0.1308 0.25568 0.22342 0.0
C258 C 0.12619 0.26912 0.28966 0.0
C259 C 0.14157 0.25888 0.34814 0.0
C260 C 0.13047 0.29623 0.28447 0.0
C261 C 0.09976 0.26368 0.29581 0.0
C262 C 0.09077 0.2501 0.2406 0.0
C263 C 0.06757 0.24091 0.23718 0.0
C264 C 0.05327 0.24525 0.2923 0.0
C265 C 0.06205 0.2589 0.3503 0.0
C266 C 0.08549 0.26873 0.35076 0.0
H267 H 0.24243 0.64433 0.63169 0.0
H268 H 0.29154 0.68933 0.75704 0.0
H269 H 0.29332 0.65876 0.84337 0.0
H270 H 0.20877 0.62524 0.77128 0.0
H271 H 0.20327 0.59534 0.73531 0.0
H272 H 0.20721 0.61996 0.68101 0.0
H273 H 0.24146 0.59646 0.62414 0.0
H274 H 0.23791 0.57196 0.67928 0.0
H275 H 0.26672 0.58625 0.67526 0.0
H276 H 0.29101 0.62375 0.91377 0.0
H277 H 0.27816 0.58946 0.97777 0.0
H278 H 0.22741 0.56801 0.81429 0.0
C279 C 0.2534 0.64765 0.67762 0.0
C280 C 0.26685 0.66907 0.68825 0.0
C281 C 0.28093 0.67309 0.74871 0.0
C282 C 0.28229 0.65573 0.79749 0.0
C283 C 0.26911 0.63465 0.78543 0.0
C284 C 0.25439 0.63075 0.72807 0.0
C285 C 0.24047 0.60743 0.73117 0.0
C286 C 0.21332 0.61229 0.72963 0.0
C287 C 0.24704 0.58947 0.67405 0.0
C288 C 0.24963 0.599 0.79939 0.0
C289 C 0.26665 0.61475 0.8286 0.0
C290 C 0.27771 0.61127 0.89163 0.0
C291 C 0.27045 0.59172 0.92731 0.0
C292 C 0.25207 0.57616 0.90037 0.0
C293 C 0.24183 0.57947 0.83507 0.0
H294 H 0.83201 0.75976 0.22042 0.0
H295 H 0.87495 0.80546 0.10173 0.0
H296 H 0.91153 0.79229 0.164 0.0
H297 H 0.8641 0.77166 0.37503 0.0
H298 H 0.86144 0.74157 0.40393 0.0
H299 H 0.83895 0.75307 0.34593 0.0
H300 H 0.84578 0.71666 0.263 0.0
H301 H 0.8685 0.70518 0.32066 0.0
H302 H 0.8755 0.71055 0.23498 0.0
H303 H 0.9434 0.77607 0.2442 0.0
H304 H 0.96705 0.76056 0.34191 0.0
H305 H 0.90347 0.72528 0.40642 0.0
C306 C 0.8491 0.76687 0.20704 0.0
C307 C 0.85049 0.78368 0.15607 0.0
C308 C 0.87329 0.79264 0.14069 0.0
C309 C 0.89426 0.78512 0.17545 0.0
C310 C 0.89223 0.76856 0.22536 0.0
C311 C 0.87021 0.75962 0.24133 0.0
C312 C 0.87275 0.74323 0.30005 0.0
C313 C 0.85847 0.75297 0.35974 0.0
C314 C 0.86519 0.71737 0.27835 0.0
C315 C 0.89952 0.74488 0.31573 0.0
C316 C 0.91055 0.75926 0.2715 0.0
C317 C 0.93502 0.76454 0.27869 0.0
C318 C 0.94836 0.75555 0.33394 0.0
C319 C 0.93707 0.74173 0.38135 0.0
C320 C 0.91255 0.73575 0.37064 0.0
H321 H 0.75466 0.3501 0.74995 0.0
H322 H 0.70919 0.39403 0.62096 0.0
H323 H 0.72333 0.43047 0.68563 0.0
H324 H 0.74418 0.38212 0.9012 0.0
H325 H 0.77428 0.37896 0.93673 0.0
H326 H 0.76226 0.35669 0.87612 0.0
H327 H 0.79826 0.36322 0.8012 0.0
H328 H 0.81028 0.38573 0.86149 0.0
H329 H 0.80464 0.39302 0.77463 0.0
H330 H 0.73991 0.46201 0.77055 0.0
H331 H 0.75568 0.48508 0.87281 0.0
H332 H 0.79099 0.42073 0.94298 0.0
C333 C 0.74784 0.36737 0.73472 0.0
C334 C 0.73079 0.36908 0.68028 0.0
C335 C 0.72223 0.39213 0.66255 0.0
C336 C 0.73027 0.41302 0.69869 0.0
C337 C 0.74702 0.41067 0.75221 0.0
C338 C 0.75568 0.38841 0.77018 0.0
C339 C 0.77232 0.39058 0.83248 0.0
C340 C 0.76267 0.37625 0.89001 0.0
C341 C 0.79789 0.38267 0.81646 0.0
C342 C 0.77109 0.41741 0.84786 0.0
C343 C 0.75669 0.42881 0.80059 0.0
C344 C 0.75153 0.45336 0.80736 0.0
C345 C 0.76065 0.46637 0.86523 0.0
C346 C 0.77454 0.45466 0.91542 0.0
C347 C 0.78047 0.43012 0.90511 0.0
H348 H 0.66768 0.25959 0.28649 0.0
H349 H 0.62265 0.2998 0.4237 0.0
H350 H 0.58666 0.28499 0.35873 0.0
H351 H 0.63371 0.27172 0.13867 0.0
H352 H 0.63797 0.24253 0.09808 0.0
H353 H 0.66015 0.25435 0.15934 0.0
H354 H 0.65623 0.21616 0.22833 0.0
H355 H 0.63386 0.20431 0.16735 0.0
H356 H 0.6272 0.20754 0.25514 0.0
H357 H 0.55544 0.26858 0.27374 0.0
H358 H 0.53214 0.25374 0.17104 0.0
H359 H 0.59711 0.22344 0.09139 0.0
C360 C 0.65026 0.26504 0.3034 0.0
C361 C 0.64812 0.2809 0.36028 0.0
C362 C 0.6249 0.28777 0.38015 0.0
C363 C 0.60425 0.27931 0.34387 0.0
C364 C 0.60699 0.26385 0.28786 0.0
C365 C 0.6294 0.2568 0.26761 0.0
C366 C 0.62742 0.24144 0.20283 0.0
C367 C 0.64058 0.25322 0.14642 0.0
C368 C 0.63673 0.21584 0.21412 0.0
C369 C 0.6005 0.24159 0.18896 0.0
C370 C 0.58896 0.25431 0.23901 0.0
C371 C 0.56423 0.25826 0.23463 0.0
C372 C 0.55109 0.24967 0.17642 0.0
C373 C 0.56281 0.23749 0.12341 0.0
C374 C 0.58767 0.23273 0.13119 0.0
H375 H 0.21414 0.15301 0.76853 0.0
H376 H 0.27513 0.15242 0.91153 0.0
H377 H 0.29158 0.11677 0.84986 0.0
H378 H 0.20848 0.08733 0.74224 0.0
H379 H 0.20038 0.08919 0.65369 0.0
H380 H 0.19265 0.11333 0.71214 0.0
H381 H 0.21481 0.14387 0.64221 0.0
H382 H 0.2222 0.11992 0.58318 0.0
H383 H 0.24568 0.13842 0.62344 0.0
H384 H 0.30261 0.08319 0.76692 0.0
H385 H 0.30896 0.05704 0.66536 0.0
H386 H 0.23984 0.07876 0.57954 0.0
C387 C 0.23089 0.14519 0.78676 0.0
C388 C 0.24356 0.15523 0.84411 0.0
C389 C 0.26537 0.1448 0.86722 0.0
C390 C 0.27468 0.12452 0.8329 0.0
C391 C 0.26172 0.11487 0.77626 0.0
C392 C 0.24031 0.12492 0.75334 0.0
C393 C 0.23061 0.11215 0.68904 0.0
C394 C 0.20661 0.09976 0.69997 0.0
C395 C 0.2282 0.12963 0.63107 0.0
C396 C 0.25028 0.09387 0.67793 0.0
C397 C 0.2679 0.0954 0.72926 0.0
C398 C 0.28875 0.08155 0.727 0.0
C399 C 0.29212 0.06657 0.66944 0.0
C400 C 0.27482 0.06578 0.61492 0.0
C401 C 0.25325 0.07886 0.62081 0.0
H402 H 0.32827 0.75695 0.29053 0.0
H403 H 0.36288 0.70347 0.4158 0.0
H404 H 0.40018 0.70844 0.35838 0.0
H405 H 0.35596 0.73878 0.13918 0.0
H406 H 0.35973 0.76876 0.11047 0.0
H407 H 0.33565 0.76241 0.16408 0.0
H408 H 0.35075 0.79624 0.24936 0.0
H409 H 0.37494 0.80265 0.19599 0.0
H410 H 0.38133 0.79572 0.28281 0.0
H411 H 0.43264 0.71626 0.2841 0.0
H412 H 0.45882 0.72628 0.19427 0.0
H413 H 0.40537 0.77669 0.1185 0.0
C414 C 0.34373 0.74641 0.3061 0.0
C415 C 0.34245 0.72978 0.35778 0.0
C416 C 0.36317 0.71629 0.37638 0.0
C417 C 0.3846 0.71904 0.34428 0.0
C418 C 0.38526 0.73543 0.2937 0.0
C419 C 0.36549 0.74894 0.27448 0.0
C420 C 0.37111 0.76454 0.21641 0.0
C421 C 0.35463 0.75824 0.15384 0.0
C422 C 0.36943 0.79138 0.23742 0.0
C423 C 0.39687 0.75712 0.20533 0.0
C424 C 0.40461 0.74046 0.25102 0.0
C425 C 0.42705 0.72969 0.24879 0.0
C426 C 0.44196 0.73577 0.1977 0.0
C427 C 0.43453 0.7527 0.14949 0.0
C428 C 0.41174 0.76377 0.15442 0.0
H429 H 0.79567 0.88239 0.8477 0.0
H430 H 0.72684 0.84612 0.83169 0.0
H431 H 0.70947 0.87983 0.7685 0.0
H432 H 0.77329 0.94516 0.85822 0.0
H433 H 0.796 0.95585 0.80541 0.0
H434 H 0.80226 0.93078 0.85807 0.0
H435 H 0.81383 0.90453 0.75361 0.0
H436 H 0.80799 0.9296 0.70111 0.0
H437 H 0.79287 0.90136 0.68183 0.0
H438 H 0.70032 0.91556 0.70057 0.0
H439 H 0.70144 0.94739 0.61804 0.0
H440 H 0.77658 0.95986 0.67273 0.0
C441 C 0.77683 0.88182 0.8319 0.0
C442 C 0.76248 0.86182 0.84505 0.0
C443 C 0.7381 0.86131 0.82207 0.0
C444 C 0.72804 0.88048 0.78683 0.0
C445 C 0.74266 0.89994 0.77447 0.0
C446 C 0.76663 0.9006 0.79541 0.0
C447 C 0.77912 0.92207 0.76823 0.0
C448 C 0.7882 0.93949 0.82594 0.0
C449 C 0.79965 0.91389 0.72353 0.0
C450 C 0.75859 0.93301 0.72716 0.0
C451 C 0.73757 0.9203 0.73304 0.0
C452 C 0.71657 0.92583 0.69623 0.0
C453 C 0.71732 0.94401 0.64976 0.0
C454 C 0.739 0.95624 0.63985 0.0
C455 C 0.75963 0.95128 0.68089 0.0
H456 H 0.83008 0.76426 0.76667 0.0
H457 H 0.87421 0.80624 0.91451 0.0
H458 H 0.91039 0.79352 0.85643 0.0
H459 H 0.8718 0.71454 0.74476 0.0
H460 H 0.86486 0.71085 0.65537 0.0
H461 H 0.8424 0.72218 0.71064 0.0
H462 H 0.83703 0.76004 0.63971 0.0
H463 H 0.85932 0.74874 0.58406 0.0
H464 H 0.86284 0.77815 0.62499 0.0
H465 H 0.94182 0.77739 0.77992 0.0
H466 H 0.96548 0.76132 0.68575 0.0
H467 H 0.90088 0.72981 0.58935 0.0
C468 C 0.84733 0.7707 0.78712 0.0
C469 C 0.84922 0.78626 0.84521 0.0
C470 C 0.87221 0.79438 0.86992 0.0
C471 C 0.89294 0.78714 0.83757 0.0
C472 C 0.89043 0.77175 0.78058 0.0
C473 C 0.86821 0.76373 0.75535 0.0
C474 C 0.87033 0.74826 0.69144 0.0
C475 C 0.86185 0.72242 0.70117 0.0
C476 C 0.85657 0.75947 0.63153 0.0
C477 C 0.89714 0.7492 0.6841 0.0
C478 C 0.9085 0.76258 0.7364 0.0
C479 C 0.93317 0.76671 0.73894 0.0
C480 C 0.94648 0.75742 0.68558 0.0
C481 C 0.93498 0.7444 0.63045 0.0
C482 C 0.91011 0.7398 0.63081 0.0
H483 H 0.74832 0.34356 0.29048 0.0
H484 H 0.71406 0.38983 0.43929 0.0
H485 H 0.72808 0.42547 0.38442 0.0
H486 H 0.80061 0.382 0.27266 0.0
H487 H 0.80138 0.37592 0.18295 0.0
H488 H 0.78991 0.35358 0.23599 0.0
H489 H 0.75005 0.35206 0.16344 0.0
H490 H 0.76143 0.3743 0.11012 0.0
H491 H 0.73354 0.37948 0.15038 0.0
H492 H 0.74403 0.45636 0.31174 0.0
H493 H 0.75929 0.48029 0.22114 0.0
H494 H 0.78387 0.41468 0.12003 0.0
C495 C 0.74392 0.36117 0.31173 0.0
C496 C 0.73 0.36374 0.36918 0.0
C497 C 0.72452 0.38721 0.39507 0.0
C498 C 0.73254 0.40769 0.36455 0.0
C499 C 0.74608 0.40456 0.30803 0.0
C500 C 0.7517 0.38196 0.28156 0.0
C501 C 0.76556 0.38382 0.21827 0.0
C502 C 0.79087 0.3732 0.22809 0.0
C503 C 0.75182 0.3717 0.15694 0.0
C504 C 0.76643 0.41092 0.21303 0.0
C505 C 0.75531 0.42254 0.26572 0.0
C506 C 0.75301 0.44751 0.27044 0.0
C507 C 0.76186 0.46098 0.21901 0.0
C508 C 0.77275 0.44942 0.16349 0.0
C509 C 0.77548 0.42407 0.16156 0.0
H510 H 0.16613 0.2534 0.77106 0.0
H511 H 0.13438 0.19395 0.87018 0.0
H512 H 0.09654 0.19967 0.80439 0.0
H513 H 0.1119 0.29046 0.76117 0.0
H514 H 0.11792 0.301 0.67915 0.0
H515 H 0.1424 0.29323 0.73663 0.0
H516 H 0.15861 0.26323 0.64626 0.0
H517 H 0.13431 0.27106 0.58846 0.0
H518 H 0.13907 0.24009 0.60861 0.0
H519 H 0.06297 0.20979 0.72296 0.0
H520 H 0.0368 0.2226 0.62784 0.0
H521 H 0.08902 0.27698 0.58528 0.0
C522 C 0.15121 0.24163 0.77915 0.0
C523 C 0.15338 0.22321 0.82598 0.0
C524 C 0.13332 0.20822 0.8348 0.0
C525 C 0.11163 0.21137 0.79784 0.0
C526 C 0.11009 0.22971 0.75242 0.0
C527 C 0.12931 0.24459 0.74283 0.0
C528 C 0.12311 0.26228 0.68874 0.0
C529 C 0.12388 0.28828 0.71821 0.0
C530 C 0.13976 0.25895 0.62952 0.0
C531 C 0.09766 0.25456 0.66842 0.0
C532 C 0.09042 0.23589 0.70619 0.0
C533 C 0.06825 0.22469 0.6937 0.0
C534 C 0.05336 0.23228 0.63981 0.0
C535 C 0.06067 0.25094 0.59899 0.0
C536 C 0.08285 0.26264 0.61525 0.0
H537 H 0.2732 0.63919 0.36408 0.0
H538 H 0.21758 0.69043 0.30985 0.0
H539 H 0.1975 0.65926 0.23485 0.0
H540 H 0.2788 0.61459 0.20354 0.0
H541 H 0.28466 0.58437 0.22924 0.0
H542 H 0.29208 0.60947 0.28622 0.0
H543 H 0.26606 0.59119 0.37586 0.0
H544 H 0.25822 0.5662 0.31827 0.0
H545 H 0.23498 0.58428 0.35492 0.0
H546 H 0.18621 0.62427 0.15616 0.0
H547 H 0.18735 0.59038 0.07173 0.0
H548 H 0.25036 0.56219 0.17698 0.0
C549 C 0.2565 0.64374 0.33763 0.0
C550 C 0.24688 0.66722 0.34322 0.0
C551 C 0.2253 0.67257 0.30641 0.0
C552 C 0.21363 0.6549 0.26422 0.0
C553 C 0.22371 0.63196 0.25953 0.0
C554 C 0.24476 0.62642 0.295 0.0
C555 C 0.25356 0.60149 0.275 0.0
C556 C 0.27875 0.60256 0.2468 0.0
C557 C 0.25317 0.58481 0.33458 0.0
C558 C 0.2347 0.5942 0.22069 0.0
C559 C 0.21729 0.61177 0.21365 0.0
C560 C 0.19944 0.61018 0.1621 0.0
C561 C 0.20013 0.59083 0.11456 0.0
C562 C 0.21869 0.57349 0.11858 0.0
C563 C 0.23548 0.57468 0.17408 0.0
H564 H 0.33466 0.76304 0.73109 0.0
H565 H 0.36644 0.70684 0.60558 0.0
H566 H 0.4049 0.71236 0.66987 0.0
H567 H 0.38948 0.80123 0.75583 0.0
H568 H 0.3833 0.80915 0.8422 0.0
H569 H 0.35892 0.80308 0.78101 0.0
H570 H 0.34259 0.77056 0.85636 0.0
H571 H 0.36682 0.77659 0.91767 0.0
H572 H 0.36206 0.74646 0.88265 0.0
H573 H 0.43825 0.72012 0.75537 0.0
H574 H 0.46353 0.72872 0.85834 0.0
H575 H 0.41157 0.78159 0.92589 0.0
C576 C 0.34982 0.75223 0.71628 0.0
C577 C 0.34741 0.7345 0.6632 0.0
C578 C 0.36768 0.72049 0.64615 0.0
C579 C 0.38973 0.7236 0.68206 0.0
C580 C 0.3914 0.74093 0.73466 0.0
C581 C 0.37205 0.75509 0.75169 0.0
C582 C 0.37815 0.771 0.81398 0.0
C583 C 0.37742 0.7977 0.79723 0.0
C584 C 0.36142 0.76583 0.87101 0.0
C585 C 0.40359 0.76283 0.83069 0.0
C586 C 0.411 0.74574 0.78373 0.0
C587 C 0.43291 0.7339 0.79173 0.0
C588 C 0.44729 0.73908 0.85036 0.0
C589 C 0.43972 0.75598 0.90043 0.0
C590 C 0.41794 0.76858 0.88878 0.0
H591 H 0.79377 0.88166 0.16749 0.0
H592 H 0.72856 0.83965 0.17308 0.0
H593 H 0.71091 0.87149 0.24561 0.0
H594 H 0.79546 0.90039 0.33805 0.0
H595 H 0.80731 0.92991 0.32579 0.0
H596 H 0.81345 0.90543 0.26707 0.0
H597 H 0.79583 0.93029 0.16896 0.0
H598 H 0.78939 0.95478 0.22774 0.0
H599 H 0.76576 0.94198 0.17247 0.0
H600 H 0.7014 0.9061 0.32336 0.0
H601 H 0.70237 0.93886 0.41132 0.0
H602 H 0.77425 0.95779 0.35923 0.0
C603 C 0.77562 0.87939 0.18305 0.0
C604 C 0.76244 0.8583 0.16435 0.0
C605 C 0.73897 0.85567 0.18695 0.0
C606 C 0.72871 0.87375 0.22759 0.0
C607 C 0.74221 0.89428 0.24545 0.0
C608 C 0.76524 0.89711 0.22451 0.0
C609 C 0.77684 0.91965 0.2568 0.0
C610 C 0.7996 0.91347 0.29947 0.0
C611 C 0.78227 0.93775 0.20328 0.0
C612 C 0.75695 0.9287 0.30055 0.0
C613 C 0.73695 0.91408 0.29203 0.0
C614 C 0.71685 0.91783 0.33 0.0
C615 C 0.71756 0.93645 0.37978 0.0
C616 C 0.73832 0.95089 0.39171 0.0
C617 C 0.75794 0.94741 0.35007 0.0
H618 H 0.66925 0.26586 0.74575 0.0
H619 H 0.62339 0.30557 0.60664 0.0
H620 H 0.58781 0.29136 0.66108 0.0
H621 H 0.62951 0.21432 0.75549 0.0
H622 H 0.63636 0.21098 0.84418 0.0
H623 H 0.65848 0.22321 0.79214 0.0
H624 H 0.66205 0.2613 0.87196 0.0
H625 H 0.64008 0.2491 0.92437 0.0
H626 H 0.63545 0.27832 0.89018 0.0
H627 H 0.55703 0.27429 0.73302 0.0
H628 H 0.53374 0.25752 0.82282 0.0
H629 H 0.59924 0.2284 0.91349 0.0
C630 C 0.65175 0.2715 0.72654 0.0
C631 C 0.64925 0.28688 0.67187 0.0
C632 C 0.62592 0.29388 0.64858 0.0
C633 C 0.6055 0.28579 0.67889 0.0
C634 C 0.60858 0.27064 0.73243 0.0
C635 C 0.63109 0.26363 0.75633 0.0
C636 C 0.62941 0.24811 0.81663 0.0
C637 C 0.63901 0.22264 0.80115 0.0
C638 C 0.64252 0.25992 0.87949 0.0
C639 C 0.60252 0.24792 0.82349 0.0
C640 C 0.59079 0.26078 0.774 0.0
C641 C 0.56597 0.26398 0.77176 0.0
C642 C 0.55287 0.25427 0.82263 0.0
C643 C 0.56467 0.24172 0.87507 0.0
C644 C 0.58973 0.23805 0.87422 0.0
H645 H 0.22039 0.14213 0.15395 0.0
H646 H 0.27708 0.19481 0.19528 0.0
H647 H 0.29866 0.16652 0.26874 0.0
H648 H 0.22 0.12176 0.32065 0.0
H649 H 0.2139 0.09083 0.29493 0.0
H650 H 0.20388 0.11453 0.24155 0.0
H651 H 0.22656 0.09463 0.14286 0.0
H652 H 0.23688 0.07099 0.19631 0.0
H653 H 0.2582 0.08858 0.15416 0.0
H654 H 0.31338 0.13349 0.34051 0.0
H655 H 0.31836 0.09909 0.41489 0.0
H656 H 0.25194 0.06816 0.32969 0.0
C657 C 0.23744 0.14763 0.17804 0.0
C658 C 0.2471 0.17065 0.16873 0.0
C659 C 0.26928 0.17732 0.20192 0.0
C660 C 0.28178 0.1613 0.24327 0.0
C661 C 0.27181 0.13874 0.25114 0.0
C662 C 0.25004 0.13197 0.22011 0.0
C663 C 0.2425 0.10733 0.24086 0.0
C664 C 0.21866 0.10871 0.27664 0.0
C665 C 0.24095 0.08932 0.1799 0.0
C666 C 0.26328 0.10147 0.28922 0.0
C667 C 0.28017 0.11969 0.29349 0.0
C668 C 0.30045 0.11897 0.33706 0.0
C669 C 0.30322 0.0994 0.37872 0.0
C670 C 0.28578 0.08099 0.37644 0.0
C671 C 0.26577 0.08181 0.33062 0.0
H672 H 0.23256 0.31887 0.07706 0.0
H673 H 0.21074 0.30996 0.86486 0.0
H674 H 0.21239 0.35412 0.85477 0.0
H675 H 0.20196 0.3767 0.11248 0.0
H676 H 0.22651 0.38764 0.1676 0.0
H677 H 0.22008 0.35588 0.15991 0.0
H678 H 0.2638 0.34743 0.12732 0.0
H679 H 0.27033 0.37908 0.13459 0.0
H680 H 0.27546 0.36229 0.05701 0.0
H681 H 0.21981 0.39927 0.86647 0.0
H682 H 0.23456 0.4405 0.89727 0.0
H683 H 0.25281 0.41881 0.10027 0.0
C684 C 0.22748 0.32618 0.02878 0.0
C685 C 0.22125 0.31094 0.97191 0.0
C686 C 0.21543 0.32128 0.90924 0.0
C687 C 0.21623 0.34635 0.90311 0.0
C688 C 0.22296 0.3608 0.96002 0.0
C689 C 0.22851 0.35101 0.02164 0.0
C690 C 0.23756 0.36997 0.07352 0.0
C691 C 0.22051 0.37271 0.13181 0.0
C692 C 0.26331 0.36435 0.09959 0.0
C693 C 0.23682 0.39191 0.03121 0.0
C694 C 0.22794 0.38644 0.9662 0.0
C695 C 0.22655 0.40378 0.91743 0.0
C696 C 0.23488 0.42713 0.93533 0.0
C697 C 0.24481 0.43275 0.00104 0.0
C698 C 0.24533 0.41497 0.04964 0.0
H699 H 0.18981 0.72331 0.60021 0.0
H700 H 0.19061 0.7647 0.42012 0.0
H701 H 0.14652 0.76211 0.40769 0.0
H702 H 0.14544 0.68264 0.53839 0.0
H703 H 0.13128 0.68014 0.6174 0.0
H704 H 0.16262 0.68757 0.61697 0.0
H705 H 0.15535 0.72621 0.69071 0.0
H706 H 0.12396 0.71883 0.6917 0.0
H707 H 0.13305 0.74757 0.66302 0.0
H708 H 0.10257 0.75263 0.41003 0.0
H709 H 0.06231 0.73594 0.42554 0.0
H710 H 0.09012 0.7005 0.60335 0.0
C711 C 0.18067 0.73229 0.55904 0.0
C712 C 0.19369 0.74436 0.51143 0.0
C713 C 0.18105 0.75537 0.45731 0.0
C714 C 0.15598 0.75408 0.44992 0.0
C715 C 0.14373 0.74166 0.49695 0.0
C716 C 0.15563 0.73097 0.55051 0.0
C717 C 0.13839 0.71722 0.59112 0.0
C718 C 0.14482 0.6903 0.59091 0.0
C719 C 0.13765 0.72812 0.66342 0.0
C720 C 0.11505 0.72147 0.55126 0.0
C721 C 0.11845 0.73585 0.49762 0.0
C722 C 0.09964 0.74155 0.4523 0.0
C723 C 0.07681 0.73207 0.46165 0.0
C724 C 0.07302 0.71689 0.51556 0.0
C725 C 0.09244 0.71188 0.56129 0.0
H726 H 0.79208 0.70688 0.08609 0.0
H727 H 0.77287 0.7049 0.87155 0.0
H728 H 0.77764 0.66064 0.86711 0.0
H729 H 0.83743 0.66185 0.0786 0.0
H730 H 0.83043 0.6494 0.15755 0.0
H731 H 0.8246 0.68067 0.14368 0.0
H732 H 0.78014 0.67472 0.17085 0.0
H733 H 0.78579 0.64338 0.18455 0.0
H734 H 0.76251 0.65193 0.12419 0.0
H735 H 0.78466 0.61597 0.88712 0.0
H736 H 0.79612 0.57587 0.92822 0.0
H737 H 0.81102 0.60797 0.12861 0.0
C738 C 0.78873 0.69721 0.03808 0.0
C739 C 0.78196 0.70947 0.9792 0.0
C740 C 0.77807 0.69599 0.9174 0.0
C741 C 0.78064 0.67081 0.91442 0.0
C742 C 0.78722 0.65933 0.97359 0.0
C743 C 0.79136 0.67218 0.03413 0.0
C744 C 0.79904 0.65583 0.09016 0.0
C745 C 0.82438 0.66233 0.11917 0.0
C746 C 0.78077 0.65651 0.1457 0.0
C747 C 0.79875 0.63174 0.05173 0.0
C748 C 0.79166 0.634 0.9847 0.0
C749 C 0.79022 0.61404 0.93955 0.0
C750 C 0.79662 0.59132 0.96334 0.0
C751 C 0.80458 0.58882 0.03144 0.0
C752 C 0.80525 0.60933 0.07607 0.0
H753 H 0.80353 0.28202 0.4247 0.0
H754 H 0.80539 0.29961 0.6399 0.0
H755 H 0.84956 0.29577 0.64451 0.0
H756 H 0.8464 0.23697 0.43167 0.0
H757 H 0.85956 0.24368 0.35358 0.0
H758 H 0.82867 0.25096 0.36596 0.0
H759 H 0.83687 0.29543 0.34053 0.0
H760 H 0.86787 0.28826 0.32802 0.0
H761 H 0.86025 0.31179 0.38849 0.0
H762 H 0.89361 0.28627 0.62677 0.0
H763 H 0.93245 0.27018 0.58899 0.0
H764 H 0.90103 0.25896 0.38632 0.0
C765 C 0.81318 0.28561 0.47267 0.0
C766 C 0.80088 0.29127 0.53186 0.0
C767 C 0.81433 0.29532 0.59373 0.0
C768 C 0.83947 0.29328 0.59682 0.0
C769 C 0.85096 0.28723 0.53763 0.0
C770 C 0.83818 0.28351 0.47671 0.0
C771 C 0.85436 0.27523 0.42137 0.0
C772 C 0.8468 0.25023 0.39144 0.0
C773 C 0.85487 0.29379 0.36636 0.0
C774 C 0.87816 0.27422 0.46088 0.0
C775 C 0.87602 0.28155 0.52766 0.0
C776 C 0.89552 0.28079 0.57437 0.0
C777 C 0.91754 0.27175 0.55251 0.0
C778 C 0.91972 0.26333 0.48483 0.0
C779 C 0.89989 0.26525 0.43842 0.0
H780 H 0.74325 0.20773 0.43765 0.0
H781 H 0.7052 0.21347 0.62287 0.0
H782 H 0.70872 0.16952 0.63398 0.0
H783 H 0.71983 0.14802 0.37642 0.0
H784 H 0.7483 0.13877 0.3449 0.0
H785 H 0.73994 0.17009 0.34669 0.0
H786 H 0.7791 0.18084 0.41677 0.0
H787 H 0.78752 0.1496 0.41545 0.0
H788 H 0.78565 0.16627 0.49485 0.0
H789 H 0.71897 0.12526 0.62934 0.0
H790 H 0.737 0.08488 0.61229 0.0
H791 H 0.76944 0.10836 0.43238 0.0
C792 C 0.73511 0.19964 0.47957 0.0
C793 C 0.72371 0.21399 0.529 0.0
C794 C 0.71393 0.20281 0.58425 0.0
C795 C 0.71576 0.17785 0.59086 0.0
C796 C 0.72755 0.16427 0.54202 0.0
C797 C 0.7371 0.17478 0.48748 0.0
C798 C 0.75079 0.15655 0.44545 0.0
C799 C 0.739 0.15316 0.37414 0.0
C800 C 0.77733 0.16375 0.44303 0.0
C801 C 0.7479 0.13429 0.48562 0.0
C802 C 0.73409 0.13898 0.54051 0.0
C803 C 0.72963 0.12133 0.58616 0.0
C804 C 0.73986 0.09843 0.57599 0.0
C805 C 0.75465 0.09348 0.52116 0.0
C806 C 0.75833 0.11163 0.475 0.0
H807 H 0.30959 0.2202 0.90336 0.0
H808 H 0.30802 0.2576 0.09943 0.0
H809 H 0.35213 0.25487 0.112 0.0
H810 H 0.35421 0.17858 0.94936 0.0
H811 H 0.36838 0.17798 0.86971 0.0
H812 H 0.33697 0.18498 0.87315 0.0
H813 H 0.34391 0.22511 0.81549 0.0
H814 H 0.37538 0.2182 0.8117 0.0
H815 H 0.36599 0.24607 0.85197 0.0
H816 H 0.3965 0.24606 0.10589 0.0
H817 H 0.437 0.23044 0.08319 0.0
H818 H 0.40933 0.19856 0.89196 0.0
C819 C 0.31852 0.22823 0.94841 0.0
C820 C 0.30527 0.23928 0.00016 0.0
C821 C 0.31772 0.24909 0.05895 0.0
C822 C 0.34281 0.2477 0.06651 0.0
C823 C 0.35528 0.2364 0.01494 0.0
C824 C 0.34354 0.22682 0.95705 0.0
C825 C 0.36093 0.21424 0.91109 0.0
C826 C 0.35475 0.18736 0.90023 0.0
C827 C 0.36159 0.22665 0.84357 0.0
C828 C 0.38421 0.2179 0.95261 0.0
C829 C 0.38067 0.23095 0.01201 0.0
C830 C 0.39951 0.23598 0.05926 0.0
C831 C 0.42247 0.22713 0.04584 0.0
C832 C 0.42637 0.21322 0.98595 0.0
C833 C 0.40694 0.20894 0.93852 0.0
H834 H 0.29276 0.81823 0.42019 0.0
H835 H 0.2664 0.82026 0.62249 0.0
H836 H 0.27229 0.86419 0.63111 0.0
H837 H 0.33877 0.86189 0.45397 0.0
H838 H 0.33501 0.87517 0.37298 0.0
H839 H 0.32763 0.844 0.38136 0.0
H840 H 0.28474 0.85168 0.33116 0.0
H841 H 0.29197 0.88291 0.32269 0.0
H842 H 0.26654 0.8748 0.36941 0.0
H843 H 0.28168 0.908 0.61871 0.0
H844 H 0.29584 0.94797 0.58778 0.0
H845 H 0.31621 0.91725 0.39436 0.0
C846 C 0.28806 0.82789 0.46616 0.0
C847 C 0.27905 0.8157 0.52056 0.0
C848 C 0.27337 0.8291 0.58007 0.0
C849 C 0.27656 0.85412 0.58543 0.0
C850 C 0.2855 0.86554 0.53097 0.0
C851 C 0.29126 0.85286 0.47257 0.0
C852 C 0.30139 0.86935 0.42236 0.0
C853 C 0.32724 0.86217 0.40679 0.0
C854 C 0.28519 0.8697 0.35758 0.0
C855 C 0.30066 0.8932 0.46196 0.0
C856 C 0.29122 0.89068 0.52423 0.0
C857 C 0.28903 0.91021 0.56996 0.0
C858 C 0.29699 0.93286 0.55186 0.0
C859 C 0.3072 0.93572 0.48883 0.0
C860 C 0.30873 0.9156 0.44322 0.0
H861 H 0.69505 0.77432 0.08818 0.0
H862 H 0.69352 0.79136 0.87681 0.0
H863 H 0.64935 0.78821 0.87118 0.0
H864 H 0.65108 0.73005 0.0716 0.0
H865 H 0.63806 0.73746 0.15112 0.0
H866 H 0.66913 0.74393 0.14026 0.0
H867 H 0.66193 0.78872 0.17507 0.0
H868 H 0.63075 0.78237 0.18591 0.0
H869 H 0.63899 0.80543 0.13038 0.0
H870 H 0.60529 0.77984 0.8866 0.0
H871 H 0.56605 0.76483 0.92057 0.0
H872 H 0.59696 0.75347 0.12102 0.0
C873 C 0.68547 0.77782 0.04091 0.0
C874 C 0.69785 0.78316 0.98302 0.0
C875 C 0.68451 0.78724 0.92196 0.0
C876 C 0.65937 0.78562 0.91831 0.0
C877 C 0.64778 0.78001 0.97618 0.0
C878 C 0.66045 0.77619 0.03632 0.0
C879 C 0.64405 0.76856 0.08988 0.0
C880 C 0.651 0.74352 0.11461 0.0
C881 C 0.64393 0.7874 0.14879 0.0
C882 C 0.62027 0.76797 0.05 0.0
C883 C 0.62263 0.775 0.98482 0.0
C884 C 0.60319 0.77459 0.93778 0.0
C885 C 0.58096 0.76616 0.95749 0.0
C886 C 0.57854 0.758 0.02328 0.0
C887 C 0.59833 0.75958 0.07033 0.0
loop_
_geom_bond_atom_site_label_1
_geom_bond_atom_site_label_2
_geom_bond_distance
_geom_bond_site_symmetry_2
_ccdc_geom_bond_type
Sc0 O3 2.025 . S
Sc0 O10 2.105 . S
Sc0 O13 2.105 . S
Sc0 O16 2.105 . S
Sc0 O19 2.105 . S
Sc1 O3 2.025 . S
Sc1 O11 2.113 . S
Sc1 O15 2.097 1_554 S
Sc1 O17 2.113 . S
Sc1 O21 2.097 1_554 S
Sc2 O3 2.025 1_556 S
Sc2 O12 2.105 . S
Sc2 O14 2.105 . S
Sc2 O18 2.105 . S
Sc2 O20 2.105 . S
O3 Sc0 2.025 . S
O3 Sc1 2.025 . S
O3 Sc2 2.025 1_554 S
C4 O10 1.268 . S
C4 O20 1.268 1_554 S
C5 O11 1.268 . S
C5 O19 1.268 . S
C6 O12 1.268 . S
C6 O21 1.268 . S
C7 O13 1.268 . S
C7 O17 1.268 . S
C8 O14 1.268 1_554 S
C8 O16 1.268 . S
C9 O15 1.268 . S
C9 O18 1.268 . S
O10 Sc0 2.105 . S
O10 C4 1.268 . S
O11 Sc1 2.113 . S
O11 C5 1.268 . S
O12 Sc2 2.105 . S
O12 C6 1.268 . S
O13 Sc0 2.105 . S
O13 C7 1.268 . S
O14 Sc2 2.105 . S
O14 C8 1.268 1_556 S
O15 Sc1 2.097 1_556 S
O15 C9 1.268 . S
O16 Sc0 2.105 . S
O16 C8 1.268 . S
O17 Sc1 2.113 . S
O17 C7 1.268 . S
O18 Sc2 2.105 . S
O18 C9 1.268 . S
O19 Sc0 2.105 . S
O19 C5 1.268 . S
O20 Sc2 2.105 . S
O20 C4 1.268 1_556 S
O21 Sc1 2.097 1_556 S
O21 C6 1.268 . S
Sc22 O25 2.025 . S
Sc22 O32 2.105 . S
Sc22 O35 2.105 . S
Sc22 O38 2.105 . S
Sc22 O41 2.105 . S
Sc23 O25 2.025 . S
Sc23 O33 2.105 . S
Sc23 O37 2.105 . S
Sc23 O39 2.105 . S
Sc23 O43 2.105 . S
Sc24 O25 2.025 . S
Sc24 O34 2.105 . S
Sc24 O36 2.105 . S
Sc24 O40 2.105 . S
Sc24 O42 2.105 . S
O25 Sc22 2.025 . S
O25 Sc23 2.025 . S
O25 Sc24 2.025 . S
C26 O32 1.268 . S
C26 O42 1.268 . S
C27 O33 1.268 . S
C27 O41 1.268 . S
C28 O34 1.268 . S
C28 O43 1.268 . S
C29 O35 1.268 . S
C29 O39 1.268 . S
C30 O36 1.268 . S
C30 O38 1.268 . S
C31 O37 1.268 . S
C31 O40 1.268 . S
O32 Sc22 2.105 . S
O32 C26 1.268 . S
O33 Sc23 2.105 . S
O33 C27 1.268 . S
O34 Sc24 2.105 . S
O34 C28 1.268 . S
O35 Sc22 2.105 . S
O35 C29 1.268 . S
O36 Sc24 2.105 . S
O36 C30 1.268 . S
O37 Sc23 2.105 . S
O37 C31 1.268 . S
O38 Sc22 2.105 . S
O38 C30 1.268 . S
O39 Sc23 2.105 . S
O39 C29 1.268 . S
O40 Sc24 2.105 . S
O40 C31 1.268 . S
O41 Sc22 2.105 . S
O41 C27 1.268 . S
O42 Sc24 2.105 . S
O42 C26 1.268 . S
O43 Sc23 2.105 . S
O43 C28 1.268 . S
Sc44 O47 2.025 1_556 S
Sc44 O54 2.105 . S
Sc44 O57 2.105 . S
Sc44 O60 2.105 . S
Sc44 O63 2.105 . S
Sc45 O47 2.025 . S
Sc45 O55 2.105 1_554 S
Sc45 O59 2.105 . S
Sc45 O61 2.105 1_554 S
Sc45 O65 2.105 . S
Sc46 O47 2.025 . S
Sc46 O56 2.105 . S
Sc46 O58 2.105 . S
Sc46 O62 2.105 . S
Sc46 O64 2.105 . S
O47 Sc44 2.025 1_554 S
O47 Sc45 2.025 . S
O47 Sc46 2.025 . S
C48 O54 1.268 1_554 S
C48 O64 1.268 . S
C49 O55 1.268 . S
C49 O63 1.268 . S
C50 O56 1.268 . S
C50 O65 1.268 . S
C51 O57 1.268 . S
C51 O61 1.268 . S
C52 O58 1.268 . S
C52 O60 1.268 1_554 S
C53 O59 1.268 . S
C53 O62 1.268 . S
O54 Sc44 2.105 . S
O54 C48 1.268 1_556 S
O55 Sc45 2.105 1_556 S
O55 C49 1.268 . S
O56 Sc46 2.105 . S
O56 C50 1.268 . S
O57 Sc44 2.105 . S
O57 C51 1.268 . S
O58 Sc46 2.105 . S
O58 C52 1.268 . S
O59 Sc45 2.105 . S
O59 C53 1.268 . S
O60 Sc44 2.105 . S
O60 C52 1.268 1_556 S
O61 Sc45 2.105 1_556 S
O61 C51 1.268 . S
O62 Sc46 2.105 . S
O62 C53 1.268 . S
O63 Sc44 2.105 . S
O63 C49 1.268 . S
O64 Sc46 2.105 . S
O64 C48 1.268 . S
O65 Sc45 2.105 . S
O65 C50 1.268 . S
Sc66 O69 2.025 . S
Sc66 O76 2.105 . S
Sc66 O79 2.105 . S
Sc66 O82 2.105 . S
Sc66 O85 2.105 . S
Sc67 O69 2.025 . S
Sc67 O77 2.105 . S
Sc67 O81 2.105 . S
Sc67 O83 2.105 . S
Sc67 O87 2.105 . S
Sc68 O69 2.025 . S
Sc68 O78 2.105 . S
Sc68 O80 2.105 . S
Sc68 O84 2.105 . S
Sc68 O86 2.105 . S
O69 Sc66 2.025 . S
O69 Sc67 2.025 . S
O69 Sc68 2.025 . S
C70 O76 1.268 . S
C70 O86 1.268 . S
C71 O77 1.268 . S
C71 O85 1.268 . S
C72 O78 1.268 . S
C72 O87 1.268 . S
C73 O79 1.268 . S
C73 O83 1.268 . S
C74 O80 1.268 . S
C74 O82 1.268 . S
C75 O81 1.268 . S
C75 O84 1.268 . S
O76 Sc66 2.105 . S
O76 C70 1.268 . S
O77 Sc67 2.105 . S
O77 C71 1.268 . S
O78 Sc68 2.105 . S
O78 C72 1.268 . S
O79 Sc66 2.105 . S
O79 C73 1.268 . S
O80 Sc68 2.105 . S
O80 C74 1.268 . S
O81 Sc67 2.105 . S
O81 C75 1.268 . S
O82 Sc66 2.105 . S
O82 C74 1.268 . S
O83 Sc67 2.105 . S
O83 C73 1.268 . S
O84 Sc68 2.105 . S
O84 C75 1.268 . S
O85 Sc66 2.105 . S
O85 C71 1.268 . S
O86 Sc68 2.105 . S
O86 C70 1.268 . S
O87 Sc67 2.105 . S
O87 C72 1.268 . S
H88 C89 0.949 . S
C89 H88 0.949 . S
C89 C90 1.395 . S
C89 C91 1.391 1_554 S
C90 C89 1.395 . S
C90 C93 1.390 . S
C91 C89 1.391 1_556 S
C91 C95 1.387 . S
C91 C96 1.491 . S
H92 C93 0.950 . S
C93 C90 1.390 . S
C93 H92 0.950 . S
C93 C94 1.378 1_554 S
C94 C93 1.378 1_556 S
C94 C95 1.409 . S
C95 C91 1.387 . S
C95 C94 1.409 . S
C95 H97 0.951 . S
C96 C91 1.491 . S
C96 C98 1.382 1_556 S
C96 C100 1.404 . S
H97 C95 0.951 . S
C98 C96 1.382 1_554 S
C98 C99 1.390 1_554 S
C98 H103 0.949 . S
C99 C98 1.390 1_556 S
C99 C104 1.399 . S
C100 C96 1.404 . S
C100 H101 0.950 . S
C100 C102 1.375 . S
H101 C100 0.950 . S
C102 C100 1.375 . S
C102 C104 1.382 . S
C102 H106 0.950 . S
H103 C98 0.949 . S
C104 C99 1.399 . S
C104 C102 1.382 . S
C104 H105 0.952 . S
H105 C104 0.952 . S
H106 C102 0.950 . S
H107 C108 0.949 . S
C108 H107 0.949 . S
C108 C109 1.395 . S
C108 C110 1.391 . S
C109 C108 1.395 . S
C109 C112 1.390 . S
C110 C108 1.391 . S
C110 C114 1.387 . S
C110 C115 1.491 1_655 S
H111 C112 0.950 . S
C112 C109 1.390 . S
C112 H111 0.950 . S
C112 C113 1.378 . S
C113 C112 1.378 . S
C113 C114 1.409 . S
C114 C110 1.387 . S
C114 C113 1.409 . S
C114 H116 0.951 . S
C115 C110 1.491 1_455 S
C115 C117 1.382 . S
C115 C119 1.404 . S
H116 C114 0.951 . S
C117 C115 1.382 . S
C117 C118 1.390 . S
C117 H122 0.949 . S
C118 C117 1.390 . S
C118 C123 1.399 . S
C119 C115 1.404 . S
C119 H120 0.950 . S
C119 C121 1.375 . S
H120 C119 0.950 . S
C121 C119 1.375 . S
C121 C123 1.382 . S
C121 H125 0.950 . S
H122 C117 0.949 . S
C123 C118 1.399 . S
C123 C121 1.382 . S
C123 H124 0.952 . S
H124 C123 0.952 . S
H125 C121 0.950 . S
H126 C127 0.949 . S
C127 H126 0.949 . S
C127 C128 1.395 . S
C127 C129 1.391 1_556 S
C128 C127 1.395 . S
C128 C131 1.390 1_556 S
C129 C127 1.391 1_554 S
C129 C133 1.387 . S
C129 C134 1.491 . S
H130 C131 0.950 . S
C131 C128 1.390 1_554 S
C131 H130 0.950 . S
C131 C132 1.378 . S
C132 C131 1.378 . S
C132 C133 1.409 . S
C133 C129 1.387 . S
C133 C132 1.409 . S
C133 H135 0.951 . S
C134 C129 1.491 . S
C134 C136 1.382 . S
C134 C138 1.404 . S
H135 C133 0.951 . S
C136 C134 1.382 . S
C136 C137 1.390 . S
C136 H141 0.949 1_554 S
C137 C136 1.390 . S
C137 C142 1.399 . S
C138 C134 1.404 . S
C138 H139 0.950 . S
C138 C140 1.375 . S
H139 C138 0.950 . S
C140 C138 1.375 . S
C140 C142 1.382 . S
C140 H144 0.950 . S
H141 C136 0.949 1_556 S
C142 C137 1.399 . S
C142 C140 1.382 . S
C142 H143 0.952 . S
H143 C142 0.952 . S
H144 C140 0.950 . S
H145 C146 0.949 . S
C146 H145 0.949 . S
C146 C147 1.395 . S
C146 C148 1.391 . S
C147 C146 1.395 . S
C147 C150 1.390 . S
C148 C146 1.391 . S
C148 C152 1.387 . S
C148 C153 1.491 1_455 S
H149 C150 0.950 . S
C150 C147 1.390 . S
C150 H149 0.950 . S
C150 C151 1.378 . S
C151 C150 1.378 . S
C151 C152 1.409 . S
C152 C148 1.387 . S
C152 C151 1.409 . S
C152 H154 0.951 . S
C153 C148 1.491 1_655 S
C153 C155 1.382 . S
C153 C157 1.404 . S
H154 C152 0.951 . S
C155 C153 1.382 . S
C155 C156 1.390 . S
C155 H160 0.949 . S
C156 C155 1.390 . S
C156 C161 1.399 . S
C157 C153 1.404 . S
C157 H158 0.950 . S
C157 C159 1.375 . S
H158 C157 0.950 . S
C159 C157 1.375 . S
C159 C161 1.382 . S
C159 H163 0.950 . S
H160 C155 0.949 . S
C161 C156 1.399 . S
C161 C159 1.382 . S
C161 H162 0.952 . S
H162 C161 0.952 . S
H163 C159 0.950 . S
H164 C165 0.949 . S
C165 H164 0.949 . S
C165 C166 1.395 . S
C165 C167 1.391 . S
C166 C165 1.395 . S
C166 C169 1.390 . S
C167 C165 1.391 . S
C167 C171 1.387 . S
C167 C172 1.491 1_565 S
H168 C169 0.950 . S
C169 C166 1.390 . S
C169 H168 0.950 . S
C169 C170 1.378 . S
C170 C169 1.378 . S
C170 C171 1.409 . S
C171 C167 1.387 . S
C171 C170 1.409 . S
C171 H173 0.951 . S
C172 C167 1.491 1_545 S
C172 C174 1.382 . S
C172 C176 1.404 . S
H173 C171 0.951 . S
C174 C172 1.382 . S
C174 C175 1.390 . S
C174 H179 0.949 . S
C175 C174 1.390 . S
C175 C180 1.399 . S
C176 C172 1.404 . S
C176 H177 0.950 . S
C176 C178 1.375 . S
H177 C176 0.950 . S
C178 C176 1.375 . S
C178 C180 1.382 . S
C178 H182 0.950 . S
H179 C174 0.949 . S
C180 C175 1.399 . S
C180 C178 1.382 . S
C180 H181 0.952 . S
H181 C180 0.952 . S
H182 C178 0.950 . S
H183 C184 0.949 . S
C184 H183 0.949 . S
C184 C185 1.395 . S
C184 C186 1.391 1_554 S
C185 C184 1.395 . S
C185 C188 1.390 . S
C186 C184 1.391 1_556 S
C186 C190 1.387 . S
C186 C191 1.491 . S
H187 C188 0.950 . S
C188 C185 1.390 . S
C188 H187 0.950 . S
C188 C189 1.378 1_554 S
C189 C188 1.378 1_556 S
C189 C190 1.409 . S
C190 C186 1.387 . S
C190 C189 1.409 . S
C190 H192 0.951 . S
C191 C186 1.491 . S
C191 C193 1.382 1_556 S
C191 C195 1.404 . S
H192 C190 0.951 . S
C193 C191 1.382 1_554 S
C193 C194 1.390 1_554 S
C193 H198 0.949 . S
C194 C193 1.390 1_556 S
C194 C199 1.399 . S
C195 C191 1.404 . S
C195 H196 0.950 . S
C195 C197 1.375 . S
H196 C195 0.950 . S
C197 C195 1.375 . S
C197 C199 1.382 . S
C197 H201 0.950 . S
H198 C193 0.949 . S
C199 C194 1.399 . S
C199 C197 1.382 . S
C199 H200 0.952 . S
H200 C199 0.952 . S
H201 C197 0.950 . S
H202 C203 0.949 . S
C203 H202 0.949 . S
C203 C204 1.395 . S
C203 C205 1.391 . S
C204 C203 1.395 . S
C204 C207 1.390 . S
C205 C203 1.391 . S
C205 C209 1.387 . S
C205 C210 1.491 1_545 S
H206 C207 0.950 . S
C207 C204 1.390 . S
C207 H206 0.950 . S
C207 C208 1.378 . S
C208 C207 1.378 . S
C208 C209 1.409 . S
C209 C205 1.387 . S
C209 C208 1.409 . S
C209 H211 0.951 . S
C210 C205 1.491 1_565 S
C210 C212 1.382 . S
C210 C214 1.404 . S
H211 C209 0.951 . S
C212 C210 1.382 . S
C212 C213 1.390 . S
C212 H217 0.949 . S
C213 C212 1.390 . S
C213 C218 1.399 . S
C214 C210 1.404 . S
C214 H215 0.950 . S
C214 C216 1.375 . S
H215 C214 0.950 . S
C216 C214 1.375 . S
C216 C218 1.382 . S
C216 H220 0.950 . S
H217 C212 0.949 . S
C218 C213 1.399 . S
C218 C216 1.382 . S
C218 H219 0.952 . S
H219 C218 0.952 . S
H220 C216 0.950 . S
H221 C222 0.949 . S
C222 H221 0.949 . S
C222 C223 1.395 . S
C222 C224 1.391 1_556 S
C223 C222 1.395 . S
C223 C226 1.390 1_556 S
C224 C222 1.391 1_554 S
C224 C228 1.387 . S
C224 C229 1.491 . S
H225 C226 0.950 . S
C226 C223 1.390 1_554 S
C226 H225 0.950 . S
C226 C227 1.378 . S
C227 C226 1.378 . S
C227 C228 1.409 . S
C228 C224 1.387 . S
C228 C227 1.409 . S
C228 H230 0.951 . S
C229 C224 1.491 . S
C229 C231 1.382 . S
C229 C233 1.404 . S
H230 C228 0.951 . S
C231 C229 1.382 . S
C231 C232 1.390 . S
C231 H236 0.949 1_554 S
C232 C231 1.390 . S
C232 C237 1.399 . S
C233 C229 1.404 . S
C233 H234 0.950 . S
C233 C235 1.375 . S
H234 C233 0.950 . S
C235 C233 1.375 . S
C235 C237 1.382 . S
C235 H239 0.950 . S
H236 C231 0.949 1_556 S
C237 C232 1.399 . S
C237 C235 1.382 . S
C237 H238 0.952 . S
H238 C237 0.952 . S
H239 C235 0.950 . S
H240 C252 0.930 . S
H241 C254 0.930 . S
H242 C255 0.930 . S
H243 C259 0.959 . S
H244 C259 0.959 . S
H245 C259 0.961 . S
H246 C260 0.960 . S
H247 C260 0.961 . S
H248 C260 0.959 . S
H249 C263 0.929 . S
H250 C264 0.931 . S
H251 C266 0.930 . S
C252 H240 0.930 . S
C252 C253 1.399 . S
C252 C257 1.399 . S
C253 C252 1.399 . S
C253 C254 1.376 . S
C254 H241 0.930 . S
C254 C253 1.376 . S
C254 C255 1.388 . S
C255 H242 0.930 . S
C255 C254 1.388 . S
C255 C256 1.390 . S
C256 C255 1.390 . S
C256 C257 1.394 . S
C256 C262 1.465 . S
C257 C252 1.399 . S
C257 C256 1.394 . S
C257 C258 1.516 . S
C258 C257 1.516 . S
C258 C259 1.502 . S
C258 C260 1.561 . S
C258 C261 1.526 . S
C259 H243 0.959 . S
C259 H244 0.959 . S
C259 H245 0.961 . S
C259 C258 1.502 . S
C260 H246 0.960 . S
C260 H247 0.961 . S
C260 H248 0.959 . S
C260 C258 1.561 . S
C261 C258 1.526 . S
C261 C262 1.396 . S
C261 C266 1.390 . S
C262 C256 1.465 . S
C262 C261 1.396 . S
C262 C263 1.399 . S
C263 H249 0.929 . S
C263 C262 1.399 . S
C263 C264 1.385 . S
C264 H250 0.931 . S
C264 C263 1.385 . S
C264 C265 1.389 . S
C265 C264 1.389 . S
C265 C266 1.387 . S
C266 H251 0.930 . S
C266 C261 1.390 . S
C266 C265 1.387 . S
H267 C279 0.930 . S
H268 C281 0.930 . S
H269 C282 0.930 . S
H270 C286 0.959 . S
H271 C286 0.959 . S
H272 C286 0.961 . S
H273 C287 0.960 . S
H274 C287 0.961 . S
H275 C287 0.959 . S
H276 C290 0.929 . S
H277 C291 0.931 . S
H278 C293 0.930 . S
C279 H267 0.930 . S
C279 C280 1.399 . S
C279 C284 1.399 . S
C280 C279 1.399 . S
C280 C281 1.376 . S
C281 H268 0.930 . S
C281 C280 1.376 . S
C281 C282 1.388 . S
C282 H269 0.930 . S
C282 C281 1.388 . S
C282 C283 1.390 . S
C283 C282 1.390 . S
C283 C284 1.394 . S
C283 C289 1.465 . S
C284 C279 1.399 . S
C284 C283 1.394 . S
C284 C285 1.516 . S
C285 C284 1.516 . S
C285 C286 1.502 . S
C285 C287 1.561 . S
C285 C288 1.526 . S
C286 H270 0.959 . S
C286 H271 0.959 . S
C286 H272 0.961 . S
C286 C285 1.502 . S
C287 H273 0.960 . S
C287 H274 0.961 . S
C287 H275 0.959 . S
C287 C285 1.561 . S
C288 C285 1.526 . S
C288 C289 1.396 . S
C288 C293 1.390 . S
C289 C283 1.465 . S
C289 C288 1.396 . S
C289 C290 1.399 . S
C290 H276 0.929 . S
C290 C289 1.399 . S
C290 C291 1.385 . S
C291 H277 0.931 . S
C291 C290 1.385 . S
C291 C292 1.389 . S
C292 C291 1.389 . S
C292 C293 1.387 . S
C293 H278 0.930 . S
C293 C288 1.390 . S
C293 C292 1.387 . S
H294 C306 0.930 . S
H295 C308 0.930 . S
H296 C309 0.930 . S
H297 C313 0.959 . S
H298 C313 0.959 . S
H299 C313 0.961 . S
H300 C314 0.960 . S
H301 C314 0.961 . S
H302 C314 0.959 . S
H303 C317 0.929 . S
H304 C318 0.931 . S
H305 C320 0.930 . S
C306 H294 0.930 . S
C306 C307 1.399 . S
C306 C311 1.399 . S
C307 C306 1.399 . S
C307 C308 1.376 . S
C308 H295 0.930 . S
C308 C307 1.376 . S
C308 C309 1.388 . S
C309 H296 0.930 . S
C309 C308 1.388 . S
C309 C310 1.390 . S
C310 C309 1.390 . S
C310 C311 1.394 . S
C310 C316 1.465 . S
C311 C306 1.399 . S
C311 C310 1.394 . S
C311 C312 1.516 . S
C312 C311 1.516 . S
C312 C313 1.502 . S
C312 C314 1.561 . S
C312 C315 1.526 . S
C313 H297 0.959 . S
C313 H298 0.959 . S
C313 H299 0.961 . S
C313 C312 1.502 . S
C314 H300 0.960 . S
C314 H301 0.961 . S
C314 H302 0.959 . S
C314 C312 1.561 . S
C315 C312 1.526 . S
C315 C316 1.396 . S
C315 C320 1.390 . S
C316 C310 1.465 . S
C316 C315 1.396 . S
C316 C317 1.399 . S
C317 H303 0.929 . S
C317 C316 1.399 . S
C317 C318 1.385 . S
C318 H304 0.931 . S
C318 C317 1.385 . S
C318 C319 1.389 . S
C319 C318 1.389 . S
C319 C320 1.387 . S
C320 H305 0.930 . S
C320 C315 1.390 . S
C320 C319 1.387 . S
H321 C333 0.930 . S
H322 C335 0.930 . S
H323 C336 0.930 . S
H324 C340 0.959 . S
H325 C340 0.959 . S
H326 C340 0.961 . S
H327 C341 0.960 . S
H328 C341 0.961 . S
H329 C341 0.959 . S
H330 C344 0.929 . S
H331 C345 0.931 . S
H332 C347 0.930 . S
C333 H321 0.930 . S
C333 C334 1.399 . S
C333 C338 1.399 . S
C334 C333 1.399 . S
C334 C335 1.376 . S
C335 H322 0.930 . S
C335 C334 1.376 . S
C335 C336 1.388 . S
C336 H323 0.930 . S
C336 C335 1.388 . S
C336 C337 1.390 . S
C337 C336 1.390 . S
C337 C338 1.394 . S
C337 C343 1.465 . S
C338 C333 1.399 . S
C338 C337 1.394 . S
C338 C339 1.516 . S
C339 C338 1.516 . S
C339 C340 1.502 . S
C339 C341 1.561 . S
C339 C342 1.526 . S
C340 H324 0.959 . S
C340 H325 0.959 . S
C340 H326 0.961 . S
C340 C339 1.502 . S
C341 H327 0.960 . S
C341 H328 0.961 . S
C341 H329 0.959 . S
C341 C339 1.561 . S
C342 C339 1.526 . S
C342 C343 1.396 . S
C342 C347 1.390 . S
C343 C337 1.465 . S
C343 C342 1.396 . S
C343 C344 1.399 . S
C344 H330 0.929 . S
C344 C343 1.399 . S
C344 C345 1.385 . S
C345 H331 0.931 . S
C345 C344 1.385 . S
C345 C346 1.389 . S
C346 C345 1.389 . S
C346 C347 1.387 . S
C347 H332 0.930 . S
C347 C342 1.390 . S
C347 C346 1.387 . S
H348 C360 0.930 . S
H349 C362 0.930 . S
H350 C363 0.930 . S
H351 C367 0.959 . S
H352 C367 0.959 . S
H353 C367 0.961 . S
H354 C368 0.960 . S
H355 C368 0.961 . S
H356 C368 0.959 . S
H357 C371 0.929 . S
H358 C372 0.931 . S
H359 C374 0.930 . S
C360 H348 0.930 . S
C360 C361 1.399 . S
C360 C365 1.399 . S
C361 C360 1.399 . S
C361 C362 1.376 . S
C362 H349 0.930 . S
C362 C361 1.376 . S
C362 C363 1.388 . S
C363 H350 0.930 . S
C363 C362 1.388 . S
C363 C364 1.390 . S
C364 C363 1.390 . S
C364 C365 1.394 . S
C364 C370 1.465 . S
C365 C360 1.399 . S
C365 C364 1.394 . S
C365 C366 1.516 . S
C366 C365 1.516 . S
C366 C367 1.502 . S
C366 C368 1.561 . S
C366 C369 1.526 . S
C367 H351 0.959 . S
C367 H352 0.959 . S
C367 H353 0.961 . S
C367 C366 1.502 . S
C368 H354 0.960 . S
C368 H355 0.961 . S
C368 H356 0.959 . S
C368 C366 1.561 . S
C369 C366 1.526 . S
C369 C370 1.396 . S
C369 C374 1.390 . S
C370 C364 1.465 . S
C370 C369 1.396 . S
C370 C371 1.399 . S
C371 H357 0.929 . S
C371 C370 1.399 . S
C371 C372 1.385 . S
C372 H358 0.931 . S
C372 C371 1.385 . S
C372 C373 1.389 . S
C373 C372 1.389 . S
C373 C374 1.387 . S
C374 H359 0.930 . S
C374 C369 1.390 . S
C374 C373 1.387 . S
H375 C387 0.930 . S
H376 C389 0.930 . S
H377 C390 0.930 . S
H378 C394 0.959 . S
H379 C394 0.959 . S
H380 C394 0.961 . S
H381 C395 0.960 . S
H382 C395 0.961 . S
H383 C395 0.959 . S
H384 C398 0.929 . S
H385 C399 0.931 . S
H386 C401 0.930 . S
C387 H375 0.930 . S
C387 C388 1.399 . S
C387 C392 1.399 . S
C388 C387 1.399 . S
C388 C389 1.376 . S
C389 H376 0.930 . S
C389 C388 1.376 . S
C389 C390 1.388 . S
C390 H377 0.930 . S
C390 C389 1.388 . S
C390 C391 1.390 . S
C391 C390 1.390 . S
C391 C392 1.394 . S
C391 C397 1.465 . S
C392 C387 1.399 . S
C392 C391 1.394 . S
C392 C393 1.516 . S
C393 C392 1.516 . S
C393 C394 1.502 . S
C393 C395 1.561 . S
C393 C396 1.526 . S
C394 H378 0.959 . S
C394 H379 0.959 . S
C394 H380 0.961 . S
C394 C393 1.502 . S
C395 H381 0.960 . S
C395 H382 0.961 . S
C395 H383 0.959 . S
C395 C393 1.561 . S
C396 C393 1.526 . S
C396 C397 1.396 . S
C396 C401 1.390 . S
C397 C391 1.465 . S
C397 C396 1.396 . S
C397 C398 1.399 . S
C398 H384 0.929 . S
C398 C397 1.399 . S
C398 C399 1.385 . S
C399 H385 0.931 . S
C399 C398 1.385 . S
C399 C400 1.389 . S
C400 C399 1.389 . S
C400 C401 1.387 . S
C401 H386 0.930 . S
C401 C396 1.390 . S
C401 C400 1.387 . S
H402 C414 0.930 . S
H403 C416 0.930 . S
H404 C417 0.930 . S
H405 C421 0.959 . S
H406 C421 0.959 . S
H407 C421 0.961 . S
H408 C422 0.960 . S
H409 C422 0.961 . S
H410 C422 0.959 . S
H411 C425 0.929 . S
H412 C426 0.931 . S
H413 C428 0.930 . S
C414 H402 0.930 . S
C414 C415 1.399 . S
C414 C419 1.399 . S
C415 C414 1.399 . S
C415 C416 1.376 . S
C416 H403 0.930 . S
C416 C415 1.376 . S
C416 C417 1.388 . S
C417 H404 0.930 . S
C417 C416 1.388 . S
C417 C418 1.390 . S
C418 C417 1.390 . S
C418 C419 1.394 . S
C418 C424 1.465 . S
C419 C414 1.399 . S
C419 C418 1.394 . S
C419 C420 1.516 . S
C420 C419 1.516 . S
C420 C421 1.502 . S
C420 C422 1.561 . S
C420 C423 1.526 . S
C421 H405 0.959 . S
C421 H406 0.959 . S
C421 H407 0.961 . S
C421 C420 1.502 . S
C422 H408 0.960 . S
C422 H409 0.961 . S
C422 H410 0.959 . S
C422 C420 1.561 . S
C423 C420 1.526 . S
C423 C424 1.396 . S
C423 C428 1.390 . S
C424 C418 1.465 . S
C424 C423 1.396 . S
C424 C425 1.399 . S
C425 H411 0.929 . S
C425 C424 1.399 . S
C425 C426 1.385 . S
C426 H412 0.931 . S
C426 C425 1.385 . S
C426 C427 1.389 . S
C427 C426 1.389 . S
C427 C428 1.387 . S
C428 H413 0.930 . S
C428 C423 1.390 . S
C428 C427 1.387 . S
H429 C441 0.930 . S
H430 C443 0.930 . S
H431 C444 0.930 . S
H432 C448 0.959 . S
H433 C448 0.959 . S
H434 C448 0.961 . S
H435 C449 0.960 . S
H436 C449 0.961 . S
H437 C449 0.959 . S
H438 C452 0.929 . S
H439 C453 0.931 . S
H440 C455 0.930 . S
C441 H429 0.930 . S
C441 C442 1.399 . S
C441 C446 1.399 . S
C442 C441 1.399 . S
C442 C443 1.376 . S
C443 H430 0.930 . S
C443 C442 1.376 . S
C443 C444 1.388 . S
C444 H431 0.930 . S
C444 C443 1.388 . S
C444 C445 1.390 . S
C445 C444 1.390 . S
C445 C446 1.394 . S
C445 C451 1.465 . S
C446 C441 1.399 . S
C446 C445 1.394 . S
C446 C447 1.516 . S
C447 C446 1.516 . S
C447 C448 1.502 . S
C447 C449 1.561 . S
C447 C450 1.526 . S
C448 H432 0.959 . S
C448 H433 0.959 . S
C448 H434 0.961 . S
C448 C447 1.502 . S
C449 H435 0.960 . S
C449 H436 0.961 . S
C449 H437 0.959 . S
C449 C447 1.561 . S
C450 C447 1.526 . S
C450 C451 1.396 . S
C450 C455 1.390 . S
C451 C445 1.465 . S
C451 C450 1.396 . S
C451 C452 1.399 . S
C452 H438 0.929 . S
C452 C451 1.399 . S
C452 C453 1.385 . S
C453 H439 0.931 . S
C453 C452 1.385 . S
C453 C454 1.389 . S
C454 C453 1.389 . S
C454 C455 1.387 . S
C455 H440 0.930 . S
C455 C450 1.390 . S
C455 C454 1.387 . S
H456 C468 0.930 . S
H457 C470 0.930 . S
H458 C471 0.930 . S
H459 C475 0.959 . S
H460 C475 0.959 . S
H461 C475 0.961 . S
H462 C476 0.960 . S
H463 C476 0.961 . S
H464 C476 0.959 . S
H465 C479 0.929 . S
H466 C480 0.931 . S
H467 C482 0.930 . S
C468 H456 0.930 . S
C468 C469 1.399 . S
C468 C473 1.399 . S
C469 C468 1.399 . S
C469 C470 1.376 . S
C470 H457 0.930 . S
C470 C469 1.376 . S
C470 C471 1.388 . S
C471 H458 0.930 . S
C471 C470 1.388 . S
C471 C472 1.390 . S
C472 C471 1.390 . S
C472 C473 1.394 . S
C472 C478 1.465 . S
C473 C468 1.399 . S
C473 C472 1.394 . S
C473 C474 1.516 . S
C474 C473 1.516 . S
C474 C475 1.502 . S
C474 C476 1.561 . S
C474 C477 1.526 . S
C475 H459 0.959 . S
C475 H460 0.959 . S
C475 H461 0.961 . S
C475 C474 1.502 . S
C476 H462 0.960 . S
C476 H463 0.961 . S
C476 H464 0.959 . S
C476 C474 1.561 . S
C477 C474 1.526 . S
C477 C478 1.396 . S
C477 C482 1.390 . S
C478 C472 1.465 . S
C478 C477 1.396 . S
C478 C479 1.399 . S
C479 H465 0.929 . S
C479 C478 1.399 . S
C479 C480 1.385 . S
C480 H466 0.931 . S
C480 C479 1.385 . S
C480 C481 1.389 . S
C481 C480 1.389 . S
C481 C482 1.387 . S
C482 H467 0.930 . S
C482 C477 1.390 . S
C482 C481 1.387 . S
H483 C495 0.930 . S
H484 C497 0.930 . S
H485 C498 0.930 . S
H486 C502 0.959 . S
H487 C502 0.959 . S
H488 C502 0.961 . S
H489 C503 0.960 . S
H490 C503 0.961 . S
H491 C503 0.959 . S
H492 C506 0.929 . S
H493 C507 0.931 . S
H494 C509 0.930 . S
C495 H483 0.930 . S
C495 C496 1.399 . S
C495 C500 1.399 . S
C496 C495 1.399 . S
C496 C497 1.376 . S
C497 H484 0.930 . S
C497 C496 1.376 . S
C497 C498 1.388 . S
C498 H485 0.930 . S
C498 C497 1.388 . S
C498 C499 1.390 . S
C499 C498 1.390 . S
C499 C500 1.394 . S
C499 C505 1.465 . S
C500 C495 1.399 . S
C500 C499 1.394 . S
C500 C501 1.516 . S
C501 C500 1.516 . S
C501 C502 1.502 . S
C501 C503 1.561 . S
C501 C504 1.526 . S
C502 H486 0.959 . S
C502 H487 0.959 . S
C502 H488 0.961 . S
C502 C501 1.502 . S
C503 H489 0.960 . S
C503 H490 0.961 . S
C503 H491 0.959 . S
C503 C501 1.561 . S
C504 C501 1.526 . S
C504 C505 1.396 . S
C504 C509 1.390 . S
C505 C499 1.465 . S
C505 C504 1.396 . S
C505 C506 1.399 . S
C506 H492 0.929 . S
C506 C505 1.399 . S
C506 C507 1.385 . S
C507 H493 0.931 . S
C507 C506 1.385 . S
C507 C508 1.389 . S
C508 C507 1.389 . S
C508 C509 1.387 . S
C509 H494 0.930 . S
C509 C504 1.390 . S
C509 C508 1.387 . S
H510 C522 0.930 . S
H511 C524 0.930 . S
H512 C525 0.930 . S
H513 C529 0.959 . S
H514 C529 0.959 . S
H515 C529 0.961 . S
H516 C530 0.960 . S
H517 C530 0.961 . S
H518 C530 0.959 . S
H519 C533 0.929 . S
H520 C534 0.931 . S
H521 C536 0.930 . S
C522 H510 0.930 . S
C522 C523 1.399 . S
C522 C527 1.399 . S
C523 C522 1.399 . S
C523 C524 1.376 . S
C524 H511 0.930 . S
C524 C523 1.376 . S
C524 C525 1.388 . S
C525 H512 0.930 . S
C525 C524 1.388 . S
C525 C526 1.390 . S
C526 C525 1.390 . S
C526 C527 1.394 . S
C526 C532 1.465 . S
C527 C522 1.399 . S
C527 C526 1.394 . S
C527 C528 1.516 . S
C528 C527 1.516 . S
C528 C529 1.502 . S
C528 C530 1.561 . S
C528 C531 1.526 . S
C529 H513 0.959 . S
C529 H514 0.959 . S
C529 H515 0.961 . S
C529 C528 1.502 . S
C530 H516 0.960 . S
C530 H517 0.961 . S
C530 H518 0.959 . S
C530 C528 1.561 . S
C531 C528 1.526 . S
C531 C532 1.396 . S
C531 C536 1.390 . S
C532 C526 1.465 . S
C532 C531 1.396 . S
C532 C533 1.399 . S
C533 H519 0.929 . S
C533 C532 1.399 . S
C533 C534 1.385 . S
C534 H520 0.931 . S
C534 C533 1.385 . S
C534 C535 1.389 . S
C535 C534 1.389 . S
C535 C536 1.387 . S
C536 H521 0.930 . S
C536 C531 1.390 . S
C536 C535 1.387 . S
H537 C549 0.930 . S
H538 C551 0.930 . S
H539 C552 0.930 . S
H540 C556 0.959 . S
H541 C556 0.959 . S
H542 C556 0.961 . S
H543 C557 0.960 . S
H544 C557 0.961 . S
H545 C557 0.959 . S
H546 C560 0.929 . S
H547 C561 0.931 . S
H548 C563 0.930 . S
C549 H537 0.930 . S
C549 C550 1.399 . S
C549 C554 1.399 . S
C550 C549 1.399 . S
C550 C551 1.376 . S
C551 H538 0.930 . S
C551 C550 1.376 . S
C551 C552 1.388 . S
C552 H539 0.930 . S
C552 C551 1.388 . S
C552 C553 1.390 . S
C553 C552 1.390 . S
C553 C554 1.394 . S
C553 C559 1.465 . S
C554 C549 1.399 . S
C554 C553 1.394 . S
C554 C555 1.516 . S
C555 C554 1.516 . S
C555 C556 1.502 . S
C555 C557 1.561 . S
C555 C558 1.526 . S
C556 H540 0.959 . S
C556 H541 0.959 . S
C556 H542 0.961 . S
C556 C555 1.502 . S
C557 H543 0.960 . S
C557 H544 0.961 . S
C557 H545 0.959 . S
C557 C555 1.561 . S
C558 C555 1.526 . S
C558 C559 1.396 . S
C558 C563 1.390 . S
C559 C553 1.465 . S
C559 C558 1.396 . S
C559 C560 1.399 . S
C560 H546 0.929 . S
C560 C559 1.399 . S
C560 C561 1.385 . S
C561 H547 0.931 . S
C561 C560 1.385 . S
C561 C562 1.389 . S
C562 C561 1.389 . S
C562 C563 1.387 . S
C563 H548 0.930 . S
C563 C558 1.390 . S
C563 C562 1.387 . S
H564 C576 0.930 . S
H565 C578 0.930 . S
H566 C579 0.930 . S
H567 C583 0.959 . S
H568 C583 0.959 . S
H569 C583 0.961 . S
H570 C584 0.960 . S
H571 C584 0.961 . S
H572 C584 0.959 . S
H573 C587 0.929 . S
H574 C588 0.931 . S
H575 C590 0.930 . S
C576 H564 0.930 . S
C576 C577 1.399 . S
C576 C581 1.399 . S
C577 C576 1.399 . S
C577 C578 1.376 . S
C578 H565 0.930 . S
C578 C577 1.376 . S
C578 C579 1.388 . S
C579 H566 0.930 . S
C579 C578 1.388 . S
C579 C580 1.390 . S
C580 C579 1.390 . S
C580 C581 1.394 . S
C580 C586 1.465 . S
C581 C576 1.399 . S
C581 C580 1.394 . S
C581 C582 1.516 . S
C582 C581 1.516 . S
C582 C583 1.502 . S
C582 C584 1.561 . S
C582 C585 1.526 . S
C583 H567 0.959 . S
C583 H568 0.959 . S
C583 H569 0.961 . S
C583 C582 1.502 . S
C584 H570 0.960 . S
C584 H571 0.961 . S
C584 H572 0.959 . S
C584 C582 1.561 . S
C585 C582 1.526 . S
C585 C586 1.396 . S
C585 C590 1.390 . S
C586 C580 1.465 . S
C586 C585 1.396 . S
C586 C587 1.399 . S
C587 H573 0.929 . S
C587 C586 1.399 . S
C587 C588 1.385 . S
C588 H574 0.931 . S
C588 C587 1.385 . S
C588 C589 1.389 . S
C589 C588 1.389 . S
C589 C590 1.387 . S
C590 H575 0.930 . S
C590 C585 1.390 . S
C590 C589 1.387 . S
H591 C603 0.930 . S
H592 C605 0.930 . S
H593 C606 0.930 . S
H594 C610 0.959 . S
H595 C610 0.959 . S
H596 C610 0.961 . S
H597 C611 0.960 . S
H598 C611 0.961 . S
H599 C611 0.959 . S
H600 C614 0.929 . S
H601 C615 0.931 . S
H602 C617 0.930 . S
C603 H591 0.930 . S
C603 C604 1.399 . S
C603 C608 1.399 . S
C604 C603 1.399 . S
C604 C605 1.376 . S
C605 H592 0.930 . S
C605 C604 1.376 . S
C605 C606 1.388 . S
C606 H593 0.930 . S
C606 C605 1.388 . S
C606 C607 1.390 . S
C607 C606 1.390 . S
C607 C608 1.394 . S
C607 C613 1.465 . S
C608 C603 1.399 . S
C608 C607 1.394 . S
C608 C609 1.516 . S
C609 C608 1.516 . S
C609 C610 1.502 . S
C609 C611 1.561 . S
C609 C612 1.526 . S
C610 H594 0.959 . S
C610 H595 0.959 . S
C610 H596 0.961 . S
C610 C609 1.502 . S
C611 H597 0.960 . S
C611 H598 0.961 . S
C611 H599 0.959 . S
C611 C609 1.561 . S
C612 C609 1.526 . S
C612 C613 1.396 . S
C612 C617 1.390 . S
C613 C607 1.465 . S
C613 C612 1.396 . S
C613 C614 1.399 . S
C614 H600 0.929 . S
C614 C613 1.399 . S
C614 C615 1.385 . S
C615 H601 0.931 . S
C615 C614 1.385 . S
C615 C616 1.389 . S
C616 C615 1.389 . S
C616 C617 1.387 . S
C617 H602 0.930 . S
C617 C612 1.390 . S
C617 C616 1.387 . S
H618 C630 0.930 . S
H619 C632 0.930 . S
H620 C633 0.930 . S
H621 C637 0.959 . S
H622 C637 0.959 . S
H623 C637 0.961 . S
H624 C638 0.960 . S
H625 C638 0.961 . S
H626 C638 0.959 . S
H627 C641 0.929 . S
H628 C642 0.931 . S
H629 C644 0.930 . S
C630 H618 0.930 . S
C630 C631 1.399 . S
C630 C635 1.399 . S
C631 C630 1.399 . S
C631 C632 1.376 . S
C632 H619 0.930 . S
C632 C631 1.376 . S
C632 C633 1.388 . S
C633 H620 0.930 . S
C633 C632 1.388 . S
C633 C634 1.390 . S
C634 C633 1.390 . S
C634 C635 1.394 . S
C634 C640 1.465 . S
C635 C630 1.399 . S
C635 C634 1.394 . S
C635 C636 1.516 . S
C636 C635 1.516 . S
C636 C637 1.502 . S
C636 C638 1.561 . S
C636 C639 1.526 . S
C637 H621 0.959 . S
C637 H622 0.959 . S
C637 H623 0.961 . S
C637 C636 1.502 . S
C638 H624 0.960 . S
C638 H625 0.961 . S
C638 H626 0.959 . S
C638 C636 1.561 . S
C639 C636 1.526 . S
C639 C640 1.396 . S
C639 C644 1.390 . S
C640 C634 1.465 . S
C640 C639 1.396 . S
C640 C641 1.399 . S
C641 H627 0.929 . S
C641 C640 1.399 . S
C641 C642 1.385 . S
C642 H628 0.931 . S
C642 C641 1.385 . S
C642 C643 1.389 . S
C643 C642 1.389 . S
C643 C644 1.387 . S
C644 H629 0.930 . S
C644 C639 1.390 . S
C644 C643 1.387 . S
H645 C657 0.930 . S
H646 C659 0.930 . S
H647 C660 0.930 . S
H648 C664 0.959 . S
H649 C664 0.959 . S
H650 C664 0.961 . S
H651 C665 0.960 . S
H652 C665 0.961 . S
H653 C665 0.959 . S
H654 C668 0.929 . S
H655 C669 0.931 . S
H656 C671 0.930 . S
C657 H645 0.930 . S
C657 C658 1.399 . S
C657 C662 1.399 . S
C658 C657 1.399 . S
C658 C659 1.376 . S
C659 H646 0.930 . S
C659 C658 1.376 . S
C659 C660 1.388 . S
C660 H647 0.930 . S
C660 C659 1.388 . S
C660 C661 1.390 . S
C661 C660 1.390 . S
C661 C662 1.394 . S
C661 C667 1.465 . S
C662 C657 1.399 . S
C662 C661 1.394 . S
C662 C663 1.516 . S
C663 C662 1.516 . S
C663 C664 1.502 . S
C663 C665 1.561 . S
C663 C666 1.526 . S
C664 H648 0.959 . S
C664 H649 0.959 . S
C664 H650 0.961 . S
C664 C663 1.502 . S
C665 H651 0.960 . S
C665 H652 0.961 . S
C665 H653 0.959 . S
C665 C663 1.561 . S
C666 C663 1.526 . S
C666 C667 1.396 . S
C666 C671 1.390 . S
C667 C661 1.465 . S
C667 C666 1.396 . S
C667 C668 1.399 . S
C668 H654 0.929 . S
C668 C667 1.399 . S
C668 C669 1.385 . S
C669 H655 0.931 . S
C669 C668 1.385 . S
C669 C670 1.389 . S
C670 C669 1.389 . S
C670 C671 1.387 . S
C671 H656 0.930 . S
C671 C666 1.390 . S
C671 C670 1.387 . S
H672 C684 0.930 . S
H673 C686 0.930 . S
H674 C687 0.930 . S
H675 C691 0.959 . S
H676 C691 0.959 . S
H677 C691 0.961 . S
H678 C692 0.960 . S
H679 C692 0.961 . S
H680 C692 0.959 . S
H681 C695 0.929 . S
H682 C696 0.931 . S
H683 C698 0.930 . S
C684 H672 0.930 . S
C684 C685 1.399 . S
C684 C689 1.399 . S
C685 C684 1.399 . S
C685 C686 1.376 1_554 S
C686 H673 0.930 . S
C686 C685 1.376 1_556 S
C686 C687 1.388 . S
C687 H674 0.930 . S
C687 C686 1.388 . S
C687 C688 1.390 . S
C688 C687 1.390 . S
C688 C689 1.394 1_556 S
C688 C694 1.465 . S
C689 C684 1.399 . S
C689 C688 1.394 1_554 S
C689 C690 1.516 . S
C690 C689 1.516 . S
C690 C691 1.502 . S
C690 C692 1.561 . S
C690 C693 1.526 . S
C691 H675 0.959 . S
C691 H676 0.959 . S
C691 H677 0.961 . S
C691 C690 1.502 . S
C692 H678 0.960 . S
C692 H679 0.961 . S
C692 H680 0.959 . S
C692 C690 1.561 . S
C693 C690 1.526 . S
C693 C694 1.396 1_554 S
C693 C698 1.390 . S
C694 C688 1.465 . S
C694 C693 1.396 1_556 S
C694 C695 1.399 . S
C695 H681 0.929 . S
C695 C694 1.399 . S
C695 C696 1.385 . S
C696 H682 0.931 . S
C696 C695 1.385 . S
C696 C697 1.389 1_556 S
C697 C696 1.389 1_554 S
C697 C698 1.387 . S
C698 H683 0.930 . S
C698 C693 1.390 . S
C698 C697 1.387 . S
H699 C711 0.930 . S
H700 C713 0.930 . S
H701 C714 0.930 . S
H702 C718 0.959 . S
H703 C718 0.959 . S
H704 C718 0.961 . S
H705 C719 0.960 . S
H706 C719 0.961 . S
H707 C719 0.959 . S
H708 C722 0.929 . S
H709 C723 0.931 . S
H710 C725 0.930 . S
C711 H699 0.930 . S
C711 C712 1.399 . S
C711 C716 1.399 . S
C712 C711 1.399 . S
C712 C713 1.376 . S
C713 H700 0.930 . S
C713 C712 1.376 . S
C713 C714 1.388 . S
C714 H701 0.930 . S
C714 C713 1.388 . S
C714 C715 1.390 . S
C715 C714 1.390 . S
C715 C716 1.394 . S
C715 C721 1.465 . S
C716 C711 1.399 . S
C716 C715 1.394 . S
C716 C717 1.516 . S
C717 C716 1.516 . S
C717 C718 1.502 . S
C717 C719 1.561 . S
C717 C720 1.526 . S
C718 H702 0.959 . S
C718 H703 0.959 . S
C718 H704 0.961 . S
C718 C717 1.502 . S
C719 H705 0.960 . S
C719 H706 0.961 . S
C719 H707 0.959 . S
C719 C717 1.561 . S
C720 C717 1.526 . S
C720 C721 1.396 . S
C720 C725 1.390 . S
C721 C715 1.465 . S
C721 C720 1.396 . S
C721 C722 1.399 . S
C722 H708 0.929 . S
C722 C721 1.399 . S
C722 C723 1.385 . S
C723 H709 0.931 . S
C723 C722 1.385 . S
C723 C724 1.389 . S
C724 C723 1.389 . S
C724 C725 1.387 . S
C725 H710 0.930 . S
C725 C720 1.390 . S
C725 C724 1.387 . S
H726 C738 0.930 . S
H727 C740 0.930 . S
H728 C741 0.930 . S
H729 C745 0.959 . S
H730 C745 0.959 . S
H731 C745 0.961 . S
H732 C746 0.960 . S
H733 C746 0.961 . S
H734 C746 0.959 . S
H735 C749 0.929 . S
H736 C750 0.931 . S
H737 C752 0.930 . S
C738 H726 0.930 . S
C738 C739 1.399 . S
C738 C743 1.399 . S
C739 C738 1.399 . S
C739 C740 1.376 1_554 S
C740 H727 0.930 . S
C740 C739 1.376 1_556 S
C740 C741 1.388 . S
C741 H728 0.930 . S
C741 C740 1.388 . S
C741 C742 1.390 . S
C742 C741 1.390 . S
C742 C743 1.394 1_556 S
C742 C748 1.465 . S
C743 C738 1.399 . S
C743 C742 1.394 1_554 S
C743 C744 1.516 . S
C744 C743 1.516 . S
C744 C745 1.502 . S
C744 C746 1.561 . S
C744 C747 1.526 . S
C745 H729 0.959 . S
C745 H730 0.959 . S
C745 H731 0.961 . S
C745 C744 1.502 . S
C746 H732 0.960 . S
C746 H733 0.961 . S
C746 H734 0.959 . S
C746 C744 1.561 . S
C747 C744 1.526 . S
C747 C748 1.396 1_554 S
C747 C752 1.390 . S
C748 C742 1.465 . S
C748 C747 1.396 1_556 S
C748 C749 1.399 . S
C749 H735 0.929 . S
C749 C748 1.399 . S
C749 C750 1.385 . S
C750 H736 0.931 . S
C750 C749 1.385 . S
C750 C751 1.389 1_556 S
C751 C750 1.389 1_554 S
C751 C752 1.387 . S
C752 H737 0.930 . S
C752 C747 1.390 . S
C752 C751 1.387 . S
H753 C765 0.930 . S
H754 C767 0.930 . S
H755 C768 0.930 . S
H756 C772 0.959 . S
H757 C772 0.959 . S
H758 C772 0.961 . S
H759 C773 0.960 . S
H760 C773 0.961 . S
H761 C773 0.959 . S
H762 C776 0.929 . S
H763 C777 0.931 . S
H764 C779 0.930 . S
C765 H753 0.930 . S
C765 C766 1.399 . S
C765 C770 1.399 . S
C766 C765 1.399 . S
C766 C767 1.376 . S
C767 H754 0.930 . S
C767 C766 1.376 . S
C767 C768 1.388 . S
C768 H755 0.930 . S
C768 C767 1.388 . S
C768 C769 1.390 . S
C769 C768 1.390 . S
C769 C770 1.394 . S
C769 C775 1.465 . S
C770 C765 1.399 . S
C770 C769 1.394 . S
C770 C771 1.516 . S
C771 C770 1.516 . S
C771 C772 1.502 . S
C771 C773 1.561 . S
C771 C774 1.526 . S
C772 H756 0.959 . S
C772 H757 0.959 . S
C772 H758 0.961 . S
C772 C771 1.502 . S
C773 H759 0.960 . S
C773 H760 0.961 . S
C773 H761 0.959 . S
C773 C771 1.561 . S
C774 C771 1.526 . S
C774 C775 1.396 . S
C774 C779 1.390 . S
C775 C769 1.465 . S
C775 C774 1.396 . S
C775 C776 1.399 . S
C776 H762 0.929 . S
C776 C775 1.399 . S
C776 C777 1.385 . S
C777 H763 0.931 . S
C777 C776 1.385 . S
C777 C778 1.389 . S
C778 C777 1.389 . S
C778 C779 1.387 . S
C779 H764 0.930 . S
C779 C774 1.390 . S
C779 C778 1.387 . S
H780 C792 0.930 . S
H781 C794 0.930 . S
H782 C795 0.930 . S
H783 C799 0.959 . S
H784 C799 0.959 . S
H785 C799 0.961 . S
H786 C800 0.960 . S
H787 C800 0.961 . S
H788 C800 0.959 . S
H789 C803 0.929 . S
H790 C804 0.931 . S
H791 C806 0.930 . S
C792 H780 0.930 . S
C792 C793 1.399 . S
C792 C797 1.399 . S
C793 C792 1.399 . S
C793 C794 1.376 . S
C794 H781 0.930 . S
C794 C793 1.376 . S
C794 C795 1.388 . S
C795 H782 0.930 . S
C795 C794 1.388 . S
C795 C796 1.390 . S
C796 C795 1.390 . S
C796 C797 1.394 . S
C796 C802 1.465 . S
C797 C792 1.399 . S
C797 C796 1.394 . S
C797 C798 1.516 . S
C798 C797 1.516 . S
C798 C799 1.502 . S
C798 C800 1.561 . S
C798 C801 1.526 . S
C799 H783 0.959 . S
C799 H784 0.959 . S
C799 H785 0.961 . S
C799 C798 1.502 . S
C800 H786 0.960 . S
C800 H787 0.961 . S
C800 H788 0.959 . S
C800 C798 1.561 . S
C801 C798 1.526 . S
C801 C802 1.396 . S
C801 C806 1.390 . S
C802 C796 1.465 . S
C802 C801 1.396 . S
C802 C803 1.399 . S
C803 H789 0.929 . S
C803 C802 1.399 . S
C803 C804 1.385 . S
C804 H790 0.931 . S
C804 C803 1.385 . S
C804 C805 1.389 . S
C805 C804 1.389 . S
C805 C806 1.387 . S
C806 H791 0.930 . S
C806 C801 1.390 . S
C806 C805 1.387 . S
H807 C819 0.930 . S
H808 C821 0.930 . S
H809 C822 0.930 . S
H810 C826 0.959 . S
H811 C826 0.959 . S
H812 C826 0.961 . S
H813 C827 0.960 . S
H814 C827 0.961 . S
H815 C827 0.959 . S
H816 C830 0.929 . S
H817 C831 0.931 . S
H818 C833 0.930 . S
C819 H807 0.930 . S
C819 C820 1.399 1_556 S
C819 C824 1.399 . S
C820 C819 1.399 1_554 S
C820 C821 1.376 . S
C821 H808 0.930 . S
C821 C820 1.376 . S
C821 C822 1.388 . S
C822 H809 0.930 . S
C822 C821 1.388 . S
C822 C823 1.390 . S
C823 C822 1.390 . S
C823 C824 1.394 1_554 S
C823 C829 1.465 . S
C824 C819 1.399 . S
C824 C823 1.394 1_556 S
C824 C825 1.516 . S
C825 C824 1.516 . S
C825 C826 1.502 . S
C825 C827 1.561 . S
C825 C828 1.526 . S
C826 H810 0.959 . S
C826 H811 0.959 . S
C826 H812 0.961 . S
C826 C825 1.502 . S
C827 H813 0.960 . S
C827 H814 0.961 . S
C827 H815 0.959 . S
C827 C825 1.561 . S
C828 C825 1.526 . S
C828 C829 1.396 1_556 S
C828 C833 1.390 . S
C829 C823 1.465 . S
C829 C828 1.396 1_554 S
C829 C830 1.399 . S
C830 H816 0.929 . S
C830 C829 1.399 . S
C830 C831 1.385 . S
C831 H817 0.931 . S
C831 C830 1.385 . S
C831 C832 1.389 . S
C832 C831 1.389 . S
C832 C833 1.387 1_554 S
C833 H818 0.930 . S
C833 C828 1.390 . S
C833 C832 1.387 1_556 S
H834 C846 0.930 . S
H835 C848 0.930 . S
H836 C849 0.930 . S
H837 C853 0.959 . S
H838 C853 0.959 . S
H839 C853 0.961 . S
H840 C854 0.960 . S
H841 C854 0.961 . S
H842 C854 0.959 . S
H843 C857 0.929 . S
H844 C858 0.931 . S
H845 C860 0.930 . S
C846 H834 0.930 . S
C846 C847 1.399 . S
C846 C851 1.399 . S
C847 C846 1.399 . S
C847 C848 1.376 . S
C848 H835 0.930 . S
C848 C847 1.376 . S
C848 C849 1.388 . S
C849 H836 0.930 . S
C849 C848 1.388 . S
C849 C850 1.390 . S
C850 C849 1.390 . S
C850 C851 1.394 . S
C850 C856 1.465 . S
C851 C846 1.399 . S
C851 C850 1.394 . S
C851 C852 1.516 . S
C852 C851 1.516 . S
C852 C853 1.502 . S
C852 C854 1.561 . S
C852 C855 1.526 . S
C853 H837 0.959 . S
C853 H838 0.959 . S
C853 H839 0.961 . S
C853 C852 1.502 . S
C854 H840 0.960 . S
C854 H841 0.961 . S
C854 H842 0.959 . S
C854 C852 1.561 . S
C855 C852 1.526 . S
C855 C856 1.396 . S
C855 C860 1.390 . S
C856 C850 1.465 . S
C856 C855 1.396 . S
C856 C857 1.399 . S
C857 H843 0.929 . S
C857 C856 1.399 . S
C857 C858 1.385 . S
C858 H844 0.931 . S
C858 C857 1.385 . S
C858 C859 1.389 . S
C859 C858 1.389 . S
C859 C860 1.387 . S
C860 H845 0.930 . S
C860 C855 1.390 . S
C860 C859 1.387 . S
H861 C873 0.930 . S
H862 C875 0.930 . S
H863 C876 0.930 . S
H864 C880 0.959 . S
H865 C880 0.959 . S
H866 C880 0.961 . S
H867 C881 0.960 . S
H868 C881 0.961 . S
H869 C881 0.959 . S
H870 C884 0.929 . S
H871 C885 0.931 . S
H872 C887 0.930 . S
C873 H861 0.930 . S
C873 C874 1.399 . S
C873 C878 1.399 . S
C874 C873 1.399 . S
C874 C875 1.376 1_554 S
C875 H862 0.930 . S
C875 C874 1.376 1_556 S
C875 C876 1.388 . S
C876 H863 0.930 . S
C876 C875 1.388 . S
C876 C877 1.390 . S
C877 C876 1.390 . S
C877 C878 1.394 1_556 S
C877 C883 1.465 . S
C878 C873 1.399 . S
C878 C877 1.394 1_554 S
C878 C879 1.516 . S
C879 C878 1.516 . S
C879 C880 1.502 . S
C879 C881 1.561 . S
C879 C882 1.526 . S
C880 H864 0.959 . S
C880 H865 0.959 . S
C880 H866 0.961 . S
C880 C879 1.502 . S
C881 H867 0.960 . S
C881 H868 0.961 . S
C881 H869 0.959 . S
C881 C879 1.561 . S
C882 C879 1.526 . S
C882 C883 1.396 1_554 S
C882 C887 1.390 . S
C883 C877 1.465 . S
C883 C882 1.396 1_556 S
C883 C884 1.399 . S
C884 H870 0.929 . S
C884 C883 1.399 . S
C884 C885 1.385 . S
C885 H871 0.931 . S
C885 C884 1.385 . S
C885 C886 1.389 1_556 S
C886 C885 1.389 1_554 S
C886 C887 1.387 . S
C887 H872 0.930 . S
C887 C882 1.390 . S
C887 C886 1.387 . S
C253 C5 1.457 . S
C265 C151 1.468 . S
C280 C31 1.472 . S
C292 C94 1.481 . S
C319 C109 1.517 . S
C307 C53 1.539 . S
C334 C71 1.525 . S
C346 C128 1.509 . S
C373 C185 1.480 . S
C361 C75 1.502 . S
C400 C204 1.522 . S
C388 C9 1.547 . S
C427 C227 1.498 . S
C415 C27 1.499 . S
C454 C170 1.465 . S
C442 C49 1.447 . S
C469 C51 1.444 . S
C481 C113 1.467 . S
C496 C72 1.495 . S
C508 C132 1.509 . S
C523 C6 1.510 . S
C535 C147 1.461 . S
C562 C90 1.464 . S
C550 C29 1.517 . S
C577 C28 1.484 . S
C589 C223 1.438 . S
C616 C166 1.478 . S
C604 C50 1.537 . S
C643 C189 1.487 . S
C631 C73 1.472 . S
C658 C7 1.467 . S
C670 C208 1.471 . S
C697 C99 1.316 1_554 S
C685 C4 1.491 . S
C724 C118 1.471 . S
C712 C30 1.488 . S
C739 C52 1.495 . S
C751 C137 1.467 . S
C766 C70 1.516 . S
C778 C156 1.427 . S
C805 C175 1.315 . S
C793 C74 1.489 . S
C820 C8 1.495 . S
C832 C194 1.467 1_554 S
C847 C26 1.493 . S
C859 C213 1.469 . S
C874 C48 1.499 . S
C886 C232 1.384 . S
