# Generated by pormake.
# Topology hwx, (6,3)-cn, num edge types: 1
# Building blocks:
#     Node 0, Type 0, BuildingBlock: OJICUG_clean_sbu_0, # of connection points: 6
#     Node 1, Type 0, BuildingBlock: OJICUG_clean_sbu_0, # of connection points: 6
#     Node 2, Type 0, BuildingBlock: OJICUG_clean_sbu_0, # of connection points: 6
#     Node 3, Type 0, BuildingBlock: OJICUG_clean_sbu_0, # of connection points: 6
#     Node 4, Type 1, BuildingBlock: MIDCAF_clean_linker_0, # of connection points: 3
#     Node 5, Type 1, BuildingBlock: MIDCAF_clean_linker_0, # of connection points: 3
#     Node 6, Type 1, BuildingBlock: MIDCAF_clean_linker_0, # of connection points: 3
#     Node 7, Type 1, BuildingBlock: MIDCAF_clean_linker_0, # of connection points: 3
#     Node 8, Type 1, BuildingBlock: MIDCAF_clean_linker_0, # of connection points: 3
#     Node 9, Type 1, BuildingBlock: MIDCAF_clean_linker_0, # of connection points: 3
#     Node 10, Type 1, BuildingBlock: MIDCAF_clean_linker_0, # of connection points: 3
#     Node 11, Type 1, BuildingBlock: MIDCAF_clean_linker_0, # of connection points: 3
#     Edge 12, Type (0, 1), None
#     Edge 13, Type (0, 1), None
#     Edge 14, Type (0, 1), None
#     Edge 15, Type (0, 1), None
#     Edge 16, Type (0, 1), None
#     Edge 17, Type (0, 1), None
#     Edge 18, Type (0, 1), None
#     Edge 19, Type (0, 1), None
#     Edge 20, Type (0, 1), None
#     Edge 21, Type (0, 1), None
#     Edge 22, Type (0, 1), None
#     Edge 23, Type (0, 1), None
#     Edge 24, Type (0, 1), None
#     Edge 25, Type (0, 1), None
#     Edge 26, Type (0, 1), None
#     Edge 27, Type (0, 1), None
#     Edge 28, Type (0, 1), None
#     Edge 29, Type (0, 1), None
#     Edge 30, Type (0, 1), None
#     Edge 31, Type (0, 1), None
#     Edge 32, Type (0, 1), None
#     Edge 33, Type (0, 1), None
#     Edge 34, Type (0, 1), None
#     Edge 35, Type (0, 1), None
# Relax obj value: 0.078
# Max RMSD: 0.103
# Mean RMSD: 0.095
data_MOF--net-hwx--node1-OJICUG_clean_sbu_0--node2-MIDCAF_clean_linker_0--edge1-none
_symmetry_space_group_name_H-M    P1
_symmetry_Int_Tables_number       1
_symmetry_cell_setting            triclinic
loop_
_symmetry_equiv_pos_as_xyz
'x, y, z'
_cell_length_a     33.751748
_cell_length_b     33.753322
_cell_length_c     15.656384
_cell_angle_alpha  89.875956
_cell_angle_beta   90.12588
_cell_angle_gamma 87.595987
loop_
_atom_site_label
_atom_site_type_symbol
_atom_site_fract_x
_atom_site_fract_y
_atom_site_fract_z
_atom_type_partial_charge
Sc0 Sc 0.23209 0.2376 0.09566 0.0
Sc1 Sc 0.17173 0.1721 -0.01569 0.0
Sc2 Sc 0.23736 0.23228 0.8729 0.0
O3 O 0.21368 0.21395 -0.01571 0.0
C4 C 0.22866 0.31357 0.97462 0.0
C5 C 0.13949 0.23168 0.12849 0.0
C6 C 0.14593 0.22552 0.82457 0.0
C7 C 0.22511 0.1462 0.14406 0.0
C8 C 0.31335 0.22868 -0.0061 0.0
C9 C 0.23122 0.13971 0.84011 0.0
O10 O 0.22857 0.2973 0.04782 0.0
O11 O 0.13462 0.20392 0.07526 0.0
O12 O 0.18039 0.23823 0.81278 0.0
O13 O 0.2379 0.18063 0.15582 0.0
O14 O 0.29707 0.22863 0.92071 0.0
O15 O 0.20345 0.1349 0.89337 0.0
O16 O 0.29367 0.23134 0.06279 0.0
O17 O 0.20115 0.13824 0.08435 0.0
O18 O 0.24639 0.17297 0.82743 0.0
O19 O 0.17279 0.24678 0.14116 0.0
O20 O 0.23126 0.29388 0.90574 0.0
O21 O 0.13792 0.20159 0.88428 0.0
Sc22 Sc 0.25361 0.72903 0.35204 0.0
Sc23 Sc 0.33787 0.68656 0.45718 0.0
Sc24 Sc 0.25642 0.72549 0.5754 0.0
O25 O 0.28258 0.71345 0.46151 0.0
C26 C 0.23793 0.80475 0.46918 0.0
C27 C 0.34316 0.74823 0.3055 0.0
C28 C 0.34658 0.74473 0.61423 0.0
C29 C 0.29149 0.64423 0.30665 0.0
C30 C 0.18058 0.70482 0.46721 0.0
C31 C 0.29604 0.63953 0.60645 0.0
O32 O 0.24191 0.78855 0.39623 0.0
O33 O 0.35917 0.72754 0.36491 0.0
O34 O 0.30968 0.74692 0.6295 0.0
O35 O 0.26361 0.67062 0.30021 0.0
O36 O 0.19922 0.7069 0.53728 0.0
O37 O 0.32331 0.64269 0.55126 0.0
O38 O 0.1965 0.71178 0.3957 0.0
O39 O 0.32082 0.64668 0.35732 0.0
O40 O 0.26948 0.66643 0.62107 0.0
O41 O 0.30603 0.74979 0.29194 0.0
O42 O 0.24143 0.78558 0.53898 0.0
O43 O 0.36156 0.72394 0.5541 0.0
Sc44 Sc 0.75192 0.74786 0.87302 0.0
Sc45 Sc 0.81312 0.81319 -0.01597 0.0
Sc46 Sc 0.74775 0.75206 0.09511 0.0
O47 O 0.77108 0.77118 -0.01594 0.0
C48 C 0.67127 0.75809 0.97618 0.0
C49 C 0.75882 0.83927 0.82466 0.0
C50 C 0.75332 0.84465 0.12988 0.0
C51 C 0.84451 0.75335 0.83819 0.0
C52 C 0.75791 0.6714 -0.00799 0.0
C53 C 0.83918 0.7589 0.14341 0.0
O54 O 0.69047 0.75535 0.90672 0.0
O55 O 0.78305 0.84769 0.88384 0.0
O56 O 0.73851 0.8111 0.14112 0.0
O57 O 0.81095 0.73856 0.82698 0.0
O58 O 0.75519 0.69061 0.06146 0.0
O59 O 0.84761 0.78311 0.08422 0.0
O60 O 0.7561 0.68807 0.91935 0.0
O61 O 0.85005 0.78126 0.89105 0.0
O62 O 0.8046 0.74642 0.15397 0.0
O63 O 0.74632 0.8047 0.81413 0.0
O64 O 0.68796 0.75628 0.04883 0.0
O65 O 0.78123 0.85016 0.077 0.0
Sc66 Sc 0.72881 0.25371 0.61628 0.0
Sc67 Sc 0.6863 0.33795 0.51116 0.0
Sc68 Sc 0.7253 0.25655 0.39292 0.0
O69 O 0.71323 0.28268 0.50681 0.0
C70 C 0.80457 0.23813 0.4992 0.0
C71 C 0.74794 0.34326 0.66289 0.0
C72 C 0.74449 0.34672 0.35415 0.0
C73 C 0.64397 0.29151 0.66162 0.0
C74 C 0.70468 0.18068 0.50104 0.0
C75 C 0.63932 0.2961 0.36184 0.0
O76 O 0.78835 0.24208 0.57213 0.0
O77 O 0.72726 0.35926 0.60346 0.0
O78 O 0.7467 0.30982 0.33886 0.0
O79 O 0.67038 0.26365 0.66805 0.0
O80 O 0.70676 0.19932 0.43099 0.0
O81 O 0.64245 0.32337 0.41705 0.0
O82 O 0.71162 0.19659 0.57257 0.0
O83 O 0.64642 0.32086 0.61099 0.0
O84 O 0.66624 0.26956 0.34722 0.0
O85 O 0.74952 0.30614 0.67644 0.0
O86 O 0.7854 0.2416 0.42938 0.0
O87 O 0.72367 0.36168 0.41427 0.0
C88 C 0.25711 0.59063 0.23144 0.0
C89 C 0.29166 0.61132 0.24584 0.0
C90 C 0.32517 0.60353 0.19473 0.0
C91 C 0.32329 0.57721 0.12639 0.0
H92 H 0.24014 0.43635 0.1005 0.0
H93 H 0.22645 0.36646 0.10679 0.0
H94 H 0.23385 0.35963 0.83135 0.0
H95 H 0.24758 0.42955 0.82499 0.0
H96 H 0.23505 0.53973 0.75025 0.0
H97 H 0.23849 0.58714 0.63182 0.0
H98 H 0.35575 0.61705 0.71288 0.0
H99 H 0.35156 0.57116 0.83386 0.0
H100 H 0.22837 0.54844 0.153 0.0
H101 H 0.23094 0.59647 0.27013 0.0
H102 H 0.35195 0.61958 0.20442 0.0
H103 H 0.3487 0.57312 0.08466 0.0
N104 N 0.26729 0.49876 0.03349 0.0
N105 N 0.26985 0.49594 0.88382 0.0
N106 N 0.29428 0.55062 0.95609 0.0
C107 C 0.26063 0.47899 0.95967 0.0
C108 C 0.28686 0.53163 0.88194 0.0
C109 C 0.28427 0.53442 0.03186 0.0
C110 C 0.24586 0.43841 0.96235 0.0
C111 C 0.2383 0.42015 0.04109 0.0
C112 C 0.23039 0.37998 0.04473 0.0
C113 C 0.22987 0.35722 0.96972 0.0
C114 C 0.23451 0.37616 0.89052 0.0
C115 C 0.24244 0.41634 0.88687 0.0
C116 C 0.29303 0.55212 0.80072 0.0
C117 C 0.26199 0.55555 0.74104 0.0
C118 C 0.26389 0.58257 0.67368 0.0
C119 C 0.29745 0.60523 0.66372 0.0
C120 C 0.32986 0.59934 0.71912 0.0
C121 C 0.3274 0.57335 0.78816 0.0
C122 C 0.28836 0.55738 0.11043 0.0
C123 C 0.25571 0.56322 0.16497 0.0
C124 C 0.87063 0.70723 0.72558 0.0
C125 C 0.87705 0.73913 0.78103 0.0
C126 C 0.91262 0.75924 0.77397 0.0
C127 C 0.93944 0.74975 0.708 0.0
H128 H 0.06279 0.69852 0.61613 0.0
H129 H 0.1346 0.6942 0.60842 0.0
H130 H 0.12824 0.70517 0.33334 0.0
H131 H 0.05637 0.70941 0.341 0.0
H132 H 0.96484 0.76035 0.26916 0.0
H133 H 0.91806 0.77795 0.15322 0.0
H134 H 0.82945 0.70881 0.2771 0.0
H135 H 0.8754 0.69229 0.39124 0.0
H136 H 0.88977 0.67541 0.61421 0.0
H137 H 0.84402 0.69048 0.72985 0.0
H138 H 0.91861 0.78375 0.81594 0.0
H139 H 0.96529 0.76734 0.69982 0.0
N140 N 0.99179 0.71298 0.56212 0.0
N141 N 0.98811 0.71539 0.4119 0.0
N142 N 0.93019 0.7205 0.49365 0.0
C143 C 0.01014 0.71121 0.48464 0.0
C144 C 0.94807 0.7199 0.41637 0.0
C145 C 0.95172 0.71744 0.56647 0.0
C146 C 0.05374 0.70523 0.47938 0.0
C147 C 0.07662 0.69968 0.55388 0.0
C148 C 0.11791 0.69691 0.54938 0.0
C149 C 0.13728 0.69978 0.4703 0.0
C150 C 0.11434 0.70302 0.39538 0.0
C151 C 0.07303 0.70573 0.39988 0.0
C152 C 0.92342 0.72537 0.33929 0.0
C153 C 0.93551 0.74851 0.27008 0.0
C154 C 0.9087 0.75874 0.20418 0.0
C155 C 0.86973 0.74546 0.20645 0.0
C156 C 0.85892 0.72021 0.27338 0.0
C157 C 0.88529 0.71057 0.3391 0.0
C158 C 0.93072 0.72035 0.64833 0.0
C159 C 0.89694 0.69829 0.6595 0.0
C160 C 0.79008 0.35237 0.79226 0.0
C161 C 0.76855 0.36908 0.72319 0.0
C162 C 0.76416 0.4106 0.71675 0.0
C163 C 0.77777 0.43468 0.78205 0.0
H164 H 0.78383 0.54967 0.86336 0.0
H165 H 0.7681 0.62033 0.85798 0.0
H166 H 0.76628 0.62438 0.13414 0.0
H167 H 0.782 0.55353 0.13963 0.0
H168 H 0.76221 0.46939 0.22979 0.0
H169 H 0.73768 0.42793 0.34408 0.0
H170 H 0.79863 0.32549 0.23199 0.0
H171 H 0.82294 0.36678 0.1183 0.0
H172 H 0.81804 0.36235 0.91222 0.0
H173 H 0.79476 0.32055 0.79844 0.0
H174 H 0.7483 0.42449 0.66364 0.0
H175 H 0.7716 0.46637 0.7778 0.0
N176 N 0.79537 0.48138 0.9313 0.0
N177 N 0.79413 0.48316 0.08113 0.0
N178 N 0.8024 0.42255 0.00984 0.0
C179 C 0.79272 0.50256 0.00495 0.0
C180 C 0.79934 0.44311 0.0839 0.0
C181 C 0.80047 0.44132 0.93334 0.0
C182 C 0.78434 0.54585 0.00194 0.0
C183 C 0.78013 0.56554 0.92305 0.0
C184 C 0.77088 0.60613 0.91994 0.0
C185 C 0.76569 0.62804 -0.00437 0.0
C186 C 0.76987 0.60838 0.07457 0.0
C187 C 0.7791 0.56773 0.07769 0.0
C188 C 0.79377 0.42113 0.16411 0.0
C189 C 0.77128 0.43823 0.231 0.0
C190 C 0.75699 0.41441 0.29622 0.0
C191 C 0.76513 0.37322 0.2955 0.0
C192 C 0.79091 0.35696 0.23321 0.0
C193 C 0.80505 0.38067 0.16819 0.0
C194 C 0.79585 0.41762 0.85506 0.0
C195 C 0.80357 0.3764 0.85751 0.0
C196 C 0.11212 0.27387 0.24656 0.0
C197 C 0.10645 0.24413 0.18551 0.0
C198 C 0.07111 0.22343 0.18718 0.0
C199 C 0.04406 0.22953 0.25388 0.0
H200 H 0.92243 0.23411 0.34889 0.0
H201 H 0.8508 0.23241 0.35628 0.0
H202 H 0.8571 0.23239 0.63237 0.0
H203 H 0.92877 0.23403 0.62503 0.0
H204 H 0.02126 0.21433 0.70309 0.0
H205 H 0.06884 0.20246 0.81889 0.0
H206 H 0.15219 0.27553 0.68881 0.0
H207 H 0.10497 0.28706 0.57396 0.0
H208 H 0.09202 0.30071 0.36287 0.0
H209 H 0.13853 0.29102 0.24627 0.0
H210 H 0.06561 0.20068 0.14046 0.0
H211 H 0.01858 0.21112 0.25756 0.0
N212 N 0.99221 0.2461 0.40503 0.0
N213 N -0.00409 0.24383 0.55494 0.0
N214 N 0.05206 0.25747 0.47469 0.0
C215 C 0.97428 0.24132 0.48191 0.0
C216 C 0.03485 0.252 0.55152 0.0
C217 C 0.03108 0.25452 0.40141 0.0
C218 C 0.93134 0.23499 0.48634 0.0
C219 C 0.90864 0.23326 0.41123 0.0
C220 C 0.86748 0.2322 0.41549 0.0
C221 C 0.84815 0.23291 0.49495 0.0
C222 C 0.87101 0.23218 0.57008 0.0
C223 C 0.91219 0.23319 0.56581 0.0
C224 C 0.05973 0.25104 0.62891 0.0
C225 C 0.04945 0.22848 0.7004 0.0
C226 C 0.07679 0.22152 0.76647 0.0
C227 C 0.11468 0.23726 0.76216 0.0
C228 C 0.12358 0.26232 0.69363 0.0
C229 C 0.09646 0.26901 0.62765 0.0
C230 C 0.05226 0.25612 0.31976 0.0
C231 C 0.08542 0.27958 0.31334 0.0
C232 C 0.70718 0.87083 0.24237 0.0
C233 C 0.73912 0.8772 0.18701 0.0
C234 C 0.75929 0.91273 0.19415 0.0
C235 C 0.74981 0.93955 0.26012 0.0
H236 H 0.69846 0.06291 0.35203 0.0
H237 H 0.69409 0.13471 0.3598 0.0
H238 H 0.70507 0.12831 0.63487 0.0
H239 H 0.70936 0.05645 0.62716 0.0
H240 H 0.76029 0.96493 0.69898 0.0
H241 H 0.77786 0.91815 0.81492 0.0
H242 H 0.70881 0.82953 0.69084 0.0
H243 H 0.69233 0.87548 0.57669 0.0
H244 H 0.67532 0.89 0.35369 0.0
H245 H 0.69038 0.84425 0.23803 0.0
H246 H 0.78383 0.91868 0.15224 0.0
H247 H 0.76744 0.96537 0.26838 0.0
N248 N 0.71297 0.99191 0.40598 0.0
N249 N 0.71537 0.9882 0.55619 0.0
N250 N 0.72051 0.9303 0.47439 0.0
C251 C 0.71119 0.01025 0.48348 0.0
C252 C 0.7199 0.94817 0.55169 0.0
C253 C 0.71745 0.95185 0.40159 0.0
C254 C 0.70518 0.05384 0.48877 0.0
C255 C 0.69962 0.07673 0.4143 0.0
C256 C 0.69682 0.11801 0.41883 0.0
C257 C 0.69967 0.13738 0.49792 0.0
C258 C 0.70293 0.11443 0.57282 0.0
C259 C 0.70566 0.07312 0.56829 0.0
C260 C 0.72536 0.9235 0.62875 0.0
C261 C 0.74847 0.93559 0.69802 0.0
C262 C 0.75868 0.90879 0.76392 0.0
C263 C 0.74542 0.86981 0.7616 0.0
C264 C 0.7202 0.859 0.6946 0.0
C265 C 0.71058 0.88538 0.62888 0.0
C266 C 0.72036 0.93087 0.31971 0.0
C267 C 0.69824 0.89713 0.30845 0.0
C268 C 0.59041 0.25708 0.73683 0.0
C269 C 0.61106 0.29166 0.72242 0.0
C270 C 0.60322 0.32517 0.7735 0.0
C271 C 0.57691 0.32326 0.84185 0.0
H272 H 0.43613 0.23999 0.8679 0.0
H273 H 0.36622 0.22636 0.86169 0.0
H274 H 0.35945 0.23379 0.13713 0.0
H275 H 0.42939 0.24747 0.14341 0.0
H276 H 0.53952 0.23505 0.21817 0.0
H277 H 0.58692 0.23855 0.3366 0.0
H278 H 0.61686 0.35575 0.25526 0.0
H279 H 0.57098 0.3515 0.13427 0.0
H280 H 0.54827 0.22829 0.81529 0.0
H281 H 0.59628 0.23091 0.69815 0.0
H282 H 0.61924 0.35197 0.7638 0.0
H283 H 0.57279 0.34867 0.88357 0.0
N284 N 0.49854 0.26718 0.93483 0.0
N285 N 0.49575 0.26976 0.08451 0.0
N286 N 0.5504 0.29422 0.01217 0.0
C287 C 0.47879 0.26051 0.00867 0.0
C288 C 0.53143 0.28679 0.08634 0.0
C289 C 0.53419 0.28419 0.93642 0.0
C290 C 0.43822 0.24573 0.00605 0.0
C291 C 0.41994 0.23817 0.92733 0.0
C292 C 0.37976 0.23029 0.92372 0.0
C293 C 0.35701 0.22981 -0.00124 0.0
C294 C 0.37598 0.23443 0.07794 0.0
C295 C 0.41617 0.24232 0.08155 0.0
C296 C 0.55192 0.293 0.16755 0.0
C297 C 0.55534 0.26199 0.22731 0.0
C298 C 0.58236 0.26393 0.29467 0.0
C299 C 0.60502 0.29749 0.30457 0.0
C300 C 0.59914 0.32986 0.24908 0.0
C301 C 0.57316 0.32737 0.18003 0.0
C302 C 0.55713 0.2883 0.85784 0.0
C303 C 0.56301 0.25566 0.80331 0.0
C304 C 0.27339 0.11222 0.72214 0.0
C305 C 0.24361 0.10663 0.78312 0.0
C306 C 0.2228 0.07137 0.78138 0.0
C307 C 0.22885 0.0443 0.71468 0.0
H308 H 0.23361 0.92259 0.61959 0.0
H309 H 0.23209 0.85095 0.61213 0.0
H310 H 0.23212 0.8573 0.33605 0.0
H311 H 0.23358 0.92898 0.34346 0.0
H312 H 0.2137 0.02155 0.2655 0.0
H313 H 0.20192 0.06915 0.14969 0.0
H314 H 0.27507 0.15239 0.27991 0.0
H315 H 0.28652 0.10515 0.39476 0.0
H316 H 0.30023 0.09206 0.60588 0.0
H317 H 0.29062 0.13858 0.72248 0.0
H318 H 0.2 0.06593 0.82804 0.0
H319 H 0.21037 0.01888 0.71094 0.0
N320 N 0.2455 0.99239 0.56354 0.0
N321 N 0.24325 -0.00387 0.41363 0.0
N322 N 0.25683 0.05227 0.49395 0.0
C323 C 0.24075 0.97448 0.48663 0.0
C324 C 0.25138 0.03507 0.41709 0.0
C325 C 0.25388 0.03128 0.56721 0.0
C326 C 0.2345 0.93152 0.48216 0.0
C327 C 0.23281 0.90881 0.55724 0.0
C328 C 0.23185 0.86764 0.55294 0.0
C329 C 0.23263 0.84832 0.47346 0.0
C330 C 0.23186 0.8712 0.39836 0.0
C331 C 0.23277 0.91238 0.40266 0.0
C332 C 0.25045 0.05996 0.33973 0.0
C333 C 0.22789 0.04972 0.26821 0.0
C334 C 0.22099 0.07708 0.20214 0.0
C335 C 0.23678 0.11494 0.20648 0.0
C336 C 0.26183 0.1238 0.27505 0.0
C337 C 0.26846 0.09667 0.34103 0.0
C338 C 0.2555 0.05243 0.64887 0.0
C339 C 0.27905 0.08552 0.65536 0.0
C340 C 0.35227 0.79039 0.17616 0.0
C341 C 0.36897 0.76885 0.24521 0.0
C342 C 0.4105 0.76445 0.25164 0.0
C343 C 0.43457 0.77807 0.18634 0.0
H344 H 0.54957 0.7841 0.10494 0.0
H345 H 0.62023 0.76832 0.11025 0.0
H346 H 0.62422 0.76648 0.8341 0.0
H347 H 0.55338 0.78225 0.82867 0.0
H348 H 0.46926 0.76255 0.73852 0.0
H349 H 0.4278 0.73802 0.62423 0.0
H350 H 0.32531 0.79882 0.7365 0.0
H351 H 0.3666 0.82314 0.85018 0.0
H352 H 0.36224 0.81835 0.05621 0.0
H353 H 0.32044 0.79508 0.17 0.0
H354 H 0.42439 0.74858 0.30474 0.0
H355 H 0.46627 0.77189 0.19058 0.0
N356 N 0.48126 0.79565 0.03705 0.0
N357 N 0.48302 0.7944 0.88723 0.0
N358 N 0.42242 0.80269 0.95855 0.0
C359 C 0.50243 0.79299 0.96339 0.0
C360 C 0.44297 0.79962 0.88448 0.0
C361 C 0.4412 0.80076 0.03505 0.0
C362 C 0.54573 0.7846 0.96636 0.0
C363 C 0.56543 0.78038 0.04523 0.0
C364 C 0.60602 0.77111 0.04831 0.0
C365 C 0.62791 0.76591 0.97259 0.0
C366 C 0.60823 0.77009 0.89368 0.0
C367 C 0.56758 0.77934 0.89059 0.0
C368 C 0.42097 0.79404 0.80429 0.0
C369 C 0.43809 0.77159 0.73735 0.0
C370 C 0.41427 0.7573 0.67213 0.0
C371 C 0.37307 0.76539 0.6729 0.0
C372 C 0.35679 0.79113 0.73524 0.0
C373 C 0.3805 0.80528 0.80026 0.0
C374 C 0.41751 0.79615 0.11334 0.0
C375 C 0.37629 0.80388 0.11091 0.0
loop_
_geom_bond_atom_site_label_1
_geom_bond_atom_site_label_2
_geom_bond_distance
_geom_bond_site_symmetry_2
_ccdc_geom_bond_type
Sc0 O3 2.031 . S
Sc0 O10 2.105 . S
Sc0 O13 2.105 . S
Sc0 O16 2.105 . S
Sc0 O19 2.105 . S
Sc1 O3 2.025 . S
Sc1 O11 2.109 . S
Sc1 O15 2.100 1_554 S
Sc1 O17 2.109 . S
Sc1 O21 2.100 1_554 S
Sc2 O3 2.020 1_556 S
Sc2 O12 2.105 . S
Sc2 O14 2.105 . S
Sc2 O18 2.105 . S
Sc2 O20 2.105 . S
O3 Sc0 2.031 . S
O3 Sc1 2.025 . S
O3 Sc2 2.020 1_554 S
C4 O10 1.269 . S
C4 O20 1.267 1_554 S
C5 O11 1.268 . S
C5 O19 1.268 . S
C6 O12 1.268 . S
C6 O21 1.268 . S
C7 O13 1.268 . S
C7 O17 1.268 . S
C8 O14 1.258 1_554 S
C8 O16 1.279 . S
C9 O15 1.268 . S
C9 O18 1.268 . S
O10 Sc0 2.105 . S
O10 C4 1.269 . S
O11 Sc1 2.109 . S
O11 C5 1.268 . S
O12 Sc2 2.105 . S
O12 C6 1.268 . S
O13 Sc0 2.105 . S
O13 C7 1.268 . S
O14 Sc2 2.105 . S
O14 C8 1.258 1_556 S
O15 Sc1 2.100 1_556 S
O15 C9 1.268 . S
O16 Sc0 2.105 . S
O16 C8 1.279 . S
O17 Sc1 2.109 . S
O17 C7 1.268 . S
O18 Sc2 2.105 . S
O18 C9 1.268 . S
O19 Sc0 2.105 . S
O19 C5 1.268 . S
O20 Sc2 2.105 . S
O20 C4 1.267 1_556 S
O21 Sc1 2.100 1_556 S
O21 C6 1.268 . S
Sc22 O25 2.025 . S
Sc22 O32 2.105 . S
Sc22 O35 2.105 . S
Sc22 O38 2.105 . S
Sc22 O41 2.105 . S
Sc23 O25 2.025 . S
Sc23 O33 2.105 . S
Sc23 O37 2.105 . S
Sc23 O39 2.105 . S
Sc23 O43 2.105 . S
Sc24 O25 2.025 . S
Sc24 O34 2.105 . S
Sc24 O36 2.105 . S
Sc24 O40 2.105 . S
Sc24 O42 2.105 . S
O25 Sc22 2.025 . S
O25 Sc23 2.025 . S
O25 Sc24 2.025 . S
C26 O32 1.268 . S
C26 O42 1.268 . S
C27 O33 1.268 . S
C27 O41 1.268 . S
C28 O34 1.268 . S
C28 O43 1.268 . S
C29 O35 1.268 . S
C29 O39 1.268 . S
C30 O36 1.268 . S
C30 O38 1.268 . S
C31 O37 1.268 . S
C31 O40 1.268 . S
O32 Sc22 2.105 . S
O32 C26 1.268 . S
O33 Sc23 2.105 . S
O33 C27 1.268 . S
O34 Sc24 2.105 . S
O34 C28 1.268 . S
O35 Sc22 2.105 . S
O35 C29 1.268 . S
O36 Sc24 2.105 . S
O36 C30 1.268 . S
O37 Sc23 2.105 . S
O37 C31 1.268 . S
O38 Sc22 2.105 . S
O38 C30 1.268 . S
O39 Sc23 2.105 . S
O39 C29 1.268 . S
O40 Sc24 2.105 . S
O40 C31 1.268 . S
O41 Sc22 2.105 . S
O41 C27 1.268 . S
O42 Sc24 2.105 . S
O42 C26 1.268 . S
O43 Sc23 2.105 . S
O43 C28 1.268 . S
Sc44 O47 2.020 1_556 S
Sc44 O54 2.105 . S
Sc44 O57 2.105 . S
Sc44 O60 2.105 . S
Sc44 O63 2.105 . S
Sc45 O47 2.025 . S
Sc45 O55 2.100 1_554 S
Sc45 O59 2.109 . S
Sc45 O61 2.100 1_554 S
Sc45 O65 2.109 . S
Sc46 O47 2.031 . S
Sc46 O56 2.105 . S
Sc46 O58 2.105 . S
Sc46 O62 2.105 . S
Sc46 O64 2.105 . S
O47 Sc44 2.020 1_554 S
O47 Sc45 2.025 . S
O47 Sc46 2.031 . S
C48 O54 1.267 1_554 S
C48 O64 1.269 . S
C49 O55 1.268 . S
C49 O63 1.268 . S
C50 O56 1.268 . S
C50 O65 1.268 . S
C51 O57 1.268 . S
C51 O61 1.268 . S
C52 O58 1.279 . S
C52 O60 1.258 1_554 S
C53 O59 1.268 . S
C53 O62 1.268 . S
O54 Sc44 2.105 . S
O54 C48 1.267 1_556 S
O55 Sc45 2.100 1_556 S
O55 C49 1.268 . S
O56 Sc46 2.105 . S
O56 C50 1.268 . S
O57 Sc44 2.105 . S
O57 C51 1.268 . S
O58 Sc46 2.105 . S
O58 C52 1.279 . S
O59 Sc45 2.109 . S
O59 C53 1.268 . S
O60 Sc44 2.105 . S
O60 C52 1.258 1_556 S
O61 Sc45 2.100 1_556 S
O61 C51 1.268 . S
O62 Sc46 2.105 . S
O62 C53 1.268 . S
O63 Sc44 2.105 . S
O63 C49 1.268 . S
O64 Sc46 2.105 . S
O64 C48 1.269 . S
O65 Sc45 2.109 . S
O65 C50 1.268 . S
Sc66 O69 2.025 . S
Sc66 O76 2.105 . S
Sc66 O79 2.105 . S
Sc66 O82 2.105 . S
Sc66 O85 2.105 . S
Sc67 O69 2.025 . S
Sc67 O77 2.105 . S
Sc67 O81 2.105 . S
Sc67 O83 2.105 . S
Sc67 O87 2.105 . S
Sc68 O69 2.025 . S
Sc68 O78 2.105 . S
Sc68 O80 2.105 . S
Sc68 O84 2.105 . S
Sc68 O86 2.105 . S
O69 Sc66 2.025 . S
O69 Sc67 2.025 . S
O69 Sc68 2.025 . S
C70 O76 1.268 . S
C70 O86 1.268 . S
C71 O77 1.268 . S
C71 O85 1.268 . S
C72 O78 1.268 . S
C72 O87 1.268 . S
C73 O79 1.268 . S
C73 O83 1.268 . S
C74 O80 1.268 . S
C74 O82 1.268 . S
C75 O81 1.268 . S
C75 O84 1.268 . S
O76 Sc66 2.105 . S
O76 C70 1.268 . S
O77 Sc67 2.105 . S
O77 C71 1.268 . S
O78 Sc68 2.105 . S
O78 C72 1.268 . S
O79 Sc66 2.105 . S
O79 C73 1.268 . S
O80 Sc68 2.105 . S
O80 C74 1.268 . S
O81 Sc67 2.105 . S
O81 C75 1.268 . S
O82 Sc66 2.105 . S
O82 C74 1.268 . S
O83 Sc67 2.105 . S
O83 C73 1.268 . S
O84 Sc68 2.105 . S
O84 C75 1.268 . S
O85 Sc66 2.105 . S
O85 C71 1.268 . S
O86 Sc68 2.105 . S
O86 C70 1.268 . S
O87 Sc67 2.105 . S
O87 C72 1.268 . S
C88 C89 1.384 . S
C88 H101 0.947 . S
C88 C123 1.382 . S
C89 C88 1.384 . S
C89 C90 1.378 . S
C90 C89 1.378 . S
C90 C91 1.378 . S
C90 H102 0.952 . S
C91 C90 1.378 . S
C91 H103 0.950 . S
C91 C122 1.383 . S
H92 C111 0.947 . S
H93 C112 0.946 . S
H94 C114 0.953 . S
H95 C115 0.945 . S
H96 C117 0.952 . S
H97 C118 0.949 . S
H98 C120 0.950 . S
H99 C121 0.948 . S
H100 C123 0.951 . S
H101 C88 0.947 . S
H102 C90 0.952 . S
H103 C91 0.950 . S
N104 C107 1.382 1_554 S
N104 C109 1.363 . S
N105 C107 1.371 . S
N105 C108 1.372 . S
N106 C108 1.361 . S
N106 C109 1.377 1_556 S
C107 N104 1.382 1_556 S
C107 N105 1.371 . S
C107 C110 1.480 . S
C108 N105 1.372 . S
C108 N106 1.361 . S
C108 C116 1.457 . S
C109 N104 1.363 . S
C109 N106 1.377 1_554 S
C109 C122 1.479 . S
C110 C107 1.480 . S
C110 C111 1.383 1_556 S
C110 C115 1.385 . S
C111 H92 0.947 . S
C111 C110 1.383 1_554 S
C111 C112 1.388 . S
C112 H93 0.946 . S
C112 C111 1.388 . S
C112 C113 1.384 1_554 S
C113 C112 1.384 1_556 S
C113 C114 1.377 . S
C114 H94 0.953 . S
C114 C113 1.377 . S
C114 C115 1.369 . S
C115 H95 0.945 . S
C115 C110 1.385 . S
C115 C114 1.369 . S
C116 C108 1.457 . S
C116 C117 1.372 . S
C116 C121 1.364 . S
C117 H96 0.952 . S
C117 C116 1.372 . S
C117 C118 1.389 . S
C118 H97 0.949 . S
C118 C117 1.389 . S
C118 C119 1.387 . S
C119 C118 1.387 . S
C119 C120 1.372 . S
C120 H98 0.950 . S
C120 C119 1.372 . S
C120 C121 1.379 . S
C121 H99 0.948 . S
C121 C116 1.364 . S
C121 C120 1.379 . S
C122 C91 1.383 . S
C122 C109 1.479 . S
C122 C123 1.398 . S
C123 C88 1.382 . S
C123 H100 0.951 . S
C123 C122 1.398 . S
C124 C125 1.384 . S
C124 H137 0.947 . S
C124 C159 1.382 . S
C125 C124 1.384 . S
C125 C126 1.378 . S
C126 C125 1.378 . S
C126 C127 1.378 . S
C126 H138 0.952 . S
C127 C126 1.378 . S
C127 H139 0.950 . S
C127 C158 1.383 . S
H128 C147 0.947 . S
H129 C148 0.946 . S
H130 C150 0.953 . S
H131 C151 0.945 . S
H132 C153 0.952 . S
H133 C154 0.949 . S
H134 C156 0.950 . S
H135 C157 0.948 . S
H136 C159 0.951 . S
H137 C124 0.947 . S
H138 C126 0.952 . S
H139 C127 0.950 . S
N140 C143 1.388 . S
N140 C145 1.352 1_455 S
N141 C143 1.371 . S
N141 C144 1.372 1_455 S
N142 C144 1.361 . S
N142 C145 1.377 . S
C143 N140 1.388 . S
C143 N141 1.371 . S
C143 C146 1.480 . S
C144 N141 1.372 1_655 S
C144 N142 1.361 . S
C144 C152 1.457 . S
C145 N140 1.352 1_655 S
C145 N142 1.377 . S
C145 C158 1.479 . S
C146 C143 1.480 . S
C146 C147 1.383 . S
C146 C151 1.385 . S
C147 H128 0.947 . S
C147 C146 1.383 . S
C147 C148 1.388 . S
C148 H129 0.946 . S
C148 C147 1.388 . S
C148 C149 1.384 . S
C149 C148 1.384 . S
C149 C150 1.377 . S
C150 H130 0.953 . S
C150 C149 1.377 . S
C150 C151 1.369 . S
C151 H131 0.945 . S
C151 C146 1.385 . S
C151 C150 1.369 . S
C152 C144 1.457 . S
C152 C153 1.372 . S
C152 C157 1.364 . S
C153 H132 0.952 . S
C153 C152 1.372 . S
C153 C154 1.389 . S
C154 H133 0.949 . S
C154 C153 1.389 . S
C154 C155 1.387 . S
C155 C154 1.387 . S
C155 C156 1.372 . S
C156 H134 0.950 . S
C156 C155 1.372 . S
C156 C157 1.379 . S
C157 H135 0.948 . S
C157 C152 1.364 . S
C157 C156 1.379 . S
C158 C127 1.383 . S
C158 C145 1.479 . S
C158 C159 1.398 . S
C159 C124 1.382 . S
C159 H136 0.951 . S
C159 C158 1.398 . S
C160 C161 1.384 . S
C160 H173 0.947 . S
C160 C195 1.382 . S
C161 C160 1.384 . S
C161 C162 1.378 . S
C162 C161 1.378 . S
C162 C163 1.378 . S
C162 H174 0.952 . S
C163 C162 1.378 . S
C163 H175 0.950 . S
C163 C194 1.383 . S
H164 C183 0.947 . S
H165 C184 0.946 . S
H166 C186 0.953 . S
H167 C187 0.945 . S
H168 C189 0.952 . S
H169 C190 0.949 . S
H170 C192 0.950 . S
H171 C193 0.948 . S
H172 C195 0.951 . S
H173 C160 0.947 . S
H174 C162 0.952 . S
H175 C163 0.950 . S
N176 C179 1.382 1_556 S
N176 C181 1.363 . S
N177 C179 1.371 . S
N177 C180 1.372 . S
N178 C180 1.361 . S
N178 C181 1.377 1_554 S
C179 N176 1.382 1_554 S
C179 N177 1.371 . S
C179 C182 1.480 . S
C180 N177 1.372 . S
C180 N178 1.361 . S
C180 C188 1.457 . S
C181 N176 1.363 . S
C181 N178 1.377 1_556 S
C181 C194 1.479 . S
C182 C179 1.480 . S
C182 C183 1.383 1_554 S
C182 C187 1.385 . S
C183 H164 0.947 . S
C183 C182 1.383 1_556 S
C183 C184 1.388 . S
C184 H165 0.946 . S
C184 C183 1.388 . S
C184 C185 1.384 1_556 S
C185 C184 1.384 1_554 S
C185 C186 1.377 . S
C186 H166 0.953 . S
C186 C185 1.377 . S
C186 C187 1.369 . S
C187 H167 0.945 . S
C187 C182 1.385 . S
C187 C186 1.369 . S
C188 C180 1.457 . S
C188 C189 1.372 . S
C188 C193 1.364 . S
C189 H168 0.952 . S
C189 C188 1.372 . S
C189 C190 1.389 . S
C190 H169 0.949 . S
C190 C189 1.389 . S
C190 C191 1.387 . S
C191 C190 1.387 . S
C191 C192 1.372 . S
C192 H170 0.950 . S
C192 C191 1.372 . S
C192 C193 1.379 . S
C193 H171 0.948 . S
C193 C188 1.364 . S
C193 C192 1.379 . S
C194 C163 1.383 . S
C194 C181 1.479 . S
C194 C195 1.398 . S
C195 C160 1.382 . S
C195 H172 0.951 . S
C195 C194 1.398 . S
C196 C197 1.384 . S
C196 H209 0.947 . S
C196 C231 1.382 . S
C197 C196 1.384 . S
C197 C198 1.378 . S
C198 C197 1.378 . S
C198 C199 1.378 . S
C198 H210 0.952 . S
C199 C198 1.378 . S
C199 H211 0.950 . S
C199 C230 1.383 . S
H200 C219 0.947 . S
H201 C220 0.946 . S
H202 C222 0.953 . S
H203 C223 0.945 . S
H204 C225 0.952 . S
H205 C226 0.949 . S
H206 C228 0.950 . S
H207 C229 0.948 . S
H208 C231 0.951 . S
H209 C196 0.947 . S
H210 C198 0.952 . S
H211 C199 0.950 . S
N212 C215 1.382 1_455 S
N212 C217 1.363 . S
N213 C215 1.368 1_455 S
N213 C216 1.378 . S
N214 C216 1.361 . S
N214 C217 1.377 . S
C215 N212 1.382 1_655 S
C215 N213 1.368 1_655 S
C215 C218 1.480 . S
C216 N213 1.378 . S
C216 N214 1.361 . S
C216 C224 1.457 . S
C217 N212 1.363 . S
C217 N214 1.377 . S
C217 C230 1.479 . S
C218 C215 1.480 . S
C218 C219 1.383 . S
C218 C223 1.385 . S
C219 H200 0.947 . S
C219 C218 1.383 . S
C219 C220 1.388 . S
C220 H201 0.946 . S
C220 C219 1.388 . S
C220 C221 1.384 . S
C221 C220 1.384 . S
C221 C222 1.377 . S
C222 H202 0.953 . S
C222 C221 1.377 . S
C222 C223 1.369 . S
C223 H203 0.945 . S
C223 C218 1.385 . S
C223 C222 1.369 . S
C224 C216 1.457 . S
C224 C225 1.372 . S
C224 C229 1.364 . S
C225 H204 0.952 . S
C225 C224 1.372 . S
C225 C226 1.389 . S
C226 H205 0.949 . S
C226 C225 1.389 . S
C226 C227 1.387 . S
C227 C226 1.387 . S
C227 C228 1.372 . S
C228 H206 0.950 . S
C228 C227 1.372 . S
C228 C229 1.379 . S
C229 H207 0.948 . S
C229 C224 1.364 . S
C229 C228 1.379 . S
C230 C199 1.383 . S
C230 C217 1.479 . S
C230 C231 1.398 . S
C231 C196 1.382 . S
C231 H208 0.951 . S
C231 C230 1.398 . S
C232 C233 1.384 . S
C232 H245 0.947 . S
C232 C267 1.382 . S
C233 C232 1.384 . S
C233 C234 1.378 . S
C234 C233 1.378 . S
C234 C235 1.378 . S
C234 H246 0.952 . S
C235 C234 1.378 . S
C235 H247 0.950 . S
C235 C266 1.383 . S
H236 C255 0.947 . S
H237 C256 0.946 . S
H238 C258 0.953 . S
H239 C259 0.945 . S
H240 C261 0.952 . S
H241 C262 0.949 . S
H242 C264 0.950 . S
H243 C265 0.948 . S
H244 C267 0.951 . S
H245 C232 0.947 . S
H246 C234 0.952 . S
H247 C235 0.950 . S
N248 C251 1.386 . S
N248 C253 1.355 1_545 S
N249 C251 1.371 . S
N249 C252 1.372 1_545 S
N250 C252 1.361 . S
N250 C253 1.377 . S
C251 N248 1.386 . S
C251 N249 1.371 . S
C251 C254 1.480 . S
C252 N249 1.372 1_565 S
C252 N250 1.361 . S
C252 C260 1.457 . S
C253 N248 1.355 1_565 S
C253 N250 1.377 . S
C253 C266 1.479 . S
C254 C251 1.480 . S
C254 C255 1.383 . S
C254 C259 1.385 . S
C255 H236 0.947 . S
C255 C254 1.383 . S
C255 C256 1.388 . S
C256 H237 0.946 . S
C256 C255 1.388 . S
C256 C257 1.384 . S
C257 C256 1.384 . S
C257 C258 1.377 . S
C258 H238 0.953 . S
C258 C257 1.377 . S
C258 C259 1.369 . S
C259 H239 0.945 . S
C259 C254 1.385 . S
C259 C258 1.369 . S
C260 C252 1.457 . S
C260 C261 1.372 . S
C260 C265 1.364 . S
C261 H240 0.952 . S
C261 C260 1.372 . S
C261 C262 1.389 . S
C262 H241 0.949 . S
C262 C261 1.389 . S
C262 C263 1.387 . S
C263 C262 1.387 . S
C263 C264 1.372 . S
C264 H242 0.950 . S
C264 C263 1.372 . S
C264 C265 1.379 . S
C265 H243 0.948 . S
C265 C260 1.364 . S
C265 C264 1.379 . S
C266 C235 1.383 . S
C266 C253 1.479 . S
C266 C267 1.398 . S
C267 C232 1.382 . S
C267 H244 0.951 . S
C267 C266 1.398 . S
C268 C269 1.384 . S
C268 H281 0.947 . S
C268 C303 1.382 . S
C269 C268 1.384 . S
C269 C270 1.378 . S
C270 C269 1.378 . S
C270 C271 1.378 . S
C270 H282 0.952 . S
C271 C270 1.378 . S
C271 H283 0.950 . S
C271 C302 1.383 . S
H272 C291 0.947 . S
H273 C292 0.946 . S
H274 C294 0.953 . S
H275 C295 0.945 . S
H276 C297 0.952 . S
H277 C298 0.949 . S
H278 C300 0.950 . S
H279 C301 0.948 . S
H280 C303 0.951 . S
H281 C268 0.947 . S
H282 C270 0.952 . S
H283 C271 0.950 . S
N284 C287 1.382 1_556 S
N284 C289 1.363 . S
N285 C287 1.371 . S
N285 C288 1.372 . S
N286 C288 1.361 . S
N286 C289 1.377 1_554 S
C287 N284 1.382 1_554 S
C287 N285 1.371 . S
C287 C290 1.480 . S
C288 N285 1.372 . S
C288 N286 1.361 . S
C288 C296 1.457 . S
C289 N284 1.363 . S
C289 N286 1.377 1_556 S
C289 C302 1.479 . S
C290 C287 1.480 . S
C290 C291 1.383 1_554 S
C290 C295 1.385 . S
C291 H272 0.947 . S
C291 C290 1.383 1_556 S
C291 C292 1.388 . S
C292 H273 0.946 . S
C292 C291 1.388 . S
C292 C293 1.384 1_556 S
C293 C292 1.384 1_554 S
C293 C294 1.377 . S
C294 H274 0.953 . S
C294 C293 1.377 . S
C294 C295 1.369 . S
C295 H275 0.945 . S
C295 C290 1.385 . S
C295 C294 1.369 . S
C296 C288 1.457 . S
C296 C297 1.372 . S
C296 C301 1.364 . S
C297 H276 0.952 . S
C297 C296 1.372 . S
C297 C298 1.389 . S
C298 H277 0.949 . S
C298 C297 1.389 . S
C298 C299 1.387 . S
C299 C298 1.387 . S
C299 C300 1.372 . S
C300 H278 0.950 . S
C300 C299 1.372 . S
C300 C301 1.379 . S
C301 H279 0.948 . S
C301 C296 1.364 . S
C301 C300 1.379 . S
C302 C271 1.383 . S
C302 C289 1.479 . S
C302 C303 1.398 . S
C303 C268 1.382 . S
C303 H280 0.951 . S
C303 C302 1.398 . S
C304 C305 1.384 . S
C304 H317 0.947 . S
C304 C339 1.382 . S
C305 C304 1.384 . S
C305 C306 1.378 . S
C306 C305 1.378 . S
C306 C307 1.378 . S
C306 H318 0.952 . S
C307 C306 1.378 . S
C307 H319 0.950 . S
C307 C338 1.383 . S
H308 C327 0.947 . S
H309 C328 0.946 . S
H310 C330 0.953 . S
H311 C331 0.945 . S
H312 C333 0.952 . S
H313 C334 0.949 . S
H314 C336 0.950 . S
H315 C337 0.948 . S
H316 C339 0.951 . S
H317 C304 0.947 . S
H318 C306 0.952 . S
H319 C307 0.950 . S
N320 C323 1.382 1_545 S
N320 C325 1.363 . S
N321 C323 1.369 1_545 S
N321 C324 1.375 . S
N322 C324 1.361 . S
N322 C325 1.377 . S
C323 N320 1.382 1_565 S
C323 N321 1.369 1_565 S
C323 C326 1.480 . S
C324 N321 1.375 . S
C324 N322 1.361 . S
C324 C332 1.457 . S
C325 N320 1.363 . S
C325 N322 1.377 . S
C325 C338 1.479 . S
C326 C323 1.480 . S
C326 C327 1.383 . S
C326 C331 1.385 . S
C327 H308 0.947 . S
C327 C326 1.383 . S
C327 C328 1.388 . S
C328 H309 0.946 . S
C328 C327 1.388 . S
C328 C329 1.384 . S
C329 C328 1.384 . S
C329 C330 1.377 . S
C330 H310 0.953 . S
C330 C329 1.377 . S
C330 C331 1.369 . S
C331 H311 0.945 . S
C331 C326 1.385 . S
C331 C330 1.369 . S
C332 C324 1.457 . S
C332 C333 1.372 . S
C332 C337 1.364 . S
C333 H312 0.952 . S
C333 C332 1.372 . S
C333 C334 1.389 . S
C334 H313 0.949 . S
C334 C333 1.389 . S
C334 C335 1.387 . S
C335 C334 1.387 . S
C335 C336 1.372 . S
C336 H314 0.950 . S
C336 C335 1.372 . S
C336 C337 1.379 . S
C337 H315 0.948 . S
C337 C332 1.364 . S
C337 C336 1.379 . S
C338 C307 1.383 . S
C338 C325 1.479 . S
C338 C339 1.398 . S
C339 C304 1.382 . S
C339 H316 0.951 . S
C339 C338 1.398 . S
C340 C341 1.384 . S
C340 H353 0.947 . S
C340 C375 1.382 . S
C341 C340 1.384 . S
C341 C342 1.378 . S
C342 C341 1.378 . S
C342 C343 1.378 . S
C342 H354 0.952 . S
C343 C342 1.378 . S
C343 H355 0.950 . S
C343 C374 1.383 . S
H344 C363 0.947 . S
H345 C364 0.946 . S
H346 C366 0.953 . S
H347 C367 0.945 . S
H348 C369 0.952 . S
H349 C370 0.949 . S
H350 C372 0.950 . S
H351 C373 0.948 . S
H352 C375 0.951 . S
H353 C340 0.947 . S
H354 C342 0.952 . S
H355 C343 0.950 . S
N356 C359 1.382 1_554 S
N356 C361 1.363 . S
N357 C359 1.371 . S
N357 C360 1.372 . S
N358 C360 1.361 . S
N358 C361 1.377 1_556 S
C359 N356 1.382 1_556 S
C359 N357 1.371 . S
C359 C362 1.480 . S
C360 N357 1.372 . S
C360 N358 1.361 . S
C360 C368 1.457 . S
C361 N356 1.363 . S
C361 N358 1.377 1_554 S
C361 C374 1.479 . S
C362 C359 1.480 . S
C362 C363 1.383 1_556 S
C362 C367 1.385 . S
C363 H344 0.947 . S
C363 C362 1.383 1_554 S
C363 C364 1.388 . S
C364 H345 0.946 . S
C364 C363 1.388 . S
C364 C365 1.384 1_554 S
C365 C364 1.384 1_556 S
C365 C366 1.377 . S
C366 H346 0.953 . S
C366 C365 1.377 . S
C366 C367 1.369 . S
C367 H347 0.945 . S
C367 C362 1.385 . S
C367 C366 1.369 . S
C368 C360 1.457 . S
C368 C369 1.372 . S
C368 C373 1.364 . S
C369 H348 0.952 . S
C369 C368 1.372 . S
C369 C370 1.389 . S
C370 H349 0.949 . S
C370 C369 1.389 . S
C370 C371 1.387 . S
C371 C370 1.387 . S
C371 C372 1.372 . S
C372 H350 0.950 . S
C372 C371 1.372 . S
C372 C373 1.379 . S
C373 H351 0.948 . S
C373 C368 1.364 . S
C373 C372 1.379 . S
C374 C343 1.383 . S
C374 C361 1.479 . S
C374 C375 1.398 . S
C375 C340 1.382 . S
C375 H352 0.951 . S
C375 C374 1.398 . S
C5 C197 1.961 . S
C31 C119 1.819 . S
C155 C53 1.813 . S
C71 C161 1.955 . S
C299 C75 1.819 . S
C305 C9 1.961 . S
C341 C27 1.955 . S
C263 C49 1.813 . S
C51 C125 1.872 . S
C72 C191 1.937 . S
C6 C227 1.930 . S
C89 C29 1.866 . S
C28 C371 1.937 . S
C233 C50 1.872 . S
C269 C73 1.866 . S
C7 C335 1.930 . S
C113 C4 1.695 1_556 S
C149 C30 1.695 . S
C52 C185 1.834 . S
C70 C221 1.834 . S
C257 C74 1.695 . S
C8 C293 1.696 . S
C26 C329 1.833 . S
C48 C365 1.833 1_554 S
