# Generated by pormake.
# Topology wbl, (4,4)-cn, num edge types: 1
# Building blocks:
#     Node 0, Type 0, BuildingBlock: MIFKUJ_clean_linker_1, # of connection points: 4
#     Node 1, Type 0, BuildingBlock: MIFKUJ_clean_linker_1, # of connection points: 4
#     Node 2, Type 0, BuildingBlock: MIFKUJ_clean_linker_1, # of connection points: 4
#     Node 3, Type 0, BuildingBlock: MIFKUJ_clean_linker_1, # of connection points: 4
#     Node 4, Type 0, BuildingBlock: MIFKUJ_clean_linker_1, # of connection points: 4
#     Node 5, Type 0, BuildingBlock: MIFKUJ_clean_linker_1, # of connection points: 4
#     Node 6, Type 0, BuildingBlock: MIFKUJ_clean_linker_1, # of connection points: 4
#     Node 7, Type 0, BuildingBlock: MIFKUJ_clean_linker_1, # of connection points: 4
#     Node 8, Type 1, BuildingBlock: NAHDIM_clean_sbu_0, # of connection points: 4
#     Node 9, Type 1, BuildingBlock: NAHDIM_clean_sbu_0, # of connection points: 4
#     Node 10, Type 1, BuildingBlock: NAHDIM_clean_sbu_0, # of connection points: 4
#     Node 11, Type 1, BuildingBlock: NAHDIM_clean_sbu_0, # of connection points: 4
#     Node 12, Type 1, BuildingBlock: NAHDIM_clean_sbu_0, # of connection points: 4
#     Node 13, Type 1, BuildingBlock: NAHDIM_clean_sbu_0, # of connection points: 4
#     Node 14, Type 1, BuildingBlock: NAHDIM_clean_sbu_0, # of connection points: 4
#     Node 15, Type 1, BuildingBlock: NAHDIM_clean_sbu_0, # of connection points: 4
#     Edge 16, Type (0, 1), BuildingBlock: MIFKUJ_clean_linker_0, # of connection points: 2
#     Edge 17, Type (0, 1), BuildingBlock: MIFKUJ_clean_linker_0, # of connection points: 2
#     Edge 18, Type (0, 1), BuildingBlock: MIFKUJ_clean_linker_0, # of connection points: 2
#     Edge 19, Type (0, 1), BuildingBlock: MIFKUJ_clean_linker_0, # of connection points: 2
#     Edge 20, Type (0, 1), BuildingBlock: MIFKUJ_clean_linker_0, # of connection points: 2
#     Edge 21, Type (0, 1), BuildingBlock: MIFKUJ_clean_linker_0, # of connection points: 2
#     Edge 22, Type (0, 1), BuildingBlock: MIFKUJ_clean_linker_0, # of connection points: 2
#     Edge 23, Type (0, 1), BuildingBlock: MIFKUJ_clean_linker_0, # of connection points: 2
#     Edge 24, Type (0, 1), BuildingBlock: MIFKUJ_clean_linker_0, # of connection points: 2
#     Edge 25, Type (0, 1), BuildingBlock: MIFKUJ_clean_linker_0, # of connection points: 2
#     Edge 26, Type (0, 1), BuildingBlock: MIFKUJ_clean_linker_0, # of connection points: 2
#     Edge 27, Type (0, 1), BuildingBlock: MIFKUJ_clean_linker_0, # of connection points: 2
#     Edge 28, Type (0, 1), BuildingBlock: MIFKUJ_clean_linker_0, # of connection points: 2
#     Edge 29, Type (0, 1), BuildingBlock: MIFKUJ_clean_linker_0, # of connection points: 2
#     Edge 30, Type (0, 1), BuildingBlock: MIFKUJ_clean_linker_0, # of connection points: 2
#     Edge 31, Type (0, 1), BuildingBlock: MIFKUJ_clean_linker_0, # of connection points: 2
#     Edge 32, Type (0, 1), BuildingBlock: MIFKUJ_clean_linker_0, # of connection points: 2
#     Edge 33, Type (0, 1), BuildingBlock: MIFKUJ_clean_linker_0, # of connection points: 2
#     Edge 34, Type (0, 1), BuildingBlock: MIFKUJ_clean_linker_0, # of connection points: 2
#     Edge 35, Type (0, 1), BuildingBlock: MIFKUJ_clean_linker_0, # of connection points: 2
#     Edge 36, Type (0, 1), BuildingBlock: MIFKUJ_clean_linker_0, # of connection points: 2
#     Edge 37, Type (0, 1), BuildingBlock: MIFKUJ_clean_linker_0, # of connection points: 2
#     Edge 38, Type (0, 1), BuildingBlock: MIFKUJ_clean_linker_0, # of connection points: 2
#     Edge 39, Type (0, 1), BuildingBlock: MIFKUJ_clean_linker_0, # of connection points: 2
#     Edge 40, Type (0, 1), BuildingBlock: MIFKUJ_clean_linker_0, # of connection points: 2
#     Edge 41, Type (0, 1), BuildingBlock: MIFKUJ_clean_linker_0, # of connection points: 2
#     Edge 42, Type (0, 1), BuildingBlock: MIFKUJ_clean_linker_0, # of connection points: 2
#     Edge 43, Type (0, 1), BuildingBlock: MIFKUJ_clean_linker_0, # of connection points: 2
#     Edge 44, Type (0, 1), BuildingBlock: MIFKUJ_clean_linker_0, # of connection points: 2
#     Edge 45, Type (0, 1), BuildingBlock: MIFKUJ_clean_linker_0, # of connection points: 2
#     Edge 46, Type (0, 1), BuildingBlock: MIFKUJ_clean_linker_0, # of connection points: 2
#     Edge 47, Type (0, 1), BuildingBlock: MIFKUJ_clean_linker_0, # of connection points: 2
# Relax obj value: 0.144
# Max RMSD: 0.133
# Mean RMSD: 0.124
data_MOF--net-wbl--node1-NAHDIM_clean_sbu_0--node2-MIFKUJ_clean_linker_1--edge1-MIFKUJ_clean_linker_0
_symmetry_space_group_name_H-M    P1
_symmetry_Int_Tables_number       1
_symmetry_cell_setting            triclinic
loop_
_symmetry_equiv_pos_as_xyz
'x, y, z'
_cell_length_a     58.593587
_cell_length_b     56.796619
_cell_length_c     90.955143
_cell_angle_alpha  90.045986
_cell_angle_beta   89.998322
_cell_angle_gamma 89.998694
loop_
_atom_site_label
_atom_site_type_symbol
_atom_site_fract_x
_atom_site_fract_y
_atom_site_fract_z
_atom_type_partial_charge
H0 H 0.0124 0.05575 0.36277 0.0
H1 H 0.99182 0.08366 0.37834 0.0
H2 H 0.9291 0.0456 0.37018 0.0
H3 H 0.94972 0.01853 0.35411 0.0
H4 H 0.01515 0.00604 0.36644 0.0
H5 H 0.99103 0.06283 0.33094 0.0
H6 H 0.96388 0.08831 0.31819 0.0
H7 H 0.92563 0.02704 0.30445 0.0
H8 H 0.95292 0.00166 0.31719 0.0
H9 H 0.00237 0.9448 0.31707 0.0
H10 H 0.02457 0.91695 0.30207 0.0
H11 H 0.08568 0.9571 0.31081 0.0
H12 H 0.06356 0.98461 0.32586 0.0
H13 H 0.99825 0.99528 0.31338 0.0
H14 H 0.02249 0.93851 0.3488 0.0
H15 H 0.04813 0.91321 0.36289 0.0
H16 H 0.08612 0.97447 0.37694 0.0
H17 H 0.06027 -0.00031 0.36288 0.0
C18 C 0.98254 0.0352 0.35727 0.0
C19 C 0.99419 0.05358 0.36431 0.0
C20 C 0.98239 0.06941 0.37328 0.0
C21 C 0.95875 0.0669 0.37561 0.0
C22 C 0.94718 0.0484 0.36847 0.0
C23 C 0.95895 0.03279 0.35934 0.0
C24 C 0.99516 0.01809 0.34808 0.0
C25 C 0.01171 0.00391 0.3548 0.0
C26 C 0.99018 0.01495 0.33299 0.0
C27 C 0.97381 0.03037 0.32517 0.0
C28 C 0.97669 0.05491 0.32528 0.0
C29 C 0.96117 0.06945 0.31798 0.0
C30 C 0.94258 0.0597 0.31034 0.0
C31 C 0.93993 0.03508 0.31009 0.0
C32 C 0.95544 0.02056 0.31741 0.0
C33 C 0.0314 0.96663 0.32258 0.0
C34 C 0.02054 0.94755 0.3157 0.0
C35 C 0.03319 0.93167 0.30723 0.0
C36 C 0.05676 0.93501 0.30528 0.0
C37 C 0.06749 0.95429 0.31204 0.0
C38 C 0.05493 0.96991 0.32068 0.0
C39 C 0.01828 0.98329 0.33176 0.0
C40 C 0.00167 0.9974 0.32504 0.0
C41 C 0.02323 0.98641 0.34684 0.0
C42 C 0.03956 0.97098 0.35472 0.0
C43 C 0.03656 0.94645 0.35473 0.0
C44 C 0.05125 0.93201 0.36278 0.0
C45 C 0.06915 0.94183 0.37106 0.0
C46 C 0.07231 0.96639 0.37084 0.0
C47 C 0.05761 0.98081 0.36278 0.0
H48 H 0.98619 0.45903 0.55955 0.0
H49 H 0.96101 0.43086 0.54731 0.0
H50 H 0.90226 0.46819 0.56414 0.0
H51 H 0.92757 0.49678 0.57593 0.0
H52 H 0.99319 0.50694 0.55946 0.0
H53 H 0.96232 0.44757 0.59234 0.0
H54 H 0.93291 0.42613 0.60579 0.0
H55 H 0.91292 0.49078 0.62746 0.0
H56 H 0.94111 0.51227 0.61314 0.0
H57 H 0.99718 0.55513 0.61528 0.0
H58 H 0.02527 0.57543 0.63071 0.0
H59 H 0.07896 0.53293 0.61184 0.0
H60 H 0.05079 0.51257 0.59653 0.0
H61 H 0.98594 0.50801 0.61384 0.0
H62 H 0.01398 0.5676 0.58304 0.0
H63 H 0.04557 0.59099 0.57336 0.0
H64 H 0.0699 0.53065 0.54913 0.0
H65 H 0.03871 0.50675 0.55942 0.0
C66 C 0.95873 0.47975 0.56882 0.0
C67 C 0.96788 0.46147 0.56029 0.0
C68 C 0.95348 0.44526 0.55344 0.0
C69 C 0.92967 0.44708 0.55497 0.0
C70 C 0.92052 0.46634 0.56271 0.0
C71 C 0.93496 0.48261 0.56952 0.0
C72 C 0.97406 0.49422 0.57809 0.0
C73 C 0.99167 0.50707 0.57134 0.0
C74 C 0.97171 0.49489 0.59359 0.0
C75 C 0.9537 0.48162 0.60155 0.0
C76 C 0.95123 0.4572 0.59973 0.0
C77 C 0.93458 0.44489 0.60761 0.0
C78 C 0.92044 0.45666 0.61775 0.0
C79 C 0.92307 0.48113 0.61954 0.0
C80 C 0.93943 0.49345 0.61149 0.0
C81 C 0.02195 0.53245 0.60475 0.0
C82 C 0.015 0.55016 0.61453 0.0
C83 C 0.03105 0.56185 0.62322 0.0
C84 C 0.05427 0.55578 0.62242 0.0
C85 C 0.06115 0.53785 0.61273 0.0
C86 C 0.04512 0.5263 0.60396 0.0
C87 C 0.00502 0.5205 0.59524 0.0
C88 C 0.98724 0.50806 0.60194 0.0
C89 C 0.00693 0.52057 0.57974 0.0
C90 C 0.02431 0.53527 0.57224 0.0
C91 C 0.02614 0.5593 0.57571 0.0
C92 C 0.04412 0.57265 0.57018 0.0
C93 C 0.06021 0.56242 0.56072 0.0
C94 C 0.05768 0.53879 0.55649 0.0
C95 C 0.03987 0.52523 0.56229 0.0
H96 H 0.50895 0.55498 0.86243 0.0
H97 H 0.48429 0.57865 0.87833 0.0
H98 H 0.42485 0.54663 0.85857 0.0
H99 H 0.44957 0.52284 0.84279 0.0
H100 H 0.51309 0.50841 0.86165 0.0
H101 H 0.49055 0.56832 0.82719 0.0
H102 H 0.46217 0.59243 0.81448 0.0
H103 H 0.43445 0.52985 0.79413 0.0
H104 H 0.46209 0.50579 0.80739 0.0
H105 H 0.50836 0.45151 0.81111 0.0
H106 H 0.53175 0.42267 0.79772 0.0
H107 H 0.59248 0.46152 0.80928 0.0
H108 H 0.56913 0.48996 0.82297 0.0
H109 H 0.50634 0.50264 0.8074 0.0
H110 H 0.52577 0.44294 0.84191 0.0
H111 H 0.54974 0.41673 0.8564 0.0
H112 H 0.58086 0.47709 0.87738 0.0
H113 H 0.55788 0.50321 0.86207 0.0
C114 C 0.48112 0.53729 0.85133 0.0
C115 C 0.49061 0.55315 0.86147 0.0
C116 C 0.47651 0.56662 0.87056 0.0
C117 C 0.45265 0.56448 0.86969 0.0
C118 C 0.44317 0.5489 0.85934 0.0
C119 C 0.45728 0.5353 0.85032 0.0
C120 C 0.49619 0.52192 0.84239 0.0
C121 C 0.51194 0.50753 0.84975 0.0
C122 C 0.49421 0.52026 0.82691 0.0
C123 C 0.47818 0.53521 0.81844 0.0
C124 C 0.47828 0.55981 0.82004 0.0
C125 C 0.46223 0.5736 0.81263 0.0
C126 C 0.44594 0.56303 0.80338 0.0
C127 C 0.44649 0.53848 0.80138 0.0
C128 C 0.46242 0.52472 0.80885 0.0
C129 C 0.5371 0.47273 0.81803 0.0
C130 C 0.5267 0.45383 0.81068 0.0
C131 C 0.54 0.43739 0.80312 0.0
C132 C 0.5638 0.44003 0.80251 0.0
C133 C 0.57412 0.45929 0.80956 0.0
C134 C 0.56087 0.47543 0.81737 0.0
C135 C 0.52313 0.48932 0.82669 0.0
C136 C 0.50767 0.50388 0.81927 0.0
C137 C 0.52529 0.49106 0.84213 0.0
C138 C 0.54031 0.47509 0.85068 0.0
C139 C 0.53818 0.45056 0.84934 0.0
C140 C 0.55166 0.43556 0.85784 0.0
C141 C 0.56725 0.44475 0.86812 0.0
C142 C 0.56936 0.46935 0.86941 0.0
C143 C 0.55605 0.48434 0.86077 0.0
H144 H 0.49693 0.95545 0.05217 0.0
H145 H 0.47265 0.92904 0.03807 0.0
H146 H 0.41322 0.95742 0.06012 0.0
H147 H 0.4374 0.98541 0.07294 0.0
H148 H 0.50303 -0.00053 0.05383 0.0
H149 H 0.47937 0.94212 0.09032 0.0
H150 H 0.4539 0.91878 0.1059 0.0
H151 H 0.42088 0.9827 0.12058 0.0
H152 H 0.44676 0.00584 0.10532 0.0
H153 H 0.49882 0.05688 0.10493 0.0
H154 H 0.52229 0.08124 0.12107 0.0
H155 H 0.58153 0.03967 0.10952 0.0
H156 H 0.55799 0.01608 0.09291 0.0
H157 H 0.49334 0.00749 0.10779 0.0
H158 H 0.51605 0.06425 0.07189 0.0
H159 H 0.54323 0.08884 0.05857 0.0
H160 H 0.57789 0.0265 0.04295 0.0
H161 H 0.55069 0.00186 0.05657 0.0
C162 C 0.46912 0.97206 0.06393 0.0
C163 C 0.47863 0.95624 0.05379 0.0
C164 C 0.46468 0.94087 0.04586 0.0
C165 C 0.44088 0.94067 0.04808 0.0
C166 C 0.43138 0.95706 0.05795 0.0
C167 C 0.44529 0.97284 0.06557 0.0
C168 C 0.48411 0.98765 0.07281 0.0
C169 C 0.5011 0.00084 0.06567 0.0
C170 C 0.48141 0.99003 0.08822 0.0
C171 C 0.46497 0.97569 0.09673 0.0
C172 C 0.46647 0.95102 0.09681 0.0
C173 C 0.45183 0.93772 0.10565 0.0
C174 C 0.43546 0.94889 0.11458 0.0
C175 C 0.43359 0.97357 0.11408 0.0
C176 C 0.4483 0.98683 0.10533 0.0
C177 C 0.5267 0.03473 0.09776 0.0
C178 C 0.51692 0.05322 0.10579 0.0
C179 C 0.53036 0.067 0.11509 0.0
C180 C 0.55381 0.06228 0.11676 0.0
C181 C 0.56363 0.04403 0.1084 0.0
C182 C 0.55019 0.03043 0.09894 0.0
C183 C 0.51204 0.0191 0.0888 0.0
C184 C 0.49525 0.00588 0.09596 0.0
C185 C 0.51502 0.01658 0.07348 0.0
C186 C 0.53151 0.03128 0.0653 0.0
C187 C 0.52957 0.05587 0.06567 0.0
C188 C 0.54497 0.06988 0.05794 0.0
C189 C 0.5626 0.05955 0.04967 0.0
C190 C 0.56454 0.03489 0.04931 0.0
C191 C 0.54899 0.02085 0.057 0.0
H192 H 0.99013 0.5502 0.88759 0.0
H193 H 0.01288 0.57179 0.86959 0.0
H194 H 0.074 0.53829 0.88598 0.0
H195 H 0.05109 0.51669 0.90402 0.0
H196 H 0.98512 0.50328 0.88985 0.0
H197 H 0.01645 0.56573 0.91999 0.0
H198 H 0.0472 0.58865 0.93117 0.0
H199 H 0.0706 0.5263 0.9539 0.0
H200 H 0.04083 0.5033 0.94198 0.0
H201 H 0.99006 0.45801 0.94638 0.0
H202 H 0.96558 0.4349 0.96277 0.0
H203 H 0.9062 0.46996 0.94507 0.0
H204 H 0.93074 0.49323 0.92891 0.0
H205 H 0.99678 0.50501 0.94382 0.0
H206 H 0.96718 0.44256 0.91523 0.0
H207 H 0.94044 0.41651 0.90287 0.0
H208 H 0.91711 0.47486 0.87624 0.0
H209 H 0.94225 0.5012 0.8897 0.0
C210 C 0.01892 0.53195 0.8972 0.0
C211 C 0.00844 0.54754 0.88733 0.0
C212 C 0.02144 0.5598 0.87702 0.0
C213 C 0.04521 0.55665 0.87632 0.0
C214 C 0.05575 0.54126 0.88635 0.0
C215 C 0.04269 0.52892 0.89666 0.0
C216 C 0.00469 0.51817 0.90756 0.0
C217 C 0.98735 0.50396 0.90169 0.0
C218 C 0.00837 0.51835 0.92294 0.0
C219 C 0.02656 0.53268 0.92993 0.0
C220 C 0.02843 0.55695 0.92721 0.0
C221 C 0.04585 0.57011 0.93377 0.0
C222 C 0.06151 0.55932 0.94337 0.0
C223 C 0.0592 0.53512 0.94632 0.0
C224 C 0.042 0.52196 0.93963 0.0
C225 C 0.96217 0.47716 0.93637 0.0
C226 C 0.97178 0.46083 0.94615 0.0
C227 C 0.9578 0.44756 0.95542 0.0
C228 C 0.93401 0.45064 0.95518 0.0
C229 C 0.9245 0.4674 0.9456 0.0
C230 C 0.93846 0.48055 0.93628 0.0
C231 C 0.97693 0.49047 0.92612 0.0
C232 C 0.99438 0.50449 0.932 0.0
C233 C 0.97354 0.48987 0.91071 0.0
C234 C 0.95657 0.47401 0.9036 0.0
C235 C 0.95579 0.44993 0.90707 0.0
C236 C 0.94071 0.43489 0.89975 0.0
C237 C 0.92657 0.4434 0.88841 0.0
C238 C 0.92731 0.4676 0.88506 0.0
C239 C 0.94198 0.48271 0.89263 0.0
H240 H 0.48894 0.53376 0.21068 0.0
H241 H 0.46727 0.56066 0.22628 0.0
H242 H 0.40488 0.53862 0.20491 0.0
H243 H 0.4265 0.51075 0.19002 0.0
H244 H 0.49078 0.48796 0.20595 0.0
H245 H 0.47177 0.55615 0.17538 0.0
H246 H 0.44797 0.58474 0.16218 0.0
H247 H 0.41034 0.52758 0.14229 0.0
H248 H 0.43411 0.49918 0.15549 0.0
H249 H 0.48823 0.45068 0.14647 0.0
H250 H 0.5135 0.43093 0.12897 0.0
H251 H 0.57208 0.46055 0.15118 0.0
H252 H 0.54668 0.48089 0.1683 0.0
H253 H 0.48222 0.49694 0.15194 0.0
H254 H 0.50526 0.42947 0.17866 0.0
H255 H 0.53523 0.40211 0.18623 0.0
H256 H 0.56584 0.45659 0.21285 0.0
H257 H 0.53615 0.48428 0.20486 0.0
C258 C 0.4594 0.5206 0.19897 0.0
C259 C 0.47054 0.5344 0.20956 0.0
C260 C 0.45813 0.54995 0.21838 0.0
C261 C 0.43435 0.55211 0.21671 0.0
C262 C 0.42313 0.53737 0.20658 0.0
C263 C 0.43552 0.52163 0.1979 0.0
C264 C 0.47292 0.50608 0.18857 0.0
C265 C 0.48899 0.49004 0.19415 0.0
C266 C 0.47027 0.50828 0.17317 0.0
C267 C 0.4546 0.5256 0.16641 0.0
C268 C 0.45814 0.54985 0.16835 0.0
C269 C 0.44463 0.56611 0.16078 0.0
C270 C 0.42731 0.55835 0.15124 0.0
C271 C 0.42336 0.53406 0.14972 0.0
C272 C 0.437 0.51784 0.15716 0.0
C273 C 0.51558 0.46708 0.15875 0.0
C274 C 0.50651 0.45296 0.14752 0.0
C275 C 0.52099 0.44151 0.13762 0.0
C276 C 0.5448 0.44409 0.13874 0.0
C277 C 0.55381 0.45836 0.14996 0.0
C278 C 0.53933 0.46983 0.15982 0.0
C279 C 0.5002 0.47913 0.16929 0.0
C280 C 0.4838 0.49466 0.16375 0.0
C281 C 0.5025 0.47635 0.18468 0.0
C282 C 0.51874 0.45904 0.19096 0.0
C283 C 0.51839 0.43555 0.18614 0.0
C284 C 0.5355 0.41997 0.19044 0.0
C285 C 0.55296 0.42742 0.19993 0.0
C286 C 0.55255 0.4505 0.20549 0.0
C287 C 0.53559 0.46625 0.20098 0.0
H288 H 0.49178 0.95325 0.38698 0.0
H289 H 0.46561 0.92973 0.37205 0.0
H290 H 0.40894 0.95408 0.39839 0.0
H291 H 0.43517 0.97769 0.41323 0.0
H292 H 0.49402 -0.00063 0.39037 0.0
H293 H 0.48533 0.93357 0.42307 0.0
H294 H 0.46319 0.90412 0.43651 0.0
H295 H 0.42848 0.95982 0.46003 0.0
H296 H 0.45116 0.98904 0.44684 0.0
H297 H 0.50075 0.04588 0.44615 0.0
H298 H 0.52782 0.07045 0.45993 0.0
H299 H 0.58386 0.03702 0.43716 0.0
H300 H 0.55681 0.01253 0.42353 0.0
H301 H 0.49789 0.99593 0.44484 0.0
H302 H 0.51081 0.06169 0.41244 0.0
H303 H 0.53393 0.08948 0.3983 0.0
H304 H 0.56191 0.03164 0.37319 0.0
H305 H 0.53937 0.00393 0.3877 0.0
C306 C 0.46548 0.96713 0.40128 0.0
C307 C 0.47372 0.95348 0.38956 0.0
C308 C 0.45875 0.94009 0.38103 0.0
C309 C 0.43521 0.94009 0.38403 0.0
C310 C 0.42702 0.95347 0.39592 0.0
C311 C 0.442 0.96697 0.40441 0.0
C312 C 0.48134 0.9822 0.40985 0.0
C313 C 0.49508 0.99838 0.40227 0.0
C314 C 0.48247 0.98126 0.42537 0.0
C315 C 0.46968 0.96344 0.43388 0.0
C316 C 0.47299 0.93936 0.43118 0.0
C317 C 0.46029 0.92258 0.43883 0.0
C318 C 0.44399 0.92959 0.44932 0.0
C319 C 0.44112 0.95376 0.45221 0.0
C320 C 0.45395 0.97051 0.44462 0.0
C321 C 0.52683 0.02755 0.43379 0.0
C322 C 0.51888 0.04385 0.44419 0.0
C323 C 0.5343 0.05793 0.45197 0.0
C324 C 0.55789 0.05558 0.44961 0.0
C325 C 0.56577 0.03902 0.4393 0.0
C326 C 0.55037 0.02515 0.43145 0.0
C327 C 0.51058 0.01295 0.42534 0.0
C328 C 0.49679 0.9969 0.43294 0.0
C329 C 0.50968 0.01377 0.40981 0.0
C330 C 0.52354 0.03072 0.40121 0.0
C331 C 0.52213 0.055 0.404 0.0
C332 C 0.53519 0.07087 0.39582 0.0
C333 C 0.54981 0.06276 0.38465 0.0
C334 C 0.5511 0.03843 0.38186 0.0
C335 C 0.53806 0.02259 0.39005 0.0
H336 H 0.00328 0.04915 0.6904 0.0
H337 H 0.97961 0.07829 0.70282 0.0
H338 H 0.91914 0.04571 0.68464 0.0
H339 H 0.94288 0.0157 0.67303 0.0
H340 H 0.00742 0.0047 0.69364 0.0
H341 H 0.98664 0.05364 0.65339 0.0
H342 H 0.96327 0.07527 0.63571 0.0
H343 H 0.93063 0.01029 0.62269 0.0
H344 H 0.95404 0.98875 0.64041 0.0
H345 H 0.00211 0.93448 0.64939 0.0
H346 H 0.02538 0.90466 0.63709 0.0
H347 H 0.08561 0.94702 0.64472 0.0
H348 H 0.06226 0.97621 0.65749 0.0
H349 H 0.99865 0.98332 0.64104 0.0
H350 H 0.01764 0.93624 0.68395 0.0
H351 H 0.04523 0.91471 0.69898 0.0
H352 H 0.08423 0.97856 0.70499 0.0
H353 H 0.05645 8e-05 0.68986 0.0
C354 C 0.97492 0.03038 0.68062 0.0
C355 C 0.98491 0.04819 0.68916 0.0
C356 C 0.97134 0.06501 0.69614 0.0
C357 C 0.94744 0.06448 0.69466 0.0
C358 C 0.93746 0.04653 0.68615 0.0
C359 C 0.95105 0.02954 0.67931 0.0
C360 C 0.98946 0.0123 0.67347 0.0
C361 C 0.00563 0.00035 0.68208 0.0
C362 C 0.98704 0.00625 0.65843 0.0
C363 C 0.97198 0.01959 0.6483 0.0
C364 C 0.9742 0.0441 0.64689 0.0
C365 C 0.96083 0.05645 0.63678 0.0
C366 C 0.94514 0.04448 0.62778 0.0
C367 C 0.94278 0.01997 0.62933 0.0
C368 C 0.95609 0.00765 0.63948 0.0
C369 C 0.03049 0.95748 0.65432 0.0
C370 C 0.02037 0.93717 0.64849 0.0
C371 C 0.0337 0.92022 0.64142 0.0
C372 C 0.0574 0.92345 0.63982 0.0
C373 C 0.06751 0.9437 0.64594 0.0
C374 C 0.05418 0.96052 0.65315 0.0
C375 C 0.01621 0.97587 0.66126 0.0
C376 C 0.00023 0.98784 0.65259 0.0
C377 C 0.019 0.98228 0.67613 0.0
C378 C 0.03513 0.96966 0.68578 0.0
C379 C 0.03206 0.94561 0.68858 0.0
C380 C 0.04773 0.9334 0.69723 0.0
C381 C 0.06678 0.94504 0.70318 0.0
C382 C 0.06971 0.96921 0.70049 0.0
C383 C 0.05386 0.98149 0.69194 0.0
C384 C 0.26252 0.66488 0.00255 0.0
O385 O 0.27916 0.64969 0.00455 0.0
O386 O 0.30947 0.68074 0.02652 0.0
Zn387 Zn 0.30011 0.6939 0.00687 0.0
O388 O 0.31816 0.67752 0.99103 0.0
C389 C 0.32544 0.73581 0.00103 0.0
O390 O 0.33918 0.72032 0.99499 0.0
O391 O 0.26699 0.68673 0.00336 0.0
C392 C 0.3123 0.67933 0.97762 0.0
O393 O 0.29427 0.69196 0.97423 0.0
C394 C 0.33004 0.68285 0.03076 0.0
O395 O 0.34473 0.69367 0.02221 0.0
O396 O 0.30671 0.72882 0.0066 0.0
C397 C 0.24588 0.82255 0.24401 0.0
O398 O 0.25829 0.8375 0.23645 0.0
O399 O 0.30217 0.81508 0.22981 0.0
Zn400 Zn 0.28972 0.80161 0.24878 0.0
O401 O 0.30395 0.81898 0.26574 0.0
C402 C 0.32082 0.76458 0.25055 0.0
O403 O 0.33438 0.783 0.25025 0.0
O404 O 0.25556 0.805 0.25002 0.0
C405 C 0.29784 0.81615 0.27903 0.0
O406 O 0.28134 0.80128 0.28207 0.0
C407 C 0.3099 0.836 0.22961 0.0
O408 O 0.30879 0.84876 0.24165 0.0
O409 O 0.29938 0.76782 0.25008 0.0
C410 C 0.25567 0.80749 0.50998 0.0
O411 O 0.24747 0.81505 0.52256 0.0
O412 O 0.19865 0.80657 0.52362 0.0
Zn413 Zn 0.20904 0.79222 0.50451 0.0
O414 O 0.19199 0.80813 0.48814 0.0
C415 C 0.20791 0.74686 0.51675 0.0
O416 O 0.22053 0.75797 0.52648 0.0
O417 O 0.24253 0.7969 0.50104 0.0
C418 C 0.1905 0.79961 0.47526 0.0
O419 O 0.20005 0.77918 0.4724 0.0
C420 C 0.1774 0.80494 0.52621 0.0
O421 O 0.16424 0.7947 0.51641 0.0
O422 O 0.20133 0.7579 0.50538 0.0
C423 C 0.24255 0.67808 0.7605 0.0
O424 O 0.22533 0.66577 0.76563 0.0
O425 O 0.19515 0.69163 0.73009 0.0
Zn426 Zn 0.20546 0.70511 0.74951 0.0
O427 O 0.18616 0.69069 0.76562 0.0
C428 C 0.1851 0.75009 0.75608 0.0
O429 O 0.17223 0.73714 0.7647 0.0
O430 O 0.2385 0.69661 0.75311 0.0
C431 C 0.16696 0.68103 0.76317 0.0
O432 O 0.15856 0.68125 0.74978 0.0
C433 C 0.19937 0.6704 0.72661 0.0
O434 O 0.21162 0.65738 0.73555 0.0
O435 O 0.20103 0.74032 0.74882 0.0
C436 C 0.75589 0.17197 0.50044 0.0
O437 O 0.77236 0.15686 0.50301 0.0
O438 O 0.80958 0.18515 0.5172 0.0
Zn439 Zn 0.79386 0.20316 0.50086 0.0
O440 O 0.81006 0.1958 0.48196 0.0
C441 C 0.79602 0.24562 0.51791 0.0
O442 O 0.79078 0.23114 0.52865 0.0
O443 O 0.76078 0.19368 0.49921 0.0
C444 C 0.83117 0.20072 0.48102 0.0
O445 O 0.84118 0.21139 0.49211 0.0
C446 C 0.8208 0.1664 0.51467 0.0
O447 O 0.82169 0.15806 0.50121 0.0
O448 O 0.79729 0.23769 0.50488 0.0
C449 C 0.74364 0.30606 0.74275 0.0
O450 O 0.75226 0.31111 0.7298 0.0
O451 O 0.80144 0.31628 0.73327 0.0
Zn452 Zn 0.79092 0.29833 0.75109 0.0
O453 O 0.80402 0.31418 0.76902 0.0
C454 C 0.82426 0.26412 0.74659 0.0
O455 O 0.83616 0.2837 0.74584 0.0
O456 O 0.75676 0.29914 0.75299 0.0
C457 C 0.81279 0.30305 0.77974 0.0
O458 O 0.81366 0.27995 0.77935 0.0
C459 C 0.79778 0.33812 0.73141 0.0
O460 O 0.78604 0.34982 0.74132 0.0
O461 O 0.80299 0.26539 0.74918 0.0
C462 C 0.74199 0.33273 0.01012 0.0
O463 O 0.72558 0.34794 0.01272 0.0
O464 O 0.68779 0.32021 0.02407 0.0
Zn465 Zn 0.70317 0.30451 0.00675 0.0
O466 O 0.6911 0.31868 0.98791 0.0
C467 C 0.67606 0.26352 0.00799 0.0
O468 O 0.66025 0.27989 0.00743 0.0
O469 O 0.73672 0.31144 0.00747 0.0
C470 C 0.68306 0.30716 0.9771 0.0
O471 O 0.68247 0.28406 0.9776 0.0
C472 C 0.6687 0.33061 0.02269 0.0
O473 O 0.65879 0.33116 0.00974 0.0
O474 O 0.69691 0.26965 0.00771 0.0
C475 C 0.75092 0.17676 0.24793 0.0
O476 O 0.74051 0.1662 0.23697 0.0
O477 O 0.69354 0.1785 0.23622 0.0
Zn478 Zn 0.70612 0.19656 0.25351 0.0
O479 O 0.69043 0.18514 0.27188 0.0
C480 C 0.70219 0.23909 0.23729 0.0
O481 O 0.71118 0.2256 0.22708 0.0
O482 O 0.73977 0.191 0.25598 0.0
C483 C 0.67424 0.19615 0.27816 0.0
O484 O 0.66724 0.21628 0.27266 0.0
C485 C 0.672 0.17791 0.23461 0.0
O486 O 0.65903 0.18855 0.24434 0.0
O487 O 0.69929 0.23073 0.25011 0.0
H488 H 0.08625 0.94561 0.2832 0.0
H489 H 0.11172 0.91869 0.2701 0.0
H490 H 0.08387 0.86011 0.29436 0.0
H491 H 0.05818 0.8871 0.30749 0.0
H492 H 0.1314 0.86345 0.29561 0.0
H493 H 0.07347 0.862 0.25903 0.0
H494 H 0.04489 0.87858 0.24206 0.0
H495 H 0.09766 0.91569 0.21893 0.0
H496 H 0.12654 0.89962 0.23589 0.0
H497 H 0.21496 0.79551 0.25907 0.0
H498 H 0.17645 0.80688 0.2667 0.0
H499 H 0.18381 0.87297 0.24382 0.0
H500 H 0.2219 0.86152 0.23582 0.0
H501 H 0.14116 0.85769 0.24153 0.0
H502 H 0.19659 0.86729 0.28069 0.0
H503 H 0.22617 0.85348 0.29796 0.0
H504 H 0.17882 0.80403 0.31651 0.0
H505 H 0.14905 0.81735 0.2992 0.0
C506 C 0.08538 0.92695 0.28559 0.0
C507 C 0.07037 0.91838 0.29636 0.0
C508 C 0.09978 0.91158 0.27804 0.0
C509 C 0.09953 0.88741 0.2812 0.0
C510 C 0.08417 0.8787 0.29172 0.0
C511 C 0.06951 0.89407 0.29915 0.0
C512 C 0.11692 0.87187 0.2745 0.0
C513 C 0.1332 0.86161 0.28379 0.0
C514 C 0.11948 0.86999 0.25908 0.0
C515 C 0.10218 0.87968 0.2488 0.0
C516 C 0.07898 0.87383 0.25039 0.0
C517 C 0.06272 0.88312 0.24076 0.0
C518 C 0.06945 0.8982 0.22943 0.0
C519 C 0.09247 0.904 0.2277 0.0
C520 C 0.1088 0.89477 0.23731 0.0
C521 C 0.20821 0.81229 0.25545 0.0
C522 C 0.22161 0.82777 0.24702 0.0
C523 C 0.18622 0.81877 0.25984 0.0
C524 C 0.17743 0.84096 0.25605 0.0
C525 C 0.19025 0.85579 0.24689 0.0
C526 C 0.21211 0.84925 0.2424 0.0
C527 C 0.15595 0.84985 0.26265 0.0
C528 C 0.13898 0.85894 0.25335 0.0
C529 C 0.15289 0.85099 0.27808 0.0
C530 C 0.17071 0.84309 0.28854 0.0
C531 C 0.19255 0.85336 0.28839 0.0
C532 C 0.20934 0.84563 0.29818 0.0
C533 C 0.2044 0.82783 0.30829 0.0
C534 C 0.18264 0.81777 0.30865 0.0
C535 C 0.1658 0.8254 0.29885 0.0
H536 H 0.21742 0.82187 0.31587 0.0
H537 H 0.05684 0.90537 0.22199 0.0
H538 H 0.0919 0.58405 0.57766 0.0
H539 H 0.12202 0.61097 0.56965 0.0
H540 H 0.1019 0.60035 0.52445 0.0
H541 H 0.07235 0.57253 0.53249 0.0
H542 H 0.14646 0.60493 0.52587 0.0
H543 H 0.08259 0.64718 0.54536 0.0
H544 H 0.05351 0.6583 0.56368 0.0
H545 H 0.10614 0.67998 0.59361 0.0
H546 H 0.13557 0.66859 0.57557 0.0
H547 H 0.18267 0.71822 0.4988 0.0
H548 H 0.16269 0.68206 0.50576 0.0
H549 H 0.19168 0.68638 0.54926 0.0
H550 H 0.2118 0.72239 0.54241 0.0
H551 H 0.14416 0.68425 0.54871 0.0
H552 H 0.20801 0.64322 0.52773 0.0
H553 H 0.23585 0.63355 0.50832 0.0
H554 H 0.1814 0.61208 0.4797 0.0
H555 H 0.15318 0.62195 0.49887 0.0
C556 C 0.09419 0.58727 0.56601 0.0
C557 C 0.07979 0.57654 0.55566 0.0
C558 C 0.1113 0.60267 0.56145 0.0
C559 C 0.11384 0.60814 0.54648 0.0
C560 C 0.10017 0.59648 0.53606 0.0
C561 C 0.08331 0.58067 0.54063 0.0
C562 C 0.12969 0.62708 0.54181 0.0
C563 C 0.14582 0.62233 0.53077 0.0
C564 C 0.12902 0.64976 0.54832 0.0
C565 C 0.11131 0.65668 0.55918 0.0
C566 C 0.08798 0.6541 0.5559 0.0
C567 C 0.07143 0.66048 0.56623 0.0
C568 C 0.07798 0.66974 0.57983 0.0
C569 C 0.1011 0.67272 0.5831 0.0
C570 C 0.11772 0.66629 0.57283 0.0
C571 C 0.18515 0.71122 0.50976 0.0
C572 C 0.19865 0.72327 0.5201 0.0
C573 C 0.1738 0.69052 0.51369 0.0
C574 C 0.17574 0.68162 0.52801 0.0
C575 C 0.19001 0.69301 0.53814 0.0
C576 C 0.20151 0.71357 0.53419 0.0
C577 C 0.16101 0.66201 0.53292 0.0
C578 C 0.14493 0.66675 0.54393 0.0
C579 C 0.16152 0.63956 0.52622 0.0
C580 C 0.17846 0.63354 0.5147 0.0
C581 C 0.20195 0.63664 0.51725 0.0
C582 C 0.2178 0.63107 0.5063 0.0
C583 C 0.2104 0.62226 0.49277 0.0
C584 C 0.18711 0.61893 0.49018 0.0
C585 C 0.17118 0.62448 0.50109 0.0
H586 H 0.2227 0.61796 0.48431 0.0
H587 H 0.06514 0.67469 0.58781 0.0
H588 H 0.44976 0.60662 0.79048 0.0
H589 H 0.4191 0.63038 0.77968 0.0
H590 H 0.37066 0.57544 0.78962 0.0
H591 H 0.40093 0.55188 0.80057 0.0
H592 H 0.36491 0.59267 0.76193 0.0
H593 H 0.37557 0.62314 0.81146 0.0
H594 H 0.39797 0.64115 0.83148 0.0
H595 H 0.41145 0.70146 0.80439 0.0
H596 H 0.38935 0.68362 0.78413 0.0
H597 H 0.25547 0.63585 0.77172 0.0
H598 H 0.29401 0.62089 0.77509 0.0
H599 H 0.32173 0.68555 0.75782 0.0
H600 H 0.28284 0.70083 0.75429 0.0
H601 H 0.34296 0.66911 0.78431 0.0
H602 H 0.32511 0.64086 0.73649 0.0
H603 H 0.30131 0.62248 0.7173 0.0
H604 H 0.30054 0.55764 0.74154 0.0
H605 H 0.32404 0.57573 0.76099 0.0
C606 C 0.43255 0.59967 0.7904 0.0
C607 C 0.42778 0.57733 0.79635 0.0
C608 C 0.4151 0.61321 0.78418 0.0
C609 C 0.39264 0.60465 0.78387 0.0
C610 C 0.38793 0.58227 0.78963 0.0
C611 C 0.40528 0.5688 0.79584 0.0
C612 C 0.37364 0.61901 0.77801 0.0
C613 C 0.36011 0.6094 0.76679 0.0
C614 C 0.36787 0.6412 0.78405 0.0
C615 C 0.38108 0.65192 0.79623 0.0
C616 C 0.38348 0.64015 0.80974 0.0
C617 C 0.39609 0.65034 0.82113 0.0
C618 C 0.4062 0.6724 0.81919 0.0
C619 C 0.40366 0.68435 0.80586 0.0
C620 C 0.39109 0.67421 0.79442 0.0
C621 C 0.26969 0.64698 0.76862 0.0
C622 C 0.2661 0.66952 0.7627 0.0
C623 C 0.29172 0.63834 0.7705 0.0
C624 C 0.31064 0.65202 0.76653 0.0
C625 C 0.30726 0.67471 0.76086 0.0
C626 C 0.2851 0.68336 0.75884 0.0
C627 C 0.3338 0.64229 0.76864 0.0
C628 C 0.34811 0.65273 0.77914 0.0
C629 C 0.34027 0.6208 0.76199 0.0
C630 C 0.32628 0.60971 0.75024 0.0
C631 C 0.31975 0.62273 0.73778 0.0
C632 C 0.30632 0.61235 0.72685 0.0
C633 C 0.2994 0.58892 0.72821 0.0
C634 C 0.30593 0.57579 0.7405 0.0
C635 C 0.31934 0.58609 0.75147 0.0
H636 H 0.28899 0.58092 0.71974 0.0
H637 H 0.41595 0.68027 0.82802 0.0
H638 H 0.39637 0.94543 0.03856 0.0
H639 H 0.37169 0.91484 0.02826 0.0
H640 H 0.42747 0.8655 0.02951 0.0
H641 H 0.45184 0.89512 0.04079 0.0
H642 H 0.3965 0.87167 0.00074 0.0
H643 H 0.39897 0.85563 0.05412 0.0
H644 H 0.39387 0.86826 0.07987 0.0
H645 H 0.32423 0.88681 0.07084 0.0
H646 H 0.32908 0.87464 0.04494 0.0
H647 H 0.36764 0.75353 0.99547 0.0
H648 H 0.38165 0.79289 0.0006 0.0
H649 H 0.31464 0.81372 0.01544 0.0
H650 H 0.30061 0.77371 0.01084 0.0
H651 H 0.34442 0.82825 0.03415 0.0
H652 H 0.33861 0.83547 0.98257 0.0
H653 H 0.34262 0.82435 0.95649 0.0
H654 H 0.41559 0.82509 0.96075 0.0
H655 H 0.41205 0.83588 0.98691 0.0
C656 C 0.40341 0.92803 0.03683 0.0
C657 C 0.4262 0.92285 0.04063 0.0
C658 C 0.3893 0.91069 0.03079 0.0
C659 C 0.39788 0.88808 0.02815 0.0
C660 C 0.4207 0.883 0.0314 0.0
C661 C 0.43465 0.90008 0.03776 0.0
C662 C 0.38293 0.86919 0.02264 0.0
C663 C 0.38507 0.86208 0.00796 0.0
C664 C 0.36746 0.85748 0.03201 0.0
C665 C 0.36449 0.86457 0.04757 0.0
C666 C 0.38266 0.86265 0.05759 0.0
C667 C 0.3798 0.86967 0.07221 0.0
C668 C 0.35877 0.87842 0.07697 0.0
C669 C 0.34053 0.88009 0.06712 0.0
C670 C 0.34332 0.87314 0.05247 0.0
C671 C 0.35574 0.76651 0.99964 0.0
C672 C 0.333 0.76048 0.00276 0.0
C673 C 0.36376 0.78915 0.00247 0.0
C674 C 0.34913 0.80647 0.00816 0.0
C675 C 0.32623 0.80068 0.01098 0.0
C676 C 0.31823 0.77785 0.00833 0.0
C677 C 0.35846 0.82991 0.01221 0.0
C678 C 0.35532 0.83801 0.02668 0.0
C679 C 0.37275 0.84276 0.00253 0.0
C680 C 0.37504 0.8364 0.98675 0.0
C681 C 0.35552 0.83313 0.97797 0.0
C682 C 0.35771 0.8269 0.96317 0.0
C683 C 0.37935 0.82399 0.95697 0.0
C684 C 0.39884 0.82736 0.96556 0.0
C685 C 0.39675 0.83358 0.98038 0.0
H686 H 0.38101 0.81915 0.94551 0.0
H687 H 0.35661 0.88385 0.08829 0.0
H688 H 0.10543 0.54508 0.94835 0.0
H689 H 0.13585 0.56675 0.96063 0.0
H690 H 0.09135 0.62665 0.96573 0.0
H691 H 0.06032 0.60474 0.95391 0.0
H692 H 0.13667 0.63711 0.95484 0.0
H693 H 0.1002 0.59726 0.99473 0.0
H694 H 0.08341 0.56323 0.0076 0.0
H695 H 0.14794 0.52748 0.00621 0.0
H696 H 0.16506 0.56116 0.99313 0.0
H697 H 0.22351 0.69096 0.99877 0.0
H698 H 0.186 0.67669 0.99083 0.0
H699 H 0.21238 0.60582 0.98877 0.0
H700 H 0.24951 0.61976 0.99702 0.0
H701 H 0.1715 0.60546 0.00046 0.0
H702 H 0.20648 0.64134 0.95778 0.0
H703 H 0.22408 0.6738 0.9438 0.0
H704 H 0.1635 0.71541 0.94938 0.0
H705 H 0.14565 0.68328 0.96357 0.0
C706 C 0.10192 0.56274 0.95224 0.0
C707 C 0.0803 0.57304 0.95027 0.0
C708 C 0.11939 0.57514 0.95918 0.0
C709 C 0.11572 0.59816 0.9642 0.0
C710 C 0.09444 0.60885 0.96193 0.0
C711 C 0.0768 0.59633 0.95511 0.0
C712 C 0.13432 0.61084 0.97181 0.0
C713 C 0.14404 0.63055 0.96499 0.0
C714 C 0.14406 0.60194 0.98489 0.0
C715 C 0.13387 0.58169 0.99286 0.0
C716 C 0.11078 0.58207 0.99707 0.0
C717 C 0.1012 0.56285 0.00442 0.0
C718 C 0.11459 0.54319 0.0077 0.0
C719 C 0.13759 0.54272 0.00366 0.0
C720 C 0.14725 0.56189 0.9963 0.0
C721 C 0.22123 0.67232 0.99672 0.0
C722 C 0.2395 0.6565 0.99846 0.0
C723 C 0.19983 0.66421 0.99213 0.0
C724 C 0.19645 0.64022 0.98904 0.0
C725 C 0.21455 0.62439 0.99111 0.0
C726 C 0.23582 0.63242 0.99579 0.0
C727 C 0.17437 0.63138 0.98327 0.0
C728 C 0.16395 0.61235 0.99046 0.0
C729 C 0.16416 0.64076 0.97043 0.0
C730 C 0.17485 0.66004 0.96188 0.0
C731 C 0.19699 0.65749 0.95612 0.0
C732 C 0.20699 0.67581 0.94815 0.0
C733 C 0.19494 0.69668 0.94574 0.0
C734 C 0.17283 0.69925 0.95128 0.0
C735 C 0.16276 0.68099 0.95928 0.0
H736 H 0.20272 0.71085 0.93956 0.0
H737 H 0.10714 0.52833 0.01339 0.0
H738 H 0.44833 0.59706 0.22251 0.0
H739 H 0.42628 0.62897 0.23332 0.0
H740 H 0.36889 0.58231 0.23897 0.0
H741 H 0.39114 0.54987 0.2285 0.0
H742 H 0.35782 0.62325 0.22445 0.0
H743 H 0.3955 0.60198 0.26881 0.0
H744 H 0.42806 0.59147 0.28466 0.0
H745 H 0.45861 0.65892 0.27653 0.0
H746 H 0.4264 0.66973 0.26045 0.0
H747 H 0.29804 0.72255 0.2528 0.0
H748 H 0.31443 0.68292 0.25172 0.0
H749 H 0.38177 0.71284 0.24724 0.0
H750 H 0.36566 0.75232 0.24869 0.0
H751 H 0.38314 0.67581 0.26488 0.0
H752 H 0.35046 0.6937 0.2172 0.0
H753 H 0.31943 0.70462 0.20019 0.0
H754 H 0.2811 0.64387 0.2136 0.0
H755 H 0.31182 0.63276 0.23083 0.0
C756 C 0.43127 0.5933 0.22643 0.0
C757 C 0.42155 0.57083 0.22463 0.0
C758 C 0.41864 0.61163 0.23258 0.0
C759 C 0.39602 0.60795 0.23705 0.0
C760 C 0.38636 0.58547 0.2356 0.0
C761 C 0.39906 0.56702 0.22954 0.0
C762 C 0.38207 0.62819 0.24198 0.0
C763 C 0.36299 0.63444 0.23353 0.0
C764 C 0.38915 0.64298 0.25363 0.0
C765 C 0.40855 0.63661 0.26335 0.0
C766 C 0.40923 0.61452 0.27031 0.0
C767 C 0.42762 0.60851 0.27936 0.0
C768 C 0.44541 0.6245 0.28159 0.0
C769 C 0.44482 0.64655 0.2748 0.0
C770 C 0.42648 0.65264 0.26574 0.0
C771 C 0.31635 0.72066 0.2517 0.0
C772 C 0.33054 0.74057 0.2507 0.0
C773 C 0.32568 0.69802 0.25106 0.0
C774 C 0.3493 0.69493 0.24922 0.0
C775 C 0.36351 0.71479 0.24869 0.0
C776 C 0.35424 0.73737 0.24944 0.0
C777 C 0.35931 0.6712 0.24707 0.0
C778 C 0.37765 0.66432 0.25602 0.0
C779 C 0.35172 0.65592 0.23578 0.0
C780 C 0.33328 0.66258 0.22543 0.0
C781 C 0.33533 0.68278 0.2166 0.0
C782 C 0.31782 0.68899 0.20691 0.0
C783 C 0.29827 0.67499 0.20586 0.0
C784 C 0.29623 0.65472 0.21446 0.0
C785 C 0.31368 0.64846 0.22418 0.0
H786 H 0.28473 0.67982 0.19834 0.0
H787 H 0.45963 0.61982 0.28859 0.0
H788 H 0.42486 0.89005 0.43729 0.0
H789 H 0.39767 0.86319 0.44869 0.0
H790 H 0.40136 0.90284 0.48909 0.0
H791 H 0.42955 0.92913 0.47801 0.0
H792 H 0.39729 0.85611 0.49455 0.0
H793 H 0.35971 0.91399 0.46414 0.0
H794 H 0.35293 0.93574 0.44109 0.0
H795 H 0.33588 0.87116 0.41911 0.0
H796 H 0.34287 0.84898 0.442 0.0
H797 H 0.2864 0.83553 0.52439 0.0
H798 H 0.32279 0.85015 0.51497 0.0
H799 H 0.31431 0.80828 0.47575 0.0
H800 H 0.2778 0.79383 0.48497 0.0
H801 H 0.32238 0.85303 0.46919 0.0
H802 H 0.35615 0.79559 0.50076 0.0
H803 H 0.3629 0.7744 0.524 0.0
H804 H 0.38657 0.83827 0.54417 0.0
H805 H 0.37964 0.85993 0.5211 0.0
C806 C 0.4204 0.89274 0.44872 0.0
C807 C 0.42921 0.91193 0.45669 0.0
C808 C 0.40468 0.87746 0.45518 0.0
C809 C 0.39718 0.88131 0.46964 0.0
C810 C 0.40683 0.89965 0.47789 0.0
C811 C 0.42272 0.91483 0.47148 0.0
C812 C 0.37794 0.86751 0.47573 0.0
C813 C 0.38085 0.85552 0.48909 0.0
C814 C 0.35663 0.86644 0.46843 0.0
C815 C 0.35204 0.8798 0.45473 0.0
C816 C 0.35464 0.90441 0.45437 0.0
C817 C 0.35075 0.91682 0.44134 0.0
C818 C 0.34404 0.90483 0.42863 0.0
C819 C 0.34111 0.88041 0.42895 0.0
C820 C 0.34502 0.86792 0.44195 0.0
C821 C 0.29247 0.8291 0.51388 0.0
C822 C 0.2791 0.81371 0.50536 0.0
C823 C 0.31333 0.83739 0.50854 0.0
C824 C 0.32127 0.83026 0.49466 0.0
C825 C 0.30846 0.81404 0.48647 0.0
C826 C 0.2876 0.8058 0.49177 0.0
C827 C 0.34164 0.84153 0.48806 0.0
C828 C 0.33888 0.85326 0.4746 0.0
C829 C 0.36298 0.8424 0.49532 0.0
C830 C 0.36719 0.82943 0.50922 0.0
C831 C 0.36261 0.80516 0.51018 0.0
C832 C 0.36651 0.79306 0.52332 0.0
C833 C 0.37511 0.80499 0.53556 0.0
C834 C 0.37988 0.82905 0.53468 0.0
C835 C 0.376 0.84125 0.52157 0.0
H836 H 0.37812 0.79559 0.54572 0.0
H837 H 0.34107 0.91446 0.41855 0.0
H838 H 0.11309 0.94552 0.69989 0.0
H839 H 0.14077 0.91918 0.71165 0.0
H840 H 0.0866 0.88768 0.73703 0.0
H841 H 0.05895 0.91403 0.72542 0.0
H842 H 0.12769 0.89311 0.75295 0.0
H843 H 0.10068 0.8637 0.70553 0.0
H844 H 0.09478 0.86741 0.67877 0.0
H845 H 0.16698 0.87533 0.67238 0.0
H846 H 0.17325 0.87204 0.69914 0.0
H847 H 0.14849 0.77419 0.76679 0.0
H848 H 0.13616 0.81369 0.76026 0.0
H849 H 0.19619 0.82249 0.73332 0.0
H850 H 0.20836 0.78247 0.7395 0.0
H851 H 0.16026 0.83433 0.71843 0.0
H852 H 0.18797 0.85519 0.76555 0.0
H853 H 0.19391 0.85204 0.79231 0.0
H854 H 0.12204 0.86098 0.79962 0.0
H855 H 0.11559 0.86385 0.7729 0.0
C856 C 0.10722 0.93335 0.70824 0.0
C857 C 0.08389 0.93158 0.71166 0.0
C858 C 0.123 0.91832 0.7149 0.0
C859 C 0.11565 0.9014 0.7251 0.0
C860 C 0.09259 0.90064 0.7292 0.0
C861 C 0.07681 0.91552 0.72247 0.0
C862 C 0.13123 0.88274 0.73032 0.0
C863 C 0.1349 0.88022 0.74546 0.0
C864 C 0.14114 0.86644 0.72044 0.0
C865 C 0.13741 0.86791 0.70434 0.0
C866 C 0.11527 0.86638 0.69842 0.0
C867 C 0.11186 0.8684 0.68326 0.0
C868 C 0.13049 0.87168 0.67388 0.0
C869 C 0.15257 0.87284 0.67965 0.0
C870 C 0.15606 0.8709 0.69482 0.0
C871 C 0.1593 0.78462 0.75967 0.0
C872 C 0.17934 0.77512 0.75359 0.0
C873 C 0.1523 0.80733 0.75602 0.0
C874 C 0.16538 0.82123 0.74643 0.0
C875 C 0.18586 0.81212 0.74077 0.0
C876 C 0.1928 0.78926 0.74432 0.0
C877 C 0.15632 0.84415 0.74122 0.0
C878 C 0.15374 0.84748 0.72601 0.0
C879 C 0.14753 0.86124 0.75106 0.0
C880 C 0.1513 0.85964 0.76719 0.0
C881 C 0.1734 0.85634 0.77285 0.0
C882 C 0.17687 0.85462 0.78802 0.0
C883 C 0.15837 0.85629 0.79766 0.0
C884 C 0.13636 0.85971 0.79214 0.0
C885 C 0.1328 0.86143 0.77698 0.0
H886 H 0.16108 0.85494 0.8094 0.0
H887 H 0.12781 0.87326 0.66215 0.0
H888 H 0.59401 0.44776 0.78038 0.0
H889 H 0.61931 0.41882 0.76866 0.0
H890 H 0.59142 0.36414 0.79619 0.0
H891 H 0.56563 0.39294 0.80767 0.0
H892 H 0.64279 0.37203 0.79564 0.0
H893 H 0.57746 0.35798 0.76463 0.0
H894 H 0.54597 0.37001 0.7483 0.0
H895 H 0.59409 0.39981 0.71796 0.0
H896 H 0.62587 0.38827 0.73423 0.0
H897 H 0.71674 0.28891 0.76475 0.0
H898 H 0.68066 0.30547 0.77348 0.0
H899 H 0.68229 0.35657 0.73838 0.0
H900 H 0.71763 0.33929 0.72919 0.0
H901 H 0.64053 0.34641 0.74349 0.0
H902 H 0.70436 0.36747 0.77387 0.0
H903 H 0.7377 0.36091 0.78991 0.0
H904 H 0.69535 0.32452 0.821 0.0
H905 H 0.6618 0.33056 0.80502 0.0
C906 C 0.59315 0.4295 0.78377 0.0
C907 C 0.57798 0.42244 0.79486 0.0
C908 C 0.60747 0.41304 0.77707 0.0
C909 C 0.60705 0.38943 0.78155 0.0
C910 C 0.5918 0.38229 0.79256 0.0
C911 C 0.57713 0.39867 0.79905 0.0
C912 C 0.62377 0.37268 0.77543 0.0
C913 C 0.64211 0.36592 0.78434 0.0
C914 C 0.62311 0.36559 0.76056 0.0
C915 C 0.60403 0.37242 0.75072 0.0
C916 C 0.58132 0.36728 0.75454 0.0
C917 C 0.56342 0.37398 0.74528 0.0
C918 C 0.56802 0.38572 0.73212 0.0
C919 C 0.59055 0.39073 0.72817 0.0
C920 C 0.60851 0.38409 0.7374 0.0
C921 C 0.70907 0.30332 0.75871 0.0
C922 C 0.72007 0.313 0.7464 0.0
C923 C 0.68855 0.31287 0.76376 0.0
C924 C 0.67911 0.33273 0.75685 0.0
C925 C 0.68928 0.34134 0.74395 0.0
C926 C 0.70951 0.33145 0.7387 0.0
C927 C 0.65986 0.34577 0.76366 0.0
C928 C 0.64109 0.35203 0.75488 0.0
C929 C 0.66045 0.35304 0.77859 0.0
C930 C 0.68064 0.34919 0.78815 0.0
C931 C 0.7022 0.35788 0.78406 0.0
C932 C 0.72113 0.35428 0.79315 0.0
C933 C 0.71866 0.34224 0.80644 0.0
C934 C 0.69725 0.33379 0.81068 0.0
C935 C 0.67827 0.33728 0.80161 0.0
H936 H 0.73332 0.33951 0.81348 0.0
H937 H 0.55414 0.39088 0.72496 0.0
H938 H 0.55263 0.09747 0.03258 0.0
H939 H 0.57928 0.12514 0.02146 0.0
H940 H 0.63597 0.08356 0.03705 0.0
H941 H 0.60918 0.05596 0.04859 0.0
H942 H 0.64104 0.12872 0.04424 0.0
H943 H 0.62593 0.0878 0.00018 0.0
H944 H 0.60308 0.06795 0.98109 0.0
H945 H 0.56878 0.13292 0.97143 0.0
H946 H 0.59117 0.15312 0.99061 0.0
H947 H 0.7036 0.22529 0.01313 0.0
H948 H 0.6916 0.18419 0.01622 0.0
H949 H 0.62173 0.20435 0.00814 0.0
H950 H 0.63348 0.24516 0.00499 0.0
H951 H 0.63306 0.16278 0.9943 0.0
H952 H 0.64153 0.19937 0.0428 0.0
H953 H 0.66366 0.21908 0.06233 0.0
H954 H 0.71065 0.16108 0.06334 0.0
H955 H 0.68891 0.14116 0.04368 0.0
C956 C 0.57077 0.09411 0.03355 0.0
C957 C 0.57885 0.07469 0.04155 0.0
C958 C 0.586 0.10978 0.02703 0.0
C959 C 0.60963 0.10627 0.02827 0.0
C960 C 0.61779 0.08649 0.03587 0.0
C961 C 0.6025 0.07071 0.0424 0.0
C962 C 0.62545 0.12473 0.02291 0.0
C963 C 0.63982 0.13572 0.03317 0.0
C964 C 0.62374 0.13398 0.00851 0.0
C965 C 0.61023 0.12197 0.99689 0.0
C966 C 0.61342 0.09784 0.99405 0.0
C967 C 0.60056 0.08653 0.9832 0.0
C968 C 0.58448 0.09916 0.97506 0.0
C969 C 0.58126 0.12316 0.97774 0.0
C970 C 0.59407 0.13456 0.98858 0.0
C971 C 0.68572 0.22088 0.01188 0.0
C972 C 0.66944 0.23848 0.00896 0.0
C973 C 0.67891 0.19743 0.01364 0.0
C974 C 0.65577 0.19129 0.01247 0.0
C975 C 0.63968 0.20871 0.00903 0.0
C976 C 0.64642 0.23207 0.00734 0.0
C977 C 0.6477 0.1672 0.01582 0.0
C978 C 0.63483 0.15521 0.00518 0.0
C979 C 0.6508 0.15698 0.02985 0.0
C980 C 0.6638 0.16895 0.04166 0.0
C981 C 0.65669 0.19092 0.04711 0.0
C982 C 0.66914 0.20211 0.05821 0.0
C983 C 0.6886 0.19138 0.06404 0.0
C984 C 0.69561 0.1694 0.0588 0.0
C985 C 0.68324 0.15815 0.04768 0.0
H986 H 0.69821 0.20006 0.07263 0.0
H987 H 0.57454 0.09037 0.96667 0.0
H988 H 0.92293 0.05335 0.28333 0.0
H989 H 0.89367 0.07766 0.27167 0.0
H990 H 0.8954 0.12549 0.30853 0.0
H991 H 0.92413 0.10084 0.32048 0.0
H992 H 0.85275 0.11367 0.30173 0.0
H993 H 0.91793 0.14114 0.27525 0.0
H994 H 0.95296 0.13768 0.2604 0.0
H995 H 0.91495 0.10463 0.2257 0.0
H996 H 0.87972 0.10758 0.24043 0.0
H997 H 0.77709 0.19487 0.2701 0.0
H998 H 0.81325 0.17944 0.27933 0.0
H999 H 0.81367 0.12713 0.24493 0.0
H1000 H 0.77763 0.14264 0.23547 0.0
H1001 H 0.85672 0.1441 0.25066 0.0
H1002 H 0.79274 0.11337 0.27796 0.0
H1003 H 0.75755 0.11632 0.29273 0.0
H1004 H 0.79373 0.15504 0.32594 0.0
H1005 H 0.82907 0.15261 0.31125 0.0
C1006 C 0.91705 0.06903 0.28896 0.0
C1007 C 0.92579 0.07513 0.30284 0.0
C1008 C 0.90053 0.08305 0.2822 0.0
C1009 C 0.89254 0.10353 0.28916 0.0
C1010 C 0.90143 0.10982 0.30294 0.0
C1011 C 0.91794 0.0958 0.3097 0.0
C1012 C 0.87387 0.11751 0.28249 0.0
C1013 C 0.85382 0.12073 0.29067 0.0
C1014 C 0.87505 0.12619 0.26792 0.0
C1015 C 0.89621 0.12441 0.25901 0.0
C1016 C 0.91706 0.13296 0.2645 0.0
C1017 C 0.93696 0.13112 0.25609 0.0
C1018 C 0.93619 0.1209 0.24213 0.0
C1019 C 0.91552 0.11253 0.23653 0.0
C1020 C 0.89558 0.11431 0.2449 0.0
C1021 C 0.78503 0.18032 0.26434 0.0
C1022 C 0.77431 0.16975 0.25218 0.0
C1023 C 0.80569 0.17152 0.26965 0.0
C1024 C 0.81589 0.15188 0.26297 0.0
C1025 C 0.80601 0.14224 0.25027 0.0
C1026 C 0.78537 0.15109 0.24492 0.0
C1027 C 0.83572 0.14018 0.26992 0.0
C1028 C 0.85586 0.13728 0.26179 0.0
C1029 C 0.83466 0.13171 0.28454 0.0
C1030 C 0.81347 0.13303 0.29343 0.0
C1031 C 0.79314 0.12267 0.28836 0.0
C1032 C 0.77318 0.12422 0.29673 0.0
C1033 C 0.77339 0.13592 0.31025 0.0
C1034 C 0.79358 0.14602 0.31545 0.0
C1035 C 0.81358 0.14455 0.30711 0.0
H1036 H 0.75792 0.1371 0.3167 0.0
H1037 H 0.95161 0.1195 0.23563 0.0
H1038 H 0.88831 0.45103 0.54097 0.0
H1039 H 0.86263 0.41902 0.53365 0.0
H1040 H 0.91113 0.3681 0.54985 0.0
H1041 H 0.93672 0.39983 0.55719 0.0
H1042 H 0.89437 0.35435 0.5242 0.0
H1043 H 0.86507 0.38359 0.5699 0.0
H1044 H 0.85067 0.41409 0.58681 0.0
H1045 H 0.79395 0.42706 0.55804 0.0
H1046 H 0.80836 0.39704 0.54074 0.0
H1047 H 0.8016 0.26622 0.54487 0.0
H1048 H 0.82074 0.3035 0.55019 0.0
H1049 H 0.82725 0.31708 0.50373 0.0
H1050 H 0.80846 0.27971 0.49829 0.0
H1051 H 0.81562 0.35021 0.54417 0.0
H1052 H 0.88126 0.3365 0.49749 0.0
H1053 H 0.89752 0.30393 0.48286 0.0
H1054 H 0.88443 0.25574 0.51822 0.0
H1055 H 0.86844 0.28807 0.53313 0.0
C1056 C 0.89348 0.433 0.54294 0.0
C1057 C 0.91457 0.42795 0.54961 0.0
C1058 C 0.87881 0.41475 0.53876 0.0
C1059 C 0.88493 0.3912 0.54131 0.0
C1060 C 0.90614 0.38614 0.5477 0.0
C1061 C 0.92079 0.40431 0.55184 0.0
C1062 C 0.86915 0.37167 0.53763 0.0
C1063 C 0.87709 0.35357 0.52847 0.0
C1064 C 0.84677 0.3704 0.54347 0.0
C1065 C 0.83793 0.38825 0.55394 0.0
C1066 C 0.84963 0.39308 0.56711 0.0
C1067 C 0.84146 0.41027 0.57678 0.0
C1068 C 0.82141 0.42251 0.57351 0.0
C1069 C 0.80949 0.41758 0.56055 0.0
C1070 C 0.81767 0.4005 0.5508 0.0
C1071 C 0.80672 0.27733 0.53578 0.0
C1072 C 0.80386 0.26982 0.52116 0.0
C1073 C 0.81758 0.29868 0.53885 0.0
C1074 C 0.82574 0.31283 0.52735 0.0
C1075 C 0.82137 0.30622 0.51275 0.0
C1076 C 0.81061 0.28485 0.50967 0.0
C1077 C 0.84079 0.33311 0.53061 0.0
C1078 C 0.83276 0.35126 0.53972 0.0
C1079 C 0.86336 0.33413 0.52509 0.0
C1080 C 0.87341 0.31466 0.51633 0.0
C1081 C 0.88194 0.31897 0.50215 0.0
C1082 C 0.8911 0.30055 0.49381 0.0
C1083 C 0.89192 0.27777 0.49958 0.0
C1084 C 0.8837 0.27337 0.51374 0.0
C1085 C 0.87458 0.29173 0.52213 0.0
H1086 H 0.89897 0.26353 0.4931 0.0
H1087 H 0.81509 0.43578 0.58102 0.0
H1088 H 0.5967 0.04138 0.46346 0.0
H1089 H 0.62543 0.06605 0.47537 0.0
H1090 H 0.58518 0.12787 0.46607 0.0
H1091 H 0.55636 0.10318 0.45397 0.0
H1092 H 0.63005 0.1324 0.45757 0.0
H1093 H 0.58957 0.11029 0.50073 0.0
H1094 H 0.57055 0.08326 0.51802 0.0
H1095 H 0.6338 0.0468 0.52507 0.0
H1096 H 0.65315 0.07338 0.50764 0.0
H1097 H 0.71772 0.19782 0.49366 0.0
H1098 H 0.67944 0.18279 0.48819 0.0
H1099 H 0.7028 0.11191 0.4962 0.0
H1100 H 0.74077 0.12671 0.50191 0.0
H1101 H 0.66125 0.11824 0.5075 0.0
H1102 H 0.69938 0.13468 0.4613 0.0
H1103 H 0.71889 0.1598 0.4431 0.0
H1104 H 0.66039 0.20523 0.44121 0.0
H1105 H 0.64064 0.18051 0.45955 0.0
C1106 C 0.59393 0.06021 0.46402 0.0
C1107 C 0.57438 0.0704 0.45776 0.0
C1108 C 0.61023 0.07426 0.47094 0.0
C1109 C 0.6073 0.09875 0.47172 0.0
C1110 C 0.58764 0.10898 0.46565 0.0
C1111 C 0.5712 0.09488 0.45882 0.0
C1112 C 0.62568 0.11359 0.47793 0.0
C1113 C 0.63654 0.12977 0.46863 0.0
C1114 C 0.63433 0.10978 0.49225 0.0
C1115 C 0.62279 0.09378 0.5028 0.0
C1116 C 0.5994 0.09641 0.50588 0.0
C1117 C 0.58856 0.08118 0.51572 0.0
C1118 C 0.60095 0.06331 0.52262 0.0
C1119 C 0.62422 0.06066 0.51971 0.0
C1120 C 0.63514 0.07583 0.50987 0.0
C1121 C 0.71462 0.17906 0.49439 0.0
C1122 C 0.73233 0.16344 0.4981 0.0
C1123 C 0.69277 0.17051 0.49123 0.0
C1124 C 0.68835 0.14621 0.49163 0.0
C1125 C 0.70581 0.13072 0.49583 0.0
C1126 C 0.72757 0.13923 0.49903 0.0
C1127 C 0.66601 0.13651 0.48698 0.0
C1128 C 0.65442 0.1213 0.49658 0.0
C1129 C 0.65678 0.14103 0.47288 0.0
C1130 C 0.66868 0.15595 0.46193 0.0
C1131 C 0.69077 0.15015 0.4571 0.0
C1132 C 0.70185 0.16428 0.44674 0.0
C1133 C 0.69092 0.18415 0.44105 0.0
C1134 C 0.66886 0.18988 0.44566 0.0
C1135 C 0.65772 0.17582 0.45603 0.0
H1136 H 0.69951 0.19506 0.43302 0.0
H1137 H 0.59252 0.05154 0.53024 0.0
H1138 H 0.95663 0.11147 0.69766 0.0
H1139 H 0.93341 0.14138 0.70974 0.0
H1140 H 0.88207 0.08932 0.71953 0.0
H1141 H 0.9056 0.05893 0.70789 0.0
H1142 H 0.8648 0.13143 0.70709 0.0
H1143 H 0.91241 0.10733 0.74679 0.0
H1144 H 0.94858 0.09727 0.75912 0.0
H1145 H 0.97321 0.16757 0.75209 0.0
H1146 H 0.93731 0.17796 0.73951 0.0
H1147 H 0.80519 0.22003 0.74766 0.0
H1148 H 0.82375 0.1825 0.74187 0.0
H1149 H 0.88688 0.21911 0.73326 0.0
H1150 H 0.86869 0.25644 0.7393 0.0
H1151 H 0.89481 0.17985 0.74821 0.0
H1152 H 0.85052 0.20198 0.70537 0.0
H1153 H 0.81523 0.21248 0.69211 0.0
H1154 H 0.7852 0.14637 0.70435 0.0
H1155 H 0.82023 0.13561 0.71784 0.0
C1156 C 0.9406 0.10622 0.70258 0.0
C1157 C 0.93308 0.08272 0.70187 0.0
C1158 C 0.92731 0.12337 0.70943 0.0
C1159 C 0.90617 0.11746 0.71564 0.0
C1160 C 0.89838 0.09417 0.71481 0.0
C1161 C 0.91179 0.07689 0.70807 0.0
C1162 C 0.89214 0.13595 0.72265 0.0
C1163 C 0.87107 0.14172 0.71629 0.0
C1164 C 0.90058 0.14951 0.7345 0.0
C1165 C 0.9222 0.14337 0.74211 0.0
C1166 C 0.9256 0.1206 0.74777 0.0
C1167 C 0.94605 0.11484 0.75482 0.0
C1168 C 0.9632 0.13176 0.75636 0.0
C1169 C 0.95991 0.15448 0.75088 0.0
C1170 C 0.9395 0.16032 0.7438 0.0
C1171 C 0.82306 0.22003 0.74463 0.0
C1172 C 0.83544 0.24121 0.74384 0.0
C1173 C 0.83362 0.1986 0.74129 0.0
C1174 C 0.85663 0.19805 0.73698 0.0
C1175 C 0.86912 0.21911 0.73658 0.0
C1176 C 0.85865 0.24047 0.73998 0.0
C1177 C 0.86775 0.17581 0.73236 0.0
C1178 C 0.88828 0.1693 0.73919 0.0
C1179 C 0.85889 0.16168 0.72087 0.0
C1180 C 0.83786 0.16812 0.71276 0.0
C1181 C 0.83631 0.18977 0.70533 0.0
C1182 C 0.81638 0.19575 0.69776 0.0
C1183 C 0.79795 0.18014 0.69743 0.0
C1184 C 0.79946 0.15847 0.70464 0.0
C1185 C 0.81935 0.15242 0.71225 0.0
H1186 H 0.78254 0.1848 0.69156 0.0
H1187 H 0.97902 0.12727 0.76183 0.0
H1188 H 0.93638 0.40313 0.95962 0.0
H1189 H 0.90928 0.37842 0.97311 0.0
H1190 H 0.87044 0.44014 0.98491 0.0
H1191 H 0.89767 0.46496 0.97168 0.0
H1192 H 0.87345 0.40764 0.00777 0.0
H1193 H 0.85548 0.40927 0.9556 0.0
H1194 H 0.86438 0.40352 0.92933 0.0
H1195 H 0.87822 0.33037 0.93725 0.0
H1196 H 0.86972 0.33579 0.96362 0.0
H1197 H 0.7581 0.37716 0.0145 0.0
H1198 H 0.79622 0.39195 0.0093 0.0
H1199 H 0.81818 0.32193 0.99747 0.0
H1200 H 0.77973 0.30697 0.00241 0.0
H1201 H 0.82898 0.35235 0.97671 0.0
H1202 H 0.83958 0.34944 0.02832 0.0
H1203 H 0.83026 0.35544 0.05448 0.0
H1204 H 0.83014 0.43032 0.04807 0.0
H1205 H 0.83913 0.42479 0.02182 0.0
C1206 C 0.92233 0.41146 0.96535 0.0
C1207 C 0.91898 0.43594 0.9645 0.0
C1208 C 0.90684 0.39733 0.97299 0.0
C1209 C 0.88779 0.40747 0.97988 0.0
C1210 C 0.88505 0.432 0.97966 0.0
C1211 C 0.90046 0.44611 0.97199 0.0
C1212 C 0.86959 0.39256 0.98621 0.0
C1213 C 0.86366 0.39554 0.00103 0.0
C1214 C 0.85734 0.37629 0.97746 0.0
C1215 C 0.86225 0.37299 0.9616 0.0
C1216 C 0.86059 0.392 0.95175 0.0
C1217 C 0.86554 0.3888 0.93685 0.0
C1218 C 0.87193 0.36661 0.93163 0.0
C1219 C 0.87332 0.34756 0.94131 0.0
C1220 C 0.86844 0.35068 0.95623 0.0
C1221 C 0.77109 0.36479 0.01101 0.0
C1222 C 0.76584 0.34092 0.00876 0.0
C1223 C 0.79297 0.37326 0.00815 0.0
C1224 C 0.81013 0.35801 0.00313 0.0
C1225 C 0.80519 0.33398 0.00139 0.0
C1226 C 0.78323 0.32547 0.00422 0.0
C1227 C 0.83235 0.36777 0.99827 0.0
C1228 C 0.83904 0.36392 0.98365 0.0
C1229 C 0.84527 0.3832 0.00723 0.0
C1230 C 0.83992 0.38667 0.02305 0.0
C1231 C 0.83741 0.36719 0.03245 0.0
C1232 C 0.83221 0.37051 0.04731 0.0
C1233 C 0.82958 0.39325 0.05293 0.0
C1234 C 0.83219 0.41272 0.04371 0.0
C1235 C 0.83738 0.4095 0.02884 0.0
H1236 H 0.82555 0.39578 0.06444 0.0
H1237 H 0.87576 0.36417 0.92009 0.0
H1238 H 0.57916 0.40245 0.18087 0.0
H1239 H 0.60905 0.37394 0.18674 0.0
H1240 H 0.59884 0.38701 0.23305 0.0
H1241 H 0.56938 0.4162 0.22713 0.0
H1242 H 0.64281 0.3815 0.22756 0.0
H1243 H 0.57442 0.33923 0.21533 0.0
H1244 H 0.54141 0.32822 0.19997 0.0
H1245 H 0.58654 0.30531 0.16564 0.0
H1246 H 0.61985 0.31663 0.18068 0.0
H1247 H 0.68234 0.27127 0.25568 0.0
H1248 H 0.66177 0.30698 0.24869 0.0
H1249 H 0.67924 0.29502 0.20322 0.0
H1250 H 0.6998 0.25925 0.21009 0.0
H1251 H 0.63351 0.30086 0.20742 0.0
H1252 H 0.70227 0.34067 0.22125 0.0
H1253 H 0.73447 0.35092 0.23749 0.0
H1254 H 0.68772 0.37711 0.26997 0.0
H1255 H 0.6552 0.36671 0.25401 0.0
C1256 C 0.58339 0.39926 0.19229 0.0
C1257 C 0.57184 0.41122 0.20358 0.0
C1258 C 0.60044 0.38299 0.19564 0.0
C1259 C 0.60585 0.37797 0.21035 0.0
C1260 C 0.59489 0.39055 0.22163 0.0
C1261 C 0.57806 0.40715 0.21826 0.0
C1262 C 0.62217 0.35887 0.21396 0.0
C1263 C 0.64068 0.36381 0.22327 0.0
C1264 C 0.61961 0.33588 0.20814 0.0
C1265 C 0.59962 0.329 0.19907 0.0
C1266 C 0.5773 0.33202 0.20445 0.0
C1267 C 0.55854 0.32573 0.19581 0.0
C1268 C 0.56188 0.31616 0.18182 0.0
C1269 C 0.58399 0.31281 0.17646 0.0
C1270 C 0.60282 0.31916 0.18504 0.0
C1271 C 0.68216 0.27645 0.24422 0.0
C1272 C 0.69257 0.26234 0.23342 0.0
C1273 C 0.67047 0.29692 0.24025 0.0
C1274 C 0.66903 0.30364 0.22544 0.0
C1275 C 0.68017 0.2901 0.21471 0.0
C1276 C 0.69195 0.2697 0.21867 0.0
C1277 C 0.65415 0.32347 0.22101 0.0
C1278 C 0.63581 0.31861 0.21159 0.0
C1279 C 0.65675 0.3464 0.22686 0.0
C1280 C 0.67628 0.35271 0.23648 0.0
C1281 C 0.69884 0.34843 0.23191 0.0
C1282 C 0.71715 0.35431 0.24105 0.0
C1283 C 0.71314 0.36461 0.25476 0.0
C1284 C 0.6908 0.36911 0.25935 0.0
C1285 C 0.67242 0.36325 0.25025 0.0
H1286 H 0.72735 0.36915 0.26183 0.0
H1287 H 0.54734 0.31128 0.17514 0.0
H1288 H 0.08383 0.95054 0.39902 0.0
H1289 H 0.10679 0.92514 0.41478 0.0
H1290 H 0.11019 0.87309 0.38028 0.0
H1291 H 0.08725 0.89857 0.36435 0.0
H1292 H 0.09984 0.85327 0.40635 0.0
H1293 H 0.15668 0.90588 0.38845 0.0
H1294 H 0.17396 0.94429 0.3825 0.0
H1295 H 0.17311 0.96337 0.42819 0.0
H1296 H 0.15551 0.9252 0.4344 0.0
H1297 H 0.18256 0.78618 0.44675 0.0
H1298 H 0.16372 0.80904 0.42742 0.0
H1299 H 0.15311 0.86614 0.45796 0.0
H1300 H 0.17196 0.84358 0.47727 0.0
H1301 H 0.16971 0.88152 0.43163 0.0
H1302 H 0.10981 0.83005 0.44896 0.0
H1303 H 0.09237 0.79165 0.45475 0.0
H1304 H 0.09945 0.77029 0.40968 0.0
H1305 H 0.11722 0.80848 0.40366 0.0
C1306 C 0.08977 0.93387 0.39468 0.0
C1307 C 0.08382 0.92664 0.38039 0.0
C1308 C 0.10286 0.91934 0.40371 0.0
C1309 C 0.11043 0.89734 0.39864 0.0
C1310 C 0.10453 0.89002 0.3844 0.0
C1311 C 0.09139 0.90456 0.37533 0.0
C1312 C 0.12387 0.88179 0.40845 0.0
C1313 C 0.11536 0.85927 0.41166 0.0
C1314 C 0.14394 0.88976 0.41555 0.0
C1315 C 0.15461 0.91273 0.41188 0.0
C1316 C 0.16002 0.91833 0.39722 0.0
C1317 C 0.1699 0.94005 0.3938 0.0
C1318 C 0.17459 0.95627 0.40495 0.0
C1319 C 0.16945 0.95079 0.41956 0.0
C1320 C 0.15955 0.9291 0.42304 0.0
C1321 C 0.17618 0.80359 0.44936 0.0
C1322 C 0.17873 0.81304 0.46356 0.0
C1323 C 0.16538 0.81659 0.43831 0.0
C1324 C 0.15694 0.83924 0.44129 0.0
C1325 C 0.15955 0.84872 0.45543 0.0
C1326 C 0.17025 0.83574 0.46647 0.0
C1327 C 0.14542 0.85323 0.42972 0.0
C1328 C 0.15432 0.87545 0.42618 0.0
C1329 C 0.12578 0.84495 0.42229 0.0
C1330 C 0.11509 0.822 0.4259 0.0
C1331 C 0.10783 0.81708 0.44031 0.0
C1332 C 0.09785 0.79538 0.44363 0.0
C1333 C 0.09487 0.77851 0.4326 0.0
C1334 C 0.10181 0.78335 0.41822 0.0
C1335 C 0.11183 0.80503 0.41485 0.0
H1336 H 0.08713 0.76172 0.4352 0.0
H1337 H 0.18223 0.97308 0.40228 0.0
H1338 H 0.0587 0.60304 0.62716 0.0
H1339 H 0.08604 0.62292 0.64334 0.0
H1340 H 0.11532 0.5558 0.65502 0.0
H1341 H 0.08793 0.53582 0.63894 0.0
H1342 H 0.10556 0.58411 0.67917 0.0
H1343 H 0.14358 0.59039 0.63259 0.0
H1344 H 0.14657 0.60052 0.60631 0.0
H1345 H 0.134 0.67323 0.61642 0.0
H1346 H 0.13052 0.66347 0.64276 0.0
H1347 H 0.20127 0.62449 0.7178 0.0
H1348 H 0.17918 0.60579 0.69825 0.0
H1349 H 0.15007 0.67297 0.68662 0.0
H1350 H 0.17216 0.69194 0.70616 0.0
H1351 H 0.1603 0.6449 0.66202 0.0
H1352 H 0.12039 0.6394 0.70776 0.0
H1353 H 0.11597 0.6304 0.73412 0.0
H1354 H 0.13034 0.55752 0.72563 0.0
H1355 H 0.13525 0.56617 0.69921 0.0
C1356 C 0.07097 0.59256 0.63319 0.0
C1357 C 0.07122 0.56791 0.63182 0.0
C1358 C 0.08664 0.60392 0.64234 0.0
C1359 C 0.10275 0.5908 0.65029 0.0
C1360 C 0.10304 0.5662 0.64893 0.0
C1361 C 0.08751 0.55485 0.6397 0.0
C1362 C 0.11883 0.60269 0.66039 0.0
C1363 C 0.11779 0.59711 0.67539 0.0
C1364 C 0.13426 0.62017 0.65547 0.0
C1365 C 0.13658 0.62615 0.63965 0.0
C1366 C 0.14126 0.60851 0.62921 0.0
C1367 C 0.14306 0.61419 0.6143 0.0
C1368 C 0.14042 0.63749 0.6097 0.0
C1369 C 0.13601 0.65517 0.62 0.0
C1370 C 0.13413 0.64958 0.63493 0.0
C1371 C 0.19043 0.63539 0.71096 0.0
C1372 C 0.18826 0.65966 0.71364 0.0
C1373 C 0.17781 0.62465 0.69981 0.0
C1374 C 0.16281 0.63798 0.69114 0.0
C1375 C 0.16155 0.66241 0.69322 0.0
C1376 C 0.17412 0.67318 0.70442 0.0
C1377 C 0.14715 0.6261 0.68075 0.0
C1378 C 0.14817 0.63177 0.66576 0.0
C1379 C 0.13151 0.60883 0.68567 0.0
C1380 C 0.12842 0.60348 0.70152 0.0
C1381 C 0.12281 0.62149 0.71152 0.0
C1382 C 0.12018 0.61645 0.72647 0.0
C1383 C 0.12291 0.59342 0.73154 0.0
C1384 C 0.12826 0.57536 0.72167 0.0
C1385 C 0.13095 0.58032 0.70671 0.0
H1386 H 0.12079 0.58957 0.7431 0.0
H1387 H 0.14188 0.64183 0.59816 0.0
H1388 H 0.45847 0.56997 0.89922 0.0
H1389 H 0.43327 0.59012 0.91654 0.0
H1390 H 0.38773 0.60822 0.88105 0.0
H1391 H 0.41312 0.58831 0.86355 0.0
H1392 H 0.39556 0.64553 0.90049 0.0
H1393 H 0.3734 0.56449 0.90256 0.0
H1394 H 0.37952 0.52173 0.90502 0.0
H1395 H 0.4065 0.53188 0.94845 0.0
H1396 H 0.40087 0.57477 0.94617 0.0
H1397 H 0.30423 0.67911 0.94799 0.0
H1398 H 0.32696 0.66005 0.92882 0.0
H1399 H 0.37386 0.6345 0.96171 0.0
H1400 H 0.35111 0.6532 0.98094 0.0
H1401 H 0.36333 0.6006 0.94241 0.0
H1402 H 0.3872 0.68153 0.94006 0.0
H1403 H 0.38177 0.72441 0.93767 0.0
H1404 H 0.35209 0.71466 0.89494 0.0
H1405 H 0.35706 0.67166 0.89715 0.0
C1406 C 0.44324 0.57849 0.89507 0.0
C1407 C 0.43774 0.57755 0.88003 0.0
C1408 C 0.42878 0.58982 0.90499 0.0
C1409 C 0.40854 0.60042 0.90008 0.0
C1410 C 0.40324 0.60006 0.88504 0.0
C1411 C 0.41766 0.58857 0.8751 0.0
C1412 C 0.39281 0.61153 0.91078 0.0
C1413 C 0.38819 0.63567 0.90953 0.0
C1414 C 0.38359 0.59868 0.9227 0.0
C1415 C 0.3869 0.57287 0.92414 0.0
C1416 C 0.38081 0.55763 0.91259 0.0
C1417 C 0.38416 0.53336 0.91396 0.0
C1418 C 0.39344 0.5241 0.92687 0.0
C1419 C 0.39934 0.53908 0.93845 0.0
C1420 C 0.39605 0.56337 0.93714 0.0
C1421 C 0.31938 0.66944 0.95115 0.0
C1422 C 0.32589 0.66772 0.96599 0.0
C1423 C 0.3324 0.65863 0.94017 0.0
C1424 C 0.35223 0.64606 0.94383 0.0
C1425 C 0.35862 0.64412 0.95865 0.0
C1426 C 0.34562 0.65488 0.96962 0.0
C1427 C 0.36629 0.63472 0.93227 0.0
C1428 C 0.37057 0.61048 0.93333 0.0
C1429 C 0.37523 0.64751 0.92021 0.0
C1430 C 0.37227 0.67336 0.91884 0.0
C1431 C 0.37934 0.68851 0.9302 0.0
C1432 C 0.37637 0.71284 0.92887 0.0
C1433 C 0.36652 0.72225 0.91618 0.0
C1434 C 0.35967 0.70734 0.90477 0.0
C1435 C 0.36257 0.68299 0.90606 0.0
H1436 H 0.36425 0.74109 0.91517 0.0
H1437 H 0.39602 0.5053 0.92791 0.0
H1438 H 0.41497 0.90581 0.11025 0.0
H1439 H 0.39316 0.88275 0.12817 0.0
H1440 H 0.40177 0.93805 0.16025 0.0
H1441 H 0.42432 0.96056 0.14275 0.0
H1442 H 0.41064 0.8966 0.17204 0.0
H1443 H 0.35073 0.92918 0.1412 0.0
H1444 H 0.33119 0.93584 0.11754 0.0
H1445 H 0.32264 0.86129 0.11197 0.0
H1446 H 0.34233 0.85418 0.13555 0.0
H1447 H 0.32847 0.8796 0.2261 0.0
H1448 H 0.34884 0.89485 0.20478 0.0
H1449 H 0.33694 0.82975 0.18158 0.0
H1450 H 0.31627 0.81426 0.20295 0.0
H1451 H 0.33106 0.86977 0.16382 0.0
H1452 H 0.38734 0.83755 0.19593 0.0
H1453 H 0.40686 0.8309 0.21958 0.0
H1454 H 0.42282 0.90454 0.22251 0.0
H1455 H 0.40308 0.9117 0.19898 0.0
C1456 C 0.4123 0.91297 0.12115 0.0
C1457 C 0.42131 0.93509 0.12504 0.0
C1458 C 0.39966 0.89987 0.13133 0.0
C1459 C 0.39569 0.90877 0.14551 0.0
C1460 C 0.4046 0.93085 0.14936 0.0
C1461 C 0.41729 0.94383 0.13927 0.0
C1462 C 0.38276 0.8951 0.15663 0.0
C1463 C 0.39318 0.8909 0.17026 0.0
C1464 C 0.36028 0.88686 0.15412 0.0
C1465 C 0.34819 0.89115 0.14006 0.0
C1466 C 0.34479 0.91421 0.13489 0.0
C1467 C 0.33366 0.91806 0.12151 0.0
C1468 C 0.3257 0.899 0.11325 0.0
C1469 C 0.3288 0.87604 0.11838 0.0
C1470 C 0.33992 0.87208 0.13176 0.0
C1471 C 0.33002 0.86851 0.21646 0.0
C1472 C 0.32092 0.84562 0.21627 0.0
C1473 C 0.34171 0.87726 0.20428 0.0
C1474 C 0.34466 0.86329 0.1917 0.0
C1475 C 0.3349 0.84075 0.19122 0.0
C1476 C 0.32318 0.83193 0.20345 0.0
C1477 C 0.35871 0.87216 0.17935 0.0
C1478 C 0.34859 0.87528 0.16551 0.0
C1479 C 0.38152 0.87943 0.18162 0.0
C1480 C 0.39358 0.87518 0.19573 0.0
C1481 C 0.39487 0.85236 0.20167 0.0
C1482 C 0.406 0.84849 0.21505 0.0
C1483 C 0.41604 0.86729 0.22256 0.0
C1484 C 0.41502 0.88999 0.21669 0.0
C1485 C 0.40389 0.89396 0.20332 0.0
H1486 H 0.42464 0.86426 0.23291 0.0
H1487 H 0.31714 0.90201 0.10288 0.0
H1488 H 0.08651 0.57872 0.87951 0.0
H1489 H 0.10845 0.59947 0.86059 0.0
H1490 H 0.05633 0.5835 0.8286 0.0
H1491 H 0.03464 0.56229 0.84732 0.0
H1492 H 0.09887 0.57614 0.81767 0.0
H1493 H 0.05925 0.63748 0.84404 0.0
H1494 H 0.0479 0.65987 0.8661 0.0
H1495 H 0.11804 0.67709 0.87458 0.0
H1496 H 0.12984 0.65452 0.85266 0.0
H1497 H 0.12663 0.65696 0.76144 0.0
H1498 H 0.10714 0.63565 0.78109 0.0
H1499 H 0.16018 0.65563 0.81154 0.0
H1500 H 0.17964 0.67729 0.79201 0.0
H1501 H 0.11882 0.66049 0.82379 0.0
H1502 H 0.15869 0.60055 0.79729 0.0
H1503 H 0.17069 0.57784 0.77551 0.0
H1504 H 0.10119 0.55754 0.76754 0.0
H1505 H 0.08871 0.58042 0.78918 0.0
C1506 C 0.07985 0.57948 0.86841 0.0
C1507 C 0.05878 0.56901 0.86492 0.0
C1508 C 0.0923 0.59147 0.85766 0.0
C1509 C 0.08388 0.59323 0.84324 0.0
C1510 C 0.06309 0.58242 0.83967 0.0
C1511 C 0.05062 0.57049 0.85041 0.0
C1512 C 0.0966 0.60645 0.83184 0.0
C1513 C 0.10302 0.59465 0.81892 0.0
C1514 C 0.10253 0.63043 0.83367 0.0
C1515 C 0.09545 0.64411 0.8468 0.0
C1516 C 0.07227 0.64588 0.85067 0.0
C1517 C 0.06575 0.65863 0.86314 0.0
C1518 C 0.08224 0.66984 0.87176 0.0
C1519 C 0.10529 0.66837 0.8679 0.0
C1520 C 0.1119 0.65562 0.85546 0.0
C1521 C 0.13412 0.65693 0.77233 0.0
C1522 C 0.15471 0.66879 0.77515 0.0
C1523 C 0.12301 0.64462 0.78353 0.0
C1524 C 0.13237 0.64381 0.79773 0.0
C1525 C 0.15269 0.65599 0.80065 0.0
C1526 C 0.16381 0.66832 0.78946 0.0
C1527 C 0.12092 0.63024 0.80954 0.0
C1528 C 0.11476 0.64196 0.82254 0.0
C1529 C 0.11532 0.60615 0.80781 0.0
C1530 C 0.12275 0.59237 0.79479 0.0
C1531 C 0.14594 0.5914 0.79083 0.0
C1532 C 0.15283 0.57845 0.77853 0.0
C1533 C 0.13671 0.56625 0.77015 0.0
C1534 C 0.11366 0.56697 0.77406 0.0
C1535 C 0.10667 0.57992 0.78634 0.0
H1536 H 0.14208 0.55625 0.76063 0.0
H1537 H 0.07716 0.6797 0.8814 0.0
H1538 H 0.38131 0.56006 0.14627 0.0
H1539 H 0.36116 0.58474 0.12842 0.0
H1540 H 0.42462 0.61872 0.11703 0.0
H1541 H 0.44469 0.59447 0.13506 0.0
H1542 H 0.39087 0.64983 0.11668 0.0
H1543 H 0.4033 0.5719 0.09701 0.0
H1544 H 0.40057 0.52857 0.09692 0.0
H1545 H 0.32741 0.5331 0.09721 0.0
H1546 H 0.32973 0.57649 0.09751 0.0
H1547 H 0.37253 0.68496 0.04301 0.0
H1548 H 0.38539 0.66701 0.06591 0.0
H1549 H 0.31762 0.64005 0.07363 0.0
H1550 H 0.30461 0.65776 0.05058 0.0
H1551 H 0.34965 0.60658 0.07739 0.0
H1552 H 0.33814 0.68561 0.09405 0.0
H1553 H 0.34212 0.72881 0.09341 0.0
H1554 H 0.41479 0.72227 0.09793 0.0
H1555 H 0.41128 0.679 0.09839 0.0
C1556 C 0.39086 0.57302 0.14008 0.0
C1557 C 0.41457 0.57525 0.14195 0.0
C1558 C 0.37936 0.58707 0.12988 0.0
C1559 C 0.39146 0.60325 0.12118 0.0
C1560 C 0.41493 0.60634 0.1236 0.0
C1561 C 0.42638 0.5925 0.13392 0.0
C1562 C 0.38012 0.61578 0.10888 0.0
C1563 C 0.38196 0.64039 0.10805 0.0
C1564 C 0.36811 0.60349 0.09775 0.0
C1565 C 0.36669 0.57742 0.09745 0.0
C1566 C 0.38664 0.56365 0.09715 0.0
C1567 C 0.38517 0.53908 0.09706 0.0
C1568 C 0.36383 0.52809 0.09711 0.0
C1569 C 0.34393 0.54164 0.0972 0.0
C1570 C 0.34531 0.56622 0.09733 0.0
C1571 C 0.36029 0.67535 0.0496 0.0
C1572 C 0.33754 0.67277 0.04496 0.0
C1573 C 0.36765 0.66522 0.06275 0.0
C1574 C 0.3524 0.65243 0.07157 0.0
C1575 C 0.32964 0.64993 0.06701 0.0
C1576 C 0.32224 0.66008 0.05385 0.0
C1577 C 0.36059 0.64062 0.08511 0.0
C1578 C 0.35824 0.61611 0.08614 0.0
C1579 C 0.37229 0.653 0.09633 0.0
C1580 C 0.37445 0.67904 0.09615 0.0
C1581 C 0.35498 0.69337 0.09481 0.0
C1582 C 0.35716 0.71788 0.09449 0.0
C1583 C 0.3787 0.72828 0.0956 0.0
C1584 C 0.39811 0.71419 0.09706 0.0
C1585 C 0.39604 0.68967 0.09737 0.0
H1586 H 0.38034 0.74725 0.09535 0.0
H1587 H 0.36273 0.50907 0.09703 0.0
H1588 H 0.43533 0.93813 0.35409 0.0
H1589 H 0.40883 0.91711 0.33807 0.0
H1590 H 0.37201 0.89187 0.37599 0.0
H1591 H 0.39885 0.9126 0.39218 0.0
H1592 H 0.37954 0.85698 0.35525 0.0
H1593 H 0.34935 0.93492 0.35644 0.0
H1594 H 0.3505 0.97823 0.35485 0.0
H1595 H 0.37186 0.97373 0.30977 0.0
H1596 H 0.37118 0.93036 0.31115 0.0
H1597 H 0.29004 0.81389 0.30873 0.0
H1598 H 0.3103 0.83515 0.3282 0.0
H1599 H 0.35256 0.86897 0.29561 0.0
H1600 H 0.33232 0.8481 0.27614 0.0
H1601 H 0.33814 0.89995 0.31596 0.0
H1602 H 0.37212 0.82242 0.31558 0.0
H1603 H 0.3718 0.77907 0.31711 0.0
H1604 H 0.34365 0.78291 0.36063 0.0
H1605 H 0.34352 0.82631 0.35927 0.0
C1606 C 0.42173 0.92793 0.35904 0.0
C1607 C 0.41919 0.92699 0.3744 0.0
C1608 C 0.40648 0.91611 0.34987 0.0
C1609 C 0.38831 0.90317 0.35584 0.0
C1610 C 0.38587 0.90187 0.37117 0.0
C1611 C 0.40111 0.91381 0.38038 0.0
C1612 C 0.37205 0.89097 0.34595 0.0
C1613 C 0.37012 0.8664 0.34684 0.0
C1614 C 0.36006 0.90327 0.33485 0.0
C1615 C 0.36037 0.92937 0.33394 0.0
C1616 C 0.35446 0.94315 0.34622 0.0
C1617 C 0.355 0.96772 0.34535 0.0
C1618 C 0.36129 0.97872 0.33222 0.0
C1619 C 0.367 0.96518 0.31993 0.0
C1620 C 0.36651 0.9406 0.32075 0.0
C1621 C 0.30362 0.8259 0.30571 0.0
C1622 C 0.30963 0.82923 0.29089 0.0
C1623 C 0.31522 0.83797 0.31685 0.0
C1624 C 0.33307 0.85348 0.31336 0.0
C1625 C 0.33883 0.85709 0.29856 0.0
C1626 C 0.32727 0.84507 0.28744 0.0
C1627 C 0.34604 0.86589 0.32503 0.0
C1628 C 0.34732 0.89055 0.32449 0.0
C1629 C 0.35745 0.85366 0.33642 0.0
C1630 C 0.35755 0.82759 0.33725 0.0
C1631 C 0.36568 0.81401 0.32542 0.0
C1632 C 0.36562 0.78943 0.32627 0.0
C1633 C 0.35764 0.77824 0.33894 0.0
C1634 C 0.34977 0.7916 0.35081 0.0
C1635 C 0.34977 0.81619 0.35001 0.0
H1636 H 0.35761 0.75921 0.33958 0.0
H1637 H 0.3617 0.99775 0.33157 0.0
H1638 H 0.10144 0.90848 0.64485 0.0
H1639 H 0.12518 0.8841 0.62872 0.0
H1640 H 0.06847 0.87547 0.59901 0.0
H1641 H 0.04493 0.90042 0.61463 0.0
H1642 H 0.09412 0.83333 0.60415 0.0
H1643 H 0.10531 0.9162 0.59166 0.0
H1644 H 0.11592 0.95714 0.59761 0.0
H1645 H 0.18263 0.93417 0.61091 0.0
H1646 H 0.17226 0.89302 0.60522 0.0
H1647 H 0.13237 0.80877 0.53319 0.0
H1648 H 0.11567 0.82454 0.55563 0.0
H1649 H 0.18299 0.83751 0.57309 0.0
H1650 H 0.19992 0.82225 0.55036 0.0
H1651 H 0.15705 0.874 0.57793 0.0
H1652 H 0.14902 0.79235 0.58658 0.0
H1653 H 0.1393 0.75096 0.58131 0.0
H1654 H 0.0687 0.76972 0.5766 0.0
H1655 H 0.07802 0.8113 0.58163 0.0
C1656 C 0.09401 0.90142 0.63488 0.0
C1657 C 0.07127 0.90661 0.63101 0.0
C1658 C 0.10756 0.88735 0.62575 0.0
C1659 C 0.09856 0.87809 0.61267 0.0
C1660 C 0.07566 0.88233 0.60912 0.0
C1661 C 0.06219 0.89656 0.61812 0.0
C1662 C 0.11324 0.86548 0.60203 0.0
C1663 C 0.10788 0.84214 0.59837 0.0
C1664 C 0.13166 0.87681 0.59491 0.0
C1665 C 0.13792 0.90154 0.59819 0.0
C1666 C 0.12217 0.91987 0.59597 0.0
C1667 C 0.12815 0.94311 0.59927 0.0
C1668 C 0.14991 0.94824 0.60468 0.0
C1669 C 0.16576 0.93016 0.60675 0.0
C1670 C 0.15985 0.90688 0.60349 0.0
C1671 C 0.14368 0.81486 0.54181 0.0
C1672 C 0.16748 0.81423 0.53999 0.0
C1673 C 0.13408 0.82372 0.55471 0.0
C1674 C 0.14806 0.83179 0.56619 0.0
C1675 C 0.17187 0.83124 0.56442 0.0
C1676 C 0.18151 0.82253 0.55143 0.0
C1677 C 0.13758 0.84189 0.57966 0.0
C1678 C 0.14368 0.86484 0.58387 0.0
C1679 C 0.12003 0.83004 0.58741 0.0
C1680 C 0.11426 0.80501 0.5844 0.0
C1681 C 0.13144 0.78769 0.58432 0.0
C1682 C 0.12599 0.76419 0.58139 0.0
C1683 C 0.1034 0.75772 0.5786 0.0
C1684 C 0.08619 0.77475 0.57876 0.0
C1685 C 0.09155 0.7983 0.58167 0.0
H1686 H 0.09922 0.7395 0.57634 0.0
H1687 H 0.15451 0.96625 0.60723 0.0
H1688 H 0.6115 0.44985 0.87759 0.0
H1689 H 0.63227 0.42493 0.89484 0.0
H1690 H 0.5745 0.37799 0.89739 0.0
H1691 H 0.5531 0.40358 0.8809 0.0
H1692 H 0.58934 0.38569 0.92349 0.0
H1693 H 0.62476 0.36372 0.87838 0.0
H1694 H 0.6445 0.36928 0.85469 0.0
H1695 H 0.70139 0.40087 0.87699 0.0
H1696 H 0.68185 0.3958 0.9008 0.0
H1697 H 0.65071 0.29139 0.95792 0.0
H1698 H 0.63244 0.31361 0.93804 0.0
H1699 H 0.67522 0.37342 0.94763 0.0
H1700 H 0.69314 0.3516 0.96782 0.0
H1701 H 0.66846 0.35756 0.91507 0.0
H1702 H 0.62976 0.38061 0.96026 0.0
H1703 H 0.60959 0.372 0.98343 0.0
H1704 H 0.55784 0.33451 0.95955 0.0
H1705 H 0.57796 0.34257 0.93624 0.0
C1706 C 0.60313 0.43431 0.88189 0.0
C1707 C 0.58058 0.42878 0.87784 0.0
C1708 C 0.61517 0.41988 0.8916 0.0
C1709 C 0.60507 0.39938 0.89729 0.0
C1710 C 0.58269 0.39366 0.89312 0.0
C1711 C 0.57055 0.40821 0.88354 0.0
C1712 C 0.6174 0.38453 0.90813 0.0
C1713 C 0.60651 0.37929 0.9215 0.0
C1714 C 0.63995 0.37638 0.90568 0.0
C1715 C 0.65173 0.37958 0.89137 0.0
C1716 C 0.64139 0.37204 0.87822 0.0
C1717 C 0.65256 0.37507 0.86478 0.0
C1718 C 0.67416 0.38548 0.86433 0.0
C1719 C 0.68464 0.39284 0.87734 0.0
C1720 C 0.67354 0.38987 0.89082 0.0
C1721 C 0.65637 0.30919 0.9557 0.0
C1722 C 0.67327 0.31983 0.96443 0.0
C1723 C 0.64593 0.32182 0.94437 0.0
C1724 C 0.65256 0.34506 0.94143 0.0
C1725 C 0.66999 0.35545 0.94976 0.0
C1726 C 0.68009 0.34302 0.9613 0.0
C1727 C 0.64034 0.35899 0.93023 0.0
C1728 C 0.65126 0.364 0.91689 0.0
C1729 C 0.6177 0.36663 0.93256 0.0
C1730 C 0.60551 0.36193 0.94654 0.0
C1731 C 0.61422 0.37031 0.95997 0.0
C1732 C 0.60277 0.36558 0.97312 0.0
C1733 C 0.58248 0.35264 0.97297 0.0
C1734 C 0.57358 0.34448 0.95965 0.0
C1735 C 0.58499 0.34914 0.94647 0.0
H1736 H 0.57363 0.349 0.98316 0.0
H1737 H 0.68279 0.38778 0.85391 0.0
H1738 H 0.54055 0.07772 0.14397 0.0
H1739 H 0.56309 0.09917 0.16205 0.0
H1740 H 0.62128 0.09749 0.13307 0.0
H1741 H 0.59856 0.07672 0.11453 0.0
H1742 H 0.63061 0.08369 0.16274 0.0
H1743 H 0.59597 0.1472 0.13639 0.0
H1744 H 0.56424 0.16909 0.125 0.0
H1745 H 0.53158 0.17567 0.16706 0.0
H1746 H 0.56296 0.1535 0.17868 0.0
H1747 H 0.69342 0.16075 0.21005 0.0
H1748 H 0.67568 0.14231 0.18857 0.0
H1749 H 0.60946 0.14946 0.20887 0.0
H1750 H 0.62696 0.16843 0.23013 0.0
H1751 H 0.60711 0.16222 0.18129 0.0
H1752 H 0.63878 0.09602 0.20736 0.0
H1753 H 0.66924 0.07288 0.21924 0.0
H1754 H 0.70614 0.07012 0.17848 0.0
H1755 H 0.67602 0.09353 0.1664 0.0
C1756 C 0.55799 0.08227 0.14124 0.0
C1757 C 0.56764 0.07562 0.12769 0.0
C1758 C 0.57089 0.0944 0.15167 0.0
C1759 C 0.59376 0.10002 0.14884 0.0
C1760 C 0.60362 0.09327 0.13543 0.0
C1761 C 0.59063 0.08132 0.1249 0.0
C1762 C 0.60729 0.11266 0.16008 0.0
C1763 C 0.6258 0.10106 0.16664 0.0
C1764 C 0.60061 0.13507 0.16532 0.0
C1765 C 0.58175 0.14852 0.15839 0.0
C1766 C 0.58194 0.15315 0.1432 0.0
C1767 C 0.56403 0.16564 0.1367 0.0
C1768 C 0.54588 0.17373 0.1453 0.0
C1769 C 0.54564 0.16938 0.16042 0.0
C1770 C 0.5635 0.15688 0.16696 0.0
C1771 C 0.67509 0.1583 0.20995 0.0
C1772 C 0.66159 0.16602 0.22179 0.0
C1773 C 0.66498 0.1477 0.19768 0.0
C1774 C 0.64124 0.14431 0.19715 0.0
C1775 C 0.62779 0.15196 0.209 0.0
C1776 C 0.63784 0.16273 0.22118 0.0
C1777 C 0.63022 0.13307 0.18424 0.0
C1778 C 0.61215 0.14496 0.17733 0.0
C1779 C 0.63718 0.11083 0.17878 0.0
C1780 C 0.65529 0.09676 0.18602 0.0
C1781 C 0.65349 0.09065 0.20096 0.0
C1782 C 0.67067 0.07745 0.20772 0.0
C1783 C 0.68965 0.0701 0.19963 0.0
C1784 C 0.69145 0.07587 0.18474 0.0
C1785 C 0.67433 0.08909 0.17793 0.0
H1786 H 0.70293 0.05988 0.20489 0.0
H1787 H 0.53203 0.1834 0.14025 0.0
H1788 H 0.91506 0.08399 0.37288 0.0
H1789 H 0.89423 0.10888 0.39009 0.0
H1790 H 0.9537 0.11276 0.41797 0.0
H1791 H 0.97411 0.08644 0.4014 0.0
H1792 H 0.91851 0.10624 0.43421 0.0
H1793 H 0.93557 0.15966 0.39506 0.0
H1794 H 0.93696 0.17367 0.36942 0.0
H1795 H 0.86378 0.1718 0.36712 0.0
H1796 H 0.86197 0.15748 0.39269 0.0
H1797 H 0.87761 0.19926 0.47871 0.0
H1798 H 0.90013 0.17963 0.45968 0.0
H1799 H 0.83844 0.16166 0.43638 0.0
H1800 H 0.8157 0.18113 0.45542 0.0
H1801 H 0.87543 0.1768 0.41794 0.0
H1802 H 0.8596 0.12272 0.45765 0.0
H1803 H 0.85933 0.11072 0.48369 0.0
H1804 H 0.93243 0.11551 0.48511 0.0
H1805 H 0.93309 0.12815 0.45916 0.0
C1806 C 0.92368 0.08989 0.38275 0.0
C1807 C 0.94633 0.08313 0.3857 0.0
C1808 C 0.91182 0.10446 0.39249 0.0
C1809 C 0.92249 0.11306 0.40524 0.0
C1810 C 0.94511 0.10646 0.40818 0.0
C1811 C 0.95687 0.0916 0.39857 0.0
C1812 C 0.90987 0.12832 0.41574 0.0
C1813 C 0.90943 0.12187 0.43065 0.0
C1814 C 0.89762 0.14854 0.41111 0.0
C1815 C 0.89865 0.15729 0.39576 0.0
C1816 C 0.91978 0.16208 0.38906 0.0
C1817 C 0.92064 0.17011 0.37454 0.0
C1818 C 0.90047 0.17357 0.36663 0.0
C1819 C 0.87939 0.16909 0.37325 0.0
C1820 C 0.87844 0.16104 0.38776 0.0
C1821 C 0.86882 0.19145 0.46943 0.0
C1822 C 0.84486 0.19155 0.46863 0.0
C1823 C 0.88172 0.18022 0.45859 0.0
C1824 C 0.87089 0.16903 0.44674 0.0
C1825 C 0.84707 0.1702 0.44548 0.0
C1826 C 0.83412 0.18124 0.45638 0.0
C1827 C 0.88425 0.15467 0.43626 0.0
C1828 C 0.88471 0.16124 0.42142 0.0
C1829 C 0.89673 0.13473 0.44096 0.0
C1830 C 0.89638 0.12666 0.45649 0.0
C1831 C 0.87561 0.12144 0.46354 0.0
C1832 C 0.87538 0.11452 0.47829 0.0
C1833 C 0.89584 0.11245 0.48607 0.0
C1834 C 0.91658 0.11722 0.47909 0.0
C1835 C 0.91689 0.12427 0.46437 0.0
H1836 H 0.89562 0.10709 0.49749 0.0
H1837 H 0.90118 0.17977 0.35539 0.0
H1838 H 0.92521 0.41244 0.62953 0.0
H1839 H 0.89941 0.39226 0.64638 0.0
H1840 H 0.85296 0.45102 0.64467 0.0
H1841 H 0.87802 0.47094 0.62717 0.0
H1842 H 0.86805 0.43637 0.67384 0.0
H1843 H 0.83411 0.40493 0.62998 0.0
H1844 H 0.83413 0.3854 0.60577 0.0
H1845 H 0.86418 0.32365 0.62488 0.0
H1846 H 0.86437 0.34284 0.64924 0.0
H1847 H 0.78815 0.38258 0.72161 0.0
H1848 H 0.80472 0.40277 0.7004 0.0
H1849 H 0.84554 0.34142 0.69076 0.0
H1850 H 0.82856 0.32091 0.71162 0.0
H1851 H 0.8302 0.35919 0.66616 0.0
H1852 H 0.86754 0.39016 0.70903 0.0
H1853 H 0.86996 0.40895 0.73343 0.0
H1854 H 0.83715 0.47086 0.7165 0.0
H1855 H 0.83427 0.4523 0.69202 0.0
C1856 C 0.90924 0.42087 0.63236 0.0
C1857 C 0.90383 0.44346 0.62701 0.0
C1858 C 0.89457 0.40933 0.64207 0.0
C1859 C 0.87436 0.42021 0.64675 0.0
C1860 C 0.86857 0.44242 0.64121 0.0
C1861 C 0.88303 0.45383 0.6313 0.0
C1862 C 0.86022 0.40904 0.65824 0.0
C1863 C 0.85934 0.41973 0.67212 0.0
C1864 C 0.84955 0.38703 0.65602 0.0
C1865 C 0.84943 0.3754 0.64141 0.0
C1866 C 0.84089 0.38725 0.62901 0.0
C1867 C 0.84083 0.37623 0.61526 0.0
C1868 C 0.84928 0.35336 0.61376 0.0
C1869 C 0.85768 0.34139 0.62605 0.0
C1870 C 0.8577 0.3523 0.63984 0.0
C1871 C 0.80058 0.37337 0.71493 0.0
C1872 C 0.80716 0.35021 0.71835 0.0
C1873 C 0.81009 0.38494 0.70283 0.0
C1874 C 0.82664 0.37373 0.6941 0.0
C1875 C 0.83281 0.35043 0.69731 0.0
C1876 C 0.82313 0.33876 0.70929 0.0
C1877 C 0.83809 0.38643 0.68189 0.0
C1878 C 0.8386 0.37599 0.66788 0.0
C1879 C 0.84875 0.40855 0.68404 0.0
C1880 C 0.85044 0.41974 0.69875 0.0
C1881 C 0.86067 0.40771 0.71054 0.0
C1882 C 0.86216 0.41832 0.72438 0.0
C1883 C 0.85365 0.44105 0.72653 0.0
C1884 C 0.84369 0.45323 0.71483 0.0
C1885 C 0.84213 0.44268 0.70097 0.0
H1886 H 0.85483 0.44925 0.73725 0.0
H1887 H 0.84924 0.34488 0.6031 0.0
H1888 H 0.59411 0.05838 0.37551 0.0
H1889 H 0.61541 0.08478 0.35938 0.0
H1890 H 0.55767 0.13183 0.35761 0.0
H1891 H 0.53595 0.10507 0.37334 0.0
H1892 H 0.57391 0.12371 0.33087 0.0
H1893 H 0.60576 0.14646 0.37694 0.0
H1894 H 0.62387 0.14088 0.40115 0.0
H1895 H 0.6827 0.11036 0.38042 0.0
H1896 H 0.6648 0.11544 0.35608 0.0
H1897 H 0.63517 0.21135 0.29163 0.0
H1898 H 0.6145 0.1922 0.3117 0.0
H1899 H 0.66594 0.13798 0.31364 0.0
H1900 H 0.68676 0.15699 0.29362 0.0
H1901 H 0.65199 0.15307 0.34136 0.0
H1902 H 0.6182 0.12746 0.29563 0.0
H1903 H 0.59999 0.13331 0.27146 0.0
H1904 H 0.54439 0.16991 0.29207 0.0
H1905 H 0.56247 0.16457 0.31635 0.0
C1906 C 0.58593 0.07433 0.37168 0.0
C1907 C 0.5633 0.07958 0.37567 0.0
C1908 C 0.59822 0.08954 0.36259 0.0
C1909 C 0.58822 0.11041 0.35741 0.0
C1910 C 0.56575 0.11587 0.36154 0.0
C1911 C 0.55343 0.10065 0.37062 0.0
C1912 C 0.60077 0.12578 0.347 0.0
C1913 C 0.5908 0.13052 0.33329 0.0
C1914 C 0.623 0.13427 0.35005 0.0
C1915 C 0.63384 0.13116 0.36468 0.0
C1916 C 0.62248 0.13838 0.37754 0.0
C1917 C 0.63272 0.13534 0.39129 0.0
C1918 C 0.6544 0.12523 0.39233 0.0
C1919 C 0.6659 0.11818 0.3796 0.0
C1920 C 0.65572 0.12116 0.36582 0.0
C1921 C 0.6422 0.19547 0.29641 0.0
C1922 C 0.66251 0.18558 0.29095 0.0
C1923 C 0.63034 0.18454 0.30786 0.0
C1924 C 0.6386 0.16358 0.31405 0.0
C1925 C 0.65929 0.15415 0.309 0.0
C1926 C 0.67109 0.16498 0.29751 0.0
C1927 C 0.62515 0.15078 0.32527 0.0
C1928 C 0.63498 0.14648 0.33907 0.0
C1929 C 0.60275 0.14274 0.32235 0.0
C1930 C 0.59182 0.14585 0.30777 0.0
C1931 C 0.60219 0.13693 0.29499 0.0
C1932 C 0.59187 0.14012 0.28127 0.0
C1933 C 0.57108 0.15204 0.28022 0.0
C1934 C 0.56052 0.16073 0.29289 0.0
C1935 C 0.57079 0.15761 0.30663 0.0
H1936 H 0.56311 0.15449 0.2696 0.0
H1937 H 0.6623 0.1229 0.40298 0.0
H1938 H 0.92361 0.08708 0.63052 0.0
H1939 H 0.90238 0.10854 0.61161 0.0
H1940 H 0.91511 0.05239 0.58072 0.0
H1941 H 0.93682 0.03114 0.59943 0.0
H1942 H 0.9227 0.09534 0.56857 0.0
H1943 H 0.86351 0.0579 0.59694 0.0
H1944 H 0.8425 0.04804 0.61961 0.0
H1945 H 0.8281 0.12127 0.62683 0.0
H1946 H 0.8493 0.1316 0.6043 0.0
H1947 H 0.84361 0.12456 0.51321 0.0
H1948 H 0.86426 0.10463 0.53287 0.0
H1949 H 0.84679 0.1607 0.56286 0.0
H1950 H 0.82554 0.18053 0.5433 0.0
H1951 H 0.842 0.11913 0.57588 0.0
H1952 H 0.90031 0.15692 0.54763 0.0
H1953 H 0.92119 0.16742 0.52503 0.0
H1954 H 0.9375 0.09464 0.51776 0.0
H1955 H 0.91646 0.08366 0.54024 0.0
C1956 C 0.92198 0.07938 0.61967 0.0
C1957 C 0.93181 0.05737 0.61648 0.0
C1958 C 0.90971 0.09157 0.60892 0.0
C1959 C 0.907 0.08195 0.5948 0.0
C1960 C 0.91694 0.06009 0.59156 0.0
C1961 C 0.92916 0.04787 0.6023 0.0
C1962 C 0.89396 0.0947 0.58334 0.0
C1963 C 0.90497 0.10031 0.57009 0.0
C1964 C 0.87103 0.10174 0.5855 0.0
C1965 C 0.8582 0.09554 0.59902 0.0
C1966 C 0.85602 0.07192 0.60343 0.0
C1967 C 0.84405 0.06624 0.61624 0.0
C1968 C 0.83403 0.08402 0.62468 0.0
C1969 C 0.8359 0.10751 0.62029 0.0
C1970 C 0.84788 0.11329 0.6075 0.0
C1971 C 0.84409 0.13266 0.52399 0.0
C1972 C 0.83298 0.15418 0.52668 0.0
C1973 C 0.85601 0.12128 0.5352 0.0
C1974 C 0.85737 0.13135 0.54928 0.0
C1975 C 0.846 0.15265 0.55207 0.0
C1976 C 0.83392 0.16398 0.54087 0.0
C1977 C 0.87068 0.11963 0.56106 0.0
C1978 C 0.85974 0.11424 0.57437 0.0
C1979 C 0.89373 0.1129 0.55899 0.0
C1980 C 0.90667 0.11945 0.54557 0.0
C1981 C 0.90824 0.14314 0.54117 0.0
C1982 C 0.92012 0.14918 0.52839 0.0
C1983 C 0.93066 0.13171 0.51996 0.0
C1984 C 0.92936 0.10816 0.52431 0.0
C1985 C 0.91748 0.10201 0.53708 0.0
H1986 H 0.93985 0.13643 0.51008 0.0
H1987 H 0.82476 0.07958 0.63459 0.0
H1988 H 0.93578 0.39748 0.88081 0.0
H1989 H 0.91388 0.37183 0.86478 0.0
H1990 H 0.86394 0.42674 0.85854 0.0
H1991 H 0.88463 0.45186 0.87571 0.0
H1992 H 0.84289 0.38717 0.85859 0.0
H1993 H 0.90875 0.41587 0.8334 0.0
H1994 H 0.94963 0.42394 0.8294 0.0
H1995 H 0.96391 0.34979 0.82994 0.0
H1996 H 0.92313 0.34129 0.83414 0.0
H1997 H 0.80529 0.34896 0.78725 0.0
H1998 H 0.8224 0.3709 0.80764 0.0
H1999 H 0.85947 0.30886 0.82089 0.0
H2000 H 0.84222 0.28666 0.80064 0.0
H2001 H 0.88629 0.35104 0.81751 0.0
H2002 H 0.81703 0.32426 0.841 0.0
H2003 H 0.7753 0.31935 0.84262 0.0
H2004 H 0.76658 0.39441 0.84252 0.0
H2005 H 0.80827 0.39978 0.84067 0.0
C2006 C 0.91982 0.40401 0.87642 0.0
C2007 C 0.91222 0.42701 0.8795 0.0
C2008 C 0.90746 0.38936 0.86701 0.0
C2009 C 0.8876 0.39756 0.86007 0.0
C2010 C 0.87936 0.42006 0.86362 0.0
C2011 C 0.89144 0.43457 0.87331 0.0
C2012 C 0.87607 0.38313 0.84862 0.0
C2013 C 0.85239 0.37947 0.84955 0.0
C2014 C 0.88839 0.37293 0.8368 0.0
C2015 C 0.91292 0.37796 0.83423 0.0
C2016 C 0.92063 0.40129 0.83276 0.0
C2017 C 0.94378 0.40594 0.83045 0.0
C2018 C 0.95937 0.38739 0.82946 0.0
C2019 C 0.95182 0.36414 0.83073 0.0
C2020 C 0.92869 0.3594 0.83307 0.0
C2021 C 0.81699 0.33995 0.79455 0.0
C2022 C 0.82247 0.3161 0.79234 0.0
C2023 C 0.82665 0.35248 0.80622 0.0
C2024 C 0.84208 0.34143 0.81577 0.0
C2025 C 0.84753 0.31763 0.81363 0.0
C2026 C 0.83763 0.30498 0.80209 0.0
C2027 C 0.85332 0.35502 0.8276 0.0
C2028 C 0.87692 0.35862 0.82665 0.0
C2029 C 0.84082 0.36562 0.83914 0.0
C2030 C 0.81578 0.36241 0.84057 0.0
C2031 C 0.80622 0.33972 0.84122 0.0
C2032 C 0.78256 0.33686 0.8422 0.0
C2033 C 0.76829 0.35655 0.84263 0.0
C2034 C 0.77766 0.37916 0.84217 0.0
C2035 C 0.8013 0.38213 0.84117 0.0
H2036 H 0.74998 0.35429 0.84336 0.0
H2037 H 0.97729 0.39103 0.82766 0.0
H2038 H 0.54155 0.39923 0.12794 0.0
H2039 H 0.56586 0.38046 0.1095 0.0
H2040 H 0.60736 0.44311 0.10725 0.0
H2041 H 0.58265 0.46228 0.12531 0.0
H2042 H 0.59763 0.42807 0.08061 0.0
H2043 H 0.62712 0.39408 0.12422 0.0
H2044 H 0.62594 0.37383 0.14817 0.0
H2045 H 0.59814 0.31216 0.12754 0.0
H2046 H 0.59881 0.33218 0.10347 0.0
H2047 H 0.68661 0.33761 0.05017 0.0
H2048 H 0.66859 0.35753 0.07103 0.0
H2049 H 0.60781 0.36856 0.04515 0.0
H2050 H 0.62586 0.34926 0.02419 0.0
H2051 H 0.63208 0.34894 0.08716 0.0
H2052 H 0.58368 0.42018 0.05347 0.0
H2053 H 0.58851 0.4426 0.03046 0.0
H2054 H 0.66118 0.43379 0.03314 0.0
H2055 H 0.65681 0.41161 0.05627 0.0
C2056 C 0.5558 0.40904 0.12347 0.0
C2057 C 0.56015 0.43226 0.12806 0.0
C2058 C 0.56983 0.39821 0.11306 0.0
C2059 C 0.58855 0.41032 0.10711 0.0
C2060 C 0.59304 0.43343 0.11174 0.0
C2061 C 0.57901 0.44428 0.12214 0.0
C2062 C 0.60285 0.39919 0.09559 0.0
C2063 C 0.60522 0.4108 0.08206 0.0
C2064 C 0.61321 0.37692 0.09761 0.0
C2065 C 0.61285 0.36472 0.11205 0.0
C2066 C 0.62058 0.37627 0.1248 0.0
C2067 C 0.62003 0.36482 0.1384 0.0
C2068 C 0.61195 0.34174 0.13938 0.0
C2069 C 0.6044 0.33005 0.12676 0.0
C2070 C 0.60488 0.34143 0.11313 0.0
C2071 C 0.66941 0.3443 0.04892 0.0
C2072 C 0.65772 0.34203 0.03549 0.0
C2073 C 0.65912 0.3556 0.06087 0.0
C2074 C 0.63698 0.36482 0.05959 0.0
C2075 C 0.62509 0.36202 0.0463 0.0
C2076 C 0.63541 0.35091 0.03433 0.0
C2077 C 0.62628 0.37756 0.07206 0.0
C2078 C 0.62458 0.36626 0.08575 0.0
C2079 C 0.61706 0.40043 0.07034 0.0
C2080 C 0.61988 0.41405 0.05654 0.0
C2081 C 0.6007 0.42312 0.04919 0.0
C2082 C 0.60335 0.43577 0.03611 0.0
C2083 C 0.62513 0.43956 0.03032 0.0
C2084 C 0.64431 0.43077 0.03762 0.0
C2085 C 0.64175 0.41814 0.0507 0.0
H2086 H 0.62715 0.44933 0.02019 0.0
H2087 H 0.6116 0.33291 0.14991 0.0
loop_
_geom_bond_atom_site_label_1
_geom_bond_atom_site_label_2
_geom_bond_distance
_geom_bond_site_symmetry_2
_ccdc_geom_bond_type
H0 C19 0.949 . S
H1 C20 0.950 . S
H2 C22 0.950 . S
H3 C23 0.950 . S
H4 C25 0.950 . S
H5 C28 0.950 . S
H6 C29 0.950 . S
H7 C31 0.951 . S
H8 C32 0.949 1_565 S
H9 C34 0.949 . S
H10 C35 0.950 . S
H11 C37 0.950 . S
H12 C38 0.950 . S
H13 C40 0.950 . S
H14 C43 0.950 . S
H15 C44 0.950 . S
H16 C46 0.951 . S
H17 C47 0.949 1_545 S
C18 C19 1.376 . S
C18 C23 1.386 . S
C18 C24 1.483 . S
C19 H0 0.949 . S
C19 C18 1.376 . S
C19 C20 1.397 . S
C20 H1 0.950 . S
C20 C19 1.397 . S
C20 C21 1.391 . S
C21 C20 1.391 . S
C21 C22 1.405 . S
C22 H2 0.950 . S
C22 C21 1.405 . S
C22 C23 1.367 . S
C23 H3 0.950 . S
C23 C18 1.386 . S
C23 C22 1.367 . S
C24 C18 1.483 . S
C24 C25 1.382 1_655 S
C24 C26 1.403 . S
C25 H4 0.950 . S
C25 C24 1.382 1_455 S
C25 C41 1.411 1_545 S
C26 C24 1.403 . S
C26 C27 1.489 . S
C26 C40 1.411 1_545 S
C27 C26 1.489 . S
C27 C28 1.383 . S
C27 C32 1.382 . S
C28 H5 0.950 . S
C28 C27 1.383 . S
C28 C29 1.395 . S
C29 H6 0.950 . S
C29 C28 1.395 . S
C29 C30 1.288 . S
C30 C29 1.288 . S
C30 C31 1.392 . S
C31 H7 0.951 . S
C31 C30 1.392 . S
C31 C32 1.392 . S
C32 H8 0.949 1_545 S
C32 C27 1.382 . S
C32 C31 1.392 . S
C33 C34 1.376 . S
C33 C38 1.386 . S
C33 C39 1.483 . S
C34 H9 0.949 . S
C34 C33 1.376 . S
C34 C35 1.397 . S
C35 H10 0.950 . S
C35 C34 1.397 . S
C35 C36 1.391 . S
C36 C35 1.391 . S
C36 C37 1.405 . S
C37 H11 0.950 . S
C37 C36 1.405 . S
C37 C38 1.367 . S
C38 H12 0.950 . S
C38 C33 1.386 . S
C38 C37 1.367 . S
C39 C33 1.483 . S
C39 C40 1.382 1_455 S
C39 C41 1.403 . S
C40 H13 0.950 . S
C40 C26 1.411 1_565 S
C40 C39 1.382 1_655 S
C41 C25 1.411 1_565 S
C41 C39 1.403 . S
C41 C42 1.489 . S
C42 C41 1.489 . S
C42 C43 1.383 . S
C42 C47 1.382 . S
C43 H14 0.950 . S
C43 C42 1.383 . S
C43 C44 1.395 . S
C44 H15 0.950 . S
C44 C43 1.395 . S
C44 C45 1.288 . S
C45 C44 1.288 . S
C45 C46 1.392 . S
C46 H16 0.951 . S
C46 C45 1.392 . S
C46 C47 1.392 . S
C47 H17 0.949 1_565 S
C47 C42 1.382 . S
C47 C46 1.392 . S
H48 C67 0.949 1_455 S
H49 C68 0.950 . S
H50 C70 0.950 . S
H51 C71 0.950 . S
H52 C73 0.950 . S
H53 C76 0.950 . S
H54 C77 0.950 . S
H55 C79 0.951 . S
H56 C80 0.949 . S
H57 C82 0.949 1_655 S
H58 C83 0.950 . S
H59 C85 0.950 . S
H60 C86 0.950 . S
H61 C88 0.950 . S
H62 C91 0.950 . S
H63 C92 0.950 . S
H64 C94 0.951 . S
H65 C95 0.949 . S
C66 C67 1.376 . S
C66 C71 1.386 . S
C66 C72 1.483 . S
C67 H48 0.949 1_655 S
C67 C66 1.376 . S
C67 C68 1.397 . S
C68 H49 0.950 . S
C68 C67 1.397 . S
C68 C69 1.391 . S
C69 C68 1.391 . S
C69 C70 1.405 . S
C70 H50 0.950 . S
C70 C69 1.405 . S
C70 C71 1.367 . S
C71 H51 0.950 . S
C71 C66 1.386 . S
C71 C70 1.367 . S
C72 C66 1.483 . S
C72 C73 1.382 1_655 S
C72 C74 1.403 . S
C73 H52 0.950 . S
C73 C72 1.382 1_455 S
C73 C89 1.411 . S
C74 C72 1.403 . S
C74 C75 1.489 . S
C74 C88 1.411 . S
C75 C74 1.489 . S
C75 C76 1.383 . S
C75 C80 1.382 . S
C76 H53 0.950 . S
C76 C75 1.383 . S
C76 C77 1.395 . S
C77 H54 0.950 . S
C77 C76 1.395 . S
C77 C78 1.288 . S
C78 C77 1.288 . S
C78 C79 1.392 . S
C79 H55 0.951 . S
C79 C78 1.392 . S
C79 C80 1.392 . S
C80 H56 0.949 . S
C80 C75 1.382 . S
C80 C79 1.392 . S
C81 C82 1.376 . S
C81 C86 1.386 . S
C81 C87 1.483 . S
C82 H57 0.949 1_455 S
C82 C81 1.376 . S
C82 C83 1.397 . S
C83 H58 0.950 . S
C83 C82 1.397 . S
C83 C84 1.391 . S
C84 C83 1.391 . S
C84 C85 1.405 . S
C85 H59 0.950 . S
C85 C84 1.405 . S
C85 C86 1.367 . S
C86 H60 0.950 . S
C86 C81 1.386 . S
C86 C85 1.367 . S
C87 C81 1.483 . S
C87 C88 1.382 1_455 S
C87 C89 1.403 . S
C88 H61 0.950 . S
C88 C74 1.411 . S
C88 C87 1.382 1_655 S
C89 C73 1.411 . S
C89 C87 1.403 . S
C89 C90 1.489 . S
C90 C89 1.489 . S
C90 C91 1.383 . S
C90 C95 1.382 . S
C91 H62 0.950 . S
C91 C90 1.383 . S
C91 C92 1.395 . S
C92 H63 0.950 . S
C92 C91 1.395 . S
C92 C93 1.288 . S
C93 C92 1.288 . S
C93 C94 1.392 . S
C94 H64 0.951 . S
C94 C93 1.392 . S
C94 C95 1.392 . S
C95 H65 0.949 . S
C95 C90 1.382 . S
C95 C94 1.392 . S
H96 C115 0.949 . S
H97 C116 0.950 . S
H98 C118 0.950 . S
H99 C119 0.950 . S
H100 C121 0.950 . S
H101 C124 0.950 . S
H102 C125 0.950 . S
H103 C127 0.951 . S
H104 C128 0.949 . S
H105 C130 0.949 . S
H106 C131 0.950 . S
H107 C133 0.950 . S
H108 C134 0.950 . S
H109 C136 0.950 . S
H110 C139 0.950 . S
H111 C140 0.950 . S
H112 C142 0.951 . S
H113 C143 0.949 . S
C114 C115 1.376 . S
C114 C119 1.386 . S
C114 C120 1.483 . S
C115 H96 0.949 . S
C115 C114 1.376 . S
C115 C116 1.397 . S
C116 H97 0.950 . S
C116 C115 1.397 . S
C116 C117 1.391 . S
C117 C116 1.391 . S
C117 C118 1.405 . S
C118 H98 0.950 . S
C118 C117 1.405 . S
C118 C119 1.367 . S
C119 H99 0.950 . S
C119 C114 1.386 . S
C119 C118 1.367 . S
C120 C114 1.483 . S
C120 C121 1.382 . S
C120 C122 1.403 . S
C121 H100 0.950 . S
C121 C120 1.382 . S
C121 C137 1.411 . S
C122 C120 1.403 . S
C122 C123 1.489 . S
C122 C136 1.411 . S
C123 C122 1.489 . S
C123 C124 1.383 . S
C123 C128 1.382 . S
C124 H101 0.950 . S
C124 C123 1.383 . S
C124 C125 1.395 . S
C125 H102 0.950 . S
C125 C124 1.395 . S
C125 C126 1.288 . S
C126 C125 1.288 . S
C126 C127 1.392 . S
C127 H103 0.951 . S
C127 C126 1.392 . S
C127 C128 1.392 . S
C128 H104 0.949 . S
C128 C123 1.382 . S
C128 C127 1.392 . S
C129 C130 1.376 . S
C129 C134 1.386 . S
C129 C135 1.483 . S
C130 H105 0.949 . S
C130 C129 1.376 . S
C130 C131 1.397 . S
C131 H106 0.950 . S
C131 C130 1.397 . S
C131 C132 1.391 . S
C132 C131 1.391 . S
C132 C133 1.405 . S
C133 H107 0.950 . S
C133 C132 1.405 . S
C133 C134 1.367 . S
C134 H108 0.950 . S
C134 C129 1.386 . S
C134 C133 1.367 . S
C135 C129 1.483 . S
C135 C136 1.382 . S
C135 C137 1.403 . S
C136 H109 0.950 . S
C136 C122 1.411 . S
C136 C135 1.382 . S
C137 C121 1.411 . S
C137 C135 1.403 . S
C137 C138 1.489 . S
C138 C137 1.489 . S
C138 C139 1.383 . S
C138 C143 1.382 . S
C139 H110 0.950 . S
C139 C138 1.383 . S
C139 C140 1.395 . S
C140 H111 0.950 . S
C140 C139 1.395 . S
C140 C141 1.288 . S
C141 C140 1.288 . S
C141 C142 1.392 . S
C142 H112 0.951 . S
C142 C141 1.392 . S
C142 C143 1.392 . S
C143 H113 0.949 . S
C143 C138 1.382 . S
C143 C142 1.392 . S
H144 C163 0.949 . S
H145 C164 0.950 . S
H146 C166 0.950 . S
H147 C167 0.950 . S
H148 C169 0.950 . S
H149 C172 0.950 . S
H150 C173 0.950 . S
H151 C175 0.951 . S
H152 C176 0.949 . S
H153 C178 0.949 . S
H154 C179 0.950 . S
H155 C181 0.950 . S
H156 C182 0.950 . S
H157 C184 0.950 . S
H158 C187 0.950 . S
H159 C188 0.950 . S
H160 C190 0.951 . S
H161 C191 0.949 . S
C162 C163 1.376 . S
C162 C167 1.386 . S
C162 C168 1.483 . S
C163 H144 0.949 . S
C163 C162 1.376 . S
C163 C164 1.397 . S
C164 H145 0.950 . S
C164 C163 1.397 . S
C164 C165 1.391 . S
C165 C164 1.391 . S
C165 C166 1.405 . S
C166 H146 0.950 . S
C166 C165 1.405 . S
C166 C167 1.367 . S
C167 H147 0.950 . S
C167 C162 1.386 . S
C167 C166 1.367 . S
C168 C162 1.483 . S
C168 C169 1.382 . S
C168 C170 1.403 . S
C169 H148 0.950 . S
C169 C168 1.382 . S
C169 C185 1.411 1_565 S
C170 C168 1.403 . S
C170 C171 1.489 . S
C170 C184 1.411 1_565 S
C171 C170 1.489 . S
C171 C172 1.383 . S
C171 C176 1.382 . S
C172 H149 0.950 . S
C172 C171 1.383 . S
C172 C173 1.395 . S
C173 H150 0.950 . S
C173 C172 1.395 . S
C173 C174 1.288 . S
C174 C173 1.288 . S
C174 C175 1.392 . S
C175 H151 0.951 . S
C175 C174 1.392 . S
C175 C176 1.392 . S
C176 H152 0.949 . S
C176 C171 1.382 . S
C176 C175 1.392 . S
C177 C178 1.376 . S
C177 C182 1.386 . S
C177 C183 1.483 . S
C178 H153 0.949 . S
C178 C177 1.376 . S
C178 C179 1.397 . S
C179 H154 0.950 . S
C179 C178 1.397 . S
C179 C180 1.391 . S
C180 C179 1.391 . S
C180 C181 1.405 . S
C181 H155 0.950 . S
C181 C180 1.405 . S
C181 C182 1.367 . S
C182 H156 0.950 . S
C182 C177 1.386 . S
C182 C181 1.367 . S
C183 C177 1.483 . S
C183 C184 1.382 . S
C183 C185 1.403 . S
C184 H157 0.950 . S
C184 C170 1.411 1_545 S
C184 C183 1.382 . S
C185 C169 1.411 1_545 S
C185 C183 1.403 . S
C185 C186 1.489 . S
C186 C185 1.489 . S
C186 C187 1.383 . S
C186 C191 1.382 . S
C187 H158 0.950 . S
C187 C186 1.383 . S
C187 C188 1.395 . S
C188 H159 0.950 . S
C188 C187 1.395 . S
C188 C189 1.288 . S
C189 C188 1.288 . S
C189 C190 1.392 . S
C190 H160 0.951 . S
C190 C189 1.392 . S
C190 C191 1.392 . S
C191 H161 0.949 . S
C191 C186 1.382 . S
C191 C190 1.392 . S
H192 C211 0.949 . S
H193 C212 0.950 . S
H194 C214 0.950 . S
H195 C215 0.950 . S
H196 C217 0.950 . S
H197 C220 0.950 . S
H198 C221 0.950 . S
H199 C223 0.951 . S
H200 C224 0.949 . S
H201 C226 0.949 . S
H202 C227 0.950 . S
H203 C229 0.950 . S
H204 C230 0.950 . S
H205 C232 0.950 . S
H206 C235 0.950 . S
H207 C236 0.950 . S
H208 C238 0.951 . S
H209 C239 0.949 . S
C210 C211 1.376 . S
C210 C215 1.386 . S
C210 C216 1.483 . S
C211 H192 0.949 . S
C211 C210 1.376 . S
C211 C212 1.397 . S
C212 H193 0.950 . S
C212 C211 1.397 . S
C212 C213 1.391 . S
C213 C212 1.391 . S
C213 C214 1.405 . S
C214 H194 0.950 . S
C214 C213 1.405 . S
C214 C215 1.367 . S
C215 H195 0.950 . S
C215 C210 1.386 . S
C215 C214 1.367 . S
C216 C210 1.483 . S
C216 C217 1.382 1_455 S
C216 C218 1.403 . S
C217 H196 0.950 . S
C217 C216 1.382 1_655 S
C217 C233 1.411 . S
C218 C216 1.403 . S
C218 C219 1.489 . S
C218 C232 1.411 . S
C219 C218 1.489 . S
C219 C220 1.383 . S
C219 C224 1.382 . S
C220 H197 0.950 . S
C220 C219 1.383 . S
C220 C221 1.395 . S
C221 H198 0.950 . S
C221 C220 1.395 . S
C221 C222 1.288 . S
C222 C221 1.288 . S
C222 C223 1.392 . S
C223 H199 0.951 . S
C223 C222 1.392 . S
C223 C224 1.392 . S
C224 H200 0.949 . S
C224 C219 1.382 . S
C224 C223 1.392 . S
C225 C226 1.376 . S
C225 C230 1.386 . S
C225 C231 1.483 . S
C226 H201 0.949 . S
C226 C225 1.376 . S
C226 C227 1.397 . S
C227 H202 0.950 . S
C227 C226 1.397 . S
C227 C228 1.391 . S
C228 C227 1.391 . S
C228 C229 1.405 . S
C229 H203 0.950 . S
C229 C228 1.405 . S
C229 C230 1.367 . S
C230 H204 0.950 . S
C230 C225 1.386 . S
C230 C229 1.367 . S
C231 C225 1.483 . S
C231 C232 1.382 1_655 S
C231 C233 1.403 . S
C232 H205 0.950 . S
C232 C218 1.411 . S
C232 C231 1.382 1_455 S
C233 C217 1.411 . S
C233 C231 1.403 . S
C233 C234 1.489 . S
C234 C233 1.489 . S
C234 C235 1.383 . S
C234 C239 1.382 . S
C235 H206 0.950 . S
C235 C234 1.383 . S
C235 C236 1.395 . S
C236 H207 0.950 . S
C236 C235 1.395 . S
C236 C237 1.288 . S
C237 C236 1.288 . S
C237 C238 1.392 . S
C238 H208 0.951 . S
C238 C237 1.392 . S
C238 C239 1.392 . S
C239 H209 0.949 . S
C239 C234 1.382 . S
C239 C238 1.392 . S
H240 C259 0.949 . S
H241 C260 0.950 . S
H242 C262 0.950 . S
H243 C263 0.950 . S
H244 C265 0.950 . S
H245 C268 0.950 . S
H246 C269 0.950 . S
H247 C271 0.951 . S
H248 C272 0.949 . S
H249 C274 0.949 . S
H250 C275 0.950 . S
H251 C277 0.950 . S
H252 C278 0.950 . S
H253 C280 0.950 . S
H254 C283 0.950 . S
H255 C284 0.950 . S
H256 C286 0.951 . S
H257 C287 0.949 . S
C258 C259 1.376 . S
C258 C263 1.386 . S
C258 C264 1.483 . S
C259 H240 0.949 . S
C259 C258 1.376 . S
C259 C260 1.397 . S
C260 H241 0.950 . S
C260 C259 1.397 . S
C260 C261 1.391 . S
C261 C260 1.391 . S
C261 C262 1.405 . S
C262 H242 0.950 . S
C262 C261 1.405 . S
C262 C263 1.367 . S
C263 H243 0.950 . S
C263 C258 1.386 . S
C263 C262 1.367 . S
C264 C258 1.483 . S
C264 C265 1.382 . S
C264 C266 1.403 . S
C265 H244 0.950 . S
C265 C264 1.382 . S
C265 C281 1.411 . S
C266 C264 1.403 . S
C266 C267 1.489 . S
C266 C280 1.411 . S
C267 C266 1.489 . S
C267 C268 1.383 . S
C267 C272 1.382 . S
C268 H245 0.950 . S
C268 C267 1.383 . S
C268 C269 1.395 . S
C269 H246 0.950 . S
C269 C268 1.395 . S
C269 C270 1.288 . S
C270 C269 1.288 . S
C270 C271 1.392 . S
C271 H247 0.951 . S
C271 C270 1.392 . S
C271 C272 1.392 . S
C272 H248 0.949 . S
C272 C267 1.382 . S
C272 C271 1.392 . S
C273 C274 1.376 . S
C273 C278 1.386 . S
C273 C279 1.483 . S
C274 H249 0.949 . S
C274 C273 1.376 . S
C274 C275 1.397 . S
C275 H250 0.950 . S
C275 C274 1.397 . S
C275 C276 1.391 . S
C276 C275 1.391 . S
C276 C277 1.405 . S
C277 H251 0.950 . S
C277 C276 1.405 . S
C277 C278 1.367 . S
C278 H252 0.950 . S
C278 C273 1.386 . S
C278 C277 1.367 . S
C279 C273 1.483 . S
C279 C280 1.382 . S
C279 C281 1.403 . S
C280 H253 0.950 . S
C280 C266 1.411 . S
C280 C279 1.382 . S
C281 C265 1.411 . S
C281 C279 1.403 . S
C281 C282 1.489 . S
C282 C281 1.489 . S
C282 C283 1.383 . S
C282 C287 1.382 . S
C283 H254 0.950 . S
C283 C282 1.383 . S
C283 C284 1.395 . S
C284 H255 0.950 . S
C284 C283 1.395 . S
C284 C285 1.288 . S
C285 C284 1.288 . S
C285 C286 1.392 . S
C286 H256 0.951 . S
C286 C285 1.392 . S
C286 C287 1.392 . S
C287 H257 0.949 . S
C287 C282 1.382 . S
C287 C286 1.392 . S
H288 C307 0.949 . S
H289 C308 0.950 . S
H290 C310 0.950 . S
H291 C311 0.950 . S
H292 C313 0.950 . S
H293 C316 0.950 . S
H294 C317 0.950 . S
H295 C319 0.951 . S
H296 C320 0.949 1_545 S
H297 C322 0.949 . S
H298 C323 0.950 . S
H299 C325 0.950 . S
H300 C326 0.950 . S
H301 C328 0.950 . S
H302 C331 0.950 . S
H303 C332 0.950 . S
H304 C334 0.951 . S
H305 C335 0.949 1_565 S
C306 C307 1.376 . S
C306 C311 1.386 . S
C306 C312 1.483 . S
C307 H288 0.949 . S
C307 C306 1.376 . S
C307 C308 1.397 . S
C308 H289 0.950 . S
C308 C307 1.397 . S
C308 C309 1.391 . S
C309 C308 1.391 . S
C309 C310 1.405 . S
C310 H290 0.950 . S
C310 C309 1.405 . S
C310 C311 1.367 . S
C311 H291 0.950 . S
C311 C306 1.386 . S
C311 C310 1.367 . S
C312 C306 1.483 . S
C312 C313 1.382 . S
C312 C314 1.403 . S
C313 H292 0.950 . S
C313 C312 1.382 . S
C313 C329 1.411 1_565 S
C314 C312 1.403 . S
C314 C315 1.489 . S
C314 C328 1.411 1_565 S
C315 C314 1.489 . S
C315 C316 1.383 . S
C315 C320 1.382 . S
C316 H293 0.950 . S
C316 C315 1.383 . S
C316 C317 1.395 . S
C317 H294 0.950 . S
C317 C316 1.395 . S
C317 C318 1.288 . S
C318 C317 1.288 . S
C318 C319 1.392 . S
C319 H295 0.951 . S
C319 C318 1.392 . S
C319 C320 1.392 . S
C320 H296 0.949 1_565 S
C320 C315 1.382 . S
C320 C319 1.392 . S
C321 C322 1.376 . S
C321 C326 1.386 . S
C321 C327 1.483 . S
C322 H297 0.949 . S
C322 C321 1.376 . S
C322 C323 1.397 . S
C323 H298 0.950 . S
C323 C322 1.397 . S
C323 C324 1.391 . S
C324 C323 1.391 . S
C324 C325 1.405 . S
C325 H299 0.950 . S
C325 C324 1.405 . S
C325 C326 1.367 . S
C326 H300 0.950 . S
C326 C321 1.386 . S
C326 C325 1.367 . S
C327 C321 1.483 . S
C327 C328 1.382 . S
C327 C329 1.403 . S
C328 H301 0.950 . S
C328 C314 1.411 1_545 S
C328 C327 1.382 . S
C329 C313 1.411 1_545 S
C329 C327 1.403 . S
C329 C330 1.489 . S
C330 C329 1.489 . S
C330 C331 1.383 . S
C330 C335 1.382 . S
C331 H302 0.950 . S
C331 C330 1.383 . S
C331 C332 1.395 . S
C332 H303 0.950 . S
C332 C331 1.395 . S
C332 C333 1.288 . S
C333 C332 1.288 . S
C333 C334 1.392 . S
C334 H304 0.951 . S
C334 C333 1.392 . S
C334 C335 1.392 . S
C335 H305 0.949 1_545 S
C335 C330 1.382 . S
C335 C334 1.392 . S
H336 C355 0.949 1_455 S
H337 C356 0.950 . S
H338 C358 0.950 . S
H339 C359 0.950 . S
H340 C361 0.950 . S
H341 C364 0.950 . S
H342 C365 0.950 . S
H343 C367 0.951 . S
H344 C368 0.949 . S
H345 C370 0.949 1_655 S
H346 C371 0.950 . S
H347 C373 0.950 . S
H348 C374 0.950 . S
H349 C376 0.950 . S
H350 C379 0.950 . S
H351 C380 0.950 . S
H352 C382 0.951 . S
H353 C383 0.949 . S
C354 C355 1.376 . S
C354 C359 1.386 . S
C354 C360 1.483 . S
C355 H336 0.949 1_655 S
C355 C354 1.376 . S
C355 C356 1.397 . S
C356 H337 0.950 . S
C356 C355 1.397 . S
C356 C357 1.391 . S
C357 C356 1.391 . S
C357 C358 1.405 . S
C358 H338 0.950 . S
C358 C357 1.405 . S
C358 C359 1.367 . S
C359 H339 0.950 . S
C359 C354 1.386 . S
C359 C358 1.367 . S
C360 C354 1.483 . S
C360 C361 1.382 1_655 S
C360 C362 1.403 . S
C361 H340 0.950 . S
C361 C360 1.382 1_455 S
C361 C377 1.411 1_545 S
C362 C360 1.403 . S
C362 C363 1.489 . S
C362 C376 1.411 1_545 S
C363 C362 1.489 . S
C363 C364 1.383 . S
C363 C368 1.382 . S
C364 H341 0.950 . S
C364 C363 1.383 . S
C364 C365 1.395 . S
C365 H342 0.950 . S
C365 C364 1.395 . S
C365 C366 1.288 . S
C366 C365 1.288 . S
C366 C367 1.392 . S
C367 H343 0.951 . S
C367 C366 1.392 . S
C367 C368 1.392 . S
C368 H344 0.949 . S
C368 C363 1.382 . S
C368 C367 1.392 . S
C369 C370 1.376 . S
C369 C374 1.386 . S
C369 C375 1.483 . S
C370 H345 0.949 1_455 S
C370 C369 1.376 . S
C370 C371 1.397 . S
C371 H346 0.950 . S
C371 C370 1.397 . S
C371 C372 1.391 . S
C372 C371 1.391 . S
C372 C373 1.405 . S
C373 H347 0.950 . S
C373 C372 1.405 . S
C373 C374 1.367 . S
C374 H348 0.950 . S
C374 C369 1.386 . S
C374 C373 1.367 . S
C375 C369 1.483 . S
C375 C376 1.382 1_455 S
C375 C377 1.403 . S
C376 H349 0.950 . S
C376 C362 1.411 1_565 S
C376 C375 1.382 1_655 S
C377 C361 1.411 1_565 S
C377 C375 1.403 . S
C377 C378 1.489 . S
C378 C377 1.489 . S
C378 C379 1.383 . S
C378 C383 1.382 . S
C379 H350 0.950 . S
C379 C378 1.383 . S
C379 C380 1.395 . S
C380 H351 0.950 . S
C380 C379 1.395 . S
C380 C381 1.288 . S
C381 C380 1.288 . S
C381 C382 1.392 . S
C382 H352 0.951 . S
C382 C381 1.392 . S
C382 C383 1.392 . S
C383 H353 0.949 . S
C383 C378 1.382 . S
C383 C382 1.392 . S
C384 O385 1.164 . S
C384 O391 1.184 1_554 S
O385 C384 1.164 . S
O386 Zn387 1.899 . S
O386 C394 1.284 . S
Zn387 O386 1.899 . S
Zn387 O388 2.032 1_554 S
Zn387 O391 2.086 1_554 S
Zn387 O396 1.977 . S
O388 Zn387 2.032 1_556 S
O388 C392 1.278 . S
C389 O390 1.203 . S
C389 O396 1.267 . S
O390 C389 1.203 . S
O391 C384 1.184 1_556 S
O391 Zn387 2.086 1_556 S
C392 O388 1.278 . S
C392 O393 1.211 . S
O393 C392 1.211 . S
C394 O386 1.284 . S
C394 O395 1.273 . S
O395 C394 1.273 . S
O396 Zn387 1.977 . S
O396 C389 1.267 . S
C397 O398 1.160 . S
C397 O404 1.185 . S
O398 C397 1.160 . S
O399 Zn400 1.899 . S
O399 C407 1.284 . S
Zn400 O399 1.899 . S
Zn400 O401 2.032 . S
Zn400 O404 2.086 . S
Zn400 O409 1.977 . S
O401 Zn400 2.032 . S
O401 C405 1.278 . S
C402 O403 1.203 . S
C402 O409 1.267 . S
O403 C402 1.203 . S
O404 C397 1.185 . S
O404 Zn400 2.086 . S
C405 O401 1.278 . S
C405 O406 1.211 . S
O406 C405 1.211 . S
C407 O399 1.284 . S
C407 O408 1.273 . S
O408 C407 1.273 . S
O409 Zn400 1.977 . S
O409 C402 1.267 . S
C410 O411 1.160 . S
C410 O417 1.185 . S
O411 C410 1.160 . S
O412 Zn413 1.899 . S
O412 C420 1.284 . S
Zn413 O412 1.899 . S
Zn413 O414 2.032 . S
Zn413 O417 2.086 . S
Zn413 O422 1.977 . S
O414 Zn413 2.032 . S
O414 C418 1.278 . S
C415 O416 1.203 . S
C415 O422 1.267 . S
O416 C415 1.203 . S
O417 C410 1.185 . S
O417 Zn413 2.086 . S
C418 O414 1.278 . S
C418 O419 1.211 . S
O419 C418 1.211 . S
C420 O412 1.284 . S
C420 O421 1.273 . S
O421 C420 1.273 . S
O422 Zn413 1.977 . S
O422 C415 1.267 . S
C423 O424 1.160 . S
C423 O430 1.185 . S
O424 C423 1.160 . S
O425 Zn426 1.899 . S
O425 C433 1.284 . S
Zn426 O425 1.899 . S
Zn426 O427 2.032 . S
Zn426 O430 2.086 . S
Zn426 O435 1.977 . S
O427 Zn426 2.032 . S
O427 C431 1.278 . S
C428 O429 1.203 . S
C428 O435 1.267 . S
O429 C428 1.203 . S
O430 C423 1.185 . S
O430 Zn426 2.086 . S
C431 O427 1.278 . S
C431 O432 1.211 . S
O432 C431 1.211 . S
C433 O425 1.284 . S
C433 O434 1.273 . S
O434 C433 1.273 . S
O435 Zn426 1.977 . S
O435 C428 1.267 . S
C436 O437 1.160 . S
C436 O443 1.185 . S
O437 C436 1.160 . S
O438 Zn439 1.899 . S
O438 C446 1.284 . S
Zn439 O438 1.899 . S
Zn439 O440 2.032 . S
Zn439 O443 2.086 . S
Zn439 O448 1.977 . S
O440 Zn439 2.032 . S
O440 C444 1.278 . S
C441 O442 1.203 . S
C441 O448 1.267 . S
O442 C441 1.203 . S
O443 C436 1.185 . S
O443 Zn439 2.086 . S
C444 O440 1.278 . S
C444 O445 1.211 . S
O445 C444 1.211 . S
C446 O438 1.284 . S
C446 O447 1.273 . S
O447 C446 1.273 . S
O448 Zn439 1.977 . S
O448 C441 1.267 . S
C449 O450 1.160 . S
C449 O456 1.185 . S
O450 C449 1.160 . S
O451 Zn452 1.899 . S
O451 C459 1.284 . S
Zn452 O451 1.899 . S
Zn452 O453 2.032 . S
Zn452 O456 2.086 . S
Zn452 O461 1.977 . S
O453 Zn452 2.032 . S
O453 C457 1.278 . S
C454 O455 1.203 . S
C454 O461 1.267 . S
O455 C454 1.203 . S
O456 C449 1.185 . S
O456 Zn452 2.086 . S
C457 O453 1.278 . S
C457 O458 1.211 . S
O458 C457 1.211 . S
C459 O451 1.284 . S
C459 O460 1.273 . S
O460 C459 1.273 . S
O461 Zn452 1.977 . S
O461 C454 1.267 . S
C462 O463 1.164 . S
C462 O469 1.184 1_554 S
O463 C462 1.164 . S
O464 Zn465 1.899 . S
O464 C472 1.284 . S
Zn465 O464 1.899 . S
Zn465 O466 2.032 1_554 S
Zn465 O469 2.086 1_554 S
Zn465 O474 1.977 . S
O466 Zn465 2.032 1_556 S
O466 C470 1.278 . S
C467 O468 1.203 . S
C467 O474 1.267 . S
O468 C467 1.203 . S
O469 C462 1.184 1_556 S
O469 Zn465 2.086 1_556 S
C470 O466 1.278 . S
C470 O471 1.211 . S
O471 C470 1.211 . S
C472 O464 1.284 . S
C472 O473 1.273 . S
O473 C472 1.273 . S
O474 Zn465 1.977 . S
O474 C467 1.267 . S
C475 O476 1.160 . S
C475 O482 1.185 . S
O476 C475 1.160 . S
O477 Zn478 1.899 . S
O477 C485 1.284 . S
Zn478 O477 1.899 . S
Zn478 O479 2.032 . S
Zn478 O482 2.086 . S
Zn478 O487 1.977 . S
O479 Zn478 2.032 . S
O479 C483 1.278 . S
C480 O481 1.203 . S
C480 O487 1.267 . S
O481 C480 1.203 . S
O482 C475 1.185 . S
O482 Zn478 2.086 . S
C483 O479 1.278 . S
C483 O484 1.211 . S
O484 C483 1.211 . S
C485 O477 1.284 . S
C485 O486 1.273 . S
O486 C485 1.273 . S
O487 Zn478 1.977 . S
O487 C480 1.267 . S
H488 C506 0.951 . S
H489 C508 0.951 . S
H490 C510 0.950 . S
H491 C511 0.950 . S
H492 C513 0.950 . S
H493 C516 0.950 . S
H494 C517 0.950 . S
H495 C519 0.950 . S
H496 C520 0.950 . S
H497 C521 0.951 . S
H498 C523 0.951 . S
H499 C525 0.950 . S
H500 C526 0.950 . S
H501 C528 0.950 . S
H502 C531 0.950 . S
H503 C532 0.950 . S
H504 C534 0.950 . S
H505 C535 0.950 . S
C506 H488 0.951 . S
C506 C507 1.366 . S
C506 C508 1.388 . S
C507 C506 1.366 . S
C507 C511 1.385 . S
C508 H489 0.951 . S
C508 C506 1.388 . S
C508 C509 1.366 . S
C509 C508 1.366 . S
C509 C510 1.414 . S
C509 C512 1.499 . S
C510 H490 0.950 . S
C510 C509 1.414 . S
C510 C511 1.374 . S
C511 H491 0.950 . S
C511 C507 1.385 . S
C511 C510 1.374 . S
C512 C509 1.499 . S
C512 C513 1.373 . S
C512 C514 1.389 . S
C513 H492 0.950 . S
C513 C512 1.373 . S
C513 C529 1.377 . S
C514 C512 1.389 . S
C514 C515 1.524 . S
C514 C528 1.377 . S
C515 C514 1.524 . S
C515 C516 1.397 . S
C515 C520 1.363 . S
C516 H493 0.950 . S
C516 C515 1.397 . S
C516 C517 1.334 . S
C517 H494 0.950 . S
C517 C516 1.334 . S
C517 C518 1.287 . S
C518 C517 1.287 . S
C518 C519 1.524 . S
C518 H537 0.913 . S
C519 H495 0.950 . S
C519 C518 1.524 . S
C519 C520 1.415 . S
C520 H496 0.950 . S
C520 C515 1.363 . S
C520 C519 1.415 . S
C521 H497 0.951 . S
C521 C522 1.366 . S
C521 C523 1.388 . S
C522 C521 1.366 . S
C522 C526 1.385 . S
C523 H498 0.951 . S
C523 C521 1.388 . S
C523 C524 1.366 . S
C524 C523 1.366 . S
C524 C525 1.414 . S
C524 C527 1.499 . S
C525 H499 0.950 . S
C525 C524 1.414 . S
C525 C526 1.374 . S
C526 H500 0.950 . S
C526 C522 1.385 . S
C526 C525 1.374 . S
C527 C524 1.499 . S
C527 C528 1.373 . S
C527 C529 1.389 . S
C528 H501 0.950 . S
C528 C514 1.377 . S
C528 C527 1.373 . S
C529 C513 1.377 . S
C529 C527 1.389 . S
C529 C530 1.524 . S
C530 C529 1.524 . S
C530 C531 1.397 . S
C530 C535 1.363 . S
C531 H502 0.950 . S
C531 C530 1.397 . S
C531 C532 1.334 . S
C532 H503 0.950 . S
C532 C531 1.334 . S
C532 C533 1.287 . S
C533 C532 1.287 . S
C533 C534 1.524 . S
C533 H536 0.999 . S
C534 H504 0.950 . S
C534 C533 1.524 . S
C534 C535 1.415 . S
C535 H505 0.950 . S
C535 C530 1.363 . S
C535 C534 1.415 . S
H536 C533 0.999 . S
H537 C518 0.913 . S
H538 C556 0.951 . S
H539 C558 0.951 . S
H540 C560 0.950 . S
H541 C561 0.950 . S
H542 C563 0.950 . S
H543 C566 0.950 . S
H544 C567 0.950 . S
H545 C569 0.950 . S
H546 C570 0.950 . S
H547 C571 0.951 . S
H548 C573 0.951 . S
H549 C575 0.950 . S
H550 C576 0.950 . S
H551 C578 0.950 . S
H552 C581 0.950 . S
H553 C582 0.950 . S
H554 C584 0.950 . S
H555 C585 0.950 . S
C556 H538 0.951 . S
C556 C557 1.366 . S
C556 C558 1.388 . S
C557 C556 1.366 . S
C557 C561 1.385 . S
C558 H539 0.951 . S
C558 C556 1.388 . S
C558 C559 1.366 . S
C559 C558 1.366 . S
C559 C560 1.414 . S
C559 C562 1.499 . S
C560 H540 0.950 . S
C560 C559 1.414 . S
C560 C561 1.374 . S
C561 H541 0.950 . S
C561 C557 1.385 . S
C561 C560 1.374 . S
C562 C559 1.499 . S
C562 C563 1.373 . S
C562 C564 1.389 . S
C563 H542 0.950 . S
C563 C562 1.373 . S
C563 C579 1.377 . S
C564 C562 1.389 . S
C564 C565 1.524 . S
C564 C578 1.377 . S
C565 C564 1.524 . S
C565 C566 1.397 . S
C565 C570 1.363 . S
C566 H543 0.950 . S
C566 C565 1.397 . S
C566 C567 1.334 . S
C567 H544 0.950 . S
C567 C566 1.334 . S
C567 C568 1.287 . S
C568 C567 1.287 . S
C568 C569 1.524 . S
C568 H587 0.913 . S
C569 H545 0.950 . S
C569 C568 1.524 . S
C569 C570 1.415 . S
C570 H546 0.950 . S
C570 C565 1.363 . S
C570 C569 1.415 . S
C571 H547 0.951 . S
C571 C572 1.366 . S
C571 C573 1.388 . S
C572 C571 1.366 . S
C572 C576 1.385 . S
C573 H548 0.951 . S
C573 C571 1.388 . S
C573 C574 1.366 . S
C574 C573 1.366 . S
C574 C575 1.414 . S
C574 C577 1.499 . S
C575 H549 0.950 . S
C575 C574 1.414 . S
C575 C576 1.374 . S
C576 H550 0.950 . S
C576 C572 1.385 . S
C576 C575 1.374 . S
C577 C574 1.499 . S
C577 C578 1.373 . S
C577 C579 1.389 . S
C578 H551 0.950 . S
C578 C564 1.377 . S
C578 C577 1.373 . S
C579 C563 1.377 . S
C579 C577 1.389 . S
C579 C580 1.524 . S
C580 C579 1.524 . S
C580 C581 1.397 . S
C580 C585 1.363 . S
C581 H552 0.950 . S
C581 C580 1.397 . S
C581 C582 1.334 . S
C582 H553 0.950 . S
C582 C581 1.334 . S
C582 C583 1.287 . S
C583 C582 1.287 . S
C583 C584 1.524 . S
C583 H586 0.999 . S
C584 H554 0.950 . S
C584 C583 1.524 . S
C584 C585 1.415 . S
C585 H555 0.950 . S
C585 C580 1.363 . S
C585 C584 1.415 . S
H586 C583 0.999 . S
H587 C568 0.913 . S
H588 C606 0.951 . S
H589 C608 0.951 . S
H590 C610 0.950 . S
H591 C611 0.950 . S
H592 C613 0.950 . S
H593 C616 0.950 . S
H594 C617 0.950 . S
H595 C619 0.950 . S
H596 C620 0.950 . S
H597 C621 0.951 . S
H598 C623 0.951 . S
H599 C625 0.950 . S
H600 C626 0.950 . S
H601 C628 0.950 . S
H602 C631 0.950 . S
H603 C632 0.950 . S
H604 C634 0.950 . S
H605 C635 0.950 . S
C606 H588 0.951 . S
C606 C607 1.366 . S
C606 C608 1.388 . S
C607 C606 1.366 . S
C607 C611 1.385 . S
C608 H589 0.951 . S
C608 C606 1.388 . S
C608 C609 1.366 . S
C609 C608 1.366 . S
C609 C610 1.414 . S
C609 C612 1.499 . S
C610 H590 0.950 . S
C610 C609 1.414 . S
C610 C611 1.374 . S
C611 H591 0.950 . S
C611 C607 1.385 . S
C611 C610 1.374 . S
C612 C609 1.499 . S
C612 C613 1.373 . S
C612 C614 1.389 . S
C613 H592 0.950 . S
C613 C612 1.373 . S
C613 C629 1.377 . S
C614 C612 1.389 . S
C614 C615 1.524 . S
C614 C628 1.377 . S
C615 C614 1.524 . S
C615 C616 1.397 . S
C615 C620 1.363 . S
C616 H593 0.950 . S
C616 C615 1.397 . S
C616 C617 1.334 . S
C617 H594 0.950 . S
C617 C616 1.334 . S
C617 C618 1.287 . S
C618 C617 1.287 . S
C618 C619 1.524 . S
C618 H637 0.913 . S
C619 H595 0.950 . S
C619 C618 1.524 . S
C619 C620 1.415 . S
C620 H596 0.950 . S
C620 C615 1.363 . S
C620 C619 1.415 . S
C621 H597 0.951 . S
C621 C622 1.366 . S
C621 C623 1.388 . S
C622 C621 1.366 . S
C622 C626 1.385 . S
C623 H598 0.951 . S
C623 C621 1.388 . S
C623 C624 1.366 . S
C624 C623 1.366 . S
C624 C625 1.414 . S
C624 C627 1.499 . S
C625 H599 0.950 . S
C625 C624 1.414 . S
C625 C626 1.374 . S
C626 H600 0.950 . S
C626 C622 1.385 . S
C626 C625 1.374 . S
C627 C624 1.499 . S
C627 C628 1.373 . S
C627 C629 1.389 . S
C628 H601 0.950 . S
C628 C614 1.377 . S
C628 C627 1.373 . S
C629 C613 1.377 . S
C629 C627 1.389 . S
C629 C630 1.524 . S
C630 C629 1.524 . S
C630 C631 1.397 . S
C630 C635 1.363 . S
C631 H602 0.950 . S
C631 C630 1.397 . S
C631 C632 1.334 . S
C632 H603 0.950 . S
C632 C631 1.334 . S
C632 C633 1.287 . S
C633 C632 1.287 . S
C633 C634 1.524 . S
C633 H636 0.999 . S
C634 H604 0.950 . S
C634 C633 1.524 . S
C634 C635 1.415 . S
C635 H605 0.950 . S
C635 C630 1.363 . S
C635 C634 1.415 . S
H636 C633 0.999 . S
H637 C618 0.913 . S
H638 C656 0.951 . S
H639 C658 0.951 . S
H640 C660 0.950 . S
H641 C661 0.950 . S
H642 C663 0.950 . S
H643 C666 0.950 . S
H644 C667 0.950 . S
H645 C669 0.950 . S
H646 C670 0.950 . S
H647 C671 0.951 . S
H648 C673 0.951 . S
H649 C675 0.950 . S
H650 C676 0.993 . S
H651 C678 0.950 . S
H652 C681 0.950 . S
H653 C682 0.950 . S
H654 C684 0.950 . S
H655 C685 0.950 . S
C656 H638 0.951 . S
C656 C657 1.366 . S
C656 C658 1.388 . S
C657 C656 1.366 . S
C657 C661 1.385 . S
C658 H639 0.951 . S
C658 C656 1.388 . S
C658 C659 1.366 . S
C659 C658 1.366 . S
C659 C660 1.414 . S
C659 C662 1.499 . S
C660 H640 0.950 . S
C660 C659 1.414 . S
C660 C661 1.374 . S
C661 H641 0.950 . S
C661 C657 1.385 . S
C661 C660 1.374 . S
C662 C659 1.499 . S
C662 C663 1.373 . S
C662 C664 1.389 . S
C663 H642 0.950 . S
C663 C662 1.373 . S
C663 C679 1.377 . S
C664 C662 1.389 . S
C664 C665 1.524 . S
C664 C678 1.377 . S
C665 C664 1.524 . S
C665 C666 1.397 . S
C665 C670 1.363 . S
C666 H643 0.950 . S
C666 C665 1.397 . S
C666 C667 1.334 . S
C667 H644 0.950 . S
C667 C666 1.334 . S
C667 C668 1.287 . S
C668 C667 1.287 . S
C668 C669 1.524 . S
C668 H687 0.913 . S
C669 H645 0.950 . S
C669 C668 1.524 . S
C669 C670 1.415 . S
C670 H646 0.950 . S
C670 C665 1.363 . S
C670 C669 1.415 . S
C671 H647 0.951 . S
C671 C672 1.366 . S
C671 C673 1.388 . S
C672 C671 1.366 . S
C672 C676 1.385 . S
C673 H648 0.951 . S
C673 C671 1.388 . S
C673 C674 1.366 . S
C674 C673 1.366 . S
C674 C675 1.414 . S
C674 C677 1.499 . S
C675 H649 0.950 . S
C675 C674 1.414 . S
C675 C676 1.374 . S
C676 H650 0.993 . S
C676 C672 1.385 . S
C676 C675 1.374 . S
C677 C674 1.499 . S
C677 C678 1.373 . S
C677 C679 1.389 . S
C678 H651 0.950 . S
C678 C664 1.377 . S
C678 C677 1.373 . S
C679 C663 1.377 . S
C679 C677 1.389 . S
C679 C680 1.524 . S
C680 C679 1.524 . S
C680 C681 1.397 1_554 S
C680 C685 1.363 . S
C681 H652 0.950 . S
C681 C680 1.397 1_556 S
C681 C682 1.334 . S
C682 H653 0.950 . S
C682 C681 1.334 . S
C682 C683 1.287 . S
C683 C682 1.287 . S
C683 C684 1.524 1_556 S
C683 H686 0.999 . S
C684 H654 0.950 . S
C684 C683 1.524 1_554 S
C684 C685 1.415 . S
C685 H655 0.950 . S
C685 C680 1.363 . S
C685 C684 1.415 . S
H686 C683 0.999 . S
H687 C668 0.913 . S
H688 C706 0.951 . S
H689 C708 0.951 . S
H690 C710 0.950 . S
H691 C711 0.950 . S
H692 C713 0.950 . S
H693 C716 0.950 . S
H694 C717 0.934 1_554 S
H695 C719 0.950 . S
H696 C720 0.950 . S
H697 C721 0.951 . S
H698 C723 0.951 1_554 S
H699 C725 0.950 . S
H700 C726 0.950 . S
H701 C728 0.950 . S
H702 C731 0.950 . S
H703 C732 0.950 . S
H704 C734 0.950 . S
H705 C735 0.950 . S
C706 H688 0.951 . S
C706 C707 1.366 . S
C706 C708 1.388 . S
C707 C706 1.366 . S
C707 C711 1.385 . S
C708 H689 0.951 . S
C708 C706 1.388 . S
C708 C709 1.366 . S
C709 C708 1.366 . S
C709 C710 1.414 . S
C709 C712 1.499 . S
C710 H690 0.950 . S
C710 C709 1.414 . S
C710 C711 1.374 . S
C711 H691 0.950 . S
C711 C707 1.385 . S
C711 C710 1.374 . S
C712 C709 1.499 . S
C712 C713 1.373 . S
C712 C714 1.389 . S
C713 H692 0.950 . S
C713 C712 1.373 . S
C713 C729 1.377 . S
C714 C712 1.389 . S
C714 C715 1.524 . S
C714 C728 1.377 . S
C715 C714 1.524 . S
C715 C716 1.397 . S
C715 C720 1.363 . S
C716 H693 0.950 . S
C716 C715 1.397 . S
C716 C717 1.334 . S
C717 H694 0.934 1_556 S
C717 C716 1.334 . S
C717 C718 1.287 . S
C718 C717 1.287 . S
C718 C719 1.524 . S
C718 H737 0.913 . S
C719 H695 0.950 . S
C719 C718 1.524 . S
C719 C720 1.415 . S
C720 H696 0.950 . S
C720 C715 1.363 . S
C720 C719 1.415 . S
C721 H697 0.951 . S
C721 C722 1.366 1_554 S
C721 C723 1.388 1_554 S
C722 C721 1.366 1_556 S
C722 C726 1.385 . S
C723 H698 0.951 1_556 S
C723 C721 1.388 1_556 S
C723 C724 1.366 . S
C724 C723 1.366 . S
C724 C725 1.414 . S
C724 C727 1.499 . S
C725 H699 0.950 . S
C725 C724 1.414 . S
C725 C726 1.374 . S
C726 H700 0.950 . S
C726 C722 1.385 . S
C726 C725 1.374 . S
C727 C724 1.499 . S
C727 C728 1.373 . S
C727 C729 1.389 . S
C728 H701 0.950 . S
C728 C714 1.377 . S
C728 C727 1.373 . S
C729 C713 1.377 . S
C729 C727 1.389 . S
C729 C730 1.524 . S
C730 C729 1.524 . S
C730 C731 1.397 . S
C730 C735 1.363 . S
C731 H702 0.950 . S
C731 C730 1.397 . S
C731 C732 1.334 . S
C732 H703 0.950 . S
C732 C731 1.334 . S
C732 C733 1.287 . S
C733 C732 1.287 . S
C733 C734 1.524 . S
C733 H736 0.999 . S
C734 H704 0.950 . S
C734 C733 1.524 . S
C734 C735 1.415 . S
C735 H705 0.950 . S
C735 C730 1.363 . S
C735 C734 1.415 . S
H736 C733 0.999 . S
H737 C718 0.913 . S
H738 C756 0.951 . S
H739 C758 0.951 . S
H740 C760 0.950 . S
H741 C761 0.950 . S
H742 C763 0.950 . S
H743 C766 0.950 . S
H744 C767 0.950 . S
H745 C769 0.950 . S
H746 C770 0.950 . S
H747 C771 0.951 . S
H748 C773 0.951 . S
H749 C775 0.950 . S
H750 C776 0.950 . S
H751 C778 0.950 . S
H752 C781 0.950 . S
H753 C782 0.950 . S
H754 C784 0.950 . S
H755 C785 0.950 . S
C756 H738 0.951 . S
C756 C757 1.366 . S
C756 C758 1.388 . S
C757 C756 1.366 . S
C757 C761 1.385 . S
C758 H739 0.951 . S
C758 C756 1.388 . S
C758 C759 1.366 . S
C759 C758 1.366 . S
C759 C760 1.414 . S
C759 C762 1.499 . S
C760 H740 0.950 . S
C760 C759 1.414 . S
C760 C761 1.374 . S
C761 H741 0.950 . S
C761 C757 1.385 . S
C761 C760 1.374 . S
C762 C759 1.499 . S
C762 C763 1.373 . S
C762 C764 1.389 . S
C763 H742 0.950 . S
C763 C762 1.373 . S
C763 C779 1.377 . S
C764 C762 1.389 . S
C764 C765 1.524 . S
C764 C778 1.377 . S
C765 C764 1.524 . S
C765 C766 1.397 . S
C765 C770 1.363 . S
C766 H743 0.950 . S
C766 C765 1.397 . S
C766 C767 1.334 . S
C767 H744 0.950 . S
C767 C766 1.334 . S
C767 C768 1.287 . S
C768 C767 1.287 . S
C768 C769 1.524 . S
C768 H787 0.913 . S
C769 H745 0.950 . S
C769 C768 1.524 . S
C769 C770 1.415 . S
C770 H746 0.950 . S
C770 C765 1.363 . S
C770 C769 1.415 . S
C771 H747 0.951 . S
C771 C772 1.366 . S
C771 C773 1.388 . S
C772 C771 1.366 . S
C772 C776 1.385 . S
C773 H748 0.951 . S
C773 C771 1.388 . S
C773 C774 1.366 . S
C774 C773 1.366 . S
C774 C775 1.414 . S
C774 C777 1.499 . S
C775 H749 0.950 . S
C775 C774 1.414 . S
C775 C776 1.374 . S
C776 H750 0.950 . S
C776 C772 1.385 . S
C776 C775 1.374 . S
C777 C774 1.499 . S
C777 C778 1.373 . S
C777 C779 1.389 . S
C778 H751 0.950 . S
C778 C764 1.377 . S
C778 C777 1.373 . S
C779 C763 1.377 . S
C779 C777 1.389 . S
C779 C780 1.524 . S
C780 C779 1.524 . S
C780 C781 1.397 . S
C780 C785 1.363 . S
C781 H752 0.950 . S
C781 C780 1.397 . S
C781 C782 1.334 . S
C782 H753 0.950 . S
C782 C781 1.334 . S
C782 C783 1.287 . S
C783 C782 1.287 . S
C783 C784 1.524 . S
C783 H786 0.999 . S
C784 H754 0.950 . S
C784 C783 1.524 . S
C784 C785 1.415 . S
C785 H755 0.950 . S
C785 C780 1.363 . S
C785 C784 1.415 . S
H786 C783 0.999 . S
H787 C768 0.913 . S
H788 C806 0.951 . S
H789 C808 0.951 . S
H790 C810 0.950 . S
H791 C811 0.950 . S
H792 C813 0.950 . S
H793 C816 0.950 . S
H794 C817 0.950 . S
H795 C819 0.950 . S
H796 C820 0.950 . S
H797 C821 0.951 . S
H798 C823 0.951 . S
H799 C825 0.950 . S
H800 C826 0.950 . S
H801 C828 0.950 . S
H802 C831 0.950 . S
H803 C832 0.950 . S
H804 C834 0.950 . S
H805 C835 0.950 . S
C806 H788 0.951 . S
C806 C807 1.366 . S
C806 C808 1.388 . S
C807 C806 1.366 . S
C807 C811 1.385 . S
C808 H789 0.951 . S
C808 C806 1.388 . S
C808 C809 1.366 . S
C809 C808 1.366 . S
C809 C810 1.414 . S
C809 C812 1.499 . S
C810 H790 0.950 . S
C810 C809 1.414 . S
C810 C811 1.374 . S
C811 H791 0.950 . S
C811 C807 1.385 . S
C811 C810 1.374 . S
C812 C809 1.499 . S
C812 C813 1.373 . S
C812 C814 1.389 . S
C813 H792 0.950 . S
C813 C812 1.373 . S
C813 C829 1.377 . S
C814 C812 1.389 . S
C814 C815 1.524 . S
C814 C828 1.377 . S
C815 C814 1.524 . S
C815 C816 1.397 . S
C815 C820 1.363 . S
C816 H793 0.950 . S
C816 C815 1.397 . S
C816 C817 1.334 . S
C817 H794 0.950 . S
C817 C816 1.334 . S
C817 C818 1.287 . S
C818 C817 1.287 . S
C818 C819 1.524 . S
C818 H837 0.913 . S
C819 H795 0.950 . S
C819 C818 1.524 . S
C819 C820 1.415 . S
C820 H796 0.950 . S
C820 C815 1.363 . S
C820 C819 1.415 . S
C821 H797 0.951 . S
C821 C822 1.366 . S
C821 C823 1.388 . S
C822 C821 1.366 . S
C822 C826 1.385 . S
C823 H798 0.951 . S
C823 C821 1.388 . S
C823 C824 1.366 . S
C824 C823 1.366 . S
C824 C825 1.414 . S
C824 C827 1.499 . S
C825 H799 0.950 . S
C825 C824 1.414 . S
C825 C826 1.374 . S
C826 H800 0.950 . S
C826 C822 1.385 . S
C826 C825 1.374 . S
C827 C824 1.499 . S
C827 C828 1.373 . S
C827 C829 1.389 . S
C828 H801 0.950 . S
C828 C814 1.377 . S
C828 C827 1.373 . S
C829 C813 1.377 . S
C829 C827 1.389 . S
C829 C830 1.524 . S
C830 C829 1.524 . S
C830 C831 1.397 . S
C830 C835 1.363 . S
C831 H802 0.950 . S
C831 C830 1.397 . S
C831 C832 1.334 . S
C832 H803 0.950 . S
C832 C831 1.334 . S
C832 C833 1.287 . S
C833 C832 1.287 . S
C833 C834 1.524 . S
C833 H836 0.999 . S
C834 H804 0.950 . S
C834 C833 1.524 . S
C834 C835 1.415 . S
C835 H805 0.950 . S
C835 C830 1.363 . S
C835 C834 1.415 . S
H836 C833 0.999 . S
H837 C818 0.913 . S
H838 C856 0.951 . S
H839 C858 0.951 . S
H840 C860 0.950 . S
H841 C861 0.950 . S
H842 C863 0.950 . S
H843 C866 0.950 . S
H844 C867 0.950 . S
H845 C869 0.950 . S
H846 C870 0.950 . S
H847 C871 0.951 . S
H848 C873 0.951 . S
H849 C875 0.950 . S
H850 C876 0.950 . S
H851 C878 0.950 . S
H852 C881 0.950 . S
H853 C882 0.950 . S
H854 C884 0.950 . S
H855 C885 0.950 . S
C856 H838 0.951 . S
C856 C857 1.366 . S
C856 C858 1.388 . S
C857 C856 1.366 . S
C857 C861 1.385 . S
C858 H839 0.951 . S
C858 C856 1.388 . S
C858 C859 1.366 . S
C859 C858 1.366 . S
C859 C860 1.414 . S
C859 C862 1.499 . S
C860 H840 0.950 . S
C860 C859 1.414 . S
C860 C861 1.374 . S
C861 H841 0.950 . S
C861 C857 1.385 . S
C861 C860 1.374 . S
C862 C859 1.499 . S
C862 C863 1.373 . S
C862 C864 1.389 . S
C863 H842 0.950 . S
C863 C862 1.373 . S
C863 C879 1.377 . S
C864 C862 1.389 . S
C864 C865 1.524 . S
C864 C878 1.377 . S
C865 C864 1.524 . S
C865 C866 1.397 . S
C865 C870 1.363 . S
C866 H843 0.950 . S
C866 C865 1.397 . S
C866 C867 1.334 . S
C867 H844 0.950 . S
C867 C866 1.334 . S
C867 C868 1.287 . S
C868 C867 1.287 . S
C868 C869 1.524 . S
C868 H887 0.913 . S
C869 H845 0.950 . S
C869 C868 1.524 . S
C869 C870 1.415 . S
C870 H846 0.950 . S
C870 C865 1.363 . S
C870 C869 1.415 . S
C871 H847 0.951 . S
C871 C872 1.366 . S
C871 C873 1.388 . S
C872 C871 1.366 . S
C872 C876 1.385 . S
C873 H848 0.951 . S
C873 C871 1.388 . S
C873 C874 1.366 . S
C874 C873 1.366 . S
C874 C875 1.414 . S
C874 C877 1.499 . S
C875 H849 0.950 . S
C875 C874 1.414 . S
C875 C876 1.374 . S
C876 H850 0.950 . S
C876 C872 1.385 . S
C876 C875 1.374 . S
C877 C874 1.499 . S
C877 C878 1.373 . S
C877 C879 1.389 . S
C878 H851 0.950 . S
C878 C864 1.377 . S
C878 C877 1.373 . S
C879 C863 1.377 . S
C879 C877 1.389 . S
C879 C880 1.524 . S
C880 C879 1.524 . S
C880 C881 1.397 . S
C880 C885 1.363 . S
C881 H852 0.950 . S
C881 C880 1.397 . S
C881 C882 1.334 . S
C882 H853 0.950 . S
C882 C881 1.334 . S
C882 C883 1.287 . S
C883 C882 1.287 . S
C883 C884 1.524 . S
C883 H886 0.999 . S
C884 H854 0.950 . S
C884 C883 1.524 . S
C884 C885 1.415 . S
C885 H855 0.950 . S
C885 C880 1.363 . S
C885 C884 1.415 . S
H886 C883 0.999 . S
H887 C868 0.913 . S
H888 C906 0.951 . S
H889 C908 0.951 . S
H890 C910 0.950 . S
H891 C911 0.950 . S
H892 C913 0.950 . S
H893 C916 0.950 . S
H894 C917 0.950 . S
H895 C919 0.950 . S
H896 C920 0.950 . S
H897 C921 0.951 . S
H898 C923 0.951 . S
H899 C925 0.950 . S
H900 C926 0.950 . S
H901 C928 0.950 . S
H902 C931 0.950 . S
H903 C932 0.950 . S
H904 C934 0.950 . S
H905 C935 0.950 . S
C906 H888 0.951 . S
C906 C907 1.366 . S
C906 C908 1.388 . S
C907 C906 1.366 . S
C907 C911 1.385 . S
C908 H889 0.951 . S
C908 C906 1.388 . S
C908 C909 1.366 . S
C909 C908 1.366 . S
C909 C910 1.414 . S
C909 C912 1.499 . S
C910 H890 0.950 . S
C910 C909 1.414 . S
C910 C911 1.374 . S
C911 H891 0.950 . S
C911 C907 1.385 . S
C911 C910 1.374 . S
C912 C909 1.499 . S
C912 C913 1.373 . S
C912 C914 1.389 . S
C913 H892 0.950 . S
C913 C912 1.373 . S
C913 C929 1.377 . S
C914 C912 1.389 . S
C914 C915 1.524 . S
C914 C928 1.377 . S
C915 C914 1.524 . S
C915 C916 1.397 . S
C915 C920 1.363 . S
C916 H893 0.950 . S
C916 C915 1.397 . S
C916 C917 1.334 . S
C917 H894 0.950 . S
C917 C916 1.334 . S
C917 C918 1.287 . S
C918 C917 1.287 . S
C918 C919 1.524 . S
C918 H937 0.913 . S
C919 H895 0.950 . S
C919 C918 1.524 . S
C919 C920 1.415 . S
C920 H896 0.950 . S
C920 C915 1.363 . S
C920 C919 1.415 . S
C921 H897 0.951 . S
C921 C922 1.366 . S
C921 C923 1.388 . S
C922 C921 1.366 . S
C922 C926 1.385 . S
C923 H898 0.951 . S
C923 C921 1.388 . S
C923 C924 1.366 . S
C924 C923 1.366 . S
C924 C925 1.414 . S
C924 C927 1.499 . S
C925 H899 0.950 . S
C925 C924 1.414 . S
C925 C926 1.374 . S
C926 H900 0.950 . S
C926 C922 1.385 . S
C926 C925 1.374 . S
C927 C924 1.499 . S
C927 C928 1.373 . S
C927 C929 1.389 . S
C928 H901 0.950 . S
C928 C914 1.377 . S
C928 C927 1.373 . S
C929 C913 1.377 . S
C929 C927 1.389 . S
C929 C930 1.524 . S
C930 C929 1.524 . S
C930 C931 1.397 . S
C930 C935 1.363 . S
C931 H902 0.950 . S
C931 C930 1.397 . S
C931 C932 1.334 . S
C932 H903 0.950 . S
C932 C931 1.334 . S
C932 C933 1.287 . S
C933 C932 1.287 . S
C933 C934 1.524 . S
C933 H936 0.999 . S
C934 H904 0.950 . S
C934 C933 1.524 . S
C934 C935 1.415 . S
C935 H905 0.950 . S
C935 C930 1.363 . S
C935 C934 1.415 . S
H936 C933 0.999 . S
H937 C918 0.913 . S
H938 C956 0.951 . S
H939 C958 0.951 . S
H940 C960 0.950 . S
H941 C961 0.950 . S
H942 C963 0.950 . S
H943 C966 0.958 . S
H944 C967 0.950 . S
H945 C969 0.950 . S
H946 C970 0.950 . S
H947 C971 0.951 . S
H948 C973 0.951 . S
H949 C975 0.950 . S
H950 C976 0.950 . S
H951 C978 0.950 . S
H952 C981 0.950 . S
H953 C982 0.950 . S
H954 C984 0.950 . S
H955 C985 0.950 . S
C956 H938 0.951 . S
C956 C957 1.366 . S
C956 C958 1.388 . S
C957 C956 1.366 . S
C957 C961 1.385 . S
C958 H939 0.951 . S
C958 C956 1.388 . S
C958 C959 1.366 . S
C959 C958 1.366 . S
C959 C960 1.414 . S
C959 C962 1.499 . S
C960 H940 0.950 . S
C960 C959 1.414 . S
C960 C961 1.374 . S
C961 H941 0.950 . S
C961 C957 1.385 . S
C961 C960 1.374 . S
C962 C959 1.499 . S
C962 C963 1.373 . S
C962 C964 1.389 . S
C963 H942 0.950 . S
C963 C962 1.373 . S
C963 C979 1.377 . S
C964 C962 1.389 . S
C964 C965 1.524 . S
C964 C978 1.377 . S
C965 C964 1.524 . S
C965 C966 1.397 1_554 S
C965 C970 1.363 . S
C966 H943 0.958 . S
C966 C965 1.397 1_556 S
C966 C967 1.334 . S
C967 H944 0.950 . S
C967 C966 1.334 . S
C967 C968 1.287 . S
C968 C967 1.287 . S
C968 C969 1.524 . S
C968 H987 0.913 . S
C969 H945 0.950 . S
C969 C968 1.524 . S
C969 C970 1.415 1_556 S
C970 H946 0.950 . S
C970 C965 1.363 . S
C970 C969 1.415 1_554 S
C971 H947 0.951 . S
C971 C972 1.366 . S
C971 C973 1.388 . S
C972 C971 1.366 . S
C972 C976 1.385 . S
C973 H948 0.951 . S
C973 C971 1.388 . S
C973 C974 1.366 . S
C974 C973 1.366 . S
C974 C975 1.414 . S
C974 C977 1.499 . S
C975 H949 0.950 . S
C975 C974 1.414 . S
C975 C976 1.374 . S
C976 H950 0.950 . S
C976 C972 1.385 . S
C976 C975 1.374 . S
C977 C974 1.499 . S
C977 C978 1.373 . S
C977 C979 1.389 . S
C978 H951 0.950 . S
C978 C964 1.377 . S
C978 C977 1.373 . S
C979 C963 1.377 . S
C979 C977 1.389 . S
C979 C980 1.524 . S
C980 C979 1.524 . S
C980 C981 1.397 . S
C980 C985 1.363 . S
C981 H952 0.950 . S
C981 C980 1.397 . S
C981 C982 1.334 . S
C982 H953 0.950 . S
C982 C981 1.334 . S
C982 C983 1.287 . S
C983 C982 1.287 . S
C983 C984 1.524 . S
C983 H986 0.999 . S
C984 H954 0.950 . S
C984 C983 1.524 . S
C984 C985 1.415 . S
C985 H955 0.950 . S
C985 C980 1.363 . S
C985 C984 1.415 . S
H986 C983 0.999 . S
H987 C968 0.913 . S
H988 C1006 0.951 . S
H989 C1008 0.951 . S
H990 C1010 0.950 . S
H991 C1011 0.950 . S
H992 C1013 0.950 . S
H993 C1016 0.950 . S
H994 C1017 0.950 . S
H995 C1019 0.950 . S
H996 C1020 0.950 . S
H997 C1021 0.951 . S
H998 C1023 0.951 . S
H999 C1025 0.950 . S
H1000 C1026 0.950 . S
H1001 C1028 0.950 . S
H1002 C1031 0.950 . S
H1003 C1032 0.950 . S
H1004 C1034 0.950 . S
H1005 C1035 0.950 . S
C1006 H988 0.951 . S
C1006 C1007 1.366 . S
C1006 C1008 1.388 . S
C1007 C1006 1.366 . S
C1007 C1011 1.385 . S
C1008 H989 0.951 . S
C1008 C1006 1.388 . S
C1008 C1009 1.366 . S
C1009 C1008 1.366 . S
C1009 C1010 1.414 . S
C1009 C1012 1.499 . S
C1010 H990 0.950 . S
C1010 C1009 1.414 . S
C1010 C1011 1.374 . S
C1011 H991 0.950 . S
C1011 C1007 1.385 . S
C1011 C1010 1.374 . S
C1012 C1009 1.499 . S
C1012 C1013 1.373 . S
C1012 C1014 1.389 . S
C1013 H992 0.950 . S
C1013 C1012 1.373 . S
C1013 C1029 1.377 . S
C1014 C1012 1.389 . S
C1014 C1015 1.524 . S
C1014 C1028 1.377 . S
C1015 C1014 1.524 . S
C1015 C1016 1.397 . S
C1015 C1020 1.363 . S
C1016 H993 0.950 . S
C1016 C1015 1.397 . S
C1016 C1017 1.334 . S
C1017 H994 0.950 . S
C1017 C1016 1.334 . S
C1017 C1018 1.287 . S
C1018 C1017 1.287 . S
C1018 C1019 1.524 . S
C1018 H1037 0.913 . S
C1019 H995 0.950 . S
C1019 C1018 1.524 . S
C1019 C1020 1.415 . S
C1020 H996 0.950 . S
C1020 C1015 1.363 . S
C1020 C1019 1.415 . S
C1021 H997 0.951 . S
C1021 C1022 1.366 . S
C1021 C1023 1.388 . S
C1022 C1021 1.366 . S
C1022 C1026 1.385 . S
C1023 H998 0.951 . S
C1023 C1021 1.388 . S
C1023 C1024 1.366 . S
C1024 C1023 1.366 . S
C1024 C1025 1.414 . S
C1024 C1027 1.499 . S
C1025 H999 0.950 . S
C1025 C1024 1.414 . S
C1025 C1026 1.374 . S
C1026 H1000 0.950 . S
C1026 C1022 1.385 . S
C1026 C1025 1.374 . S
C1027 C1024 1.499 . S
C1027 C1028 1.373 . S
C1027 C1029 1.389 . S
C1028 H1001 0.950 . S
C1028 C1014 1.377 . S
C1028 C1027 1.373 . S
C1029 C1013 1.377 . S
C1029 C1027 1.389 . S
C1029 C1030 1.524 . S
C1030 C1029 1.524 . S
C1030 C1031 1.397 . S
C1030 C1035 1.363 . S
C1031 H1002 0.950 . S
C1031 C1030 1.397 . S
C1031 C1032 1.334 . S
C1032 H1003 0.950 . S
C1032 C1031 1.334 . S
C1032 C1033 1.287 . S
C1033 C1032 1.287 . S
C1033 C1034 1.524 . S
C1033 H1036 0.999 . S
C1034 H1004 0.950 . S
C1034 C1033 1.524 . S
C1034 C1035 1.415 . S
C1035 H1005 0.950 . S
C1035 C1030 1.363 . S
C1035 C1034 1.415 . S
H1036 C1033 0.999 . S
H1037 C1018 0.913 . S
H1038 C1056 0.951 . S
H1039 C1058 0.951 . S
H1040 C1060 0.950 . S
H1041 C1061 0.950 . S
H1042 C1063 0.950 . S
H1043 C1066 0.950 . S
H1044 C1067 0.950 . S
H1045 C1069 0.950 . S
H1046 C1070 0.950 . S
H1047 C1071 0.951 . S
H1048 C1073 0.951 . S
H1049 C1075 0.950 . S
H1050 C1076 0.950 . S
H1051 C1078 0.950 . S
H1052 C1081 0.950 . S
H1053 C1082 0.950 . S
H1054 C1084 0.950 . S
H1055 C1085 0.950 . S
C1056 H1038 0.951 . S
C1056 C1057 1.366 . S
C1056 C1058 1.388 . S
C1057 C1056 1.366 . S
C1057 C1061 1.385 . S
C1058 H1039 0.951 . S
C1058 C1056 1.388 . S
C1058 C1059 1.366 . S
C1059 C1058 1.366 . S
C1059 C1060 1.414 . S
C1059 C1062 1.499 . S
C1060 H1040 0.950 . S
C1060 C1059 1.414 . S
C1060 C1061 1.374 . S
C1061 H1041 0.950 . S
C1061 C1057 1.385 . S
C1061 C1060 1.374 . S
C1062 C1059 1.499 . S
C1062 C1063 1.373 . S
C1062 C1064 1.389 . S
C1063 H1042 0.950 . S
C1063 C1062 1.373 . S
C1063 C1079 1.377 . S
C1064 C1062 1.389 . S
C1064 C1065 1.524 . S
C1064 C1078 1.377 . S
C1065 C1064 1.524 . S
C1065 C1066 1.397 . S
C1065 C1070 1.363 . S
C1066 H1043 0.950 . S
C1066 C1065 1.397 . S
C1066 C1067 1.334 . S
C1067 H1044 0.950 . S
C1067 C1066 1.334 . S
C1067 C1068 1.287 . S
C1068 C1067 1.287 . S
C1068 C1069 1.524 . S
C1068 H1087 0.913 . S
C1069 H1045 0.950 . S
C1069 C1068 1.524 . S
C1069 C1070 1.415 . S
C1070 H1046 0.950 . S
C1070 C1065 1.363 . S
C1070 C1069 1.415 . S
C1071 H1047 0.951 . S
C1071 C1072 1.366 . S
C1071 C1073 1.388 . S
C1072 C1071 1.366 . S
C1072 C1076 1.385 . S
C1073 H1048 0.951 . S
C1073 C1071 1.388 . S
C1073 C1074 1.366 . S
C1074 C1073 1.366 . S
C1074 C1075 1.414 . S
C1074 C1077 1.499 . S
C1075 H1049 0.950 . S
C1075 C1074 1.414 . S
C1075 C1076 1.374 . S
C1076 H1050 0.950 . S
C1076 C1072 1.385 . S
C1076 C1075 1.374 . S
C1077 C1074 1.499 . S
C1077 C1078 1.373 . S
C1077 C1079 1.389 . S
C1078 H1051 0.950 . S
C1078 C1064 1.377 . S
C1078 C1077 1.373 . S
C1079 C1063 1.377 . S
C1079 C1077 1.389 . S
C1079 C1080 1.524 . S
C1080 C1079 1.524 . S
C1080 C1081 1.397 . S
C1080 C1085 1.363 . S
C1081 H1052 0.950 . S
C1081 C1080 1.397 . S
C1081 C1082 1.334 . S
C1082 H1053 0.950 . S
C1082 C1081 1.334 . S
C1082 C1083 1.287 . S
C1083 C1082 1.287 . S
C1083 C1084 1.524 . S
C1083 H1086 0.999 . S
C1084 H1054 0.950 . S
C1084 C1083 1.524 . S
C1084 C1085 1.415 . S
C1085 H1055 0.950 . S
C1085 C1080 1.363 . S
C1085 C1084 1.415 . S
H1086 C1083 0.999 . S
H1087 C1068 0.913 . S
H1088 C1106 0.951 . S
H1089 C1108 0.951 . S
H1090 C1110 0.950 . S
H1091 C1111 0.950 . S
H1092 C1113 0.950 . S
H1093 C1116 0.950 . S
H1094 C1117 0.950 . S
H1095 C1119 0.950 . S
H1096 C1120 0.950 . S
H1097 C1121 0.951 . S
H1098 C1123 0.951 . S
H1099 C1125 0.950 . S
H1100 C1126 0.950 . S
H1101 C1128 0.950 . S
H1102 C1131 0.950 . S
H1103 C1132 0.950 . S
H1104 C1134 0.950 . S
H1105 C1135 0.950 . S
C1106 H1088 0.951 . S
C1106 C1107 1.366 . S
C1106 C1108 1.388 . S
C1107 C1106 1.366 . S
C1107 C1111 1.385 . S
C1108 H1089 0.951 . S
C1108 C1106 1.388 . S
C1108 C1109 1.366 . S
C1109 C1108 1.366 . S
C1109 C1110 1.414 . S
C1109 C1112 1.499 . S
C1110 H1090 0.950 . S
C1110 C1109 1.414 . S
C1110 C1111 1.374 . S
C1111 H1091 0.950 . S
C1111 C1107 1.385 . S
C1111 C1110 1.374 . S
C1112 C1109 1.499 . S
C1112 C1113 1.373 . S
C1112 C1114 1.389 . S
C1113 H1092 0.950 . S
C1113 C1112 1.373 . S
C1113 C1129 1.377 . S
C1114 C1112 1.389 . S
C1114 C1115 1.524 . S
C1114 C1128 1.377 . S
C1115 C1114 1.524 . S
C1115 C1116 1.397 . S
C1115 C1120 1.363 . S
C1116 H1093 0.950 . S
C1116 C1115 1.397 . S
C1116 C1117 1.334 . S
C1117 H1094 0.950 . S
C1117 C1116 1.334 . S
C1117 C1118 1.287 . S
C1118 C1117 1.287 . S
C1118 C1119 1.524 . S
C1118 H1137 0.913 . S
C1119 H1095 0.950 . S
C1119 C1118 1.524 . S
C1119 C1120 1.415 . S
C1120 H1096 0.950 . S
C1120 C1115 1.363 . S
C1120 C1119 1.415 . S
C1121 H1097 0.951 . S
C1121 C1122 1.366 . S
C1121 C1123 1.388 . S
C1122 C1121 1.366 . S
C1122 C1126 1.385 . S
C1123 H1098 0.951 . S
C1123 C1121 1.388 . S
C1123 C1124 1.366 . S
C1124 C1123 1.366 . S
C1124 C1125 1.414 . S
C1124 C1127 1.499 . S
C1125 H1099 0.950 . S
C1125 C1124 1.414 . S
C1125 C1126 1.374 . S
C1126 H1100 0.950 . S
C1126 C1122 1.385 . S
C1126 C1125 1.374 . S
C1127 C1124 1.499 . S
C1127 C1128 1.373 . S
C1127 C1129 1.389 . S
C1128 H1101 0.950 . S
C1128 C1114 1.377 . S
C1128 C1127 1.373 . S
C1129 C1113 1.377 . S
C1129 C1127 1.389 . S
C1129 C1130 1.524 . S
C1130 C1129 1.524 . S
C1130 C1131 1.397 . S
C1130 C1135 1.363 . S
C1131 H1102 0.950 . S
C1131 C1130 1.397 . S
C1131 C1132 1.334 . S
C1132 H1103 0.950 . S
C1132 C1131 1.334 . S
C1132 C1133 1.287 . S
C1133 C1132 1.287 . S
C1133 C1134 1.524 . S
C1133 H1136 0.999 . S
C1134 H1104 0.950 . S
C1134 C1133 1.524 . S
C1134 C1135 1.415 . S
C1135 H1105 0.950 . S
C1135 C1130 1.363 . S
C1135 C1134 1.415 . S
H1136 C1133 0.999 . S
H1137 C1118 0.913 . S
H1138 C1156 0.951 . S
H1139 C1158 0.951 . S
H1140 C1160 0.950 . S
H1141 C1161 0.950 . S
H1142 C1163 0.950 . S
H1143 C1166 0.950 . S
H1144 C1167 0.950 . S
H1145 C1169 0.950 . S
H1146 C1170 0.950 . S
H1147 C1171 0.951 . S
H1148 C1173 0.951 . S
H1149 C1175 0.950 . S
H1150 C1176 0.950 . S
H1151 C1178 0.950 . S
H1152 C1181 0.950 . S
H1153 C1182 0.950 . S
H1154 C1184 0.950 . S
H1155 C1185 0.950 . S
C1156 H1138 0.951 . S
C1156 C1157 1.366 . S
C1156 C1158 1.388 . S
C1157 C1156 1.366 . S
C1157 C1161 1.385 . S
C1158 H1139 0.951 . S
C1158 C1156 1.388 . S
C1158 C1159 1.366 . S
C1159 C1158 1.366 . S
C1159 C1160 1.414 . S
C1159 C1162 1.499 . S
C1160 H1140 0.950 . S
C1160 C1159 1.414 . S
C1160 C1161 1.374 . S
C1161 H1141 0.950 . S
C1161 C1157 1.385 . S
C1161 C1160 1.374 . S
C1162 C1159 1.499 . S
C1162 C1163 1.373 . S
C1162 C1164 1.389 . S
C1163 H1142 0.950 . S
C1163 C1162 1.373 . S
C1163 C1179 1.377 . S
C1164 C1162 1.389 . S
C1164 C1165 1.524 . S
C1164 C1178 1.377 . S
C1165 C1164 1.524 . S
C1165 C1166 1.397 . S
C1165 C1170 1.363 . S
C1166 H1143 0.950 . S
C1166 C1165 1.397 . S
C1166 C1167 1.334 . S
C1167 H1144 0.950 . S
C1167 C1166 1.334 . S
C1167 C1168 1.287 . S
C1168 C1167 1.287 . S
C1168 C1169 1.524 . S
C1168 H1187 0.913 . S
C1169 H1145 0.950 . S
C1169 C1168 1.524 . S
C1169 C1170 1.415 . S
C1170 H1146 0.950 . S
C1170 C1165 1.363 . S
C1170 C1169 1.415 . S
C1171 H1147 0.951 . S
C1171 C1172 1.366 . S
C1171 C1173 1.388 . S
C1172 C1171 1.366 . S
C1172 C1176 1.385 . S
C1173 H1148 0.951 . S
C1173 C1171 1.388 . S
C1173 C1174 1.366 . S
C1174 C1173 1.366 . S
C1174 C1175 1.414 . S
C1174 C1177 1.499 . S
C1175 H1149 0.950 . S
C1175 C1174 1.414 . S
C1175 C1176 1.374 . S
C1176 H1150 0.950 . S
C1176 C1172 1.385 . S
C1176 C1175 1.374 . S
C1177 C1174 1.499 . S
C1177 C1178 1.373 . S
C1177 C1179 1.389 . S
C1178 H1151 0.950 . S
C1178 C1164 1.377 . S
C1178 C1177 1.373 . S
C1179 C1163 1.377 . S
C1179 C1177 1.389 . S
C1179 C1180 1.524 . S
C1180 C1179 1.524 . S
C1180 C1181 1.397 . S
C1180 C1185 1.363 . S
C1181 H1152 0.950 . S
C1181 C1180 1.397 . S
C1181 C1182 1.334 . S
C1182 H1153 0.950 . S
C1182 C1181 1.334 . S
C1182 C1183 1.287 . S
C1183 C1182 1.287 . S
C1183 C1184 1.524 . S
C1183 H1186 0.999 . S
C1184 H1154 0.950 . S
C1184 C1183 1.524 . S
C1184 C1185 1.415 . S
C1185 H1155 0.950 . S
C1185 C1180 1.363 . S
C1185 C1184 1.415 . S
H1186 C1183 0.999 . S
H1187 C1168 0.913 . S
H1188 C1206 0.951 . S
H1189 C1208 0.951 . S
H1190 C1210 0.950 . S
H1191 C1211 0.950 . S
H1192 C1213 0.950 . S
H1193 C1216 0.950 . S
H1194 C1217 0.950 . S
H1195 C1219 0.950 . S
H1196 C1220 0.950 . S
H1197 C1221 0.951 . S
H1198 C1223 0.951 . S
H1199 C1225 0.950 . S
H1200 C1226 0.949 1_554 S
H1201 C1228 0.950 . S
H1202 C1231 0.950 . S
H1203 C1232 0.950 . S
H1204 C1234 0.950 . S
H1205 C1235 0.950 . S
C1206 H1188 0.951 . S
C1206 C1207 1.366 . S
C1206 C1208 1.388 . S
C1207 C1206 1.366 . S
C1207 C1211 1.385 . S
C1208 H1189 0.951 . S
C1208 C1206 1.388 . S
C1208 C1209 1.366 . S
C1209 C1208 1.366 . S
C1209 C1210 1.414 . S
C1209 C1212 1.499 . S
C1210 H1190 0.950 . S
C1210 C1209 1.414 . S
C1210 C1211 1.374 . S
C1211 H1191 0.950 . S
C1211 C1207 1.385 . S
C1211 C1210 1.374 . S
C1212 C1209 1.499 . S
C1212 C1213 1.373 . S
C1212 C1214 1.389 . S
C1213 H1192 0.950 . S
C1213 C1212 1.373 . S
C1213 C1229 1.377 . S
C1214 C1212 1.389 . S
C1214 C1215 1.524 . S
C1214 C1228 1.377 . S
C1215 C1214 1.524 . S
C1215 C1216 1.397 . S
C1215 C1220 1.363 . S
C1216 H1193 0.950 . S
C1216 C1215 1.397 . S
C1216 C1217 1.334 . S
C1217 H1194 0.950 . S
C1217 C1216 1.334 . S
C1217 C1218 1.287 . S
C1218 C1217 1.287 . S
C1218 C1219 1.524 . S
C1218 H1237 0.913 . S
C1219 H1195 0.950 . S
C1219 C1218 1.524 . S
C1219 C1220 1.415 . S
C1220 H1196 0.950 . S
C1220 C1215 1.363 . S
C1220 C1219 1.415 . S
C1221 H1197 0.951 . S
C1221 C1222 1.366 . S
C1221 C1223 1.388 . S
C1222 C1221 1.366 . S
C1222 C1226 1.385 . S
C1223 H1198 0.951 . S
C1223 C1221 1.388 . S
C1223 C1224 1.366 . S
C1224 C1223 1.366 . S
C1224 C1225 1.414 . S
C1224 C1227 1.499 . S
C1225 H1199 0.950 . S
C1225 C1224 1.414 . S
C1225 C1226 1.374 . S
C1226 H1200 0.949 1_556 S
C1226 C1222 1.385 . S
C1226 C1225 1.374 . S
C1227 C1224 1.499 . S
C1227 C1228 1.373 . S
C1227 C1229 1.389 . S
C1228 H1201 0.950 . S
C1228 C1214 1.377 . S
C1228 C1227 1.373 . S
C1229 C1213 1.377 . S
C1229 C1227 1.389 . S
C1229 C1230 1.481 1_556 S
C1230 C1229 1.481 1_554 S
C1230 C1231 1.454 . S
C1230 C1235 1.354 1_554 S
C1231 H1202 0.950 . S
C1231 C1230 1.454 . S
C1231 C1232 1.334 . S
C1232 H1203 0.950 . S
C1232 C1231 1.334 . S
C1232 C1233 1.287 . S
C1233 C1232 1.287 . S
C1233 C1234 1.524 . S
C1233 H1236 0.999 . S
C1234 H1204 0.950 . S
C1234 C1233 1.524 . S
C1234 C1235 1.415 1_554 S
C1235 H1205 0.950 . S
C1235 C1230 1.354 1_556 S
C1235 C1234 1.415 1_556 S
H1236 C1233 0.999 . S
H1237 C1218 0.913 . S
H1238 C1256 0.951 . S
H1239 C1258 0.951 . S
H1240 C1260 0.950 . S
H1241 C1261 0.950 . S
H1242 C1263 0.950 . S
H1243 C1266 0.950 . S
H1244 C1267 0.950 . S
H1245 C1269 0.950 . S
H1246 C1270 0.950 . S
H1247 C1271 0.951 . S
H1248 C1273 0.951 . S
H1249 C1275 0.950 . S
H1250 C1276 0.950 . S
H1251 C1278 0.950 . S
H1252 C1281 0.950 . S
H1253 C1282 0.950 . S
H1254 C1284 0.950 . S
H1255 C1285 0.950 . S
C1256 H1238 0.951 . S
C1256 C1257 1.366 . S
C1256 C1258 1.388 . S
C1257 C1256 1.366 . S
C1257 C1261 1.385 . S
C1258 H1239 0.951 . S
C1258 C1256 1.388 . S
C1258 C1259 1.366 . S
C1259 C1258 1.366 . S
C1259 C1260 1.414 . S
C1259 C1262 1.499 . S
C1260 H1240 0.950 . S
C1260 C1259 1.414 . S
C1260 C1261 1.374 . S
C1261 H1241 0.950 . S
C1261 C1257 1.385 . S
C1261 C1260 1.374 . S
C1262 C1259 1.499 . S
C1262 C1263 1.373 . S
C1262 C1264 1.389 . S
C1263 H1242 0.950 . S
C1263 C1262 1.373 . S
C1263 C1279 1.377 . S
C1264 C1262 1.389 . S
C1264 C1265 1.524 . S
C1264 C1278 1.377 . S
C1265 C1264 1.524 . S
C1265 C1266 1.397 . S
C1265 C1270 1.363 . S
C1266 H1243 0.950 . S
C1266 C1265 1.397 . S
C1266 C1267 1.334 . S
C1267 H1244 0.950 . S
C1267 C1266 1.334 . S
C1267 C1268 1.287 . S
C1268 C1267 1.287 . S
C1268 C1269 1.524 . S
C1268 H1287 0.913 . S
C1269 H1245 0.950 . S
C1269 C1268 1.524 . S
C1269 C1270 1.415 . S
C1270 H1246 0.950 . S
C1270 C1265 1.363 . S
C1270 C1269 1.415 . S
C1271 H1247 0.951 . S
C1271 C1272 1.366 . S
C1271 C1273 1.388 . S
C1272 C1271 1.366 . S
C1272 C1276 1.385 . S
C1273 H1248 0.951 . S
C1273 C1271 1.388 . S
C1273 C1274 1.366 . S
C1274 C1273 1.366 . S
C1274 C1275 1.414 . S
C1274 C1277 1.499 . S
C1275 H1249 0.950 . S
C1275 C1274 1.414 . S
C1275 C1276 1.374 . S
C1276 H1250 0.950 . S
C1276 C1272 1.385 . S
C1276 C1275 1.374 . S
C1277 C1274 1.499 . S
C1277 C1278 1.373 . S
C1277 C1279 1.389 . S
C1278 H1251 0.950 . S
C1278 C1264 1.377 . S
C1278 C1277 1.373 . S
C1279 C1263 1.377 . S
C1279 C1277 1.389 . S
C1279 C1280 1.524 . S
C1280 C1279 1.524 . S
C1280 C1281 1.397 . S
C1280 C1285 1.363 . S
C1281 H1252 0.950 . S
C1281 C1280 1.397 . S
C1281 C1282 1.334 . S
C1282 H1253 0.950 . S
C1282 C1281 1.334 . S
C1282 C1283 1.287 . S
C1283 C1282 1.287 . S
C1283 C1284 1.524 . S
C1283 H1286 0.999 . S
C1284 H1254 0.950 . S
C1284 C1283 1.524 . S
C1284 C1285 1.415 . S
C1285 H1255 0.950 . S
C1285 C1280 1.363 . S
C1285 C1284 1.415 . S
H1286 C1283 0.999 . S
H1287 C1268 0.913 . S
H1288 C1306 0.951 . S
H1289 C1308 0.951 . S
H1290 C1310 0.950 . S
H1291 C1311 0.950 . S
H1292 C1313 0.950 . S
H1293 C1316 0.950 . S
H1294 C1317 0.950 . S
H1295 C1319 0.950 . S
H1296 C1320 0.950 . S
H1297 C1321 0.951 . S
H1298 C1323 0.951 . S
H1299 C1325 0.950 . S
H1300 C1326 0.950 . S
H1301 C1328 0.950 . S
H1302 C1331 0.950 . S
H1303 C1332 0.950 . S
H1304 C1334 0.950 . S
H1305 C1335 0.950 . S
C1306 H1288 0.951 . S
C1306 C1307 1.366 . S
C1306 C1308 1.388 . S
C1307 C1306 1.366 . S
C1307 C1311 1.385 . S
C1308 H1289 0.951 . S
C1308 C1306 1.388 . S
C1308 C1309 1.366 . S
C1309 C1308 1.366 . S
C1309 C1310 1.414 . S
C1309 C1312 1.499 . S
C1310 H1290 0.950 . S
C1310 C1309 1.414 . S
C1310 C1311 1.374 . S
C1311 H1291 0.950 . S
C1311 C1307 1.385 . S
C1311 C1310 1.374 . S
C1312 C1309 1.499 . S
C1312 C1313 1.373 . S
C1312 C1314 1.389 . S
C1313 H1292 0.950 . S
C1313 C1312 1.373 . S
C1313 C1329 1.377 . S
C1314 C1312 1.389 . S
C1314 C1315 1.524 . S
C1314 C1328 1.377 . S
C1315 C1314 1.524 . S
C1315 C1316 1.397 . S
C1315 C1320 1.363 . S
C1316 H1293 0.950 . S
C1316 C1315 1.397 . S
C1316 C1317 1.334 . S
C1317 H1294 0.950 . S
C1317 C1316 1.334 . S
C1317 C1318 1.287 . S
C1318 C1317 1.287 . S
C1318 C1319 1.524 . S
C1318 H1337 0.913 . S
C1319 H1295 0.950 . S
C1319 C1318 1.524 . S
C1319 C1320 1.415 . S
C1320 H1296 0.950 . S
C1320 C1315 1.363 . S
C1320 C1319 1.415 . S
C1321 H1297 0.951 . S
C1321 C1322 1.366 . S
C1321 C1323 1.388 . S
C1322 C1321 1.366 . S
C1322 C1326 1.385 . S
C1323 H1298 0.951 . S
C1323 C1321 1.388 . S
C1323 C1324 1.366 . S
C1324 C1323 1.366 . S
C1324 C1325 1.414 . S
C1324 C1327 1.499 . S
C1325 H1299 0.950 . S
C1325 C1324 1.414 . S
C1325 C1326 1.374 . S
C1326 H1300 0.950 . S
C1326 C1322 1.385 . S
C1326 C1325 1.374 . S
C1327 C1324 1.499 . S
C1327 C1328 1.373 . S
C1327 C1329 1.389 . S
C1328 H1301 0.950 . S
C1328 C1314 1.377 . S
C1328 C1327 1.373 . S
C1329 C1313 1.377 . S
C1329 C1327 1.389 . S
C1329 C1330 1.524 . S
C1330 C1329 1.524 . S
C1330 C1331 1.397 . S
C1330 C1335 1.363 . S
C1331 H1302 0.950 . S
C1331 C1330 1.397 . S
C1331 C1332 1.334 . S
C1332 H1303 0.950 . S
C1332 C1331 1.334 . S
C1332 C1333 1.287 . S
C1333 C1332 1.287 . S
C1333 C1334 1.524 . S
C1333 H1336 0.999 . S
C1334 H1304 0.950 . S
C1334 C1333 1.524 . S
C1334 C1335 1.415 . S
C1335 H1305 0.950 . S
C1335 C1330 1.363 . S
C1335 C1334 1.415 . S
H1336 C1333 0.999 . S
H1337 C1318 0.913 . S
H1338 C1356 0.951 . S
H1339 C1358 0.951 . S
H1340 C1360 0.950 . S
H1341 C1361 0.950 . S
H1342 C1363 0.950 . S
H1343 C1366 0.950 . S
H1344 C1367 0.950 . S
H1345 C1369 0.950 . S
H1346 C1370 0.950 . S
H1347 C1371 0.951 . S
H1348 C1373 0.951 . S
H1349 C1375 0.950 . S
H1350 C1376 0.950 . S
H1351 C1378 0.950 . S
H1352 C1381 0.950 . S
H1353 C1382 0.950 . S
H1354 C1384 0.950 . S
H1355 C1385 0.950 . S
C1356 H1338 0.951 . S
C1356 C1357 1.366 . S
C1356 C1358 1.388 . S
C1357 C1356 1.366 . S
C1357 C1361 1.385 . S
C1358 H1339 0.951 . S
C1358 C1356 1.388 . S
C1358 C1359 1.366 . S
C1359 C1358 1.366 . S
C1359 C1360 1.414 . S
C1359 C1362 1.499 . S
C1360 H1340 0.950 . S
C1360 C1359 1.414 . S
C1360 C1361 1.374 . S
C1361 H1341 0.950 . S
C1361 C1357 1.385 . S
C1361 C1360 1.374 . S
C1362 C1359 1.499 . S
C1362 C1363 1.373 . S
C1362 C1364 1.389 . S
C1363 H1342 0.950 . S
C1363 C1362 1.373 . S
C1363 C1379 1.377 . S
C1364 C1362 1.389 . S
C1364 C1365 1.524 . S
C1364 C1378 1.377 . S
C1365 C1364 1.524 . S
C1365 C1366 1.397 . S
C1365 C1370 1.363 . S
C1366 H1343 0.950 . S
C1366 C1365 1.397 . S
C1366 C1367 1.334 . S
C1367 H1344 0.950 . S
C1367 C1366 1.334 . S
C1367 C1368 1.287 . S
C1368 C1367 1.287 . S
C1368 C1369 1.524 . S
C1368 H1387 0.913 . S
C1369 H1345 0.950 . S
C1369 C1368 1.524 . S
C1369 C1370 1.415 . S
C1370 H1346 0.950 . S
C1370 C1365 1.363 . S
C1370 C1369 1.415 . S
C1371 H1347 0.951 . S
C1371 C1372 1.366 . S
C1371 C1373 1.388 . S
C1372 C1371 1.366 . S
C1372 C1376 1.385 . S
C1373 H1348 0.951 . S
C1373 C1371 1.388 . S
C1373 C1374 1.366 . S
C1374 C1373 1.366 . S
C1374 C1375 1.414 . S
C1374 C1377 1.499 . S
C1375 H1349 0.950 . S
C1375 C1374 1.414 . S
C1375 C1376 1.374 . S
C1376 H1350 0.950 . S
C1376 C1372 1.385 . S
C1376 C1375 1.374 . S
C1377 C1374 1.499 . S
C1377 C1378 1.373 . S
C1377 C1379 1.389 . S
C1378 H1351 0.950 . S
C1378 C1364 1.377 . S
C1378 C1377 1.373 . S
C1379 C1363 1.377 . S
C1379 C1377 1.389 . S
C1379 C1380 1.524 . S
C1380 C1379 1.524 . S
C1380 C1381 1.397 . S
C1380 C1385 1.363 . S
C1381 H1352 0.950 . S
C1381 C1380 1.397 . S
C1381 C1382 1.334 . S
C1382 H1353 0.950 . S
C1382 C1381 1.334 . S
C1382 C1383 1.287 . S
C1383 C1382 1.287 . S
C1383 C1384 1.524 . S
C1383 H1386 0.999 . S
C1384 H1354 0.950 . S
C1384 C1383 1.524 . S
C1384 C1385 1.415 . S
C1385 H1355 0.950 . S
C1385 C1380 1.363 . S
C1385 C1384 1.415 . S
H1386 C1383 0.999 . S
H1387 C1368 0.913 . S
H1388 C1406 0.951 . S
H1389 C1408 0.951 . S
H1390 C1410 0.950 . S
H1391 C1411 0.950 . S
H1392 C1413 0.950 . S
H1393 C1416 0.950 . S
H1394 C1417 0.950 . S
H1395 C1419 0.950 . S
H1396 C1420 0.950 . S
H1397 C1421 0.951 . S
H1398 C1423 0.951 . S
H1399 C1425 0.950 . S
H1400 C1426 0.950 . S
H1401 C1428 0.950 . S
H1402 C1431 0.950 . S
H1403 C1432 0.950 . S
H1404 C1434 0.950 . S
H1405 C1435 0.950 . S
C1406 H1388 0.951 . S
C1406 C1407 1.366 . S
C1406 C1408 1.388 . S
C1407 C1406 1.366 . S
C1407 C1411 1.385 . S
C1408 H1389 0.951 . S
C1408 C1406 1.388 . S
C1408 C1409 1.366 . S
C1409 C1408 1.366 . S
C1409 C1410 1.414 . S
C1409 C1412 1.499 . S
C1410 H1390 0.950 . S
C1410 C1409 1.414 . S
C1410 C1411 1.374 . S
C1411 H1391 0.950 . S
C1411 C1407 1.385 . S
C1411 C1410 1.374 . S
C1412 C1409 1.499 . S
C1412 C1413 1.373 . S
C1412 C1414 1.389 . S
C1413 H1392 0.950 . S
C1413 C1412 1.373 . S
C1413 C1429 1.377 . S
C1414 C1412 1.389 . S
C1414 C1415 1.524 . S
C1414 C1428 1.377 . S
C1415 C1414 1.524 . S
C1415 C1416 1.397 . S
C1415 C1420 1.363 . S
C1416 H1393 0.950 . S
C1416 C1415 1.397 . S
C1416 C1417 1.334 . S
C1417 H1394 0.950 . S
C1417 C1416 1.334 . S
C1417 C1418 1.287 . S
C1418 C1417 1.287 . S
C1418 C1419 1.524 . S
C1418 H1437 0.913 . S
C1419 H1395 0.950 . S
C1419 C1418 1.524 . S
C1419 C1420 1.415 . S
C1420 H1396 0.950 . S
C1420 C1415 1.363 . S
C1420 C1419 1.415 . S
C1421 H1397 0.951 . S
C1421 C1422 1.366 . S
C1421 C1423 1.388 . S
C1422 C1421 1.366 . S
C1422 C1426 1.385 . S
C1423 H1398 0.951 . S
C1423 C1421 1.388 . S
C1423 C1424 1.366 . S
C1424 C1423 1.366 . S
C1424 C1425 1.414 . S
C1424 C1427 1.499 . S
C1425 H1399 0.950 . S
C1425 C1424 1.414 . S
C1425 C1426 1.374 . S
C1426 H1400 0.950 . S
C1426 C1422 1.385 . S
C1426 C1425 1.374 . S
C1427 C1424 1.499 . S
C1427 C1428 1.373 . S
C1427 C1429 1.389 . S
C1428 H1401 0.950 . S
C1428 C1414 1.377 . S
C1428 C1427 1.373 . S
C1429 C1413 1.377 . S
C1429 C1427 1.389 . S
C1429 C1430 1.524 . S
C1430 C1429 1.524 . S
C1430 C1431 1.397 . S
C1430 C1435 1.363 . S
C1431 H1402 0.950 . S
C1431 C1430 1.397 . S
C1431 C1432 1.334 . S
C1432 H1403 0.950 . S
C1432 C1431 1.334 . S
C1432 C1433 1.287 . S
C1433 C1432 1.287 . S
C1433 C1434 1.524 . S
C1433 H1436 0.999 . S
C1434 H1404 0.950 . S
C1434 C1433 1.524 . S
C1434 C1435 1.415 . S
C1435 H1405 0.950 . S
C1435 C1430 1.363 . S
C1435 C1434 1.415 . S
H1436 C1433 0.999 . S
H1437 C1418 0.913 . S
H1438 C1456 0.951 . S
H1439 C1458 0.951 . S
H1440 C1460 0.950 . S
H1441 C1461 0.950 . S
H1442 C1463 0.950 . S
H1443 C1466 0.950 . S
H1444 C1467 0.950 . S
H1445 C1469 0.950 . S
H1446 C1470 0.950 . S
H1447 C1471 0.951 . S
H1448 C1473 0.951 . S
H1449 C1475 0.950 . S
H1450 C1476 0.950 . S
H1451 C1478 0.950 . S
H1452 C1481 0.950 . S
H1453 C1482 0.950 . S
H1454 C1484 0.950 . S
H1455 C1485 0.950 . S
C1456 H1438 0.951 . S
C1456 C1457 1.366 . S
C1456 C1458 1.388 . S
C1457 C1456 1.366 . S
C1457 C1461 1.385 . S
C1458 H1439 0.951 . S
C1458 C1456 1.388 . S
C1458 C1459 1.366 . S
C1459 C1458 1.366 . S
C1459 C1460 1.414 . S
C1459 C1462 1.499 . S
C1460 H1440 0.950 . S
C1460 C1459 1.414 . S
C1460 C1461 1.374 . S
C1461 H1441 0.950 . S
C1461 C1457 1.385 . S
C1461 C1460 1.374 . S
C1462 C1459 1.499 . S
C1462 C1463 1.373 . S
C1462 C1464 1.389 . S
C1463 H1442 0.950 . S
C1463 C1462 1.373 . S
C1463 C1479 1.377 . S
C1464 C1462 1.389 . S
C1464 C1465 1.524 . S
C1464 C1478 1.377 . S
C1465 C1464 1.524 . S
C1465 C1466 1.397 . S
C1465 C1470 1.363 . S
C1466 H1443 0.950 . S
C1466 C1465 1.397 . S
C1466 C1467 1.334 . S
C1467 H1444 0.950 . S
C1467 C1466 1.334 . S
C1467 C1468 1.287 . S
C1468 C1467 1.287 . S
C1468 C1469 1.524 . S
C1468 H1487 0.913 . S
C1469 H1445 0.950 . S
C1469 C1468 1.524 . S
C1469 C1470 1.415 . S
C1470 H1446 0.950 . S
C1470 C1465 1.363 . S
C1470 C1469 1.415 . S
C1471 H1447 0.951 . S
C1471 C1472 1.366 . S
C1471 C1473 1.388 . S
C1472 C1471 1.366 . S
C1472 C1476 1.385 . S
C1473 H1448 0.951 . S
C1473 C1471 1.388 . S
C1473 C1474 1.366 . S
C1474 C1473 1.366 . S
C1474 C1475 1.414 . S
C1474 C1477 1.499 . S
C1475 H1449 0.950 . S
C1475 C1474 1.414 . S
C1475 C1476 1.374 . S
C1476 H1450 0.950 . S
C1476 C1472 1.385 . S
C1476 C1475 1.374 . S
C1477 C1474 1.499 . S
C1477 C1478 1.373 . S
C1477 C1479 1.389 . S
C1478 H1451 0.950 . S
C1478 C1464 1.377 . S
C1478 C1477 1.373 . S
C1479 C1463 1.377 . S
C1479 C1477 1.389 . S
C1479 C1480 1.524 . S
C1480 C1479 1.524 . S
C1480 C1481 1.397 . S
C1480 C1485 1.363 . S
C1481 H1452 0.950 . S
C1481 C1480 1.397 . S
C1481 C1482 1.334 . S
C1482 H1453 0.950 . S
C1482 C1481 1.334 . S
C1482 C1483 1.287 . S
C1483 C1482 1.287 . S
C1483 C1484 1.524 . S
C1483 H1486 0.999 . S
C1484 H1454 0.950 . S
C1484 C1483 1.524 . S
C1484 C1485 1.415 . S
C1485 H1455 0.950 . S
C1485 C1480 1.363 . S
C1485 C1484 1.415 . S
H1486 C1483 0.999 . S
H1487 C1468 0.913 . S
H1488 C1506 0.951 . S
H1489 C1508 0.951 . S
H1490 C1510 0.950 . S
H1491 C1511 0.950 . S
H1492 C1513 0.950 . S
H1493 C1516 0.950 . S
H1494 C1517 0.950 . S
H1495 C1519 0.950 . S
H1496 C1520 0.950 . S
H1497 C1521 0.951 . S
H1498 C1523 0.951 . S
H1499 C1525 0.950 . S
H1500 C1526 0.950 . S
H1501 C1528 0.950 . S
H1502 C1531 0.950 . S
H1503 C1532 0.950 . S
H1504 C1534 0.950 . S
H1505 C1535 0.950 . S
C1506 H1488 0.951 . S
C1506 C1507 1.366 . S
C1506 C1508 1.388 . S
C1507 C1506 1.366 . S
C1507 C1511 1.385 . S
C1508 H1489 0.951 . S
C1508 C1506 1.388 . S
C1508 C1509 1.366 . S
C1509 C1508 1.366 . S
C1509 C1510 1.414 . S
C1509 C1512 1.499 . S
C1510 H1490 0.950 . S
C1510 C1509 1.414 . S
C1510 C1511 1.374 . S
C1511 H1491 0.950 . S
C1511 C1507 1.385 . S
C1511 C1510 1.374 . S
C1512 C1509 1.499 . S
C1512 C1513 1.373 . S
C1512 C1514 1.389 . S
C1513 H1492 0.950 . S
C1513 C1512 1.373 . S
C1513 C1529 1.377 . S
C1514 C1512 1.389 . S
C1514 C1515 1.524 . S
C1514 C1528 1.377 . S
C1515 C1514 1.524 . S
C1515 C1516 1.397 . S
C1515 C1520 1.363 . S
C1516 H1493 0.950 . S
C1516 C1515 1.397 . S
C1516 C1517 1.334 . S
C1517 H1494 0.950 . S
C1517 C1516 1.334 . S
C1517 C1518 1.287 . S
C1518 C1517 1.287 . S
C1518 C1519 1.524 . S
C1518 H1537 0.913 . S
C1519 H1495 0.950 . S
C1519 C1518 1.524 . S
C1519 C1520 1.415 . S
C1520 H1496 0.950 . S
C1520 C1515 1.363 . S
C1520 C1519 1.415 . S
C1521 H1497 0.951 . S
C1521 C1522 1.366 . S
C1521 C1523 1.388 . S
C1522 C1521 1.366 . S
C1522 C1526 1.385 . S
C1523 H1498 0.951 . S
C1523 C1521 1.388 . S
C1523 C1524 1.366 . S
C1524 C1523 1.366 . S
C1524 C1525 1.414 . S
C1524 C1527 1.499 . S
C1525 H1499 0.950 . S
C1525 C1524 1.414 . S
C1525 C1526 1.374 . S
C1526 H1500 0.950 . S
C1526 C1522 1.385 . S
C1526 C1525 1.374 . S
C1527 C1524 1.499 . S
C1527 C1528 1.373 . S
C1527 C1529 1.389 . S
C1528 H1501 0.950 . S
C1528 C1514 1.377 . S
C1528 C1527 1.373 . S
C1529 C1513 1.377 . S
C1529 C1527 1.389 . S
C1529 C1530 1.524 . S
C1530 C1529 1.524 . S
C1530 C1531 1.397 . S
C1530 C1535 1.363 . S
C1531 H1502 0.950 . S
C1531 C1530 1.397 . S
C1531 C1532 1.334 . S
C1532 H1503 0.950 . S
C1532 C1531 1.334 . S
C1532 C1533 1.287 . S
C1533 C1532 1.287 . S
C1533 C1534 1.524 . S
C1533 H1536 0.999 . S
C1534 H1504 0.950 . S
C1534 C1533 1.524 . S
C1534 C1535 1.415 . S
C1535 H1505 0.950 . S
C1535 C1530 1.363 . S
C1535 C1534 1.415 . S
H1536 C1533 0.999 . S
H1537 C1518 0.913 . S
H1538 C1556 0.951 . S
H1539 C1558 0.951 . S
H1540 C1560 0.950 . S
H1541 C1561 0.950 . S
H1542 C1563 0.950 . S
H1543 C1566 0.950 . S
H1544 C1567 0.950 . S
H1545 C1569 0.950 . S
H1546 C1570 0.950 . S
H1547 C1571 0.951 . S
H1548 C1573 0.951 . S
H1549 C1575 0.950 . S
H1550 C1576 0.950 . S
H1551 C1578 0.950 . S
H1552 C1581 0.950 . S
H1553 C1582 0.950 . S
H1554 C1584 0.950 . S
H1555 C1585 0.950 . S
C1556 H1538 0.951 . S
C1556 C1557 1.366 . S
C1556 C1558 1.388 . S
C1557 C1556 1.366 . S
C1557 C1561 1.385 . S
C1558 H1539 0.951 . S
C1558 C1556 1.388 . S
C1558 C1559 1.366 . S
C1559 C1558 1.366 . S
C1559 C1560 1.414 . S
C1559 C1562 1.499 . S
C1560 H1540 0.950 . S
C1560 C1559 1.414 . S
C1560 C1561 1.374 . S
C1561 H1541 0.950 . S
C1561 C1557 1.385 . S
C1561 C1560 1.374 . S
C1562 C1559 1.499 . S
C1562 C1563 1.373 . S
C1562 C1564 1.389 . S
C1563 H1542 0.950 . S
C1563 C1562 1.373 . S
C1563 C1579 1.377 . S
C1564 C1562 1.389 . S
C1564 C1565 1.524 . S
C1564 C1578 1.377 . S
C1565 C1564 1.524 . S
C1565 C1566 1.397 . S
C1565 C1570 1.363 . S
C1566 H1543 0.950 . S
C1566 C1565 1.397 . S
C1566 C1567 1.334 . S
C1567 H1544 0.950 . S
C1567 C1566 1.334 . S
C1567 C1568 1.287 . S
C1568 C1567 1.287 . S
C1568 C1569 1.524 . S
C1568 H1587 0.913 . S
C1569 H1545 0.950 . S
C1569 C1568 1.524 . S
C1569 C1570 1.415 . S
C1570 H1546 0.950 . S
C1570 C1565 1.363 . S
C1570 C1569 1.415 . S
C1571 H1547 0.951 . S
C1571 C1572 1.366 . S
C1571 C1573 1.388 . S
C1572 C1571 1.366 . S
C1572 C1576 1.385 . S
C1573 H1548 0.951 . S
C1573 C1571 1.388 . S
C1573 C1574 1.366 . S
C1574 C1573 1.366 . S
C1574 C1575 1.414 . S
C1574 C1577 1.499 . S
C1575 H1549 0.950 . S
C1575 C1574 1.414 . S
C1575 C1576 1.374 . S
C1576 H1550 0.950 . S
C1576 C1572 1.385 . S
C1576 C1575 1.374 . S
C1577 C1574 1.499 . S
C1577 C1578 1.373 . S
C1577 C1579 1.389 . S
C1578 H1551 0.950 . S
C1578 C1564 1.377 . S
C1578 C1577 1.373 . S
C1579 C1563 1.377 . S
C1579 C1577 1.389 . S
C1579 C1580 1.524 . S
C1580 C1579 1.524 . S
C1580 C1581 1.397 . S
C1580 C1585 1.363 . S
C1581 H1552 0.950 . S
C1581 C1580 1.397 . S
C1581 C1582 1.334 . S
C1582 H1553 0.950 . S
C1582 C1581 1.334 . S
C1582 C1583 1.287 . S
C1583 C1582 1.287 . S
C1583 C1584 1.524 . S
C1583 H1586 0.999 . S
C1584 H1554 0.950 . S
C1584 C1583 1.524 . S
C1584 C1585 1.415 . S
C1585 H1555 0.950 . S
C1585 C1580 1.363 . S
C1585 C1584 1.415 . S
H1586 C1583 0.999 . S
H1587 C1568 0.913 . S
H1588 C1606 0.951 . S
H1589 C1608 0.951 . S
H1590 C1610 0.950 . S
H1591 C1611 0.950 . S
H1592 C1613 0.950 . S
H1593 C1616 0.950 . S
H1594 C1617 0.950 . S
H1595 C1619 0.950 . S
H1596 C1620 0.950 . S
H1597 C1621 0.951 . S
H1598 C1623 0.951 . S
H1599 C1625 0.950 . S
H1600 C1626 0.950 . S
H1601 C1628 0.950 . S
H1602 C1631 0.950 . S
H1603 C1632 0.950 . S
H1604 C1634 0.950 . S
H1605 C1635 0.950 . S
C1606 H1588 0.951 . S
C1606 C1607 1.366 . S
C1606 C1608 1.388 . S
C1607 C1606 1.366 . S
C1607 C1611 1.385 . S
C1608 H1589 0.951 . S
C1608 C1606 1.388 . S
C1608 C1609 1.366 . S
C1609 C1608 1.366 . S
C1609 C1610 1.414 . S
C1609 C1612 1.499 . S
C1610 H1590 0.950 . S
C1610 C1609 1.414 . S
C1610 C1611 1.374 . S
C1611 H1591 0.950 . S
C1611 C1607 1.385 . S
C1611 C1610 1.374 . S
C1612 C1609 1.499 . S
C1612 C1613 1.373 . S
C1612 C1614 1.389 . S
C1613 H1592 0.950 . S
C1613 C1612 1.373 . S
C1613 C1629 1.377 . S
C1614 C1612 1.389 . S
C1614 C1615 1.524 . S
C1614 C1628 1.377 . S
C1615 C1614 1.524 . S
C1615 C1616 1.397 . S
C1615 C1620 1.363 . S
C1616 H1593 0.950 . S
C1616 C1615 1.397 . S
C1616 C1617 1.334 . S
C1617 H1594 0.950 . S
C1617 C1616 1.334 . S
C1617 C1618 1.287 . S
C1618 C1617 1.287 . S
C1618 C1619 1.524 . S
C1618 H1637 0.913 . S
C1619 H1595 0.950 . S
C1619 C1618 1.524 . S
C1619 C1620 1.415 . S
C1620 H1596 0.950 . S
C1620 C1615 1.363 . S
C1620 C1619 1.415 . S
C1621 H1597 0.951 . S
C1621 C1622 1.366 . S
C1621 C1623 1.388 . S
C1622 C1621 1.366 . S
C1622 C1626 1.385 . S
C1623 H1598 0.951 . S
C1623 C1621 1.388 . S
C1623 C1624 1.366 . S
C1624 C1623 1.366 . S
C1624 C1625 1.414 . S
C1624 C1627 1.499 . S
C1625 H1599 0.950 . S
C1625 C1624 1.414 . S
C1625 C1626 1.374 . S
C1626 H1600 0.950 . S
C1626 C1622 1.385 . S
C1626 C1625 1.374 . S
C1627 C1624 1.499 . S
C1627 C1628 1.373 . S
C1627 C1629 1.389 . S
C1628 H1601 0.950 . S
C1628 C1614 1.377 . S
C1628 C1627 1.373 . S
C1629 C1613 1.377 . S
C1629 C1627 1.389 . S
C1629 C1630 1.524 . S
C1630 C1629 1.524 . S
C1630 C1631 1.397 . S
C1630 C1635 1.363 . S
C1631 H1602 0.950 . S
C1631 C1630 1.397 . S
C1631 C1632 1.334 . S
C1632 H1603 0.950 . S
C1632 C1631 1.334 . S
C1632 C1633 1.287 . S
C1633 C1632 1.287 . S
C1633 C1634 1.524 . S
C1633 H1636 0.999 . S
C1634 H1604 0.950 . S
C1634 C1633 1.524 . S
C1634 C1635 1.415 . S
C1635 H1605 0.950 . S
C1635 C1630 1.363 . S
C1635 C1634 1.415 . S
H1636 C1633 0.999 . S
H1637 C1618 0.913 . S
H1638 C1656 0.951 . S
H1639 C1658 0.951 . S
H1640 C1660 0.950 . S
H1641 C1661 0.950 . S
H1642 C1663 0.950 . S
H1643 C1666 0.950 . S
H1644 C1667 0.950 . S
H1645 C1669 0.950 . S
H1646 C1670 0.950 . S
H1647 C1671 0.951 . S
H1648 C1673 0.951 . S
H1649 C1675 0.950 . S
H1650 C1676 0.950 . S
H1651 C1678 0.950 . S
H1652 C1681 0.950 . S
H1653 C1682 0.950 . S
H1654 C1684 0.950 . S
H1655 C1685 0.950 . S
C1656 H1638 0.951 . S
C1656 C1657 1.366 . S
C1656 C1658 1.388 . S
C1657 C1656 1.366 . S
C1657 C1661 1.385 . S
C1658 H1639 0.951 . S
C1658 C1656 1.388 . S
C1658 C1659 1.366 . S
C1659 C1658 1.366 . S
C1659 C1660 1.414 . S
C1659 C1662 1.499 . S
C1660 H1640 0.950 . S
C1660 C1659 1.414 . S
C1660 C1661 1.374 . S
C1661 H1641 0.950 . S
C1661 C1657 1.385 . S
C1661 C1660 1.374 . S
C1662 C1659 1.499 . S
C1662 C1663 1.373 . S
C1662 C1664 1.389 . S
C1663 H1642 0.950 . S
C1663 C1662 1.373 . S
C1663 C1679 1.377 . S
C1664 C1662 1.389 . S
C1664 C1665 1.524 . S
C1664 C1678 1.377 . S
C1665 C1664 1.524 . S
C1665 C1666 1.397 . S
C1665 C1670 1.363 . S
C1666 H1643 0.950 . S
C1666 C1665 1.397 . S
C1666 C1667 1.334 . S
C1667 H1644 0.950 . S
C1667 C1666 1.334 . S
C1667 C1668 1.287 . S
C1668 C1667 1.287 . S
C1668 C1669 1.524 . S
C1668 H1687 0.913 . S
C1669 H1645 0.950 . S
C1669 C1668 1.524 . S
C1669 C1670 1.415 . S
C1670 H1646 0.950 . S
C1670 C1665 1.363 . S
C1670 C1669 1.415 . S
C1671 H1647 0.951 . S
C1671 C1672 1.366 . S
C1671 C1673 1.388 . S
C1672 C1671 1.366 . S
C1672 C1676 1.385 . S
C1673 H1648 0.951 . S
C1673 C1671 1.388 . S
C1673 C1674 1.366 . S
C1674 C1673 1.366 . S
C1674 C1675 1.414 . S
C1674 C1677 1.499 . S
C1675 H1649 0.950 . S
C1675 C1674 1.414 . S
C1675 C1676 1.374 . S
C1676 H1650 0.950 . S
C1676 C1672 1.385 . S
C1676 C1675 1.374 . S
C1677 C1674 1.499 . S
C1677 C1678 1.373 . S
C1677 C1679 1.389 . S
C1678 H1651 0.950 . S
C1678 C1664 1.377 . S
C1678 C1677 1.373 . S
C1679 C1663 1.377 . S
C1679 C1677 1.389 . S
C1679 C1680 1.524 . S
C1680 C1679 1.524 . S
C1680 C1681 1.397 . S
C1680 C1685 1.363 . S
C1681 H1652 0.950 . S
C1681 C1680 1.397 . S
C1681 C1682 1.334 . S
C1682 H1653 0.950 . S
C1682 C1681 1.334 . S
C1682 C1683 1.287 . S
C1683 C1682 1.287 . S
C1683 C1684 1.524 . S
C1683 H1686 0.999 . S
C1684 H1654 0.950 . S
C1684 C1683 1.524 . S
C1684 C1685 1.415 . S
C1685 H1655 0.950 . S
C1685 C1680 1.363 . S
C1685 C1684 1.415 . S
H1686 C1683 0.999 . S
H1687 C1668 0.913 . S
H1688 C1706 0.951 . S
H1689 C1708 0.951 . S
H1690 C1710 0.950 . S
H1691 C1711 0.950 . S
H1692 C1713 0.950 . S
H1693 C1716 0.950 . S
H1694 C1717 0.950 . S
H1695 C1719 0.950 . S
H1696 C1720 0.950 . S
H1697 C1721 0.951 . S
H1698 C1723 0.951 . S
H1699 C1725 0.950 . S
H1700 C1726 0.950 . S
H1701 C1728 0.950 . S
H1702 C1731 0.950 . S
H1703 C1732 0.950 . S
H1704 C1734 0.950 . S
H1705 C1735 0.950 . S
C1706 H1688 0.951 . S
C1706 C1707 1.366 . S
C1706 C1708 1.388 . S
C1707 C1706 1.366 . S
C1707 C1711 1.385 . S
C1708 H1689 0.951 . S
C1708 C1706 1.388 . S
C1708 C1709 1.366 . S
C1709 C1708 1.366 . S
C1709 C1710 1.414 . S
C1709 C1712 1.499 . S
C1710 H1690 0.950 . S
C1710 C1709 1.414 . S
C1710 C1711 1.374 . S
C1711 H1691 0.950 . S
C1711 C1707 1.385 . S
C1711 C1710 1.374 . S
C1712 C1709 1.499 . S
C1712 C1713 1.373 . S
C1712 C1714 1.389 . S
C1713 H1692 0.950 . S
C1713 C1712 1.373 . S
C1713 C1729 1.377 . S
C1714 C1712 1.389 . S
C1714 C1715 1.524 . S
C1714 C1728 1.377 . S
C1715 C1714 1.524 . S
C1715 C1716 1.397 . S
C1715 C1720 1.363 . S
C1716 H1693 0.950 . S
C1716 C1715 1.397 . S
C1716 C1717 1.334 . S
C1717 H1694 0.950 . S
C1717 C1716 1.334 . S
C1717 C1718 1.287 . S
C1718 C1717 1.287 . S
C1718 C1719 1.524 . S
C1718 H1737 0.913 . S
C1719 H1695 0.950 . S
C1719 C1718 1.524 . S
C1719 C1720 1.415 . S
C1720 H1696 0.950 . S
C1720 C1715 1.363 . S
C1720 C1719 1.415 . S
C1721 H1697 0.951 . S
C1721 C1722 1.366 . S
C1721 C1723 1.388 . S
C1722 C1721 1.366 . S
C1722 C1726 1.385 . S
C1723 H1698 0.951 . S
C1723 C1721 1.388 . S
C1723 C1724 1.366 . S
C1724 C1723 1.366 . S
C1724 C1725 1.414 . S
C1724 C1727 1.499 . S
C1725 H1699 0.950 . S
C1725 C1724 1.414 . S
C1725 C1726 1.374 . S
C1726 H1700 0.950 . S
C1726 C1722 1.385 . S
C1726 C1725 1.374 . S
C1727 C1724 1.499 . S
C1727 C1728 1.373 . S
C1727 C1729 1.389 . S
C1728 H1701 0.950 . S
C1728 C1714 1.377 . S
C1728 C1727 1.373 . S
C1729 C1713 1.377 . S
C1729 C1727 1.389 . S
C1729 C1730 1.524 . S
C1730 C1729 1.524 . S
C1730 C1731 1.397 . S
C1730 C1735 1.363 . S
C1731 H1702 0.950 . S
C1731 C1730 1.397 . S
C1731 C1732 1.334 . S
C1732 H1703 0.950 . S
C1732 C1731 1.334 . S
C1732 C1733 1.287 . S
C1733 C1732 1.287 . S
C1733 C1734 1.524 . S
C1733 H1736 0.999 . S
C1734 H1704 0.950 . S
C1734 C1733 1.524 . S
C1734 C1735 1.415 . S
C1735 H1705 0.950 . S
C1735 C1730 1.363 . S
C1735 C1734 1.415 . S
H1736 C1733 0.999 . S
H1737 C1718 0.913 . S
H1738 C1756 0.951 . S
H1739 C1758 0.951 . S
H1740 C1760 0.950 . S
H1741 C1761 0.950 . S
H1742 C1763 0.950 . S
H1743 C1766 0.950 . S
H1744 C1767 0.950 . S
H1745 C1769 0.950 . S
H1746 C1770 0.950 . S
H1747 C1771 0.951 . S
H1748 C1773 0.951 . S
H1749 C1775 0.950 . S
H1750 C1776 0.950 . S
H1751 C1778 0.950 . S
H1752 C1781 0.950 . S
H1753 C1782 0.950 . S
H1754 C1784 0.950 . S
H1755 C1785 0.950 . S
C1756 H1738 0.951 . S
C1756 C1757 1.366 . S
C1756 C1758 1.388 . S
C1757 C1756 1.366 . S
C1757 C1761 1.385 . S
C1758 H1739 0.951 . S
C1758 C1756 1.388 . S
C1758 C1759 1.366 . S
C1759 C1758 1.366 . S
C1759 C1760 1.414 . S
C1759 C1762 1.499 . S
C1760 H1740 0.950 . S
C1760 C1759 1.414 . S
C1760 C1761 1.374 . S
C1761 H1741 0.950 . S
C1761 C1757 1.385 . S
C1761 C1760 1.374 . S
C1762 C1759 1.499 . S
C1762 C1763 1.373 . S
C1762 C1764 1.389 . S
C1763 H1742 0.950 . S
C1763 C1762 1.373 . S
C1763 C1779 1.377 . S
C1764 C1762 1.389 . S
C1764 C1765 1.524 . S
C1764 C1778 1.377 . S
C1765 C1764 1.524 . S
C1765 C1766 1.397 . S
C1765 C1770 1.363 . S
C1766 H1743 0.950 . S
C1766 C1765 1.397 . S
C1766 C1767 1.334 . S
C1767 H1744 0.950 . S
C1767 C1766 1.334 . S
C1767 C1768 1.287 . S
C1768 C1767 1.287 . S
C1768 C1769 1.524 . S
C1768 H1787 0.913 . S
C1769 H1745 0.950 . S
C1769 C1768 1.524 . S
C1769 C1770 1.415 . S
C1770 H1746 0.950 . S
C1770 C1765 1.363 . S
C1770 C1769 1.415 . S
C1771 H1747 0.951 . S
C1771 C1772 1.366 . S
C1771 C1773 1.388 . S
C1772 C1771 1.366 . S
C1772 C1776 1.385 . S
C1773 H1748 0.951 . S
C1773 C1771 1.388 . S
C1773 C1774 1.366 . S
C1774 C1773 1.366 . S
C1774 C1775 1.414 . S
C1774 C1777 1.499 . S
C1775 H1749 0.950 . S
C1775 C1774 1.414 . S
C1775 C1776 1.374 . S
C1776 H1750 0.950 . S
C1776 C1772 1.385 . S
C1776 C1775 1.374 . S
C1777 C1774 1.499 . S
C1777 C1778 1.373 . S
C1777 C1779 1.389 . S
C1778 H1751 0.950 . S
C1778 C1764 1.377 . S
C1778 C1777 1.373 . S
C1779 C1763 1.377 . S
C1779 C1777 1.389 . S
C1779 C1780 1.524 . S
C1780 C1779 1.524 . S
C1780 C1781 1.397 . S
C1780 C1785 1.363 . S
C1781 H1752 0.950 . S
C1781 C1780 1.397 . S
C1781 C1782 1.334 . S
C1782 H1753 0.950 . S
C1782 C1781 1.334 . S
C1782 C1783 1.287 . S
C1783 C1782 1.287 . S
C1783 C1784 1.524 . S
C1783 H1786 0.999 . S
C1784 H1754 0.950 . S
C1784 C1783 1.524 . S
C1784 C1785 1.415 . S
C1785 H1755 0.950 . S
C1785 C1780 1.363 . S
C1785 C1784 1.415 . S
H1786 C1783 0.999 . S
H1787 C1768 0.913 . S
H1788 C1806 0.951 . S
H1789 C1808 0.951 . S
H1790 C1810 0.950 . S
H1791 C1811 0.950 . S
H1792 C1813 0.950 . S
H1793 C1816 0.950 . S
H1794 C1817 0.950 . S
H1795 C1819 0.950 . S
H1796 C1820 0.950 . S
H1797 C1821 0.951 . S
H1798 C1823 0.951 . S
H1799 C1825 0.950 . S
H1800 C1826 0.950 . S
H1801 C1828 0.950 . S
H1802 C1831 0.950 . S
H1803 C1832 0.950 . S
H1804 C1834 0.950 . S
H1805 C1835 0.950 . S
C1806 H1788 0.951 . S
C1806 C1807 1.366 . S
C1806 C1808 1.388 . S
C1807 C1806 1.366 . S
C1807 C1811 1.385 . S
C1808 H1789 0.951 . S
C1808 C1806 1.388 . S
C1808 C1809 1.366 . S
C1809 C1808 1.366 . S
C1809 C1810 1.414 . S
C1809 C1812 1.499 . S
C1810 H1790 0.950 . S
C1810 C1809 1.414 . S
C1810 C1811 1.374 . S
C1811 H1791 0.950 . S
C1811 C1807 1.385 . S
C1811 C1810 1.374 . S
C1812 C1809 1.499 . S
C1812 C1813 1.373 . S
C1812 C1814 1.389 . S
C1813 H1792 0.950 . S
C1813 C1812 1.373 . S
C1813 C1829 1.377 . S
C1814 C1812 1.389 . S
C1814 C1815 1.524 . S
C1814 C1828 1.377 . S
C1815 C1814 1.524 . S
C1815 C1816 1.397 . S
C1815 C1820 1.363 . S
C1816 H1793 0.950 . S
C1816 C1815 1.397 . S
C1816 C1817 1.334 . S
C1817 H1794 0.950 . S
C1817 C1816 1.334 . S
C1817 C1818 1.287 . S
C1818 C1817 1.287 . S
C1818 C1819 1.524 . S
C1818 H1837 0.913 . S
C1819 H1795 0.950 . S
C1819 C1818 1.524 . S
C1819 C1820 1.415 . S
C1820 H1796 0.950 . S
C1820 C1815 1.363 . S
C1820 C1819 1.415 . S
C1821 H1797 0.951 . S
C1821 C1822 1.366 . S
C1821 C1823 1.388 . S
C1822 C1821 1.366 . S
C1822 C1826 1.385 . S
C1823 H1798 0.951 . S
C1823 C1821 1.388 . S
C1823 C1824 1.366 . S
C1824 C1823 1.366 . S
C1824 C1825 1.414 . S
C1824 C1827 1.499 . S
C1825 H1799 0.950 . S
C1825 C1824 1.414 . S
C1825 C1826 1.374 . S
C1826 H1800 0.950 . S
C1826 C1822 1.385 . S
C1826 C1825 1.374 . S
C1827 C1824 1.499 . S
C1827 C1828 1.373 . S
C1827 C1829 1.389 . S
C1828 H1801 0.950 . S
C1828 C1814 1.377 . S
C1828 C1827 1.373 . S
C1829 C1813 1.377 . S
C1829 C1827 1.389 . S
C1829 C1830 1.524 . S
C1830 C1829 1.524 . S
C1830 C1831 1.397 . S
C1830 C1835 1.363 . S
C1831 H1802 0.950 . S
C1831 C1830 1.397 . S
C1831 C1832 1.334 . S
C1832 H1803 0.950 . S
C1832 C1831 1.334 . S
C1832 C1833 1.287 . S
C1833 C1832 1.287 . S
C1833 C1834 1.524 . S
C1833 H1836 0.999 . S
C1834 H1804 0.950 . S
C1834 C1833 1.524 . S
C1834 C1835 1.415 . S
C1835 H1805 0.950 . S
C1835 C1830 1.363 . S
C1835 C1834 1.415 . S
H1836 C1833 0.999 . S
H1837 C1818 0.913 . S
H1838 C1856 0.951 . S
H1839 C1858 0.951 . S
H1840 C1860 0.950 . S
H1841 C1861 0.950 . S
H1842 C1863 0.950 . S
H1843 C1866 0.950 . S
H1844 C1867 0.950 . S
H1845 C1869 0.950 . S
H1846 C1870 0.950 . S
H1847 C1871 0.951 . S
H1848 C1873 0.951 . S
H1849 C1875 0.950 . S
H1850 C1876 0.950 . S
H1851 C1878 0.950 . S
H1852 C1881 0.950 . S
H1853 C1882 0.950 . S
H1854 C1884 0.950 . S
H1855 C1885 0.950 . S
C1856 H1838 0.951 . S
C1856 C1857 1.366 . S
C1856 C1858 1.388 . S
C1857 C1856 1.366 . S
C1857 C1861 1.385 . S
C1858 H1839 0.951 . S
C1858 C1856 1.388 . S
C1858 C1859 1.366 . S
C1859 C1858 1.366 . S
C1859 C1860 1.414 . S
C1859 C1862 1.499 . S
C1860 H1840 0.950 . S
C1860 C1859 1.414 . S
C1860 C1861 1.374 . S
C1861 H1841 0.950 . S
C1861 C1857 1.385 . S
C1861 C1860 1.374 . S
C1862 C1859 1.499 . S
C1862 C1863 1.373 . S
C1862 C1864 1.389 . S
C1863 H1842 0.950 . S
C1863 C1862 1.373 . S
C1863 C1879 1.377 . S
C1864 C1862 1.389 . S
C1864 C1865 1.524 . S
C1864 C1878 1.377 . S
C1865 C1864 1.524 . S
C1865 C1866 1.397 . S
C1865 C1870 1.363 . S
C1866 H1843 0.950 . S
C1866 C1865 1.397 . S
C1866 C1867 1.334 . S
C1867 H1844 0.950 . S
C1867 C1866 1.334 . S
C1867 C1868 1.287 . S
C1868 C1867 1.287 . S
C1868 C1869 1.524 . S
C1868 H1887 0.913 . S
C1869 H1845 0.950 . S
C1869 C1868 1.524 . S
C1869 C1870 1.415 . S
C1870 H1846 0.950 . S
C1870 C1865 1.363 . S
C1870 C1869 1.415 . S
C1871 H1847 0.951 . S
C1871 C1872 1.366 . S
C1871 C1873 1.388 . S
C1872 C1871 1.366 . S
C1872 C1876 1.385 . S
C1873 H1848 0.951 . S
C1873 C1871 1.388 . S
C1873 C1874 1.366 . S
C1874 C1873 1.366 . S
C1874 C1875 1.414 . S
C1874 C1877 1.499 . S
C1875 H1849 0.950 . S
C1875 C1874 1.414 . S
C1875 C1876 1.374 . S
C1876 H1850 0.950 . S
C1876 C1872 1.385 . S
C1876 C1875 1.374 . S
C1877 C1874 1.499 . S
C1877 C1878 1.373 . S
C1877 C1879 1.389 . S
C1878 H1851 0.950 . S
C1878 C1864 1.377 . S
C1878 C1877 1.373 . S
C1879 C1863 1.377 . S
C1879 C1877 1.389 . S
C1879 C1880 1.524 . S
C1880 C1879 1.524 . S
C1880 C1881 1.397 . S
C1880 C1885 1.363 . S
C1881 H1852 0.950 . S
C1881 C1880 1.397 . S
C1881 C1882 1.334 . S
C1882 H1853 0.950 . S
C1882 C1881 1.334 . S
C1882 C1883 1.287 . S
C1883 C1882 1.287 . S
C1883 C1884 1.524 . S
C1883 H1886 0.999 . S
C1884 H1854 0.950 . S
C1884 C1883 1.524 . S
C1884 C1885 1.415 . S
C1885 H1855 0.950 . S
C1885 C1880 1.363 . S
C1885 C1884 1.415 . S
H1886 C1883 0.999 . S
H1887 C1868 0.913 . S
H1888 C1906 0.951 . S
H1889 C1908 0.951 . S
H1890 C1910 0.950 . S
H1891 C1911 0.950 . S
H1892 C1913 0.950 . S
H1893 C1916 0.950 . S
H1894 C1917 0.950 . S
H1895 C1919 0.950 . S
H1896 C1920 0.950 . S
H1897 C1921 0.951 . S
H1898 C1923 0.951 . S
H1899 C1925 0.950 . S
H1900 C1926 0.950 . S
H1901 C1928 0.950 . S
H1902 C1931 0.950 . S
H1903 C1932 0.950 . S
H1904 C1934 0.950 . S
H1905 C1935 0.950 . S
C1906 H1888 0.951 . S
C1906 C1907 1.366 . S
C1906 C1908 1.388 . S
C1907 C1906 1.366 . S
C1907 C1911 1.385 . S
C1908 H1889 0.951 . S
C1908 C1906 1.388 . S
C1908 C1909 1.366 . S
C1909 C1908 1.366 . S
C1909 C1910 1.414 . S
C1909 C1912 1.499 . S
C1910 H1890 0.950 . S
C1910 C1909 1.414 . S
C1910 C1911 1.374 . S
C1911 H1891 0.950 . S
C1911 C1907 1.385 . S
C1911 C1910 1.374 . S
C1912 C1909 1.499 . S
C1912 C1913 1.373 . S
C1912 C1914 1.389 . S
C1913 H1892 0.950 . S
C1913 C1912 1.373 . S
C1913 C1929 1.377 . S
C1914 C1912 1.389 . S
C1914 C1915 1.524 . S
C1914 C1928 1.377 . S
C1915 C1914 1.524 . S
C1915 C1916 1.397 . S
C1915 C1920 1.363 . S
C1916 H1893 0.950 . S
C1916 C1915 1.397 . S
C1916 C1917 1.334 . S
C1917 H1894 0.950 . S
C1917 C1916 1.334 . S
C1917 C1918 1.287 . S
C1918 C1917 1.287 . S
C1918 C1919 1.524 . S
C1918 H1937 0.913 . S
C1919 H1895 0.950 . S
C1919 C1918 1.524 . S
C1919 C1920 1.415 . S
C1920 H1896 0.950 . S
C1920 C1915 1.363 . S
C1920 C1919 1.415 . S
C1921 H1897 0.951 . S
C1921 C1922 1.366 . S
C1921 C1923 1.388 . S
C1922 C1921 1.366 . S
C1922 C1926 1.385 . S
C1923 H1898 0.951 . S
C1923 C1921 1.388 . S
C1923 C1924 1.366 . S
C1924 C1923 1.366 . S
C1924 C1925 1.414 . S
C1924 C1927 1.499 . S
C1925 H1899 0.950 . S
C1925 C1924 1.414 . S
C1925 C1926 1.374 . S
C1926 H1900 0.950 . S
C1926 C1922 1.385 . S
C1926 C1925 1.374 . S
C1927 C1924 1.499 . S
C1927 C1928 1.373 . S
C1927 C1929 1.389 . S
C1928 H1901 0.950 . S
C1928 C1914 1.377 . S
C1928 C1927 1.373 . S
C1929 C1913 1.377 . S
C1929 C1927 1.389 . S
C1929 C1930 1.524 . S
C1930 C1929 1.524 . S
C1930 C1931 1.397 . S
C1930 C1935 1.363 . S
C1931 H1902 0.950 . S
C1931 C1930 1.397 . S
C1931 C1932 1.334 . S
C1932 H1903 0.950 . S
C1932 C1931 1.334 . S
C1932 C1933 1.287 . S
C1933 C1932 1.287 . S
C1933 C1934 1.524 . S
C1933 H1936 0.999 . S
C1934 H1904 0.950 . S
C1934 C1933 1.524 . S
C1934 C1935 1.415 . S
C1935 H1905 0.950 . S
C1935 C1930 1.363 . S
C1935 C1934 1.415 . S
H1936 C1933 0.999 . S
H1937 C1918 0.913 . S
H1938 C1956 0.951 . S
H1939 C1958 0.951 . S
H1940 C1960 0.950 . S
H1941 C1961 0.950 . S
H1942 C1963 0.950 . S
H1943 C1966 0.950 . S
H1944 C1967 0.950 . S
H1945 C1969 0.950 . S
H1946 C1970 0.950 . S
H1947 C1971 0.951 . S
H1948 C1973 0.951 . S
H1949 C1975 0.950 . S
H1950 C1976 0.950 . S
H1951 C1978 0.950 . S
H1952 C1981 0.950 . S
H1953 C1982 0.950 . S
H1954 C1984 0.950 . S
H1955 C1985 0.950 . S
C1956 H1938 0.951 . S
C1956 C1957 1.366 . S
C1956 C1958 1.388 . S
C1957 C1956 1.366 . S
C1957 C1961 1.385 . S
C1958 H1939 0.951 . S
C1958 C1956 1.388 . S
C1958 C1959 1.366 . S
C1959 C1958 1.366 . S
C1959 C1960 1.414 . S
C1959 C1962 1.499 . S
C1960 H1940 0.950 . S
C1960 C1959 1.414 . S
C1960 C1961 1.374 . S
C1961 H1941 0.950 . S
C1961 C1957 1.385 . S
C1961 C1960 1.374 . S
C1962 C1959 1.499 . S
C1962 C1963 1.373 . S
C1962 C1964 1.389 . S
C1963 H1942 0.950 . S
C1963 C1962 1.373 . S
C1963 C1979 1.377 . S
C1964 C1962 1.389 . S
C1964 C1965 1.524 . S
C1964 C1978 1.377 . S
C1965 C1964 1.524 . S
C1965 C1966 1.397 . S
C1965 C1970 1.363 . S
C1966 H1943 0.950 . S
C1966 C1965 1.397 . S
C1966 C1967 1.334 . S
C1967 H1944 0.950 . S
C1967 C1966 1.334 . S
C1967 C1968 1.287 . S
C1968 C1967 1.287 . S
C1968 C1969 1.524 . S
C1968 H1987 0.913 . S
C1969 H1945 0.950 . S
C1969 C1968 1.524 . S
C1969 C1970 1.415 . S
C1970 H1946 0.950 . S
C1970 C1965 1.363 . S
C1970 C1969 1.415 . S
C1971 H1947 0.951 . S
C1971 C1972 1.366 . S
C1971 C1973 1.388 . S
C1972 C1971 1.366 . S
C1972 C1976 1.385 . S
C1973 H1948 0.951 . S
C1973 C1971 1.388 . S
C1973 C1974 1.366 . S
C1974 C1973 1.366 . S
C1974 C1975 1.414 . S
C1974 C1977 1.499 . S
C1975 H1949 0.950 . S
C1975 C1974 1.414 . S
C1975 C1976 1.374 . S
C1976 H1950 0.950 . S
C1976 C1972 1.385 . S
C1976 C1975 1.374 . S
C1977 C1974 1.499 . S
C1977 C1978 1.373 . S
C1977 C1979 1.389 . S
C1978 H1951 0.950 . S
C1978 C1964 1.377 . S
C1978 C1977 1.373 . S
C1979 C1963 1.377 . S
C1979 C1977 1.389 . S
C1979 C1980 1.524 . S
C1980 C1979 1.524 . S
C1980 C1981 1.397 . S
C1980 C1985 1.363 . S
C1981 H1952 0.950 . S
C1981 C1980 1.397 . S
C1981 C1982 1.334 . S
C1982 H1953 0.950 . S
C1982 C1981 1.334 . S
C1982 C1983 1.287 . S
C1983 C1982 1.287 . S
C1983 C1984 1.524 . S
C1983 H1986 0.999 . S
C1984 H1954 0.950 . S
C1984 C1983 1.524 . S
C1984 C1985 1.415 . S
C1985 H1955 0.950 . S
C1985 C1980 1.363 . S
C1985 C1984 1.415 . S
H1986 C1983 0.999 . S
H1987 C1968 0.913 . S
H1988 C2006 0.951 . S
H1989 C2008 0.951 . S
H1990 C2010 0.950 . S
H1991 C2011 0.950 . S
H1992 C2013 0.950 . S
H1993 C2016 0.950 . S
H1994 C2017 0.950 . S
H1995 C2019 0.950 . S
H1996 C2020 0.950 . S
H1997 C2021 0.951 . S
H1998 C2023 0.951 . S
H1999 C2025 0.950 . S
H2000 C2026 0.950 . S
H2001 C2028 0.950 . S
H2002 C2031 0.950 . S
H2003 C2032 0.950 . S
H2004 C2034 0.950 . S
H2005 C2035 0.950 . S
C2006 H1988 0.951 . S
C2006 C2007 1.366 . S
C2006 C2008 1.388 . S
C2007 C2006 1.366 . S
C2007 C2011 1.385 . S
C2008 H1989 0.951 . S
C2008 C2006 1.388 . S
C2008 C2009 1.366 . S
C2009 C2008 1.366 . S
C2009 C2010 1.414 . S
C2009 C2012 1.499 . S
C2010 H1990 0.950 . S
C2010 C2009 1.414 . S
C2010 C2011 1.374 . S
C2011 H1991 0.950 . S
C2011 C2007 1.385 . S
C2011 C2010 1.374 . S
C2012 C2009 1.499 . S
C2012 C2013 1.373 . S
C2012 C2014 1.389 . S
C2013 H1992 0.950 . S
C2013 C2012 1.373 . S
C2013 C2029 1.377 . S
C2014 C2012 1.389 . S
C2014 C2015 1.524 . S
C2014 C2028 1.377 . S
C2015 C2014 1.524 . S
C2015 C2016 1.397 . S
C2015 C2020 1.363 . S
C2016 H1993 0.950 . S
C2016 C2015 1.397 . S
C2016 C2017 1.334 . S
C2017 H1994 0.950 . S
C2017 C2016 1.334 . S
C2017 C2018 1.287 . S
C2018 C2017 1.287 . S
C2018 C2019 1.524 . S
C2018 H2037 0.913 . S
C2019 H1995 0.950 . S
C2019 C2018 1.524 . S
C2019 C2020 1.415 . S
C2020 H1996 0.950 . S
C2020 C2015 1.363 . S
C2020 C2019 1.415 . S
C2021 H1997 0.951 . S
C2021 C2022 1.366 . S
C2021 C2023 1.388 . S
C2022 C2021 1.366 . S
C2022 C2026 1.385 . S
C2023 H1998 0.951 . S
C2023 C2021 1.388 . S
C2023 C2024 1.366 . S
C2024 C2023 1.366 . S
C2024 C2025 1.414 . S
C2024 C2027 1.499 . S
C2025 H1999 0.950 . S
C2025 C2024 1.414 . S
C2025 C2026 1.374 . S
C2026 H2000 0.950 . S
C2026 C2022 1.385 . S
C2026 C2025 1.374 . S
C2027 C2024 1.499 . S
C2027 C2028 1.373 . S
C2027 C2029 1.389 . S
C2028 H2001 0.950 . S
C2028 C2014 1.377 . S
C2028 C2027 1.373 . S
C2029 C2013 1.377 . S
C2029 C2027 1.389 . S
C2029 C2030 1.524 . S
C2030 C2029 1.524 . S
C2030 C2031 1.397 . S
C2030 C2035 1.363 . S
C2031 H2002 0.950 . S
C2031 C2030 1.397 . S
C2031 C2032 1.334 . S
C2032 H2003 0.950 . S
C2032 C2031 1.334 . S
C2032 C2033 1.287 . S
C2033 C2032 1.287 . S
C2033 C2034 1.524 . S
C2033 H2036 0.999 . S
C2034 H2004 0.950 . S
C2034 C2033 1.524 . S
C2034 C2035 1.415 . S
C2035 H2005 0.950 . S
C2035 C2030 1.363 . S
C2035 C2034 1.415 . S
H2036 C2033 0.999 . S
H2037 C2018 0.913 . S
H2038 C2056 0.951 . S
H2039 C2058 0.951 . S
H2040 C2060 0.950 . S
H2041 C2061 0.950 . S
H2042 C2063 0.950 . S
H2043 C2066 0.950 . S
H2044 C2067 0.950 . S
H2045 C2069 0.950 . S
H2046 C2070 0.950 . S
H2047 C2071 0.951 . S
H2048 C2073 0.951 . S
H2049 C2075 0.950 . S
H2050 C2076 0.950 . S
H2051 C2078 0.950 . S
H2052 C2081 0.950 . S
H2053 C2082 0.950 . S
H2054 C2084 0.950 . S
H2055 C2085 0.950 . S
C2056 H2038 0.951 . S
C2056 C2057 1.366 . S
C2056 C2058 1.388 . S
C2057 C2056 1.366 . S
C2057 C2061 1.385 . S
C2058 H2039 0.951 . S
C2058 C2056 1.388 . S
C2058 C2059 1.366 . S
C2059 C2058 1.366 . S
C2059 C2060 1.414 . S
C2059 C2062 1.499 . S
C2060 H2040 0.950 . S
C2060 C2059 1.414 . S
C2060 C2061 1.374 . S
C2061 H2041 0.950 . S
C2061 C2057 1.385 . S
C2061 C2060 1.374 . S
C2062 C2059 1.499 . S
C2062 C2063 1.373 . S
C2062 C2064 1.389 . S
C2063 H2042 0.950 . S
C2063 C2062 1.373 . S
C2063 C2079 1.377 . S
C2064 C2062 1.389 . S
C2064 C2065 1.524 . S
C2064 C2078 1.377 . S
C2065 C2064 1.524 . S
C2065 C2066 1.397 . S
C2065 C2070 1.363 . S
C2066 H2043 0.950 . S
C2066 C2065 1.397 . S
C2066 C2067 1.334 . S
C2067 H2044 0.950 . S
C2067 C2066 1.334 . S
C2067 C2068 1.287 . S
C2068 C2067 1.287 . S
C2068 C2069 1.524 . S
C2068 H2087 0.913 . S
C2069 H2045 0.950 . S
C2069 C2068 1.524 . S
C2069 C2070 1.415 . S
C2070 H2046 0.950 . S
C2070 C2065 1.363 . S
C2070 C2069 1.415 . S
C2071 H2047 0.951 . S
C2071 C2072 1.366 . S
C2071 C2073 1.388 . S
C2072 C2071 1.366 . S
C2072 C2076 1.385 . S
C2073 H2048 0.951 . S
C2073 C2071 1.388 . S
C2073 C2074 1.366 . S
C2074 C2073 1.366 . S
C2074 C2075 1.414 . S
C2074 C2077 1.499 . S
C2075 H2049 0.950 . S
C2075 C2074 1.414 . S
C2075 C2076 1.374 . S
C2076 H2050 0.950 . S
C2076 C2072 1.385 . S
C2076 C2075 1.374 . S
C2077 C2074 1.499 . S
C2077 C2078 1.373 . S
C2077 C2079 1.389 . S
C2078 H2051 0.950 . S
C2078 C2064 1.377 . S
C2078 C2077 1.373 . S
C2079 C2063 1.377 . S
C2079 C2077 1.389 . S
C2079 C2080 1.524 . S
C2080 C2079 1.524 . S
C2080 C2081 1.397 . S
C2080 C2085 1.363 . S
C2081 H2052 0.950 . S
C2081 C2080 1.397 . S
C2081 C2082 1.334 . S
C2082 H2053 0.950 . S
C2082 C2081 1.334 . S
C2082 C2083 1.287 . S
C2083 C2082 1.287 . S
C2083 C2084 1.524 . S
C2083 H2086 0.999 . S
C2084 H2054 0.950 . S
C2084 C2083 1.524 . S
C2084 C2085 1.415 . S
C2085 H2055 0.950 . S
C2085 C2080 1.363 . S
C2085 C2084 1.415 . S
H2086 C2083 0.999 . S
H2087 C2068 0.913 . S
C522 C397 1.256 . S
C507 C36 1.289 . S
C572 C415 1.233 . S
C557 C93 1.293 . S
C622 C423 1.256 . S
C607 C126 1.292 . S
C657 C165 1.278 . S
C672 C389 1.234 . S
C707 C222 1.292 . S
C722 C384 1.251 1_556 S
C757 C261 1.278 . S
C772 C402 1.234 . S
C822 C410 1.254 . S
C807 C318 1.292 . S
C872 C428 1.234 . S
C857 C381 1.294 . S
C907 C132 1.286 . S
C922 C449 1.254 . S
C972 C467 1.235 . S
C957 C189 1.293 . S
C1007 C30 1.291 . S
C1022 C475 1.254 . S
C1072 C441 1.235 . S
C1057 C69 1.278 . S
C1107 C324 1.286 . S
C1122 C436 1.254 . S
C1157 C357 1.278 . S
C1172 C454 1.234 . S
C1222 C462 1.250 1_556 S
C1207 C228 1.286 . S
C1257 C285 1.294 . S
C1272 C480 1.234 . S
C1322 C418 1.501 . S
C1307 C45 1.496 . S
C1372 C433 1.474 . S
C1357 C84 1.504 . S
C1407 C117 1.494 . S
C1422 C392 1.502 . S
C1457 C174 1.477 . S
C1472 C407 1.473 . S
C1507 C213 1.495 . S
C1522 C431 1.502 . S
C1572 C394 1.473 . S
C1557 C270 1.477 . S
C1622 C405 1.503 . S
C1607 C309 1.494 . S
C1672 C420 1.473 . S
C1657 C372 1.504 . S
C1722 C470 1.502 . S
C1707 C141 1.493 . S
C1772 C485 1.473 . S
C1757 C180 1.503 . S
C1807 C21 1.495 . S
C1822 C444 1.500 . S
C1872 C459 1.473 . S
C1857 C78 1.476 . S
C1922 C483 1.501 . S
C1907 C333 1.493 . S
C1957 C366 1.477 . S
C1972 C446 1.473 . S
C2022 C457 1.501 . S
C2007 C237 1.493 . S
C2072 C472 1.473 . S
C2057 C276 1.503 . S
