# Generated by pormake.
# Topology tsx, (6,3)-cn, num edge types: 1
# Building blocks:
#     Node 0, Type 0, BuildingBlock: LEVNOQ01_clean_sbu_1, # of connection points: 6
#     Node 1, Type 0, BuildingBlock: LEVNOQ01_clean_sbu_1, # of connection points: 6
#     Node 2, Type 1, BuildingBlock: BETDAH_clean_linker_0, # of connection points: 3
#     Node 3, Type 1, BuildingBlock: BETDAH_clean_linker_0, # of connection points: 3
#     Node 4, Type 1, BuildingBlock: BETDAH_clean_linker_0, # of connection points: 3
#     Node 5, Type 1, BuildingBlock: BETDAH_clean_linker_0, # of connection points: 3
#     Edge 6, Type (0, 1), BuildingBlock: EZIPEK_clean_linker_0, # of connection points: 2
#     Edge 7, Type (0, 1), BuildingBlock: EZIPEK_clean_linker_0, # of connection points: 2
#     Edge 8, Type (0, 1), BuildingBlock: EZIPEK_clean_linker_0, # of connection points: 2
#     Edge 9, Type (0, 1), BuildingBlock: EZIPEK_clean_linker_0, # of connection points: 2
#     Edge 10, Type (0, 1), BuildingBlock: EZIPEK_clean_linker_0, # of connection points: 2
#     Edge 11, Type (0, 1), BuildingBlock: EZIPEK_clean_linker_0, # of connection points: 2
#     Edge 12, Type (0, 1), BuildingBlock: EZIPEK_clean_linker_0, # of connection points: 2
#     Edge 13, Type (0, 1), BuildingBlock: EZIPEK_clean_linker_0, # of connection points: 2
#     Edge 14, Type (0, 1), BuildingBlock: EZIPEK_clean_linker_0, # of connection points: 2
#     Edge 15, Type (0, 1), BuildingBlock: EZIPEK_clean_linker_0, # of connection points: 2
#     Edge 16, Type (0, 1), BuildingBlock: EZIPEK_clean_linker_0, # of connection points: 2
#     Edge 17, Type (0, 1), BuildingBlock: EZIPEK_clean_linker_0, # of connection points: 2
# Relax obj value: 0.097
# Max RMSD: 0.142
# Mean RMSD: 0.107
data_MOF--net-tsx--node1-LEVNOQ01_clean_sbu_1--node2-BETDAH_clean_linker_0--edge1-EZIPEK_clean_linker_0
_symmetry_space_group_name_H-M    P1
_symmetry_Int_Tables_number       1
_symmetry_cell_setting            triclinic
loop_
_symmetry_equiv_pos_as_xyz
'x, y, z'
_cell_length_a     13.815391
_cell_length_b     16.593549
_cell_length_c     25.97386
_cell_angle_alpha  98.352356
_cell_angle_beta   101.81278
_cell_angle_gamma 92.896957
loop_
_atom_site_label
_atom_site_type_symbol
_atom_site_fract_x
_atom_site_fract_y
_atom_site_fract_z
_atom_type_partial_charge
O0 O 0.20844 0.02032 0.09812 0.0
Mg1 Mg 0.26138 0.03721 0.0289 0.0
O2 O 0.04644 0.01701 0.06346 0.0
Mg3 Mg 0.03477 0.01748 -0.02534 0.0
O4 O 0.1713 0.11171 -0.00974 0.0
O5 O 0.33243 0.14642 0.02325 0.0
O6 O 0.02584 0.02024 0.88641 0.0
O7 O 0.94566 0.13241 -0.02235 0.0
Mg8 Mg 0.80957 0.97239 0.89994 0.0
O9 O 0.89606 0.93021 0.96097 0.0
O10 O 0.88239 0.96082 0.83639 0.0
O11 O 0.79404 0.09549 0.9274 0.0
O12 O 0.74362 0.87419 0.92497 0.0
C13 C 0.20659 0.87868 0.964 0.0
C14 C 0.11847 0.01523 0.10258 0.0
C15 C 0.24742 0.16487 -0.00114 0.0
C16 C 0.96893 -0.00549 0.84136 0.0
C17 C 0.85904 0.14946 0.95606 0.0
C18 C 0.82522 0.87553 0.9597 0.0
O19 O 0.27871 0.93275 -0.02247 0.0
O20 O 0.11896 0.89675 0.96711 0.0
O21 O 0.70927 0.53138 0.60551 0.0
Mg22 Mg 0.76902 0.54223 0.53779 0.0
O23 O 0.54989 0.51816 0.56437 0.0
Mg24 Mg 0.5436 0.51666 0.47593 0.0
O25 O 0.68075 0.61081 0.49239 0.0
O26 O 0.83982 0.64954 0.52883 0.0
O27 O 0.53708 0.5144 0.38737 0.0
O28 O 0.45462 0.63204 0.47727 0.0
Mg29 Mg 0.31614 0.47408 0.40251 0.0
O30 O 0.40416 0.42991 0.46227 0.0
O31 O 0.38812 0.46413 0.33885 0.0
O32 O 0.30022 0.5968 0.43072 0.0
O33 O 0.25094 0.3751 0.42721 0.0
C34 C 0.72052 0.38026 0.47295 0.0
C35 C 0.61772 0.52177 0.60611 0.0
C36 C 0.75616 0.66478 0.50103 0.0
C37 C 0.4769 0.49216 0.34281 0.0
C38 C 0.36754 0.65037 0.45762 0.0
C39 C 0.33317 0.3755 0.4613 0.0
O40 O 0.79211 0.43359 0.49279 0.0
O41 O 0.63047 0.39747 0.46954 0.0
H42 H 0.177 0.87317 0.30815 0.0
H43 H 0.01123 0.08373 0.33398 0.0
H44 H 0.17117 0.98283 0.46512 0.0
C45 C 0.14891 0.91803 0.33486 0.0
C46 C 0.17519 0.91907 0.38985 0.0
C47 C 0.09164 0.97885 0.31488 0.0
C48 C 0.05373 0.03616 0.34947 0.0
C49 C 0.0816 0.03738 0.40442 0.0
C50 C 0.14547 0.98109 0.42357 0.0
N51 N 0.05485 0.09817 0.44187 0.0
C52 C 0.96468 0.13299 0.43577 0.0
H53 H 0.8481 0.97064 0.61169 0.0
H54 H 0.14098 0.08551 0.64504 0.0
H55 H 0.01876 0.95434 0.48986 0.0
C56 C 0.90974 0.99069 0.59562 0.0
C57 C 0.91309 0.96562 0.54169 0.0
C58 C 0.99177 0.0323 0.63215 0.0
C59 C 0.07683 0.05561 0.61586 0.0
C60 C 0.08629 0.02733 0.56458 0.0
C61 C 0.00598 0.98086 0.52783 0.0
N62 N 0.18164 0.03423 0.55318 0.0
C63 C 0.23108 0.10913 0.55287 0.0
H64 H 0.66662 0.37503 0.80686 0.0
H65 H 0.49565 0.5816 0.83523 0.0
H66 H 0.65666 0.47714 0.96459 0.0
C67 C 0.63739 0.41831 0.83403 0.0
C68 C 0.66298 0.41722 0.8888 0.0
C69 C 0.57903 0.47918 0.81493 0.0
C70 C 0.53939 0.53419 0.85006 0.0
C71 C 0.5675 0.53388 0.90481 0.0
C72 C 0.6319 0.47742 0.92318 0.0
N73 N 0.54015 0.59319 0.94291 0.0
C74 C 0.45113 0.62965 0.93659 0.0
H75 H 0.3387 0.47359 0.11255 0.0
H76 H 0.63262 0.58582 0.14403 0.0
H77 H 0.50579 0.45597 -0.01046 0.0
C78 C 0.39947 0.49392 0.09593 0.0
C79 C 0.40129 0.4689 0.04181 0.0
C80 C 0.48333 0.5334 0.13223 0.0
C81 C 0.56717 0.55747 0.11516 0.0
C82 C 0.57471 0.53006 0.0635 0.0
C83 C 0.49365 0.48369 0.02735 0.0
N84 N 0.66971 0.53537 0.05158 0.0
C85 C 0.72015 0.60935 0.05038 0.0
C86 C 0.19807 0.30721 0.02004 0.0
C87 C 0.2397 0.24913 -0.01299 0.0
C88 C 0.3287 0.36121 0.95976 0.0
C89 C 0.31613 0.41187 0.00609 0.0
N90 N 0.18039 0.45158 0.04612 0.0
N91 N 0.32436 0.2218 0.91481 0.0
C92 C 0.23081 0.39108 0.02521 0.0
C93 C 0.2971 0.27668 0.95254 0.0
N94 N 0.13459 0.28228 0.04958 0.0
N95 N 0.35903 0.39554 0.92063 0.0
H96 H 0.29848 0.16011 0.90788 0.0
H97 H 0.37347 0.2375 0.89163 0.0
H98 H 0.37083 0.45892 0.92395 0.0
H99 H 0.36076 0.36266 0.88351 0.0
H100 H 0.11139 0.32191 0.07877 0.0
H101 H 0.10825 0.22133 0.04607 0.0
H102 H 0.11302 0.44056 0.05704 0.0
H103 H 0.20303 0.51305 0.04744 0.0
C104 C 0.22356 0.74585 0.90774 0.0
C105 C 0.2328 0.79311 0.9586 0.0
C106 C 0.36804 0.71658 -0.00342 0.0
C107 C 0.36752 0.67573 0.94457 0.0
N108 N 0.28 0.63224 0.85384 0.0
N109 N 0.2817 0.80212 0.05335 0.0
C110 C 0.28974 0.68369 0.901 0.0
C111 C 0.29389 0.77027 0.00376 0.0
N112 N 0.15316 0.7622 0.86636 0.0
N113 N 0.44288 0.70829 0.03848 0.0
H114 H 0.22669 0.84153 0.05869 0.0
H115 H 0.31831 0.78339 0.08825 0.0
H116 H 0.49906 0.66978 0.03484 0.0
H117 H 0.45329 0.74348 0.07608 0.0
H118 H 0.14709 0.73619 0.82679 0.0
H119 H 0.09948 0.80239 0.87267 0.0
H120 H 0.2225 0.6319 0.82094 0.0
H121 H 0.32665 0.58546 0.84904 0.0
C122 C 0.7833 0.82869 0.03926 0.0
C123 C 0.83288 0.81551 -0.00341 0.0
C124 C 0.83796 0.67062 0.00451 0.0
C125 C 0.77196 0.68125 0.03974 0.0
N126 N 0.68785 0.76893 0.09523 0.0
N127 N 0.91679 0.72844 0.94095 0.0
C128 C 0.74788 0.76023 0.05934 0.0
C129 C 0.86511 0.73796 -0.01925 0.0
N130 N 0.77007 0.90691 0.0599 0.0
N131 N 0.87319 0.5959 -0.00652 0.0
H132 H 0.94127 0.7779 0.92493 0.0
H133 H 0.93332 0.67223 0.92282 0.0
H134 H 0.8539 0.54562 0.01032 0.0
H135 H 0.92679 0.58477 -0.02897 0.0
H136 H 0.74062 0.92232 0.09347 0.0
H137 H 0.79701 0.95742 0.04573 0.0
H138 H 0.65819 0.82328 0.10693 0.0
H139 H 0.66482 0.72014 0.11226 0.0
C140 C 0.87769 0.28765 0.92934 0.0
C141 C 0.8328 0.23467 0.95774 0.0
C142 C 0.68022 0.30271 0.94229 0.0
C143 C 0.72286 0.35446 0.91229 0.0
N144 N 0.87116 0.41379 0.89217 0.0
N145 N 0.70978 0.21188 0.00805 0.0
C146 C 0.82473 0.35269 0.91056 0.0
C147 C 0.74052 0.25021 -0.02959 0.0
N148 N 0.96789 0.27332 0.91765 0.0
N149 N 0.58089 0.30008 0.9413 0.0
H150 H 0.75427 0.1728 0.02869 0.0
H151 H 0.64637 0.22534 0.02241 0.0
H152 H 0.53289 0.33364 0.91814 0.0
H153 H 0.54466 0.25881 0.95908 0.0
H154 H -0.00212 0.30307 0.89113 0.0
H155 H 0.01133 0.22914 0.93276 0.0
H156 H 0.94756 0.42011 0.89506 0.0
H157 H 0.83461 0.46255 0.87843 0.0
C158 C 0.70629 0.80729 0.51885 0.0
C159 C 0.74812 0.74775 0.48692 0.0
C160 C 0.84074 0.85772 0.45964 0.0
C161 C 0.82772 0.90954 0.50538 0.0
N162 N 0.69114 0.95245 0.54365 0.0
N163 N 0.83543 0.7174 0.41611 0.0
C164 C 0.74082 0.89067 0.52362 0.0
C165 C 0.80753 0.77357 0.45286 0.0
N166 N 0.64096 0.7841 0.54789 0.0
N167 N 0.8721 0.89079 0.42034 0.0
H168 H 0.80865 0.65595 0.40965 0.0
H169 H 0.88593 0.73193 0.39339 0.0
H170 H 0.88535 0.95401 0.42328 0.0
H171 H 0.87316 0.857 0.38338 0.0
H172 H 0.61712 0.82477 0.57631 0.0
H173 H 0.61345 0.72349 0.54461 0.0
H174 H 0.62286 0.94286 0.55391 0.0
H175 H 0.71558 0.01352 0.54492 0.0
C176 C 0.80013 0.26307 0.50516 0.0
C177 C 0.74673 0.29539 0.46156 0.0
C178 C 0.80885 0.19466 0.40028 0.0
C179 C 0.88026 0.1779 0.44412 0.0
N180 N 0.94598 0.1971 0.53914 0.0
N181 N 0.6912 0.28922 0.36713 0.0
C182 C 0.87514 0.21082 0.49696 0.0
C183 C 0.74648 0.25901 0.40874 0.0
N184 N 0.78083 0.2851 0.55458 0.0
N185 N 0.80159 0.14977 0.35107 0.0
H186 H 0.64353 0.33484 0.37302 0.0
H187 H 0.6952 0.27147 0.32755 0.0
H188 H 0.84564 0.1016 0.34473 0.0
H189 H 0.74644 0.15513 0.3181 0.0
H190 H 0.8118 0.25876 0.58757 0.0
H191 H 0.72563 0.32384 0.56089 0.0
H192 H 0.95251 0.22735 0.57788 0.0
H193 H 0.00351 0.16046 0.5347 0.0
C194 C 0.2839 0.3289 0.53922 0.0
C195 C 0.33989 0.31686 0.49919 0.0
C196 C 0.35346 0.17404 0.51122 0.0
C197 C 0.28153 0.18247 0.54311 0.0
N198 N 0.18491 0.26714 0.59278 0.0
N199 N 0.43681 0.23271 0.44966 0.0
C200 C 0.25008 0.26014 0.55958 0.0
C201 C 0.37943 0.24116 0.48688 0.0
N202 N 0.26313 0.40636 0.5571 0.0
N203 N 0.39544 0.1015 0.50386 0.0
H204 H 0.45968 0.28204 0.43302 0.0
H205 H 0.45955 0.17726 0.4341 0.0
H206 H 0.37712 0.05154 0.52125 0.0
H207 H 0.45333 0.09235 0.48415 0.0
H208 H 0.22817 0.42128 0.58866 0.0
H209 H 0.2889 0.45723 0.54284 0.0
H210 H 0.14993 0.31981 0.6018 0.0
H211 H 0.16335 0.21844 0.61032 0.0
C212 C 0.25031 0.75235 0.47221 0.0
C213 C 0.34274 0.73627 0.45991 0.0
C214 C 0.33667 0.85486 0.41315 0.0
C215 C 0.23452 0.85665 0.41412 0.0
N216 N 0.0916 0.80326 0.4426 0.0
N217 N 0.48115 0.77704 0.42304 0.0
C218 C 0.19098 0.80528 0.44398 0.0
C219 C 0.38925 0.79002 0.43262 0.0
N220 N 0.21856 0.71411 0.5096 0.0
N221 N 0.38356 0.91578 0.3948 0.0
H222 H 0.52481 0.7343 0.43975 0.0
H223 H 0.51331 0.80735 0.39754 0.0
H224 H 0.34706 0.96414 0.38043 0.0
H225 H 0.46004 0.92243 0.39811 0.0
H226 H 0.155 0.72789 0.52372 0.0
H227 H 0.26242 0.67473 0.53032 0.0
H228 H 0.05458 0.76249 0.46036 0.0
H229 H 0.04451 0.8369 0.41908 0.0
C230 C 0.14475 0.07187 0.19828 0.0
C231 C 0.09847 0.01042 0.15544 0.0
C232 C 0.02909 0.93729 0.21658 0.0
C233 C 0.08818 -0.00795 0.25979 0.0
N234 N 0.21683 0.10308 0.29228 0.0
N235 N 0.00605 0.87875 0.12351 0.0
C236 C 0.14972 0.05743 0.2509 0.0
C237 C 0.042 0.94175 0.16423 0.0
N238 N 0.18244 0.14465 0.18864 0.0
N239 N 0.96073 0.88161 0.22566 0.0
H240 H 0.01566 0.87883 0.08475 0.0
H241 H 0.97359 0.8235 0.12902 0.0
H242 H 0.95046 0.87672 0.26383 0.0
H243 H 0.90874 0.84551 0.19524 0.0
H244 H 0.20864 0.19445 0.21857 0.0
H245 H 0.17776 0.15828 0.15026 0.0
H246 H 0.27079 0.14527 0.2868 0.0
H247 H 0.22542 0.09373 0.33174 0.0
C248 C 0.95167 0.08326 0.77186 0.0
C249 C -0.00397 0.01714 0.79383 0.0
C250 C 0.04587 0.96669 0.71191 0.0
C251 C -0.00096 0.03133 0.68896 0.0
N252 N 0.92786 0.16072 0.69841 0.0
N253 N 0.11345 0.91552 0.79329 0.0
C254 C 0.95879 0.09321 0.71953 0.0
C255 C 0.05277 0.96527 0.7666 0.0
N256 N 0.90066 0.13453 0.80064 0.0
N257 N 0.0792 0.90471 0.681 0.0
H258 H 0.12221 0.91698 0.83425 0.0
H259 H 0.163 0.88057 0.77647 0.0
H260 H 0.07564 0.90267 0.64036 0.0
H261 H 0.10346 0.85175 0.69479 0.0
H262 H 0.85782 0.17877 0.78518 0.0
H263 H 0.89863 0.1309 0.84017 0.0
H264 H 0.90564 0.21153 0.72014 0.0
H265 H 0.93105 0.16839 0.65961 0.0
C266 C 0.53856 0.44406 0.66477 0.0
C267 C 0.59055 0.51599 0.65719 0.0
C268 C 0.63187 0.56413 0.75258 0.0
C269 C 0.57553 0.49467 0.7603 0.0
N270 N 0.45758 0.37808 0.72397 0.0
N271 N 0.6594 0.65448 0.69111 0.0
C272 C 0.52263 0.43775 0.71633 0.0
C273 C 0.62804 0.57944 0.70028 0.0
N274 N 0.51018 0.38 0.62392 0.0
N275 N 0.69411 0.61261 0.79471 0.0
H276 H 0.65555 0.66818 0.6528 0.0
H277 H 0.67893 0.70514 0.72108 0.0
H278 H 0.70335 0.60218 0.83397 0.0
H279 H 0.74433 0.6586 0.79006 0.0
H280 H 0.48161 0.32302 0.62889 0.0
H281 H 0.52218 0.38136 0.58572 0.0
H282 H 0.40993 0.33966 0.69276 0.0
H283 H 0.44506 0.37198 0.76156 0.0
C284 C 0.50797 0.43535 0.25516 0.0
C285 C 0.5068 0.50443 0.29374 0.0
C286 C 0.49675 0.59477 0.22707 0.0
C287 C 0.49603 0.52536 0.18845 0.0
N288 N 0.53439 0.385 0.16765 0.0
N289 N 0.52991 0.65096 0.32078 0.0
C290 C 0.51254 0.44719 0.2031 0.0
C291 C 0.51178 0.58476 0.2812 0.0
N292 N 0.50093 0.35843 0.26785 0.0
N293 N 0.4791 0.66906 0.21176 0.0
H294 H 0.54191 0.64564 0.36095 0.0
H295 H 0.5431 0.71055 0.31419 0.0
H296 H 0.46871 0.67825 0.17216 0.0
H297 H 0.46785 0.72015 0.2376 0.0
H298 H 0.48875 0.30548 0.23964 0.0
H299 H 0.5015 0.34771 0.30649 0.0
H300 H 0.5569 0.32957 0.17818 0.0
H301 H 0.5395 0.3911 0.12889 0.0
loop_
_geom_bond_atom_site_label_1
_geom_bond_atom_site_label_2
_geom_bond_distance
_geom_bond_site_symmetry_2
_ccdc_geom_bond_type
O0 Mg1 1.990 . S
O0 C14 1.253 . S
Mg1 O0 1.990 . S
Mg1 O4 2.180 . S
Mg1 O5 2.117 . S
Mg1 O19 2.030 1_545 S
O2 Mg3 2.072 1_554 S
O2 C14 1.260 . S
Mg3 O2 2.072 1_556 S
Mg3 O4 2.099 1_556 S
Mg3 O6 2.079 . S
Mg3 O7 2.072 1_456 S
Mg3 O9 2.099 1_445 S
Mg3 O20 2.079 1_545 S
O4 Mg1 2.180 . S
O4 Mg3 2.099 1_554 S
O4 C15 1.279 . S
O5 Mg1 2.117 . S
O5 C15 1.250 . S
O6 Mg3 2.079 . S
O6 C16 1.264 . S
O7 Mg3 2.072 1_654 S
O7 C17 1.260 1_554 S
Mg8 O9 2.180 . S
Mg8 O10 2.030 1_565 S
Mg8 O11 1.990 1_565 S
Mg8 O12 2.117 . S
O9 Mg3 2.099 1_665 S
O9 Mg8 2.180 . S
O9 C18 1.279 . S
O10 Mg8 2.030 1_545 S
O10 C16 1.248 1_655 S
O11 Mg8 1.990 1_545 S
O11 C17 1.253 . S
O12 Mg8 2.117 . S
O12 C18 1.250 . S
C13 O19 1.248 . S
C13 O20 1.264 1_554 S
C14 O0 1.253 . S
C14 O2 1.260 . S
C15 O4 1.279 . S
C15 O5 1.250 . S
C16 O6 1.264 . S
C16 O10 1.248 1_455 S
C17 O7 1.260 1_556 S
C17 O11 1.253 . S
C18 O9 1.279 . S
C18 O12 1.250 . S
O19 Mg1 2.030 1_565 S
O19 C13 1.248 . S
O20 Mg3 2.079 1_565 S
O20 C13 1.264 1_556 S
O21 Mg22 1.990 . S
O21 C35 1.253 . S
Mg22 O21 1.990 . S
Mg22 O25 2.180 . S
Mg22 O26 2.117 . S
Mg22 O40 2.030 . S
O23 Mg24 2.072 . S
O23 C35 1.260 . S
Mg24 O23 2.072 . S
Mg24 O25 2.099 . S
Mg24 O27 2.079 . S
Mg24 O28 2.072 . S
Mg24 O30 2.099 . S
Mg24 O41 2.079 . S
O25 Mg22 2.180 . S
O25 Mg24 2.099 . S
O25 C36 1.279 . S
O26 Mg22 2.117 . S
O26 C36 1.250 . S
O27 Mg24 2.079 . S
O27 C37 1.264 . S
O28 Mg24 2.072 . S
O28 C38 1.260 . S
Mg29 O30 2.180 . S
Mg29 O31 2.030 . S
Mg29 O32 1.990 . S
Mg29 O33 2.117 . S
O30 Mg24 2.099 . S
O30 Mg29 2.180 . S
O30 C39 1.279 . S
O31 Mg29 2.030 . S
O31 C37 1.248 . S
O32 Mg29 1.990 . S
O32 C38 1.253 . S
O33 Mg29 2.117 . S
O33 C39 1.250 . S
C34 O40 1.248 . S
C34 O41 1.264 . S
C35 O21 1.253 . S
C35 O23 1.260 . S
C36 O25 1.279 . S
C36 O26 1.250 . S
C37 O27 1.264 . S
C37 O31 1.248 . S
C38 O28 1.260 . S
C38 O32 1.253 . S
C39 O30 1.279 . S
C39 O33 1.250 . S
O40 Mg22 2.030 . S
O40 C34 1.248 . S
O41 Mg24 2.079 . S
O41 C34 1.264 . S
H42 C45 0.929 . S
H43 C48 0.921 1_655 S
H44 C50 0.930 . S
C45 H42 0.929 . S
C45 C46 1.398 . S
C45 C47 1.396 . S
C46 C45 1.398 . S
C46 C50 1.407 . S
C47 C45 1.396 . S
C47 C48 1.394 1_565 S
C48 H43 0.921 1_455 S
C48 C47 1.394 1_545 S
C48 C49 1.382 . S
C49 C48 1.382 . S
C49 C50 1.392 1_545 S
C49 N51 1.420 1_455 S
C50 H44 0.930 . S
C50 C46 1.407 . S
C50 C49 1.392 1_565 S
N51 C49 1.420 1_655 S
N51 C52 1.244 . S
C52 N51 1.244 . S
H53 C56 0.929 . S
H54 C59 0.929 . S
H55 C61 0.930 1_565 S
C56 H53 0.929 . S
C56 C57 1.398 . S
C56 C58 1.396 1_565 S
C57 C56 1.398 . S
C57 C61 1.407 1_565 S
C58 C56 1.396 1_545 S
C58 C59 1.394 1_655 S
C59 H54 0.929 . S
C59 C58 1.394 1_455 S
C59 C60 1.382 . S
C60 C59 1.382 . S
C60 C61 1.392 1_455 S
C60 N62 1.420 . S
C61 H55 0.930 1_545 S
C61 C57 1.407 1_545 S
C61 C60 1.392 1_655 S
N62 C60 1.420 . S
N62 C63 1.244 . S
C63 N62 1.244 . S
H64 C67 0.929 . S
H65 C70 0.929 . S
H66 C72 0.930 1_554 S
C67 H64 0.929 . S
C67 C68 1.398 . S
C67 C69 1.396 . S
C68 C67 1.398 . S
C68 C72 1.407 . S
C69 C67 1.396 . S
C69 C70 1.394 . S
C70 H65 0.929 . S
C70 C69 1.394 . S
C70 C71 1.382 . S
C71 C70 1.382 . S
C71 C72 1.392 . S
C71 N73 1.420 . S
C72 H66 0.930 1_556 S
C72 C68 1.407 . S
C72 C71 1.392 . S
N73 C71 1.420 . S
N73 C74 1.244 . S
C74 N73 1.244 . S
H75 C78 0.929 . S
H76 C81 0.929 . S
H77 C83 0.930 1_556 S
C78 H75 0.929 . S
C78 C79 1.398 . S
C78 C80 1.396 . S
C79 C78 1.398 . S
C79 C83 1.407 . S
C80 C78 1.396 . S
C80 C81 1.394 . S
C81 H76 0.929 . S
C81 C80 1.394 . S
C81 C82 1.382 . S
C82 C81 1.382 . S
C82 C83 1.392 . S
C82 N84 1.420 . S
C83 H77 0.930 1_554 S
C83 C79 1.407 . S
C83 C82 1.392 . S
N84 C82 1.420 . S
N84 C85 1.244 . S
C85 N84 1.244 . S
C86 C87 1.363 . S
C86 C92 1.379 . S
C86 N94 1.356 . S
C87 C86 1.363 . S
C87 C93 1.363 1_554 S
C88 C89 1.363 1_556 S
C88 C93 1.379 . S
C88 N95 1.356 . S
C89 C88 1.363 1_554 S
C89 C92 1.363 . S
N90 C92 1.356 . S
N90 H102 0.984 . S
N90 H103 0.985 . S
N91 C93 1.356 . S
N91 H96 0.984 . S
N91 H97 0.985 . S
C92 C86 1.379 . S
C92 C89 1.363 . S
C92 N90 1.356 . S
C93 C87 1.363 1_556 S
C93 C88 1.379 . S
C93 N91 1.356 . S
N94 C86 1.356 . S
N94 H100 0.984 . S
N94 H101 0.984 . S
N95 C88 1.356 . S
N95 H98 0.984 . S
N95 H99 0.985 . S
H96 N91 0.984 . S
H97 N91 0.985 . S
H98 N95 0.984 . S
H99 N95 0.985 . S
H100 N94 0.984 . S
H101 N94 0.984 . S
H102 N90 0.984 . S
H103 N90 0.985 . S
C104 C105 1.363 1_556 S
C104 C110 1.379 . S
C104 N112 1.356 . S
C105 C104 1.363 1_554 S
C105 C111 1.363 . S
C106 C107 1.363 . S
C106 C111 1.379 . S
C106 N113 1.356 . S
C107 C106 1.363 . S
C107 C110 1.363 1_554 S
N108 C110 1.356 . S
N108 H120 0.984 . S
N108 H121 0.985 . S
N109 C111 1.356 . S
N109 H114 0.984 . S
N109 H115 0.985 . S
C110 C104 1.379 . S
C110 C107 1.363 1_556 S
C110 N108 1.356 . S
C111 C105 1.363 . S
C111 C106 1.379 . S
C111 N109 1.356 . S
N112 C104 1.356 . S
N112 H118 0.984 . S
N112 H119 0.984 . S
N113 C106 1.356 . S
N113 H116 0.984 . S
N113 H117 0.985 . S
H114 N109 0.984 . S
H115 N109 0.985 . S
H116 N113 0.984 . S
H117 N113 0.985 . S
H118 N112 0.984 . S
H119 N112 0.984 . S
H120 N108 0.984 . S
H121 N108 0.985 . S
C122 C123 1.363 . S
C122 C128 1.379 . S
C122 N130 1.356 . S
C123 C122 1.363 . S
C123 C129 1.363 1_554 S
C124 C125 1.363 1_556 S
C124 C129 1.379 . S
C124 N131 1.356 . S
C125 C124 1.363 1_554 S
C125 C128 1.363 . S
N126 C128 1.356 . S
N126 H138 0.984 . S
N126 H139 0.985 . S
N127 C129 1.356 . S
N127 H132 0.984 . S
N127 H133 0.985 . S
C128 C122 1.379 . S
C128 C125 1.363 . S
C128 N126 1.356 . S
C129 C123 1.363 1_556 S
C129 C124 1.379 . S
C129 N127 1.356 . S
N130 C122 1.356 . S
N130 H136 0.984 . S
N130 H137 0.984 . S
N131 C124 1.356 . S
N131 H134 0.984 . S
N131 H135 0.985 . S
H132 N127 0.984 . S
H133 N127 0.985 . S
H134 N131 0.984 . S
H135 N131 0.985 . S
H136 N130 0.984 . S
H137 N130 0.984 . S
H138 N126 0.984 . S
H139 N126 0.985 . S
C140 C141 1.363 . S
C140 C146 1.379 . S
C140 N148 1.356 . S
C141 C140 1.363 . S
C141 C147 1.363 1_556 S
C142 C143 1.363 1_554 S
C142 C147 1.379 . S
C142 N149 1.356 . S
C143 C142 1.363 1_556 S
C143 C146 1.363 . S
N144 C146 1.356 . S
N144 H156 0.984 . S
N144 H157 0.985 . S
N145 C147 1.356 . S
N145 H150 0.984 . S
N145 H151 0.985 . S
C146 C140 1.379 . S
C146 C143 1.363 . S
C146 N144 1.356 . S
C147 C141 1.363 1_554 S
C147 C142 1.379 . S
C147 N145 1.356 . S
N148 C140 1.356 . S
N148 H154 0.984 . S
N148 H155 0.984 . S
N149 C142 1.356 . S
N149 H152 0.984 . S
N149 H153 0.985 . S
H150 N145 0.984 . S
H151 N145 0.985 . S
H152 N149 0.984 . S
H153 N149 0.985 . S
H154 N148 0.984 . S
H155 N148 0.984 . S
H156 N144 0.984 . S
H157 N144 0.985 . S
C158 C159 1.363 . S
C158 C164 1.379 . S
C158 N166 1.356 . S
C159 C158 1.363 . S
C159 C165 1.363 . S
C160 C161 1.363 . S
C160 C165 1.379 . S
C160 N167 1.356 . S
C161 C160 1.363 . S
C161 C164 1.363 . S
N162 C164 1.356 . S
N162 H174 0.984 . S
N162 H175 0.985 . S
N163 C165 1.356 . S
N163 H168 0.984 . S
N163 H169 0.985 . S
C164 C158 1.379 . S
C164 C161 1.363 . S
C164 N162 1.356 . S
C165 C159 1.363 . S
C165 C160 1.379 . S
C165 N163 1.356 . S
N166 C158 1.356 . S
N166 H172 0.984 . S
N166 H173 0.984 . S
N167 C160 1.356 . S
N167 H170 0.984 . S
N167 H171 0.985 . S
H168 N163 0.984 . S
H169 N163 0.985 . S
H170 N167 0.984 . S
H171 N167 0.985 . S
H172 N166 0.984 . S
H173 N166 0.984 . S
H174 N162 0.984 . S
H175 N162 0.985 . S
C176 C177 1.363 . S
C176 C182 1.379 . S
C176 N184 1.356 . S
C177 C176 1.363 . S
C177 C183 1.363 . S
C178 C179 1.363 . S
C178 C183 1.379 . S
C178 N185 1.356 . S
C179 C178 1.363 . S
C179 C182 1.363 . S
N180 C182 1.356 . S
N180 H192 0.984 1_655 S
N180 H193 0.985 1_655 S
N181 C183 1.356 . S
N181 H186 0.984 . S
N181 H187 0.985 . S
C182 C176 1.379 . S
C182 C179 1.363 . S
C182 N180 1.356 . S
C183 C177 1.363 . S
C183 C178 1.379 . S
C183 N181 1.356 . S
N184 C176 1.356 . S
N184 H190 0.984 . S
N184 H191 0.984 . S
N185 C178 1.356 . S
N185 H188 0.984 . S
N185 H189 0.985 . S
H186 N181 0.984 . S
H187 N181 0.985 . S
H188 N185 0.984 . S
H189 N185 0.985 . S
H190 N184 0.984 . S
H191 N184 0.984 . S
H192 N180 0.984 1_455 S
H193 N180 0.985 1_455 S
C194 C195 1.363 . S
C194 C200 1.379 . S
C194 N202 1.356 . S
C195 C194 1.363 . S
C195 C201 1.363 . S
C196 C197 1.363 . S
C196 C201 1.379 . S
C196 N203 1.356 . S
C197 C196 1.363 . S
C197 C200 1.363 . S
N198 C200 1.356 . S
N198 H210 0.984 . S
N198 H211 0.985 . S
N199 C201 1.356 . S
N199 H204 0.984 . S
N199 H205 0.985 . S
C200 C194 1.379 . S
C200 C197 1.363 . S
C200 N198 1.356 . S
C201 C195 1.363 . S
C201 C196 1.379 . S
C201 N199 1.356 . S
N202 C194 1.356 . S
N202 H208 0.984 . S
N202 H209 0.984 . S
N203 C196 1.356 . S
N203 H206 0.984 . S
N203 H207 0.985 . S
H204 N199 0.984 . S
H205 N199 0.985 . S
H206 N203 0.984 . S
H207 N203 0.985 . S
H208 N202 0.984 . S
H209 N202 0.984 . S
H210 N198 0.984 . S
H211 N198 0.985 . S
C212 C213 1.363 . S
C212 C218 1.379 . S
C212 N220 1.356 . S
C213 C212 1.363 . S
C213 C219 1.363 . S
C214 C215 1.363 . S
C214 C219 1.379 . S
C214 N221 1.356 . S
C215 C214 1.363 . S
C215 C218 1.363 . S
N216 C218 1.356 . S
N216 H228 0.984 . S
N216 H229 0.985 . S
N217 C219 1.356 . S
N217 H222 0.984 . S
N217 H223 0.985 . S
C218 C212 1.379 . S
C218 C215 1.363 . S
C218 N216 1.356 . S
C219 C213 1.363 . S
C219 C214 1.379 . S
C219 N217 1.356 . S
N220 C212 1.356 . S
N220 H226 0.984 . S
N220 H227 0.984 . S
N221 C214 1.356 . S
N221 H224 0.984 . S
N221 H225 0.985 . S
H222 N217 0.984 . S
H223 N217 0.985 . S
H224 N221 0.984 . S
H225 N221 0.985 . S
H226 N220 0.984 . S
H227 N220 0.984 . S
H228 N216 0.984 . S
H229 N216 0.985 . S
C230 C231 1.360 1_545 S
C230 C236 1.379 . S
C230 N238 1.356 . S
C231 C230 1.360 1_565 S
C231 C237 1.369 . S
C232 C233 1.363 . S
C232 C237 1.379 . S
C232 N239 1.356 1_455 S
C233 C232 1.363 . S
C233 C236 1.363 1_565 S
N234 C236 1.356 . S
N234 H246 0.984 . S
N234 H247 0.985 . S
N235 C237 1.356 1_655 S
N235 H240 0.984 . S
N235 H241 0.985 . S
C236 C230 1.379 . S
C236 C233 1.363 1_545 S
C236 N234 1.356 . S
C237 C231 1.369 . S
C237 C232 1.379 . S
C237 N235 1.356 1_455 S
N238 C230 1.356 . S
N238 H244 0.984 . S
N238 H245 0.984 . S
N239 C232 1.356 1_655 S
N239 H242 0.984 . S
N239 H243 0.985 . S
H240 N235 0.984 . S
H241 N235 0.985 . S
H242 N239 0.984 . S
H243 N239 0.985 . S
H244 N238 0.984 . S
H245 N238 0.984 . S
H246 N234 0.984 . S
H247 N234 0.985 . S
C248 C249 1.363 1_655 S
C248 C254 1.379 . S
C248 N256 1.356 . S
C249 C248 1.363 1_455 S
C249 C255 1.363 1_545 S
C250 C251 1.363 1_465 S
C250 C255 1.379 . S
C250 N257 1.356 . S
C251 C250 1.363 1_645 S
C251 C254 1.363 . S
N252 C254 1.356 . S
N252 H264 0.984 . S
N252 H265 0.985 . S
N253 C255 1.356 . S
N253 H258 0.984 . S
N253 H259 0.985 . S
C254 C248 1.379 . S
C254 C251 1.363 . S
C254 N252 1.356 . S
C255 C249 1.363 1_565 S
C255 C250 1.379 . S
C255 N253 1.356 . S
N256 C248 1.356 . S
N256 H262 0.984 . S
N256 H263 0.984 . S
N257 C250 1.356 . S
N257 H260 0.984 . S
N257 H261 0.985 . S
H258 N253 0.984 . S
H259 N253 0.985 . S
H260 N257 0.984 . S
H261 N257 0.985 . S
H262 N256 0.984 . S
H263 N256 0.984 . S
H264 N252 0.984 . S
H265 N252 0.985 . S
C266 C267 1.363 . S
C266 C272 1.379 . S
C266 N274 1.356 . S
C267 C266 1.363 . S
C267 C273 1.363 . S
C268 C269 1.363 . S
C268 C273 1.379 . S
C268 N275 1.356 . S
C269 C268 1.363 . S
C269 C272 1.363 . S
N270 C272 1.356 . S
N270 H282 0.984 . S
N270 H283 0.985 . S
N271 C273 1.356 . S
N271 H276 0.984 . S
N271 H277 0.985 . S
C272 C266 1.379 . S
C272 C269 1.363 . S
C272 N270 1.356 . S
C273 C267 1.363 . S
C273 C268 1.379 . S
C273 N271 1.356 . S
N274 C266 1.356 . S
N274 H280 0.984 . S
N274 H281 0.984 . S
N275 C268 1.356 . S
N275 H278 0.984 . S
N275 H279 0.985 . S
H276 N271 0.984 . S
H277 N271 0.985 . S
H278 N275 0.984 . S
H279 N275 0.985 . S
H280 N274 0.984 . S
H281 N274 0.984 . S
H282 N270 0.984 . S
H283 N270 0.985 . S
C284 C285 1.363 . S
C284 C290 1.379 . S
C284 N292 1.356 . S
C285 C284 1.363 . S
C285 C291 1.363 . S
C286 C287 1.363 . S
C286 C291 1.379 . S
C286 N293 1.356 . S
C287 C286 1.363 . S
C287 C290 1.363 . S
N288 C290 1.356 . S
N288 H300 0.984 . S
N288 H301 0.985 . S
N289 C291 1.356 . S
N289 H294 0.984 . S
N289 H295 0.985 . S
C290 C284 1.379 . S
C290 C287 1.363 . S
C290 N288 1.356 . S
C291 C285 1.363 . S
C291 C286 1.379 . S
C291 N289 1.356 . S
N292 C284 1.356 . S
N292 H298 0.984 . S
N292 H299 0.984 . S
N293 C286 1.356 . S
N293 H296 0.984 . S
N293 H297 0.985 . S
H294 N289 0.984 . S
H295 N289 0.985 . S
H296 N293 0.984 . S
H297 N293 0.985 . S
H298 N292 0.984 . S
H299 N292 0.984 . S
H300 N288 0.984 . S
H301 N288 0.985 . S
C89 C79 1.470 . S
C87 C15 1.370 . S
C105 C13 1.469 . S
C107 C74 1.446 1_554 S
C123 C18 1.276 1_554 S
C125 C85 1.459 . S
C141 C17 1.439 . S
C143 C68 1.472 . S
C159 C36 1.370 . S
C161 C57 1.470 . S
C177 C34 1.469 . S
C179 C52 1.446 . S
C197 C63 1.459 . S
C195 C39 1.276 . S
C215 C46 1.472 . S
C213 C38 1.439 . S
C231 C14 1.566 1_565 S
C233 C47 1.612 . S
C249 C16 1.399 . S
C251 C58 1.430 . S
C269 C69 1.612 . S
C267 C35 1.569 . S
C285 C37 1.399 . S
C287 C80 1.430 . S
