# Generated by pormake.
# Topology dag, (6,3)-cn, num edge types: 1
# Building blocks:
#     Node 0, Type 0, BuildingBlock: OJICUG_clean_sbu_0, # of connection points: 6
#     Node 1, Type 0, BuildingBlock: OJICUG_clean_sbu_0, # of connection points: 6
#     Node 2, Type 0, BuildingBlock: OJICUG_clean_sbu_0, # of connection points: 6
#     Node 3, Type 0, BuildingBlock: OJICUG_clean_sbu_0, # of connection points: 6
#     Node 4, Type 1, BuildingBlock: BETDIP_clean_linker_0, # of connection points: 3
#     Node 5, Type 1, BuildingBlock: BETDIP_clean_linker_0, # of connection points: 3
#     Node 6, Type 1, BuildingBlock: BETDIP_clean_linker_0, # of connection points: 3
#     Node 7, Type 1, BuildingBlock: BETDIP_clean_linker_0, # of connection points: 3
#     Node 8, Type 1, BuildingBlock: BETDIP_clean_linker_0, # of connection points: 3
#     Node 9, Type 1, BuildingBlock: BETDIP_clean_linker_0, # of connection points: 3
#     Node 10, Type 1, BuildingBlock: BETDIP_clean_linker_0, # of connection points: 3
#     Node 11, Type 1, BuildingBlock: BETDIP_clean_linker_0, # of connection points: 3
#     Edge 12, Type (0, 1), BuildingBlock: XUDNAN_clean_linker_2, # of connection points: 2
#     Edge 13, Type (0, 1), BuildingBlock: XUDNAN_clean_linker_2, # of connection points: 2
#     Edge 14, Type (0, 1), BuildingBlock: XUDNAN_clean_linker_2, # of connection points: 2
#     Edge 15, Type (0, 1), BuildingBlock: XUDNAN_clean_linker_2, # of connection points: 2
#     Edge 16, Type (0, 1), BuildingBlock: XUDNAN_clean_linker_2, # of connection points: 2
#     Edge 17, Type (0, 1), BuildingBlock: XUDNAN_clean_linker_2, # of connection points: 2
#     Edge 18, Type (0, 1), BuildingBlock: XUDNAN_clean_linker_2, # of connection points: 2
#     Edge 19, Type (0, 1), BuildingBlock: XUDNAN_clean_linker_2, # of connection points: 2
#     Edge 20, Type (0, 1), BuildingBlock: XUDNAN_clean_linker_2, # of connection points: 2
#     Edge 21, Type (0, 1), BuildingBlock: XUDNAN_clean_linker_2, # of connection points: 2
#     Edge 22, Type (0, 1), BuildingBlock: XUDNAN_clean_linker_2, # of connection points: 2
#     Edge 23, Type (0, 1), BuildingBlock: XUDNAN_clean_linker_2, # of connection points: 2
#     Edge 24, Type (0, 1), BuildingBlock: XUDNAN_clean_linker_2, # of connection points: 2
#     Edge 25, Type (0, 1), BuildingBlock: XUDNAN_clean_linker_2, # of connection points: 2
#     Edge 26, Type (0, 1), BuildingBlock: XUDNAN_clean_linker_2, # of connection points: 2
#     Edge 27, Type (0, 1), BuildingBlock: XUDNAN_clean_linker_2, # of connection points: 2
#     Edge 28, Type (0, 1), BuildingBlock: XUDNAN_clean_linker_2, # of connection points: 2
#     Edge 29, Type (0, 1), BuildingBlock: XUDNAN_clean_linker_2, # of connection points: 2
#     Edge 30, Type (0, 1), BuildingBlock: XUDNAN_clean_linker_2, # of connection points: 2
#     Edge 31, Type (0, 1), BuildingBlock: XUDNAN_clean_linker_2, # of connection points: 2
#     Edge 32, Type (0, 1), BuildingBlock: XUDNAN_clean_linker_2, # of connection points: 2
#     Edge 33, Type (0, 1), BuildingBlock: XUDNAN_clean_linker_2, # of connection points: 2
#     Edge 34, Type (0, 1), BuildingBlock: XUDNAN_clean_linker_2, # of connection points: 2
#     Edge 35, Type (0, 1), BuildingBlock: XUDNAN_clean_linker_2, # of connection points: 2
# Relax obj value: 0.093
# Max RMSD: 0.109
# Mean RMSD: 0.091
data_MOF--net-dag--node1-OJICUG_clean_sbu_0--node2-BETDIP_clean_linker_0--edge1-XUDNAN_clean_linker_2
_symmetry_space_group_name_H-M    P1
_symmetry_Int_Tables_number       1
_symmetry_cell_setting            triclinic
loop_
_symmetry_equiv_pos_as_xyz
'x, y, z'
_cell_length_a     38.423883
_cell_length_b     37.664383
_cell_length_c     39.373776
_cell_angle_alpha  85.871407
_cell_angle_beta   90.1244
_cell_angle_gamma 90.032195
loop_
_atom_site_label
_atom_site_type_symbol
_atom_site_fract_x
_atom_site_fract_y
_atom_site_fract_z
_atom_type_partial_charge
Sc0 Sc 0.11836 0.86833 0.00871 0.0
Sc1 Sc 0.14605 0.7802 0.00159 0.0
Sc2 Sc 0.20035 0.85244 0.97332 0.0
O3 O 0.15494 0.83363 0.99449 0.0
C4 C 0.14407 0.90558 0.93783 0.0
C5 C 0.07162 0.80821 0.97732 0.0
C6 C 0.18459 0.7861 0.92957 0.0
C7 C 0.11414 0.8085 0.06964 0.0
C8 C 0.18794 0.9077 0.02975 0.0
C9 C 0.22575 0.78713 0.02386 0.0
O10 O 0.12152 0.90016 0.96124 0.0
O11 O 0.09489 0.78419 0.97891 0.0
O12 O 0.19887 0.81589 0.9338 0.0
O13 O 0.11195 0.84059 0.0576 0.0
O14 O 0.2078 0.892 0.00986 0.0
O15 O 0.19653 0.7711 0.02463 0.0
O16 O 0.1555 0.9016 0.0317 0.0
O17 O 0.12458 0.7834 0.05223 0.0
O18 O 0.23107 0.81637 0.00631 0.0
O19 O 0.07621 0.83895 0.98796 0.0
O20 O 0.17365 0.8903 0.93842 0.0
O21 O 0.16545 0.77003 0.952 0.0
Sc22 Sc 0.70272 0.65201 0.56774 0.0
Sc23 Sc 0.64171 0.71872 0.54081 0.0
Sc24 Sc 0.6197 0.62796 0.54066 0.0
O25 O 0.65476 0.66632 0.54962 0.0
C26 C 0.68901 0.5962 0.51204 0.0
C27 C 0.72066 0.71752 0.51487 0.0
C28 C 0.60356 0.68599 0.47907 0.0
C29 C 0.68398 0.7179 0.61084 0.0
C30 C 0.6568 0.59322 0.60775 0.0
C31 C 0.57212 0.68433 0.57437 0.0
O32 O 0.70891 0.61162 0.53218 0.0
O33 O 0.69089 0.73219 0.51619 0.0
O34 O 0.60058 0.65569 0.49507 0.0
O35 O 0.70138 0.69036 0.60504 0.0
O36 O 0.6332 0.59462 0.58513 0.0
O37 O 0.59066 0.71099 0.56388 0.0
O38 O 0.68294 0.61387 0.60651 0.0
O39 O 0.66111 0.73139 0.5903 0.0
O40 O 0.58055 0.65237 0.56985 0.0
O41 O 0.72815 0.68844 0.5316 0.0
O42 O 0.65619 0.60032 0.51089 0.0
O43 O 0.62028 0.71164 0.49069 0.0
Sc44 Sc 0.85225 0.22225 0.03764 0.0
Sc45 Sc 0.80039 0.14876 0.06799 0.0
Sc46 Sc 0.88072 0.13452 0.03023 0.0
O47 O 0.8443 0.16866 0.04509 0.0
C48 C 0.87949 0.1925 0.96796 0.0
C49 C 0.77152 0.21519 0.02082 0.0
C50 C 0.81048 0.09351 0.01316 0.0
C51 C 0.82008 0.21305 0.11248 0.0
C52 C 0.92814 0.19625 0.05777 0.0
C53 C 0.85982 0.09832 0.10194 0.0
O54 O 0.87117 0.21798 0.98604 0.0
O55 O 0.76748 0.18641 0.03935 0.0
O56 O 0.84333 0.09714 0.01304 0.0
O57 O 0.83522 0.23177 0.08866 0.0
O58 O 0.92328 0.1659 0.04655 0.0
O59 O 0.82821 0.10838 0.09964 0.0
O60 O 0.90455 0.21981 0.05773 0.0
O61 O 0.80686 0.18272 0.10859 0.0
O62 O 0.88262 0.10732 0.0797 0.0
O63 O 0.80076 0.23079 0.017 0.0
O64 O 0.88175 0.16028 0.97991 0.0
O65 O 0.79019 0.11243 0.02961 0.0
Sc66 Sc 0.37782 0.36221 0.50564 0.0
Sc67 Sc 0.2963 0.33083 0.47957 0.0
Sc68 Sc 0.36319 0.27037 0.50755 0.0
O69 O 0.34565 0.32112 0.49762 0.0
C70 C 0.4317 0.30746 0.47691 0.0
C71 C 0.34157 0.38898 0.43562 0.0
C72 C 0.32203 0.26572 0.43767 0.0
C73 C 0.30493 0.3921 0.53046 0.0
C74 C 0.39149 0.30935 0.57121 0.0
C75 C 0.28419 0.26439 0.53318 0.0
O76 O 0.42206 0.33861 0.48285 0.0
O77 O 0.31398 0.37054 0.44059 0.0
O78 O 0.34564 0.25535 0.45878 0.0
O79 O 0.3379 0.39124 0.52916 0.0
O80 O 0.38268 0.28112 0.55747 0.0
O81 O 0.27311 0.2925 0.51675 0.0
O82 O 0.39125 0.34008 0.55568 0.0
O83 O 0.28563 0.37178 0.51412 0.0
O84 O 0.31539 0.25367 0.5313 0.0
O85 O 0.36676 0.38811 0.45662 0.0
O86 O 0.4134 0.28009 0.48478 0.0
O87 O 0.30163 0.29155 0.44242 0.0
H88 H 0.1791 0.21624 0.17643 0.0
H89 H 0.25437 0.13184 0.17136 0.0
H90 H 0.16033 0.1297 0.11323 0.0
H91 H 0.29039 0.16886 0.19492 0.0
C92 C 0.2742 0.18471 0.21057 0.0
C93 C 0.18762 0.192 0.16573 0.0
C94 C 0.16557 0.17463 0.1438 0.0
C95 C 0.22005 0.17731 0.17541 0.0
C96 C 0.23041 0.14472 0.16295 0.0
C97 C 0.2086 0.12732 0.14091 0.0
C98 C 0.1768 0.14288 0.13088 0.0
N99 N 0.23987 0.19433 0.20008 0.0
H100 H 0.23605 0.62271 0.65911 0.0
H101 H 0.31404 0.7025 0.67355 0.0
H102 H 0.33666 0.6153 0.61287 0.0
H103 H 0.27035 0.73372 0.69348 0.0
C104 C 0.25253 0.71384 0.70471 0.0
C105 C 0.26168 0.63371 0.65367 0.0
C106 C 0.28532 0.61511 0.63454 0.0
C107 C 0.27148 0.66549 0.66752 0.0
C108 C 0.30541 0.67896 0.66182 0.0
C109 C 0.3292 0.66081 0.64229 0.0
C110 C 0.31868 0.62923 0.62841 0.0
N111 N 0.24768 0.68102 0.68968 0.0
H112 H 0.94836 0.80056 0.28772 0.0
H113 H 0.88374 0.89363 0.29246 0.0
H114 H 0.96635 0.89348 0.21979 0.0
H115 H 0.84598 0.85488 0.31823 0.0
C116 C 0.86192 0.83508 0.33232 0.0
C117 C 0.94167 0.82746 0.27835 0.0
C118 C 0.96124 0.84492 0.25209 0.0
C119 C 0.91337 0.84444 0.2928 0.0
C120 C 0.90479 0.8796 0.28109 0.0
C121 C 0.92446 0.89742 0.25522 0.0
C122 C 0.95227 0.87991 0.24074 0.0
N123 N 0.89512 0.82573 0.31986 0.0
H124 H 0.53153 0.312 0.80568 0.0
H125 H 0.61614 0.38718 0.80426 0.0
H126 H 0.53927 0.39389 0.72465 0.0
H127 H 0.62076 0.37157 0.85876 0.0
C128 C 0.61185 0.34424 0.86248 0.0
C129 C 0.54478 0.33518 0.79401 0.0
C130 C 0.53262 0.35131 0.76313 0.0
C131 C 0.57426 0.34861 0.80974 0.0
C132 C 0.59213 0.37792 0.79366 0.0
C133 C 0.57986 0.3946 0.76283 0.0
C134 C 0.54969 0.38122 0.74808 0.0
N135 N 0.58612 0.33089 0.84073 0.0
H136 H 0.68301 0.29401 0.35971 0.0
H137 H 0.76095 0.3746 0.37008 0.0
H138 H 0.66272 0.38161 0.42098 0.0
H139 H 0.77238 0.35875 0.3142 0.0
C140 C 0.77082 0.32993 0.31794 0.0
C141 C 0.69129 0.31833 0.37048 0.0
C142 C 0.66859 0.33632 0.39114 0.0
C143 C 0.7242 0.33239 0.3622 0.0
C144 C 0.73518 0.36412 0.37564 0.0
C145 C 0.7132 0.38169 0.3973 0.0
C146 C 0.67996 0.36775 0.40465 0.0
N147 N 0.74572 0.31374 0.34045 0.0
H148 H 0.04182 0.20466 0.74839 0.0
H149 H 0.11413 0.11759 0.75289 0.0
H150 H 0.02344 0.11156 0.81618 0.0
H151 H 0.15127 0.16531 0.74648 0.0
C152 C 0.13874 0.1788 0.72438 0.0
C153 C 0.04922 0.1783 0.75871 0.0
C154 C 0.02849 0.1599 0.78362 0.0
C155 C 0.08037 0.16341 0.74798 0.0
C156 C 0.09016 0.12916 0.76126 0.0
C157 C 0.06984 0.11017 0.78594 0.0
C158 C 0.03893 0.12573 0.79669 0.0
N159 N 0.10204 0.18336 0.72434 0.0
H160 H 0.4474 0.68429 0.25278 0.0
H161 H 0.37778 0.59689 0.23838 0.0
H162 H 0.44188 0.59538 0.32744 0.0
H163 H 0.36458 0.6238 0.19035 0.0
C164 C 0.3749 0.65063 0.18786 0.0
C165 C 0.43705 0.6584 0.2613 0.0
C166 C 0.44793 0.64167 0.29255 0.0
C167 C 0.41176 0.64271 0.24141 0.0
C168 C 0.39739 0.60952 0.25299 0.0
C169 C 0.40823 0.5922 0.284 0.0
C170 C 0.43364 0.60842 0.30336 0.0
N171 N 0.40042 0.66204 0.21095 0.0
H172 H 0.73563 0.85907 0.89126 0.0
H173 H 0.81267 0.77829 0.87794 0.0
H174 H 0.83829 0.8691 0.9326 0.0
H175 H 0.77188 0.75158 0.85004 0.0
C176 C 0.75282 0.77143 0.8413 0.0
C177 C 0.76163 0.84867 0.8959 0.0
C178 C 0.78541 0.86727 0.91496 0.0
C179 C 0.77127 0.81704 0.88184 0.0
C180 C 0.80491 0.80292 0.88814 0.0
C181 C 0.82895 0.82099 0.90764 0.0
C182 C 0.81912 0.85358 0.91993 0.0
N183 N 0.74716 0.80204 0.85953 0.0
H184 H 0.15471 0.94121 0.07953 0.0
H185 H 0.25302 0.9388 0.02562 0.0
H186 H 0.273 0.99109 0.05496 0.0
H187 H 0.1438 0.0313 0.07115 0.0
H188 H 0.1243 0.0351 0.11232 0.0
H189 H 0.12039 0.99425 0.09173 0.0
H190 H 0.14758 0.9594 0.14444 0.0
H191 H 0.15144 0.00024 0.16538 0.0
H192 H 0.18927 0.97288 0.16023 0.0
H193 H 0.27871 0.04879 0.08464 0.0
H194 H 0.26895 0.10593 0.11094 0.0
H195 H 0.16704 0.06907 0.14462 0.0
C196 C 0.18078 0.95107 0.07434 0.0
C197 C 0.20227 0.93585 0.05022 0.0
C198 C 0.23612 0.94986 0.04413 0.0
C199 C 0.24771 0.97954 0.06072 0.0
C200 C 0.22532 0.99455 0.08358 0.0
C201 C 0.19265 0.98048 0.09055 0.0
C202 C 0.17209 0.00312 0.11349 0.0
C203 C 0.13817 0.01675 0.09612 0.0
C204 C 0.16467 0.98269 0.14793 0.0
C205 C 0.19769 0.03299 0.11729 0.0
C206 C 0.22853 0.02747 0.10041 0.0
C207 C 0.25492 0.05306 0.09842 0.0
C208 C 0.24924 0.08535 0.11343 0.0
C209 C 0.21726 0.09173 0.12965 0.0
C210 C 0.19174 0.06478 0.13233 0.0
H211 H 0.52967 0.63444 0.60662 0.0
H212 H 0.53653 0.74758 0.57734 0.0
H213 H 0.47617 0.75539 0.59722 0.0
H214 H 0.44638 0.62234 0.57764 0.0
H215 H 0.4336 0.59037 0.61159 0.0
H216 H 0.47864 0.59462 0.59975 0.0
H217 H 0.49519 0.60635 0.66182 0.0
H218 H 0.45013 0.60178 0.674 0.0
H219 H 0.4738 0.64157 0.68239 0.0
H220 H 0.41237 0.74912 0.61401 0.0
H221 H 0.352 0.72944 0.62702 0.0
H222 H 0.38855 0.62084 0.64591 0.0
C223 C 0.51886 0.66106 0.60497 0.0
C224 C 0.53793 0.69039 0.59038 0.0
C225 C 0.52257 0.7247 0.58861 0.0
C226 C 0.48827 0.7294 0.59982 0.0
C227 C 0.46989 0.69962 0.61309 0.0
C228 C 0.48489 0.66618 0.61604 0.0
C229 C 0.45913 0.638 0.62885 0.0
C230 C 0.45415 0.60969 0.6029 0.0
C231 C 0.47023 0.62093 0.66385 0.0
C232 C 0.4269 0.66053 0.63157 0.0
C233 C 0.43354 0.69607 0.62278 0.0
C234 C 0.40703 0.72145 0.62147 0.0
C235 C 0.37285 0.71006 0.62896 0.0
C236 C 0.36555 0.6736 0.63733 0.0
C237 C 0.3932 0.64885 0.63927 0.0
H238 H 0.8255 0.04186 0.13482 0.0
H239 H 0.92087 0.10344 0.13559 0.0
H240 H 0.9437 0.063 0.18239 0.0
H241 H 0.82268 0.01414 0.22838 0.0
H242 H 0.80759 0.97005 0.22089 0.0
H243 H 0.79583 0.00732 0.19181 0.0
H244 H 0.82144 0.97498 0.1416 0.0
H245 H 0.83319 0.93771 0.17044 0.0
H246 H 0.86593 0.95978 0.14385 0.0
H247 H 0.95937 0.01288 0.22306 0.0
H248 H 0.96822 0.95392 0.25344 0.0
H249 H 0.8637 0.92296 0.22641 0.0
C250 C 0.85071 0.0473 0.14566 0.0
C251 C 0.87134 0.07587 0.13202 0.0
C252 C 0.90469 0.08169 0.14589 0.0
C253 C 0.91776 0.05904 0.1726 0.0
C254 C 0.8972 0.03058 0.18506 0.0
C255 C 0.86443 0.02448 0.17207 0.0
C256 C 0.84969 0.98944 0.18711 0.0
C257 C 0.81701 0.99562 0.20832 0.0
C258 C 0.84214 0.96399 0.15908 0.0
C259 C 0.87978 0.97632 0.20963 0.0
C260 C 0.90661 0.00087 0.20852 0.0
C261 C 0.93834 0.99371 0.22473 0.0
C262 C 0.94317 0.96023 0.24185 0.0
C263 C 0.91646 0.93435 0.24252 0.0
C264 C 0.88409 0.94277 0.22695 0.0
H265 H 0.45085 0.28015 0.59845 0.0
H266 H 0.35743 0.3369 0.62316 0.0
H267 H 0.37991 0.34345 0.68129 0.0
H268 H 0.46961 0.23706 0.68701 0.0
H269 H 0.51571 0.24432 0.68165 0.0
H270 H 0.48888 0.23625 0.64536 0.0
H271 H 0.51095 0.29499 0.61434 0.0
H272 H 0.53765 0.30325 0.65041 0.0
H273 H 0.50634 0.33611 0.63471 0.0
H274 H 0.41601 0.35278 0.73232 0.0
H275 H 0.4642 0.36673 0.77115 0.0
H276 H 0.53525 0.30615 0.71285 0.0
C277 C 0.43464 0.29246 0.61677 0.0
C278 C 0.40212 0.30714 0.60707 0.0
C279 C 0.38209 0.3248 0.63074 0.0
C280 C 0.39463 0.32854 0.66373 0.0
C281 C 0.42735 0.31468 0.67245 0.0
C282 C 0.44712 0.29694 0.64965 0.0
C283 C 0.48349 0.28963 0.66331 0.0
C284 C 0.48978 0.24942 0.66972 0.0
C285 C 0.51121 0.30705 0.63927 0.0
C286 C 0.48162 0.30751 0.69649 0.0
C287 C 0.44874 0.32096 0.70175 0.0
C288 C 0.4416 0.34157 0.72899 0.0
C289 C 0.46896 0.34932 0.75092 0.0
C290 C 0.50287 0.33668 0.7452 0.0
C291 C 0.50913 0.315 0.71816 0.0
H292 H 0.68594 0.52603 0.52819 0.0
H293 H 0.72421 0.60472 0.45179 0.0
H294 H 0.74404 0.55639 0.41659 0.0
H295 H 0.75517 0.45786 0.51739 0.0
H296 H 0.72446 0.42187 0.52422 0.0
H297 H 0.7184 0.46247 0.54509 0.0
H298 H 0.65641 0.46906 0.5193 0.0
H299 H 0.66221 0.42863 0.49845 0.0
H300 H 0.65084 0.46916 0.47381 0.0
H301 H 0.75118 0.49963 0.38671 0.0
H302 H 0.74437 0.44014 0.36456 0.0
H303 H 0.70436 0.39907 0.46252 0.0
C304 C 0.69929 0.53287 0.50439 0.0
C305 C 0.7039 0.56857 0.49241 0.0
C306 C 0.72088 0.57717 0.46114 0.0
C307 C 0.73227 0.54999 0.44122 0.0
C308 C 0.72686 0.5147 0.45347 0.0
C309 C 0.71106 0.50618 0.48456 0.0
C310 C 0.70533 0.46661 0.4908 0.0
C311 C 0.72716 0.45131 0.52117 0.0
C312 C 0.6664 0.45788 0.49586 0.0
C313 C 0.71879 0.45421 0.45767 0.0
C314 C 0.7316 0.48213 0.43659 0.0
C315 C 0.74201 0.47743 0.40328 0.0
C316 C 0.73817 0.44357 0.39094 0.0
C317 C 0.72383 0.41515 0.41188 0.0
C318 C 0.71539 0.42039 0.44598 0.0
H319 H 0.88016 0.14727 0.91703 0.0
H320 H 0.90629 0.25516 0.93927 0.0
H321 H 0.93799 0.26328 0.88477 0.0
H322 H 0.9572 0.12443 0.88954 0.0
H323 H 0.94326 0.09773 0.85582 0.0
H324 H 0.91493 0.10353 0.8911 0.0
H325 H 0.86653 0.12803 0.84991 0.0
H326 H 0.89471 0.12195 0.81422 0.0
H327 H 0.8758 0.16497 0.81958 0.0
H328 H 0.97882 0.2541 0.83697 0.0
H329 H 0.02243 0.22956 0.79941 0.0
H330 H 0.96679 0.12905 0.80492 0.0
C331 C 0.89138 0.17309 0.90977 0.0
C332 C 0.8908 0.20057 0.93234 0.0
C333 C 0.90608 0.23385 0.92221 0.0
C334 C 0.92415 0.23869 0.89125 0.0
C335 C 0.92591 0.21031 0.8704 0.0
C336 C 0.90918 0.17838 0.87891 0.0
C337 C 0.9187 0.15048 0.85472 0.0
C338 C 0.93447 0.11712 0.87395 0.0
C339 C 0.88705 0.1408 0.83333 0.0
C340 C 0.94557 0.17072 0.833 0.0
C341 C 0.94887 0.20542 0.84188 0.0
C342 C 0.97564 0.22742 0.82891 0.0
C343 C 0.00031 0.21323 0.8074 0.0
C344 C 0.99815 0.17728 0.79912 0.0
C345 C 0.96931 0.15657 0.8108 0.0
H346 H 0.40105 0.4174 0.4075 0.0
H347 H 0.2888 0.41788 0.39507 0.0
H348 H 0.29416 0.46583 0.34894 0.0
H349 H 0.41303 0.5076 0.39942 0.0
H350 H 0.45341 0.50692 0.37628 0.0
H351 H 0.44119 0.46928 0.40437 0.0
H352 H 0.44668 0.42778 0.35499 0.0
H353 H 0.45929 0.46529 0.32667 0.0
H354 H 0.42288 0.43799 0.316 0.0
H355 H 0.31151 0.51971 0.31045 0.0
H356 H 0.33916 0.57298 0.2819 0.0
H357 H 0.44024 0.53475 0.31777 0.0
C358 C 0.37758 0.42703 0.39464 0.0
C359 C 0.34448 0.41397 0.40494 0.0
C360 C 0.31445 0.42733 0.38745 0.0
C361 C 0.31726 0.45457 0.36124 0.0
C362 C 0.3503 0.46761 0.35247 0.0
C363 C 0.37995 0.45385 0.36837 0.0
C364 C 0.41219 0.47395 0.35614 0.0
C365 C 0.43103 0.49041 0.38582 0.0
C366 C 0.4367 0.44981 0.33732 0.0
C367 C 0.39595 0.50225 0.33194 0.0
C368 C 0.36029 0.498 0.32982 0.0
C369 C 0.33949 0.5228 0.31128 0.0
C370 C 0.35549 0.55295 0.295 0.0
C371 C 0.39195 0.55811 0.29743 0.0
C372 C 0.41232 0.53179 0.31548 0.0
H373 H 0.00919 0.82449 0.00374 0.0
H374 H 0.05663 0.77405 0.91988 0.0
H375 H 0.99815 0.7657 0.89459 0.0
H376 H 0.93123 0.76639 0.00967 0.0
H377 H 0.90364 0.8024 0.02091 0.0
H378 H 0.9489 0.8017 0.03306 0.0
H379 H 0.9571 0.86456 0.00271 0.0
H380 H 0.91201 0.86541 0.99042 0.0
H381 H 0.94532 0.87209 0.95843 0.0
H382 H 0.9347 0.77113 0.87509 0.0
H383 H 0.87267 0.78608 0.86517 0.0
H384 H 0.86717 0.82586 0.96584 0.0
C385 C 0.00716 0.81127 0.98027 0.0
C386 C 0.03714 0.8001 0.9635 0.0
C387 C 0.03374 0.78266 0.93303 0.0
C388 C 0.00072 0.77784 0.91856 0.0
C389 C 0.97154 0.78972 0.93552 0.0
C390 C 0.97453 0.80542 0.96609 0.0
C391 C 0.93954 0.81665 0.97903 0.0
C392 C 0.93029 0.79551 0.01266 0.0
C393 C 0.93845 0.85706 0.98285 0.0
C394 C 0.91645 0.80629 0.95027 0.0
C395 C 0.93518 0.79079 0.92534 0.0
C396 C 0.91963 0.78243 0.89485 0.0
C397 C 0.88427 0.79085 0.8895 0.0
C398 C 0.86486 0.8073 0.91464 0.0
C399 C 0.88117 0.81376 0.94582 0.0
H400 H 0.82519 0.02486 0.02969 0.0
H401 H 0.7638 0.09406 0.96047 0.0
H402 H 0.74391 0.04155 0.93078 0.0
H403 H 0.85502 0.96772 0.97212 0.0
H404 H 0.85221 0.92789 0.00023 0.0
H405 H 0.85823 0.97031 0.01757 0.0
H406 H 0.80312 0.95962 0.05482 0.0
H407 H 0.79692 0.917 0.03759 0.0
H408 H 0.76235 0.94942 0.03495 0.0
H409 H 0.73858 0.98228 0.90414 0.0
H410 H 0.74585 0.92188 0.88453 0.0
H411 H 0.80546 0.89137 0.97578 0.0
C412 C 0.8071 0.02873 0.00859 0.0
C413 C 0.79601 0.06304 0.99696 0.0
C414 C 0.77235 0.06764 0.96951 0.0
C415 C 0.76095 0.03807 0.95268 0.0
C416 C 0.77284 0.00436 0.96446 0.0
C417 C 0.79491 -0.0004 0.99222 0.0
C418 C 0.80524 0.9611 -0.00085 0.0
C419 C 0.84501 0.95651 0.99712 0.0
C420 C 0.79105 0.9459 0.03367 0.0
C421 C 0.78693 0.94506 0.96996 0.0
C422 C 0.76821 0.97023 0.95026 0.0
C423 C 0.75237 0.96214 0.91986 0.0
C424 C 0.75651 0.92767 0.909 0.0
C425 C 0.77627 0.90182 0.92859 0.0
C426 C 0.79044 0.91052 0.96003 0.0
H427 H 0.47215 0.3594 0.44502 0.0
H428 H 0.46873 0.24562 0.47209 0.0
H429 H 0.52747 0.23935 0.44778 0.0
H430 H 0.52016 0.35435 0.36484 0.0
H431 H 0.54453 0.39424 0.37121 0.0
H432 H 0.50108 0.38904 0.38798 0.0
H433 H 0.52408 0.39993 0.44828 0.0
H434 H 0.56754 0.4051 0.4318 0.0
H435 H 0.55878 0.37248 0.4665 0.0
H436 H 0.58904 0.24675 0.42567 0.0
H437 H 0.64771 0.26729 0.40733 0.0
H438 H 0.60889 0.37551 0.39263 0.0
C439 C 0.48353 0.33306 0.44556 0.0
C440 C 0.46588 0.30303 0.46057 0.0
C441 C 0.48172 0.26903 0.46064 0.0
C442 C 0.51505 0.26518 0.44685 0.0
C443 C 0.5319 0.29549 0.4327 0.0
C444 C 0.5165 0.32871 0.43171 0.0
C445 C 0.54059 0.35737 0.41664 0.0
C446 C 0.5257 0.37476 0.38318 0.0
C447 C 0.54819 0.38534 0.44235 0.0
C448 C 0.57242 0.33527 0.41033 0.0
C449 C 0.56692 0.2996 0.41945 0.0
C450 C 0.59348 0.27453 0.41793 0.0
C451 C 0.62666 0.2864 0.40737 0.0
C452 C 0.6329 0.32299 0.39867 0.0
C453 C 0.60507 0.3474 0.39943 0.0
H454 H 0.10364 0.96471 0.94002 0.0
H455 H 0.16619 0.90603 0.87158 0.0
H456 H 0.15173 0.95048 0.82413 0.0
H457 H 0.03599 0.99373 0.88069 0.0
H458 H 0.03232 0.03712 0.89689 0.0
H459 H 0.04593 -0.0004 0.9247 0.0
H460 H 0.10207 0.03334 0.93987 0.0
H461 H 0.08851 0.07101 0.91231 0.0
H462 H 0.13032 0.05078 0.90618 0.0
H463 H 0.12915 0.00131 0.7841 0.0
H464 H 0.10528 0.05673 0.75602 0.0
H465 H 0.06266 0.08429 0.85286 0.0
C466 C 0.114 0.961 0.91496 0.0
C467 C 0.13569 0.93178 0.90928 0.0
C468 C 0.14944 0.92825 0.87636 0.0
C469 C 0.14124 0.95323 0.84929 0.0
C470 C 0.11972 0.98178 0.85579 0.0
C471 C 0.10669 0.98598 0.88795 0.0
C472 C 0.08597 0.02003 0.88886 0.0
C473 C 0.04779 0.01213 0.89834 0.0
C474 C 0.10273 0.04528 0.91324 0.0
C475 C 0.08927 0.03439 0.85215 0.0
C476 C 0.10839 0.01178 0.83334 0.0
C477 C 0.11443 0.01937 0.7987 0.0
C478 C 0.10095 0.05112 0.78303 0.0
C479 C 0.08212 0.07529 0.80209 0.0
C480 C 0.07626 0.06641 0.83714 0.0
H481 H 0.53703 0.66743 0.46978 0.0
H482 H 0.62564 0.71571 0.41664 0.0
H483 H 0.59299 0.71561 0.36194 0.0
H484 H 0.51463 0.60897 0.41089 0.0
H485 H 0.46824 0.61289 0.41609 0.0
H486 H 0.49689 0.62126 0.45075 0.0
H487 H 0.47011 0.68406 0.45428 0.0
H488 H 0.44099 0.67575 0.41979 0.0
H489 H 0.46881 0.7144 0.41673 0.0
H490 H 0.55247 0.7016 0.31235 0.0
H491 H 0.50797 0.67848 0.27394 0.0
H492 H 0.44555 0.64338 0.36172 0.0
C493 C 0.54928 0.6787 0.44668 0.0
C494 C 0.5837 0.69153 0.44713 0.0
C495 C 0.59908 0.70605 0.41663 0.0
C496 C 0.58075 0.70599 0.38557 0.0
C497 C 0.54698 0.69207 0.38589 0.0
C498 C 0.53128 0.67934 0.41591 0.0
C499 C 0.49568 0.66404 0.40981 0.0
C500 C 0.49379 0.62446 0.42263 0.0
C501 C 0.46722 0.68588 0.42611 0.0
C502 C 0.49413 0.66871 0.37147 0.0
C503 C 0.52372 0.68508 0.35792 0.0
C504 C 0.52893 0.68944 0.32278 0.0
C505 C 0.50347 0.67631 0.30115 0.0
C506 C 0.47332 0.65891 0.31478 0.0
C507 C 0.46845 0.65609 0.35039 0.0
H508 H 0.33505 0.42405 0.58257 0.0
H509 H 0.24045 0.42383 0.52232 0.0
H510 H 0.22052 0.47801 0.5488 0.0
H511 H 0.29672 0.46128 0.65982 0.0
H512 H 0.33555 0.48685 0.66623 0.0
H513 H 0.3385 0.44463 0.64758 0.0
H514 H 0.37073 0.47534 0.59565 0.0
H515 H 0.36748 0.51761 0.61378 0.0
H516 H 0.35046 0.51241 0.57174 0.0
H517 H 0.21592 0.53777 0.5754 0.0
H518 H 0.22667 0.59562 0.6001 0.0
H519 H 0.32457 0.55524 0.64178 0.0
C520 C 0.30966 0.43477 0.57557 0.0
C521 C 0.28929 0.4198 0.55039 0.0
C522 C 0.25632 0.4347 0.54183 0.0
C523 C 0.24486 0.4655 0.5567 0.0
C524 C 0.26647 0.48056 0.58036 0.0
C525 C 0.298 0.46525 0.59005 0.0
C526 C 0.31825 0.48806 0.61316 0.0
C527 C 0.32249 0.46907 0.64882 0.0
C528 C 0.3538 0.49899 0.59763 0.0
C529 C 0.29403 0.5195 0.6138 0.0
C530 C 0.26398 0.51464 0.5953 0.0
C531 C 0.23906 0.54152 0.59045 0.0
C532 C 0.24534 0.57424 0.60451 0.0
C533 C 0.2765 0.57979 0.62263 0.0
C534 C 0.3006 0.55173 0.62787 0.0
H535 H 0.1133 0.85249 0.12127 0.0
H536 H 0.08261 0.74702 0.09544 0.0
H537 H 0.0477 0.73978 0.14819 0.0
H538 H 0.11242 0.83281 0.21813 0.0
H539 H 0.0956 0.87669 0.22361 0.0
H540 H 0.12478 0.86969 0.18891 0.0
H541 H 0.07944 0.89778 0.14633 0.0
H542 H 0.04998 0.90444 0.18055 0.0
H543 H 0.03613 0.87935 0.14564 0.0
H544 H 0.00568 0.75017 0.19528 0.0
H545 H 0.96308 0.77596 0.2334 0.0
H546 H 0.0236 0.87335 0.2306 0.0
C547 C 0.10032 0.82731 0.12743 0.0
C548 C 0.10063 0.80029 0.10441 0.0
C549 C 0.08306 0.76787 0.113 0.0
C550 C 0.06314 0.76357 0.1429 0.0
C551 C 0.06184 0.7916 0.16423 0.0
C552 C 0.08069 0.82256 0.15721 0.0
C553 C 0.07173 0.85045 0.18156 0.0
C554 C 0.103 0.85783 0.20442 0.0
C555 C 0.05852 0.885 0.16236 0.0
C556 C 0.04302 0.83141 0.20176 0.0
C557 C 0.03808 0.79724 0.19196 0.0
C558 C 0.01002 0.77643 0.20396 0.0
C559 C 0.98594 0.79129 0.2257 0.0
C560 C 0.98997 0.82671 0.23499 0.0
C561 C 0.01973 0.84624 0.22391 0.0
H562 H 0.62995 0.52705 0.6046 0.0
H563 H 0.67575 0.59761 0.67466 0.0
H564 H 0.66458 0.55259 0.72261 0.0
H565 H 0.56234 0.49409 0.65622 0.0
H566 H 0.5647 0.44925 0.6432 0.0
H567 H 0.57866 0.48586 0.61461 0.0
H568 H 0.63921 0.45646 0.60923 0.0
H569 H 0.62533 0.41952 0.63761 0.0
H570 H 0.66402 0.44404 0.64715 0.0
H571 H 0.6418 0.50208 0.76323 0.0
H572 H 0.61365 0.44938 0.79237 0.0
H573 H 0.58807 0.41053 0.6941 0.0
C574 C 0.63795 0.53288 0.63001 0.0
C575 C 0.65344 0.56576 0.63614 0.0
C576 C 0.66392 0.57242 0.66957 0.0
C577 C 0.65762 0.54708 0.69687 0.0
C578 C 0.6416 0.51508 0.68998 0.0
C579 C 0.63252 0.50775 0.65723 0.0
C580 C 0.61514 0.47184 0.65638 0.0
C581 C 0.57802 0.47551 0.64175 0.0
C582 C 0.63726 0.44646 0.63641 0.0
C583 C 0.61472 0.46048 0.69394 0.0
C584 C 0.63006 0.48564 0.71301 0.0
C585 C 0.63039 0.48186 0.74849 0.0
C586 C 0.61445 0.4517 0.76482 0.0
C587 C 0.59855 0.42558 0.74565 0.0
C588 C 0.59944 0.43002 0.70971 0.0
H589 H 0.97034 0.14699 0.08959 0.0
H590 H 0.96284 0.26012 0.0612 0.0
H591 H 0.02204 0.26878 0.08483 0.0
H592 H 0.01779 0.15506 0.16927 0.0
H593 H 0.04297 0.11552 0.16378 0.0
H594 H -0.00052 0.11944 0.14672 0.0
H595 H 0.02293 0.10779 0.08682 0.0
H596 H 0.06641 0.10391 0.10362 0.0
H597 H 0.05712 0.13565 0.06831 0.0
H598 H 0.08506 0.26294 0.10697 0.0
H599 H 0.14405 0.24353 0.12629 0.0
H600 H 0.1065 0.13504 0.14257 0.0
C601 C 0.98102 0.17368 0.08845 0.0
C602 C 0.96231 0.20287 0.07328 0.0
C603 C 0.9769 0.23743 0.07275 0.0
C604 C 0.01041 0.24254 0.0861 0.0
C605 C 0.02842 0.21291 0.10045 0.0
C606 C 0.01388 0.17924 0.10201 0.0
C607 C 0.03843 0.15142 0.1177 0.0
C608 C 0.02379 0.13437 0.15137 0.0
C609 C 0.04671 0.12305 0.09261 0.0
C610 C 0.06969 0.17438 0.12374 0.0
C611 C 0.06362 0.2098 0.11389 0.0
C612 C 0.08987 0.23534 0.11521 0.0
C613 C 0.12323 0.22415 0.12629 0.0
C614 C 0.12989 0.18776 0.13565 0.0
C615 C 0.10238 0.16298 0.13517 0.0
H616 H 0.22946 0.71991 0.05553 0.0
H617 H 0.28684 0.81923 0.04118 0.0
H618 H 0.33283 0.79438 0.0798 0.0
H619 H 0.24738 0.7028 0.14299 0.0
H620 H 0.25173 0.65534 0.14105 0.0
H621 H 0.22431 0.68029 0.11088 0.0
H622 H 0.25871 0.65588 0.06102 0.0
H623 H 0.2862 0.63073 0.09105 0.0
H624 H 0.30528 0.66147 0.05915 0.0
H625 H 0.37056 0.75998 0.12334 0.0
H626 H 0.39818 0.71769 0.16623 0.0
H627 H 0.31697 0.64055 0.15038 0.0
C628 C 0.2518 0.73642 0.06024 0.0
C629 C 0.25445 0.77158 0.0453 0.0
C630 C 0.28423 0.79217 0.05216 0.0
C631 C 0.31049 0.77831 0.07413 0.0
C632 C 0.30679 0.74371 0.08873 0.0
C633 C 0.27834 0.72293 0.08181 0.0
C634 C 0.28022 0.6868 0.10119 0.0
C635 C 0.24906 0.68099 0.12547 0.0
C636 C 0.28276 0.65696 0.07663 0.0
C637 C 0.31385 0.69069 0.1206 0.0
C638 C 0.32883 0.72369 0.11311 0.0
C639 C 0.35927 0.73392 0.12913 0.0
C640 C 0.37471 0.70979 0.15351 0.0
C641 C 0.35971 0.67585 0.16141 0.0
C642 C 0.32912 0.66621 0.1445 0.0
H643 H 0.72822 0.69322 0.66148 0.0
H644 H 0.65235 0.77646 0.63592 0.0
H645 H 0.66042 0.79874 0.69308 0.0
H646 H 0.70219 0.67482 0.74758 0.0
H647 H 0.74591 0.6667 0.76291 0.0
H648 H 0.73464 0.65807 0.71986 0.0
H649 H 0.78434 0.69976 0.69696 0.0
H650 H 0.79597 0.70828 0.73993 0.0
H651 H 0.78609 0.74487 0.70939 0.0
H652 H 0.67707 0.8114 0.75351 0.0
H653 H 0.70191 0.81457 0.81114 0.0
H654 H 0.76569 0.72197 0.79626 0.0
C655 C 0.71333 0.71631 0.66759 0.0
C656 C 0.68968 0.73316 0.64405 0.0
C657 C 0.67072 0.76317 0.65343 0.0
C658 C 0.67505 0.77593 0.68586 0.0
C659 C 0.69831 0.75827 0.7085 0.0
C660 C 0.71717 0.72917 0.69965 0.0
C661 C 0.74041 0.71466 0.7284 0.0
C662 C 0.73016 0.67629 0.74039 0.0
C663 C 0.77898 0.71706 0.71805 0.0
C664 C 0.73189 0.74026 0.75496 0.0
C665 C 0.70752 0.76522 0.7431 0.0
C666 C 0.6961 0.79197 0.76304 0.0
C667 C 0.71035 0.79351 0.79575 0.0
C668 C 0.73568 0.76839 0.80806 0.0
C669 C 0.74619 0.7413 0.7875 0.0
H670 H 0.81943 0.28213 0.13137 0.0
H671 H 0.81907 0.17174 0.17168 0.0
H672 H 0.8153 0.19091 0.22989 0.0
H673 H 0.8682 0.31858 0.20356 0.0
H674 H 0.84197 0.35832 0.20223 0.0
H675 H 0.84997 0.33649 0.16371 0.0
H676 H 0.78354 0.33189 0.15333 0.0
H677 H 0.77538 0.35375 0.19164 0.0
H678 H 0.75636 0.31077 0.18616 0.0
H679 H 0.80483 0.22041 0.28231 0.0
H680 H 0.78549 0.25919 0.3264 0.0
H681 H 0.79232 0.35109 0.25373 0.0
C682 C 0.81928 0.26214 0.15256 0.0
C683 C 0.81949 0.22551 0.14708 0.0
C684 C 0.81863 0.19998 0.17531 0.0
C685 C 0.81686 0.21057 0.20851 0.0
C686 C 0.81604 0.2468 0.21311 0.0
C687 C 0.81715 0.27229 0.18604 0.0
C688 C 0.81219 0.30929 0.19805 0.0
C689 C 0.84505 0.33201 0.1915 0.0
C690 C 0.77995 0.32747 0.18131 0.0
C691 C 0.80674 0.30033 0.23582 0.0
C692 C 0.80976 0.26415 0.24394 0.0
C693 C 0.80296 0.24887 0.2765 0.0
C694 C 0.79187 0.27104 0.3013 0.0
C695 C 0.78762 0.30798 0.29329 0.0
C696 C 0.79609 0.32296 0.26049 0.0
H697 H 0.22175 0.28472 0.56121 0.0
H698 H 0.29448 0.19652 0.55949 0.0
H699 H 0.26131 0.16347 0.60449 0.0
H700 H 0.2112 0.28139 0.64876 0.0
H701 H 0.16526 0.29109 0.64876 0.0
H702 H 0.19167 0.30672 0.61307 0.0
H703 H 0.15119 0.27494 0.57221 0.0
H704 H 0.12441 0.25941 0.60779 0.0
H705 H 0.14252 0.22804 0.58021 0.0
H706 H 0.22725 0.14377 0.65468 0.0
H707 H 0.18943 0.13577 0.70519 0.0
H708 H 0.13521 0.23369 0.67404 0.0
C709 C 0.2301 0.25808 0.56969 0.0
C710 C 0.26086 0.24335 0.55683 0.0
C711 C 0.2712 0.20859 0.569 0.0
C712 C 0.25245 0.18943 0.59452 0.0
C713 C 0.22305 0.20509 0.60745 0.0
C714 C 0.21145 0.23833 0.59524 0.0
C715 C 0.18011 0.24957 0.61535 0.0
C716 C 0.18753 0.28424 0.6325 0.0
C717 C 0.14763 0.25319 0.59252 0.0
C718 C 0.17693 0.21802 0.64145 0.0
C719 C 0.20203 0.19272 0.63619 0.0
C720 C 0.20686 0.16285 0.65862 0.0
C721 C 0.18547 0.15862 0.68726 0.0
C722 C 0.15927 0.18378 0.69293 0.0
C723 C 0.15457 0.21367 0.6696 0.0
H724 H 0.71317 0.77186 0.46446 0.0
H725 H 0.78965 0.70014 0.51347 0.0
H726 H 0.83437 0.72426 0.47361 0.0
H727 H 0.74237 0.76426 0.38021 0.0
H728 H 0.7349 0.81025 0.36619 0.0
H729 H 0.70906 0.7893 0.40007 0.0
H730 H 0.72696 0.83843 0.4395 0.0
H731 H 0.75276 0.85965 0.40566 0.0
H732 H 0.77248 0.8472 0.44637 0.0
H733 H 0.87011 0.75325 0.42694 0.0
H734 H 0.89502 0.78643 0.37649 0.0
H735 H 0.79605 0.83976 0.35727 0.0
C736 C 0.73943 0.7616 0.46715 0.0
C737 C 0.74781 0.7341 0.4922 0.0
C738 C 0.78245 0.72113 0.49451 0.0
C739 C 0.80814 0.7347 0.47202 0.0
C740 C 0.7989 0.76132 0.44734 0.0
C741 C 0.76548 0.77479 0.44479 0.0
C742 C 0.76226 0.80247 0.41503 0.0
C743 C 0.73557 0.79086 0.38883 0.0
C744 C 0.75308 0.83911 0.42739 0.0
C745 C 0.79898 0.80201 0.40106 0.0
C746 C 0.81967 0.77816 0.42021 0.0
C747 C 0.85427 0.7722 0.41185 0.0
C748 C 0.86814 0.7911 0.38306 0.0
C749 C 0.84739 0.81563 0.36301 0.0
C750 C 0.81246 0.82125 0.3723 0.0
H751 H 0.76552 0.28162 0.98782 0.0
H752 H 0.70901 0.18273 0.00978 0.0
H753 H 0.66022 0.20625 0.97409 0.0
H754 H 0.68933 0.34035 0.98737 0.0
H755 H 0.7062 0.36973 0.95314 0.0
H756 H 0.73568 0.34591 0.98223 0.0
H757 H 0.76655 0.31926 0.93141 0.0
H758 H 0.73713 0.34284 0.9022 0.0
H759 H 0.74132 0.29519 0.90197 0.0
H760 H 0.61994 0.23843 0.93188 0.0
H761 H 0.58986 0.27835 0.88868 0.0
H762 H 0.67164 0.35686 0.89613 0.0
C763 C 0.74275 0.26501 0.98547 0.0
C764 C 0.74116 0.2303 0.00162 0.0
C765 C 0.71082 0.20948 0.99783 0.0
C766 C 0.68296 0.22257 0.97757 0.0
C767 C 0.68565 0.25667 0.96161 0.0
C768 C 0.7146 0.27776 0.96564 0.0
C769 C 0.71144 0.31309 0.945 0.0
C770 C 0.7106 0.3441 0.96834 0.0
C771 C 0.74085 0.31785 0.91858 0.0
C772 C 0.67654 0.30825 0.92809 0.0
C773 C 0.66204 0.27555 0.938 0.0
C774 C 0.63079 0.2643 0.92428 0.0
C775 C 0.61397 0.28707 0.8997 0.0
C776 C 0.62845 0.32068 0.88934 0.0
C777 C 0.65988 0.33145 0.90401 0.0
H778 H 0.27156 0.27467 0.38803 0.0
H779 H 0.36741 0.21749 0.41346 0.0
H780 H 0.36577 0.19132 0.35793 0.0
H781 H 0.23077 0.20444 0.34382 0.0
H782 H 0.21068 0.23486 0.31222 0.0
H783 H 0.21915 0.24871 0.35429 0.0
H784 H 0.25433 0.30268 0.32819 0.0
H785 H 0.24621 0.28885 0.28605 0.0
H786 H 0.29027 0.29527 0.3002 0.0
H787 H 0.35516 0.17315 0.29879 0.0
H788 H 0.33373 0.16098 0.24144 0.0
H789 H 0.24439 0.22886 0.2552 0.0
C790 C 0.29212 0.25648 0.38207 0.0
C791 C 0.31961 0.2482 0.40522 0.0
C792 C 0.34596 0.2242 0.39632 0.0
C793 C 0.34537 0.20927 0.36474 0.0
C794 C 0.31817 0.21838 0.34241 0.0
C795 C 0.29184 0.24114 0.35076 0.0
C796 C 0.26549 0.24641 0.32219 0.0
C797 C 0.22939 0.23278 0.33383 0.0
C798 C 0.26401 0.28563 0.30834 0.0
C799 C 0.28123 0.22317 0.29643 0.0
C800 C 0.31172 0.20741 0.30852 0.0
C801 C 0.33122 0.18518 0.2891 0.0
C802 C 0.31896 0.17852 0.2566 0.0
C803 C 0.28746 0.19385 0.24405 0.0
C804 C 0.26851 0.21662 0.26418 0.0
H805 H 0.22456 0.81137 0.87521 0.0
H806 H 0.15628 0.72403 0.90952 0.0
H807 H 0.16419 0.69748 0.85465 0.0
H808 H 0.19588 0.8186 0.78756 0.0
H809 H 0.23877 0.82829 0.7709 0.0
H810 H 0.22721 0.84098 0.81267 0.0
H811 H 0.28004 0.8058 0.83862 0.0
H812 H 0.29184 0.79314 0.79696 0.0
H813 H 0.2849 0.75941 0.83111 0.0
H814 H 0.18026 0.67975 0.79665 0.0
H815 H 0.20488 0.67116 0.74004 0.0
H816 H 0.26255 0.76998 0.74337 0.0
C817 C 0.21119 0.78668 0.87127 0.0
C818 C 0.18979 0.76983 0.8968 0.0
C819 C 0.17286 0.73749 0.89046 0.0
C820 C 0.17709 0.72221 0.85931 0.0
C821 C 0.19827 0.73959 0.83474 0.0
C822 C 0.21511 0.77105 0.84036 0.0
C823 C 0.23701 0.78394 0.81 0.0
C824 C 0.22392 0.82009 0.79436 0.0
C825 C 0.27574 0.78565 0.81977 0.0
C826 C 0.23011 0.75459 0.78655 0.0
C827 C 0.20754 0.72938 0.80125 0.0
C828 C 0.19786 0.69936 0.78481 0.0
C829 C 0.21199 0.69473 0.75265 0.0
C830 C 0.23558 0.72 0.73738 0.0
C831 C 0.24438 0.75043 0.75443 0.0
loop_
_geom_bond_atom_site_label_1
_geom_bond_atom_site_label_2
_geom_bond_distance
_geom_bond_site_symmetry_2
_ccdc_geom_bond_type
Sc0 O3 2.025 . S
Sc0 O10 2.105 1_554 S
Sc0 O13 2.105 . S
Sc0 O16 2.105 . S
Sc0 O19 2.105 1_554 S
Sc1 O3 2.025 . S
Sc1 O11 2.105 1_554 S
Sc1 O15 2.105 . S
Sc1 O17 2.105 . S
Sc1 O21 2.105 1_554 S
Sc2 O3 2.025 1_556 S
Sc2 O12 2.105 . S
Sc2 O14 2.105 1_556 S
Sc2 O18 2.105 1_556 S
Sc2 O20 2.105 . S
O3 Sc0 2.025 . S
O3 Sc1 2.025 . S
O3 Sc2 2.025 1_554 S
C4 O10 1.268 . S
C4 O20 1.268 . S
C5 O11 1.268 . S
C5 O19 1.268 . S
C6 O12 1.268 . S
C6 O21 1.268 . S
C7 O13 1.268 . S
C7 O17 1.268 . S
C8 O14 1.268 . S
C8 O16 1.268 . S
C9 O15 1.268 . S
C9 O18 1.268 . S
O10 Sc0 2.105 1_556 S
O10 C4 1.268 . S
O11 Sc1 2.105 1_556 S
O11 C5 1.268 . S
O12 Sc2 2.105 . S
O12 C6 1.268 . S
O13 Sc0 2.105 . S
O13 C7 1.268 . S
O14 Sc2 2.105 1_554 S
O14 C8 1.268 . S
O15 Sc1 2.105 . S
O15 C9 1.268 . S
O16 Sc0 2.105 . S
O16 C8 1.268 . S
O17 Sc1 2.105 . S
O17 C7 1.268 . S
O18 Sc2 2.105 1_554 S
O18 C9 1.268 . S
O19 Sc0 2.105 1_556 S
O19 C5 1.268 . S
O20 Sc2 2.105 . S
O20 C4 1.268 . S
O21 Sc1 2.105 1_556 S
O21 C6 1.268 . S
Sc22 O25 2.025 . S
Sc22 O32 2.105 . S
Sc22 O35 2.105 . S
Sc22 O38 2.105 . S
Sc22 O41 2.105 . S
Sc23 O25 2.025 . S
Sc23 O33 2.105 . S
Sc23 O37 2.105 . S
Sc23 O39 2.105 . S
Sc23 O43 2.105 . S
Sc24 O25 2.025 . S
Sc24 O34 2.105 . S
Sc24 O36 2.105 . S
Sc24 O40 2.105 . S
Sc24 O42 2.105 . S
O25 Sc22 2.025 . S
O25 Sc23 2.025 . S
O25 Sc24 2.025 . S
C26 O32 1.268 . S
C26 O42 1.268 . S
C27 O33 1.268 . S
C27 O41 1.268 . S
C28 O34 1.268 . S
C28 O43 1.268 . S
C29 O35 1.268 . S
C29 O39 1.268 . S
C30 O36 1.268 . S
C30 O38 1.268 . S
C31 O37 1.268 . S
C31 O40 1.268 . S
O32 Sc22 2.105 . S
O32 C26 1.268 . S
O33 Sc23 2.105 . S
O33 C27 1.268 . S
O34 Sc24 2.105 . S
O34 C28 1.268 . S
O35 Sc22 2.105 . S
O35 C29 1.268 . S
O36 Sc24 2.105 . S
O36 C30 1.268 . S
O37 Sc23 2.105 . S
O37 C31 1.268 . S
O38 Sc22 2.105 . S
O38 C30 1.268 . S
O39 Sc23 2.105 . S
O39 C29 1.268 . S
O40 Sc24 2.105 . S
O40 C31 1.268 . S
O41 Sc22 2.105 . S
O41 C27 1.268 . S
O42 Sc24 2.105 . S
O42 C26 1.268 . S
O43 Sc23 2.105 . S
O43 C28 1.268 . S
Sc44 O47 2.025 . S
Sc44 O54 2.105 1_554 S
Sc44 O57 2.105 . S
Sc44 O60 2.105 . S
Sc44 O63 2.105 . S
Sc45 O47 2.025 . S
Sc45 O55 2.105 . S
Sc45 O59 2.105 . S
Sc45 O61 2.105 . S
Sc45 O65 2.105 . S
Sc46 O47 2.025 . S
Sc46 O56 2.105 . S
Sc46 O58 2.105 . S
Sc46 O62 2.105 . S
Sc46 O64 2.105 1_554 S
O47 Sc44 2.025 . S
O47 Sc45 2.025 . S
O47 Sc46 2.025 . S
C48 O54 1.268 . S
C48 O64 1.268 . S
C49 O55 1.268 1_556 S
C49 O63 1.268 1_556 S
C50 O56 1.275 . S
C50 O65 1.287 . S
C51 O57 1.268 . S
C51 O61 1.268 . S
C52 O58 1.268 . S
C52 O60 1.268 . S
C53 O59 1.268 . S
C53 O62 1.268 . S
O54 Sc44 2.105 1_556 S
O54 C48 1.268 . S
O55 Sc45 2.105 . S
O55 C49 1.268 1_554 S
O56 Sc46 2.105 . S
O56 C50 1.275 . S
O57 Sc44 2.105 . S
O57 C51 1.268 . S
O58 Sc46 2.105 . S
O58 C52 1.268 . S
O59 Sc45 2.105 . S
O59 C53 1.268 . S
O60 Sc44 2.105 . S
O60 C52 1.268 . S
O61 Sc45 2.105 . S
O61 C51 1.268 . S
O62 Sc46 2.105 . S
O62 C53 1.268 . S
O63 Sc44 2.105 . S
O63 C49 1.268 1_554 S
O64 Sc46 2.105 1_556 S
O64 C48 1.268 . S
O65 Sc45 2.105 . S
O65 C50 1.287 . S
Sc66 O69 2.025 . S
Sc66 O76 2.105 . S
Sc66 O79 2.105 . S
Sc66 O82 2.105 . S
Sc66 O85 2.105 . S
Sc67 O69 2.025 . S
Sc67 O77 2.105 . S
Sc67 O81 2.105 . S
Sc67 O83 2.105 . S
Sc67 O87 2.105 . S
Sc68 O69 2.025 . S
Sc68 O78 2.105 . S
Sc68 O80 2.105 . S
Sc68 O84 2.105 . S
Sc68 O86 2.105 . S
O69 Sc66 2.025 . S
O69 Sc67 2.025 . S
O69 Sc68 2.025 . S
C70 O76 1.268 . S
C70 O86 1.268 . S
C71 O77 1.268 . S
C71 O85 1.268 . S
C72 O78 1.268 . S
C72 O87 1.268 . S
C73 O79 1.268 . S
C73 O83 1.268 . S
C74 O80 1.268 . S
C74 O82 1.268 . S
C75 O81 1.268 . S
C75 O84 1.268 . S
O76 Sc66 2.105 . S
O76 C70 1.268 . S
O77 Sc67 2.105 . S
O77 C71 1.268 . S
O78 Sc68 2.105 . S
O78 C72 1.268 . S
O79 Sc66 2.105 . S
O79 C73 1.268 . S
O80 Sc68 2.105 . S
O80 C74 1.268 . S
O81 Sc67 2.105 . S
O81 C75 1.268 . S
O82 Sc66 2.105 . S
O82 C74 1.268 . S
O83 Sc67 2.105 . S
O83 C73 1.268 . S
O84 Sc68 2.105 . S
O84 C75 1.268 . S
O85 Sc66 2.105 . S
O85 C71 1.268 . S
O86 Sc68 2.105 . S
O86 C70 1.268 . S
O87 Sc67 2.105 . S
O87 C72 1.268 . S
H88 C93 0.930 . S
H89 C96 0.930 . S
H90 C98 0.930 . S
H91 C92 1.016 . S
C92 H91 1.016 . S
C92 N99 1.286 . S
C93 H88 0.930 . S
C93 C94 1.397 . S
C93 C95 1.361 . S
C94 C93 1.397 . S
C94 C98 1.390 . S
C95 C93 1.361 . S
C95 C96 1.393 . S
C95 N99 1.413 . S
C96 H89 0.930 . S
C96 C95 1.393 . S
C96 C97 1.399 . S
C97 C96 1.399 . S
C97 C98 1.381 . S
C98 H90 0.930 . S
C98 C94 1.390 . S
C98 C97 1.381 . S
N99 C92 1.286 . S
N99 C95 1.413 . S
H100 C105 0.930 . S
H101 C108 0.930 . S
H102 C110 0.930 . S
H103 C104 1.016 . S
C104 H103 1.016 . S
C104 N111 1.286 . S
C105 H100 0.930 . S
C105 C106 1.397 . S
C105 C107 1.361 . S
C106 C105 1.397 . S
C106 C110 1.390 . S
C107 C105 1.361 . S
C107 C108 1.393 . S
C107 N111 1.413 . S
C108 H101 0.930 . S
C108 C107 1.393 . S
C108 C109 1.399 . S
C109 C108 1.399 . S
C109 C110 1.381 . S
C110 H102 0.930 . S
C110 C106 1.390 . S
C110 C109 1.381 . S
N111 C104 1.286 . S
N111 C107 1.413 . S
H112 C117 0.930 . S
H113 C120 0.930 . S
H114 C122 0.930 . S
H115 C116 1.016 . S
C116 H115 1.016 . S
C116 N123 1.286 . S
C117 H112 0.930 . S
C117 C118 1.397 . S
C117 C119 1.361 . S
C118 C117 1.397 . S
C118 C122 1.390 . S
C119 C117 1.361 . S
C119 C120 1.393 . S
C119 N123 1.413 . S
C120 H113 0.930 . S
C120 C119 1.393 . S
C120 C121 1.399 . S
C121 C120 1.399 . S
C121 C122 1.381 . S
C122 H114 0.930 . S
C122 C118 1.390 . S
C122 C121 1.381 . S
N123 C116 1.286 . S
N123 C119 1.413 . S
H124 C129 0.930 . S
H125 C132 0.930 . S
H126 C134 0.930 . S
H127 C128 1.016 . S
C128 H127 1.016 . S
C128 N135 1.286 . S
C129 H124 0.930 . S
C129 C130 1.397 . S
C129 C131 1.361 . S
C130 C129 1.397 . S
C130 C134 1.390 . S
C131 C129 1.361 . S
C131 C132 1.393 . S
C131 N135 1.413 . S
C132 H125 0.930 . S
C132 C131 1.393 . S
C132 C133 1.399 . S
C133 C132 1.399 . S
C133 C134 1.381 . S
C134 H126 0.930 . S
C134 C130 1.390 . S
C134 C133 1.381 . S
N135 C128 1.286 . S
N135 C131 1.413 . S
H136 C141 0.930 . S
H137 C144 0.930 . S
H138 C146 0.930 . S
H139 C140 1.016 . S
C140 H139 1.016 . S
C140 N147 1.286 . S
C141 H136 0.930 . S
C141 C142 1.397 . S
C141 C143 1.361 . S
C142 C141 1.397 . S
C142 C146 1.390 . S
C143 C141 1.361 . S
C143 C144 1.393 . S
C143 N147 1.413 . S
C144 H137 0.930 . S
C144 C143 1.393 . S
C144 C145 1.399 . S
C145 C144 1.399 . S
C145 C146 1.381 . S
C146 H138 0.930 . S
C146 C142 1.390 . S
C146 C145 1.381 . S
N147 C140 1.286 . S
N147 C143 1.413 . S
H148 C153 0.930 . S
H149 C156 0.930 . S
H150 C158 0.930 . S
H151 C152 1.016 . S
C152 H151 1.016 . S
C152 N159 1.286 . S
C153 H148 0.930 . S
C153 C154 1.397 . S
C153 C155 1.361 . S
C154 C153 1.397 . S
C154 C158 1.390 . S
C155 C153 1.361 . S
C155 C156 1.393 . S
C155 N159 1.413 . S
C156 H149 0.930 . S
C156 C155 1.393 . S
C156 C157 1.399 . S
C157 C156 1.399 . S
C157 C158 1.381 . S
C158 H150 0.930 . S
C158 C154 1.390 . S
C158 C157 1.381 . S
N159 C152 1.286 . S
N159 C155 1.413 . S
H160 C165 0.930 . S
H161 C168 0.930 . S
H162 C170 0.930 . S
H163 C164 1.016 . S
C164 H163 1.016 . S
C164 N171 1.286 . S
C165 H160 0.930 . S
C165 C166 1.397 . S
C165 C167 1.361 . S
C166 C165 1.397 . S
C166 C170 1.390 . S
C167 C165 1.361 . S
C167 C168 1.393 . S
C167 N171 1.413 . S
C168 H161 0.930 . S
C168 C167 1.393 . S
C168 C169 1.399 . S
C169 C168 1.399 . S
C169 C170 1.381 . S
C170 H162 0.930 . S
C170 C166 1.390 . S
C170 C169 1.381 . S
N171 C164 1.286 . S
N171 C167 1.413 . S
H172 C177 0.930 . S
H173 C180 0.930 . S
H174 C182 0.930 . S
H175 C176 1.016 . S
C176 H175 1.016 . S
C176 N183 1.286 . S
C177 H172 0.930 . S
C177 C178 1.397 . S
C177 C179 1.361 . S
C178 C177 1.397 . S
C178 C182 1.390 . S
C179 C177 1.361 . S
C179 C180 1.393 . S
C179 N183 1.413 . S
C180 H173 0.930 . S
C180 C179 1.393 . S
C180 C181 1.399 . S
C181 C180 1.399 . S
C181 C182 1.381 . S
C182 H174 0.930 . S
C182 C178 1.390 . S
C182 C181 1.381 . S
N183 C176 1.286 . S
N183 C179 1.413 . S
H184 C196 0.930 . S
H185 C198 0.930 . S
H186 C199 0.930 . S
H187 C203 0.959 . S
H188 C203 0.959 . S
H189 C203 0.961 1_565 S
H190 C204 0.960 . S
H191 C204 0.957 1_545 S
H192 C204 0.959 . S
H193 C207 0.929 . S
H194 C208 0.931 . S
H195 C210 0.930 . S
C196 H184 0.930 . S
C196 C197 1.399 . S
C196 C201 1.399 1_565 S
C197 C196 1.399 . S
C197 C198 1.376 . S
C198 H185 0.930 . S
C198 C197 1.376 . S
C198 C199 1.388 1_565 S
C199 H186 0.930 . S
C199 C198 1.388 1_545 S
C199 C200 1.390 . S
C200 C199 1.390 . S
C200 C201 1.394 . S
C200 C206 1.465 . S
C201 C196 1.399 1_545 S
C201 C200 1.394 . S
C201 C202 1.516 . S
C202 C201 1.516 . S
C202 C203 1.502 . S
C202 C204 1.561 1_545 S
C202 C205 1.526 . S
C203 H187 0.959 . S
C203 H188 0.959 . S
C203 H189 0.961 1_545 S
C203 C202 1.502 . S
C204 H190 0.960 . S
C204 H191 0.957 1_565 S
C204 H192 0.959 . S
C204 C202 1.561 1_565 S
C205 C202 1.526 . S
C205 C206 1.396 . S
C205 C210 1.390 . S
C206 C200 1.465 . S
C206 C205 1.396 . S
C206 C207 1.399 . S
C207 H193 0.929 . S
C207 C206 1.399 . S
C207 C208 1.385 . S
C208 H194 0.931 . S
C208 C207 1.385 . S
C208 C209 1.389 . S
C209 C208 1.389 . S
C209 C210 1.387 . S
C210 H195 0.930 . S
C210 C205 1.390 . S
C210 C209 1.387 . S
H211 C223 0.930 . S
H212 C225 0.930 . S
H213 C226 0.930 . S
H214 C230 0.959 . S
H215 C230 0.959 . S
H216 C230 0.961 . S
H217 C231 0.960 . S
H218 C231 0.961 . S
H219 C231 0.959 . S
H220 C234 0.929 . S
H221 C235 0.931 . S
H222 C237 0.930 . S
C223 H211 0.930 . S
C223 C224 1.399 . S
C223 C228 1.399 . S
C224 C223 1.399 . S
C224 C225 1.376 . S
C225 H212 0.930 . S
C225 C224 1.376 . S
C225 C226 1.388 . S
C226 H213 0.930 . S
C226 C225 1.388 . S
C226 C227 1.390 . S
C227 C226 1.390 . S
C227 C228 1.394 . S
C227 C233 1.465 . S
C228 C223 1.399 . S
C228 C227 1.394 . S
C228 C229 1.516 . S
C229 C228 1.516 . S
C229 C230 1.502 . S
C229 C231 1.561 . S
C229 C232 1.526 . S
C230 H214 0.959 . S
C230 H215 0.959 . S
C230 H216 0.961 . S
C230 C229 1.502 . S
C231 H217 0.960 . S
C231 H218 0.961 . S
C231 H219 0.959 . S
C231 C229 1.561 . S
C232 C229 1.526 . S
C232 C233 1.396 . S
C232 C237 1.390 . S
C233 C227 1.465 . S
C233 C232 1.396 . S
C233 C234 1.399 . S
C234 H220 0.929 . S
C234 C233 1.399 . S
C234 C235 1.385 . S
C235 H221 0.931 . S
C235 C234 1.385 . S
C235 C236 1.389 . S
C236 C235 1.389 . S
C236 C237 1.387 . S
C237 H222 0.930 . S
C237 C232 1.390 . S
C237 C236 1.387 . S
H238 C250 0.930 . S
H239 C252 0.930 . S
H240 C253 0.930 . S
H241 C257 0.959 . S
H242 C257 0.959 . S
H243 C257 0.961 . S
H244 C258 0.960 . S
H245 C258 0.961 . S
H246 C258 0.959 . S
H247 C261 0.929 . S
H248 C262 0.931 . S
H249 C264 0.930 . S
C250 H238 0.930 . S
C250 C251 1.399 . S
C250 C255 1.399 1_545 S
C251 C250 1.399 . S
C251 C252 1.376 . S
C252 H239 0.930 . S
C252 C251 1.376 . S
C252 C253 1.388 . S
C253 H240 0.930 . S
C253 C252 1.388 . S
C253 C254 1.390 1_545 S
C254 C253 1.390 1_565 S
C254 C255 1.394 . S
C254 C260 1.465 . S
C255 C250 1.399 1_565 S
C255 C254 1.394 . S
C255 C256 1.516 . S
C256 C255 1.516 . S
C256 C257 1.502 . S
C256 C258 1.561 . S
C256 C259 1.526 . S
C257 H241 0.959 . S
C257 H242 0.959 . S
C257 H243 0.961 . S
C257 C256 1.502 . S
C258 H244 0.960 . S
C258 H245 0.961 . S
C258 H246 0.959 . S
C258 C256 1.561 . S
C259 C256 1.526 . S
C259 C260 1.396 . S
C259 C264 1.390 . S
C260 C254 1.465 . S
C260 C259 1.396 . S
C260 C261 1.399 . S
C261 H247 0.929 . S
C261 C260 1.399 . S
C261 C262 1.385 . S
C262 H248 0.931 . S
C262 C261 1.385 . S
C262 C263 1.389 . S
C263 C262 1.389 . S
C263 C264 1.387 . S
C264 H249 0.930 . S
C264 C259 1.390 . S
C264 C263 1.387 . S
H265 C277 0.930 . S
H266 C279 0.930 . S
H267 C280 0.930 . S
H268 C284 0.959 . S
H269 C284 0.959 . S
H270 C284 0.961 . S
H271 C285 0.960 . S
H272 C285 0.961 . S
H273 C285 0.959 . S
H274 C288 0.929 . S
H275 C289 0.931 . S
H276 C291 0.930 . S
C277 H265 0.930 . S
C277 C278 1.399 . S
C277 C282 1.399 . S
C278 C277 1.399 . S
C278 C279 1.376 . S
C279 H266 0.930 . S
C279 C278 1.376 . S
C279 C280 1.388 . S
C280 H267 0.930 . S
C280 C279 1.388 . S
C280 C281 1.390 . S
C281 C280 1.390 . S
C281 C282 1.394 . S
C281 C287 1.465 . S
C282 C277 1.399 . S
C282 C281 1.394 . S
C282 C283 1.516 . S
C283 C282 1.516 . S
C283 C284 1.502 . S
C283 C285 1.561 . S
C283 C286 1.526 . S
C284 H268 0.959 . S
C284 H269 0.959 . S
C284 H270 0.961 . S
C284 C283 1.502 . S
C285 H271 0.960 . S
C285 H272 0.961 . S
C285 H273 0.959 . S
C285 C283 1.561 . S
C286 C283 1.526 . S
C286 C287 1.396 . S
C286 C291 1.390 . S
C287 C281 1.465 . S
C287 C286 1.396 . S
C287 C288 1.399 . S
C288 H274 0.929 . S
C288 C287 1.399 . S
C288 C289 1.385 . S
C289 H275 0.931 . S
C289 C288 1.385 . S
C289 C290 1.389 . S
C290 C289 1.389 . S
C290 C291 1.387 . S
C291 H276 0.930 . S
C291 C286 1.390 . S
C291 C290 1.387 . S
H292 C304 0.930 . S
H293 C306 0.930 . S
H294 C307 0.930 . S
H295 C311 0.959 . S
H296 C311 0.959 . S
H297 C311 0.961 . S
H298 C312 0.960 . S
H299 C312 0.961 . S
H300 C312 0.959 . S
H301 C315 0.929 . S
H302 C316 0.931 . S
H303 C318 0.930 . S
C304 H292 0.930 . S
C304 C305 1.399 . S
C304 C309 1.399 . S
C305 C304 1.399 . S
C305 C306 1.376 . S
C306 H293 0.930 . S
C306 C305 1.376 . S
C306 C307 1.388 . S
C307 H294 0.930 . S
C307 C306 1.388 . S
C307 C308 1.390 . S
C308 C307 1.390 . S
C308 C309 1.394 . S
C308 C314 1.465 . S
C309 C304 1.399 . S
C309 C308 1.394 . S
C309 C310 1.516 . S
C310 C309 1.516 . S
C310 C311 1.502 . S
C310 C312 1.561 . S
C310 C313 1.526 . S
C311 H295 0.959 . S
C311 H296 0.959 . S
C311 H297 0.961 . S
C311 C310 1.502 . S
C312 H298 0.960 . S
C312 H299 0.961 . S
C312 H300 0.959 . S
C312 C310 1.561 . S
C313 C310 1.526 . S
C313 C314 1.396 . S
C313 C318 1.390 . S
C314 C308 1.465 . S
C314 C313 1.396 . S
C314 C315 1.399 . S
C315 H301 0.929 . S
C315 C314 1.399 . S
C315 C316 1.385 . S
C316 H302 0.931 . S
C316 C315 1.385 . S
C316 C317 1.389 . S
C317 C316 1.389 . S
C317 C318 1.387 . S
C318 H303 0.930 . S
C318 C313 1.390 . S
C318 C317 1.387 . S
H319 C331 0.930 . S
H320 C333 0.930 . S
H321 C334 0.930 . S
H322 C338 0.959 . S
H323 C338 0.959 . S
H324 C338 0.961 . S
H325 C339 0.960 . S
H326 C339 0.961 . S
H327 C339 0.959 . S
H328 C342 0.929 . S
H329 C343 0.931 . S
H330 C345 0.930 . S
C331 H319 0.930 . S
C331 C332 1.399 . S
C331 C336 1.399 . S
C332 C331 1.399 . S
C332 C333 1.376 . S
C333 H320 0.930 . S
C333 C332 1.376 . S
C333 C334 1.388 . S
C334 H321 0.930 . S
C334 C333 1.388 . S
C334 C335 1.390 . S
C335 C334 1.390 . S
C335 C336 1.394 . S
C335 C341 1.465 . S
C336 C331 1.399 . S
C336 C335 1.394 . S
C336 C337 1.516 . S
C337 C336 1.516 . S
C337 C338 1.502 1_655 S
C337 C339 1.561 . S
C337 C340 1.526 . S
C338 H322 0.959 . S
C338 H323 0.959 . S
C338 H324 0.961 . S
C338 C337 1.502 1_455 S
C339 H325 0.960 . S
C339 H326 0.961 . S
C339 H327 0.959 . S
C339 C337 1.561 . S
C340 C337 1.526 . S
C340 C341 1.396 . S
C340 C345 1.390 1_655 S
C341 C335 1.465 . S
C341 C340 1.396 . S
C341 C342 1.399 . S
C342 H328 0.929 . S
C342 C341 1.399 . S
C342 C343 1.385 1_655 S
C343 H329 0.931 . S
C343 C342 1.385 1_455 S
C343 C344 1.389 . S
C344 C343 1.389 . S
C344 C345 1.387 . S
C345 H330 0.930 . S
C345 C340 1.390 1_455 S
C345 C344 1.387 . S
H346 C358 0.930 . S
H347 C360 0.930 . S
H348 C361 0.930 . S
H349 C365 0.959 . S
H350 C365 0.959 . S
H351 C365 0.961 . S
H352 C366 0.960 . S
H353 C366 0.961 . S
H354 C366 0.959 . S
H355 C369 0.929 . S
H356 C370 0.931 . S
H357 C372 0.930 . S
C358 H346 0.930 . S
C358 C359 1.399 . S
C358 C363 1.399 . S
C359 C358 1.399 . S
C359 C360 1.376 . S
C360 H347 0.930 . S
C360 C359 1.376 . S
C360 C361 1.388 . S
C361 H348 0.930 . S
C361 C360 1.388 . S
C361 C362 1.390 . S
C362 C361 1.390 . S
C362 C363 1.394 . S
C362 C368 1.465 . S
C363 C358 1.399 . S
C363 C362 1.394 . S
C363 C364 1.516 . S
C364 C363 1.516 . S
C364 C365 1.502 . S
C364 C366 1.561 . S
C364 C367 1.526 . S
C365 H349 0.959 . S
C365 H350 0.959 . S
C365 H351 0.961 . S
C365 C364 1.502 . S
C366 H352 0.960 . S
C366 H353 0.961 . S
C366 H354 0.959 . S
C366 C364 1.561 . S
C367 C364 1.526 . S
C367 C368 1.396 . S
C367 C372 1.390 . S
C368 C362 1.465 . S
C368 C367 1.396 . S
C368 C369 1.399 . S
C369 H355 0.929 . S
C369 C368 1.399 . S
C369 C370 1.385 . S
C370 H356 0.931 . S
C370 C369 1.385 . S
C370 C371 1.389 . S
C371 C370 1.389 . S
C371 C372 1.387 . S
C372 H357 0.930 . S
C372 C367 1.390 . S
C372 C371 1.387 . S
H373 C385 0.930 . S
H374 C387 0.930 . S
H375 C388 0.930 . S
H376 C392 0.959 . S
H377 C392 0.959 . S
H378 C392 0.961 . S
H379 C393 0.960 . S
H380 C393 0.961 . S
H381 C393 0.959 . S
H382 C396 0.929 . S
H383 C397 0.931 . S
H384 C399 0.930 . S
C385 H373 0.930 . S
C385 C386 1.399 . S
C385 C390 1.399 1_455 S
C386 C385 1.399 . S
C386 C387 1.376 . S
C387 H374 0.930 . S
C387 C386 1.376 . S
C387 C388 1.388 1_455 S
C388 H375 0.930 . S
C388 C387 1.388 1_655 S
C388 C389 1.390 . S
C389 C388 1.390 . S
C389 C390 1.394 . S
C389 C395 1.465 . S
C390 C385 1.399 1_655 S
C390 C389 1.394 . S
C390 C391 1.516 . S
C391 C390 1.516 . S
C391 C392 1.502 . S
C391 C393 1.561 . S
C391 C394 1.526 . S
C392 H376 0.959 . S
C392 H377 0.959 . S
C392 H378 0.961 . S
C392 C391 1.502 . S
C393 H379 0.960 . S
C393 H380 0.961 . S
C393 H381 0.959 . S
C393 C391 1.561 . S
C394 C391 1.526 . S
C394 C395 1.396 . S
C394 C399 1.390 . S
C395 C389 1.465 . S
C395 C394 1.396 . S
C395 C396 1.399 . S
C396 H382 0.929 . S
C396 C395 1.399 . S
C396 C397 1.385 . S
C397 H383 0.931 . S
C397 C396 1.385 . S
C397 C398 1.389 . S
C398 C397 1.389 . S
C398 C399 1.387 . S
C399 H384 0.930 . S
C399 C394 1.390 . S
C399 C398 1.387 . S
H400 C412 0.930 1_554 S
H401 C414 0.930 . S
H402 C415 0.930 . S
H403 C419 0.959 . S
H404 C419 0.959 . S
H405 C419 0.946 1_554 S
H406 C420 0.960 1_554 S
H407 C420 0.961 . S
H408 C420 0.959 . S
H409 C423 0.929 . S
H410 C424 0.931 . S
H411 C426 0.930 . S
C412 H400 0.930 1_556 S
C412 C413 1.399 . S
C412 C417 1.399 1_545 S
C413 C412 1.399 . S
C413 C414 1.376 . S
C414 H401 0.930 . S
C414 C413 1.376 . S
C414 C415 1.388 . S
C415 H402 0.930 . S
C415 C414 1.388 . S
C415 C416 1.390 1_545 S
C416 C415 1.390 1_565 S
C416 C417 1.394 . S
C416 C422 1.465 . S
C417 C412 1.399 1_565 S
C417 C416 1.394 . S
C417 C418 1.516 . S
C418 C417 1.516 . S
C418 C419 1.502 . S
C418 C420 1.561 . S
C418 C421 1.526 . S
C419 H403 0.959 . S
C419 H404 0.959 . S
C419 H405 0.946 1_556 S
C419 C418 1.502 . S
C420 H406 0.960 1_556 S
C420 H407 0.961 . S
C420 H408 0.959 . S
C420 C418 1.561 . S
C421 C418 1.526 . S
C421 C422 1.396 . S
C421 C426 1.390 . S
C422 C416 1.465 . S
C422 C421 1.396 . S
C422 C423 1.399 . S
C423 H409 0.929 . S
C423 C422 1.399 . S
C423 C424 1.385 . S
C424 H410 0.931 . S
C424 C423 1.385 . S
C424 C425 1.389 . S
C425 C424 1.389 . S
C425 C426 1.387 . S
C426 H411 0.930 . S
C426 C421 1.390 . S
C426 C425 1.387 . S
H427 C439 0.930 . S
H428 C441 0.930 . S
H429 C442 0.930 . S
H430 C446 0.959 . S
H431 C446 0.959 . S
H432 C446 0.961 . S
H433 C447 0.960 . S
H434 C447 0.961 . S
H435 C447 0.959 . S
H436 C450 0.929 . S
H437 C451 0.931 . S
H438 C453 0.930 . S
C439 H427 0.930 . S
C439 C440 1.399 . S
C439 C444 1.399 . S
C440 C439 1.399 . S
C440 C441 1.376 . S
C441 H428 0.930 . S
C441 C440 1.376 . S
C441 C442 1.388 . S
C442 H429 0.930 . S
C442 C441 1.388 . S
C442 C443 1.390 . S
C443 C442 1.390 . S
C443 C444 1.394 . S
C443 C449 1.465 . S
C444 C439 1.399 . S
C444 C443 1.394 . S
C444 C445 1.516 . S
C445 C444 1.516 . S
C445 C446 1.502 . S
C445 C447 1.561 . S
C445 C448 1.526 . S
C446 H430 0.959 . S
C446 H431 0.959 . S
C446 H432 0.961 . S
C446 C445 1.502 . S
C447 H433 0.960 . S
C447 H434 0.961 . S
C447 H435 0.959 . S
C447 C445 1.561 . S
C448 C445 1.526 . S
C448 C449 1.396 . S
C448 C453 1.390 . S
C449 C443 1.465 . S
C449 C448 1.396 . S
C449 C450 1.399 . S
C450 H436 0.929 . S
C450 C449 1.399 . S
C450 C451 1.385 . S
C451 H437 0.931 . S
C451 C450 1.385 . S
C451 C452 1.389 . S
C452 C451 1.389 . S
C452 C453 1.387 . S
C453 H438 0.930 . S
C453 C448 1.390 . S
C453 C452 1.387 . S
H454 C466 0.930 . S
H455 C468 0.930 . S
H456 C469 0.930 . S
H457 C473 0.959 . S
H458 C473 0.959 . S
H459 C473 0.961 . S
H460 C474 0.960 . S
H461 C474 0.961 . S
H462 C474 0.959 . S
H463 C477 0.929 . S
H464 C478 0.931 . S
H465 C480 0.930 . S
C466 H454 0.930 . S
C466 C467 1.399 . S
C466 C471 1.399 1_565 S
C467 C466 1.399 . S
C467 C468 1.376 . S
C468 H455 0.930 . S
C468 C467 1.376 . S
C468 C469 1.388 . S
C469 H456 0.930 . S
C469 C468 1.388 . S
C469 C470 1.390 1_565 S
C470 C469 1.390 1_545 S
C470 C471 1.394 . S
C470 C476 1.465 . S
C471 C466 1.399 1_545 S
C471 C470 1.394 . S
C471 C472 1.516 . S
C472 C471 1.516 . S
C472 C473 1.502 . S
C472 C474 1.561 . S
C472 C475 1.526 . S
C473 H457 0.959 . S
C473 H458 0.959 . S
C473 H459 0.961 . S
C473 C472 1.502 . S
C474 H460 0.960 . S
C474 H461 0.961 . S
C474 H462 0.959 . S
C474 C472 1.561 . S
C475 C472 1.526 . S
C475 C476 1.396 . S
C475 C480 1.390 . S
C476 C470 1.465 . S
C476 C475 1.396 . S
C476 C477 1.399 . S
C477 H463 0.929 . S
C477 C476 1.399 . S
C477 C478 1.385 . S
C478 H464 0.931 . S
C478 C477 1.385 . S
C478 C479 1.389 . S
C479 C478 1.389 . S
C479 C480 1.387 . S
C480 H465 0.930 . S
C480 C475 1.390 . S
C480 C479 1.387 . S
H481 C493 0.930 . S
H482 C495 0.930 . S
H483 C496 0.930 . S
H484 C500 0.959 . S
H485 C500 0.959 . S
H486 C500 0.961 . S
H487 C501 0.960 . S
H488 C501 0.961 . S
H489 C501 0.959 . S
H490 C504 0.929 . S
H491 C505 0.931 . S
H492 C507 0.930 . S
C493 H481 0.930 . S
C493 C494 1.399 . S
C493 C498 1.399 . S
C494 C493 1.399 . S
C494 C495 1.376 . S
C495 H482 0.930 . S
C495 C494 1.376 . S
C495 C496 1.388 . S
C496 H483 0.930 . S
C496 C495 1.388 . S
C496 C497 1.390 . S
C497 C496 1.390 . S
C497 C498 1.394 . S
C497 C503 1.465 . S
C498 C493 1.399 . S
C498 C497 1.394 . S
C498 C499 1.516 . S
C499 C498 1.516 . S
C499 C500 1.502 . S
C499 C501 1.561 . S
C499 C502 1.526 . S
C500 H484 0.959 . S
C500 H485 0.959 . S
C500 H486 0.961 . S
C500 C499 1.502 . S
C501 H487 0.960 . S
C501 H488 0.961 . S
C501 H489 0.959 . S
C501 C499 1.561 . S
C502 C499 1.526 . S
C502 C503 1.396 . S
C502 C507 1.390 . S
C503 C497 1.465 . S
C503 C502 1.396 . S
C503 C504 1.399 . S
C504 H490 0.929 . S
C504 C503 1.399 . S
C504 C505 1.385 . S
C505 H491 0.931 . S
C505 C504 1.385 . S
C505 C506 1.389 . S
C506 C505 1.389 . S
C506 C507 1.387 . S
C507 H492 0.930 . S
C507 C502 1.390 . S
C507 C506 1.387 . S
H508 C520 0.930 . S
H509 C522 0.930 . S
H510 C523 0.930 . S
H511 C527 0.959 . S
H512 C527 0.959 . S
H513 C527 0.961 . S
H514 C528 0.960 . S
H515 C528 0.961 . S
H516 C528 0.959 . S
H517 C531 0.929 . S
H518 C532 0.931 . S
H519 C534 0.930 . S
C520 H508 0.930 . S
C520 C521 1.399 . S
C520 C525 1.399 . S
C521 C520 1.399 . S
C521 C522 1.376 . S
C522 H509 0.930 . S
C522 C521 1.376 . S
C522 C523 1.388 . S
C523 H510 0.930 . S
C523 C522 1.388 . S
C523 C524 1.390 . S
C524 C523 1.390 . S
C524 C525 1.394 . S
C524 C530 1.465 . S
C525 C520 1.399 . S
C525 C524 1.394 . S
C525 C526 1.516 . S
C526 C525 1.516 . S
C526 C527 1.502 . S
C526 C528 1.561 . S
C526 C529 1.526 . S
C527 H511 0.959 . S
C527 H512 0.959 . S
C527 H513 0.961 . S
C527 C526 1.502 . S
C528 H514 0.960 . S
C528 H515 0.961 . S
C528 H516 0.959 . S
C528 C526 1.561 . S
C529 C526 1.526 . S
C529 C530 1.396 . S
C529 C534 1.390 . S
C530 C524 1.465 . S
C530 C529 1.396 . S
C530 C531 1.399 . S
C531 H517 0.929 . S
C531 C530 1.399 . S
C531 C532 1.385 . S
C532 H518 0.931 . S
C532 C531 1.385 . S
C532 C533 1.389 . S
C533 C532 1.389 . S
C533 C534 1.387 . S
C534 H519 0.930 . S
C534 C529 1.390 . S
C534 C533 1.387 . S
H535 C547 0.930 . S
H536 C549 0.930 . S
H537 C550 0.930 . S
H538 C554 0.959 . S
H539 C554 0.959 . S
H540 C554 0.961 . S
H541 C555 0.960 . S
H542 C555 0.961 . S
H543 C555 0.970 . S
H544 C558 0.929 . S
H545 C559 0.931 . S
H546 C561 0.932 . S
C547 H535 0.930 . S
C547 C548 1.399 . S
C547 C552 1.399 . S
C548 C547 1.399 . S
C548 C549 1.376 . S
C549 H536 0.930 . S
C549 C548 1.376 . S
C549 C550 1.388 . S
C550 H537 0.930 . S
C550 C549 1.388 . S
C550 C551 1.390 . S
C551 C550 1.390 . S
C551 C552 1.394 . S
C551 C557 1.480 . S
C552 C547 1.399 . S
C552 C551 1.394 . S
C552 C553 1.516 . S
C553 C552 1.516 . S
C553 C554 1.502 . S
C553 C555 1.561 . S
C553 C556 1.526 . S
C554 H538 0.959 . S
C554 H539 0.959 . S
C554 H540 0.961 . S
C554 C553 1.502 . S
C555 H541 0.960 . S
C555 H542 0.961 . S
C555 H543 0.970 . S
C555 C553 1.561 . S
C556 C553 1.526 . S
C556 C557 1.403 . S
C556 C561 1.390 1_455 S
C557 C551 1.480 . S
C557 C556 1.403 . S
C557 C558 1.380 1_455 S
C558 H544 0.929 . S
C558 C557 1.380 1_655 S
C558 C559 1.385 . S
C559 H545 0.931 . S
C559 C558 1.385 . S
C559 C560 1.389 . S
C560 C559 1.389 . S
C560 C561 1.387 . S
C561 H546 0.932 . S
C561 C556 1.390 1_655 S
C561 C560 1.387 . S
H562 C574 0.930 . S
H563 C576 0.930 . S
H564 C577 0.930 . S
H565 C581 0.959 . S
H566 C581 0.959 . S
H567 C581 0.961 . S
H568 C582 0.960 . S
H569 C582 0.961 . S
H570 C582 0.959 . S
H571 C585 0.929 . S
H572 C586 0.931 . S
H573 C588 0.930 . S
C574 H562 0.930 . S
C574 C575 1.399 . S
C574 C579 1.399 . S
C575 C574 1.399 . S
C575 C576 1.376 . S
C576 H563 0.930 . S
C576 C575 1.376 . S
C576 C577 1.388 . S
C577 H564 0.930 . S
C577 C576 1.388 . S
C577 C578 1.390 . S
C578 C577 1.390 . S
C578 C579 1.394 . S
C578 C584 1.465 . S
C579 C574 1.399 . S
C579 C578 1.394 . S
C579 C580 1.516 . S
C580 C579 1.516 . S
C580 C581 1.502 . S
C580 C582 1.561 . S
C580 C583 1.526 . S
C581 H565 0.959 . S
C581 H566 0.959 . S
C581 H567 0.961 . S
C581 C580 1.502 . S
C582 H568 0.960 . S
C582 H569 0.961 . S
C582 H570 0.959 . S
C582 C580 1.561 . S
C583 C580 1.526 . S
C583 C584 1.396 . S
C583 C588 1.390 . S
C584 C578 1.465 . S
C584 C583 1.396 . S
C584 C585 1.399 . S
C585 H571 0.929 . S
C585 C584 1.399 . S
C585 C586 1.385 . S
C586 H572 0.931 . S
C586 C585 1.385 . S
C586 C587 1.389 . S
C587 C586 1.389 . S
C587 C588 1.387 . S
C588 H573 0.930 . S
C588 C583 1.390 . S
C588 C587 1.387 . S
H589 C601 0.930 . S
H590 C603 0.930 . S
H591 C604 0.930 . S
H592 C608 0.959 . S
H593 C608 0.959 . S
H594 C608 0.961 1_655 S
H595 C609 0.960 . S
H596 C609 0.961 . S
H597 C609 0.959 . S
H598 C612 0.929 . S
H599 C613 0.931 . S
H600 C615 0.930 . S
C601 H589 0.930 . S
C601 C602 1.399 . S
C601 C606 1.399 1_655 S
C602 C601 1.399 . S
C602 C603 1.376 . S
C603 H590 0.930 . S
C603 C602 1.376 . S
C603 C604 1.388 1_655 S
C604 H591 0.930 . S
C604 C603 1.388 1_455 S
C604 C605 1.390 . S
C605 C604 1.390 . S
C605 C606 1.394 . S
C605 C611 1.465 . S
C606 C601 1.399 1_455 S
C606 C605 1.394 . S
C606 C607 1.516 . S
C607 C606 1.516 . S
C607 C608 1.502 . S
C607 C609 1.561 . S
C607 C610 1.526 . S
C608 H592 0.959 . S
C608 H593 0.959 . S
C608 H594 0.961 1_455 S
C608 C607 1.502 . S
C609 H595 0.960 . S
C609 H596 0.961 . S
C609 H597 0.959 . S
C609 C607 1.561 . S
C610 C607 1.526 . S
C610 C611 1.396 . S
C610 C615 1.390 . S
C611 C605 1.465 . S
C611 C610 1.396 . S
C611 C612 1.399 . S
C612 H598 0.929 . S
C612 C611 1.399 . S
C612 C613 1.385 . S
C613 H599 0.931 . S
C613 C612 1.385 . S
C613 C614 1.389 . S
C614 C613 1.389 . S
C614 C615 1.387 . S
C615 H600 0.930 . S
C615 C610 1.390 . S
C615 C614 1.387 . S
H616 C628 0.930 . S
H617 C630 0.930 . S
H618 C631 0.930 . S
H619 C635 0.959 . S
H620 C635 0.959 . S
H621 C635 0.961 . S
H622 C636 0.960 . S
H623 C636 0.961 . S
H624 C636 0.959 . S
H625 C639 0.929 . S
H626 C640 0.931 . S
H627 C642 0.930 . S
C628 H616 0.930 . S
C628 C629 1.399 . S
C628 C633 1.399 . S
C629 C628 1.399 . S
C629 C630 1.376 . S
C630 H617 0.930 . S
C630 C629 1.376 . S
C630 C631 1.388 . S
C631 H618 0.930 . S
C631 C630 1.388 . S
C631 C632 1.390 . S
C632 C631 1.390 . S
C632 C633 1.394 . S
C632 C638 1.465 . S
C633 C628 1.399 . S
C633 C632 1.394 . S
C633 C634 1.516 . S
C634 C633 1.516 . S
C634 C635 1.502 . S
C634 C636 1.561 . S
C634 C637 1.526 . S
C635 H619 0.959 . S
C635 H620 0.959 . S
C635 H621 0.961 . S
C635 C634 1.502 . S
C636 H622 0.960 . S
C636 H623 0.961 . S
C636 H624 0.959 . S
C636 C634 1.561 . S
C637 C634 1.526 . S
C637 C638 1.396 . S
C637 C642 1.390 . S
C638 C632 1.465 . S
C638 C637 1.396 . S
C638 C639 1.399 . S
C639 H625 0.929 . S
C639 C638 1.399 . S
C639 C640 1.385 . S
C640 H626 0.931 . S
C640 C639 1.385 . S
C640 C641 1.389 . S
C641 C640 1.389 . S
C641 C642 1.387 . S
C642 H627 0.930 . S
C642 C637 1.390 . S
C642 C641 1.387 . S
H643 C655 0.930 . S
H644 C657 0.930 . S
H645 C658 0.930 . S
H646 C662 0.959 . S
H647 C662 0.959 . S
H648 C662 0.961 . S
H649 C663 0.960 . S
H650 C663 0.961 . S
H651 C663 0.959 . S
H652 C666 0.929 . S
H653 C667 0.931 . S
H654 C669 0.930 . S
C655 H643 0.930 . S
C655 C656 1.399 . S
C655 C660 1.399 . S
C656 C655 1.399 . S
C656 C657 1.376 . S
C657 H644 0.930 . S
C657 C656 1.376 . S
C657 C658 1.388 . S
C658 H645 0.930 . S
C658 C657 1.388 . S
C658 C659 1.390 . S
C659 C658 1.390 . S
C659 C660 1.394 . S
C659 C665 1.465 . S
C660 C655 1.399 . S
C660 C659 1.394 . S
C660 C661 1.516 . S
C661 C660 1.516 . S
C661 C662 1.502 . S
C661 C663 1.561 . S
C661 C664 1.526 . S
C662 H646 0.959 . S
C662 H647 0.959 . S
C662 H648 0.961 . S
C662 C661 1.502 . S
C663 H649 0.960 . S
C663 H650 0.961 . S
C663 H651 0.959 . S
C663 C661 1.561 . S
C664 C661 1.526 . S
C664 C665 1.396 . S
C664 C669 1.390 . S
C665 C659 1.465 . S
C665 C664 1.396 . S
C665 C666 1.399 . S
C666 H652 0.929 . S
C666 C665 1.399 . S
C666 C667 1.385 . S
C667 H653 0.931 . S
C667 C666 1.385 . S
C667 C668 1.389 . S
C668 C667 1.389 . S
C668 C669 1.387 . S
C669 H654 0.930 . S
C669 C664 1.390 . S
C669 C668 1.387 . S
H670 C682 0.930 . S
H671 C684 0.930 . S
H672 C685 0.930 . S
H673 C689 0.959 . S
H674 C689 0.959 . S
H675 C689 0.961 . S
H676 C690 0.960 . S
H677 C690 0.961 . S
H678 C690 0.959 . S
H679 C693 0.929 . S
H680 C694 0.931 . S
H681 C696 0.930 . S
C682 H670 0.930 . S
C682 C683 1.399 . S
C682 C687 1.399 . S
C683 C682 1.399 . S
C683 C684 1.376 . S
C684 H671 0.930 . S
C684 C683 1.376 . S
C684 C685 1.388 . S
C685 H672 0.930 . S
C685 C684 1.388 . S
C685 C686 1.390 . S
C686 C685 1.390 . S
C686 C687 1.394 . S
C686 C692 1.465 . S
C687 C682 1.399 . S
C687 C686 1.394 . S
C687 C688 1.516 . S
C688 C687 1.516 . S
C688 C689 1.502 . S
C688 C690 1.561 . S
C688 C691 1.526 . S
C689 H673 0.959 . S
C689 H674 0.959 . S
C689 H675 0.961 . S
C689 C688 1.502 . S
C690 H676 0.960 . S
C690 H677 0.961 . S
C690 H678 0.959 . S
C690 C688 1.561 . S
C691 C688 1.526 . S
C691 C692 1.396 . S
C691 C696 1.390 . S
C692 C686 1.465 . S
C692 C691 1.396 . S
C692 C693 1.399 . S
C693 H679 0.929 . S
C693 C692 1.399 . S
C693 C694 1.385 . S
C694 H680 0.931 . S
C694 C693 1.385 . S
C694 C695 1.389 . S
C695 C694 1.389 . S
C695 C696 1.387 . S
C696 H681 0.930 . S
C696 C691 1.390 . S
C696 C695 1.387 . S
H697 C709 0.930 . S
H698 C711 0.930 . S
H699 C712 0.930 . S
H700 C716 0.959 . S
H701 C716 0.959 . S
H702 C716 0.961 . S
H703 C717 0.960 . S
H704 C717 0.961 . S
H705 C717 0.959 . S
H706 C720 0.929 . S
H707 C721 0.931 . S
H708 C723 0.930 . S
C709 H697 0.930 . S
C709 C710 1.399 . S
C709 C714 1.399 . S
C710 C709 1.399 . S
C710 C711 1.376 . S
C711 H698 0.930 . S
C711 C710 1.376 . S
C711 C712 1.388 . S
C712 H699 0.930 . S
C712 C711 1.388 . S
C712 C713 1.390 . S
C713 C712 1.390 . S
C713 C714 1.394 . S
C713 C719 1.465 . S
C714 C709 1.399 . S
C714 C713 1.394 . S
C714 C715 1.516 . S
C715 C714 1.516 . S
C715 C716 1.502 . S
C715 C717 1.561 . S
C715 C718 1.526 . S
C716 H700 0.959 . S
C716 H701 0.959 . S
C716 H702 0.961 . S
C716 C715 1.502 . S
C717 H703 0.960 . S
C717 H704 0.961 . S
C717 H705 0.959 . S
C717 C715 1.561 . S
C718 C715 1.526 . S
C718 C719 1.396 . S
C718 C723 1.390 . S
C719 C713 1.465 . S
C719 C718 1.396 . S
C719 C720 1.399 . S
C720 H706 0.929 . S
C720 C719 1.399 . S
C720 C721 1.385 . S
C721 H707 0.931 . S
C721 C720 1.385 . S
C721 C722 1.389 . S
C722 C721 1.389 . S
C722 C723 1.387 . S
C723 H708 0.930 . S
C723 C718 1.390 . S
C723 C722 1.387 . S
H724 C736 0.930 . S
H725 C738 0.930 . S
H726 C739 0.930 . S
H727 C743 0.959 . S
H728 C743 0.959 . S
H729 C743 0.961 . S
H730 C744 0.960 . S
H731 C744 0.961 . S
H732 C744 0.959 . S
H733 C747 0.929 . S
H734 C748 0.931 . S
H735 C750 0.930 . S
C736 H724 0.930 . S
C736 C737 1.399 . S
C736 C741 1.399 . S
C737 C736 1.399 . S
C737 C738 1.376 . S
C738 H725 0.930 . S
C738 C737 1.376 . S
C738 C739 1.388 . S
C739 H726 0.930 . S
C739 C738 1.388 . S
C739 C740 1.390 . S
C740 C739 1.390 . S
C740 C741 1.394 . S
C740 C746 1.465 . S
C741 C736 1.399 . S
C741 C740 1.394 . S
C741 C742 1.516 . S
C742 C741 1.516 . S
C742 C743 1.502 . S
C742 C744 1.561 . S
C742 C745 1.526 . S
C743 H727 0.959 . S
C743 H728 0.959 . S
C743 H729 0.961 . S
C743 C742 1.502 . S
C744 H730 0.960 . S
C744 H731 0.961 . S
C744 H732 0.959 . S
C744 C742 1.561 . S
C745 C742 1.526 . S
C745 C746 1.396 . S
C745 C750 1.390 . S
C746 C740 1.465 . S
C746 C745 1.396 . S
C746 C747 1.399 . S
C747 H733 0.929 . S
C747 C746 1.399 . S
C747 C748 1.385 . S
C748 H734 0.931 . S
C748 C747 1.385 . S
C748 C749 1.389 . S
C749 C748 1.389 . S
C749 C750 1.387 . S
C750 H735 0.930 . S
C750 C745 1.390 . S
C750 C749 1.387 . S
H751 C763 0.930 1_554 S
H752 C765 0.930 . S
H753 C766 0.930 . S
H754 C770 0.959 . S
H755 C770 0.959 . S
H756 C770 0.961 . S
H757 C771 0.933 1_554 S
H758 C771 0.961 . S
H759 C771 0.959 . S
H760 C774 0.929 . S
H761 C775 0.931 . S
H762 C777 0.930 . S
C763 H751 0.930 1_556 S
C763 C764 1.399 . S
C763 C768 1.399 . S
C764 C763 1.399 . S
C764 C765 1.376 . S
C765 H752 0.930 . S
C765 C764 1.376 . S
C765 C766 1.388 . S
C766 H753 0.930 . S
C766 C765 1.388 . S
C766 C767 1.390 . S
C767 C766 1.390 . S
C767 C768 1.394 . S
C767 C773 1.465 . S
C768 C763 1.399 . S
C768 C767 1.394 . S
C768 C769 1.516 . S
C769 C768 1.516 . S
C769 C770 1.502 . S
C769 C771 1.561 . S
C769 C772 1.526 . S
C770 H754 0.959 . S
C770 H755 0.959 . S
C770 H756 0.961 . S
C770 C769 1.502 . S
C771 H757 0.933 1_556 S
C771 H758 0.961 . S
C771 H759 0.959 . S
C771 C769 1.561 . S
C772 C769 1.526 . S
C772 C773 1.396 . S
C772 C777 1.390 . S
C773 C767 1.465 . S
C773 C772 1.396 . S
C773 C774 1.399 . S
C774 H760 0.929 . S
C774 C773 1.399 . S
C774 C775 1.385 . S
C775 H761 0.931 . S
C775 C774 1.385 . S
C775 C776 1.389 . S
C776 C775 1.389 . S
C776 C777 1.387 . S
C777 H762 0.930 . S
C777 C772 1.390 . S
C777 C776 1.387 . S
H778 C790 0.930 . S
H779 C792 0.930 . S
H780 C793 0.930 . S
H781 C797 0.959 . S
H782 C797 0.959 . S
H783 C797 0.961 . S
H784 C798 0.960 . S
H785 C798 0.961 . S
H786 C798 0.959 . S
H787 C801 0.929 . S
H788 C802 0.931 . S
H789 C804 0.930 . S
C790 H778 0.930 . S
C790 C791 1.399 . S
C790 C795 1.399 . S
C791 C790 1.399 . S
C791 C792 1.376 . S
C792 H779 0.930 . S
C792 C791 1.376 . S
C792 C793 1.388 . S
C793 H780 0.930 . S
C793 C792 1.388 . S
C793 C794 1.390 . S
C794 C793 1.390 . S
C794 C795 1.394 . S
C794 C800 1.465 . S
C795 C790 1.399 . S
C795 C794 1.394 . S
C795 C796 1.516 . S
C796 C795 1.516 . S
C796 C797 1.502 . S
C796 C798 1.561 . S
C796 C799 1.526 . S
C797 H781 0.959 . S
C797 H782 0.959 . S
C797 H783 0.961 . S
C797 C796 1.502 . S
C798 H784 0.960 . S
C798 H785 0.961 . S
C798 H786 0.959 . S
C798 C796 1.561 . S
C799 C796 1.526 . S
C799 C800 1.396 . S
C799 C804 1.390 . S
C800 C794 1.465 . S
C800 C799 1.396 . S
C800 C801 1.399 . S
C801 H787 0.929 . S
C801 C800 1.399 . S
C801 C802 1.385 . S
C802 H788 0.931 . S
C802 C801 1.385 . S
C802 C803 1.389 . S
C803 C802 1.389 . S
C803 C804 1.387 . S
C804 H789 0.930 . S
C804 C799 1.390 . S
C804 C803 1.387 . S
H805 C817 0.930 . S
H806 C819 0.930 . S
H807 C820 0.930 . S
H808 C824 0.959 . S
H809 C824 0.959 . S
H810 C824 0.961 . S
H811 C825 0.960 . S
H812 C825 0.961 . S
H813 C825 0.959 . S
H814 C828 0.929 . S
H815 C829 0.931 . S
H816 C831 0.930 . S
C817 H805 0.930 . S
C817 C818 1.399 . S
C817 C822 1.399 . S
C818 C817 1.399 . S
C818 C819 1.376 . S
C819 H806 0.930 . S
C819 C818 1.376 . S
C819 C820 1.388 . S
C820 H807 0.930 . S
C820 C819 1.388 . S
C820 C821 1.390 . S
C821 C820 1.390 . S
C821 C822 1.394 . S
C821 C827 1.465 . S
C822 C817 1.399 . S
C822 C821 1.394 . S
C822 C823 1.516 . S
C823 C822 1.516 . S
C823 C824 1.502 . S
C823 C825 1.561 . S
C823 C826 1.526 . S
C824 H808 0.959 . S
C824 H809 0.959 . S
C824 H810 0.961 . S
C824 C823 1.502 . S
C825 H811 0.960 . S
C825 H812 0.961 . S
C825 H813 0.959 . S
C825 C823 1.561 . S
C826 C823 1.526 . S
C826 C827 1.396 . S
C826 C831 1.390 . S
C827 C821 1.465 . S
C827 C826 1.396 . S
C827 C828 1.399 . S
C828 H814 0.929 . S
C828 C827 1.399 . S
C828 C829 1.385 . S
C829 H815 0.931 . S
C829 C828 1.385 . S
C829 C830 1.389 . S
C830 C829 1.389 . S
C830 C831 1.387 . S
C831 H816 0.930 . S
C831 C826 1.390 . S
C831 C830 1.387 . S
C197 C8 1.359 . S
C209 C97 1.338 . S
C224 C31 1.434 . S
C236 C109 1.433 . S
C251 C53 1.366 . S
C263 C121 1.335 . S
C290 C130 1.212 . S
C278 C74 1.257 . S
C317 C145 1.333 . S
C305 C26 1.397 . S
C332 C48 1.304 . S
C344 C154 1.295 . S
C359 C71 1.342 . S
C371 C169 1.298 . S
C386 C5 1.392 . S
C398 C181 1.355 . S
C413 C50 1.261 1_556 S
C425 C178 1.271 . S
C452 C142 1.290 . S
C440 C70 1.235 . S
C479 C157 1.372 . S
C467 C4 1.376 . S
C494 C28 1.307 . S
C506 C166 1.251 . S
C533 C106 1.218 . S
C521 C73 1.221 . S
C548 C7 1.270 . S
C560 C118 1.242 . S
C587 C133 1.361 . S
C575 C30 1.382 . S
C614 C94 1.273 . S
C602 C52 1.221 . S
C641 C164 1.383 . S
C629 C9 1.399 . S
C668 C176 1.362 . S
C656 C29 1.374 . S
C683 C51 1.380 . S
C695 C140 1.386 . S
C722 C152 1.315 . S
C710 C75 1.352 . S
C749 C116 1.391 . S
C737 C27 1.392 . S
C764 C49 1.373 . S
C776 C128 1.315 . S
C803 C92 1.356 . S
C791 C72 1.379 . S
C830 C104 1.395 . S
C818 C6 1.401 . S
