# Generated by pormake.
# Topology rtl, (3,6)-cn, num edge types: 1
# Building blocks:
#     Node 0, Type 0, BuildingBlock: PAMTOO_clean_linker_0, # of connection points: 3
#     Node 1, Type 0, BuildingBlock: PAMTOO_clean_linker_0, # of connection points: 3
#     Node 2, Type 0, BuildingBlock: PAMTOO_clean_linker_0, # of connection points: 3
#     Node 3, Type 0, BuildingBlock: PAMTOO_clean_linker_0, # of connection points: 3
#     Node 4, Type 1, BuildingBlock: KUMBOL_clean_sbu_1, # of connection points: 6
#     Node 5, Type 1, BuildingBlock: KUMBOL_clean_sbu_1, # of connection points: 6
#     Edge 6, Type (0, 1), BuildingBlock: KIFKEQ_clean_linker_1, # of connection points: 2
#     Edge 7, Type (0, 1), BuildingBlock: KIFKEQ_clean_linker_1, # of connection points: 2
#     Edge 8, Type (0, 1), BuildingBlock: KIFKEQ_clean_linker_1, # of connection points: 2
#     Edge 9, Type (0, 1), BuildingBlock: KIFKEQ_clean_linker_1, # of connection points: 2
#     Edge 10, Type (0, 1), BuildingBlock: KIFKEQ_clean_linker_1, # of connection points: 2
#     Edge 11, Type (0, 1), BuildingBlock: KIFKEQ_clean_linker_1, # of connection points: 2
#     Edge 12, Type (0, 1), BuildingBlock: KIFKEQ_clean_linker_1, # of connection points: 2
#     Edge 13, Type (0, 1), BuildingBlock: KIFKEQ_clean_linker_1, # of connection points: 2
#     Edge 14, Type (0, 1), BuildingBlock: KIFKEQ_clean_linker_1, # of connection points: 2
#     Edge 15, Type (0, 1), BuildingBlock: KIFKEQ_clean_linker_1, # of connection points: 2
#     Edge 16, Type (0, 1), BuildingBlock: KIFKEQ_clean_linker_1, # of connection points: 2
#     Edge 17, Type (0, 1), BuildingBlock: KIFKEQ_clean_linker_1, # of connection points: 2
# Relax obj value: 0.052
# Max RMSD: 0.217
# Mean RMSD: 0.163
data_MOF--net-rtl--node1-KUMBOL_clean_sbu_1--node2-PAMTOO_clean_linker_0--edge1-KIFKEQ_clean_linker_1
_symmetry_space_group_name_H-M    P1
_symmetry_Int_Tables_number       1
_symmetry_cell_setting            triclinic
loop_
_symmetry_equiv_pos_as_xyz
'x, y, z'
_cell_length_a     35.663493
_cell_length_b     35.834196
_cell_length_c     27.45781
_cell_angle_alpha  79.700248
_cell_angle_beta   99.124228
_cell_angle_gamma 91.316887
loop_
_atom_site_label
_atom_site_type_symbol
_atom_site_fract_x
_atom_site_fract_y
_atom_site_fract_z
_atom_type_partial_charge
H0 H 0.16593 0.90236 1.00362 0.0
H1 H 0.24003 0.81668 0.09935 0.0
H2 H 0.23664 0.83423 0.9403 0.0
H3 H 0.2383 0.75598 0.9887 0.0
C4 C 0.25695 0.75768 0.02478 0.0
O5 O 0.26751 0.79486 0.02616 0.0
H6 H 0.24056 0.74738 0.05581 0.0
C7 C 0.18712 0.88028 0.0085 0.0
C8 C 0.19913 0.87064 0.96591 0.0
C9 C 0.20146 0.86116 0.05711 0.0
C10 C 0.22893 0.83243 0.06261 0.0
C11 C 0.24147 0.82285 0.02051 0.0
C12 C 0.22669 0.84198 0.97244 0.0
H13 H 0.63955 0.65535 0.64391 0.0
H14 H 0.72236 0.72589 0.57447 0.0
H15 H 0.71047 0.72903 0.72702 0.0
H16 H 0.72423 0.80456 0.66732 0.0
C17 C 0.739 0.7954 0.63861 0.0
O18 O 0.74719 0.75706 0.65273 0.0
H19 H 0.71966 0.80076 0.60204 0.0
C20 C 0.66138 0.67682 0.64589 0.0
C21 C 0.67233 0.69063 0.69084 0.0
C22 C 0.67904 0.6893 0.60375 0.0
C23 C 0.70852 0.71585 0.60673 0.0
C24 C 0.71957 0.73045 0.65097 0.0
C25 C 0.70174 0.71758 0.69307 0.0
H26 H 0.87244 0.13789 0.09015 0.0
H27 H 0.79406 0.21818 0.99227 0.0
H28 H 0.80096 0.20611 0.15211 0.0
H29 H 0.72376 0.21018 0.09117 0.0
C30 C 0.72891 0.23382 0.06068 0.0
O31 O 0.76718 0.24212 0.06524 0.0
H32 H 0.71943 0.22439 0.02425 0.0
C33 C 0.85041 0.15926 0.0849 0.0
C34 C 0.83883 0.16994 0.12695 0.0
C35 C 0.8344 0.17623 0.03618 0.0
C36 C 0.80647 0.20453 0.02963 0.0
C37 C 0.79403 0.21484 0.07149 0.0
C38 C 0.81016 0.19747 0.12002 0.0
H39 H 0.38902 0.3746 0.44431 0.0
H40 H 0.3154 0.29517 0.51938 0.0
H41 H 0.31964 0.29917 0.36277 0.0
H42 H 0.24193 0.28589 0.38995 0.0
C43 C 0.24976 0.27325 0.43028 0.0
O44 O 0.28837 0.26577 0.44019 0.0
H45 H 0.24254 0.29413 0.45294 0.0
C46 C 0.36838 0.35192 0.44341 0.0
C47 C 0.35608 0.33903 0.39822 0.0
C48 C 0.35411 0.33625 0.48731 0.0
C49 C 0.32684 0.30739 0.48582 0.0
C50 C 0.31448 0.29387 0.44102 0.0
C51 C 0.32941 0.30947 0.39735 0.0
C52 C 0.95932 0.13167 0.50233 0.0
C53 C 0.89412 0.11867 0.46898 0.0
C54 C 0.92867 0.10695 0.50024 0.0
C55 C 0.89105 0.15508 0.43942 0.0
C56 C 0.95629 0.16828 0.4728 0.0
C57 C 0.92203 0.1798 0.44133 0.0
N58 N 0.99256 0.11934 0.53184 0.0
C59 C 0.02339 0.14249 0.53497 0.0
C60 C 0.98802 0.19203 0.47526 0.0
C61 C 0.02166 0.17911 0.50666 0.0
Gd62 Gd 0.03613 0.97362 0.5187 0.0
Gd63 Gd 0.9935 0.05707 0.57622 0.0
N64 N 0.9329 0.07131 0.52806 0.0
C65 C 0.86357 0.09349 0.46848 0.0
C66 C 0.90233 0.04776 0.53018 0.0
C67 C 0.86755 0.05814 0.49981 0.0
H68 H 0.90391 0.02141 0.55608 0.0
H69 H 0.84364 0.03902 0.50112 0.0
H70 H 0.12125 0.01327 0.49655 0.0
H71 H 0.04912 0.13286 0.55996 0.0
H72 H 0.18789 1.00767 0.53645 0.0
H73 H 0.83657 0.10142 0.44499 0.0
H74 H 0.86478 0.16442 0.41499 0.0
H75 H 0.99283 0.89655 0.57084 0.0
H76 H 0.98683 0.22035 0.45314 0.0
H77 H 0.04625 0.19736 0.50912 0.0
H78 H 0.19068 0.89843 0.66608 0.0
H79 H 0.91923 0.20776 0.4182 0.0
H80 H 0.07541 0.82867 0.67879 0.0
H81 H 1.0093 0.83901 0.63498 0.0
N82 N 0.0489 0.9184 0.57901 0.0
C83 C 0.08572 0.9126 0.60112 0.0
C84 C 0.0217 0.89214 0.58989 0.0
C85 C 0.06838 0.85378 0.65052 0.0
C86 C 0.03099 0.85956 0.62599 0.0
C87 C 0.0963 0.88036 0.63817 0.0
H88 H 0.14275 0.85152 0.69096 0.0
N89 N 0.10175 0.96991 0.5506 0.0
C90 C 0.11266 0.93949 0.58735 0.0
C91 C 0.17802 0.95996 0.5927 0.0
C92 C 0.15101 0.93415 0.60998 0.0
C93 C 0.12867 0.99266 0.5303 0.0
C94 C 0.16691 0.98883 0.55194 0.0
O95 O 0.99279 0.06544 0.49271 0.0
O96 O 0.98599 1.0065 0.47017 0.0
O97 O 0.06161 0.96479 0.45303 0.0
O98 O 0.02065 0.92503 0.48416 0.0
O99 O 0.96769 0.99809 0.59147 0.0
O100 O 0.97366 0.9698 0.52362 0.0
O101 O 0.03485 0.96764 0.60229 0.0
O102 O 0.04646 0.02713 0.62008 0.0
O103 O 0.96166 0.05267 0.63824 0.0
O104 O 0.99979 0.09962 0.62411 0.0
O105 O 0.05908 0.03364 0.49969 0.0
O106 O 0.05617 0.05996 0.57021 0.0
C107 C 0.97963 0.04326 0.46094 0.0
C108 C 0.9578 0.97222 0.56305 0.0
C109 C 0.0446 0.90853 0.4134 0.0
C110 C 0.07311 0.88874 0.34671 0.0
C111 C 0.02256 0.8516 0.38098 0.0
C112 C 0.02045 0.87688 0.41351 0.0
C113 C 0.04886 0.8573 0.34802 0.0
C114 C 0.07074 0.9147 0.37918 0.0
C115 C 0.04286 0.93334 0.45077 0.0
C116 C 0.16143 0.90268 0.64797 0.0
C117 C 0.13418 0.87584 0.66197 0.0
H118 H 0.20774 0.95683 0.60907 0.0
C119 C 0.05094 0.99027 0.63199 0.0
C120 C 0.07076 0.05841 0.5293 0.0
C121 C 0.99048 0.07885 0.70767 0.0
C122 C 0.97919 0.08815 0.79025 0.0
C123 C 0.03859 0.06009 0.78041 0.0
C124 C 0.02627 0.06321 0.72901 0.0
C125 C 0.01537 0.07256 0.81086 0.0
C126 C 0.96702 0.09112 0.73829 0.0
C127 C 0.97712 0.08263 0.65359 0.0
H128 H 1.00388 0.82733 0.38156 0.0
H129 H 0.99998 0.87135 0.43913 0.0
H130 H 0.05013 0.83722 0.3231 0.0
H131 H 0.08963 0.93885 0.37855 0.0
H132 H 0.06632 0.04815 0.7967 0.0
H133 H 0.04469 0.05362 0.70595 0.0
H134 H 0.02602 0.07038 0.85045 0.0
H135 H 0.93911 0.10254 0.72158 0.0
C136 C 0.62612 0.57369 0.04994 0.0
C137 C 0.61068 0.63924 0.01268 0.0
C138 C 0.60028 0.60371 0.03821 0.0
C139 C 0.64674 0.64384 0.99804 0.0
C140 C 0.66247 0.57832 0.03569 0.0
C141 C 0.67256 0.61349 0.00955 0.0
N142 N 0.61511 0.53951 0.07356 0.0
C143 C 0.63944 0.50929 0.08587 0.0
C144 C 0.68739 0.54723 0.04747 0.0
C145 C 0.67587 0.51263 0.07289 0.0
Gd146 Gd 0.47421 0.49443 0.99543 0.0
Gd147 Gd 0.55333 0.53628 0.09282 0.0
N148 N 0.56509 0.59816 0.05168 0.0
C149 C 0.58471 0.6693 1.00315 0.0
C150 C 0.5411 0.6283 0.04621 0.0
C151 C 0.55007 0.66396 0.02083 0.0
H152 H 0.51559 0.62569 0.06271 0.0
H153 H 0.53052 0.68751 0.01576 0.0
H154 H 0.50764 0.40437 0.03828 0.0
H155 H 0.63089 0.48274 0.10628 0.0
H156 H 0.487 0.34514 0.08599 0.0
H157 H 0.59162 0.69701 0.98365 0.0
H158 H 0.65504 0.67085 0.97805 0.0
H159 H 0.39854 0.55193 0.96731 0.0
H160 H 0.71556 0.54965 0.03716 0.0
H161 H 0.69505 0.48853 0.08254 0.0
H162 H 0.3589 0.37059 0.10346 0.0
H163 H 0.70027 0.6175 0.99799 0.0
H164 H 0.30646 0.49348 0.03 0.0
H165 H 0.33229 0.5514 0.98347 0.0
N166 N 0.41039 0.49575 1.00607 0.0
C167 C 0.39649 0.46323 0.03038 0.0
C168 C 0.38775 0.52695 0.98866 0.0
C169 C 0.3356 0.4937 0.02327 0.0
C170 C 0.35011 0.5265 0.99718 0.0
C171 C 0.35877 0.46148 0.04011 0.0
H172 H 0.31668 0.4261 0.07467 0.0
N173 N 0.45713 0.43486 0.03808 0.0
C174 C 0.42051 0.43194 0.0469 0.0
C175 C 0.43167 0.36687 0.08835 0.0
C176 C 0.40707 0.39807 0.0731 0.0
C177 C 0.48027 0.40369 0.04991 0.0
C178 C 0.46822 0.36955 0.076 0.0
O179 O 0.56431 0.53486 0.01386 0.0
O180 O 0.50624 0.54624 0.96467 0.0
O181 O 0.48279 0.46176 0.93852 0.0
O182 O 0.43432 0.4992 0.92616 0.0
O183 O 0.49343 0.56088 0.07781 0.0
O184 O 0.47027 0.55722 0.99523 0.0
O185 O 0.46274 0.4938 0.07443 0.0
O186 O 0.52071 0.4852 0.12522 0.0
O187 O 0.54946 0.56798 0.15241 0.0
O188 O 0.59595 0.52892 0.15971 0.0
O189 O 0.53326 0.46778 0.0129 0.0
O190 O 0.55839 0.47345 0.09444 0.0
C191 C 0.54329 0.55014 0.9717 0.0
C192 C 0.46991 0.57216 0.03566 0.0
C193 C 0.45898 0.48917 0.855 0.0
C194 C 0.45031 0.47832 0.76846 0.0
C195 C 0.4802 0.53627 0.79035 0.0
C196 C 0.47603 0.52414 0.84038 0.0
C197 C 0.46729 0.51373 0.75456 0.0
C198 C 0.44646 0.46627 0.81919 0.0
C199 C 0.45333 0.4764 0.90719 0.0
C200 C 0.36959 0.39631 0.08311 0.0
C201 C 0.34552 0.42791 0.06665 0.0
H202 H 0.42245 0.34037 0.10859 0.0
C203 C 0.48377 0.48016 0.11731 0.0
C204 C 0.5571 0.45702 0.05492 0.0
C205 C 0.57525 0.53807 0.23402 0.0
C206 C 0.58512 0.54795 0.321 0.0
C207 C 0.55562 0.48995 0.29882 0.0
C208 C 0.55885 0.50274 0.24861 0.0
C209 C 0.56874 0.51223 0.33483 0.0
C210 C 0.58818 0.56063 0.27014 0.0
C211 C 0.57924 0.55177 0.18137 0.0
H212 H 0.49317 0.56342 0.77918 0.0
H213 H 0.48577 0.54213 0.86749 0.0
H214 H 0.47013 0.52439 0.71587 0.0
H215 H 0.43394 0.43898 0.83112 0.0
H216 H 0.5431 0.46255 0.30993 0.0
H217 H 0.5488 0.485 0.22129 0.0
H218 H 0.56648 0.50119 0.37362 0.0
H219 H 0.60023 0.58819 0.25838 0.0
H220 H 0.26067 0.21894 0.51602 0.0
H221 H 0.18615 0.24881 0.37501 0.0
H222 H 0.22044 0.16454 0.53969 0.0
H223 H 0.14524 0.19544 0.3989 0.0
H224 H 0.09295 0.07987 0.43727 0.0
H225 H 0.13897 0.12831 0.41313 0.0
H226 H 0.16001 0.15054 0.56465 0.0
H227 H 0.11523 0.10102 0.58909 0.0
C228 C 0.23592 0.21352 0.48986 0.0
C229 C 0.22703 0.23761 0.44322 0.0
C230 C 0.21258 0.18262 0.50358 0.0
C231 C 0.17945 0.17534 0.47124 0.0
C232 C 0.17081 0.1995 0.42445 0.0
C233 C 0.19421 0.23024 0.41073 0.0
C234 C 0.10772 0.0948 0.46556 0.0
C235 C 0.10013 0.0867 0.51506 0.0
C236 C 0.13392 0.12289 0.45161 0.0
C237 C 0.1532 0.14374 0.48676 0.0
C238 C 0.14616 0.13494 0.53655 0.0
C239 C 0.12012 0.10673 0.55052 0.0
H240 H 0.27762 0.69234 0.09198 0.0
H241 H 0.31285 0.76648 0.96571 0.0
H242 H 0.33031 0.64947 0.09462 0.0
H243 H 0.36652 0.72416 0.96898 0.0
H244 H 0.42915 0.61664 0.95348 0.0
H245 H 0.37945 0.66266 0.95199 0.0
H246 H 0.39782 0.64262 0.11393 0.0
H247 H 0.44637 0.59558 0.11531 0.0
C248 C 0.2971 0.69974 0.06529 0.0
C249 C 0.29143 0.73292 0.02897 0.0
C250 C 0.32743 0.67526 0.06689 0.0
C251 C 0.35288 0.68331 0.03211 0.0
C252 C 0.34732 0.71679 0.99602 0.0
C253 C 0.31686 0.74124 0.99438 0.0
C254 C 0.42246 0.62198 0.98875 0.0
C255 C 0.44135 0.60198 0.03448 0.0
C256 C 0.3942 0.64868 0.98793 0.0
C257 C 0.38435 0.6563 0.03286 0.0
C258 C 0.4041 0.63704 0.07858 0.0
C259 C 0.43222 0.61026 0.07938 0.0
H260 H 0.75732 0.86339 0.66806 0.0
H261 H 0.7993 0.78111 0.59271 0.0
H262 H 0.81058 0.90478 0.65091 0.0
H263 H 0.85366 0.82189 0.57682 0.0
H264 H 0.91985 0.92349 0.50597 0.0
H265 H 0.8692 0.87957 0.52656 0.0
H266 H 0.87676 0.91401 0.67079 0.0
H267 H 0.92658 0.95873 0.64951 0.0
C268 C 0.77852 0.85378 0.64881 0.0
C269 C 0.77459 0.8186 0.63276 0.0
C270 C 0.8092 0.87749 0.63903 0.0
C271 C 0.83678 0.8668 0.61261 0.0
C272 C 0.8329 0.83137 0.59682 0.0
C273 C 0.80203 0.80771 0.60645 0.0
C274 C 0.91073 0.9217 0.54211 0.0
C275 C 0.92722 0.94491 0.57592 0.0
C276 C 0.88179 0.89622 0.55413 0.0
C277 C 0.86863 0.89306 0.60042 0.0
C278 C 0.88554 0.91599 0.63444 0.0
C279 C 0.91432 0.94162 0.6223 0.0
H280 H 0.68613 0.24506 0.13188 0.0
H281 H 0.72065 0.30039 0.99336 0.0
H282 H 0.64599 0.29947 0.13146 0.0
H283 H 0.68132 0.3555 0.99331 0.0
H284 H 0.57242 0.42465 0.97728 0.0
H285 H 0.61524 0.37217 0.98036 0.0
H286 H 0.6458 0.36507 0.14044 0.0
H287 H 0.60189 0.41695 0.13759 0.0
C288 C 0.6854 0.26914 0.10162 0.0
C289 C 0.70628 0.26852 0.06247 0.0
C290 C 0.66258 0.30044 0.10148 0.0
C291 C 0.66018 0.33191 0.06222 0.0
C292 C 0.68192 0.33155 0.0237 0.0
C293 C 0.70466 0.30018 0.02383 0.0
C294 C 0.58819 0.41191 0.01323 0.0
C295 C 0.5837 0.42517 0.05719 0.0
C296 C 0.61308 0.38196 0.01491 0.0
C297 C 0.63424 0.36439 0.0606 0.0
C298 C 0.62975 0.37764 0.10463 0.0
C299 C 0.60474 0.40761 0.10296 0.0
H300 H 0.12836 0.87966 0.06362 0.0
H301 H 0.24033 0.86295 0.15188 0.0
H302 H 0.10351 0.89371 0.13575 0.0
H303 H 0.21476 0.87574 0.22486 0.0
H304 H 0.13283 0.8432 0.34742 0.0
H305 H 0.16833 0.8416 0.27856 0.0
H306 H 0.10796 0.94158 0.19407 0.0
H307 H 0.07265 0.94316 0.26353 0.0
C308 C 0.14792 0.87957 0.09808 0.0
C309 C 0.18653 0.87031 0.10154 0.0
C310 C 0.13355 0.88763 0.13955 0.0
C311 C 0.15722 0.88614 0.1859 0.0
C312 C 0.19582 0.87702 0.18961 0.0
C313 C 0.21037 0.86942 0.14785 0.0
C314 C 0.12815 0.8655 0.31473 0.0
C315 C 0.10031 0.89344 0.31069 0.0
C316 C 0.1484 0.8646 0.27533 0.0
C317 C 0.1407 0.89127 0.23074 0.0
C318 C 0.11425 0.92048 0.22786 0.0
C319 C 0.09435 0.92166 0.26765 0.0
H320 H 0.70412 0.67111 0.7902 0.0
H321 H 0.59664 0.6766 0.69132 0.0
H322 H 0.67297 0.64074 0.86012 0.0
H323 H 0.56606 0.64453 0.76 0.0
H324 H 0.51331 0.60939 0.90015 0.0
H325 H 0.54466 0.64807 0.83595 0.0
H326 H 0.64675 0.58055 0.88894 0.0
H327 H 0.61545 0.54253 0.95349 0.0
C328 C 0.67382 0.6662 0.78343 0.0
C329 C 0.65304 0.67595 0.73491 0.0
C330 C 0.656 0.64828 0.82339 0.0
C331 C 0.61697 0.63965 0.8158 0.0
C332 C 0.59602 0.65086 0.76765 0.0
C333 C 0.61374 0.66889 0.72794 0.0
C334 C 0.5424 0.6028 0.89784 0.0
C335 C 0.56191 0.57294 0.93179 0.0
C336 C 0.56045 0.62496 0.86105 0.0
C337 C 0.59838 0.61757 0.85699 0.0
C338 C 0.61782 0.58765 0.89126 0.0
C339 C 0.5998 0.56564 0.92814 0.0
H340 H 0.9146 0.16622 0.16029 0.0
H341 H 0.80656 0.13528 0.20747 0.0
H342 H 0.94749 0.13537 0.24189 0.0
H343 H 0.83967 0.104 0.28965 0.0
H344 H 0.92203 0.01335 0.40141 0.0
H345 H 0.88566 0.04535 0.32187 0.0
H346 H 0.953 0.14612 0.33226 0.0
H347 H 0.98921 0.11434 0.41096 0.0
C348 C 0.89794 0.15285 0.1883 0.0
C349 C 0.8581 0.15303 0.17769 0.0
C350 C 0.91672 0.13535 0.23499 0.0
C351 C 0.8961 0.11724 0.27195 0.0
C352 C 0.85619 0.11754 0.26158 0.0
C353 C 0.83731 0.13564 0.21491 0.0
C354 C 0.92913 0.04222 0.38634 0.0
C355 C 0.95851 0.06131 0.41207 0.0
C356 C 0.90809 0.06063 0.3413 0.0
C357 C 0.9166 0.09817 0.321 0.0
C358 C 0.94603 0.11711 0.34685 0.0
C359 C 0.96667 0.09893 0.39194 0.0
H360 H 0.31183 0.36526 0.54657 0.0
H361 H 0.42709 0.34118 0.5324 0.0
H362 H 0.33506 0.39755 0.61666 0.0
H363 H 0.45058 0.37161 0.60381 0.0
H364 H 0.4822 0.46898 0.68674 0.0
H365 H 0.45829 0.43253 0.62221 0.0
H366 H 0.36448 0.39407 0.70026 0.0
H367 H 0.38686 0.43303 0.7629 0.0
C368 C 0.34212 0.36614 0.55936 0.0
C369 C 0.36771 0.35101 0.53405 0.0
C370 C 0.35553 0.38455 0.5996 0.0
C371 C 0.39484 0.38772 0.61578 0.0
C372 C 0.42021 0.37077 0.59172 0.0
C373 C 0.40682 0.35297 0.55109 0.0
C374 C 0.45618 0.45321 0.68993 0.0
C375 C 0.43645 0.4543 0.73013 0.0
C376 C 0.44274 0.43164 0.65321 0.0
C377 C 0.40944 0.40999 0.65588 0.0
C378 C 0.38996 0.41063 0.69647 0.0
C379 C 0.40317 0.43262 0.73294 0.0
H380 H 0.60672 0.68601 0.55541 0.0
H381 H 0.72226 0.65793 0.54732 0.0
H382 H 0.58414 0.65545 0.48388 0.0
H383 H 0.69977 0.62595 0.47662 0.0
H384 H 0.6488 0.59279 0.32746 0.0
H385 H 0.67125 0.63115 0.39105 0.0
H386 H 0.57637 0.59336 0.46722 0.0
H387 H 0.55276 0.5571 0.40224 0.0
C388 C 0.62728 0.67327 0.53813 0.0
C389 C 0.66619 0.67408 0.55705 0.0
C390 C 0.61437 0.6555 0.49734 0.0
C391 C 0.64001 0.63759 0.47478 0.0
C392 C 0.67916 0.63966 0.49266 0.0
C393 C 0.69212 0.65791 0.53323 0.0
C394 C 0.63237 0.59317 0.35732 0.0
C395 C 0.59892 0.57172 0.35959 0.0
C396 C 0.64556 0.61482 0.39422 0.0
C397 C 0.6257 0.61549 0.43445 0.0
C398 C 0.59219 0.59414 0.4365 0.0
C399 C 0.5789 0.57276 0.39952 0.0
H400 H 0.83771 0.1047 0.01716 0.0
H401 H 0.86289 0.22088 0.95901 0.0
H402 H 0.86853 0.08344 0.95377 0.0
H403 H 0.89521 0.19974 0.89642 0.0
H404 H 0.93213 0.15071 0.76928 0.0
H405 H 0.89184 0.17175 0.82319 0.0
H406 H 0.93149 0.07724 0.9402 0.0
H407 H 0.96976 0.05505 0.88546 0.0
C408 C 0.84966 0.12569 0.9904 0.0
C409 C 0.84812 0.16437 0.99303 0.0
C410 C 0.86765 0.11354 0.95434 0.0
C411 C 0.88509 0.13976 0.92042 0.0
C412 C 0.88193 0.17872 0.92162 0.0
C413 C 0.86345 0.1909 0.95745 0.0
C414 C 0.93176 0.13406 0.80622 0.0
C415 C 0.95433 0.10114 0.82292 0.0
C416 C 0.90897 0.14642 0.8374 0.0
C417 C 0.90824 0.12623 0.88615 0.0
C418 C 0.93071 0.09325 0.90267 0.0
C419 C 0.95325 0.0808 0.87146 0.0
H420 H 0.35285 0.41389 0.35792 0.0
H421 H 0.39377 0.30657 0.33654 0.0
H422 H 0.38308 0.44666 0.28853 0.0
H423 H 0.42454 0.33952 0.26685 0.0
H424 H 0.51321 0.42353 0.19407 0.0
H425 H 0.48004 0.38708 0.25878 0.0
H426 H 0.37761 0.45135 0.19485 0.0
H427 H 0.41066 0.48783 0.13094 0.0
C428 C 0.36801 0.39732 0.33787 0.0
C429 C 0.37091 0.35773 0.35241 0.0
C430 C 0.38526 0.41604 0.29812 0.0
C431 C 0.40633 0.39569 0.27235 0.0
C432 C 0.40874 0.35595 0.28631 0.0
C433 C 0.39087 0.33708 0.32574 0.0
C434 C 0.48369 0.42995 0.19415 0.0
C435 C 0.46459 0.45863 0.15759 0.0
C436 C 0.46459 0.40881 0.23075 0.0
C437 C 0.4262 0.41633 0.23186 0.0
C438 C 0.40723 0.44504 0.19522 0.0
C439 C 0.42615 0.46584 0.15851 0.0
H440 H 0.17612 0.83755 0.88367 0.0
H441 H 0.18138 0.94591 0.93255 0.0
H442 H 0.14255 0.86717 0.80195 0.0
H443 H 0.14641 0.97518 0.85159 0.0
H444 H 0.11147 0.02164 0.68379 0.0
H445 H 0.1503 0.99318 0.76281 0.0
H446 H 0.0795 0.89346 0.76882 0.0
H447 H 0.04088 0.92205 0.69014 0.0
C448 C 0.17046 0.86776 0.87685 0.0
C449 C 0.18131 0.8893 0.91481 0.0
C450 C 0.15077 0.88464 0.83021 0.0
C451 C 0.14143 0.92348 0.82037 0.0
C452 C 0.15331 0.94526 0.85777 0.0
C453 C 0.17301 0.92838 0.9044 0.0
C454 C 0.10419 0.99373 0.70228 0.0
C455 C 0.07348 0.97381 0.68067 0.0
C456 C 0.1264 0.97741 0.74747 0.0
C457 C 0.11823 0.94088 0.77199 0.0
C458 C 0.0871 0.92129 0.75049 0.0
C459 C 0.0649 0.93767 0.70547 0.0
loop_
_geom_bond_atom_site_label_1
_geom_bond_atom_site_label_2
_geom_bond_distance
_geom_bond_site_symmetry_2
_ccdc_geom_bond_type
H0 C7 0.929 . S
H1 C10 0.930 . S
H2 C12 0.929 . S
H3 C4 0.969 . S
C4 H3 0.969 . S
C4 O5 1.550 . S
C4 H6 0.973 . S
O5 C4 1.550 . S
O5 C11 1.412 . S
H6 C4 0.973 . S
C7 H0 0.929 . S
C7 C8 1.400 1_554 S
C7 C9 1.364 . S
C8 C7 1.400 1_556 S
C8 C12 1.377 . S
C9 C7 1.364 . S
C9 C10 1.374 . S
C10 H1 0.930 . S
C10 C9 1.374 . S
C10 C11 1.383 . S
C11 O5 1.412 . S
C11 C10 1.383 . S
C11 C12 1.394 1_554 S
C12 H2 0.929 . S
C12 C8 1.377 . S
C12 C11 1.394 1_556 S
H13 C20 0.929 . S
H14 C23 0.930 . S
H15 C25 0.929 . S
H16 C17 0.969 . S
C17 H16 0.969 . S
C17 O18 1.550 . S
C17 H19 0.973 . S
O18 C17 1.550 . S
O18 C24 1.412 . S
H19 C17 0.973 . S
C20 H13 0.929 . S
C20 C21 1.400 . S
C20 C22 1.364 . S
C21 C20 1.400 . S
C21 C25 1.377 . S
C22 C20 1.364 . S
C22 C23 1.374 . S
C23 H14 0.930 . S
C23 C22 1.374 . S
C23 C24 1.383 . S
C24 O18 1.412 . S
C24 C23 1.383 . S
C24 C25 1.394 . S
C25 H15 0.929 . S
C25 C21 1.377 . S
C25 C24 1.394 . S
H26 C33 0.929 . S
H27 C36 0.930 1_556 S
H28 C38 0.929 . S
H29 C30 0.969 . S
C30 H29 0.969 . S
C30 O31 1.550 . S
C30 H32 0.973 1_554 S
O31 C30 1.550 . S
O31 C37 1.412 . S
H32 C30 0.973 1_556 S
C33 H26 0.929 . S
C33 C34 1.400 . S
C33 C35 1.364 . S
C34 C33 1.400 . S
C34 C38 1.377 . S
C35 C33 1.364 . S
C35 C36 1.374 . S
C36 H27 0.930 1_554 S
C36 C35 1.374 . S
C36 C37 1.383 . S
C37 O31 1.412 . S
C37 C36 1.383 . S
C37 C38 1.394 . S
C38 H28 0.929 . S
C38 C34 1.377 . S
C38 C37 1.394 . S
H39 C46 0.929 . S
H40 C49 0.930 . S
H41 C51 0.929 . S
H42 C43 0.969 . S
C43 H42 0.969 . S
C43 O44 1.550 . S
C43 H45 0.973 . S
O44 C43 1.550 . S
O44 C50 1.412 . S
H45 C43 0.973 . S
C46 H39 0.929 . S
C46 C47 1.400 . S
C46 C48 1.364 . S
C47 C46 1.400 . S
C47 C51 1.377 . S
C48 C46 1.364 . S
C48 C49 1.374 . S
C49 H40 0.930 . S
C49 C48 1.374 . S
C49 C50 1.383 . S
C50 O44 1.412 . S
C50 C49 1.383 . S
C50 C51 1.394 . S
C51 H41 0.929 . S
C51 C47 1.377 . S
C51 C50 1.394 . S
C52 C54 1.422 . S
C52 C56 1.415 . S
C52 N58 1.369 . S
C53 C54 1.421 . S
C53 C55 1.417 . S
C53 C65 1.422 . S
C54 C52 1.422 . S
C54 C53 1.421 . S
C54 N64 1.359 . S
C55 C53 1.417 . S
C55 C57 1.329 . S
C55 H74 0.930 . S
C56 C52 1.415 . S
C56 C57 1.437 . S
C56 C60 1.413 . S
C57 C55 1.329 . S
C57 C56 1.437 . S
C57 H79 0.929 . S
N58 C52 1.369 . S
N58 C59 1.338 1_655 S
N58 Gd63 2.622 . S
C59 N58 1.338 1_455 S
C59 C61 1.378 . S
C59 H71 0.929 . S
C60 C56 1.413 . S
C60 C61 1.348 1_655 S
C60 H76 0.931 . S
C61 C59 1.378 . S
C61 C60 1.348 1_455 S
C61 H77 0.930 . S
Gd62 N82 2.622 . S
Gd62 N89 2.570 . S
Gd62 O96 2.353 1_465 S
Gd62 O97 2.468 . S
Gd62 O98 2.427 . S
Gd62 O100 2.388 1_455 S
Gd62 O101 2.386 . S
Gd62 O105 2.307 1_565 S
Gd62 C115 2.805 . S
Gd63 N58 2.622 . S
Gd63 N64 2.570 . S
Gd63 O95 2.386 . S
Gd63 O99 2.307 1_545 S
Gd63 O102 2.353 1_655 S
Gd63 O103 2.468 . S
Gd63 O104 2.427 . S
Gd63 O106 2.388 1_655 S
Gd63 C127 2.805 . S
N64 C54 1.359 . S
N64 Gd63 2.570 . S
N64 C66 1.343 . S
C65 C53 1.422 . S
C65 C67 1.321 . S
C65 H73 0.931 . S
C66 N64 1.343 . S
C66 C67 1.390 . S
C66 H68 0.931 . S
C67 C65 1.321 . S
C67 C66 1.390 . S
C67 H69 0.930 . S
H68 C66 0.931 . S
H69 C67 0.930 . S
H70 C93 0.931 . S
H71 C59 0.929 . S
H72 C94 0.930 . S
H73 C65 0.931 . S
H74 C55 0.930 . S
H75 C84 0.929 1_655 S
H76 C60 0.931 . S
H77 C61 0.930 . S
H78 C116 0.930 . S
H79 C57 0.929 . S
H80 C85 0.931 . S
H81 C86 0.930 1_655 S
N82 Gd62 2.622 . S
N82 C83 1.369 . S
N82 C84 1.338 . S
C83 N82 1.369 . S
C83 C87 1.415 . S
C83 C90 1.422 . S
C84 H75 0.929 1_455 S
C84 N82 1.338 . S
C84 C86 1.378 . S
C85 H80 0.931 . S
C85 C86 1.348 . S
C85 C87 1.413 . S
C86 H81 0.930 1_455 S
C86 C84 1.378 . S
C86 C85 1.348 . S
C87 C83 1.415 . S
C87 C85 1.413 . S
C87 C117 1.437 . S
H88 C117 0.929 . S
N89 Gd62 2.570 . S
N89 C90 1.359 . S
N89 C93 1.343 . S
C90 C83 1.422 . S
C90 N89 1.359 . S
C90 C92 1.421 . S
C91 C92 1.422 . S
C91 C94 1.321 . S
C91 H118 0.931 . S
C92 C90 1.421 . S
C92 C91 1.422 . S
C92 C116 1.417 . S
C93 H70 0.931 . S
C93 N89 1.343 . S
C93 C94 1.390 . S
C94 H72 0.930 . S
C94 C91 1.321 . S
C94 C93 1.390 . S
O95 Gd63 2.386 . S
O95 C107 1.265 . S
O96 Gd62 2.353 1_645 S
O96 C107 1.242 . S
O97 Gd62 2.468 . S
O97 C115 1.263 . S
O98 Gd62 2.427 . S
O98 C115 1.252 . S
O99 Gd63 2.307 1_565 S
O99 C108 1.261 . S
O100 Gd62 2.388 1_655 S
O100 C108 1.252 . S
O101 Gd62 2.386 . S
O101 C119 1.265 . S
O102 Gd63 2.353 1_455 S
O102 C119 1.242 1_545 S
O103 Gd63 2.468 . S
O103 C127 1.263 . S
O104 Gd63 2.427 . S
O104 C127 1.252 . S
O105 Gd62 2.307 1_545 S
O105 C120 1.261 . S
O106 Gd63 2.388 1_455 S
O106 C120 1.252 . S
C107 O95 1.265 . S
C107 O96 1.242 . S
C108 O99 1.261 . S
C108 O100 1.252 . S
C109 C112 1.394 . S
C109 C114 1.370 . S
C109 C115 1.500 . S
C110 C113 1.383 . S
C110 C114 1.395 . S
C111 C112 1.396 . S
C111 C113 1.365 . S
C111 H128 0.929 . S
C112 C109 1.394 . S
C112 C111 1.396 . S
C112 H129 0.930 . S
C113 C110 1.383 . S
C113 C111 1.365 . S
C113 H130 0.931 . S
C114 C109 1.370 . S
C114 C110 1.395 . S
C114 H131 0.930 . S
C115 Gd62 2.805 . S
C115 O97 1.263 . S
C115 O98 1.252 . S
C115 C109 1.500 . S
C116 H78 0.930 . S
C116 C92 1.417 . S
C116 C117 1.329 . S
C117 C87 1.437 . S
C117 H88 0.929 . S
C117 C116 1.329 . S
H118 C91 0.931 . S
C119 O101 1.265 . S
C119 O102 1.242 1_565 S
C120 O105 1.261 . S
C120 O106 1.252 . S
C121 C124 1.394 . S
C121 C126 1.370 . S
C121 C127 1.500 . S
C122 C125 1.383 . S
C122 C126 1.395 . S
C123 C124 1.396 . S
C123 C125 1.365 . S
C123 H132 0.929 . S
C124 C121 1.394 . S
C124 C123 1.396 . S
C124 H133 0.930 . S
C125 C122 1.383 . S
C125 C123 1.365 . S
C125 H134 0.931 . S
C126 C121 1.370 . S
C126 C122 1.395 . S
C126 H135 0.930 . S
C127 Gd63 2.805 . S
C127 O103 1.263 . S
C127 O104 1.252 . S
C127 C121 1.500 . S
H128 C111 0.929 . S
H129 C112 0.930 . S
H130 C113 0.931 . S
H131 C114 0.930 . S
H132 C123 0.929 . S
H133 C124 0.930 . S
H134 C125 0.931 . S
H135 C126 0.930 . S
C136 C138 1.422 . S
C136 C140 1.415 . S
C136 N142 1.369 . S
C137 C138 1.421 . S
C137 C139 1.417 . S
C137 C149 1.422 . S
C138 C136 1.422 . S
C138 C137 1.421 . S
C138 N148 1.359 . S
C139 C137 1.417 . S
C139 C141 1.329 . S
C139 H158 0.930 . S
C140 C136 1.415 . S
C140 C141 1.437 . S
C140 C144 1.413 . S
C141 C139 1.329 . S
C141 C140 1.437 . S
C141 H163 0.929 . S
N142 C136 1.369 . S
N142 C143 1.338 . S
N142 Gd147 2.622 . S
C143 N142 1.338 . S
C143 C145 1.378 . S
C143 H155 0.929 . S
C144 C140 1.413 . S
C144 C145 1.348 . S
C144 H160 0.931 . S
C145 C143 1.378 . S
C145 C144 1.348 . S
C145 H161 0.930 . S
Gd146 N166 2.622 . S
Gd146 N173 2.570 1_556 S
Gd146 O180 2.353 . S
Gd146 O181 2.468 . S
Gd146 O182 2.427 . S
Gd146 O184 2.388 1_556 S
Gd146 O185 2.386 1_556 S
Gd146 O189 2.307 1_556 S
Gd146 C199 2.805 . S
Gd147 N142 2.622 . S
Gd147 N148 2.570 . S
Gd147 O179 2.386 . S
Gd147 O183 2.307 . S
Gd147 O186 2.353 . S
Gd147 O187 2.468 . S
Gd147 O188 2.427 . S
Gd147 O190 2.388 . S
Gd147 C211 2.805 . S
N148 C138 1.359 . S
N148 Gd147 2.570 . S
N148 C150 1.343 . S
C149 C137 1.422 . S
C149 C151 1.321 . S
C149 H157 0.931 . S
C150 N148 1.343 . S
C150 C151 1.390 . S
C150 H152 0.931 . S
C151 C149 1.321 . S
C151 C150 1.390 . S
C151 H153 0.930 . S
H152 C150 0.931 . S
H153 C151 0.930 . S
H154 C177 0.931 . S
H155 C143 0.929 . S
H156 C178 0.930 . S
H157 C149 0.931 . S
H158 C139 0.930 . S
H159 C168 0.929 . S
H160 C144 0.931 . S
H161 C145 0.930 . S
H162 C200 0.930 . S
H163 C141 0.929 . S
H164 C169 0.931 . S
H165 C170 0.930 . S
N166 Gd146 2.622 . S
N166 C167 1.369 1_556 S
N166 C168 1.338 . S
C167 N166 1.369 1_554 S
C167 C171 1.415 . S
C167 C174 1.422 . S
C168 H159 0.929 . S
C168 N166 1.338 . S
C168 C170 1.378 . S
C169 H164 0.931 . S
C169 C170 1.348 1_554 S
C169 C171 1.413 . S
C170 H165 0.930 . S
C170 C168 1.378 . S
C170 C169 1.348 1_556 S
C171 C167 1.415 . S
C171 C169 1.413 . S
C171 C201 1.437 . S
H172 C201 0.929 . S
N173 Gd146 2.570 1_554 S
N173 C174 1.359 . S
N173 C177 1.343 . S
C174 C167 1.422 . S
C174 N173 1.359 . S
C174 C176 1.421 . S
C175 C176 1.422 . S
C175 C178 1.321 . S
C175 H202 0.931 . S
C176 C174 1.421 . S
C176 C175 1.422 . S
C176 C200 1.417 . S
C177 H154 0.931 . S
C177 N173 1.343 . S
C177 C178 1.390 . S
C178 H156 0.930 . S
C178 C175 1.321 . S
C178 C177 1.390 . S
O179 Gd147 2.386 . S
O179 C191 1.265 1_554 S
O180 Gd146 2.353 . S
O180 C191 1.242 . S
O181 Gd146 2.468 . S
O181 C199 1.263 . S
O182 Gd146 2.427 . S
O182 C199 1.252 . S
O183 Gd147 2.307 . S
O183 C192 1.261 . S
O184 Gd146 2.388 1_554 S
O184 C192 1.252 . S
O185 Gd146 2.386 1_554 S
O185 C203 1.265 . S
O186 Gd147 2.353 . S
O186 C203 1.242 . S
O187 Gd147 2.468 . S
O187 C211 1.263 . S
O188 Gd147 2.427 . S
O188 C211 1.252 . S
O189 Gd146 2.307 1_554 S
O189 C204 1.261 . S
O190 Gd147 2.388 . S
O190 C204 1.252 . S
C191 O179 1.265 1_556 S
C191 O180 1.242 . S
C192 O183 1.261 . S
C192 O184 1.252 . S
C193 C196 1.394 . S
C193 C198 1.370 . S
C193 C199 1.500 . S
C194 C197 1.383 . S
C194 C198 1.395 . S
C195 C196 1.396 . S
C195 C197 1.365 . S
C195 H212 0.929 . S
C196 C193 1.394 . S
C196 C195 1.396 . S
C196 H213 0.930 . S
C197 C194 1.383 . S
C197 C195 1.365 . S
C197 H214 0.931 . S
C198 C193 1.370 . S
C198 C194 1.395 . S
C198 H215 0.930 . S
C199 Gd146 2.805 . S
C199 O181 1.263 . S
C199 O182 1.252 . S
C199 C193 1.500 . S
C200 H162 0.930 . S
C200 C176 1.417 . S
C200 C201 1.329 . S
C201 C171 1.437 . S
C201 H172 0.929 . S
C201 C200 1.329 . S
H202 C175 0.931 . S
C203 O185 1.265 . S
C203 O186 1.242 . S
C204 O189 1.261 . S
C204 O190 1.252 . S
C205 C208 1.394 . S
C205 C210 1.370 . S
C205 C211 1.500 . S
C206 C209 1.383 . S
C206 C210 1.395 . S
C207 C208 1.396 . S
C207 C209 1.365 . S
C207 H216 0.929 . S
C208 C205 1.394 . S
C208 C207 1.396 . S
C208 H217 0.930 . S
C209 C206 1.383 . S
C209 C207 1.365 . S
C209 H218 0.931 . S
C210 C205 1.370 . S
C210 C206 1.395 . S
C210 H219 0.930 . S
C211 Gd147 2.805 . S
C211 O187 1.263 . S
C211 O188 1.252 . S
C211 C205 1.500 . S
H212 C195 0.929 . S
H213 C196 0.930 . S
H214 C197 0.931 . S
H215 C198 0.930 . S
H216 C207 0.929 . S
H217 C208 0.930 . S
H218 C209 0.931 . S
H219 C210 0.930 . S
H220 C228 0.950 . S
H221 C233 0.950 . S
H222 C230 0.950 . S
H223 C232 0.950 . S
H224 C234 0.950 . S
H225 C236 0.950 . S
H226 C238 0.950 . S
H227 C239 0.950 . S
C228 H220 0.950 . S
C228 C229 1.386 . S
C228 C230 1.391 . S
C229 C228 1.386 . S
C229 C233 1.393 . S
C230 H222 0.950 . S
C230 C228 1.391 . S
C230 C231 1.400 . S
C231 C230 1.400 . S
C231 C232 1.398 . S
C231 C237 1.491 . S
C232 H223 0.950 . S
C232 C231 1.398 . S
C232 C233 1.391 . S
C233 H221 0.950 . S
C233 C229 1.393 . S
C233 C232 1.391 . S
C234 H224 0.950 . S
C234 C235 1.386 . S
C234 C236 1.391 . S
C235 C234 1.386 . S
C235 C239 1.393 . S
C236 H225 0.950 . S
C236 C234 1.391 . S
C236 C237 1.400 . S
C237 C231 1.491 . S
C237 C236 1.400 . S
C237 C238 1.398 . S
C238 H226 0.950 . S
C238 C237 1.398 . S
C238 C239 1.391 . S
C239 H227 0.950 . S
C239 C235 1.393 . S
C239 C238 1.391 . S
H240 C248 0.950 . S
H241 C253 0.950 1_556 S
H242 C250 0.950 . S
H243 C252 0.950 1_556 S
H244 C254 0.951 . S
H245 C256 0.940 1_556 S
H246 C258 0.950 . S
H247 C259 0.950 . S
C248 H240 0.950 . S
C248 C249 1.386 . S
C248 C250 1.391 . S
C249 C248 1.386 . S
C249 C253 1.393 . S
C250 H242 0.950 . S
C250 C248 1.391 . S
C250 C251 1.400 . S
C251 C250 1.400 . S
C251 C252 1.398 . S
C251 C257 1.491 . S
C252 H243 0.950 1_554 S
C252 C251 1.398 . S
C252 C253 1.391 . S
C253 H241 0.950 1_554 S
C253 C249 1.393 . S
C253 C252 1.391 . S
C254 H244 0.951 . S
C254 C255 1.385 1_556 S
C254 C256 1.387 1_556 S
C255 C254 1.385 1_554 S
C255 C259 1.393 . S
C256 H245 0.940 1_554 S
C256 C254 1.387 1_554 S
C256 C257 1.414 . S
C257 C251 1.491 . S
C257 C256 1.414 . S
C257 C258 1.398 . S
C258 H246 0.950 . S
C258 C257 1.398 . S
C258 C259 1.391 . S
C259 H247 0.950 . S
C259 C255 1.393 . S
C259 C258 1.391 . S
H260 C268 0.950 . S
H261 C273 0.950 . S
H262 C270 0.950 . S
H263 C272 0.950 . S
H264 C274 0.950 . S
H265 C276 0.950 . S
H266 C278 0.950 . S
H267 C279 0.950 . S
C268 H260 0.950 . S
C268 C269 1.386 . S
C268 C270 1.391 . S
C269 C268 1.386 . S
C269 C273 1.393 . S
C270 H262 0.950 . S
C270 C268 1.391 . S
C270 C271 1.400 . S
C271 C270 1.400 . S
C271 C272 1.398 . S
C271 C277 1.491 . S
C272 H263 0.950 . S
C272 C271 1.398 . S
C272 C273 1.391 . S
C273 H261 0.950 . S
C273 C269 1.393 . S
C273 C272 1.391 . S
C274 H264 0.950 . S
C274 C275 1.386 . S
C274 C276 1.391 . S
C275 C274 1.386 . S
C275 C279 1.393 . S
C276 H265 0.950 . S
C276 C274 1.391 . S
C276 C277 1.400 . S
C277 C271 1.491 . S
C277 C276 1.400 . S
C277 C278 1.398 . S
C278 H266 0.950 . S
C278 C277 1.398 . S
C278 C279 1.391 . S
C279 H267 0.950 . S
C279 C275 1.393 . S
C279 C278 1.391 . S
H280 C288 0.950 . S
H281 C293 0.950 . S
H282 C290 0.950 . S
H283 C292 0.950 . S
H284 C294 0.950 . S
H285 C296 0.950 . S
H286 C298 0.950 . S
H287 C299 0.950 . S
C288 H280 0.950 . S
C288 C289 1.386 . S
C288 C290 1.391 . S
C289 C288 1.386 . S
C289 C293 1.393 1_554 S
C290 H282 0.950 . S
C290 C288 1.391 . S
C290 C291 1.400 . S
C291 C290 1.400 . S
C291 C292 1.398 1_554 S
C291 C297 1.491 . S
C292 H283 0.950 . S
C292 C291 1.398 1_556 S
C292 C293 1.391 . S
C293 H281 0.950 . S
C293 C289 1.393 1_556 S
C293 C292 1.391 . S
C294 H284 0.950 . S
C294 C295 1.386 1_556 S
C294 C296 1.391 . S
C295 C294 1.386 1_554 S
C295 C299 1.393 . S
C296 H285 0.950 . S
C296 C294 1.391 . S
C296 C297 1.400 1_556 S
C297 C291 1.491 . S
C297 C296 1.400 1_554 S
C297 C298 1.398 . S
C298 H286 0.950 . S
C298 C297 1.398 . S
C298 C299 1.391 . S
C299 H287 0.950 . S
C299 C295 1.393 . S
C299 C298 1.391 . S
H300 C308 0.950 . S
H301 C313 0.950 . S
H302 C310 0.950 . S
H303 C312 0.950 . S
H304 C314 0.950 . S
H305 C316 0.950 . S
H306 C318 0.950 . S
H307 C319 0.950 . S
C308 H300 0.950 . S
C308 C309 1.386 . S
C308 C310 1.391 . S
C309 C308 1.386 . S
C309 C313 1.393 . S
C310 H302 0.950 . S
C310 C308 1.391 . S
C310 C311 1.400 . S
C311 C310 1.400 . S
C311 C312 1.398 . S
C311 C317 1.491 . S
C312 H303 0.950 . S
C312 C311 1.398 . S
C312 C313 1.391 . S
C313 H301 0.950 . S
C313 C309 1.393 . S
C313 C312 1.391 . S
C314 H304 0.950 . S
C314 C315 1.386 . S
C314 C316 1.391 . S
C315 C314 1.386 . S
C315 C319 1.393 . S
C316 H305 0.950 . S
C316 C314 1.391 . S
C316 C317 1.400 . S
C317 C311 1.491 . S
C317 C316 1.400 . S
C317 C318 1.398 . S
C318 H306 0.950 . S
C318 C317 1.398 . S
C318 C319 1.391 . S
C319 H307 0.950 . S
C319 C315 1.393 . S
C319 C318 1.391 . S
H320 C328 0.950 . S
H321 C333 0.950 . S
H322 C330 0.950 . S
H323 C332 0.950 . S
H324 C334 0.950 . S
H325 C336 0.950 . S
H326 C338 0.950 . S
H327 C339 0.950 . S
C328 H320 0.950 . S
C328 C329 1.386 . S
C328 C330 1.391 . S
C329 C328 1.386 . S
C329 C333 1.393 . S
C330 H322 0.950 . S
C330 C328 1.391 . S
C330 C331 1.400 . S
C331 C330 1.400 . S
C331 C332 1.398 . S
C331 C337 1.491 . S
C332 H323 0.950 . S
C332 C331 1.398 . S
C332 C333 1.391 . S
C333 H321 0.950 . S
C333 C329 1.393 . S
C333 C332 1.391 . S
C334 H324 0.950 . S
C334 C335 1.386 . S
C334 C336 1.391 . S
C335 C334 1.386 . S
C335 C339 1.393 . S
C336 H325 0.950 . S
C336 C334 1.391 . S
C336 C337 1.400 . S
C337 C331 1.491 . S
C337 C336 1.400 . S
C337 C338 1.398 . S
C338 H326 0.950 . S
C338 C337 1.398 . S
C338 C339 1.391 . S
C339 H327 0.950 . S
C339 C335 1.393 . S
C339 C338 1.391 . S
H340 C348 0.950 . S
H341 C353 0.950 . S
H342 C350 0.950 . S
H343 C352 0.950 . S
H344 C354 0.950 . S
H345 C356 0.950 . S
H346 C358 0.950 . S
H347 C359 0.950 . S
C348 H340 0.950 . S
C348 C349 1.386 . S
C348 C350 1.391 . S
C349 C348 1.386 . S
C349 C353 1.393 . S
C350 H342 0.950 . S
C350 C348 1.391 . S
C350 C351 1.400 . S
C351 C350 1.400 . S
C351 C352 1.398 . S
C351 C357 1.491 . S
C352 H343 0.950 . S
C352 C351 1.398 . S
C352 C353 1.391 . S
C353 H341 0.950 . S
C353 C349 1.393 . S
C353 C352 1.391 . S
C354 H344 0.950 . S
C354 C355 1.386 . S
C354 C356 1.391 . S
C355 C354 1.386 . S
C355 C359 1.393 . S
C356 H345 0.950 . S
C356 C354 1.391 . S
C356 C357 1.400 . S
C357 C351 1.491 . S
C357 C356 1.400 . S
C357 C358 1.398 . S
C358 H346 0.950 . S
C358 C357 1.398 . S
C358 C359 1.391 . S
C359 H347 0.950 . S
C359 C355 1.393 . S
C359 C358 1.391 . S
H360 C368 0.950 . S
H361 C373 0.950 . S
H362 C370 0.950 . S
H363 C372 0.950 . S
H364 C374 0.950 . S
H365 C376 0.950 . S
H366 C378 0.950 . S
H367 C379 0.950 . S
C368 H360 0.950 . S
C368 C369 1.386 . S
C368 C370 1.391 . S
C369 C368 1.386 . S
C369 C373 1.393 . S
C370 H362 0.950 . S
C370 C368 1.391 . S
C370 C371 1.400 . S
C371 C370 1.400 . S
C371 C372 1.398 . S
C371 C377 1.491 . S
C372 H363 0.950 . S
C372 C371 1.398 . S
C372 C373 1.391 . S
C373 H361 0.950 . S
C373 C369 1.393 . S
C373 C372 1.391 . S
C374 H364 0.950 . S
C374 C375 1.386 . S
C374 C376 1.391 . S
C375 C374 1.386 . S
C375 C379 1.393 . S
C376 H365 0.950 . S
C376 C374 1.391 . S
C376 C377 1.400 . S
C377 C371 1.491 . S
C377 C376 1.400 . S
C377 C378 1.398 . S
C378 H366 0.950 . S
C378 C377 1.398 . S
C378 C379 1.391 . S
C379 H367 0.950 . S
C379 C375 1.393 . S
C379 C378 1.391 . S
H380 C388 0.950 . S
H381 C393 0.950 . S
H382 C390 0.950 . S
H383 C392 0.950 . S
H384 C394 0.950 . S
H385 C396 0.950 . S
H386 C398 0.950 . S
H387 C399 0.950 . S
C388 H380 0.950 . S
C388 C389 1.386 . S
C388 C390 1.391 . S
C389 C388 1.386 . S
C389 C393 1.393 . S
C390 H382 0.950 . S
C390 C388 1.391 . S
C390 C391 1.400 . S
C391 C390 1.400 . S
C391 C392 1.398 . S
C391 C397 1.491 . S
C392 H383 0.950 . S
C392 C391 1.398 . S
C392 C393 1.391 . S
C393 H381 0.950 . S
C393 C389 1.393 . S
C393 C392 1.391 . S
C394 H384 0.950 . S
C394 C395 1.386 . S
C394 C396 1.391 . S
C395 C394 1.386 . S
C395 C399 1.393 . S
C396 H385 0.950 . S
C396 C394 1.391 . S
C396 C397 1.400 . S
C397 C391 1.491 . S
C397 C396 1.400 . S
C397 C398 1.398 . S
C398 H386 0.950 . S
C398 C397 1.398 . S
C398 C399 1.391 . S
C399 H387 0.950 . S
C399 C395 1.393 . S
C399 C398 1.391 . S
H400 C408 0.950 1_554 S
H401 C413 0.950 . S
H402 C410 0.950 . S
H403 C412 0.950 . S
H404 C414 0.950 . S
H405 C416 0.950 . S
H406 C418 0.950 . S
H407 C419 0.950 . S
C408 H400 0.950 1_556 S
C408 C409 1.386 . S
C408 C410 1.391 . S
C409 C408 1.386 . S
C409 C413 1.393 . S
C410 H402 0.950 . S
C410 C408 1.391 . S
C410 C411 1.400 . S
C411 C410 1.400 . S
C411 C412 1.398 . S
C411 C417 1.491 . S
C412 H403 0.950 . S
C412 C411 1.398 . S
C412 C413 1.391 . S
C413 H401 0.950 . S
C413 C409 1.393 . S
C413 C412 1.391 . S
C414 H404 0.950 . S
C414 C415 1.386 . S
C414 C416 1.391 . S
C415 C414 1.386 . S
C415 C419 1.393 . S
C416 H405 0.950 . S
C416 C414 1.391 . S
C416 C417 1.400 . S
C417 C411 1.491 . S
C417 C416 1.400 . S
C417 C418 1.398 . S
C418 H406 0.950 . S
C418 C417 1.398 . S
C418 C419 1.391 . S
C419 H407 0.950 . S
C419 C415 1.393 . S
C419 C418 1.391 . S
H420 C428 0.950 . S
H421 C433 0.950 . S
H422 C430 0.950 . S
H423 C432 0.950 . S
H424 C434 0.950 . S
H425 C436 0.950 . S
H426 C438 0.950 . S
H427 C439 0.950 . S
C428 H420 0.950 . S
C428 C429 1.386 . S
C428 C430 1.391 . S
C429 C428 1.386 . S
C429 C433 1.393 . S
C430 H422 0.950 . S
C430 C428 1.391 . S
C430 C431 1.400 . S
C431 C430 1.400 . S
C431 C432 1.398 . S
C431 C437 1.491 . S
C432 H423 0.950 . S
C432 C431 1.398 . S
C432 C433 1.391 . S
C433 H421 0.950 . S
C433 C429 1.393 . S
C433 C432 1.391 . S
C434 H424 0.950 . S
C434 C435 1.386 . S
C434 C436 1.391 . S
C435 C434 1.386 . S
C435 C439 1.393 . S
C436 H425 0.950 . S
C436 C434 1.391 . S
C436 C437 1.400 . S
C437 C431 1.491 . S
C437 C436 1.400 . S
C437 C438 1.398 . S
C438 H426 0.950 . S
C438 C437 1.398 . S
C438 C439 1.391 . S
C439 H427 0.950 . S
C439 C435 1.393 . S
C439 C438 1.391 . S
H440 C448 0.950 . S
H441 C453 0.950 . S
H442 C450 0.950 . S
H443 C452 0.950 . S
H444 C454 0.950 1_545 S
H445 C456 0.950 . S
H446 C458 0.950 . S
H447 C459 0.950 . S
C448 H440 0.950 . S
C448 C449 1.386 . S
C448 C450 1.391 . S
C449 C448 1.386 . S
C449 C453 1.393 . S
C450 H442 0.950 . S
C450 C448 1.391 . S
C450 C451 1.400 . S
C451 C450 1.400 . S
C451 C452 1.398 . S
C451 C457 1.491 . S
C452 H443 0.950 . S
C452 C451 1.398 . S
C452 C453 1.391 . S
C453 H441 0.950 . S
C453 C449 1.393 . S
C453 C452 1.391 . S
C454 H444 0.950 1_565 S
C454 C455 1.386 . S
C454 C456 1.391 . S
C455 C454 1.386 . S
C455 C459 1.393 . S
C456 H445 0.950 . S
C456 C454 1.391 . S
C456 C457 1.400 . S
C457 C451 1.491 . S
C457 C456 1.400 . S
C457 C458 1.398 . S
C458 H446 0.950 . S
C458 C457 1.398 . S
C458 C459 1.391 . S
C459 H447 0.950 . S
C459 C455 1.393 . S
C459 C458 1.391 . S
C235 C120 1.662 . S
C229 C43 1.556 . S
C249 C4 1.592 . S
C255 C192 1.641 . S
C269 C17 1.612 . S
C275 C108 1.649 . S
C289 C30 1.643 . S
C295 C204 1.638 . S
C315 C110 1.412 . S
C309 C9 1.583 . S
C335 C191 1.669 . S
C329 C21 1.671 . S
C349 C34 1.620 . S
C355 C107 1.628 . S
C369 C48 1.586 . S
C375 C194 1.403 . S
C395 C206 1.410 . S
C389 C22 1.586 . S
C415 C122 1.389 . S
C409 C35 1.581 1_556 S
C435 C203 1.670 . S
C429 C47 1.661 . S
C449 C8 1.614 . S
C455 C119 1.627 . S
