# Generated by pormake.
# Topology zzz, (3,6)-cn, num edge types: 1
# Building blocks:
#     Node 0, Type 0, BuildingBlock: MIDCAF_clean_linker_0, # of connection points: 3
#     Node 1, Type 0, BuildingBlock: MIDCAF_clean_linker_0, # of connection points: 3
#     Node 2, Type 0, BuildingBlock: MIDCAF_clean_linker_0, # of connection points: 3
#     Node 3, Type 0, BuildingBlock: MIDCAF_clean_linker_0, # of connection points: 3
#     Node 4, Type 0, BuildingBlock: MIDCAF_clean_linker_0, # of connection points: 3
#     Node 5, Type 0, BuildingBlock: MIDCAF_clean_linker_0, # of connection points: 3
#     Node 6, Type 0, BuildingBlock: MIDCAF_clean_linker_0, # of connection points: 3
#     Node 7, Type 0, BuildingBlock: MIDCAF_clean_linker_0, # of connection points: 3
#     Node 8, Type 1, BuildingBlock: JUFBIX_clean_sbu_0, # of connection points: 6
#     Node 9, Type 1, BuildingBlock: JUFBIX_clean_sbu_0, # of connection points: 6
#     Node 10, Type 1, BuildingBlock: JUFBIX_clean_sbu_0, # of connection points: 6
#     Node 11, Type 1, BuildingBlock: JUFBIX_clean_sbu_0, # of connection points: 6
#     Edge 12, Type (0, 1), BuildingBlock: CIFDUS_clean_linker_0, # of connection points: 2
#     Edge 13, Type (0, 1), BuildingBlock: CIFDUS_clean_linker_0, # of connection points: 2
#     Edge 14, Type (0, 1), BuildingBlock: CIFDUS_clean_linker_0, # of connection points: 2
#     Edge 15, Type (0, 1), BuildingBlock: CIFDUS_clean_linker_0, # of connection points: 2
#     Edge 16, Type (0, 1), BuildingBlock: CIFDUS_clean_linker_0, # of connection points: 2
#     Edge 17, Type (0, 1), BuildingBlock: CIFDUS_clean_linker_0, # of connection points: 2
#     Edge 18, Type (0, 1), BuildingBlock: CIFDUS_clean_linker_0, # of connection points: 2
#     Edge 19, Type (0, 1), BuildingBlock: CIFDUS_clean_linker_0, # of connection points: 2
#     Edge 20, Type (0, 1), BuildingBlock: CIFDUS_clean_linker_0, # of connection points: 2
#     Edge 21, Type (0, 1), BuildingBlock: CIFDUS_clean_linker_0, # of connection points: 2
#     Edge 22, Type (0, 1), BuildingBlock: CIFDUS_clean_linker_0, # of connection points: 2
#     Edge 23, Type (0, 1), BuildingBlock: CIFDUS_clean_linker_0, # of connection points: 2
#     Edge 24, Type (0, 1), BuildingBlock: CIFDUS_clean_linker_0, # of connection points: 2
#     Edge 25, Type (0, 1), BuildingBlock: CIFDUS_clean_linker_0, # of connection points: 2
#     Edge 26, Type (0, 1), BuildingBlock: CIFDUS_clean_linker_0, # of connection points: 2
#     Edge 27, Type (0, 1), BuildingBlock: CIFDUS_clean_linker_0, # of connection points: 2
#     Edge 28, Type (0, 1), BuildingBlock: CIFDUS_clean_linker_0, # of connection points: 2
#     Edge 29, Type (0, 1), BuildingBlock: CIFDUS_clean_linker_0, # of connection points: 2
#     Edge 30, Type (0, 1), BuildingBlock: CIFDUS_clean_linker_0, # of connection points: 2
#     Edge 31, Type (0, 1), BuildingBlock: CIFDUS_clean_linker_0, # of connection points: 2
#     Edge 32, Type (0, 1), BuildingBlock: CIFDUS_clean_linker_0, # of connection points: 2
#     Edge 33, Type (0, 1), BuildingBlock: CIFDUS_clean_linker_0, # of connection points: 2
#     Edge 34, Type (0, 1), BuildingBlock: CIFDUS_clean_linker_0, # of connection points: 2
#     Edge 35, Type (0, 1), BuildingBlock: CIFDUS_clean_linker_0, # of connection points: 2
# Relax obj value: 0.288
# Max RMSD: 0.228
# Mean RMSD: 0.188
data_MOF--net-zzz--node1-JUFBIX_clean_sbu_0--node2-MIDCAF_clean_linker_0--edge1-CIFDUS_clean_linker_0
_symmetry_space_group_name_H-M    P1
_symmetry_Int_Tables_number       1
_symmetry_cell_setting            triclinic
loop_
_symmetry_equiv_pos_as_xyz
'x, y, z'
_cell_length_a     51.759038
_cell_length_b     53.243847
_cell_length_c     20.572654
_cell_angle_alpha  82.211013
_cell_angle_beta   90.229387
_cell_angle_gamma 86.292722
loop_
_atom_site_label
_atom_site_type_symbol
_atom_site_fract_x
_atom_site_fract_y
_atom_site_fract_z
_atom_type_partial_charge
C0 C 0.82244 0.57763 0.48654 0.0
C1 C 0.82066 0.55607 0.53371 0.0
C2 C 0.80025 0.54017 0.52736 0.0
C3 C 0.78466 0.54362 0.4705 0.0
H4 H 0.74782 0.50267 0.23033 0.0
H5 H 0.71269 0.49439 0.15847 0.0
H6 H 0.67645 0.5688 0.17321 0.0
H7 H 0.71141 0.57654 0.24738 0.0
H8 H 0.80485 0.53569 0.13122 0.0
H9 H 0.84376 0.53125 0.06624 0.0
H10 H 0.88677 0.56765 0.20332 0.0
H11 H 0.84796 0.57248 0.26786 0.0
H12 H 0.81054 0.59643 0.39188 0.0
H13 H 0.83773 0.59042 0.48893 0.0
H14 H 0.79768 0.52384 0.5637 0.0
H15 H 0.77124 0.52941 0.46337 0.0
N16 N 0.75966 0.55307 0.33178 0.0
N17 N 0.7772 0.54834 0.22812 0.0
N18 N 0.80303 0.56119 0.30884 0.0
C19 C 0.75674 0.54755 0.26934 0.0
C20 C 0.8004 0.55527 0.24752 0.0
C21 C 0.78304 0.56014 0.35124 0.0
C22 C 0.7321 0.54012 0.24453 0.0
C23 C 0.73176 0.51678 0.22027 0.0
C24 C 0.71183 0.51223 0.17843 0.0
C25 C 0.69208 0.53118 0.15878 0.0
C26 C 0.69131 0.55377 0.1875 0.0
C27 C 0.71122 0.5582 0.23019 0.0
C28 C 0.82328 0.55434 0.20491 0.0
C29 C 0.82252 0.54296 0.14724 0.0
C30 C 0.84485 0.54018 0.11036 0.0
C31 C 0.86831 0.54887 0.13021 0.0
C32 C 0.86892 0.56085 0.18679 0.0
C33 C 0.84666 0.56353 0.22382 0.0
C34 C 0.78914 0.56314 0.41967 0.0
C35 C 0.80675 0.58116 0.43042 0.0
C36 C 0.0315 0.82444 0.4499 0.0
C37 C 0.00505 0.82573 0.46531 0.0
C38 C 0.98871 0.81007 0.43599 0.0
C39 C 0.99827 0.79508 0.38891 0.0
H40 H 0.03093 0.70937 0.27576 0.0
H41 H 0.02406 0.67415 0.21246 0.0
H42 H 0.00386 0.7285 0.04158 0.0
H43 H 0.01112 0.76311 0.10383 0.0
H44 H 0.08027 0.78973 0.09436 0.0
H45 H 0.092 0.82324 0.009 0.0
H46 H 0.07227 0.87915 0.13806 0.0
H47 H 0.06217 0.84581 0.22364 0.0
H48 H 0.06117 0.81031 0.39001 0.0
H49 H 0.04478 0.83626 0.47042 0.0
H50 H 0.96831 0.81016 0.44741 0.0
H51 H 0.98492 0.78465 0.36398 0.0
N52 N 0.02425 0.76569 0.2854 0.0
N53 N 0.04744 0.77561 0.18789 0.0
N54 N 0.04917 0.80145 0.27029 0.0
C55 C 0.03171 0.76011 0.2249 0.0
C56 C 0.05634 0.79622 0.2102 0.0
C57 C 0.03336 0.78647 0.30843 0.0
C58 C 0.02168 0.73893 0.19456 0.0
C59 C 0.02431 0.71363 0.22523 0.0
C60 C 0.02052 0.69353 0.18885 0.0
C61 C 0.01405 0.69851 0.12143 0.0
C62 C 0.00954 0.72392 0.09277 0.0
C63 C 0.01345 0.74378 0.12866 0.0
C64 C 0.0696 0.81516 0.16514 0.0
C65 C 0.07923 0.80914 0.10499 0.0
C66 C 0.08582 0.8284 0.05592 0.0
C67 C 0.08237 0.85407 0.06559 0.0
C68 C 0.07535 0.85972 0.12831 0.0
C69 C 0.06926 0.84046 0.17765 0.0
C70 C 0.02432 0.79553 0.37018 0.0
C71 C 0.04096 0.80955 0.40326 0.0
C72 C 0.7011 0.02312 0.39941 0.0
C73 C 0.70389 0.99944 0.4393 0.0
C74 C 0.72461 0.98224 0.42693 0.0
C75 C 0.74048 0.98766 0.37227 0.0
H76 H 0.82341 0.00516 0.24335 0.0
H77 H 0.86626 0.99597 0.19765 0.0
H78 H 0.82956 0.97204 0.02939 0.0
H79 H 0.78736 0.98094 0.0748 0.0
H80 H 0.73221 0.00856 0.02756 0.0
H81 H 0.69557 0.01622 0.95166 0.0
H82 H 0.65751 0.06578 0.07704 0.0
H83 H 0.69371 0.05707 0.15448 0.0
H84 H 0.71295 0.04621 0.31318 0.0
H85 H 0.68537 0.03686 0.40638 0.0
H86 H 0.7277 0.96403 0.45736 0.0
H87 H 0.75486 0.97327 0.36085 0.0
N88 N 0.76957 1.00312 0.24629 0.0
N89 N 0.75895 0.0135 0.13395 0.0
N90 N 0.72899 0.02314 0.21265 0.0
C91 C 0.7763 0.0037 0.18199 0.0
C92 C 0.73536 0.02344 0.14897 0.0
C93 C 0.74572 0.013 0.26155 0.0
C94 C 0.80209 0.99396 0.16235 0.0
C95 C 0.82466 0.99731 0.19749 0.0
C96 C 0.84912 0.99226 0.17107 0.0
C97 C 0.85132 0.98338 0.10972 0.0
C98 C 0.82867 0.97858 0.07699 0.0
C99 C 0.80441 0.98388 0.10284 0.0
C100 C 0.71563 0.03191 0.09738 0.0
C101 C 0.71624 0.02147 0.03826 0.0
C102 C 0.69521 0.02598 0.99456 0.0
C103 C 0.67334 0.04134 0.00864 0.0
C104 C 0.6737 0.0533 0.0655 0.0
C105 C 0.69452 0.04845 0.10968 0.0
C106 C 0.73582 0.01035 0.32924 0.0
C107 C 0.71691 0.0285 0.34538 0.0
C108 C 0.45464 0.66656 0.09574 0.0
C109 C 0.4637 0.67212 0.03154 0.0
C110 C 0.47068 0.69688 0.00934 0.0
C111 C 0.47032 0.71523 0.05192 0.0
H112 H 0.45854 0.81019 0.23093 0.0
H113 H 0.46313 0.85348 0.17732 0.0
H114 H 0.51938 0.82466 0.04595 0.0
H115 H 0.51299 0.78157 0.09647 0.0
H116 H 0.51628 0.72759 0.35432 0.0
H117 H 0.52429 0.69538 0.45019 0.0
H118 H 0.44386 0.67808 0.44693 0.0
H119 H 0.43648 0.70928 0.34943 0.0
H120 H 0.4484 0.67953 0.18851 0.0
H121 H 0.44925 0.64762 0.11433 0.0
H122 H 0.47742 0.70175 0.95972 0.0
H123 H 0.47697 0.73376 0.03411 0.0
N124 N 0.47346 0.7509 0.14648 0.0
N125 N 0.47938 0.75725 0.2566 0.0
N126 N 0.46703 0.718 0.23091 0.0
C127 C 0.47917 0.76635 0.19128 0.0
C128 C 0.47318 0.73292 0.27628 0.0
C129 C 0.46715 0.72674 0.16602 0.0
C130 C 0.48533 0.79266 0.16753 0.0
C131 C 0.4721 0.81333 0.19112 0.0
C132 C 0.47484 0.83816 0.16028 0.0
C133 C 0.49134 0.84284 0.1061 0.0
C134 C 0.50577 0.82201 0.08569 0.0
C135 C 0.50244 0.79725 0.11525 0.0
C136 C 0.47575 0.72091 0.34497 0.0
C137 C 0.50018 0.71753 0.37587 0.0
C138 C 0.50476 0.69893 0.43057 0.0
C139 C 0.48488 0.68359 0.4554 0.0
C140 C 0.45984 0.68892 0.42796 0.0
C141 C 0.45543 0.70711 0.37284 0.0
C142 C 0.46312 0.70909 0.11767 0.0
C143 C 0.45439 0.68484 0.1384 0.0
C144 C 0.18319 0.4885 0.05311 0.0
C145 C 0.17504 0.46593 0.03311 0.0
C146 C 0.18685 0.4426 0.06308 0.0
C147 C 0.2037 0.44179 0.11691 0.0
H148 H 0.2756 0.5035 0.26826 0.0
H149 H 0.31175 0.51359 0.33606 0.0
H150 H 0.30329 0.4443 0.46744 0.0
H151 H 0.26678 0.43474 0.40103 0.0
H152 H 0.19572 0.48061 0.43735 0.0
H153 H 0.15686 0.49089 0.49789 0.0
H154 H 0.10932 0.46791 0.34619 0.0
H155 H 0.14795 0.45728 0.28612 0.0
H156 H 0.20399 0.50519 0.12468 0.0
H157 H 0.17452 0.50689 0.03237 0.0
H158 H 0.18168 0.42484 0.04813 0.0
H159 H 0.21014 0.42351 0.14375 0.0
N160 N 0.23969 0.46507 0.23479 0.0
N161 N 0.22223 0.46579 0.34032 0.0
N162 N 0.19488 0.46354 0.25126 0.0
C163 C 0.2431 0.46567 0.30043 0.0
C164 C 0.19802 0.46486 0.31589 0.0
C165 C 0.21537 0.46342 0.21071 0.0
C166 C 0.26869 0.46827 0.32934 0.0
C167 C 0.28213 0.49007 0.31033 0.0
C168 C 0.3026 0.49591 0.34931 0.0
C169 C 0.31022 0.47971 0.40692 0.0
C170 C 0.29796 0.45697 0.42299 0.0
C171 C 0.27714 0.45148 0.38503 0.0
C172 C 0.17496 0.46822 0.35676 0.0
C173 C 0.17702 0.47742 0.41733 0.0
C174 C 0.15477 0.48359 0.45162 0.0
C175 C 0.1301 0.48049 0.42625 0.0
C176 C 0.12809 0.47045 0.36695 0.0
C177 C 0.15026 0.46442 0.33252 0.0
C178 C 0.20955 0.46428 0.14062 0.0
C179 C 0.20034 0.48763 0.10607 0.0
C180 C 0.012 0.21119 0.13945 0.0
C181 C 0.99143 0.20416 0.10201 0.0
C182 C 0.96667 0.21611 0.10829 0.0
C183 C 0.96207 0.23253 0.15527 0.0
H184 H 0.96652 0.32305 0.28955 0.0
H185 H 0.9695 0.36017 0.34781 0.0
H186 H 0.00839 0.31244 0.51001 0.0
H187 H 0.00503 0.27559 0.45236 0.0
H188 H 0.93465 0.24122 0.48161 0.0
H189 H 0.92318 0.2078 0.56764 0.0
H190 H 0.94384 0.15153 0.44023 0.0
H191 H 0.95375 0.18476 0.35403 0.0
H192 H 0.02308 0.2311 0.21838 0.0
H193 H 0.0313 0.20233 0.13645 0.0
H194 H 0.95045 0.21171 0.07937 0.0
H195 H 0.94236 0.2396 0.16289 0.0
N196 N 0.98331 0.26809 0.27937 0.0
N197 N 0.9649 0.25662 0.38296 0.0
N198 N 0.96244 0.22994 0.3024 0.0
C199 C 0.97777 0.27334 0.34135 0.0
C200 C 0.95706 0.23496 0.36378 0.0
C201 C 0.9754 0.24619 0.25999 0.0
C202 C 0.98569 0.29653 0.36632 0.0
C203 C 0.97652 0.32076 0.33655 0.0
C204 C 0.978 0.34191 0.37024 0.0
C205 C 0.98906 0.33923 0.43379 0.0
C206 C -2e-05 0.31526 0.46105 0.0
C207 C 0.99806 0.29414 0.42802 0.0
C208 C 0.94564 0.2156 0.41152 0.0
C209 C 0.93612 0.22172 0.47166 0.0
C210 C 0.92963 0.20253 0.52104 0.0
C211 C 0.93305 0.17682 0.5117 0.0
C212 C 0.94061 0.17101 0.44952 0.0
C213 C 0.94661 0.19017 0.39991 0.0
C214 C 0.98217 0.23787 0.19622 0.0
C215 C 0.00739 0.2279 0.18613 0.0
C216 C 0.27528 0.03125 0.11895 0.0
C217 C 0.29385 0.0115 0.10992 0.0
C218 C 0.29469 0.98903 0.15469 0.0
C219 C 0.27932 0.98735 0.21041 0.0
H220 H 0.1762 0.02005 0.31441 0.0
H221 H 0.13466 0.03087 0.36442 0.0
H222 H 0.1754 0.06283 0.51433 0.0
H223 H 0.21624 0.05258 0.46404 0.0
H224 H 0.2674 0.02061 0.52144 0.0
H225 H 0.30307 0.01379 0.60004 0.0
H226 H 0.34246 0.96197 0.48279 0.0
H227 H 0.30717 0.96973 0.40246 0.0
H228 H 0.24711 0.04573 0.18332 0.0
H229 H 0.27384 0.04867 0.0848 0.0
H230 H 0.30878 0.97347 0.14987 0.0
H231 H 0.28193 0.97053 0.24652 0.0
N232 N 0.23042 0.02083 0.30382 0.0
N233 N 0.242 0.01504 0.41588 0.0
N234 N 0.27056 1.00032 0.34009 0.0
C235 C 0.22452 0.02359 0.36724 0.0
C236 C 0.26495 1.00329 0.40283 0.0
C237 C 0.25363 0.00905 0.29036 0.0
C238 C 0.1994 0.03522 0.38582 0.0
C239 C 0.17606 0.03015 0.35672 0.0
C240 C 0.15235 0.03611 0.38579 0.0
C241 C 0.15167 0.04743 0.44396 0.0
C242 C 0.17502 0.05433 0.46942 0.0
C243 C 0.19853 0.04826 0.4408 0.0
C244 C 0.28465 0.99601 0.45523 0.0
C245 C 0.28348 0.00745 0.51288 0.0
C246 C 0.30392 0.0034 0.55827 0.0
C247 C 0.32583 0.98754 0.54746 0.0
C248 C 0.32618 0.97479 0.49185 0.0
C249 C 0.3059 0.97914 0.44596 0.0
C250 C 0.26263 0.00799 0.22269 0.0
C251 C 0.2597 0.02947 0.17486 0.0
C252 C 0.54113 0.36701 0.46373 0.0
C253 C 0.5352 0.36066 0.53018 0.0
C254 C 0.53204 0.33516 0.55492 0.0
C255 C 0.53296 0.31661 0.51303 0.0
H256 H 0.52098 0.2449 0.51113 0.0
H257 H 0.51616 0.2019 0.56114 0.0
H258 H 0.50828 0.17826 0.36978 0.0
H259 H 0.51368 0.22201 0.31837 0.0
H260 H 0.47599 0.3053 0.22887 0.0
H261 H 0.46632 0.33751 0.13364 0.0
H262 H 0.54817 0.34695 0.10922 0.0
H263 H 0.55747 0.31555 0.20561 0.0
H264 H 0.54514 0.35424 0.36996 0.0
H265 H 0.54358 0.38657 0.44346 0.0
H266 H 0.52773 0.32978 0.60622 0.0
H267 H 0.52921 0.29734 0.53324 0.0
N268 N 0.52875 0.28031 0.42225 0.0
N269 N 0.51834 0.27218 0.31601 0.0
N270 N 0.5295 0.31285 0.33445 0.0
C271 C 0.52189 0.26375 0.38144 0.0
C272 C 0.52247 0.29683 0.29261 0.0
C273 C 0.53259 0.3048 0.39937 0.0
C274 C 0.51778 0.23712 0.41031 0.0
C275 C 0.51817 0.23075 0.47904 0.0
C276 C 0.51516 0.20597 0.50811 0.0
C277 C 0.51156 0.18661 0.46965 0.0
C278 C 0.51109 0.19277 0.4008 0.0
C279 C 0.51405 0.21783 0.37137 0.0
C280 C 0.51747 0.30781 0.22385 0.0
C281 C 0.49188 0.31349 0.20116 0.0
C282 C 0.48638 0.33211 0.14693 0.0
C283 C 0.50644 0.3453 0.11466 0.0
C284 C 0.53219 0.33768 0.13391 0.0
C285 C 0.53761 0.31936 0.18834 0.0
C286 C 0.53679 0.32327 0.44542 0.0
C287 C 0.54184 0.34849 0.42164 0.0
Co288 Co 0.01436 0.02979 0.81382 0.0
C289 C 0.97379 0.00832 0.88431 0.0
Co290 Co 0.99596 1.00046 0.76526 0.0
C291 C 0.0175 0.07525 0.87826 0.0
C292 C 0.0547 0.0578 0.86003 0.0
N293 N 0.02916 0.05527 0.85288 0.0
N294 N 0.03482 0.09022 0.90064 0.0
C295 C 0.05823 0.07912 0.88922 0.0
H296 H 0.99671 0.07894 0.87914 0.0
H297 H 0.06984 0.04498 0.84473 0.0
C298 C 0.03634 0.02178 0.69424 0.0
N299 N 0.98165 0.97482 0.72589 0.0
C300 C 0.99466 0.95516 0.70242 0.0
C301 C 0.95649 0.97154 0.71485 0.0
N302 N 0.9787 0.93969 0.67718 0.0
C303 C 0.95461 0.95005 0.68482 0.0
C304 C 0.9733 0.04853 0.7295 0.0
O305 O 0.03771 0.03477 0.74164 0.0
O306 O 0.01932 0.00559 0.6952 0.0
O307 O 0.97206 0.02554 0.71964 0.0
O308 O 0.99043 0.05411 0.76861 0.0
O309 O 0.97267 0.99551 0.8365 0.0
H310 H 0.94052 0.9839 0.72808 0.0
H311 H 0.01557 0.95246 0.70319 0.0
O312 O 0.9908 0.02455 0.88439 0.0
O313 O 0.03829 0.00475 0.85925 0.0
O314 O 0.01993 0.9761 0.81089 0.0
C315 C 0.03711 0.98176 0.84969 0.0
H316 H 0.07672 0.08571 0.90171 0.0
H317 H 0.93684 0.94245 0.67075 0.0
Co318 Co 0.4849 0.02207 0.8192 0.0
C319 C 0.49893 0.97127 0.85482 0.0
Co320 Co 0.5119 0.00683 0.74866 0.0
C321 C 0.43712 0.02898 0.8909 0.0
C322 C 0.46422 0.0566 0.90401 0.0
N323 N 0.46118 0.03589 0.87446 0.0
N324 N 0.42494 0.04465 0.92942 0.0
C325 C 0.4422 0.06193 0.93792 0.0
H326 H 0.42858 0.01307 0.87359 0.0
H327 H 0.48126 0.06743 0.90043 0.0
C328 C 0.49754 0.0576 0.71245 0.0
N329 N 0.53596 0.9937 0.6935 0.0
C330 C 0.55864 0.00357 0.67548 0.0
C331 C 0.53573 0.97228 0.66546 0.0
N332 N 0.57281 0.9892 0.63753 0.0
C333 C 0.55829 0.96948 0.63096 0.0
C334 C 0.46124 1.00226 0.71682 0.0
O335 O 0.48448 0.05418 0.76483 0.0
O336 O 0.5115 0.03907 0.69574 0.0
O337 O 0.48425 0.998 0.6979 0.0
O338 O 0.45739 0.01258 0.76844 0.0
O339 O 0.51185 0.97455 0.8021 0.0
H340 H 0.52029 0.95943 0.67031 0.0
H341 H 0.56476 0.02082 0.69133 0.0
O342 O 0.48554 0.98996 0.87275 0.0
O343 O 0.51285 0.0312 0.86948 0.0
O344 O 0.53934 0.01589 0.79973 0.0
C345 C 0.53577 0.0266 0.85065 0.0
H346 H 0.43936 0.07736 0.96684 0.0
H347 H 0.56338 0.95413 0.60296 0.0
Co348 Co 0.51691 0.51871 0.79544 0.0
C349 C 0.49722 0.47887 0.88147 0.0
Co350 Co 0.47634 0.51078 0.77606 0.0
C351 C 0.55931 0.52616 0.87942 0.0
C352 C 0.57099 0.52812 0.77925 0.0
N353 N 0.55033 0.52477 0.81837 0.0
N354 N 0.5848 0.5301 0.88019 0.0
C355 C 0.59223 0.53133 0.81714 0.0
H356 H 0.54744 0.52372 0.92274 0.0
H357 H 0.57065 0.52804 0.7267 0.0
C358 C 0.49597 0.55047 0.68993 0.0
N359 N 0.44273 0.50479 0.75251 0.0
C360 C 0.43505 0.49785 0.69498 0.0
C361 C 0.42059 0.5083 0.78557 0.0
N362 N 0.40914 0.49711 0.69073 0.0
C363 C 0.39987 0.50379 0.74738 0.0
C364 C 0.48007 0.54742 0.85708 0.0
O365 O 0.51659 0.54565 0.72436 0.0
O366 O 0.47674 0.53705 0.70336 0.0
O367 O 0.46362 0.53534 0.8299 0.0
O368 O 0.50404 0.54221 0.84958 0.0
O369 O 0.47626 0.48433 0.84853 0.0
H370 H 0.41949 0.51424 0.83377 0.0
H371 H 0.44807 0.49427 0.65576 0.0
O372 O 0.51671 0.49179 0.86669 0.0
O373 O 0.5298 0.49507 0.74005 0.0
O374 O 0.48958 0.48661 0.72354 0.0
C375 C 0.5136 0.48239 0.71408 0.0
H376 H 0.6116 0.53447 0.79954 0.0
H377 H 0.3796 0.50526 0.76013 0.0
Co378 Co 0.00436 0.5416 0.77809 0.0
C379 C 0.04467 0.50708 0.82876 0.0
Co380 Co 0.9977 0.50124 0.77043 0.0
C381 C 0.01337 0.58458 0.84763 0.0
C382 C 0.00925 0.59521 0.74375 0.0
N383 N 0.00965 0.57495 0.79082 0.0
N384 N 0.01541 0.61002 0.83764 0.0
C385 C 0.01287 0.61667 0.77219 0.0
H386 H 0.01461 0.57315 0.89537 0.0
H387 H 0.00608 0.5945 0.69205 0.0
C388 C 0.95749 0.53622 0.71929 0.0
N389 N 0.99141 0.46811 0.75574 0.0
C390 C 0.00358 0.4537 0.71405 0.0
C391 C 0.9695 0.45642 0.7719 0.0
N392 N 0.98976 0.43404 0.70235 0.0
C393 C 0.9684 0.43563 0.73906 0.0
C394 C 0.97799 0.51597 0.88298 0.0
O395 O 0.97213 0.55264 0.73564 0.0
O396 O 0.96524 0.51285 0.72931 0.0
O397 O 0.98107 0.49675 0.85261 0.0
O398 O 0.98709 0.53677 0.85896 0.0
O399 O 0.03056 0.49015 0.81209 0.0
H400 H 0.95426 0.46367 0.80149 0.0
H401 H 0.02114 0.45866 0.68841 0.0
O402 O 0.0363 0.5303 0.8198 0.0
O403 O 0.02189 0.54583 0.6964 0.0
O404 O 0.01414 0.50635 0.68907 0.0
C405 C 0.02404 0.52672 0.66543 0.0
H406 H 0.01297 0.63582 0.74665 0.0
H407 H 0.95249 0.42336 0.73957 0.0
H408 H 0.11551 0.0125 0.46576 0.0
H409 H 0.13413 0.08595 0.51214 0.0
H410 H 0.09973 0.08479 0.59322 0.0
H411 H 0.06662 0.06126 0.65731 0.0
H412 H 0.0474 0.98844 0.6076 0.0
H413 H 0.07953 0.9912 0.52109 0.0
C414 C 0.11163 0.0286 0.49217 0.0
C415 C 0.12763 0.04915 0.48317 0.0
C416 C 0.09188 0.02779 0.5389 0.0
C417 C 0.12242 0.06967 0.51876 0.0
C418 C 0.10275 0.06903 0.56522 0.0
C419 C 0.0694 0.04608 0.62729 0.0
C420 C 0.05484 0.02456 0.63945 0.0
C421 C 0.08782 0.04786 0.577 0.0
C422 C 0.0584 0.0052 0.5995 0.0
C423 C 0.0768 0.00673 0.54996 0.0
H424 H 0.48361 0.17154 0.5779 0.0
H425 H 0.5341 0.1422 0.43565 0.0
H426 H 0.53367 0.09949 0.49704 0.0
H427 H 0.52098 0.07098 0.59497 0.0
H428 H 0.47131 0.10118 0.73798 0.0
H429 H 0.46982 0.14308 0.67301 0.0
C430 C 0.49457 0.15582 0.56028 0.0
C431 C 0.50906 0.16016 0.5025 0.0
C432 C 0.49462 0.13148 0.59641 0.0
C433 C 0.52264 0.13942 0.47966 0.0
C434 C 0.52259 0.11502 0.51511 0.0
C435 C 0.50979 0.08671 0.61188 0.0
C436 C 0.49641 0.08289 0.67163 0.0
C437 C 0.50899 0.1109 0.57416 0.0
C438 C 0.48188 0.10351 0.69245 0.0
C439 C 0.48098 0.12752 0.65526 0.0
H440 H 0.35397 0.45386 0.46128 0.0
H441 H 0.30654 0.52347 0.46084 0.0
H442 H 0.33288 0.53506 0.54977 0.0
H443 H 0.36828 0.52437 0.63152 0.0
H444 H 0.41766 0.45646 0.62734 0.0
H445 H 0.39184 0.44505 0.53663 0.0
C446 C 0.34967 0.47168 0.4803 0.0
C447 C 0.32841 0.48781 0.4547 0.0
C448 C 0.3651 0.47835 0.53097 0.0
C449 C 0.323 0.5109 0.47941 0.0
C450 C 0.33791 0.51743 0.53056 0.0
C451 C 0.37326 0.50713 0.61045 0.0
C452 C 0.39448 0.49104 0.63615 0.0
C453 C 0.35877 0.50114 0.55736 0.0
C454 C 0.40127 0.46898 0.60809 0.0
C455 C 0.38653 0.46249 0.55644 0.0
H456 H 0.02591 0.35611 0.51094 0.0
H457 H 0.94565 0.36904 0.45103 0.0
H458 H 0.93884 0.39968 0.52841 0.0
H459 H 0.95495 0.42118 0.61756 0.0
H460 H 0.03536 0.41023 0.67512 0.0
H461 H 0.04296 0.38053 0.59451 0.0
C462 C 0.00701 0.36584 0.51447 0.0
C463 C 0.98632 0.36023 0.47509 0.0
C464 C 0.00322 0.38361 0.55916 0.0
C465 C 0.96199 0.37316 0.47998 0.0
C466 C 0.95801 0.39055 0.52472 0.0
C467 C 0.97411 0.41221 0.61248 0.0
C468 C 0.9945 0.41748 0.65298 0.0
C469 C 0.97834 0.39561 0.56529 0.0
C470 C 0.01939 0.4063 0.64472 0.0
C471 C 0.02368 0.38933 0.59872 0.0
H472 H 0.88914 0.01692 0.10095 0.0
H473 H 0.86999 0.94569 0.04116 0.0
H474 H 0.90713 0.94649 0.96832 0.0
H475 H 0.94249 0.96942 0.91389 0.0
H476 H 0.9621 0.04038 0.97453 0.0
H477 H 0.92758 0.03749 0.05534 0.0
C478 C 0.89347 1.00124 0.07333 0.0
C479 C 0.8766 0.98142 0.07597 0.0
C480 C 0.91477 1.00192 0.03104 0.0
C481 C 0.88242 0.96138 0.03925 0.0
C482 C 0.90364 0.96182 0.99754 0.0
C483 C 0.93935 0.98415 0.94517 0.0
C484 C 0.95463 0.00523 0.93758 0.0
C485 C 0.91949 0.98237 0.99159 0.0
C486 C 0.95055 0.02398 0.97914 0.0
C487 C 0.93077 0.02238 0.02531 0.0
H488 H 0.49905 0.85597 0.97453 0.0
H489 H 0.48626 0.88912 0.15315 0.0
H490 H 0.48639 0.93152 0.09116 0.0
H491 H 0.49039 0.95943 0.98584 0.0
H492 H 0.50746 0.92575 0.8103 0.0
H493 H 0.50617 0.88333 0.87208 0.0
C494 C 0.49687 0.87231 1.00069 0.0
C495 C 0.49262 0.86898 0.06895 0.0
C496 C 0.49781 0.89668 0.96515 0.0
C497 C 0.48909 0.89078 0.10069 0.0
C498 C 0.48937 0.91516 0.06528 0.0
C499 C 0.49384 0.94277 0.96125 0.0
C500 C 0.49889 0.94572 0.89352 0.0
C501 C 0.49364 0.91835 0.99743 0.0
C502 C 0.50362 0.92399 0.8624 0.0
C503 C 0.50281 0.89973 0.89766 0.0
H504 H 0.63996 0.54434 0.14488 0.0
H505 H 0.7051 0.51263 0.04563 0.0
H506 H 0.67768 0.50931 0.95137 0.0
H507 H 0.63547 0.51586 0.8958 0.0
H508 H 0.57008 0.54802 0.99254 0.0
H509 H 0.59722 0.55075 0.08866 0.0
C510 C 0.64811 0.53673 0.10259 0.0
C511 C 0.67453 0.5285 0.10291 0.0
C512 C 0.6322 0.53502 0.04784 0.0
C513 C 0.68475 0.51858 0.04763 0.0
C514 C 0.66912 0.51688 0.99326 0.0
C515 C 0.6272 0.52367 0.93765 0.0
C516 C 0.60082 0.53181 0.93679 0.0
C517 C 0.64288 0.52512 0.99267 0.0
C518 C 0.59029 0.54142 0.99209 0.0
C519 C 0.60583 0.54309 0.04699 0.0
H520 H 0.03508 0.69824 0.00123 0.0
H521 H 0.99262 0.65206 0.14661 0.0
H522 H 0.99037 0.61962 0.07284 0.0
H523 H 0.99858 0.60557 0.96359 0.0
H524 H 0.04077 0.65297 0.81989 0.0
H525 H 0.04469 0.6838 0.89597 0.0
C526 C 0.02516 0.68116 0.0168 0.0
C527 C 0.01368 0.67782 0.07908 0.0
C528 C 0.02378 0.66282 0.9741 0.0
C529 C 0.00159 0.65517 0.09898 0.0
C530 C 0.00021 0.63667 0.05664 0.0
C531 C 0.00889 0.6225 0.94935 0.0
C532 C 0.01913 0.62703 0.88561 0.0
C533 C 0.011 0.64041 0.99365 0.0
C534 C 0.03229 0.64919 0.86794 0.0
C535 C 0.03465 0.66681 0.91159 0.0
H536 H 0.91794 0.12823 0.51373 0.0
H537 H 0.94906 0.17866 0.63777 0.0
H538 H 0.9597 0.14303 0.72191 0.0
H539 H 0.96799 0.09742 0.75127 0.0
H540 H 0.94168 0.04613 0.62341 0.0
H541 H 0.92166 0.08215 0.54974 0.0
C542 C 0.92686 0.13149 0.55936 0.0
C543 C 0.93313 0.15618 0.56833 0.0
C544 C 0.93434 0.11065 0.60647 0.0
C545 C 0.94381 0.16005 0.62897 0.0
C546 C 0.9503 0.13956 0.67708 0.0
C547 C 0.95755 0.09403 0.70777 0.0
C548 C 0.95684 0.06922 0.69195 0.0
C549 C 0.94686 0.11475 0.66488 0.0
C550 C 0.94277 0.0651 0.63624 0.0
C551 C 0.93141 0.0857 0.59401 0.0
H552 H 0.37623 0.98621 0.51074 0.0
H553 H 0.3278 0.98653 0.68119 0.0
H554 H 0.36573 0.99045 0.74908 0.0
H555 H 0.41215 0.99643 0.75841 0.0
H556 H 0.46066 0.99427 0.58879 0.0
H557 H 0.42308 0.98774 0.52234 0.0
C558 C 0.37394 0.98645 0.56302 0.0
C559 C 0.3491 0.9863 0.59058 0.0
C560 C 0.39581 0.98849 0.60182 0.0
C561 C 0.34661 0.9871 0.65836 0.0
C562 C 0.36829 0.98925 0.6973 0.0
C563 C 0.4145 0.99438 0.70697 0.0
C564 C 0.43903 0.99613 0.67825 0.0
C565 C 0.39289 0.99049 0.66923 0.0
C566 C 0.44192 0.99306 0.61189 0.0
C567 C 0.42046 0.98939 0.57387 0.0
H568 H 0.56346 0.4009 0.54718 0.0
H569 H 0.49257 0.36589 0.60377 0.0
H570 H 0.47965 0.40071 0.66477 0.0
H571 H 0.48771 0.44145 0.69925 0.0
H572 H 0.55909 0.47639 0.64834 0.0
H573 H 0.57265 0.44129 0.5874 0.0
C574 C 0.54529 0.40093 0.57327 0.0
C575 C 0.52902 0.38088 0.57132 0.0
C576 C 0.53801 0.42102 0.60861 0.0
C577 C 0.50557 0.38096 0.60543 0.0
C578 C 0.49807 0.40094 0.63983 0.0
C579 C 0.5062 0.44147 0.67455 0.0
C580 C 0.52225 0.46156 0.67733 0.0
C581 C 0.514 0.42113 0.64121 0.0
C582 C 0.54639 0.46111 0.64642 0.0
C583 C 0.55411 0.44109 0.61171 0.0
H584 H 0.11972 0.52369 0.48095 0.0
H585 H 0.08747 0.45345 0.44977 0.0
H586 H 0.04929 0.46412 0.51222 0.0
H587 H 0.02729 0.49116 0.58379 0.0
H588 H 0.06033 0.5602 0.62184 0.0
H589 H 0.09568 0.55266 0.5467 0.0
C590 C 0.1043 0.51076 0.48793 0.0
C591 C 0.10649 0.4877 0.46149 0.0
C592 C 0.08252 0.5169 0.52445 0.0
C593 C 0.08618 0.47134 0.46954 0.0
C594 C 0.06439 0.47739 0.50529 0.0
C595 C 0.04199 0.50481 0.57495 0.0
C596 C 0.04141 0.52603 0.60897 0.0
C597 C 0.06263 0.49986 0.53394 0.0
C598 C 0.06036 0.54372 0.5962 0.0
C599 C 0.08072 0.53926 0.55386 0.0
H600 H 0.09637 0.90315 0.06182 0.0
H601 H 0.06482 0.85182 0.941 0.0
H602 H 0.05213 0.88721 0.85792 0.0
H603 H 0.04247 0.9327 0.82898 0.0
H604 H 0.0696 0.98476 0.95362 0.0
H605 H 0.09111 0.9492 0.0259 0.0
C606 C 0.08693 0.89965 0.01709 0.0
C607 C 0.08118 0.87474 0.00882 0.0
C608 C 0.07828 0.92031 0.97065 0.0
C609 C 0.06975 0.87059 0.94926 0.0
C610 C 0.06206 0.89094 0.90177 0.0
C611 C 0.05338 0.93635 0.87148 0.0
C612 C 0.05394 0.96125 0.8868 0.0
C613 C 0.06506 0.91587 0.91353 0.0
C614 C 0.06861 0.96571 0.94121 0.0
C615 C 0.08086 0.94538 0.98264 0.0
H616 H 0.6235 0.04182 0.0504 0.0
H617 H 0.66926 0.04366 0.87482 0.0
H618 H 0.63036 0.04004 0.81022 0.0
H619 H 0.58398 0.03363 0.805 0.0
H620 H 0.53794 0.03372 0.97941 0.0
H621 H 0.57646 0.04006 0.04303 0.0
C622 C 0.62499 0.04213 0.99776 0.0
C623 C 0.64941 0.04277 0.96775 0.0
C624 C 0.60255 0.0403 0.96082 0.0
C625 C 0.65084 0.04268 0.89952 0.0
C626 C 0.6286 0.04072 0.86245 0.0
C627 C 0.58236 0.0352 0.85689 0.0
C628 C 0.5583 0.03288 0.88781 0.0
C629 C 0.60447 0.03897 0.89288 0.0
C630 C 0.55632 0.03538 0.95469 0.0
C631 C 0.57832 0.03892 0.99104 0.0
H632 H 0.43249 0.63431 0.01064 0.0
H633 H 0.50723 0.66307 0.96353 0.0
H634 H 0.51862 0.62693 0.90611 0.0
H635 H 0.50834 0.5866 0.87321 0.0
H636 H 0.43356 0.55739 0.91578 0.0
H637 H 0.42121 0.5942 0.97189 0.0
C638 C 0.45118 0.63266 0.98743 0.0
C639 C 0.46895 0.65139 0.99113 0.0
C640 C 0.4577 0.61168 0.95454 0.0
C641 C 0.49305 0.64916 0.96049 0.0
C642 C 0.49969 0.62837 0.92821 0.0
C643 C 0.48936 0.58815 0.89511 0.0
C644 C 0.47202 0.56915 0.89147 0.0
C645 C 0.48233 0.60942 0.92571 0.0
C646 C 0.44729 0.57174 0.91857 0.0
C647 C 0.44025 0.59276 0.95045 0.0
H648 H 0.8863 0.50634 0.08123 0.0
H649 H 0.90371 0.58371 0.09411 0.0
H650 H 0.94176 0.57889 0.02602 0.0
H651 H 0.96747 0.55415 0.95511 0.0
H652 H 0.94908 0.47737 0.93731 0.0
H653 H 0.91421 0.48037 0.0162 0.0
C654 C 0.89844 0.52212 0.06899 0.0
C655 C 0.89209 0.54542 0.09191 0.0
C656 C 0.92009 0.5193 0.0293 0.0
C657 C 0.90826 0.56557 0.07709 0.0
C658 C 0.92995 0.56286 0.03804 0.0
C659 C 0.95612 0.53789 0.96916 0.0
C660 C 0.96067 0.51566 0.93983 0.0
C661 C 0.93573 0.53998 0.01292 0.0
C662 C 0.94594 0.49472 0.95906 0.0
C663 C 0.92587 0.49649 0.00375 0.0
H664 H 0.03275 0.19212 0.02556 0.0
H665 H 0.95839 0.16684 0.09055 0.0
H666 H 0.96457 0.13024 0.0318 0.0
H667 H 0.99193 0.10392 0.96625 0.0
H668 H 0.06648 0.12883 0.90222 0.0
H669 H 0.05954 0.16644 0.95702 0.0
C670 C 0.01788 0.17863 0.02696 0.0
C671 C 0.99504 0.18257 0.06235 0.0
C672 C 0.02168 0.15722 0.99362 0.0
C673 C 0.97596 0.16481 0.06282 0.0
C674 C 0.97956 0.14362 0.02963 0.0
C675 C 0.00654 0.11768 0.96356 0.0
C676 C 0.02982 0.11321 0.93043 0.0
C677 C 0.00243 0.13948 0.99526 0.0
C678 C 0.04858 0.13133 0.92826 0.0
C679 C 0.04457 0.15303 0.95936 0.0
H680 H 0.31977 0.05411 0.07712 0.0
H681 H 0.31591 0.97735 0.03393 0.0
H682 H 0.35591 0.98113 0.97167 0.0
H683 H 0.39408 0.00481 0.93902 0.0
H684 H 0.39653 0.08222 0.97942 0.0
H685 H 0.35502 0.07943 0.03305 0.0
C686 C 0.32718 0.03841 0.05257 0.0
C687 C 0.31486 0.0154 0.06086 0.0
C688 C 0.35029 0.04061 0.0173 0.0
C689 C 0.32515 0.99518 0.02929 0.0
C690 C 0.34807 0.99731 0.99369 0.0
C691 C 0.3855 0.02126 0.95854 0.0
C692 C 0.3991 0.04349 0.95611 0.0
C693 C 0.36122 0.01971 0.98898 0.0
C694 C 0.38725 0.06452 0.98196 0.0
C695 C 0.36324 0.06307 0.01234 0.0
H696 H 0.53019 0.38961 0.10518 0.0
H697 H 0.46907 0.3538 0.01687 0.0
H698 H 0.45933 0.3927 0.9402 0.0
H699 H 0.46934 0.43659 0.89574 0.0
H700 H 0.53195 0.47092 0.98245 0.0
H701 H 0.53998 0.43286 0.062 0.0
C702 C 0.51497 0.39007 0.06856 0.0
C703 C 0.50064 0.36859 0.06638 0.0
C704 C 0.50964 0.41236 0.0245 0.0
C705 C 0.48043 0.37 0.01981 0.0
C706 C 0.47489 0.39224 0.97585 0.0
C707 C 0.48449 0.43582 0.93265 0.0
C708 C 0.49996 0.45663 0.93332 0.0
C709 C 0.48943 0.41354 0.97759 0.0
C710 C 0.51977 0.45521 0.98083 0.0
C711 C 0.52443 0.43341 0.02626 0.0
H712 H 0.15987 0.50226 0.93027 0.0
H713 H 0.13706 0.43182 0.03735 0.0
H714 H 0.09586 0.43678 0.97827 0.0
H715 H 0.06386 0.46366 0.90531 0.0
H716 H 0.08531 0.53636 0.8095 0.0
H717 H 0.12886 0.52829 0.85617 0.0
C718 C 0.14595 0.48795 0.94107 0.0
C719 C 0.15182 0.46682 0.98898 0.0
C720 C 0.12161 0.49155 0.90956 0.0
C721 C 0.13357 0.44818 1.00029 0.0
C722 C 0.10968 0.45115 0.96709 0.0
C723 C 0.0782 0.47755 0.89431 0.0
C724 C 0.07132 0.50065 0.85459 0.0
C725 C 0.10315 0.47313 0.92301 0.0
C726 C 0.09004 0.51857 0.84075 0.0
C727 C 0.115 0.51394 0.8672 0.0
H728 H 0.02767 0.84189 0.5721 0.0
H729 H 0.95877 0.85433 0.44986 0.0
H730 H 0.94393 0.88973 0.50688 0.0
H731 H 0.95203 0.9195 0.58542 0.0
H732 H 0.0218 0.90817 0.7041 0.0
H733 H 0.03506 0.8707 0.653 0.0
C734 C 0.00941 0.85232 0.55764 0.0
C735 C 0.99451 0.84526 0.50619 0.0
C736 C 0.00129 0.87328 0.58932 0.0
C737 C 0.9706 0.85884 0.48967 0.0
C738 C 0.96219 0.8794 0.52181 0.0
C739 C 0.96999 0.9087 0.60071 0.0
C740 C 0.98595 0.91692 0.64833 0.0
C741 C 0.97759 0.8871 0.57088 0.0
C742 C 0.00931 0.90269 0.66684 0.0
C743 C 0.01684 0.88109 0.63791 0.0
H744 H 0.67604 0.0292 0.51628 0.0
H745 H 0.68434 0.95255 0.46872 0.0
H746 H 0.64552 0.9421 0.53041 0.0
H747 H 0.60681 0.9558 0.5882 0.0
H748 H 0.59641 0.03387 0.62461 0.0
H749 H 0.63805 0.04256 0.5762 0.0
C750 C 0.66942 0.01017 0.51921 0.0
C751 C 0.68315 0.99186 0.48696 0.0
C752 C 0.64634 0.00456 0.55209 0.0
C753 C 0.67453 0.96709 0.49338 0.0
C754 C 0.65202 0.96114 0.52797 0.0
C755 C 0.61345 0.97477 0.58538 0.0
C756 C 0.59804 0.99408 0.61012 0.0
C757 C 0.63734 0.97994 0.55581 0.0
C758 C 0.60759 0.01841 0.60688 0.0
C759 C 0.63151 0.02352 0.57876 0.0
H760 H 0.46516 0.63734 0.45874 0.0
H761 H 0.518 0.67776 0.56253 0.0
H762 H 0.52787 0.63946 0.64094 0.0
H763 H 0.52021 0.59471 0.68236 0.0
H764 H 0.46497 0.5559 0.58166 0.0
H765 H 0.45718 0.59344 0.5 0.0
C766 C 0.47851 0.63803 0.49909 0.0
C767 C 0.49056 0.66063 0.50489 0.0
C768 C 0.48378 0.61612 0.54445 0.0
C769 C 0.50848 0.6607 0.5565 0.0
C770 C 0.51408 0.63879 0.60153 0.0
C771 C 0.50674 0.59443 0.64199 0.0
C772 C 0.49332 0.57251 0.63771 0.0
C773 C 0.50178 0.61639 0.59611 0.0
C774 C 0.47557 0.57252 0.5859 0.0
C775 C 0.47105 0.59399 0.53931 0.0
H776 H 0.85121 0.58611 0.59614 0.0
H777 H 0.84056 0.50763 0.57635 0.0
H778 H 0.88101 0.49467 0.63509 0.0
H779 H 0.92169 0.50568 0.68171 0.0
H780 H 0.93426 0.58426 0.69425 0.0
H781 H 0.89132 0.59704 0.64662 0.0
C782 C 0.85764 0.56615 0.6046 0.0
C783 C 0.84263 0.54803 0.58101 0.0
C784 C 0.88169 0.55881 0.63582 0.0
C785 C 0.85119 0.52216 0.59444 0.0
C786 C 0.87467 0.51467 0.62726 0.0
C787 C 0.91507 0.52562 0.67414 0.0
C788 C 0.93135 0.54399 0.69088 0.0
C789 C 0.89043 0.53287 0.64638 0.0
C790 C 0.92228 0.56972 0.68125 0.0
C791 C 0.89766 0.57704 0.65424 0.0
loop_
_geom_bond_atom_site_label_1
_geom_bond_atom_site_label_2
_geom_bond_distance
_geom_bond_site_symmetry_2
_ccdc_geom_bond_type
C0 C1 1.384 . S
C0 H13 0.947 . S
C0 C35 1.382 . S
C1 C0 1.384 . S
C1 C2 1.378 . S
C2 C1 1.378 . S
C2 C3 1.378 . S
C2 H14 0.952 . S
C3 C2 1.378 . S
C3 H15 0.950 . S
C3 C34 1.383 . S
H4 C23 0.947 . S
H5 C24 0.946 . S
H6 C26 0.953 1_556 S
H7 C27 0.945 . S
H8 C29 0.952 . S
H9 C30 0.949 . S
H10 C32 0.950 . S
H11 C33 0.948 . S
H12 C35 0.951 . S
H13 C0 0.947 . S
H14 C2 0.952 . S
H15 C3 0.950 . S
N16 C19 1.382 . S
N16 C21 1.363 . S
N17 C19 1.371 . S
N17 C20 1.372 . S
N18 C20 1.361 . S
N18 C21 1.377 . S
C19 N16 1.382 . S
C19 N17 1.371 . S
C19 C22 1.480 . S
C20 N17 1.372 . S
C20 N18 1.361 . S
C20 C28 1.457 . S
C21 N16 1.363 . S
C21 N18 1.377 . S
C21 C34 1.479 . S
C22 C19 1.480 . S
C22 C23 1.383 . S
C22 C27 1.385 . S
C23 H4 0.947 . S
C23 C22 1.383 . S
C23 C24 1.388 . S
C24 H5 0.946 . S
C24 C23 1.388 . S
C24 C25 1.384 . S
C25 C24 1.384 . S
C25 C26 1.377 . S
C26 H6 0.953 1_554 S
C26 C25 1.377 . S
C26 C27 1.369 . S
C27 H7 0.945 . S
C27 C22 1.385 . S
C27 C26 1.369 . S
C28 C20 1.457 . S
C28 C29 1.372 1_554 S
C28 C33 1.364 . S
C29 H8 0.952 . S
C29 C28 1.372 1_556 S
C29 C30 1.389 . S
C30 H9 0.949 . S
C30 C29 1.389 . S
C30 C31 1.387 . S
C31 C30 1.387 . S
C31 C32 1.372 1_556 S
C32 H10 0.950 . S
C32 C31 1.372 1_554 S
C32 C33 1.379 . S
C33 H11 0.948 . S
C33 C28 1.364 . S
C33 C32 1.379 . S
C34 C3 1.383 . S
C34 C21 1.479 . S
C34 C35 1.398 . S
C35 C0 1.382 . S
C35 H12 0.951 . S
C35 C34 1.398 . S
C36 C37 1.384 1_655 S
C36 H49 0.947 . S
C36 C71 1.382 1_655 S
C37 C36 1.384 1_455 S
C37 C38 1.378 . S
C38 C37 1.378 . S
C38 C39 1.378 . S
C38 H50 0.952 . S
C39 C38 1.378 . S
C39 H51 0.950 . S
C39 C70 1.383 . S
H40 C59 0.947 . S
H41 C60 0.953 . S
H42 C62 0.953 1_556 S
H43 C63 0.945 . S
H44 C65 0.947 1_655 S
H45 C66 0.957 . S
H46 C68 0.950 . S
H47 C69 0.948 . S
H48 C71 0.951 1_655 S
H49 C36 0.947 . S
H50 C38 0.952 . S
H51 C39 0.950 . S
N52 C55 1.382 . S
N52 C57 1.363 . S
N53 C55 1.371 . S
N53 C56 1.372 . S
N54 C56 1.361 . S
N54 C57 1.377 . S
C55 N52 1.382 . S
C55 N53 1.371 . S
C55 C58 1.480 . S
C56 N53 1.372 . S
C56 N54 1.361 . S
C56 C64 1.457 . S
C57 N52 1.363 . S
C57 N54 1.377 . S
C57 C70 1.479 . S
C58 C55 1.480 . S
C58 C59 1.383 . S
C58 C63 1.385 . S
C59 H40 0.947 . S
C59 C58 1.383 . S
C59 C60 1.384 1_455 S
C60 H41 0.953 . S
C60 C59 1.384 1_655 S
C60 C61 1.382 1_655 S
C61 C60 1.382 1_455 S
C61 C62 1.377 . S
C62 H42 0.953 1_554 S
C62 C61 1.377 . S
C62 C63 1.369 . S
C63 H43 0.945 . S
C63 C58 1.385 . S
C63 C62 1.369 . S
C64 C56 1.457 . S
C64 C65 1.377 1_554 S
C64 C69 1.364 . S
C65 H44 0.947 1_455 S
C65 C64 1.377 1_556 S
C65 C66 1.390 1_455 S
C66 H45 0.957 . S
C66 C65 1.390 1_655 S
C66 C67 1.380 1_655 S
C67 C66 1.380 1_455 S
C67 C68 1.372 . S
C68 H46 0.950 . S
C68 C67 1.372 . S
C68 C69 1.379 1_556 S
C69 H47 0.948 . S
C69 C64 1.364 . S
C69 C68 1.379 1_554 S
C70 C39 1.383 . S
C70 C57 1.479 . S
C70 C71 1.398 . S
C71 C36 1.382 1_455 S
C71 H48 0.951 1_455 S
C71 C70 1.398 . S
C72 C73 1.384 . S
C72 H85 0.947 . S
C72 C107 1.382 . S
C73 C72 1.384 . S
C73 C74 1.378 . S
C74 C73 1.378 . S
C74 C75 1.378 . S
C74 H86 0.952 . S
C75 C74 1.378 . S
C75 H87 0.950 . S
C75 C106 1.383 . S
H76 C95 0.947 . S
H77 C96 0.946 . S
H78 C98 0.953 . S
H79 C99 0.945 1_556 S
H80 C101 0.952 . S
H81 C102 0.949 . S
H82 C104 0.950 . S
H83 C105 0.948 . S
H84 C107 0.951 . S
H85 C72 0.947 . S
H86 C74 0.952 . S
H87 C75 0.950 . S
N88 C91 1.382 . S
N88 C93 1.363 . S
N89 C91 1.371 . S
N89 C92 1.372 . S
N90 C92 1.361 . S
N90 C93 1.377 . S
C91 N88 1.382 . S
C91 N89 1.371 . S
C91 C94 1.480 . S
C92 N89 1.372 . S
C92 N90 1.361 . S
C92 C100 1.457 . S
C93 N88 1.363 . S
C93 N90 1.377 . S
C93 C106 1.479 . S
C94 C91 1.480 . S
C94 C95 1.383 . S
C94 C99 1.385 . S
C95 H76 0.947 . S
C95 C94 1.383 . S
C95 C96 1.388 . S
C96 H77 0.946 . S
C96 C95 1.388 . S
C96 C97 1.384 . S
C97 C96 1.384 . S
C97 C98 1.377 1_554 S
C98 H78 0.953 . S
C98 C97 1.377 1_556 S
C98 C99 1.369 1_556 S
C99 H79 0.945 1_554 S
C99 C94 1.385 . S
C99 C98 1.369 1_554 S
C100 C92 1.457 . S
C100 C101 1.372 1_554 S
C100 C105 1.364 . S
C101 H80 0.952 . S
C101 C100 1.372 1_556 S
C101 C102 1.389 . S
C102 H81 0.949 . S
C102 C101 1.389 . S
C102 C103 1.387 . S
C103 C102 1.387 . S
C103 C104 1.372 . S
C104 H82 0.950 . S
C104 C103 1.372 . S
C104 C105 1.379 1_556 S
C105 H83 0.948 . S
C105 C100 1.364 . S
C105 C104 1.379 1_554 S
C106 C75 1.383 . S
C106 C93 1.479 . S
C106 C107 1.398 . S
C107 C72 1.382 . S
C107 H84 0.951 . S
C107 C106 1.398 . S
C108 C109 1.384 1_554 S
C108 H121 0.947 . S
C108 C143 1.382 . S
C109 C108 1.384 1_556 S
C109 C110 1.378 . S
C110 C109 1.378 . S
C110 C111 1.378 . S
C110 H122 0.952 . S
C111 C110 1.378 . S
C111 H123 0.950 . S
C111 C142 1.383 1_556 S
H112 C131 0.943 1_556 S
H113 C132 0.946 1_556 S
H114 C134 0.953 . S
H115 C135 0.945 . S
H116 C137 0.952 . S
H117 C138 0.949 . S
H118 C140 0.950 . S
H119 C141 0.948 . S
H120 C143 0.951 . S
H121 C108 0.947 . S
H122 C110 0.952 . S
H123 C111 0.950 . S
N124 C127 1.382 . S
N124 C129 1.363 . S
N125 C127 1.371 . S
N125 C128 1.372 . S
N126 C128 1.361 . S
N126 C129 1.377 . S
C127 N124 1.382 . S
C127 N125 1.371 . S
C127 C130 1.480 . S
C128 N125 1.372 . S
C128 N126 1.361 . S
C128 C136 1.457 . S
C129 N124 1.363 . S
C129 N126 1.377 . S
C129 C142 1.479 . S
C130 C127 1.480 . S
C130 C131 1.383 . S
C130 C135 1.385 . S
C131 H112 0.943 1_554 S
C131 C130 1.383 . S
C131 C132 1.388 . S
C132 H113 0.946 1_554 S
C132 C131 1.388 . S
C132 C133 1.384 . S
C133 C132 1.384 . S
C133 C134 1.377 . S
C134 H114 0.953 . S
C134 C133 1.377 . S
C134 C135 1.369 . S
C135 H115 0.945 . S
C135 C130 1.385 . S
C135 C134 1.369 . S
C136 C128 1.457 . S
C136 C137 1.372 . S
C136 C141 1.364 . S
C137 H116 0.952 . S
C137 C136 1.372 . S
C137 C138 1.389 . S
C138 H117 0.949 . S
C138 C137 1.389 . S
C138 C139 1.387 . S
C139 C138 1.387 . S
C139 C140 1.372 . S
C140 H118 0.950 . S
C140 C139 1.372 . S
C140 C141 1.379 . S
C141 H119 0.948 . S
C141 C136 1.364 . S
C141 C140 1.379 . S
C142 C111 1.383 1_554 S
C142 C129 1.479 . S
C142 C143 1.398 . S
C143 C108 1.382 . S
C143 H120 0.951 . S
C143 C142 1.398 . S
C144 C145 1.384 . S
C144 H157 0.947 . S
C144 C179 1.382 . S
C145 C144 1.384 . S
C145 C146 1.378 . S
C146 C145 1.378 . S
C146 C147 1.378 . S
C146 H158 0.952 . S
C147 C146 1.378 . S
C147 H159 0.950 . S
C147 C178 1.383 . S
H148 C167 0.947 . S
H149 C168 0.946 . S
H150 C170 0.953 . S
H151 C171 0.945 . S
H152 C173 0.952 . S
H153 C174 0.949 . S
H154 C176 0.950 . S
H155 C177 0.948 . S
H156 C179 0.951 . S
H157 C144 0.947 . S
H158 C146 0.952 . S
H159 C147 0.950 . S
N160 C163 1.382 . S
N160 C165 1.363 . S
N161 C163 1.371 . S
N161 C164 1.372 . S
N162 C164 1.361 . S
N162 C165 1.377 . S
C163 N160 1.382 . S
C163 N161 1.371 . S
C163 C166 1.480 . S
C164 N161 1.372 . S
C164 N162 1.361 . S
C164 C172 1.457 . S
C165 N160 1.363 . S
C165 N162 1.377 . S
C165 C178 1.479 . S
C166 C163 1.480 . S
C166 C167 1.383 . S
C166 C171 1.385 . S
C167 H148 0.947 . S
C167 C166 1.383 . S
C167 C168 1.388 . S
C168 H149 0.946 . S
C168 C167 1.388 . S
C168 C169 1.384 . S
C169 C168 1.384 . S
C169 C170 1.377 . S
C170 H150 0.953 . S
C170 C169 1.377 . S
C170 C171 1.369 . S
C171 H151 0.945 . S
C171 C166 1.385 . S
C171 C170 1.369 . S
C172 C164 1.457 . S
C172 C173 1.372 . S
C172 C177 1.364 . S
C173 H152 0.952 . S
C173 C172 1.372 . S
C173 C174 1.389 . S
C174 H153 0.949 . S
C174 C173 1.389 . S
C174 C175 1.387 . S
C175 C174 1.387 . S
C175 C176 1.372 . S
C176 H154 0.950 . S
C176 C175 1.372 . S
C176 C177 1.379 . S
C177 H155 0.948 . S
C177 C172 1.364 . S
C177 C176 1.379 . S
C178 C147 1.383 . S
C178 C165 1.479 . S
C178 C179 1.398 . S
C179 C144 1.382 . S
C179 H156 0.951 . S
C179 C178 1.398 . S
C180 C181 1.383 . S
C180 H193 0.948 1_455 S
C180 C215 1.382 . S
C181 C180 1.383 . S
C181 C182 1.378 . S
C182 C181 1.378 . S
C182 C183 1.378 . S
C182 H194 0.952 . S
C183 C182 1.378 . S
C183 H195 0.950 . S
C183 C214 1.383 . S
H184 C203 0.947 . S
H185 C204 0.949 . S
H186 C206 0.953 . S
H187 C207 0.945 . S
H188 C209 0.949 1_655 S
H189 C210 0.954 . S
H190 C212 0.950 . S
H191 C213 0.948 . S
H192 C215 0.950 1_655 S
H193 C180 0.948 1_655 S
H194 C182 0.952 . S
H195 C183 0.950 . S
N196 C199 1.382 . S
N196 C201 1.363 . S
N197 C199 1.371 . S
N197 C200 1.372 . S
N198 C200 1.361 . S
N198 C201 1.377 . S
C199 N196 1.382 . S
C199 N197 1.371 . S
C199 C202 1.480 . S
C200 N197 1.372 . S
C200 N198 1.361 . S
C200 C208 1.457 . S
C201 N196 1.363 . S
C201 N198 1.377 . S
C201 C214 1.479 . S
C202 C199 1.480 . S
C202 C203 1.383 . S
C202 C207 1.385 . S
C203 H184 0.947 . S
C203 C202 1.383 . S
C203 C204 1.388 1_455 S
C204 H185 0.949 . S
C204 C203 1.388 1_655 S
C204 C205 1.382 1_655 S
C205 C204 1.382 1_455 S
C205 C206 1.377 . S
C206 H186 0.953 . S
C206 C205 1.377 . S
C206 C207 1.369 . S
C207 H187 0.945 . S
C207 C202 1.385 . S
C207 C206 1.369 . S
C208 C200 1.457 . S
C208 C209 1.378 . S
C208 C213 1.364 . S
C209 H188 0.949 1_455 S
C209 C208 1.378 . S
C209 C210 1.383 1_455 S
C210 H189 0.954 . S
C210 C209 1.383 1_655 S
C210 C211 1.385 1_655 S
C211 C210 1.385 1_455 S
C211 C212 1.372 . S
C212 H190 0.950 . S
C212 C211 1.372 . S
C212 C213 1.379 . S
C213 H191 0.948 . S
C213 C208 1.364 . S
C213 C212 1.379 . S
C214 C183 1.383 . S
C214 C201 1.479 . S
C214 C215 1.400 . S
C215 C180 1.382 . S
C215 H192 0.950 1_455 S
C215 C214 1.400 . S
C216 C217 1.384 . S
C216 H229 0.947 . S
C216 C251 1.382 . S
C217 C216 1.384 . S
C217 C218 1.378 . S
C218 C217 1.378 . S
C218 C219 1.378 . S
C218 H230 0.952 . S
C219 C218 1.378 . S
C219 H231 0.950 . S
C219 C250 1.383 . S
H220 C239 0.947 . S
H221 C240 0.946 . S
H222 C242 0.953 . S
H223 C243 0.945 . S
H224 C245 0.952 . S
H225 C246 0.949 . S
H226 C248 0.950 . S
H227 C249 0.948 . S
H228 C251 0.951 . S
H229 C216 0.947 . S
H230 C218 0.952 . S
H231 C219 0.950 . S
N232 C235 1.382 . S
N232 C237 1.363 . S
N233 C235 1.371 . S
N233 C236 1.372 . S
N234 C236 1.361 . S
N234 C237 1.377 . S
C235 N232 1.382 . S
C235 N233 1.371 . S
C235 C238 1.480 . S
C236 N233 1.372 . S
C236 N234 1.361 . S
C236 C244 1.457 . S
C237 N232 1.363 . S
C237 N234 1.377 . S
C237 C250 1.479 . S
C238 C235 1.480 . S
C238 C239 1.383 . S
C238 C243 1.385 . S
C239 H220 0.947 . S
C239 C238 1.383 . S
C239 C240 1.388 . S
C240 H221 0.946 . S
C240 C239 1.388 . S
C240 C241 1.384 . S
C241 C240 1.384 . S
C241 C242 1.377 . S
C242 H222 0.953 . S
C242 C241 1.377 . S
C242 C243 1.369 . S
C243 H223 0.945 . S
C243 C238 1.385 . S
C243 C242 1.369 . S
C244 C236 1.457 . S
C244 C245 1.372 . S
C244 C249 1.364 . S
C245 H224 0.952 . S
C245 C244 1.372 . S
C245 C246 1.389 . S
C246 H225 0.949 . S
C246 C245 1.389 . S
C246 C247 1.387 . S
C247 C246 1.387 . S
C247 C248 1.372 . S
C248 H226 0.950 . S
C248 C247 1.372 . S
C248 C249 1.379 . S
C249 H227 0.948 . S
C249 C244 1.364 . S
C249 C248 1.379 . S
C250 C219 1.383 . S
C250 C237 1.479 . S
C250 C251 1.398 . S
C251 C216 1.382 . S
C251 H228 0.951 . S
C251 C250 1.398 . S
C252 C253 1.384 . S
C252 H265 0.947 . S
C252 C287 1.382 . S
C253 C252 1.384 . S
C253 C254 1.378 . S
C254 C253 1.378 . S
C254 C255 1.378 . S
C254 H266 0.952 . S
C255 C254 1.378 . S
C255 H267 0.950 . S
C255 C286 1.383 . S
H256 C275 0.947 . S
H257 C276 0.946 . S
H258 C278 0.953 . S
H259 C279 0.945 . S
H260 C281 0.952 . S
H261 C282 0.949 . S
H262 C284 0.950 . S
H263 C285 0.948 . S
H264 C287 0.951 . S
H265 C252 0.947 . S
H266 C254 0.952 . S
H267 C255 0.950 . S
N268 C271 1.382 . S
N268 C273 1.363 . S
N269 C271 1.371 . S
N269 C272 1.372 . S
N270 C272 1.361 . S
N270 C273 1.377 . S
C271 N268 1.382 . S
C271 N269 1.371 . S
C271 C274 1.480 . S
C272 N269 1.372 . S
C272 N270 1.361 . S
C272 C280 1.457 . S
C273 N268 1.363 . S
C273 N270 1.377 . S
C273 C286 1.479 . S
C274 C271 1.480 . S
C274 C275 1.383 . S
C274 C279 1.385 . S
C275 H256 0.947 . S
C275 C274 1.383 . S
C275 C276 1.388 . S
C276 H257 0.946 . S
C276 C275 1.388 . S
C276 C277 1.384 . S
C277 C276 1.384 . S
C277 C278 1.377 . S
C278 H258 0.953 . S
C278 C277 1.377 . S
C278 C279 1.369 . S
C279 H259 0.945 . S
C279 C274 1.385 . S
C279 C278 1.369 . S
C280 C272 1.457 . S
C280 C281 1.372 . S
C280 C285 1.364 . S
C281 H260 0.952 . S
C281 C280 1.372 . S
C281 C282 1.389 . S
C282 H261 0.949 . S
C282 C281 1.389 . S
C282 C283 1.387 . S
C283 C282 1.387 . S
C283 C284 1.372 . S
C284 H262 0.950 . S
C284 C283 1.372 . S
C284 C285 1.379 . S
C285 H263 0.948 . S
C285 C280 1.364 . S
C285 C284 1.379 . S
C286 C255 1.383 . S
C286 C273 1.479 . S
C286 C287 1.398 . S
C287 C252 1.382 . S
C287 H264 0.951 . S
C287 C286 1.398 . S
Co288 N293 2.057 . S
Co288 O305 2.021 . S
Co288 O308 2.062 1_455 S
Co288 O312 2.117 1_455 S
Co288 O313 2.020 1_545 S
C289 O309 1.259 1_545 S
C289 O312 1.258 . S
Co290 N299 2.082 . S
Co290 O306 2.107 1_665 S
Co290 O307 1.984 1_565 S
Co290 O309 2.026 . S
Co290 O314 2.089 1_655 S
C291 N293 1.316 . S
C291 N294 1.347 . S
C291 H296 0.931 . S
C292 N293 1.375 1_655 S
C292 C295 1.350 . S
C292 H297 0.930 . S
N293 Co288 2.057 . S
N293 C291 1.316 . S
N293 C292 1.375 1_455 S
N294 C291 1.347 . S
N294 C295 1.373 1_455 S
C295 C292 1.350 . S
C295 N294 1.373 1_655 S
C295 H316 0.931 1_556 S
H296 C291 0.931 . S
H297 C292 0.930 . S
C298 O305 1.259 . S
C298 O306 1.258 . S
N299 Co290 2.082 . S
N299 C300 1.316 . S
N299 C301 1.375 1_655 S
C300 N299 1.316 . S
C300 N302 1.347 . S
C300 H311 0.931 . S
C301 N299 1.375 1_455 S
C301 C303 1.350 . S
C301 H310 0.930 . S
N302 C300 1.347 . S
N302 C303 1.373 1_655 S
C303 C301 1.350 . S
C303 N302 1.373 1_455 S
C303 H317 0.931 . S
C304 O307 1.256 . S
C304 O308 1.255 . S
O305 Co288 2.021 . S
O305 C298 1.259 . S
O306 Co290 2.107 1_445 S
O306 C298 1.258 . S
O307 Co290 1.984 1_545 S
O307 C304 1.256 . S
O308 Co288 2.062 1_655 S
O308 C304 1.255 . S
O309 C289 1.259 1_565 S
O309 Co290 2.026 . S
H310 C301 0.930 . S
H311 C300 0.931 . S
O312 Co288 2.117 1_655 S
O312 C289 1.258 . S
O313 Co288 2.020 1_565 S
O313 C315 1.256 . S
O314 Co290 2.089 1_455 S
O314 C315 1.255 . S
C315 O313 1.256 . S
C315 O314 1.255 . S
H316 C295 0.931 1_554 S
H317 C303 0.931 . S
Co318 N323 2.057 . S
Co318 O335 2.021 . S
Co318 O338 2.062 . S
Co318 O342 2.117 1_545 S
Co318 O343 2.020 . S
C319 O339 1.259 . S
C319 O342 1.258 . S
Co320 N329 2.056 1_545 S
Co320 O336 2.117 . S
Co320 O337 2.020 . S
Co320 O339 2.021 1_545 S
Co320 O344 2.062 1_545 S
C321 N323 1.316 . S
C321 N324 1.347 . S
C321 H326 0.931 . S
C322 N323 1.375 . S
C322 C325 1.350 1_556 S
C322 H327 0.930 1_545 S
N323 Co318 2.057 . S
N323 C321 1.316 . S
N323 C322 1.375 . S
N324 C321 1.347 . S
N324 C325 1.373 1_556 S
C325 C322 1.350 1_554 S
C325 N324 1.373 1_554 S
C325 H346 0.931 . S
H326 C321 0.931 . S
H327 C322 0.930 1_565 S
C328 O335 1.259 . S
C328 O336 1.258 . S
N329 Co320 2.056 1_565 S
N329 C330 1.325 . S
N329 C331 1.367 1_565 S
C330 N329 1.325 . S
C330 N332 1.347 . S
C330 H341 0.931 . S
C331 N329 1.367 1_545 S
C331 C333 1.350 . S
C331 H340 0.930 . S
N332 C330 1.347 . S
N332 C333 1.373 1_565 S
C333 C331 1.350 . S
C333 N332 1.373 1_545 S
C333 H347 0.931 . S
C334 O337 1.256 . S
C334 O338 1.255 . S
O335 Co318 2.021 . S
O335 C328 1.259 . S
O336 Co320 2.117 . S
O336 C328 1.258 . S
O337 Co320 2.020 . S
O337 C334 1.256 . S
O338 Co318 2.062 . S
O338 C334 1.255 . S
O339 C319 1.259 . S
O339 Co320 2.021 1_565 S
H340 C331 0.930 . S
H341 C330 0.931 . S
O342 Co318 2.117 1_565 S
O342 C319 1.258 . S
O343 Co318 2.020 . S
O343 C345 1.256 . S
O344 Co320 2.062 1_565 S
O344 C345 1.255 1_565 S
C345 O343 1.256 . S
C345 O344 1.255 1_545 S
H346 C325 0.931 . S
H347 C333 0.931 . S
Co348 N353 2.057 . S
Co348 O365 2.021 . S
Co348 O368 2.062 . S
Co348 O372 2.117 . S
Co348 O373 2.020 . S
C349 O369 1.259 . S
C349 O372 1.258 . S
Co350 N359 2.057 . S
Co350 O366 2.117 . S
Co350 O367 2.020 . S
Co350 O369 2.021 . S
Co350 O374 2.062 . S
C351 N353 1.316 . S
C351 N354 1.347 . S
C351 H356 0.931 . S
C352 N353 1.375 . S
C352 C355 1.350 . S
C352 H357 0.930 . S
N353 Co348 2.057 . S
N353 C351 1.316 . S
N353 C352 1.375 . S
N354 C351 1.347 . S
N354 C355 1.373 . S
C355 C352 1.350 . S
C355 N354 1.373 . S
C355 H376 0.931 . S
H356 C351 0.931 . S
H357 C352 0.930 . S
C358 O365 1.259 . S
C358 O366 1.258 . S
N359 Co350 2.057 . S
N359 C360 1.316 . S
N359 C361 1.375 . S
C360 N359 1.316 . S
C360 N362 1.347 . S
C360 H371 0.931 . S
C361 N359 1.375 . S
C361 C363 1.350 . S
C361 H370 0.930 . S
N362 C360 1.347 . S
N362 C363 1.373 . S
C363 C361 1.350 . S
C363 N362 1.373 . S
C363 H377 0.931 . S
C364 O367 1.256 . S
C364 O368 1.255 . S
O365 Co348 2.021 . S
O365 C358 1.259 . S
O366 Co350 2.117 . S
O366 C358 1.258 . S
O367 Co350 2.020 . S
O367 C364 1.256 . S
O368 Co348 2.062 . S
O368 C364 1.255 . S
O369 C349 1.259 . S
O369 Co350 2.021 . S
H370 C361 0.930 . S
H371 C360 0.931 . S
O372 Co348 2.117 . S
O372 C349 1.258 . S
O373 Co348 2.020 . S
O373 C375 1.256 . S
O374 Co350 2.062 . S
O374 C375 1.255 . S
C375 O373 1.256 . S
C375 O374 1.255 . S
H376 C355 0.931 . S
H377 C363 0.931 . S
Co378 N383 2.057 . S
Co378 O395 2.021 1_455 S
Co378 O398 2.062 1_455 S
Co378 O402 2.117 . S
Co378 O403 2.020 . S
C379 O399 1.259 . S
C379 O402 1.258 . S
Co380 N389 2.057 . S
Co380 O396 2.117 . S
Co380 O397 2.020 . S
Co380 O399 2.021 1_655 S
Co380 O404 2.062 1_655 S
C381 N383 1.316 . S
C381 N384 1.347 . S
C381 H386 0.931 1_455 S
C382 N383 1.375 . S
C382 C385 1.350 . S
C382 H387 0.930 . S
N383 Co378 2.057 . S
N383 C381 1.316 . S
N383 C382 1.375 . S
N384 C381 1.347 . S
N384 C385 1.373 . S
C385 C382 1.350 . S
C385 N384 1.373 . S
C385 H406 0.931 . S
H386 C381 0.931 1_655 S
H387 C382 0.930 . S
C388 O395 1.259 . S
C388 O396 1.258 . S
N389 Co380 2.057 . S
N389 C390 1.316 . S
N389 C391 1.375 . S
C390 N389 1.316 . S
C390 N392 1.347 . S
C390 H401 0.931 1_655 S
C391 N389 1.375 . S
C391 C393 1.350 . S
C391 H400 0.930 . S
N392 C390 1.347 . S
N392 C393 1.373 . S
C393 C391 1.350 . S
C393 N392 1.373 . S
C393 H407 0.931 . S
C394 O397 1.256 . S
C394 O398 1.255 . S
O395 Co378 2.021 1_655 S
O395 C388 1.259 . S
O396 Co380 2.117 . S
O396 C388 1.258 . S
O397 Co380 2.020 . S
O397 C394 1.256 . S
O398 Co378 2.062 1_655 S
O398 C394 1.255 . S
O399 C379 1.259 . S
O399 Co380 2.021 1_455 S
H400 C391 0.930 . S
H401 C390 0.931 1_455 S
O402 Co378 2.117 . S
O402 C379 1.258 . S
O403 Co378 2.020 . S
O403 C405 1.256 . S
O404 Co380 2.062 1_455 S
O404 C405 1.255 . S
C405 O403 1.256 . S
C405 O404 1.255 . S
H406 C385 0.931 . S
H407 C393 0.931 . S
H408 C414 0.930 . S
H409 C417 0.930 . S
H410 C418 0.930 . S
H411 C419 0.930 . S
H412 C422 0.930 1_565 S
H413 C423 0.930 . S
C414 H408 0.930 . S
C414 C415 1.355 . S
C414 C416 1.415 . S
C415 C414 1.355 . S
C415 C417 1.419 . S
C416 C414 1.415 . S
C416 C421 1.425 . S
C416 C423 1.409 . S
C417 H409 0.930 . S
C417 C415 1.419 . S
C417 C418 1.362 . S
C418 H410 0.930 . S
C418 C417 1.362 . S
C418 C421 1.409 . S
C419 H411 0.930 . S
C419 C420 1.355 . S
C419 C421 1.415 . S
C420 C419 1.355 . S
C420 C422 1.419 . S
C421 C416 1.425 . S
C421 C418 1.409 . S
C421 C419 1.415 . S
C422 H412 0.930 1_545 S
C422 C420 1.419 . S
C422 C423 1.362 . S
C423 H413 0.930 . S
C423 C416 1.409 . S
C423 C422 1.362 . S
H424 C430 0.930 . S
H425 C433 0.930 . S
H426 C434 0.930 . S
H427 C435 0.930 . S
H428 C438 0.930 . S
H429 C439 0.930 . S
C430 H424 0.930 . S
C430 C431 1.355 . S
C430 C432 1.415 . S
C431 C430 1.355 . S
C431 C433 1.419 . S
C432 C430 1.415 . S
C432 C437 1.425 . S
C432 C439 1.409 . S
C433 H425 0.930 . S
C433 C431 1.419 . S
C433 C434 1.362 . S
C434 H426 0.930 . S
C434 C433 1.362 . S
C434 C437 1.409 . S
C435 H427 0.930 . S
C435 C436 1.355 . S
C435 C437 1.415 . S
C436 C435 1.355 . S
C436 C438 1.419 . S
C437 C432 1.425 . S
C437 C434 1.409 . S
C437 C435 1.415 . S
C438 H428 0.930 . S
C438 C436 1.419 . S
C438 C439 1.362 . S
C439 H429 0.930 . S
C439 C432 1.409 . S
C439 C438 1.362 . S
H440 C446 0.930 . S
H441 C449 0.930 . S
H442 C450 0.930 . S
H443 C451 0.930 . S
H444 C454 0.930 . S
H445 C455 0.930 . S
C446 H440 0.930 . S
C446 C447 1.355 . S
C446 C448 1.415 . S
C447 C446 1.355 . S
C447 C449 1.419 . S
C448 C446 1.415 . S
C448 C453 1.425 . S
C448 C455 1.409 . S
C449 H441 0.930 . S
C449 C447 1.419 . S
C449 C450 1.362 . S
C450 H442 0.930 . S
C450 C449 1.362 . S
C450 C453 1.409 . S
C451 H443 0.930 . S
C451 C452 1.355 . S
C451 C453 1.415 . S
C452 C451 1.355 . S
C452 C454 1.419 . S
C453 C448 1.425 . S
C453 C450 1.409 . S
C453 C451 1.415 . S
C454 H444 0.930 . S
C454 C452 1.419 . S
C454 C455 1.362 . S
C455 H445 0.930 . S
C455 C448 1.409 . S
C455 C454 1.362 . S
H456 C462 0.930 . S
H457 C465 0.930 . S
H458 C466 0.930 . S
H459 C467 0.930 . S
H460 C470 0.930 . S
H461 C471 0.930 . S
C462 H456 0.930 . S
C462 C463 1.355 1_455 S
C462 C464 1.415 1_455 S
C463 C462 1.355 1_655 S
C463 C465 1.419 . S
C464 C462 1.415 1_655 S
C464 C469 1.425 . S
C464 C471 1.409 1_655 S
C465 H457 0.930 . S
C465 C463 1.419 . S
C465 C466 1.362 . S
C466 H458 0.930 . S
C466 C465 1.362 . S
C466 C469 1.409 . S
C467 H459 0.930 . S
C467 C468 1.355 . S
C467 C469 1.415 . S
C468 C467 1.355 . S
C468 C470 1.419 1_655 S
C469 C464 1.425 . S
C469 C466 1.409 . S
C469 C467 1.415 . S
C470 H460 0.930 . S
C470 C468 1.419 1_455 S
C470 C471 1.362 . S
C471 H461 0.930 . S
C471 C464 1.409 1_455 S
C471 C470 1.362 . S
H472 C478 0.930 1_554 S
H473 C481 0.930 . S
H474 C482 0.930 . S
H475 C483 0.930 . S
H476 C486 0.930 . S
H477 C487 0.930 . S
C478 H472 0.930 1_556 S
C478 C479 1.355 . S
C478 C480 1.415 . S
C479 C478 1.355 . S
C479 C481 1.419 . S
C480 C478 1.415 . S
C480 C485 1.425 . S
C480 C487 1.409 1_565 S
C481 H473 0.930 . S
C481 C479 1.419 . S
C481 C482 1.362 . S
C482 H474 0.930 . S
C482 C481 1.362 . S
C482 C485 1.409 . S
C483 H475 0.930 . S
C483 C484 1.355 . S
C483 C485 1.415 . S
C484 C483 1.355 . S
C484 C486 1.419 1_565 S
C485 C480 1.425 . S
C485 C482 1.409 . S
C485 C483 1.415 . S
C486 H476 0.930 . S
C486 C484 1.419 1_545 S
C486 C487 1.362 . S
C487 H477 0.930 . S
C487 C480 1.409 1_545 S
C487 C486 1.362 . S
H488 C494 0.930 . S
H489 C497 0.930 . S
H490 C498 0.930 . S
H491 C499 0.930 . S
H492 C502 0.930 . S
H493 C503 0.930 . S
C494 H488 0.930 . S
C494 C495 1.355 . S
C494 C496 1.415 1_554 S
C495 C494 1.355 . S
C495 C497 1.419 1_554 S
C496 C494 1.415 1_556 S
C496 C501 1.425 . S
C496 C503 1.409 . S
C497 H489 0.930 . S
C497 C495 1.419 1_556 S
C497 C498 1.362 . S
C498 H490 0.930 . S
C498 C497 1.362 . S
C498 C501 1.409 . S
C499 H491 0.930 . S
C499 C500 1.355 . S
C499 C501 1.415 . S
C500 C499 1.355 . S
C500 C502 1.419 . S
C501 C496 1.425 . S
C501 C498 1.409 . S
C501 C499 1.415 . S
C502 H492 0.930 . S
C502 C500 1.419 . S
C502 C503 1.362 . S
C503 H493 0.930 . S
C503 C496 1.409 . S
C503 C502 1.362 . S
H504 C510 0.930 . S
H505 C513 0.930 . S
H506 C514 0.930 . S
H507 C515 0.930 . S
H508 C518 0.930 . S
H509 C519 0.930 . S
C510 H504 0.930 . S
C510 C511 1.355 1_556 S
C510 C512 1.415 . S
C511 C510 1.355 1_554 S
C511 C513 1.419 . S
C512 C510 1.415 . S
C512 C517 1.425 . S
C512 C519 1.409 . S
C513 H505 0.930 . S
C513 C511 1.419 . S
C513 C514 1.362 . S
C514 H506 0.930 . S
C514 C513 1.362 . S
C514 C517 1.409 1_554 S
C515 H507 0.930 . S
C515 C516 1.355 . S
C515 C517 1.415 . S
C516 C515 1.355 . S
C516 C518 1.419 . S
C517 C512 1.425 . S
C517 C514 1.409 1_556 S
C517 C515 1.415 . S
C518 H508 0.930 . S
C518 C516 1.419 . S
C518 C519 1.362 . S
C519 H509 0.930 . S
C519 C512 1.409 . S
C519 C518 1.362 . S
H520 C526 0.930 . S
H521 C529 0.930 . S
H522 C530 0.930 . S
H523 C531 0.930 . S
H524 C534 0.930 . S
H525 C535 0.930 . S
C526 H520 0.930 . S
C526 C527 1.330 1_455 S
C526 C528 1.415 1_554 S
C527 C526 1.330 1_655 S
C527 C529 1.446 . S
C528 C526 1.415 1_556 S
C528 C533 1.425 1_455 S
C528 C535 1.409 . S
C529 H521 0.930 . S
C529 C527 1.446 . S
C529 C530 1.362 1_554 S
C530 H522 0.930 . S
C530 C529 1.362 1_556 S
C530 C533 1.409 . S
C531 H523 0.930 . S
C531 C532 1.355 1_655 S
C531 C533 1.415 . S
C532 C531 1.355 1_455 S
C532 C534 1.419 . S
C533 C528 1.425 1_655 S
C533 C530 1.409 . S
C533 C531 1.415 . S
C534 H524 0.930 . S
C534 C532 1.419 . S
C534 C535 1.362 . S
C535 H525 0.930 . S
C535 C528 1.409 . S
C535 C534 1.362 . S
H536 C542 0.930 . S
H537 C545 0.930 . S
H538 C546 0.930 . S
H539 C547 0.930 . S
H540 C550 0.930 . S
H541 C551 0.930 . S
C542 H536 0.930 . S
C542 C543 1.355 1_655 S
C542 C544 1.415 . S
C543 C542 1.355 1_455 S
C543 C545 1.419 . S
C544 C542 1.415 . S
C544 C549 1.425 . S
C544 C551 1.409 . S
C545 H537 0.930 . S
C545 C543 1.419 . S
C545 C546 1.362 . S
C546 H538 0.930 . S
C546 C545 1.362 . S
C546 C549 1.409 1_455 S
C547 H539 0.930 . S
C547 C548 1.355 . S
C547 C549 1.415 . S
C548 C547 1.355 . S
C548 C550 1.419 . S
C549 C544 1.425 . S
C549 C546 1.409 1_655 S
C549 C547 1.415 . S
C550 H540 0.930 . S
C550 C548 1.419 . S
C550 C551 1.362 . S
C551 H541 0.930 . S
C551 C544 1.409 . S
C551 C550 1.362 . S
H552 C558 0.930 . S
H553 C561 0.930 . S
H554 C562 0.930 . S
H555 C563 0.930 . S
H556 C566 0.930 . S
H557 C567 0.930 . S
C558 H552 0.930 . S
C558 C559 1.355 . S
C558 C560 1.415 . S
C559 C558 1.355 . S
C559 C561 1.419 . S
C560 C558 1.415 . S
C560 C565 1.425 . S
C560 C567 1.409 . S
C561 H553 0.930 . S
C561 C559 1.419 . S
C561 C562 1.362 . S
C562 H554 0.930 . S
C562 C561 1.362 . S
C562 C565 1.409 . S
C563 H555 0.930 . S
C563 C564 1.355 . S
C563 C565 1.415 . S
C564 C563 1.355 . S
C564 C566 1.419 . S
C565 C560 1.425 . S
C565 C562 1.409 . S
C565 C563 1.415 . S
C566 H556 0.930 . S
C566 C564 1.419 . S
C566 C567 1.362 . S
C567 H557 0.930 . S
C567 C560 1.409 . S
C567 C566 1.362 . S
H568 C574 0.930 . S
H569 C577 0.930 . S
H570 C578 0.930 . S
H571 C579 0.930 . S
H572 C582 0.930 . S
H573 C583 0.930 . S
C574 H568 0.930 . S
C574 C575 1.355 . S
C574 C576 1.415 . S
C575 C574 1.355 . S
C575 C577 1.419 . S
C576 C574 1.415 . S
C576 C581 1.425 . S
C576 C583 1.409 . S
C577 H569 0.930 . S
C577 C575 1.419 . S
C577 C578 1.362 . S
C578 H570 0.930 . S
C578 C577 1.362 . S
C578 C581 1.409 . S
C579 H571 0.930 . S
C579 C580 1.355 . S
C579 C581 1.415 . S
C580 C579 1.355 . S
C580 C582 1.419 . S
C581 C576 1.425 . S
C581 C578 1.409 . S
C581 C579 1.415 . S
C582 H572 0.930 . S
C582 C580 1.419 . S
C582 C583 1.362 . S
C583 H573 0.930 . S
C583 C576 1.409 . S
C583 C582 1.362 . S
H584 C590 0.930 . S
H585 C593 0.930 . S
H586 C594 0.930 . S
H587 C595 0.930 . S
H588 C598 0.930 . S
H589 C599 0.930 . S
C590 H584 0.930 . S
C590 C591 1.355 . S
C590 C592 1.415 . S
C591 C590 1.355 . S
C591 C593 1.419 . S
C592 C590 1.415 . S
C592 C597 1.425 . S
C592 C599 1.409 . S
C593 H585 0.930 . S
C593 C591 1.419 . S
C593 C594 1.362 . S
C594 H586 0.930 . S
C594 C593 1.362 . S
C594 C597 1.409 . S
C595 H587 0.930 . S
C595 C596 1.355 . S
C595 C597 1.415 . S
C596 C595 1.355 . S
C596 C598 1.419 . S
C597 C592 1.425 . S
C597 C594 1.409 . S
C597 C595 1.415 . S
C598 H588 0.930 . S
C598 C596 1.419 . S
C598 C599 1.362 . S
C599 H589 0.930 . S
C599 C592 1.409 . S
C599 C598 1.362 . S
H600 C606 0.930 . S
H601 C609 0.930 . S
H602 C610 0.930 . S
H603 C611 0.930 . S
H604 C614 0.930 . S
H605 C615 0.930 . S
C606 H600 0.930 . S
C606 C607 1.355 . S
C606 C608 1.415 . S
C607 C606 1.355 . S
C607 C609 1.419 1_655 S
C608 C606 1.415 . S
C608 C613 1.425 1_655 S
C608 C615 1.409 . S
C609 H601 0.930 . S
C609 C607 1.419 1_455 S
C609 C610 1.362 . S
C610 H602 0.930 . S
C610 C609 1.362 . S
C610 C613 1.409 . S
C611 H603 0.930 . S
C611 C612 1.355 . S
C611 C613 1.415 . S
C612 C611 1.355 . S
C612 C614 1.419 1_455 S
C613 C608 1.425 1_455 S
C613 C610 1.409 . S
C613 C611 1.415 . S
C614 H604 0.930 . S
C614 C612 1.419 1_655 S
C614 C615 1.362 . S
C615 H605 0.930 . S
C615 C608 1.409 . S
C615 C614 1.362 . S
H616 C622 0.930 . S
H617 C625 0.930 . S
H618 C626 0.930 1_545 S
H619 C627 0.930 . S
H620 C630 0.930 . S
H621 C631 0.930 . S
C622 H616 0.930 . S
C622 C623 1.355 . S
C622 C624 1.415 . S
C623 C622 1.355 . S
C623 C625 1.419 . S
C624 C622 1.415 . S
C624 C629 1.425 . S
C624 C631 1.409 . S
C625 H617 0.930 . S
C625 C623 1.419 . S
C625 C626 1.362 . S
C626 H618 0.930 1_565 S
C626 C625 1.362 . S
C626 C629 1.409 . S
C627 H619 0.930 . S
C627 C628 1.355 1_545 S
C627 C629 1.415 1_545 S
C628 C627 1.355 1_565 S
C628 C630 1.419 . S
C629 C624 1.425 . S
C629 C626 1.409 . S
C629 C627 1.415 1_565 S
C630 H620 0.930 . S
C630 C628 1.419 . S
C630 C631 1.362 . S
C631 H621 0.930 . S
C631 C624 1.409 . S
C631 C630 1.362 . S
H632 C638 0.930 . S
H633 C641 0.930 . S
H634 C642 0.930 . S
H635 C643 0.930 . S
H636 C646 0.930 . S
H637 C647 0.930 . S
C638 H632 0.930 . S
C638 C639 1.355 . S
C638 C640 1.415 . S
C639 C638 1.355 . S
C639 C641 1.419 . S
C640 C638 1.415 . S
C640 C645 1.425 . S
C640 C647 1.409 . S
C641 H633 0.930 . S
C641 C639 1.419 . S
C641 C642 1.362 . S
C642 H634 0.930 . S
C642 C641 1.362 . S
C642 C645 1.409 . S
C643 H635 0.930 . S
C643 C644 1.355 . S
C643 C645 1.415 . S
C644 C643 1.355 . S
C644 C646 1.419 . S
C645 C640 1.425 . S
C645 C642 1.409 . S
C645 C643 1.415 . S
C646 H636 0.930 . S
C646 C644 1.419 . S
C646 C647 1.362 . S
C647 H637 0.930 . S
C647 C640 1.409 . S
C647 C646 1.362 . S
H648 C654 0.933 . S
H649 C657 0.930 . S
H650 C658 0.930 . S
H651 C659 0.930 . S
H652 C662 0.930 . S
H653 C663 0.930 1_554 S
C654 H648 0.933 . S
C654 C655 1.355 . S
C654 C656 1.415 . S
C655 C654 1.355 . S
C655 C657 1.419 . S
C656 C654 1.415 . S
C656 C661 1.425 . S
C656 C663 1.409 . S
C657 H649 0.930 . S
C657 C655 1.419 . S
C657 C658 1.362 . S
C658 H650 0.930 . S
C658 C657 1.362 . S
C658 C661 1.409 . S
C659 H651 0.930 . S
C659 C660 1.355 . S
C659 C661 1.415 . S
C660 C659 1.355 . S
C660 C662 1.419 . S
C661 C656 1.425 . S
C661 C658 1.409 . S
C661 C659 1.415 . S
C662 H652 0.930 . S
C662 C660 1.419 . S
C662 C663 1.362 . S
C663 H653 0.930 1_556 S
C663 C656 1.409 . S
C663 C662 1.362 . S
H664 C670 0.930 . S
H665 C673 0.930 . S
H666 C674 0.930 . S
H667 C675 0.930 . S
H668 C678 0.930 . S
H669 C679 0.930 . S
C670 H664 0.930 . S
C670 C671 1.340 1_455 S
C670 C672 1.415 . S
C671 C670 1.340 1_655 S
C671 C673 1.436 . S
C672 C670 1.415 . S
C672 C677 1.425 1_455 S
C672 C679 1.409 . S
C673 H665 0.930 . S
C673 C671 1.436 . S
C673 C674 1.362 . S
C674 H666 0.930 . S
C674 C673 1.362 . S
C674 C677 1.409 . S
C675 H667 0.930 . S
C675 C676 1.355 1_655 S
C675 C677 1.415 . S
C676 C675 1.355 1_455 S
C676 C678 1.419 1_554 S
C677 C672 1.425 1_655 S
C677 C674 1.409 . S
C677 C675 1.415 . S
C678 H668 0.930 . S
C678 C676 1.419 1_556 S
C678 C679 1.362 1_556 S
C679 H669 0.930 . S
C679 C672 1.409 . S
C679 C678 1.362 1_554 S
H680 C686 0.930 . S
H681 C689 0.930 . S
H682 C690 0.930 1_556 S
H683 C691 0.930 1_556 S
H684 C694 0.930 . S
H685 C695 0.930 . S
C686 H680 0.930 . S
C686 C687 1.355 . S
C686 C688 1.415 . S
C687 C686 1.355 . S
C687 C689 1.419 . S
C688 C686 1.415 . S
C688 C693 1.425 . S
C688 C695 1.409 . S
C689 H681 0.930 . S
C689 C687 1.419 . S
C689 C690 1.362 . S
C690 H682 0.930 1_554 S
C690 C689 1.362 . S
C690 C693 1.409 . S
C691 H683 0.930 1_554 S
C691 C692 1.355 . S
C691 C693 1.415 . S
C692 C691 1.355 . S
C692 C694 1.419 . S
C693 C688 1.425 . S
C693 C690 1.409 . S
C693 C691 1.415 . S
C694 H684 0.930 . S
C694 C692 1.419 . S
C694 C695 1.362 . S
C695 H685 0.930 . S
C695 C688 1.409 . S
C695 C694 1.362 . S
H696 C702 0.930 . S
H697 C705 0.930 . S
H698 C706 0.930 . S
H699 C707 0.930 . S
H700 C710 0.930 . S
H701 C711 0.930 . S
C702 H696 0.930 . S
C702 C703 1.355 . S
C702 C704 1.415 . S
C703 C702 1.355 . S
C703 C705 1.419 . S
C704 C702 1.415 . S
C704 C709 1.425 1_554 S
C704 C711 1.409 . S
C705 H697 0.930 . S
C705 C703 1.419 . S
C705 C706 1.362 1_554 S
C706 H698 0.930 . S
C706 C705 1.362 1_556 S
C706 C709 1.409 . S
C707 H699 0.930 . S
C707 C708 1.355 . S
C707 C709 1.415 . S
C708 C707 1.355 . S
C708 C710 1.419 1_556 S
C709 C704 1.425 1_556 S
C709 C706 1.409 . S
C709 C707 1.415 . S
C710 H700 0.930 . S
C710 C708 1.419 1_554 S
C710 C711 1.362 . S
C711 H701 0.930 . S
C711 C704 1.409 . S
C711 C710 1.362 . S
H712 C718 0.930 . S
H713 C721 0.930 . S
H714 C722 0.930 . S
H715 C723 0.930 . S
H716 C726 0.930 . S
H717 C727 0.930 . S
C718 H712 0.930 . S
C718 C719 1.355 . S
C718 C720 1.415 . S
C719 C718 1.355 . S
C719 C721 1.419 . S
C720 C718 1.415 . S
C720 C725 1.425 . S
C720 C727 1.409 . S
C721 H713 0.930 . S
C721 C719 1.419 . S
C721 C722 1.362 . S
C722 H714 0.930 . S
C722 C721 1.362 . S
C722 C725 1.409 . S
C723 H715 0.930 . S
C723 C724 1.355 . S
C723 C725 1.415 1_556 S
C724 C723 1.355 . S
C724 C726 1.419 . S
C725 C720 1.425 . S
C725 C722 1.409 . S
C725 C723 1.415 1_554 S
C726 H716 0.930 . S
C726 C724 1.419 . S
C726 C727 1.362 1_556 S
C727 H717 0.930 . S
C727 C720 1.409 . S
C727 C726 1.362 1_554 S
H728 C734 0.930 . S
H729 C737 0.930 . S
H730 C738 0.930 . S
H731 C739 0.930 . S
H732 C742 0.930 . S
H733 C743 0.930 . S
C734 H728 0.930 . S
C734 C735 1.355 1_455 S
C734 C736 1.415 . S
C735 C734 1.355 1_655 S
C735 C737 1.419 . S
C736 C734 1.415 . S
C736 C741 1.425 1_455 S
C736 C743 1.409 . S
C737 H729 0.930 . S
C737 C735 1.419 . S
C737 C738 1.362 . S
C738 H730 0.930 . S
C738 C737 1.362 . S
C738 C741 1.409 . S
C739 H731 0.930 . S
C739 C740 1.355 . S
C739 C741 1.415 . S
C740 C739 1.355 . S
C740 C742 1.419 1_655 S
C741 C736 1.425 1_655 S
C741 C738 1.409 . S
C741 C739 1.415 . S
C742 H732 0.930 . S
C742 C740 1.419 1_455 S
C742 C743 1.362 . S
C743 H733 0.930 . S
C743 C736 1.409 . S
C743 C742 1.362 . S
H744 C750 0.930 . S
H745 C753 0.930 . S
H746 C754 0.930 . S
H747 C755 0.930 . S
H748 C758 0.930 . S
H749 C759 0.930 . S
C750 H744 0.930 . S
C750 C751 1.355 . S
C750 C752 1.415 . S
C751 C750 1.355 . S
C751 C753 1.419 . S
C752 C750 1.415 . S
C752 C757 1.425 . S
C752 C759 1.409 . S
C753 H745 0.930 . S
C753 C751 1.419 . S
C753 C754 1.362 . S
C754 H746 0.930 . S
C754 C753 1.362 . S
C754 C757 1.409 . S
C755 H747 0.930 . S
C755 C756 1.355 . S
C755 C757 1.415 . S
C756 C755 1.355 . S
C756 C758 1.419 . S
C757 C752 1.425 . S
C757 C754 1.409 . S
C757 C755 1.415 . S
C758 H748 0.930 . S
C758 C756 1.419 . S
C758 C759 1.362 . S
C759 H749 0.930 . S
C759 C752 1.409 . S
C759 C758 1.362 . S
H760 C766 0.930 . S
H761 C769 0.930 . S
H762 C770 0.930 . S
H763 C771 0.930 . S
H764 C774 0.930 . S
H765 C775 0.930 . S
C766 H760 0.930 . S
C766 C767 1.355 . S
C766 C768 1.415 . S
C767 C766 1.355 . S
C767 C769 1.419 . S
C768 C766 1.415 . S
C768 C773 1.425 . S
C768 C775 1.409 . S
C769 H761 0.930 . S
C769 C767 1.419 . S
C769 C770 1.362 . S
C770 H762 0.930 . S
C770 C769 1.362 . S
C770 C773 1.409 . S
C771 H763 0.930 . S
C771 C772 1.355 . S
C771 C773 1.415 . S
C772 C771 1.355 . S
C772 C774 1.419 . S
C773 C768 1.425 . S
C773 C770 1.409 . S
C773 C771 1.415 . S
C774 H764 0.930 . S
C774 C772 1.419 . S
C774 C775 1.362 . S
C775 H765 0.930 . S
C775 C768 1.409 . S
C775 C774 1.362 . S
H776 C782 0.930 . S
H777 C785 0.930 . S
H778 C786 0.930 . S
H779 C787 0.930 . S
H780 C790 0.930 . S
H781 C791 0.930 . S
C782 H776 0.930 . S
C782 C783 1.355 . S
C782 C784 1.415 . S
C783 C782 1.355 . S
C783 C785 1.419 . S
C784 C782 1.415 . S
C784 C789 1.425 . S
C784 C791 1.409 . S
C785 H777 0.930 . S
C785 C783 1.419 . S
C785 C786 1.362 . S
C786 H778 0.930 . S
C786 C785 1.362 . S
C786 C789 1.409 . S
C787 H779 0.930 . S
C787 C788 1.355 . S
C787 C789 1.415 . S
C788 C787 1.355 . S
C788 C790 1.419 . S
C789 C784 1.425 . S
C789 C786 1.409 . S
C789 C787 1.415 . S
C790 H780 0.930 . S
C790 C788 1.419 . S
C790 C791 1.362 . S
C791 H781 0.930 . S
C791 C784 1.409 . S
C791 C790 1.362 . S
C415 C241 1.897 . S
C420 C298 1.916 . S
C436 C328 1.772 . S
C431 C277 1.763 . S
C452 N362 1.759 . S
C447 C169 1.729 . S
C468 N392 1.453 . S
C463 C205 1.479 1_655 S
C484 C289 1.901 1_565 S
C479 C97 1.819 1_556 S
C495 C133 1.754 . S
C500 C319 1.765 . S
C511 C25 1.695 . S
C516 N354 1.816 . S
C527 C61 1.424 1_655 S
C532 N384 1.376 . S
C548 C304 0.470 . S
C543 C211 0.469 . S
C564 C334 0.819 . S
C559 C247 0.767 . S
C580 C375 0.767 . S
C575 C253 0.762 . S
C591 C175 0.879 . S
C596 C405 0.890 . S
C607 C67 0.662 1_655 S
C612 C315 0.472 . S
C628 C345 0.853 1_565 S
C623 C103 0.803 . S
C644 C364 0.744 . S
C639 C109 0.699 . S
C655 C31 0.908 . S
C660 C394 0.907 . S
C671 C181 1.661 1_655 S
C676 N294 1.757 1_554 S
C687 C217 1.840 . S
C692 N324 1.866 1_554 S
C708 C349 1.948 . S
C703 C283 1.869 . S
C724 C379 2.160 . S
C719 C145 2.069 . S
C735 C37 1.682 1_655 S
C740 N302 1.704 . S
C756 N332 1.852 . S
C751 C73 1.759 . S
C772 C358 1.950 . S
C767 C139 1.846 . S
C783 C1 1.992 . S
C788 C388 2.149 . S
