# Generated by pormake.
# Topology anh, (6,3)-cn, num edge types: 1
# Building blocks:
#     Node 0, Type 0, BuildingBlock: MIFKUJ_clean_sbu_0, # of connection points: 6
#     Node 1, Type 0, BuildingBlock: MIFKUJ_clean_sbu_0, # of connection points: 6
#     Node 2, Type 0, BuildingBlock: MIFKUJ_clean_sbu_0, # of connection points: 6
#     Node 3, Type 1, BuildingBlock: INOVEN_clean_linker_0, # of connection points: 3
#     Node 4, Type 1, BuildingBlock: INOVEN_clean_linker_0, # of connection points: 3
#     Node 5, Type 1, BuildingBlock: INOVEN_clean_linker_0, # of connection points: 3
#     Node 6, Type 1, BuildingBlock: INOVEN_clean_linker_0, # of connection points: 3
#     Node 7, Type 1, BuildingBlock: INOVEN_clean_linker_0, # of connection points: 3
#     Node 8, Type 1, BuildingBlock: INOVEN_clean_linker_0, # of connection points: 3
#     Edge 9, Type (0, 1), BuildingBlock: KIFKEQ_clean_linker_1, # of connection points: 2
#     Edge 10, Type (0, 1), BuildingBlock: KIFKEQ_clean_linker_1, # of connection points: 2
#     Edge 11, Type (0, 1), BuildingBlock: KIFKEQ_clean_linker_1, # of connection points: 2
#     Edge 12, Type (0, 1), BuildingBlock: KIFKEQ_clean_linker_1, # of connection points: 2
#     Edge 13, Type (0, 1), BuildingBlock: KIFKEQ_clean_linker_1, # of connection points: 2
#     Edge 14, Type (0, 1), BuildingBlock: KIFKEQ_clean_linker_1, # of connection points: 2
#     Edge 15, Type (0, 1), BuildingBlock: KIFKEQ_clean_linker_1, # of connection points: 2
#     Edge 16, Type (0, 1), BuildingBlock: KIFKEQ_clean_linker_1, # of connection points: 2
#     Edge 17, Type (0, 1), BuildingBlock: KIFKEQ_clean_linker_1, # of connection points: 2
#     Edge 18, Type (0, 1), BuildingBlock: KIFKEQ_clean_linker_1, # of connection points: 2
#     Edge 19, Type (0, 1), BuildingBlock: KIFKEQ_clean_linker_1, # of connection points: 2
#     Edge 20, Type (0, 1), BuildingBlock: KIFKEQ_clean_linker_1, # of connection points: 2
#     Edge 21, Type (0, 1), BuildingBlock: KIFKEQ_clean_linker_1, # of connection points: 2
#     Edge 22, Type (0, 1), BuildingBlock: KIFKEQ_clean_linker_1, # of connection points: 2
#     Edge 23, Type (0, 1), BuildingBlock: KIFKEQ_clean_linker_1, # of connection points: 2
#     Edge 24, Type (0, 1), BuildingBlock: KIFKEQ_clean_linker_1, # of connection points: 2
#     Edge 25, Type (0, 1), BuildingBlock: KIFKEQ_clean_linker_1, # of connection points: 2
#     Edge 26, Type (0, 1), BuildingBlock: KIFKEQ_clean_linker_1, # of connection points: 2
# Relax obj value: 0.067
# Max RMSD: 0.134
# Mean RMSD: 0.093
data_MOF--net-anh--node1-MIFKUJ_clean_sbu_0--node2-INOVEN_clean_linker_0--edge1-KIFKEQ_clean_linker_1
_symmetry_space_group_name_H-M    P1
_symmetry_Int_Tables_number       1
_symmetry_cell_setting            triclinic
loop_
_symmetry_equiv_pos_as_xyz
'x, y, z'
_cell_length_a     32.433588
_cell_length_b     32.36533
_cell_length_c     47.591969
_cell_angle_alpha  96.286836
_cell_angle_beta   93.238042
_cell_angle_gamma 120.38477
loop_
_atom_site_label
_atom_site_type_symbol
_atom_site_fract_x
_atom_site_fract_y
_atom_site_fract_z
_atom_type_partial_charge
Zn0 Zn 0.07579 0.61191 0.1641 0.0
Zn1 Zn 0.92532 0.51425 0.16455 0.0
C2 C 0.15447 0.59872 0.17293 0.0
O3 O 0.16346 0.63085 0.19542 0.0
C4 C 0.87282 0.56382 0.16053 0.0
O5 O 0.90368 0.58581 0.1428 0.0
O6 O 0.11037 0.68157 0.15835 0.0
O7 O 0.0106 0.57124 0.14329 0.0
O8 O 0.9379 0.52165 0.12334 0.0
C9 C 0.13646 0.69459 0.13837 0.0
O10 O 0.13697 0.66131 0.12017 0.0
O11 O 0.11703 0.58371 0.15528 0.0
C12 C 0.87193 0.42677 0.18689 0.0
O13 O 0.8706 0.45679 0.20724 0.0
O14 O 0.8949 0.44342 0.16621 0.0
O15 O 0.98621 0.5545 0.19446 0.0
O16 O 0.06456 0.60722 0.20487 0.0
O17 O 0.87599 0.53261 0.17301 0.0
C18 C 0.9814 0.55086 0.12067 0.0
C19 C 0.02386 0.5794 0.21285 0.0
Zn20 Zn 0.54169 0.09711 0.50062 0.0
Zn21 Zn 0.50154 0.96529 0.49508 0.0
C22 C 0.63969 0.16829 0.51335 0.0
O23 O 0.62065 0.17819 0.53481 0.0
C24 C 0.40822 0.88136 0.475 0.0
O25 O 0.43391 0.87237 0.4577 0.0
O26 O 0.52768 0.15031 0.49879 0.0
O27 O 0.4966 0.04666 0.46725 0.0
O28 O 0.52241 0.99594 0.46002 0.0
C29 C 0.53957 0.1702 0.47663 0.0
O30 O 0.55789 0.15383 0.45761 0.0
O31 O 0.61263 0.13047 0.49495 0.0
C32 C 0.50575 0.88844 0.51264 0.0
O33 O 0.47563 0.89156 0.52885 0.0
O34 O 0.52518 0.91923 0.49602 0.0
O35 O 0.52247 0.00484 0.53418 0.0
O36 O 0.5359 0.07977 0.54019 0.0
O37 O 0.4285 0.922 0.4915 0.0
C38 C 0.51023 0.0239 0.45063 0.0
C39 C 0.53253 0.04356 0.55028 0.0
Zn40 Zn 0.60023 0.49646 0.82727 0.0
Zn41 Zn 0.51042 0.54644 0.82297 0.0
C42 C 0.57751 0.40947 0.85157 0.0
O43 O 0.59913 0.44037 0.87535 0.0
C44 C 0.54465 0.64231 0.81538 0.0
O45 O 0.52409 0.61742 0.7898 0.0
O46 O 0.67091 0.52286 0.82573 0.0
O47 O 0.57643 0.50434 0.78977 0.0
O48 O 0.52667 0.53196 0.78436 0.0
C49 C 0.6835 0.4976 0.81025 0.0
O50 O 0.65022 0.45523 0.7959 0.0
O51 O 0.57145 0.42495 0.82915 0.0
C52 C 0.40741 0.49391 0.82822 0.0
O53 O 0.41689 0.46551 0.84143 0.0
O54 O 0.44095 0.52828 0.81797 0.0
O55 O 0.51821 0.51095 0.85338 0.0
O56 O 0.5937 0.53073 0.86308 0.0
O57 O 0.54606 0.61971 0.83535 0.0
C58 C 0.55211 0.51589 0.77413 0.0
C59 C 0.55621 0.52905 0.871 0.0
H60 H 0.47876 0.02888 0.15711 0.0
H61 H 0.40737 0.97893 0.23059 0.0
H62 H 0.55963 0.08046 0.24103 0.0
N63 N 0.56654 0.08829 0.18575 0.0
N64 N 0.60702 0.10392 0.19928 0.0
C65 C 0.48007 0.02925 0.17995 0.0
C66 C 0.43777 0.00078 0.19183 0.0
C67 C 0.52418 0.05799 0.19759 0.0
C68 C 0.52569 0.05825 0.22723 0.0
C69 C 0.48376 0.02996 0.23925 0.0
C70 C 0.4399 0.00138 0.22144 0.0
H71 H 0.58375 0.53136 0.48748 0.0
H72 H 0.60137 0.4625 0.55577 0.0
H73 H 0.60347 0.59613 0.57481 0.0
N74 N 0.58587 0.60436 0.52065 0.0
N75 N 0.57738 0.62969 0.53823 0.0
C76 C 0.59123 0.53192 0.51005 0.0
C77 C 0.59418 0.49382 0.51944 0.0
C78 C 0.59492 0.56919 0.52997 0.0
C79 C 0.60232 0.56833 0.5593 0.0
C80 C 0.60414 0.52982 0.56884 0.0
C81 C 0.60098 0.49308 0.54872 0.0
H82 H 0.04676 0.56212 0.83564 0.0
H83 H 0.98602 0.58317 0.91035 0.0
H84 H 0.11001 0.56889 0.91923 0.0
N85 N 0.11507 0.55357 0.86311 0.0
N86 N 0.14445 0.54872 0.87834 0.0
C87 C 0.04738 0.56696 0.85858 0.0
C88 C 0.01291 0.5748 0.87089 0.0
C89 C 0.08235 0.5645 0.87585 0.0
C90 C 0.08309 0.57054 0.90567 0.0
C91 C 0.0487 0.57764 0.91823 0.0
C92 C 0.01398 0.57997 0.90073 0.0
H93 H 0.05608 0.55811 0.50384 0.0
H94 H 0.09965 0.62947 0.43056 0.0
H95 H 0.96728 0.49302 0.4221 0.0
N96 N 0.97312 0.48043 0.47692 0.0
N97 N 0.93703 0.44579 0.46148 0.0
C98 C 0.04923 0.55906 0.48144 0.0
C99 C 0.08213 0.59885 0.46912 0.0
C100 C 0.0073 0.5205 0.46459 0.0
C101 C -0.00061 0.52214 0.43534 0.0
C102 C 0.03227 0.56136 0.42295 0.0
C103 C 0.0733 0.59951 0.44007 0.0
H104 H 0.57348 0.06592 0.84643 0.0
H105 H 0.55752 0.1162 0.76874 0.0
H106 H 0.56315 0.98622 0.76489 0.0
N107 N 0.57419 0.98769 0.82112 0.0
N108 N 0.59602 0.96865 0.81028 0.0
C109 C 0.569 0.06131 0.82336 0.0
C110 C 0.56599 0.09606 0.80936 0.0
C111 C 0.56907 0.02204 0.80735 0.0
C112 C 0.56407 0.01686 0.77733 0.0
C113 C 0.55882 0.05009 0.76327 0.0
C114 C 0.56007 0.08953 0.77948 0.0
H115 H 0.53054 0.56193 0.16399 0.0
H116 H 0.60729 0.56954 0.09198 0.0
H117 H 0.46434 0.545 0.07897 0.0
N118 N 0.45154 0.54989 0.13446 0.0
N119 N 0.41704 0.54482 0.11834 0.0
C120 C 0.53188 0.56033 0.14122 0.0
C121 C 0.57351 0.56674 0.12999 0.0
C122 C 0.49231 0.55285 0.12295 0.0
C123 C 0.49445 0.55053 0.09334 0.0
C124 C 0.53582 0.55684 0.08209 0.0
C125 C 0.57528 0.56523 0.10057 0.0
H126 H 0.24193 0.63131 0.20349 0.0
H127 H 0.14515 0.5299 0.13002 0.0
H128 H 0.30227 0.61098 0.19191 0.0
H129 H 0.2049 0.50823 0.11898 0.0
H130 H 0.34697 0.54068 0.08559 0.0
H131 H 0.27939 0.54702 0.10032 0.0
H132 H 0.32686 0.55233 0.18814 0.0
H133 H 0.39565 0.54771 0.17308 0.0
C134 C 0.23324 0.6041 0.1851 0.0
C135 C 0.18903 0.58273 0.16742 0.0
C136 C 0.26773 0.59211 0.1786 0.0
C137 C 0.25866 0.55824 0.15437 0.0
C138 C 0.21346 0.53518 0.13748 0.0
C139 C 0.17911 0.54744 0.14387 0.0
C140 C 0.34238 0.54267 0.10797 0.0
C141 C 0.37623 0.54398 0.12812 0.0
C142 C 0.30358 0.54593 0.11646 0.0
C143 C 0.29756 0.55014 0.14545 0.0
C144 C 0.3308 0.54978 0.16568 0.0
C145 C 0.37001 0.54688 0.1571 0.0
H146 H 0.69003 0.16396 0.46968 0.0
H147 H 0.7018 0.2557 0.54655 0.0
H148 H 0.76738 0.2286 0.45948 0.0
H149 H 0.77794 0.3207 0.53587 0.0
H150 H 0.92918 0.42512 0.51614 0.0
H151 H 0.86159 0.3535 0.53074 0.0
H152 H 0.79358 0.3035 0.44323 0.0
H153 H 0.86142 0.37389 0.42902 0.0
C154 C 0.70928 0.19769 0.48454 0.0
C155 C 0.68939 0.20469 0.50877 0.0
C156 C 0.75352 0.23498 0.47861 0.0
C157 C 0.77877 0.28034 0.49662 0.0
C158 C 0.75993 0.28633 0.52159 0.0
C159 C 0.71591 0.24898 0.52761 0.0
C160 C 0.8999 0.3984 0.50015 0.0
C161 C 0.90015 0.40459 0.47137 0.0
C162 C 0.86108 0.3575 0.50845 0.0
C163 C 0.82205 0.32232 0.48814 0.0
C164 C 0.82323 0.32891 0.45942 0.0
C165 C 0.86181 0.36941 0.45124 0.0
H166 H 0.55209 0.69978 0.865 0.0
H167 H 0.57543 0.70316 0.77667 0.0
H168 H 0.57165 0.78457 0.87028 0.0
H169 H 0.5948 0.78667 0.78183 0.0
H170 H 0.65919 0.94358 0.79819 0.0
H171 H 0.65594 0.86853 0.80551 0.0
H172 H 0.53256 0.82923 0.8506 0.0
H173 H 0.53701 0.90553 0.8438 0.0
C174 C 0.5623 0.71889 0.84693 0.0
C175 C 0.56232 0.69492 0.82041 0.0
C176 C 0.57308 0.76719 0.84988 0.0
C177 C 0.58501 0.79247 0.82652 0.0
C178 C 0.58653 0.76868 0.8004 0.0
C179 C 0.57514 0.7206 0.79737 0.0
C180 C 0.63238 0.91948 0.81042 0.0
C181 C 0.59852 0.93015 0.82035 0.0
C182 C 0.63022 0.87642 0.81445 0.0
C183 C 0.59346 0.84248 0.82819 0.0
C184 C 0.56145 0.85472 0.84004 0.0
C185 C 0.56393 0.89833 0.83615 0.0
H186 H 0.80459 0.5272 0.19684 0.0
H187 H 0.84874 0.61815 0.13137 0.0
H188 H 0.73362 0.53487 0.19896 0.0
H189 H 0.77763 0.62474 0.13293 0.0
H190 H 0.65986 0.64988 0.14432 0.0
H191 H 0.73618 0.656 0.1597 0.0
H192 H 0.65897 0.50403 0.16796 0.0
H193 H 0.5828 0.49885 0.1535 0.0
C194 C 0.7994 0.54918 0.18309 0.0
C195 C 0.83222 0.57191 0.16384 0.0
C196 C 0.75867 0.55345 0.18426 0.0
C197 C 0.74988 0.58048 0.16618 0.0
C198 C 0.78364 0.60445 0.14762 0.0
C199 C 0.82434 0.60033 0.14653 0.0
C200 C 0.65934 0.61851 0.15071 0.0
C201 C 0.61582 0.574 0.14796 0.0
C202 C 0.70295 0.62173 0.1591 0.0
C203 C 0.7038 0.58024 0.16442 0.0
C204 C 0.65971 0.53676 0.16417 0.0
C205 C 0.61601 0.53371 0.15598 0.0
H206 H 0.36085 0.78756 0.44812 0.0
H207 H 0.34576 0.88458 0.51083 0.0
H208 H 0.28388 0.72051 0.45613 0.0
H209 H 0.26814 0.81678 0.51893 0.0
H210 H 0.1047 0.69163 0.48493 0.0
H211 H 0.18609 0.76279 0.49182 0.0
H212 H 0.24507 0.66943 0.49261 0.0
H213 H 0.16335 0.59833 0.48545 0.0
C214 C 0.34108 0.79469 0.46361 0.0
C215 C 0.3595 0.84163 0.47871 0.0
C216 C 0.29715 0.75598 0.4685 0.0
C217 C 0.27017 0.76304 0.48855 0.0
C218 C 0.28814 0.8101 0.50343 0.0
C219 C 0.33248 0.84895 0.49867 0.0
C220 C 0.13517 0.68665 0.48804 0.0
C221 C 0.12792 0.63966 0.48487 0.0
C222 C 0.18182 0.72735 0.49177 0.0
C223 C 0.22204 0.72169 0.49208 0.0
C224 C 0.21474 0.67489 0.49189 0.0
C225 C 0.16804 0.6342 0.48831 0.0
H226 H 0.58272 0.36232 0.8951 0.0
H227 H 0.55172 0.34309 0.80346 0.0
H228 H 0.57892 0.28407 0.89061 0.0
H229 H 0.54878 0.26589 0.79926 0.0
H230 H 0.63348 0.18745 0.80453 0.0
H231 H 0.63135 0.26105 0.81855 0.0
H232 H 0.50807 0.18117 0.86202 0.0
H233 H 0.5096 0.1064 0.84736 0.0
C234 C 0.5743 0.34115 0.8741 0.0
C235 C 0.56794 0.35921 0.84961 0.0
C236 C 0.57203 0.2964 0.87161 0.0
C237 C 0.56391 0.26942 0.84461 0.0
C238 C 0.55527 0.28628 0.82031 0.0
C239 C 0.55689 0.33047 0.82277 0.0
C240 C 0.60669 0.18581 0.81773 0.0
C241 C 0.57156 0.14131 0.82476 0.0
C242 C 0.60535 0.2278 0.82559 0.0
C243 C 0.56919 0.22641 0.84097 0.0
C244 C 0.53626 0.18291 0.85011 0.0
C245 C 0.53732 0.14039 0.84194 0.0
H246 H 0.45091 0.80445 0.53274 0.0
H247 H 0.5784 0.88015 0.49146 0.0
H248 H 0.46572 0.73824 0.53466 0.0
H249 H 0.59388 0.81393 0.49402 0.0
H250 H 0.58166 0.66285 0.48731 0.0
H251 H 0.56143 0.72408 0.47749 0.0
H252 H 0.5296 0.73618 0.56397 0.0
H253 H 0.54955 0.67541 0.57341 0.0
C254 C 0.48223 0.807 0.52418 0.0
C255 C 0.51411 0.84783 0.51251 0.0
C256 C 0.4906 0.76905 0.5252 0.0
C257 C 0.5313 0.77137 0.51485 0.0
C258 C 0.56213 0.81121 0.50203 0.0
C259 C 0.5535 0.84918 0.50079 0.0
C260 C 0.57019 0.67872 0.50403 0.0
C261 C 0.56678 0.66481 0.53116 0.0
C262 C 0.55881 0.71368 0.49849 0.0
C263 C 0.54346 0.73436 0.5199 0.0
C264 C 0.54044 0.72021 0.54691 0.0
C265 C 0.55212 0.68588 0.55242 0.0
H266 H 0.76033 0.59033 0.81928 0.0
H267 H 0.72241 0.44079 0.80159 0.0
H268 H 0.84558 0.61622 0.82455 0.0
H269 H 0.80703 0.46588 0.8088 0.0
H270 H 0.96019 0.51408 0.82089 0.0
H271 H 0.88508 0.50182 0.79769 0.0
H272 H 0.89829 0.61788 0.85938 0.0
H273 H 0.97477 0.63249 0.88074 0.0
C274 C 0.77037 0.56305 0.81651 0.0
C275 C 0.73492 0.51359 0.81049 0.0
C276 C 0.81922 0.57777 0.81965 0.0
C277 C 0.83363 0.54325 0.81771 0.0
C278 C 0.79784 0.4938 0.81015 0.0
C279 C 0.74908 0.47922 0.80628 0.0
C280 C 0.94786 0.53807 0.8288 0.0
C281 C 0.97292 0.57353 0.85312 0.0
C282 C 0.90429 0.53056 0.81577 0.0
C283 C 0.88455 0.55787 0.82703 0.0
C284 C 0.91192 0.596 0.84986 0.0
C285 C 0.95569 0.604 0.8625 0.0
H286 H 0.16036 0.77038 0.1803 0.0
H287 H 0.19388 0.73601 0.09758 0.0
H288 H 0.22968 0.85176 0.18567 0.0
H289 H 0.26269 0.81865 0.10241 0.0
H290 H 0.41882 0.92744 0.14986 0.0
H291 H 0.33952 0.85875 0.13007 0.0
H292 H 0.27289 0.92985 0.17343 0.0
H293 H 0.3526 0.99742 0.19422 0.0
C294 C 0.18173 0.78067 0.16285 0.0
C295 C 0.17216 0.74647 0.13875 0.0
C296 C 0.22147 0.82768 0.16581 0.0
C297 C 0.2523 0.84184 0.14458 0.0
C298 C 0.24034 0.8087 0.11943 0.0
C299 C 0.20077 0.76141 0.1166 0.0
C300 C 0.38715 0.9289 0.15434 0.0
C301 C 0.39148 0.96713 0.17376 0.0
C302 C 0.34159 0.8896 0.14297 0.0
C303 C 0.29961 0.8882 0.15062 0.0
C304 C 0.30438 0.9291 0.16771 0.0
C305 C 0.34991 0.96797 0.17942 0.0
H306 H 0.49354 0.20707 0.50725 0.0
H307 H 0.58343 0.23352 0.43973 0.0
H308 H 0.50112 0.28592 0.50694 0.0
H309 H 0.59134 0.3127 0.43974 0.0
H310 H 0.65689 0.46805 0.5013 0.0
H311 H 0.63603 0.38588 0.48136 0.0
H312 H 0.48479 0.33872 0.47591 0.0
H313 H 0.50598 0.4213 0.49544 0.0
C314 C 0.51417 0.22933 0.49202 0.0
C315 C 0.53839 0.21447 0.4738 0.0
C316 C 0.51814 0.27423 0.49165 0.0
C317 C 0.54682 0.30521 0.47328 0.0
C318 C 0.56906 0.28936 0.45407 0.0
C319 C 0.56451 0.24413 0.45414 0.0
C320 C 0.61938 0.44053 0.49451 0.0
C321 C 0.58294 0.4505 0.49955 0.0
C322 C 0.60738 0.39362 0.48317 0.0
C323 C 0.5588 0.3561 0.47736 0.0
C324 C 0.52245 0.36713 0.4803 0.0
C325 C 0.5345 0.41421 0.49122 0.0
H326 H 0.37372 0.54238 0.80008 0.0
H327 H 0.33605 0.44072 0.85952 0.0
H328 H 0.30423 0.54991 0.80888 0.0
H329 H 0.26644 0.44803 0.86807 0.0
H330 H 0.20729 0.53956 0.90977 0.0
H331 H 0.26533 0.51832 0.89372 0.0
H332 H 0.2137 0.5087 0.80613 0.0
H333 H 0.1556 0.53049 0.82254 0.0
C334 C 0.35009 0.52091 0.81459 0.0
C335 C 0.36082 0.49155 0.82946 0.0
C336 C 0.31013 0.52505 0.81948 0.0
C337 C 0.28038 0.50014 0.83948 0.0
C338 C 0.28927 0.46827 0.85288 0.0
C339 C 0.32899 0.46389 0.84786 0.0
C340 C 0.20844 0.5327 0.88711 0.0
C341 C 0.17742 0.53663 0.86748 0.0
C342 C 0.24119 0.52013 0.87788 0.0
C343 C 0.24362 0.51123 0.84865 0.0
C344 C 0.21255 0.51537 0.82879 0.0
C345 C 0.17942 0.52782 0.83813 0.0
H346 H 0.83743 0.37996 0.23175 0.0
H347 H 0.83889 0.35471 0.14085 0.0
H348 H 0.77962 0.29399 0.23026 0.0
H349 H 0.78039 0.2683 0.13935 0.0
H350 H 0.61778 0.15254 0.1543 0.0
H351 H 0.69158 0.22658 0.14826 0.0
H352 H 0.76788 0.21014 0.21943 0.0
H353 H 0.69378 0.13623 0.22547 0.0
C354 C 0.82594 0.35586 0.21154 0.0
C355 C 0.84229 0.374 0.18642 0.0
C356 C 0.79315 0.30658 0.2107 0.0
C357 C 0.7756 0.27457 0.18466 0.0
C358 C 0.79336 0.29231 0.15966 0.0
C359 C 0.82686 0.34163 0.16057 0.0
C360 C 0.65071 0.16393 0.16801 0.0
C361 C 0.65045 0.13928 0.19061 0.0
C362 C 0.69297 0.20617 0.16451 0.0
C363 C 0.73518 0.22431 0.18365 0.0
C364 C 0.73565 0.19717 0.20461 0.0
C365 C 0.69356 0.15495 0.20799 0.0
H366 H 0.04368 0.63519 0.10257 0.0
H367 H 0.95315 0.48087 0.07495 0.0
H368 H 0.06703 0.64559 0.05445 0.0
H369 H 0.97597 0.49089 0.02703 0.0
H370 H 0.05851 0.51879 0.95147 0.0
H371 H 0.04896 0.51589 0.00176 0.0
H372 H 0.02266 0.63439 0.00561 0.0
H373 H 0.03333 0.63813 0.95527 0.0
C374 C 0.02962 0.60354 0.08629 0.0
C375 C 0.99724 0.55726 0.09233 0.0
C376 C 0.04245 0.60946 0.05878 0.0
C377 C 0.02346 0.56899 0.03707 0.0
C378 C 0.99163 0.52264 0.04341 0.0
C379 C 0.97831 0.51691 0.07071 0.0
C380 C 0.05167 0.54491 0.96315 0.0
C381 C 0.04659 0.57866 0.94938 0.0
C382 C 0.04578 0.54293 0.99188 0.0
C383 C 0.03482 0.57472 0.00752 0.0
C384 C 0.03144 0.60966 0.9941 0.0
C385 C 0.03707 0.61148 0.96525 0.0
H386 H 0.52812 0.97293 0.40828 0.0
H387 H 0.48282 0.07745 0.42266 0.0
H388 H 0.52086 0.97468 0.35718 0.0
H389 H 0.47631 0.07952 0.37157 0.0
H390 H 0.52699 0.10761 0.28217 0.0
H391 H 0.53328 0.10645 0.33355 0.0
H392 H 0.45256 0.94976 0.31756 0.0
H393 H 0.44639 0.95095 0.26622 0.0
C394 C 0.51673 0.99635 0.40061 0.0
C395 C 0.50625 0.02522 0.41962 0.0
C396 C 0.51241 0.99717 0.37134 0.0
C397 C 0.49803 0.02722 0.36049 0.0
C398 C 0.4879 0.05636 0.37943 0.0
C399 C 0.49163 0.05511 0.40868 0.0
C400 C 0.51062 0.073 0.28971 0.0
C401 C 0.48618 0.02937 0.27033 0.0
C402 C 0.51395 0.07233 0.31904 0.0
C403 C 0.49349 0.02802 0.32946 0.0
C404 C 0.46897 0.9844 0.31005 0.0
C405 C 0.4651 0.98507 0.28076 0.0
H406 H 0.56454 0.45117 0.73982 0.0
H407 H 0.55294 0.57839 0.74001 0.0
H408 H 0.58013 0.45293 0.69009 0.0
H409 H 0.56946 0.58069 0.6905 0.0
H410 H 0.65626 0.60035 0.61509 0.0
H411 H 0.64308 0.59528 0.665 0.0
H412 H 0.53397 0.44369 0.64149 0.0
H413 H 0.54629 0.44882 0.59159 0.0
C414 C 0.56508 0.47929 0.72913 0.0
C415 C 0.55731 0.51448 0.74358 0.0
C416 C 0.57398 0.48029 0.70077 0.0
C417 C 0.57642 0.51719 0.68667 0.0
C418 C 0.56824 0.55215 0.70106 0.0
C419 C 0.55827 0.55052 0.72921 0.0
C420 C 0.62977 0.56588 0.62064 0.0
C421 C 0.60227 0.52503 0.59943 0.0
C422 C 0.62214 0.56304 0.64912 0.0
C423 C 0.58719 0.51922 0.65693 0.0
C424 C 0.56134 0.47781 0.63599 0.0
C425 C 0.56868 0.48071 0.60748 0.0
H426 H 0.53356 0.10923 0.59238 0.0
H427 H 0.54468 0.98111 0.57898 0.0
H428 H 0.53996 0.10913 0.64374 0.0
H429 H 0.55071 0.98094 0.63021 0.0
H430 H 0.61043 0.02974 0.72643 0.0
H431 H 0.60545 0.02846 0.67481 0.0
H432 H 0.48986 0.05812 0.67748 0.0
H433 H 0.4949 0.05944 0.72891 0.0
C434 C 0.53753 0.08118 0.60036 0.0
C435 C 0.53832 0.04505 0.58155 0.0
C436 C 0.54087 0.08092 0.62976 0.0
C437 C 0.54553 0.04482 0.641 0.0
C438 C 0.54741 0.00936 0.62223 0.0
C439 C 0.54364 0.00934 0.59285 0.0
C440 C 0.58354 0.03529 0.71588 0.0
C441 C 0.55326 0.04499 0.7317 0.0
C442 C 0.58077 0.0347 0.68637 0.0
C443 C 0.54764 0.04378 0.67214 0.0
C444 C 0.51649 0.0521 0.68791 0.0
C445 C 0.51925 0.05267 0.71733 0.0
H446 H 0.62791 0.55893 0.91509 0.0
H447 H 0.47829 0.5165 0.89693 0.0
H448 H 0.62213 0.56674 0.9659 0.0
H449 H 0.4729 0.52526 0.94789 0.0
H450 H 0.46827 0.489 0.03915 0.0
H451 H 0.47302 0.48447 0.98797 0.0
H452 H 0.61291 0.6163 0.004 0.0
H453 H 0.60835 0.62024 0.05514 0.0
C454 C 0.59387 0.55164 0.92191 0.0
C455 C 0.55347 0.53676 0.9019 0.0
C456 C 0.59066 0.55639 0.95108 0.0
C457 C 0.54703 0.54651 0.96093 0.0
C458 C 0.50684 0.53248 0.94095 0.0
C459 C 0.51004 0.52775 0.91175 0.0
C460 C 0.4998 0.51716 0.03164 0.0
C461 C 0.53802 0.55487 0.05103 0.0
C462 C 0.5025 0.51467 0.00237 0.0
C463 C 0.54338 0.55001 0.99193 0.0
C464 C 0.58128 0.58809 0.01139 0.0
C465 C 0.57868 0.59041 0.04063 0.0
H466 H 0.0899 0.64292 0.25754 0.0
H467 H 0.95281 0.50863 0.23763 0.0
H468 H 0.08793 0.63709 0.30803 0.0
H469 H 0.95038 0.50309 0.28845 0.0
H470 H 0.00156 0.4866 0.37858 0.0
H471 H 0.99576 0.49017 0.32758 0.0
H472 H 0.04142 0.64193 0.34645 0.0
H473 H 0.04667 0.63831 0.39732 0.0
C474 C 0.05906 0.6123 0.26395 0.0
C475 C 0.02115 0.57641 0.24357 0.0
C476 C 0.05783 0.60913 0.29292 0.0
C477 C 0.01883 0.56983 0.30222 0.0
C478 C 0.98094 0.53378 0.28189 0.0
C479 C 0.98203 0.53718 0.25284 0.0
C480 C 0.00948 0.52048 0.37182 0.0
C481 C 0.02488 0.56226 0.39199 0.0
C482 C 0.00623 0.52252 0.34263 0.0
C483 C 0.0185 0.56643 0.33305 0.0
C484 C 0.03252 0.60779 0.35321 0.0
C485 C 0.03556 0.60571 0.38233 0.0
loop_
_geom_bond_atom_site_label_1
_geom_bond_atom_site_label_2
_geom_bond_distance
_geom_bond_site_symmetry_2
_ccdc_geom_bond_type
Zn0 O6 1.969 . S
Zn0 O7 1.965 . S
Zn0 O11 2.024 . S
Zn0 O16 1.969 . S
Zn1 O8 1.969 . S
Zn1 O14 1.969 . S
Zn1 O15 1.965 . S
Zn1 O17 2.024 . S
C2 O3 1.229 . S
C2 O11 1.058 . S
O3 C2 1.229 . S
C4 O5 1.229 . S
C4 O17 1.058 . S
O5 C4 1.229 . S
O6 Zn0 1.969 . S
O6 C9 1.267 . S
O7 Zn0 1.965 . S
O7 C18 1.260 . S
O8 Zn1 1.969 . S
O8 C18 1.258 1_655 S
C9 O6 1.267 . S
C9 O10 1.228 . S
O10 C9 1.228 . S
O11 Zn0 2.024 . S
O11 C2 1.058 . S
C12 O13 1.228 . S
C12 O14 1.267 . S
O13 C12 1.228 . S
O14 Zn1 1.969 . S
O14 C12 1.267 . S
O15 Zn1 1.965 . S
O15 C19 1.260 1_655 S
O16 Zn0 1.969 . S
O16 C19 1.258 . S
O17 Zn1 2.024 . S
O17 C4 1.058 . S
C18 O7 1.260 . S
C18 O8 1.258 1_455 S
C19 O15 1.260 1_455 S
C19 O16 1.258 . S
Zn20 O26 1.969 . S
Zn20 O27 1.965 . S
Zn20 O31 2.024 . S
Zn20 O36 1.969 . S
Zn21 O28 1.969 . S
Zn21 O34 1.969 . S
Zn21 O35 1.965 1_565 S
Zn21 O37 2.024 . S
C22 O23 1.229 . S
C22 O31 1.058 . S
O23 C22 1.229 . S
C24 O25 1.229 . S
C24 O37 1.058 . S
O25 C24 1.229 . S
O26 Zn20 1.969 . S
O26 C29 1.267 . S
O27 Zn20 1.965 . S
O27 C38 1.260 . S
O28 Zn21 1.969 . S
O28 C38 1.258 1_565 S
C29 O26 1.267 . S
C29 O30 1.228 . S
O30 C29 1.228 . S
O31 Zn20 2.024 . S
O31 C22 1.058 . S
C32 O33 1.228 . S
C32 O34 1.267 . S
O33 C32 1.228 . S
O34 Zn21 1.969 . S
O34 C32 1.267 . S
O35 Zn21 1.965 1_545 S
O35 C39 1.260 . S
O36 Zn20 1.969 . S
O36 C39 1.258 . S
O37 Zn21 2.024 . S
O37 C24 1.058 . S
C38 O27 1.260 . S
C38 O28 1.258 1_545 S
C39 O35 1.260 . S
C39 O36 1.258 . S
Zn40 O46 1.969 . S
Zn40 O47 1.965 . S
Zn40 O51 2.024 . S
Zn40 O56 1.969 . S
Zn41 O48 1.969 . S
Zn41 O54 1.969 . S
Zn41 O55 1.965 . S
Zn41 O57 2.024 . S
C42 O43 1.229 . S
C42 O51 1.058 . S
O43 C42 1.229 . S
C44 O45 1.229 . S
C44 O57 1.058 . S
O45 C44 1.229 . S
O46 Zn40 1.969 . S
O46 C49 1.267 . S
O47 Zn40 1.965 . S
O47 C58 1.260 . S
O48 Zn41 1.969 . S
O48 C58 1.258 . S
C49 O46 1.267 . S
C49 O50 1.228 . S
O50 C49 1.228 . S
O51 Zn40 2.024 . S
O51 C42 1.058 . S
C52 O53 1.228 . S
C52 O54 1.267 . S
O53 C52 1.228 . S
O54 Zn41 1.969 . S
O54 C52 1.267 . S
O55 Zn41 1.965 . S
O55 C59 1.260 . S
O56 Zn40 1.969 . S
O56 C59 1.258 . S
O57 Zn41 2.024 . S
O57 C44 1.058 . S
C58 O47 1.260 . S
C58 O48 1.258 . S
C59 O55 1.260 . S
C59 O56 1.258 . S
H60 C65 0.929 . S
H61 C70 0.931 1_565 S
H62 C68 0.930 . S
N63 N64 1.234 . S
N63 C67 1.453 . S
N64 N63 1.234 . S
C65 H60 0.929 . S
C65 C66 1.373 1_545 S
C65 C67 1.368 . S
C66 C65 1.373 1_565 S
C66 C70 1.397 1_565 S
C67 N63 1.453 . S
C67 C65 1.368 . S
C67 C68 1.373 . S
C68 H62 0.930 . S
C68 C67 1.373 . S
C68 C69 1.371 . S
C69 C68 1.371 . S
C69 C70 1.383 . S
C70 H61 0.931 1_545 S
C70 C66 1.397 1_545 S
C70 C69 1.383 . S
H71 C76 0.929 . S
H72 C81 0.931 . S
H73 C79 0.930 . S
N74 N75 1.234 . S
N74 C78 1.453 . S
N75 N74 1.234 . S
C76 H71 0.929 . S
C76 C77 1.373 . S
C76 C78 1.368 . S
C77 C76 1.373 . S
C77 C81 1.397 . S
C78 N74 1.453 . S
C78 C76 1.368 . S
C78 C79 1.373 . S
C79 H73 0.930 . S
C79 C78 1.373 . S
C79 C80 1.371 . S
C80 C79 1.371 . S
C80 C81 1.383 . S
C81 H72 0.931 . S
C81 C77 1.397 . S
C81 C80 1.383 . S
H82 C87 0.929 . S
H83 C92 0.931 1_655 S
H84 C90 0.930 . S
N85 N86 1.234 . S
N85 C89 1.453 . S
N86 N85 1.234 . S
C87 H82 0.929 . S
C87 C88 1.373 1_455 S
C87 C89 1.368 . S
C88 C87 1.373 1_655 S
C88 C92 1.397 1_655 S
C89 N85 1.453 . S
C89 C87 1.368 . S
C89 C90 1.373 . S
C90 H84 0.930 . S
C90 C89 1.373 . S
C90 C91 1.371 . S
C91 C90 1.371 . S
C91 C92 1.383 . S
C92 H83 0.931 1_455 S
C92 C88 1.397 1_455 S
C92 C91 1.383 . S
H93 C98 0.929 . S
H94 C103 0.931 . S
H95 C101 0.930 1_655 S
N96 N97 1.234 . S
N96 C100 1.453 1_655 S
N97 N96 1.234 . S
C98 H93 0.929 . S
C98 C99 1.373 . S
C98 C100 1.368 . S
C99 C98 1.373 . S
C99 C103 1.397 . S
C100 N96 1.453 1_455 S
C100 C98 1.368 . S
C100 C101 1.373 . S
C101 H95 0.930 1_455 S
C101 C100 1.373 . S
C101 C102 1.371 . S
C102 C101 1.371 . S
C102 C103 1.383 . S
C103 H94 0.931 . S
C103 C99 1.397 . S
C103 C102 1.383 . S
H104 C109 0.929 . S
H105 C114 0.931 . S
H106 C112 0.930 1_565 S
N107 N108 1.234 . S
N107 C111 1.453 1_565 S
N108 N107 1.234 . S
C109 H104 0.929 . S
C109 C110 1.373 . S
C109 C111 1.368 . S
C110 C109 1.373 . S
C110 C114 1.397 . S
C111 N107 1.453 1_545 S
C111 C109 1.368 . S
C111 C112 1.373 . S
C112 H106 0.930 1_545 S
C112 C111 1.373 . S
C112 C113 1.371 . S
C113 C112 1.371 . S
C113 C114 1.383 . S
C114 H105 0.931 . S
C114 C110 1.397 . S
C114 C113 1.383 . S
H115 C120 0.929 . S
H116 C125 0.931 . S
H117 C123 0.930 . S
N118 N119 1.234 . S
N118 C122 1.453 . S
N119 N118 1.234 . S
C120 H115 0.929 . S
C120 C121 1.373 . S
C120 C122 1.368 . S
C121 C120 1.373 . S
C121 C125 1.397 . S
C122 N118 1.453 . S
C122 C120 1.368 . S
C122 C123 1.373 . S
C123 H117 0.930 . S
C123 C122 1.373 . S
C123 C124 1.371 . S
C124 C123 1.371 . S
C124 C125 1.383 . S
C125 H116 0.931 . S
C125 C121 1.397 . S
C125 C124 1.383 . S
H126 C134 0.950 . S
H127 C139 0.950 . S
H128 C136 0.950 . S
H129 C138 0.950 . S
H130 C140 0.950 . S
H131 C142 0.950 . S
H132 C144 0.950 . S
H133 C145 0.950 . S
C134 H126 0.950 . S
C134 C135 1.386 . S
C134 C136 1.391 . S
C135 C134 1.386 . S
C135 C139 1.393 . S
C136 H128 0.950 . S
C136 C134 1.391 . S
C136 C137 1.400 . S
C137 C136 1.400 . S
C137 C138 1.398 . S
C137 C143 1.491 . S
C138 H129 0.950 . S
C138 C137 1.398 . S
C138 C139 1.391 . S
C139 H127 0.950 . S
C139 C135 1.393 . S
C139 C138 1.391 . S
C140 H130 0.950 . S
C140 C141 1.386 . S
C140 C142 1.391 . S
C141 C140 1.386 . S
C141 C145 1.393 . S
C142 H131 0.950 . S
C142 C140 1.391 . S
C142 C143 1.400 . S
C143 C137 1.491 . S
C143 C142 1.400 . S
C143 C144 1.398 . S
C144 H132 0.950 . S
C144 C143 1.398 . S
C144 C145 1.391 . S
C145 H133 0.950 . S
C145 C141 1.393 . S
C145 C144 1.391 . S
H146 C154 0.950 . S
H147 C159 0.950 . S
H148 C156 0.950 . S
H149 C158 0.950 . S
H150 C160 0.950 . S
H151 C162 0.950 . S
H152 C164 0.950 . S
H153 C165 0.950 . S
C154 H146 0.950 . S
C154 C155 1.386 . S
C154 C156 1.391 . S
C155 C154 1.386 . S
C155 C159 1.393 . S
C156 H148 0.950 . S
C156 C154 1.391 . S
C156 C157 1.400 . S
C157 C156 1.400 . S
C157 C158 1.398 . S
C157 C163 1.491 . S
C158 H149 0.950 . S
C158 C157 1.398 . S
C158 C159 1.391 . S
C159 H147 0.950 . S
C159 C155 1.393 . S
C159 C158 1.391 . S
C160 H150 0.950 . S
C160 C161 1.386 . S
C160 C162 1.391 . S
C161 C160 1.386 . S
C161 C165 1.393 . S
C162 H151 0.950 . S
C162 C160 1.391 . S
C162 C163 1.400 . S
C163 C157 1.491 . S
C163 C162 1.400 . S
C163 C164 1.398 . S
C164 H152 0.950 . S
C164 C163 1.398 . S
C164 C165 1.391 . S
C165 H153 0.950 . S
C165 C161 1.393 . S
C165 C164 1.391 . S
H166 C174 0.950 . S
H167 C179 0.950 . S
H168 C176 0.950 . S
H169 C178 0.950 . S
H170 C180 0.950 . S
H171 C182 0.950 . S
H172 C184 0.950 . S
H173 C185 0.950 . S
C174 H166 0.950 . S
C174 C175 1.386 . S
C174 C176 1.391 . S
C175 C174 1.386 . S
C175 C179 1.393 . S
C176 H168 0.950 . S
C176 C174 1.391 . S
C176 C177 1.400 . S
C177 C176 1.400 . S
C177 C178 1.398 . S
C177 C183 1.491 . S
C178 H169 0.950 . S
C178 C177 1.398 . S
C178 C179 1.391 . S
C179 H167 0.950 . S
C179 C175 1.393 . S
C179 C178 1.391 . S
C180 H170 0.950 . S
C180 C181 1.386 . S
C180 C182 1.391 . S
C181 C180 1.386 . S
C181 C185 1.393 . S
C182 H171 0.950 . S
C182 C180 1.391 . S
C182 C183 1.400 . S
C183 C177 1.491 . S
C183 C182 1.400 . S
C183 C184 1.398 . S
C184 H172 0.950 . S
C184 C183 1.398 . S
C184 C185 1.391 . S
C185 H173 0.950 . S
C185 C181 1.393 . S
C185 C184 1.391 . S
H186 C194 0.950 . S
H187 C199 0.950 . S
H188 C196 0.950 . S
H189 C198 0.950 . S
H190 C200 0.950 . S
H191 C202 0.950 . S
H192 C204 0.950 . S
H193 C205 0.950 . S
C194 H186 0.950 . S
C194 C195 1.386 . S
C194 C196 1.391 . S
C195 C194 1.386 . S
C195 C199 1.393 . S
C196 H188 0.950 . S
C196 C194 1.391 . S
C196 C197 1.400 . S
C197 C196 1.400 . S
C197 C198 1.398 . S
C197 C203 1.491 . S
C198 H189 0.950 . S
C198 C197 1.398 . S
C198 C199 1.391 . S
C199 H187 0.950 . S
C199 C195 1.393 . S
C199 C198 1.391 . S
C200 H190 0.950 . S
C200 C201 1.386 . S
C200 C202 1.391 . S
C201 C200 1.386 . S
C201 C205 1.393 . S
C202 H191 0.950 . S
C202 C200 1.391 . S
C202 C203 1.400 . S
C203 C197 1.491 . S
C203 C202 1.400 . S
C203 C204 1.398 . S
C204 H192 0.950 . S
C204 C203 1.398 . S
C204 C205 1.391 . S
C205 H193 0.950 . S
C205 C201 1.393 . S
C205 C204 1.391 . S
H206 C214 0.950 . S
H207 C219 0.950 . S
H208 C216 0.950 . S
H209 C218 0.950 . S
H210 C220 0.950 . S
H211 C222 0.950 . S
H212 C224 0.950 . S
H213 C225 0.950 . S
C214 H206 0.950 . S
C214 C215 1.386 . S
C214 C216 1.391 . S
C215 C214 1.386 . S
C215 C219 1.393 . S
C216 H208 0.950 . S
C216 C214 1.391 . S
C216 C217 1.400 . S
C217 C216 1.400 . S
C217 C218 1.398 . S
C217 C223 1.491 . S
C218 H209 0.950 . S
C218 C217 1.398 . S
C218 C219 1.391 . S
C219 H207 0.950 . S
C219 C215 1.393 . S
C219 C218 1.391 . S
C220 H210 0.950 . S
C220 C221 1.386 . S
C220 C222 1.391 . S
C221 C220 1.386 . S
C221 C225 1.393 . S
C222 H211 0.950 . S
C222 C220 1.391 . S
C222 C223 1.400 . S
C223 C217 1.491 . S
C223 C222 1.400 . S
C223 C224 1.398 . S
C224 H212 0.950 . S
C224 C223 1.398 . S
C224 C225 1.391 . S
C225 H213 0.950 . S
C225 C221 1.393 . S
C225 C224 1.391 . S
H226 C234 0.950 . S
H227 C239 0.950 . S
H228 C236 0.950 . S
H229 C238 0.950 . S
H230 C240 0.950 . S
H231 C242 0.950 . S
H232 C244 0.950 . S
H233 C245 0.950 . S
C234 H226 0.950 . S
C234 C235 1.386 . S
C234 C236 1.391 . S
C235 C234 1.386 . S
C235 C239 1.393 . S
C236 H228 0.950 . S
C236 C234 1.391 . S
C236 C237 1.400 . S
C237 C236 1.400 . S
C237 C238 1.398 . S
C237 C243 1.491 . S
C238 H229 0.950 . S
C238 C237 1.398 . S
C238 C239 1.391 . S
C239 H227 0.950 . S
C239 C235 1.393 . S
C239 C238 1.391 . S
C240 H230 0.950 . S
C240 C241 1.386 . S
C240 C242 1.391 . S
C241 C240 1.386 . S
C241 C245 1.393 . S
C242 H231 0.950 . S
C242 C240 1.391 . S
C242 C243 1.400 . S
C243 C237 1.491 . S
C243 C242 1.400 . S
C243 C244 1.398 . S
C244 H232 0.950 . S
C244 C243 1.398 . S
C244 C245 1.391 . S
C245 H233 0.950 . S
C245 C241 1.393 . S
C245 C244 1.391 . S
H246 C254 0.950 . S
H247 C259 0.950 . S
H248 C256 0.950 . S
H249 C258 0.950 . S
H250 C260 0.950 . S
H251 C262 0.950 . S
H252 C264 0.950 . S
H253 C265 0.950 . S
C254 H246 0.950 . S
C254 C255 1.386 . S
C254 C256 1.391 . S
C255 C254 1.386 . S
C255 C259 1.393 . S
C256 H248 0.950 . S
C256 C254 1.391 . S
C256 C257 1.400 . S
C257 C256 1.400 . S
C257 C258 1.398 . S
C257 C263 1.491 . S
C258 H249 0.950 . S
C258 C257 1.398 . S
C258 C259 1.391 . S
C259 H247 0.950 . S
C259 C255 1.393 . S
C259 C258 1.391 . S
C260 H250 0.950 . S
C260 C261 1.386 . S
C260 C262 1.391 . S
C261 C260 1.386 . S
C261 C265 1.393 . S
C262 H251 0.950 . S
C262 C260 1.391 . S
C262 C263 1.400 . S
C263 C257 1.491 . S
C263 C262 1.400 . S
C263 C264 1.398 . S
C264 H252 0.950 . S
C264 C263 1.398 . S
C264 C265 1.391 . S
C265 H253 0.950 . S
C265 C261 1.393 . S
C265 C264 1.391 . S
H266 C274 0.950 . S
H267 C279 0.950 . S
H268 C276 0.950 . S
H269 C278 0.950 . S
H270 C280 0.950 . S
H271 C282 0.950 . S
H272 C284 0.950 . S
H273 C285 0.950 . S
C274 H266 0.950 . S
C274 C275 1.386 . S
C274 C276 1.391 . S
C275 C274 1.386 . S
C275 C279 1.393 . S
C276 H268 0.950 . S
C276 C274 1.391 . S
C276 C277 1.400 . S
C277 C276 1.400 . S
C277 C278 1.398 . S
C277 C283 1.491 . S
C278 H269 0.950 . S
C278 C277 1.398 . S
C278 C279 1.391 . S
C279 H267 0.950 . S
C279 C275 1.393 . S
C279 C278 1.391 . S
C280 H270 0.950 . S
C280 C281 1.386 . S
C280 C282 1.391 . S
C281 C280 1.386 . S
C281 C285 1.393 . S
C282 H271 0.950 . S
C282 C280 1.391 . S
C282 C283 1.400 . S
C283 C277 1.491 . S
C283 C282 1.400 . S
C283 C284 1.398 . S
C284 H272 0.950 . S
C284 C283 1.398 . S
C284 C285 1.391 . S
C285 H273 0.950 . S
C285 C281 1.393 . S
C285 C284 1.391 . S
H286 C294 0.950 . S
H287 C299 0.950 . S
H288 C296 0.950 . S
H289 C298 0.950 . S
H290 C300 0.950 . S
H291 C302 0.950 . S
H292 C304 0.950 . S
H293 C305 0.950 . S
C294 H286 0.950 . S
C294 C295 1.386 . S
C294 C296 1.391 . S
C295 C294 1.386 . S
C295 C299 1.393 . S
C296 H288 0.950 . S
C296 C294 1.391 . S
C296 C297 1.400 . S
C297 C296 1.400 . S
C297 C298 1.398 . S
C297 C303 1.491 . S
C298 H289 0.950 . S
C298 C297 1.398 . S
C298 C299 1.391 . S
C299 H287 0.950 . S
C299 C295 1.393 . S
C299 C298 1.391 . S
C300 H290 0.950 . S
C300 C301 1.386 . S
C300 C302 1.391 . S
C301 C300 1.386 . S
C301 C305 1.393 . S
C302 H291 0.950 . S
C302 C300 1.391 . S
C302 C303 1.400 . S
C303 C297 1.491 . S
C303 C302 1.400 . S
C303 C304 1.398 . S
C304 H292 0.950 . S
C304 C303 1.398 . S
C304 C305 1.391 . S
C305 H293 0.950 . S
C305 C301 1.393 . S
C305 C304 1.391 . S
H306 C314 0.950 . S
H307 C319 0.950 . S
H308 C316 0.950 . S
H309 C318 0.950 . S
H310 C320 0.950 . S
H311 C322 0.950 . S
H312 C324 0.950 . S
H313 C325 0.950 . S
C314 H306 0.950 . S
C314 C315 1.386 . S
C314 C316 1.391 . S
C315 C314 1.386 . S
C315 C319 1.393 . S
C316 H308 0.950 . S
C316 C314 1.391 . S
C316 C317 1.400 . S
C317 C316 1.400 . S
C317 C318 1.398 . S
C317 C323 1.491 . S
C318 H309 0.950 . S
C318 C317 1.398 . S
C318 C319 1.391 . S
C319 H307 0.950 . S
C319 C315 1.393 . S
C319 C318 1.391 . S
C320 H310 0.950 . S
C320 C321 1.386 . S
C320 C322 1.391 . S
C321 C320 1.386 . S
C321 C325 1.393 . S
C322 H311 0.950 . S
C322 C320 1.391 . S
C322 C323 1.400 . S
C323 C317 1.491 . S
C323 C322 1.400 . S
C323 C324 1.398 . S
C324 H312 0.950 . S
C324 C323 1.398 . S
C324 C325 1.391 . S
C325 H313 0.950 . S
C325 C321 1.393 . S
C325 C324 1.391 . S
H326 C334 0.950 . S
H327 C339 0.950 . S
H328 C336 0.950 . S
H329 C338 0.950 . S
H330 C340 0.950 . S
H331 C342 0.950 . S
H332 C344 0.950 . S
H333 C345 0.950 . S
C334 H326 0.950 . S
C334 C335 1.386 . S
C334 C336 1.391 . S
C335 C334 1.386 . S
C335 C339 1.393 . S
C336 H328 0.950 . S
C336 C334 1.391 . S
C336 C337 1.400 . S
C337 C336 1.400 . S
C337 C338 1.398 . S
C337 C343 1.491 . S
C338 H329 0.950 . S
C338 C337 1.398 . S
C338 C339 1.391 . S
C339 H327 0.950 . S
C339 C335 1.393 . S
C339 C338 1.391 . S
C340 H330 0.950 . S
C340 C341 1.386 . S
C340 C342 1.391 . S
C341 C340 1.386 . S
C341 C345 1.393 . S
C342 H331 0.950 . S
C342 C340 1.391 . S
C342 C343 1.400 . S
C343 C337 1.491 . S
C343 C342 1.400 . S
C343 C344 1.398 . S
C344 H332 0.950 . S
C344 C343 1.398 . S
C344 C345 1.391 . S
C345 H333 0.950 . S
C345 C341 1.393 . S
C345 C344 1.391 . S
H346 C354 0.950 . S
H347 C359 0.950 . S
H348 C356 0.950 . S
H349 C358 0.950 . S
H350 C360 0.950 . S
H351 C362 0.950 . S
H352 C364 0.950 . S
H353 C365 0.950 . S
C354 H346 0.950 . S
C354 C355 1.386 . S
C354 C356 1.391 . S
C355 C354 1.386 . S
C355 C359 1.393 . S
C356 H348 0.950 . S
C356 C354 1.391 . S
C356 C357 1.400 . S
C357 C356 1.400 . S
C357 C358 1.398 . S
C357 C363 1.491 . S
C358 H349 0.950 . S
C358 C357 1.398 . S
C358 C359 1.391 . S
C359 H347 0.950 . S
C359 C355 1.393 . S
C359 C358 1.391 . S
C360 H350 0.950 . S
C360 C361 1.386 . S
C360 C362 1.391 . S
C361 C360 1.386 . S
C361 C365 1.393 . S
C362 H351 0.950 . S
C362 C360 1.391 . S
C362 C363 1.400 . S
C363 C357 1.491 . S
C363 C362 1.400 . S
C363 C364 1.398 . S
C364 H352 0.950 . S
C364 C363 1.398 . S
C364 C365 1.391 . S
C365 H353 0.950 . S
C365 C361 1.393 . S
C365 C364 1.391 . S
H366 C374 0.950 . S
H367 C379 0.950 . S
H368 C376 0.950 . S
H369 C378 0.950 . S
H370 C380 0.950 . S
H371 C382 0.950 . S
H372 C384 0.950 . S
H373 C385 0.950 . S
C374 H366 0.950 . S
C374 C375 1.386 . S
C374 C376 1.391 . S
C375 C374 1.386 . S
C375 C379 1.393 . S
C376 H368 0.950 . S
C376 C374 1.391 . S
C376 C377 1.400 . S
C377 C376 1.400 . S
C377 C378 1.398 . S
C377 C383 1.491 . S
C378 H369 0.950 . S
C378 C377 1.398 . S
C378 C379 1.391 . S
C379 H367 0.950 . S
C379 C375 1.393 . S
C379 C378 1.391 . S
C380 H370 0.950 . S
C380 C381 1.386 . S
C380 C382 1.391 . S
C381 C380 1.386 . S
C381 C385 1.393 . S
C382 H371 0.950 . S
C382 C380 1.391 . S
C382 C383 1.400 1_556 S
C383 C377 1.491 . S
C383 C382 1.400 1_554 S
C383 C384 1.398 1_554 S
C384 H372 0.950 . S
C384 C383 1.398 1_556 S
C384 C385 1.391 . S
C385 H373 0.950 . S
C385 C381 1.393 . S
C385 C384 1.391 . S
H386 C394 0.952 1_565 S
H387 C399 0.950 . S
H388 C396 0.950 1_565 S
H389 C398 0.950 . S
H390 C400 0.950 . S
H391 C402 0.950 . S
H392 C404 0.950 1_565 S
H393 C405 0.950 1_565 S
C394 H386 0.952 1_545 S
C394 C395 1.383 . S
C394 C396 1.391 . S
C395 C394 1.383 . S
C395 C399 1.393 . S
C396 H388 0.950 1_545 S
C396 C394 1.391 . S
C396 C397 1.400 . S
C397 C396 1.400 . S
C397 C398 1.398 . S
C397 C403 1.491 . S
C398 H389 0.950 . S
C398 C397 1.398 . S
C398 C399 1.391 . S
C399 H387 0.950 . S
C399 C395 1.393 . S
C399 C398 1.391 . S
C400 H390 0.950 . S
C400 C401 1.386 . S
C400 C402 1.391 . S
C401 C400 1.386 . S
C401 C405 1.393 . S
C402 H391 0.950 . S
C402 C400 1.391 . S
C402 C403 1.400 . S
C403 C397 1.491 . S
C403 C402 1.400 . S
C403 C404 1.398 . S
C404 H392 0.950 1_545 S
C404 C403 1.398 . S
C404 C405 1.391 . S
C405 H393 0.950 1_545 S
C405 C401 1.393 . S
C405 C404 1.391 . S
H406 C414 0.950 . S
H407 C419 0.950 . S
H408 C416 0.950 . S
H409 C418 0.950 . S
H410 C420 0.950 . S
H411 C422 0.950 . S
H412 C424 0.950 . S
H413 C425 0.950 . S
C414 H406 0.950 . S
C414 C415 1.386 . S
C414 C416 1.391 . S
C415 C414 1.386 . S
C415 C419 1.393 . S
C416 H408 0.950 . S
C416 C414 1.391 . S
C416 C417 1.400 . S
C417 C416 1.400 . S
C417 C418 1.398 . S
C417 C423 1.491 . S
C418 H409 0.950 . S
C418 C417 1.398 . S
C418 C419 1.391 . S
C419 H407 0.950 . S
C419 C415 1.393 . S
C419 C418 1.391 . S
C420 H410 0.950 . S
C420 C421 1.386 . S
C420 C422 1.391 . S
C421 C420 1.386 . S
C421 C425 1.393 . S
C422 H411 0.950 . S
C422 C420 1.391 . S
C422 C423 1.400 . S
C423 C417 1.491 . S
C423 C422 1.400 . S
C423 C424 1.398 . S
C424 H412 0.950 . S
C424 C423 1.398 . S
C424 C425 1.391 . S
C425 H413 0.950 . S
C425 C421 1.393 . S
C425 C424 1.391 . S
H426 C434 0.950 . S
H427 C439 0.950 . S
H428 C436 0.950 . S
H429 C438 0.950 . S
H430 C440 0.950 . S
H431 C442 0.950 . S
H432 C444 0.950 . S
H433 C445 0.950 . S
C434 H426 0.950 . S
C434 C435 1.386 . S
C434 C436 1.391 . S
C435 C434 1.386 . S
C435 C439 1.393 . S
C436 H428 0.950 . S
C436 C434 1.391 . S
C436 C437 1.400 . S
C437 C436 1.400 . S
C437 C438 1.398 . S
C437 C443 1.491 . S
C438 H429 0.950 . S
C438 C437 1.398 . S
C438 C439 1.391 . S
C439 H427 0.950 . S
C439 C435 1.393 . S
C439 C438 1.391 . S
C440 H430 0.950 . S
C440 C441 1.386 . S
C440 C442 1.391 . S
C441 C440 1.386 . S
C441 C445 1.393 . S
C442 H431 0.950 . S
C442 C440 1.391 . S
C442 C443 1.400 . S
C443 C437 1.491 . S
C443 C442 1.400 . S
C443 C444 1.398 . S
C444 H432 0.950 . S
C444 C443 1.398 . S
C444 C445 1.391 . S
C445 H433 0.950 . S
C445 C441 1.393 . S
C445 C444 1.391 . S
H446 C454 0.950 . S
H447 C459 0.950 . S
H448 C456 0.950 . S
H449 C458 0.950 . S
H450 C460 0.950 . S
H451 C462 0.950 1_556 S
H452 C464 0.950 . S
H453 C465 0.950 . S
C454 H446 0.950 . S
C454 C455 1.386 . S
C454 C456 1.391 . S
C455 C454 1.386 . S
C455 C459 1.393 . S
C456 H448 0.950 . S
C456 C454 1.391 . S
C456 C457 1.400 . S
C457 C456 1.400 . S
C457 C458 1.398 . S
C457 C463 1.491 . S
C458 H449 0.950 . S
C458 C457 1.398 . S
C458 C459 1.391 . S
C459 H447 0.950 . S
C459 C455 1.393 . S
C459 C458 1.391 . S
C460 H450 0.950 . S
C460 C461 1.386 . S
C460 C462 1.391 . S
C461 C460 1.386 . S
C461 C465 1.393 . S
C462 H451 0.950 1_554 S
C462 C460 1.391 . S
C462 C463 1.400 1_554 S
C463 C457 1.491 . S
C463 C462 1.400 1_556 S
C463 C464 1.398 1_556 S
C464 H452 0.950 . S
C464 C463 1.398 1_554 S
C464 C465 1.391 . S
C465 H453 0.950 . S
C465 C461 1.393 . S
C465 C464 1.391 . S
H466 C474 0.950 . S
H467 C479 0.950 . S
H468 C476 0.950 . S
H469 C478 0.950 . S
H470 C480 0.950 . S
H471 C482 0.950 . S
H472 C484 0.950 . S
H473 C485 0.950 . S
C474 H466 0.950 . S
C474 C475 1.386 . S
C474 C476 1.391 . S
C475 C474 1.386 . S
C475 C479 1.393 1_455 S
C476 H468 0.950 . S
C476 C474 1.391 . S
C476 C477 1.400 . S
C477 C476 1.400 . S
C477 C478 1.398 1_455 S
C477 C483 1.491 . S
C478 H469 0.950 . S
C478 C477 1.398 1_655 S
C478 C479 1.391 . S
C479 H467 0.950 . S
C479 C475 1.393 1_655 S
C479 C478 1.391 . S
C480 H470 0.950 . S
C480 C481 1.386 1_655 S
C480 C482 1.391 . S
C481 C480 1.386 1_455 S
C481 C485 1.393 . S
C482 H471 0.950 . S
C482 C480 1.391 . S
C482 C483 1.400 1_655 S
C483 C477 1.491 . S
C483 C482 1.400 1_455 S
C483 C484 1.398 . S
C484 H472 0.950 . S
C484 C483 1.398 . S
C484 C485 1.391 . S
C485 H473 0.950 . S
C485 C481 1.393 . S
C485 C484 1.391 . S
C135 C2 1.463 . S
C141 N119 1.492 . S
C155 C22 1.423 . S
C161 N97 1.493 . S
C175 C44 1.461 . S
C181 N108 1.491 . S
C195 C4 1.436 . S
C201 C121 1.511 . S
C221 C99 1.510 . S
C215 C24 1.438 . S
C241 C110 1.494 . S
C235 C42 1.424 . S
C255 C32 1.403 . S
C261 N75 1.366 . S
C275 C49 1.167 . S
C281 C88 1.195 . S
C295 C9 1.142 . S
C301 C66 1.184 . S
C321 C77 1.201 . S
C315 C29 1.139 . S
C341 N86 1.318 . S
C335 C52 1.315 . S
C355 C12 1.296 . S
C361 N64 1.327 . S
C381 C91 1.483 . S
C375 C18 1.500 . S
C395 C38 1.464 . S
C401 C69 1.471 . S
C415 C58 1.451 . S
C421 C80 1.488 . S
C441 C113 1.508 . S
C435 C39 1.506 . S
C461 C124 1.515 . S
C455 C59 1.519 . S
C475 C19 1.517 . S
C481 C102 1.528 . S
