# Generated by pormake.
# Topology rtl, (3,6)-cn, num edge types: 1
# Building blocks:
#     Node 0, Type 0, BuildingBlock: INOVEN_clean_linker_0, # of connection points: 3
#     Node 1, Type 0, BuildingBlock: INOVEN_clean_linker_0, # of connection points: 3
#     Node 2, Type 0, BuildingBlock: INOVEN_clean_linker_0, # of connection points: 3
#     Node 3, Type 0, BuildingBlock: INOVEN_clean_linker_0, # of connection points: 3
#     Node 4, Type 1, BuildingBlock: LEVNOQ01_clean_sbu_1, # of connection points: 6
#     Node 5, Type 1, BuildingBlock: LEVNOQ01_clean_sbu_1, # of connection points: 6
#     Edge 6, Type (0, 1), BuildingBlock: ZUJKAS_clean_linker_0, # of connection points: 2
#     Edge 7, Type (0, 1), BuildingBlock: ZUJKAS_clean_linker_0, # of connection points: 2
#     Edge 8, Type (0, 1), BuildingBlock: ZUJKAS_clean_linker_0, # of connection points: 2
#     Edge 9, Type (0, 1), BuildingBlock: ZUJKAS_clean_linker_0, # of connection points: 2
#     Edge 10, Type (0, 1), BuildingBlock: ZUJKAS_clean_linker_0, # of connection points: 2
#     Edge 11, Type (0, 1), BuildingBlock: ZUJKAS_clean_linker_0, # of connection points: 2
#     Edge 12, Type (0, 1), BuildingBlock: ZUJKAS_clean_linker_0, # of connection points: 2
#     Edge 13, Type (0, 1), BuildingBlock: ZUJKAS_clean_linker_0, # of connection points: 2
#     Edge 14, Type (0, 1), BuildingBlock: ZUJKAS_clean_linker_0, # of connection points: 2
#     Edge 15, Type (0, 1), BuildingBlock: ZUJKAS_clean_linker_0, # of connection points: 2
#     Edge 16, Type (0, 1), BuildingBlock: ZUJKAS_clean_linker_0, # of connection points: 2
#     Edge 17, Type (0, 1), BuildingBlock: ZUJKAS_clean_linker_0, # of connection points: 2
# Relax obj value: 0.015
# Max RMSD: 0.117
# Mean RMSD: 0.085
data_MOF--net-rtl--node1-LEVNOQ01_clean_sbu_1--node2-INOVEN_clean_linker_0--edge1-ZUJKAS_clean_linker_0
_symmetry_space_group_name_H-M    P1
_symmetry_Int_Tables_number       1
_symmetry_cell_setting            triclinic
loop_
_symmetry_equiv_pos_as_xyz
'x, y, z'
_cell_length_a     46.002676
_cell_length_b     46.008208
_cell_length_c     29.211142
_cell_angle_alpha  90.992652
_cell_angle_beta   98.747046
_cell_angle_gamma 89.977107
loop_
_atom_site_label
_atom_site_type_symbol
_atom_site_fract_x
_atom_site_fract_y
_atom_site_fract_z
_atom_type_partial_charge
H0 H 0.20562 0.8126 -0.00127 0.0
H1 H 0.14995 0.87129 0.06213 0.0
H2 H 0.20909 0.81432 0.14634 0.0
N3 N 0.2314 0.78884 0.07505 0.0
N4 N 0.24115 0.77648 0.11193 0.0
C5 C 0.19765 0.82139 0.02915 0.0
C6 C 0.17584 0.84304 0.02469 0.0
C7 C 0.20964 0.81095 0.0727 0.0
C8 C 0.20005 0.82257 0.11267 0.0
C9 C 0.17862 0.84459 0.10926 0.0
C10 C 0.1666 0.85452 0.06507 0.0
H11 H 0.70499 0.72121 0.67259 0.0
H12 H 0.64476 0.66697 0.58138 0.0
H13 H 0.69266 0.73472 0.52563 0.0
N14 N 0.72234 0.75343 0.60824 0.0
N15 N 0.72845 0.76868 0.5761 0.0
C16 C 0.69426 0.71532 0.63804 0.0
C17 C 0.67395 0.69227 0.63157 0.0
C18 C 0.70125 0.73062 0.60016 0.0
C19 C 0.68754 0.72288 0.55514 0.0
C20 C 0.667 0.70001 0.54805 0.0
C21 C 0.66042 0.68477 0.58651 0.0
H22 H 0.78928 0.2042 0.9068 0.0
H23 H 0.85401 0.15464 0.99413 0.0
H24 H 0.79313 0.20869 0.05488 0.0
N25 N 0.76494 0.22901 0.97287 0.0
N26 N 0.75424 0.24042 0.00557 0.0
C27 C 0.79923 0.19744 0.94099 0.0
C28 C 0.82292 0.17797 0.94583 0.0
C29 C 0.78857 0.20886 0.97996 0.0
C30 C 0.80154 0.2003 0.0246 0.0
C31 C 0.82503 0.18039 0.03003 0.0
C32 C 0.83569 0.16968 0.99038 0.0
H33 H 0.29497 0.3285 0.41778 0.0
H34 H 0.3556 0.38007 0.51278 0.0
H35 H 0.29895 0.31849 0.56473 0.0
N36 N 0.27185 0.29971 0.48017 0.0
N37 N 0.26398 0.28456 0.51113 0.0
C38 C 0.3042 0.33491 0.45286 0.0
C39 C 0.32663 0.35592 0.46065 0.0
C40 C 0.29424 0.32118 0.49 0.0
C41 C 0.30665 0.32883 0.53575 0.0
C42 C 0.32859 0.35034 0.54418 0.0
C43 C 0.33845 0.36371 0.50644 0.0
O44 O 0.00743 0.0426 0.63643 0.0
Mg45 Mg 0.04066 0.03615 0.59407 0.0
O46 O 0.97428 0.03872 0.5743 0.0
Mg47 Mg 0.00381 0.01514 0.52739 0.0
O48 O 0.03842 0.05459 0.53029 0.0
O49 O 0.06352 0.07332 0.59643 0.0
O50 O 0.03715 0.99349 0.48103 0.0
O51 O 0.97991 0.04254 0.46624 0.0
Mg52 Mg 0.98329 0.9764 0.46422 0.0
O53 O 0.96506 0.9799 0.52375 0.0
O54 O 0.02001 0.94951 0.46696 0.0
O55 O 0.97445 0.00832 0.41236 0.0
O56 O 0.94709 0.95192 0.46195 0.0
C57 C 0.05218 0.98063 0.60773 0.0
C58 C 0.98101 0.045 0.6172 0.0
C59 C 0.05614 0.07414 0.55213 0.0
C60 C 0.04085 0.96728 0.46807 0.0
C61 C 0.97233 0.03477 0.42402 0.0
C62 C 0.94598 0.96094 0.50365 0.0
O63 O 0.06981 0.00137 0.60663 0.0
O64 O 0.0256 0.98359 0.58812 0.0
O65 O 0.57025 0.53471 0.13446 0.0
Mg66 Mg 0.5477 0.49634 0.11504 0.0
O67 O 0.52754 0.55233 0.10436 0.0
Mg68 Mg 0.50632 0.51823 0.04586 0.0
O69 O 0.54479 0.483 0.04729 0.0
O70 O 0.57698 0.46545 0.10626 0.0
O71 O 0.48309 0.48694 0.98707 0.0
O72 O 0.53587 0.54148 0.99645 0.0
Mg73 Mg 0.4799 0.5528 0.98057 0.0
O74 O 0.46559 0.55089 0.04375 0.0
O75 O 0.47295 0.5184 0.93127 0.0
O76 O 0.51364 0.58225 0.97598 0.0
O77 O 0.44172 0.57368 0.98144 0.0
C78 C 0.48835 0.48219 0.13596 0.0
C79 C 0.55258 0.55567 0.12954 0.0
C80 C 0.56667 0.46591 0.0627 0.0
C81 C 0.47392 0.49241 0.9447 0.0
C82 C 0.53631 0.56668 0.97889 0.0
C83 C 0.44413 0.56734 0.02465 0.0
O84 O 0.51532 0.48146 0.15304 0.0
O85 O 0.48038 0.49364 0.09657 0.0
H86 H 0.24848 0.24767 0.57142 0.0
H87 H 0.20967 0.21054 0.55747 0.0
H88 H 0.1895 0.23647 0.41501 0.0
H89 H 0.2284 0.27354 0.42887 0.0
H90 H 0.13942 0.23106 0.46379 0.0
H91 H 0.21055 0.13344 0.48065 0.0
H92 H 0.21963 0.1595 0.52713 0.0
H93 H 0.22407 0.16906 0.46915 0.0
C94 C 0.23582 0.24521 0.53715 0.0
C95 C 0.24149 0.26321 0.50138 0.0
C96 C 0.21383 0.224 0.5291 0.0
C97 C 0.19705 0.22049 0.48501 0.0
C98 C 0.20241 0.23869 0.44913 0.0
H99 H 0.07587 0.07079 0.46807 0.0
H100 H 0.10667 0.10716 0.43694 0.0
C101 C 0.22462 0.25981 0.45711 0.0
C102 C 0.17316 0.19853 0.4775 0.0
H103 H 0.16016 0.12641 0.49089 0.0
C104 C 0.1439 0.20809 0.4687 0.0
C105 C 0.17904 0.16853 0.48304 0.0
C106 C 0.21004 0.15692 0.49006 0.0
C107 C 0.1204 0.18864 0.46901 0.0
C108 C 0.1264 0.15903 0.47862 0.0
C109 C 0.15556 0.14914 0.48369 0.0
C110 C 0.10368 0.13914 0.49126 0.0
C111 C 0.08938 0.20014 0.46092 0.0
C112 C 0.09148 0.1453 0.53149 0.0
C113 C 0.0744 0.12462 0.5494 0.0
C114 C 0.06895 0.09739 0.52732 0.0
C115 C 0.07954 0.09177 0.48542 0.0
C116 C 0.09717 0.11243 0.46778 0.0
H117 H 0.08773 0.21986 0.43926 0.0
H118 H 0.07373 0.18347 0.44382 0.0
H119 H 0.0827 0.20625 0.49474 0.0
H120 H 0.09664 0.16548 0.55068 0.0
H121 H 0.0665 0.12948 0.5818 0.0
H122 H 0.26003 0.74385 0.18453 0.0
H123 H 0.29723 0.70502 0.18912 0.0
H124 H 0.30871 0.72096 0.04792 0.0
H125 H 0.27169 0.7594 0.0432 0.0
H126 H 0.29568 0.65372 0.12828 0.0
H127 H 0.39355 0.72321 0.12334 0.0
H128 H 0.35968 0.73714 0.13935 0.0
H129 H 0.36301 0.73126 0.07937 0.0
C130 C 0.27068 0.739 0.15469 0.0
C131 C 0.26302 0.75451 0.11372 0.0
C132 C 0.29182 0.71692 0.15729 0.0
C133 C 0.30594 0.7104 0.11904 0.0
C134 C 0.29838 0.72597 0.07805 0.0
H135 H 0.38637 0.57625 0.99556 0.0
H136 H 0.35325 0.60747 0.03173 0.0
C137 C 0.27711 0.74782 0.07532 0.0
C138 C 0.32784 0.68663 0.12085 0.0
H139 H 0.39833 0.67274 0.10394 0.0
C140 C 0.3183 0.65785 0.12389 0.0
C141 C 0.35743 0.69208 0.1159 0.0
C142 C 0.36919 0.72261 0.11474 0.0
C143 C 0.33707 0.63431 0.11871 0.0
C144 C 0.36599 0.63977 0.11009 0.0
C145 C 0.37613 0.66856 0.11044 0.0
C146 C 0.38442 0.61654 0.09359 0.0
C147 C 0.3255 0.60379 0.12084 0.0
C148 C 0.41288 0.61075 0.11676 0.0
C149 C 0.43187 0.59249 0.0962 0.0
C150 C 0.42279 0.58048 0.05178 0.0
C151 C 0.39387 0.58519 0.02988 0.0
C152 C 0.37486 0.60293 0.05064 0.0
H153 H 0.3074 0.60297 0.142 0.0
H154 H 0.31661 0.59604 0.08527 0.0
H155 H 0.34322 0.58871 0.13555 0.0
H156 H 0.42076 0.6213 0.14974 0.0
H157 H 0.4542 0.58946 0.11349 0.0
H158 H 0.74158 0.80373 0.51176 0.0
H159 H 0.77896 0.84228 0.52072 0.0
H160 H 0.80088 0.8232 0.66592 0.0
H161 H 0.76352 0.7845 0.65691 0.0
H162 H 0.78416 0.89247 0.58371 0.0
H163 H 0.8804 0.81769 0.61373 0.0
H164 H 0.84429 0.80495 0.5885 0.0
H165 H 0.85186 0.81396 0.64912 0.0
C166 C 0.75438 0.80792 0.54552 0.0
C167 C 0.74978 0.79126 0.58338 0.0
C168 C 0.7756 0.82989 0.55069 0.0
C169 C 0.79278 0.83545 0.59392 0.0
C170 C 0.78803 0.81904 0.6322 0.0
H171 H 0.94718 0.95103 0.59671 0.0
H172 H 0.90965 0.92479 0.63211 0.0
C173 C 0.76665 0.79704 0.62702 0.0
C174 C 0.81592 0.85813 0.59781 0.0
H175 H 0.88997 0.86675 0.60164 0.0
C176 C 0.80735 0.88698 0.58864 0.0
C177 C 0.84616 0.85098 0.60477 0.0
C178 C 0.85645 0.82023 0.61441 0.0
C179 C 0.82811 0.9085 0.58332 0.0
C180 C 0.8581 0.90084 0.58652 0.0
C181 C 0.86694 0.87254 0.59929 0.0
C182 C 0.87938 0.91988 0.56803 0.0
C183 C 0.81763 0.93898 0.57208 0.0
C184 C 0.87466 0.92584 0.52061 0.0
C185 C 0.89595 0.94029 0.50052 0.0
C186 C 0.92247 0.94928 0.52739 0.0
C187 C 0.92682 0.94449 0.57535 0.0
C188 C 0.9055 0.92949 0.59549 0.0
H189 H 0.79701 0.94378 0.5862 0.0
H190 H 0.83457 0.95532 0.58612 0.0
H191 H 0.81295 0.94122 0.5339 0.0
H192 H 0.85495 0.91818 0.49862 0.0
H193 H 0.89195 0.94377 0.4635 0.0
H194 H 0.72986 0.26736 0.07091 0.0
H195 H 0.69078 0.30403 0.0603 0.0
H196 H 0.68666 0.29621 0.91207 0.0
H197 H 0.72601 0.2599 0.9227 0.0
H198 H 0.68856 0.35263 0.94122 0.0
H199 H 0.60315 0.29475 0.01819 0.0
H200 H 0.63736 0.29582 0.0569 0.0
H201 H 0.63501 0.27652 0.00227 0.0
C202 C 0.72034 0.27337 0.03616 0.0
C203 C 0.73083 0.26081 0.99788 0.0
C204 C 0.69791 0.29409 0.03003 0.0
C205 C 0.68534 0.30246 0.98532 0.0
C206 C 0.69582 0.28989 0.94684 0.0
H207 H 0.54084 0.42711 0.99621 0.0
H208 H 0.5663 0.38711 0.96142 0.0
C209 C 0.71831 0.26916 0.95298 0.0
C210 C 0.66267 0.32567 0.97929 0.0
H211 H 0.59906 0.34725 0.01637 0.0
C212 C 0.66867 0.35122 0.95679 0.0
C213 C 0.6363 0.32366 -0.00153 0.0
C214 C 0.6274 0.29606 0.01984 0.0
C215 C 0.65026 0.37561 0.95643 0.0
C216 C 0.62549 0.37455 0.97976 0.0
C217 C 0.61818 0.34822 -0.00119 0.0
C218 C 0.61001 0.40132 0.9917 0.0
C219 C 0.65811 0.40265 0.93248 0.0
C220 C 0.6261 0.42285 0.01919 0.0
C221 C 0.6117 0.4453 0.03904 0.0
C222 C 0.58089 0.44686 0.03172 0.0
C223 C 0.56466 0.42656 0.0017 0.0
C224 C 0.57917 0.40368 0.98214 0.0
H225 H 0.66962 0.39706 0.90272 0.0
H226 H 0.63829 0.41571 0.91984 0.0
H227 H 0.67328 0.41622 0.95724 0.0
H228 H 0.64978 0.42121 0.02803 0.0
H229 H 0.62464 0.46058 0.06241 0.0
H230 H 0.2119 0.85731 0.19367 0.0
H231 H 0.19523 0.8777 0.26309 0.0
H232 H 0.10682 0.88298 0.18929 0.0
H233 H 0.12279 0.86094 0.12097 0.0
H234 H 0.17083 0.9289 0.28031 0.0
H235 H 0.09285 0.84083 0.30258 0.0
H236 H 0.11906 0.83756 0.26275 0.0
H237 H 0.08468 0.85616 0.24612 0.0
C238 C 0.18879 0.86228 0.19244 0.0
C239 C 0.16869 0.85723 0.15164 0.0
C240 C 0.17936 0.87424 0.23205 0.0
C241 C 0.14967 0.88142 0.23171 0.0
C242 C 0.12971 0.87699 0.19081 0.0
H243 H 0.06644 -0.00248 0.40544 0.0
H244 H 0.09824 0.97722 0.35303 0.0
C245 C 0.13901 0.86474 0.15144 0.0
C246 C 0.13943 0.89376 0.27382 0.0
H247 H 0.08676 0.88558 0.343 0.0
C248 C 0.15268 0.91926 0.29447 0.0
C249 C 0.11622 0.88086 0.29302 0.0
C250 C 0.10262 0.85217 0.27526 0.0
C251 C 0.14254 0.93281 0.33259 0.0
C252 C 0.11796 0.92098 0.34966 0.0
C253 C 0.10547 0.89491 0.32994 0.0
C254 C 0.10377 0.93547 0.38655 0.0
C255 C 0.15848 0.95947 0.35425 0.0
C256 C 0.0965 0.91908 0.42339 0.0
C257 C 0.07766 0.9304 0.45241 0.0
C258 C 0.06626 0.95857 0.44588 0.0
C259 C 0.07541 0.97591 0.41165 0.0
C260 C 0.09369 0.9643 0.38174 0.0
H261 H 0.18195 0.95926 0.34929 0.0
H262 H 0.14823 0.97912 0.33718 0.0
H263 H 0.15741 0.96122 0.39191 0.0
H264 H 0.10403 0.89686 0.42804 0.0
H265 H 0.07079 0.9166 0.4785 0.0
H266 H 0.67248 0.63345 0.64225 0.0
H267 H 0.65824 0.60694 0.70744 0.0
H268 H 0.6439 0.68829 0.77619 0.0
H269 H 0.659 0.71483 0.71174 0.0
H270 H 0.67065 0.64947 0.83673 0.0
H271 H 0.57451 0.59735 0.72789 0.0
H272 H 0.60906 0.58935 0.70918 0.0
H273 H 0.59536 0.62602 0.7068 0.0
C274 C 0.6663 0.64562 0.67135 0.0
C275 C 0.66657 0.67617 0.67183 0.0
C276 C 0.65809 0.63047 0.70847 0.0
C277 C 0.64938 0.64562 0.74627 0.0
C278 C 0.65045 0.67614 0.74735 0.0
H279 H 0.55223 0.62215 0.96432 0.0
H280 H 0.58598 0.63824 0.91286 0.0
C281 C 0.65906 0.69128 0.71055 0.0
C282 C 0.63828 0.62989 0.78414 0.0
H283 H 0.58331 0.58485 0.80652 0.0
C284 C 0.65168 0.63518 0.83007 0.0
C285 C 0.61349 0.61121 0.77547 0.0
C286 C 0.59707 0.6058 0.72725 0.0
C287 C 0.64056 0.62282 0.86752 0.0
C288 C 0.6155 0.60471 0.85877 0.0
C289 C 0.60276 0.59852 0.81294 0.0
C290 C 0.59981 0.59487 0.89635 0.0
C291 C 0.65528 0.6296 0.91624 0.0
C292 C 0.59692 0.56515 0.90485 0.0
C293 C 0.57785 0.55587 0.93478 0.0
C294 C 0.56091 0.57622 0.9556 0.0
C295 C 0.56498 0.606 0.94868 0.0
C296 C 0.58434 0.61524 0.91947 0.0
H297 H 0.67804 0.63786 0.91698 0.0
H298 H 0.64245 0.64657 0.93175 0.0
H299 H 0.65596 0.61001 0.93806 0.0
H300 H 0.60852 0.54912 0.88692 0.0
H301 H 0.57496 0.53278 0.93922 0.0
H302 H 0.83962 0.21271 0.11058 0.0
H303 H 0.86597 0.19599 0.18511 0.0
H304 H 0.86788 0.10895 0.12874 0.0
H305 H 0.84115 0.12513 0.05502 0.0
H306 H 0.85071 0.14362 0.24363 0.0
H307 H 0.95679 0.13627 0.17537 0.0
H308 H 0.92692 0.15925 0.15008 0.0
H309 H 0.92559 0.12078 0.13842 0.0
C310 C 0.84525 0.18993 0.11435 0.0
C311 C 0.83864 0.17033 0.07662 0.0
C312 C 0.8604 0.18047 0.15683 0.0
C313 C 0.86921 0.15136 0.16205 0.0
C314 C 0.86164 0.13161 0.12511 0.0
H315 H 0.95739 0.02465 0.33134 0.0
H316 H 0.93396 0.05764 0.27285 0.0
C317 C 0.84648 0.14094 0.08294 0.0
C318 C 0.88705 0.14122 0.20533 0.0
H319 H 0.9538 0.11132 0.24529 0.0
C320 C 0.87345 0.13708 0.24457 0.0
C321 C 0.91668 0.13281 0.20624 0.0
C322 C 0.93254 0.13767 0.16545 0.0
C323 C 0.8882 0.12296 0.28375 0.0
C324 C 0.91739 0.11318 0.28368 0.0
C325 C 0.93143 0.11879 0.2453 0.0
C326 C 0.93252 0.09407 0.32026 0.0
C327 C 0.87191 0.11701 0.32369 0.0
C328 C 0.93998 0.1037 0.36647 0.0
C329 C 0.9535 0.08473 0.40037 0.0
C330 C 0.95977 0.05586 0.38848 0.0
C331 C 0.95282 0.04665 0.34192 0.0
C332 C 0.93942 0.06553 0.30829 0.0
H333 H 0.8481 0.12209 0.31532 0.0
H334 H 0.87436 0.09387 0.33373 0.0
H335 H 0.88138 0.13059 0.35408 0.0
H336 H 0.93528 0.12581 0.37632 0.0
H337 H 0.95864 0.09254 0.43587 0.0
H338 H 0.35005 0.31498 0.61601 0.0
H339 H 0.37437 0.32984 0.69377 0.0
H340 H 0.36073 0.41984 0.65795 0.0
H341 H 0.33664 0.40521 0.58044 0.0
H342 H 0.4267 0.36999 0.71031 0.0
H343 H 0.33023 0.4095 0.7866 0.0
H344 H 0.32705 0.38361 0.73878 0.0
H345 H 0.33194 0.42159 0.72884 0.0
C346 C 0.35192 0.33791 0.62504 0.0
C347 C 0.34151 0.35897 0.59221 0.0
C348 C 0.36587 0.34634 0.6693 0.0
C349 C 0.36908 0.37591 0.68163 0.0
C350 C 0.35817 0.39691 0.64924 0.0
H351 H 0.4739 0.49294 0.85203 0.0
H352 H 0.45049 0.45831 0.79372 0.0
C353 C 0.3446 0.38854 0.60493 0.0
C354 C 0.38531 0.38526 0.72724 0.0
H355 H 0.37759 0.42541 0.82404 0.0
C356 C 0.41593 0.38157 0.73568 0.0
C357 C 0.37118 0.40017 0.76038 0.0
C358 C 0.33824 0.40381 0.75357 0.0
C359 C 0.43299 0.3941 0.77507 0.0
C360 C 0.41903 0.41063 0.80665 0.0
C361 C 0.38824 0.4127 0.79975 0.0
C362 C 0.43606 0.42921 0.84312 0.0
C363 C 0.46594 0.39057 0.7818 0.0
C364 C 0.43598 0.42413 0.89039 0.0
C365 C 0.44975 0.44382 0.92409 0.0
C366 C 0.46309 0.46917 0.91072 0.0
C367 C 0.46372 0.47366 0.8634 0.0
C368 C 0.45046 0.45384 0.83001 0.0
H369 H 0.47261 0.37164 0.7617 0.0
H370 H 0.47601 0.4104 0.76975 0.0
H371 H 0.47483 0.38783 0.819 0.0
H372 H 0.42475 0.4053 0.90108 0.0
H373 H 0.44877 0.43994 0.96029 0.0
H374 H 0.69315 0.69258 0.47071 0.0
H375 H 0.67026 0.67582 0.39355 0.0
H376 H 0.58611 0.6712 0.44088 0.0
H377 H 0.60881 0.68814 0.51817 0.0
H378 H 0.63748 0.6198 0.38108 0.0
H379 H 0.57108 0.71509 0.31247 0.0
H380 H 0.60292 0.71869 0.35686 0.0
H381 H 0.56916 0.70454 0.37104 0.0
C382 C 0.66968 0.6885 0.46448 0.0
C383 C 0.65279 0.69162 0.50052 0.0
C384 C 0.65667 0.67889 0.42044 0.0
C385 C 0.62647 0.67262 0.41146 0.0
C386 C 0.60938 0.67634 0.44699 0.0
H387 H 0.51676 0.58633 0.1794 0.0
H388 H 0.53351 0.61873 0.24604 0.0
C389 C 0.62242 0.68572 0.49118 0.0
C390 C 0.61353 0.65953 0.36629 0.0
H391 H 0.56624 0.67196 0.26645 0.0
C392 C 0.622 0.63123 0.35592 0.0
C393 C 0.59302 0.6744 0.33399 0.0
C394 C 0.5835 0.70494 0.34374 0.0
C395 C 0.61047 0.61725 0.3141 0.0
C396 C 0.59056 0.63235 0.28102 0.0
C397 C 0.5817 0.66057 0.29164 0.0
C398 C 0.57907 0.61875 0.23543 0.0
C399 C 0.61931 0.58616 0.30618 0.0
C400 C 0.59875 0.60964 0.20585 0.0
C401 C 0.58934 0.59099 0.1684 0.0
C402 C 0.55993 0.58169 0.15919 0.0
C403 C 0.53951 0.59337 0.18564 0.0
C404 C 0.54909 0.61174 0.2238 0.0
H405 H 0.62791 0.5754 0.33925 0.0
H406 H 0.60045 0.57325 0.28818 0.0
H407 H 0.637 0.58584 0.28424 0.0
H408 H 0.62184 0.61535 0.21362 0.0
H409 H 0.60546 0.58236 0.14835 0.0
H410 H 0.79168 0.15484 0.86624 0.0
H411 H 0.81134 0.13222 0.80056 0.0
H412 H 0.8996 0.15138 0.86709 0.0
H413 H 0.8802 0.17408 0.93255 0.0
H414 H 0.88334 0.1648 0.7647 0.0
H415 H 0.8592 0.0521 0.81561 0.0
H416 H 0.83062 0.07908 0.81324 0.0
H417 H 0.86252 0.08216 0.85669 0.0
C418 C 0.81525 0.15452 0.86652 0.0
C419 C 0.83444 0.16603 0.90462 0.0
C420 C 0.82641 0.14149 0.82918 0.0
C421 C 0.85688 0.14001 0.82928 0.0
C422 C 0.87601 0.15228 0.86653 0.0
H423 H 0.98616 0.04985 0.71103 0.0
H424 H 0.95157 0.07196 0.75679 0.0
C425 C 0.86492 0.16507 0.90395 0.0
C426 C 0.86921 0.12482 0.79156 0.0
H427 H 0.8857 0.05709 0.75343 0.0
C428 C 0.88343 0.14127 0.76155 0.0
C429 C 0.86938 0.09414 0.78799 0.0
C430 C 0.85476 0.07563 0.82009 0.0
C431 C 0.89861 0.12775 0.72881 0.0
C432 C 0.89957 0.09707 0.72625 0.0
C433 C 0.88462 0.08062 0.75532 0.0
C434 C 0.91897 0.08187 0.69774 0.0
C435 C 0.91478 0.1462 0.69866 0.0
C436 C 0.91175 0.07968 0.64937 0.0
C437 C 0.93146 0.06682 0.62294 0.0
C438 C 0.95876 0.05628 0.64461 0.0
C439 C 0.96543 0.05792 0.6932 0.0
C440 C 0.94568 0.07047 0.71947 0.0
H441 H 0.91314 0.16978 0.70666 0.0
H442 H 0.93836 0.14 0.70325 0.0
H443 H 0.90555 0.14226 0.66171 0.0
H444 H 0.89112 0.08831 0.63211 0.0
H445 H 0.92571 0.06588 0.58558 0.0
H446 H 0.29619 0.37662 0.37956 0.0
H447 H 0.31666 0.39714 0.31413 0.0
H448 H 0.40437 0.38518 0.38753 0.0
H449 H 0.38424 0.36439 0.45243 0.0
H450 H 0.35667 0.44696 0.31586 0.0
H451 H 0.40435 0.34421 0.25922 0.0
H452 H 0.37587 0.34506 0.29554 0.0
H453 H 0.41355 0.35179 0.32024 0.0
C454 C 0.31984 0.37822 0.38154 0.0
C455 C 0.33862 0.36889 0.42114 0.0
C456 C 0.33146 0.39005 0.34429 0.0
C457 C 0.362 0.39232 0.34585 0.0
C458 C 0.38073 0.38326 0.38544 0.0
H459 H 0.49947 0.45496 0.21871 0.0
H460 H 0.46448 0.4336 0.26298 0.0
C461 C 0.36919 0.37164 0.42268 0.0
C462 C 0.37473 0.40448 0.30665 0.0
H463 H 0.4231 0.38829 0.23229 0.0
C464 C 0.37074 0.4341 0.29682 0.0
C465 C 0.39287 0.38752 0.28178 0.0
C466 C 0.39675 0.35531 0.28933 0.0
C467 C 0.38611 0.44765 0.26491 0.0
C468 C 0.40558 0.43098 0.24203 0.0
C469 C 0.40823 0.40104 0.25003 0.0
C470 C 0.42605 0.44458 0.21411 0.0
C471 C 0.38281 0.47995 0.25789 0.0
C472 C 0.41602 0.45786 0.17169 0.0
C473 C 0.43612 0.47023 0.14598 0.0
C474 C 0.46652 0.46942 0.16238 0.0
C475 C 0.47628 0.45605 0.20491 0.0
C476 C 0.45629 0.44374 0.23034 0.0
H477 H 0.36967 0.49033 0.2826 0.0
H478 H 0.40475 0.49057 0.262 0.0
H479 H 0.37165 0.48399 0.22215 0.0
H480 H 0.39274 0.45842 0.15833 0.0
H481 H 0.4279 0.48032 0.11335 0.0
H482 H 0.16248 0.8116 0.94316 0.0
H483 H 0.14181 0.82942 0.86677 0.0
H484 H 0.13648 0.91577 0.92464 0.0
H485 H 0.15904 0.89871 0.00017 0.0
H486 H 0.09053 0.85335 0.83388 0.0
H487 H 0.17868 0.93251 0.81856 0.0
H488 H 0.18209 0.90595 0.8637 0.0
H489 H 0.16261 0.93945 0.8698 0.0
C490 C 0.15748 0.83452 0.93954 0.0
C491 C 0.16275 0.8537 0.97805 0.0
C492 C 0.14533 0.84461 0.89585 0.0
C493 C 0.13806 0.87406 0.88966 0.0
C494 C 0.14258 0.8931 0.92818 0.0
H495 H 0.02118 0.95543 0.66901 0.0
H496 H 0.04143 0.92511 0.7342 0.0
C497 C 0.1551 0.88315 0.97167 0.0
C498 C 0.12559 0.88495 0.84311 0.0
H499 H 0.13383 0.93819 0.76632 0.0
C500 C 0.10016 0.87171 0.8188 0.0
C501 C 0.13846 0.90848 0.82285 0.0
C502 C 0.16714 0.92219 0.84487 0.0
C503 C 0.08676 0.88197 0.77557 0.0
C504 C 0.09859 0.90671 0.75679 0.0
C505 C 0.12449 0.91936 0.78061 0.0
C506 C 0.08447 0.92058 0.71326 0.0
C507 C 0.06033 0.8659 0.75039 0.0
C508 C 0.10165 0.92804 0.67931 0.0
C509 C 0.09033 0.94602 0.64288 0.0
C510 C 0.06139 0.95641 0.63902 0.0
C511 C 0.04341 0.94724 0.67079 0.0
C512 C 0.05499 0.92981 0.70804 0.0
H513 H 0.06067 0.84266 0.76019 0.0
H514 H 0.04005 0.8757 0.76013 0.0
H515 H 0.05925 0.86707 0.71224 0.0
H516 H 0.12438 0.92117 0.68232 0.0
H517 H 0.10463 0.9529 0.61885 0.0
loop_
_geom_bond_atom_site_label_1
_geom_bond_atom_site_label_2
_geom_bond_distance
_geom_bond_site_symmetry_2
_ccdc_geom_bond_type
H0 C5 0.929 1_556 S
H1 C10 0.931 . S
H2 C8 0.930 . S
N3 N4 1.234 . S
N3 C7 1.453 . S
N4 N3 1.234 . S
C5 H0 0.929 1_554 S
C5 C6 1.373 . S
C5 C7 1.368 . S
C6 C5 1.373 . S
C6 C10 1.397 . S
C7 N3 1.453 . S
C7 C5 1.368 . S
C7 C8 1.373 . S
C8 H2 0.930 . S
C8 C7 1.373 . S
C8 C9 1.371 . S
C9 C8 1.371 . S
C9 C10 1.383 . S
C10 H1 0.931 . S
C10 C6 1.397 . S
C10 C9 1.383 . S
H11 C16 0.929 . S
H12 C21 0.931 . S
H13 C19 0.930 . S
N14 N15 1.234 . S
N14 C18 1.453 . S
N15 N14 1.234 . S
C16 H11 0.929 . S
C16 C17 1.373 . S
C16 C18 1.368 . S
C17 C16 1.373 . S
C17 C21 1.397 . S
C18 N14 1.453 . S
C18 C16 1.368 . S
C18 C19 1.373 . S
C19 H13 0.930 . S
C19 C18 1.373 . S
C19 C20 1.371 . S
C20 C19 1.371 . S
C20 C21 1.383 . S
C21 H12 0.931 . S
C21 C17 1.397 . S
C21 C20 1.383 . S
H22 C27 0.929 . S
H23 C32 0.931 . S
H24 C30 0.930 . S
N25 N26 1.234 1_556 S
N25 C29 1.453 . S
N26 N25 1.234 1_554 S
C27 H22 0.929 . S
C27 C28 1.373 . S
C27 C29 1.368 . S
C28 C27 1.373 . S
C28 C32 1.397 1_556 S
C29 N25 1.453 . S
C29 C27 1.368 . S
C29 C30 1.373 1_556 S
C30 H24 0.930 . S
C30 C29 1.373 1_554 S
C30 C31 1.371 . S
C31 C30 1.371 . S
C31 C32 1.383 . S
C32 H23 0.931 . S
C32 C28 1.397 1_554 S
C32 C31 1.383 . S
H33 C38 0.929 . S
H34 C43 0.931 . S
H35 C41 0.930 . S
N36 N37 1.234 . S
N36 C40 1.453 . S
N37 N36 1.234 . S
C38 H33 0.929 . S
C38 C39 1.373 . S
C38 C40 1.368 . S
C39 C38 1.373 . S
C39 C43 1.397 . S
C40 N36 1.453 . S
C40 C38 1.368 . S
C40 C41 1.373 . S
C41 H35 0.930 . S
C41 C40 1.373 . S
C41 C42 1.371 . S
C42 C41 1.371 . S
C42 C43 1.383 . S
C43 H34 0.931 . S
C43 C39 1.397 . S
C43 C42 1.383 . S
O44 Mg45 1.990 . S
O44 C58 1.253 1_455 S
Mg45 O44 1.990 . S
Mg45 O48 2.180 . S
Mg45 O49 2.117 . S
Mg45 O63 2.030 . S
O46 Mg47 2.072 1_655 S
O46 C58 1.260 . S
Mg47 O46 2.072 1_455 S
Mg47 O48 2.099 . S
Mg47 O50 2.079 1_545 S
Mg47 O51 2.072 1_455 S
Mg47 O53 2.099 1_445 S
Mg47 O64 2.079 1_545 S
O48 Mg45 2.180 . S
O48 Mg47 2.099 . S
O48 C59 1.279 . S
O49 Mg45 2.117 . S
O49 C59 1.250 . S
O50 Mg47 2.079 1_565 S
O50 C60 1.264 . S
O51 Mg47 2.072 1_655 S
O51 C61 1.260 . S
Mg52 O53 2.180 . S
Mg52 O54 2.030 1_655 S
Mg52 O55 1.990 1_565 S
Mg52 O56 2.117 . S
O53 Mg47 2.099 1_665 S
O53 Mg52 2.180 . S
O53 C62 1.279 . S
O54 Mg52 2.030 1_455 S
O54 C60 1.248 . S
O55 Mg52 1.990 1_545 S
O55 C61 1.253 . S
O56 Mg52 2.117 . S
O56 C62 1.250 . S
C57 O63 1.248 1_565 S
C57 O64 1.264 . S
C58 O44 1.253 1_655 S
C58 O46 1.260 . S
C59 O48 1.279 . S
C59 O49 1.250 . S
C60 O50 1.264 . S
C60 O54 1.248 . S
C61 O51 1.260 . S
C61 O55 1.253 . S
C62 O53 1.279 . S
C62 O56 1.250 . S
O63 Mg45 2.030 . S
O63 C57 1.248 1_545 S
O64 Mg47 2.079 1_565 S
O64 C57 1.264 . S
O65 Mg66 1.990 . S
O65 C79 1.253 . S
Mg66 O65 1.990 . S
Mg66 O69 2.180 . S
Mg66 O70 2.117 . S
Mg66 O84 2.030 . S
O67 Mg68 2.072 . S
O67 C79 1.260 . S
Mg68 O67 2.072 . S
Mg68 O69 2.099 . S
Mg68 O71 2.079 1_554 S
Mg68 O72 2.072 . S
Mg68 O74 2.099 . S
Mg68 O85 2.079 . S
O69 Mg66 2.180 . S
O69 Mg68 2.099 . S
O69 C80 1.279 . S
O70 Mg66 2.117 . S
O70 C80 1.250 . S
O71 Mg68 2.079 1_556 S
O71 C81 1.264 . S
O72 Mg68 2.072 . S
O72 C82 1.260 1_554 S
Mg73 O74 2.180 1_556 S
Mg73 O75 2.030 . S
Mg73 O76 1.990 . S
Mg73 O77 2.117 1_556 S
O74 Mg68 2.099 . S
O74 Mg73 2.180 1_554 S
O74 C83 1.279 . S
O75 Mg73 2.030 . S
O75 C81 1.248 . S
O76 Mg73 1.990 . S
O76 C82 1.253 . S
O77 Mg73 2.117 1_554 S
O77 C83 1.250 . S
C78 O84 1.248 . S
C78 O85 1.264 . S
C79 O65 1.253 . S
C79 O67 1.260 . S
C80 O69 1.279 . S
C80 O70 1.250 . S
C81 O71 1.264 . S
C81 O75 1.248 . S
C82 O72 1.260 1_556 S
C82 O76 1.253 . S
C83 O74 1.279 . S
C83 O77 1.250 . S
O84 Mg66 2.030 . S
O84 C78 1.248 . S
O85 Mg68 2.079 . S
O85 C78 1.264 . S
H86 C94 0.929 . S
H87 C96 0.930 . S
H88 C98 0.930 . S
H89 C101 0.929 . S
H90 C104 0.930 . S
H91 C106 0.960 . S
H92 C106 0.960 . S
H93 C106 0.960 . S
C94 H86 0.929 . S
C94 C95 1.377 . S
C94 C96 1.384 . S
C95 C94 1.377 . S
C95 C101 1.390 . S
C96 H87 0.930 . S
C96 C94 1.384 . S
C96 C97 1.372 . S
C97 C96 1.372 . S
C97 C98 1.400 . S
C97 C102 1.490 . S
C98 H88 0.930 . S
C98 C97 1.400 . S
C98 C101 1.386 . S
H99 C115 0.930 . S
H100 C116 0.931 . S
C101 H89 0.929 . S
C101 C95 1.390 . S
C101 C98 1.386 . S
C102 C97 1.490 . S
C102 C104 1.395 . S
C102 C105 1.403 . S
H103 C109 0.930 . S
C104 H90 0.930 . S
C104 C102 1.395 . S
C104 C107 1.403 . S
C105 C102 1.403 . S
C105 C106 1.524 . S
C105 C109 1.400 . S
C106 H91 0.960 . S
C106 H92 0.960 . S
C106 H93 0.960 . S
C106 C105 1.524 . S
C107 C104 1.403 . S
C107 C108 1.392 . S
C107 C111 1.495 . S
C108 C107 1.392 . S
C108 C109 1.385 . S
C108 C110 1.478 . S
C109 H103 0.930 . S
C109 C105 1.400 . S
C109 C108 1.385 . S
C110 C108 1.478 . S
C110 C112 1.381 . S
C110 C116 1.383 . S
C111 C107 1.495 . S
C111 H117 0.959 . S
C111 H118 0.961 . S
C111 H119 0.960 . S
C112 C110 1.381 . S
C112 C113 1.394 . S
C112 H120 0.930 . S
C113 C112 1.394 . S
C113 C114 1.383 . S
C113 H121 0.929 . S
C114 C113 1.383 . S
C114 C115 1.377 . S
C115 H99 0.930 . S
C115 C114 1.377 . S
C115 C116 1.379 . S
C116 H100 0.931 . S
C116 C110 1.383 . S
C116 C115 1.379 . S
H117 C111 0.959 . S
H118 C111 0.961 . S
H119 C111 0.960 . S
H120 C112 0.930 . S
H121 C113 0.929 . S
H122 C130 0.929 . S
H123 C132 0.930 . S
H124 C134 0.930 . S
H125 C137 0.929 . S
H126 C140 0.930 . S
H127 C142 0.960 . S
H128 C142 0.960 . S
H129 C142 0.960 . S
C130 H122 0.929 . S
C130 C131 1.377 . S
C130 C132 1.384 . S
C131 C130 1.377 . S
C131 C137 1.390 . S
C132 H123 0.930 . S
C132 C130 1.384 . S
C132 C133 1.372 . S
C133 C132 1.372 . S
C133 C134 1.400 . S
C133 C138 1.490 . S
C134 H124 0.930 . S
C134 C133 1.400 . S
C134 C137 1.386 . S
H135 C151 0.930 1_556 S
H136 C152 0.931 . S
C137 H125 0.929 . S
C137 C131 1.390 . S
C137 C134 1.386 . S
C138 C133 1.490 . S
C138 C140 1.395 . S
C138 C141 1.403 . S
H139 C145 0.930 . S
C140 H126 0.930 . S
C140 C138 1.395 . S
C140 C143 1.403 . S
C141 C138 1.403 . S
C141 C142 1.524 . S
C141 C145 1.400 . S
C142 H127 0.960 . S
C142 H128 0.960 . S
C142 H129 0.960 . S
C142 C141 1.524 . S
C143 C140 1.403 . S
C143 C144 1.392 . S
C143 C147 1.495 . S
C144 C143 1.392 . S
C144 C145 1.385 . S
C144 C146 1.478 . S
C145 H139 0.930 . S
C145 C141 1.400 . S
C145 C144 1.385 . S
C146 C144 1.478 . S
C146 C148 1.381 . S
C146 C152 1.383 . S
C147 C143 1.495 . S
C147 H153 0.959 . S
C147 H154 0.961 . S
C147 H155 0.960 . S
C148 C146 1.381 . S
C148 C149 1.394 . S
C148 H156 0.930 . S
C149 C148 1.394 . S
C149 C150 1.383 . S
C149 H157 0.929 . S
C150 C149 1.383 . S
C150 C151 1.377 . S
C151 H135 0.930 1_554 S
C151 C150 1.377 . S
C151 C152 1.379 . S
C152 H136 0.931 . S
C152 C146 1.383 . S
C152 C151 1.379 . S
H153 C147 0.959 . S
H154 C147 0.961 . S
H155 C147 0.960 . S
H156 C148 0.930 . S
H157 C149 0.929 . S
H158 C166 0.929 . S
H159 C168 0.930 . S
H160 C170 0.930 . S
H161 C173 0.929 . S
H162 C176 0.930 . S
H163 C178 0.960 . S
H164 C178 0.960 . S
H165 C178 0.960 . S
C166 H158 0.929 . S
C166 C167 1.377 . S
C166 C168 1.384 . S
C167 C166 1.377 . S
C167 C173 1.390 . S
C168 H159 0.930 . S
C168 C166 1.384 . S
C168 C169 1.372 . S
C169 C168 1.372 . S
C169 C170 1.400 . S
C169 C174 1.490 . S
C170 H160 0.930 . S
C170 C169 1.400 . S
C170 C173 1.386 . S
H171 C187 0.930 . S
H172 C188 0.931 . S
C173 H161 0.929 . S
C173 C167 1.390 . S
C173 C170 1.386 . S
C174 C169 1.490 . S
C174 C176 1.395 . S
C174 C177 1.403 . S
H175 C181 0.930 . S
C176 H162 0.930 . S
C176 C174 1.395 . S
C176 C179 1.403 . S
C177 C174 1.403 . S
C177 C178 1.524 . S
C177 C181 1.400 . S
C178 H163 0.960 . S
C178 H164 0.960 . S
C178 H165 0.960 . S
C178 C177 1.524 . S
C179 C176 1.403 . S
C179 C180 1.392 . S
C179 C183 1.495 . S
C180 C179 1.392 . S
C180 C181 1.385 . S
C180 C182 1.478 . S
C181 H175 0.930 . S
C181 C177 1.400 . S
C181 C180 1.385 . S
C182 C180 1.478 . S
C182 C184 1.381 . S
C182 C188 1.383 . S
C183 C179 1.495 . S
C183 H189 0.959 . S
C183 H190 0.961 . S
C183 H191 0.960 . S
C184 C182 1.381 . S
C184 C185 1.394 . S
C184 H192 0.930 . S
C185 C184 1.394 . S
C185 C186 1.383 . S
C185 H193 0.929 . S
C186 C185 1.383 . S
C186 C187 1.377 . S
C187 H171 0.930 . S
C187 C186 1.377 . S
C187 C188 1.379 . S
C188 H172 0.931 . S
C188 C182 1.383 . S
C188 C187 1.379 . S
H189 C183 0.959 . S
H190 C183 0.961 . S
H191 C183 0.960 . S
H192 C184 0.930 . S
H193 C185 0.929 . S
H194 C202 0.929 . S
H195 C204 0.930 . S
H196 C206 0.930 . S
H197 C209 0.929 . S
H198 C212 0.930 . S
H199 C214 0.960 . S
H200 C214 0.960 . S
H201 C214 0.960 . S
C202 H194 0.929 . S
C202 C203 1.377 . S
C202 C204 1.384 . S
C203 C202 1.377 . S
C203 C209 1.390 1_554 S
C204 H195 0.930 . S
C204 C202 1.384 . S
C204 C205 1.372 . S
C205 C204 1.372 . S
C205 C206 1.400 1_554 S
C205 C210 1.490 . S
C206 H196 0.930 . S
C206 C205 1.400 1_556 S
C206 C209 1.386 . S
H207 C223 0.930 . S
H208 C224 0.931 . S
C209 H197 0.929 . S
C209 C203 1.390 1_556 S
C209 C206 1.386 . S
C210 C205 1.490 . S
C210 C212 1.395 . S
C210 C213 1.403 . S
H211 C217 0.930 . S
C212 H198 0.930 . S
C212 C210 1.395 . S
C212 C215 1.403 . S
C213 C210 1.403 . S
C213 C214 1.524 . S
C213 C217 1.400 . S
C214 H199 0.960 . S
C214 H200 0.960 . S
C214 H201 0.960 . S
C214 C213 1.524 . S
C215 C212 1.403 . S
C215 C216 1.392 . S
C215 C219 1.495 . S
C216 C215 1.392 . S
C216 C217 1.385 . S
C216 C218 1.478 . S
C217 H211 0.930 . S
C217 C213 1.400 . S
C217 C216 1.385 . S
C218 C216 1.478 . S
C218 C220 1.381 . S
C218 C224 1.383 1_554 S
C219 C215 1.495 . S
C219 H225 0.959 . S
C219 H226 0.961 1_554 S
C219 H227 0.960 . S
C220 C218 1.381 . S
C220 C221 1.394 . S
C220 H228 0.930 . S
C221 C220 1.394 . S
C221 C222 1.383 . S
C221 H229 0.929 . S
C222 C221 1.383 . S
C222 C223 1.377 1_554 S
C223 H207 0.930 . S
C223 C222 1.377 1_556 S
C223 C224 1.379 . S
C224 H208 0.931 . S
C224 C218 1.383 1_556 S
C224 C223 1.379 . S
H225 C219 0.959 . S
H226 C219 0.961 1_556 S
H227 C219 0.960 . S
H228 C220 0.930 . S
H229 C221 0.929 . S
H230 C238 0.929 . S
H231 C240 0.930 . S
H232 C242 0.930 . S
H233 C245 0.929 . S
H234 C248 0.930 . S
H235 C250 0.960 . S
H236 C250 0.960 . S
H237 C250 0.960 . S
C238 H230 0.929 . S
C238 C239 1.377 . S
C238 C240 1.384 . S
C239 C238 1.377 . S
C239 C245 1.390 . S
C240 H231 0.930 . S
C240 C238 1.384 . S
C240 C241 1.372 . S
C241 C240 1.372 . S
C241 C242 1.400 . S
C241 C246 1.490 . S
C242 H232 0.930 . S
C242 C241 1.400 . S
C242 C245 1.386 . S
H243 C259 0.930 . S
H244 C260 0.931 . S
C245 H233 0.929 . S
C245 C239 1.390 . S
C245 C242 1.386 . S
C246 C241 1.490 . S
C246 C248 1.395 . S
C246 C249 1.403 . S
H247 C253 0.930 . S
C248 H234 0.930 . S
C248 C246 1.395 . S
C248 C251 1.403 . S
C249 C246 1.403 . S
C249 C250 1.524 . S
C249 C253 1.400 . S
C250 H235 0.960 . S
C250 H236 0.960 . S
C250 H237 0.960 . S
C250 C249 1.524 . S
C251 C248 1.403 . S
C251 C252 1.392 . S
C251 C255 1.495 . S
C252 C251 1.392 . S
C252 C253 1.385 . S
C252 C254 1.478 . S
C253 H247 0.930 . S
C253 C249 1.400 . S
C253 C252 1.385 . S
C254 C252 1.478 . S
C254 C256 1.381 . S
C254 C260 1.383 . S
C255 C251 1.495 . S
C255 H261 0.959 . S
C255 H262 0.961 . S
C255 H263 0.960 . S
C256 C254 1.381 . S
C256 C257 1.394 . S
C256 H264 0.930 . S
C257 C256 1.394 . S
C257 C258 1.383 . S
C257 H265 0.929 . S
C258 C257 1.383 . S
C258 C259 1.377 . S
C259 H243 0.930 . S
C259 C258 1.377 . S
C259 C260 1.379 . S
C260 H244 0.931 . S
C260 C254 1.383 . S
C260 C259 1.379 . S
H261 C255 0.959 . S
H262 C255 0.961 . S
H263 C255 0.960 . S
H264 C256 0.930 . S
H265 C257 0.929 . S
H266 C274 0.929 . S
H267 C276 0.930 . S
H268 C278 0.930 . S
H269 C281 0.929 . S
H270 C284 0.930 . S
H271 C286 0.960 . S
H272 C286 0.960 . S
H273 C286 0.960 . S
C274 H266 0.929 . S
C274 C275 1.377 . S
C274 C276 1.384 . S
C275 C274 1.377 . S
C275 C281 1.390 . S
C276 H267 0.930 . S
C276 C274 1.384 . S
C276 C277 1.372 . S
C277 C276 1.372 . S
C277 C278 1.400 . S
C277 C282 1.490 . S
C278 H268 0.930 . S
C278 C277 1.400 . S
C278 C281 1.386 . S
H279 C295 0.930 . S
H280 C296 0.931 . S
C281 H269 0.929 . S
C281 C275 1.390 . S
C281 C278 1.386 . S
C282 C277 1.490 . S
C282 C284 1.395 . S
C282 C285 1.403 . S
H283 C289 0.930 . S
C284 H270 0.930 . S
C284 C282 1.395 . S
C284 C287 1.403 . S
C285 C282 1.403 . S
C285 C286 1.524 . S
C285 C289 1.400 . S
C286 H271 0.960 . S
C286 H272 0.960 . S
C286 H273 0.960 . S
C286 C285 1.524 . S
C287 C284 1.403 . S
C287 C288 1.392 . S
C287 C291 1.495 . S
C288 C287 1.392 . S
C288 C289 1.385 . S
C288 C290 1.478 . S
C289 H283 0.930 . S
C289 C285 1.400 . S
C289 C288 1.385 . S
C290 C288 1.478 . S
C290 C292 1.381 . S
C290 C296 1.383 . S
C291 C287 1.495 . S
C291 H297 0.959 . S
C291 H298 0.961 . S
C291 H299 0.960 . S
C292 C290 1.381 . S
C292 C293 1.394 . S
C292 H300 0.930 . S
C293 C292 1.394 . S
C293 C294 1.383 . S
C293 H301 0.929 . S
C294 C293 1.383 . S
C294 C295 1.377 . S
C295 H279 0.930 . S
C295 C294 1.377 . S
C295 C296 1.379 . S
C296 H280 0.931 . S
C296 C290 1.383 . S
C296 C295 1.379 . S
H297 C291 0.959 . S
H298 C291 0.961 . S
H299 C291 0.960 . S
H300 C292 0.930 . S
H301 C293 0.929 . S
H302 C310 0.929 . S
H303 C312 0.930 . S
H304 C314 0.930 . S
H305 C317 0.929 . S
H306 C320 0.930 . S
H307 C322 0.960 . S
H308 C322 0.960 . S
H309 C322 0.960 . S
C310 H302 0.929 . S
C310 C311 1.377 . S
C310 C312 1.384 . S
C311 C310 1.377 . S
C311 C317 1.390 . S
C312 H303 0.930 . S
C312 C310 1.384 . S
C312 C313 1.372 . S
C313 C312 1.372 . S
C313 C314 1.400 . S
C313 C318 1.490 . S
C314 H304 0.930 . S
C314 C313 1.400 . S
C314 C317 1.386 . S
H315 C331 0.930 . S
H316 C332 0.931 . S
C317 H305 0.929 . S
C317 C311 1.390 . S
C317 C314 1.386 . S
C318 C313 1.490 . S
C318 C320 1.395 . S
C318 C321 1.403 . S
H319 C325 0.930 . S
C320 H306 0.930 . S
C320 C318 1.395 . S
C320 C323 1.403 . S
C321 C318 1.403 . S
C321 C322 1.524 . S
C321 C325 1.400 . S
C322 H307 0.960 . S
C322 H308 0.960 . S
C322 H309 0.960 . S
C322 C321 1.524 . S
C323 C320 1.403 . S
C323 C324 1.392 . S
C323 C327 1.495 . S
C324 C323 1.392 . S
C324 C325 1.385 . S
C324 C326 1.478 . S
C325 H319 0.930 . S
C325 C321 1.400 . S
C325 C324 1.385 . S
C326 C324 1.478 . S
C326 C328 1.381 . S
C326 C332 1.383 . S
C327 C323 1.495 . S
C327 H333 0.959 . S
C327 H334 0.961 . S
C327 H335 0.960 . S
C328 C326 1.381 . S
C328 C329 1.394 . S
C328 H336 0.930 . S
C329 C328 1.394 . S
C329 C330 1.383 . S
C329 H337 0.929 . S
C330 C329 1.383 . S
C330 C331 1.377 . S
C331 H315 0.930 . S
C331 C330 1.377 . S
C331 C332 1.379 . S
C332 H316 0.931 . S
C332 C326 1.383 . S
C332 C331 1.379 . S
H333 C327 0.959 . S
H334 C327 0.961 . S
H335 C327 0.960 . S
H336 C328 0.930 . S
H337 C329 0.929 . S
H338 C346 0.929 . S
H339 C348 0.930 . S
H340 C350 0.930 . S
H341 C353 0.929 . S
H342 C356 0.930 . S
H343 C358 0.960 . S
H344 C358 0.960 . S
H345 C358 0.960 . S
C346 H338 0.929 . S
C346 C347 1.377 . S
C346 C348 1.384 . S
C347 C346 1.377 . S
C347 C353 1.390 . S
C348 H339 0.930 . S
C348 C346 1.384 . S
C348 C349 1.372 . S
C349 C348 1.372 . S
C349 C350 1.400 . S
C349 C354 1.490 . S
C350 H340 0.930 . S
C350 C349 1.400 . S
C350 C353 1.386 . S
H351 C367 0.930 . S
H352 C368 0.931 . S
C353 H341 0.929 . S
C353 C347 1.390 . S
C353 C350 1.386 . S
C354 C349 1.490 . S
C354 C356 1.395 . S
C354 C357 1.403 . S
H355 C361 0.930 . S
C356 H342 0.930 . S
C356 C354 1.395 . S
C356 C359 1.403 . S
C357 C354 1.403 . S
C357 C358 1.524 . S
C357 C361 1.400 . S
C358 H343 0.960 . S
C358 H344 0.960 . S
C358 H345 0.960 . S
C358 C357 1.524 . S
C359 C356 1.403 . S
C359 C360 1.392 . S
C359 C363 1.495 . S
C360 C359 1.392 . S
C360 C361 1.385 . S
C360 C362 1.478 . S
C361 H355 0.930 . S
C361 C357 1.400 . S
C361 C360 1.385 . S
C362 C360 1.478 . S
C362 C364 1.381 . S
C362 C368 1.383 . S
C363 C359 1.495 . S
C363 H369 0.959 . S
C363 H370 0.961 . S
C363 H371 0.960 . S
C364 C362 1.381 . S
C364 C365 1.394 . S
C364 H372 0.930 . S
C365 C364 1.394 . S
C365 C366 1.383 . S
C365 H373 0.929 . S
C366 C365 1.383 . S
C366 C367 1.377 . S
C367 H351 0.930 . S
C367 C366 1.377 . S
C367 C368 1.379 . S
C368 H352 0.931 . S
C368 C362 1.383 . S
C368 C367 1.379 . S
H369 C363 0.959 . S
H370 C363 0.961 . S
H371 C363 0.960 . S
H372 C364 0.930 . S
H373 C365 0.929 . S
H374 C382 0.929 . S
H375 C384 0.930 . S
H376 C386 0.930 . S
H377 C389 0.929 . S
H378 C392 0.930 . S
H379 C394 0.960 . S
H380 C394 0.960 . S
H381 C394 0.960 . S
C382 H374 0.929 . S
C382 C383 1.377 . S
C382 C384 1.384 . S
C383 C382 1.377 . S
C383 C389 1.390 . S
C384 H375 0.930 . S
C384 C382 1.384 . S
C384 C385 1.372 . S
C385 C384 1.372 . S
C385 C386 1.400 . S
C385 C390 1.490 . S
C386 H376 0.930 . S
C386 C385 1.400 . S
C386 C389 1.386 . S
H387 C403 0.930 . S
H388 C404 0.931 . S
C389 H377 0.929 . S
C389 C383 1.390 . S
C389 C386 1.386 . S
C390 C385 1.490 . S
C390 C392 1.395 . S
C390 C393 1.403 . S
H391 C397 0.930 . S
C392 H378 0.930 . S
C392 C390 1.395 . S
C392 C395 1.403 . S
C393 C390 1.403 . S
C393 C394 1.524 . S
C393 C397 1.400 . S
C394 H379 0.960 . S
C394 H380 0.960 . S
C394 H381 0.960 . S
C394 C393 1.524 . S
C395 C392 1.403 . S
C395 C396 1.392 . S
C395 C399 1.495 . S
C396 C395 1.392 . S
C396 C397 1.385 . S
C396 C398 1.478 . S
C397 H391 0.930 . S
C397 C393 1.400 . S
C397 C396 1.385 . S
C398 C396 1.478 . S
C398 C400 1.381 . S
C398 C404 1.383 . S
C399 C395 1.495 . S
C399 H405 0.959 . S
C399 H406 0.961 . S
C399 H407 0.960 . S
C400 C398 1.381 . S
C400 C401 1.394 . S
C400 H408 0.930 . S
C401 C400 1.394 . S
C401 C402 1.383 . S
C401 H409 0.929 . S
C402 C401 1.383 . S
C402 C403 1.377 . S
C403 H387 0.930 . S
C403 C402 1.377 . S
C403 C404 1.379 . S
C404 H388 0.931 . S
C404 C398 1.383 . S
C404 C403 1.379 . S
H405 C399 0.959 . S
H406 C399 0.961 . S
H407 C399 0.960 . S
H408 C400 0.930 . S
H409 C401 0.929 . S
H410 C418 0.929 . S
H411 C420 0.930 . S
H412 C422 0.930 . S
H413 C425 0.929 . S
H414 C428 0.930 . S
H415 C430 0.960 . S
H416 C430 0.960 . S
H417 C430 0.960 . S
C418 H410 0.929 . S
C418 C419 1.377 . S
C418 C420 1.384 . S
C419 C418 1.377 . S
C419 C425 1.390 . S
C420 H411 0.930 . S
C420 C418 1.384 . S
C420 C421 1.372 . S
C421 C420 1.372 . S
C421 C422 1.400 . S
C421 C426 1.490 . S
C422 H412 0.930 . S
C422 C421 1.400 . S
C422 C425 1.386 . S
H423 C439 0.930 . S
H424 C440 0.931 . S
C425 H413 0.929 . S
C425 C419 1.390 . S
C425 C422 1.386 . S
C426 C421 1.490 . S
C426 C428 1.395 . S
C426 C429 1.403 . S
H427 C433 0.930 . S
C428 H414 0.930 . S
C428 C426 1.395 . S
C428 C431 1.403 . S
C429 C426 1.403 . S
C429 C430 1.524 . S
C429 C433 1.400 . S
C430 H415 0.960 . S
C430 H416 0.960 . S
C430 H417 0.960 . S
C430 C429 1.524 . S
C431 C428 1.403 . S
C431 C432 1.392 . S
C431 C435 1.495 . S
C432 C431 1.392 . S
C432 C433 1.385 . S
C432 C434 1.478 . S
C433 H427 0.930 . S
C433 C429 1.400 . S
C433 C432 1.385 . S
C434 C432 1.478 . S
C434 C436 1.381 . S
C434 C440 1.383 . S
C435 C431 1.495 . S
C435 H441 0.959 . S
C435 H442 0.961 . S
C435 H443 0.960 . S
C436 C434 1.381 . S
C436 C437 1.394 . S
C436 H444 0.930 . S
C437 C436 1.394 . S
C437 C438 1.383 . S
C437 H445 0.929 . S
C438 C437 1.383 . S
C438 C439 1.377 . S
C439 H423 0.930 . S
C439 C438 1.377 . S
C439 C440 1.379 . S
C440 H424 0.931 . S
C440 C434 1.383 . S
C440 C439 1.379 . S
H441 C435 0.959 . S
H442 C435 0.961 . S
H443 C435 0.960 . S
H444 C436 0.930 . S
H445 C437 0.929 . S
H446 C454 0.929 . S
H447 C456 0.930 . S
H448 C458 0.930 . S
H449 C461 0.929 . S
H450 C464 0.930 . S
H451 C466 0.960 . S
H452 C466 0.960 . S
H453 C466 0.960 . S
C454 H446 0.929 . S
C454 C455 1.377 . S
C454 C456 1.384 . S
C455 C454 1.377 . S
C455 C461 1.390 . S
C456 H447 0.930 . S
C456 C454 1.384 . S
C456 C457 1.372 . S
C457 C456 1.372 . S
C457 C458 1.400 . S
C457 C462 1.490 . S
C458 H448 0.930 . S
C458 C457 1.400 . S
C458 C461 1.386 . S
H459 C475 0.930 . S
H460 C476 0.931 . S
C461 H449 0.929 . S
C461 C455 1.390 . S
C461 C458 1.386 . S
C462 C457 1.490 . S
C462 C464 1.395 . S
C462 C465 1.403 . S
H463 C469 0.930 . S
C464 H450 0.930 . S
C464 C462 1.395 . S
C464 C467 1.403 . S
C465 C462 1.403 . S
C465 C466 1.524 . S
C465 C469 1.400 . S
C466 H451 0.960 . S
C466 H452 0.960 . S
C466 H453 0.960 . S
C466 C465 1.524 . S
C467 C464 1.403 . S
C467 C468 1.392 . S
C467 C471 1.495 . S
C468 C467 1.392 . S
C468 C469 1.385 . S
C468 C470 1.478 . S
C469 H463 0.930 . S
C469 C465 1.400 . S
C469 C468 1.385 . S
C470 C468 1.478 . S
C470 C472 1.381 . S
C470 C476 1.383 . S
C471 C467 1.495 . S
C471 H477 0.959 . S
C471 H478 0.961 . S
C471 H479 0.960 . S
C472 C470 1.381 . S
C472 C473 1.394 . S
C472 H480 0.930 . S
C473 C472 1.394 . S
C473 C474 1.383 . S
C473 H481 0.929 . S
C474 C473 1.383 . S
C474 C475 1.377 . S
C475 H459 0.930 . S
C475 C474 1.377 . S
C475 C476 1.379 . S
C476 H460 0.931 . S
C476 C470 1.383 . S
C476 C475 1.379 . S
H477 C471 0.959 . S
H478 C471 0.961 . S
H479 C471 0.960 . S
H480 C472 0.930 . S
H481 C473 0.929 . S
H482 C490 0.929 . S
H483 C492 0.930 . S
H484 C494 0.930 . S
H485 C497 0.929 1_554 S
H486 C500 0.930 . S
H487 C502 0.960 . S
H488 C502 0.960 . S
H489 C502 0.960 . S
C490 H482 0.929 . S
C490 C491 1.377 . S
C490 C492 1.384 . S
C491 C490 1.377 . S
C491 C497 1.390 . S
C492 H483 0.930 . S
C492 C490 1.384 . S
C492 C493 1.372 . S
C493 C492 1.372 . S
C493 C494 1.400 . S
C493 C498 1.490 . S
C494 H484 0.930 . S
C494 C493 1.400 . S
C494 C497 1.386 . S
H495 C511 0.930 1_545 S
H496 C512 0.931 . S
C497 H485 0.929 1_556 S
C497 C491 1.390 . S
C497 C494 1.386 . S
C498 C493 1.490 . S
C498 C500 1.395 . S
C498 C501 1.403 . S
H499 C505 0.930 . S
C500 H486 0.930 . S
C500 C498 1.395 . S
C500 C503 1.403 . S
C501 C498 1.403 . S
C501 C502 1.524 . S
C501 C505 1.400 . S
C502 H487 0.960 . S
C502 H488 0.960 . S
C502 H489 0.960 . S
C502 C501 1.524 . S
C503 C500 1.403 . S
C503 C504 1.392 . S
C503 C507 1.495 . S
C504 C503 1.392 . S
C504 C505 1.385 . S
C504 C506 1.478 . S
C505 H499 0.930 . S
C505 C501 1.400 . S
C505 C504 1.385 . S
C506 C504 1.478 . S
C506 C508 1.381 . S
C506 C512 1.383 . S
C507 C503 1.495 . S
C507 H513 0.959 . S
C507 H514 0.961 . S
C507 H515 0.960 . S
C508 C506 1.381 . S
C508 C509 1.394 . S
C508 H516 0.930 . S
C509 C508 1.394 . S
C509 C510 1.383 . S
C509 H517 0.929 . S
C510 C509 1.383 . S
C510 C511 1.377 . S
C511 H495 0.930 1_565 S
C511 C510 1.377 . S
C511 C512 1.379 . S
C512 H496 0.931 . S
C512 C506 1.383 . S
C512 C511 1.379 . S
H513 C507 0.959 . S
H514 C507 0.961 . S
H515 C507 0.960 . S
H516 C508 0.930 . S
H517 C509 0.929 . S
C114 C59 1.280 . S
C95 N37 1.428 . S
C131 N4 1.463 . S
C150 C83 1.269 . S
C167 N15 1.610 . S
C186 C62 1.419 . S
C203 N26 1.609 . S
C222 C80 1.418 . S
C258 C60 1.520 . S
C239 C9 1.519 . S
C294 C82 1.577 . S
C275 C17 1.628 . S
C311 C31 1.603 . S
C330 C61 1.570 . S
C347 C42 1.521 . S
C366 C81 1.488 . S
C402 C79 1.444 . S
C383 C20 1.516 . S
C438 C58 1.446 . S
C419 C28 1.534 . S
C474 C78 1.414 . S
C455 C39 1.447 . S
C491 C6 1.443 1_556 S
C510 C57 1.410 . S
