# Generated by pormake.
# Topology zzz, (3,6)-cn, num edge types: 1
# Building blocks:
#     Node 0, Type 0, BuildingBlock: CUQRIR_clean_linker_1, # of connection points: 3
#     Node 1, Type 0, BuildingBlock: CUQRIR_clean_linker_1, # of connection points: 3
#     Node 2, Type 0, BuildingBlock: CUQRIR_clean_linker_1, # of connection points: 3
#     Node 3, Type 0, BuildingBlock: CUQRIR_clean_linker_1, # of connection points: 3
#     Node 4, Type 0, BuildingBlock: CUQRIR_clean_linker_1, # of connection points: 3
#     Node 5, Type 0, BuildingBlock: CUQRIR_clean_linker_1, # of connection points: 3
#     Node 6, Type 0, BuildingBlock: CUQRIR_clean_linker_1, # of connection points: 3
#     Node 7, Type 0, BuildingBlock: CUQRIR_clean_linker_1, # of connection points: 3
#     Node 8, Type 1, BuildingBlock: KUMBUR_clean_sbu_1, # of connection points: 6
#     Node 9, Type 1, BuildingBlock: KUMBUR_clean_sbu_1, # of connection points: 6
#     Node 10, Type 1, BuildingBlock: KUMBUR_clean_sbu_1, # of connection points: 6
#     Node 11, Type 1, BuildingBlock: KUMBUR_clean_sbu_1, # of connection points: 6
#     Edge 12, Type (0, 1), BuildingBlock: UVAHIK_clean_linker_0, # of connection points: 2
#     Edge 13, Type (0, 1), BuildingBlock: UVAHIK_clean_linker_0, # of connection points: 2
#     Edge 14, Type (0, 1), BuildingBlock: UVAHIK_clean_linker_0, # of connection points: 2
#     Edge 15, Type (0, 1), BuildingBlock: UVAHIK_clean_linker_0, # of connection points: 2
#     Edge 16, Type (0, 1), BuildingBlock: UVAHIK_clean_linker_0, # of connection points: 2
#     Edge 17, Type (0, 1), BuildingBlock: UVAHIK_clean_linker_0, # of connection points: 2
#     Edge 18, Type (0, 1), BuildingBlock: UVAHIK_clean_linker_0, # of connection points: 2
#     Edge 19, Type (0, 1), BuildingBlock: UVAHIK_clean_linker_0, # of connection points: 2
#     Edge 20, Type (0, 1), BuildingBlock: UVAHIK_clean_linker_0, # of connection points: 2
#     Edge 21, Type (0, 1), BuildingBlock: UVAHIK_clean_linker_0, # of connection points: 2
#     Edge 22, Type (0, 1), BuildingBlock: UVAHIK_clean_linker_0, # of connection points: 2
#     Edge 23, Type (0, 1), BuildingBlock: UVAHIK_clean_linker_0, # of connection points: 2
#     Edge 24, Type (0, 1), BuildingBlock: UVAHIK_clean_linker_0, # of connection points: 2
#     Edge 25, Type (0, 1), BuildingBlock: UVAHIK_clean_linker_0, # of connection points: 2
#     Edge 26, Type (0, 1), BuildingBlock: UVAHIK_clean_linker_0, # of connection points: 2
#     Edge 27, Type (0, 1), BuildingBlock: UVAHIK_clean_linker_0, # of connection points: 2
#     Edge 28, Type (0, 1), BuildingBlock: UVAHIK_clean_linker_0, # of connection points: 2
#     Edge 29, Type (0, 1), BuildingBlock: UVAHIK_clean_linker_0, # of connection points: 2
#     Edge 30, Type (0, 1), BuildingBlock: UVAHIK_clean_linker_0, # of connection points: 2
#     Edge 31, Type (0, 1), BuildingBlock: UVAHIK_clean_linker_0, # of connection points: 2
#     Edge 32, Type (0, 1), BuildingBlock: UVAHIK_clean_linker_0, # of connection points: 2
#     Edge 33, Type (0, 1), BuildingBlock: UVAHIK_clean_linker_0, # of connection points: 2
#     Edge 34, Type (0, 1), BuildingBlock: UVAHIK_clean_linker_0, # of connection points: 2
#     Edge 35, Type (0, 1), BuildingBlock: UVAHIK_clean_linker_0, # of connection points: 2
# Relax obj value: 0.171
# Max RMSD: 0.096
# Mean RMSD: 0.085
data_MOF--net-zzz--node1-KUMBUR_clean_sbu_1--node2-CUQRIR_clean_linker_1--edge1-UVAHIK_clean_linker_0
_symmetry_space_group_name_H-M    P1
_symmetry_Int_Tables_number       1
_symmetry_cell_setting            triclinic
loop_
_symmetry_equiv_pos_as_xyz
'x, y, z'
_cell_length_a     61.302852
_cell_length_b     61.24486
_cell_length_c     18.4799
_cell_angle_alpha  89.860168
_cell_angle_beta   89.934934
_cell_angle_gamma 90.334963
loop_
_atom_site_label
_atom_site_type_symbol
_atom_site_fract_x
_atom_site_fract_y
_atom_site_fract_z
_atom_type_partial_charge
C0 C 0.75465 0.54124 0.28195 0.0
N1 N 0.77585 0.54812 0.28308 0.0
N2 N 0.74455 0.54778 0.21992 0.0
C3 C 0.74369 0.52856 0.34133 0.0
C4 C 0.76041 0.55858 0.18324 0.0
N5 N 0.77923 0.55893 0.22146 0.0
C6 C 0.75807 0.56689 0.10678 0.0
H7 H 0.74628 0.51088 0.33188 0.0
H8 H 0.72587 0.53166 0.34162 0.0
H9 H 0.75079 0.53286 0.39466 0.0
H10 H 0.75509 0.58474 0.10826 0.0
H11 H 0.74425 0.55892 0.07835 0.0
H12 H 0.7732 0.56403 0.0753 0.0
C13 C 1.00197 0.75944 0.26196 0.0
N14 N 0.99353 0.78001 0.25988 0.0
N15 N 0.99499 0.74746 0.20434 0.0
C16 C 0.01666 0.75092 0.32021 0.0
C17 C 0.98231 0.76148 0.16687 0.0
N18 N 0.9812 0.78105 0.20064 0.0
C19 C 0.973 0.75674 0.09293 0.0
H20 H 0.03381 0.75488 0.30581 0.0
H21 H 0.01506 0.73292 0.32511 0.0
H22 H 1.01286 0.75872 0.37285 0.0
H23 H 0.9554 0.75278 0.0985 0.0
H24 H 0.9812 0.74273 0.0667 0.0
H25 H 0.97467 0.77118 0.05696 0.0
C26 C 0.79842 1.00573 0.31531 0.0
N27 N 0.7779 0.99743 0.32186 0.0
N28 N 0.81015 0.99427 0.26579 0.0
C29 C 0.80645 0.02583 0.35314 0.0
C30 C 0.79584 0.97897 0.24205 0.0
N31 N 0.77622 0.981 0.2752 0.0
C32 C 0.80048 0.9634 0.18114 0.0
H33 H 0.80111 0.04039 0.32217 0.0
H34 H 0.82453 0.02597 0.35626 0.0
H35 H 0.79933 0.0268 0.40828 0.0
H36 H 0.78736 0.95097 0.17545 0.0
H37 H 0.81617 0.95497 0.19093 0.0
H38 H 0.80213 0.97272 0.12984 0.0
C39 C 0.53403 0.79335 0.28636 0.0
N40 N 0.5427 0.773 0.29246 0.0
N41 N 0.54244 0.80406 0.22787 0.0
C42 C 0.51742 0.8027 0.33694 0.0
C43 C 0.55624 0.78938 0.19825 0.0
N44 N 0.55654 0.77066 0.23749 0.0
C45 C 0.5676 0.79255 0.12653 0.0
H46 H 0.50092 0.7977 0.3185 0.0
H47 H 0.51832 0.82081 0.337 0.0
H48 H 0.51985 0.79632 0.39259 0.0
H49 H 0.58495 0.79678 0.13644 0.0
H50 H 0.56015 0.80586 0.09434 0.0
H51 H 0.56701 0.77731 0.09423 0.0
C52 C 0.28561 0.51041 0.09394 0.0
N53 N 0.26568 0.50172 0.07906 0.0
N54 N 0.29634 0.49806 0.14376 0.0
C55 C 0.2941 0.53143 0.06287 0.0
C56 C 0.28198 0.48176 0.15915 0.0
N57 N 0.26345 0.48393 0.1199 0.0
C58 C 0.28542 0.4648 0.21692 0.0
H59 H 0.3122 0.53161 0.06243 0.0
H60 H 0.28836 0.54512 0.09702 0.0
H61 H 0.28778 0.5339 1.00721 0.0
H62 H 0.28554 0.47286 0.27063 0.0
H63 H 0.30149 0.4569 0.20946 0.0
H64 H 0.27249 0.45205 0.21598 0.0
C65 C 0.0421 0.29575 0.05256 0.0
N66 N 0.04979 0.27494 0.05148 0.0
N67 N 0.04873 0.30634 0.11353 0.0
C68 C 0.02783 0.30559 0.9955 0.0
C69 C 0.06053 0.29119 0.1495 0.0
N70 N 0.06126 0.27227 0.11192 0.0
C71 C 0.07 0.2943 0.224 0.0
H72 H 0.03013 0.32357 0.99331 0.0
H73 H 1.01053 0.30211 1.00919 0.0
H74 H 0.03139 0.29835 0.94181 0.0
H75 H 0.06571 0.28017 0.25902 0.0
H76 H 0.06429 0.30952 0.25004 0.0
H77 H 0.08804 0.29508 0.2198 0.0
C78 C 0.2553 0.03989 0.08026 0.0
N79 N 0.27662 0.04625 0.07844 0.0
N80 N 0.24573 0.04596 0.14368 0.0
C81 C 0.24368 0.02844 0.0198 0.0
C82 C 0.26206 0.05593 0.18047 0.0
N83 N 0.28065 0.05619 0.14104 0.0
C84 C 0.26024 0.06383 0.25735 0.0
H85 H 0.22594 0.03193 0.02134 0.0
H86 H 0.24594 1.01058 0.02615 0.0
H87 H 0.25057 0.03343 0.96668 0.0
H88 H 0.24738 0.05473 0.28731 0.0
H89 H 0.25586 0.08138 0.25682 0.0
H90 H 0.27595 0.06203 0.28639 0.0
C91 C 0.50539 0.25501 0.07545 0.0
N92 N 0.49496 0.2743 0.06499 0.0
N93 N 0.49279 0.24089 0.11472 0.0
C94 C 0.52822 0.25046 0.05092 0.0
C95 C 0.47438 0.25245 0.12759 0.0
N96 N 0.47575 0.27274 0.09828 0.0
C97 C 0.45565 0.24435 0.1735 0.0
H98 H 0.53139 0.25831 0.99772 0.0
H99 H 0.53109 0.23262 0.04714 0.0
H100 H 0.53981 0.25752 0.0907 0.0
H101 H 0.44901 0.22899 0.15068 0.0
H102 H 0.44213 0.25627 0.17604 0.0
H103 H 0.46158 0.24075 0.22896 0.0
Tb104 Tb 1.00294 0.03585 0.61083 0.0
C105 C 0.07862 0.05041 0.80048 0.0
N106 N 0.07619 0.03461 0.74958 0.0
C107 C 0.11104 0.04452 0.69894 0.0
C108 C 0.09672 0.06473 0.80009 0.0
C109 C 0.09294 0.03053 0.70261 0.0
C110 C 0.1127 0.06202 0.74687 0.0
C111 C 0.06597 0.06641 0.91264 0.0
C112 C 0.06366 0.0512 0.8561 0.0
C113 C 0.08333 0.08147 0.91071 0.0
C114 C 0.09868 0.08065 0.85443 0.0
Tb115 Tb 0.0448 1.01384 0.75765 0.0
N116 N 0.04684 0.03674 0.85495 0.0
C117 C 0.05093 0.06577 0.9697 0.0
C118 C 0.03265 0.03535 0.91195 0.0
C119 C 0.03437 0.04997 0.9698 0.0
H120 H 0.09278 1.01623 0.66868 0.0
H121 H 0.02284 0.04914 0.01414 0.0
H122 H 0.95582 1.01439 0.6597 0.0
H123 H 0.04049 0.04147 0.34566 0.0
H124 H 0.01971 0.0233 0.91174 0.0
H125 H 0.05213 0.07717 0.01429 0.0
H126 H 0.03248 0.05382 0.46954 0.0
H127 H 0.12389 0.04151 0.66009 0.0
H128 H 0.08529 0.09349 0.95316 0.0
H129 H 0.11233 0.09196 0.85459 0.0
H130 H 0.92917 0.98769 0.61075 0.0
H131 H 0.12687 0.07267 0.74458 0.0
H132 H 0.02035 1.01001 0.29411 0.0
N133 N 0.97732 1.01179 0.56984 0.0
C134 C 0.98048 1.00364 0.50253 0.0
C135 C 0.94364 0.9919 0.58003 0.0
C136 C 0.96585 0.98838 0.47238 0.0
C137 C 0.95873 1.00695 0.60766 0.0
C138 C 0.94739 0.98229 0.51257 0.0
N139 N 1.01017 0.02783 0.49198 0.0
C140 C 0.02444 0.03934 0.44935 0.0
C141 C 1.00108 1.00464 0.39088 0.0
C142 C 0.99781 1.01167 0.46262 0.0
C143 C 0.01728 1.01493 0.34946 0.0
C144 C 0.02869 0.03267 0.37838 0.0
H145 H 0.93569 0.97064 0.49129 0.0
H146 H 0.9589 0.9683 0.37865 0.0
H147 H 0.98982 0.98256 0.30712 0.0
O148 O 0.98675 0.05682 0.53865 0.0
O149 O 1.00208 1.00038 0.63632 0.0
O150 O 0.03734 0.99188 0.66671 0.0
O151 O 0.9816 0.05937 0.65317 0.0
O152 O 0.03815 0.0414 0.59127 0.0
O153 O 0.05498 1.01188 0.64312 0.0
O154 O 0.04035 0.99101 0.84063 0.0
O155 O 0.02814 0.0456 0.76846 0.0
O156 O 0.02813 0.05791 0.6532 0.0
O157 O 0.07146 0.99414 0.78869 0.0
O158 O 1.01041 1.00538 0.77999 0.0
O159 O 0.9899 0.03187 0.72131 0.0
C160 C 0.01839 0.98649 0.63823 0.0
C161 C 0.98623 0.09216 0.58967 0.0
C162 C 1.01137 0.12049 0.54786 0.0
C163 C 1.00338 0.13462 0.60124 0.0
C164 C 0.97822 0.10656 0.6423 0.0
C165 C 0.98678 0.12769 0.64792 0.0
C166 C 1.00267 0.09938 0.54203 0.0
C167 C 0.05381 0.02678 0.5918 0.0
C168 C 0.97951 0.069 0.59085 0.0
C169 C 0.96977 0.98029 0.40252 0.0
C170 C 0.98741 0.98837 0.36186 0.0
C171 C 0.02942 0.06191 0.72263 0.0
C172 C 0.05874 0.95854 0.81531 0.0
C173 C 0.03691 0.92557 0.79507 0.0
C174 C 0.05591 0.91302 0.80555 0.0
C175 C 0.07734 0.94582 0.82588 0.0
C176 C 0.03907 0.94841 0.79485 0.0
C177 C 0.07601 0.92316 0.81905 0.0
C178 C 0.9926 0.0173 0.77343 0.0
C179 C 0.05925 0.98214 0.83031 0.0
H180 H 1.00989 0.15103 0.60645 0.0
H181 H 0.96579 0.10124 0.68027 0.0
H182 H 0.98072 0.13861 0.68917 0.0
H183 H 1.00932 0.08843 0.50177 0.0
H184 H 0.05529 0.89539 0.80731 0.0
H185 H 0.09274 0.95336 0.84065 0.0
H186 H 0.02506 0.95844 0.7829 0.0
H187 H 0.09037 0.91332 0.82795 0.0
Tb188 Tb 0.53078 0.04454 0.75379 0.0
C189 C 0.51124 0.95381 0.63943 0.0
N190 N 0.52618 0.9687 0.61665 0.0
C191 C 0.55351 0.94085 0.61163 0.0
C192 C 0.5171 0.93201 0.65349 0.0
C193 C 0.54687 0.96236 0.59905 0.0
C194 C 0.53866 0.9257 0.64034 0.0
C195 C 0.47342 0.94517 0.66364 0.0
C196 C 0.48981 0.9603 0.64402 0.0
C197 C 0.47927 0.92376 0.68291 0.0
C198 C 0.5011 0.91717 0.67758 0.0
Tb199 Tb 0.51405 1.00341 0.59744 0.0
N200 N 0.48487 0.98088 0.62248 0.0
C201 C 0.45162 0.9517 0.65966 0.0
C202 C 0.46357 0.98648 0.61135 0.0
C203 C 0.44667 0.9723 0.63185 0.0
H204 H 0.55833 0.9741 0.57704 0.0
H205 H 0.42984 0.97713 0.62495 0.0
H206 H 0.48238 0.05791 0.82842 0.0
H207 H 0.59591 0.09732 0.664 0.0
H208 H 0.4595 1.00184 0.58608 0.0
H209 H 0.43851 0.9406 0.67435 0.0
H210 H 0.57942 0.06283 0.70811 0.0
H211 H 0.57006 0.936 0.59947 0.0
H212 H 0.46695 0.91196 0.69903 0.0
H213 H 0.50529 0.9004 0.68987 0.0
H214 H 0.45696 0.08865 0.82222 0.0
H215 H 0.54384 0.90907 0.6502 0.0
H216 H 0.57286 0.13005 0.64792 0.0
N217 N 0.50628 0.07281 0.7601 0.0
C218 C 0.51331 0.09212 0.73177 0.0
C219 C 0.47258 0.08971 0.79502 0.0
C220 C 0.49977 0.11066 0.73034 0.0
C221 C 0.48682 0.07196 0.79639 0.0
C222 C 0.47888 0.10901 0.76035 0.0
N223 N 0.5474 0.07569 0.71386 0.0
C224 C 0.56926 0.07692 0.70024 0.0
C225 C 0.54338 0.1138 0.68461 0.0
C226 C 0.53477 0.09376 0.7094 0.0
C227 C 0.56558 0.11494 0.66699 0.0
C228 C 0.57864 0.09648 0.67584 0.0
H229 H 0.46796 0.12286 0.76037 0.0
H230 H 0.49764 0.14479 0.69981 0.0
H231 H 0.53588 0.14752 0.65959 0.0
O232 O 0.55529 0.03619 0.82787 0.0
O233 O 0.53323 0.05432 0.63872 0.0
O234 O 0.50386 0.03759 0.58707 0.0
O235 O 0.53129 0.06039 0.85458 0.0
O236 O 0.55877 0.02672 0.70624 0.0
O237 O 0.54739 0.01674 0.59097 0.0
O238 O 0.49942 0.99173 0.5017 0.0
O239 O 0.53131 0.99159 0.6953 0.0
O240 O 0.51772 1.01252 0.78618 0.0
O241 O 0.53149 1.00579 0.50006 0.0
O242 O 0.48729 0.02338 0.64403 0.0
O243 O 0.49829 0.02902 0.76166 0.0
C244 C 0.51733 0.05429 0.59102 0.0
C245 C 0.56592 0.06335 0.91011 0.0
C246 C 0.59677 0.0638 0.99247 0.0
C247 C 0.60064 0.08583 0.97518 0.0
C248 C 0.56963 0.08546 0.89363 0.0
C249 C 0.58693 0.09665 0.92648 0.0
C250 C 0.57928 0.05279 0.96013 0.0
C251 C 0.56291 0.02064 0.63881 0.0
C252 C 0.54879 0.05036 0.87538 0.0
C253 C 0.50788 0.13044 0.7021 0.0
C254 C 0.52967 0.13202 0.67943 0.0
C255 C 0.52478 0.99365 0.76266 0.0
C256 C 0.5105 1.01111 0.39678 0.0
C257 C 0.48904 0.03895 0.33504 0.0
C258 C 0.50199 0.03599 0.2728 0.0
C259 C 0.52321 1.00848 0.33444 0.0
C260 C 0.49375 0.0266 0.39746 0.0
C261 C 0.51903 0.02097 0.27288 0.0
C262 C 0.48272 0.02634 0.7132 0.0
C263 C 0.5156 0.99816 0.46134 0.0
H264 H 0.61428 0.09455 0.99892 0.0
H265 H 0.55938 0.09395 0.85523 0.0
H266 H 0.58992 0.11364 0.91337 0.0
H267 H 0.57657 0.0356 0.97169 0.0
H268 H 0.49861 0.04473 0.22314 0.0
H269 H 0.53641 0.99679 0.33349 0.0
H270 H 0.48438 0.02885 0.44655 0.0
H271 H 0.52881 0.01878 0.22468 0.0
Tb272 Tb 0.53923 0.51736 0.60481 0.0
C273 C 0.48262 0.50423 0.88093 0.0
N274 N 0.47756 0.51222 0.81468 0.0
C275 C 0.44459 0.49094 0.81374 0.0
C276 C 0.46939 0.4884 0.9151 0.0
C277 C 0.45835 0.50659 0.78201 0.0
C278 C 0.45033 0.48151 0.88003 0.0
C279 C 0.50563 0.50637 0.98681 0.0
C280 C 0.50037 0.5131 0.91602 0.0
C281 C 0.49341 0.48956 0.01971 0.0
C282 C 0.47527 0.48061 0.98392 0.0
Tb283 Tb 0.50138 0.53691 0.7658 0.0
N284 N 0.51123 0.5297 0.88302 0.0
C285 C 0.52232 0.51743 0.0234 0.0
C286 C 0.52611 0.5418 0.92094 0.0
C287 C 0.5323 0.53552 0.99079 0.0
H288 H 0.45393 0.51384 0.73076 0.0
H289 H 0.54454 0.54482 0.01977 0.0
H290 H 0.58982 0.51726 0.67629 0.0
H291 H 0.50924 0.56077 0.37122 0.0
H292 H 0.53318 0.55639 0.89757 0.0
H293 H 0.52691 0.51278 0.07786 0.0
H294 H 0.50961 0.53133 0.46339 0.0
H295 H 0.42962 0.48612 0.787 0.0
H296 H 0.49734 0.48395 0.07377 0.0
H297 H 0.46552 0.4682 1.01083 0.0
H298 H 0.62112 0.5424 0.68182 0.0
H299 H 0.43966 0.4694 0.90448 0.0
H300 H 0.53812 0.58923 0.37166 0.0
N301 N 0.57083 0.53794 0.60812 0.0
C302 C 0.5716 0.55538 0.56256 0.0
C303 C 0.6071 0.5465 0.64905 0.0
C304 C 0.58957 0.56984 0.56164 0.0
C305 C 0.58899 0.53251 0.64711 0.0
C306 C 0.6072 0.56553 0.60735 0.0
N307 N 0.53818 0.54332 0.51546 0.0
C308 C 0.52239 0.54357 0.46317 0.0
C309 C 0.55529 0.57507 0.46258 0.0
C310 C 0.5549 0.5579 0.51341 0.0
C311 C 0.53845 0.57626 0.41162 0.0
C312 C 0.52211 0.56023 0.41123 0.0
H313 H 0.62134 0.57623 0.60836 0.0
H314 H 0.60322 0.59908 0.51249 0.0
H315 H 0.57306 0.60374 0.42592 0.0
O316 O 0.53155 0.49659 0.51913 0.0
O317 O 0.52132 0.54853 0.60712 0.0
O318 O 0.52545 0.56 0.72163 0.0
O319 O 0.56463 0.49963 0.555 0.0
O320 O 0.50471 0.5078 0.59278 0.0
O321 O 0.48521 0.53303 0.66 0.0
O322 O 0.48643 0.55838 0.83932 0.0
O323 O 0.50088 0.50161 0.73892 0.0
O324 O 0.53485 0.49333 0.69304 0.0
O325 O 0.47865 0.55946 0.72599 0.0
O326 O 0.537 0.54208 0.77545 0.0
O327 O 0.55305 0.51365 0.7149 0.0
C328 C 0.52522 0.56444 0.65247 0.0
C329 C 0.55257 0.46529 0.50904 0.0
C330 C 0.53794 0.43175 0.45692 0.0
C331 C 0.55144 0.41956 0.50317 0.0
C332 C 0.56597 0.45297 0.55501 0.0
C333 C 0.56545 0.43017 0.5516 0.0
C334 C 0.53888 0.45457 0.45982 0.0
C335 C 0.48685 0.51912 0.60573 0.0
C336 C 0.55121 0.48919 0.51299 0.0
C337 C 0.58969 0.58762 0.51335 0.0
C338 C 0.57256 0.59023 0.46386 0.0
C339 C 0.51729 0.488 0.73085 0.0
C340 C 0.48455 0.59301 0.78218 0.0
C341 C 0.51109 0.62172 0.8091 0.0
C342 C 0.50149 0.63502 0.75607 0.0
C343 C 0.47493 0.60664 0.73019 0.0
C344 C 0.50259 0.60074 0.82156 0.0
C345 C 0.48342 0.62751 0.71717 0.0
C346 C 0.5527 0.52763 0.76913 0.0
C347 C 0.47794 0.56986 0.78714 0.0
H348 H 0.55119 0.40188 0.50182 0.0
H349 H 0.57656 0.46088 0.59395 0.0
H350 H 0.57575 0.42068 0.58717 0.0
H351 H 0.52819 0.46416 0.4256 0.0
H352 H 0.50771 0.65132 0.74558 0.0
H353 H 0.46131 0.60087 0.69805 0.0
H354 H 0.51051 0.59024 0.86067 0.0
H355 H 0.47611 0.63783 0.67632 0.0
Tb356 Tb 0.02879 0.54817 0.58377 0.0
C357 C 0.05717 0.49327 0.83853 0.0
N358 N 0.04713 0.48662 0.77704 0.0
C359 C 0.07333 0.458 0.76308 0.0
C360 C 0.07645 0.4833 0.86294 0.0
C361 C 0.05421 0.4685 0.74109 0.0
C362 C 0.08472 0.46567 0.82355 0.0
C363 C 0.05643 0.5161 0.94502 0.0
C364 C 0.04734 0.50942 0.8786 0.0
C365 C 0.07645 0.50731 0.96758 0.0
C366 C 0.08645 0.4909 0.92657 0.0
Tb367 Tb 0.017 0.50583 0.74264 0.0
N368 N 0.02785 0.51711 0.85542 0.0
C369 C 0.04461 0.53061 0.98812 0.0
C370 C 0.01529 0.52941 0.90073 0.0
C371 C 0.02371 0.53688 0.96662 0.0
H372 H 0.04547 0.46267 0.69413 0.0
H373 H 1.01396 0.54723 1.00114 0.0
H374 H 0.02488 0.59731 0.66559 0.0
H375 H 0.98793 0.51978 0.34391 0.0
H376 H 0.99877 0.53354 0.88609 0.0
H377 H 0.051 0.53619 0.03955 0.0
H378 H 0.01729 0.52085 0.4359 0.0
H379 H 0.0793 0.44406 0.7333 0.0
H380 H 0.08391 0.51248 0.01789 0.0
H381 H 0.10153 0.48376 0.94563 0.0
H382 H 0.99683 0.62538 0.68096 0.0
H383 H 0.09954 0.45756 0.84038 0.0
H384 H 0.95675 0.54518 0.35322 0.0
N385 N 1.00533 0.57718 0.59693 0.0
C386 C 0.98749 0.57686 0.55327 0.0
C387 C 0.99375 0.61156 0.64596 0.0
C388 C 0.97143 0.5932 0.55732 0.0
C389 C 1.00942 0.59519 0.6386 0.0
C390 C 0.9744 0.61029 0.60642 0.0
N391 N 1.00241 0.54605 0.4971 0.0
C392 C 1.00369 0.53191 0.44018 0.0
C393 C 0.96914 0.56105 0.44953 0.0
C394 C 0.98629 0.56109 0.50017 0.0
C395 C 0.9696 0.54573 0.39338 0.0
C396 C 0.98716 0.53134 0.38802 0.0
H397 H 0.96245 0.62317 0.61133 0.0
H398 H 0.94084 0.60473 0.51292 0.0
H399 H 0.93884 0.5765 0.4184 0.0
O400 O 0.0537 0.54411 0.50786 0.0
O401 O 0.99946 0.52703 0.58733 0.0
O402 O 0.98978 0.52628 0.70557 0.0
O403 O 0.0392 0.57611 0.52366 0.0
O404 O 0.03839 0.51431 0.55764 0.0
O405 O 0.01852 0.49115 0.63389 0.0
O406 O 1.00249 0.48728 0.82584 0.0
O407 O 0.04986 0.51007 0.69553 0.0
O408 O 0.05439 0.54608 0.66775 0.0
O409 O 0.99597 0.48 0.71453 0.0
O410 O 1.0071 0.5402 0.7587 0.0
O411 O 0.03252 0.5605 0.69556 0.0
C412 C 0.98421 0.52733 0.63714 0.0
C413 C 0.06682 0.57259 0.42809 0.0
C414 C 0.0876 0.56488 0.31808 0.0
C415 C 0.08853 0.58745 0.30346 0.0
C416 C 0.06806 0.595 0.41283 0.0
C417 C 0.079 0.60235 0.35097 0.0
C418 C 0.07693 0.55772 0.38134 0.0
C419 C 0.02953 0.49509 0.57351 0.0
C420 C 0.05268 0.5643 0.48657 0.0
C421 C 0.9535 0.5925 0.50996 0.0
C422 C 0.9524 0.57648 0.45596 0.0
C423 C 0.06157 0.52802 0.69819 0.0
C424 C 0.96673 0.47763 0.79439 0.0
C425 C 0.93475 0.49945 0.82328 0.0
C426 C 0.92165 0.48061 0.81526 0.0
C427 C 0.95352 0.45909 0.78633 0.0
C428 C 0.95729 0.49774 0.81172 0.0
C429 C 0.93101 0.46064 0.79655 0.0
C430 C 0.01936 0.55785 0.75155 0.0
C431 C 0.99023 0.47644 0.78112 0.0
H432 H 0.09636 0.59362 0.25497 0.0
H433 H 0.06016 0.60676 0.44765 0.0
H434 H 0.07973 0.61965 0.33904 0.0
H435 H 0.07622 0.54045 0.39397 0.0
H436 H 0.90426 0.4811 0.82528 0.0
H437 H 0.96059 0.44352 0.77192 0.0
H438 H 0.9676 0.51208 0.81629 0.0
H439 H 0.92081 0.44627 0.79072 0.0
C440 C 0.21094 0.06091 0.1884 0.0
C441 C 0.2236 0.04277 0.16925 0.0
C442 C 0.19117 0.05827 0.22584 0.0
C443 C 0.16301 0.01965 0.34983 0.0
H444 H 0.11315 0.05706 0.31787 0.0
C445 C 0.08332 1.00919 0.51754 0.0
C446 C 0.07173 0.02804 0.53704 0.0
C447 C 0.10077 1.01031 0.46836 0.0
C448 C 0.12698 0.04662 0.32835 0.0
H449 H 0.22531 1.0076 0.17288 0.0
H450 H 0.19057 1.00275 0.2379 0.0
H451 H 0.14481 0.0599 0.23826 0.0
H452 H 0.06966 0.06296 0.52027 0.0
H453 H 0.10015 0.06506 0.43531 0.0
H454 H 0.14551 1.00669 0.44079 0.0
C455 C 0.19595 0.01912 0.22425 0.0
C456 C 0.14519 0.0482 0.28227 0.0
C457 C 0.21569 0.02181 0.18614 0.0
C458 C 0.07799 0.04806 0.50565 0.0
C459 C 0.09553 0.04923 0.45666 0.0
C460 C 0.14487 0.01814 0.39616 0.0
C461 C 0.18358 0.03736 0.24593 0.0
C462 C 0.16356 0.03482 0.29246 0.0
C463 C 0.10732 0.03038 0.4374 0.0
C464 C 0.12655 0.03167 0.38652 0.0
H465 H 0.21687 0.07724 0.17682 0.0
H466 H 0.18236 0.07274 0.24199 0.0
H467 H 0.17693 1.00932 0.36045 0.0
H468 H 0.07886 0.99347 0.54039 0.0
H469 H 0.10903 0.99534 0.45431 0.0
C470 C 0.48513 0.20184 0.14074 0.0
C471 C 0.49857 0.22035 0.14897 0.0
C472 C 0.48802 0.18324 0.18417 0.0
C473 C 0.52694 0.15361 0.3013 0.0
H474 H 0.47505 0.13142 0.39694 0.0
C475 C 0.53306 0.08705 0.52561 0.0
C476 C 0.51545 0.07269 0.53791 0.0
C477 C 0.53127 0.10463 0.47709 0.0
C478 C 0.48975 0.13694 0.37001 0.0
H479 H 0.52631 0.23337 0.20698 0.0
H480 H 0.53204 0.2005 0.28109 0.0
H481 H 0.47219 0.16168 0.31218 0.0
H482 H 0.48211 0.06557 0.50707 0.0
H483 H 0.47917 0.09541 0.42059 0.0
H484 H 0.54451 0.12856 0.35665 0.0
C485 C 0.51902 0.20049 0.24152 0.0
C486 C 0.48807 0.15453 0.32134 0.0
C487 C 0.51587 0.21928 0.19877 0.0
C488 C 0.49608 0.07621 0.49904 0.0
C489 C 0.49434 0.09363 0.44965 0.0
C490 C 0.52859 0.13573 0.34893 0.0
C491 C 0.50474 0.18243 0.23624 0.0
C492 C 0.50664 0.16323 0.28662 0.0
C493 C 0.5119 0.10825 0.43764 0.0
C494 C 0.51006 0.12713 0.38487 0.0
H495 H 0.4719 0.20206 0.10201 0.0
H496 H 0.47696 0.16953 0.17758 0.0
H497 H 0.54156 0.15969 0.27499 0.0
H498 H 0.54838 0.08467 0.55336 0.0
H499 H 0.54513 0.11551 0.47151 0.0
C500 C 0.31886 0.51988 0.22879 0.0
C501 C 0.3168 0.50233 0.18047 0.0
C502 C 0.33768 0.52229 0.27168 0.0
C503 C 0.39578 0.50451 0.29074 0.0
H504 H 0.38744 0.51994 0.49199 0.0
C505 C 0.46723 0.50115 0.5001 0.0
C506 C 0.46761 0.51672 0.55609 0.0
C507 C 0.44919 0.49942 0.45321 0.0
C508 C 0.39026 0.51593 0.43576 0.0
H509 H 0.33295 0.47393 0.13764 0.0
H510 H 0.36591 0.47811 0.21158 0.0
H511 H 0.35613 0.51792 0.41148 0.0
H512 H 0.44908 0.54291 0.6051 0.0
H513 H 0.41823 0.54024 0.52347 0.0
H514 H 0.42995 0.50271 0.31477 0.0
C515 C 0.35311 0.49013 0.21657 0.0
C516 C 0.37216 0.51475 0.38933 0.0
C517 C 0.33423 0.48766 0.17423 0.0
C518 C 0.44945 0.53054 0.56337 0.0
C519 C 0.43153 0.5289 0.51641 0.0
C520 C 0.41395 0.50585 0.3371 0.0
C521 C 0.35502 0.50728 0.26699 0.0
C522 C 0.37458 0.50901 0.31602 0.0
C523 C 0.43098 0.51328 0.46052 0.0
C524 C 0.41154 0.51159 0.41056 0.0
H525 H 0.30557 0.53129 0.23503 0.0
H526 H 0.33857 0.53586 0.30902 0.0
H527 H 0.39843 0.50025 0.23458 0.0
H528 H 0.48085 0.49021 0.49248 0.0
H529 H 0.44945 0.48697 0.41176 0.0
C530 C 0.02651 0.32976 0.19269 0.0
C531 C 0.04298 0.3277 0.14042 0.0
C532 C 0.0241 0.34921 0.23195 0.0
C533 C 0.01681 0.39439 0.29582 0.0
H534 H 0.06983 0.42532 0.34821 0.0
C535 C 0.01934 0.45739 0.52964 0.0
C536 C 0.03145 0.47682 0.52002 0.0
C537 C 0.02043 0.44039 0.47905 0.0
C538 C 0.05481 0.41706 0.33352 0.0
H539 H 0.06958 0.3444 0.08705 0.0
H540 H 0.06494 0.37881 0.15281 0.0
H541 H 0.07169 0.39411 0.26684 0.0
H542 H 0.05439 0.49326 0.44862 0.0
H543 H 0.05647 0.46344 0.36079 0.0
H544 H 1.00007 0.41704 0.36433 0.0
C545 C 0.05402 0.36534 0.16497 0.0
C546 C 0.05584 0.3991 0.28636 0.0
C547 C 0.05649 0.34578 0.12613 0.0
C548 C 0.04485 0.47859 0.45824 0.0
C549 C 0.04611 0.46142 0.40785 0.0
C550 C 0.01583 0.41221 0.34345 0.0
C551 C 0.03813 0.36723 0.21997 0.0
C552 C 0.03687 0.3873 0.26707 0.0
C553 C 0.03379 0.44211 0.41728 0.0
C554 C 0.03482 0.42372 0.36361 0.0
H555 H 0.01631 0.31582 0.20596 0.0
H556 H 1.01189 0.34964 0.27425 0.0
H557 H 1.00173 0.38621 0.28153 0.0
H558 H 1.00879 0.45529 0.5762 0.0
H559 H 1.01093 0.42572 0.48892 0.0
C560 C 0.83265 0.01726 0.18407 0.0
C561 C 0.83086 0.99952 0.23197 0.0
C562 C 0.85122 0.01987 0.13999 0.0
C563 C 0.89746 0.98754 0.06262 0.0
H564 H 0.91883 0.0444 1.00252 0.0
C565 C 0.97528 0.99853 0.88218 0.0
C566 C 0.97464 1.01476 0.82808 0.0
C567 C 0.9585 0.9967 0.934 0.0
C568 C 0.91299 0.02835 0.01811 0.0
H569 H 0.84723 0.97098 0.27298 0.0
H570 H 0.87998 0.97575 0.19836 0.0
H571 H 0.88901 0.04182 0.08948 0.0
H572 H 0.95545 0.04174 0.78679 0.0
H573 H 0.92646 0.03847 0.87607 0.0
H574 H 0.92149 0.9741 0.99113 0.0
C575 C 0.86696 0.98752 0.19322 0.0
C576 C 0.89577 0.02686 0.06824 0.0
C577 C 0.84835 0.9849 0.23693 0.0
C578 C 0.95667 0.02901 0.82737 0.0
C579 C 0.94002 0.02726 0.87924 0.0
C580 C 0.91474 0.98903 1.01271 0.0
C581 C 0.86852 1.00476 0.14266 0.0
C582 C 0.88758 1.00642 0.0911 0.0
C583 C 0.94064 1.01114 0.93362 0.0
C584 C 0.92269 1.00947 0.98913 0.0
H585 H 0.81916 0.02846 0.17816 0.0
H586 H 0.8515 0.03321 0.10149 0.0
H587 H 0.89149 0.97146 0.07739 0.0
H588 H 0.9888 0.98724 0.88478 0.0
H589 H 0.95972 0.98416 0.97517 0.0
C590 C 0.55417 0.84148 0.19644 0.0
C591 C 0.53767 0.82551 0.19895 0.0
C592 C 0.55171 0.86051 0.15479 0.0
C593 C 0.51124 0.89383 0.04879 0.0
H594 H 0.56348 0.91442 0.95133 0.0
C595 C 0.51238 0.97385 0.87573 0.0
C596 C 0.52573 0.97466 0.81373 0.0
C597 C 0.51319 0.95602 0.92376 0.0
C598 C 0.54861 0.90886 0.97731 0.0
H599 H 0.50552 0.81701 0.16052 0.0
H600 H 0.50101 0.85016 0.08718 0.0
H601 H 0.56552 0.88339 0.0329 0.0
H602 H 0.551 0.95752 0.75573 0.0
H603 H 0.55186 0.92612 0.8369 0.0
H604 H 0.49423 0.91894 0.99101 0.0
C605 C 0.5158 0.84834 0.11853 0.0
C606 C 0.54986 0.89114 0.02549 0.0
C607 C 0.51826 0.82933 0.16083 0.0
C608 C 0.54007 0.95722 0.80165 0.0
C609 C 0.54082 0.93932 0.8493 0.0
C610 C 0.50998 0.91156 1.00031 0.0
C611 C 0.53274 0.86402 0.11327 0.0
C612 C 0.53122 0.88329 0.06234 0.0
C613 C 0.52745 0.9384 0.91148 0.0
C614 C 0.52866 0.9194 0.96358 0.0
H615 H 0.56941 0.83874 0.22454 0.0
H616 H 0.56497 0.87225 0.15399 0.0
H617 H 0.4965 0.88853 0.07612 0.0
H618 H 0.50118 0.98702 0.88711 0.0
H619 H 0.50285 0.95626 0.97126 0.0
C620 C 0.70881 0.56174 0.18065 0.0
C621 C 0.72253 0.54393 0.19427 0.0
C622 C 0.68954 0.55917 0.14051 0.0
C623 C 0.65072 0.5178 0.06159 0.0
H624 H 0.63812 0.56497 0.9281 0.0
C625 C 0.58456 0.51033 0.83429 0.0
C626 C 0.57183 0.52885 0.81933 0.0
C627 C 0.60246 0.51157 0.88187 0.0
C628 C 0.64113 0.5517 0.96555 0.0
H629 H 0.72663 0.50933 0.17773 0.0
H630 H 0.69293 0.50459 0.10749 0.0
H631 H 0.66914 0.56796 1.00924 0.0
H632 H 0.56849 0.56338 0.84155 0.0
H633 H 0.59921 0.56551 0.92489 0.0
H634 H 0.62271 0.50147 0.01686 0.0
C635 C 0.69679 0.52061 0.12873 0.0
C636 C 0.65903 0.55344 1.01258 0.0
C637 C 0.71608 0.52322 0.16937 0.0
C638 C 0.57766 0.54868 0.8526 0.0
C639 C 0.59553 0.54995 0.8999 0.0
C640 C 0.63278 0.51604 0.01429 0.0
C641 C 0.68349 0.53869 0.11184 0.0
C642 C 0.66412 0.53659 0.06182 0.0
C643 C 0.60828 0.53144 0.91544 0.0
C644 C 0.62762 0.53302 0.96563 0.0
H645 H 0.71358 0.57791 0.19846 0.0
H646 H 0.67965 0.57345 0.13052 0.0
H647 H 0.65385 0.50451 0.09884 0.0
H648 H 0.58061 0.4948 0.80947 0.0
H649 H 0.61194 0.49699 0.89143 0.0
C650 C 0.02031 0.72067 0.15012 0.0
C651 C 1.00014 0.72539 0.18243 0.0
C652 C 0.02328 0.70115 0.11124 0.0
C653 C 0.99033 0.65918 1.01237 0.0
H654 H 0.04522 0.62846 0.99811 0.0
C655 C 0.99824 0.57909 0.84549 0.0
C656 C 0.01752 0.57594 0.80555 0.0
C657 C 0.99651 0.59634 0.89524 0.0
C658 C 0.02979 0.63694 1.00077 0.0
H659 H 0.96758 0.71316 0.20163 0.0
H660 H 0.97279 0.67881 0.13674 0.0
H661 H 0.04196 0.65953 0.07998 0.0
H662 H 0.05009 0.58865 0.78694 0.0
H663 H 0.04704 0.61878 0.87258 0.0
H664 H 0.97819 0.63681 0.93284 0.0
C665 C 0.98631 0.69021 0.13976 0.0
C666 C 0.02792 0.65483 0.04802 0.0
C667 C 0.98339 0.70971 0.17823 0.0
C668 C 0.03501 0.59052 0.81682 0.0
C669 C 0.0333 0.60775 0.86657 0.0
C670 C 0.9922 0.64132 0.96526 0.0
C671 C 1.00607 0.68588 0.10351 0.0
C672 C 1.00814 0.66629 0.05463 0.0
C673 C 1.014 0.61103 0.90652 0.0
C674 C 1.01197 0.62989 0.9584 0.0
H675 H 0.03329 0.73274 0.15101 0.0
H676 H 0.03868 0.69863 0.08391 0.0
H677 H 0.97495 0.66775 0.01423 0.0
H678 H 0.98434 0.56836 0.83775 0.0
H679 H 0.98144 0.59805 0.92523 0.0
C680 C 0.05318 0.23428 0.1448 0.0
C681 C 0.06822 0.25153 0.14007 0.0
C682 C 0.05915 0.21452 0.17581 0.0
C683 C 0.07901 0.17183 0.22736 0.0
H684 H 0.0798 0.18434 0.43266 0.0
C685 C 0.02469 0.12711 0.42248 0.0
C686 C 0.02852 0.12781 0.49713 0.0
C687 C 0.0398 0.13614 0.37441 0.0
C688 C 0.08037 0.18012 0.37586 0.0
H689 H 0.10137 0.26174 0.16236 0.0
H690 H 0.11144 0.22733 0.22296 0.0
H691 H 0.0897 0.21269 0.34722 0.0
H692 H 0.05193 0.13637 0.5798 0.0
H693 H 0.07874 0.15159 0.49618 0.0
H694 H 0.06853 0.13957 0.25556 0.0
C695 C 0.09534 0.22897 0.19959 0.0
C696 C 0.08611 0.19649 0.3268 0.0
C697 C 0.08952 0.24862 0.16613 0.0
C698 C 0.0484 0.13615 0.52267 0.0
C699 C 0.06375 0.14481 0.47457 0.0
C700 C 0.07368 0.15527 0.27645 0.0
C701 C 0.08008 0.21187 0.20505 0.0
C702 C 0.08382 0.19291 0.25236 0.0
C703 C 0.05926 0.14576 0.40003 0.0
C704 C 0.07254 0.15981 0.35098 0.0
H705 H 0.03652 0.23638 0.12694 0.0
H706 H 0.0469 0.2018 0.18136 0.0
H707 H 0.07732 0.16873 0.16992 0.0
H708 H 1.00947 0.12064 0.40158 0.0
H709 H 0.03546 0.13682 0.3177 0.0
C710 C 0.31945 0.04882 0.16216 0.0
C711 C 0.30183 0.06325 0.1653 0.0
C712 C 0.34024 0.05575 0.18196 0.0
C713 C 0.36999 0.08705 0.30409 0.0
H714 H 0.41761 0.0791 0.1684 0.0
C715 C 0.46924 0.0721 0.28808 0.0
C716 C 0.46958 0.05338 0.33254 0.0
C717 C 0.44973 0.08318 0.27563 0.0
C718 C 0.40457 0.08209 0.20669 0.0
H719 H 0.29175 0.09597 0.19311 0.0
H720 H 0.32839 0.10791 0.23222 0.0
H721 H 0.3801 0.07918 0.12459 0.0
H722 H 0.44978 0.03294 0.40353 0.0
H723 H 0.41625 0.05247 0.38312 0.0
H724 H 0.39438 0.08781 0.38716 0.0
C725 C 0.32601 0.09144 0.21236 0.0
C726 C 0.38314 0.082 0.18158 0.0
C727 C 0.30519 0.08462 0.19069 0.0
C728 C 0.45039 0.04733 0.36949 0.0
C729 C 0.43103 0.0586 0.35789 0.0
C730 C 0.39146 0.08682 0.32944 0.0
C731 C 0.34368 0.07708 0.20711 0.0
C732 C 0.36573 0.08348 0.23052 0.0
C733 C 0.4303 0.07598 0.30835 0.0
C734 C 0.40885 0.08327 0.28127 0.0
H735 H 0.31707 0.03217 0.1441 0.0
H736 H 0.35363 0.04432 0.17882 0.0
H737 H 0.35671 0.0881 0.34263 0.0
H738 H 0.48386 0.07772 0.26071 0.0
H739 H 0.4496 0.09669 0.23769 0.0
C740 C 0.46189 0.29644 0.19398 0.0
C741 C 0.46323 0.29142 0.12019 0.0
C742 C 0.45603 0.31725 0.21613 0.0
C743 C 0.47227 0.36874 0.15671 0.0
H744 H 0.45016 0.38413 0.34632 0.0
C745 C 0.51854 0.42923 0.33766 0.0
C746 C 0.52205 0.42104 0.40789 0.0
C747 C 0.50284 0.4198 0.29265 0.0
C748 C 0.45631 0.38026 0.29292 0.0
H749 H 0.45709 0.30326 1.01182 0.0
H750 H 0.44835 0.34056 0.05042 0.0
H751 H 0.43277 0.35469 0.27839 0.0
H752 H 0.51154 0.39682 0.48639 0.0
H753 H 0.48488 0.37971 0.40702 0.0
H754 H 0.49725 0.39253 0.17407 0.0
C755 C 0.45124 0.32814 0.09107 0.0
C756 C 0.44615 0.36363 0.25369 0.0
C757 C 0.4564 0.30694 0.06903 0.0
C758 C 0.50946 0.40329 0.43225 0.0
C759 C 0.49383 0.39381 0.38721 0.0
C760 C 0.48253 0.38525 0.19612 0.0
C761 C 0.45213 0.33371 0.16475 0.0
C762 C 0.45516 0.35659 0.18792 0.0
C763 C 0.49037 0.40191 0.3168 0.0
C764 C 0.4756 0.39001 0.26686 0.0
H765 H 0.46747 0.28494 0.23441 0.0
H766 H 0.4572 0.32105 0.27323 0.0
H767 H 0.47954 0.36373 0.10599 0.0
H768 H 0.52809 0.44284 0.31716 0.0
H769 H 0.50062 0.42638 0.23873 0.0
C770 C 0.2307 0.46472 0.07617 0.0
C771 C 0.24274 0.47358 0.13369 0.0
C772 C 0.20804 0.46257 0.08171 0.0
C773 C 0.1663 0.48886 0.09167 0.0
H774 H 0.1331 0.48011 0.26799 0.0
C775 C 0.08926 0.52761 0.26049 0.0
C776 C 0.09813 0.54875 0.26913 0.0
C777 C 0.1009 0.51146 0.22393 0.0
C778 C 0.1418 0.4822 0.21737 0.0
H779 H 0.24139 0.48422 0.24487 0.0
H780 H 0.20212 0.47964 0.25623 0.0
H781 H 0.16619 0.45896 0.24752 0.0
H782 H 0.12552 0.56975 0.24069 0.0
H783 H 0.14527 0.54188 0.17485 0.0
H784 H 0.14324 0.51378 0.06517 0.0
C785 C 0.20988 0.47458 0.20637 0.0
C786 C 0.16075 0.47013 0.20581 0.0
C787 C 0.2324 0.47717 0.20016 0.0
C788 C 0.11802 0.55381 0.23488 0.0
C789 C 0.12938 0.53781 0.197 0.0
C790 C 0.14756 0.50116 0.10369 0.0
C791 C 0.19733 0.46871 0.14569 0.0
C792 C 0.17389 0.47439 0.14503 0.0
C793 C 0.1213 0.51633 0.19344 0.0
C794 C 0.13594 0.49881 0.16869 0.0
H795 H 0.23854 0.46157 0.02479 0.0
H796 H 0.19877 0.45791 0.03427 0.0
H797 H 0.17609 0.49249 0.04444 0.0
H798 H 0.07364 0.52326 0.284 0.0
H799 H 0.09435 0.49501 0.22162 0.0
C800 C 0.98683 0.81856 0.15736 0.0
C801 C 0.97282 0.80074 0.16869 0.0
C802 C 0.9803 0.83601 0.11439 0.0
C803 C 0.9533 0.84447 0.95082 0.0
H804 H 0.96938 0.90441 0.99141 0.0
C805 C 1.01174 0.89292 0.78275 0.0
C806 C 0.01471 0.91522 0.7983 0.0
C807 C 0.99367 0.88159 0.81024 0.0
C808 C 0.96407 0.88801 0.97821 0.0
H809 H 0.94054 0.78766 0.14837 0.0
H810 H 0.92945 0.81788 0.06865 0.0
H811 H 0.9613 0.87983 0.09043 0.0
H812 H 0.99804 0.94378 0.84211 0.0
H813 H 0.96639 0.92441 0.88392 0.0
H814 H 0.95789 0.85214 0.83865 0.0
C815 C 0.94528 0.81844 0.09457 0.0
C816 C 0.95953 0.8739 0.03553 0.0
C817 C 0.95163 0.80123 0.13962 0.0
C818 C 0.99707 0.92658 0.8296 0.0
C819 C 0.97873 0.91537 0.8548 0.0
C820 C 0.9579 0.85861 0.89314 0.0
C821 C 0.9598 0.83571 0.08043 0.0
C822 C 0.95564 0.85172 0.02245 0.0
C823 C 0.97791 0.8925 0.85199 0.0
C824 C 0.96492 0.88013 0.90662 0.0
H825 H 1.00337 0.81833 0.17774 0.0
H826 H 0.99194 0.84897 0.10325 0.0
H827 H 0.95027 0.82737 0.9395 0.0
H828 H 0.02422 0.88373 0.75499 0.0
H829 H 0.99344 0.86398 0.80525 0.0
C830 C 0.75032 0.98046 0.17501 0.0
C831 C 0.75568 0.97398 0.24546 0.0
C832 C 0.72882 0.9797 0.1516 0.0
C833 C 0.67715 0.99102 0.23049 0.0
H834 H 0.66024 0.98911 0.0285 0.0
C835 C 0.60417 0.03763 0.09351 0.0
C836 C 0.61203 0.05121 0.03763 0.0
C837 C 0.61798 0.02259 0.12694 0.0
C838 C 0.66457 0.98943 0.08533 0.0
H839 H 0.74341 0.95945 0.34424 0.0
H840 H 0.70516 0.95905 0.30449 0.0
H841 H 0.69095 0.96723 0.07017 0.0
H842 H 0.64041 0.06031 0.97431 0.0
H843 H 0.66454 0.03392 0.03241 0.0
H844 H 0.65144 1.01428 0.24434 0.0
C845 C 0.71771 0.96451 0.26721 0.0
C846 C 0.68202 0.97687 0.10922 0.0
C847 C 0.73947 0.96483 0.29002 0.0
C848 C 0.63406 0.05019 0.01777 0.0
C849 C 0.64773 0.03495 0.05023 0.0
C850 C 0.65951 1.00346 0.20665 0.0
C851 C 0.71213 0.97284 0.19878 0.0
C852 C 0.6894 0.97872 0.18087 0.0
C853 C 0.63964 0.0207 0.10369 0.0
C854 C 0.65402 1.00369 0.13304 0.0
H855 H 0.76246 0.98798 0.14026 0.0
H856 H 0.7251 0.98658 0.09902 0.0
H857 H 0.68249 0.99273 0.286 0.0
H858 H 0.58716 0.03815 0.10944 0.0
H859 H 0.61154 1.01184 0.16853 0.0
C860 C 0.55202 0.73199 0.20586 0.0
C861 C 0.56569 0.75023 0.21417 0.0
C862 C 0.55972 0.71312 0.1733 0.0
C863 C 0.58589 0.70048 0.01972 0.0
H864 H 0.57638 0.64062 0.08097 0.0
C865 C 0.54708 0.64115 0.82278 0.0
C866 C 0.52936 0.62992 0.8539 0.0
C867 C 0.56323 0.65043 0.86664 0.0
C868 C 0.57924 0.65721 0.06268 0.0
H869 H 0.59838 0.76283 0.19792 0.0
H870 H 0.61147 0.7301 0.13415 0.0
H871 H 0.58432 0.66864 0.17098 0.0
H872 H 0.51506 0.61879 0.95477 0.0
H873 H 0.54223 0.63567 0.03102 0.0
H874 H 0.57767 0.69012 0.9134 0.0
C875 C 0.59509 0.73025 0.1562 0.0
C876 C 0.58417 0.67312 0.11423 0.0
C877 C 0.58756 0.74894 0.19167 0.0
C878 C 0.52861 0.62725 0.92923 0.0
C879 C 0.54446 0.63679 0.97302 0.0
C880 C 0.58038 0.68471 0.96843 0.0
C881 C 0.58103 0.71239 0.14573 0.0
C882 C 0.58607 0.69507 0.09344 0.0
C883 C 0.56169 0.64907 0.94258 0.0
C884 C 0.57531 0.66322 0.99022 0.0
H885 H 0.53493 0.7328 0.22 0.0
H886 H 0.54841 0.69975 0.16395 0.0
H887 H 0.58717 0.71738 1.00265 0.0
H888 H 0.5482 0.64316 0.76472 0.0
H889 H 0.57643 0.65938 0.84106 0.0
C890 C 0.80384 0.58599 0.16376 0.0
C891 C 0.80027 0.56512 0.19334 0.0
C892 C 0.82344 0.59083 0.12807 0.0
C893 C 0.87941 0.57036 0.098 0.0
H894 H 0.86857 0.5815 0.89467 0.0
C895 C 0.93673 0.53374 0.89762 0.0
C896 C 0.92521 0.52035 0.84879 0.0
C897 C 0.92639 0.55111 0.93197 0.0
C898 C 0.87203 0.57868 0.95137 0.0
H899 H 0.81427 0.53325 0.21108 0.0
H900 H 0.84864 0.54175 0.15159 0.0
H901 H 0.84039 0.58966 0.9837 0.0
H902 H 0.89476 0.51676 0.79029 0.0
H903 H 0.87627 0.54586 0.85369 0.0
H904 H 0.9099 0.55714 0.06611 0.0
C905 C 0.83654 0.5545 0.15608 0.0
C906 C 0.85597 0.58361 1.00247 0.0
C907 C 0.81689 0.54958 0.19013 0.0
C908 C 0.90384 0.52616 0.82974 0.0
C909 C 0.89338 0.54327 0.86509 0.0
C910 C 0.89537 0.56531 0.04712 0.0
C911 C 0.83983 0.57497 0.12311 0.0
C912 C 0.85899 0.57798 0.07547 0.0
C913 C 0.90417 0.55516 0.91963 0.0
C914 C 0.8912 0.56791 0.97268 0.0
H915 H 0.79116 0.59819 0.16613 0.0
H916 H 0.82557 0.60666 0.1027 0.0
H917 H 0.88223 0.56622 0.15426 0.0
H918 H 0.95328 0.52999 0.91356 0.0
H919 H 0.93538 0.56032 0.97218 0.0
C920 C 0.02545 0.25006 0.9814 0.0
C921 C 0.04647 0.25783 0.9981 0.0
C922 C 0.02259 0.23018 0.94417 0.0
C923 C 0.05322 0.18692 0.8397 0.0
H924 H 1.00493 0.14994 0.89908 0.0
C925 C 0.03879 0.10191 0.70738 0.0
C926 C 0.03019 0.08488 0.74995 0.0
C927 C 0.04006 0.12334 0.73439 0.0
C928 C 0.01869 0.15987 0.8822 0.0
H929 H 0.08085 0.25135 0.98606 0.0
H930 H 0.07612 0.21691 0.92251 0.0
H931 H 1.00848 0.18651 0.94894 0.0
H932 H 0.01561 0.07736 0.85386 0.0
H933 H 0.01827 0.11434 0.90139 0.0
H934 H 0.06409 0.16 0.77589 0.0
C935 C 0.06168 0.22604 0.93661 0.0
C936 C 0.02053 0.18118 0.91005 0.0
C937 C 0.06448 0.24588 0.97321 0.0
C938 C 0.02262 0.08997 0.81981 0.0
C939 C 0.02388 0.11138 0.84677 0.0
C940 C 0.05151 0.16558 0.81247 0.0
C941 C 0.04068 0.21749 0.92281 0.0
C942 C 0.03791 0.19509 0.88968 0.0
C943 C 0.03265 0.12852 0.80452 0.0
C944 C 0.03427 0.15157 0.83332 0.0
H945 H 1.01126 0.25868 1.00096 0.0
H946 H 1.00613 0.22454 0.93369 0.0
H947 H 0.06669 0.19701 0.82134 0.0
H948 H 0.04477 0.09863 0.65334 0.0
H949 H 0.04666 0.13598 0.69989 0.0
C950 C 0.30481 0.06231 0.99828 0.0
C951 C 0.29258 0.04399 0.02062 0.0
C952 C 0.32372 0.05995 0.95631 0.0
C953 C 0.35499 0.02396 0.83443 0.0
H954 H 0.40556 0.05283 0.91736 0.0
C955 C 0.4418 0.0315 0.69492 0.0
C956 C 0.45959 0.02633 0.73995 0.0
C957 C 0.42045 0.03272 0.72331 0.0
C958 C 0.39162 0.04469 0.89329 0.0
H959 H 0.28992 1.00889 1.01228 0.0
H960 H 0.3226 1.00474 0.9358 0.0
H961 H 0.36987 0.05686 0.97451 0.0
H962 H 0.46842 0.0177 0.84999 0.0
H963 H 0.43171 0.02052 0.89915 0.0
H964 H 0.37696 1.01198 0.75264 0.0
C965 C 0.31764 0.02096 0.95184 0.0
C966 C 0.3711 0.0471 0.92588 0.0
C967 C 0.29882 0.02332 0.9951 0.0
C968 C 0.4553 0.022 0.81355 0.0
C969 C 0.43417 0.02362 0.84198 0.0
C970 C 0.37555 0.02191 0.80082 0.0
C971 C 0.33076 0.0392 0.93403 0.0
C972 C 0.35248 0.03669 0.89729 0.0
C973 C 0.41645 0.02921 0.79763 0.0
C974 C 0.3942 0.03208 0.83029 0.0
H975 H 0.30037 0.07843 0.01694 0.0
H976 H 0.3332 0.07438 0.9429 0.0
H977 H 0.34101 1.01577 0.81087 0.0
H978 H 0.44444 0.03517 0.63823 0.0
H979 H 0.40718 0.03714 0.68763 0.0
C980 C 0.50057 0.29666 0.95471 0.0
C981 C 0.5031 0.29397 0.02969 0.0
C982 C 0.50357 0.31723 0.92193 0.0
C983 C 0.52674 0.37347 0.94992 0.0
H984 H 0.48482 0.38971 0.80268 0.0
C985 C 0.53515 0.45385 0.77986 0.0
C986 C 0.51604 0.46563 0.76425 0.0
C987 C 0.53411 0.43307 0.81257 0.0
C988 C 0.49663 0.38558 0.84396 0.0
H989 H 0.51123 0.31063 0.12896 0.0
H990 H 0.51708 0.34646 0.0721 0.0
H991 H 0.48281 0.35359 0.85832 0.0
H992 H 0.48082 0.4641 0.76896 0.0
H993 H 0.47892 0.42819 0.82659 0.0
H994 H 0.54041 0.40559 0.93596 0.0
C995 C 0.51285 0.33272 0.03805 0.0
C996 C 0.49564 0.36464 0.87543 0.0
C997 C 0.50967 0.31215 0.07081 0.0
C998 C 0.49587 0.45581 0.78143 0.0
C999 C 0.49481 0.43499 0.81373 0.0
C1000 C 0.52785 0.39437 0.91794 0.0
C1001 C 0.5093 0.33576 0.96324 0.0
C1002 C 0.51067 0.35817 0.92899 0.0
C1003 C 0.51392 0.42323 0.83009 0.0
C1004 C 0.51279 0.40082 0.86444 0.0
H1005 H 0.49513 0.28302 0.92208 0.0
H1006 H 0.501 0.31868 0.86418 0.0
H1007 H 0.53869 0.36922 0.9906 0.0
H1008 H 0.55101 0.46078 0.76743 0.0
H1009 H 0.54921 0.42457 0.82321 0.0
C1010 C 0.23143 0.52266 0.06549 0.0
C1011 C 0.24842 0.51057 0.03416 0.0
C1012 C 0.21201 0.52664 0.02709 0.0
C1013 C 0.17717 0.50155 0.88898 0.0
H1014 H 0.14901 0.55777 0.87285 0.0
C1015 C 0.09838 0.51102 0.71711 0.0
C1016 C 0.08347 0.52761 0.7333 0.0
C1017 C 0.11858 0.50983 0.75284 0.0
C1018 C 0.15626 0.54178 0.8777 0.0
H1019 H 0.25846 0.49333 0.93823 0.0
H1020 H 0.22454 0.50002 0.87105 0.0
H1021 H 0.18376 0.55478 0.93623 0.0
H1022 H 0.07778 0.55567 0.80119 0.0
H1023 H 0.11233 0.55316 0.8662 0.0
H1024 H 0.14946 0.4881 0.83469 0.0
C1025 C 0.22629 0.50671 0.92493 0.0
C1026 C 0.17643 0.54016 0.91377 0.0
C1027 C 0.24584 0.50315 0.96282 0.0
C1028 C 0.08915 0.54295 0.7865 0.0
C1029 C 0.10913 0.54147 0.82371 0.0
C1030 C 0.15678 0.50303 0.85462 0.0
C1031 C 0.20892 0.51816 0.95698 0.0
C1032 C 0.18731 0.52007 0.91911 0.0
C1033 C 0.12435 0.52489 0.80759 0.0
C1034 C 0.14597 0.52323 0.8472 0.0
H1035 H 0.23277 0.528 0.12112 0.0
H1036 H 0.19893 0.5353 0.05379 0.0
H1037 H 0.18482 0.4857 0.89348 0.0
H1038 H 0.09444 0.49893 0.6764 0.0
H1039 H 0.12966 0.49706 0.73674 0.0
C1040 C 0.97856 0.8097 0.33604 0.0
C1041 C 0.99664 0.79796 0.31052 0.0
C1042 C 0.98127 0.82892 0.37654 0.0
C1043 C 0.022 0.87323 0.41433 0.0
H1044 H 0.98105 0.88928 0.56479 0.0
C1045 C 0.03436 0.95178 0.58743 0.0
C1046 C 0.01587 0.96414 0.6059 0.0
C1047 C 0.03227 0.9311 0.55514 0.0
C1048 C 0.99254 0.88526 0.52239 0.0
H1049 H 0.03187 0.79724 0.30853 0.0
H1050 H 0.03679 0.83047 0.38079 0.0
H1051 H 0.97729 0.85413 0.50417 0.0
H1052 H 0.98062 0.96351 0.60812 0.0
H1053 H 0.97683 0.92789 0.55002 0.0
H1054 H 0.03716 0.9044 0.43217 0.0
C1055 C 0.02037 0.82498 0.36887 0.0
C1056 C 0.99039 0.86495 0.48743 0.0
C1057 C 0.01761 0.80567 0.32838 0.0
C1058 C 0.99521 0.95485 0.59284 0.0
C1059 C 0.99307 0.93415 0.56043 0.0
C1060 C 0.02415 0.89353 0.44927 0.0
C1061 C 1.00222 0.83714 0.39288 0.0
C1062 C 1.00502 0.85857 0.43247 0.0
C1063 C 1.01159 0.92195 0.54038 0.0
C1064 C 1.00941 0.89998 0.50378 0.0
H1065 H 0.96221 0.80426 0.32275 0.0
H1066 H 0.96683 0.83775 0.39281 0.0
H1067 H 0.03341 0.86929 0.37163 0.0
H1068 H 0.0506 0.95818 0.59715 0.0
H1069 H 0.04697 0.92221 0.54218 0.0
C1070 C 0.74509 0.0206 0.33539 0.0
C1071 C 0.75985 1.00556 0.36478 0.0
C1072 C 0.72497 0.02469 0.36953 0.0
C1073 C 0.6923 1.01241 0.54091 0.0
H1074 H 0.64364 0.02685 0.41679 0.0
C1075 C 0.60403 0.0251 0.65654 0.0
C1076 C 0.58614 0.01946 0.61241 0.0
C1077 C 0.62555 0.02477 0.62923 0.0
C1078 C 0.65689 0.02252 0.45264 0.0
H1079 H 0.76521 0.98311 0.45282 0.0
H1080 H 0.73026 0.9896 0.51183 0.0
H1081 H 0.67982 0.02424 0.36577 0.0
H1082 H 0.5775 1.00816 0.50482 0.0
H1083 H 0.61441 1.0068 0.45893 0.0
H1084 H 0.66902 1.00988 0.6273 0.0
C1085 C 0.73414 0.999 0.46386 0.0
C1086 C 0.67801 0.02135 0.42318 0.0
C1087 C 0.75436 0.99522 0.4302 0.0
C1088 C 0.5906 1.01292 0.54082 0.0
C1089 C 0.61201 1.01234 0.5139 0.0
C1090 C 0.67111 1.0134 0.57029 0.0
C1091 C 0.71877 1.0135 0.43356 0.0
C1092 C 0.6962 1.01603 0.46641 0.0
C1093 C 0.62995 0.01851 0.55709 0.0
C1094 C 0.65291 0.01825 0.52659 0.0
H1095 H 0.74876 0.02846 0.28423 0.0
H1096 H 0.71414 0.03635 0.34453 0.0
H1097 H 0.70563 1.00877 0.57722 0.0
H1098 H 0.60145 0.03002 0.71211 0.0
H1099 H 0.63868 0.02981 0.66464 0.0
C1100 C 0.51775 0.74612 0.35123 0.0
C1101 C 0.53835 0.75623 0.34645 0.0
C1102 C 0.51496 0.72661 0.39085 0.0
C1103 C 0.52149 0.6773 0.42711 0.0
H1104 H 0.54169 0.66942 0.62402 0.0
C1105 C 0.51 0.5939 0.57301 0.0
C1106 C 0.52503 0.58745 0.62612 0.0
C1107 C 0.51055 0.61507 0.54376 0.0
C1108 C 0.53627 0.67106 0.56858 0.0
H1109 H 0.57183 0.75444 0.38206 0.0
H1110 H 0.56677 0.72111 0.45442 0.0
H1111 H 0.54456 0.70526 0.56637 0.0
H1112 H 0.55266 0.59811 0.68957 0.0
H1113 H 0.55464 0.63459 0.63569 0.0
H1114 H 0.5143 0.64312 0.42675 0.0
C1115 C 0.55283 0.728 0.42679 0.0
C1116 C 0.53775 0.6918 0.53575 0.0
C1117 C 0.55573 0.74715 0.38574 0.0
C1118 C 0.54066 0.60272 0.64945 0.0
C1119 C 0.54165 0.62376 0.6186 0.0
C1120 C 0.52045 0.65648 0.4592 0.0
C1121 C 0.53257 0.71709 0.42823 0.0
C1122 C 0.5303 0.69523 0.46464 0.0
C1123 C 0.52659 0.6304 0.56505 0.0
C1124 C 0.52774 0.65289 0.53077 0.0
H1125 H 0.50421 0.75251 0.32036 0.0
H1126 H 0.49912 0.71869 0.39096 0.0
H1127 H 0.51595 0.67923 0.37183 0.0
H1128 H 0.4977 0.58251 0.55409 0.0
H1129 H 0.49823 0.61932 0.50439 0.0
C1130 C 0.79833 0.52406 0.3624 0.0
C1131 C 0.79244 0.54502 0.33854 0.0
C1132 C 0.81714 0.52097 0.40509 0.0
C1133 C 0.86048 0.55136 0.51224 0.0
H1134 H 0.89445 0.49956 0.47406 0.0
C1135 C 0.94416 0.53614 0.65644 0.0
C1136 C 0.96076 0.52662 0.61459 0.0
C1137 C 0.92255 0.53713 0.63041 0.0
C1138 C 0.88537 0.51427 0.48526 0.0
H1139 H 0.80123 0.57918 0.34329 0.0
H1140 H 0.83393 0.574 0.41596 0.0
H1141 H 0.85932 0.50411 0.41569 0.0
H1142 H 0.96719 0.50945 0.51475 0.0
H1143 H 0.93025 0.51179 0.46849 0.0
H1144 H 0.88708 0.56197 0.57916 0.0
C1145 C 0.82407 0.5598 0.40327 0.0
C1146 C 0.86484 0.51673 0.45237 0.0
C1147 C 0.80527 0.56285 0.36115 0.0
C1148 C 0.95497 0.51731 0.54782 0.0
C1149 C 0.93353 0.5184 0.52165 0.0
C1150 C 0.8811 0.54896 0.5448 0.0
C1151 C 0.83068 0.53876 0.42494 0.0
C1152 C 0.85205 0.53544 0.46448 0.0
C1153 C 0.91689 0.52853 0.5619 0.0
C1154 C 0.89409 0.53049 0.53122 0.0
H1155 H 0.78901 0.50995 0.34507 0.0
H1156 H 0.82124 0.50451 0.42137 0.0
H1157 H 0.8512 0.56588 0.52445 0.0
H1158 H 0.94799 0.54335 0.7084 0.0
H1159 H 0.91029 0.54472 0.66407 0.0
loop_
_geom_bond_atom_site_label_1
_geom_bond_atom_site_label_2
_geom_bond_distance
_geom_bond_site_symmetry_2
_ccdc_geom_bond_type
C0 N1 1.317 . S
C0 N2 1.348 . S
C0 C3 1.485 . S
N1 C0 1.317 . S
N1 N5 1.370 . S
N2 C0 1.348 . S
N2 C4 1.346 . S
C3 C0 1.485 . S
C3 H7 0.960 . S
C3 H8 0.961 . S
C3 H9 0.960 . S
C4 N2 1.346 . S
C4 N5 1.307 . S
C4 C6 1.486 . S
N5 N1 1.370 . S
N5 C4 1.307 . S
C6 C4 1.486 . S
C6 H10 0.960 . S
C6 H11 0.960 . S
C6 H12 0.959 . S
H7 C3 0.960 . S
H8 C3 0.961 . S
H9 C3 0.960 . S
H10 C6 0.960 . S
H11 C6 0.960 . S
H12 C6 0.959 . S
C13 N14 1.317 . S
C13 N15 1.348 . S
C13 C16 1.485 . S
N14 C13 1.317 . S
N14 N18 1.370 . S
N15 C13 1.348 . S
N15 C17 1.346 . S
C16 C13 1.485 . S
C16 H20 0.960 . S
C16 H21 0.961 . S
C16 H22 0.960 . S
C17 N15 1.346 . S
C17 N18 1.307 . S
C17 C19 1.486 . S
N18 N14 1.370 . S
N18 C17 1.307 . S
C19 C17 1.486 . S
C19 H23 0.960 . S
C19 H24 0.960 . S
C19 H25 0.959 . S
H20 C16 0.960 . S
H21 C16 0.961 . S
H22 C16 0.960 . S
H23 C19 0.960 . S
H24 C19 0.960 . S
H25 C19 0.959 . S
C26 N27 1.317 . S
C26 N28 1.348 . S
C26 C29 1.485 . S
N27 C26 1.317 . S
N27 N31 1.370 . S
N28 C26 1.348 . S
N28 C30 1.346 . S
C29 C26 1.485 . S
C29 H33 0.960 . S
C29 H34 0.961 . S
C29 H35 0.960 . S
C30 N28 1.346 . S
C30 N31 1.307 . S
C30 C32 1.486 . S
N31 N27 1.370 . S
N31 C30 1.307 . S
C32 C30 1.486 . S
C32 H36 0.960 . S
C32 H37 0.960 . S
C32 H38 0.959 . S
H33 C29 0.960 . S
H34 C29 0.961 . S
H35 C29 0.960 . S
H36 C32 0.960 . S
H37 C32 0.960 . S
H38 C32 0.959 . S
C39 N40 1.317 . S
C39 N41 1.348 . S
C39 C42 1.485 . S
N40 C39 1.317 . S
N40 N44 1.370 . S
N41 C39 1.348 . S
N41 C43 1.346 . S
C42 C39 1.485 . S
C42 H46 0.960 . S
C42 H47 0.961 . S
C42 H48 0.960 . S
C43 N41 1.346 . S
C43 N44 1.307 . S
C43 C45 1.486 . S
N44 N40 1.370 . S
N44 C43 1.307 . S
C45 C43 1.486 . S
C45 H49 0.960 . S
C45 H50 0.960 . S
C45 H51 0.959 . S
H46 C42 0.960 . S
H47 C42 0.961 . S
H48 C42 0.960 . S
H49 C45 0.960 . S
H50 C45 0.960 . S
H51 C45 0.959 . S
C52 N53 1.316 1_556 S
C52 N54 1.348 1_556 S
C52 C55 1.485 . S
N53 C52 1.316 1_554 S
N53 N57 1.386 . S
N54 C52 1.348 1_554 S
N54 C56 1.346 . S
C55 C52 1.485 . S
C55 H59 0.960 . S
C55 H60 0.961 . S
C55 H61 0.960 . S
C56 N54 1.346 . S
C56 N57 1.307 . S
C56 C58 1.486 . S
N57 N53 1.386 . S
N57 C56 1.307 . S
C58 C56 1.486 . S
C58 H62 0.960 . S
C58 H63 0.960 . S
C58 H64 0.959 . S
H59 C55 0.960 . S
H60 C55 0.961 . S
H61 C55 0.960 . S
H62 C58 0.960 . S
H63 C58 0.960 . S
H64 C58 0.959 . S
C65 N66 1.317 1_556 S
C65 N67 1.348 1_556 S
C65 C68 1.485 . S
N66 C65 1.317 1_554 S
N66 N70 1.370 . S
N67 C65 1.348 1_554 S
N67 C69 1.346 . S
C68 C65 1.485 . S
C68 H72 0.960 . S
C68 H73 0.961 . S
C68 H74 0.960 . S
C69 N67 1.346 . S
C69 N70 1.307 . S
C69 C71 1.486 . S
N70 N66 1.370 . S
N70 C69 1.307 . S
C71 C69 1.486 . S
C71 H75 0.960 . S
C71 H76 0.960 . S
C71 H77 0.959 . S
H72 C68 0.960 . S
H73 C68 0.961 . S
H74 C68 0.960 . S
H75 C71 0.960 . S
H76 C71 0.960 . S
H77 C71 0.959 . S
C78 N79 1.317 1_556 S
C78 N80 1.348 1_556 S
C78 C81 1.485 . S
N79 C78 1.317 1_554 S
N79 N83 1.370 . S
N80 C78 1.348 1_554 S
N80 C82 1.346 . S
C81 C78 1.485 . S
C81 H85 0.960 . S
C81 H86 0.961 . S
C81 H87 0.960 . S
C82 N80 1.346 . S
C82 N83 1.307 . S
C82 C84 1.486 . S
N83 N79 1.370 . S
N83 C82 1.307 . S
C84 C82 1.486 . S
C84 H88 0.960 . S
C84 H89 0.960 . S
C84 H90 0.959 . S
H85 C81 0.960 . S
H86 C81 0.961 . S
H87 C81 0.960 . S
H88 C84 0.960 . S
H89 C84 0.960 . S
H90 C84 0.959 . S
C91 N92 1.317 . S
C91 N93 1.348 1_556 S
C91 C94 1.485 . S
N92 C91 1.317 . S
N92 N96 1.370 1_556 S
N93 C91 1.348 1_554 S
N93 C95 1.346 . S
C94 C91 1.485 . S
C94 H98 0.960 . S
C94 H99 0.961 . S
C94 H100 0.960 . S
C95 N93 1.346 . S
C95 N96 1.307 . S
C95 C97 1.486 . S
N96 N92 1.370 1_554 S
N96 C95 1.307 . S
C97 C95 1.486 . S
C97 H101 0.960 . S
C97 H102 0.960 . S
C97 H103 0.959 . S
H98 C94 0.960 . S
H99 C94 0.961 . S
H100 C94 0.960 . S
H101 C97 0.960 . S
H102 C97 0.960 . S
H103 C97 0.959 . S
Tb104 N133 2.617 . S
Tb104 N139 2.572 . S
Tb104 O148 2.465 1_655 S
Tb104 O149 2.387 1_545 S
Tb104 O151 2.428 . S
Tb104 O152 2.308 1_655 S
Tb104 O156 2.349 1_655 S
Tb104 O159 2.393 . S
Tb104 C168 2.802 . S
C105 N106 1.379 . S
C105 C108 1.416 . S
C105 C112 1.424 . S
N106 C105 1.379 . S
N106 C109 1.334 . S
N106 Tb115 2.617 1_545 S
C107 C109 1.390 . S
C107 C110 1.339 . S
C107 H127 0.930 . S
C108 C105 1.416 . S
C108 C110 1.416 . S
C108 C114 1.448 . S
C109 N106 1.334 . S
C109 C107 1.390 . S
C109 H120 0.930 1_545 S
C110 C107 1.339 . S
C110 C108 1.416 . S
C110 H131 0.930 . S
C111 C112 1.413 . S
C111 C113 1.427 . S
C111 C117 1.416 . S
C112 C105 1.424 . S
C112 C111 1.413 . S
C112 N116 1.361 . S
C113 C111 1.427 . S
C113 C114 1.328 . S
C113 H128 0.929 1_556 S
C114 C108 1.448 . S
C114 C113 1.328 . S
C114 H129 0.930 . S
Tb115 N106 2.617 1_565 S
Tb115 N116 2.572 1_565 S
Tb115 O150 2.349 . S
Tb115 O153 2.393 1_565 S
Tb115 O154 2.465 . S
Tb115 O155 2.387 1_565 S
Tb115 O157 2.428 . S
Tb115 O158 2.308 1_465 S
Tb115 C179 2.802 . S
N116 C112 1.361 . S
N116 Tb115 2.572 1_545 S
N116 C118 1.340 . S
C117 C111 1.416 . S
C117 C119 1.332 . S
C117 H125 0.931 1_556 S
C118 N116 1.340 . S
C118 C119 1.407 . S
C118 H124 0.930 1_455 S
C119 C117 1.332 . S
C119 C118 1.407 . S
C119 H121 0.929 1_455 S
H120 C109 0.930 1_565 S
H121 C119 0.929 1_655 S
H122 C137 0.930 . S
H123 C144 0.934 . S
H124 C118 0.930 1_655 S
H125 C117 0.931 1_554 S
H126 C140 0.930 . S
H127 C107 0.930 . S
H128 C113 0.929 1_554 S
H129 C114 0.930 . S
H130 C135 0.930 . S
H131 C110 0.930 . S
H132 C143 0.931 . S
N133 Tb104 2.617 . S
N133 C134 1.379 . S
N133 C137 1.334 . S
C134 N133 1.379 . S
C134 C136 1.416 1_545 S
C134 C142 1.424 . S
C135 H130 0.930 . S
C135 C137 1.390 . S
C135 C138 1.332 1_545 S
C136 C134 1.416 1_565 S
C136 C138 1.418 . S
C136 C169 1.448 . S
C137 H122 0.930 . S
C137 N133 1.334 . S
C137 C135 1.390 . S
C138 C135 1.332 1_565 S
C138 C136 1.418 . S
C138 H145 0.935 . S
N139 Tb104 2.572 . S
N139 C140 1.340 1_655 S
N139 C142 1.361 . S
C140 H126 0.930 . S
C140 N139 1.340 1_455 S
C140 C144 1.388 1_545 S
C141 C142 1.413 1_565 S
C141 C143 1.416 . S
C141 C170 1.427 . S
C142 C134 1.424 . S
C142 N139 1.361 . S
C142 C141 1.413 1_545 S
C143 H132 0.931 . S
C143 C141 1.416 . S
C143 C144 1.349 1_655 S
C144 H123 0.934 . S
C144 C140 1.388 1_565 S
C144 C143 1.349 1_455 S
H145 C138 0.935 . S
H146 C169 0.930 . S
H147 C170 0.929 . S
O148 Tb104 2.465 1_455 S
O148 C168 1.264 1_455 S
O149 Tb104 2.387 1_565 S
O149 C160 1.264 . S
O150 Tb115 2.349 . S
O150 C160 1.243 1_455 S
O151 Tb104 2.428 . S
O151 C168 1.256 . S
O152 Tb104 2.308 1_455 S
O152 C167 1.266 . S
O153 Tb115 2.393 1_545 S
O153 C167 1.248 . S
O154 Tb115 2.465 . S
O154 C179 1.264 . S
O155 Tb115 2.387 1_545 S
O155 C171 1.264 . S
O156 Tb104 2.349 1_455 S
O156 C171 1.243 . S
O157 Tb115 2.428 . S
O157 C179 1.256 . S
O158 Tb115 2.308 1_645 S
O158 C178 1.266 . S
O159 Tb104 2.393 . S
O159 C178 1.248 . S
C160 O149 1.264 . S
C160 O150 1.243 1_655 S
C161 C164 1.399 . S
C161 C166 1.383 1_655 S
C161 C168 1.496 . S
C162 C163 1.399 . S
C162 C166 1.389 1_655 S
C163 C162 1.399 . S
C163 C165 1.380 . S
C163 H180 0.929 . S
C164 C161 1.399 . S
C164 C165 1.392 . S
C164 H181 0.929 . S
C165 C163 1.380 . S
C165 C164 1.392 . S
C165 H182 0.929 . S
C166 C161 1.383 1_455 S
C166 C162 1.389 1_455 S
C166 H183 0.931 . S
C167 O152 1.266 . S
C167 O153 1.248 . S
C168 Tb104 2.802 . S
C168 O148 1.264 1_655 S
C168 O151 1.256 . S
C168 C161 1.496 . S
C169 C136 1.448 . S
C169 H146 0.930 . S
C169 C170 1.328 . S
C170 C141 1.427 . S
C170 H147 0.929 . S
C170 C169 1.328 . S
C171 O155 1.264 . S
C171 O156 1.243 . S
C172 C175 1.399 . S
C172 C176 1.383 . S
C172 C179 1.496 . S
C173 C174 1.399 . S
C173 C176 1.389 . S
C174 C173 1.399 . S
C174 C177 1.380 . S
C174 H184 0.929 . S
C175 C172 1.399 . S
C175 C177 1.392 . S
C175 H185 0.929 . S
C176 C172 1.383 . S
C176 C173 1.389 . S
C176 H186 0.931 . S
C177 C174 1.380 . S
C177 C175 1.392 . S
C177 H187 0.929 . S
C178 O158 1.266 . S
C178 O159 1.248 . S
C179 Tb115 2.802 . S
C179 O154 1.264 . S
C179 O157 1.256 . S
C179 C172 1.496 . S
H180 C163 0.929 . S
H181 C164 0.929 . S
H182 C165 0.929 . S
H183 C166 0.931 . S
H184 C174 0.929 . S
H185 C175 0.929 . S
H186 C176 0.931 . S
H187 C177 0.929 . S
Tb188 N217 2.617 . S
Tb188 N223 2.572 . S
Tb188 O232 2.465 . S
Tb188 O233 2.387 . S
Tb188 O235 2.428 . S
Tb188 O236 2.308 . S
Tb188 O240 2.349 1_545 S
Tb188 O243 2.393 . S
Tb188 C252 2.802 . S
C189 N190 1.379 . S
C189 C192 1.416 . S
C189 C196 1.424 . S
N190 C189 1.379 . S
N190 C193 1.334 . S
N190 Tb199 2.617 . S
C191 C193 1.390 . S
C191 C194 1.339 . S
C191 H211 0.930 . S
C192 C189 1.416 . S
C192 C194 1.416 . S
C192 C198 1.448 . S
C193 N190 1.334 . S
C193 C191 1.390 . S
C193 H204 0.930 . S
C194 C191 1.339 . S
C194 C192 1.416 . S
C194 H215 0.930 . S
C195 C196 1.413 . S
C195 C197 1.427 . S
C195 C201 1.416 . S
C196 C189 1.424 . S
C196 C195 1.413 . S
C196 N200 1.361 . S
C197 C195 1.427 . S
C197 C198 1.328 . S
C197 H212 0.929 . S
C198 C192 1.448 . S
C198 C197 1.328 . S
C198 H213 0.930 . S
Tb199 N190 2.617 . S
Tb199 N200 2.572 . S
Tb199 O234 2.349 1_565 S
Tb199 O237 2.393 . S
Tb199 O238 2.464 1_565 S
Tb199 O239 2.387 . S
Tb199 O241 2.428 . S
Tb199 O242 2.308 1_565 S
Tb199 C263 2.802 . S
N200 C196 1.361 . S
N200 Tb199 2.572 . S
N200 C202 1.340 . S
C201 C195 1.416 . S
C201 C203 1.332 . S
C201 H209 0.931 . S
C202 N200 1.340 . S
C202 C203 1.407 . S
C202 H208 0.930 . S
C203 C201 1.332 . S
C203 C202 1.407 . S
C203 H205 0.929 . S
H204 C193 0.930 . S
H205 C203 0.929 . S
H206 C221 0.930 . S
H207 C228 0.929 . S
H208 C202 0.930 . S
H209 C201 0.931 . S
H210 C224 0.930 . S
H211 C191 0.930 . S
H212 C197 0.929 . S
H213 C198 0.930 . S
H214 C219 0.930 . S
H215 C194 0.930 . S
H216 C227 0.931 . S
N217 Tb188 2.617 . S
N217 C218 1.379 . S
N217 C221 1.334 . S
C218 N217 1.379 . S
C218 C220 1.416 . S
C218 C226 1.424 . S
C219 H214 0.930 . S
C219 C221 1.390 . S
C219 C222 1.339 . S
C220 C218 1.416 . S
C220 C222 1.416 . S
C220 C253 1.448 . S
C221 H206 0.930 . S
C221 N217 1.334 . S
C221 C219 1.390 . S
C222 C219 1.339 . S
C222 C220 1.416 . S
C222 H229 0.930 . S
N223 Tb188 2.572 . S
N223 C224 1.340 . S
N223 C226 1.361 . S
C224 H210 0.930 . S
C224 N223 1.340 . S
C224 C228 1.407 . S
C225 C226 1.413 . S
C225 C227 1.416 . S
C225 C254 1.427 . S
C226 C218 1.424 . S
C226 N223 1.361 . S
C226 C225 1.413 . S
C227 H216 0.931 . S
C227 C225 1.416 . S
C227 C228 1.332 . S
C228 H207 0.929 . S
C228 C224 1.407 . S
C228 C227 1.332 . S
H229 C222 0.930 . S
H230 C253 0.930 . S
H231 C254 0.929 . S
O232 Tb188 2.465 . S
O232 C252 1.264 . S
O233 Tb188 2.387 . S
O233 C244 1.264 . S
O234 Tb199 2.349 1_545 S
O234 C244 1.243 . S
O235 Tb188 2.428 . S
O235 C252 1.256 . S
O236 Tb188 2.308 . S
O236 C251 1.266 . S
O237 Tb199 2.393 . S
O237 C251 1.248 1_565 S
O238 Tb199 2.464 1_545 S
O238 C263 1.263 1_545 S
O239 Tb199 2.387 . S
O239 C255 1.264 . S
O240 Tb188 2.349 1_565 S
O240 C255 1.243 . S
O241 Tb199 2.428 . S
O241 C263 1.256 . S
O242 Tb199 2.308 1_545 S
O242 C262 1.266 . S
O243 Tb188 2.393 . S
O243 C262 1.248 . S
C244 O233 1.264 . S
C244 O234 1.243 . S
C245 C248 1.399 . S
C245 C250 1.383 . S
C245 C252 1.496 . S
C246 C247 1.399 1_556 S
C246 C250 1.389 . S
C247 C246 1.399 1_554 S
C247 C249 1.380 . S
C247 H264 0.929 . S
C248 C245 1.399 . S
C248 C249 1.392 1_556 S
C248 H265 0.929 . S
C249 C247 1.380 . S
C249 C248 1.392 1_554 S
C249 H266 0.929 . S
C250 C245 1.383 . S
C250 C246 1.389 . S
C250 H267 0.931 . S
C251 O236 1.266 . S
C251 O237 1.248 1_545 S
C252 Tb188 2.802 . S
C252 O232 1.264 . S
C252 O235 1.256 . S
C252 C245 1.496 . S
C253 C220 1.448 . S
C253 H230 0.930 . S
C253 C254 1.328 . S
C254 C225 1.427 . S
C254 H231 0.929 . S
C254 C253 1.328 . S
C255 O239 1.264 . S
C255 O240 1.243 . S
C256 C259 1.400 1_545 S
C256 C260 1.382 . S
C256 C263 1.497 1_545 S
C257 C258 1.399 . S
C257 C260 1.389 . S
C258 C257 1.399 . S
C258 C261 1.380 1_545 S
C258 H268 0.929 . S
C259 C256 1.400 1_565 S
C259 C261 1.392 . S
C259 H269 0.929 . S
C260 C256 1.382 . S
C260 C257 1.389 . S
C260 H270 0.931 . S
C261 C258 1.380 1_565 S
C261 C259 1.392 . S
C261 H271 0.929 . S
C262 O242 1.266 . S
C262 O243 1.248 . S
C263 Tb199 2.802 . S
C263 O238 1.263 1_565 S
C263 O241 1.256 . S
C263 C256 1.497 1_565 S
H264 C247 0.929 . S
H265 C248 0.929 . S
H266 C249 0.929 . S
H267 C250 0.931 . S
H268 C258 0.929 . S
H269 C259 0.929 . S
H270 C260 0.931 . S
H271 C261 0.929 . S
Tb272 N301 2.617 . S
Tb272 N307 2.572 . S
Tb272 O316 2.465 . S
Tb272 O317 2.387 . S
Tb272 O319 2.428 . S
Tb272 O320 2.308 . S
Tb272 O324 2.349 . S
Tb272 O327 2.393 . S
Tb272 C336 2.802 . S
C273 N274 1.379 . S
C273 C276 1.416 . S
C273 C280 1.424 . S
N274 C273 1.379 . S
N274 C277 1.334 . S
N274 Tb283 2.617 . S
C275 C277 1.390 . S
C275 C278 1.339 . S
C275 H295 0.930 . S
C276 C273 1.416 . S
C276 C278 1.416 . S
C276 C282 1.448 . S
C277 N274 1.334 . S
C277 C275 1.390 . S
C277 H288 0.930 . S
C278 C275 1.339 . S
C278 C276 1.416 . S
C278 H299 0.930 . S
C279 C280 1.413 . S
C279 C281 1.427 . S
C279 C285 1.416 . S
C280 C273 1.424 . S
C280 C279 1.413 . S
C280 N284 1.361 . S
C281 C279 1.427 . S
C281 C282 1.328 . S
C281 H296 0.929 1_556 S
C282 C276 1.448 . S
C282 C281 1.328 . S
C282 H297 0.930 . S
Tb283 N274 2.617 . S
Tb283 N284 2.572 . S
Tb283 O318 2.349 . S
Tb283 O321 2.393 . S
Tb283 O322 2.465 . S
Tb283 O323 2.387 . S
Tb283 O325 2.428 . S
Tb283 O326 2.308 . S
Tb283 C347 2.802 . S
N284 C280 1.361 . S
N284 Tb283 2.572 . S
N284 C286 1.340 . S
C285 C279 1.416 . S
C285 C287 1.332 . S
C285 H293 0.931 1_556 S
C286 N284 1.340 . S
C286 C287 1.407 . S
C286 H292 0.930 . S
C287 C285 1.332 . S
C287 C286 1.407 . S
C287 H289 0.929 . S
H288 C277 0.930 . S
H289 C287 0.929 . S
H290 C305 0.930 . S
H291 C312 0.929 . S
H292 C286 0.930 . S
H293 C285 0.931 1_554 S
H294 C308 0.930 . S
H295 C275 0.930 . S
H296 C281 0.929 1_554 S
H297 C282 0.930 . S
H298 C303 0.930 . S
H299 C278 0.930 . S
H300 C311 0.931 . S
N301 Tb272 2.617 . S
N301 C302 1.379 . S
N301 C305 1.334 . S
C302 N301 1.379 . S
C302 C304 1.416 . S
C302 C310 1.424 . S
C303 H298 0.930 . S
C303 C305 1.390 . S
C303 C306 1.339 . S
C304 C302 1.416 . S
C304 C306 1.416 . S
C304 C337 1.448 . S
C305 H290 0.930 . S
C305 N301 1.334 . S
C305 C303 1.390 . S
C306 C303 1.339 . S
C306 C304 1.416 . S
C306 H313 0.930 . S
N307 Tb272 2.572 . S
N307 C308 1.340 . S
N307 C310 1.361 . S
C308 H294 0.930 . S
C308 N307 1.340 . S
C308 C312 1.407 . S
C309 C310 1.413 . S
C309 C311 1.416 . S
C309 C338 1.427 . S
C310 C302 1.424 . S
C310 N307 1.361 . S
C310 C309 1.413 . S
C311 H300 0.931 . S
C311 C309 1.416 . S
C311 C312 1.332 . S
C312 H291 0.929 . S
C312 C308 1.407 . S
C312 C311 1.332 . S
H313 C306 0.930 . S
H314 C337 0.930 . S
H315 C338 0.929 . S
O316 Tb272 2.465 . S
O316 C336 1.264 . S
O317 Tb272 2.387 . S
O317 C328 1.264 . S
O318 Tb283 2.349 . S
O318 C328 1.243 . S
O319 Tb272 2.428 . S
O319 C336 1.256 . S
O320 Tb272 2.308 . S
O320 C335 1.266 . S
O321 Tb283 2.393 . S
O321 C335 1.248 . S
O322 Tb283 2.465 . S
O322 C347 1.264 . S
O323 Tb283 2.387 . S
O323 C339 1.264 . S
O324 Tb272 2.349 . S
O324 C339 1.243 . S
O325 Tb283 2.428 . S
O325 C347 1.256 . S
O326 Tb283 2.308 . S
O326 C346 1.266 . S
O327 Tb272 2.393 . S
O327 C346 1.248 . S
C328 O317 1.264 . S
C328 O318 1.243 . S
C329 C332 1.399 . S
C329 C334 1.383 . S
C329 C336 1.496 . S
C330 C331 1.399 . S
C330 C334 1.389 . S
C331 C330 1.399 . S
C331 C333 1.380 . S
C331 H348 0.929 . S
C332 C329 1.399 . S
C332 C333 1.392 . S
C332 H349 0.929 . S
C333 C331 1.380 . S
C333 C332 1.392 . S
C333 H350 0.929 . S
C334 C329 1.383 . S
C334 C330 1.389 . S
C334 H351 0.931 . S
C335 O320 1.266 . S
C335 O321 1.248 . S
C336 Tb272 2.802 . S
C336 O316 1.264 . S
C336 O319 1.256 . S
C336 C329 1.496 . S
C337 C304 1.448 . S
C337 H314 0.930 . S
C337 C338 1.328 . S
C338 C309 1.427 . S
C338 H315 0.929 . S
C338 C337 1.328 . S
C339 O323 1.264 . S
C339 O324 1.243 . S
C340 C343 1.399 . S
C340 C344 1.383 . S
C340 C347 1.496 . S
C341 C342 1.399 . S
C341 C344 1.389 . S
C342 C341 1.399 . S
C342 C345 1.380 . S
C342 H352 0.929 . S
C343 C340 1.399 . S
C343 C345 1.392 . S
C343 H353 0.929 . S
C344 C340 1.383 . S
C344 C341 1.389 . S
C344 H354 0.931 . S
C345 C342 1.380 . S
C345 C343 1.392 . S
C345 H355 0.929 . S
C346 O326 1.266 . S
C346 O327 1.248 . S
C347 Tb283 2.802 . S
C347 O322 1.264 . S
C347 O325 1.256 . S
C347 C340 1.496 . S
H348 C331 0.929 . S
H349 C332 0.929 . S
H350 C333 0.929 . S
H351 C334 0.931 . S
H352 C342 0.929 . S
H353 C343 0.929 . S
H354 C344 0.931 . S
H355 C345 0.929 . S
Tb356 N385 2.617 . S
Tb356 N391 2.572 . S
Tb356 O400 2.465 . S
Tb356 O401 2.387 1_455 S
Tb356 O403 2.428 . S
Tb356 O404 2.308 . S
Tb356 O408 2.349 . S
Tb356 O411 2.393 . S
Tb356 C420 2.802 . S
C357 N358 1.379 . S
C357 C360 1.416 . S
C357 C364 1.424 . S
N358 C357 1.379 . S
N358 C361 1.331 1_455 S
N358 Tb367 2.617 1_455 S
C359 C361 1.377 1_455 S
C359 C362 1.339 . S
C359 H379 0.930 . S
C360 C357 1.416 . S
C360 C362 1.416 . S
C360 C366 1.448 . S
C361 N358 1.331 1_655 S
C361 C359 1.377 1_655 S
C361 H372 0.948 . S
C362 C359 1.339 . S
C362 C360 1.416 . S
C362 H383 0.930 . S
C363 C364 1.413 . S
C363 C365 1.427 . S
C363 C369 1.416 . S
C364 C357 1.424 . S
C364 C363 1.413 . S
C364 N368 1.361 . S
C365 C363 1.427 . S
C365 C366 1.328 . S
C365 H380 0.929 1_556 S
C366 C360 1.448 . S
C366 C365 1.328 . S
C366 H381 0.930 . S
Tb367 N358 2.617 1_655 S
Tb367 N368 2.572 1_655 S
Tb367 O402 2.349 . S
Tb367 O405 2.393 . S
Tb367 O406 2.465 . S
Tb367 O407 2.387 1_655 S
Tb367 O409 2.428 . S
Tb367 O410 2.308 1_655 S
Tb367 C431 2.802 . S
N368 C364 1.361 . S
N368 Tb367 2.572 1_455 S
N368 C370 1.340 . S
C369 C363 1.416 . S
C369 C371 1.332 . S
C369 H377 0.931 1_556 S
C370 N368 1.340 . S
C370 C371 1.407 . S
C370 H376 0.930 . S
C371 C369 1.332 . S
C371 C370 1.407 . S
C371 H373 0.929 . S
H372 C361 0.948 . S
H373 C371 0.929 . S
H374 C389 0.930 . S
H375 C396 0.929 . S
H376 C370 0.930 . S
H377 C369 0.931 1_554 S
H378 C392 0.930 . S
H379 C359 0.930 . S
H380 C365 0.929 1_554 S
H381 C366 0.930 . S
H382 C387 0.930 . S
H383 C362 0.930 . S
H384 C395 0.931 . S
N385 Tb356 2.617 . S
N385 C386 1.379 . S
N385 C389 1.334 . S
C386 N385 1.379 . S
C386 C388 1.416 1_455 S
C386 C394 1.424 . S
C387 H382 0.930 . S
C387 C389 1.390 . S
C387 C390 1.339 1_455 S
C388 C386 1.416 1_655 S
C388 C390 1.416 . S
C388 C421 1.448 . S
C389 H374 0.930 . S
C389 N385 1.334 . S
C389 C387 1.390 . S
C390 C387 1.339 1_655 S
C390 C388 1.416 . S
C390 H397 0.930 . S
N391 Tb356 2.572 . S
N391 C392 1.340 . S
N391 C394 1.361 . S
C392 H378 0.930 . S
C392 N391 1.340 . S
C392 C396 1.407 1_455 S
C393 C394 1.413 1_655 S
C393 C395 1.416 . S
C393 C422 1.427 . S
C394 C386 1.424 . S
C394 N391 1.361 . S
C394 C393 1.413 1_455 S
C395 H384 0.931 . S
C395 C393 1.416 . S
C395 C396 1.332 . S
C396 H375 0.929 . S
C396 C392 1.407 1_655 S
C396 C395 1.332 . S
H397 C390 0.930 . S
H398 C421 0.930 . S
H399 C422 0.929 . S
O400 Tb356 2.465 . S
O400 C420 1.264 . S
O401 Tb356 2.387 1_655 S
O401 C412 1.264 . S
O402 Tb367 2.349 . S
O402 C412 1.243 . S
O403 Tb356 2.428 . S
O403 C420 1.256 . S
O404 Tb356 2.308 . S
O404 C419 1.266 . S
O405 Tb367 2.393 . S
O405 C419 1.248 1_655 S
O406 Tb367 2.465 . S
O406 C431 1.264 . S
O407 Tb367 2.387 1_455 S
O407 C423 1.264 . S
O408 Tb356 2.349 . S
O408 C423 1.243 . S
O409 Tb367 2.428 . S
O409 C431 1.256 . S
O410 Tb367 2.308 1_455 S
O410 C430 1.266 . S
O411 Tb356 2.393 . S
O411 C430 1.248 . S
C412 O401 1.264 . S
C412 O402 1.243 . S
C413 C416 1.399 . S
C413 C418 1.383 . S
C413 C420 1.496 . S
C414 C415 1.399 . S
C414 C418 1.389 . S
C415 C414 1.399 . S
C415 C417 1.380 . S
C415 H432 0.929 . S
C416 C413 1.399 . S
C416 C417 1.392 . S
C416 H433 0.929 . S
C417 C415 1.380 . S
C417 C416 1.392 . S
C417 H434 0.929 . S
C418 C413 1.383 . S
C418 C414 1.389 . S
C418 H435 0.931 . S
C419 O404 1.266 . S
C419 O405 1.248 1_455 S
C420 Tb356 2.802 . S
C420 O400 1.264 . S
C420 O403 1.256 . S
C420 C413 1.496 . S
C421 C388 1.448 . S
C421 H398 0.930 . S
C421 C422 1.328 . S
C422 C393 1.427 . S
C422 H399 0.929 . S
C422 C421 1.328 . S
C423 O407 1.264 . S
C423 O408 1.243 . S
C424 C427 1.399 . S
C424 C428 1.383 . S
C424 C431 1.496 . S
C425 C426 1.399 . S
C425 C428 1.389 . S
C426 C425 1.399 . S
C426 C429 1.380 . S
C426 H436 0.929 . S
C427 C424 1.399 . S
C427 C429 1.392 . S
C427 H437 0.929 . S
C428 C424 1.383 . S
C428 C425 1.389 . S
C428 H438 0.931 . S
C429 C426 1.380 . S
C429 C427 1.392 . S
C429 H439 0.929 . S
C430 O410 1.266 . S
C430 O411 1.248 . S
C431 Tb367 2.802 . S
C431 O406 1.264 . S
C431 O409 1.256 . S
C431 C424 1.496 . S
H432 C415 0.929 . S
H433 C416 0.929 . S
H434 C417 0.929 . S
H435 C418 0.931 . S
H436 C426 0.929 . S
H437 C427 0.929 . S
H438 C428 0.931 . S
H439 C429 0.929 . S
C440 C441 1.349 . S
C440 C442 1.327 . S
C440 H465 0.950 . S
C441 C440 1.349 . S
C441 C457 1.349 . S
C442 C440 1.327 . S
C442 C461 1.429 . S
C442 H466 0.950 . S
C443 C460 1.574 . S
C443 C462 1.368 . S
C443 H467 0.949 . S
H444 C448 0.949 . S
C445 C446 1.349 . S
C445 C447 1.327 . S
C445 H468 0.950 1_545 S
C446 C445 1.349 . S
C446 C458 1.349 . S
C447 C445 1.327 . S
C447 C463 1.429 . S
C447 H469 0.950 1_545 S
C448 H444 0.949 . S
C448 C456 1.574 . S
C448 C464 1.368 . S
H449 C457 0.950 . S
H450 C455 0.950 . S
H451 C456 0.949 . S
H452 C458 0.950 . S
H453 C459 0.950 . S
H454 C460 0.967 . S
C455 H450 0.950 . S
C455 C457 1.327 . S
C455 C461 1.429 . S
C456 C448 1.574 . S
C456 H451 0.949 . S
C456 C462 1.368 . S
C457 C441 1.349 . S
C457 H449 0.950 . S
C457 C455 1.327 . S
C458 C446 1.349 . S
C458 H452 0.950 . S
C458 C459 1.327 . S
C459 H453 0.950 . S
C459 C458 1.327 . S
C459 C463 1.429 . S
C460 C443 1.574 . S
C460 H454 0.967 . S
C460 C464 1.368 . S
C461 C442 1.429 . S
C461 C455 1.429 . S
C461 C462 1.523 . S
C462 C443 1.368 . S
C462 C456 1.368 . S
C462 C461 1.523 . S
C463 C447 1.429 . S
C463 C459 1.429 . S
C463 C464 1.523 . S
C464 C448 1.368 . S
C464 C460 1.368 . S
C464 C463 1.523 . S
H465 C440 0.950 . S
H466 C442 0.950 . S
H467 C443 0.949 . S
H468 C445 0.950 1_565 S
H469 C447 0.950 1_565 S
C470 C471 1.349 . S
C470 C472 1.327 . S
C470 H495 0.950 . S
C471 C470 1.349 . S
C471 C487 1.349 . S
C472 C470 1.327 . S
C472 C491 1.429 . S
C472 H496 0.950 . S
C473 C490 1.574 . S
C473 C492 1.368 . S
C473 H497 0.949 . S
H474 C478 0.949 . S
C475 C476 1.349 . S
C475 C477 1.327 . S
C475 H498 0.950 . S
C476 C475 1.349 . S
C476 C488 1.349 . S
C477 C475 1.327 . S
C477 C493 1.429 . S
C477 H499 0.950 . S
C478 H474 0.949 . S
C478 C486 1.574 . S
C478 C494 1.368 . S
H479 C487 0.950 . S
H480 C485 0.950 . S
H481 C486 0.949 . S
H482 C488 0.950 . S
H483 C489 0.950 . S
H484 C490 0.949 . S
C485 H480 0.950 . S
C485 C487 1.327 . S
C485 C491 1.429 . S
C486 C478 1.574 . S
C486 H481 0.949 . S
C486 C492 1.368 . S
C487 C471 1.349 . S
C487 H479 0.950 . S
C487 C485 1.327 . S
C488 C476 1.349 . S
C488 H482 0.950 . S
C488 C489 1.327 . S
C489 H483 0.950 . S
C489 C488 1.327 . S
C489 C493 1.429 . S
C490 C473 1.574 . S
C490 H484 0.949 . S
C490 C494 1.368 . S
C491 C472 1.429 . S
C491 C485 1.429 . S
C491 C492 1.523 . S
C492 C473 1.368 . S
C492 C486 1.368 . S
C492 C491 1.523 . S
C493 C477 1.429 . S
C493 C489 1.429 . S
C493 C494 1.523 . S
C494 C478 1.368 . S
C494 C490 1.368 . S
C494 C493 1.523 . S
H495 C470 0.950 . S
H496 C472 0.950 . S
H497 C473 0.949 . S
H498 C475 0.950 . S
H499 C477 0.950 . S
C500 C501 1.349 . S
C500 C502 1.327 . S
C500 H525 0.950 . S
C501 C500 1.349 . S
C501 C517 1.349 . S
C502 C500 1.327 . S
C502 C521 1.429 . S
C502 H526 0.950 . S
C503 C520 1.574 . S
C503 C522 1.368 . S
C503 H527 0.949 . S
H504 C508 0.949 . S
C505 C506 1.349 . S
C505 C507 1.327 . S
C505 H528 0.950 . S
C506 C505 1.349 . S
C506 C518 1.349 . S
C507 C505 1.327 . S
C507 C523 1.429 . S
C507 H529 0.950 . S
C508 H504 0.949 . S
C508 C516 1.574 . S
C508 C524 1.368 . S
H509 C517 0.950 . S
H510 C515 0.950 . S
H511 C516 0.949 . S
H512 C518 0.950 . S
H513 C519 0.950 . S
H514 C520 0.949 . S
C515 H510 0.950 . S
C515 C517 1.327 . S
C515 C521 1.429 . S
C516 C508 1.574 . S
C516 H511 0.949 . S
C516 C522 1.368 . S
C517 C501 1.349 . S
C517 H509 0.950 . S
C517 C515 1.327 . S
C518 C506 1.349 . S
C518 H512 0.950 . S
C518 C519 1.327 . S
C519 H513 0.950 . S
C519 C518 1.327 . S
C519 C523 1.429 . S
C520 C503 1.574 . S
C520 H514 0.949 . S
C520 C524 1.368 . S
C521 C502 1.429 . S
C521 C515 1.429 . S
C521 C522 1.523 . S
C522 C503 1.368 . S
C522 C516 1.368 . S
C522 C521 1.523 . S
C523 C507 1.429 . S
C523 C519 1.429 . S
C523 C524 1.523 . S
C524 C508 1.368 . S
C524 C520 1.368 . S
C524 C523 1.523 . S
H525 C500 0.950 . S
H526 C502 0.950 . S
H527 C503 0.949 . S
H528 C505 0.950 . S
H529 C507 0.950 . S
C530 C531 1.349 . S
C530 C532 1.327 . S
C530 H555 0.950 . S
C531 C530 1.349 . S
C531 C547 1.349 . S
C532 C530 1.327 . S
C532 C551 1.429 . S
C532 H556 0.950 . S
C533 C550 1.574 . S
C533 C552 1.368 . S
C533 H557 0.949 . S
H534 C538 0.949 . S
C535 C536 1.349 . S
C535 C537 1.327 . S
C535 H558 0.950 . S
C536 C535 1.349 . S
C536 C548 1.349 . S
C537 C535 1.327 . S
C537 C553 1.429 . S
C537 H559 0.950 . S
C538 H534 0.949 . S
C538 C546 1.574 . S
C538 C554 1.368 . S
H539 C547 0.950 . S
H540 C545 0.950 . S
H541 C546 0.949 . S
H542 C548 0.950 . S
H543 C549 0.950 . S
H544 C550 0.949 . S
C545 H540 0.950 . S
C545 C547 1.327 . S
C545 C551 1.429 . S
C546 C538 1.574 . S
C546 H541 0.949 . S
C546 C552 1.368 . S
C547 C531 1.349 . S
C547 H539 0.950 . S
C547 C545 1.327 . S
C548 C536 1.349 . S
C548 H542 0.950 . S
C548 C549 1.327 . S
C549 H543 0.950 . S
C549 C548 1.327 . S
C549 C553 1.429 . S
C550 C533 1.574 . S
C550 H544 0.949 . S
C550 C554 1.368 . S
C551 C532 1.429 . S
C551 C545 1.429 . S
C551 C552 1.523 . S
C552 C533 1.368 . S
C552 C546 1.368 . S
C552 C551 1.523 . S
C553 C537 1.429 . S
C553 C549 1.429 . S
C553 C554 1.523 . S
C554 C538 1.368 . S
C554 C550 1.368 . S
C554 C553 1.523 . S
H555 C530 0.950 . S
H556 C532 0.950 . S
H557 C533 0.949 . S
H558 C535 0.950 . S
H559 C537 0.950 . S
C560 C561 1.349 . S
C560 C562 1.329 . S
C560 H585 0.950 1_565 S
C561 C560 1.349 . S
C561 C577 1.349 . S
C562 C560 1.329 . S
C562 C581 1.438 . S
C562 H586 0.938 1_565 S
C563 C580 1.574 . S
C563 C582 1.368 1_556 S
C563 H587 0.949 . S
H564 C568 0.949 . S
C565 C566 1.349 1_565 S
C565 C567 1.327 . S
C565 H588 0.950 . S
C566 C565 1.349 1_545 S
C566 C578 1.349 . S
C567 C565 1.327 . S
C567 C583 1.429 . S
C567 H589 0.950 . S
C568 H564 0.949 . S
C568 C576 1.574 . S
C568 C584 1.368 1_544 S
H569 C577 0.950 . S
H570 C575 0.950 . S
H571 C576 0.949 . S
H572 C578 0.950 . S
H573 C579 0.950 . S
H574 C580 0.949 . S
C575 H570 0.950 . S
C575 C577 1.327 . S
C575 C581 1.429 . S
C576 C568 1.574 . S
C576 H571 0.949 . S
C576 C582 1.368 1_545 S
C577 C561 1.349 . S
C577 H569 0.950 . S
C577 C575 1.327 . S
C578 C566 1.349 . S
C578 H572 0.950 . S
C578 C579 1.327 . S
C579 H573 0.950 . S
C579 C578 1.327 . S
C579 C583 1.429 1_545 S
C580 C563 1.574 . S
C580 H574 0.949 . S
C580 C584 1.368 . S
C581 C562 1.438 . S
C581 C575 1.429 . S
C581 C582 1.523 . S
C582 C563 1.368 1_554 S
C582 C576 1.368 1_565 S
C582 C581 1.523 . S
C583 C567 1.429 . S
C583 C579 1.429 1_565 S
C583 C584 1.523 . S
C584 C568 1.368 1_566 S
C584 C580 1.368 . S
C584 C583 1.523 . S
H585 C560 0.950 1_545 S
H586 C562 0.938 1_545 S
H587 C563 0.949 . S
H588 C565 0.950 . S
H589 C567 0.950 . S
C590 C591 1.349 . S
C590 C592 1.327 . S
C590 H615 0.950 . S
C591 C590 1.349 . S
C591 C607 1.349 . S
C592 C590 1.327 . S
C592 C611 1.429 . S
C592 H616 0.950 . S
C593 C610 1.574 . S
C593 C612 1.368 . S
C593 H617 0.949 . S
H594 C598 0.949 . S
C595 C596 1.349 . S
C595 C597 1.327 . S
C595 H618 0.950 . S
C596 C595 1.349 . S
C596 C608 1.349 . S
C597 C595 1.327 . S
C597 C613 1.429 . S
C597 H619 0.950 . S
C598 H594 0.949 . S
C598 C606 1.574 . S
C598 C614 1.368 . S
H599 C607 0.950 . S
H600 C605 0.950 . S
H601 C606 0.949 . S
H602 C608 0.950 . S
H603 C609 0.950 . S
H604 C610 0.949 . S
C605 H600 0.950 . S
C605 C607 1.327 . S
C605 C611 1.429 . S
C606 C598 1.574 . S
C606 H601 0.949 . S
C606 C612 1.368 1_556 S
C607 C591 1.349 . S
C607 H599 0.950 . S
C607 C605 1.327 . S
C608 C596 1.349 . S
C608 H602 0.950 . S
C608 C609 1.327 . S
C609 H603 0.950 . S
C609 C608 1.327 . S
C609 C613 1.429 . S
C610 C593 1.574 . S
C610 H604 0.949 . S
C610 C614 1.368 1_554 S
C611 C592 1.429 . S
C611 C605 1.429 . S
C611 C612 1.523 . S
C612 C593 1.368 . S
C612 C606 1.368 1_554 S
C612 C611 1.523 . S
C613 C597 1.429 . S
C613 C609 1.429 . S
C613 C614 1.523 . S
C614 C598 1.368 . S
C614 C610 1.368 1_556 S
C614 C613 1.523 . S
H615 C590 0.950 . S
H616 C592 0.950 . S
H617 C593 0.949 . S
H618 C595 0.950 . S
H619 C597 0.950 . S
C620 C621 1.349 . S
C620 C622 1.327 . S
C620 H645 0.950 . S
C621 C620 1.349 . S
C621 C637 1.349 . S
C622 C620 1.327 . S
C622 C641 1.429 . S
C622 H646 0.950 . S
C623 C640 1.574 1_554 S
C623 C642 1.368 . S
C623 H647 0.949 . S
H624 C628 0.949 . S
C625 C626 1.349 . S
C625 C627 1.327 . S
C625 H648 0.950 . S
C626 C625 1.349 . S
C626 C638 1.349 . S
C627 C625 1.327 . S
C627 C643 1.429 . S
C627 H649 0.950 . S
C628 H624 0.949 . S
C628 C636 1.574 1_556 S
C628 C644 1.368 . S
H629 C637 0.950 . S
H630 C635 0.950 . S
H631 C636 0.949 . S
H632 C638 0.950 . S
H633 C639 0.950 . S
H634 C640 0.949 . S
C635 H630 0.950 . S
C635 C637 1.327 . S
C635 C641 1.429 . S
C636 C628 1.574 1_554 S
C636 H631 0.949 . S
C636 C642 1.368 . S
C637 C621 1.349 . S
C637 H629 0.950 . S
C637 C635 1.327 . S
C638 C626 1.349 . S
C638 H632 0.950 . S
C638 C639 1.327 . S
C639 H633 0.950 . S
C639 C638 1.327 . S
C639 C643 1.429 . S
C640 C623 1.574 1_556 S
C640 H634 0.949 . S
C640 C644 1.368 . S
C641 C622 1.429 . S
C641 C635 1.429 . S
C641 C642 1.523 . S
C642 C623 1.368 . S
C642 C636 1.368 . S
C642 C641 1.523 . S
C643 C627 1.429 . S
C643 C639 1.429 . S
C643 C644 1.523 . S
C644 C628 1.368 . S
C644 C640 1.368 . S
C644 C643 1.523 . S
H645 C620 0.950 . S
H646 C622 0.950 . S
H647 C623 0.949 . S
H648 C625 0.950 . S
H649 C627 0.950 . S
C650 C651 1.349 . S
C650 C652 1.327 . S
C650 H675 0.950 . S
C651 C650 1.349 . S
C651 C667 1.349 . S
C652 C650 1.327 . S
C652 C671 1.429 . S
C652 H676 0.950 . S
C653 C670 1.574 . S
C653 C672 1.368 1_556 S
C653 H677 0.949 . S
H654 C658 0.947 1_455 S
C655 C656 1.350 . S
C655 C657 1.327 . S
C655 H678 0.950 . S
C656 C655 1.350 . S
C656 C668 1.348 1_655 S
C657 C655 1.327 . S
C657 C673 1.429 . S
C657 H679 0.950 . S
C658 H654 0.947 1_655 S
C658 C666 1.574 . S
C658 C674 1.368 1_554 S
H659 C667 0.950 . S
H660 C665 0.950 . S
H661 C666 0.949 . S
H662 C668 0.950 . S
H663 C669 0.961 . S
H664 C670 0.949 . S
C665 H660 0.950 . S
C665 C667 1.327 . S
C665 C671 1.429 . S
C666 C658 1.574 . S
C666 H661 0.949 . S
C666 C672 1.368 . S
C667 C651 1.349 . S
C667 H659 0.950 . S
C667 C665 1.327 . S
C668 C656 1.348 1_455 S
C668 H662 0.950 . S
C668 C669 1.334 . S
C669 H663 0.961 . S
C669 C668 1.334 . S
C669 C673 1.414 1_455 S
C670 C653 1.574 . S
C670 H664 0.949 . S
C670 C674 1.368 . S
C671 C652 1.429 . S
C671 C665 1.429 . S
C671 C672 1.523 . S
C672 C653 1.368 1_554 S
C672 C666 1.368 . S
C672 C671 1.523 . S
C673 C657 1.429 . S
C673 C669 1.414 1_655 S
C673 C674 1.523 . S
C674 C658 1.368 1_556 S
C674 C670 1.368 . S
C674 C673 1.523 . S
H675 C650 0.950 . S
H676 C652 0.950 . S
H677 C653 0.949 . S
H678 C655 0.950 . S
H679 C657 0.950 . S
C680 C681 1.349 . S
C680 C682 1.327 . S
C680 H705 0.950 . S
C681 C680 1.349 . S
C681 C697 1.349 . S
C682 C680 1.327 . S
C682 C701 1.429 . S
C682 H706 0.950 . S
C683 C700 1.574 . S
C683 C702 1.368 . S
C683 H707 0.949 . S
H684 C688 0.949 . S
C685 C686 1.349 . S
C685 C687 1.327 . S
C685 H708 0.950 . S
C686 C685 1.349 . S
C686 C698 1.349 . S
C687 C685 1.327 . S
C687 C703 1.429 . S
C687 H709 0.950 . S
C688 H684 0.949 . S
C688 C696 1.574 . S
C688 C704 1.368 . S
H689 C697 0.962 . S
H690 C695 0.950 . S
H691 C696 0.949 . S
H692 C698 0.952 . S
H693 C699 0.950 . S
H694 C700 0.949 . S
C695 H690 0.950 . S
C695 C697 1.327 . S
C695 C701 1.429 . S
C696 C688 1.574 . S
C696 H691 0.949 . S
C696 C702 1.368 . S
C697 C681 1.349 . S
C697 H689 0.962 . S
C697 C695 1.327 . S
C698 C686 1.349 . S
C698 H692 0.952 . S
C698 C699 1.327 . S
C699 H693 0.950 . S
C699 C698 1.327 . S
C699 C703 1.429 . S
C700 C683 1.574 . S
C700 H694 0.949 . S
C700 C704 1.368 . S
C701 C682 1.429 . S
C701 C695 1.429 . S
C701 C702 1.523 . S
C702 C683 1.368 . S
C702 C696 1.368 . S
C702 C701 1.523 . S
C703 C687 1.429 . S
C703 C699 1.429 . S
C703 C704 1.523 . S
C704 C688 1.368 . S
C704 C700 1.368 . S
C704 C703 1.523 . S
H705 C680 0.950 . S
H706 C682 0.950 . S
H707 C683 0.949 . S
H708 C685 0.950 . S
H709 C687 0.950 . S
C710 C711 1.349 . S
C710 C712 1.327 . S
C710 H735 0.950 . S
C711 C710 1.349 . S
C711 C727 1.349 . S
C712 C710 1.327 . S
C712 C731 1.429 . S
C712 H736 0.950 . S
C713 C730 1.574 . S
C713 C732 1.368 . S
C713 H737 0.949 . S
H714 C718 0.971 . S
C715 C716 1.349 . S
C715 C717 1.327 . S
C715 H738 0.950 . S
C716 C715 1.349 . S
C716 C728 1.337 1_545 S
C717 C715 1.327 . S
C717 C733 1.429 . S
C717 H739 0.950 . S
C718 H714 0.971 . S
C718 C726 1.574 . S
C718 C734 1.368 . S
H719 C727 0.950 . S
H720 C725 0.950 . S
H721 C726 0.949 . S
H722 C728 0.967 . S
H723 C729 0.950 1_565 S
H724 C730 0.949 . S
C725 H720 0.950 . S
C725 C727 1.327 . S
C725 C731 1.429 . S
C726 C718 1.574 . S
C726 H721 0.949 . S
C726 C732 1.368 . S
C727 C711 1.349 . S
C727 H719 0.950 . S
C727 C725 1.327 . S
C728 C716 1.337 1_565 S
C728 H722 0.967 . S
C728 C729 1.323 1_565 S
C729 H723 0.950 1_545 S
C729 C728 1.323 1_545 S
C729 C733 1.429 . S
C730 C713 1.574 . S
C730 H724 0.949 . S
C730 C734 1.368 . S
C731 C712 1.429 . S
C731 C725 1.429 . S
C731 C732 1.523 . S
C732 C713 1.368 . S
C732 C726 1.368 . S
C732 C731 1.523 . S
C733 C717 1.429 . S
C733 C729 1.429 . S
C733 C734 1.523 . S
C734 C718 1.368 . S
C734 C730 1.368 . S
C734 C733 1.523 . S
H735 C710 0.950 . S
H736 C712 0.950 . S
H737 C713 0.949 . S
H738 C715 0.950 . S
H739 C717 0.950 . S
C740 C741 1.349 . S
C740 C742 1.327 . S
C740 H765 0.950 . S
C741 C740 1.349 . S
C741 C757 1.349 . S
C742 C740 1.327 . S
C742 C761 1.429 . S
C742 H766 0.950 . S
C743 C760 1.574 . S
C743 C762 1.368 . S
C743 H767 0.949 . S
H744 C748 0.949 . S
C745 C746 1.349 . S
C745 C747 1.327 . S
C745 H768 0.950 . S
C746 C745 1.349 . S
C746 C758 1.349 . S
C747 C745 1.327 . S
C747 C763 1.429 . S
C747 H769 0.950 . S
C748 H744 0.949 . S
C748 C756 1.574 . S
C748 C764 1.368 . S
H749 C757 0.950 1_556 S
H750 C755 0.950 . S
H751 C756 0.949 . S
H752 C758 0.950 . S
H753 C759 0.950 . S
H754 C760 0.949 . S
C755 H750 0.950 . S
C755 C757 1.327 . S
C755 C761 1.429 . S
C756 C748 1.574 . S
C756 H751 0.949 . S
C756 C762 1.368 . S
C757 C741 1.349 . S
C757 H749 0.950 1_554 S
C757 C755 1.327 . S
C758 C746 1.349 . S
C758 H752 0.950 . S
C758 C759 1.327 . S
C759 H753 0.950 . S
C759 C758 1.327 . S
C759 C763 1.429 . S
C760 C743 1.574 . S
C760 H754 0.949 . S
C760 C764 1.368 . S
C761 C742 1.429 . S
C761 C755 1.429 . S
C761 C762 1.523 . S
C762 C743 1.368 . S
C762 C756 1.368 . S
C762 C761 1.523 . S
C763 C747 1.429 . S
C763 C759 1.429 . S
C763 C764 1.523 . S
C764 C748 1.368 . S
C764 C760 1.368 . S
C764 C763 1.523 . S
H765 C740 0.950 . S
H766 C742 0.950 . S
H767 C743 0.949 . S
H768 C745 0.950 . S
H769 C747 0.950 . S
C770 C771 1.349 . S
C770 C772 1.327 . S
C770 H795 0.950 . S
C771 C770 1.349 . S
C771 C787 1.349 . S
C772 C770 1.327 . S
C772 C791 1.429 . S
C772 H796 0.950 . S
C773 C790 1.574 . S
C773 C792 1.368 . S
C773 H797 0.949 . S
H774 C778 0.949 . S
C775 C776 1.349 . S
C775 C777 1.327 . S
C775 H798 0.950 . S
C776 C775 1.349 . S
C776 C788 1.349 . S
C777 C775 1.327 . S
C777 C793 1.429 . S
C777 H799 0.950 . S
C778 H774 0.949 . S
C778 C786 1.574 . S
C778 C794 1.368 . S
H779 C787 0.950 . S
H780 C785 0.950 . S
H781 C786 0.949 . S
H782 C788 0.950 . S
H783 C789 0.950 . S
H784 C790 0.949 . S
C785 H780 0.950 . S
C785 C787 1.327 . S
C785 C791 1.429 . S
C786 C778 1.574 . S
C786 H781 0.949 . S
C786 C792 1.368 . S
C787 C771 1.349 . S
C787 H779 0.950 . S
C787 C785 1.327 . S
C788 C776 1.349 . S
C788 H782 0.950 . S
C788 C789 1.327 . S
C789 H783 0.950 . S
C789 C788 1.327 . S
C789 C793 1.429 . S
C790 C773 1.574 . S
C790 H784 0.949 . S
C790 C794 1.368 . S
C791 C772 1.429 . S
C791 C785 1.429 . S
C791 C792 1.523 . S
C792 C773 1.368 . S
C792 C786 1.368 . S
C792 C791 1.523 . S
C793 C777 1.429 . S
C793 C789 1.429 . S
C793 C794 1.523 . S
C794 C778 1.368 . S
C794 C790 1.368 . S
C794 C793 1.523 . S
H795 C770 0.950 . S
H796 C772 0.950 . S
H797 C773 0.949 . S
H798 C775 0.950 . S
H799 C777 0.950 . S
C800 C801 1.349 . S
C800 C802 1.327 . S
C800 H825 0.950 1_655 S
C801 C800 1.349 . S
C801 C817 1.349 . S
C802 C800 1.327 . S
C802 C821 1.429 . S
C802 H826 0.950 1_655 S
C803 C820 1.574 . S
C803 C822 1.368 . S
C803 H827 0.949 . S
H804 C808 0.949 . S
C805 C806 1.349 1_655 S
C805 C807 1.327 . S
C805 H828 0.950 . S
C806 C805 1.349 1_455 S
C806 C818 1.349 . S
C807 C805 1.327 . S
C807 C823 1.419 1_655 S
C807 H829 0.950 . S
C808 H804 0.949 . S
C808 C816 1.574 . S
C808 C824 1.368 1_455 S
H809 C817 0.950 . S
H810 C815 0.950 . S
H811 C816 0.949 . S
H812 C818 0.950 . S
H813 C819 0.950 . S
H814 C820 0.949 1_556 S
C815 H810 0.950 . S
C815 C817 1.327 . S
C815 C821 1.429 . S
C816 C808 1.574 . S
C816 H811 0.949 . S
C816 C822 1.368 1_455 S
C817 C801 1.349 . S
C817 H809 0.950 . S
C817 C815 1.327 . S
C818 C806 1.349 . S
C818 H812 0.950 . S
C818 C819 1.327 1_556 S
C819 H813 0.950 . S
C819 C818 1.327 1_554 S
C819 C823 1.455 1_554 S
C820 C803 1.574 . S
C820 H814 0.949 1_554 S
C820 C824 1.368 . S
C821 C802 1.429 . S
C821 C815 1.429 . S
C821 C822 1.523 . S
C822 C803 1.368 . S
C822 C816 1.368 1_655 S
C822 C821 1.523 . S
C823 C807 1.419 1_455 S
C823 C819 1.455 1_556 S
C823 C824 1.509 1_456 S
C824 C808 1.368 1_655 S
C824 C820 1.368 . S
C824 C823 1.509 1_654 S
H825 C800 0.950 1_455 S
H826 C802 0.950 1_455 S
H827 C803 0.949 . S
H828 C805 0.950 . S
H829 C807 0.950 . S
C830 C831 1.349 . S
C830 C832 1.327 . S
C830 H855 0.950 . S
C831 C830 1.349 . S
C831 C847 1.349 . S
C832 C830 1.327 . S
C832 C851 1.429 . S
C832 H856 0.950 . S
C833 C850 1.574 . S
C833 C852 1.368 . S
C833 H857 0.949 . S
H834 C838 0.949 1_556 S
C835 C836 1.349 . S
C835 C837 1.327 1_556 S
C835 H858 0.950 1_556 S
C836 C835 1.349 . S
C836 C848 1.349 . S
C837 C835 1.327 1_554 S
C837 C853 1.429 . S
C837 H859 0.950 . S
C838 H834 0.949 1_554 S
C838 C846 1.574 . S
C838 C854 1.368 . S
H839 C847 0.950 . S
H840 C845 0.950 . S
H841 C846 0.949 . S
H842 C848 0.950 . S
H843 C849 0.950 . S
H844 C850 0.949 . S
C845 H840 0.950 . S
C845 C847 1.327 . S
C845 C851 1.429 . S
C846 C838 1.574 . S
C846 H841 0.949 . S
C846 C852 1.368 . S
C847 C831 1.349 . S
C847 H839 0.950 . S
C847 C845 1.327 . S
C848 C836 1.349 . S
C848 H842 0.950 . S
C848 C849 1.327 . S
C849 H843 0.950 . S
C849 C848 1.327 . S
C849 C853 1.429 1_556 S
C850 C833 1.574 . S
C850 H844 0.949 . S
C850 C854 1.368 . S
C851 C832 1.429 . S
C851 C845 1.429 . S
C851 C852 1.523 . S
C852 C833 1.368 . S
C852 C846 1.368 . S
C852 C851 1.523 . S
C853 C837 1.429 . S
C853 C849 1.429 1_554 S
C853 C854 1.523 1_545 S
C854 C838 1.368 . S
C854 C850 1.368 . S
C854 C853 1.523 1_565 S
H855 C830 0.950 . S
H856 C832 0.950 . S
H857 C833 0.949 . S
H858 C835 0.950 1_554 S
H859 C837 0.950 . S
C860 C861 1.349 . S
C860 C862 1.327 . S
C860 H885 0.950 . S
C861 C860 1.349 . S
C861 C877 1.349 . S
C862 C860 1.327 . S
C862 C881 1.429 . S
C862 H886 0.950 . S
C863 C880 1.574 . S
C863 C882 1.368 . S
C863 H887 0.949 . S
H864 C868 0.949 . S
C865 C866 1.349 . S
C865 C867 1.327 . S
C865 H888 0.950 . S
C866 C865 1.349 . S
C866 C878 1.349 . S
C867 C865 1.327 . S
C867 C883 1.429 1_556 S
C867 H889 0.950 . S
C868 H864 0.949 . S
C868 C876 1.574 . S
C868 C884 1.368 . S
H869 C877 0.950 . S
H870 C875 0.950 . S
H871 C876 0.949 . S
H872 C878 0.950 1_554 S
H873 C879 0.950 . S
H874 C880 0.949 1_556 S
C875 H870 0.950 . S
C875 C877 1.327 . S
C875 C881 1.429 . S
C876 C868 1.574 . S
C876 H871 0.949 . S
C876 C882 1.368 . S
C877 C861 1.349 . S
C877 H869 0.950 . S
C877 C875 1.327 . S
C878 C866 1.349 . S
C878 H872 0.950 1_556 S
C878 C879 1.327 1_556 S
C879 H873 0.950 . S
C879 C878 1.327 1_554 S
C879 C883 1.429 . S
C880 C863 1.574 . S
C880 H874 0.949 1_554 S
C880 C884 1.368 . S
C881 C862 1.429 . S
C881 C875 1.429 . S
C881 C882 1.523 . S
C882 C863 1.368 . S
C882 C876 1.368 . S
C882 C881 1.523 . S
C883 C867 1.429 1_554 S
C883 C879 1.429 . S
C883 C884 1.523 . S
C884 C868 1.368 . S
C884 C880 1.368 . S
C884 C883 1.523 . S
H885 C860 0.950 . S
H886 C862 0.950 . S
H887 C863 0.949 . S
H888 C865 0.950 . S
H889 C867 0.950 . S
C890 C891 1.349 . S
C890 C892 1.327 . S
C890 H915 0.950 . S
C891 C890 1.349 . S
C891 C907 1.349 . S
C892 C890 1.327 . S
C892 C911 1.429 . S
C892 H916 0.950 . S
C893 C910 1.574 . S
C893 C912 1.368 . S
C893 H917 0.949 . S
H894 C898 0.949 . S
C895 C896 1.349 . S
C895 C897 1.327 . S
C895 H918 0.950 . S
C896 C895 1.349 . S
C896 C908 1.349 . S
C897 C895 1.327 . S
C897 C913 1.428 1_556 S
C897 H919 0.950 . S
C898 H894 0.949 . S
C898 C906 1.574 . S
C898 C914 1.368 . S
H899 C907 0.950 . S
H900 C905 0.950 . S
H901 C906 0.949 . S
H902 C908 0.950 . S
H903 C909 0.950 1_554 S
H904 C910 0.949 . S
C905 H900 0.950 . S
C905 C907 1.327 . S
C905 C911 1.429 . S
C906 C898 1.574 . S
C906 H901 0.949 . S
C906 C912 1.368 . S
C907 C891 1.349 . S
C907 H899 0.950 . S
C907 C905 1.327 . S
C908 C896 1.349 . S
C908 H902 0.950 . S
C908 C909 1.327 . S
C909 H903 0.950 1_556 S
C909 C908 1.327 . S
C909 C913 1.428 1_556 S
C910 C893 1.574 . S
C910 H904 0.949 . S
C910 C914 1.368 . S
C911 C892 1.429 . S
C911 C905 1.429 . S
C911 C912 1.523 . S
C912 C893 1.368 . S
C912 C906 1.368 . S
C912 C911 1.523 . S
C913 C897 1.428 1_554 S
C913 C909 1.428 1_554 S
C913 C914 1.523 . S
C914 C898 1.368 . S
C914 C910 1.368 . S
C914 C913 1.523 . S
H915 C890 0.950 . S
H916 C892 0.950 . S
H917 C893 0.949 . S
H918 C895 0.950 . S
H919 C897 0.950 . S
C920 C921 1.349 . S
C920 C922 1.327 . S
C920 H945 0.950 1_556 S
C921 C920 1.349 . S
C921 C937 1.349 . S
C922 C920 1.327 . S
C922 C941 1.429 . S
C922 H946 0.950 1_556 S
C923 C940 1.574 . S
C923 C942 1.368 . S
C923 H947 0.949 . S
H924 C928 0.949 . S
C925 C926 1.349 . S
C925 C927 1.327 . S
C925 H948 0.950 . S
C926 C925 1.349 . S
C926 C938 1.349 . S
C927 C925 1.327 . S
C927 C943 1.429 . S
C927 H949 0.950 . S
C928 H924 0.949 . S
C928 C936 1.574 . S
C928 C944 1.368 . S
H929 C937 0.950 . S
H930 C935 0.950 . S
H931 C936 0.949 . S
H932 C938 0.950 . S
H933 C939 0.950 . S
H934 C940 0.949 . S
C935 H930 0.950 . S
C935 C937 1.327 . S
C935 C941 1.429 . S
C936 C928 1.574 . S
C936 H931 0.949 . S
C936 C942 1.368 . S
C937 C921 1.349 . S
C937 H929 0.950 . S
C937 C935 1.327 . S
C938 C926 1.349 . S
C938 H932 0.950 . S
C938 C939 1.327 . S
C939 H933 0.950 . S
C939 C938 1.327 . S
C939 C943 1.429 . S
C940 C923 1.574 . S
C940 H934 0.949 . S
C940 C944 1.368 . S
C941 C922 1.429 . S
C941 C935 1.429 . S
C941 C942 1.523 . S
C942 C923 1.368 . S
C942 C936 1.368 . S
C942 C941 1.523 . S
C943 C927 1.429 . S
C943 C939 1.429 . S
C943 C944 1.523 . S
C944 C928 1.368 . S
C944 C940 1.368 . S
C944 C943 1.523 . S
H945 C920 0.950 1_554 S
H946 C922 0.950 1_554 S
H947 C923 0.949 . S
H948 C925 0.950 . S
H949 C927 0.950 . S
C950 C951 1.349 . S
C950 C952 1.327 . S
C950 H975 0.952 . S
C951 C950 1.349 . S
C951 C967 1.349 . S
C952 C950 1.327 . S
C952 C971 1.429 . S
C952 H976 0.950 . S
C953 C970 1.574 . S
C953 C972 1.368 . S
C953 H977 0.949 . S
H954 C958 0.949 . S
C955 C956 1.349 . S
C955 C957 1.327 . S
C955 H978 0.950 1_545 S
C956 C955 1.349 . S
C956 C968 1.349 . S
C957 C955 1.327 . S
C957 C973 1.429 . S
C957 H979 0.913 1_545 S
C958 H954 0.949 . S
C958 C966 1.574 . S
C958 C974 1.368 . S
H959 C967 0.950 . S
H960 C965 0.950 . S
H961 C966 0.949 . S
H962 C968 0.950 . S
H963 C969 0.950 . S
H964 C970 0.949 . S
C965 H960 0.950 . S
C965 C967 1.327 . S
C965 C971 1.429 . S
C966 C958 1.574 . S
C966 H961 0.949 . S
C966 C972 1.368 . S
C967 C951 1.349 . S
C967 H959 0.950 . S
C967 C965 1.327 . S
C968 C956 1.349 . S
C968 H962 0.950 . S
C968 C969 1.327 . S
C969 H963 0.950 . S
C969 C968 1.327 . S
C969 C973 1.429 . S
C970 C953 1.574 . S
C970 H964 0.949 . S
C970 C974 1.368 . S
C971 C952 1.429 . S
C971 C965 1.429 . S
C971 C972 1.523 . S
C972 C953 1.368 . S
C972 C966 1.368 . S
C972 C971 1.523 . S
C973 C957 1.429 . S
C973 C969 1.429 . S
C973 C974 1.523 . S
C974 C958 1.368 . S
C974 C970 1.368 . S
C974 C973 1.523 . S
H975 C950 0.952 . S
H976 C952 0.950 . S
H977 C953 0.949 . S
H978 C955 0.950 1_565 S
H979 C957 0.913 1_565 S
C980 C981 1.349 . S
C980 C982 1.327 . S
C980 H1005 0.950 . S
C981 C980 1.349 . S
C981 C997 1.349 . S
C982 C980 1.327 . S
C982 C1001 1.429 . S
C982 H1006 0.950 . S
C983 C1000 1.574 . S
C983 C1002 1.368 . S
C983 H1007 0.949 . S
H984 C988 0.949 . S
C985 C986 1.349 . S
C985 C987 1.327 . S
C985 H1008 0.950 . S
C986 C985 1.349 . S
C986 C998 1.349 . S
C987 C985 1.327 . S
C987 C1003 1.429 . S
C987 H1009 0.950 . S
C988 H984 0.949 . S
C988 C996 1.574 . S
C988 C1004 1.368 . S
H989 C997 0.950 1_554 S
H990 C995 0.950 . S
H991 C996 0.949 . S
H992 C998 0.950 . S
H993 C999 0.950 . S
H994 C1000 0.949 . S
C995 H990 0.950 . S
C995 C997 1.327 . S
C995 C1001 1.429 . S
C996 C988 1.574 . S
C996 H991 0.949 . S
C996 C1002 1.368 . S
C997 C981 1.349 . S
C997 H989 0.950 1_556 S
C997 C995 1.327 . S
C998 C986 1.349 . S
C998 H992 0.950 . S
C998 C999 1.327 . S
C999 H993 0.950 . S
C999 C998 1.327 . S
C999 C1003 1.429 . S
C1000 C983 1.574 . S
C1000 H994 0.949 . S
C1000 C1004 1.368 . S
C1001 C982 1.429 . S
C1001 C995 1.429 . S
C1001 C1002 1.523 . S
C1002 C983 1.368 . S
C1002 C996 1.368 . S
C1002 C1001 1.523 . S
C1003 C987 1.429 . S
C1003 C999 1.429 . S
C1003 C1004 1.523 . S
C1004 C988 1.368 . S
C1004 C1000 1.368 . S
C1004 C1003 1.523 . S
H1005 C980 0.950 . S
H1006 C982 0.950 . S
H1007 C983 0.949 . S
H1008 C985 0.950 . S
H1009 C987 0.950 . S
C1010 C1011 1.349 . S
C1010 C1012 1.327 . S
C1010 H1035 0.950 . S
C1011 C1010 1.349 . S
C1011 C1027 1.349 . S
C1012 C1010 1.327 . S
C1012 C1031 1.429 . S
C1012 H1036 0.950 . S
C1013 C1030 1.574 . S
C1013 C1032 1.368 . S
C1013 H1037 0.949 . S
H1014 C1018 0.949 . S
C1015 C1016 1.349 . S
C1015 C1017 1.327 . S
C1015 H1038 0.950 . S
C1016 C1015 1.349 . S
C1016 C1028 1.349 . S
C1017 C1015 1.327 . S
C1017 C1033 1.429 . S
C1017 H1039 0.950 . S
C1018 H1014 0.949 . S
C1018 C1026 1.574 . S
C1018 C1034 1.368 . S
H1019 C1027 0.950 . S
H1020 C1025 0.950 . S
H1021 C1026 0.949 . S
H1022 C1028 0.950 . S
H1023 C1029 0.950 . S
H1024 C1030 0.949 . S
C1025 H1020 0.950 . S
C1025 C1027 1.327 . S
C1025 C1031 1.429 . S
C1026 C1018 1.574 . S
C1026 H1021 0.949 . S
C1026 C1032 1.368 . S
C1027 C1011 1.349 . S
C1027 H1019 0.950 . S
C1027 C1025 1.327 . S
C1028 C1016 1.349 . S
C1028 H1022 0.950 . S
C1028 C1029 1.327 . S
C1029 H1023 0.950 . S
C1029 C1028 1.327 . S
C1029 C1033 1.429 . S
C1030 C1013 1.574 . S
C1030 H1024 0.949 . S
C1030 C1034 1.368 . S
C1031 C1012 1.429 . S
C1031 C1025 1.429 . S
C1031 C1032 1.523 . S
C1032 C1013 1.368 . S
C1032 C1026 1.368 . S
C1032 C1031 1.523 . S
C1033 C1017 1.429 . S
C1033 C1029 1.429 . S
C1033 C1034 1.523 . S
C1034 C1018 1.368 . S
C1034 C1030 1.368 . S
C1034 C1033 1.523 . S
H1035 C1010 0.950 . S
H1036 C1012 0.950 . S
H1037 C1013 0.949 . S
H1038 C1015 0.950 . S
H1039 C1017 0.950 . S
C1040 C1041 1.349 . S
C1040 C1042 1.327 . S
C1040 H1065 0.950 . S
C1041 C1040 1.349 . S
C1041 C1057 1.349 . S
C1042 C1040 1.327 . S
C1042 C1061 1.429 . S
C1042 H1066 0.950 . S
C1043 C1060 1.574 . S
C1043 C1062 1.368 1_455 S
C1043 H1067 0.949 . S
H1044 C1048 0.949 . S
C1045 C1046 1.349 1_455 S
C1045 C1047 1.327 . S
C1045 H1068 0.950 . S
C1046 C1045 1.349 1_655 S
C1046 C1058 1.349 . S
C1047 C1045 1.327 . S
C1047 C1063 1.429 1_455 S
C1047 H1069 0.950 . S
C1048 H1044 0.949 . S
C1048 C1056 1.574 . S
C1048 C1064 1.368 . S
H1049 C1057 0.950 1_455 S
H1050 C1055 0.950 . S
H1051 C1056 0.949 . S
H1052 C1058 0.950 . S
H1053 C1059 0.950 . S
H1054 C1060 0.949 . S
C1055 H1050 0.950 . S
C1055 C1057 1.327 1_455 S
C1055 C1061 1.429 1_455 S
C1056 C1048 1.574 . S
C1056 H1051 0.949 . S
C1056 C1062 1.368 . S
C1057 C1041 1.349 . S
C1057 H1049 0.950 1_655 S
C1057 C1055 1.327 1_655 S
C1058 C1046 1.349 . S
C1058 H1052 0.950 . S
C1058 C1059 1.327 . S
C1059 H1053 0.950 . S
C1059 C1058 1.327 . S
C1059 C1063 1.429 . S
C1060 C1043 1.574 . S
C1060 H1054 0.949 . S
C1060 C1064 1.368 1_455 S
C1061 C1042 1.429 . S
C1061 C1055 1.429 1_655 S
C1061 C1062 1.523 . S
C1062 C1043 1.368 1_655 S
C1062 C1056 1.368 . S
C1062 C1061 1.523 . S
C1063 C1047 1.429 1_655 S
C1063 C1059 1.429 . S
C1063 C1064 1.523 . S
C1064 C1048 1.368 . S
C1064 C1060 1.368 1_655 S
C1064 C1063 1.523 . S
H1065 C1040 0.950 . S
H1066 C1042 0.950 . S
H1067 C1043 0.949 . S
H1068 C1045 0.950 . S
H1069 C1047 0.950 . S
C1070 C1071 1.349 . S
C1070 C1072 1.327 . S
C1070 H1095 0.975 . S
C1071 C1070 1.349 . S
C1071 C1087 1.349 . S
C1072 C1070 1.327 . S
C1072 C1091 1.429 . S
C1072 H1096 0.950 1_565 S
C1073 C1090 1.574 . S
C1073 C1092 1.368 . S
C1073 H1097 0.949 . S
H1074 C1078 0.949 . S
C1075 C1076 1.349 . S
C1075 C1077 1.327 . S
C1075 H1098 0.950 . S
C1076 C1075 1.349 . S
C1076 C1088 1.349 1_565 S
C1077 C1075 1.327 . S
C1077 C1093 1.429 . S
C1077 H1099 0.950 . S
C1078 H1074 0.949 . S
C1078 C1086 1.573 1_545 S
C1078 C1094 1.368 1_545 S
H1079 C1087 0.950 . S
H1080 C1085 0.950 . S
H1081 C1086 0.948 1_545 S
H1082 C1088 0.950 . S
H1083 C1089 0.950 . S
H1084 C1090 0.949 . S
C1085 H1080 0.950 . S
C1085 C1087 1.327 . S
C1085 C1091 1.429 . S
C1086 C1078 1.573 1_565 S
C1086 H1081 0.948 1_565 S
C1086 C1092 1.370 . S
C1087 C1071 1.349 . S
C1087 H1079 0.950 . S
C1087 C1085 1.327 . S
C1088 C1076 1.349 1_545 S
C1088 H1082 0.950 . S
C1088 C1089 1.327 . S
C1089 H1083 0.950 . S
C1089 C1088 1.327 . S
C1089 C1093 1.429 1_545 S
C1090 C1073 1.574 . S
C1090 H1084 0.949 . S
C1090 C1094 1.368 . S
C1091 C1072 1.429 . S
C1091 C1085 1.429 . S
C1091 C1092 1.523 . S
C1092 C1073 1.368 . S
C1092 C1086 1.370 . S
C1092 C1091 1.523 . S
C1093 C1077 1.429 . S
C1093 C1089 1.429 1_565 S
C1093 C1094 1.523 . S
C1094 C1078 1.368 1_565 S
C1094 C1090 1.368 . S
C1094 C1093 1.523 . S
H1095 C1070 0.975 . S
H1096 C1072 0.950 1_545 S
H1097 C1073 0.949 . S
H1098 C1075 0.950 . S
H1099 C1077 0.950 . S
C1100 C1101 1.349 . S
C1100 C1102 1.327 . S
C1100 H1125 0.950 . S
C1101 C1100 1.349 . S
C1101 C1117 1.349 . S
C1102 C1100 1.327 . S
C1102 C1121 1.429 . S
C1102 H1126 0.950 . S
C1103 C1120 1.574 . S
C1103 C1122 1.368 . S
C1103 H1127 0.949 . S
H1104 C1108 0.949 . S
C1105 C1106 1.349 . S
C1105 C1107 1.327 . S
C1105 H1128 0.950 . S
C1106 C1105 1.349 . S
C1106 C1118 1.349 . S
C1107 C1105 1.327 . S
C1107 C1123 1.429 . S
C1107 H1129 0.950 . S
C1108 H1104 0.949 . S
C1108 C1116 1.574 . S
C1108 C1124 1.368 . S
H1109 C1117 0.950 . S
H1110 C1115 0.950 . S
H1111 C1116 0.949 . S
H1112 C1118 0.950 . S
H1113 C1119 0.950 . S
H1114 C1120 0.949 . S
C1115 H1110 0.950 . S
C1115 C1117 1.327 . S
C1115 C1121 1.429 . S
C1116 C1108 1.574 . S
C1116 H1111 0.949 . S
C1116 C1122 1.368 . S
C1117 C1101 1.349 . S
C1117 H1109 0.950 . S
C1117 C1115 1.327 . S
C1118 C1106 1.349 . S
C1118 H1112 0.950 . S
C1118 C1119 1.327 . S
C1119 H1113 0.950 . S
C1119 C1118 1.327 . S
C1119 C1123 1.429 . S
C1120 C1103 1.574 . S
C1120 H1114 0.949 . S
C1120 C1124 1.368 . S
C1121 C1102 1.429 . S
C1121 C1115 1.429 . S
C1121 C1122 1.523 . S
C1122 C1103 1.368 . S
C1122 C1116 1.368 . S
C1122 C1121 1.523 . S
C1123 C1107 1.429 . S
C1123 C1119 1.429 . S
C1123 C1124 1.523 . S
C1124 C1108 1.368 . S
C1124 C1120 1.368 . S
C1124 C1123 1.523 . S
H1125 C1100 0.950 . S
H1126 C1102 0.950 . S
H1127 C1103 0.949 . S
H1128 C1105 0.950 . S
H1129 C1107 0.950 . S
C1130 C1131 1.349 . S
C1130 C1132 1.327 . S
C1130 H1155 0.950 . S
C1131 C1130 1.349 . S
C1131 C1147 1.349 . S
C1132 C1130 1.327 . S
C1132 C1151 1.429 . S
C1132 H1156 0.950 . S
C1133 C1150 1.574 . S
C1133 C1152 1.368 . S
C1133 H1157 0.949 . S
H1134 C1138 0.949 . S
C1135 C1136 1.349 . S
C1135 C1137 1.327 . S
C1135 H1158 0.950 . S
C1136 C1135 1.349 . S
C1136 C1148 1.349 . S
C1137 C1135 1.327 . S
C1137 C1153 1.429 . S
C1137 H1159 0.950 . S
C1138 H1134 0.949 . S
C1138 C1146 1.574 . S
C1138 C1154 1.368 . S
H1139 C1147 0.950 . S
H1140 C1145 0.950 . S
H1141 C1146 0.949 . S
H1142 C1148 0.950 . S
H1143 C1149 0.950 . S
H1144 C1150 0.949 . S
C1145 H1140 0.950 . S
C1145 C1147 1.327 . S
C1145 C1151 1.429 . S
C1146 C1138 1.574 . S
C1146 H1141 0.949 . S
C1146 C1152 1.368 . S
C1147 C1131 1.349 . S
C1147 H1139 0.950 . S
C1147 C1145 1.327 . S
C1148 C1136 1.349 . S
C1148 H1142 0.950 . S
C1148 C1149 1.327 . S
C1149 H1143 0.950 . S
C1149 C1148 1.327 . S
C1149 C1153 1.429 . S
C1150 C1133 1.574 . S
C1150 H1144 0.949 . S
C1150 C1154 1.368 . S
C1151 C1132 1.429 . S
C1151 C1145 1.429 . S
C1151 C1152 1.523 . S
C1152 C1133 1.368 . S
C1152 C1146 1.368 . S
C1152 C1151 1.523 . S
C1153 C1137 1.429 . S
C1153 C1149 1.429 . S
C1153 C1154 1.523 . S
C1154 C1138 1.368 . S
C1154 C1150 1.368 . S
C1154 C1153 1.523 . S
H1155 C1130 0.950 . S
H1156 C1132 0.950 . S
H1157 C1133 0.949 . S
H1158 C1135 0.950 . S
H1159 C1137 0.950 . S
C441 N80 1.890 . S
C446 C167 1.937 . S
C476 C244 1.957 . S
C471 N93 1.895 . S
C506 C335 1.926 . S
C501 N54 1.879 . S
C536 C419 1.918 . S
C531 N67 1.872 . S
C566 C178 1.937 . S
C561 N28 1.897 . S
C591 N41 1.901 . S
C596 C255 1.958 . S
C621 N2 1.885 . S
C626 C346 1.926 . S
C651 N15 1.877 . S
C656 C430 1.917 1_655 S
C686 C162 0.534 1_455 S
C681 N70 0.399 . S
C716 C257 0.520 . S
C711 N83 0.370 . S
C746 C330 0.532 . S
C741 N96 0.402 . S
C771 N57 0.382 . S
C776 C414 0.526 . S
C801 N18 0.395 . S
C806 C173 0.534 . S
C836 C246 0.520 . S
C831 N31 0.365 . S
C866 C341 0.532 . S
C861 N44 0.398 . S
C891 N5 0.377 . S
C896 C425 0.526 . S
C921 N66 1.931 1_556 S
C926 C171 1.989 . S
C951 N79 1.925 1_556 S
C956 C262 1.979 . S
C986 C339 2.006 . S
C981 N92 1.947 . S
C1016 C423 2.013 . S
C1011 N53 1.946 1_556 S
C1041 N14 1.940 . S
C1046 C160 1.989 . S
C1076 C251 1.980 1_565 S
C1071 N27 1.935 . S
C1106 C328 2.006 . S
C1101 N40 1.956 . S
C1131 N1 1.962 . S
C1136 C412 2.012 . S
