# Generated by pormake.
# Topology rtl, (3,6)-cn, num edge types: 1
# Building blocks:
#     Node 0, Type 0, BuildingBlock: CUQRIR_clean_linker_1, # of connection points: 3
#     Node 1, Type 0, BuildingBlock: CUQRIR_clean_linker_1, # of connection points: 3
#     Node 2, Type 0, BuildingBlock: CUQRIR_clean_linker_1, # of connection points: 3
#     Node 3, Type 0, BuildingBlock: CUQRIR_clean_linker_1, # of connection points: 3
#     Node 4, Type 1, BuildingBlock: VOLQOD_clean_sbu_1, # of connection points: 6
#     Node 5, Type 1, BuildingBlock: VOLQOD_clean_sbu_1, # of connection points: 6
#     Edge 6, Type (0, 1), BuildingBlock: CIFDUS_clean_linker_0, # of connection points: 2
#     Edge 7, Type (0, 1), BuildingBlock: CIFDUS_clean_linker_0, # of connection points: 2
#     Edge 8, Type (0, 1), BuildingBlock: CIFDUS_clean_linker_0, # of connection points: 2
#     Edge 9, Type (0, 1), BuildingBlock: CIFDUS_clean_linker_0, # of connection points: 2
#     Edge 10, Type (0, 1), BuildingBlock: CIFDUS_clean_linker_0, # of connection points: 2
#     Edge 11, Type (0, 1), BuildingBlock: CIFDUS_clean_linker_0, # of connection points: 2
#     Edge 12, Type (0, 1), BuildingBlock: CIFDUS_clean_linker_0, # of connection points: 2
#     Edge 13, Type (0, 1), BuildingBlock: CIFDUS_clean_linker_0, # of connection points: 2
#     Edge 14, Type (0, 1), BuildingBlock: CIFDUS_clean_linker_0, # of connection points: 2
#     Edge 15, Type (0, 1), BuildingBlock: CIFDUS_clean_linker_0, # of connection points: 2
#     Edge 16, Type (0, 1), BuildingBlock: CIFDUS_clean_linker_0, # of connection points: 2
#     Edge 17, Type (0, 1), BuildingBlock: CIFDUS_clean_linker_0, # of connection points: 2
# Relax obj value: 0.040
# Max RMSD: 0.143
# Mean RMSD: 0.102
data_MOF--net-rtl--node1-VOLQOD_clean_sbu_1--node2-CUQRIR_clean_linker_1--edge1-CIFDUS_clean_linker_0
_symmetry_space_group_name_H-M    P1
_symmetry_Int_Tables_number       1
_symmetry_cell_setting            triclinic
loop_
_symmetry_equiv_pos_as_xyz
'x, y, z'
_cell_length_a     31.06206
_cell_length_b     31.369468
_cell_length_c     17.190929
_cell_angle_alpha  90.018664
_cell_angle_beta   90.296226
_cell_angle_gamma 89.831547
loop_
_atom_site_label
_atom_site_type_symbol
_atom_site_fract_x
_atom_site_fract_y
_atom_site_fract_z
_atom_type_partial_charge
C0 C 0.21082 0.77286 0.93696 0.0
N1 N 0.17924 0.7993 0.96186 0.0
N2 N 0.23558 0.75951 0.99761 0.0
C3 C 0.21726 0.75999 0.85345 0.0
C4 C 0.21761 0.77879 0.06023 0.0
N5 N 0.18354 0.80296 0.0384 0.0
C6 C 0.23468 0.77626 0.14218 0.0
H7 H 0.23296 0.72826 0.84943 0.0
H8 H 0.23802 0.78392 0.82465 0.0
H9 H 0.18624 0.75893 0.82145 0.0
H10 H 0.27005 0.77127 0.14268 0.0
H11 H 0.21921 0.74908 0.17228 0.0
H12 H 0.22699 0.80576 0.175 0.0
C13 C 0.74505 0.70829 0.58165 0.0
N14 N 0.71059 0.68427 0.56174 0.0
N15 N 0.75836 0.73161 0.52017 0.0
C16 C 0.76426 0.71079 0.662 0.0
C17 C 0.73073 0.72103 0.46221 0.0
N18 N 0.70146 0.69244 0.48763 0.0
C19 C 0.73298 0.73813 0.3806 0.0
H20 H 0.77921 0.74239 0.67232 0.0
H21 H 0.7896 0.68598 0.66783 0.0
H22 H 0.73945 0.70495 0.70693 0.0
H23 H 0.76686 0.74457 0.36423 0.0
H24 H 0.71487 0.76863 0.37784 0.0
H25 H 0.71841 0.71581 0.33801 0.0
C26 C 0.75018 0.1891 0.05746 0.0
N27 N 0.78128 0.16127 0.0359 0.0
N28 N 0.73753 0.21313 0.99614 0.0
C29 C 0.73461 0.19534 0.13948 0.0
C30 C 0.76225 0.19934 0.93667 0.0
N31 N 0.78912 0.16805 0.96103 0.0
C32 C 0.7593 0.21547 0.8545 0.0
H33 H 0.70892 0.1718 0.15158 0.0
H34 H 0.72119 0.22781 0.14794 0.0
H35 H 0.76118 0.19016 0.18186 0.0
H36 H 0.7846 0.23987 0.84569 0.0
H37 H 0.72743 0.23025 0.84273 0.0
H38 H 0.76499 0.18923 0.81245 0.0
C39 C 0.27067 0.30686 0.46014 0.0
N40 N 0.29411 0.34115 0.48254 0.0
N41 N 0.24895 0.29054 0.52157 0.0
C42 C 0.27195 0.28748 0.38002 0.0
C43 C 0.26003 0.31627 0.58165 0.0
N44 N 0.28714 0.34717 0.55787 0.0
C45 C 0.24532 0.31076 0.66421 0.0
H46 H 0.27686 0.31248 0.33531 0.0
H47 H 0.24229 0.26966 0.36587 0.0
H48 H 0.29934 0.26477 0.37718 0.0
H49 H 0.26874 0.29019 0.69566 0.0
H50 H 0.21319 0.29545 0.66617 0.0
H51 H 0.24398 0.34202 0.6944 0.0
O52 O 0.91182 0.96436 0.50113 0.0
Zn53 Zn 0.94418 0.01916 0.50031 0.0
O54 O 0.00629 0.00858 0.4993 0.0
Zn55 Zn 0.03374 0.0359 0.5894 0.0
Zn56 Zn 0.01731 0.94667 0.50017 0.0
Zn57 Zn 0.02999 0.03392 0.40547 0.0
O58 O 0.07616 0.08162 0.55796 0.0
O59 O 0.06834 0.08339 0.42956 0.0
O60 O 0.92687 0.05182 0.59642 0.0
O61 O 0.98909 0.06484 0.65653 0.0
O62 O 0.06419 0.99216 0.65586 0.0
O63 O 0.05026 0.93008 0.5984 0.0
O64 O 0.05181 0.92919 0.40428 0.0
O65 O 0.92383 0.05002 0.40334 0.0
O66 O 0.06315 0.99086 0.34418 0.0
O67 O 0.98391 0.05661 0.33528 0.0
C68 C 0.92203 0.92509 0.50006 0.0
C69 C 0.08474 0.09792 0.49202 0.0
C70 C 0.06707 0.95163 0.6537 0.0
C71 C 0.94824 0.06796 0.65258 0.0
C72 C 0.0681 0.95065 0.34862 0.0
C73 C 0.9435 0.06164 0.34209 0.0
O74 O 0.96133 0.91324 0.49946 0.0
O75 O 0.60271 0.45918 1.00193 0.0
Zn76 Zn 0.56966 0.51424 0.01228 0.0
O77 O 0.50763 0.50502 0.02127 0.0
Zn78 Zn 0.47801 0.53232 0.93324 0.0
Zn79 Zn 0.49719 0.44369 0.01983 0.0
Zn80 Zn 0.48597 0.529 0.11921 0.0
O81 O 0.43446 0.57533 0.97002 0.0
O82 O 0.43883 0.57215 0.09905 0.0
O83 O 0.58363 0.54954 0.91778 0.0
O84 O 0.51988 0.56295 0.86381 0.0
O85 O 0.44656 0.48871 0.86757 0.0
O86 O 0.46141 0.42755 0.92726 0.0
O87 O 0.46686 0.42412 0.11635 0.0
O88 O 0.59202 0.54374 0.10805 0.0
O89 O 0.45902 0.48329 0.18586 0.0
O90 O 0.53441 0.55662 0.18091 0.0
C91 C 0.59118 0.42032 1.00386 0.0
C92 C 0.42211 0.58728 0.03709 0.0
C93 C 0.44351 0.4483 0.87226 0.0
C94 C 0.5607 0.56655 0.86448 0.0
C95 C 0.45378 0.44332 0.17706 0.0
C96 C 0.57488 0.55891 0.16935 0.0
O97 O 0.55186 0.41016 0.01192 0.0
H98 H 0.17826 0.2734 0.43762 0.0
H99 H 0.26258 0.2226 0.61415 0.0
H100 H 0.21795 0.15849 0.62394 0.0
H101 H 0.15491 0.11674 0.58068 0.0
H102 H 0.0756 0.1646 0.39329 0.0
H103 H 0.11873 0.22951 0.38746 0.0
C104 C 0.18717 0.24781 0.47695 0.0
C105 C 0.22355 0.25232 0.52478 0.0
C106 C 0.16233 0.21058 0.47998 0.0
C107 C 0.23441 0.21966 0.57722 0.0
C108 C 0.20907 0.18306 0.5825 0.0
C109 C 0.14723 0.14144 0.53864 0.0
C110 C 0.11214 0.13613 0.48775 0.0
C111 C 0.17291 0.17816 0.53412 0.0
C112 C 0.10266 0.168 0.43281 0.0
C113 C 0.12717 0.20515 0.42961 0.0
H114 H 0.25157 0.69232 0.09033 0.0
H115 H 0.30397 0.76589 0.90196 0.0
H116 H 0.36624 0.7181 0.89557 0.0
H117 H 0.40562 0.65503 0.94384 0.0
H118 H 0.35757 0.58702 0.1431 0.0
H119 H 0.29435 0.63373 0.14701 0.0
C120 C 0.277 0.69821 0.04884 0.0
C121 C 0.27294 0.73213 0.99591 0.0
C122 C 0.31355 0.6718 0.048 0.0
C123 C 0.30588 0.73926 0.94182 0.0
C124 C 0.34164 0.71222 0.93871 0.0
C125 C 0.38135 0.65068 0.98826 0.0
C126 C 0.38594 0.61762 0.0428 0.0
C127 C 0.34572 0.67828 0.99133 0.0
C128 C 0.35469 0.61246 0.10075 0.0
C129 C 0.31849 0.63898 0.10275 0.0
H130 H 0.75268 0.81432 0.48621 0.0
H131 H 0.84185 0.71503 0.54938 0.0
H132 H 0.90168 0.76608 0.54716 0.0
H133 H 0.92794 0.83952 0.52854 0.0
H134 H 0.83718 0.93896 0.46861 0.0
H135 H 0.77872 0.8875 0.46774 0.0
C136 C 0.78536 0.80411 0.49879 0.0
C137 C 0.79333 0.76137 0.51754 0.0
C138 C 0.81915 0.83364 0.49807 0.0
C139 C 0.83542 0.74805 0.53499 0.0
C140 C 0.86942 0.77714 0.53358 0.0
C141 C 0.89542 0.84987 0.515 0.0
C142 C 0.88708 0.89307 0.49873 0.0
C143 C 0.86164 0.82011 0.51539 0.0
C144 C 0.84461 0.90598 0.48177 0.0
C145 C 0.81106 0.87656 0.48109 0.0
H146 H 0.75008 0.29558 0.96518 0.0
H147 H 0.65382 0.20363 0.02723 0.0
H148 H 0.59902 0.26001 0.03346 0.0
H149 H 0.57951 0.33541 0.02462 0.0
H150 H 0.67643 0.42846 0.96682 0.0
H151 H 0.73021 0.37182 0.95555 0.0
C152 C 0.71693 0.28825 0.97924 0.0
C153 C 0.70542 0.24601 0.99538 0.0
C154 C 0.68606 0.32089 0.9839 0.0
C155 C 0.66281 0.23622 0.0146 0.0
C156 C 0.63175 0.26833 0.01822 0.0
C157 C 0.61234 0.3434 0.0093 0.0
C158 C 0.62387 0.38615 0.99663 0.0
C159 C 0.64311 0.31081 1.00358 0.0
C160 C 0.66667 0.39584 0.97717 0.0
C161 C 0.69745 0.36348 0.97055 0.0
H162 H 0.18301 0.88649 0.06895 0.0
H163 H 0.12269 0.76764 0.1264 0.0
H164 H 0.08125 0.80255 0.22986 0.0
H165 H 0.06482 0.86669 0.30721 0.0
H166 H 0.12515 0.98605 0.2479 0.0
H167 H 0.16393 0.95149 0.14214 0.0
C168 C 0.15988 0.86879 0.10303 0.0
C169 C 0.15489 0.82503 0.08987 0.0
C170 C 0.13681 0.88905 0.16273 0.0
C171 C 0.12608 0.80164 0.13543 0.0
C172 C 0.10283 0.82149 0.19471 0.0
C173 C 0.08659 0.88507 0.27134 0.0
C174 C 0.09228 0.92882 0.28597 0.0
C175 C 0.10843 0.86511 0.20971 0.0
C176 C 0.12018 0.9523 0.23813 0.0
C177 C 0.14236 0.93261 0.17744 0.0
H178 H 0.62775 0.69004 0.6021 0.0
H179 H 0.74302 0.61606 0.63613 0.0
H180 H 0.70665 0.57233 0.73406 0.0
H181 H 0.64274 0.55752 0.81332 0.0
H182 H 0.52609 0.62963 0.77441 0.0
H183 H 0.56184 0.67136 0.67364 0.0
C184 C 0.64425 0.66345 0.62925 0.0
C185 C 0.68759 0.65566 0.61175 0.0
C186 C 0.62301 0.63856 0.68489 0.0
C187 C 0.7095 0.62224 0.64911 0.0
C188 C 0.68877 0.59747 0.70498 0.0
C189 C 0.62516 0.58236 0.78274 0.0
C190 C 0.58199 0.5908 0.80184 0.0
C191 C 0.6457 0.60577 0.72414 0.0
C192 C 0.55938 0.6226 0.76086 0.0
C193 C 0.57979 0.64649 0.70331 0.0
H194 H 0.86647 0.16269 0.05612 0.0
H195 H 0.75064 0.10083 0.13168 0.0
H196 H 0.79082 0.06377 0.23479 0.0
H197 H 0.85835 0.05288 0.308 0.0
H198 H 0.97471 0.11365 0.22912 0.0
H199 H 0.93514 0.14708 0.12226 0.0
C200 C 0.85048 0.14016 0.09394 0.0
C201 C 0.80594 0.13425 0.08695 0.0
C202 C 0.87376 0.11939 0.15297 0.0
C203 C 0.78503 0.10573 0.13684 0.0
C204 C 0.80792 0.08481 0.19572 0.0
C205 C 0.87498 0.07347 0.26743 0.0
C206 C 0.91925 0.08118 0.27701 0.0
C207 C 0.85216 0.09216 0.20542 0.0
C208 C 0.94058 0.10732 0.22318 0.0
C209 C 0.91802 0.12644 0.16201 0.0
H210 H 0.35542 0.32062 0.63715 0.0
H211 H 0.27536 0.43 0.59365 0.0
H212 H 0.31883 0.47277 0.68438 0.0
H213 H 0.37824 0.47754 0.78001 0.0
H214 H 0.45432 0.36545 0.83061 0.0
H215 H 0.41389 0.32494 0.73382 0.0
C216 C 0.34806 0.35396 0.64754 0.0
C217 C 0.31334 0.37281 0.60826 0.0
C218 C 0.37221 0.37752 0.70138 0.0
C219 C 0.30288 0.41558 0.62226 0.0
C220 C 0.32744 0.43972 0.67442 0.0
C221 C 0.38607 0.44434 0.76941 0.0
C222 C 0.41921 0.42453 0.81233 0.0
C223 C 0.36206 0.42091 0.71474 0.0
C224 C 0.42876 0.38135 0.79866 0.0
C225 C 0.40576 0.35817 0.74321 0.0
H226 H 0.72004 0.62704 0.3957 0.0
H227 H 0.61681 0.70864 0.46978 0.0
H228 H 0.5667 0.67222 0.38109 0.0
H229 H 0.55371 0.61924 0.27717 0.0
H230 H 0.65972 0.54259 0.19474 0.0
H231 H 0.70748 0.57496 0.2909 0.0
C232 C 0.68637 0.63617 0.39264 0.0
C233 C 0.67145 0.66933 0.44001 0.0
C234 C 0.65857 0.61634 0.33931 0.0
C235 C 0.62828 0.68217 0.43514 0.0
C236 C 0.59993 0.6617 0.38395 0.0
C237 C 0.5872 0.6095 0.28069 0.0
C238 C 0.60312 0.57856 0.22889 0.0
C239 C 0.61484 0.62898 0.33509 0.0
C240 C 0.64671 0.56655 0.23354 0.0
C241 C 0.67405 0.58492 0.28869 0.0
H242 H 0.86648 0.18916 0.90588 0.0
H243 H 0.77077 0.09056 0.90614 0.0
H244 H 0.81167 0.0501 0.80877 0.0
H245 H 0.87309 0.04507 0.71906 0.0
H246 H 0.97198 0.14112 0.72594 0.0
H247 H 0.93186 0.18057 0.8252 0.0
C248 C 0.85531 0.15845 0.88515 0.0
C249 C 0.81613 0.14237 0.91236 0.0
C250 C 0.87932 0.13539 0.83025 0.0
C251 C 0.80121 0.10288 0.8857 0.0
C252 C 0.8244 0.08009 0.82999 0.0
C253 C 0.88578 0.07461 0.74255 0.0
C254 C 0.92499 0.09061 0.71479 0.0
C255 C 0.86317 0.09637 0.80097 0.0
C256 C 0.94171 0.1284 0.74648 0.0
C257 C 0.9188 0.15092 0.80306 0.0
H258 H 0.36182 0.31277 0.40063 0.0
H259 H 0.28918 0.42538 0.45727 0.0
H260 H 0.33538 0.46842 0.37344 0.0
H261 H 0.39344 0.47287 0.27725 0.0
H262 H 0.46126 0.35859 0.20975 0.0
H263 H 0.41969 0.31704 0.3032 0.0
C264 C 0.35623 0.3467 0.39411 0.0
C265 C 0.32258 0.36618 0.43524 0.0
C266 C 0.38182 0.37072 0.34334 0.0
C267 C 0.31564 0.41015 0.42742 0.0
C268 C 0.34171 0.43455 0.37888 0.0
C269 C 0.39942 0.43896 0.28365 0.0
C270 C 0.43041 0.41883 0.23687 0.0
C271 C 0.37458 0.41508 0.33583 0.0
C272 C 0.43743 0.37476 0.24495 0.0
C273 C 0.41372 0.351 0.29837 0.0
H274 H 0.18593 0.88144 0.92484 0.0
H275 H 0.10914 0.76952 0.88785 0.0
H276 H 0.06677 0.80686 0.78758 0.0
H277 H 0.05496 0.87039 0.70529 0.0
H278 H 0.1307 0.98334 0.74641 0.0
H279 H 0.17009 0.94695 0.85039 0.0
C280 C 0.15912 0.86589 0.89602 0.0
C281 C 0.15011 0.8232 0.91338 0.0
C282 C 0.13532 0.88755 0.83855 0.0
C283 C 0.11605 0.8026 0.87517 0.0
C284 C 0.09222 0.82383 0.8177 0.0
C285 C 0.08011 0.88698 0.73701 0.0
C286 C 0.09024 0.92934 0.71746 0.0
C287 C 0.10216 0.86608 0.79778 0.0
C288 C 0.12238 0.95069 0.76007 0.0
C289 C 0.14492 0.92992 0.8196 0.0
loop_
_geom_bond_atom_site_label_1
_geom_bond_atom_site_label_2
_geom_bond_distance
_geom_bond_site_symmetry_2
_ccdc_geom_bond_type
C0 N1 1.317 . S
C0 N2 1.348 1_556 S
C0 C3 1.485 . S
N1 C0 1.317 . S
N1 N5 1.370 1_556 S
N2 C0 1.348 1_554 S
N2 C4 1.346 . S
C3 C0 1.485 . S
C3 H7 0.960 . S
C3 H8 0.961 . S
C3 H9 0.960 . S
C4 N2 1.346 . S
C4 N5 1.307 . S
C4 C6 1.486 . S
N5 N1 1.370 1_554 S
N5 C4 1.307 . S
C6 C4 1.486 . S
C6 H10 0.960 . S
C6 H11 0.960 . S
C6 H12 0.959 . S
H7 C3 0.960 . S
H8 C3 0.961 . S
H9 C3 0.960 . S
H10 C6 0.960 . S
H11 C6 0.960 . S
H12 C6 0.959 . S
C13 N14 1.317 . S
C13 N15 1.348 . S
C13 C16 1.485 . S
N14 C13 1.317 . S
N14 N18 1.370 . S
N15 C13 1.348 . S
N15 C17 1.346 . S
C16 C13 1.485 . S
C16 H20 0.960 . S
C16 H21 0.961 . S
C16 H22 0.960 . S
C17 N15 1.346 . S
C17 N18 1.307 . S
C17 C19 1.486 . S
N18 N14 1.370 . S
N18 C17 1.307 . S
C19 C17 1.486 . S
C19 H23 0.960 . S
C19 H24 0.960 . S
C19 H25 0.959 . S
H20 C16 0.960 . S
H21 C16 0.961 . S
H22 C16 0.960 . S
H23 C19 0.960 . S
H24 C19 0.960 . S
H25 C19 0.959 . S
C26 N27 1.317 . S
C26 N28 1.348 . S
C26 C29 1.485 . S
N27 C26 1.317 . S
N27 N31 1.370 1_554 S
N28 C26 1.348 . S
N28 C30 1.346 1_554 S
C29 C26 1.485 . S
C29 H33 0.960 . S
C29 H34 0.961 . S
C29 H35 0.960 . S
C30 N28 1.346 1_556 S
C30 N31 1.307 . S
C30 C32 1.486 . S
N31 N27 1.370 1_556 S
N31 C30 1.307 . S
C32 C30 1.486 . S
C32 H36 0.960 . S
C32 H37 0.960 . S
C32 H38 0.959 . S
H33 C29 0.960 . S
H34 C29 0.961 . S
H35 C29 0.960 . S
H36 C32 0.960 . S
H37 C32 0.960 . S
H38 C32 0.959 . S
C39 N40 1.317 . S
C39 N41 1.348 . S
C39 C42 1.485 . S
N40 C39 1.317 . S
N40 N44 1.370 . S
N41 C39 1.348 . S
N41 C43 1.346 . S
C42 C39 1.485 . S
C42 H46 0.960 . S
C42 H47 0.961 . S
C42 H48 0.960 . S
C43 N41 1.346 . S
C43 N44 1.307 . S
C43 C45 1.486 . S
N44 N40 1.370 . S
N44 C43 1.307 . S
C45 C43 1.486 . S
C45 H49 0.960 . S
C45 H50 0.960 . S
C45 H51 0.959 . S
H46 C42 0.960 . S
H47 C42 0.961 . S
H48 C42 0.960 . S
H49 C45 0.960 . S
H50 C45 0.960 . S
H51 C45 0.959 . S
O52 Zn53 1.953 1_565 S
O52 C68 1.225 . S
Zn53 O52 1.953 1_545 S
Zn53 O54 1.949 1_655 S
Zn53 O60 1.919 . S
Zn53 O65 1.924 . S
O54 Zn53 1.949 1_455 S
O54 Zn55 1.923 . S
O54 Zn56 1.950 1_545 S
O54 Zn57 1.945 . S
Zn55 O54 1.923 . S
Zn55 O58 1.933 . S
Zn55 O61 1.957 . S
Zn55 O62 1.965 1_545 S
Zn56 O54 1.950 1_565 S
Zn56 O63 1.938 . S
Zn56 O64 1.906 . S
Zn56 O74 1.953 1_455 S
Zn57 O54 1.945 . S
Zn57 O59 1.932 . S
Zn57 O66 1.977 . S
Zn57 O67 1.910 1_455 S
O58 Zn55 1.933 . S
O58 C69 1.226 . S
O59 Zn57 1.932 . S
O59 C69 1.307 . S
O60 Zn53 1.919 . S
O60 C71 1.253 . S
O61 Zn55 1.957 . S
O61 C71 1.260 1_455 S
O62 Zn55 1.965 1_565 S
O62 C70 1.303 . S
O63 Zn56 1.938 . S
O63 C70 1.247 . S
O64 Zn56 1.906 . S
O64 C72 1.304 . S
O65 Zn53 1.924 . S
O65 C73 1.311 . S
O66 Zn57 1.977 . S
O66 C72 1.272 1_545 S
O67 Zn57 1.910 1_655 S
O67 C73 1.231 . S
C68 O52 1.225 . S
C68 O74 1.298 . S
C69 O58 1.226 . S
C69 O59 1.307 . S
C70 O62 1.303 . S
C70 O63 1.247 . S
C71 O60 1.253 . S
C71 O61 1.260 1_655 S
C72 O64 1.304 . S
C72 O66 1.272 1_565 S
C73 O65 1.311 . S
C73 O67 1.231 . S
O74 Zn56 1.953 1_655 S
O74 C68 1.298 . S
O75 Zn76 1.953 . S
O75 C91 1.227 . S
Zn76 O75 1.953 . S
Zn76 O77 1.949 1_556 S
Zn76 O83 1.919 . S
Zn76 O88 1.924 1_556 S
O77 Zn76 1.949 1_554 S
O77 Zn78 1.923 1_554 S
O77 Zn79 1.950 . S
O77 Zn80 1.945 . S
Zn78 O77 1.923 1_556 S
Zn78 O81 1.933 . S
Zn78 O84 1.941 . S
Zn78 O85 1.965 . S
Zn79 O77 1.950 . S
Zn79 O86 1.938 1_554 S
Zn79 O87 1.906 . S
Zn79 O97 1.953 . S
Zn80 O77 1.945 . S
Zn80 O82 1.932 . S
Zn80 O89 1.977 . S
Zn80 O90 1.910 . S
O81 Zn78 1.933 . S
O81 C92 1.226 1_556 S
O82 Zn80 1.932 . S
O82 C92 1.307 . S
O83 Zn76 1.919 . S
O83 C94 1.253 . S
O84 Zn78 1.941 . S
O84 C94 1.283 . S
O85 Zn78 1.965 . S
O85 C93 1.303 . S
O86 Zn79 1.938 1_556 S
O86 C93 1.247 . S
O87 Zn79 1.906 . S
O87 C95 1.304 . S
O88 Zn76 1.924 1_554 S
O88 C96 1.311 . S
O89 Zn80 1.977 . S
O89 C95 1.272 . S
O90 Zn80 1.910 . S
O90 C96 1.231 . S
C91 O75 1.227 . S
C91 O97 1.296 1_556 S
C92 O81 1.226 1_554 S
C92 O82 1.307 . S
C93 O85 1.303 . S
C93 O86 1.247 . S
C94 O83 1.253 . S
C94 O84 1.283 . S
C95 O87 1.304 . S
C95 O89 1.272 . S
C96 O88 1.311 . S
C96 O90 1.231 . S
O97 Zn79 1.953 . S
O97 C91 1.296 1_554 S
H98 C104 0.930 . S
H99 C107 0.930 . S
H100 C108 0.930 . S
H101 C109 0.930 . S
H102 C112 0.930 . S
H103 C113 0.930 . S
C104 H98 0.930 . S
C104 C105 1.355 . S
C104 C106 1.415 . S
C105 C104 1.355 . S
C105 C107 1.419 . S
C106 C104 1.415 . S
C106 C111 1.425 . S
C106 C113 1.409 . S
C107 H99 0.930 . S
C107 C105 1.419 . S
C107 C108 1.362 . S
C108 H100 0.930 . S
C108 C107 1.362 . S
C108 C111 1.409 . S
C109 H101 0.930 . S
C109 C110 1.355 . S
C109 C111 1.415 . S
C110 C109 1.355 . S
C110 C112 1.419 . S
C111 C106 1.425 . S
C111 C108 1.409 . S
C111 C109 1.415 . S
C112 H102 0.930 . S
C112 C110 1.419 . S
C112 C113 1.362 . S
C113 H103 0.930 . S
C113 C106 1.409 . S
C113 C112 1.362 . S
H114 C120 0.930 . S
H115 C123 0.930 . S
H116 C124 0.930 . S
H117 C125 0.930 . S
H118 C128 0.930 . S
H119 C129 0.930 . S
C120 H114 0.930 . S
C120 C121 1.355 1_554 S
C120 C122 1.415 . S
C121 C120 1.355 1_556 S
C121 C123 1.419 . S
C122 C120 1.415 . S
C122 C127 1.425 1_554 S
C122 C129 1.409 . S
C123 H115 0.930 . S
C123 C121 1.419 . S
C123 C124 1.362 . S
C124 H116 0.930 . S
C124 C123 1.362 . S
C124 C127 1.409 . S
C125 H117 0.930 . S
C125 C126 1.355 1_556 S
C125 C127 1.415 . S
C126 C125 1.355 1_554 S
C126 C128 1.419 . S
C127 C122 1.425 1_556 S
C127 C124 1.409 . S
C127 C125 1.415 . S
C128 H118 0.930 . S
C128 C126 1.419 . S
C128 C129 1.362 . S
C129 H119 0.930 . S
C129 C122 1.409 . S
C129 C128 1.362 . S
H130 C136 0.930 . S
H131 C139 0.930 . S
H132 C140 0.930 . S
H133 C141 0.930 . S
H134 C144 0.930 . S
H135 C145 0.930 . S
C136 H130 0.930 . S
C136 C137 1.355 . S
C136 C138 1.415 . S
C137 C136 1.355 . S
C137 C139 1.419 . S
C138 C136 1.415 . S
C138 C143 1.425 . S
C138 C145 1.409 . S
C139 H131 0.930 . S
C139 C137 1.419 . S
C139 C140 1.362 . S
C140 H132 0.930 . S
C140 C139 1.362 . S
C140 C143 1.409 . S
C141 H133 0.930 . S
C141 C142 1.355 . S
C141 C143 1.415 . S
C142 C141 1.355 . S
C142 C144 1.419 . S
C143 C138 1.425 . S
C143 C140 1.409 . S
C143 C141 1.415 . S
C144 H134 0.930 . S
C144 C142 1.419 . S
C144 C145 1.362 . S
C145 H135 0.930 . S
C145 C138 1.409 . S
C145 C144 1.362 . S
H146 C152 0.930 . S
H147 C155 0.930 . S
H148 C156 0.930 . S
H149 C157 0.930 . S
H150 C160 0.930 . S
H151 C161 0.930 . S
C152 H146 0.930 . S
C152 C153 1.355 1_556 S
C152 C154 1.415 . S
C153 C152 1.355 1_554 S
C153 C155 1.419 . S
C154 C152 1.415 . S
C154 C159 1.425 1_556 S
C154 C161 1.409 . S
C155 H147 0.930 . S
C155 C153 1.419 . S
C155 C156 1.362 . S
C156 H148 0.930 . S
C156 C155 1.362 . S
C156 C159 1.409 . S
C157 H149 0.930 . S
C157 C158 1.355 1_554 S
C157 C159 1.415 . S
C158 C157 1.355 1_556 S
C158 C160 1.419 . S
C159 C154 1.425 1_554 S
C159 C156 1.409 . S
C159 C157 1.415 . S
C160 H150 0.930 . S
C160 C158 1.419 . S
C160 C161 1.362 . S
C161 H151 0.930 . S
C161 C154 1.409 . S
C161 C160 1.362 . S
H162 C168 0.930 . S
H163 C171 0.930 . S
H164 C172 0.930 . S
H165 C173 0.930 . S
H166 C176 0.930 1_545 S
H167 C177 0.930 . S
C168 H162 0.930 . S
C168 C169 1.355 . S
C168 C170 1.415 . S
C169 C168 1.355 . S
C169 C171 1.419 . S
C170 C168 1.415 . S
C170 C175 1.425 . S
C170 C177 1.409 . S
C171 H163 0.930 . S
C171 C169 1.419 . S
C171 C172 1.362 . S
C172 H164 0.930 . S
C172 C171 1.362 . S
C172 C175 1.409 . S
C173 H165 0.930 . S
C173 C174 1.355 . S
C173 C175 1.415 . S
C174 C173 1.355 . S
C174 C176 1.419 . S
C175 C170 1.425 . S
C175 C172 1.409 . S
C175 C173 1.415 . S
C176 H166 0.930 1_565 S
C176 C174 1.419 . S
C176 C177 1.362 . S
C177 H167 0.930 . S
C177 C170 1.409 . S
C177 C176 1.362 . S
H178 C184 0.930 . S
H179 C187 0.930 . S
H180 C188 0.930 . S
H181 C189 0.930 . S
H182 C192 0.930 . S
H183 C193 0.930 . S
C184 H178 0.930 . S
C184 C185 1.355 . S
C184 C186 1.415 . S
C185 C184 1.355 . S
C185 C187 1.419 . S
C186 C184 1.415 . S
C186 C191 1.425 . S
C186 C193 1.409 . S
C187 H179 0.930 . S
C187 C185 1.419 . S
C187 C188 1.362 . S
C188 H180 0.930 . S
C188 C187 1.362 . S
C188 C191 1.409 . S
C189 H181 0.930 . S
C189 C190 1.355 . S
C189 C191 1.415 . S
C190 C189 1.355 . S
C190 C192 1.419 . S
C191 C186 1.425 . S
C191 C188 1.409 . S
C191 C189 1.415 . S
C192 H182 0.930 . S
C192 C190 1.419 . S
C192 C193 1.362 . S
C193 H183 0.930 . S
C193 C186 1.409 . S
C193 C192 1.362 . S
H194 C200 0.930 . S
H195 C203 0.930 . S
H196 C204 0.930 . S
H197 C205 0.930 . S
H198 C208 0.930 . S
H199 C209 0.930 . S
C200 H194 0.930 . S
C200 C201 1.355 . S
C200 C202 1.415 . S
C201 C200 1.355 . S
C201 C203 1.419 . S
C202 C200 1.415 . S
C202 C207 1.425 . S
C202 C209 1.409 . S
C203 H195 0.930 . S
C203 C201 1.419 . S
C203 C204 1.362 . S
C204 H196 0.930 . S
C204 C203 1.362 . S
C204 C207 1.409 . S
C205 H197 0.930 . S
C205 C206 1.355 . S
C205 C207 1.415 . S
C206 C205 1.355 . S
C206 C208 1.419 . S
C207 C202 1.425 . S
C207 C204 1.409 . S
C207 C205 1.415 . S
C208 H198 0.930 . S
C208 C206 1.419 . S
C208 C209 1.362 . S
C209 H199 0.930 . S
C209 C202 1.409 . S
C209 C208 1.362 . S
H210 C216 0.930 . S
H211 C219 0.930 . S
H212 C220 0.930 . S
H213 C221 0.930 . S
H214 C224 0.930 . S
H215 C225 0.930 . S
C216 H210 0.930 . S
C216 C217 1.355 . S
C216 C218 1.415 . S
C217 C216 1.355 . S
C217 C219 1.419 . S
C218 C216 1.415 . S
C218 C223 1.425 . S
C218 C225 1.409 . S
C219 H211 0.930 . S
C219 C217 1.419 . S
C219 C220 1.362 . S
C220 H212 0.930 . S
C220 C219 1.362 . S
C220 C223 1.409 . S
C221 H213 0.930 . S
C221 C222 1.355 . S
C221 C223 1.415 . S
C222 C221 1.355 . S
C222 C224 1.419 . S
C223 C218 1.425 . S
C223 C220 1.409 . S
C223 C221 1.415 . S
C224 H214 0.930 . S
C224 C222 1.419 . S
C224 C225 1.362 . S
C225 H215 0.930 . S
C225 C218 1.409 . S
C225 C224 1.362 . S
H226 C232 0.930 . S
H227 C235 0.930 . S
H228 C236 0.930 . S
H229 C237 0.930 . S
H230 C240 0.930 . S
H231 C241 0.930 . S
C232 H226 0.930 . S
C232 C233 1.355 . S
C232 C234 1.415 . S
C233 C232 1.355 . S
C233 C235 1.419 . S
C234 C232 1.415 . S
C234 C239 1.425 . S
C234 C241 1.409 . S
C235 H227 0.930 . S
C235 C233 1.419 . S
C235 C236 1.362 . S
C236 H228 0.930 . S
C236 C235 1.362 . S
C236 C239 1.409 . S
C237 H229 0.930 . S
C237 C238 1.355 . S
C237 C239 1.415 . S
C238 C237 1.355 . S
C238 C240 1.419 . S
C239 C234 1.425 . S
C239 C236 1.409 . S
C239 C237 1.415 . S
C240 H230 0.930 . S
C240 C238 1.419 . S
C240 C241 1.362 . S
C241 H231 0.930 . S
C241 C234 1.409 . S
C241 C240 1.362 . S
H242 C248 0.930 . S
H243 C251 0.930 . S
H244 C252 0.930 . S
H245 C253 0.930 . S
H246 C256 0.930 . S
H247 C257 0.930 . S
C248 H242 0.930 . S
C248 C249 1.355 . S
C248 C250 1.415 . S
C249 C248 1.355 . S
C249 C251 1.419 . S
C250 C248 1.415 . S
C250 C255 1.425 . S
C250 C257 1.409 . S
C251 H243 0.930 . S
C251 C249 1.419 . S
C251 C252 1.362 . S
C252 H244 0.930 . S
C252 C251 1.362 . S
C252 C255 1.409 . S
C253 H245 0.930 . S
C253 C254 1.355 . S
C253 C255 1.415 . S
C254 C253 1.355 . S
C254 C256 1.419 . S
C255 C250 1.425 . S
C255 C252 1.409 . S
C255 C253 1.415 . S
C256 H246 0.930 . S
C256 C254 1.419 . S
C256 C257 1.362 . S
C257 H247 0.930 . S
C257 C250 1.409 . S
C257 C256 1.362 . S
H258 C264 0.930 . S
H259 C267 0.930 . S
H260 C268 0.930 . S
H261 C269 0.930 . S
H262 C272 0.930 . S
H263 C273 0.930 . S
C264 H258 0.930 . S
C264 C265 1.355 . S
C264 C266 1.415 . S
C265 C264 1.355 . S
C265 C267 1.419 . S
C266 C264 1.415 . S
C266 C271 1.425 . S
C266 C273 1.409 . S
C267 H259 0.930 . S
C267 C265 1.419 . S
C267 C268 1.362 . S
C268 H260 0.930 . S
C268 C267 1.362 . S
C268 C271 1.409 . S
C269 H261 0.930 . S
C269 C270 1.355 . S
C269 C271 1.415 . S
C270 C269 1.355 . S
C270 C272 1.419 . S
C271 C266 1.425 . S
C271 C268 1.409 . S
C271 C269 1.415 . S
C272 H262 0.930 . S
C272 C270 1.419 . S
C272 C273 1.362 . S
C273 H263 0.930 . S
C273 C266 1.409 . S
C273 C272 1.362 . S
H274 C280 0.930 . S
H275 C283 0.930 . S
H276 C284 0.930 . S
H277 C285 0.930 . S
H278 C288 0.930 . S
H279 C289 0.930 . S
C280 H274 0.930 . S
C280 C281 1.355 . S
C280 C282 1.415 . S
C281 C280 1.355 . S
C281 C283 1.419 . S
C282 C280 1.415 . S
C282 C287 1.425 . S
C282 C289 1.409 . S
C283 H275 0.930 . S
C283 C281 1.419 . S
C283 C284 1.362 . S
C284 H276 0.930 . S
C284 C283 1.362 . S
C284 C287 1.409 . S
C285 H277 0.930 . S
C285 C286 1.355 . S
C285 C287 1.415 . S
C286 C285 1.355 . S
C286 C288 1.419 . S
C287 C282 1.425 . S
C287 C284 1.409 . S
C287 C285 1.415 . S
C288 H278 0.930 . S
C288 C286 1.419 . S
C288 C289 1.362 . S
C289 H279 0.930 . S
C289 C282 1.409 . S
C289 C288 1.362 . S
C110 C69 1.494 . S
C105 N41 1.487 . S
C121 N2 1.485 1_556 S
C126 C92 1.487 . S
C137 N15 1.514 . S
C142 C68 1.517 . S
C153 N28 1.519 . S
C158 C91 1.516 . S
C174 C72 1.451 . S
C169 N5 1.481 . S
C190 C94 1.484 . S
C185 N14 1.524 . S
C201 N27 1.497 . S
C206 C73 1.410 . S
C217 N44 1.533 . S
C222 C93 1.492 . S
C238 C96 1.455 . S
C233 N18 1.485 . S
C254 C71 1.503 . S
C249 N31 1.542 . S
C270 C95 1.432 . S
C265 N40 1.496 . S
C281 N1 1.533 . S
C286 C70 1.428 . S
