# Generated by pormake.
# Topology dag, (6,3)-cn, num edge types: 1
# Building blocks:
#     Node 0, Type 0, BuildingBlock: MIDCAF_clean_sbu_0, # of connection points: 6
#     Node 1, Type 0, BuildingBlock: MIDCAF_clean_sbu_0, # of connection points: 6
#     Node 2, Type 0, BuildingBlock: MIDCAF_clean_sbu_0, # of connection points: 6
#     Node 3, Type 0, BuildingBlock: MIDCAF_clean_sbu_0, # of connection points: 6
#     Node 4, Type 1, BuildingBlock: QEWDON_clean_linker_0, # of connection points: 3
#     Node 5, Type 1, BuildingBlock: QEWDON_clean_linker_0, # of connection points: 3
#     Node 6, Type 1, BuildingBlock: QEWDON_clean_linker_0, # of connection points: 3
#     Node 7, Type 1, BuildingBlock: QEWDON_clean_linker_0, # of connection points: 3
#     Node 8, Type 1, BuildingBlock: QEWDON_clean_linker_0, # of connection points: 3
#     Node 9, Type 1, BuildingBlock: QEWDON_clean_linker_0, # of connection points: 3
#     Node 10, Type 1, BuildingBlock: QEWDON_clean_linker_0, # of connection points: 3
#     Node 11, Type 1, BuildingBlock: QEWDON_clean_linker_0, # of connection points: 3
#     Edge 12, Type (0, 1), BuildingBlock: XUDNAN_clean_linker_2, # of connection points: 2
#     Edge 13, Type (0, 1), BuildingBlock: XUDNAN_clean_linker_2, # of connection points: 2
#     Edge 14, Type (0, 1), BuildingBlock: XUDNAN_clean_linker_2, # of connection points: 2
#     Edge 15, Type (0, 1), BuildingBlock: XUDNAN_clean_linker_2, # of connection points: 2
#     Edge 16, Type (0, 1), BuildingBlock: XUDNAN_clean_linker_2, # of connection points: 2
#     Edge 17, Type (0, 1), BuildingBlock: XUDNAN_clean_linker_2, # of connection points: 2
#     Edge 18, Type (0, 1), BuildingBlock: XUDNAN_clean_linker_2, # of connection points: 2
#     Edge 19, Type (0, 1), BuildingBlock: XUDNAN_clean_linker_2, # of connection points: 2
#     Edge 20, Type (0, 1), BuildingBlock: XUDNAN_clean_linker_2, # of connection points: 2
#     Edge 21, Type (0, 1), BuildingBlock: XUDNAN_clean_linker_2, # of connection points: 2
#     Edge 22, Type (0, 1), BuildingBlock: XUDNAN_clean_linker_2, # of connection points: 2
#     Edge 23, Type (0, 1), BuildingBlock: XUDNAN_clean_linker_2, # of connection points: 2
#     Edge 24, Type (0, 1), BuildingBlock: XUDNAN_clean_linker_2, # of connection points: 2
#     Edge 25, Type (0, 1), BuildingBlock: XUDNAN_clean_linker_2, # of connection points: 2
#     Edge 26, Type (0, 1), BuildingBlock: XUDNAN_clean_linker_2, # of connection points: 2
#     Edge 27, Type (0, 1), BuildingBlock: XUDNAN_clean_linker_2, # of connection points: 2
#     Edge 28, Type (0, 1), BuildingBlock: XUDNAN_clean_linker_2, # of connection points: 2
#     Edge 29, Type (0, 1), BuildingBlock: XUDNAN_clean_linker_2, # of connection points: 2
#     Edge 30, Type (0, 1), BuildingBlock: XUDNAN_clean_linker_2, # of connection points: 2
#     Edge 31, Type (0, 1), BuildingBlock: XUDNAN_clean_linker_2, # of connection points: 2
#     Edge 32, Type (0, 1), BuildingBlock: XUDNAN_clean_linker_2, # of connection points: 2
#     Edge 33, Type (0, 1), BuildingBlock: XUDNAN_clean_linker_2, # of connection points: 2
#     Edge 34, Type (0, 1), BuildingBlock: XUDNAN_clean_linker_2, # of connection points: 2
#     Edge 35, Type (0, 1), BuildingBlock: XUDNAN_clean_linker_2, # of connection points: 2
# Relax obj value: 0.076
# Max RMSD: 0.116
# Mean RMSD: 0.082
data_MOF--net-dag--node1-MIDCAF_clean_sbu_0--node2-QEWDON_clean_linker_0--edge1-XUDNAN_clean_linker_2
_symmetry_space_group_name_H-M    P1
_symmetry_Int_Tables_number       1
_symmetry_cell_setting            triclinic
loop_
_symmetry_equiv_pos_as_xyz
'x, y, z'
_cell_length_a     42.358961
_cell_length_b     42.34304
_cell_length_c     33.820498
_cell_angle_alpha  89.773685
_cell_angle_beta   89.715079
_cell_angle_gamma 90.062276
loop_
_atom_site_label
_atom_site_type_symbol
_atom_site_fract_x
_atom_site_fract_y
_atom_site_fract_z
_atom_type_partial_charge
Zn0 Zn 0.13334 0.85937 0.06182 0.0
Zn1 Zn 0.13332 0.85831 0.91756 0.0
Zn2 Zn 0.13531 0.85922 0.99243 0.0
C3 C 0.1524 0.91903 0.93693 0.0
C4 C 0.07287 0.84369 0.94047 0.0
O5 O 0.16374 0.81788 0.01321 0.0
O6 O 0.13958 0.81395 0.0707 0.0
C7 C 0.17215 0.90832 0.04581 0.0
O8 O 0.15109 0.90696 0.972 0.0
O9 O 0.14529 0.90255 0.90729 0.0
O10 O 0.08931 0.84614 0.90944 0.0
O11 O 0.08555 0.84877 0.97453 0.0
O12 O 0.16893 0.88812 0.07305 0.0
O13 O 0.15808 0.90386 0.01253 0.0
O14 O 0.08452 0.85716 0.01433 0.0
O15 O 0.09117 0.87545 0.07471 0.0
C16 C 0.0729 0.86747 0.04728 0.0
O17 O 0.16983 0.82236 0.97158 0.0
O18 O 0.16551 0.82634 0.90657 0.0
C19 C 0.15812 0.80236 0.04541 0.0
C20 C 0.17855 0.81419 0.93637 0.0
Zn21 Zn 0.63366 0.62793 0.41917 0.0
Zn22 Zn 0.61185 0.603 0.54645 0.0
Zn23 Zn 0.63306 0.61823 0.48934 0.0
C24 C 0.63517 0.55091 0.52689 0.0
C25 C 0.59166 0.66282 0.53534 0.0
O26 O 0.65369 0.66628 0.48883 0.0
O27 O 0.64849 0.67247 0.4242 0.0
C28 C 0.67896 0.57978 0.43679 0.0
O29 O 0.65266 0.57289 0.51193 0.0
O30 O 0.6066 0.55699 0.53496 0.0
O31 O 0.57854 0.63666 0.54341 0.0
O32 O 0.61971 0.66282 0.52029 0.0
O33 O 0.6671 0.5954 0.40856 0.0
O34 O 0.66885 0.58412 0.47218 0.0
O35 O 0.58491 0.61183 0.47237 0.0
O36 O 0.58775 0.6197 0.40837 0.0
C37 C 0.5714 0.61378 0.43889 0.0
O38 O 0.65457 0.65204 0.52957 0.0
O39 O 0.65253 0.61571 0.57605 0.0
C40 C 0.657 0.68319 0.45731 0.0
C41 C 0.6649 0.64084 0.56262 0.0
Zn42 Zn 0.83843 0.15745 0.90182 0.0
Zn43 Zn 0.87536 0.0818 0.05325 0.0
Zn44 Zn 0.85645 0.11582 0.00349 0.0
C45 C 0.92822 0.10666 0.0363 0.0
C46 C 0.81717 0.06359 0.03794 0.0
O47 O 0.8119 0.13998 0.01348 0.0
O48 O 0.83556 0.15606 0.9607 0.0
C49 C 0.8952 0.16706 0.96911 0.0
O50 O 0.90595 0.12513 0.02453 0.0
O51 O 0.92192 0.07803 0.04357 0.0
O52 O 0.84341 0.04961 0.03473 0.0
O53 O 0.81681 0.09376 0.03557 0.0
O54 O 0.8736 0.16336 0.94365 0.0
O55 O 0.89394 0.15037 1.00072 0.0
O56 O 0.8474 0.09112 0.94879 0.0
O57 O 0.83466 0.11069 0.88889 0.0
C58 C 0.84023 0.08747 0.91219 0.0
O59 O 0.82562 0.12949 0.05133 0.0
O60 O 0.86137 0.11567 0.09524 0.0
C61 C 0.81069 0.15547 0.98117 0.0
C62 C 0.83763 0.1324 0.08611 0.0
Zn63 Zn 0.3593 0.35367 0.57663 0.0
Zn64 Zn 0.37343 0.34644 0.43047 0.0
Zn65 Zn 0.36534 0.34785 0.50517 0.0
C66 C 0.43243 0.33727 0.46025 0.0
C67 C 0.34428 0.40321 0.44494 0.0
O68 O 0.32682 0.31489 0.52348 0.0
O69 O 0.31697 0.33542 0.58213 0.0
C70 C 0.41566 0.32337 0.56886 0.0
O71 O 0.41572 0.33583 0.49222 0.0
O72 O 0.41975 0.34386 0.42763 0.0
O73 O 0.35283 0.3862 0.41634 0.0
O74 O 0.34938 0.39403 0.48081 0.0
O75 O 0.39533 0.32848 0.59542 0.0
O76 O 0.40991 0.33122 0.5327 0.0
O77 O 0.35718 0.39976 0.52027 0.0
O78 O 0.36295 0.39895 0.58493 0.0
C79 C 0.35951 0.41461 0.55353 0.0
O80 O 0.33281 0.31083 0.4823 0.0
O81 O 0.34801 0.30858 0.41966 0.0
C82 C 0.3097 0.31647 0.55501 0.0
C83 C 0.33084 0.2985 0.44756 0.0
H84 H 0.20816 0.10671 0.21061 0.0
C85 C 0.18941 0.11708 0.19314 0.0
C86 C 0.1874 0.11018 0.15251 0.0
C87 C 0.16529 0.13422 0.21208 0.0
H88 H 0.15929 0.11559 0.09996 0.0
C89 C 0.16185 0.12202 0.13079 0.0
C90 C 0.13716 0.13821 0.14942 0.0
C91 C 0.13935 0.14494 0.1899 0.0
C92 C 0.16385 0.13541 0.25587 0.0
H93 H 0.11973 0.15629 0.20484 0.0
C94 C 0.18791 0.14964 0.27825 0.0
C95 C 0.18589 0.15022 0.31997 0.0
C96 C 0.13805 0.12141 0.27547 0.0
H97 H 0.11944 0.11004 0.25888 0.0
C98 C 0.13618 0.12156 0.3166 0.0
H99 H 0.20791 0.16035 0.26324 0.0
C100 C 0.15982 0.13589 0.33875 0.0
H101 H 0.15731 0.13634 0.37062 0.0
H102 H 0.11618 0.11071 0.33139 0.0
H103 H 0.40632 0.70059 0.71865 0.0
C104 C 0.39771 0.68236 0.69903 0.0
C105 C 0.41154 0.67848 0.66137 0.0
C106 C 0.3745 0.66119 0.71274 0.0
H107 H 0.41342 0.64872 0.60983 0.0
C108 C 0.40123 0.65334 0.63741 0.0
C109 C 0.37772 0.63215 0.65028 0.0
C110 C 0.36417 0.63673 0.68795 0.0
C111 C 0.36611 0.66012 0.75536 0.0
H112 H 0.34648 0.62041 0.69905 0.0
C113 C 0.34853 0.6842 0.774 0.0
C114 C 0.34207 0.68233 0.81498 0.0
C115 C 0.37678 0.63434 0.77787 0.0
H116 H 0.39036 0.61564 0.76414 0.0
C117 C 0.37055 0.63263 0.8183 0.0
H118 H 0.34006 0.70412 0.75689 0.0
C119 C 0.35343 0.65648 0.83681 0.0
H120 H 0.34863 0.65454 0.86823 0.0
H121 H 0.37902 0.61272 0.83537 0.0
H122 H 0.874 0.83008 0.20071 0.0
C123 C 0.8556 0.84693 0.1938 0.0
C124 C 0.86267 0.87287 0.16912 0.0
C125 C 0.82491 0.8426 0.20975 0.0
H126 H 0.84301 0.91409 0.14079 0.0
C127 C 0.8386 0.89459 0.16098 0.0
C128 C 0.8083 0.89118 0.1771 0.0
C129 C 0.80131 0.86514 0.20139 0.0
C130 C 0.8173 0.81329 0.23255 0.0
H131 H 0.77751 0.862 0.21265 0.0
C132 C 0.79869 0.81381 0.26744 0.0
C133 C 0.79226 0.78556 0.28854 0.0
C134 C 0.82872 0.78415 0.21875 0.0
H135 H 0.84243 0.78279 0.19168 0.0
C136 C 0.82213 0.75628 0.23912 0.0
H137 H 0.78986 0.8361 0.27853 0.0
C138 C 0.8041 0.75689 0.27362 0.0
H139 H 0.79887 0.73466 0.28819 0.0
H140 H 0.83083 0.734 0.2279 0.0
H141 H 0.70909 0.33523 0.66832 0.0
C142 C 0.68531 0.32588 0.66853 0.0
C143 C 0.66011 0.34441 0.65436 0.0
C144 C 0.68001 0.29487 0.68273 0.0
H145 H 0.60935 0.34536 0.64713 0.0
C146 C 0.62956 0.33147 0.65598 0.0
C147 C 0.62443 0.29997 0.66675 0.0
C148 C 0.64958 0.2817 0.68045 0.0
C149 C 0.70637 0.27592 0.69905 0.0
H150 H 0.64556 0.25727 0.6888 0.0
C151 C 0.70288 0.25987 0.73542 0.0
C152 C 0.72833 0.24306 0.75157 0.0
C153 C 0.73537 0.27433 0.67878 0.0
H154 H 0.73854 0.28619 0.6506 0.0
C155 C 0.76049 0.2572 0.6946 0.0
H156 H 0.68083 0.26128 0.75173 0.0
C157 C 0.7571 0.24179 0.73092 0.0
H158 H 0.77699 0.22905 0.74311 0.0
H159 H 0.78275 0.2561 0.67881 0.0
H160 H 0.71996 0.36752 0.29819 0.0
C161 C 0.69971 0.36155 0.31643 0.0
C162 C 0.69384 0.37784 0.35196 0.0
C163 C 0.67837 0.33871 0.30291 0.0
H164 H 0.66092 0.38216 0.40118 0.0
C165 C 0.6669 0.36943 0.37451 0.0
C166 C 0.64637 0.34546 0.36215 0.0
C167 C 0.65216 0.33038 0.3261 0.0
C168 C 0.68145 0.32566 0.2628 0.0
H169 H 0.63561 0.31292 0.31526 0.0
C170 C 0.70687 0.30602 0.2528 0.0
C171 C 0.70839 0.29185 0.21523 0.0
C172 C 0.658 0.33209 0.23477 0.0
H173 H 0.63827 0.34731 0.24207 0.0
C174 C 0.65976 0.31885 0.19719 0.0
H175 H 0.72497 0.30136 0.27458 0.0
C176 C 0.68457 0.29865 0.18751 0.0
H177 H 0.68452 0.28772 0.15863 0.0
H178 H 0.64152 0.32378 0.17574 0.0
H179 H 0.19218 0.15808 0.84621 0.0
C180 C 0.16849 0.16487 0.85482 0.0
C181 C 0.1482 0.14299 0.87374 0.0
C182 C 0.15859 0.1961 0.84812 0.0
H183 H 0.1011 0.13631 0.89762 0.0
C184 C 0.11766 0.15285 0.88444 0.0
C185 C 0.10806 0.18411 0.87847 0.0
C186 C 0.12859 0.20574 0.86072 0.0
C187 C 0.17946 0.21934 0.82875 0.0
H188 H 0.12101 0.22993 0.85601 0.0
C189 C 0.18602 0.21738 0.78803 0.0
C190 C 0.20252 0.24193 0.76885 0.0
C191 C 0.19026 0.24536 0.85038 0.0
H192 H 0.18509 0.2473 0.88169 0.0
C193 C 0.20741 0.26927 0.83167 0.0
H194 H 0.17712 0.19761 0.7711 0.0
C195 C 0.21335 0.26772 0.79113 0.0
H196 H 0.22654 0.28669 0.77714 0.0
H197 H 0.21575 0.28927 0.84851 0.0
H198 H 0.34928 0.68779 0.34257 0.0
C199 C 0.33653 0.66579 0.34667 0.0
C200 C 0.35005 0.64139 0.36897 0.0
C201 C 0.30625 0.66186 0.33018 0.0
H202 H 0.34405 0.59437 0.39176 0.0
C203 C 0.33347 0.61331 0.37459 0.0
C204 C 0.30363 0.60899 0.35815 0.0
C205 C 0.28993 0.63314 0.33566 0.0
C206 C 0.29083 0.68849 0.30967 0.0
H207 H 0.26657 0.6299 0.32336 0.0
C208 C 0.27977 0.6854 0.27068 0.0
C209 C 0.26431 0.71079 0.25226 0.0
C210 C 0.28645 0.71712 0.32979 0.0
H211 H 0.29468 0.71988 0.35986 0.0
C212 C 0.2708 0.74218 0.31159 0.0
H213 H 0.28328 0.66349 0.25477 0.0
C214 C 0.25968 0.73904 0.27307 0.0
H215 H 0.24777 0.75882 0.25924 0.0
H216 H 0.26728 0.76409 0.32738 0.0
H217 H 0.86375 0.79047 0.79963 0.0
C218 C 0.85062 0.80962 0.81314 0.0
C219 C 0.85721 0.81846 0.85222 0.0
C220 C 0.83024 0.82793 0.78995 0.0
H221 H 0.84688 0.85105 0.89883 0.0
C222 C 0.84134 0.84426 0.8688 0.0
C223 C 0.82283 0.86425 0.8451 0.0
C224 C 0.81678 0.85533 0.80583 0.0
C225 C 0.8276 0.82185 0.7472 0.0
H226 H 0.80363 0.87081 0.78637 0.0
C227 C 0.81112 0.79541 0.73333 0.0
C228 C 0.80816 0.79007 0.69239 0.0
C229 C 0.84141 0.84296 0.72011 0.0
H230 H 0.85423 0.86349 0.73039 0.0
C231 C 0.83902 0.83758 0.67959 0.0
H232 H 0.79989 0.77966 0.75447 0.0
C233 C 0.82255 0.81133 0.66573 0.0
H234 H 0.82129 0.8076 0.63412 0.0
H235 H 0.84995 0.85382 0.65884 0.0
H236 H 0.18197 0.93252 0.1186 0.0
H237 H 0.19997 0.95142 0.99467 0.0
H238 H 0.2191 0.00499 0.01165 0.0
H239 H 0.14994 0.00169 0.14163 0.0
H240 H 0.16655 0.00474 0.19045 0.0
H241 H 0.16118 0.96667 0.16863 0.0
H242 H 0.22069 0.95467 0.1788 0.0
H243 H 0.22624 0.99319 0.20027 0.0
H244 H 0.24999 0.98119 0.1586 0.0
H245 H 0.22586 0.05921 0.04153 0.0
H246 H 0.21607 0.10805 0.07936 0.0
H247 H 0.19618 0.05223 0.18405 0.0
C248 C 0.19088 0.94749 0.09502 0.0
C249 C 0.18866 0.93821 0.05509 0.0
C250 C 0.20026 0.95863 0.02523 0.0
C251 C 0.21179 0.98881 0.0348 0.0
C252 C 0.21228 0.99778 0.07453 0.0
C253 C 0.20247 0.9774 0.10417 0.0
C254 C 0.20115 0.99358 0.1439 0.0
C255 C 0.16774 0.99157 0.16215 0.0
C256 C 0.22601 0.97984 0.17205 0.0
C257 C 0.20956 0.02693 0.13174 0.0
C258 C 0.21686 0.02881 0.09183 0.0
C259 C 0.22097 0.05788 0.07292 0.0
C260 C 0.21553 0.08554 0.09468 0.0
C261 C 0.20569 0.08389 0.13476 0.0
C262 C 0.2047 0.05428 0.15391 0.0
H263 H 0.54005 0.69086 0.50607 0.0
H264 H 0.60579 0.69307 0.60298 0.0
H265 H 0.56448 0.71487 0.64641 0.0
H266 H 0.48628 0.76331 0.54684 0.0
H267 H 0.45217 0.74321 0.52755 0.0
H268 H 0.48911 0.74218 0.50079 0.0
H269 H 0.48616 0.68161 0.50052 0.0
H270 H 0.45021 0.68175 0.52825 0.0
H271 H 0.4838 0.66029 0.54687 0.0
H272 H 0.51414 0.71388 0.68306 0.0
H273 H 0.4619 0.69694 0.70696 0.0
H274 H 0.42657 0.6998 0.58701 0.0
C275 C 0.54627 0.69876 0.53544 0.0
C276 C 0.5761 0.69109 0.55105 0.0
C277 C 0.58335 0.69981 0.59021 0.0
C278 C 0.55979 0.71193 0.61522 0.0
C279 C 0.52941 0.7161 0.60017 0.0
C280 C 0.52291 0.71118 0.56052 0.0
C281 C 0.48757 0.71172 0.55316 0.0
C282 C 0.47824 0.74191 0.53077 0.0
C283 C 0.47632 0.68205 0.53099 0.0
C284 C 0.47527 0.71255 0.59527 0.0
C285 C 0.49963 0.71644 0.62193 0.0
C286 C 0.49472 0.71225 0.66249 0.0
C287 C 0.46477 0.70261 0.67591 0.0
C288 C 0.43997 0.69701 0.64885 0.0
C289 C 0.44504 0.70391 0.60838 0.0
H290 H 0.80671 0.06042 0.11549 0.0
H291 H 0.77559 0.02324 0.00369 0.0
H292 H 0.75083 0.97799 0.03807 0.0
H293 H 0.83753 0.99648 0.14485 0.0
H294 H 0.82911 -0.00128 0.19709 0.0
H295 H 0.83045 0.03408 0.1682 0.0
H296 H 0.77373 0.04822 0.19083 0.0
H297 H 0.77227 0.01257 0.2202 0.0
H298 H 0.74211 0.02026 0.18402 0.0
H299 H 0.74572 0.93046 0.07902 0.0
H300 H 0.76495 0.88566 0.11891 0.0
H301 H 0.80278 0.95047 0.20472 0.0
C302 C 0.79248 0.04387 0.09891 0.0
C303 C 0.79171 0.04578 0.05735 0.0
C304 C 0.77511 0.02277 0.03573 0.0
C305 C 0.76113 0.9969 0.05516 0.0
C306 C 0.76444 0.99417 0.09617 0.0
C307 C 0.77959 0.01733 0.11791 0.0
C308 C 0.78763 0.0055 0.15904 0.0
C309 C 0.82326 0.00886 0.1677 0.0
C310 C 0.76774 0.02266 0.19038 0.0
C311 C 0.77772 0.97121 0.15572 0.0
C312 C 0.76284 0.96552 0.12005 0.0
C313 C 0.75626 0.9348 0.10757 0.0
C314 C 0.76702 0.90936 0.13055 0.0
C315 C 0.78454 0.91483 0.16526 0.0
C316 C 0.78822 0.94596 0.17912 0.0
H317 H 0.44686 0.335 0.6368 0.0
H318 H 0.45263 0.2811 0.52866 0.0
H319 H 0.50495 0.26032 0.54907 0.0
H320 H 0.52462 0.35901 0.63906 0.0
H321 H 0.52818 0.35672 0.69209 0.0
H322 H 0.49026 0.36351 0.67023 0.0
H323 H 0.4682 0.31459 0.70792 0.0
H324 H 0.50649 0.30733 0.72913 0.0
H325 H 0.48692 0.27672 0.70162 0.0
H326 H 0.55857 0.24993 0.57914 0.0
H327 H 0.61068 0.25644 0.61084 0.0
H328 H 0.56853 0.31632 0.69988 0.0
C329 C 0.45893 0.31838 0.61772 0.0
C330 C 0.44627 0.30999 0.58075 0.0
C331 C 0.46272 0.28853 0.55637 0.0
C332 C 0.49198 0.27615 0.56822 0.0
C333 C 0.50402 0.28516 0.60488 0.0
C334 C 0.48795 0.30591 0.62915 0.0
C335 C 0.50712 0.31466 0.66505 0.0
C336 C 0.5129 0.35058 0.66665 0.0
C337 C 0.49123 0.3026 0.70318 0.0
C338 C 0.53716 0.2967 0.6565 0.0
C339 C 0.53469 0.27907 0.62224 0.0
C340 C 0.56055 0.26304 0.60642 0.0
C341 C 0.58998 0.26656 0.62481 0.0
C342 C 0.59321 0.28631 0.65818 0.0
C343 C 0.56626 0.3003 0.67517 0.0
H344 H 0.68947 0.52496 0.47748 0.0
H345 H 0.71696 0.57608 0.37186 0.0
H346 H 0.74077 0.52782 0.34481 0.0
H347 H 0.75593 0.46151 0.47772 0.0
H348 H 0.72706 0.43244 0.49273 0.0
H349 H 0.7235 0.47267 0.50939 0.0
H350 H 0.66705 0.47314 0.48169 0.0
H351 H 0.67049 0.43432 0.46138 0.0
H352 H 0.66057 0.46695 0.42978 0.0
H353 H 0.74186 0.47374 0.31993 0.0
H354 H 0.72456 0.42051 0.30268 0.0
H355 H 0.70506 0.40098 0.42653 0.0
C356 C 0.70224 0.52641 0.4499 0.0
C357 C 0.70136 0.55418 0.42692 0.0
C358 C 0.7173 0.55495 0.39003 0.0
C359 C 0.73111 0.52763 0.37449 0.0
C360 C 0.72923 0.49976 0.39642 0.0
C361 C 0.71591 0.49912 0.43392 0.0
C362 C 0.7104 0.46551 0.44763 0.0
C363 C 0.73045 0.45756 0.48402 0.0
C364 C 0.67503 0.45967 0.45561 0.0
C365 C 0.72127 0.44742 0.41161 0.0
C366 C 0.73198 0.46757 0.38223 0.0
C367 C 0.73503 0.45745 0.34319 0.0
C368 C 0.72515 0.4268 0.33362 0.0
C369 C 0.71285 0.40622 0.36315 0.0
C370 C 0.71366 0.4161 0.40298 0.0
H371 H 0.92593 0.15709 0.9014 0.0
H372 H 0.93087 0.20963 0.01071 0.0
H373 H 0.98491 0.22768 0.99278 0.0
H374 H -0.00091 0.12645 0.90832 0.0
H375 H 0.00796 0.12657 0.85613 0.0
H376 H 0.96767 0.12441 0.87264 0.0
H377 H 0.95387 0.17411 0.8313 0.0
H378 H 0.99418 0.17634 0.81417 0.0
H379 H 0.97624 0.20993 0.83789 0.0
H380 H 0.04024 0.23398 0.96668 0.0
H381 H 0.09342 0.22443 0.93812 0.0
H382 H 0.05228 0.1644 0.84875 0.0
C383 C 0.93798 0.17347 0.92073 0.0
C384 C 0.92458 0.18243 0.9571 0.0
C385 C 0.94112 0.20273 0.98267 0.0
C386 C 0.97155 0.21324 0.97251 0.0
C387 C 0.9847 0.20303 0.93682 0.0
C388 C 0.96837 0.18349 0.9114 0.0
C389 C 0.98912 0.17145 0.87833 0.0
C390 C 0.99107 0.13509 0.87894 0.0
C391 C 0.97767 0.18371 0.83804 0.0
C392 C 0.02009 0.18638 0.88972 0.0
C393 C 0.01695 0.20524 0.92286 0.0
C394 C 0.0429 0.21973 0.94038 0.0
C395 C 0.07288 0.21422 0.9241 0.0
C396 C 0.07645 0.19391 0.89134 0.0
C397 C 0.04979 0.18034 0.87355 0.0
H398 H 0.34699 0.43599 0.3761 0.0
H399 H 0.30442 0.4377 0.49296 0.0
H400 H 0.27748 0.48784 0.47589 0.0
H401 H 0.3643 0.51493 0.37 0.0
H402 H 0.35659 0.5181 0.31776 0.0
H403 H 0.36827 0.4809 0.33849 0.0
H404 H 0.31783 0.4553 0.30909 0.0
H405 H 0.30562 0.49295 0.28936 0.0
H406 H 0.27958 0.47107 0.32169 0.0
H407 H 0.26161 0.54091 0.44897 0.0
H408 H 0.264 0.594 0.41846 0.0
H409 H 0.31415 0.5557 0.31806 0.0
C410 C 0.33155 0.44657 0.39796 0.0
C411 C 0.32798 0.43317 0.43597 0.0
C412 C 0.30781 0.44787 0.46382 0.0
C413 C 0.29207 0.47605 0.45415 0.0
C414 C 0.29621 0.48867 0.41624 0.0
C415 C 0.31558 0.47433 0.38868 0.0
C416 C 0.31917 0.49409 0.35166 0.0
C417 C 0.35413 0.50252 0.34409 0.0
C418 C 0.30467 0.47735 0.31583 0.0
C419 C 0.29999 0.52268 0.36326 0.0
C420 C 0.28626 0.51887 0.40026 0.0
C421 C 0.27134 0.54384 0.41954 0.0
C422 C 0.27238 0.57385 0.40181 0.0
C423 C 0.28835 0.57841 0.36545 0.0
C424 C 0.30053 0.55226 0.34493 0.0
H425 H 0.03723 0.85154 0.87509 0.0
H426 H 0.03298 0.81553 0.99506 0.0
H427 H 0.97703 0.79989 0.98465 0.0
H428 H 0.95921 0.88255 0.87128 0.0
H429 H 0.95416 0.872 0.82013 0.0
H430 H 0.99296 0.8804 0.83872 0.0
H431 H 0.01192 0.82561 0.81383 0.0
H432 H 0.97288 0.81677 0.79611 0.0
H433 H 0.99184 0.7904 0.83056 0.0
H434 H 0.91959 0.79219 0.96093 0.0
H435 H 0.86796 0.79278 0.92617 0.0
H436 H 0.91419 0.8284 0.82063 0.0
C437 C 0.02464 0.84037 0.89935 0.0
C438 C 0.03919 0.83529 0.93624 0.0
C439 C 0.02183 0.82062 0.9671 0.0
C440 C 0.99027 0.81131 0.96122 0.0
C441 C 0.97673 0.81655 0.9242 0.0
C442 C 0.99358 0.83071 0.89386 0.0
C443 C 0.97413 0.83424 0.85692 0.0
C444 C 0.96986 0.86937 0.84616 0.0
C445 C 0.98856 0.81563 0.82232 0.0
C446 C 0.94357 0.81964 0.87086 0.0
C447 C 0.94514 0.80984 0.90987 0.0
C448 C 0.91838 0.79897 0.93008 0.0
C449 C 0.88926 0.79909 0.91014 0.0
C450 C 0.88751 0.80939 0.87033 0.0
C451 C 0.91519 0.81889 0.8504 0.0
H452 H 0.87032 0.03234 0.93072 0.0
H453 H 0.79205 0.07092 0.86396 0.0
H454 H 0.77527 0.01699 0.84599 0.0
H455 H 0.88909 0.97227 0.8601 0.0
H456 H 0.90055 0.94381 0.8971 0.0
H457 H 0.90459 0.98535 0.90682 0.0
H458 H 0.87068 0.97846 0.97036 0.0
H459 H 0.86588 0.93698 0.96023 0.0
H460 H 0.83165 0.96171 0.96687 0.0
H461 H 0.76637 0.95891 0.83665 0.0
H462 H 0.7715 0.90153 0.82605 0.0
H463 H 0.85908 0.90228 0.8927 0.0
C464 C 0.84969 0.02931 0.91229 0.0
C465 C 0.83241 0.05555 0.89868 0.0
C466 C 0.80573 0.05096 0.87432 0.0
C467 C 0.7958 0.02048 0.8644 0.0
C468 C 0.81311 0.99498 0.87866 0.0
C469 C 0.83991 -0.00091 0.90128 0.0
C470 C 0.85586 0.96792 0.90984 0.0
C471 C 0.8895 0.96731 0.89241 0.0
C472 C 0.85601 0.96086 0.95448 0.0
C473 C 0.83398 0.94574 0.88813 0.0
C474 C 0.80903 0.96167 0.87125 0.0
C475 C 0.78597 0.94614 0.84945 0.0
C476 C 0.78919 0.91356 0.84343 0.0
C477 C 0.81575 0.89704 0.85826 0.0
C478 C 0.83796 0.91352 0.88165 0.0
H479 H 0.4778 0.38172 0.4544 0.0
H480 H 0.46265 0.28079 0.45969 0.0
H481 H 0.51903 0.27177 0.44392 0.0
H482 H 0.52303 0.37987 0.37074 0.0
H483 H 0.54934 0.41162 0.38373 0.0
H484 H 0.51013 0.41035 0.4042 0.0
H485 H 0.53282 0.4121 0.47498 0.0
H486 H 0.57223 0.4136 0.45475 0.0
H487 H 0.56158 0.38318 0.48996 0.0
H488 H 0.57408 0.2739 0.41667 0.0
H489 H 0.62419 0.28688 0.38237 0.0
H490 H 0.60298 0.38668 0.39271 0.0
C491 C 0.4869 0.35782 0.45414 0.0
C492 C 0.4666 0.33189 0.46037 0.0
C493 C 0.47845 0.30084 0.45725 0.0
C494 C 0.51031 0.29557 0.44786 0.0
C495 C 0.52972 0.32168 0.44102 0.0
C496 C 0.51849 0.35224 0.44425 0.0
C497 C 0.54285 0.37607 0.43042 0.0
C498 C 0.53059 0.3956 0.39519 0.0
C499 C 0.55299 0.39751 0.4646 0.0
C500 C 0.56928 0.35418 0.41797 0.0
C501 C 0.56135 0.32291 0.42455 0.0
C502 C 0.58083 0.29831 0.41215 0.0
C503 C 0.60909 0.30587 0.39247 0.0
C504 C 0.61756 0.33774 0.38535 0.0
C505 C 0.59749 0.36213 0.39871 0.0
H506 H 0.1336 0.9732 0.97545 0.0
H507 H 0.19255 0.93852 0.87995 0.0
H508 H 0.2033 0.99313 0.8584 0.0
H509 H 0.097 0.0307 0.92185 0.0
H510 H 0.09519 0.06082 0.95924 0.0
H511 H 0.09652 0.01988 0.9735 0.0
H512 H 0.14662 0.02908 0.01579 0.0
H513 H 0.14413 0.07049 0.00357 0.0
H514 H 0.18004 0.04908 0.99395 0.0
H515 H 0.20074 0.04953 0.84036 0.0
H516 H 0.18696 0.10519 0.82872 0.0
H517 H 0.13179 0.10516 0.93749 0.0
C518 C 0.14967 0.97733 0.95097 0.0
C519 C 0.16264 0.95182 0.92959 0.0
C520 C 0.18268 0.95786 0.89684 0.0
C521 C 0.189 0.98877 0.88447 0.0
C522 C 0.17515 0.01347 0.90523 0.0
C523 C 0.15623 0.00827 0.93813 0.0
C524 C 0.14179 0.03898 0.95247 0.0
C525 C 0.10548 0.03747 0.9517 0.0
C526 C 0.15386 0.04739 0.99391 0.0
C527 C 0.15452 0.06177 0.92147 0.0
C528 C 0.17395 0.04659 0.89481 0.0
C529 C 0.18626 0.06197 0.86163 0.0
C530 C 0.17837 0.09373 0.85534 0.0
C531 C 0.15838 0.10992 0.88215 0.0
C532 C 0.14689 0.09363 0.91607 0.0
H533 H 0.53557 0.61665 0.37176 0.0
H534 H 0.52838 0.61084 0.49976 0.0
H535 H 0.47084 0.61916 0.49533 0.0
H536 H 0.48229 0.67752 0.35603 0.0
H537 H 0.46454 0.66121 0.31227 0.0
H538 H 0.50469 0.65148 0.32454 0.0
H539 H 0.49137 0.59173 0.32377 0.0
H540 H 0.4514 0.60123 0.31025 0.0
H541 H 0.45888 0.57717 0.35326 0.0
H542 H 0.41557 0.63481 0.47785 0.0
H543 H 0.36358 0.6445 0.44696 0.0
H544 H 0.40674 0.64021 0.33073 0.0
C545 C 0.5219 0.61682 0.39891 0.0
C546 C 0.53657 0.61347 0.43615 0.0
C547 C 0.51775 0.6135 0.47089 0.0
C548 C 0.4851 0.61855 0.46873 0.0
C549 C 0.47176 0.62374 0.43173 0.0
C550 C 0.48936 0.62196 0.39734 0.0
C551 C 0.4691 0.62757 0.36122 0.0
C552 C 0.48087 0.65616 0.33711 0.0
C553 C 0.4676 0.59765 0.33562 0.0
C554 C 0.43762 0.63424 0.38078 0.0
C555 C 0.43968 0.63186 0.42149 0.0
C556 C 0.41362 0.6366 0.44602 0.0
C557 C 0.38437 0.64249 0.42835 0.0
C558 C 0.38159 0.6438 0.3867 0.0
C559 C 0.4086 0.64026 0.36267 0.0
H560 H 0.35062 0.44812 0.62077 0.0
H561 H 0.36854 0.46056 0.49532 0.0
H562 H 0.36948 0.51869 0.5048 0.0
H563 H 0.30369 0.51794 0.63888 0.0
H564 H 0.32209 0.52518 0.68593 0.0
H565 H 0.31859 0.4854 0.66779 0.0
H566 H 0.37907 0.47778 0.67465 0.0
H567 H 0.38271 0.51742 0.69298 0.0
H568 H 0.40547 0.50526 0.65053 0.0
H569 H 0.37079 0.57634 0.53045 0.0
H570 H 0.37628 0.62563 0.56867 0.0
H571 H 0.36366 0.57234 0.67763 0.0
C572 C 0.35427 0.46291 0.59495 0.0
C573 C 0.35844 0.44965 0.55694 0.0
C574 C 0.36393 0.4701 0.52439 0.0
C575 C 0.36482 0.50316 0.52965 0.0
C576 C 0.36079 0.51528 0.56779 0.0
C577 C 0.35595 0.49554 0.59984 0.0
C578 C 0.35529 0.51355 0.63835 0.0
C579 C 0.32299 0.51032 0.65894 0.0
C580 C 0.38224 0.50287 0.66572 0.0
C581 C 0.36059 0.54674 0.62328 0.0
C582 C 0.3633 0.54752 0.58252 0.0
C583 C 0.36878 0.57581 0.56236 0.0
C584 C 0.37208 0.60373 0.58446 0.0
C585 C 0.37049 0.60323 0.62648 0.0
C586 C 0.3643 0.57415 0.64572 0.0
H587 H 0.02684 0.82383 0.0654 0.0
H588 H 0.04411 0.92382 0.04861 0.0
H589 H 0.99182 0.93586 0.07739 0.0
H590 H 0.94002 0.82748 0.04303 0.0
H591 H 0.92978 0.79842 0.08005 0.0
H592 H 0.96734 0.79626 0.0551 0.0
H593 H 0.99684 0.79698 0.12113 0.0
H594 H 0.95981 0.7986 0.14738 0.0
H595 H 0.98946 0.82835 0.15587 0.0
H596 H 0.94258 0.93743 0.11733 0.0
H597 H 0.89376 0.92877 0.15525 0.0
H598 H 0.90449 0.82734 0.14113 0.0
C599 C 0.01879 0.84809 0.06585 0.0
C600 C 0.03891 0.87294 0.05345 0.0
C601 C 0.02853 0.90453 0.05676 0.0
C602 C -0.00097 0.91157 0.0734 0.0
C603 C 0.98005 0.88667 0.08635 0.0
C604 C 0.989 0.8555 0.08182 0.0
C605 C 0.96436 0.83343 0.09964 0.0
C606 C 0.94948 0.8127 0.06751 0.0
C607 C 0.97848 0.81315 0.13298 0.0
C608 C 0.94075 0.85711 0.11582 0.0
C609 C 0.95053 0.88764 0.10808 0.0
C610 C 0.93409 0.91364 0.1224 0.0
C611 C 0.90623 0.9084 0.14389 0.0
C612 C 0.89447 0.87737 0.15037 0.0
C613 C 0.91249 0.85138 0.13665 0.0
H614 H 0.60711 0.49308 0.5265 0.0
H615 H 0.69237 0.54163 0.56209 0.0
H616 H 0.71002 0.49351 0.59774 0.0
H617 H 0.59269 0.45134 0.61157 0.0
H618 H 0.58026 0.41506 0.58869 0.0
H619 H 0.57544 0.45195 0.5629 0.0
H620 H 0.61063 0.43254 0.50209 0.0
H621 H 0.60911 0.39506 0.52769 0.0
H622 H 0.64648 0.41148 0.51376 0.0
H623 H 0.714 0.44138 0.63735 0.0
H624 H 0.70756 0.3889 0.66861 0.0
H625 H 0.62408 0.37326 0.59675 0.0
C626 C 0.62985 0.49329 0.54102 0.0
C627 C 0.64855 0.52086 0.54136 0.0
C628 C 0.67802 0.52047 0.56094 0.0
C629 C 0.68809 0.49335 0.58146 0.0
C630 C 0.66878 0.46663 0.58114 0.0
C631 C 0.64077 0.46616 0.56026 0.0
C632 C 0.62422 0.43468 0.56438 0.0
C633 C 0.59121 0.43852 0.583 0.0
C634 C 0.62246 0.41752 0.52452 0.0
C635 C 0.64656 0.41795 0.59201 0.0
C636 C 0.67204 0.43658 0.60176 0.0
C637 C 0.69448 0.42632 0.62904 0.0
C638 C 0.69072 0.39623 0.64647 0.0
C639 C 0.66504 0.37639 0.63593 0.0
C640 C 0.64336 0.38759 0.60736 0.0
H641 H 0.98407 0.0742 0.04163 0.0
H642 H 0.94313 0.16723 0.05578 0.0
H643 H 0.99415 0.18747 0.07993 0.0
H644 H 0.02672 0.07434 0.12844 0.0
H645 H 0.06064 0.05365 0.10931 0.0
H646 H 0.02253 0.04763 0.0874 0.0
H647 H 0.04514 0.06361 0.01874 0.0
H648 H 0.08341 0.06946 0.04057 0.0
H649 H 0.06512 0.10097 0.01302 0.0
H650 H 0.04742 0.19553 0.11191 0.0
H651 H 0.09972 0.19123 0.14437 0.0
H652 H 0.10541 0.09314 0.10881 0.0
C653 C 0.98611 0.09901 0.04883 0.0
C654 C 0.95984 0.11939 0.04582 0.0
C655 C 0.96325 0.15153 0.05639 0.0
C656 C 0.99207 0.16315 0.07056 0.0
C657 C 0.01735 0.14231 0.07395 0.0
C658 C 0.01476 0.11098 0.0629 0.0
C659 C 0.0447 0.09292 0.07197 0.0
C660 C 0.03824 0.06554 0.10101 0.0
C661 C 0.06052 0.08106 0.0338 0.0
C662 C 0.06407 0.11869 0.09104 0.0
C663 C 0.04807 0.14708 0.0918 0.0
C664 C 0.06046 0.17359 0.11072 0.0
C665 C 0.09002 0.17095 0.12921 0.0
C666 C 0.1068 0.1421 0.12834 0.0
C667 C 0.09355 0.1158 0.10886 0.0
H668 H 0.13942 0.75796 0.09798 0.0
H669 H 0.21842 0.78569 0.02456 0.0
H670 H 0.25319 0.75013 0.06208 0.0
H671 H 0.17574 0.76891 0.18023 0.0
H672 H 0.15852 0.73734 0.20906 0.0
H673 H 0.13751 0.75314 0.16771 0.0
H674 H 0.13382 0.6976 0.13636 0.0
H675 H 0.15448 0.6813 0.17823 0.0
H676 H 0.16918 0.6747 0.12884 0.0
H677 H 0.28156 0.72472 0.11793 0.0
H678 H 0.30043 0.7136 0.18574 0.0
H679 H 0.20391 0.70684 0.22701 0.0
C680 C 0.1637 0.75516 0.08846 0.0
C681 C 0.17615 0.77405 0.05758 0.0
C682 C 0.20815 0.77054 0.04674 0.0
C683 C 0.22813 0.75053 0.06842 0.0
C684 C 0.21565 0.73423 0.10094 0.0
C685 C 0.18393 0.7361 0.11064 0.0
C686 C 0.1774 0.72251 0.15139 0.0
C687 C 0.1614 0.74694 0.17865 0.0
C688 C 0.15755 0.69222 0.14852 0.0
C689 C 0.21067 0.71518 0.16454 0.0
C690 C 0.23231 0.72079 0.13449 0.0
C691 C 0.26478 0.71931 0.14122 0.0
C692 C 0.27533 0.713 0.17974 0.0
C693 C 0.25347 0.70887 0.211 0.0
C694 C 0.22088 0.70905 0.2031 0.0
H695 H 0.68623 0.70145 0.55141 0.0
H696 H 0.69681 0.61903 0.627 0.0
H697 H 0.7359 0.64768 0.66711 0.0
H698 H 0.76787 0.72653 0.55313 0.0
H699 H 0.75835 0.76799 0.55469 0.0
H700 H 0.73196 0.74073 0.53091 0.0
H701 H 0.68598 0.75942 0.57563 0.0
H702 H 0.71201 0.78694 0.59955 0.0
H703 H 0.69041 0.75833 0.62861 0.0
H704 H 0.77329 0.68525 0.69938 0.0
H705 H 0.8055 0.72989 0.72292 0.0
H706 H 0.76871 0.78852 0.62805 0.0
C707 C 0.69693 0.68936 0.57622 0.0
C708 C 0.68855 0.65802 0.58609 0.0
C709 C 0.70285 0.64309 0.619 0.0
C710 C 0.72514 0.65911 0.64188 0.0
C711 C 0.73278 0.69004 0.63151 0.0
C712 C 0.71906 0.70507 0.59958 0.0
C713 C 0.73059 0.73878 0.59567 0.0
C714 C 0.74825 0.74379 0.55627 0.0
C715 C 0.70311 0.76225 0.60015 0.0
C716 C 0.75284 0.74036 0.63053 0.0
C717 C 0.75391 0.71194 0.65064 0.0
C718 C 0.77261 0.70769 0.68398 0.0
C719 C 0.79064 0.73327 0.6973 0.0
C720 C 0.78963 0.7628 0.67748 0.0
C721 C 0.77045 0.76618 0.64358 0.0
H722 H 0.80989 0.18789 0.06828 0.0
H723 H 0.8335 0.12683 0.16697 0.0
H724 H 0.80678 0.16403 0.21282 0.0
H725 H 0.82087 0.26266 0.12148 0.0
H726 H 0.78889 0.28147 0.09553 0.0
H727 H 0.81168 0.25107 0.07161 0.0
H728 H 0.76049 0.21952 0.05794 0.0
H729 H 0.73752 0.2497 0.08177 0.0
H730 H 0.73465 0.20934 0.09858 0.0
H731 H 0.77237 0.20518 0.24592 0.0
H732 H 0.73486 0.24721 0.26421 0.0
H733 H 0.7381 0.28311 0.14376 0.0
C734 C 0.80954 0.18239 0.09958 0.0
C735 C 0.8233 0.15447 0.11428 0.0
C736 C 0.82296 0.14822 0.15537 0.0
C737 C 0.80793 0.16918 0.18148 0.0
C738 C 0.7942 0.19645 0.16587 0.0
C739 C 0.79531 0.20324 0.12589 0.0
C740 C 0.77821 0.23355 0.11618 0.0
C741 C 0.80129 0.25867 0.10027 0.0
C742 C 0.75111 0.22765 0.08691 0.0
C743 C 0.76596 0.24214 0.15674 0.0
C744 C 0.7756 0.22066 0.1851 0.0
C745 C 0.76523 0.22253 0.22415 0.0
C746 C 0.74404 0.24665 0.2343 0.0
C747 C 0.73353 0.26865 0.20549 0.0
C748 C 0.74539 0.26662 0.16648 0.0
H749 H 0.25198 0.33225 0.58021 0.0
H750 H 0.31211 0.25235 0.55619 0.0
H751 H 0.27805 0.21853 0.59761 0.0
H752 H 0.252 0.32262 0.67313 0.0
H753 H 0.21233 0.33469 0.68526 0.0
H754 H 0.23061 0.34892 0.64085 0.0
H755 H 0.18487 0.32682 0.59877 0.0
H756 H 0.1657 0.31311 0.64339 0.0
H757 H 0.17356 0.28593 0.60365 0.0
H758 H 0.24944 0.19848 0.65671 0.0
H759 H 0.22947 0.19451 0.72545 0.0
H760 H 0.19049 0.28863 0.71584 0.0
C761 C 0.25639 0.30707 0.58147 0.0
C762 C 0.28369 0.29448 0.56359 0.0
C763 C 0.29021 0.26194 0.5675 0.0
C764 C 0.27116 0.24269 0.5917 0.0
C765 C 0.24589 0.25647 0.61195 0.0
C766 C 0.23816 0.28799 0.60651 0.0
C767 C 0.21527 0.29928 0.63799 0.0
C768 C 0.22838 0.32802 0.66062 0.0
C769 C 0.18292 0.3067 0.61986 0.0
C770 C 0.21361 0.27022 0.66401 0.0
C771 C 0.23033 0.24533 0.64781 0.0
C772 C 0.23549 0.21746 0.66908 0.0
C773 C 0.22416 0.21539 0.70813 0.0
C774 C 0.20853 0.2413 0.72568 0.0
C775 C 0.20222 0.26846 0.70281 0.0
H776 H 0.71971 0.69006 0.46376 0.0
H777 H 0.63351 0.7413 0.44162 0.0
H778 H 0.66368 0.7829 0.40686 0.0
H779 H 0.77707 0.76295 0.46379 0.0
H780 H 0.80625 0.73988 0.43785 0.0
H781 H 0.78058 0.72126 0.47372 0.0
H782 H 0.76334 0.68087 0.42108 0.0
H783 H 0.78808 0.69937 0.38465 0.0
H784 H 0.74647 0.69479 0.37535 0.0
H785 H 0.69933 0.80883 0.35779 0.0
H786 H 0.73726 0.81816 0.30327 0.0
H787 H 0.8012 0.75019 0.35571 0.0
C788 C 0.70772 0.71136 0.45433 0.0
C789 C 0.67453 0.71315 0.4565 0.0
C790 C 0.65907 0.7402 0.44154 0.0
C791 C 0.67608 0.76379 0.42136 0.0
C792 C 0.70859 0.75998 0.41641 0.0
C793 C 0.72443 0.73473 0.43335 0.0
C794 C 0.7579 0.73247 0.41742 0.0
C795 C 0.78187 0.73958 0.45014 0.0
C796 C 0.76426 0.69998 0.3985 0.0
C797 C 0.75754 0.75857 0.38662 0.0
C798 C 0.72926 0.77479 0.38718 0.0
C799 C 0.72197 0.79703 0.35796 0.0
C800 C 0.74371 0.80223 0.32701 0.0
C801 C 0.77228 0.78496 0.3251 0.0
C802 C 0.77959 0.7638 0.35627 0.0
H803 H 0.79665 0.21485 0.96189 0.0
H804 H 0.76286 0.11887 0.95352 0.0
H805 H 0.72766 0.13451 0.89862 0.0
H806 H 0.72029 0.25646 0.92561 0.0
H807 H 0.74406 0.28505 0.89933 0.0
H808 H 0.75774 0.26869 0.94549 0.0
H809 H 0.80955 0.25161 0.91079 0.0
H810 H 0.79593 0.2669 0.86446 0.0
H811 H 0.80764 0.22608 0.8683 0.0
H812 H 0.7075 0.15742 0.83473 0.0
H813 H 0.70265 0.18575 0.77063 0.0
H814 H 0.75095 0.26639 0.81999 0.0
C815 C 0.78008 0.19778 0.95026 0.0
C816 C 0.78135 0.16607 0.96269 0.0
C817 C 0.76101 0.1436 0.94546 0.0
C818 C 0.74122 0.15228 0.91397 0.0
C819 C 0.74197 0.18355 0.90053 0.0
C820 C 0.76046 0.20614 0.91883 0.0
C821 C 0.76152 0.23655 0.89517 0.0
C822 C 0.7449 0.26327 0.91774 0.0
C823 C 0.79567 0.24577 0.88402 0.0
C824 C 0.74278 0.22693 0.85927 0.0
C825 C 0.73091 0.1966 0.86323 0.0
C826 C 0.71581 0.1815 0.83187 0.0
C827 C 0.7132 0.19764 0.79561 0.0
C828 C 0.72599 0.22828 0.79103 0.0
C829 C 0.74035 0.24323 0.82338 0.0
H830 H 0.29423 0.29545 0.38266 0.0
H831 H 0.31776 0.24445 0.4896 0.0
H832 H 0.28312 0.2002 0.46883 0.0
H833 H 0.2123 0.27015 0.37635 0.0
H834 H 0.21349 0.26776 0.32317 0.0
H835 H 0.23838 0.29557 0.34844 0.0
H836 H 0.2874 0.27163 0.31359 0.0
H837 H 0.26277 0.24337 0.28873 0.0
H838 H 0.2953 0.22997 0.31856 0.0
H839 H 0.24793 0.16055 0.43346 0.0
H840 H 0.21245 0.1304 0.3897 0.0
H841 H 0.21292 0.20808 0.30565 0.0
C842 C 0.29167 0.27513 0.40198 0.0
C843 C 0.30788 0.2735 0.43828 0.0
C844 C 0.30442 0.24652 0.46259 0.0
C845 C 0.28524 0.22117 0.45061 0.0
C846 C 0.26988 0.22337 0.41423 0.0
C847 C 0.27271 0.24986 0.39049 0.0
C848 C 0.25428 0.24644 0.35254 0.0
C849 C 0.22805 0.27146 0.34999 0.0
C850 C 0.27626 0.24794 0.31622 0.0
C851 C 0.24076 0.21369 0.35825 0.0
C852 C 0.25003 0.20071 0.39395 0.0
C853 C 0.24038 0.17061 0.40561 0.0
C854 C 0.22021 0.1537 0.38057 0.0
C855 C 0.20983 0.1669 0.34425 0.0
C856 C 0.22071 0.19714 0.3329 0.0
H857 H 0.1832 0.76956 0.87924 0.0
H858 H 0.23618 0.81496 0.97226 0.0
H859 H 0.28416 0.78587 0.95158 0.0
H860 H 0.22363 0.69321 0.87942 0.0
H861 H 0.2226 0.69009 0.8263 0.0
H862 H 0.19206 0.71142 0.85202 0.0
H863 H 0.20386 0.7606 0.80858 0.0
H864 H 0.23491 0.73968 0.78329 0.0
H865 H 0.24329 0.77667 0.80729 0.0
H866 H 0.32679 0.75322 0.91846 0.0
H867 H 0.36038 0.7187 0.87693 0.0
H868 H 0.28044 0.69857 0.80168 0.0
C869 C 0.20472 0.77258 0.896 0.0
C870 C 0.20564 0.79307 0.92889 0.0
C871 C 0.2345 0.79768 0.94885 0.0
C872 C 0.26199 0.78179 0.93669 0.0
C873 C 0.26032 0.76201 0.90382 0.0
C874 C 0.23238 0.75738 0.88376 0.0
C875 C 0.2372 0.73655 0.84787 0.0
C876 C 0.21772 0.706 0.85165 0.0
C877 C 0.22935 0.75446 0.8095 0.0
C878 C 0.27225 0.73002 0.85083 0.0
C879 C 0.28514 0.74486 0.88337 0.0
C880 C 0.31696 0.74165 0.89284 0.0
C881 C 0.33588 0.72218 0.86902 0.0
C882 C 0.32305 0.7065 0.83585 0.0
C883 C 0.29094 0.71089 0.82635 0.0
loop_
_geom_bond_atom_site_label_1
_geom_bond_atom_site_label_2
_geom_bond_distance
_geom_bond_site_symmetry_2
_ccdc_geom_bond_type
Zn0 O6 1.920 . S
Zn0 O12 1.898 . S
Zn0 O15 1.905 . S
Zn1 O9 1.905 . S
Zn1 O10 1.898 . S
Zn1 O18 1.920 . S
Zn2 O5 2.080 . S
Zn2 O8 2.114 1_554 S
Zn2 O11 2.120 1_554 S
Zn2 O13 2.120 . S
Zn2 O14 2.114 . S
Zn2 O17 2.080 1_554 S
C3 O8 1.166 . S
C3 O9 1.182 . S
C4 O10 1.167 . S
C4 O11 1.299 . S
O5 Zn2 2.080 . S
O5 C19 1.305 . S
O6 Zn0 1.920 . S
O6 C19 1.234 . S
C7 O12 1.167 . S
C7 O13 1.299 . S
O8 Zn2 2.114 1_556 S
O8 C3 1.166 . S
O9 Zn1 1.905 . S
O9 C3 1.182 . S
O10 Zn1 1.898 . S
O10 C4 1.167 . S
O11 Zn2 2.120 1_556 S
O11 C4 1.299 . S
O12 Zn0 1.898 . S
O12 C7 1.167 . S
O13 Zn2 2.120 . S
O13 C7 1.299 . S
O14 Zn2 2.114 . S
O14 C16 1.166 . S
O15 Zn0 1.905 . S
O15 C16 1.182 . S
C16 O14 1.166 . S
C16 O15 1.182 . S
O17 Zn2 2.080 1_556 S
O17 C20 1.305 . S
O18 Zn1 1.920 . S
O18 C20 1.234 . S
C19 O5 1.305 . S
C19 O6 1.234 . S
C20 O17 1.305 . S
C20 O18 1.234 . S
Zn21 O27 1.920 . S
Zn21 O33 1.898 . S
Zn21 O36 1.905 . S
Zn22 O30 1.905 . S
Zn22 O31 1.898 . S
Zn22 O39 1.920 . S
Zn23 O26 2.080 . S
Zn23 O29 2.114 . S
Zn23 O32 2.120 . S
Zn23 O34 2.120 . S
Zn23 O35 2.114 . S
Zn23 O38 2.080 . S
C24 O29 1.166 . S
C24 O30 1.182 . S
C25 O31 1.167 . S
C25 O32 1.299 . S
O26 Zn23 2.080 . S
O26 C40 1.305 . S
O27 Zn21 1.920 . S
O27 C40 1.234 . S
C28 O33 1.167 . S
C28 O34 1.299 . S
O29 Zn23 2.114 . S
O29 C24 1.166 . S
O30 Zn22 1.905 . S
O30 C24 1.182 . S
O31 Zn22 1.898 . S
O31 C25 1.167 . S
O32 Zn23 2.120 . S
O32 C25 1.299 . S
O33 Zn21 1.898 . S
O33 C28 1.167 . S
O34 Zn23 2.120 . S
O34 C28 1.299 . S
O35 Zn23 2.114 . S
O35 C37 1.166 . S
O36 Zn21 1.905 . S
O36 C37 1.182 . S
C37 O35 1.166 . S
C37 O36 1.182 . S
O38 Zn23 2.080 . S
O38 C41 1.305 . S
O39 Zn22 1.920 . S
O39 C41 1.234 . S
C40 O26 1.305 . S
C40 O27 1.234 . S
C41 O38 1.305 . S
C41 O39 1.234 . S
Zn42 O48 1.920 . S
Zn42 O54 1.898 . S
Zn42 O57 1.905 . S
Zn43 O51 1.905 . S
Zn43 O52 1.898 . S
Zn43 O60 1.920 . S
Zn44 O47 2.080 1_554 S
Zn44 O50 2.114 . S
Zn44 O53 2.120 . S
Zn44 O55 2.120 1_554 S
Zn44 O56 2.114 1_554 S
Zn44 O59 2.080 . S
C45 O50 1.166 . S
C45 O51 1.182 . S
C46 O52 1.167 . S
C46 O53 1.299 . S
O47 Zn44 2.080 1_556 S
O47 C61 1.305 . S
O48 Zn42 1.920 . S
O48 C61 1.234 . S
C49 O54 1.167 . S
C49 O55 1.299 . S
O50 Zn44 2.114 . S
O50 C45 1.166 . S
O51 Zn43 1.905 . S
O51 C45 1.182 . S
O52 Zn43 1.898 . S
O52 C46 1.167 . S
O53 Zn44 2.120 . S
O53 C46 1.299 . S
O54 Zn42 1.898 . S
O54 C49 1.167 . S
O55 Zn44 2.120 1_556 S
O55 C49 1.299 . S
O56 Zn44 2.114 1_556 S
O56 C58 1.166 . S
O57 Zn42 1.905 . S
O57 C58 1.182 . S
C58 O56 1.166 . S
C58 O57 1.182 . S
O59 Zn44 2.080 . S
O59 C62 1.305 . S
O60 Zn43 1.920 . S
O60 C62 1.234 . S
C61 O47 1.305 . S
C61 O48 1.234 . S
C62 O59 1.305 . S
C62 O60 1.234 . S
Zn63 O69 1.920 . S
Zn63 O75 1.898 . S
Zn63 O78 1.905 . S
Zn64 O72 1.905 . S
Zn64 O73 1.898 . S
Zn64 O81 1.920 . S
Zn65 O68 2.080 . S
Zn65 O71 2.114 . S
Zn65 O74 2.120 . S
Zn65 O76 2.120 . S
Zn65 O77 2.114 . S
Zn65 O80 2.080 . S
C66 O71 1.166 . S
C66 O72 1.182 . S
C67 O73 1.167 . S
C67 O74 1.299 . S
O68 Zn65 2.080 . S
O68 C82 1.305 . S
O69 Zn63 1.920 . S
O69 C82 1.234 . S
C70 O75 1.167 . S
C70 O76 1.299 . S
O71 Zn65 2.114 . S
O71 C66 1.166 . S
O72 Zn64 1.905 . S
O72 C66 1.182 . S
O73 Zn64 1.898 . S
O73 C67 1.167 . S
O74 Zn65 2.120 . S
O74 C67 1.299 . S
O75 Zn63 1.898 . S
O75 C70 1.167 . S
O76 Zn65 2.120 . S
O76 C70 1.299 . S
O77 Zn65 2.114 . S
O77 C79 1.166 . S
O78 Zn63 1.905 . S
O78 C79 1.182 . S
C79 O77 1.166 . S
C79 O78 1.182 . S
O80 Zn65 2.080 . S
O80 C83 1.305 . S
O81 Zn64 1.920 . S
O81 C83 1.234 . S
C82 O68 1.305 . S
C82 O69 1.234 . S
C83 O80 1.305 . S
C83 O81 1.234 . S
H84 C85 0.949 . S
C85 H84 0.949 . S
C85 C86 1.395 . S
C85 C87 1.391 . S
C86 C85 1.395 . S
C86 C89 1.390 . S
C87 C85 1.391 . S
C87 C91 1.387 . S
C87 C92 1.491 . S
H88 C89 0.950 . S
C89 C86 1.390 . S
C89 H88 0.950 . S
C89 C90 1.378 . S
C90 C89 1.378 . S
C90 C91 1.409 . S
C91 C87 1.387 . S
C91 C90 1.409 . S
C91 H93 0.951 . S
C92 C87 1.491 . S
C92 C94 1.382 . S
C92 C96 1.404 . S
H93 C91 0.951 . S
C94 C92 1.382 . S
C94 C95 1.390 . S
C94 H99 0.949 . S
C95 C94 1.390 . S
C95 C100 1.399 . S
C96 C92 1.404 . S
C96 H97 0.950 . S
C96 C98 1.375 . S
H97 C96 0.950 . S
C98 C96 1.375 . S
C98 C100 1.382 . S
C98 H102 0.950 . S
H99 C94 0.949 . S
C100 C95 1.399 . S
C100 C98 1.382 . S
C100 H101 0.952 . S
H101 C100 0.952 . S
H102 C98 0.950 . S
H103 C104 0.949 . S
C104 H103 0.949 . S
C104 C105 1.395 . S
C104 C106 1.391 . S
C105 C104 1.395 . S
C105 C108 1.390 . S
C106 C104 1.391 . S
C106 C110 1.387 . S
C106 C111 1.491 . S
H107 C108 0.950 . S
C108 C105 1.390 . S
C108 H107 0.950 . S
C108 C109 1.378 . S
C109 C108 1.378 . S
C109 C110 1.409 . S
C110 C106 1.387 . S
C110 C109 1.409 . S
C110 H112 0.951 . S
C111 C106 1.491 . S
C111 C113 1.382 . S
C111 C115 1.404 . S
H112 C110 0.951 . S
C113 C111 1.382 . S
C113 C114 1.390 . S
C113 H118 0.949 . S
C114 C113 1.390 . S
C114 C119 1.399 . S
C115 C111 1.404 . S
C115 H116 0.950 . S
C115 C117 1.375 . S
H116 C115 0.950 . S
C117 C115 1.375 . S
C117 C119 1.382 . S
C117 H121 0.950 . S
H118 C113 0.949 . S
C119 C114 1.399 . S
C119 C117 1.382 . S
C119 H120 0.952 . S
H120 C119 0.952 . S
H121 C117 0.950 . S
H122 C123 0.949 . S
C123 H122 0.949 . S
C123 C124 1.395 . S
C123 C125 1.391 . S
C124 C123 1.395 . S
C124 C127 1.390 . S
C125 C123 1.391 . S
C125 C129 1.387 . S
C125 C130 1.491 . S
H126 C127 0.950 . S
C127 C124 1.390 . S
C127 H126 0.950 . S
C127 C128 1.378 . S
C128 C127 1.378 . S
C128 C129 1.409 . S
C129 C125 1.387 . S
C129 C128 1.409 . S
C129 H131 0.951 . S
C130 C125 1.491 . S
C130 C132 1.382 . S
C130 C134 1.404 . S
H131 C129 0.951 . S
C132 C130 1.382 . S
C132 C133 1.390 . S
C132 H137 0.949 . S
C133 C132 1.390 . S
C133 C138 1.399 . S
C134 C130 1.404 . S
C134 H135 0.950 . S
C134 C136 1.375 . S
H135 C134 0.950 . S
C136 C134 1.375 . S
C136 C138 1.382 . S
C136 H140 0.950 . S
H137 C132 0.949 . S
C138 C133 1.399 . S
C138 C136 1.382 . S
C138 H139 0.952 . S
H139 C138 0.952 . S
H140 C136 0.950 . S
H141 C142 0.949 . S
C142 H141 0.949 . S
C142 C143 1.395 . S
C142 C144 1.391 . S
C143 C142 1.395 . S
C143 C146 1.390 . S
C144 C142 1.391 . S
C144 C148 1.387 . S
C144 C149 1.491 . S
H145 C146 0.950 . S
C146 C143 1.390 . S
C146 H145 0.950 . S
C146 C147 1.378 . S
C147 C146 1.378 . S
C147 C148 1.409 . S
C148 C144 1.387 . S
C148 C147 1.409 . S
C148 H150 0.951 . S
C149 C144 1.491 . S
C149 C151 1.382 . S
C149 C153 1.404 . S
H150 C148 0.951 . S
C151 C149 1.382 . S
C151 C152 1.390 . S
C151 H156 0.949 . S
C152 C151 1.390 . S
C152 C157 1.399 . S
C153 C149 1.404 . S
C153 H154 0.950 . S
C153 C155 1.375 . S
H154 C153 0.950 . S
C155 C153 1.375 . S
C155 C157 1.382 . S
C155 H159 0.950 . S
H156 C151 0.949 . S
C157 C152 1.399 . S
C157 C155 1.382 . S
C157 H158 0.952 . S
H158 C157 0.952 . S
H159 C155 0.950 . S
H160 C161 0.949 . S
C161 H160 0.949 . S
C161 C162 1.395 . S
C161 C163 1.391 . S
C162 C161 1.395 . S
C162 C165 1.390 . S
C163 C161 1.391 . S
C163 C167 1.387 . S
C163 C168 1.491 . S
H164 C165 0.950 . S
C165 C162 1.390 . S
C165 H164 0.950 . S
C165 C166 1.378 . S
C166 C165 1.378 . S
C166 C167 1.409 . S
C167 C163 1.387 . S
C167 C166 1.409 . S
C167 H169 0.951 . S
C168 C163 1.491 . S
C168 C170 1.382 . S
C168 C172 1.404 . S
H169 C167 0.951 . S
C170 C168 1.382 . S
C170 C171 1.390 . S
C170 H175 0.949 . S
C171 C170 1.390 . S
C171 C176 1.399 . S
C172 C168 1.404 . S
C172 H173 0.950 . S
C172 C174 1.375 . S
H173 C172 0.950 . S
C174 C172 1.375 . S
C174 C176 1.382 . S
C174 H178 0.950 . S
H175 C170 0.949 . S
C176 C171 1.399 . S
C176 C174 1.382 . S
C176 H177 0.952 . S
H177 C176 0.952 . S
H178 C174 0.950 . S
H179 C180 0.949 . S
C180 H179 0.949 . S
C180 C181 1.395 . S
C180 C182 1.391 . S
C181 C180 1.395 . S
C181 C184 1.390 . S
C182 C180 1.391 . S
C182 C186 1.387 . S
C182 C187 1.491 . S
H183 C184 0.950 . S
C184 C181 1.390 . S
C184 H183 0.950 . S
C184 C185 1.378 . S
C185 C184 1.378 . S
C185 C186 1.409 . S
C186 C182 1.387 . S
C186 C185 1.409 . S
C186 H188 0.951 . S
C187 C182 1.491 . S
C187 C189 1.382 . S
C187 C191 1.404 . S
H188 C186 0.951 . S
C189 C187 1.382 . S
C189 C190 1.390 . S
C189 H194 0.949 . S
C190 C189 1.390 . S
C190 C195 1.399 . S
C191 C187 1.404 . S
C191 H192 0.950 . S
C191 C193 1.375 . S
H192 C191 0.950 . S
C193 C191 1.375 . S
C193 C195 1.382 . S
C193 H197 0.950 . S
H194 C189 0.949 . S
C195 C190 1.399 . S
C195 C193 1.382 . S
C195 H196 0.952 . S
H196 C195 0.952 . S
H197 C193 0.950 . S
H198 C199 0.949 . S
C199 H198 0.949 . S
C199 C200 1.395 . S
C199 C201 1.391 . S
C200 C199 1.395 . S
C200 C203 1.390 . S
C201 C199 1.391 . S
C201 C205 1.387 . S
C201 C206 1.491 . S
H202 C203 0.950 . S
C203 C200 1.390 . S
C203 H202 0.950 . S
C203 C204 1.378 . S
C204 C203 1.378 . S
C204 C205 1.409 . S
C205 C201 1.387 . S
C205 C204 1.409 . S
C205 H207 0.951 . S
C206 C201 1.491 . S
C206 C208 1.382 . S
C206 C210 1.404 . S
H207 C205 0.951 . S
C208 C206 1.382 . S
C208 C209 1.390 . S
C208 H213 0.949 . S
C209 C208 1.390 . S
C209 C214 1.399 . S
C210 C206 1.404 . S
C210 H211 0.950 . S
C210 C212 1.375 . S
H211 C210 0.950 . S
C212 C210 1.375 . S
C212 C214 1.382 . S
C212 H216 0.950 . S
H213 C208 0.949 . S
C214 C209 1.399 . S
C214 C212 1.382 . S
C214 H215 0.952 . S
H215 C214 0.952 . S
H216 C212 0.950 . S
H217 C218 0.949 . S
C218 H217 0.949 . S
C218 C219 1.395 . S
C218 C220 1.391 . S
C219 C218 1.395 . S
C219 C222 1.390 . S
C220 C218 1.391 . S
C220 C224 1.387 . S
C220 C225 1.491 . S
H221 C222 0.950 . S
C222 C219 1.390 . S
C222 H221 0.950 . S
C222 C223 1.378 . S
C223 C222 1.378 . S
C223 C224 1.409 . S
C224 C220 1.387 . S
C224 C223 1.409 . S
C224 H226 0.951 . S
C225 C220 1.491 . S
C225 C227 1.382 . S
C225 C229 1.404 . S
H226 C224 0.951 . S
C227 C225 1.382 . S
C227 C228 1.390 . S
C227 H232 0.949 . S
C228 C227 1.390 . S
C228 C233 1.399 . S
C229 C225 1.404 . S
C229 H230 0.950 . S
C229 C231 1.375 . S
H230 C229 0.950 . S
C231 C229 1.375 . S
C231 C233 1.382 . S
C231 H235 0.950 . S
H232 C227 0.949 . S
C233 C228 1.399 . S
C233 C231 1.382 . S
C233 H234 0.952 . S
H234 C233 0.952 . S
H235 C231 0.950 . S
H236 C248 0.930 . S
H237 C250 0.930 . S
H238 C251 0.930 1_545 S
H239 C255 0.959 1_545 S
H240 C255 0.959 . S
H241 C255 0.961 . S
H242 C256 0.960 . S
H243 C256 0.961 . S
H244 C256 0.959 . S
H245 C259 0.929 . S
H246 C260 0.931 . S
H247 C262 0.930 . S
C248 H236 0.930 . S
C248 C249 1.399 . S
C248 C253 1.399 . S
C249 C248 1.399 . S
C249 C250 1.376 . S
C250 H237 0.930 . S
C250 C249 1.376 . S
C250 C251 1.388 . S
C251 H238 0.930 1_565 S
C251 C250 1.388 . S
C251 C252 1.390 . S
C252 C251 1.390 . S
C252 C253 1.394 . S
C252 C258 1.465 1_565 S
C253 C248 1.399 . S
C253 C252 1.394 . S
C253 C254 1.516 . S
C254 C253 1.516 . S
C254 C255 1.502 . S
C254 C256 1.561 . S
C254 C257 1.526 1_565 S
C255 H239 0.959 1_565 S
C255 H240 0.959 . S
C255 H241 0.961 . S
C255 C254 1.502 . S
C256 H242 0.960 . S
C256 H243 0.961 . S
C256 H244 0.959 . S
C256 C254 1.561 . S
C257 C254 1.526 1_545 S
C257 C258 1.396 . S
C257 C262 1.390 . S
C258 C252 1.465 1_545 S
C258 C257 1.396 . S
C258 C259 1.399 . S
C259 H245 0.929 . S
C259 C258 1.399 . S
C259 C260 1.385 . S
C260 H246 0.931 . S
C260 C259 1.385 . S
C260 C261 1.389 . S
C261 C260 1.389 . S
C261 C262 1.387 . S
C262 H247 0.930 . S
C262 C257 1.390 . S
C262 C261 1.387 . S
H263 C275 0.930 . S
H264 C277 0.930 . S
H265 C278 0.930 . S
H266 C282 0.959 . S
H267 C282 0.959 . S
H268 C282 0.961 . S
H269 C283 0.960 . S
H270 C283 0.961 . S
H271 C283 0.959 . S
H272 C286 0.929 . S
H273 C287 0.931 . S
H274 C289 0.930 . S
C275 H263 0.930 . S
C275 C276 1.399 . S
C275 C280 1.399 . S
C276 C275 1.399 . S
C276 C277 1.376 . S
C277 H264 0.930 . S
C277 C276 1.376 . S
C277 C278 1.388 . S
C278 H265 0.930 . S
C278 C277 1.388 . S
C278 C279 1.390 . S
C279 C278 1.390 . S
C279 C280 1.394 . S
C279 C285 1.465 . S
C280 C275 1.399 . S
C280 C279 1.394 . S
C280 C281 1.516 . S
C281 C280 1.516 . S
C281 C282 1.502 . S
C281 C283 1.561 . S
C281 C284 1.526 . S
C282 H266 0.959 . S
C282 H267 0.959 . S
C282 H268 0.961 . S
C282 C281 1.502 . S
C283 H269 0.960 . S
C283 H270 0.961 . S
C283 H271 0.959 . S
C283 C281 1.561 . S
C284 C281 1.526 . S
C284 C285 1.396 . S
C284 C289 1.390 . S
C285 C279 1.465 . S
C285 C284 1.396 . S
C285 C286 1.399 . S
C286 H272 0.929 . S
C286 C285 1.399 . S
C286 C287 1.385 . S
C287 H273 0.931 . S
C287 C286 1.385 . S
C287 C288 1.389 . S
C288 C287 1.389 . S
C288 C289 1.387 . S
C289 H274 0.930 . S
C289 C284 1.390 . S
C289 C288 1.387 . S
H290 C302 0.930 . S
H291 C304 0.930 . S
H292 C305 0.930 1_565 S
H293 C309 0.959 1_565 S
H294 C309 0.959 . S
H295 C309 0.961 . S
H296 C310 0.960 . S
H297 C310 0.961 . S
H298 C310 0.959 . S
H299 C313 0.929 . S
H300 C314 0.931 . S
H301 C316 0.930 . S
C302 H290 0.930 . S
C302 C303 1.399 . S
C302 C307 1.399 . S
C303 C302 1.399 . S
C303 C304 1.376 . S
C304 H291 0.930 . S
C304 C303 1.376 . S
C304 C305 1.388 . S
C305 H292 0.930 1_545 S
C305 C304 1.388 . S
C305 C306 1.390 1_545 S
C306 C305 1.390 1_565 S
C306 C307 1.394 1_565 S
C306 C312 1.465 . S
C307 C302 1.399 . S
C307 C306 1.394 1_545 S
C307 C308 1.516 . S
C308 C307 1.516 . S
C308 C309 1.502 . S
C308 C310 1.561 . S
C308 C311 1.526 1_545 S
C309 H293 0.959 1_545 S
C309 H294 0.959 . S
C309 H295 0.961 . S
C309 C308 1.502 . S
C310 H296 0.960 . S
C310 H297 0.961 . S
C310 H298 0.959 . S
C310 C308 1.561 . S
C311 C308 1.526 1_565 S
C311 C312 1.396 . S
C311 C316 1.390 . S
C312 C306 1.465 . S
C312 C311 1.396 . S
C312 C313 1.399 . S
C313 H299 0.929 . S
C313 C312 1.399 . S
C313 C314 1.385 . S
C314 H300 0.931 . S
C314 C313 1.385 . S
C314 C315 1.389 . S
C315 C314 1.389 . S
C315 C316 1.387 . S
C316 H301 0.930 . S
C316 C311 1.390 . S
C316 C315 1.387 . S
H317 C329 0.930 . S
H318 C331 0.930 . S
H319 C332 0.930 . S
H320 C336 0.959 . S
H321 C336 0.959 . S
H322 C336 0.961 . S
H323 C337 0.960 . S
H324 C337 0.961 . S
H325 C337 0.959 . S
H326 C340 0.929 . S
H327 C341 0.931 . S
H328 C343 0.930 . S
C329 H317 0.930 . S
C329 C330 1.399 . S
C329 C334 1.399 . S
C330 C329 1.399 . S
C330 C331 1.376 . S
C331 H318 0.930 . S
C331 C330 1.376 . S
C331 C332 1.388 . S
C332 H319 0.930 . S
C332 C331 1.388 . S
C332 C333 1.390 . S
C333 C332 1.390 . S
C333 C334 1.394 . S
C333 C339 1.465 . S
C334 C329 1.399 . S
C334 C333 1.394 . S
C334 C335 1.516 . S
C335 C334 1.516 . S
C335 C336 1.502 . S
C335 C337 1.561 . S
C335 C338 1.526 . S
C336 H320 0.959 . S
C336 H321 0.959 . S
C336 H322 0.961 . S
C336 C335 1.502 . S
C337 H323 0.960 . S
C337 H324 0.961 . S
C337 H325 0.959 . S
C337 C335 1.561 . S
C338 C335 1.526 . S
C338 C339 1.396 . S
C338 C343 1.390 . S
C339 C333 1.465 . S
C339 C338 1.396 . S
C339 C340 1.399 . S
C340 H326 0.929 . S
C340 C339 1.399 . S
C340 C341 1.385 . S
C341 H327 0.931 . S
C341 C340 1.385 . S
C341 C342 1.389 . S
C342 C341 1.389 . S
C342 C343 1.387 . S
C343 H328 0.930 . S
C343 C338 1.390 . S
C343 C342 1.387 . S
H344 C356 0.930 . S
H345 C358 0.930 . S
H346 C359 0.930 . S
H347 C363 0.959 . S
H348 C363 0.959 . S
H349 C363 0.961 . S
H350 C364 0.960 . S
H351 C364 0.961 . S
H352 C364 0.959 . S
H353 C367 0.929 . S
H354 C368 0.931 . S
H355 C370 0.930 . S
C356 H344 0.930 . S
C356 C357 1.399 . S
C356 C361 1.399 . S
C357 C356 1.399 . S
C357 C358 1.376 . S
C358 H345 0.930 . S
C358 C357 1.376 . S
C358 C359 1.388 . S
C359 H346 0.930 . S
C359 C358 1.388 . S
C359 C360 1.390 . S
C360 C359 1.390 . S
C360 C361 1.394 . S
C360 C366 1.465 . S
C361 C356 1.399 . S
C361 C360 1.394 . S
C361 C362 1.516 . S
C362 C361 1.516 . S
C362 C363 1.502 . S
C362 C364 1.561 . S
C362 C365 1.526 . S
C363 H347 0.959 . S
C363 H348 0.959 . S
C363 H349 0.961 . S
C363 C362 1.502 . S
C364 H350 0.960 . S
C364 H351 0.961 . S
C364 H352 0.959 . S
C364 C362 1.561 . S
C365 C362 1.526 . S
C365 C366 1.396 . S
C365 C370 1.390 . S
C366 C360 1.465 . S
C366 C365 1.396 . S
C366 C367 1.399 . S
C367 H353 0.929 . S
C367 C366 1.399 . S
C367 C368 1.385 . S
C368 H354 0.931 . S
C368 C367 1.385 . S
C368 C369 1.389 . S
C369 C368 1.389 . S
C369 C370 1.387 . S
C370 H355 0.930 . S
C370 C365 1.390 . S
C370 C369 1.387 . S
H371 C383 0.930 . S
H372 C385 0.930 . S
H373 C386 0.930 1_455 S
H374 C390 0.959 1_455 S
H375 C390 0.959 1_455 S
H376 C390 0.961 . S
H377 C391 0.960 . S
H378 C391 0.961 . S
H379 C391 0.959 . S
H380 C394 0.929 . S
H381 C395 0.931 . S
H382 C397 0.930 . S
C383 H371 0.930 . S
C383 C384 1.399 . S
C383 C388 1.399 . S
C384 C383 1.399 . S
C384 C385 1.376 . S
C385 H372 0.930 . S
C385 C384 1.376 . S
C385 C386 1.388 . S
C386 H373 0.930 1_655 S
C386 C385 1.388 . S
C386 C387 1.390 . S
C387 C386 1.390 . S
C387 C388 1.394 . S
C387 C393 1.465 1_655 S
C388 C383 1.399 . S
C388 C387 1.394 . S
C388 C389 1.516 . S
C389 C388 1.516 . S
C389 C390 1.502 . S
C389 C391 1.561 . S
C389 C392 1.526 1_655 S
C390 H374 0.959 1_655 S
C390 H375 0.959 1_655 S
C390 H376 0.961 . S
C390 C389 1.502 . S
C391 H377 0.960 . S
C391 H378 0.961 . S
C391 H379 0.959 . S
C391 C389 1.561 . S
C392 C389 1.526 1_455 S
C392 C393 1.396 . S
C392 C397 1.390 . S
C393 C387 1.465 1_455 S
C393 C392 1.396 . S
C393 C394 1.399 . S
C394 H380 0.929 . S
C394 C393 1.399 . S
C394 C395 1.385 . S
C395 H381 0.931 . S
C395 C394 1.385 . S
C395 C396 1.389 . S
C396 C395 1.389 . S
C396 C397 1.387 . S
C397 H382 0.930 . S
C397 C392 1.390 . S
C397 C396 1.387 . S
H398 C410 0.930 . S
H399 C412 0.930 . S
H400 C413 0.930 . S
H401 C417 0.959 . S
H402 C417 0.959 . S
H403 C417 0.961 . S
H404 C418 0.960 . S
H405 C418 0.961 . S
H406 C418 0.959 . S
H407 C421 0.929 . S
H408 C422 0.931 . S
H409 C424 0.930 . S
C410 H398 0.930 . S
C410 C411 1.399 . S
C410 C415 1.399 . S
C411 C410 1.399 . S
C411 C412 1.376 . S
C412 H399 0.930 . S
C412 C411 1.376 . S
C412 C413 1.388 . S
C413 H400 0.930 . S
C413 C412 1.388 . S
C413 C414 1.390 . S
C414 C413 1.390 . S
C414 C415 1.394 . S
C414 C420 1.465 . S
C415 C410 1.399 . S
C415 C414 1.394 . S
C415 C416 1.516 . S
C416 C415 1.516 . S
C416 C417 1.502 . S
C416 C418 1.561 . S
C416 C419 1.526 . S
C417 H401 0.959 . S
C417 H402 0.959 . S
C417 H403 0.961 . S
C417 C416 1.502 . S
C418 H404 0.960 . S
C418 H405 0.961 . S
C418 H406 0.959 . S
C418 C416 1.561 . S
C419 C416 1.526 . S
C419 C420 1.396 . S
C419 C424 1.390 . S
C420 C414 1.465 . S
C420 C419 1.396 . S
C420 C421 1.399 . S
C421 H407 0.929 . S
C421 C420 1.399 . S
C421 C422 1.385 . S
C422 H408 0.931 . S
C422 C421 1.385 . S
C422 C423 1.389 . S
C423 C422 1.389 . S
C423 C424 1.387 . S
C424 H409 0.930 . S
C424 C419 1.390 . S
C424 C423 1.387 . S
H425 C437 0.930 . S
H426 C439 0.930 . S
H427 C440 0.930 . S
H428 C444 0.959 . S
H429 C444 0.959 . S
H430 C444 0.961 . S
H431 C445 0.960 . S
H432 C445 0.961 . S
H433 C445 0.959 . S
H434 C448 0.925 1_455 S
H435 C449 0.931 . S
H436 C451 0.930 . S
C437 H425 0.930 . S
C437 C438 1.399 . S
C437 C442 1.399 . S
C438 C437 1.399 . S
C438 C439 1.376 . S
C439 H426 0.930 . S
C439 C438 1.376 . S
C439 C440 1.388 . S
C440 H427 0.930 . S
C440 C439 1.388 . S
C440 C441 1.390 . S
C441 C440 1.390 . S
C441 C442 1.394 . S
C441 C447 1.465 1_455 S
C442 C437 1.399 . S
C442 C441 1.394 . S
C442 C443 1.516 1_455 S
C443 C442 1.516 1_655 S
C443 C444 1.502 . S
C443 C445 1.561 . S
C443 C446 1.526 . S
C444 H428 0.959 . S
C444 H429 0.959 . S
C444 H430 0.961 . S
C444 C443 1.502 . S
C445 H431 0.960 . S
C445 H432 0.961 . S
C445 H433 0.959 . S
C445 C443 1.561 . S
C446 C443 1.526 . S
C446 C447 1.396 . S
C446 C451 1.390 . S
C447 C441 1.465 1_655 S
C447 C446 1.396 . S
C447 C448 1.399 . S
C448 H434 0.925 1_655 S
C448 C447 1.399 . S
C448 C449 1.385 . S
C449 H435 0.931 . S
C449 C448 1.385 . S
C449 C450 1.389 . S
C450 C449 1.389 . S
C450 C451 1.387 . S
C451 H436 0.930 . S
C451 C446 1.390 . S
C451 C450 1.387 . S
H452 C464 0.930 . S
H453 C466 0.930 . S
H454 C467 0.928 1_545 S
H455 C471 0.959 . S
H456 C471 0.959 . S
H457 C471 0.961 . S
H458 C472 0.960 . S
H459 C472 0.961 . S
H460 C472 0.959 . S
H461 C475 0.929 . S
H462 C476 0.931 . S
H463 C478 0.930 . S
C464 H452 0.930 . S
C464 C465 1.399 1_565 S
C464 C469 1.399 . S
C465 C464 1.399 1_545 S
C465 C466 1.376 . S
C466 H453 0.930 . S
C466 C465 1.376 . S
C466 C467 1.388 1_545 S
C467 H454 0.928 1_565 S
C467 C466 1.388 1_565 S
C467 C468 1.390 . S
C468 C467 1.390 . S
C468 C469 1.394 . S
C468 C474 1.465 . S
C469 C464 1.399 . S
C469 C468 1.394 . S
C469 C470 1.516 . S
C470 C469 1.516 . S
C470 C471 1.502 . S
C470 C472 1.561 . S
C470 C473 1.526 . S
C471 H455 0.959 . S
C471 H456 0.959 . S
C471 H457 0.961 . S
C471 C470 1.502 . S
C472 H458 0.960 . S
C472 H459 0.961 . S
C472 H460 0.959 . S
C472 C470 1.561 . S
C473 C470 1.526 . S
C473 C474 1.396 . S
C473 C478 1.390 . S
C474 C468 1.465 . S
C474 C473 1.396 . S
C474 C475 1.399 . S
C475 H461 0.929 . S
C475 C474 1.399 . S
C475 C476 1.385 . S
C476 H462 0.931 . S
C476 C475 1.385 . S
C476 C477 1.389 . S
C477 C476 1.389 . S
C477 C478 1.387 . S
C478 H463 0.930 . S
C478 C473 1.390 . S
C478 C477 1.387 . S
H479 C491 0.930 . S
H480 C493 0.930 . S
H481 C494 0.930 . S
H482 C498 0.959 . S
H483 C498 0.959 . S
H484 C498 0.961 . S
H485 C499 0.960 . S
H486 C499 0.961 . S
H487 C499 0.959 . S
H488 C502 0.929 . S
H489 C503 0.931 . S
H490 C505 0.930 . S
C491 H479 0.930 . S
C491 C492 1.399 . S
C491 C496 1.399 . S
C492 C491 1.399 . S
C492 C493 1.376 . S
C493 H480 0.930 . S
C493 C492 1.376 . S
C493 C494 1.388 . S
C494 H481 0.930 . S
C494 C493 1.388 . S
C494 C495 1.390 . S
C495 C494 1.390 . S
C495 C496 1.394 . S
C495 C501 1.465 . S
C496 C491 1.399 . S
C496 C495 1.394 . S
C496 C497 1.516 . S
C497 C496 1.516 . S
C497 C498 1.502 . S
C497 C499 1.561 . S
C497 C500 1.526 . S
C498 H482 0.959 . S
C498 H483 0.959 . S
C498 H484 0.961 . S
C498 C497 1.502 . S
C499 H485 0.960 . S
C499 H486 0.961 . S
C499 H487 0.959 . S
C499 C497 1.561 . S
C500 C497 1.526 . S
C500 C501 1.396 . S
C500 C505 1.390 . S
C501 C495 1.465 . S
C501 C500 1.396 . S
C501 C502 1.399 . S
C502 H488 0.929 . S
C502 C501 1.399 . S
C502 C503 1.385 . S
C503 H489 0.931 . S
C503 C502 1.385 . S
C503 C504 1.389 . S
C504 C503 1.389 . S
C504 C505 1.387 . S
C505 H490 0.930 . S
C505 C500 1.390 . S
C505 C504 1.387 . S
H506 C518 0.930 . S
H507 C520 0.930 . S
H508 C521 0.930 . S
H509 C525 0.959 . S
H510 C525 0.959 . S
H511 C525 0.961 . S
H512 C526 0.960 . S
H513 C526 0.961 . S
H514 C526 0.959 . S
H515 C529 0.929 . S
H516 C530 0.931 . S
H517 C532 0.930 . S
C518 H506 0.930 . S
C518 C519 1.399 1_545 S
C518 C523 1.399 . S
C519 C518 1.399 1_565 S
C519 C520 1.376 . S
C520 H507 0.930 . S
C520 C519 1.376 . S
C520 C521 1.388 . S
C521 H508 0.930 . S
C521 C520 1.388 . S
C521 C522 1.390 1_565 S
C522 C521 1.390 1_545 S
C522 C523 1.394 . S
C522 C528 1.465 . S
C523 C518 1.399 . S
C523 C522 1.394 . S
C523 C524 1.516 . S
C524 C523 1.516 . S
C524 C525 1.502 . S
C524 C526 1.561 . S
C524 C527 1.526 . S
C525 H509 0.959 . S
C525 H510 0.959 . S
C525 H511 0.961 . S
C525 C524 1.502 . S
C526 H512 0.960 . S
C526 H513 0.961 . S
C526 H514 0.959 . S
C526 C524 1.561 . S
C527 C524 1.526 . S
C527 C528 1.396 . S
C527 C532 1.390 . S
C528 C522 1.465 . S
C528 C527 1.396 . S
C528 C529 1.399 . S
C529 H515 0.929 . S
C529 C528 1.399 . S
C529 C530 1.385 . S
C530 H516 0.931 . S
C530 C529 1.385 . S
C530 C531 1.389 . S
C531 C530 1.389 . S
C531 C532 1.387 . S
C532 H517 0.930 . S
C532 C527 1.390 . S
C532 C531 1.387 . S
H533 C545 0.930 . S
H534 C547 0.930 . S
H535 C548 0.930 . S
H536 C552 0.959 . S
H537 C552 0.959 . S
H538 C552 0.961 . S
H539 C553 0.960 . S
H540 C553 0.961 . S
H541 C553 0.959 . S
H542 C556 0.929 . S
H543 C557 0.931 . S
H544 C559 0.930 . S
C545 H533 0.930 . S
C545 C546 1.399 . S
C545 C550 1.399 . S
C546 C545 1.399 . S
C546 C547 1.376 . S
C547 H534 0.930 . S
C547 C546 1.376 . S
C547 C548 1.388 . S
C548 H535 0.930 . S
C548 C547 1.388 . S
C548 C549 1.390 . S
C549 C548 1.390 . S
C549 C550 1.394 . S
C549 C555 1.465 . S
C550 C545 1.399 . S
C550 C549 1.394 . S
C550 C551 1.516 . S
C551 C550 1.516 . S
C551 C552 1.502 . S
C551 C553 1.561 . S
C551 C554 1.526 . S
C552 H536 0.959 . S
C552 H537 0.959 . S
C552 H538 0.961 . S
C552 C551 1.502 . S
C553 H539 0.960 . S
C553 H540 0.961 . S
C553 H541 0.959 . S
C553 C551 1.561 . S
C554 C551 1.526 . S
C554 C555 1.396 . S
C554 C559 1.390 . S
C555 C549 1.465 . S
C555 C554 1.396 . S
C555 C556 1.399 . S
C556 H542 0.929 . S
C556 C555 1.399 . S
C556 C557 1.385 . S
C557 H543 0.931 . S
C557 C556 1.385 . S
C557 C558 1.389 . S
C558 C557 1.389 . S
C558 C559 1.387 . S
C559 H544 0.930 . S
C559 C554 1.390 . S
C559 C558 1.387 . S
H560 C572 0.930 . S
H561 C574 0.930 . S
H562 C575 0.930 . S
H563 C579 0.959 . S
H564 C579 0.959 . S
H565 C579 0.961 . S
H566 C580 0.960 . S
H567 C580 0.961 . S
H568 C580 0.959 . S
H569 C583 0.929 . S
H570 C584 0.931 . S
H571 C586 0.930 . S
C572 H560 0.930 . S
C572 C573 1.399 . S
C572 C577 1.399 . S
C573 C572 1.399 . S
C573 C574 1.376 . S
C574 H561 0.930 . S
C574 C573 1.376 . S
C574 C575 1.388 . S
C575 H562 0.930 . S
C575 C574 1.388 . S
C575 C576 1.390 . S
C576 C575 1.390 . S
C576 C577 1.394 . S
C576 C582 1.465 . S
C577 C572 1.399 . S
C577 C576 1.394 . S
C577 C578 1.516 . S
C578 C577 1.516 . S
C578 C579 1.502 . S
C578 C580 1.561 . S
C578 C581 1.526 . S
C579 H563 0.959 . S
C579 H564 0.959 . S
C579 H565 0.961 . S
C579 C578 1.502 . S
C580 H566 0.960 . S
C580 H567 0.961 . S
C580 H568 0.959 . S
C580 C578 1.561 . S
C581 C578 1.526 . S
C581 C582 1.396 . S
C581 C586 1.390 . S
C582 C576 1.465 . S
C582 C581 1.396 . S
C582 C583 1.399 . S
C583 H569 0.929 . S
C583 C582 1.399 . S
C583 C584 1.385 . S
C584 H570 0.931 . S
C584 C583 1.385 . S
C584 C585 1.389 . S
C585 C584 1.389 . S
C585 C586 1.387 . S
C586 H571 0.930 . S
C586 C581 1.390 . S
C586 C585 1.387 . S
H587 C599 0.934 . S
H588 C601 0.930 . S
H589 C602 0.930 . S
H590 C606 0.959 . S
H591 C606 0.959 . S
H592 C606 0.961 . S
H593 C607 0.960 . S
H594 C607 0.961 . S
H595 C607 0.959 . S
H596 C610 0.929 . S
H597 C611 0.931 . S
H598 C613 0.930 . S
C599 H587 0.934 . S
C599 C600 1.422 . S
C599 C604 1.373 1_455 S
C600 C599 1.422 . S
C600 C601 1.376 . S
C601 H588 0.930 . S
C601 C600 1.376 . S
C601 C602 1.388 1_455 S
C602 H589 0.930 . S
C602 C601 1.388 1_655 S
C602 C603 1.390 . S
C603 C602 1.390 . S
C603 C604 1.394 . S
C603 C609 1.465 . S
C604 C599 1.373 1_655 S
C604 C603 1.394 . S
C604 C605 1.516 . S
C605 C604 1.516 . S
C605 C606 1.502 . S
C605 C607 1.561 . S
C605 C608 1.526 . S
C606 H590 0.959 . S
C606 H591 0.959 . S
C606 H592 0.961 . S
C606 C605 1.502 . S
C607 H593 0.960 . S
C607 H594 0.961 . S
C607 H595 0.959 . S
C607 C605 1.561 . S
C608 C605 1.526 . S
C608 C609 1.396 . S
C608 C613 1.390 . S
C609 C603 1.465 . S
C609 C608 1.396 . S
C609 C610 1.399 . S
C610 H596 0.929 . S
C610 C609 1.399 . S
C610 C611 1.385 . S
C611 H597 0.931 . S
C611 C610 1.385 . S
C611 C612 1.389 . S
C612 C611 1.389 . S
C612 C613 1.387 . S
C613 H598 0.930 . S
C613 C608 1.390 . S
C613 C612 1.387 . S
H614 C626 0.930 . S
H615 C628 0.930 . S
H616 C629 0.930 . S
H617 C633 0.959 . S
H618 C633 0.959 . S
H619 C633 0.961 . S
H620 C634 0.960 . S
H621 C634 0.961 . S
H622 C634 0.959 . S
H623 C637 0.929 . S
H624 C638 0.931 . S
H625 C640 0.930 . S
C626 H614 0.930 . S
C626 C627 1.399 . S
C626 C631 1.399 . S
C627 C626 1.399 . S
C627 C628 1.376 . S
C628 H615 0.930 . S
C628 C627 1.376 . S
C628 C629 1.388 . S
C629 H616 0.930 . S
C629 C628 1.388 . S
C629 C630 1.390 . S
C630 C629 1.390 . S
C630 C631 1.394 . S
C630 C636 1.465 . S
C631 C626 1.399 . S
C631 C630 1.394 . S
C631 C632 1.516 . S
C632 C631 1.516 . S
C632 C633 1.502 . S
C632 C634 1.561 . S
C632 C635 1.526 . S
C633 H617 0.959 . S
C633 H618 0.959 . S
C633 H619 0.961 . S
C633 C632 1.502 . S
C634 H620 0.960 . S
C634 H621 0.961 . S
C634 H622 0.959 . S
C634 C632 1.561 . S
C635 C632 1.526 . S
C635 C636 1.396 . S
C635 C640 1.390 . S
C636 C630 1.465 . S
C636 C635 1.396 . S
C636 C637 1.399 . S
C637 H623 0.929 . S
C637 C636 1.399 . S
C637 C638 1.385 . S
C638 H624 0.931 . S
C638 C637 1.385 . S
C638 C639 1.389 . S
C639 C638 1.389 . S
C639 C640 1.387 . S
C640 H625 0.930 . S
C640 C635 1.390 . S
C640 C639 1.387 . S
H641 C653 0.930 . S
H642 C655 0.930 . S
H643 C656 0.930 . S
H644 C660 0.959 . S
H645 C660 0.959 . S
H646 C660 0.961 . S
H647 C661 0.960 . S
H648 C661 0.961 . S
H649 C661 0.959 . S
H650 C664 0.929 . S
H651 C665 0.931 . S
H652 C667 0.930 . S
C653 H641 0.930 . S
C653 C654 1.399 . S
C653 C658 1.399 1_655 S
C654 C653 1.399 . S
C654 C655 1.376 . S
C655 H642 0.930 . S
C655 C654 1.376 . S
C655 C656 1.388 1_655 S
C656 H643 0.930 . S
C656 C655 1.388 1_455 S
C656 C657 1.390 . S
C657 C656 1.390 . S
C657 C658 1.394 . S
C657 C663 1.465 . S
C658 C653 1.399 1_455 S
C658 C657 1.394 . S
C658 C659 1.516 . S
C659 C658 1.516 . S
C659 C660 1.502 . S
C659 C661 1.561 . S
C659 C662 1.526 . S
C660 H644 0.959 . S
C660 H645 0.959 . S
C660 H646 0.961 . S
C660 C659 1.502 . S
C661 H647 0.960 . S
C661 H648 0.961 . S
C661 H649 0.959 . S
C661 C659 1.561 . S
C662 C659 1.526 . S
C662 C663 1.396 . S
C662 C667 1.390 . S
C663 C657 1.465 . S
C663 C662 1.396 . S
C663 C664 1.399 . S
C664 H650 0.929 . S
C664 C663 1.399 . S
C664 C665 1.385 . S
C665 H651 0.931 . S
C665 C664 1.385 . S
C665 C666 1.389 . S
C666 C665 1.389 . S
C666 C667 1.387 . S
C667 H652 0.930 . S
C667 C662 1.390 . S
C667 C666 1.387 . S
H668 C680 0.930 . S
H669 C682 0.930 . S
H670 C683 0.930 . S
H671 C687 0.959 . S
H672 C687 0.959 . S
H673 C687 0.961 . S
H674 C688 0.960 . S
H675 C688 0.961 . S
H676 C688 0.959 . S
H677 C691 0.929 . S
H678 C692 0.931 . S
H679 C694 0.930 . S
C680 H668 0.930 . S
C680 C681 1.399 . S
C680 C685 1.399 . S
C681 C680 1.399 . S
C681 C682 1.376 . S
C682 H669 0.930 . S
C682 C681 1.376 . S
C682 C683 1.388 . S
C683 H670 0.930 . S
C683 C682 1.388 . S
C683 C684 1.390 . S
C684 C683 1.390 . S
C684 C685 1.394 . S
C684 C690 1.465 . S
C685 C680 1.399 . S
C685 C684 1.394 . S
C685 C686 1.516 . S
C686 C685 1.516 . S
C686 C687 1.502 . S
C686 C688 1.561 . S
C686 C689 1.526 . S
C687 H671 0.959 . S
C687 H672 0.959 . S
C687 H673 0.961 . S
C687 C686 1.502 . S
C688 H674 0.960 . S
C688 H675 0.961 . S
C688 H676 0.959 . S
C688 C686 1.561 . S
C689 C686 1.526 . S
C689 C690 1.396 . S
C689 C694 1.390 . S
C690 C684 1.465 . S
C690 C689 1.396 . S
C690 C691 1.399 . S
C691 H677 0.929 . S
C691 C690 1.399 . S
C691 C692 1.385 . S
C692 H678 0.931 . S
C692 C691 1.385 . S
C692 C693 1.389 . S
C693 C692 1.389 . S
C693 C694 1.387 . S
C694 H679 0.930 . S
C694 C689 1.390 . S
C694 C693 1.387 . S
H695 C707 0.930 . S
H696 C709 0.930 . S
H697 C710 0.930 . S
H698 C714 0.959 . S
H699 C714 0.959 . S
H700 C714 0.961 . S
H701 C715 0.960 . S
H702 C715 0.961 . S
H703 C715 0.959 . S
H704 C718 0.929 . S
H705 C719 0.931 . S
H706 C721 0.930 . S
C707 H695 0.930 . S
C707 C708 1.399 . S
C707 C712 1.399 . S
C708 C707 1.399 . S
C708 C709 1.376 . S
C709 H696 0.930 . S
C709 C708 1.376 . S
C709 C710 1.388 . S
C710 H697 0.930 . S
C710 C709 1.388 . S
C710 C711 1.390 . S
C711 C710 1.390 . S
C711 C712 1.394 . S
C711 C717 1.465 . S
C712 C707 1.399 . S
C712 C711 1.394 . S
C712 C713 1.516 . S
C713 C712 1.516 . S
C713 C714 1.502 . S
C713 C715 1.561 . S
C713 C716 1.526 . S
C714 H698 0.959 . S
C714 H699 0.959 . S
C714 H700 0.961 . S
C714 C713 1.502 . S
C715 H701 0.960 . S
C715 H702 0.961 . S
C715 H703 0.959 . S
C715 C713 1.561 . S
C716 C713 1.526 . S
C716 C717 1.396 . S
C716 C721 1.390 . S
C717 C711 1.465 . S
C717 C716 1.396 . S
C717 C718 1.399 . S
C718 H704 0.929 . S
C718 C717 1.399 . S
C718 C719 1.385 . S
C719 H705 0.931 . S
C719 C718 1.385 . S
C719 C720 1.389 . S
C720 C719 1.389 . S
C720 C721 1.387 . S
C721 H706 0.930 . S
C721 C716 1.390 . S
C721 C720 1.387 . S
H722 C734 0.930 . S
H723 C736 0.930 . S
H724 C737 0.930 . S
H725 C741 0.959 . S
H726 C741 0.959 . S
H727 C741 0.961 . S
H728 C742 0.960 . S
H729 C742 0.961 . S
H730 C742 0.959 . S
H731 C745 0.929 . S
H732 C746 0.931 . S
H733 C748 0.930 . S
C734 H722 0.930 . S
C734 C735 1.399 . S
C734 C739 1.399 . S
C735 C734 1.399 . S
C735 C736 1.376 . S
C736 H723 0.930 . S
C736 C735 1.376 . S
C736 C737 1.388 . S
C737 H724 0.930 . S
C737 C736 1.388 . S
C737 C738 1.390 . S
C738 C737 1.390 . S
C738 C739 1.394 . S
C738 C744 1.465 . S
C739 C734 1.399 . S
C739 C738 1.394 . S
C739 C740 1.516 . S
C740 C739 1.516 . S
C740 C741 1.502 . S
C740 C742 1.561 . S
C740 C743 1.526 . S
C741 H725 0.959 . S
C741 H726 0.959 . S
C741 H727 0.961 . S
C741 C740 1.502 . S
C742 H728 0.960 . S
C742 H729 0.961 . S
C742 H730 0.959 . S
C742 C740 1.561 . S
C743 C740 1.526 . S
C743 C744 1.396 . S
C743 C748 1.390 . S
C744 C738 1.465 . S
C744 C743 1.396 . S
C744 C745 1.399 . S
C745 H731 0.929 . S
C745 C744 1.399 . S
C745 C746 1.385 . S
C746 H732 0.931 . S
C746 C745 1.385 . S
C746 C747 1.389 . S
C747 C746 1.389 . S
C747 C748 1.387 . S
C748 H733 0.930 . S
C748 C743 1.390 . S
C748 C747 1.387 . S
H749 C761 0.930 . S
H750 C763 0.930 . S
H751 C764 0.930 . S
H752 C768 0.959 . S
H753 C768 0.959 . S
H754 C768 0.961 . S
H755 C769 0.960 . S
H756 C769 0.961 . S
H757 C769 0.959 . S
H758 C772 0.929 . S
H759 C773 0.931 . S
H760 C775 0.930 . S
C761 H749 0.930 . S
C761 C762 1.399 . S
C761 C766 1.399 . S
C762 C761 1.399 . S
C762 C763 1.376 . S
C763 H750 0.930 . S
C763 C762 1.376 . S
C763 C764 1.388 . S
C764 H751 0.930 . S
C764 C763 1.388 . S
C764 C765 1.390 . S
C765 C764 1.390 . S
C765 C766 1.394 . S
C765 C771 1.465 . S
C766 C761 1.399 . S
C766 C765 1.394 . S
C766 C767 1.516 . S
C767 C766 1.516 . S
C767 C768 1.502 . S
C767 C769 1.561 . S
C767 C770 1.526 . S
C768 H752 0.959 . S
C768 H753 0.959 . S
C768 H754 0.961 . S
C768 C767 1.502 . S
C769 H755 0.960 . S
C769 H756 0.961 . S
C769 H757 0.959 . S
C769 C767 1.561 . S
C770 C767 1.526 . S
C770 C771 1.396 . S
C770 C775 1.390 . S
C771 C765 1.465 . S
C771 C770 1.396 . S
C771 C772 1.399 . S
C772 H758 0.929 . S
C772 C771 1.399 . S
C772 C773 1.385 . S
C773 H759 0.931 . S
C773 C772 1.385 . S
C773 C774 1.389 . S
C774 C773 1.389 . S
C774 C775 1.387 . S
C775 H760 0.930 . S
C775 C770 1.390 . S
C775 C774 1.387 . S
H776 C788 0.930 . S
H777 C790 0.930 . S
H778 C791 0.930 . S
H779 C795 0.959 . S
H780 C795 0.959 . S
H781 C795 0.961 . S
H782 C796 0.960 . S
H783 C796 0.961 . S
H784 C796 0.959 . S
H785 C799 0.929 . S
H786 C800 0.931 . S
H787 C802 0.930 . S
C788 H776 0.930 . S
C788 C789 1.399 . S
C788 C793 1.399 . S
C789 C788 1.399 . S
C789 C790 1.376 . S
C790 H777 0.930 . S
C790 C789 1.376 . S
C790 C791 1.388 . S
C791 H778 0.930 . S
C791 C790 1.388 . S
C791 C792 1.390 . S
C792 C791 1.390 . S
C792 C793 1.394 . S
C792 C798 1.465 . S
C793 C788 1.399 . S
C793 C792 1.394 . S
C793 C794 1.516 . S
C794 C793 1.516 . S
C794 C795 1.502 . S
C794 C796 1.561 . S
C794 C797 1.526 . S
C795 H779 0.959 . S
C795 H780 0.959 . S
C795 H781 0.961 . S
C795 C794 1.502 . S
C796 H782 0.960 . S
C796 H783 0.961 . S
C796 H784 0.959 . S
C796 C794 1.561 . S
C797 C794 1.526 . S
C797 C798 1.396 . S
C797 C802 1.390 . S
C798 C792 1.465 . S
C798 C797 1.396 . S
C798 C799 1.399 . S
C799 H785 0.929 . S
C799 C798 1.399 . S
C799 C800 1.385 . S
C800 H786 0.931 . S
C800 C799 1.385 . S
C800 C801 1.389 . S
C801 C800 1.389 . S
C801 C802 1.387 . S
C802 H787 0.930 . S
C802 C797 1.390 . S
C802 C801 1.387 . S
H803 C815 0.930 . S
H804 C817 0.930 . S
H805 C818 0.930 . S
H806 C822 0.959 . S
H807 C822 0.959 . S
H808 C822 0.961 . S
H809 C823 0.960 . S
H810 C823 0.961 . S
H811 C823 0.959 . S
H812 C826 0.929 . S
H813 C827 0.931 . S
H814 C829 0.930 . S
C815 H803 0.930 . S
C815 C816 1.399 . S
C815 C820 1.399 . S
C816 C815 1.399 . S
C816 C817 1.376 . S
C817 H804 0.930 . S
C817 C816 1.376 . S
C817 C818 1.388 . S
C818 H805 0.930 . S
C818 C817 1.388 . S
C818 C819 1.390 . S
C819 C818 1.390 . S
C819 C820 1.394 . S
C819 C825 1.465 . S
C820 C815 1.399 . S
C820 C819 1.394 . S
C820 C821 1.516 . S
C821 C820 1.516 . S
C821 C822 1.502 . S
C821 C823 1.561 . S
C821 C824 1.526 . S
C822 H806 0.959 . S
C822 H807 0.959 . S
C822 H808 0.961 . S
C822 C821 1.502 . S
C823 H809 0.960 . S
C823 H810 0.961 . S
C823 H811 0.959 . S
C823 C821 1.561 . S
C824 C821 1.526 . S
C824 C825 1.396 . S
C824 C829 1.390 . S
C825 C819 1.465 . S
C825 C824 1.396 . S
C825 C826 1.399 . S
C826 H812 0.929 . S
C826 C825 1.399 . S
C826 C827 1.385 . S
C827 H813 0.931 . S
C827 C826 1.385 . S
C827 C828 1.389 . S
C828 C827 1.389 . S
C828 C829 1.387 . S
C829 H814 0.930 . S
C829 C824 1.390 . S
C829 C828 1.387 . S
H830 C842 0.930 . S
H831 C844 0.930 . S
H832 C845 0.930 . S
H833 C849 0.959 . S
H834 C849 0.959 . S
H835 C849 0.961 . S
H836 C850 0.960 . S
H837 C850 0.961 . S
H838 C850 0.959 . S
H839 C853 0.929 . S
H840 C854 0.931 . S
H841 C856 0.930 . S
C842 H830 0.930 . S
C842 C843 1.399 . S
C842 C847 1.399 . S
C843 C842 1.399 . S
C843 C844 1.376 . S
C844 H831 0.930 . S
C844 C843 1.376 . S
C844 C845 1.388 . S
C845 H832 0.930 . S
C845 C844 1.388 . S
C845 C846 1.390 . S
C846 C845 1.390 . S
C846 C847 1.394 . S
C846 C852 1.465 . S
C847 C842 1.399 . S
C847 C846 1.394 . S
C847 C848 1.516 . S
C848 C847 1.516 . S
C848 C849 1.502 . S
C848 C850 1.561 . S
C848 C851 1.526 . S
C849 H833 0.959 . S
C849 H834 0.959 . S
C849 H835 0.961 . S
C849 C848 1.502 . S
C850 H836 0.960 . S
C850 H837 0.961 . S
C850 H838 0.959 . S
C850 C848 1.561 . S
C851 C848 1.526 . S
C851 C852 1.396 . S
C851 C856 1.390 . S
C852 C846 1.465 . S
C852 C851 1.396 . S
C852 C853 1.399 . S
C853 H839 0.929 . S
C853 C852 1.399 . S
C853 C854 1.385 . S
C854 H840 0.931 . S
C854 C853 1.385 . S
C854 C855 1.389 . S
C855 C854 1.389 . S
C855 C856 1.387 . S
C856 H841 0.930 . S
C856 C851 1.390 . S
C856 C855 1.387 . S
H857 C869 0.930 . S
H858 C871 0.930 . S
H859 C872 0.930 . S
H860 C876 0.959 . S
H861 C876 0.959 . S
H862 C876 0.961 . S
H863 C877 0.960 . S
H864 C877 0.961 . S
H865 C877 0.959 . S
H866 C880 0.929 . S
H867 C881 0.931 . S
H868 C883 0.930 . S
C869 H857 0.930 . S
C869 C870 1.399 . S
C869 C874 1.399 . S
C870 C869 1.399 . S
C870 C871 1.376 . S
C871 H858 0.930 . S
C871 C870 1.376 . S
C871 C872 1.388 . S
C872 H859 0.930 . S
C872 C871 1.388 . S
C872 C873 1.390 . S
C873 C872 1.390 . S
C873 C874 1.394 . S
C873 C879 1.465 . S
C874 C869 1.399 . S
C874 C873 1.394 . S
C874 C875 1.516 . S
C875 C874 1.516 . S
C875 C876 1.502 . S
C875 C877 1.561 . S
C875 C878 1.526 . S
C876 H860 0.959 . S
C876 H861 0.959 . S
C876 H862 0.961 . S
C876 C875 1.502 . S
C877 H863 0.960 . S
C877 H864 0.961 . S
C877 H865 0.959 . S
C877 C875 1.561 . S
C878 C875 1.526 . S
C878 C879 1.396 . S
C878 C883 1.390 . S
C879 C873 1.465 . S
C879 C878 1.396 . S
C879 C880 1.399 . S
C880 H866 0.929 . S
C880 C879 1.399 . S
C880 C881 1.385 . S
C881 H867 0.931 . S
C881 C880 1.385 . S
C881 C882 1.389 . S
C882 C881 1.389 . S
C882 C883 1.387 . S
C883 H868 0.930 . S
C883 C878 1.390 . S
C883 C882 1.387 . S
C249 C7 0.937 . S
C261 C86 0.875 . S
C276 C25 0.818 . S
C288 C105 0.973 . S
C303 C46 0.835 . S
C315 C128 0.725 . S
C342 C147 0.585 . S
C330 C70 0.769 . S
C369 C162 0.893 . S
C357 C28 0.756 . S
C384 C49 0.789 . S
C396 C185 0.695 . S
C411 C67 0.753 . S
C423 C204 0.792 . S
C438 C4 0.860 . S
C450 C219 0.992 . S
C465 C58 1.551 . S
C477 C223 1.690 . S
C504 C166 1.648 . S
C492 C66 1.580 . S
C531 C181 1.838 . S
C519 C3 1.723 . S
C546 C37 1.834 . S
C558 C200 1.861 . S
C585 C109 1.661 . S
C573 C79 1.609 . S
C600 C16 1.766 . S
C612 C124 1.831 . S
C639 C143 1.848 . S
C627 C24 1.740 . S
C666 C90 1.654 . S
C654 C45 1.563 . S
C693 C209 1.402 . S
C681 C19 1.366 . S
C720 C228 1.396 . S
C708 C41 1.352 . S
C735 C62 1.263 . S
C747 C171 1.247 . S
C774 C190 1.334 . S
C762 C82 1.292 . S
C801 C133 1.294 . S
C789 C40 1.257 . S
C816 C61 1.171 . S
C828 C152 1.224 . S
C855 C95 1.310 . S
C843 C83 1.305 . S
C882 C114 1.337 . S
C870 C20 1.413 . S
