# Generated by pormake.
# Topology pth, (4,4)-cn, num edge types: 1
# Building blocks:
#     Node 0, Type 0, BuildingBlock: KUFVIS_clean_sbu_0, # of connection points: 4
#     Node 1, Type 0, BuildingBlock: KUFVIS_clean_sbu_0, # of connection points: 4
#     Node 2, Type 0, BuildingBlock: KUFVIS_clean_sbu_0, # of connection points: 4
#     Node 3, Type 1, BuildingBlock: MUDLON_clean_linker_0, # of connection points: 4
#     Node 4, Type 1, BuildingBlock: MUDLON_clean_linker_0, # of connection points: 4
#     Node 5, Type 1, BuildingBlock: MUDLON_clean_linker_0, # of connection points: 4
#     Edge 6, Type (0, 1), BuildingBlock: FUNLAD_clean_linker_1, # of connection points: 2
#     Edge 7, Type (0, 1), BuildingBlock: FUNLAD_clean_linker_1, # of connection points: 2
#     Edge 8, Type (0, 1), BuildingBlock: FUNLAD_clean_linker_1, # of connection points: 2
#     Edge 9, Type (0, 1), BuildingBlock: FUNLAD_clean_linker_1, # of connection points: 2
#     Edge 10, Type (0, 1), BuildingBlock: FUNLAD_clean_linker_1, # of connection points: 2
#     Edge 11, Type (0, 1), BuildingBlock: FUNLAD_clean_linker_1, # of connection points: 2
#     Edge 12, Type (0, 1), BuildingBlock: FUNLAD_clean_linker_1, # of connection points: 2
#     Edge 13, Type (0, 1), BuildingBlock: FUNLAD_clean_linker_1, # of connection points: 2
#     Edge 14, Type (0, 1), BuildingBlock: FUNLAD_clean_linker_1, # of connection points: 2
#     Edge 15, Type (0, 1), BuildingBlock: FUNLAD_clean_linker_1, # of connection points: 2
#     Edge 16, Type (0, 1), BuildingBlock: FUNLAD_clean_linker_1, # of connection points: 2
#     Edge 17, Type (0, 1), BuildingBlock: FUNLAD_clean_linker_1, # of connection points: 2
# Relax obj value: 0.037
# Max RMSD: 0.104
# Mean RMSD: 0.093
data_MOF--net-pth--node1-KUFVIS_clean_sbu_0--node2-MUDLON_clean_linker_0--edge1-FUNLAD_clean_linker_1
_symmetry_space_group_name_H-M    P1
_symmetry_Int_Tables_number       1
_symmetry_cell_setting            triclinic
loop_
_symmetry_equiv_pos_as_xyz
'x, y, z'
_cell_length_a     34.177545
_cell_length_b     34.270814
_cell_length_c     71.064431
_cell_angle_alpha  90.394258
_cell_angle_beta   91.689023
_cell_angle_gamma 119.94288
loop_
_atom_site_label
_atom_site_type_symbol
_atom_site_fract_x
_atom_site_fract_y
_atom_site_fract_z
_atom_type_partial_charge
Mn0 Mn 0.03927 0.033 0.04751 0.0
Mn1 Mn 0.99195 0.07569 0.01772 0.0
C2 C 0.00753 0.99591 0.01896 0.0
C3 C 0.03307 0.98778 0.07286 0.0
C4 C 0.09331 0.11371 0.02284 0.0
O5 O 0.03259 0.07772 0.06421 0.0
O6 O 0.99519 0.09864 0.04381 0.0
C7 C 0.89976 0.0297 0.03245 0.0
N8 N 0.92757 0.04039 0.01769 0.0
C9 C 0.86434 1.00144 0.99569 0.0
C10 C 0.83496 0.99023 0.01064 0.0
C11 C 0.85277 0.00425 0.0291 0.0
C12 C 0.91084 0.02664 0.99991 0.0
H13 H 0.9134 0.04045 0.04665 0.0
C14 C 0.01237 0.09952 0.06014 0.0
O15 O 0.07208 0.02071 0.06824 0.0
O16 O 0.99779 0.98207 0.06319 0.0
N17 N 0.98589 0.05751 0.99179 0.0
C18 C 0.01889 0.07049 0.97903 0.0
C19 C 0.00692 0.06091 0.95978 0.0
C20 C 0.96111 0.03774 0.95385 0.0
C21 C 0.92772 0.02442 0.96724 0.0
C22 C 0.94177 0.03637 0.98614 0.0
H23 H 0.05409 0.08883 0.98346 0.0
O24 O 0.03703 0.98964 0.02825 0.0
O25 O 0.9967 0.02374 0.02673 0.0
O26 O 0.09199 0.08496 0.03446 0.0
O27 O 0.05817 0.11392 0.01632 0.0
C28 C 0.88106 0.99992 0.96258 0.0
C29 C 0.84939 0.98799 0.97683 0.0
H30 H 0.7987 0.97058 0.00812 0.0
H31 H 0.83031 0.99552 0.04072 0.0
H32 H 0.03292 0.07119 0.94955 0.0
H33 H 0.95197 0.02983 0.93903 0.0
H34 H 0.86918 0.98975 0.94811 0.0
H35 H 0.81363 0.96853 0.97312 0.0
Mn36 Mn 0.01952 0.03013 0.37812 0.0
Mn37 Mn 0.07401 0.12427 0.40557 0.0
C38 C 0.06818 0.03443 0.40268 0.0
C39 C 0.01394 0.98635 0.35188 0.0
C40 C 0.9747 0.05576 0.40864 0.0
O41 O 0.01461 0.07684 0.36221 0.0
O42 O 0.05465 0.13842 0.3811 0.0
C43 C 0.15495 0.17786 0.38327 0.0
N44 N 0.13633 0.15809 0.39972 0.0
C45 C 0.20929 0.19269 0.41576 0.0
C46 C 0.22929 0.21345 0.399 0.0
C47 C 0.20202 0.20568 0.38264 0.0
C48 C 0.16234 0.16441 0.4154 0.0
H49 H 0.134 0.17276 0.37078 0.0
C50 C 0.03209 0.11896 0.36585 0.0
O51 O 0.97836 0.98058 0.36029 0.0
O52 O 0.05285 0.01863 0.35824 0.0
N53 N 0.09508 0.11594 0.42962 0.0
C54 C 0.0705 0.09356 0.44466 0.0
C55 C 0.09288 0.09635 0.46194 0.0
C56 C 0.14014 0.12309 0.46372 0.0
C57 C 0.16458 0.14684 0.4482 0.0
C58 C 0.14052 0.142 0.43122 0.0
H59 H 0.03412 0.0736 0.44347 0.0
O60 O 0.03604 0.99582 0.39615 0.0
O61 O 0.07057 0.0696 0.39474 0.0
O62 O 0.97281 0.02874 0.39584 0.0
O63 O 0.01063 0.09242 0.41327 0.0
C64 C 0.21179 0.17572 0.44898 0.0
C65 C 0.23408 0.19888 0.43281 0.0
H66 H 0.26554 0.23534 0.39852 0.0
H67 H 0.2172 0.22158 0.36966 0.0
H68 H 0.07372 0.07828 0.47391 0.0
H69 H 0.15724 0.12551 0.47713 0.0
H70 H 0.23128 0.18031 0.46193 0.0
H71 H 0.27042 0.22077 0.43356 0.0
Mn72 Mn 0.04046 0.04837 0.71687 0.0
Mn73 Mn 0.99696 0.10605 0.73818 0.0
C74 C 0.08023 0.09782 0.74164 0.0
C75 C 0.08291 0.04328 0.69295 0.0
C76 C 0.96472 0.00737 0.74485 0.0
O77 O 0.99103 0.04163 0.69818 0.0
O78 O 0.96833 0.08544 0.71257 0.0
C79 C 0.03288 0.18493 0.71354 0.0
N80 N 0.02925 0.16762 0.73101 0.0
C81 C 0.07607 0.24152 0.74501 0.0
C82 C 0.08009 0.26017 0.72718 0.0
C83 C 0.05838 0.23174 0.71138 0.0
C84 C 0.04978 0.19468 0.74632 0.0
H85 H 0.01652 0.16318 0.70134 0.0
C86 C 0.96697 0.06047 0.69875 0.0
O87 O 0.0532 0.00747 0.70128 0.0
O88 O 0.08714 0.0815 0.69819 0.0
N89 N 0.02177 0.1284 0.76302 0.0
C90 C 0.01614 0.10493 0.77907 0.0
C91 C 0.03599 0.12837 0.79614 0.0
C92 C 0.06179 0.17562 0.79651 0.0
C93 C 0.06684 0.19906 0.77984 0.0
C94 C 0.04525 0.17395 0.76333 0.0
H95 H 0.99669 0.0686 0.77887 0.0
O96 O 0.08902 0.0664 0.73695 0.0
O97 O 0.04871 0.09948 0.7316 0.0
O98 O 0.99272 0.00373 0.73449 0.0
O99 O 0.9628 0.04346 0.74674 0.0
C100 C 0.09314 0.24628 0.77887 0.0
C101 C 0.09773 0.2675 0.76148 0.0
H102 H 0.10003 0.29623 0.72543 0.0
H103 H 0.06145 0.24586 0.69756 0.0
H104 H 0.03172 0.11003 0.80896 0.0
H105 H 0.0778 0.1935 0.80964 0.0
H106 H 0.1104 0.26657 0.79139 0.0
H107 H 0.11838 0.3038 0.76089 0.0
H108 H 0.93536 0.6623 0.23817 0.0
N109 N 0.99255 0.66559 0.2129 0.0
H110 H 0.95186 0.71422 0.26481 0.0
H111 H 0.07689 0.72809 0.22649 0.0
H112 H 0.09384 0.78118 0.25281 0.0
H113 H 0.07037 0.70174 0.1935 0.0
H114 H 0.08999 0.75512 0.16771 0.0
H115 H 0.93849 0.68863 0.19487 0.0
H116 H 0.95698 0.74062 0.16899 0.0
H117 H 0.92736 0.58771 0.19879 0.0
H118 H 0.06066 0.6502 0.22511 0.0
H119 H 0.92481 0.51536 0.19787 0.0
H120 H 0.05768 0.57734 0.22524 0.0
H121 H 0.90343 0.28744 0.22287 0.0
H122 H 0.90353 0.24392 0.25004 0.0
H123 H 0.04019 0.3479 0.26515 0.0
H124 H 0.03951 0.39081 0.23789 0.0
H125 H 0.05669 0.37637 0.20628 0.0
H126 H 0.07833 0.34051 0.18203 0.0
H127 H 0.94375 0.28099 0.15646 0.0
H128 H 0.92299 0.31735 0.18058 0.0
H129 H 0.90852 0.38405 0.21718 0.0
H130 H 0.91581 0.45853 0.21821 0.0
H131 H 0.05792 0.51859 0.20718 0.0
N132 N 0.97185 0.36322 0.21092 0.0
H133 H 0.05047 0.44374 0.20721 0.0
C134 C 1.00465 0.69141 0.23031 0.0
C135 C 0.97009 0.68767 0.24157 0.0
C136 C 0.97963 0.71801 0.25659 0.0
C137 C 0.02418 0.75317 0.26049 0.0
C138 C 0.05916 0.75491 0.24996 0.0
C139 C 0.04954 0.72444 0.23496 0.0
C140 C 1.00303 0.69166 0.19612 0.0
C141 C 0.04551 0.70998 0.18808 0.0
C142 C 0.05666 0.74048 0.17342 0.0
C143 C 0.02575 0.75341 0.16674 0.0
C144 C 0.98243 0.73303 0.17423 0.0
C145 C 0.97141 0.70269 0.18882 0.0
C146 C 0.99369 0.62413 0.21224 0.0
C147 C 0.95598 0.58562 0.20449 0.0
C148 C 0.95451 0.54418 0.20416 0.0
C149 C 0.99068 0.54003 0.21183 0.0
C150 C 0.02921 0.57912 0.21916 0.0
C151 C 0.03085 0.62088 0.21925 0.0
C152 C 0.97143 0.34196 0.22835 0.0
C153 C 0.93311 0.30091 0.23223 0.0
C154 C 0.93334 0.27612 0.24768 0.0
C155 C 0.97219 0.29163 0.25947 0.0
C156 C 0.01011 0.33399 0.25605 0.0
C157 C 0.0097 0.35893 0.24058 0.0
C158 C 0.98816 0.34974 0.19511 0.0
C159 C 0.03233 0.35671 0.19513 0.0
C160 C 0.04459 0.33598 0.1813 0.0
C161 C 0.01317 0.30822 0.16713 0.0
C162 C 0.96951 0.30292 0.16675 0.0
C163 C 0.95734 0.3236 0.1806 0.0
C164 C 0.97857 0.40818 0.21185 0.0
C165 C 0.94124 0.41338 0.21507 0.0
C166 C 0.9455 0.45605 0.21547 0.0
C167 C 0.98733 0.49484 0.21241 0.0
C168 C 0.0252 0.48966 0.20965 0.0
C169 C 0.02094 0.44673 0.20949 0.0
H170 H 0.75702 0.13168 0.55917 0.0
N171 N 0.67662 0.06877 0.54549 0.0
H172 H 0.79728 0.12904 0.58775 0.0
H173 H 0.6434 1.00243 0.57166 0.0
H174 H 0.68317 0.99975 0.60036 0.0
H175 H 0.67529 0.98916 0.54008 0.0
H176 H 0.71481 0.97341 0.51551 0.0
H177 H 0.70965 0.11546 0.5146 0.0
H178 H 0.74784 0.09947 0.48971 0.0
H179 H 0.65727 0.13439 0.54486 0.0
H180 H 0.59561 0.99004 0.54502 0.0
H181 H 0.58311 0.12809 0.54537 0.0
H182 H 0.52087 0.98295 0.54708 0.0
H183 H 0.34931 0.10599 0.56429 0.0
H184 H 0.30454 0.0929 0.59212 0.0
H185 H 0.3067 0.96952 0.60158 0.0
H186 H 0.35228 0.98347 0.57364 0.0
H187 H 0.29707 0.97165 0.54413 0.0
H188 H 0.24053 0.95287 0.51858 0.0
H189 H 0.33169 0.0751 0.49078 0.0
H190 H 0.38727 0.09547 0.51706 0.0
H191 H 0.45431 0.11221 0.56556 0.0
H192 H 0.52595 0.11317 0.56535 0.0
H193 H 0.46219 0.98894 0.53217 0.0
N194 N 0.37595 0.05244 0.54929 0.0
H195 H 0.38972 0.98672 0.53381 0.0
C196 C 0.69722 0.0676 0.56331 0.0
C197 C 0.74068 0.10296 0.56819 0.0
C198 C 0.76378 0.10107 0.58439 0.0
C199 C 0.74364 0.06356 0.59606 0.0
C200 C 0.69949 0.02885 0.59152 0.0
C201 C 0.67662 0.0305 0.57516 0.0
C202 C 0.69007 0.05382 0.52921 0.0
C203 C 0.69014 0.01284 0.52889 0.0
C204 C 0.71268 0.00388 0.51486 0.0
C205 C 0.73411 0.03495 0.50063 0.0
C206 C 0.73093 0.07432 0.50022 0.0
C207 C 0.70924 0.08365 0.51446 0.0
C208 C 0.63191 0.06291 0.54529 0.0
C209 C 0.62748 0.10129 0.54525 0.0
C210 C 0.58495 0.09748 0.54577 0.0
C211 C 0.54561 0.05498 0.54674 0.0
C212 C 0.55015 0.01626 0.54632 0.0
C213 C 0.59293 0.02019 0.54539 0.0
C214 C 0.35392 0.04578 0.56693 0.0
C215 C 0.34041 0.07638 0.5725 0.0
C216 C 0.31425 0.0684 0.58825 0.0
C217 C 0.30075 0.02924 0.59871 0.0
C218 C 0.31615 0.99963 0.59363 0.0
C219 C 0.3423 0.00762 0.57778 0.0
C220 C 0.34616 0.03575 0.53273 0.0
C221 C 0.30526 0.99435 0.53252 0.0
C222 C 0.273 0.98342 0.51788 0.0
C223 C 0.28196 0.01247 0.5028 0.0
C224 C 0.32427 0.05191 0.5022 0.0
C225 C 0.35593 0.0636 0.51716 0.0
C226 C 0.41688 0.04996 0.5495 0.0
C227 C 0.4558 0.08498 0.55842 0.0
C228 C 0.49691 0.08567 0.55805 0.0
C229 C 0.50051 0.05171 0.54832 0.0
C230 C 0.46096 0.01567 0.53985 0.0
C231 C 0.41942 0.01452 0.54061 0.0
H232 H 0.65954 0.77296 0.89858 0.0
N233 N 0.66336 0.71191 0.87675 0.0
H234 H 0.70761 0.81251 0.92644 0.0
H235 H 0.72533 0.69422 0.89382 0.0
H236 H 0.77234 0.73204 0.92166 0.0
H237 H 0.70824 0.67313 0.86115 0.0
H238 H 0.75851 0.70196 0.83446 0.0
H239 H 0.67451 0.77771 0.85435 0.0
H240 H 0.72258 0.80554 0.82736 0.0
H241 H 0.58235 0.69574 0.86502 0.0
H242 H 0.65234 0.63142 0.88891 0.0
H243 H 0.5106 0.62537 0.86652 0.0
H244 H 0.58055 0.56142 0.89156 0.0
H245 H 0.2955 0.42216 0.90321 0.0
H246 H 0.26256 0.38127 0.93189 0.0
H247 H 0.37015 0.34984 0.93744 0.0
H248 H 0.40258 0.39088 0.90876 0.0
H249 H 0.38174 0.35985 0.87711 0.0
H250 H 0.34493 0.30358 0.85165 0.0
H251 H 0.27128 0.36959 0.83341 0.0
H252 H 0.30857 0.42596 0.8589 0.0
H253 H 0.38567 0.51291 0.891 0.0
H254 H 0.45919 0.58098 0.88895 0.0
H255 H 0.51896 0.49926 0.87554 0.0
N256 N 0.36553 0.4284 0.88569 0.0
H257 H 0.44568 0.43145 0.8787 0.0
C258 C 0.6889 0.73088 0.89413 0.0
C259 C 0.68395 0.76382 0.90374 0.0
C260 C 0.71146 0.78633 0.9196 0.0
C261 C 0.74467 0.77644 0.92616 0.0
C262 C 0.74823 0.74184 0.91692 0.0
C263 C 0.7208 0.71952 0.90099 0.0
C264 C 0.68848 0.72404 0.85986 0.0
C265 C 0.71148 0.70211 0.85382 0.0
C266 C 0.74003 0.71853 0.83857 0.0
C267 C 0.74602 0.75707 0.82921 0.0
C268 C 0.72064 0.77709 0.83468 0.0
C269 C 0.69252 0.76088 0.84994 0.0
C270 C 0.62244 0.66904 0.87708 0.0
C271 C 0.58206 0.66633 0.87067 0.0
C272 C 0.54107 0.62615 0.87175 0.0
C273 C 0.53946 0.58772 0.87952 0.0
C274 C 0.58037 0.59016 0.88543 0.0
C275 C 0.62156 0.63039 0.88409 0.0
C276 C 0.35093 0.409 0.9038 0.0
C277 C 0.31213 0.40686 0.91081 0.0
C278 C 0.29343 0.38347 0.92715 0.0
C279 C 0.31289 0.36123 0.93671 0.0
C280 C 0.3533 0.36529 0.93018 0.0
C281 C 0.37218 0.38905 0.91382 0.0
C282 C 0.34797 0.39733 0.86982 0.0
C283 C 0.35828 0.36272 0.86749 0.0
C284 C 0.33702 0.33039 0.85299 0.0
C285 C 0.30444 0.33147 0.84085 0.0
C286 C 0.29522 0.36695 0.84286 0.0
C287 C 0.31686 0.39951 0.85724 0.0
C288 C 0.40994 0.46725 0.88476 0.0
C289 C 0.41478 0.50985 0.88771 0.0
C290 C 0.45681 0.54869 0.88634 0.0
C291 C 0.49512 0.54585 0.88173 0.0
C292 C 0.49037 0.50287 0.87918 0.0
C293 C 0.44823 0.46389 0.88081 0.0
H294 H 0.98562 0.14115 0.07134 0.0
C295 C 0.00774 0.12764 0.07472 0.0
H296 H 0.05458 0.12766 0.0949 0.0
H297 H 0.08409 0.31739 0.12609 0.0
H298 H 0.1541 0.34194 0.11015 0.0
H299 H 0.16643 0.28792 0.09178 0.0
H300 H 0.10861 0.20896 0.08916 0.0
C301 C 0.03053 0.13871 0.09142 0.0
C302 C 0.02572 0.1696 0.10478 0.0
C303 C 0.06039 0.21526 0.10673 0.0
C304 C 0.05358 0.24626 0.11762 0.0
C305 C 0.0879 0.29214 0.11847 0.0
C306 C 0.12817 0.30676 0.10928 0.0
C307 C 0.13509 0.27636 0.09891 0.0
C308 C 0.10164 0.23115 0.09753 0.0
H309 H 0.05349 0.27701 0.15874 0.0
C310 C 0.02567 0.28207 0.15424 0.0
H311 H 0.97599 0.26773 0.13264 0.0
H312 H 0.95472 0.08336 0.10569 0.0
H313 H 0.88525 0.0581 0.1222 0.0
H314 H 0.87331 0.11158 0.14116 0.0
H315 H 0.93067 0.19055 0.14374 0.0
C316 C 1.00367 0.26324 0.13774 0.0
C317 C 0.01243 0.23117 0.12691 0.0
C318 C 0.97844 0.18508 0.12551 0.0
C319 C 0.98517 0.15426 0.11451 0.0
C320 C 0.95096 0.10833 0.11358 0.0
C321 C 0.91104 0.09333 0.12307 0.0
C322 C 0.90433 0.12343 0.13375 0.0
C323 C 0.93752 0.16875 0.13506 0.0
H324 H 0.90057 0.02021 0.41115 0.0
C325 C 0.9325 0.04469 0.41802 0.0
H326 H 0.9645 0.08913 0.44125 0.0
H327 H 0.81419 0.1289 0.46482 0.0
H328 H 0.87218 0.20156 0.45462 0.0
H329 H 0.93837 0.20945 0.43832 0.0
H330 H 0.94724 0.14472 0.43244 0.0
C331 C 0.93258 0.0644 0.43446 0.0
C332 C 0.89019 0.05786 0.4428 0.0
C333 C 0.88464 0.09585 0.44557 0.0
C334 C 0.84568 0.09102 0.4544 0.0
C335 C 0.84231 0.13008 0.45775 0.0
C336 C 0.87552 0.17221 0.45201 0.0
C337 C 0.91281 0.17667 0.44288 0.0
C338 C 0.91753 0.13913 0.43967 0.0
H339 H 0.78356 0.01377 0.49401 0.0
C340 C 0.76473 0.02892 0.48807 0.0
H341 H 0.75324 0.05861 0.46425 0.0
H342 H 0.89192 0.97857 0.44183 0.0
H343 H 0.83093 0.90476 0.44952 0.0
H344 H 0.75908 0.89503 0.4608 0.0
H345 H 0.74849 0.95942 0.46505 0.0
C346 C 0.77243 0.04409 0.47039 0.0
C347 C 0.81145 0.04789 0.45993 0.0
C348 C 0.81582 0.00951 0.45621 0.0
C349 C 0.856 0.01471 0.44837 0.0
C350 C 0.86116 0.97635 0.4466 0.0
C351 C 0.82653 0.93375 0.45114 0.0
C352 C 0.78617 0.9283 0.45759 0.0
C353 C 0.78069 0.9656 0.46012 0.0
H354 H 0.91179 0.97467 0.76539 0.0
C355 C 0.9335 0.96911 0.75617 0.0
H356 H 0.95214 0.92166 0.74718 0.0
H357 H 0.86949 0.85819 0.83206 0.0
H358 H 0.94583 0.91386 0.84258 0.0
H359 H 1.00262 0.96059 0.81971 0.0
H360 H 0.98339 0.95182 0.78616 0.0
C361 C 0.93155 0.929 0.75629 0.0
C362 C 0.90095 0.89428 0.76945 0.0
C363 C 0.91296 0.89905 0.78891 0.0
C364 C 0.88023 0.87217 0.80206 0.0
C365 C 0.89295 0.87813 0.82148 0.0
C366 C 0.93668 0.90981 0.82769 0.0
C367 C 0.96866 0.93611 0.81482 0.0
C368 C 0.95715 0.9309 0.79563 0.0
H369 H 0.78941 0.75442 0.80706 0.0
C370 C 0.7794 0.77617 0.8141 0.0
H371 H 0.79338 0.84324 0.81773 0.0
H372 H 0.86986 0.87212 0.73296 0.0
H373 H 0.79406 0.81525 0.72218 0.0
H374 H 0.7364 0.7697 0.74495 0.0
H375 H 0.75404 0.78039 0.77854 0.0
C376 C 0.79967 0.81999 0.80973 0.0
C377 C 0.83559 0.84046 0.79571 0.0
C378 C 0.8246 0.83323 0.77611 0.0
C379 C 0.8576 0.85998 0.76295 0.0
C380 C 0.8458 0.85285 0.74348 0.0
C381 C 0.80253 0.82035 0.73713 0.0
C382 C 0.77008 0.79466 0.74996 0.0
C383 C 0.78071 0.80104 0.76923 0.0
H384 H 0.99426 0.93044 0.0911 0.0
C385 C 0.0283 0.95595 0.08765 0.0
H386 H 0.0981 0.98047 0.09275 0.0
H387 H 0.06463 0.88433 0.1719 0.0
H388 H 0.10223 0.96301 0.18192 0.0
H389 H 0.11938 0.02256 0.15893 0.0
H390 H 0.09921 0.00382 0.12574 0.0
C391 C 0.06378 0.95507 0.09584 0.0
C392 C 0.05677 0.91941 0.10944 0.0
C393 C 0.06898 0.93094 0.12874 0.0
C394 C 0.05859 0.89653 0.14202 0.0
C395 C 0.07116 0.90904 0.16124 0.0
C396 C 0.09288 0.95408 0.16718 0.0
C397 C 0.10258 0.98762 0.15423 0.0
C398 C 0.09082 0.97639 0.13522 0.0
H399 H 0.06666 0.79345 0.14302 0.0
C400 C 0.03948 0.78824 0.1521 0.0
H401 H 0.99672 0.81309 0.16018 0.0
H402 H 0.03623 0.8864 0.07308 0.0
H403 H 0.9978 0.80778 0.06303 0.0
H404 H 0.97493 0.74774 0.08625 0.0
H405 H 0.9911 0.76596 0.11958 0.0
C406 C 0.02107 0.81485 0.15027 0.0
C407 C 0.03596 0.85064 0.13599 0.0
C408 C 0.02502 0.83918 0.11657 0.0
C409 C 0.03635 0.87369 0.10325 0.0
C410 C 0.02679 0.86148 0.08387 0.0
C411 C 1.00501 0.81648 0.07789 0.0
C412 C 0.99228 0.7827 0.09096 0.0
C413 C 1.00201 0.79368 0.11008 0.0
H414 H 0.13344 0.03751 0.4012 0.0
C415 C 0.10886 0.03589 0.41097 0.0
H416 H 0.08592 0.02332 0.43834 0.0
H417 H 0.18055 0.92665 0.47368 0.0
H418 H 0.10129 0.8698 0.47436 0.0
H419 H 0.04323 0.88107 0.45795 0.0
H420 H 0.06403 0.94872 0.44062 0.0
C421 C 0.11308 0.0288 0.42924 0.0
C422 C 0.1496 0.02085 0.43724 0.0
C423 C 0.13674 0.98117 0.44762 0.0
C424 C 0.17005 0.97494 0.45743 0.0
C425 C 0.1564 0.934 0.46679 0.0
C426 C 0.11107 0.90081 0.46708 0.0
C427 C 0.07841 0.90715 0.45783 0.0
C428 C 0.09088 0.94653 0.44808 0.0
H429 H 0.21336 0.99851 0.49488 0.0
C430 C 0.24509 0.00464 0.48921 0.0
H431 H 0.28195 0.01257 0.46507 0.0
H432 H 0.18885 0.09865 0.41653 0.0
H433 H 0.2681 0.14908 0.41285 0.0
H434 H 0.32502 0.13901 0.43071 0.0
H435 H 0.30271 0.07667 0.45143 0.0
C436 C 0.25038 0.00735 0.47052 0.0
C437 C 0.21618 0.00897 0.45742 0.0
C438 C 0.22965 0.04633 0.44555 0.0
C439 C 0.19647 0.05241 0.43542 0.0
C440 C 0.21158 0.09075 0.42406 0.0
C441 C 0.25739 0.12075 0.42203 0.0
C442 C 0.28946 0.11505 0.43204 0.0
C443 C 0.27599 0.07878 0.44388 0.0
H444 H 0.11274 0.16661 0.75363 0.0
C445 C 0.11028 0.13409 0.75504 0.0
H446 H 0.1353 0.09711 0.76953 0.0
H447 H 0.27249 0.31894 0.78934 0.0
H448 H 0.28909 0.32622 0.75617 0.0
H449 H 0.2514 0.26033 0.73437 0.0
H450 H 0.19638 0.18702 0.74555 0.0
C451 C 0.13701 0.12944 0.76794 0.0
C452 C 0.166 0.16713 0.78145 0.0
C453 C 0.19974 0.20929 0.77482 0.0
C454 C 0.22292 0.24682 0.78752 0.0
C455 C 0.25476 0.28905 0.78038 0.0
C456 C 0.26454 0.29373 0.76137 0.0
C457 C 0.2432 0.25668 0.74908 0.0
C458 C 0.21132 0.21486 0.75566 0.0
H459 H 0.29728 0.27722 0.82144 0.0
C460 C 0.28044 0.29497 0.82639 0.0
H461 H 0.21857 0.29521 0.82605 0.0
H462 H 0.10648 0.09008 0.79915 0.0
H463 H 0.09241 0.08233 0.8325 0.0
H464 H 0.13349 0.14729 0.85456 0.0
H465 H 0.18913 0.22041 0.84335 0.0
C466 C 0.23773 0.28077 0.82027 0.0
C467 C 0.2137 0.24168 0.80693 0.0
C468 C 0.18145 0.19915 0.81369 0.0
C469 C 0.15784 0.16171 0.80097 0.0
C470 C 0.1257 0.11965 0.80815 0.0
C471 C 0.11719 0.11472 0.82729 0.0
C472 C 0.14027 0.1513 0.8397 0.0
C473 C 0.17208 0.19309 0.83307 0.0
H474 H 0.94109 0.03928 0.66939 0.0
C475 C 0.93759 0.05496 0.68209 0.0
H476 H 0.90525 0.08693 0.69455 0.0
H477 H 0.86105 0.16013 0.62153 0.0
H478 H 0.91743 0.22895 0.63756 0.0
H479 H 0.95965 0.22651 0.66585 0.0
H480 H 0.94545 0.15529 0.67839 0.0
C481 C 0.90826 0.07036 0.68203 0.0
C482 C 0.88361 0.07099 0.6645 0.0
C483 C 0.89285 0.11304 0.65717 0.0
C484 C 0.86924 0.11447 0.64062 0.0
C485 C 0.8785 0.15697 0.63387 0.0
C486 C 0.91073 0.19681 0.64295 0.0
C487 C 0.93444 0.19544 0.6589 0.0
C488 C 0.9258 0.15421 0.66598 0.0
H489 H 0.74801 0.04187 0.62497 0.0
C490 C 0.76782 0.05999 0.61306 0.0
H491 H 0.83299 0.09347 0.60192 0.0
H492 H 0.85384 0.98466 0.6759 0.0
H493 H 0.80055 0.91587 0.65893 0.0
H494 H 0.765 0.9185 0.62861 0.0
H495 H 0.78171 0.98989 0.61532 0.0
C496 C 0.81272 0.07617 0.61384 0.0
C497 C 0.83686 0.07389 0.63123 0.0
C498 C 0.82836 0.03182 0.6383 0.0
C499 C 0.85081 0.03034 0.65525 0.0
C500 C 0.83941 0.98785 0.66266 0.0
C501 C 0.80861 0.94804 0.65312 0.0
C502 C 0.78845 0.94952 0.63609 0.0
C503 C 0.79811 0.99079 0.62869 0.0
H504 H 0.99872 0.94911 0.99585 0.0
C505 C 0.98204 0.9644 0.00314 0.0
H506 H 0.9206 0.95907 0.00934 0.0
H507 H 0.87774 0.85037 0.92515 0.0
H508 H 0.94789 0.91116 0.91419 0.0
H509 H 1.00081 0.97255 0.93591 0.0
H510 H 0.9839 0.97353 0.96834 0.0
C511 C 0.93763 0.94791 0.99998 0.0
C512 C 0.90876 0.90954 0.9865 0.0
C513 C 0.91955 0.90984 0.96722 0.0
C514 C 0.88884 0.87466 0.95456 0.0
C515 C 0.89989 0.87597 0.9354 0.0
C516 C 0.94005 0.91075 0.92886 0.0
C517 C 0.96984 0.94518 0.94109 0.0
C518 C 0.95974 0.94503 0.95993 0.0
H519 H 0.76811 0.8279 0.94918 0.0
C520 C 0.77569 0.80434 0.94208 0.0
H521 H 0.82495 0.78423 0.93996 0.0
H522 H 0.87973 0.89375 0.0229 0.0
H523 H 0.80974 0.8321 0.03336 0.0
H524 H 0.75636 0.77254 0.01104 0.0
H525 H 0.77298 0.77455 0.97804 0.0
C526 C 0.81429 0.80507 0.9472 0.0
C527 C 0.84729 0.8397 0.96096 0.0
C528 C 0.8372 0.83829 0.9802 0.0
C529 C 0.86793 0.87299 0.99299 0.0
C530 C 0.85723 0.86961 0.01228 0.0
C531 C 0.81724 0.83395 0.01859 0.0
C532 C 0.78722 0.8004 0.00603 0.0
C533 C 0.79705 0.80218 0.98709 0.0
H534 H 0.97593 0.93109 0.33109 0.0
C535 C 0.00971 0.95516 0.33655 0.0
H536 H 0.07893 0.97474 0.33656 0.0
H537 H 0.02651 0.77488 0.31171 0.0
H538 H 0.05203 0.77808 0.34413 0.0
H539 H 0.07216 0.8443 0.36463 0.0
H540 H 0.06646 0.90757 0.35285 0.0
C541 C 0.04526 0.95268 0.33047 0.0
C542 C 0.03839 0.91554 0.31733 0.0
C543 C 0.04344 0.87951 0.32423 0.0
C544 C 0.03276 0.84172 0.31227 0.0
C545 C 0.03559 0.80509 0.31991 0.0
C546 C 0.04989 0.80632 0.33857 0.0
C547 C 0.06115 0.84356 0.35013 0.0
C548 C 0.05779 0.8797 0.34316 0.0
H549 H 0.07027 0.80982 0.27984 0.0
C550 C 0.03524 0.78941 0.27486 0.0
H551 H 0.97055 0.78339 0.27489 0.0
H552 H 0.02974 0.98115 0.29922 0.0
H553 H 1.00604 0.97913 0.26654 0.0
H554 H 0.98814 0.91407 0.24566 0.0
H555 H 0.99384 0.8507 0.25731 0.0
C556 C 1.00492 0.80057 0.28073 0.0
C557 C 0.01828 0.84069 0.29326 0.0
C558 C 0.01467 0.87748 0.28621 0.0
C559 C 0.02482 0.91496 0.29825 0.0
C560 C 0.02162 0.9515 0.29077 0.0
C561 C 0.00831 0.95089 0.27201 0.0
C562 C 0.99825 0.91427 0.26026 0.0
C563 C 1.00148 0.878 0.26716 0.0
H564 H 0.13429 0.07332 0.6716 0.0
C565 C 0.1124 0.04202 0.67856 0.0
H566 H 0.09341 0.97342 0.68112 0.0
H567 H 0.16718 0.9697 0.60001 0.0
H568 H 0.08668 0.91841 0.5949 0.0
H569 H 0.03336 0.90727 0.61975 0.0
H570 H 0.06019 0.94718 0.64989 0.0
C571 C 0.11532 0.00523 0.67454 0.0
C572 C 0.14792 0.00733 0.66054 0.0
C573 C 0.1317 0.98343 0.64311 0.0
C574 C 0.16239 0.99023 0.62871 0.0
C575 C 0.14526 0.96618 0.61135 0.0
C576 C 0.09917 0.93655 0.60825 0.0
C577 C 0.06915 0.93025 0.62225 0.0
C578 C 0.08501 0.95339 0.63948 0.0
H579 H 0.27231 0.9976 0.62588 0.0
C580 C 0.27062 0.01859 0.61485 0.0
H581 H 0.23493 0.04992 0.60423 0.0
H582 H 0.19105 0.05082 0.6937 0.0
H583 H 0.27147 0.10208 0.69888 0.0
H584 H 0.32421 0.11779 0.67328 0.0
H585 H 0.29702 0.08175 0.6425 0.0
C586 C 0.24003 0.03229 0.61583 0.0
C587 C 0.20922 0.02087 0.63179 0.0
C588 C 0.22574 0.04305 0.64958 0.0
C589 C 0.19512 0.03551 0.6641 0.0
C590 C 0.21262 0.05675 0.68195 0.0
C591 C 0.25874 0.08599 0.68516 0.0
C592 C 0.28844 0.09471 0.67077 0.0
C593 C 0.27235 0.07363 0.65316 0.0
H594 H 0.16776 0.14673 0.02106 0.0
C595 C 0.13775 0.14697 0.01572 0.0
H596 H 0.11146 0.17459 0.99595 0.0
H597 H 0.31594 0.34245 0.9909 0.0
H598 H 0.30524 0.36381 0.0222 0.0
H599 H 0.23896 0.31227 0.04018 0.0
H600 H 0.18323 0.23886 0.02708 0.0
C601 C 0.14135 0.17513 0.00194 0.0
C602 C 0.18452 0.20378 0.99258 0.0
C603 C 0.21658 0.24647 0.00044 0.0
C604 C 0.25423 0.2766 0.9899 0.0
C605 C 0.28614 0.31882 0.99814 0.0
C606 C 0.28052 0.33135 0.01611 0.0
C607 C 0.24324 0.3023 0.02625 0.0
C608 C 0.2115 0.2603 0.01857 0.0
H609 H 0.26128 0.3366 0.95833 0.0
C610 C 0.28836 0.33254 0.95271 0.0
H611 H 0.31768 0.29076 0.95286 0.0
H612 H 0.13247 0.12214 0.9746 0.0
H613 H 0.14332 0.10035 0.94349 0.0
H614 H 0.20738 0.15323 0.92478 0.0
H615 H 0.26089 0.228 0.93706 0.0
C616 C 0.29326 0.29815 0.9589 0.0
C617 C 0.25911 0.26425 0.97139 0.0
C618 C 0.22859 0.22038 0.96404 0.0
C619 C 0.1913 0.19012 0.97469 0.0
C620 C 0.16094 0.14669 0.96696 0.0
C621 C 0.16689 0.13368 0.94916 0.0
C622 C 0.20298 0.16343 0.93865 0.0
C623 C 0.23352 0.20631 0.9459 0.0
H624 H 0.04558 0.18426 0.35493 0.0
C625 C 0.02745 0.14818 0.35187 0.0
H626 H 0.98485 0.09689 0.33215 0.0
H627 H 0.97571 0.28384 0.31154 0.0
H628 H 0.94008 0.27411 0.34146 0.0
H629 H 0.92977 0.21272 0.36234 0.0
H630 H 0.956 0.16137 0.35359 0.0
C631 C 1.00235 0.13264 0.33578 0.0
C632 C 1.00117 0.16454 0.32189 0.0
C633 C 0.98341 0.19275 0.32676 0.0
C634 C 0.98709 0.22658 0.31425 0.0
C635 C 0.97197 0.25628 0.32008 0.0
C636 C 0.95171 0.25127 0.3373 0.0
C637 C 0.94608 0.21684 0.34909 0.0
C638 C 0.96164 0.18782 0.34396 0.0
H639 H 0.93904 0.23473 0.27882 0.0
C640 C 0.97171 0.2621 0.27482 0.0
H641 H 0.0424 0.28945 0.27832 0.0
H642 H 0.03672 0.11474 0.30782 0.0
H643 H 0.06806 0.12135 0.27708 0.0
H644 H 0.07081 0.1773 0.2547 0.0
H645 H 0.0426 0.22724 0.26299 0.0
C646 C 0.00915 0.26491 0.28291 0.0
C647 C 1.00616 0.23046 0.29641 0.0
C648 C 0.02225 0.20103 0.29124 0.0
C649 C 0.01992 0.16819 0.30402 0.0
C650 C 0.03711 0.13992 0.29861 0.0
C651 C 0.05525 0.14337 0.28099 0.0
C652 C 0.05685 0.17489 0.26841 0.0
C653 C 0.04061 0.20345 0.27338 0.0
loop_
_geom_bond_atom_site_label_1
_geom_bond_atom_site_label_2
_geom_bond_distance
_geom_bond_site_symmetry_2
_ccdc_geom_bond_type
Mn0 O5 2.095 . S
Mn0 O15 2.141 1_545 S
Mn0 O16 2.297 1_545 S
Mn0 O24 2.385 1_545 S
Mn0 O25 2.209 1_455 S
Mn0 O26 2.094 . S
Mn1 O6 2.121 . S
Mn1 N8 2.257 . S
Mn1 N17 2.282 1_554 S
Mn1 O25 2.215 . S
Mn1 O27 2.117 1_655 S
C2 O24 1.234 1_655 S
C2 O25 1.283 1_565 S
C3 O15 1.287 . S
C3 O16 1.236 . S
C4 O26 1.240 . S
C4 O27 1.264 . S
O5 Mn0 2.095 . S
O5 C14 1.250 . S
O6 Mn1 2.121 . S
O6 C14 1.258 1_655 S
C7 N8 1.326 . S
C7 C11 1.460 . S
C7 H13 0.929 . S
N8 Mn1 2.257 . S
N8 C7 1.326 . S
N8 C12 1.362 . S
C9 C10 1.227 1_556 S
C9 C12 1.424 1_556 S
C9 C29 1.490 . S
C10 C9 1.227 1_554 S
C10 C11 1.477 . S
C10 H30 0.931 . S
C11 C7 1.460 . S
C11 C10 1.477 . S
C11 H31 0.930 . S
C12 N8 1.362 . S
C12 C9 1.424 1_554 S
C12 C22 1.476 1_554 S
H13 C7 0.929 . S
C14 O5 1.250 . S
C14 O6 1.258 1_455 S
O15 Mn0 2.141 1_565 S
O15 C3 1.287 . S
O16 Mn0 2.297 1_565 S
O16 C3 1.236 . S
N17 Mn1 2.282 1_556 S
N17 C18 1.328 . S
N17 C22 1.318 . S
C18 N17 1.328 . S
C18 C19 1.457 . S
C18 H23 0.929 1_655 S
C19 C18 1.457 . S
C19 C20 1.291 . S
C19 H32 0.931 . S
C20 C19 1.291 . S
C20 C21 1.373 . S
C20 H33 0.929 . S
C21 C20 1.373 . S
C21 C22 1.396 . S
C21 C28 1.403 . S
C22 C12 1.476 1_556 S
C22 N17 1.318 . S
C22 C21 1.396 . S
H23 C18 0.929 1_455 S
O24 Mn0 2.385 1_565 S
O24 C2 1.234 1_455 S
O25 Mn0 2.209 1_655 S
O25 Mn1 2.215 . S
O25 C2 1.283 1_545 S
O26 Mn0 2.094 . S
O26 C4 1.240 . S
O27 Mn1 2.117 1_455 S
O27 C4 1.264 . S
C28 C21 1.403 . S
C28 C29 1.399 . S
C28 H34 0.926 1_545 S
C29 C9 1.490 . S
C29 C28 1.399 . S
C29 H35 0.930 . S
H30 C10 0.931 . S
H31 C11 0.930 . S
H32 C19 0.931 . S
H33 C20 0.929 . S
H34 C28 0.926 1_565 S
H35 C29 0.930 . S
Mn36 O41 2.095 . S
Mn36 O51 2.162 1_545 S
Mn36 O52 2.297 1_645 S
Mn36 O60 2.385 1_645 S
Mn36 O61 2.209 1_655 S
Mn36 O62 2.094 1_545 S
Mn37 O42 2.121 . S
Mn37 N44 2.257 . S
Mn37 N53 2.282 . S
Mn37 O61 2.215 . S
Mn37 O63 2.117 1_455 S
C38 O60 1.234 1_545 S
C38 O61 1.283 . S
C39 O51 1.266 1_455 S
C39 O52 1.243 . S
C40 O62 1.240 1_545 S
C40 O63 1.264 . S
O41 Mn36 2.095 . S
O41 C50 1.250 1_655 S
O42 Mn37 2.121 . S
O42 C50 1.258 . S
C43 N44 1.326 . S
C43 C47 1.460 . S
C43 H49 0.929 . S
N44 Mn37 2.257 . S
N44 C43 1.326 . S
N44 C48 1.362 . S
C45 C46 1.258 . S
C45 C48 1.431 . S
C45 C65 1.449 . S
C46 C45 1.258 . S
C46 C47 1.477 . S
C46 H66 0.931 . S
C47 C43 1.460 . S
C47 C46 1.477 . S
C47 H67 0.930 . S
C48 N44 1.362 . S
C48 C45 1.431 . S
C48 C58 1.476 . S
H49 C43 0.929 . S
C50 O41 1.250 1_455 S
C50 O42 1.258 . S
O51 Mn36 2.162 1_565 S
O51 C39 1.266 1_655 S
O52 Mn36 2.297 1_465 S
O52 C39 1.243 . S
N53 Mn37 2.282 . S
N53 C54 1.328 . S
N53 C58 1.318 . S
C54 N53 1.328 . S
C54 C55 1.457 . S
C54 H59 0.929 . S
C55 C54 1.457 . S
C55 C56 1.291 . S
C55 H68 0.931 . S
C56 C55 1.291 . S
C56 C57 1.373 . S
C56 H69 0.929 . S
C57 C56 1.373 . S
C57 C58 1.396 . S
C57 C64 1.403 . S
C58 C48 1.476 . S
C58 N53 1.318 . S
C58 C57 1.396 . S
H59 C54 0.929 . S
O60 Mn36 2.385 1_465 S
O60 C38 1.234 1_565 S
O61 Mn36 2.209 1_455 S
O61 Mn37 2.215 . S
O61 C38 1.283 . S
O62 Mn36 2.094 1_565 S
O62 C40 1.240 1_565 S
O63 Mn37 2.117 1_655 S
O63 C40 1.264 . S
C64 C57 1.403 . S
C64 C65 1.399 . S
C64 H70 0.929 . S
C65 C45 1.449 . S
C65 C64 1.399 . S
C65 H71 0.930 . S
H66 C46 0.931 . S
H67 C47 0.930 . S
H68 C55 0.931 . S
H69 C56 0.929 . S
H70 C64 0.929 . S
H71 C65 0.930 . S
Mn72 O77 2.095 1_455 S
Mn72 O87 2.162 1_545 S
Mn72 O88 2.297 . S
Mn72 O96 2.385 . S
Mn72 O97 2.209 . S
Mn72 O98 2.094 1_445 S
Mn73 O78 2.121 . S
Mn73 N80 2.257 . S
Mn73 N89 2.288 . S
Mn73 O97 2.215 1_655 S
Mn73 O99 2.117 . S
C74 O96 1.234 . S
C74 O97 1.283 . S
C75 O87 1.281 1_545 S
C75 O88 1.236 . S
C76 O98 1.240 . S
C76 O99 1.264 1_565 S
O77 Mn72 2.095 1_655 S
O77 C86 1.250 . S
O78 Mn73 2.121 . S
O78 C86 1.258 . S
C79 N80 1.326 . S
C79 C83 1.460 . S
C79 H85 0.929 . S
N80 Mn73 2.257 . S
N80 C79 1.326 . S
N80 C84 1.362 1_655 S
C81 C82 1.258 . S
C81 C84 1.431 . S
C81 C101 1.449 . S
C82 C81 1.258 . S
C82 C83 1.477 1_455 S
C82 H102 0.931 . S
C83 C79 1.460 . S
C83 C82 1.477 1_655 S
C83 H103 0.930 . S
C84 N80 1.362 1_455 S
C84 C81 1.431 . S
C84 C94 1.476 . S
H85 C79 0.929 . S
C86 O77 1.250 . S
C86 O78 1.258 . S
O87 Mn72 2.162 1_565 S
O87 C75 1.281 1_565 S
O88 Mn72 2.297 . S
O88 C75 1.236 . S
N89 Mn73 2.288 . S
N89 C90 1.315 1_655 S
N89 C94 1.323 1_655 S
C90 N89 1.315 1_455 S
C90 C91 1.457 . S
C90 H95 0.929 1_455 S
C91 C90 1.457 . S
C91 C92 1.291 . S
C91 H104 0.931 . S
C92 C91 1.291 . S
C92 C93 1.373 . S
C92 H105 0.929 . S
C93 C92 1.373 . S
C93 C94 1.396 . S
C93 C100 1.403 . S
C94 C84 1.476 . S
C94 N89 1.323 1_455 S
C94 C93 1.396 . S
H95 C90 0.929 1_655 S
O96 Mn72 2.385 . S
O96 C74 1.234 . S
O97 Mn72 2.209 . S
O97 Mn73 2.215 1_455 S
O97 C74 1.283 . S
O98 Mn72 2.094 1_665 S
O98 C76 1.240 . S
O99 Mn73 2.117 . S
O99 C76 1.264 1_545 S
C100 C93 1.403 . S
C100 C101 1.399 . S
C100 H106 0.929 . S
C101 C81 1.449 . S
C101 C100 1.399 . S
C101 H107 0.930 . S
H102 C82 0.931 . S
H103 C83 0.930 . S
H104 C91 0.931 . S
H105 C92 0.929 . S
H106 C100 0.929 . S
H107 C101 0.930 . S
H108 C135 0.929 . S
N109 C134 1.434 1_655 S
N109 C140 1.436 1_655 S
N109 C146 1.420 . S
H110 C136 0.930 . S
H111 C139 0.931 . S
H112 C138 0.929 . S
H113 C141 0.930 . S
H114 C142 0.932 . S
H115 C145 0.929 . S
H116 C144 0.931 . S
H117 C147 0.929 . S
H118 C151 0.932 . S
H119 C148 0.931 . S
H120 C150 0.929 . S
H121 C153 0.929 . S
H122 C154 0.930 . S
H123 C156 0.929 . S
H124 C157 0.931 . S
H125 C159 0.930 . S
H126 C160 0.932 . S
H127 C162 0.931 . S
H128 C163 0.929 . S
H129 C165 0.929 . S
H130 C166 0.931 . S
H131 C168 0.929 . S
N132 C152 1.431 1_655 S
N132 C158 1.431 1_655 S
N132 C164 1.428 . S
H133 C169 0.932 . S
C134 N109 1.434 1_455 S
C134 C135 1.363 1_455 S
C134 C139 1.370 . S
C135 H108 0.929 . S
C135 C134 1.363 1_655 S
C135 C136 1.385 . S
C136 H110 0.930 . S
C136 C135 1.385 . S
C136 C137 1.357 1_655 S
C137 C136 1.357 1_455 S
C137 C138 1.406 . S
C138 H112 0.929 . S
C138 C137 1.406 . S
C138 C139 1.391 . S
C139 H111 0.931 . S
C139 C134 1.370 . S
C139 C138 1.391 . S
C140 N109 1.436 1_455 S
C140 C141 1.358 . S
C140 C145 1.371 1_455 S
C141 H113 0.930 . S
C141 C140 1.358 . S
C141 C142 1.405 . S
C142 H114 0.932 . S
C142 C141 1.405 . S
C142 C143 1.383 . S
C143 C142 1.383 . S
C143 C144 1.393 1_455 S
C144 H116 0.931 . S
C144 C143 1.393 1_655 S
C144 C145 1.382 . S
C145 H115 0.929 . S
C145 C140 1.371 1_655 S
C145 C144 1.382 . S
C146 N109 1.420 . S
C146 C147 1.362 . S
C146 C151 1.388 1_655 S
C147 H117 0.929 . S
C147 C146 1.362 . S
C147 C148 1.376 . S
C148 H119 0.931 . S
C148 C147 1.376 . S
C148 C149 1.396 . S
C149 C148 1.396 . S
C149 C150 1.348 1_655 S
C149 C167 1.472 . S
C150 H120 0.929 . S
C150 C149 1.348 1_455 S
C150 C151 1.443 . S
C151 H118 0.932 . S
C151 C146 1.388 1_455 S
C151 C150 1.443 . S
C152 N132 1.431 1_455 S
C152 C153 1.363 1_455 S
C152 C157 1.370 . S
C153 H121 0.929 . S
C153 C152 1.363 1_655 S
C153 C154 1.385 . S
C154 H122 0.930 . S
C154 C153 1.385 . S
C154 C155 1.357 1_655 S
C155 C154 1.357 1_455 S
C155 C156 1.406 . S
C156 H123 0.929 . S
C156 C155 1.406 . S
C156 C157 1.391 . S
C157 H124 0.931 . S
C157 C152 1.370 . S
C157 C156 1.391 . S
C158 N132 1.431 1_455 S
C158 C159 1.358 . S
C158 C163 1.371 1_455 S
C159 H125 0.930 . S
C159 C158 1.358 . S
C159 C160 1.405 . S
C160 H126 0.932 . S
C160 C159 1.405 . S
C160 C161 1.383 . S
C161 C160 1.383 . S
C161 C162 1.393 1_455 S
C162 H127 0.931 . S
C162 C161 1.393 1_655 S
C162 C163 1.382 . S
C163 H128 0.929 . S
C163 C158 1.371 1_655 S
C163 C162 1.382 . S
C164 N132 1.428 . S
C164 C165 1.362 . S
C164 C169 1.388 1_655 S
C165 H129 0.929 . S
C165 C164 1.362 . S
C165 C166 1.376 . S
C166 H130 0.931 . S
C166 C165 1.376 . S
C166 C167 1.396 . S
C167 C149 1.472 . S
C167 C166 1.396 . S
C167 C168 1.348 1_655 S
C168 H131 0.929 . S
C168 C167 1.348 1_455 S
C168 C169 1.443 . S
C169 H133 0.932 . S
C169 C164 1.388 1_455 S
C169 C168 1.443 . S
H170 C197 0.929 . S
N171 C196 1.433 . S
N171 C202 1.435 . S
N171 C208 1.423 . S
H172 C198 0.930 . S
H173 C201 0.931 . S
H174 C200 0.929 . S
H175 C203 0.930 . S
H176 C204 0.932 . S
H177 C207 0.929 . S
H178 C206 0.931 . S
H179 C209 0.929 . S
H180 C213 0.932 . S
H181 C210 0.931 . S
H182 C212 0.929 . S
H183 C215 0.929 . S
H184 C216 0.930 . S
H185 C218 0.929 . S
H186 C219 0.931 . S
H187 C221 0.930 . S
H188 C222 0.932 . S
H189 C224 0.931 . S
H190 C225 0.929 . S
H191 C227 0.929 . S
H192 C228 0.931 . S
H193 C230 0.929 . S
N194 C214 1.433 . S
N194 C220 1.435 . S
N194 C226 1.423 . S
H195 C231 0.932 . S
C196 N171 1.433 . S
C196 C197 1.363 . S
C196 C201 1.370 . S
C197 H170 0.929 . S
C197 C196 1.363 . S
C197 C198 1.385 . S
C198 H172 0.930 . S
C198 C197 1.385 . S
C198 C199 1.357 . S
C199 C198 1.357 . S
C199 C200 1.406 . S
C200 H174 0.929 . S
C200 C199 1.406 . S
C200 C201 1.391 . S
C201 H173 0.931 . S
C201 C196 1.370 . S
C201 C200 1.391 . S
C202 N171 1.435 . S
C202 C203 1.358 . S
C202 C207 1.371 . S
C203 H175 0.930 . S
C203 C202 1.358 . S
C203 C204 1.405 . S
C204 H176 0.932 . S
C204 C203 1.405 . S
C204 C205 1.383 . S
C205 C204 1.383 . S
C205 C206 1.393 . S
C206 H178 0.931 . S
C206 C205 1.393 . S
C206 C207 1.382 . S
C207 H177 0.929 . S
C207 C202 1.371 . S
C207 C206 1.382 . S
C208 N171 1.423 . S
C208 C209 1.362 . S
C208 C213 1.388 . S
C209 H179 0.929 . S
C209 C208 1.362 . S
C209 C210 1.376 . S
C210 H181 0.931 . S
C210 C209 1.376 . S
C210 C211 1.396 . S
C211 C210 1.396 . S
C211 C212 1.348 . S
C211 C229 1.472 . S
C212 H182 0.929 . S
C212 C211 1.348 . S
C212 C213 1.443 . S
C213 H180 0.932 . S
C213 C208 1.388 . S
C213 C212 1.443 . S
C214 N194 1.433 . S
C214 C215 1.363 . S
C214 C219 1.370 . S
C215 H183 0.929 . S
C215 C214 1.363 . S
C215 C216 1.385 . S
C216 H184 0.930 . S
C216 C215 1.385 . S
C216 C217 1.357 . S
C217 C216 1.357 . S
C217 C218 1.406 . S
C218 H185 0.929 . S
C218 C217 1.406 . S
C218 C219 1.391 . S
C219 H186 0.931 . S
C219 C214 1.370 . S
C219 C218 1.391 . S
C220 N194 1.435 . S
C220 C221 1.358 . S
C220 C225 1.371 . S
C221 H187 0.930 . S
C221 C220 1.358 . S
C221 C222 1.405 . S
C222 H188 0.932 . S
C222 C221 1.405 . S
C222 C223 1.383 . S
C223 C222 1.383 . S
C223 C224 1.393 . S
C224 H189 0.931 . S
C224 C223 1.393 . S
C224 C225 1.382 . S
C225 H190 0.929 . S
C225 C220 1.371 . S
C225 C224 1.382 . S
C226 N194 1.423 . S
C226 C227 1.362 . S
C226 C231 1.388 . S
C227 H191 0.929 . S
C227 C226 1.362 . S
C227 C228 1.376 . S
C228 H192 0.931 . S
C228 C227 1.376 . S
C228 C229 1.396 . S
C229 C211 1.472 . S
C229 C228 1.396 . S
C229 C230 1.348 . S
C230 H193 0.929 . S
C230 C229 1.348 . S
C230 C231 1.443 . S
C231 H195 0.932 . S
C231 C226 1.388 . S
C231 C230 1.443 . S
H232 C259 0.929 . S
N233 C258 1.433 . S
N233 C264 1.435 . S
N233 C270 1.423 . S
H234 C260 0.930 . S
H235 C263 0.931 . S
H236 C262 0.929 . S
H237 C265 0.930 . S
H238 C266 0.932 . S
H239 C269 0.929 . S
H240 C268 0.931 . S
H241 C271 0.929 . S
H242 C275 0.932 . S
H243 C272 0.931 . S
H244 C274 0.929 . S
H245 C277 0.929 . S
H246 C278 0.930 . S
H247 C280 0.929 . S
H248 C281 0.931 . S
H249 C283 0.930 . S
H250 C284 0.932 . S
H251 C286 0.931 . S
H252 C287 0.929 . S
H253 C289 0.929 . S
H254 C290 0.931 . S
H255 C292 0.929 . S
N256 C276 1.433 . S
N256 C282 1.435 . S
N256 C288 1.423 . S
H257 C293 0.932 . S
C258 N233 1.433 . S
C258 C259 1.363 . S
C258 C263 1.370 . S
C259 H232 0.929 . S
C259 C258 1.363 . S
C259 C260 1.385 . S
C260 H234 0.930 . S
C260 C259 1.385 . S
C260 C261 1.357 . S
C261 C260 1.357 . S
C261 C262 1.406 . S
C262 H236 0.929 . S
C262 C261 1.406 . S
C262 C263 1.391 . S
C263 H235 0.931 . S
C263 C258 1.370 . S
C263 C262 1.391 . S
C264 N233 1.435 . S
C264 C265 1.358 . S
C264 C269 1.371 . S
C265 H237 0.930 . S
C265 C264 1.358 . S
C265 C266 1.405 . S
C266 H238 0.932 . S
C266 C265 1.405 . S
C266 C267 1.383 . S
C267 C266 1.383 . S
C267 C268 1.393 . S
C268 H240 0.931 . S
C268 C267 1.393 . S
C268 C269 1.382 . S
C269 H239 0.929 . S
C269 C264 1.371 . S
C269 C268 1.382 . S
C270 N233 1.423 . S
C270 C271 1.362 . S
C270 C275 1.388 . S
C271 H241 0.929 . S
C271 C270 1.362 . S
C271 C272 1.376 . S
C272 H243 0.931 . S
C272 C271 1.376 . S
C272 C273 1.396 . S
C273 C272 1.396 . S
C273 C274 1.348 . S
C273 C291 1.472 . S
C274 H244 0.929 . S
C274 C273 1.348 . S
C274 C275 1.443 . S
C275 H242 0.932 . S
C275 C270 1.388 . S
C275 C274 1.443 . S
C276 N256 1.433 . S
C276 C277 1.363 . S
C276 C281 1.370 . S
C277 H245 0.929 . S
C277 C276 1.363 . S
C277 C278 1.385 . S
C278 H246 0.930 . S
C278 C277 1.385 . S
C278 C279 1.357 . S
C279 C278 1.357 . S
C279 C280 1.406 . S
C280 H247 0.929 . S
C280 C279 1.406 . S
C280 C281 1.391 . S
C281 H248 0.931 . S
C281 C276 1.370 . S
C281 C280 1.391 . S
C282 N256 1.435 . S
C282 C283 1.358 . S
C282 C287 1.371 . S
C283 H249 0.930 . S
C283 C282 1.358 . S
C283 C284 1.405 . S
C284 H250 0.932 . S
C284 C283 1.405 . S
C284 C285 1.383 . S
C285 C284 1.383 . S
C285 C286 1.393 . S
C286 H251 0.931 . S
C286 C285 1.393 . S
C286 C287 1.382 . S
C287 H252 0.929 . S
C287 C282 1.371 . S
C287 C286 1.382 . S
C288 N256 1.423 . S
C288 C289 1.362 . S
C288 C293 1.388 . S
C289 H253 0.929 . S
C289 C288 1.362 . S
C289 C290 1.376 . S
C290 H254 0.931 . S
C290 C289 1.376 . S
C290 C291 1.396 . S
C291 C273 1.472 . S
C291 C290 1.396 . S
C291 C292 1.348 . S
C292 H255 0.929 . S
C292 C291 1.348 . S
C292 C293 1.443 . S
C293 H257 0.932 . S
C293 C288 1.388 . S
C293 C292 1.443 . S
H294 C295 0.951 . S
C295 H294 0.951 . S
C295 C301 1.265 . S
H296 C301 0.950 . S
H297 C305 0.949 . S
H298 C306 0.950 . S
H299 C307 0.951 . S
H300 C308 0.951 . S
C301 C295 1.265 . S
C301 H296 0.950 . S
C301 C302 1.478 . S
C302 C301 1.478 . S
C302 C303 1.397 . S
C302 C319 1.394 1_455 S
C303 C302 1.397 . S
C303 C304 1.438 . S
C303 C308 1.429 . S
C304 C303 1.438 . S
C304 C305 1.428 . S
C304 C317 1.394 . S
C305 H297 0.949 . S
C305 C304 1.428 . S
C305 C306 1.345 . S
C306 H298 0.950 . S
C306 C305 1.345 . S
C306 C307 1.424 . S
C307 H299 0.951 . S
C307 C306 1.424 . S
C307 C308 1.347 . S
C308 H300 0.951 . S
C308 C303 1.429 . S
C308 C307 1.347 . S
H309 C310 0.951 . S
C310 H309 0.951 . S
C310 C316 1.265 . S
H311 C316 0.950 1_655 S
H312 C320 0.949 . S
H313 C321 0.950 . S
H314 C322 0.951 . S
H315 C323 0.951 . S
C316 C310 1.265 . S
C316 H311 0.950 1_455 S
C316 C317 1.478 . S
C317 C304 1.394 . S
C317 C316 1.478 . S
C317 C318 1.397 1_455 S
C318 C317 1.397 1_655 S
C318 C319 1.438 . S
C318 C323 1.429 . S
C319 C302 1.394 1_655 S
C319 C318 1.438 . S
C319 C320 1.428 . S
C320 H312 0.949 . S
C320 C319 1.428 . S
C320 C321 1.345 . S
C321 H313 0.950 . S
C321 C320 1.345 . S
C321 C322 1.424 . S
C322 H314 0.951 . S
C322 C321 1.424 . S
C322 C323 1.347 . S
C323 H315 0.951 . S
C323 C318 1.429 . S
C323 C322 1.347 . S
H324 C325 0.951 . S
C325 H324 0.951 . S
C325 C331 1.265 . S
H326 C331 0.950 . S
H327 C335 0.949 . S
H328 C336 0.950 . S
H329 C337 0.951 . S
H330 C338 0.951 . S
C331 C325 1.265 . S
C331 H326 0.950 . S
C331 C332 1.478 . S
C332 C331 1.478 . S
C332 C333 1.397 . S
C332 C349 1.387 1_545 S
C333 C332 1.397 . S
C333 C334 1.438 . S
C333 C338 1.429 . S
C334 C333 1.438 . S
C334 C335 1.428 . S
C334 C347 1.394 . S
C335 H327 0.949 . S
C335 C334 1.428 . S
C335 C336 1.345 . S
C336 H328 0.950 . S
C336 C335 1.345 . S
C336 C337 1.424 . S
C337 H329 0.951 . S
C337 C336 1.424 . S
C337 C338 1.347 . S
C338 H330 0.951 . S
C338 C333 1.429 . S
C338 C337 1.347 . S
H339 C340 0.951 . S
C340 H339 0.951 . S
C340 C346 1.265 . S
H341 C346 0.950 . S
H342 C350 0.949 . S
H343 C351 0.950 . S
H344 C352 0.951 . S
H345 C353 0.951 . S
C346 C340 1.265 . S
C346 H341 0.950 . S
C346 C347 1.478 . S
C347 C334 1.394 . S
C347 C346 1.478 . S
C347 C348 1.397 . S
C348 C347 1.397 . S
C348 C349 1.430 1_545 S
C348 C353 1.429 1_545 S
C349 C332 1.387 1_565 S
C349 C348 1.430 1_565 S
C349 C350 1.443 . S
C350 H342 0.949 . S
C350 C349 1.443 . S
C350 C351 1.345 . S
C351 H343 0.950 . S
C351 C350 1.345 . S
C351 C352 1.424 . S
C352 H344 0.951 . S
C352 C351 1.424 . S
C352 C353 1.347 . S
C353 H345 0.951 . S
C353 C348 1.429 1_565 S
C353 C352 1.347 . S
H354 C355 0.951 . S
C355 H354 0.951 . S
C355 C361 1.265 . S
H356 C361 0.950 . S
H357 C365 0.949 . S
H358 C366 0.950 . S
H359 C367 0.951 . S
H360 C368 0.951 . S
C361 C355 1.265 . S
C361 H356 0.950 . S
C361 C362 1.478 . S
C362 C361 1.478 . S
C362 C363 1.397 . S
C362 C379 1.394 . S
C363 C362 1.397 . S
C363 C364 1.438 . S
C363 C368 1.429 . S
C364 C363 1.438 . S
C364 C365 1.428 . S
C364 C377 1.394 . S
C365 H357 0.949 . S
C365 C364 1.428 . S
C365 C366 1.345 . S
C366 H358 0.950 . S
C366 C365 1.345 . S
C366 C367 1.424 . S
C367 H359 0.951 . S
C367 C366 1.424 . S
C367 C368 1.347 . S
C368 H360 0.951 . S
C368 C363 1.429 . S
C368 C367 1.347 . S
H369 C370 0.951 . S
C370 H369 0.951 . S
C370 C376 1.265 . S
H371 C376 0.950 . S
H372 C380 0.949 . S
H373 C381 0.950 . S
H374 C382 0.951 . S
H375 C383 0.951 . S
C376 C370 1.265 . S
C376 H371 0.950 . S
C376 C377 1.478 . S
C377 C364 1.394 . S
C377 C376 1.478 . S
C377 C378 1.397 . S
C378 C377 1.397 . S
C378 C379 1.438 . S
C378 C383 1.429 . S
C379 C362 1.394 . S
C379 C378 1.438 . S
C379 C380 1.428 . S
C380 H372 0.949 . S
C380 C379 1.428 . S
C380 C381 1.345 . S
C381 H373 0.950 . S
C381 C380 1.345 . S
C381 C382 1.424 . S
C382 H374 0.951 . S
C382 C381 1.424 . S
C382 C383 1.347 . S
C383 H375 0.951 . S
C383 C378 1.429 . S
C383 C382 1.347 . S
H384 C385 0.951 . S
C385 H384 0.951 . S
C385 C391 1.265 . S
H386 C391 0.950 . S
H387 C395 0.949 . S
H388 C396 0.950 . S
H389 C397 0.951 . S
H390 C398 0.951 . S
C391 C385 1.265 . S
C391 H386 0.950 . S
C391 C392 1.478 . S
C392 C391 1.478 . S
C392 C393 1.397 . S
C392 C409 1.394 . S
C393 C392 1.397 . S
C393 C394 1.438 . S
C393 C398 1.429 . S
C394 C393 1.438 . S
C394 C395 1.428 . S
C394 C407 1.394 . S
C395 H387 0.949 . S
C395 C394 1.428 . S
C395 C396 1.345 . S
C396 H388 0.950 . S
C396 C395 1.345 . S
C396 C397 1.424 . S
C397 H389 0.951 . S
C397 C396 1.424 . S
C397 C398 1.347 . S
C398 H390 0.951 . S
C398 C393 1.429 . S
C398 C397 1.347 . S
H399 C400 0.951 . S
C400 H399 0.951 . S
C400 C406 1.265 . S
H401 C406 0.950 1_655 S
H402 C410 0.952 1_455 S
H403 C411 0.950 . S
H404 C412 0.951 . S
H405 C413 0.951 . S
C406 C400 1.265 . S
C406 H401 0.950 1_455 S
C406 C407 1.478 . S
C407 C394 1.394 . S
C407 C406 1.478 . S
C407 C408 1.403 . S
C408 C407 1.403 . S
C408 C409 1.435 . S
C408 C413 1.425 1_455 S
C409 C392 1.394 . S
C409 C408 1.435 . S
C409 C410 1.428 1_455 S
C410 H402 0.952 1_655 S
C410 C409 1.428 1_655 S
C410 C411 1.345 . S
C411 H403 0.950 . S
C411 C410 1.345 . S
C411 C412 1.424 . S
C412 H404 0.951 . S
C412 C411 1.424 . S
C412 C413 1.347 . S
C413 H405 0.951 . S
C413 C408 1.425 1_655 S
C413 C412 1.347 . S
H414 C415 0.951 . S
C415 H414 0.951 . S
C415 C421 1.265 . S
H416 C421 0.950 . S
H417 C425 0.949 . S
H418 C426 0.950 . S
H419 C427 0.951 . S
H420 C428 0.951 . S
C421 C415 1.265 . S
C421 H416 0.950 . S
C421 C422 1.478 . S
C422 C421 1.478 . S
C422 C423 1.397 . S
C422 C439 1.394 . S
C423 C422 1.397 . S
C423 C424 1.438 . S
C423 C428 1.429 1_545 S
C424 C423 1.438 . S
C424 C425 1.428 1_545 S
C424 C437 1.394 . S
C425 H417 0.949 . S
C425 C424 1.428 1_565 S
C425 C426 1.345 . S
C426 H418 0.950 . S
C426 C425 1.345 . S
C426 C427 1.424 . S
C427 H419 0.951 . S
C427 C426 1.424 . S
C427 C428 1.347 . S
C428 H420 0.951 . S
C428 C423 1.429 1_565 S
C428 C427 1.347 . S
H429 C430 0.951 . S
C430 H429 0.951 . S
C430 C436 1.265 . S
H431 C436 0.950 . S
H432 C440 0.949 . S
H433 C441 0.950 . S
H434 C442 0.951 . S
H435 C443 0.951 . S
C436 C430 1.265 . S
C436 H431 0.950 . S
C436 C437 1.478 . S
C437 C424 1.394 . S
C437 C436 1.478 . S
C437 C438 1.397 . S
C438 C437 1.397 . S
C438 C439 1.438 . S
C438 C443 1.429 . S
C439 C422 1.394 . S
C439 C438 1.438 . S
C439 C440 1.428 . S
C440 H432 0.949 . S
C440 C439 1.428 . S
C440 C441 1.345 . S
C441 H433 0.950 . S
C441 C440 1.345 . S
C441 C442 1.424 . S
C442 H434 0.951 . S
C442 C441 1.424 . S
C442 C443 1.347 . S
C443 H435 0.951 . S
C443 C438 1.429 . S
C443 C442 1.347 . S
H444 C445 0.951 . S
C445 H444 0.951 . S
C445 C451 1.265 . S
H446 C451 0.950 . S
H447 C455 0.949 . S
H448 C456 0.950 . S
H449 C457 0.951 . S
H450 C458 0.951 . S
C451 C445 1.265 . S
C451 H446 0.950 . S
C451 C452 1.478 . S
C452 C451 1.478 . S
C452 C453 1.397 . S
C452 C469 1.394 . S
C453 C452 1.397 . S
C453 C454 1.438 . S
C453 C458 1.429 . S
C454 C453 1.438 . S
C454 C455 1.428 . S
C454 C467 1.394 . S
C455 H447 0.949 . S
C455 C454 1.428 . S
C455 C456 1.345 . S
C456 H448 0.950 . S
C456 C455 1.345 . S
C456 C457 1.424 . S
C457 H449 0.951 . S
C457 C456 1.424 . S
C457 C458 1.347 . S
C458 H450 0.951 . S
C458 C453 1.429 . S
C458 C457 1.347 . S
H459 C460 0.951 . S
C460 H459 0.951 . S
C460 C466 1.265 . S
H461 C466 0.950 . S
H462 C470 0.949 . S
H463 C471 0.950 . S
H464 C472 0.951 . S
H465 C473 0.951 . S
C466 C460 1.265 . S
C466 H461 0.950 . S
C466 C467 1.478 . S
C467 C454 1.394 . S
C467 C466 1.478 . S
C467 C468 1.397 . S
C468 C467 1.397 . S
C468 C469 1.438 . S
C468 C473 1.429 . S
C469 C452 1.394 . S
C469 C468 1.438 . S
C469 C470 1.428 . S
C470 H462 0.949 . S
C470 C469 1.428 . S
C470 C471 1.345 . S
C471 H463 0.950 . S
C471 C470 1.345 . S
C471 C472 1.424 . S
C472 H464 0.951 . S
C472 C471 1.424 . S
C472 C473 1.347 . S
C473 H465 0.951 . S
C473 C468 1.429 . S
C473 C472 1.347 . S
H474 C475 0.951 . S
C475 H474 0.951 . S
C475 C481 1.265 . S
H476 C481 0.950 . S
H477 C485 0.949 . S
H478 C486 0.950 . S
H479 C487 0.951 . S
H480 C488 0.951 . S
C481 C475 1.265 . S
C481 H476 0.950 . S
C481 C482 1.478 . S
C482 C481 1.478 . S
C482 C483 1.397 . S
C482 C499 1.394 . S
C483 C482 1.397 . S
C483 C484 1.438 . S
C483 C488 1.429 . S
C484 C483 1.438 . S
C484 C485 1.428 . S
C484 C497 1.394 . S
C485 H477 0.949 . S
C485 C484 1.428 . S
C485 C486 1.345 . S
C486 H478 0.950 . S
C486 C485 1.345 . S
C486 C487 1.424 . S
C487 H479 0.951 . S
C487 C486 1.424 . S
C487 C488 1.347 . S
C488 H480 0.951 . S
C488 C483 1.429 . S
C488 C487 1.347 . S
H489 C490 0.951 . S
C490 H489 0.951 . S
C490 C496 1.265 . S
H491 C496 0.950 . S
H492 C500 0.949 . S
H493 C501 0.950 . S
H494 C502 0.951 . S
H495 C503 0.951 . S
C496 C490 1.265 . S
C496 H491 0.950 . S
C496 C497 1.478 . S
C497 C484 1.394 . S
C497 C496 1.478 . S
C497 C498 1.397 . S
C498 C497 1.397 . S
C498 C499 1.438 . S
C498 C503 1.429 1_545 S
C499 C482 1.394 . S
C499 C498 1.438 . S
C499 C500 1.428 1_545 S
C500 H492 0.949 . S
C500 C499 1.428 1_565 S
C500 C501 1.345 . S
C501 H493 0.950 . S
C501 C500 1.345 . S
C501 C502 1.424 . S
C502 H494 0.951 . S
C502 C501 1.424 . S
C502 C503 1.347 . S
C503 H495 0.951 . S
C503 C498 1.429 1_565 S
C503 C502 1.347 . S
H504 C505 0.951 . S
C505 H504 0.951 . S
C505 C511 1.265 . S
H506 C511 0.950 . S
H507 C515 0.949 . S
H508 C516 0.950 . S
H509 C517 0.951 . S
H510 C518 0.951 . S
C511 C505 1.265 . S
C511 H506 0.950 . S
C511 C512 1.478 1_554 S
C512 C511 1.478 1_556 S
C512 C513 1.397 . S
C512 C529 1.380 1_556 S
C513 C512 1.397 . S
C513 C514 1.438 . S
C513 C518 1.429 . S
C514 C513 1.438 . S
C514 C515 1.428 . S
C514 C527 1.394 . S
C515 H507 0.949 . S
C515 C514 1.428 . S
C515 C516 1.345 . S
C516 H508 0.950 . S
C516 C515 1.345 . S
C516 C517 1.424 . S
C517 H509 0.951 . S
C517 C516 1.424 . S
C517 C518 1.347 . S
C518 H510 0.951 . S
C518 C513 1.429 . S
C518 C517 1.347 . S
H519 C520 0.951 . S
C520 H519 0.951 . S
C520 C526 1.265 . S
H521 C526 0.950 . S
H522 C530 0.949 . S
H523 C531 0.950 . S
H524 C532 0.951 . S
H525 C533 0.955 . S
C526 C520 1.265 . S
C526 H521 0.950 . S
C526 C527 1.478 . S
C527 C514 1.394 . S
C527 C526 1.478 . S
C527 C528 1.397 . S
C528 C527 1.397 . S
C528 C529 1.424 1_556 S
C528 C533 1.433 . S
C529 C512 1.380 1_554 S
C529 C528 1.424 1_554 S
C529 C530 1.457 . S
C530 H522 0.949 . S
C530 C529 1.457 . S
C530 C531 1.345 . S
C531 H523 0.950 . S
C531 C530 1.345 . S
C531 C532 1.424 . S
C532 H524 0.951 . S
C532 C531 1.424 . S
C532 C533 1.339 1_554 S
C533 H525 0.955 . S
C533 C528 1.433 . S
C533 C532 1.339 1_556 S
H534 C535 0.951 . S
C535 H534 0.951 . S
C535 C541 1.265 1_655 S
H536 C541 0.950 . S
H537 C545 0.949 . S
H538 C546 0.950 . S
H539 C547 0.951 . S
H540 C548 0.951 . S
C541 C535 1.265 1_455 S
C541 H536 0.950 . S
C541 C542 1.478 . S
C542 C541 1.478 . S
C542 C543 1.397 . S
C542 C559 1.394 1_455 S
C543 C542 1.397 . S
C543 C544 1.438 . S
C543 C548 1.429 . S
C544 C543 1.438 . S
C544 C545 1.428 . S
C544 C557 1.394 . S
C545 H537 0.949 . S
C545 C544 1.428 . S
C545 C546 1.345 . S
C546 H538 0.950 . S
C546 C545 1.345 . S
C546 C547 1.424 . S
C547 H539 0.951 . S
C547 C546 1.424 . S
C547 C548 1.347 . S
C548 H540 0.951 . S
C548 C543 1.429 . S
C548 C547 1.347 . S
H549 C550 0.951 . S
C550 H549 0.951 . S
C550 C556 1.265 1_455 S
H551 C556 0.950 . S
H552 C560 0.949 . S
H553 C561 0.950 . S
H554 C562 0.951 . S
H555 C563 0.951 . S
C556 C550 1.265 1_655 S
C556 H551 0.950 . S
C556 C557 1.478 1_655 S
C557 C544 1.394 . S
C557 C556 1.478 1_455 S
C557 C558 1.397 1_455 S
C558 C557 1.397 1_655 S
C558 C559 1.438 . S
C558 C563 1.429 . S
C559 C542 1.394 1_655 S
C559 C558 1.438 . S
C559 C560 1.428 . S
C560 H552 0.949 . S
C560 C559 1.428 . S
C560 C561 1.345 . S
C561 H553 0.950 . S
C561 C560 1.345 . S
C561 C562 1.424 . S
C562 H554 0.951 . S
C562 C561 1.424 . S
C562 C563 1.347 . S
C563 H555 0.951 . S
C563 C558 1.429 . S
C563 C562 1.347 . S
H564 C565 0.951 . S
C565 H564 0.951 . S
C565 C571 1.265 . S
H566 C571 0.950 . S
H567 C575 0.949 . S
H568 C576 0.950 . S
H569 C577 0.951 . S
H570 C578 0.951 . S
C571 C565 1.265 . S
C571 H566 0.950 . S
C571 C572 1.478 . S
C572 C571 1.478 . S
C572 C573 1.390 1_545 S
C572 C589 1.394 . S
C573 C572 1.390 1_565 S
C573 C574 1.439 1_565 S
C573 C578 1.434 . S
C574 C573 1.439 1_545 S
C574 C575 1.428 1_545 S
C574 C587 1.394 . S
C575 H567 0.949 . S
C575 C574 1.428 1_565 S
C575 C576 1.345 . S
C576 H568 0.950 . S
C576 C575 1.345 . S
C576 C577 1.424 . S
C577 H569 0.951 . S
C577 C576 1.424 . S
C577 C578 1.347 . S
C578 H570 0.951 . S
C578 C573 1.434 . S
C578 C577 1.347 . S
H579 C580 0.951 . S
C580 H579 0.951 . S
C580 C586 1.265 . S
H581 C586 0.950 . S
H582 C590 0.949 . S
H583 C591 0.950 . S
H584 C592 0.951 . S
H585 C593 0.951 . S
C586 C580 1.265 . S
C586 H581 0.950 . S
C586 C587 1.478 . S
C587 C574 1.394 . S
C587 C586 1.478 . S
C587 C588 1.397 . S
C588 C587 1.397 . S
C588 C589 1.438 . S
C588 C593 1.429 . S
C589 C572 1.394 . S
C589 C588 1.438 . S
C589 C590 1.428 . S
C590 H582 0.949 . S
C590 C589 1.428 . S
C590 C591 1.345 . S
C591 H583 0.950 . S
C591 C590 1.345 . S
C591 C592 1.424 . S
C592 H584 0.951 . S
C592 C591 1.424 . S
C592 C593 1.347 . S
C593 H585 0.951 . S
C593 C588 1.429 . S
C593 C592 1.347 . S
H594 C595 0.951 . S
C595 H594 0.951 . S
C595 C601 1.265 1_554 S
H596 C601 0.950 . S
H597 C605 0.949 . S
H598 C606 0.950 . S
H599 C607 0.951 . S
H600 C608 0.951 . S
C601 C595 1.265 1_556 S
C601 H596 0.950 . S
C601 C602 1.478 . S
C602 C601 1.478 . S
C602 C603 1.397 . S
C602 C619 1.394 . S
C603 C602 1.397 . S
C603 C604 1.438 . S
C603 C608 1.429 1_556 S
C604 C603 1.438 . S
C604 C605 1.428 . S
C604 C617 1.394 . S
C605 H597 0.949 . S
C605 C604 1.428 . S
C605 C606 1.345 1_556 S
C606 H598 0.950 . S
C606 C605 1.345 1_554 S
C606 C607 1.424 . S
C607 H599 0.951 . S
C607 C606 1.424 . S
C607 C608 1.347 . S
C608 H600 0.951 . S
C608 C603 1.429 1_554 S
C608 C607 1.347 . S
H609 C610 0.951 . S
C610 H609 0.951 . S
C610 C616 1.265 . S
H611 C616 0.950 . S
H612 C620 0.949 . S
H613 C621 0.950 . S
H614 C622 0.951 . S
H615 C623 0.951 . S
C616 C610 1.265 . S
C616 H611 0.950 . S
C616 C617 1.478 . S
C617 C604 1.394 . S
C617 C616 1.478 . S
C617 C618 1.397 . S
C618 C617 1.397 . S
C618 C619 1.438 . S
C618 C623 1.429 . S
C619 C602 1.394 . S
C619 C618 1.438 . S
C619 C620 1.428 . S
C620 H612 0.949 . S
C620 C619 1.428 . S
C620 C621 1.345 . S
C621 H613 0.950 . S
C621 C620 1.345 . S
C621 C622 1.424 . S
C622 H614 0.951 . S
C622 C621 1.424 . S
C622 C623 1.347 . S
C623 H615 0.951 . S
C623 C618 1.429 . S
C623 C622 1.347 . S
H624 C625 0.951 . S
C625 H624 0.951 . S
C625 C631 1.265 1_455 S
H626 C631 0.950 . S
H627 C635 0.949 1_455 S
H628 C636 0.950 . S
H629 C637 0.951 . S
H630 C638 0.951 . S
C631 C625 1.265 1_655 S
C631 H626 0.950 . S
C631 C632 1.478 1_655 S
C632 C631 1.478 1_455 S
C632 C633 1.397 1_455 S
C632 C649 1.394 . S
C633 C632 1.397 1_655 S
C633 C634 1.438 1_655 S
C633 C638 1.429 . S
C634 C633 1.438 1_455 S
C634 C635 1.428 1_455 S
C634 C647 1.394 . S
C635 H627 0.949 1_655 S
C635 C634 1.428 1_655 S
C635 C636 1.345 . S
C636 H628 0.950 . S
C636 C635 1.345 . S
C636 C637 1.424 . S
C637 H629 0.951 . S
C637 C636 1.424 . S
C637 C638 1.347 . S
C638 H630 0.951 . S
C638 C633 1.429 . S
C638 C637 1.347 . S
H639 C640 0.951 1_655 S
C640 H639 0.951 1_455 S
C640 C646 1.265 . S
H641 C646 0.950 . S
H642 C650 0.949 . S
H643 C651 0.950 . S
H644 C652 0.951 . S
H645 C653 0.951 . S
C646 C640 1.265 . S
C646 H641 0.950 . S
C646 C647 1.478 . S
C647 C634 1.394 . S
C647 C646 1.478 . S
C647 C648 1.397 . S
C648 C647 1.397 . S
C648 C649 1.438 . S
C648 C653 1.429 . S
C649 C632 1.394 . S
C649 C648 1.438 . S
C649 C650 1.428 . S
C650 H642 0.949 . S
C650 C649 1.428 . S
C650 C651 1.345 . S
C651 H643 0.950 . S
C651 C650 1.345 . S
C651 C652 1.424 . S
C652 H644 0.951 . S
C652 C651 1.424 . S
C652 C653 1.347 . S
C653 H645 0.951 . S
C653 C648 1.429 . S
C653 C652 1.347 . S
C310 C161 1.346 . S
C295 C14 1.297 . S
C325 C40 1.408 . S
C340 C205 1.377 . S
C355 C76 1.351 . S
C370 C267 1.379 . S
C385 C3 1.356 . S
C400 C143 1.365 . S
C430 C223 1.371 . S
C415 C38 1.395 . S
C445 C74 1.368 . S
C460 C285 1.384 . S
C490 C199 1.622 . S
C475 C86 1.642 . S
C505 C2 1.651 . S
C520 C261 1.572 . S
C550 C137 1.565 . S
C535 C39 1.694 1_655 S
C580 C217 1.636 . S
C565 C75 1.681 . S
C610 C279 1.578 . S
C595 C4 1.707 . S
C625 C50 1.613 . S
C640 C155 1.575 . S
