# Generated by pormake.
# Topology csq, (4,8)-cn, num edge types: 1
# Building blocks:
#     Node 0, Type 0, BuildingBlock: MIFKUJ_clean_linker_1, # of connection points: 4
#     Node 1, Type 0, BuildingBlock: MIFKUJ_clean_linker_1, # of connection points: 4
#     Node 2, Type 0, BuildingBlock: MIFKUJ_clean_linker_1, # of connection points: 4
#     Node 3, Type 0, BuildingBlock: MIFKUJ_clean_linker_1, # of connection points: 4
#     Node 4, Type 0, BuildingBlock: MIFKUJ_clean_linker_1, # of connection points: 4
#     Node 5, Type 0, BuildingBlock: MIFKUJ_clean_linker_1, # of connection points: 4
#     Node 6, Type 1, BuildingBlock: TAGTUT_clean_sbu_1, # of connection points: 8
#     Node 7, Type 1, BuildingBlock: TAGTUT_clean_sbu_1, # of connection points: 8
#     Node 8, Type 1, BuildingBlock: TAGTUT_clean_sbu_1, # of connection points: 8
#     Edge 9, Type (0, 1), BuildingBlock: EYOCIG_clean_linker_4, # of connection points: 2
#     Edge 10, Type (0, 1), BuildingBlock: EYOCIG_clean_linker_4, # of connection points: 2
#     Edge 11, Type (0, 1), BuildingBlock: EYOCIG_clean_linker_4, # of connection points: 2
#     Edge 12, Type (0, 1), BuildingBlock: EYOCIG_clean_linker_4, # of connection points: 2
#     Edge 13, Type (0, 1), BuildingBlock: EYOCIG_clean_linker_4, # of connection points: 2
#     Edge 14, Type (0, 1), BuildingBlock: EYOCIG_clean_linker_4, # of connection points: 2
#     Edge 15, Type (0, 1), BuildingBlock: EYOCIG_clean_linker_4, # of connection points: 2
#     Edge 16, Type (0, 1), BuildingBlock: EYOCIG_clean_linker_4, # of connection points: 2
#     Edge 17, Type (0, 1), BuildingBlock: EYOCIG_clean_linker_4, # of connection points: 2
#     Edge 18, Type (0, 1), BuildingBlock: EYOCIG_clean_linker_4, # of connection points: 2
#     Edge 19, Type (0, 1), BuildingBlock: EYOCIG_clean_linker_4, # of connection points: 2
#     Edge 20, Type (0, 1), BuildingBlock: EYOCIG_clean_linker_4, # of connection points: 2
#     Edge 21, Type (0, 1), BuildingBlock: EYOCIG_clean_linker_4, # of connection points: 2
#     Edge 22, Type (0, 1), BuildingBlock: EYOCIG_clean_linker_4, # of connection points: 2
#     Edge 23, Type (0, 1), BuildingBlock: EYOCIG_clean_linker_4, # of connection points: 2
#     Edge 24, Type (0, 1), BuildingBlock: EYOCIG_clean_linker_4, # of connection points: 2
#     Edge 25, Type (0, 1), BuildingBlock: EYOCIG_clean_linker_4, # of connection points: 2
#     Edge 26, Type (0, 1), BuildingBlock: EYOCIG_clean_linker_4, # of connection points: 2
#     Edge 27, Type (0, 1), BuildingBlock: EYOCIG_clean_linker_4, # of connection points: 2
#     Edge 28, Type (0, 1), BuildingBlock: EYOCIG_clean_linker_4, # of connection points: 2
#     Edge 29, Type (0, 1), BuildingBlock: EYOCIG_clean_linker_4, # of connection points: 2
#     Edge 30, Type (0, 1), BuildingBlock: EYOCIG_clean_linker_4, # of connection points: 2
#     Edge 31, Type (0, 1), BuildingBlock: EYOCIG_clean_linker_4, # of connection points: 2
#     Edge 32, Type (0, 1), BuildingBlock: EYOCIG_clean_linker_4, # of connection points: 2
# Relax obj value: 0.033
# Max RMSD: 0.125
# Mean RMSD: 0.057
data_MOF--net-csq--node1-TAGTUT_clean_sbu_1--node2-MIFKUJ_clean_linker_1--edge1-EYOCIG_clean_linker_4
_symmetry_space_group_name_H-M    P1
_symmetry_Int_Tables_number       1
_symmetry_cell_setting            triclinic
loop_
_symmetry_equiv_pos_as_xyz
'x, y, z'
_cell_length_a     51.739489
_cell_length_b     52.332435
_cell_length_c     18.467931
_cell_angle_alpha  92.54149
_cell_angle_beta   92.027361
_cell_angle_gamma 119.65208
loop_
_atom_site_label
_atom_site_type_symbol
_atom_site_fract_x
_atom_site_fract_y
_atom_site_fract_z
_atom_type_partial_charge
H0 H 0.24626 0.39674 0.2988 0.0
H1 H 0.28539 0.40137 0.38685 0.0
H2 H 0.34688 0.48545 0.30872 0.0
H3 H 0.30787 0.48118 0.22173 0.0
H4 H 0.22577 0.43481 0.30608 0.0
H5 H 0.27548 0.40663 0.12187 0.0
H6 H 0.31413 0.41114 0.04074 0.0
H7 H 0.32057 0.49063 0.96458 0.0
H8 H 0.28266 0.48661 0.04597 0.0
H9 H 0.21498 0.49343 0.06855 0.0
H10 H 0.18158 0.49658 0.97655 0.0
H11 H 0.11221 0.40936 0.01846 0.0
H12 H 0.14579 0.40617 0.1111 0.0
H13 H 0.2283 0.44859 0.04252 0.0
H14 H 0.18922 0.48545 0.21921 0.0
H15 H 0.15494 0.49095 0.29798 0.0
H16 H 0.13559 0.41047 0.39487 0.0
H17 H 0.16932 0.40435 0.31452 0.0
C18 C 0.27427 0.43848 0.25325 0.0
C19 C 0.26833 0.41591 0.29977 0.0
C20 C 0.29049 0.41858 0.35005 0.0
C21 C 0.31868 0.44386 0.35421 0.0
C22 C 0.32507 0.46583 0.30602 0.0
C23 C 0.30296 0.46323 0.25593 0.0
C24 C 0.24963 0.43833 0.21003 0.0
C25 C 0.22586 0.43712 0.24799 0.0
C26 C 0.25099 0.44308 0.13498 0.0
C27 C 0.27603 0.44631 0.09062 0.0
C28 C 0.2855 0.42529 0.08869 0.0
C29 C 0.30741 0.42774 0.04194 0.0
C30 C 0.3201 0.45116 0.99636 0.0
C31 C 0.31103 0.47232 -0.00098 0.0
C32 C 0.28931 0.46996 0.0456 0.0
C33 C 0.18273 0.4496 0.09643 0.0
C34 C 0.19235 0.47528 0.05918 0.0
C35 C 0.17345 0.477 0.00658 0.0
C36 C 0.14483 0.45305 0.99054 0.0
C37 C 0.13445 0.42796 0.03028 0.0
C38 C 0.1534 0.42624 0.08334 0.0
C39 C 0.20497 0.44561 0.1387 0.0
C40 C 0.22806 0.44585 0.10046 0.0
C41 C 0.20376 0.44149 0.21389 0.0
C42 C 0.18157 0.44408 0.25926 0.0
C43 C 0.17714 0.4685 0.25589 0.0
C44 C 0.1578 0.47188 0.30163 0.0
C45 C 0.14272 0.45115 0.35234 0.0
C46 C 0.147 0.42676 0.35611 0.0
C47 C 0.16627 0.42328 0.31013 0.0
H48 H 0.79739 0.27293 0.00454 0.0
H49 H 0.83636 0.3179 0.95639 0.0
H50 H 0.90394 0.30396 0.06036 0.0
H51 H 0.86498 0.25864 0.10777 0.0
H52 H 0.77918 0.21594 -0.00087 0.0
H53 H 0.81404 0.2944 0.17091 0.0
H54 H 0.85164 0.34007 0.23794 0.0
H55 H 0.88713 0.29192 0.34754 0.0
H56 H 0.84959 0.24593 0.27913 0.0
H57 H 0.76625 0.15693 0.26379 0.0
H58 H 0.73001 0.12714 0.34998 0.0
H59 H 0.66646 0.14886 0.25563 0.0
H60 H 0.70279 0.17895 0.1697 0.0
H61 H 0.78631 0.21621 0.2676 0.0
H62 H 0.73169 0.13141 0.08235 0.0
H63 H 0.69056 0.09597 0.99631 0.0
H64 H 0.68378 0.16744 0.90794 0.0
H65 H 0.72421 0.20264 0.99391 0.0
C66 C 0.82841 0.26268 0.05986 0.0
C67 C 0.82056 0.27916 0.0155 0.0
C68 C 0.84268 0.30486 0.98878 0.0
C69 C 0.87271 0.31412 0.00606 0.0
C70 C 0.88071 0.29704 0.04733 0.0
C71 C 0.85859 0.27127 0.07394 0.0
C72 C 0.80527 0.23861 0.09811 0.0
C73 C 0.78063 0.21556 0.05778 0.0
C74 C 0.80701 0.23942 0.17468 0.0
C75 C 0.82911 0.26667 0.21928 0.0
C76 C 0.82997 0.29357 0.20901 0.0
C77 C 0.85142 0.31967 0.24726 0.0
C78 C 0.87227 0.31942 0.29721 0.0
C79 C 0.87129 0.29259 0.30878 0.0
C80 C 0.84978 0.26634 0.27019 0.0
C81 C 0.73702 0.16981 0.2099 0.0
C82 C 0.74431 0.1548 0.26068 0.0
C83 C 0.72382 0.13805 0.31004 0.0
C84 C 0.69596 0.13629 0.30922 0.0
C85 C 0.68808 0.15024 0.2569 0.0
C86 C 0.70859 0.16703 0.20744 0.0
C87 C 0.76062 0.19198 0.16833 0.0
C88 C 0.78523 0.2155 0.20871 0.0
C89 C 0.75775 0.1923 0.09172 0.0
C90 C 0.73118 0.16985 0.04502 0.0
C91 C 0.72108 0.13944 0.04531 0.0
C92 C 0.69778 0.11924 0.99579 0.0
C93 C 0.68432 0.12915 0.94533 0.0
C94 C 0.69395 0.15931 0.94602 0.0
C95 C 0.71706 0.17941 0.99526 0.0
H96 H 0.60042 0.74691 0.92769 0.0
H97 H 0.60011 0.70226 0.87814 0.0
H98 H 0.50858 0.64938 0.93071 0.0
H99 H 0.50883 0.6938 0.97987 0.0
H100 H 0.55735 0.77093 0.90249 0.0
H101 H 0.5917 0.72505 0.08218 0.0
H102 H 0.58414 0.68152 0.14437 0.0
H103 H 0.50269 0.6719 0.22398 0.0
H104 H 0.50977 0.71493 0.16048 0.0
H105 H 0.51134 0.79096 0.15999 0.0
H106 H 0.50646 0.83177 0.21559 0.0
H107 H 0.59016 0.8944 0.13411 0.0
H108 H 0.59527 0.85367 0.07912 0.0
H109 H 0.55288 0.77264 0.17098 0.0
H110 H 0.5067 0.8017 0.99436 0.0
H111 H 0.5002 0.83944 0.93567 0.0
H112 H 0.58677 0.87337 0.85013 0.0
H113 H 0.5935 0.83561 0.90983 0.0
C114 C 0.55471 0.72334 0.95754 0.0
C115 C 0.58018 0.72574 0.92706 0.0
C116 C 0.58012 0.70041 0.89985 0.0
C117 C 0.55453 0.67284 0.90284 0.0
C118 C 0.5286 0.67063 0.92939 0.0
C119 C 0.52866 0.69584 0.95661 0.0
C120 C 0.55632 0.74867 -0.00109 0.0
C121 C 0.55714 0.77176 0.96125 0.0
C122 C 0.55444 0.74858 0.0752 0.0
C123 C 0.55122 0.7233 0.11626 0.0
C124 C 0.57212 0.71353 0.1126 0.0
C125 C 0.56784 0.68871 0.14814 0.0
C126 C 0.5428 0.67349 0.18846 0.0
C127 C 0.52212 0.68333 0.19292 0.0
C128 C 0.5263 0.70802 0.15717 0.0
C129 C 0.55364 0.81945 0.11572 0.0
C130 C 0.52887 0.81346 0.15531 0.0
C131 C 0.52594 0.83661 0.18615 0.0
C132 C 0.54781 0.86577 0.17769 0.0
C133 C 0.57302 0.87186 0.14023 0.0
C134 C 0.57598 0.84875 0.10943 0.0
C135 C 0.55467 0.79524 0.07486 0.0
C136 C 0.554 0.77224 0.11243 0.0
C137 C 0.55527 0.79462 0.99836 0.0
C138 C 0.55067 0.81593 0.95679 0.0
C139 C 0.52429 0.81718 0.96283 0.0
C140 C 0.5206 0.83873 0.92957 0.0
C141 C 0.5431 0.85925 0.88927 0.0
C142 C 0.56922 0.85774 0.88151 0.0
C143 C 0.57297 0.83612 0.91498 0.0
H144 H 0.7957 0.50118 0.17254 0.0
H145 H 0.8294 0.49832 0.26414 0.0
H146 H 0.89856 0.58535 0.2202 0.0
H147 H 0.86467 0.58826 0.12797 0.0
H148 H 0.78212 0.54572 0.19763 0.0
H149 H 0.82118 0.50885 0.0211 0.0
H150 H 0.85549 0.50335 0.94245 0.0
H151 H 0.87476 0.58375 0.8452 0.0
H152 H 0.84098 0.58986 0.92542 0.0
H153 H 0.76388 0.59733 0.94134 0.0
H154 H 0.72469 0.59266 0.85346 0.0
H155 H 0.66333 0.50852 0.93157 0.0
H156 H 0.70241 0.51284 0.0184 0.0
H157 H 0.78448 0.5593 0.93397 0.0
H158 H 0.73468 0.58738 0.11822 0.0
H159 H 0.69597 0.58275 0.19927 0.0
H160 H 0.68977 0.50337 0.27553 0.0
H161 H 0.72776 0.50751 0.19421 0.0
C162 C 0.82781 0.54491 0.1437 0.0
C163 C 0.81834 0.51937 0.1814 0.0
C164 C 0.83742 0.5178 0.23377 0.0
C165 C 0.86608 0.54178 0.24912 0.0
C166 C 0.87629 0.56673 0.20893 0.0
C167 C 0.85716 0.56829 0.1561 0.0
C168 C 0.80545 0.54873 0.10143 0.0
C169 C 0.78232 0.54841 0.13967 0.0
C170 C 0.80658 0.55276 0.02619 0.0
C171 C 0.82877 0.55018 0.98084 0.0
C172 C 0.83324 0.52579 0.98435 0.0
C173 C 0.8526 0.5224 0.93869 0.0
C174 C 0.86767 0.54311 0.88792 0.0
C175 C 0.86336 0.56748 0.88401 0.0
C176 C 0.84406 0.57096 0.92991 0.0
C177 C 0.73595 0.55556 0.98687 0.0
C178 C 0.74183 0.57813 0.94039 0.0
C179 C 0.71963 0.57544 0.89021 0.0
C180 C 0.69146 0.55014 0.88609 0.0
C181 C 0.68512 0.52816 0.93423 0.0
C182 C 0.70728 0.53079 0.98424 0.0
C183 C 0.76063 0.55576 0.03006 0.0
C184 C 0.78442 0.55703 0.99208 0.0
C185 C 0.75931 0.55105 0.10514 0.0
C186 C 0.73426 0.54776 0.1495 0.0
C187 C 0.7247 0.56872 0.15141 0.0
C188 C 0.70276 0.5662 0.19811 0.0
C189 C 0.69012 0.54277 0.24368 0.0
C190 C 0.69928 0.52168 0.24108 0.0
C191 C 0.72103 0.52411 0.19454 0.0
H192 H 0.24384 0.83731 0.97597 0.0
H193 H 0.28007 0.86714 0.88976 0.0
H194 H 0.34371 0.84557 0.98432 0.0
H195 H 0.3074 0.81545 0.07022 0.0
H196 H 0.22385 0.77801 0.97236 0.0
H197 H 0.27837 0.86305 0.15776 0.0
H198 H 0.31954 0.89844 0.2437 0.0
H199 H 0.32653 0.82695 0.33123 0.0
H200 H 0.28587 0.79175 0.24557 0.0
H201 H 0.21344 0.7216 0.2346 0.0
H202 H 0.17486 0.67638 0.28294 0.0
H203 H 0.10659 0.6898 0.18092 0.0
H204 H 0.14514 0.73529 0.13327 0.0
H205 H 0.23036 0.77924 0.24115 0.0
H206 H 0.19659 0.70001 0.06839 0.0
H207 H 0.15896 0.65427 0.00157 0.0
H208 H 0.12263 0.70212 0.89396 0.0
H209 H 0.16022 0.74816 0.96211 0.0
C210 C 0.27312 0.8245 0.02992 0.0
C211 C 0.2658 0.83948 0.97909 0.0
C212 C 0.28628 0.85625 0.92974 0.0
C213 C 0.31418 0.85806 0.93063 0.0
C214 C 0.32207 0.84414 0.983 0.0
C215 C 0.30157 0.82733 0.03244 0.0
C216 C 0.24954 0.80234 0.07155 0.0
C217 C 0.22495 0.77876 0.03126 0.0
C218 C 0.25225 0.80224 0.14826 0.0
C219 C 0.27889 0.8246 0.19483 0.0
C220 C 0.28901 0.855 0.19464 0.0
C221 C 0.31235 0.87518 0.24407 0.0
C222 C 0.3259 0.86525 0.29427 0.0
C223 C 0.31628 0.83508 0.29338 0.0
C224 C 0.29306 0.815 0.24431 0.0
C225 C 0.18202 0.73157 0.18032 0.0
C226 C 0.1902 0.71518 0.22411 0.0
C227 C 0.1683 0.68935 0.25092 0.0
C228 C 0.13819 0.6799 0.23428 0.0
C229 C 0.12988 0.69687 0.19347 0.0
C230 C 0.15177 0.72274 0.16675 0.0
C231 C 0.20487 0.75584 0.14203 0.0
C232 C 0.22917 0.77924 0.18238 0.0
C233 C 0.20323 0.75486 0.06542 0.0
C234 C 0.18113 0.72758 0.02091 0.0
C235 C 0.18048 0.70076 0.03074 0.0
C236 C 0.159 0.67462 0.99262 0.0
C237 C 0.13791 0.67477 0.94331 0.0
C238 C 0.13866 0.70153 0.93221 0.0
C239 C 0.1602 0.72781 0.97065 0.0
H240 H 0.49916 0.20366 0.08055 0.0
H241 H 0.50417 0.16299 0.02459 0.0
H242 H 0.42023 0.10011 0.1046 0.0
H243 H 0.415 0.14072 0.15995 0.0
H244 H 0.45756 0.22192 0.06919 0.0
H245 H 0.50339 0.19259 0.24607 0.0
H246 H 0.50975 0.15472 0.30448 0.0
H247 H 0.42292 0.12054 0.38873 0.0
H248 H 0.41633 0.15842 0.32929 0.0
H249 H 0.40926 0.24719 0.31134 0.0
H250 H 0.40938 0.2918 0.36048 0.0
H251 H 0.50121 0.34474 0.31023 0.0
H252 H 0.50113 0.30036 0.26145 0.0
H253 H 0.45245 0.22312 0.33751 0.0
H254 H 0.4183 0.2691 0.15749 0.0
H255 H 0.42584 0.31263 0.09532 0.0
H256 H 0.50769 0.32271 0.01719 0.0
H257 H 0.50063 0.27969 0.08069 0.0
C258 C 0.45674 0.17505 0.12412 0.0
C259 C 0.48162 0.18114 0.08485 0.0
C260 C 0.48461 0.15807 0.05379 0.0
C261 C 0.46271 0.12887 0.06172 0.0
C262 C 0.4374 0.12268 0.09887 0.0
C263 C 0.43437 0.14572 0.12989 0.0
C264 C 0.45559 0.19916 0.16512 0.0
C265 C 0.4563 0.22221 0.1277 0.0
C266 C 0.4548 0.19963 0.24157 0.0
C267 C 0.45931 0.17825 0.28302 0.0
C268 C 0.48571 0.17703 0.27725 0.0
C269 C 0.48933 0.1554 0.31034 0.0
C270 C 0.46671 0.13477 0.3502 0.0
C271 C 0.44056 0.13625 0.35767 0.0
C272 C 0.43689 0.15794 0.32437 0.0
C273 C 0.45513 0.27079 0.2827 0.0
C274 C 0.42952 0.26836 0.31243 0.0
C275 C 0.42948 0.29367 0.33938 0.0
C276 C 0.4551 0.32125 0.3369 0.0
C277 C 0.48116 0.32348 0.31114 0.0
C278 C 0.48121 0.29829 0.28417 0.0
C279 C 0.45365 0.24554 0.24126 0.0
C280 C 0.4528 0.22241 0.27878 0.0
C281 C 0.45572 0.24576 0.16503 0.0
C282 C 0.45897 0.27109 0.12415 0.0
C283 C 0.43797 0.28073 0.12743 0.0
C284 C 0.44224 0.30554 0.0919 0.0
C285 C 0.46738 0.32089 0.05197 0.0
C286 C 0.48818 0.31119 0.04794 0.0
C287 C 0.48401 0.28651 0.08369 0.0
C288 C 0.9659 0.42782 0.83767 0.0
C289 C 0.05111 0.46206 0.75815 0.0
C290 C 0.0468 0.56106 0.7159 0.0
Mg291 Mg 0.98892 0.43356 0.68414 0.0
O292 O 0.98838 0.46894 0.6966 0.0
Mg293 Mg 0.0107 0.49601 0.78524 0.0
Mg294 Mg 0.00518 0.49707 0.62024 0.0
O295 O 0.02201 0.5252 0.54396 0.0
Mg296 Mg 0.02181 0.56077 0.55622 0.0
Mg297 Mg -0.00021 0.4982 0.45524 0.0
C298 C 0.96369 0.43315 0.52456 0.0
C299 C 0.04722 0.47996 0.51969 0.0
O300 O 0.98092 0.45592 0.85123 0.0
O301 O 0.96512 0.41471 0.77686 0.0
O302 O 0.04554 0.48094 0.78921 0.0
O303 O 0.0336 0.44285 0.70877 0.0
O304 O 0.9676 0.41904 0.57492 0.0
O305 O 0.97306 0.46108 0.53252 0.0
C306 C 0.96314 0.51414 0.72094 0.0
O307 O 0.97007 0.51123 0.65577 0.0
O308 O 0.97537 0.50962 0.77654 0.0
O309 O 0.02978 0.53822 0.38937 0.0
O310 O 0.04582 0.57948 0.46368 0.0
O311 O 0.96512 0.51351 0.45095 0.0
C312 C 0.04498 0.56631 0.40293 0.0
O313 O 0.97727 0.55176 0.53104 0.0
O314 O 0.0431 0.57527 0.66552 0.0
C315 C 0.95971 0.53254 0.48172 0.0
O316 O 0.0372 0.53309 0.70781 0.0
O317 O 0.04031 0.48291 0.58483 0.0
O318 O 0.03499 0.48444 0.46407 0.0
C319 C 0.47387 0.03094 0.85754 0.0
C320 C 0.42213 0.94847 0.73842 0.0
C321 C 0.52674 0.95368 0.69179 0.0
Mg322 Mg 0.4565 0.01166 0.69448 0.0
O323 O 0.49232 0.01123 0.70482 0.0
Mg324 Mg 0.49647 0.98678 0.78066 0.0
Mg325 Mg 0.50512 -0.0028 0.61977 0.0
O326 O 0.51791 0.98313 0.5348 0.0
Mg327 Mg 0.55368 0.98258 0.54518 0.0
Mg328 Mg 0.51382 0.0076 0.45899 0.0
C329 C 0.48333 0.0405 0.54768 0.0
C330 C 0.44756 0.95925 0.50059 0.0
O331 O 0.48609 0.01483 0.86241 0.0
O332 O 0.462 0.03359 0.79849 0.0
O333 O 0.44643 0.95268 0.76988 0.0
O334 O 0.42078 0.96729 0.69935 0.0
O335 O 0.46434 0.03523 0.59581 0.0
O336 O 0.50231 0.03139 0.55081 0.0
C337 C 0.56269 0.03517 0.73895 0.0
O338 O 0.5537 0.03044 0.67114 0.0
O339 O 0.54535 0.02137 0.78824 0.0
O340 O 0.52421 0.97958 0.37721 0.0
O341 O 0.54824 0.96075 0.44105 0.0
O342 O 0.56386 0.04165 0.46996 0.0
C343 C 0.53641 0.96347 0.38201 0.0
O344 O 0.58944 0.02696 0.54053 0.0
O345 O 0.54571 0.95885 0.64367 0.0
C346 C 0.58813 0.04582 0.5015 0.0
O347 O 0.50797 0.96306 0.68868 0.0
O348 O 0.45654 0.96397 0.56841 0.0
O349 O 0.46491 0.97304 0.45131 0.0
C350 C 0.529 0.56664 0.39702 0.0
C351 C 0.58228 0.52973 0.45937 0.0
C352 C 0.47575 0.43467 0.52819 0.0
Mg353 Mg 0.55345 0.55973 0.54623 0.0
O354 O 0.51624 0.52525 0.54061 0.0
Mg355 Mg 0.50639 0.49779 0.45201 0.0
Mg356 Mg 0.5051 0.49708 0.61989 0.0
O357 O 0.49394 0.46888 0.69905 0.0
Mg358 Mg 0.45675 0.43434 0.69331 0.0
Mg359 Mg 0.50372 0.49631 0.78763 0.0
C360 C 0.53442 0.55947 0.71138 0.0
C361 C 0.56559 0.51223 0.71354 0.0
O362 O 0.51506 0.53839 0.38418 0.0
O363 O 0.544 0.57957 0.45701 0.0
O364 O 0.55584 0.51028 0.43583 0.0
O365 O 0.58712 0.54986 0.50842 0.0
O366 O 0.55114 0.57245 0.6596 0.0
O367 O 0.51301 0.53265 0.70534 0.0
C368 C 0.44459 0.48192 0.52634 0.0
O369 O 0.45672 0.48492 0.59015 0.0
O370 O 0.45878 0.48604 0.4688 0.0
O371 O 0.49506 0.45572 0.85541 0.0
O372 O 0.46621 0.41452 0.78256 0.0
O373 O 0.45425 0.48373 0.80372 0.0
C374 C 0.48116 0.42747 0.84259 0.0
O375 O 0.42302 0.44411 0.73118 0.0
O376 O 0.45903 0.4216 0.57989 0.0
C377 C 0.42782 0.46423 0.78022 0.0
O378 O 0.49711 0.4615 0.53446 0.0
O379 O 0.55349 0.50924 0.64967 0.0
O380 O 0.55135 0.5081 0.771 0.0
C381 C 0.10693 0.45962 0.43883 0.0
C382 C 0.12305 0.45514 0.40029 0.0
C383 C 0.08739 0.46578 0.47931 0.0
C384 C 0.0698 0.47194 0.50574 0.0
C385 C 0.65827 0.10727 0.40706 0.0
C386 C 0.67562 0.12045 0.36268 0.0
C387 C 0.63614 0.08862 0.4516 0.0
C388 C 0.61524 0.06876 0.47723 0.0
C389 C 0.53452 0.6271 0.25921 0.0
C390 C 0.53858 0.64825 0.22672 0.0
C391 C 0.53053 0.60353 0.30144 0.0
C392 C 0.52866 0.58517 0.34183 0.0
C393 C 0.89884 0.53938 0.35817 0.0
C394 C 0.88429 0.54095 0.30823 0.0
C395 C 0.9176 0.53737 0.41168 0.0
C396 C 0.93705 0.53664 0.44731 0.0
C397 C 0.36945 0.90171 0.39181 0.0
C398 C 0.3496 0.88567 0.34682 0.0
C399 C 0.39424 0.92047 0.4412 0.0
C400 C 0.41742 0.93721 0.47592 0.0
C401 C 0.45783 0.3708 0.38129 0.0
C402 C 0.45521 0.34748 0.36173 0.0
C403 C 0.46449 0.39748 0.41781 0.0
C404 C 0.47182 0.41703 0.4638 0.0
C405 C 0.53487 0.89973 0.8274 0.0
C406 C 0.53895 0.88143 0.85525 0.0
C407 C 0.52975 0.91983 0.78907 0.0
C408 C 0.52625 0.93545 0.74832 0.0
C409 C 0.64854 0.53985 0.78842 0.0
C410 C 0.6691 0.54598 0.83138 0.0
C411 C 0.62175 0.53067 0.74694 0.0
C412 C 0.59672 0.52236 0.72337 0.0
C413 C 0.09845 0.6244 0.87039 0.0
C414 C 0.11623 0.64754 0.90306 0.0
C415 C 0.07902 0.59822 0.82655 0.0
C416 C 0.064 0.57846 0.7808 0.0
C417 C 0.4694 0.0859 0.00431 0.0
C418 C 0.46602 0.10525 0.03083 0.0
C419 C 0.47269 0.0645 0.9642 0.0
C420 C 0.47455 0.04817 0.91996 0.0
C421 C 0.36076 0.45649 0.90408 0.0
C422 C 0.34223 0.45366 0.94644 0.0
C423 C 0.38313 0.45978 0.85635 0.0
C424 C 0.40313 0.46137 0.82082 0.0
C425 C 0.91313 0.36459 0.96105 0.0
C426 C 0.8952 0.34148 0.98234 0.0
C427 C 0.93298 0.39025 0.92892 0.0
C428 C 0.94878 0.40964 0.89227 0.0
C429 C 0.90348 0.5346 0.80163 0.0
C430 C 0.88736 0.53911 0.84006 0.0
C431 C 0.92302 0.52838 0.7613 0.0
C432 C 0.94059 0.52219 0.73494 0.0
C433 C 0.35189 0.88709 0.83283 0.0
C434 C 0.33454 0.8739 0.87722 0.0
C435 C 0.37409 0.90571 0.7884 0.0
C436 C 0.39505 0.92555 0.76284 0.0
C437 C 0.47561 0.36718 0.98092 0.0
C438 C 0.47155 0.34607 0.01356 0.0
C439 C 0.4796 0.39068 0.93846 0.0
C440 C 0.48146 0.40898 0.89789 0.0
C441 C 0.11231 0.45562 0.88116 0.0
C442 C 0.1268 0.45403 0.93121 0.0
C443 C 0.0935 0.45755 0.82768 0.0
C444 C 0.07393 0.45813 0.79222 0.0
C445 C 0.64078 0.09273 0.84774 0.0
C446 C 0.66062 0.10873 0.89278 0.0
C447 C 0.616 0.07398 0.79832 0.0
C448 C 0.59283 0.05723 0.7636 0.0
C449 C 0.55185 0.62336 0.85798 0.0
C450 C 0.55435 0.64661 0.87776 0.0
C451 C 0.54543 0.59677 0.82137 0.0
C452 C 0.53826 0.57723 0.77545 0.0
C453 C 0.47488 0.09424 0.41193 0.0
C454 C 0.47081 0.11255 0.38416 0.0
C455 C 0.48006 0.07419 0.4503 0.0
C456 C 0.48367 0.05866 0.49114 0.0
C457 C 0.36156 0.45417 0.45196 0.0
C458 C 0.341 0.44801 0.409 0.0
C459 C 0.38839 0.46341 0.4933 0.0
C460 C 0.41345 0.47175 0.51667 0.0
C461 C 0.91176 0.36972 0.37036 0.0
C462 C 0.89396 0.34662 0.33756 0.0
C463 C 0.93126 0.39586 0.41425 0.0
C464 C 0.94635 0.41563 0.45993 0.0
C465 C 0.54114 0.90879 0.23488 0.0
C466 C 0.54456 0.88945 0.20841 0.0
C467 C 0.53777 0.93011 0.27509 0.0
C468 C 0.53583 0.94635 0.31947 0.0
C469 C 0.64938 0.53736 0.3358 0.0
C470 C 0.66794 0.5402 0.29353 0.0
C471 C 0.62696 0.53408 0.3834 0.0
C472 C 0.60696 0.53253 0.41882 0.0
C473 C 0.098 0.62937 0.27954 0.0
C474 C 0.11589 0.6525 0.25825 0.0
C475 C 0.07811 0.60374 0.31169 0.0
C476 C 0.0622 0.58441 0.34833 0.0
loop_
_geom_bond_atom_site_label_1
_geom_bond_atom_site_label_2
_geom_bond_distance
_geom_bond_site_symmetry_2
_ccdc_geom_bond_type
H0 C19 0.949 . S
H1 C20 0.950 . S
H2 C22 0.950 . S
H3 C23 0.950 . S
H4 C25 0.950 . S
H5 C28 0.950 . S
H6 C29 0.950 . S
H7 C31 0.951 1_556 S
H8 C32 0.949 . S
H9 C34 0.949 . S
H10 C35 0.950 1_556 S
H11 C37 0.950 . S
H12 C38 0.950 . S
H13 C40 0.950 . S
H14 C43 0.950 . S
H15 C44 0.950 . S
H16 C46 0.951 . S
H17 C47 0.949 . S
C18 C19 1.376 . S
C18 C23 1.386 . S
C18 C24 1.483 . S
C19 H0 0.949 . S
C19 C18 1.376 . S
C19 C20 1.397 . S
C20 H1 0.950 . S
C20 C19 1.397 . S
C20 C21 1.391 . S
C21 C20 1.391 . S
C21 C22 1.405 . S
C22 H2 0.950 . S
C22 C21 1.405 . S
C22 C23 1.367 . S
C23 H3 0.950 . S
C23 C18 1.386 . S
C23 C22 1.367 . S
C24 C18 1.483 . S
C24 C25 1.382 . S
C24 C26 1.403 . S
C25 H4 0.950 . S
C25 C24 1.382 . S
C25 C41 1.411 . S
C26 C24 1.403 . S
C26 C27 1.489 . S
C26 C40 1.411 . S
C27 C26 1.489 . S
C27 C28 1.383 . S
C27 C32 1.382 . S
C28 H5 0.950 . S
C28 C27 1.383 . S
C28 C29 1.395 . S
C29 H6 0.950 . S
C29 C28 1.395 . S
C29 C30 1.288 . S
C30 C29 1.288 . S
C30 C31 1.392 . S
C31 H7 0.951 1_554 S
C31 C30 1.392 . S
C31 C32 1.392 . S
C32 H8 0.949 . S
C32 C27 1.382 . S
C32 C31 1.392 . S
C33 C34 1.376 . S
C33 C38 1.386 . S
C33 C39 1.483 . S
C34 H9 0.949 . S
C34 C33 1.376 . S
C34 C35 1.397 . S
C35 H10 0.950 1_554 S
C35 C34 1.397 . S
C35 C36 1.391 . S
C36 C35 1.391 . S
C36 C37 1.405 . S
C37 H11 0.950 . S
C37 C36 1.405 . S
C37 C38 1.367 . S
C38 H12 0.950 . S
C38 C33 1.386 . S
C38 C37 1.367 . S
C39 C33 1.483 . S
C39 C40 1.382 . S
C39 C41 1.403 . S
C40 H13 0.950 . S
C40 C26 1.411 . S
C40 C39 1.382 . S
C41 C25 1.411 . S
C41 C39 1.403 . S
C41 C42 1.489 . S
C42 C41 1.489 . S
C42 C43 1.383 . S
C42 C47 1.382 . S
C43 H14 0.950 . S
C43 C42 1.383 . S
C43 C44 1.395 . S
C44 H15 0.950 . S
C44 C43 1.395 . S
C44 C45 1.288 . S
C45 C44 1.288 . S
C45 C46 1.392 . S
C46 H16 0.951 . S
C46 C45 1.392 . S
C46 C47 1.392 . S
C47 H17 0.949 . S
C47 C42 1.382 . S
C47 C46 1.392 . S
H48 C67 0.949 . S
H49 C68 0.950 . S
H50 C70 0.950 . S
H51 C71 0.950 . S
H52 C73 0.950 . S
H53 C76 0.950 . S
H54 C77 0.950 . S
H55 C79 0.951 . S
H56 C80 0.949 . S
H57 C82 0.949 . S
H58 C83 0.950 . S
H59 C85 0.950 . S
H60 C86 0.950 . S
H61 C88 0.950 . S
H62 C91 0.950 . S
H63 C92 0.950 . S
H64 C94 0.951 . S
H65 C95 0.949 1_556 S
C66 C67 1.376 . S
C66 C71 1.386 . S
C66 C72 1.483 . S
C67 H48 0.949 . S
C67 C66 1.376 . S
C67 C68 1.397 1_554 S
C68 H49 0.950 . S
C68 C67 1.397 1_556 S
C68 C69 1.391 . S
C69 C68 1.391 . S
C69 C70 1.405 1_556 S
C70 H50 0.950 . S
C70 C69 1.405 1_554 S
C70 C71 1.367 . S
C71 H51 0.950 . S
C71 C66 1.386 . S
C71 C70 1.367 . S
C72 C66 1.483 . S
C72 C73 1.382 . S
C72 C74 1.403 . S
C73 H52 0.950 . S
C73 C72 1.382 . S
C73 C89 1.411 . S
C74 C72 1.403 . S
C74 C75 1.489 . S
C74 C88 1.411 . S
C75 C74 1.489 . S
C75 C76 1.383 . S
C75 C80 1.382 . S
C76 H53 0.950 . S
C76 C75 1.383 . S
C76 C77 1.395 . S
C77 H54 0.950 . S
C77 C76 1.395 . S
C77 C78 1.288 . S
C78 C77 1.288 . S
C78 C79 1.392 . S
C79 H55 0.951 . S
C79 C78 1.392 . S
C79 C80 1.392 . S
C80 H56 0.949 . S
C80 C75 1.382 . S
C80 C79 1.392 . S
C81 C82 1.376 . S
C81 C86 1.386 . S
C81 C87 1.483 . S
C82 H57 0.949 . S
C82 C81 1.376 . S
C82 C83 1.397 . S
C83 H58 0.950 . S
C83 C82 1.397 . S
C83 C84 1.391 . S
C84 C83 1.391 . S
C84 C85 1.405 . S
C85 H59 0.950 . S
C85 C84 1.405 . S
C85 C86 1.367 . S
C86 H60 0.950 . S
C86 C81 1.386 . S
C86 C85 1.367 . S
C87 C81 1.483 . S
C87 C88 1.382 . S
C87 C89 1.403 . S
C88 H61 0.950 . S
C88 C74 1.411 . S
C88 C87 1.382 . S
C89 C73 1.411 . S
C89 C87 1.403 . S
C89 C90 1.489 . S
C90 C89 1.489 . S
C90 C91 1.383 . S
C90 C95 1.382 . S
C91 H62 0.950 . S
C91 C90 1.383 . S
C91 C92 1.395 . S
C92 H63 0.950 . S
C92 C91 1.395 . S
C92 C93 1.288 1_554 S
C93 C92 1.288 1_556 S
C93 C94 1.392 . S
C94 H64 0.951 . S
C94 C93 1.392 . S
C94 C95 1.392 1_556 S
C95 H65 0.949 1_554 S
C95 C90 1.382 . S
C95 C94 1.392 1_554 S
H96 C115 0.949 . S
H97 C116 0.950 . S
H98 C118 0.950 . S
H99 C119 0.950 . S
H100 C121 0.950 . S
H101 C124 0.950 . S
H102 C125 0.950 . S
H103 C127 0.951 . S
H104 C128 0.949 . S
H105 C130 0.949 . S
H106 C131 0.950 . S
H107 C133 0.950 . S
H108 C134 0.950 . S
H109 C136 0.950 . S
H110 C139 0.950 . S
H111 C140 0.950 . S
H112 C142 0.951 . S
H113 C143 0.949 . S
C114 C115 1.376 . S
C114 C119 1.386 . S
C114 C120 1.483 . S
C115 H96 0.949 . S
C115 C114 1.376 . S
C115 C116 1.397 . S
C116 H97 0.950 . S
C116 C115 1.397 . S
C116 C117 1.391 . S
C117 C116 1.391 . S
C117 C118 1.405 . S
C118 H98 0.950 . S
C118 C117 1.405 . S
C118 C119 1.367 . S
C119 H99 0.950 . S
C119 C114 1.386 . S
C119 C118 1.367 . S
C120 C114 1.483 . S
C120 C121 1.382 . S
C120 C122 1.403 1_556 S
C121 H100 0.950 . S
C121 C120 1.382 . S
C121 C137 1.411 . S
C122 C120 1.403 1_554 S
C122 C123 1.489 . S
C122 C136 1.411 . S
C123 C122 1.489 . S
C123 C124 1.383 . S
C123 C128 1.382 . S
C124 H101 0.950 . S
C124 C123 1.383 . S
C124 C125 1.395 . S
C125 H102 0.950 . S
C125 C124 1.395 . S
C125 C126 1.288 . S
C126 C125 1.288 . S
C126 C127 1.392 . S
C127 H103 0.951 . S
C127 C126 1.392 . S
C127 C128 1.392 . S
C128 H104 0.949 . S
C128 C123 1.382 . S
C128 C127 1.392 . S
C129 C130 1.376 . S
C129 C134 1.386 . S
C129 C135 1.483 . S
C130 H105 0.949 . S
C130 C129 1.376 . S
C130 C131 1.397 . S
C131 H106 0.950 . S
C131 C130 1.397 . S
C131 C132 1.391 . S
C132 C131 1.391 . S
C132 C133 1.405 . S
C133 H107 0.950 . S
C133 C132 1.405 . S
C133 C134 1.367 . S
C134 H108 0.950 . S
C134 C129 1.386 . S
C134 C133 1.367 . S
C135 C129 1.483 . S
C135 C136 1.382 . S
C135 C137 1.403 1_554 S
C136 H109 0.950 . S
C136 C122 1.411 . S
C136 C135 1.382 . S
C137 C121 1.411 . S
C137 C135 1.403 1_556 S
C137 C138 1.489 . S
C138 C137 1.489 . S
C138 C139 1.383 . S
C138 C143 1.382 . S
C139 H110 0.950 . S
C139 C138 1.383 . S
C139 C140 1.395 . S
C140 H111 0.950 . S
C140 C139 1.395 . S
C140 C141 1.288 . S
C141 C140 1.288 . S
C141 C142 1.392 . S
C142 H112 0.951 . S
C142 C141 1.392 . S
C142 C143 1.392 . S
C143 H113 0.949 . S
C143 C138 1.382 . S
C143 C142 1.392 . S
H144 C163 0.949 . S
H145 C164 0.950 . S
H146 C166 0.950 . S
H147 C167 0.950 . S
H148 C169 0.950 . S
H149 C172 0.950 1_554 S
H150 C173 0.950 . S
H151 C175 0.951 . S
H152 C176 0.949 . S
H153 C178 0.949 . S
H154 C179 0.950 . S
H155 C181 0.950 . S
H156 C182 0.950 1_554 S
H157 C184 0.950 . S
H158 C187 0.950 . S
H159 C188 0.950 . S
H160 C190 0.951 . S
H161 C191 0.949 . S
C162 C163 1.376 . S
C162 C167 1.386 . S
C162 C168 1.483 . S
C163 H144 0.949 . S
C163 C162 1.376 . S
C163 C164 1.397 . S
C164 H145 0.950 . S
C164 C163 1.397 . S
C164 C165 1.391 . S
C165 C164 1.391 . S
C165 C166 1.405 . S
C166 H146 0.950 . S
C166 C165 1.405 . S
C166 C167 1.367 . S
C167 H147 0.950 . S
C167 C162 1.386 . S
C167 C166 1.367 . S
C168 C162 1.483 . S
C168 C169 1.382 . S
C168 C170 1.403 . S
C169 H148 0.950 . S
C169 C168 1.382 . S
C169 C185 1.411 . S
C170 C168 1.403 . S
C170 C171 1.489 1_554 S
C170 C184 1.411 1_554 S
C171 C170 1.489 1_556 S
C171 C172 1.383 . S
C171 C176 1.382 . S
C172 H149 0.950 1_556 S
C172 C171 1.383 . S
C172 C173 1.395 . S
C173 H150 0.950 . S
C173 C172 1.395 . S
C173 C174 1.288 . S
C174 C173 1.288 . S
C174 C175 1.392 . S
C175 H151 0.951 . S
C175 C174 1.392 . S
C175 C176 1.392 . S
C176 H152 0.949 . S
C176 C171 1.382 . S
C176 C175 1.392 . S
C177 C178 1.376 . S
C177 C182 1.386 . S
C177 C183 1.483 1_556 S
C178 H153 0.949 . S
C178 C177 1.376 . S
C178 C179 1.397 . S
C179 H154 0.950 . S
C179 C178 1.397 . S
C179 C180 1.391 . S
C180 C179 1.391 . S
C180 C181 1.405 . S
C181 H155 0.950 . S
C181 C180 1.405 . S
C181 C182 1.367 . S
C182 H156 0.950 1_556 S
C182 C177 1.386 . S
C182 C181 1.367 . S
C183 C177 1.483 1_554 S
C183 C184 1.382 1_554 S
C183 C185 1.403 . S
C184 H157 0.950 . S
C184 C170 1.411 1_556 S
C184 C183 1.382 1_556 S
C185 C169 1.411 . S
C185 C183 1.403 . S
C185 C186 1.489 . S
C186 C185 1.489 . S
C186 C187 1.383 . S
C186 C191 1.382 . S
C187 H158 0.950 . S
C187 C186 1.383 . S
C187 C188 1.395 . S
C188 H159 0.950 . S
C188 C187 1.395 . S
C188 C189 1.288 . S
C189 C188 1.288 . S
C189 C190 1.392 . S
C190 H160 0.951 . S
C190 C189 1.392 . S
C190 C191 1.392 . S
C191 H161 0.949 . S
C191 C186 1.382 . S
C191 C190 1.392 . S
H192 C211 0.949 . S
H193 C212 0.950 . S
H194 C214 0.950 . S
H195 C215 0.950 . S
H196 C217 0.950 1_556 S
H197 C220 0.950 . S
H198 C221 0.950 . S
H199 C223 0.951 . S
H200 C224 0.949 . S
H201 C226 0.949 . S
H202 C227 0.950 . S
H203 C229 0.950 . S
H204 C230 0.950 . S
H205 C232 0.950 . S
H206 C235 0.950 . S
H207 C236 0.950 . S
H208 C238 0.951 . S
H209 C239 0.949 . S
C210 C211 1.376 1_554 S
C210 C215 1.386 . S
C210 C216 1.483 . S
C211 H192 0.949 . S
C211 C210 1.376 1_556 S
C211 C212 1.397 . S
C212 H193 0.950 . S
C212 C211 1.397 . S
C212 C213 1.391 . S
C213 C212 1.391 . S
C213 C214 1.405 . S
C214 H194 0.950 . S
C214 C213 1.405 . S
C214 C215 1.367 1_556 S
C215 H195 0.950 . S
C215 C210 1.386 . S
C215 C214 1.367 1_554 S
C216 C210 1.483 . S
C216 C217 1.382 . S
C216 C218 1.403 . S
C217 H196 0.950 1_554 S
C217 C216 1.382 . S
C217 C233 1.411 . S
C218 C216 1.403 . S
C218 C219 1.489 . S
C218 C232 1.411 . S
C219 C218 1.489 . S
C219 C220 1.383 . S
C219 C224 1.382 . S
C220 H197 0.950 . S
C220 C219 1.383 . S
C220 C221 1.395 . S
C221 H198 0.950 . S
C221 C220 1.395 . S
C221 C222 1.288 . S
C222 C221 1.288 . S
C222 C223 1.392 . S
C223 H199 0.951 . S
C223 C222 1.392 . S
C223 C224 1.392 . S
C224 H200 0.949 . S
C224 C219 1.382 . S
C224 C223 1.392 . S
C225 C226 1.376 . S
C225 C230 1.386 . S
C225 C231 1.483 . S
C226 H201 0.949 . S
C226 C225 1.376 . S
C226 C227 1.397 . S
C227 H202 0.950 . S
C227 C226 1.397 . S
C227 C228 1.391 . S
C228 C227 1.391 . S
C228 C229 1.405 . S
C229 H203 0.950 . S
C229 C228 1.405 . S
C229 C230 1.367 . S
C230 H204 0.950 . S
C230 C225 1.386 . S
C230 C229 1.367 . S
C231 C225 1.483 . S
C231 C232 1.382 . S
C231 C233 1.403 . S
C232 H205 0.950 . S
C232 C218 1.411 . S
C232 C231 1.382 . S
C233 C217 1.411 . S
C233 C231 1.403 . S
C233 C234 1.489 . S
C234 C233 1.489 . S
C234 C235 1.383 . S
C234 C239 1.382 1_554 S
C235 H206 0.950 . S
C235 C234 1.383 . S
C235 C236 1.395 1_554 S
C236 H207 0.950 . S
C236 C235 1.395 1_556 S
C236 C237 1.288 . S
C237 C236 1.288 . S
C237 C238 1.392 . S
C238 H208 0.951 . S
C238 C237 1.392 . S
C238 C239 1.392 . S
C239 H209 0.949 . S
C239 C234 1.382 1_556 S
C239 C238 1.392 . S
H240 C259 0.949 . S
H241 C260 0.950 . S
H242 C262 0.950 . S
H243 C263 0.950 . S
H244 C265 0.950 . S
H245 C268 0.950 . S
H246 C269 0.950 . S
H247 C271 0.951 . S
H248 C272 0.949 . S
H249 C274 0.949 . S
H250 C275 0.950 . S
H251 C277 0.950 . S
H252 C278 0.950 . S
H253 C280 0.950 . S
H254 C283 0.950 . S
H255 C284 0.950 . S
H256 C286 0.951 . S
H257 C287 0.949 . S
C258 C259 1.376 . S
C258 C263 1.386 . S
C258 C264 1.483 . S
C259 H240 0.949 . S
C259 C258 1.376 . S
C259 C260 1.397 . S
C260 H241 0.950 . S
C260 C259 1.397 . S
C260 C261 1.391 . S
C261 C260 1.391 . S
C261 C262 1.405 . S
C262 H242 0.950 . S
C262 C261 1.405 . S
C262 C263 1.367 . S
C263 H243 0.950 . S
C263 C258 1.386 . S
C263 C262 1.367 . S
C264 C258 1.483 . S
C264 C265 1.382 . S
C264 C266 1.403 . S
C265 H244 0.950 . S
C265 C264 1.382 . S
C265 C281 1.411 . S
C266 C264 1.403 . S
C266 C267 1.489 . S
C266 C280 1.411 . S
C267 C266 1.489 . S
C267 C268 1.383 . S
C267 C272 1.382 . S
C268 H245 0.950 . S
C268 C267 1.383 . S
C268 C269 1.395 . S
C269 H246 0.950 . S
C269 C268 1.395 . S
C269 C270 1.288 . S
C270 C269 1.288 . S
C270 C271 1.392 . S
C271 H247 0.951 . S
C271 C270 1.392 . S
C271 C272 1.392 . S
C272 H248 0.949 . S
C272 C267 1.382 . S
C272 C271 1.392 . S
C273 C274 1.376 . S
C273 C278 1.386 . S
C273 C279 1.483 . S
C274 H249 0.949 . S
C274 C273 1.376 . S
C274 C275 1.397 . S
C275 H250 0.950 . S
C275 C274 1.397 . S
C275 C276 1.391 . S
C276 C275 1.391 . S
C276 C277 1.405 . S
C277 H251 0.950 . S
C277 C276 1.405 . S
C277 C278 1.367 . S
C278 H252 0.950 . S
C278 C273 1.386 . S
C278 C277 1.367 . S
C279 C273 1.483 . S
C279 C280 1.382 . S
C279 C281 1.403 . S
C280 H253 0.950 . S
C280 C266 1.411 . S
C280 C279 1.382 . S
C281 C265 1.411 . S
C281 C279 1.403 . S
C281 C282 1.489 . S
C282 C281 1.489 . S
C282 C283 1.383 . S
C282 C287 1.382 . S
C283 H254 0.950 . S
C283 C282 1.383 . S
C283 C284 1.395 . S
C284 H255 0.950 . S
C284 C283 1.395 . S
C284 C285 1.288 . S
C285 C284 1.288 . S
C285 C286 1.392 . S
C286 H256 0.951 . S
C286 C285 1.392 . S
C286 C287 1.392 . S
C287 H257 0.949 . S
C287 C282 1.382 . S
C287 C286 1.392 . S
C288 O300 1.241 . S
C288 O301 1.280 . S
C289 O302 1.277 . S
C289 O303 1.245 . S
C290 O314 1.247 . S
C290 O316 1.289 . S
Mg291 O292 1.926 . S
Mg291 O301 1.984 . S
Mg291 O303 1.988 1_655 S
Mg291 O304 2.061 . S
O292 Mg291 1.926 . S
O292 Mg293 1.986 1_655 S
O292 Mg294 1.917 1_655 S
Mg293 O292 1.986 1_455 S
Mg293 O300 2.042 1_455 S
Mg293 O302 2.041 . S
Mg293 O308 2.038 1_455 S
Mg293 O316 2.238 . S
Mg294 O292 1.917 1_455 S
Mg294 O295 1.917 . S
Mg294 O305 2.106 1_455 S
Mg294 O307 2.079 1_455 S
Mg294 O316 2.106 . S
Mg294 O317 2.079 . S
O295 Mg294 1.917 . S
O295 Mg296 1.926 . S
O295 Mg297 1.986 . S
Mg296 O295 1.926 . S
Mg296 O310 1.984 . S
Mg296 O313 1.988 1_455 S
Mg296 O314 2.061 . S
Mg297 O295 1.986 . S
Mg297 O305 2.238 1_455 S
Mg297 O309 2.042 . S
Mg297 O311 2.041 1_455 S
Mg297 O318 2.038 . S
C298 O304 1.247 . S
C298 O305 1.289 . S
C299 O317 1.245 . S
C299 O318 1.274 . S
O300 C288 1.241 . S
O300 Mg293 2.042 1_655 S
O301 C288 1.280 . S
O301 Mg291 1.984 . S
O302 C289 1.277 . S
O302 Mg293 2.041 . S
O303 C289 1.245 . S
O303 Mg291 1.988 1_455 S
O304 Mg291 2.061 . S
O304 C298 1.247 . S
O305 Mg294 2.106 1_655 S
O305 Mg297 2.238 1_655 S
O305 C298 1.289 . S
C306 O307 1.245 . S
C306 O308 1.274 . S
O307 Mg294 2.079 1_655 S
O307 C306 1.245 . S
O308 Mg293 2.038 1_655 S
O308 C306 1.274 . S
O309 Mg297 2.042 . S
O309 C312 1.241 . S
O310 Mg296 1.984 . S
O310 C312 1.280 . S
O311 Mg297 2.041 1_655 S
O311 C315 1.277 . S
C312 O309 1.241 . S
C312 O310 1.280 . S
O313 Mg296 1.988 1_655 S
O313 C315 1.245 . S
O314 C290 1.247 . S
O314 Mg296 2.061 . S
C315 O311 1.277 . S
C315 O313 1.245 . S
O316 C290 1.289 . S
O316 Mg293 2.238 . S
O316 Mg294 2.106 . S
O317 Mg294 2.079 . S
O317 C299 1.245 . S
O318 Mg297 2.038 . S
O318 C299 1.274 . S
C319 O331 1.241 . S
C319 O332 1.280 . S
C320 O333 1.277 . S
C320 O334 1.245 . S
C321 O345 1.247 . S
C321 O347 1.289 . S
Mg322 O323 1.926 . S
Mg322 O332 1.984 . S
Mg322 O334 1.988 1_545 S
Mg322 O335 2.061 . S
O323 Mg322 1.926 . S
O323 Mg324 1.986 . S
O323 Mg325 1.917 . S
Mg324 O323 1.986 . S
Mg324 O331 2.042 . S
Mg324 O333 2.041 1_545 S
Mg324 O339 2.038 . S
Mg324 O347 2.238 1_545 S
Mg325 O323 1.917 . S
Mg325 O326 1.917 1_545 S
Mg325 O336 2.106 . S
Mg325 O338 2.079 . S
Mg325 O347 2.106 1_545 S
Mg325 O348 2.079 1_545 S
O326 Mg325 1.917 1_565 S
O326 Mg327 1.926 . S
O326 Mg328 1.986 1_565 S
Mg327 O326 1.926 . S
Mg327 O341 1.984 . S
Mg327 O344 1.988 1_565 S
Mg327 O345 2.061 . S
Mg328 O326 1.986 1_545 S
Mg328 O336 2.238 . S
Mg328 O340 2.042 1_545 S
Mg328 O342 2.041 . S
Mg328 O349 2.038 1_545 S
C329 O335 1.247 . S
C329 O336 1.289 . S
C330 O348 1.245 . S
C330 O349 1.274 . S
O331 C319 1.241 . S
O331 Mg324 2.042 . S
O332 C319 1.280 . S
O332 Mg322 1.984 . S
O333 C320 1.277 . S
O333 Mg324 2.041 1_565 S
O334 C320 1.245 . S
O334 Mg322 1.988 1_565 S
O335 Mg322 2.061 . S
O335 C329 1.247 . S
O336 Mg325 2.106 . S
O336 Mg328 2.238 . S
O336 C329 1.289 . S
C337 O338 1.245 . S
C337 O339 1.274 . S
O338 Mg325 2.079 . S
O338 C337 1.245 . S
O339 Mg324 2.038 . S
O339 C337 1.274 . S
O340 Mg328 2.042 1_565 S
O340 C343 1.241 . S
O341 Mg327 1.984 . S
O341 C343 1.280 . S
O342 Mg328 2.041 . S
O342 C346 1.277 . S
C343 O340 1.241 . S
C343 O341 1.280 . S
O344 Mg327 1.988 1_545 S
O344 C346 1.245 . S
O345 C321 1.247 . S
O345 Mg327 2.061 . S
C346 O342 1.277 . S
C346 O344 1.245 . S
O347 C321 1.289 . S
O347 Mg324 2.238 1_565 S
O347 Mg325 2.106 1_565 S
O348 Mg325 2.079 1_565 S
O348 C330 1.245 . S
O349 Mg328 2.038 1_565 S
O349 C330 1.274 . S
C350 O362 1.241 . S
C350 O363 1.280 . S
C351 O364 1.277 . S
C351 O365 1.245 . S
C352 O376 1.247 . S
C352 O378 1.289 . S
Mg353 O354 1.926 . S
Mg353 O363 1.984 . S
Mg353 O365 1.988 . S
Mg353 O366 2.061 . S
O354 Mg353 1.926 . S
O354 Mg355 1.986 . S
O354 Mg356 1.917 . S
Mg355 O354 1.986 . S
Mg355 O362 2.042 . S
Mg355 O364 2.041 . S
Mg355 O370 2.038 . S
Mg355 O378 2.238 . S
Mg356 O354 1.917 . S
Mg356 O357 1.917 . S
Mg356 O367 2.106 . S
Mg356 O369 2.079 . S
Mg356 O378 2.106 . S
Mg356 O379 2.079 . S
O357 Mg356 1.917 . S
O357 Mg358 1.926 . S
O357 Mg359 1.986 . S
Mg358 O357 1.926 . S
Mg358 O372 1.984 . S
Mg358 O375 1.988 . S
Mg358 O376 2.061 . S
Mg359 O357 1.986 . S
Mg359 O367 2.238 . S
Mg359 O371 2.042 . S
Mg359 O373 2.041 . S
Mg359 O380 2.038 . S
C360 O366 1.247 . S
C360 O367 1.289 . S
C361 O379 1.245 . S
C361 O380 1.274 . S
O362 C350 1.241 . S
O362 Mg355 2.042 . S
O363 C350 1.280 . S
O363 Mg353 1.984 . S
O364 C351 1.277 . S
O364 Mg355 2.041 . S
O365 C351 1.245 . S
O365 Mg353 1.988 . S
O366 Mg353 2.061 . S
O366 C360 1.247 . S
O367 Mg356 2.106 . S
O367 Mg359 2.238 . S
O367 C360 1.289 . S
C368 O369 1.245 . S
C368 O370 1.274 . S
O369 Mg356 2.079 . S
O369 C368 1.245 . S
O370 Mg355 2.038 . S
O370 C368 1.274 . S
O371 Mg359 2.042 . S
O371 C374 1.241 . S
O372 Mg358 1.984 . S
O372 C374 1.280 . S
O373 Mg359 2.041 . S
O373 C377 1.277 . S
C374 O371 1.241 . S
C374 O372 1.280 . S
O375 Mg358 1.988 . S
O375 C377 1.245 . S
O376 C352 1.247 . S
O376 Mg358 2.061 . S
C377 O373 1.277 . S
C377 O375 1.245 . S
O378 C352 1.289 . S
O378 Mg355 2.238 . S
O378 Mg356 2.106 . S
O379 Mg356 2.079 . S
O379 C361 1.245 . S
O380 Mg359 2.038 . S
O380 C361 1.274 . S
C381 C382 1.170 . S
C381 C383 1.380 . S
C382 C381 1.170 . S
C383 C381 1.380 . S
C383 C384 1.170 . S
C384 C383 1.170 . S
C385 C386 1.170 . S
C385 C387 1.380 . S
C386 C385 1.170 . S
C387 C385 1.380 . S
C387 C388 1.170 . S
C388 C387 1.170 . S
C389 C390 1.170 . S
C389 C391 1.380 . S
C390 C389 1.170 . S
C391 C389 1.380 . S
C391 C392 1.170 . S
C392 C391 1.170 . S
C393 C394 1.170 . S
C393 C395 1.380 . S
C394 C393 1.170 . S
C395 C393 1.380 . S
C395 C396 1.170 . S
C396 C395 1.170 . S
C397 C398 1.170 . S
C397 C399 1.380 . S
C398 C397 1.170 . S
C399 C397 1.380 . S
C399 C400 1.170 . S
C400 C399 1.170 . S
C401 C402 1.170 . S
C401 C403 1.380 . S
C402 C401 1.170 . S
C403 C401 1.380 . S
C403 C404 1.170 . S
C404 C403 1.170 . S
C405 C406 1.170 . S
C405 C407 1.380 . S
C406 C405 1.170 . S
C407 C405 1.380 . S
C407 C408 1.170 . S
C408 C407 1.170 . S
C409 C410 1.170 . S
C409 C411 1.380 . S
C410 C409 1.170 . S
C411 C409 1.380 . S
C411 C412 1.170 . S
C412 C411 1.170 . S
C413 C414 1.170 . S
C413 C415 1.380 . S
C414 C413 1.170 . S
C415 C413 1.380 . S
C415 C416 1.170 . S
C416 C415 1.170 . S
C417 C418 1.170 . S
C417 C419 1.380 . S
C418 C417 1.170 . S
C419 C417 1.380 . S
C419 C420 1.170 . S
C420 C419 1.170 . S
C421 C422 1.170 . S
C421 C423 1.380 . S
C422 C421 1.170 . S
C423 C421 1.380 . S
C423 C424 1.170 . S
C424 C423 1.170 . S
C425 C426 1.170 . S
C425 C427 1.380 . S
C426 C425 1.170 . S
C427 C425 1.380 . S
C427 C428 1.170 . S
C428 C427 1.170 . S
C429 C430 1.170 . S
C429 C431 1.380 . S
C430 C429 1.170 . S
C431 C429 1.380 . S
C431 C432 1.170 . S
C432 C431 1.170 . S
C433 C434 1.170 . S
C433 C435 1.380 . S
C434 C433 1.170 . S
C435 C433 1.380 . S
C435 C436 1.170 . S
C436 C435 1.170 . S
C437 C438 1.179 . S
C437 C439 1.380 . S
C438 C437 1.179 . S
C439 C437 1.380 . S
C439 C440 1.170 . S
C440 C439 1.170 . S
C441 C442 1.170 . S
C441 C443 1.380 . S
C442 C441 1.170 . S
C443 C441 1.380 . S
C443 C444 1.170 . S
C444 C443 1.170 . S
C445 C446 1.170 . S
C445 C447 1.380 . S
C446 C445 1.170 . S
C447 C445 1.380 . S
C447 C448 1.170 . S
C448 C447 1.170 . S
C449 C450 1.170 . S
C449 C451 1.380 . S
C450 C449 1.170 . S
C451 C449 1.380 . S
C451 C452 1.170 . S
C452 C451 1.170 . S
C453 C454 1.170 . S
C453 C455 1.380 . S
C454 C453 1.170 . S
C455 C453 1.380 . S
C455 C456 1.170 . S
C456 C455 1.170 . S
C457 C458 1.170 . S
C457 C459 1.380 . S
C458 C457 1.170 . S
C459 C457 1.380 . S
C459 C460 1.170 . S
C460 C459 1.170 . S
C461 C462 1.170 . S
C461 C463 1.380 . S
C462 C461 1.170 . S
C463 C461 1.380 . S
C463 C464 1.170 . S
C464 C463 1.170 . S
C465 C466 1.170 . S
C465 C467 1.380 . S
C466 C465 1.170 . S
C467 C465 1.380 . S
C467 C468 1.170 . S
C468 C467 1.170 . S
C469 C470 1.170 . S
C469 C471 1.380 . S
C470 C469 1.170 . S
C471 C469 1.380 . S
C471 C472 1.170 . S
C472 C471 1.170 . S
C473 C474 1.170 . S
C473 C475 1.380 . S
C474 C473 1.170 . S
C475 C473 1.380 . S
C475 C476 1.170 . S
C476 C475 1.170 . S
C382 C45 1.925 . S
C384 C299 1.861 . S
C386 C84 1.627 . S
C388 C346 1.603 . S
C392 C350 1.770 . S
C390 C126 1.790 . S
C396 C315 1.489 . S
C394 C165 1.562 . S
C398 C222 1.791 . S
C400 C330 1.766 . S
C404 C352 1.108 . S
C402 C276 1.213 . S
C408 C321 1.495 . S
C406 C141 1.600 . S
C410 C180 1.533 . S
C412 C361 1.457 . S
C416 C290 1.386 . S
C414 C237 1.513 . S
C418 C261 1.480 1_556 S
C420 C319 1.414 . S
C422 C30 1.893 1_556 S
C424 C377 1.830 . S
C428 C288 1.515 . S
C426 C69 1.562 . S
C432 C306 1.826 . S
C430 C174 1.935 . S
C436 C320 1.580 . S
C434 C213 1.628 . S
C440 C374 1.744 . S
C438 C285 1.809 1_556 S
C444 C289 1.527 . S
C442 C36 1.549 1_556 S
C448 C337 1.760 . S
C446 C93 1.779 . S
C450 C117 1.207 . S
C452 C360 1.150 . S
C456 C329 1.479 . S
C454 C270 1.603 . S
C460 C368 1.478 . S
C458 C21 1.532 . S
C464 C298 1.418 . S
C462 C78 1.500 . S
C468 C343 1.407 . S
C466 C132 1.484 . S
C470 C189 1.877 . S
C472 C351 1.863 . S
C474 C228 1.546 . S
C476 C312 1.529 . S
