# Generated by pormake.
# Topology pyr, (3,6)-cn, num edge types: 1
# Building blocks:
#     Node 0, Type 0, BuildingBlock: QEWDON_clean_linker_0, # of connection points: 3
#     Node 1, Type 0, BuildingBlock: QEWDON_clean_linker_0, # of connection points: 3
#     Node 2, Type 0, BuildingBlock: QEWDON_clean_linker_0, # of connection points: 3
#     Node 3, Type 0, BuildingBlock: QEWDON_clean_linker_0, # of connection points: 3
#     Node 4, Type 0, BuildingBlock: QEWDON_clean_linker_0, # of connection points: 3
#     Node 5, Type 0, BuildingBlock: QEWDON_clean_linker_0, # of connection points: 3
#     Node 6, Type 0, BuildingBlock: QEWDON_clean_linker_0, # of connection points: 3
#     Node 7, Type 0, BuildingBlock: QEWDON_clean_linker_0, # of connection points: 3
#     Node 8, Type 1, BuildingBlock: GEDQOX_clean_sbu_0, # of connection points: 6
#     Node 9, Type 1, BuildingBlock: GEDQOX_clean_sbu_0, # of connection points: 6
#     Node 10, Type 1, BuildingBlock: GEDQOX_clean_sbu_0, # of connection points: 6
#     Node 11, Type 1, BuildingBlock: GEDQOX_clean_sbu_0, # of connection points: 6
#     Edge 12, Type (0, 1), BuildingBlock: KIFKEQ_clean_linker_1, # of connection points: 2
#     Edge 13, Type (0, 1), BuildingBlock: KIFKEQ_clean_linker_1, # of connection points: 2
#     Edge 14, Type (0, 1), BuildingBlock: KIFKEQ_clean_linker_1, # of connection points: 2
#     Edge 15, Type (0, 1), BuildingBlock: KIFKEQ_clean_linker_1, # of connection points: 2
#     Edge 16, Type (0, 1), BuildingBlock: KIFKEQ_clean_linker_1, # of connection points: 2
#     Edge 17, Type (0, 1), BuildingBlock: KIFKEQ_clean_linker_1, # of connection points: 2
#     Edge 18, Type (0, 1), BuildingBlock: KIFKEQ_clean_linker_1, # of connection points: 2
#     Edge 19, Type (0, 1), BuildingBlock: KIFKEQ_clean_linker_1, # of connection points: 2
#     Edge 20, Type (0, 1), BuildingBlock: KIFKEQ_clean_linker_1, # of connection points: 2
#     Edge 21, Type (0, 1), BuildingBlock: KIFKEQ_clean_linker_1, # of connection points: 2
#     Edge 22, Type (0, 1), BuildingBlock: KIFKEQ_clean_linker_1, # of connection points: 2
#     Edge 23, Type (0, 1), BuildingBlock: KIFKEQ_clean_linker_1, # of connection points: 2
#     Edge 24, Type (0, 1), BuildingBlock: KIFKEQ_clean_linker_1, # of connection points: 2
#     Edge 25, Type (0, 1), BuildingBlock: KIFKEQ_clean_linker_1, # of connection points: 2
#     Edge 26, Type (0, 1), BuildingBlock: KIFKEQ_clean_linker_1, # of connection points: 2
#     Edge 27, Type (0, 1), BuildingBlock: KIFKEQ_clean_linker_1, # of connection points: 2
#     Edge 28, Type (0, 1), BuildingBlock: KIFKEQ_clean_linker_1, # of connection points: 2
#     Edge 29, Type (0, 1), BuildingBlock: KIFKEQ_clean_linker_1, # of connection points: 2
#     Edge 30, Type (0, 1), BuildingBlock: KIFKEQ_clean_linker_1, # of connection points: 2
#     Edge 31, Type (0, 1), BuildingBlock: KIFKEQ_clean_linker_1, # of connection points: 2
#     Edge 32, Type (0, 1), BuildingBlock: KIFKEQ_clean_linker_1, # of connection points: 2
#     Edge 33, Type (0, 1), BuildingBlock: KIFKEQ_clean_linker_1, # of connection points: 2
#     Edge 34, Type (0, 1), BuildingBlock: KIFKEQ_clean_linker_1, # of connection points: 2
#     Edge 35, Type (0, 1), BuildingBlock: KIFKEQ_clean_linker_1, # of connection points: 2
# Relax obj value: 0.227
# Max RMSD: 0.288
# Mean RMSD: 0.204
data_MOF--net-pyr--node1-GEDQOX_clean_sbu_0--node2-QEWDON_clean_linker_0--edge1-KIFKEQ_clean_linker_1
_symmetry_space_group_name_H-M    P1
_symmetry_Int_Tables_number       1
_symmetry_cell_setting            triclinic
loop_
_symmetry_equiv_pos_as_xyz
'x, y, z'
_cell_length_a     39.623435
_cell_length_b     39.750787
_cell_length_c     38.0666
_cell_angle_alpha  88.20708
_cell_angle_beta   91.618188
_cell_angle_gamma 95.714714
loop_
_atom_site_label
_atom_site_type_symbol
_atom_site_fract_x
_atom_site_fract_y
_atom_site_fract_z
_atom_type_partial_charge
H0 H 0.28716 0.22588 0.17997 0.0
C1 C 0.27235 0.21285 0.20066 0.0
C2 C 0.28203 0.18116 0.21417 0.0
C3 C 0.24467 0.22886 0.21388 0.0
H4 H 0.27059 0.14229 0.25424 0.0
C5 C 0.2628 0.16562 0.24284 0.0
C6 C 0.23525 0.18079 0.25819 0.0
C7 C 0.2266 0.21221 0.24236 0.0
C8 C 0.2417 0.26663 0.20467 0.0
H9 H 0.2064 0.22487 0.25297 0.0
C10 C 0.21387 0.28183 0.18635 0.0
C11 C 0.21565 0.3182 0.17901 0.0
C12 C 0.26971 0.28863 0.21553 0.0
H13 H 0.29099 0.27876 0.22951 0.0
C14 C 0.27112 0.32338 0.2091 0.0
H15 H 0.19189 0.26576 0.17734 0.0
C16 C 0.24481 0.33782 0.19118 0.0
H17 H 0.2474 0.36501 0.18663 0.0
H18 H 0.29317 0.33945 0.21801 0.0
H19 H 0.38905 0.82071 0.88658 0.0
C20 C 0.40404 0.80839 0.86834 0.0
C21 C 0.43938 0.8164 0.86765 0.0
C22 C 0.38764 0.78521 0.84519 0.0
H23 H 0.4858 0.80554 0.8434 0.0
C24 C 0.45845 0.80016 0.84353 0.0
C25 C 0.4421 0.77567 0.82089 0.0
C26 C 0.40655 0.76928 0.82144 0.0
C27 C 0.35059 0.77706 0.84607 0.0
H28 H 0.39338 0.75134 0.80363 0.0
C29 C 0.32985 0.78821 0.81853 0.0
C30 C 0.29442 0.78002 0.81867 0.0
C31 C 0.33599 0.75771 0.87413 0.0
H32 H 0.35173 0.74892 0.89557 0.0
C33 C 0.30098 0.7491 0.87434 0.0
H34 H 0.34144 0.80394 0.79751 0.0
C35 C 0.28029 0.76002 0.84681 0.0
H36 H 0.25327 0.7526 0.84752 0.0
H37 H 0.28982 0.73381 0.89586 0.0
H38 H 0.78565 0.54221 0.95691 0.0
C39 C 0.77132 0.51813 0.96296 0.0
C40 C 0.78846 0.48953 0.97038 0.0
C41 C 0.73587 0.51561 0.96171 0.0
H42 H 0.78348 0.43629 0.98355 0.0
C43 C 0.76999 0.4583 0.97766 0.0
C44 C 0.73429 0.4552 0.97612 0.0
C45 C 0.71739 0.48411 0.96806 0.0
C46 C 0.71867 0.54526 0.94967 0.0
H47 H 0.68994 0.48202 0.96567 0.0
C48 C 0.69874 0.54353 0.91869 0.0
C49 C 0.68574 0.57257 0.90406 0.0
C50 C 0.72492 0.57618 0.96667 0.0
H51 H 0.74059 0.57805 0.99045 0.0
C52 C 0.71132 0.60499 0.95272 0.0
H53 H 0.69493 0.51991 0.90493 0.0
C54 C 0.69205 0.60334 0.92138 0.0
H55 H 0.68211 0.62604 0.91069 0.0
H56 H 0.7162 0.62878 0.96591 0.0
H57 H 0.88524 0.90194 0.28445 0.0
C58 C 0.87152 0.88388 0.3021 0.0
C59 C 0.882 0.88151 0.33751 0.0
C60 C 0.84413 0.86202 0.2893 0.0
H61 H 0.87237 0.85669 0.38771 0.0
C62 C 0.86435 0.85812 0.36027 0.0
C63 C 0.83611 0.83719 0.34831 0.0
C64 C 0.82649 0.8388 0.31258 0.0
C65 C 0.83446 0.86247 0.25146 0.0
H66 H 0.80473 0.82265 0.30299 0.0
C67 C 0.83071 0.83209 0.2333 0.0
C68 C 0.82242 0.83178 0.19714 0.0
C69 C 0.8296 0.8929 0.23319 0.0
H70 H 0.83228 0.91665 0.24668 0.0
C71 C 0.82086 0.89279 0.19735 0.0
H72 H 0.83569 0.80878 0.24717 0.0
C73 C 0.81739 0.86247 0.17933 0.0
H74 H 0.81085 0.86302 0.15151 0.0
H75 H 0.81697 0.91631 0.18344 0.0
H76 H 0.88502 0.85527 0.92671 0.0
C77 C 0.8986 0.86852 0.90533 0.0
C78 C 0.92931 0.85629 0.89367 0.0
C79 C 0.8843 0.8969 0.88871 0.0
H80 H 0.96771 0.86433 0.85384 0.0
C81 C 0.94508 0.87345 0.86374 0.0
C82 C 0.93192 0.90167 0.84575 0.0
C83 C 0.90186 0.91295 0.8593 0.0
C84 C 0.84684 0.90366 0.89365 0.0
H85 H 0.8904 0.9332 0.84524 0.0
C86 C 0.83163 0.91898 0.92311 0.0
C87 C 0.79562 0.92453 0.92231 0.0
C88 C 0.82527 0.89457 0.86487 0.0
H89 H 0.83503 0.88299 0.84234 0.0
C90 C 0.79119 0.90015 0.86394 0.0
H91 H 0.84726 0.92625 0.94591 0.0
C92 C 0.77677 0.91483 0.89181 0.0
H93 H 0.75008 0.91863 0.88936 0.0
H94 H 0.77558 0.89294 0.84107 0.0
H95 H 0.71476 0.27528 0.41349 0.0
C96 C 0.71036 0.26771 0.3865 0.0
C97 C 0.73636 0.25456 0.36834 0.0
C98 C 0.67803 0.269 0.37085 0.0
H99 H 0.74997 0.23377 0.31974 0.0
C100 C 0.73 0.24407 0.33356 0.0
C101 C 0.69756 0.2447 0.31746 0.0
C102 C 0.67193 0.25758 0.33643 0.0
C103 C 0.64923 0.2778 0.3918 0.0
H104 H 0.64648 0.25719 0.3252 0.0
C105 C 0.65063 0.30827 0.41019 0.0
C106 C 0.62212 0.31634 0.42849 0.0
C107 C 0.61967 0.25513 0.39311 0.0
H108 H 0.61816 0.23134 0.37974 0.0
C109 C 0.59187 0.26268 0.41187 0.0
H110 H 0.67319 0.32605 0.40917 0.0
C111 C 0.59296 0.29305 0.42928 0.0
H112 H 0.57091 0.29835 0.44357 0.0
H113 H 0.5693 0.24496 0.41278 0.0
H114 H 0.39218 0.65859 0.2726 0.0
C115 C 0.36791 0.65687 0.25864 0.0
C116 C 0.36324 0.67844 0.22932 0.0
C117 C 0.34136 0.63322 0.27004 0.0
H118 H 0.32827 0.69168 0.18788 0.0
C119 C 0.33194 0.6756 0.21091 0.0
C120 C 0.30517 0.65238 0.22195 0.0
C121 C 0.30991 0.63156 0.25174 0.0
C122 C 0.34641 0.60995 0.30072 0.0
H123 H 0.28911 0.61376 0.2604 0.0
C124 C 0.36619 0.62103 0.33028 0.0
C125 C 0.37089 0.59892 0.35916 0.0
C126 C 0.33152 0.57628 0.30051 0.0
H127 H 0.31687 0.5666 0.27792 0.0
C128 C 0.33584 0.5544 0.32926 0.0
H129 H 0.37749 0.64696 0.3312 0.0
C130 C 0.35535 0.56557 0.35842 0.0
H131 H 0.35893 0.54784 0.38008 0.0
H132 H 0.32434 0.52854 0.32876 0.0
H133 H 0.27853 0.27305 0.84826 0.0
C134 C 0.26534 0.25608 0.82956 0.0
C135 C 0.27422 0.25957 0.7943 0.0
C136 C 0.23905 0.23194 0.84052 0.0
H137 H 0.26591 0.23955 0.74282 0.0
C138 C 0.25856 0.23697 0.77004 0.0
C139 C 0.23239 0.21239 0.7801 0.0
C140 C 0.22277 0.20996 0.81555 0.0
C141 C 0.22721 0.23207 0.87735 0.0
H142 H 0.20158 0.19219 0.82325 0.0
C143 C 0.2279 0.2629 0.89462 0.0
C144 C 0.21844 0.26404 0.9297 0.0
C145 C 0.21544 0.20208 0.89562 0.0
H146 H 0.21476 0.17782 0.88333 0.0
C147 C 0.2049 0.20315 0.93036 0.0
H148 H 0.23535 0.28652 0.88063 0.0
C149 C 0.20639 0.23397 0.94743 0.0
H150 H 0.19863 0.2343 0.97446 0.0
H151 H 0.1959 0.17995 0.94424 0.0
Nd152 Nd 0.09446 1.01688 0.54628 0.0
Nd153 Nd 0.05181 0.07163 0.5493 0.0
C154 C 0.1209 0.95845 0.54668 0.0
C155 C 0.13475 0.93722 0.57478 0.0
C156 C 0.13314 0.90209 0.57151 0.0
C157 C 0.1467 0.882 0.59816 0.0
C158 C 0.16227 0.89679 0.62845 0.0
C159 C 0.16346 0.93209 0.63158 0.0
C160 C 0.14961 0.95202 0.60519 0.0
C161 C 0.12284 0.06912 0.58688 0.0
C162 C 0.04069 1.01396 0.61359 0.0
C163 C 1.02241 0.12883 0.54947 0.0
C164 C 0.99862 0.14533 0.52575 0.0
C165 C 0.9919 0.1787 0.53126 0.0
C166 C 0.96624 0.19305 0.51159 0.0
C167 C 0.94668 0.17407 0.48634 0.0
C168 C 0.95444 0.14104 0.48002 0.0
C169 C 0.98023 0.12685 0.49946 0.0
C170 C 1.02246 0.01982 0.50896 0.0
C171 C 0.1085 0.07435 0.48404 0.0
O172 O 0.08818 0.96066 0.54697 0.0
O173 O 0.13838 0.98758 0.54043 0.0
O174 O 0.13993 0.05315 0.56546 0.0
O175 O 0.0924 0.05702 0.58694 0.0
O176 O 0.05883 0.99645 0.59312 0.0
O177 O 1.03754 0.04611 0.60449 0.0
O178 O 0.05317 0.12728 0.53854 0.0
O179 O 1.00991 0.10051 0.56437 0.0
O180 O 1.00609 0.03669 0.53006 0.0
O181 O 0.05321 0.03119 0.5086 0.0
O182 O 0.09146 0.09238 0.50531 0.0
O183 O 0.10928 0.04167 0.49167 0.0
H184 H 0.12145 0.89022 0.54835 0.0
H185 H 0.14483 0.85488 0.59508 0.0
H186 H 0.1757 0.94453 0.65413 0.0
H187 H 0.15087 0.97912 0.60837 0.0
H188 H 1.00573 0.19328 0.55156 0.0
H189 H 0.96074 0.21845 0.51722 0.0
H190 H 0.94014 0.12594 0.46044 0.0
H191 H 0.98509 0.10104 0.49475 0.0
Nd192 Nd 0.5476 0.03364 0.10848 0.0
Nd193 Nd 0.54853 0.07365 0.05434 0.0
C194 C 0.54435 0.98446 0.1576 0.0
C195 C 0.54142 0.94754 0.16089 0.0
C196 C 0.54094 0.92759 0.13114 0.0
C197 C 0.53258 0.89264 0.13428 0.0
C198 C 0.52471 0.87731 0.16726 0.0
C199 C 0.52748 0.8973 0.19724 0.0
C200 C 0.53568 0.93217 0.19402 0.0
C201 C 0.49703 0.07877 0.11686 0.0
C202 C 0.51314 1.00222 0.03753 0.0
C203 C 0.54635 0.12687 1.0106 0.0
C204 C 0.5649 0.16094 1.00663 0.0
C205 C 0.55255 0.189 1.02168 0.0
C206 C 0.57029 0.22108 1.01847 0.0
C207 C 0.60063 0.22587 0.99991 0.0
C208 C 0.61273 0.1979 0.98444 0.0
C209 C 0.59504 0.16581 0.98769 0.0
C210 C 0.59983 0.03054 0.04367 0.0
C211 C 0.5945 0.09931 0.12336 0.0
O212 O 0.57273 0.99938 0.1459 0.0
O213 O 0.51795 0.99752 0.14397 0.0
O214 O 0.52207 0.07447 0.1386 0.0
O215 O 0.50158 0.06225 0.08927 0.0
O216 O 0.53141 0.99531 0.0656 0.0
O217 O 0.51002 0.03404 1.0293 0.0
O218 O 0.52713 0.12136 0.03782 0.0
O219 O 0.56289 0.10105 1.00443 0.0
O220 O 0.57684 0.03824 1.02077 0.0
O221 O 0.59453 0.04449 0.07281 0.0
O222 O 0.57887 0.10923 0.09446 0.0
O223 O 0.58954 0.06771 0.13361 0.0
H224 H 0.54567 0.93918 0.10542 0.0
H225 H 0.53092 0.87783 0.11078 0.0
H226 H 0.52111 0.88641 0.22293 0.0
H227 H 0.53592 0.94734 0.21721 0.0
H228 H 0.52917 0.18619 0.03603 0.0
H229 H 0.56003 0.24223 1.03021 0.0
H230 H 0.63619 0.20069 0.97023 0.0
H231 H 0.60514 0.1448 0.97552 0.0
Nd232 Nd 0.52137 0.55368 0.61065 0.0
Nd233 Nd 0.59221 0.59164 0.6034 0.0
C234 C 0.46034 0.52113 0.60382 0.0
C235 C 0.43403 0.50646 0.62749 0.0
C236 C 0.40342 0.49142 0.61339 0.0
C237 C 0.38176 0.47015 0.63451 0.0
C238 C 0.39076 0.46331 0.66988 0.0
C239 C 0.42017 0.48078 0.68452 0.0
C240 C 0.44161 0.50227 0.66346 0.0
C241 C 0.55923 0.55305 0.67185 0.0
C242 C 0.53623 0.62725 0.64422 0.0
C243 C 0.65671 0.61583 0.59943 0.0
C244 C 0.67537 0.64248 0.57826 0.0
C245 C 0.71088 0.64527 0.57858 0.0
C246 C 0.72869 0.66719 0.55461 0.0
C247 C 0.71112 0.68635 0.52981 0.0
C248 C 0.67552 0.68423 0.53043 0.0
C249 C 0.65779 0.66246 0.55447 0.0
C250 C 0.5444 0.60721 0.55271 0.0
C251 C 0.57942 0.51494 0.57349 0.0
O252 O 0.46567 0.5542 0.60149 0.0
O253 O 0.48834 0.50624 0.60598 0.0
O254 O 0.52649 0.55176 0.67049 0.0
O255 O 0.57101 0.55083 0.64165 0.0
O256 O 0.51379 0.60832 0.62499 0.0
O257 O 0.56861 0.62181 0.64515 0.0
O258 O 0.64293 0.59045 0.58136 0.0
O259 O 0.63645 0.62542 0.62294 0.0
O260 O 0.56752 0.62962 0.56455 0.0
O261 O 0.54899 0.57882 0.56567 0.0
O262 O 0.60238 0.53907 0.58427 0.0
O263 O 0.54679 0.51653 0.57807 0.0
H264 H 0.39724 0.49446 0.58563 0.0
H265 H 0.35887 0.45767 0.62267 0.0
H266 H 0.42803 0.47599 0.71154 0.0
H267 H 0.46529 0.51365 0.6747 0.0
H268 H 0.72476 0.62966 0.59652 0.0
H269 H 0.75611 0.66815 0.55457 0.0
H270 H 0.66136 0.69906 0.51198 0.0
H271 H 0.63034 0.66041 0.55374 0.0
Nd272 Nd 1.03051 0.5694 0.0586 0.0
Nd273 Nd 0.09177 0.58612 1.01249 0.0
C274 C 0.96757 0.55628 0.08022 0.0
C275 C 0.93915 0.57666 0.085 0.0
C276 C 0.93552 0.60552 0.06363 0.0
C277 C 0.91194 0.6278 0.07162 0.0
C278 C 0.89125 0.62146 0.10101 0.0
C279 C 0.89342 0.59123 0.12093 0.0
C280 C 0.91735 0.56915 0.1131 0.0
C281 C 0.08313 0.60583 0.09183 0.0
C282 C 1.03463 0.64118 1.00555 0.0
C283 C 0.15278 0.59299 0.98576 0.0
C284 C 0.1774 0.56748 0.98381 0.0
C285 C 0.19093 0.55292 1.01461 0.0
C286 C 0.20621 0.52281 1.01326 0.0
C287 C 0.20811 0.50662 0.9812 0.0
C288 C 0.19769 0.52299 0.95005 0.0
C289 C 0.1826 0.55322 0.95136 0.0
C290 C 1.03803 0.54751 0.98274 0.0
C291 C 0.08895 0.5156 0.06678 0.0
O292 O 0.97636 0.55254 0.04778 0.0
O293 O 0.99367 0.56261 0.10165 0.0
O294 O 0.06265 0.58325 0.10782 0.0
O295 O 0.07411 0.6104 0.06006 0.0
O296 O 1.01618 0.61858 1.02582 0.0
O297 O 0.06653 0.63607 0.99886 0.0
O298 O 0.14673 0.60343 1.01705 0.0
O299 O 0.12503 0.58682 0.96664 0.0
O300 O 0.05476 0.5725 0.966 0.0
O301 O 0.05014 0.54403 1.01329 0.0
O302 O 0.10724 0.53847 0.04674 0.0
O303 O 0.05665 0.51986 0.07254 0.0
H304 H 0.95183 0.61155 0.04157 0.0
H305 H 0.91135 0.65087 0.05583 0.0
H306 H 0.87742 0.58517 0.1433 0.0
H307 H 0.91964 0.54684 0.12975 0.0
H308 H 0.18778 0.56343 0.04007 0.0
H309 H 0.21481 0.5112 0.03759 0.0
H310 H 0.19878 0.51122 0.92489 0.0
H311 H 0.17262 0.56401 0.92721 0.0
H312 H 0.22865 0.11338 0.28581 0.0
H313 H 0.19816 0.21121 0.30908 0.0
H314 H 0.20069 0.08946 0.33781 0.0
H315 H 0.16827 0.18707 0.35945 0.0
H316 H 0.12196 0.14259 0.46242 0.0
H317 H 0.15161 0.1672 0.41112 0.0
H318 H 0.16556 0.06683 0.37734 0.0
H319 H 0.13716 0.04294 0.42933 0.0
C320 C 0.21605 0.13023 0.30162 0.0
C321 C 0.21647 0.16494 0.29143 0.0
C322 C 0.19908 0.11604 0.33215 0.0
C323 C 0.18096 0.13542 0.35469 0.0
C324 C 0.18142 0.17014 0.34436 0.0
C325 C 0.19866 0.18437 0.3141 0.0
C326 C 0.13138 0.12566 0.44411 0.0
C327 C 0.12666 0.09035 0.45107 0.0
C328 C 0.14868 0.13996 0.41381 0.0
C329 C 0.16208 0.11986 0.38814 0.0
C330 C 0.15689 0.08438 0.39533 0.0
C331 C 0.13999 0.0702 0.4258 0.0
H332 H 0.48163 0.87413 0.85387 0.0
H333 H 0.43171 0.81585 0.93834 0.0
H334 H 0.50002 0.91931 0.89485 0.0
H335 H 0.44942 0.86072 0.97896 0.0
H336 H 0.51231 0.93419 0.04979 0.0
H337 H 0.49842 0.88898 1.0087 0.0
H338 H 0.47379 0.96227 0.9283 0.0
H339 H 0.48835 1.00787 0.96953 0.0
C340 C 0.47515 0.87075 0.88129 0.0
C341 C 0.45529 0.84148 0.89292 0.0
C342 C 0.48523 0.89677 0.90467 0.0
C343 C 0.47598 0.89383 0.94021 0.0
C344 C 0.45726 0.86386 0.95193 0.0
C345 C 0.44702 0.83813 0.92862 0.0
C346 C 0.50376 0.94077 1.02345 0.0
C347 C 0.50133 0.97474 1.01309 0.0
C348 C 0.49573 0.91475 0.99982 0.0
C349 C 0.48509 0.92189 0.96506 0.0
C350 C 0.48235 0.95587 0.95471 0.0
C351 C 0.49027 0.98198 0.97849 0.0
H352 H 0.6349 0.52525 0.88456 0.0
H353 H 0.69481 0.61506 0.84658 0.0
H354 H 0.60597 0.51987 0.82729 0.0
H355 H 0.66542 0.60993 0.7892 0.0
H356 H 0.62833 0.56385 0.68136 0.0
H357 H 0.6599 0.56923 0.73779 0.0
H358 H 0.56557 0.55333 0.7929 0.0
H359 H 0.53438 0.54793 0.73717 0.0
C360 C 0.64177 0.54387 0.86394 0.0
C361 C 0.66694 0.57064 0.86997 0.0
C362 C 0.62518 0.54087 0.83126 0.0
C363 C 0.63354 0.56447 0.80387 0.0
C364 C 0.65874 0.59125 0.80981 0.0
C365 C 0.67519 0.59442 0.84269 0.0
C366 C 0.61455 0.56132 0.70564 0.0
C367 C 0.57905 0.55523 0.70505 0.0
C368 C 0.63249 0.56463 0.73778 0.0
C369 C 0.6151 0.56153 0.76962 0.0
C370 C 0.57962 0.55538 0.7688 0.0
C371 C 0.5618 0.55239 0.73687 0.0
H372 H 0.84897 0.82187 0.13317 0.0
H373 H 0.79429 0.769 0.21825 0.0
H374 H 0.85639 0.76799 0.10704 0.0
H375 H 0.80202 0.71504 0.19222 0.0
H376 H 0.88113 0.63884 0.16851 0.0
H377 H 0.85514 0.68739 0.18806 0.0
H378 H 0.82984 0.71446 0.08048 0.0
H379 H 0.85518 0.66498 0.06065 0.0
C380 C 0.8377 0.79881 0.14577 0.0
C381 C 0.82151 0.79967 0.17807 0.0
C382 C 0.84194 0.76791 0.13078 0.0
C383 C 0.83013 0.73729 0.14783 0.0
C384 C 0.81187 0.73824 0.17882 0.0
C385 C 0.80753 0.76911 0.19374 0.0
C386 C 0.86904 0.65433 0.14896 0.0
C387 C 0.87052 0.64799 0.11292 0.0
C388 C 0.85417 0.68232 0.16024 0.0
C389 C 0.8406 0.70485 0.13578 0.0
C390 C 0.84047 0.69771 0.09987 0.0
C391 C 0.8551 0.66945 0.08856 0.0
H392 H 0.34593 0.21254 0.19581 0.0
H393 H 0.2907 0.11372 0.19788 0.0
H394 H 0.39505 0.1888 0.17211 0.0
H395 H 0.33973 0.09001 0.17308 0.0
H396 H 0.42772 0.06474 0.09586 0.0
H397 H 0.37712 0.08762 0.11868 0.0
H398 H 0.44139 0.1518 0.18706 0.0
H399 H 0.49139 0.12818 0.16529 0.0
C400 C 0.34386 0.18568 0.19111 0.0
C401 C 0.31327 0.16557 0.19931 0.0
C402 C 0.37259 0.1718 0.17743 0.0
C403 C 0.37243 0.13698 0.17004 0.0
C404 C 0.34169 0.11686 0.17778 0.0
C405 C 0.31321 0.13062 0.19245 0.0
C406 C 0.43127 0.08388 0.1156 0.0
C407 C 0.46462 0.09438 0.12813 0.0
C408 C 0.40185 0.09702 0.12911 0.0
C409 C 0.4041 0.12212 0.1552 0.0
C410 C 0.43758 0.13295 0.16703 0.0
C411 C 0.46673 0.11918 0.15433 0.0
H412 H 0.23089 0.8011 0.82401 0.0
H413 H 0.30773 0.78869 0.74832 0.0
H414 H 0.19585 0.82445 0.7779 0.0
H415 H 0.27396 0.81469 0.70287 0.0
H416 H 0.19725 0.84132 0.62052 0.0
H417 H 0.2255 0.80919 0.66595 0.0
H418 H 0.19351 0.87453 0.7447 0.0
H419 H 0.16309 0.90481 0.69976 0.0
C420 C 0.24032 0.80314 0.79753 0.0
C421 C 0.27234 0.79309 0.79008 0.0
C422 C 0.22037 0.8171 0.77111 0.0
C423 C 0.23211 0.82187 0.7366 0.0
C424 C 0.26381 0.81115 0.72898 0.0
C425 C 0.28353 0.79672 0.75529 0.0
C426 C 0.19556 0.84835 0.64762 0.0
C427 C 0.17801 0.87588 0.65634 0.0
C428 C 0.21225 0.83021 0.67368 0.0
C429 C 0.21216 0.83936 0.70909 0.0
C430 C 0.19392 0.86639 0.71786 0.0
C431 C 0.17688 0.88421 0.6919 0.0
H432 H 0.82617 0.51119 0.91442 0.0
H433 H 0.834 0.47417 1.02175 0.0
H434 H 0.88789 0.51964 0.91166 0.0
H435 H 0.89575 0.48412 1.01994 0.0
H436 H 1.00649 0.48742 1.00458 0.0
H437 H 0.94641 0.46799 0.9972 0.0
H438 H 0.93183 0.55801 0.93397 0.0
H439 H 0.99216 0.57631 0.94005 0.0
C440 C 0.84131 0.50488 0.9374 0.0
C441 C 0.82567 0.49226 0.96837 0.0
C442 C 0.87657 0.50985 0.93593 0.0
C443 C 0.89685 0.5028 0.96562 0.0
C444 C 0.881 0.48928 0.99635 0.0
C445 C 0.84569 0.48378 0.99759 0.0
C446 C 0.99044 0.50246 0.98834 0.0
C447 C 1.00367 0.53327 0.97286 0.0
C448 C 0.95602 0.49159 0.98443 0.0
C449 C 0.93414 0.51165 0.96545 0.0
C450 C 0.94794 0.54167 0.94843 0.0
C451 C 0.9825 0.55225 0.95189 0.0
H452 H 0.81728 0.85229 0.41375 0.0
H453 H 0.81032 0.77111 0.34021 0.0
H454 H 0.78765 0.81489 0.45705 0.0
H455 H 0.78019 0.73357 0.38371 0.0
H456 H 0.69541 0.69116 0.45969 0.0
H457 H 0.72522 0.72705 0.41491 0.0
H458 H 0.79918 0.76445 0.49349 0.0
H459 H 0.76892 0.72916 0.53843 0.0
C460 C 0.8096 0.82635 0.40692 0.0
C461 C 0.81647 0.81452 0.3737 0.0
C462 C 0.79264 0.80495 0.43174 0.0
C463 C 0.78193 0.77125 0.42389 0.0
C464 C 0.78802 0.75952 0.39039 0.0
C465 C 0.80518 0.78098 0.3655 0.0
C466 C 0.7179 0.70725 0.46741 0.0
C467 C 0.72969 0.70762 0.5026 0.0
C468 C 0.73516 0.72747 0.44171 0.0
C469 C 0.76442 0.74861 0.45074 0.0
C470 C 0.77644 0.74867 0.48586 0.0
C471 C 0.75931 0.7283 0.51151 0.0
H472 H 0.15263 0.3376 0.1985 0.0
H473 H 0.22281 0.3499 0.114 0.0
H474 H 0.12159 0.38321 0.17221 0.0
H475 H 0.19226 0.39514 0.08769 0.0
H476 H 0.1561 0.50058 0.06587 0.0
H477 H 0.18255 0.45197 0.0908 0.0
H478 H 0.08589 0.40956 0.12951 0.0
H479 H 0.05961 0.45888 0.10499 0.0
C480 C 0.16078 0.34892 0.17353 0.0
C481 C 0.19 0.33842 0.15811 0.0
C482 C 0.14305 0.3758 0.15841 0.0
C483 C 0.15399 0.3942 0.12742 0.0
C484 C 0.1826 0.38281 0.1116 0.0
C485 C 0.20002 0.35593 0.1265 0.0
C486 C 0.14019 0.48092 0.07941 0.0
C487 C 0.10522 0.48445 0.08262 0.0
C488 C 0.15553 0.4524 0.09379 0.0
C489 C 0.13687 0.4254 0.11224 0.0
C490 C 0.10185 0.42913 0.11586 0.0
C491 C 0.08649 0.45778 0.10144 0.0
H492 H 0.67569 0.43926 1.01218 0.0
H493 H 0.74861 0.39507 0.95012 0.0
H494 H 0.6427 0.38418 1.01775 0.0
H495 H 0.71646 0.33993 0.95687 0.0
H496 H 0.63084 0.25582 0.94164 0.0
H497 H 0.66287 0.31126 0.93651 0.0
H498 H 0.64555 0.32833 0.04579 0.0
H499 H 0.61341 0.27282 0.0509 0.0
C500 C 0.68471 0.41778 0.99983 0.0
C501 C 0.71479 0.42154 0.98076 0.0
C502 C 0.66601 0.38618 1.00331 0.0
C503 C 0.67693 0.35768 0.9877 0.0
C504 C 0.70712 0.36144 0.96886 0.0
C505 C 0.7258 0.39298 0.96539 0.0
C506 C 0.63407 0.2713 0.96464 0.0
C507 C 0.61966 0.25989 0.9967 0.0
C508 C 0.65243 0.30307 0.96171 0.0
C509 C 0.65686 0.32416 0.99078 0.0
C510 C 0.64223 0.31287 1.02279 0.0
C511 C 0.62382 0.28108 1.02571 0.0
H512 H 0.88695 0.95011 0.33824 0.0
H513 H 0.93907 0.86384 0.37139 0.0
H514 H 0.92548 0.98631 0.37576 0.0
H515 H 0.97769 0.8999 0.40871 0.0
H516 H 0.05127 0.98288 0.46065 0.0
H517 H 1.02239 0.95202 0.41166 0.0
H518 H 0.92665 0.98303 0.44333 0.0
H519 H 0.95517 1.01328 0.49217 0.0
C520 C 0.90743 0.93922 0.35259 0.0
C521 C 0.91014 0.90434 0.35219 0.0
C522 C 0.92922 0.95977 0.37422 0.0
C523 C 0.95423 0.94573 0.39538 0.0
C524 C 0.95873 0.91136 0.39257 0.0
C525 C 0.93668 0.89076 0.37131 0.0
C526 C 1.02406 0.98298 0.45704 0.0
C527 C 1.00539 1.00029 0.48018 0.0
C528 C 1.00763 0.96549 0.42904 0.0
C529 C 0.97243 0.96562 0.42349 0.0
C530 C 0.95391 0.9831 0.44661 0.0
C531 C 0.97018 1.00007 0.47479 0.0
H532 H 0.49506 0.79695 0.77696 0.0
H533 H 0.43204 0.70785 0.8115 0.0
H534 H 0.51993 0.76331 0.73292 0.0
H535 H 0.45611 0.67487 0.76757 0.0
H536 H 0.47084 0.63771 0.65841 0.0
H537 H 0.45137 0.67518 0.70135 0.0
H538 H 0.55505 0.7119 0.72684 0.0
H539 H 0.57477 0.67421 0.68377 0.0
C540 C 0.48685 0.77021 0.7755 0.0
C541 C 0.46108 0.75528 0.7973 0.0
C542 C 0.50096 0.75099 0.75022 0.0
C543 C 0.48938 0.7166 0.74622 0.0
C544 C 0.46492 0.70148 0.76928 0.0
C545 C 0.45116 0.72044 0.79453 0.0
C546 C 0.48957 0.65399 0.6728 0.0
C547 C 0.5244 0.65273 0.66767 0.0
C548 C 0.47839 0.67535 0.69761 0.0
C549 C 0.50169 0.69628 0.71778 0.0
C550 C 0.53648 0.69616 0.71167 0.0
C551 C 0.54774 0.67446 0.68705 0.0
H552 H 0.96528 0.87268 0.79162 0.0
H553 H 0.93678 0.9694 0.821 0.0
H554 H 0.98988 0.89825 0.73819 0.0
H555 H 0.96214 0.99547 0.7681 0.0
H556 H 0.99509 0.03853 0.65911 0.0
H557 H 0.96965 1.01267 0.71225 0.0
H558 H 1.02571 0.92608 0.70082 0.0
H559 H 0.04978 0.95165 0.64695 0.0
C560 C 0.96451 0.89962 0.78722 0.0
C561 C 0.94849 0.91836 0.81192 0.0
C562 C 0.97899 0.91474 0.75584 0.0
C563 C 0.97885 0.94981 0.74706 0.0
C564 C 0.96298 0.96853 0.77206 0.0
C565 C 0.94815 0.9533 0.80324 0.0
C566 C 1.00203 1.01388 0.66775 0.0
C567 C 1.02486 0.99764 0.64764 0.0
C568 C 0.98736 0.99873 0.69905 0.0
C569 C 0.99483 0.96642 0.71262 0.0
C570 C 1.01798 0.9504 0.69236 0.0
C571 C 1.03233 0.96543 0.66087 0.0
H572 H 0.72303 0.18888 0.29116 0.0
H573 H 0.65246 0.26264 0.26497 0.0
H574 H 0.70448 0.15814 0.2392 0.0
H575 H 0.63159 0.22983 0.21454 0.0
H576 H 0.60715 0.16891 0.11591 0.0
H577 H 0.6375 0.20749 0.15786 0.0
H578 H 0.65687 0.12184 0.22563 0.0
H579 H 0.62833 0.08398 0.18374 0.0
C580 C 0.70388 0.19899 0.2742 0.0
C581 C 0.68908 0.22828 0.28292 0.0
C582 C 0.6927 0.18082 0.24451 0.0
C583 C 0.66579 0.19082 0.22297 0.0
C584 C 0.6523 0.22118 0.2304 0.0
C585 C 0.66397 0.23977 0.25981 0.0
C586 C 0.61846 0.15846 0.13953 0.0
C587 C 0.61522 0.12333 0.1464 0.0
C588 C 0.63564 0.18056 0.16374 0.0
C589 C 0.64987 0.16794 0.19529 0.0
C590 C 0.64712 0.13273 0.20146 0.0
C591 C 0.63029 0.11085 0.17738 0.0
H592 H 0.35792 0.5885 0.4288 0.0
H593 H 0.43401 0.63372 0.35806 0.0
H594 H 0.39785 0.59773 0.4783 0.0
H595 H 0.47415 0.64277 0.40769 0.0
H596 H 0.53444 0.66431 0.51219 0.0
H597 H 0.48945 0.66992 0.46693 0.0
H598 H 0.4485 0.56708 0.49028 0.0
H599 H 0.49282 0.56152 0.53447 0.0
C600 C 0.38306 0.60081 0.42393 0.0
C601 C 0.39309 0.60982 0.38955 0.0
C602 C 0.40587 0.60618 0.45224 0.0
C603 C 0.43926 0.62051 0.44675 0.0
C604 C 0.44853 0.63186 0.41272 0.0
C605 C 0.4256 0.62657 0.38432 0.0
C606 C 0.51552 0.64318 0.5077 0.0
C607 C 0.51699 0.61254 0.5268 0.0
C608 C 0.48992 0.64633 0.48187 0.0
C609 C 0.46526 0.61905 0.47538 0.0
C610 C 0.46663 0.58879 0.49512 0.0
C611 C 0.49222 0.58554 0.52035 0.0
H612 H 0.16952 0.29254 0.96443 0.0
H613 H 0.2736 0.31023 0.9327 0.0
H614 H 0.17144 0.35115 0.98257 0.0
H615 H 0.27603 0.3685 0.9516 0.0
H616 H 0.24692 0.47783 0.93406 0.0
H617 H 0.25252 0.41783 0.92799 0.0
H618 H 0.19378 0.39488 1.0212 0.0
H619 H 0.18685 0.45468 1.0261 0.0
C620 C 0.19306 0.30876 0.96232 0.0
C621 C 0.22126 0.29712 0.94686 0.0
C622 C 0.19426 0.34232 0.97271 0.0
C623 C 0.22379 0.36471 0.96806 0.0
C624 C 0.25267 0.3522 0.95478 0.0
C625 C 0.25136 0.31882 0.94417 0.0
C626 C 0.23552 0.45999 0.95344 0.0
C627 C 0.21649 0.47105 0.98061 0.0
C628 C 0.23899 0.42558 0.95021 0.0
C629 C 0.22352 0.40146 0.97411 0.0
C630 C 0.20575 0.41271 1.00218 0.0
C631 C 0.20223 0.44708 1.00532 0.0
H632 H 0.7391 0.89376 0.95468 0.0
H633 H 0.80013 0.98945 0.9525 0.0
H634 H 0.69501 0.91871 0.98553 0.0
H635 H 0.75589 1.01458 0.9848 0.0
H636 H 0.66928 0.04078 0.06615 0.0
H637 H 0.71881 1.01673 0.04197 0.0
H638 H 0.65211 0.9587 0.97026 0.0
H639 H 0.60348 0.98328 0.99339 0.0
C640 C 0.74389 0.92001 0.9618 0.0
C641 C 0.7744 0.93886 0.9511 0.0
C642 C 0.71795 0.93467 0.97932 0.0
C643 C 0.72077 0.96923 0.98792 0.0
C644 C 0.75209 0.98793 0.97916 0.0
C645 C 0.77803 0.97326 0.96081 0.0
C646 C 0.66504 0.02266 0.04545 0.0
C647 C 0.6315 1.01407 1.03234 0.0
C648 C 0.69379 1.00892 1.03117 0.0
C649 C 0.69038 0.98519 1.00375 0.0
C650 C 0.6567 0.97637 0.99135 0.0
C651 C 0.62836 0.99068 1.00483 0.0
H652 H 0.74366 0.22539 0.43348 0.0
H653 H 0.80165 0.26673 0.34506 0.0
H654 H 0.79526 0.20815 0.46206 0.0
H655 H 0.8535 0.24905 0.37369 0.0
H656 H 0.94251 0.23723 0.45593 0.0
H657 H 0.89248 0.25962 0.42801 0.0
H658 H 0.83372 0.164 0.44855 0.0
H659 H 0.88333 0.14181 0.47649 0.0
C660 C 0.76754 0.23135 0.42041 0.0
C661 C 0.76855 0.24753 0.38702 0.0
C662 C 0.79705 0.22111 0.43662 0.0
C663 C 0.8284 0.22698 0.42 0.0
C664 C 0.82973 0.24428 0.38719 0.0
C665 C 0.80006 0.25424 0.37074 0.0
C666 C 0.91886 0.22107 0.45446 0.0
C667 C 0.9169 0.18772 0.46831 0.0
C668 C 0.89032 0.23381 0.43832 0.0
C669 C 0.85913 0.21363 0.43627 0.0
C670 C 0.85728 0.1803 0.45007 0.0
C671 C 0.88581 0.16747 0.46574 0.0
H672 H 0.24099 0.64768 0.24762 0.0
H673 H 0.29569 0.65062 0.15082 0.0
H674 H 0.18729 0.64056 0.2142 0.0
H675 H 0.24215 0.64459 0.11744 0.0
H676 H 0.14329 0.58246 0.08054 0.0
H677 H 0.1973 0.59768 0.11055 0.0
H678 H 0.15053 0.66967 0.1713 0.0
H679 H 0.09616 0.65429 0.14035 0.0
C680 C 0.2415 0.64695 0.21922 0.0
C681 C 0.2725 0.64951 0.20183 0.0
C682 C 0.2108 0.64334 0.20008 0.0
C683 C 0.21056 0.64204 0.16322 0.0
C684 C 0.24157 0.64526 0.14585 0.0
C685 C 0.2722 0.64896 0.16493 0.0
C686 C 0.1449 0.60246 0.09918 0.0
C687 C 0.11614 0.6182 0.10719 0.0
C688 C 0.17574 0.61101 0.11668 0.0
C689 C 0.17824 0.63512 0.14307 0.0
C690 C 0.14932 0.65099 0.15107 0.0
C691 C 0.1184 0.64247 0.13328 0.0
H692 H 0.32688 0.26177 0.74908 0.0
H693 H 0.26999 0.3251 0.81033 0.0
H694 H 0.35635 0.31212 0.72128 0.0
H695 H 0.2988 0.37535 0.78214 0.0
H696 H 0.37549 0.45997 0.74001 0.0
H697 H 0.35139 0.41054 0.77378 0.0
H698 H 0.33967 0.35355 0.67862 0.0
H699 H 0.36531 0.40201 0.6454 0.0
C700 C 0.321 0.28648 0.75683 0.0
C701 C 0.29614 0.28958 0.78172 0.0
C702 C 0.33764 0.31528 0.74079 0.0
C703 C 0.32948 0.34771 0.74909 0.0
C704 C 0.30585 0.35079 0.77534 0.0
C705 C 0.2894 0.32199 0.79154 0.0
C706 C 0.36781 0.43684 0.72637 0.0
C707 C 0.37229 0.435 0.68999 0.0
C708 C 0.35384 0.4086 0.74567 0.0
C709 C 0.34403 0.37799 0.72895 0.0
C710 C 0.34765 0.37651 0.69245 0.0
C711 C 0.36172 0.40459 0.67325 0.0
H712 H 0.9972 0.84179 0.9014 0.0
H713 H 0.89696 0.79779 0.9273 0.0
H714 H 1.02128 0.79271 0.9275 0.0
H715 H 0.92095 0.74824 0.95316 0.0
H716 H 0.97232 0.66611 1.01844 0.0
H717 H 0.94785 0.71584 0.99359 0.0
H718 H 1.03638 0.73922 0.93057 0.0
H719 H 0.06093 0.68995 0.9563 0.0
C720 C 0.97987 0.82161 0.91225 0.0
C721 C 0.9445 0.82495 0.91142 0.0
C722 C 0.994 0.79272 0.92754 0.0
C723 C 0.97378 0.76491 0.94301 0.0
C724 C 0.93835 0.76838 0.94242 0.0
C725 C 0.92422 0.79743 0.92725 0.0
C726 C 0.98675 0.68168 0.99926 0.0
C727 C 1.01908 0.67294 0.98989 0.0
C728 C 0.9724 0.71076 0.98452 0.0
C729 C 0.98941 0.73304 0.9593 0.0
C730 C 1.02183 0.7241 0.95 0.0
C731 C 1.03619 0.69512 0.96487 0.0
H732 H 0.35627 0.7432 0.20707 0.0
H733 H 0.43194 0.67317 0.22665 0.0
H734 H 0.39993 0.78598 0.18689 0.0
H735 H 0.47612 0.71696 0.20738 0.0
H736 H 0.53658 0.82853 0.21751 0.0
H737 H 0.50035 0.77617 0.22967 0.0
H738 H 0.44043 0.79436 0.13579 0.0
H739 H 0.47591 0.84681 0.124 0.0
C740 C 0.38218 0.73676 0.20668 0.0
C741 C 0.39051 0.70458 0.21807 0.0
C742 C 0.40719 0.76132 0.19512 0.0
C743 C 0.44127 0.75453 0.19506 0.0
C744 C 0.44995 0.72269 0.20707 0.0
C745 C 0.42472 0.6978 0.21829 0.0
C746 C 0.5161 0.82092 0.1991 0.0
C747 C 0.50881 0.842 0.17008 0.0
C748 C 0.49556 0.79088 0.20593 0.0
C749 C 0.46736 0.78164 0.18394 0.0
C750 C 0.46182 0.80122 0.15337 0.0
C751 C 0.48237 0.83109 0.14646 0.0
H752 H 0.20773 0.14523 0.7856 0.0
H753 H 0.21493 0.23123 0.7127 0.0
H754 H 0.18033 0.10997 0.73912 0.0
H755 H 0.18959 0.19551 0.66634 0.0
H756 H 0.1852 0.10491 0.58831 0.0
H757 H 0.21098 0.13935 0.63633 0.0
H758 H 0.12181 0.11362 0.6979 0.0
H759 H 0.09563 0.08008 0.64974 0.0
C760 C 0.20345 0.15666 0.75987 0.0
C761 C 0.21415 0.19096 0.75282 0.0
C762 C 0.188 0.13644 0.7333 0.0
C763 C 0.1835 0.15008 0.69921 0.0
C764 C 0.19347 0.18436 0.6923 0.0
C765 C 0.20819 0.20468 0.71889 0.0
C766 C 0.17116 0.10675 0.61208 0.0
C767 C 0.13847 0.09005 0.61534 0.0
C768 C 0.18584 0.12634 0.63943 0.0
C769 C 0.16831 0.12883 0.67068 0.0
C770 C 0.13582 0.11179 0.6741 0.0
C771 C 0.12085 0.09286 0.6465 0.0
H772 H 0.66864 0.34649 0.47586 0.0
H773 H 0.57376 0.35987 0.42133 0.0
H774 H 0.66165 0.39574 0.5116 0.0
H775 H 0.56694 0.40877 0.45633 0.0
H776 H 0.53943 0.45857 0.55418 0.0
H777 H 0.55368 0.41304 0.51829 0.0
H778 H 0.65676 0.45914 0.51184 0.0
H779 H 0.64251 0.50522 0.54855 0.0
C780 C 0.64671 0.36037 0.47104 0.0
C781 C 0.62147 0.34906 0.44624 0.0
C782 C 0.64268 0.3885 0.49149 0.0
C783 C 0.61335 0.40571 0.48735 0.0
C784 C 0.58936 0.39555 0.4609 0.0
C785 C 0.59332 0.36761 0.44071 0.0
C786 C 0.56523 0.45917 0.54534 0.0
C787 C 0.58971 0.48588 0.55404 0.0
C788 C 0.57336 0.43304 0.52451 0.0
C789 C 0.6062 0.43275 0.51158 0.0
C790 C 0.63121 0.45868 0.52133 0.0
C791 C 0.62302 0.48507 0.54232 0.0
loop_
_geom_bond_atom_site_label_1
_geom_bond_atom_site_label_2
_geom_bond_distance
_geom_bond_site_symmetry_2
_ccdc_geom_bond_type
H0 C1 0.949 . S
C1 H0 0.949 . S
C1 C2 1.395 . S
C1 C3 1.391 . S
C2 C1 1.395 . S
C2 C5 1.390 . S
C3 C1 1.391 . S
C3 C7 1.387 . S
C3 C8 1.491 . S
H4 C5 0.950 . S
C5 C2 1.390 . S
C5 H4 0.950 . S
C5 C6 1.378 . S
C6 C5 1.378 . S
C6 C7 1.409 . S
C7 C3 1.387 . S
C7 C6 1.409 . S
C7 H9 0.951 . S
C8 C3 1.491 . S
C8 C10 1.382 . S
C8 C12 1.404 . S
H9 C7 0.951 . S
C10 C8 1.382 . S
C10 C11 1.390 . S
C10 H15 0.949 . S
C11 C10 1.390 . S
C11 C16 1.399 . S
C12 C8 1.404 . S
C12 H13 0.950 . S
C12 C14 1.375 . S
H13 C12 0.950 . S
C14 C12 1.375 . S
C14 C16 1.382 . S
C14 H18 0.950 . S
H15 C10 0.949 . S
C16 C11 1.399 . S
C16 C14 1.382 . S
C16 H17 0.952 . S
H17 C16 0.952 . S
H18 C14 0.950 . S
H19 C20 0.949 . S
C20 H19 0.949 . S
C20 C21 1.395 . S
C20 C22 1.391 . S
C21 C20 1.395 . S
C21 C24 1.390 . S
C22 C20 1.391 . S
C22 C26 1.387 . S
C22 C27 1.491 . S
H23 C24 0.950 . S
C24 C21 1.390 . S
C24 H23 0.950 . S
C24 C25 1.378 . S
C25 C24 1.378 . S
C25 C26 1.409 . S
C26 C22 1.387 . S
C26 C25 1.409 . S
C26 H28 0.951 . S
C27 C22 1.491 . S
C27 C29 1.382 . S
C27 C31 1.404 . S
H28 C26 0.951 . S
C29 C27 1.382 . S
C29 C30 1.390 . S
C29 H34 0.949 . S
C30 C29 1.390 . S
C30 C35 1.399 . S
C31 C27 1.404 . S
C31 H32 0.950 . S
C31 C33 1.375 . S
H32 C31 0.950 . S
C33 C31 1.375 . S
C33 C35 1.382 . S
C33 H37 0.950 . S
H34 C29 0.949 . S
C35 C30 1.399 . S
C35 C33 1.382 . S
C35 H36 0.952 . S
H36 C35 0.952 . S
H37 C33 0.950 . S
H38 C39 0.949 . S
C39 H38 0.949 . S
C39 C40 1.395 . S
C39 C41 1.391 . S
C40 C39 1.395 . S
C40 C43 1.390 . S
C41 C39 1.391 . S
C41 C45 1.387 . S
C41 C46 1.491 . S
H42 C43 0.950 . S
C43 C40 1.390 . S
C43 H42 0.950 . S
C43 C44 1.378 . S
C44 C43 1.378 . S
C44 C45 1.409 . S
C45 C41 1.387 . S
C45 C44 1.409 . S
C45 H47 0.951 . S
C46 C41 1.491 . S
C46 C48 1.382 . S
C46 C50 1.404 . S
H47 C45 0.951 . S
C48 C46 1.382 . S
C48 C49 1.390 . S
C48 H53 0.949 . S
C49 C48 1.390 . S
C49 C54 1.399 . S
C50 C46 1.404 . S
C50 H51 0.950 . S
C50 C52 1.375 . S
H51 C50 0.950 . S
C52 C50 1.375 . S
C52 C54 1.382 . S
C52 H56 0.950 . S
H53 C48 0.949 . S
C54 C49 1.399 . S
C54 C52 1.382 . S
C54 H55 0.952 . S
H55 C54 0.952 . S
H56 C52 0.950 . S
H57 C58 0.949 . S
C58 H57 0.949 . S
C58 C59 1.395 . S
C58 C60 1.391 . S
C59 C58 1.395 . S
C59 C62 1.390 . S
C60 C58 1.391 . S
C60 C64 1.387 . S
C60 C65 1.491 . S
H61 C62 0.950 . S
C62 C59 1.390 . S
C62 H61 0.950 . S
C62 C63 1.378 . S
C63 C62 1.378 . S
C63 C64 1.409 . S
C64 C60 1.387 . S
C64 C63 1.409 . S
C64 H66 0.951 . S
C65 C60 1.491 . S
C65 C67 1.382 . S
C65 C69 1.404 . S
H66 C64 0.951 . S
C67 C65 1.382 . S
C67 C68 1.390 . S
C67 H72 0.949 . S
C68 C67 1.390 . S
C68 C73 1.399 . S
C69 C65 1.404 . S
C69 H70 0.950 . S
C69 C71 1.375 . S
H70 C69 0.950 . S
C71 C69 1.375 . S
C71 C73 1.382 . S
C71 H75 0.950 . S
H72 C67 0.949 . S
C73 C68 1.399 . S
C73 C71 1.382 . S
C73 H74 0.952 . S
H74 C73 0.952 . S
H75 C71 0.950 . S
H76 C77 0.949 . S
C77 H76 0.949 . S
C77 C78 1.395 . S
C77 C79 1.391 . S
C78 C77 1.395 . S
C78 C81 1.390 . S
C79 C77 1.391 . S
C79 C83 1.387 . S
C79 C84 1.491 . S
H80 C81 0.950 . S
C81 C78 1.390 . S
C81 H80 0.950 . S
C81 C82 1.378 . S
C82 C81 1.378 . S
C82 C83 1.409 . S
C83 C79 1.387 . S
C83 C82 1.409 . S
C83 H85 0.951 . S
C84 C79 1.491 . S
C84 C86 1.382 . S
C84 C88 1.404 . S
H85 C83 0.951 . S
C86 C84 1.382 . S
C86 C87 1.390 . S
C86 H91 0.949 . S
C87 C86 1.390 . S
C87 C92 1.399 . S
C88 C84 1.404 . S
C88 H89 0.950 . S
C88 C90 1.375 . S
H89 C88 0.950 . S
C90 C88 1.375 . S
C90 C92 1.382 . S
C90 H94 0.950 . S
H91 C86 0.949 . S
C92 C87 1.399 . S
C92 C90 1.382 . S
C92 H93 0.952 . S
H93 C92 0.952 . S
H94 C90 0.950 . S
H95 C96 0.949 . S
C96 H95 0.949 . S
C96 C97 1.395 . S
C96 C98 1.391 . S
C97 C96 1.395 . S
C97 C100 1.390 . S
C98 C96 1.391 . S
C98 C102 1.387 . S
C98 C103 1.491 . S
H99 C100 0.950 . S
C100 C97 1.390 . S
C100 H99 0.950 . S
C100 C101 1.378 . S
C101 C100 1.378 . S
C101 C102 1.409 . S
C102 C98 1.387 . S
C102 C101 1.409 . S
C102 H104 0.951 . S
C103 C98 1.491 . S
C103 C105 1.382 . S
C103 C107 1.404 . S
H104 C102 0.951 . S
C105 C103 1.382 . S
C105 C106 1.390 . S
C105 H110 0.949 . S
C106 C105 1.390 . S
C106 C111 1.399 . S
C107 C103 1.404 . S
C107 H108 0.950 . S
C107 C109 1.375 . S
H108 C107 0.950 . S
C109 C107 1.375 . S
C109 C111 1.382 . S
C109 H113 0.950 . S
H110 C105 0.949 . S
C111 C106 1.399 . S
C111 C109 1.382 . S
C111 H112 0.952 . S
H112 C111 0.952 . S
H113 C109 0.950 . S
H114 C115 0.949 . S
C115 H114 0.949 . S
C115 C116 1.395 . S
C115 C117 1.391 . S
C116 C115 1.395 . S
C116 C119 1.390 . S
C117 C115 1.391 . S
C117 C121 1.387 . S
C117 C122 1.491 . S
H118 C119 0.950 . S
C119 C116 1.390 . S
C119 H118 0.950 . S
C119 C120 1.378 . S
C120 C119 1.378 . S
C120 C121 1.409 . S
C121 C117 1.387 . S
C121 C120 1.409 . S
C121 H123 0.951 . S
C122 C117 1.491 . S
C122 C124 1.382 . S
C122 C126 1.404 . S
H123 C121 0.951 . S
C124 C122 1.382 . S
C124 C125 1.390 . S
C124 H129 0.949 . S
C125 C124 1.390 . S
C125 C130 1.399 . S
C126 C122 1.404 . S
C126 H127 0.950 . S
C126 C128 1.375 . S
H127 C126 0.950 . S
C128 C126 1.375 . S
C128 C130 1.382 . S
C128 H132 0.950 . S
H129 C124 0.949 . S
C130 C125 1.399 . S
C130 C128 1.382 . S
C130 H131 0.952 . S
H131 C130 0.952 . S
H132 C128 0.950 . S
H133 C134 0.949 . S
C134 H133 0.949 . S
C134 C135 1.395 . S
C134 C136 1.391 . S
C135 C134 1.395 . S
C135 C138 1.390 . S
C136 C134 1.391 . S
C136 C140 1.387 . S
C136 C141 1.491 . S
H137 C138 0.950 . S
C138 C135 1.390 . S
C138 H137 0.950 . S
C138 C139 1.378 . S
C139 C138 1.378 . S
C139 C140 1.409 . S
C140 C136 1.387 . S
C140 C139 1.409 . S
C140 H142 0.951 . S
C141 C136 1.491 . S
C141 C143 1.382 . S
C141 C145 1.404 . S
H142 C140 0.951 . S
C143 C141 1.382 . S
C143 C144 1.390 . S
C143 H148 0.949 . S
C144 C143 1.390 . S
C144 C149 1.399 . S
C145 C141 1.404 . S
C145 H146 0.950 . S
C145 C147 1.375 . S
H146 C145 0.950 . S
C147 C145 1.375 . S
C147 C149 1.382 . S
C147 H151 0.950 . S
H148 C143 0.949 . S
C149 C144 1.399 . S
C149 C147 1.382 . S
C149 H150 0.952 . S
H150 C149 0.952 . S
H151 C147 0.950 . S
Nd152 C154 2.836 1_545 S
Nd152 O172 2.500 1_545 S
Nd152 O173 2.492 1_545 S
Nd152 O174 2.487 . S
Nd152 O175 2.682 . S
Nd152 O176 2.410 1_545 S
Nd152 O181 2.414 1_445 S
Nd152 O183 2.424 . S
Nd153 C163 2.836 . S
Nd153 O175 2.414 1_655 S
Nd153 O177 2.424 . S
Nd153 O178 2.500 . S
Nd153 O179 2.492 . S
Nd153 O180 2.487 1_545 S
Nd153 O181 2.682 1_545 S
Nd153 O182 2.410 . S
C154 Nd152 2.836 1_565 S
C154 C155 1.498 . S
C154 O172 1.258 . S
C154 O173 1.239 . S
C155 C154 1.498 . S
C155 C156 1.366 . S
C155 C160 1.407 . S
C156 C155 1.366 . S
C156 C157 1.392 . S
C156 H184 0.930 . S
C157 C156 1.392 . S
C157 C158 1.398 . S
C157 H185 0.929 . S
C158 C157 1.398 . S
C158 C159 1.352 . S
C159 C158 1.352 . S
C159 C160 1.384 . S
C159 H186 0.930 . S
C160 C155 1.407 . S
C160 C159 1.384 . S
C160 H187 0.929 . S
C161 O174 1.241 . S
C161 O175 1.273 . S
C162 O176 1.251 1_655 S
C162 O177 1.268 1_565 S
C163 Nd153 2.836 . S
C163 C164 1.498 . S
C163 O178 1.258 . S
C163 O179 1.239 . S
C164 C163 1.498 . S
C164 C165 1.366 . S
C164 C169 1.407 . S
C165 C164 1.366 . S
C165 C166 1.392 . S
C165 H188 0.930 . S
C166 C165 1.392 . S
C166 C167 1.398 . S
C166 H189 0.929 . S
C167 C166 1.398 . S
C167 C168 1.352 . S
C168 C167 1.352 . S
C168 C169 1.384 . S
C168 H190 0.930 . S
C169 C164 1.407 . S
C169 C168 1.384 . S
C169 H191 0.929 . S
C170 O180 1.241 . S
C170 O181 1.273 . S
C171 O182 1.251 1_455 S
C171 O183 1.268 . S
O172 Nd152 2.500 1_565 S
O172 C154 1.258 . S
O173 Nd152 2.492 1_565 S
O173 C154 1.239 . S
O174 Nd152 2.487 . S
O174 C161 1.241 . S
O175 Nd152 2.682 . S
O175 Nd153 2.414 1_455 S
O175 C161 1.273 . S
O176 Nd152 2.410 1_565 S
O176 C162 1.251 1_455 S
O177 Nd153 2.424 . S
O177 C162 1.268 1_545 S
O178 Nd153 2.500 . S
O178 C163 1.258 . S
O179 Nd153 2.492 . S
O179 C163 1.239 . S
O180 Nd153 2.487 1_565 S
O180 C170 1.241 . S
O181 Nd152 2.414 1_665 S
O181 Nd153 2.682 1_565 S
O181 C170 1.273 . S
O182 Nd153 2.410 . S
O182 C171 1.251 1_655 S
O183 Nd152 2.424 . S
O183 C171 1.268 . S
H184 C156 0.930 . S
H185 C157 0.929 . S
H186 C159 0.930 . S
H187 C160 0.929 . S
H188 C165 0.930 . S
H189 C166 0.929 . S
H190 C168 0.930 . S
H191 C169 0.929 . S
Nd192 C194 2.840 . S
Nd192 O212 2.505 . S
Nd192 O213 2.495 . S
Nd192 O214 2.484 1_565 S
Nd192 O215 2.678 1_565 S
Nd192 O216 2.411 . S
Nd192 O221 2.414 1_565 S
Nd192 O223 2.420 1_565 S
Nd193 C203 2.836 . S
Nd193 O215 2.414 . S
Nd193 O217 2.413 1_545 S
Nd193 O218 2.500 . S
Nd193 O219 2.492 . S
Nd193 O220 2.487 . S
Nd193 O221 2.682 . S
Nd193 O222 2.410 . S
C194 Nd192 2.840 . S
C194 C195 1.498 . S
C194 O212 1.258 . S
C194 O213 1.239 . S
C195 C194 1.498 . S
C195 C196 1.366 . S
C195 C200 1.407 . S
C196 C195 1.366 . S
C196 C197 1.392 . S
C196 H224 0.930 . S
C197 C196 1.392 . S
C197 C198 1.398 . S
C197 H225 0.929 . S
C198 C197 1.398 . S
C198 C199 1.352 . S
C199 C198 1.352 . S
C199 C200 1.384 . S
C199 H226 0.930 . S
C200 C195 1.407 . S
C200 C199 1.384 . S
C200 H227 0.929 . S
C201 O214 1.241 . S
C201 O215 1.273 . S
C202 O216 1.251 . S
C202 O217 1.278 . S
C203 Nd193 2.836 . S
C203 C204 1.498 . S
C203 O218 1.258 . S
C203 O219 1.239 . S
C204 C203 1.498 . S
C204 C205 1.366 . S
C204 C209 1.407 1_554 S
C205 C204 1.366 . S
C205 C206 1.392 . S
C205 H228 0.930 . S
C206 C205 1.392 . S
C206 C207 1.398 . S
C206 H229 0.929 . S
C207 C206 1.398 . S
C207 C208 1.352 1_554 S
C208 C207 1.352 1_556 S
C208 C209 1.384 . S
C208 H230 0.930 . S
C209 C204 1.407 1_556 S
C209 C208 1.384 . S
C209 H231 0.929 . S
C210 O220 1.241 . S
C210 O221 1.273 . S
C211 O222 1.251 . S
C211 O223 1.268 . S
O212 Nd192 2.505 . S
O212 C194 1.258 . S
O213 Nd192 2.495 . S
O213 C194 1.239 . S
O214 Nd192 2.484 1_545 S
O214 C201 1.241 . S
O215 Nd192 2.678 1_545 S
O215 Nd193 2.414 . S
O215 C201 1.273 . S
O216 Nd192 2.411 . S
O216 C202 1.251 . S
O217 Nd193 2.413 1_565 S
O217 C202 1.278 . S
O218 Nd193 2.500 . S
O218 C203 1.258 . S
O219 Nd193 2.492 . S
O219 C203 1.239 . S
O220 Nd193 2.487 . S
O220 C210 1.241 . S
O221 Nd192 2.414 1_545 S
O221 Nd193 2.682 . S
O221 C210 1.273 . S
O222 Nd193 2.410 . S
O222 C211 1.251 . S
O223 Nd192 2.420 1_545 S
O223 C211 1.268 . S
H224 C196 0.930 . S
H225 C197 0.929 . S
H226 C199 0.930 . S
H227 C200 0.929 . S
H228 C205 0.930 . S
H229 C206 0.929 . S
H230 C208 0.930 . S
H231 C209 0.929 . S
Nd232 C234 2.836 . S
Nd232 O252 2.500 . S
Nd232 O253 2.492 . S
Nd232 O254 2.487 . S
Nd232 O255 2.682 . S
Nd232 O256 2.410 . S
Nd232 O261 2.414 . S
Nd232 O263 2.424 . S
Nd233 C243 2.836 . S
Nd233 O255 2.414 . S
Nd233 O257 2.424 . S
Nd233 O258 2.500 . S
Nd233 O259 2.492 . S
Nd233 O260 2.487 . S
Nd233 O261 2.682 . S
Nd233 O262 2.410 . S
C234 Nd232 2.836 . S
C234 C235 1.498 . S
C234 O252 1.258 . S
C234 O253 1.239 . S
C235 C234 1.498 . S
C235 C236 1.366 . S
C235 C240 1.407 . S
C236 C235 1.366 . S
C236 C237 1.392 . S
C236 H264 0.930 . S
C237 C236 1.392 . S
C237 C238 1.398 . S
C237 H265 0.929 . S
C238 C237 1.398 . S
C238 C239 1.352 . S
C239 C238 1.352 . S
C239 C240 1.384 . S
C239 H266 0.930 . S
C240 C235 1.407 . S
C240 C239 1.384 . S
C240 H267 0.929 . S
C241 O254 1.241 . S
C241 O255 1.273 . S
C242 O256 1.251 . S
C242 O257 1.268 . S
C243 Nd233 2.836 . S
C243 C244 1.498 . S
C243 O258 1.258 . S
C243 O259 1.239 . S
C244 C243 1.498 . S
C244 C245 1.366 . S
C244 C249 1.407 . S
C245 C244 1.366 . S
C245 C246 1.392 . S
C245 H268 0.930 . S
C246 C245 1.392 . S
C246 C247 1.398 . S
C246 H269 0.929 . S
C247 C246 1.398 . S
C247 C248 1.352 . S
C248 C247 1.352 . S
C248 C249 1.384 . S
C248 H270 0.930 . S
C249 C244 1.407 . S
C249 C248 1.384 . S
C249 H271 0.929 . S
C250 O260 1.241 . S
C250 O261 1.273 . S
C251 O262 1.251 . S
C251 O263 1.268 . S
O252 Nd232 2.500 . S
O252 C234 1.258 . S
O253 Nd232 2.492 . S
O253 C234 1.239 . S
O254 Nd232 2.487 . S
O254 C241 1.241 . S
O255 Nd232 2.682 . S
O255 Nd233 2.414 . S
O255 C241 1.273 . S
O256 Nd232 2.410 . S
O256 C242 1.251 . S
O257 Nd233 2.424 . S
O257 C242 1.268 . S
O258 Nd233 2.500 . S
O258 C243 1.258 . S
O259 Nd233 2.492 . S
O259 C243 1.239 . S
O260 Nd233 2.487 . S
O260 C250 1.241 . S
O261 Nd232 2.414 . S
O261 Nd233 2.682 . S
O261 C250 1.273 . S
O262 Nd233 2.410 . S
O262 C251 1.251 . S
O263 Nd232 2.424 . S
O263 C251 1.268 . S
H264 C236 0.930 . S
H265 C237 0.929 . S
H266 C239 0.930 . S
H267 C240 0.929 . S
H268 C245 0.930 . S
H269 C246 0.929 . S
H270 C248 0.930 . S
H271 C249 0.929 . S
Nd272 C274 2.836 1_455 S
Nd272 O292 2.500 1_455 S
Nd272 O293 2.492 . S
Nd272 O294 2.487 . S
Nd272 O295 2.682 . S
Nd272 O296 2.410 . S
Nd272 O301 2.411 1_455 S
Nd272 O303 2.424 . S
Nd273 C283 2.836 . S
Nd273 O295 2.414 1_556 S
Nd273 O297 2.424 . S
Nd273 O298 2.500 . S
Nd273 O299 2.492 . S
Nd273 O300 2.487 1_455 S
Nd273 O301 2.684 1_456 S
Nd273 O302 2.410 . S
C274 Nd272 2.836 1_655 S
C274 C275 1.498 . S
C274 O292 1.258 . S
C274 O293 1.239 1_655 S
C275 C274 1.498 . S
C275 C276 1.366 . S
C275 C280 1.407 . S
C276 C275 1.366 . S
C276 C277 1.392 . S
C276 H304 0.930 . S
C277 C276 1.392 . S
C277 C278 1.398 . S
C277 H305 0.929 . S
C278 C277 1.398 . S
C278 C279 1.352 . S
C279 C278 1.352 . S
C279 C280 1.384 . S
C279 H306 0.930 . S
C280 C275 1.407 . S
C280 C279 1.384 . S
C280 H307 0.929 1_655 S
C281 O294 1.241 . S
C281 O295 1.273 . S
C282 O296 1.248 . S
C282 O297 1.271 1_554 S
C283 Nd273 2.836 . S
C283 C284 1.498 . S
C283 O298 1.258 . S
C283 O299 1.239 . S
C284 C283 1.498 . S
C284 C285 1.366 . S
C284 C289 1.407 . S
C285 C284 1.366 . S
C285 C286 1.392 . S
C285 H308 0.930 . S
C286 C285 1.392 . S
C286 C287 1.398 . S
C286 H309 0.929 . S
C287 C286 1.398 . S
C287 C288 1.352 . S
C288 C287 1.352 . S
C288 C289 1.384 . S
C288 H310 0.930 . S
C289 C284 1.407 . S
C289 C288 1.384 . S
C289 H311 0.929 . S
C290 O300 1.241 . S
C290 O301 1.276 1_556 S
C291 O302 1.251 1_554 S
C291 O303 1.268 . S
O292 Nd272 2.500 1_655 S
O292 C274 1.258 . S
O293 Nd272 2.492 . S
O293 C274 1.239 1_455 S
O294 Nd272 2.487 . S
O294 C281 1.241 . S
O295 Nd272 2.682 . S
O295 Nd273 2.414 1_554 S
O295 C281 1.273 . S
O296 Nd272 2.410 . S
O296 C282 1.248 . S
O297 Nd273 2.424 . S
O297 C282 1.271 1_556 S
O298 Nd273 2.500 . S
O298 C283 1.258 . S
O299 Nd273 2.492 . S
O299 C283 1.239 . S
O300 Nd273 2.487 1_655 S
O300 C290 1.241 . S
O301 Nd272 2.411 1_655 S
O301 Nd273 2.684 1_654 S
O301 C290 1.276 1_554 S
O302 Nd273 2.410 . S
O302 C291 1.251 1_556 S
O303 Nd272 2.424 . S
O303 C291 1.268 . S
H304 C276 0.930 . S
H305 C277 0.929 . S
H306 C279 0.930 . S
H307 C280 0.929 1_455 S
H308 C285 0.930 . S
H309 C286 0.929 . S
H310 C288 0.930 . S
H311 C289 0.929 . S
H312 C320 0.950 . S
H313 C325 0.950 . S
H314 C322 0.950 . S
H315 C324 0.950 . S
H316 C326 0.950 . S
H317 C328 0.950 . S
H318 C330 0.950 . S
H319 C331 0.950 . S
C320 H312 0.950 . S
C320 C321 1.386 . S
C320 C322 1.391 . S
C321 C320 1.386 . S
C321 C325 1.393 . S
C322 H314 0.950 . S
C322 C320 1.391 . S
C322 C323 1.400 . S
C323 C322 1.400 . S
C323 C324 1.398 . S
C323 C329 1.491 . S
C324 H315 0.950 . S
C324 C323 1.398 . S
C324 C325 1.391 . S
C325 H313 0.950 . S
C325 C321 1.393 . S
C325 C324 1.391 . S
C326 H316 0.950 . S
C326 C327 1.386 . S
C326 C328 1.391 . S
C327 C326 1.386 . S
C327 C331 1.393 . S
C328 H317 0.950 . S
C328 C326 1.391 . S
C328 C329 1.400 . S
C329 C323 1.491 . S
C329 C328 1.400 . S
C329 C330 1.398 . S
C330 H318 0.950 . S
C330 C329 1.398 . S
C330 C331 1.391 . S
C331 H319 0.950 . S
C331 C327 1.393 . S
C331 C330 1.391 . S
H332 C340 0.950 . S
H333 C345 0.950 . S
H334 C342 0.950 . S
H335 C344 0.950 . S
H336 C346 0.950 1_554 S
H337 C348 0.950 . S
H338 C350 0.950 . S
H339 C351 0.950 . S
C340 H332 0.950 . S
C340 C341 1.386 . S
C340 C342 1.391 . S
C341 C340 1.386 . S
C341 C345 1.393 . S
C342 H334 0.950 . S
C342 C340 1.391 . S
C342 C343 1.400 . S
C343 C342 1.400 . S
C343 C344 1.398 . S
C343 C349 1.491 . S
C344 H335 0.950 . S
C344 C343 1.398 . S
C344 C345 1.391 . S
C345 H333 0.950 . S
C345 C341 1.393 . S
C345 C344 1.391 . S
C346 H336 0.950 1_556 S
C346 C347 1.386 . S
C346 C348 1.391 . S
C347 C346 1.386 . S
C347 C351 1.393 . S
C348 H337 0.950 . S
C348 C346 1.391 . S
C348 C349 1.400 . S
C349 C343 1.491 . S
C349 C348 1.400 . S
C349 C350 1.398 . S
C350 H338 0.950 . S
C350 C349 1.398 . S
C350 C351 1.391 . S
C351 H339 0.950 . S
C351 C347 1.393 . S
C351 C350 1.391 . S
H352 C360 0.950 . S
H353 C365 0.950 . S
H354 C362 0.950 . S
H355 C364 0.950 . S
H356 C366 0.950 . S
H357 C368 0.950 . S
H358 C370 0.950 . S
H359 C371 0.950 . S
C360 H352 0.950 . S
C360 C361 1.386 . S
C360 C362 1.391 . S
C361 C360 1.386 . S
C361 C365 1.393 . S
C362 H354 0.950 . S
C362 C360 1.391 . S
C362 C363 1.400 . S
C363 C362 1.400 . S
C363 C364 1.398 . S
C363 C369 1.491 . S
C364 H355 0.950 . S
C364 C363 1.398 . S
C364 C365 1.391 . S
C365 H353 0.950 . S
C365 C361 1.393 . S
C365 C364 1.391 . S
C366 H356 0.950 . S
C366 C367 1.386 . S
C366 C368 1.391 . S
C367 C366 1.386 . S
C367 C371 1.393 . S
C368 H357 0.950 . S
C368 C366 1.391 . S
C368 C369 1.400 . S
C369 C363 1.491 . S
C369 C368 1.400 . S
C369 C370 1.398 . S
C370 H358 0.950 . S
C370 C369 1.398 . S
C370 C371 1.391 . S
C371 H359 0.950 . S
C371 C367 1.393 . S
C371 C370 1.391 . S
H372 C380 0.950 . S
H373 C385 0.950 . S
H374 C382 0.950 . S
H375 C384 0.950 . S
H376 C386 0.950 . S
H377 C388 0.950 . S
H378 C390 0.950 . S
H379 C391 0.950 . S
C380 H372 0.950 . S
C380 C381 1.386 . S
C380 C382 1.391 . S
C381 C380 1.386 . S
C381 C385 1.393 . S
C382 H374 0.950 . S
C382 C380 1.391 . S
C382 C383 1.400 . S
C383 C382 1.400 . S
C383 C384 1.398 . S
C383 C389 1.491 . S
C384 H375 0.950 . S
C384 C383 1.398 . S
C384 C385 1.391 . S
C385 H373 0.950 . S
C385 C381 1.393 . S
C385 C384 1.391 . S
C386 H376 0.950 . S
C386 C387 1.386 . S
C386 C388 1.391 . S
C387 C386 1.386 . S
C387 C391 1.393 . S
C388 H377 0.950 . S
C388 C386 1.391 . S
C388 C389 1.400 . S
C389 C383 1.491 . S
C389 C388 1.400 . S
C389 C390 1.398 . S
C390 H378 0.950 . S
C390 C389 1.398 . S
C390 C391 1.391 . S
C391 H379 0.950 . S
C391 C387 1.393 . S
C391 C390 1.391 . S
H392 C400 0.950 . S
H393 C405 0.950 . S
H394 C402 0.950 . S
H395 C404 0.950 . S
H396 C406 0.950 . S
H397 C408 0.950 . S
H398 C410 0.950 . S
H399 C411 0.950 . S
C400 H392 0.950 . S
C400 C401 1.386 . S
C400 C402 1.391 . S
C401 C400 1.386 . S
C401 C405 1.393 . S
C402 H394 0.950 . S
C402 C400 1.391 . S
C402 C403 1.400 . S
C403 C402 1.400 . S
C403 C404 1.398 . S
C403 C409 1.491 . S
C404 H395 0.950 . S
C404 C403 1.398 . S
C404 C405 1.391 . S
C405 H393 0.950 . S
C405 C401 1.393 . S
C405 C404 1.391 . S
C406 H396 0.950 . S
C406 C407 1.386 . S
C406 C408 1.391 . S
C407 C406 1.386 . S
C407 C411 1.393 . S
C408 H397 0.950 . S
C408 C406 1.391 . S
C408 C409 1.400 . S
C409 C403 1.491 . S
C409 C408 1.400 . S
C409 C410 1.398 . S
C410 H398 0.950 . S
C410 C409 1.398 . S
C410 C411 1.391 . S
C411 H399 0.950 . S
C411 C407 1.393 . S
C411 C410 1.391 . S
H412 C420 0.950 . S
H413 C425 0.950 . S
H414 C422 0.950 . S
H415 C424 0.950 . S
H416 C426 0.950 . S
H417 C428 0.950 . S
H418 C430 0.950 . S
H419 C431 0.950 . S
C420 H412 0.950 . S
C420 C421 1.386 . S
C420 C422 1.391 . S
C421 C420 1.386 . S
C421 C425 1.393 . S
C422 H414 0.950 . S
C422 C420 1.391 . S
C422 C423 1.400 . S
C423 C422 1.400 . S
C423 C424 1.398 . S
C423 C429 1.491 . S
C424 H415 0.950 . S
C424 C423 1.398 . S
C424 C425 1.391 . S
C425 H413 0.950 . S
C425 C421 1.393 . S
C425 C424 1.391 . S
C426 H416 0.950 . S
C426 C427 1.386 . S
C426 C428 1.391 . S
C427 C426 1.386 . S
C427 C431 1.393 . S
C428 H417 0.950 . S
C428 C426 1.391 . S
C428 C429 1.400 . S
C429 C423 1.491 . S
C429 C428 1.400 . S
C429 C430 1.398 . S
C430 H418 0.950 . S
C430 C429 1.398 . S
C430 C431 1.391 . S
C431 H419 0.950 . S
C431 C427 1.393 . S
C431 C430 1.391 . S
H432 C440 0.950 . S
H433 C445 0.950 . S
H434 C442 0.950 . S
H435 C444 0.950 . S
H436 C446 0.950 1_554 S
H437 C448 0.950 . S
H438 C450 0.950 . S
H439 C451 0.950 . S
C440 H432 0.950 . S
C440 C441 1.386 . S
C440 C442 1.391 . S
C441 C440 1.386 . S
C441 C445 1.393 . S
C442 H434 0.950 . S
C442 C440 1.391 . S
C442 C443 1.400 . S
C443 C442 1.400 . S
C443 C444 1.398 . S
C443 C449 1.491 . S
C444 H435 0.950 . S
C444 C443 1.398 . S
C444 C445 1.391 . S
C445 H433 0.950 . S
C445 C441 1.393 . S
C445 C444 1.391 . S
C446 H436 0.950 1_556 S
C446 C447 1.386 . S
C446 C448 1.391 . S
C447 C446 1.386 . S
C447 C451 1.393 . S
C448 H437 0.950 . S
C448 C446 1.391 . S
C448 C449 1.400 . S
C449 C443 1.491 . S
C449 C448 1.400 . S
C449 C450 1.398 . S
C450 H438 0.950 . S
C450 C449 1.398 . S
C450 C451 1.391 . S
C451 H439 0.950 . S
C451 C447 1.393 . S
C451 C450 1.391 . S
H452 C460 0.950 . S
H453 C465 0.950 . S
H454 C462 0.950 . S
H455 C464 0.950 . S
H456 C466 0.950 . S
H457 C468 0.950 . S
H458 C470 0.950 . S
H459 C471 0.950 . S
C460 H452 0.950 . S
C460 C461 1.386 . S
C460 C462 1.391 . S
C461 C460 1.386 . S
C461 C465 1.393 . S
C462 H454 0.950 . S
C462 C460 1.391 . S
C462 C463 1.400 . S
C463 C462 1.400 . S
C463 C464 1.398 . S
C463 C469 1.491 . S
C464 H455 0.950 . S
C464 C463 1.398 . S
C464 C465 1.391 . S
C465 H453 0.950 . S
C465 C461 1.393 . S
C465 C464 1.391 . S
C466 H456 0.950 . S
C466 C467 1.386 . S
C466 C468 1.391 . S
C467 C466 1.386 . S
C467 C471 1.393 . S
C468 H457 0.950 . S
C468 C466 1.391 . S
C468 C469 1.400 . S
C469 C463 1.491 . S
C469 C468 1.400 . S
C469 C470 1.398 . S
C470 H458 0.950 . S
C470 C469 1.398 . S
C470 C471 1.391 . S
C471 H459 0.950 . S
C471 C467 1.393 . S
C471 C470 1.391 . S
H472 C480 0.950 . S
H473 C485 0.950 . S
H474 C482 0.950 . S
H475 C484 0.950 . S
H476 C486 0.950 . S
H477 C488 0.950 . S
H478 C490 0.950 . S
H479 C491 0.950 . S
C480 H472 0.950 . S
C480 C481 1.386 . S
C480 C482 1.391 . S
C481 C480 1.386 . S
C481 C485 1.393 . S
C482 H474 0.950 . S
C482 C480 1.391 . S
C482 C483 1.400 . S
C483 C482 1.400 . S
C483 C484 1.398 . S
C483 C489 1.491 . S
C484 H475 0.950 . S
C484 C483 1.398 . S
C484 C485 1.391 . S
C485 H473 0.950 . S
C485 C481 1.393 . S
C485 C484 1.391 . S
C486 H476 0.950 . S
C486 C487 1.386 . S
C486 C488 1.391 . S
C487 C486 1.386 . S
C487 C491 1.393 . S
C488 H477 0.950 . S
C488 C486 1.391 . S
C488 C489 1.400 . S
C489 C483 1.491 . S
C489 C488 1.400 . S
C489 C490 1.398 . S
C490 H478 0.950 . S
C490 C489 1.398 . S
C490 C491 1.391 . S
C491 H479 0.950 . S
C491 C487 1.393 . S
C491 C490 1.391 . S
H492 C500 0.950 . S
H493 C505 0.950 . S
H494 C502 0.950 . S
H495 C504 0.950 . S
H496 C506 0.950 . S
H497 C508 0.950 . S
H498 C510 0.950 . S
H499 C511 0.950 . S
C500 H492 0.950 . S
C500 C501 1.386 . S
C500 C502 1.391 . S
C501 C500 1.386 . S
C501 C505 1.393 . S
C502 H494 0.950 . S
C502 C500 1.391 . S
C502 C503 1.400 . S
C503 C502 1.400 . S
C503 C504 1.398 . S
C503 C509 1.491 . S
C504 H495 0.950 . S
C504 C503 1.398 . S
C504 C505 1.391 . S
C505 H493 0.950 . S
C505 C501 1.393 . S
C505 C504 1.391 . S
C506 H496 0.950 . S
C506 C507 1.386 . S
C506 C508 1.391 . S
C507 C506 1.386 . S
C507 C511 1.393 1_556 S
C508 H497 0.950 . S
C508 C506 1.391 . S
C508 C509 1.400 . S
C509 C503 1.491 . S
C509 C508 1.400 . S
C509 C510 1.398 . S
C510 H498 0.950 . S
C510 C509 1.398 . S
C510 C511 1.391 1_556 S
C511 H499 0.950 . S
C511 C507 1.393 1_554 S
C511 C510 1.391 1_554 S
H512 C520 0.950 . S
H513 C525 0.950 . S
H514 C522 0.950 . S
H515 C524 0.950 . S
H516 C526 0.950 1_455 S
H517 C528 0.950 . S
H518 C530 0.950 . S
H519 C531 0.950 . S
C520 H512 0.950 . S
C520 C521 1.386 . S
C520 C522 1.391 . S
C521 C520 1.386 . S
C521 C525 1.393 . S
C522 H514 0.950 . S
C522 C520 1.391 . S
C522 C523 1.400 . S
C523 C522 1.400 . S
C523 C524 1.398 . S
C523 C529 1.491 . S
C524 H515 0.950 . S
C524 C523 1.398 . S
C524 C525 1.391 . S
C525 H513 0.950 . S
C525 C521 1.393 . S
C525 C524 1.391 . S
C526 H516 0.950 1_655 S
C526 C527 1.386 . S
C526 C528 1.391 . S
C527 C526 1.386 . S
C527 C531 1.393 . S
C528 H517 0.950 . S
C528 C526 1.391 . S
C528 C529 1.400 . S
C529 C523 1.491 . S
C529 C528 1.400 . S
C529 C530 1.398 . S
C530 H518 0.950 . S
C530 C529 1.398 . S
C530 C531 1.391 . S
C531 H519 0.950 . S
C531 C527 1.393 . S
C531 C530 1.391 . S
H532 C540 0.950 . S
H533 C545 0.950 . S
H534 C542 0.950 . S
H535 C544 0.950 . S
H536 C546 0.950 . S
H537 C548 0.950 . S
H538 C550 0.950 . S
H539 C551 0.950 . S
C540 H532 0.950 . S
C540 C541 1.386 . S
C540 C542 1.391 . S
C541 C540 1.386 . S
C541 C545 1.393 . S
C542 H534 0.950 . S
C542 C540 1.391 . S
C542 C543 1.400 . S
C543 C542 1.400 . S
C543 C544 1.398 . S
C543 C549 1.491 . S
C544 H535 0.950 . S
C544 C543 1.398 . S
C544 C545 1.391 . S
C545 H533 0.950 . S
C545 C541 1.393 . S
C545 C544 1.391 . S
C546 H536 0.950 . S
C546 C547 1.386 . S
C546 C548 1.391 . S
C547 C546 1.386 . S
C547 C551 1.393 . S
C548 H537 0.950 . S
C548 C546 1.391 . S
C548 C549 1.400 . S
C549 C543 1.491 . S
C549 C548 1.400 . S
C549 C550 1.398 . S
C550 H538 0.950 . S
C550 C549 1.398 . S
C550 C551 1.391 . S
C551 H539 0.950 . S
C551 C547 1.393 . S
C551 C550 1.391 . S
H552 C560 0.950 . S
H553 C565 0.950 . S
H554 C562 0.950 . S
H555 C564 0.950 . S
H556 C566 0.950 . S
H557 C568 0.950 . S
H558 C570 0.950 . S
H559 C571 0.950 . S
C560 H552 0.950 . S
C560 C561 1.386 . S
C560 C562 1.391 . S
C561 C560 1.386 . S
C561 C565 1.393 . S
C562 H554 0.950 . S
C562 C560 1.391 . S
C562 C563 1.400 . S
C563 C562 1.400 . S
C563 C564 1.398 . S
C563 C569 1.491 . S
C564 H555 0.950 . S
C564 C563 1.398 . S
C564 C565 1.391 . S
C565 H553 0.950 . S
C565 C561 1.393 . S
C565 C564 1.391 . S
C566 H556 0.950 . S
C566 C567 1.386 . S
C566 C568 1.391 . S
C567 C566 1.386 . S
C567 C571 1.393 . S
C568 H557 0.950 . S
C568 C566 1.391 . S
C568 C569 1.400 . S
C569 C563 1.491 . S
C569 C568 1.400 . S
C569 C570 1.398 . S
C570 H558 0.950 . S
C570 C569 1.398 . S
C570 C571 1.391 . S
C571 H559 0.950 . S
C571 C567 1.393 . S
C571 C570 1.391 . S
H572 C580 0.950 . S
H573 C585 0.950 . S
H574 C582 0.950 . S
H575 C584 0.950 . S
H576 C586 0.950 . S
H577 C588 0.950 . S
H578 C590 0.950 . S
H579 C591 0.950 . S
C580 H572 0.950 . S
C580 C581 1.386 . S
C580 C582 1.391 . S
C581 C580 1.386 . S
C581 C585 1.393 . S
C582 H574 0.950 . S
C582 C580 1.391 . S
C582 C583 1.400 . S
C583 C582 1.400 . S
C583 C584 1.398 . S
C583 C589 1.491 . S
C584 H575 0.950 . S
C584 C583 1.398 . S
C584 C585 1.391 . S
C585 H573 0.950 . S
C585 C581 1.393 . S
C585 C584 1.391 . S
C586 H576 0.950 . S
C586 C587 1.386 . S
C586 C588 1.391 . S
C587 C586 1.386 . S
C587 C591 1.393 . S
C588 H577 0.950 . S
C588 C586 1.391 . S
C588 C589 1.400 . S
C589 C583 1.491 . S
C589 C588 1.400 . S
C589 C590 1.398 . S
C590 H578 0.950 . S
C590 C589 1.398 . S
C590 C591 1.391 . S
C591 H579 0.950 . S
C591 C587 1.393 . S
C591 C590 1.391 . S
H592 C600 0.950 . S
H593 C605 0.950 . S
H594 C602 0.950 . S
H595 C604 0.950 . S
H596 C606 0.950 . S
H597 C608 0.950 . S
H598 C610 0.950 . S
H599 C611 0.950 . S
C600 H592 0.950 . S
C600 C601 1.386 . S
C600 C602 1.391 . S
C601 C600 1.386 . S
C601 C605 1.393 . S
C602 H594 0.950 . S
C602 C600 1.391 . S
C602 C603 1.400 . S
C603 C602 1.400 . S
C603 C604 1.398 . S
C603 C609 1.491 . S
C604 H595 0.950 . S
C604 C603 1.398 . S
C604 C605 1.391 . S
C605 H593 0.950 . S
C605 C601 1.393 . S
C605 C604 1.391 . S
C606 H596 0.950 . S
C606 C607 1.386 . S
C606 C608 1.391 . S
C607 C606 1.386 . S
C607 C611 1.393 . S
C608 H597 0.950 . S
C608 C606 1.391 . S
C608 C609 1.400 . S
C609 C603 1.491 . S
C609 C608 1.400 . S
C609 C610 1.398 . S
C610 H598 0.950 . S
C610 C609 1.398 . S
C610 C611 1.391 . S
C611 H599 0.950 . S
C611 C607 1.393 . S
C611 C610 1.391 . S
H612 C620 0.950 . S
H613 C625 0.950 . S
H614 C622 0.950 . S
H615 C624 0.950 . S
H616 C626 0.950 . S
H617 C628 0.950 . S
H618 C630 0.950 . S
H619 C631 0.950 . S
C620 H612 0.950 . S
C620 C621 1.386 . S
C620 C622 1.391 . S
C621 C620 1.386 . S
C621 C625 1.393 . S
C622 H614 0.950 . S
C622 C620 1.391 . S
C622 C623 1.400 . S
C623 C622 1.400 . S
C623 C624 1.398 . S
C623 C629 1.491 . S
C624 H615 0.950 . S
C624 C623 1.398 . S
C624 C625 1.391 . S
C625 H613 0.950 . S
C625 C621 1.393 . S
C625 C624 1.391 . S
C626 H616 0.950 . S
C626 C627 1.386 . S
C626 C628 1.391 . S
C627 C626 1.386 . S
C627 C631 1.393 . S
C628 H617 0.950 . S
C628 C626 1.391 . S
C628 C629 1.400 . S
C629 C623 1.491 . S
C629 C628 1.400 . S
C629 C630 1.398 . S
C630 H618 0.950 . S
C630 C629 1.398 . S
C630 C631 1.391 . S
C631 H619 0.950 . S
C631 C627 1.393 . S
C631 C630 1.391 . S
H632 C640 0.950 . S
H633 C645 0.950 1_554 S
H634 C642 0.950 . S
H635 C644 0.950 . S
H636 C646 0.950 1_545 S
H637 C648 0.950 . S
H638 C650 0.950 . S
H639 C651 0.942 1_556 S
C640 H632 0.950 . S
C640 C641 1.386 . S
C640 C642 1.391 . S
C641 C640 1.386 . S
C641 C645 1.393 . S
C642 H634 0.950 . S
C642 C640 1.391 . S
C642 C643 1.400 . S
C643 C642 1.400 . S
C643 C644 1.398 1_556 S
C643 C649 1.491 1_556 S
C644 H635 0.950 . S
C644 C643 1.398 1_554 S
C644 C645 1.391 1_554 S
C645 H633 0.950 1_556 S
C645 C641 1.393 . S
C645 C644 1.391 1_556 S
C646 H636 0.950 1_565 S
C646 C647 1.386 . S
C646 C648 1.391 . S
C647 C646 1.386 . S
C647 C651 1.393 . S
C648 H637 0.950 . S
C648 C646 1.391 . S
C648 C649 1.400 . S
C649 C643 1.491 1_554 S
C649 C648 1.400 . S
C649 C650 1.398 1_554 S
C650 H638 0.950 . S
C650 C649 1.398 1_556 S
C650 C651 1.391 1_556 S
C651 H639 0.942 1_554 S
C651 C647 1.393 . S
C651 C650 1.391 1_554 S
H652 C660 0.950 . S
H653 C665 0.950 . S
H654 C662 0.950 . S
H655 C664 0.950 . S
H656 C666 0.950 . S
H657 C668 0.950 . S
H658 C670 0.950 . S
H659 C671 0.950 . S
C660 H652 0.950 . S
C660 C661 1.386 . S
C660 C662 1.391 . S
C661 C660 1.386 . S
C661 C665 1.393 . S
C662 H654 0.950 . S
C662 C660 1.391 . S
C662 C663 1.400 . S
C663 C662 1.400 . S
C663 C664 1.398 . S
C663 C669 1.491 . S
C664 H655 0.950 . S
C664 C663 1.398 . S
C664 C665 1.391 . S
C665 H653 0.950 . S
C665 C661 1.393 . S
C665 C664 1.391 . S
C666 H656 0.950 . S
C666 C667 1.386 . S
C666 C668 1.391 . S
C667 C666 1.386 . S
C667 C671 1.393 . S
C668 H657 0.950 . S
C668 C666 1.391 . S
C668 C669 1.400 . S
C669 C663 1.491 . S
C669 C668 1.400 . S
C669 C670 1.398 . S
C670 H658 0.950 . S
C670 C669 1.398 . S
C670 C671 1.391 . S
C671 H659 0.950 . S
C671 C667 1.393 . S
C671 C670 1.391 . S
H672 C680 0.950 . S
H673 C685 0.950 . S
H674 C682 0.950 . S
H675 C684 0.950 . S
H676 C686 0.950 . S
H677 C688 0.950 . S
H678 C690 0.950 . S
H679 C691 0.950 . S
C680 H672 0.950 . S
C680 C681 1.386 . S
C680 C682 1.391 . S
C681 C680 1.386 . S
C681 C685 1.393 . S
C682 H674 0.950 . S
C682 C680 1.391 . S
C682 C683 1.400 . S
C683 C682 1.400 . S
C683 C684 1.398 . S
C683 C689 1.491 . S
C684 H675 0.950 . S
C684 C683 1.398 . S
C684 C685 1.391 . S
C685 H673 0.950 . S
C685 C681 1.393 . S
C685 C684 1.391 . S
C686 H676 0.950 . S
C686 C687 1.386 . S
C686 C688 1.391 . S
C687 C686 1.386 . S
C687 C691 1.393 . S
C688 H677 0.950 . S
C688 C686 1.391 . S
C688 C689 1.400 . S
C689 C683 1.491 . S
C689 C688 1.400 . S
C689 C690 1.398 . S
C690 H678 0.950 . S
C690 C689 1.398 . S
C690 C691 1.391 . S
C691 H679 0.950 . S
C691 C687 1.393 . S
C691 C690 1.391 . S
H692 C700 0.950 . S
H693 C705 0.950 . S
H694 C702 0.950 . S
H695 C704 0.950 . S
H696 C706 0.950 . S
H697 C708 0.950 . S
H698 C710 0.950 . S
H699 C711 0.950 . S
C700 H692 0.950 . S
C700 C701 1.386 . S
C700 C702 1.391 . S
C701 C700 1.386 . S
C701 C705 1.393 . S
C702 H694 0.950 . S
C702 C700 1.391 . S
C702 C703 1.400 . S
C703 C702 1.400 . S
C703 C704 1.398 . S
C703 C709 1.491 . S
C704 H695 0.950 . S
C704 C703 1.398 . S
C704 C705 1.391 . S
C705 H693 0.950 . S
C705 C701 1.393 . S
C705 C704 1.391 . S
C706 H696 0.950 . S
C706 C707 1.386 . S
C706 C708 1.391 . S
C707 C706 1.386 . S
C707 C711 1.393 . S
C708 H697 0.950 . S
C708 C706 1.391 . S
C708 C709 1.400 . S
C709 C703 1.491 . S
C709 C708 1.400 . S
C709 C710 1.398 . S
C710 H698 0.950 . S
C710 C709 1.398 . S
C710 C711 1.391 . S
C711 H699 0.950 . S
C711 C707 1.393 . S
C711 C710 1.391 . S
H712 C720 0.950 . S
H713 C725 0.950 . S
H714 C722 0.950 . S
H715 C724 0.950 . S
H716 C726 0.950 . S
H717 C728 0.950 1_554 S
H718 C730 0.950 . S
H719 C731 0.950 . S
C720 H712 0.950 . S
C720 C721 1.386 . S
C720 C722 1.391 . S
C721 C720 1.386 . S
C721 C725 1.393 . S
C722 H714 0.950 . S
C722 C720 1.391 . S
C722 C723 1.400 . S
C723 C722 1.400 . S
C723 C724 1.398 . S
C723 C729 1.491 . S
C724 H715 0.950 . S
C724 C723 1.398 . S
C724 C725 1.391 . S
C725 H713 0.950 . S
C725 C721 1.393 . S
C725 C724 1.391 . S
C726 H716 0.950 . S
C726 C727 1.386 1_554 S
C726 C728 1.391 1_554 S
C727 C726 1.386 1_556 S
C727 C731 1.393 . S
C728 H717 0.950 1_556 S
C728 C726 1.391 1_556 S
C728 C729 1.400 . S
C729 C723 1.491 . S
C729 C728 1.400 . S
C729 C730 1.398 . S
C730 H718 0.950 . S
C730 C729 1.398 . S
C730 C731 1.391 . S
C731 H719 0.950 . S
C731 C727 1.393 . S
C731 C730 1.391 . S
H732 C740 0.950 . S
H733 C745 0.950 . S
H734 C742 0.950 . S
H735 C744 0.950 . S
H736 C746 0.950 . S
H737 C748 0.950 . S
H738 C750 0.950 . S
H739 C751 0.950 . S
C740 H732 0.950 . S
C740 C741 1.386 . S
C740 C742 1.391 . S
C741 C740 1.386 . S
C741 C745 1.393 . S
C742 H734 0.950 . S
C742 C740 1.391 . S
C742 C743 1.400 . S
C743 C742 1.400 . S
C743 C744 1.398 . S
C743 C749 1.491 . S
C744 H735 0.950 . S
C744 C743 1.398 . S
C744 C745 1.391 . S
C745 H733 0.950 . S
C745 C741 1.393 . S
C745 C744 1.391 . S
C746 H736 0.950 . S
C746 C747 1.386 . S
C746 C748 1.391 . S
C747 C746 1.386 . S
C747 C751 1.393 . S
C748 H737 0.950 . S
C748 C746 1.391 . S
C748 C749 1.400 . S
C749 C743 1.491 . S
C749 C748 1.400 . S
C749 C750 1.398 . S
C750 H738 0.950 . S
C750 C749 1.398 . S
C750 C751 1.391 . S
C751 H739 0.950 . S
C751 C747 1.393 . S
C751 C750 1.391 . S
H752 C760 0.950 . S
H753 C765 0.950 . S
H754 C762 0.950 . S
H755 C764 0.950 . S
H756 C766 0.950 . S
H757 C768 0.950 . S
H758 C770 0.950 . S
H759 C771 0.950 . S
C760 H752 0.950 . S
C760 C761 1.386 . S
C760 C762 1.391 . S
C761 C760 1.386 . S
C761 C765 1.393 . S
C762 H754 0.950 . S
C762 C760 1.391 . S
C762 C763 1.400 . S
C763 C762 1.400 . S
C763 C764 1.398 . S
C763 C769 1.491 . S
C764 H755 0.950 . S
C764 C763 1.398 . S
C764 C765 1.391 . S
C765 H753 0.950 . S
C765 C761 1.393 . S
C765 C764 1.391 . S
C766 H756 0.950 . S
C766 C767 1.386 . S
C766 C768 1.391 . S
C767 C766 1.386 . S
C767 C771 1.393 . S
C768 H757 0.950 . S
C768 C766 1.391 . S
C768 C769 1.400 . S
C769 C763 1.491 . S
C769 C768 1.400 . S
C769 C770 1.398 . S
C770 H758 0.950 . S
C770 C769 1.398 . S
C770 C771 1.391 . S
C771 H759 0.950 . S
C771 C767 1.393 . S
C771 C770 1.391 . S
H772 C780 0.950 . S
H773 C785 0.950 . S
H774 C782 0.950 . S
H775 C784 0.950 . S
H776 C786 0.950 . S
H777 C788 0.950 . S
H778 C790 0.950 . S
H779 C791 0.950 . S
C780 H772 0.950 . S
C780 C781 1.386 . S
C780 C782 1.391 . S
C781 C780 1.386 . S
C781 C785 1.393 . S
C782 H774 0.950 . S
C782 C780 1.391 . S
C782 C783 1.400 . S
C783 C782 1.400 . S
C783 C784 1.398 . S
C783 C789 1.491 . S
C784 H775 0.950 . S
C784 C783 1.398 . S
C784 C785 1.391 . S
C785 H773 0.950 . S
C785 C781 1.393 . S
C785 C784 1.391 . S
C786 H776 0.950 . S
C786 C787 1.386 . S
C786 C788 1.391 . S
C787 C786 1.386 . S
C787 C791 1.393 . S
C788 H777 0.950 . S
C788 C786 1.391 . S
C788 C789 1.400 . S
C789 C783 1.491 . S
C789 C788 1.400 . S
C789 C790 1.398 . S
C790 H778 0.950 . S
C790 C789 1.398 . S
C790 C791 1.391 . S
C791 H779 0.950 . S
C791 C787 1.393 . S
C791 C790 1.391 . S
C321 C6 3.196 . S
C327 C171 3.159 . S
C341 C21 2.647 . S
C347 C202 2.687 1_556 S
C367 C241 0.690 . S
C361 C49 0.684 . S
C381 C68 0.638 . S
C387 C278 0.419 . S
C407 C201 3.602 . S
C401 C2 3.645 . S
C427 C158 1.188 . S
C421 C30 1.146 . S
C447 C290 1.025 . S
C441 C40 1.041 . S
C467 C247 0.936 . S
C461 C63 0.936 . S
C481 C11 2.245 . S
C487 C291 2.512 . S
C507 C207 1.567 1_556 S
C501 C44 1.566 . S
C521 C59 0.413 . S
C527 C170 0.617 . S
C541 C25 2.634 . S
C547 C242 2.661 . S
C567 C162 3.205 . S
C561 C82 3.255 . S
C581 C101 2.284 . S
C587 C211 2.346 . S
C601 C125 1.091 . S
C607 C250 1.102 . S
C621 C144 0.319 . S
C627 C287 0.395 . S
C641 C87 2.518 . S
C647 C210 2.593 1_565 S
C667 C167 1.907 . S
C661 C97 1.872 . S
C687 C281 1.060 . S
C681 C120 1.150 . S
C707 C238 0.995 . S
C701 C135 1.015 . S
C721 C78 2.651 . S
C727 C282 2.667 1_656 S
C747 C198 1.320 . S
C741 C116 1.324 . S
C767 C161 0.637 . S
C761 C139 0.623 . S
C781 C106 2.089 . S
C787 C251 2.384 . S
