# Generated by pormake.
# Topology rtl, (3,6)-cn, num edge types: 1
# Building blocks:
#     Node 0, Type 0, BuildingBlock: KAKCAD_clean_linker_0, # of connection points: 3
#     Node 1, Type 0, BuildingBlock: KAKCAD_clean_linker_0, # of connection points: 3
#     Node 2, Type 0, BuildingBlock: KAKCAD_clean_linker_0, # of connection points: 3
#     Node 3, Type 0, BuildingBlock: KAKCAD_clean_linker_0, # of connection points: 3
#     Node 4, Type 1, BuildingBlock: KUMJIN_clean_sbu_1, # of connection points: 6
#     Node 5, Type 1, BuildingBlock: KUMJIN_clean_sbu_1, # of connection points: 6
#     Edge 6, Type (0, 1), BuildingBlock: CIFDUS_clean_linker_0, # of connection points: 2
#     Edge 7, Type (0, 1), BuildingBlock: CIFDUS_clean_linker_0, # of connection points: 2
#     Edge 8, Type (0, 1), BuildingBlock: CIFDUS_clean_linker_0, # of connection points: 2
#     Edge 9, Type (0, 1), BuildingBlock: CIFDUS_clean_linker_0, # of connection points: 2
#     Edge 10, Type (0, 1), BuildingBlock: CIFDUS_clean_linker_0, # of connection points: 2
#     Edge 11, Type (0, 1), BuildingBlock: CIFDUS_clean_linker_0, # of connection points: 2
#     Edge 12, Type (0, 1), BuildingBlock: CIFDUS_clean_linker_0, # of connection points: 2
#     Edge 13, Type (0, 1), BuildingBlock: CIFDUS_clean_linker_0, # of connection points: 2
#     Edge 14, Type (0, 1), BuildingBlock: CIFDUS_clean_linker_0, # of connection points: 2
#     Edge 15, Type (0, 1), BuildingBlock: CIFDUS_clean_linker_0, # of connection points: 2
#     Edge 16, Type (0, 1), BuildingBlock: CIFDUS_clean_linker_0, # of connection points: 2
#     Edge 17, Type (0, 1), BuildingBlock: CIFDUS_clean_linker_0, # of connection points: 2
# Relax obj value: 0.018
# Max RMSD: 0.104
# Mean RMSD: 0.062
data_MOF--net-rtl--node1-KUMJIN_clean_sbu_1--node2-KAKCAD_clean_linker_0--edge1-CIFDUS_clean_linker_0
_symmetry_space_group_name_H-M    P1
_symmetry_Int_Tables_number       1
_symmetry_cell_setting            triclinic
loop_
_symmetry_equiv_pos_as_xyz
'x, y, z'
_cell_length_a     35.99275
_cell_length_b     36.693265
_cell_length_c     32.086263
_cell_angle_alpha  78.865788
_cell_angle_beta   99.632703
_cell_angle_gamma 90.87855
loop_
_atom_site_label
_atom_site_type_symbol
_atom_site_fract_x
_atom_site_fract_y
_atom_site_fract_z
_atom_type_partial_charge
C0 C 0.1387 0.86711 0.86005 0.0
C1 C 0.1279 0.90468 0.8537 0.0
C2 C 0.15662 0.84846 0.90023 0.0
C3 C 0.16461 0.86692 0.93513 0.0
C4 C 0.15318 0.90429 0.92921 0.0
C5 C 0.13506 0.92303 0.88884 0.0
C6 C 0.18598 0.84723 0.9769 0.0
C7 C 0.21662 0.824 0.9771 0.0
C8 C 0.23591 0.80304 0.01563 0.0
C9 C 0.22525 0.80679 0.05477 0.0
C10 C 0.19467 0.83009 0.05555 0.0
C11 C 0.17522 0.85026 0.01625 0.0
C12 C 0.18202 0.83192 0.09714 0.0
C13 C 0.18387 0.8001 0.12994 0.0
C14 C 0.16761 0.86519 0.10435 0.0
C15 C 0.15517 0.86649 0.14313 0.0
C16 C 0.15722 0.83465 0.17597 0.0
C17 C 0.26576 0.77586 0.01438 0.0
C18 C 0.26072 0.75395 0.98245 0.0
C19 C 0.29906 0.77117 0.04497 0.0
C20 C 0.32668 0.7452 0.04353 0.0
C21 C 0.3216 0.72351 0.0114 0.0
C22 C 0.28833 0.72821 0.9809 0.0
C23 C 0.17204 0.80154 0.16886 0.0
H24 H 0.13414 0.8522 0.83366 0.0
H25 H 0.16451 0.8195 0.90386 0.0
H26 H 0.15905 0.91928 0.95547 0.0
H27 H 0.12676 0.95187 0.88511 0.0
H28 H 0.22555 0.82218 0.94693 0.0
H29 H 0.15075 0.86717 0.016 0.0
H30 H 0.24038 0.79091 0.0846 0.0
H31 H 0.19405 0.77373 0.12551 0.0
H32 H 0.1661 0.8904 0.08013 0.0
H33 H 0.14353 0.89241 0.14705 0.0
H34 H 0.23505 0.75622 0.95897 0.0
H35 H 0.30398 0.78784 0.0697 0.0
H36 H 0.1748 0.77656 0.19351 0.0
H37 H 0.28326 0.71142 0.95628 0.0
H38 H 0.35221 0.74238 0.06726 0.0
C39 C 0.62796 0.68188 0.76612 0.0
C40 C 0.62535 0.64333 0.78062 0.0
C41 C 0.64409 0.69573 0.72946 0.0
C42 C 0.65733 0.67129 0.70629 0.0
C43 C 0.65572 0.63283 0.72153 0.0
C44 C 0.64011 0.61901 0.75837 0.0
C45 C 0.66925 0.68544 0.66407 0.0
C46 C 0.69715 0.71267 0.65936 0.0
C47 C 0.70811 0.72533 0.61883 0.0
C48 C 0.68922 0.71185 0.58292 0.0
C49 C 0.66203 0.68438 0.58743 0.0
C50 C 0.65239 0.67108 0.62803 0.0
C51 C 0.64486 0.66864 0.54975 0.0
C52 C 0.62721 0.692 0.51188 0.0
C53 C 0.64738 0.63029 0.55095 0.0
C54 C 0.633 0.61559 0.51457 0.0
C55 C 0.61522 0.63893 0.47673 0.0
C56 C 0.74051 0.75076 0.61349 0.0
C57 C 0.74709 0.78068 0.63526 0.0
C58 C 0.76501 0.74534 0.58528 0.0
C59 C 0.79435 0.76961 0.57785 0.0
C60 C 0.801 0.79971 0.59921 0.0
C61 C 0.77703 0.80489 0.62821 0.0
C62 C 0.61213 0.6772 0.47579 0.0
H63 H 0.61709 0.70128 0.78282 0.0
H64 H 0.64478 0.72549 0.7182 0.0
H65 H 0.66579 0.61338 0.70429 0.0
H66 H 0.6383 0.58921 0.76849 0.0
H67 H 0.71122 0.7227 0.68744 0.0
H68 H 0.63104 0.65001 0.63136 0.0
H69 H 0.69639 0.72196 0.55127 0.0
H70 H 0.62499 0.72166 0.5103 0.0
H71 H 0.66116 0.61183 0.57975 0.0
H72 H 0.63548 0.58596 0.51607 0.0
H73 H 0.72877 0.78576 0.65716 0.0
H74 H 0.7616 0.72217 0.56865 0.0
H75 H 0.59861 0.69571 0.44689 0.0
H76 H 0.78148 0.82749 0.64566 0.0
H77 H 0.81154 0.76488 0.55469 0.0
C78 C 0.8367 0.11311 0.21018 0.0
C79 C 0.87528 0.11953 0.22164 0.0
C80 C 0.8184 0.12525 0.16788 0.0
C81 C 0.8385 0.14343 0.13617 0.0
C82 C 0.87721 0.14934 0.14747 0.0
C83 C 0.89539 0.13776 0.18996 0.0
C84 C 0.81881 0.15713 0.09168 0.0
C85 C 0.78597 0.17911 0.08458 0.0
C86 C 0.76732 0.19318 0.04256 0.0
C87 C 0.78136 0.18394 0.00755 0.0
C88 C 0.81433 0.16215 0.01419 0.0
C89 C 0.83317 0.14914 0.05632 0.0
C90 C 0.82965 0.15422 0.97682 0.0
C91 C 0.8064 0.13972 0.94444 0.0
C92 C 0.86713 0.16273 0.97235 0.0
C93 C 0.88073 0.15805 0.93536 0.0
C94 C 0.85727 0.14412 0.90266 0.0
C95 C 0.73484 0.21947 0.0354 0.0
C96 C 0.70774 0.21414 0.0628 0.0
C97 C 0.73204 0.2514 1.00269 0.0
C98 C 0.70354 0.27793 0.99835 0.0
C99 C 0.67729 0.27321 0.02672 0.0
C100 C 0.67933 0.24077 0.05857 0.0
C101 C 0.8202 0.1344 0.90783 0.0
H102 H 0.8206 0.09923 0.2341 0.0
H103 H 0.78854 0.12028 0.15985 0.0
H104 H 0.89322 0.16354 0.12362 0.0
H105 H 0.92523 0.14277 0.19801 0.0
H106 H 0.77593 0.18657 0.1119 0.0
H107 H 0.85862 0.13227 0.0616 0.0
H108 H 0.76711 0.19439 0.97495 0.0
H109 H 0.77744 0.13284 0.94732 0.0
H110 H 0.88551 0.17414 0.99682 0.0
H111 H 0.90945 0.16565 0.93207 0.0
H112 H 0.70873 0.18955 0.08787 0.0
H113 H 0.75278 0.2567 0.98147 0.0
H114 H 0.80151 0.12387 0.88288 0.0
H115 H 0.65914 0.23616 0.0805 0.0
H116 H 0.70298 0.30287 0.97384 0.0
C117 C 0.33473 0.35754 0.29761 0.0
C118 C 0.37156 0.37114 0.29802 0.0
C119 C 0.32134 0.34423 0.33622 0.0
C120 C 0.34445 0.34413 0.37623 0.0
C121 C 0.38164 0.35657 0.37656 0.0
C122 C 0.39492 0.37006 0.33808 0.0
C123 C 0.32932 0.33318 0.41737 0.0
C124 C 0.30473 0.30304 0.42363 0.0
C125 C 0.28925 0.29378 0.46191 0.0
C126 C 0.29854 0.31572 0.49361 0.0
C127 C 0.32425 0.34465 0.48872 0.0
C128 C 0.33929 0.35337 0.45055 0.0
C129 C 0.33638 0.36492 0.52429 0.0
C130 C 0.30969 0.38104 0.54286 0.0
C131 C 0.37487 0.36723 0.54074 0.0
C132 C 0.38646 0.38493 0.57551 0.0
C133 C 0.3598 0.40129 0.5939 0.0
C134 C 0.26444 0.26077 0.46979 0.0
C135 C 0.24072 0.24857 0.43577 0.0
C136 C 0.26424 0.24106 0.512 0.0
C137 C 0.24046 0.21111 0.52013 0.0
C138 C 0.21702 0.1985 0.48626 0.0
C139 C 0.21771 0.21764 0.44383 0.0
C140 C 0.32132 0.39941 0.57708 0.0
H141 H 0.31608 0.35742 0.26743 0.0
H142 H 0.29248 0.33508 0.33468 0.0
H143 H 0.4005 0.35635 0.40669 0.0
H144 H 0.42327 0.38065 0.33991 0.0
H145 H 0.29862 0.28628 0.3991 0.0
H146 H 0.35812 0.37665 0.44644 0.0
H147 H 0.28639 0.31007 0.52282 0.0
H148 H 0.27986 0.37961 0.53069 0.0
H149 H 0.39595 0.35474 0.52717 0.0
H150 H 0.41629 0.38623 0.58773 0.0
H151 H 0.23953 0.263 0.4028 0.0
H152 H 0.28266 0.24846 0.53926 0.0
H153 H 0.30023 0.41171 0.59082 0.0
H154 H 0.20071 0.20875 0.41658 0.0
H155 H 0.24045 0.19815 0.55341 0.0
Eu156 Eu 0.03424 0.95816 0.51128 0.0
C157 C 0.97899 0.12619 0.50087 0.0
N158 N 0.00478 0.10518 0.53149 0.0
C159 C 0.04663 0.15665 0.53092 0.0
C160 C 0.98639 0.16334 0.48343 0.0
C161 C 0.03789 0.12 0.54744 0.0
C162 C 0.0209 0.17835 0.49854 0.0
C163 C 0.91693 0.13182 0.45653 0.0
C164 C 0.94474 0.11067 0.48751 0.0
C165 C 0.92443 0.16864 0.43847 0.0
C166 C 0.95908 0.18435 0.45185 0.0
Eu167 Eu 0.98878 0.04286 0.55526 0.0
N168 N 0.93864 0.07471 0.50494 0.0
C169 C 0.88238 0.11535 0.44482 0.0
C170 C 0.90452 0.05894 0.49501 0.0
C171 C 0.87604 0.07886 0.46445 0.0
H172 H 0.05771 0.10337 0.57275 0.0
H173 H 0.84927 0.06605 0.45597 0.0
H174 H 0.00848 0.87434 0.55816 0.0
H175 H 0.17886 0.01024 0.51874 0.0
H176 H 0.89961 0.03073 0.50992 0.0
H177 H 0.86031 0.13065 0.42105 0.0
H178 H 0.11327 0.00348 0.48486 0.0
H179 H 0.07321 0.16812 0.54313 0.0
H180 H 0.90352 0.18528 0.41438 0.0
H181 H 0.96433 0.21289 0.4379 0.0
H182 H 0.03255 0.82417 0.61989 0.0
H183 H 0.02772 0.20674 0.48584 0.0
H184 H 0.20413 0.97087 0.5892 0.0
N185 N 0.05702 0.90734 0.56683 0.0
C186 C 0.09235 0.90987 0.58871 0.0
C187 C 0.04958 0.8482 0.61161 0.0
C188 C 0.10723 0.88206 0.6242 0.0
C189 C 0.03601 0.87653 0.57673 0.0
C190 C 0.08513 0.85124 0.63589 0.0
N191 N 0.09943 0.96459 0.53838 0.0
C192 C 0.12311 0.98755 0.5167 0.0
C193 C 0.15193 0.94151 0.59423 0.0
C194 C 0.11407 0.93962 0.57432 0.0
C195 C 0.17488 0.96854 0.57502 0.0
C196 C 0.16072 0.99084 0.53532 0.0
H197 H 0.09556 0.8293 0.66296 0.0
H198 H 0.15568 0.86463 0.67381 0.0
H199 H 0.19508 0.91647 0.64719 0.0
O200 O 0.05827 0.95273 0.45434 0.0
O201 O 0.02521 0.9498 0.58085 0.0
O202 O 0.03854 0.00776 0.59315 0.0
O203 O 0.02377 0.90933 0.48156 0.0
O204 O 0.04945 0.01877 0.48946 0.0
O205 O 0.05055 0.03831 0.55277 0.0
O206 O 0.95321 0.03122 0.60524 0.0
O207 O 0.97911 0.04584 0.48277 0.0
O208 O 0.98166 0.98599 0.46933 0.0
O209 O 0.99177 0.07691 0.60431 0.0
O210 O 0.95334 0.99064 0.55762 0.0
O211 O 0.97432 0.94602 0.52264 0.0
C212 C 0.03472 0.97236 0.60768 0.0
C213 C 0.07251 0.89185 0.44774 0.0
C214 C 0.10688 0.86613 0.40036 0.0
C215 C 0.1219 0.83806 0.43521 0.0
C216 C 0.08827 0.86395 0.4824 0.0
C217 C 0.11283 0.83721 0.47604 0.0
C218 C 0.0823 0.89309 0.40692 0.0
C219 C 0.06053 0.04239 0.51483 0.0
C220 C 0.04555 0.91961 0.45319 0.0
C221 C 0.14391 0.88544 0.64612 0.0
C222 C 0.16626 0.91507 0.6311 0.0
C223 C 0.97108 0.02111 0.458 0.0
C224 C 0.93526 0.08424 0.6294 0.0
C225 C 0.90188 0.10758 0.67921 0.0
C226 C 0.88308 0.13397 0.64477 0.0
C227 C 0.91604 0.11063 0.59535 0.0
C228 C 0.92777 0.08246 0.67129 0.0
C229 C 0.88997 0.13524 0.60301 0.0
C230 C 0.95002 0.95905 0.54326 0.0
C231 C 0.9646 0.06 0.62191 0.0
H232 H 0.141 0.81706 0.43092 0.0
H233 H 0.08149 0.86264 0.51423 0.0
H234 H 0.12477 0.81568 0.50282 0.0
H235 H 0.07022 0.91461 0.38008 0.0
H236 H 0.86296 0.15348 0.65021 0.0
H237 H 0.92154 0.11265 0.56302 0.0
H238 H 0.94282 0.06238 0.6978 0.0
H239 H 0.87538 0.15562 0.57659 0.0
Eu240 Eu 0.469 0.48444 1.0018 0.0
C241 C 0.62969 0.54327 0.0566 0.0
N242 N 0.61505 0.5127 0.07899 0.0
C243 C 0.67357 0.4795 0.08865 0.0
C244 C 0.66702 0.54275 0.04865 0.0
C245 C 0.6363 0.48119 0.09539 0.0
C246 C 0.68897 0.51036 0.06504 0.0
C247 C 0.62099 0.60651 0.01599 0.0
C248 C 0.60681 0.57478 0.04033 0.0
C249 C 0.65813 0.60603 0.00794 0.0
C250 C 0.68108 0.57427 0.02424 0.0
Eu251 Eu 0.55167 0.51742 0.08709 0.0
N252 N 0.57046 0.57405 0.04737 0.0
C253 C 0.59737 0.6378 1.00037 0.0
C254 C 0.5481 0.60519 0.03427 0.0
C255 C 0.56095 0.63728 0.01004 0.0
H256 H 0.62457 0.45743 0.11395 0.0
H257 H 0.54285 0.66172 0.99916 0.0
H258 H 0.40098 0.55036 0.97082 0.0
H259 H 0.46148 0.33877 0.08051 0.0
H260 H 0.52068 0.60587 0.04305 0.0
H261 H 0.60718 0.66269 0.98148 0.0
H262 H 0.49115 0.39378 0.04373 0.0
H263 H 0.69037 0.45441 0.10159 0.0
H264 H 0.6694 0.6301 0.98912 0.0
H265 H 0.70965 0.57433 0.01766 0.0
H266 H 0.33475 0.55885 0.97887 0.0
H267 H 0.71778 0.50888 0.05964 0.0
H268 H 0.39538 0.34244 0.09158 0.0
N269 N 0.4051 0.4946 0.005 0.0
C270 C 0.38674 0.46499 0.02415 0.0
C271 C 0.34911 0.53241 0.99205 0.0
C272 C 0.34877 0.46838 0.02892 0.0
C273 C 0.38676 0.52775 0.98812 0.0
C274 C 0.33009 0.50268 0.0128 0.0
N275 N 0.44318 0.42909 0.03582 0.0
C276 C 0.46267 0.39616 0.04905 0.0
C277 C 0.38795 0.40026 0.06021 0.0
C278 C 0.40614 0.43123 0.03958 0.0
C279 C 0.40834 0.36684 0.0755 0.0
C280 C 0.44572 0.3647 0.06951 0.0
H281 H 0.30093 0.50639 0.01584 0.0
H282 H 0.3016 0.43976 0.05378 0.0
H283 H 0.33588 0.38023 0.08123 0.0
O284 O 0.47917 0.45469 0.95169 0.0
O285 O 0.45972 0.47645 0.07185 0.0
O286 O 0.51868 0.46801 0.11382 0.0
O287 O 0.42984 0.49002 0.94111 0.0
O288 O 0.5246 0.45145 0.01798 0.0
O289 O 0.55346 0.45586 0.08735 0.0
O290 O 0.55137 0.55544 0.13143 0.0
O291 O 0.56188 0.51531 0.01954 0.0
O292 O 0.5047 0.53328 0.97848 0.0
O293 O 0.58697 0.50634 0.151 0.0
O294 O 0.49289 0.54276 0.07692 0.0
O295 O 0.47012 0.54538 0.0051 0.0
C296 C 0.48211 0.46307 0.10821 0.0
C297 C 0.45583 0.48453 0.88014 0.0
C298 C 0.44736 0.47985 0.80429 0.0
C299 C 0.46333 0.51508 0.7949 0.0
C300 C 0.4717 0.51962 0.87015 0.0
C301 C 0.47566 0.53468 0.82775 0.0
C302 C 0.44403 0.46454 0.84723 0.0
C303 C 0.54877 0.4395 0.05371 0.0
C304 C 0.44984 0.46934 0.92433 0.0
C305 C 0.3307 0.4376 0.04965 0.0
C306 C 0.35022 0.40368 0.06525 0.0
C307 C 0.54151 0.5309 0.98283 0.0
C308 C 0.55885 0.52681 0.20404 0.0
C309 C 0.5602 0.53731 0.27702 0.0
C310 C 0.52712 0.5167 0.27946 0.0
C311 C 0.52563 0.50667 0.207 0.0
C312 C 0.57628 0.54189 0.23927 0.0
C313 C 0.5101 0.5013 0.24467 0.0
C314 C 0.46979 0.55682 0.04138 0.0
C315 C 0.57337 0.53456 0.16308 0.0
H316 H 0.46644 0.52733 0.76216 0.0
H317 H 0.48046 0.53553 0.89502 0.0
H318 H 0.48795 0.56178 0.82027 0.0
H319 H 0.43132 0.43761 0.85483 0.0
H320 H 0.5144 0.51261 0.3083 0.0
H321 H 0.51129 0.49584 0.17985 0.0
H322 H 0.60145 0.55823 0.23676 0.0
H323 H 0.48447 0.48568 0.24662 0.0
H324 H 0.14832 0.1833 0.44031 0.0
H325 H 0.22979 0.13819 0.5532 0.0
H326 H 0.18767 0.08811 0.57287 0.0
H327 H 0.12724 0.05713 0.55935 0.0
H328 H 0.0503 0.09504 0.44129 0.0
H329 H 0.09133 0.1476 0.42196 0.0
C330 C 0.15745 0.16229 0.46879 0.0
C331 C 0.19217 0.16574 0.49569 0.0
C332 C 0.13379 0.1321 0.47908 0.0
C333 C 0.20279 0.13779 0.53259 0.0
C334 C 0.17885 0.10861 0.54378 0.0
C335 C 0.11981 0.07674 0.52917 0.0
C336 C 0.0861 0.0725 0.50167 0.0
C337 C 0.14418 0.10571 0.51756 0.0
C338 C 0.07647 0.0978 0.46263 0.0
C339 C 0.09981 0.12782 0.45174 0.0
H340 H 0.35918 0.67378 0.07854 0.0
H341 H 0.34832 0.7101 0.94086 0.0
H342 H 0.3935 0.66202 0.93785 0.0
H343 H 0.43571 0.60923 0.97433 0.0
H344 H 0.44569 0.57254 0.11194 0.0
H345 H 0.40192 0.62165 0.11508 0.0
C346 C 0.36707 0.67145 0.04796 0.0
C347 C 0.35041 0.69545 0.01001 0.0
C348 C 0.39292 0.64368 0.04644 0.0
C349 C 0.36047 0.69171 0.9705 0.0
C350 C 0.38638 0.66432 0.96876 0.0
C351 C 0.42806 0.61185 0.00493 0.0
C352 C 0.4436 0.58705 0.04273 0.0
C353 C 0.4026 0.63998 0.00649 0.0
C354 C 0.43408 0.59126 0.08231 0.0
C355 C 0.40897 0.61928 0.08416 0.0
H356 H 0.80398 0.87544 0.59485 0.0
H357 H 0.87054 0.78141 0.58487 0.0
H358 H 0.92033 0.82257 0.56355 0.0
H359 H 0.94488 0.88481 0.54662 0.0
H360 H 0.8831 0.97882 0.56445 0.0
H361 H 0.8316 0.93812 0.58369 0.0
C362 C 0.82956 0.86383 0.58867 0.0
C363 C 0.83282 0.82522 0.5906 0.0
C364 C 0.85889 0.88769 0.57741 0.0
C365 C 0.8664 0.81097 0.58233 0.0
C366 C 0.89516 0.8345 0.57037 0.0
C367 C 0.92029 0.89657 0.55472 0.0
C368 C 0.91792 0.93497 0.55358 0.0
C369 C 0.89154 0.87288 0.56733 0.0
C370 C 0.88569 0.94944 0.5646 0.0
C371 C 0.85624 0.92612 0.57582 0.0
H372 H 0.659 0.30064 0.09341 0.0
H373 H 0.63344 0.31319 0.9551 0.0
H374 H 0.59039 0.36509 0.95137 0.0
H375 H 0.56182 0.40813 0.98726 0.0
H376 H 0.588 0.39569 0.12567 0.0
H377 H 0.62881 0.34227 0.12949 0.0
C378 C 0.64355 0.31436 0.06252 0.0
C379 C 0.64933 0.30306 0.0246 0.0
C380 C 0.61914 0.34429 0.06061 0.0
C381 C 0.62967 0.32158 0.98472 0.0
C382 C 0.60501 0.35116 0.98258 0.0
C383 C 0.57621 0.39357 0.01831 0.0
C384 C 0.57206 0.40608 0.05607 0.0
C385 C 0.59982 0.36298 0.02029 0.0
C386 C 0.59102 0.38694 0.09602 0.0
C387 C 0.6143 0.35631 0.09828 0.0
H388 H 0.16228 0.89176 0.22057 0.0
H389 H 0.12177 0.77982 0.225 0.0
H390 H 0.10363 0.77954 0.29475 0.0
H391 H 0.0998 0.81057 0.35528 0.0
H392 H 0.13558 0.92381 0.34889 0.0
H393 H 0.15414 0.92443 0.27865 0.0
C394 C 0.14894 0.86747 0.23632 0.0
C395 C 0.14405 0.83566 0.21749 0.0
C396 C 0.13762 0.86773 0.27615 0.0
C397 C 0.12699 0.80438 0.23899 0.0
C398 C 0.11624 0.80425 0.27884 0.0
C399 C 0.11168 0.83532 0.33839 0.0
C400 C 0.11667 0.86697 0.35717 0.0
C401 C 0.12172 0.83561 0.29789 0.0
C402 C 0.13151 0.89914 0.33488 0.0
C403 C 0.14219 0.89944 0.29486 0.0
H404 H 0.64891 0.58678 0.84789 0.0
H405 H 0.55757 0.66577 0.79574 0.0
H406 H 0.52311 0.63797 0.85333 0.0
H407 H 0.51834 0.59 0.91782 0.0
H408 H 0.61035 0.51161 0.9697 0.0
H409 H 0.64508 0.54036 0.91317 0.0
C410 C 0.62147 0.59791 0.84916 0.0
C411 C 0.60581 0.62822 0.8175 0.0
C412 C 0.60182 0.58176 0.88226 0.0
C413 C 0.57043 0.64267 0.81994 0.0
C414 C 0.55059 0.62662 0.85269 0.0
C415 C 0.5458 0.57903 0.91637 0.0
C416 C 0.56148 0.54837 0.94749 0.0
C417 C 0.56584 0.5959 0.88381 0.0
C418 C 0.59753 0.53503 0.94594 0.0
C419 C 0.61745 0.55146 0.91363 0.0
H420 H 0.87427 0.05106 0.27141 0.0
H421 H 0.91939 0.16049 0.27213 0.0
H422 H 0.95188 0.14002 0.34627 0.0
H423 H 0.96893 0.09052 0.40974 0.0
H424 H 0.9257 0.98036 0.40821 0.0
H425 H 0.89109 0.00151 0.3353 0.0
C426 C 0.89107 0.07039 0.288 0.0
C427 C 0.89453 0.10715 0.26657 0.0
C428 C 0.91011 0.05826 0.33021 0.0
C429 C 0.91665 0.13195 0.28803 0.0
C430 C 0.93511 0.12031 0.33035 0.0
C431 C 0.95162 0.07124 0.39361 0.0
C432 C 0.94971 0.03399 0.41431 0.0
C433 C 0.93224 0.08346 0.35161 0.0
C434 C 0.92774 0.00914 0.39277 0.0
C435 C 0.90788 0.02123 0.35119 0.0
H436 H 0.40628 0.37456 0.66924 0.0
H437 H 0.34073 0.47133 0.59979 0.0
H438 H 0.36218 0.5043 0.65864 0.0
H439 H 0.40024 0.50583 0.72951 0.0
H440 H 0.46351 0.40824 0.80067 0.0
H441 H 0.44226 0.3752 0.74172 0.0
C442 C 0.39682 0.40289 0.6671 0.0
C443 C 0.37218 0.42064 0.63024 0.0
C444 C 0.40883 0.42143 0.70134 0.0
C445 C 0.35961 0.45713 0.62796 0.0
C446 C 0.37195 0.47599 0.6615 0.0
C447 C 0.40941 0.47736 0.73196 0.0
C448 C 0.43361 0.45953 0.76912 0.0
C449 C 0.39666 0.45847 0.69826 0.0
C450 C 0.44482 0.42245 0.77235 0.0
C451 C 0.43278 0.40364 0.73863 0.0
H452 H 0.65183 0.59604 0.43599 0.0
H453 H 0.54396 0.64735 0.43165 0.0
H454 H 0.51741 0.62054 0.36917 0.0
H455 H 0.52471 0.58167 0.3166 0.0
H456 H 0.63312 0.53254 0.31849 0.0
H457 H 0.65991 0.5595 0.38093 0.0
C458 C 0.62251 0.6012 0.42128 0.0
C459 C 0.59971 0.62333 0.43836 0.0
C460 C 0.60768 0.58619 0.385 0.0
C461 C 0.56195 0.63041 0.41885 0.0
C462 C 0.54679 0.61505 0.38327 0.0
C463 C 0.55418 0.57688 0.33082 0.0
C464 C 0.57691 0.55495 0.31342 0.0
C465 C 0.56935 0.59278 0.36622 0.0
C466 C 0.61519 0.5494 0.33145 0.0
C467 C 0.63042 0.56467 0.36717 0.0
H468 H 0.85505 0.08463 0.86335 0.0
H469 H 0.88892 0.1989 0.85103 0.0
H470 H 0.90665 0.19743 0.78106 0.0
H471 H 0.90976 0.16446 0.72192 0.0
H472 H 0.87853 0.04951 0.73494 0.0
H473 H 0.86262 0.05016 0.80622 0.0
C474 C 0.86649 0.10906 0.8453 0.0
C475 C 0.87056 0.14187 0.86202 0.0
C476 C 0.87694 0.10787 0.80531 0.0
C477 C 0.88577 0.17331 0.83877 0.0
C478 C 0.89572 0.17253 0.79874 0.0
C479 C 0.8996 0.13958 0.74058 0.0
C480 C 0.89491 0.1071 0.72338 0.0
C481 C 0.89101 0.14012 0.7815 0.0
C482 C 0.88229 0.07479 0.7478 0.0
C483 C 0.87311 0.07522 0.78836 0.0
H484 H 0.44203 0.36533 0.27868 0.0
H485 H 0.33205 0.41461 0.22508 0.0
H486 H 0.35573 0.44531 0.1604 0.0
H487 H 0.40893 0.46206 0.12137 0.0
H488 H 0.51924 0.4144 0.17688 0.0
H489 H 0.49436 0.38024 0.23891 0.0
C490 C 0.4232 0.38298 0.25307 0.0
C491 C 0.38531 0.38773 0.25717 0.0
C492 C 0.4372 0.40134 0.21641 0.0
C493 C 0.36124 0.41001 0.22288 0.0
C494 C 0.37485 0.42792 0.18595 0.0
C495 C 0.4274 0.44382 0.14676 0.0
C496 C 0.46593 0.44092 0.14444 0.0
C497 C 0.41294 0.42428 0.18265 0.0
C498 C 0.48953 0.41743 0.17791 0.0
C499 C 0.47532 0.39777 0.21343 0.0
H500 H 0.07533 0.87867 0.7958 0.0
H501 H 0.14136 0.97539 0.81337 0.0
H502 H 0.11649 0.00596 0.7395 0.0
H503 H 0.07915 0.00351 0.66836 0.0
H504 H 0.01507 0.90567 0.65076 0.0
H505 H 0.03677 0.8769 0.72587 0.0
C506 C 0.08445 0.90639 0.78347 0.0
C507 C 0.11039 0.92456 0.81008 0.0
C508 C 0.07072 0.92343 0.74076 0.0
C509 C 0.12116 0.96085 0.79381 0.0
C510 C 0.10719 0.97824 0.75141 0.0
C511 C 0.06968 0.97605 0.68112 0.0
C512 C 0.04594 0.95653 0.65394 0.0
C513 C 0.08238 0.95958 0.72441 0.0
C514 C 0.03389 0.92098 0.67087 0.0
C515 C 0.04613 0.90457 0.71386 0.0
loop_
_geom_bond_atom_site_label_1
_geom_bond_atom_site_label_2
_geom_bond_distance
_geom_bond_site_symmetry_2
_ccdc_geom_bond_type
C0 C1 1.386 . S
C0 C2 1.397 . S
C0 H24 0.931 . S
C1 C0 1.386 . S
C1 C5 1.397 . S
C2 C0 1.397 . S
C2 C3 1.384 . S
C2 H25 0.930 . S
C3 C2 1.384 . S
C3 C4 1.377 . S
C3 C6 1.481 . S
C4 C3 1.377 . S
C4 C5 1.389 . S
C4 H26 0.929 . S
C5 C1 1.397 . S
C5 C4 1.389 . S
C5 H27 0.931 . S
C6 C3 1.481 . S
C6 C7 1.387 . S
C6 C11 1.390 1_556 S
C7 C6 1.387 . S
C7 C8 1.401 1_556 S
C7 H28 0.930 . S
C8 C7 1.401 1_554 S
C8 C9 1.376 . S
C8 C17 1.511 . S
C9 C8 1.376 . S
C9 C10 1.392 . S
C9 H30 0.931 . S
C10 C9 1.392 . S
C10 C11 1.361 . S
C10 C12 1.500 . S
C11 C6 1.390 1_554 S
C11 C10 1.361 . S
C11 H29 0.931 . S
C12 C10 1.500 . S
C12 C13 1.371 . S
C12 C14 1.365 . S
C13 C12 1.371 . S
C13 C23 1.386 . S
C13 H31 0.931 . S
C14 C12 1.365 . S
C14 C15 1.409 . S
C14 H32 0.929 . S
C15 C14 1.409 . S
C15 C16 1.380 . S
C15 H33 0.930 . S
C16 C15 1.380 . S
C16 C23 1.357 . S
C17 C8 1.511 . S
C17 C18 1.320 1_554 S
C17 C19 1.371 . S
C18 C17 1.320 1_556 S
C18 C22 1.397 1_556 S
C18 H34 0.948 . S
C19 C17 1.371 . S
C19 C20 1.392 . S
C19 H35 0.931 . S
C20 C19 1.392 . S
C20 C21 1.331 . S
C20 H38 0.932 . S
C21 C20 1.331 . S
C21 C22 1.336 . S
C22 C18 1.397 1_554 S
C22 C21 1.336 . S
C22 H37 0.929 1_554 S
C23 C13 1.386 . S
C23 C16 1.357 . S
C23 H36 0.928 . S
H24 C0 0.931 . S
H25 C2 0.930 . S
H26 C4 0.929 . S
H27 C5 0.931 . S
H28 C7 0.930 . S
H29 C11 0.931 . S
H30 C9 0.931 . S
H31 C13 0.931 . S
H32 C14 0.929 . S
H33 C15 0.930 . S
H34 C18 0.948 . S
H35 C19 0.931 . S
H36 C23 0.928 . S
H37 C22 0.929 1_556 S
H38 C20 0.932 . S
C39 C40 1.386 . S
C39 C41 1.397 . S
C39 H63 0.931 . S
C40 C39 1.386 . S
C40 C44 1.397 . S
C41 C39 1.397 . S
C41 C42 1.384 . S
C41 H64 0.930 . S
C42 C41 1.384 . S
C42 C43 1.377 . S
C42 C45 1.481 . S
C43 C42 1.377 . S
C43 C44 1.389 . S
C43 H65 0.929 . S
C44 C40 1.397 . S
C44 C43 1.389 . S
C44 H66 0.931 . S
C45 C42 1.481 . S
C45 C46 1.387 . S
C45 C50 1.390 . S
C46 C45 1.387 . S
C46 C47 1.401 . S
C46 H67 0.930 . S
C47 C46 1.401 . S
C47 C48 1.376 . S
C47 C56 1.511 . S
C48 C47 1.376 . S
C48 C49 1.392 . S
C48 H69 0.931 . S
C49 C48 1.392 . S
C49 C50 1.361 . S
C49 C51 1.500 . S
C50 C45 1.390 . S
C50 C49 1.361 . S
C50 H68 0.931 . S
C51 C49 1.500 . S
C51 C52 1.371 . S
C51 C53 1.365 . S
C52 C51 1.371 . S
C52 C62 1.386 . S
C52 H70 0.931 . S
C53 C51 1.365 . S
C53 C54 1.409 . S
C53 H71 0.929 . S
C54 C53 1.409 . S
C54 C55 1.380 . S
C54 H72 0.930 . S
C55 C54 1.380 . S
C55 C62 1.357 . S
C56 C47 1.511 . S
C56 C57 1.341 . S
C56 C58 1.371 . S
C57 C56 1.341 . S
C57 C61 1.394 . S
C57 H73 0.930 . S
C58 C56 1.371 . S
C58 C59 1.392 . S
C58 H74 0.931 . S
C59 C58 1.392 . S
C59 C60 1.331 . S
C59 H77 0.932 . S
C60 C59 1.331 . S
C60 C61 1.336 . S
C61 C57 1.394 . S
C61 C60 1.336 . S
C61 H76 0.929 . S
C62 C52 1.386 . S
C62 C55 1.357 . S
C62 H75 0.928 . S
H63 C39 0.931 . S
H64 C41 0.930 . S
H65 C43 0.929 . S
H66 C44 0.931 . S
H67 C46 0.930 . S
H68 C50 0.931 . S
H69 C48 0.931 . S
H70 C52 0.931 . S
H71 C53 0.929 . S
H72 C54 0.930 . S
H73 C57 0.930 . S
H74 C58 0.931 . S
H75 C62 0.928 . S
H76 C61 0.929 . S
H77 C59 0.932 . S
C78 C79 1.386 . S
C78 C80 1.397 . S
C78 H102 0.931 . S
C79 C78 1.386 . S
C79 C83 1.397 . S
C80 C78 1.397 . S
C80 C81 1.384 . S
C80 H103 0.930 . S
C81 C80 1.384 . S
C81 C82 1.377 . S
C81 C84 1.481 . S
C82 C81 1.377 . S
C82 C83 1.389 . S
C82 H104 0.929 . S
C83 C79 1.397 . S
C83 C82 1.389 . S
C83 H105 0.931 . S
C84 C81 1.481 . S
C84 C85 1.387 . S
C84 C89 1.390 . S
C85 C84 1.387 . S
C85 C86 1.401 . S
C85 H106 0.930 . S
C86 C85 1.401 . S
C86 C87 1.376 . S
C86 C95 1.511 . S
C87 C86 1.376 . S
C87 C88 1.392 . S
C87 H108 0.931 1_554 S
C88 C87 1.392 . S
C88 C89 1.361 . S
C88 C90 1.500 1_554 S
C89 C84 1.390 . S
C89 C88 1.361 . S
C89 H107 0.931 . S
C90 C88 1.500 1_556 S
C90 C91 1.371 . S
C90 C92 1.365 . S
C91 C90 1.371 . S
C91 C101 1.386 . S
C91 H109 0.931 . S
C92 C90 1.365 . S
C92 C93 1.409 . S
C92 H110 0.929 1_556 S
C93 C92 1.409 . S
C93 C94 1.380 . S
C93 H111 0.930 . S
C94 C93 1.380 . S
C94 C101 1.357 . S
C95 C86 1.511 . S
C95 C96 1.341 . S
C95 C97 1.369 1_554 S
C96 C95 1.341 . S
C96 C100 1.394 . S
C96 H112 0.930 . S
C97 C95 1.369 1_556 S
C97 C98 1.392 . S
C97 H113 0.934 . S
C98 C97 1.392 . S
C98 C99 1.331 1_556 S
C98 H116 0.932 . S
C99 C98 1.331 1_554 S
C99 C100 1.336 . S
C100 C96 1.394 . S
C100 C99 1.336 . S
C100 H115 0.929 . S
C101 C91 1.386 . S
C101 C94 1.357 . S
C101 H114 0.928 . S
H102 C78 0.931 . S
H103 C80 0.930 . S
H104 C82 0.929 . S
H105 C83 0.931 . S
H106 C85 0.930 . S
H107 C89 0.931 . S
H108 C87 0.931 1_556 S
H109 C91 0.931 . S
H110 C92 0.929 1_554 S
H111 C93 0.930 . S
H112 C96 0.930 . S
H113 C97 0.934 . S
H114 C101 0.928 . S
H115 C100 0.929 . S
H116 C98 0.932 . S
C117 C118 1.386 . S
C117 C119 1.397 . S
C117 H141 0.931 . S
C118 C117 1.386 . S
C118 C122 1.397 . S
C119 C117 1.397 . S
C119 C120 1.384 . S
C119 H142 0.930 . S
C120 C119 1.384 . S
C120 C121 1.377 . S
C120 C123 1.481 . S
C121 C120 1.377 . S
C121 C122 1.389 . S
C121 H143 0.929 . S
C122 C118 1.397 . S
C122 C121 1.389 . S
C122 H144 0.931 . S
C123 C120 1.481 . S
C123 C124 1.387 . S
C123 C128 1.390 . S
C124 C123 1.387 . S
C124 C125 1.401 . S
C124 H145 0.930 . S
C125 C124 1.401 . S
C125 C126 1.376 . S
C125 C134 1.511 . S
C126 C125 1.376 . S
C126 C127 1.392 . S
C126 H147 0.931 . S
C127 C126 1.392 . S
C127 C128 1.361 . S
C127 C129 1.500 . S
C128 C123 1.390 . S
C128 C127 1.361 . S
C128 H146 0.931 . S
C129 C127 1.500 . S
C129 C130 1.371 . S
C129 C131 1.365 . S
C130 C129 1.371 . S
C130 C140 1.386 . S
C130 H148 0.931 . S
C131 C129 1.365 . S
C131 C132 1.409 . S
C131 H149 0.929 . S
C132 C131 1.409 . S
C132 C133 1.380 . S
C132 H150 0.930 . S
C133 C132 1.380 . S
C133 C140 1.357 . S
C134 C125 1.511 . S
C134 C135 1.341 . S
C134 C136 1.371 . S
C135 C134 1.341 . S
C135 C139 1.394 . S
C135 H151 0.930 . S
C136 C134 1.371 . S
C136 C137 1.392 . S
C136 H152 0.931 . S
C137 C136 1.392 . S
C137 C138 1.331 . S
C137 H155 0.932 . S
C138 C137 1.331 . S
C138 C139 1.336 . S
C139 C135 1.394 . S
C139 C138 1.336 . S
C139 H154 0.929 . S
C140 C130 1.386 . S
C140 C133 1.357 . S
C140 H153 0.928 . S
H141 C117 0.931 . S
H142 C119 0.930 . S
H143 C121 0.929 . S
H144 C122 0.931 . S
H145 C124 0.930 . S
H146 C128 0.931 . S
H147 C126 0.931 . S
H148 C130 0.931 . S
H149 C131 0.929 . S
H150 C132 0.930 . S
H151 C135 0.930 . S
H152 C136 0.931 . S
H153 C140 0.928 . S
H154 C139 0.929 . S
H155 C137 0.932 . S
Eu156 N185 2.600 . S
Eu156 N191 2.562 . S
Eu156 O200 2.462 . S
Eu156 O201 2.373 . S
Eu156 O203 2.432 . S
Eu156 O204 2.291 1_565 S
Eu156 O208 2.342 1_455 S
Eu156 O211 2.372 1_455 S
Eu156 C220 2.787 . S
C157 N158 1.365 . S
C157 C160 1.405 . S
C157 C164 1.448 . S
N158 C157 1.365 . S
N158 C161 1.324 . S
N158 Eu167 2.600 . S
C159 C161 1.397 . S
C159 C162 1.367 . S
C159 H179 0.931 1_655 S
C160 C157 1.405 . S
C160 C162 1.403 . S
C160 C166 1.439 . S
C161 N158 1.324 . S
C161 C159 1.397 . S
C161 H172 0.924 1_655 S
C162 C159 1.367 . S
C162 C160 1.403 . S
C162 H183 0.929 . S
C163 C164 1.430 . S
C163 C165 1.387 . S
C163 C169 1.404 . S
C164 C157 1.448 . S
C164 C163 1.430 . S
C164 N168 1.351 . S
C165 C163 1.387 . S
C165 C166 1.374 . S
C165 H180 0.931 . S
C166 C160 1.439 . S
C166 C165 1.374 . S
C166 H181 0.931 . S
Eu167 N158 2.600 . S
Eu167 N168 2.562 . S
Eu167 O202 2.335 1_655 S
Eu167 O205 2.372 1_655 S
Eu167 O206 2.462 . S
Eu167 O207 2.373 . S
Eu167 O209 2.432 . S
Eu167 O210 2.291 1_545 S
Eu167 C231 2.787 . S
N168 C164 1.351 . S
N168 Eu167 2.562 . S
N168 C170 1.325 . S
C169 C163 1.404 . S
C169 C171 1.366 . S
C169 H177 0.930 . S
C170 N168 1.325 . S
C170 C171 1.416 . S
C170 H176 0.929 . S
C171 C169 1.366 . S
C171 C170 1.416 . S
C171 H173 0.930 . S
H172 C161 0.924 1_455 S
H173 C171 0.930 . S
H174 C189 0.930 1_655 S
H175 C196 0.930 . S
H176 C170 0.929 . S
H177 C169 0.930 . S
H178 C192 0.929 . S
H179 C159 0.931 1_455 S
H180 C165 0.931 . S
H181 C166 0.931 . S
H182 C187 0.931 1_655 S
H183 C162 0.929 . S
H184 C195 0.930 . S
N185 Eu156 2.600 . S
N185 C186 1.365 . S
N185 C189 1.319 . S
C186 N185 1.365 . S
C186 C188 1.405 . S
C186 C194 1.448 . S
C187 H182 0.931 1_455 S
C187 C189 1.397 . S
C187 C190 1.367 . S
C188 C186 1.405 . S
C188 C190 1.403 . S
C188 C221 1.439 . S
C189 H174 0.930 1_455 S
C189 N185 1.319 . S
C189 C187 1.397 . S
C190 C187 1.367 . S
C190 C188 1.403 . S
C190 H197 0.929 . S
N191 Eu156 2.562 . S
N191 C192 1.325 . S
N191 C194 1.351 . S
C192 H178 0.929 . S
C192 N191 1.325 . S
C192 C196 1.416 . S
C193 C194 1.430 . S
C193 C195 1.404 . S
C193 C222 1.387 . S
C194 C186 1.448 . S
C194 N191 1.351 . S
C194 C193 1.430 . S
C195 H184 0.930 . S
C195 C193 1.404 . S
C195 C196 1.366 . S
C196 H175 0.930 . S
C196 C192 1.416 . S
C196 C195 1.366 . S
H197 C190 0.929 . S
H198 C221 0.931 . S
H199 C222 0.931 . S
O200 Eu156 2.462 . S
O200 C220 1.252 . S
O201 Eu156 2.373 . S
O201 C212 1.249 . S
O202 Eu167 2.335 1_455 S
O202 C212 1.264 1_545 S
O203 Eu156 2.432 . S
O203 C220 1.268 . S
O204 Eu156 2.291 1_545 S
O204 C219 1.255 . S
O205 Eu167 2.372 1_455 S
O205 C219 1.257 . S
O206 Eu167 2.462 . S
O206 C231 1.252 . S
O207 Eu167 2.373 . S
O207 C223 1.249 . S
O208 Eu156 2.342 1_655 S
O208 C223 1.252 1_565 S
O209 Eu167 2.432 . S
O209 C231 1.268 . S
O210 Eu167 2.291 1_565 S
O210 C230 1.255 . S
O211 Eu156 2.372 1_655 S
O211 C230 1.257 . S
C212 O201 1.249 . S
C212 O202 1.264 1_565 S
C213 C216 1.382 . S
C213 C218 1.390 . S
C213 C220 1.506 . S
C214 C215 1.398 . S
C214 C218 1.392 . S
C215 C214 1.398 . S
C215 C217 1.372 . S
C215 H232 0.931 . S
C216 C213 1.382 . S
C216 C217 1.390 . S
C216 H233 0.931 . S
C217 C215 1.372 . S
C217 C216 1.390 . S
C217 H234 0.929 . S
C218 C213 1.390 . S
C218 C214 1.392 . S
C218 H235 0.930 . S
C219 O204 1.255 . S
C219 O205 1.257 . S
C220 Eu156 2.787 . S
C220 O200 1.252 . S
C220 O203 1.268 . S
C220 C213 1.506 . S
C221 C188 1.439 . S
C221 H198 0.931 . S
C221 C222 1.374 . S
C222 C193 1.387 . S
C222 H199 0.931 . S
C222 C221 1.374 . S
C223 O207 1.249 . S
C223 O208 1.252 1_545 S
C224 C227 1.382 . S
C224 C228 1.390 . S
C224 C231 1.506 . S
C225 C226 1.398 . S
C225 C228 1.392 . S
C226 C225 1.398 . S
C226 C229 1.372 . S
C226 H236 0.931 . S
C227 C224 1.382 . S
C227 C229 1.390 . S
C227 H237 0.931 . S
C228 C224 1.390 . S
C228 C225 1.392 . S
C228 H238 0.930 . S
C229 C226 1.372 . S
C229 C227 1.390 . S
C229 H239 0.929 . S
C230 O210 1.255 . S
C230 O211 1.257 . S
C231 Eu167 2.787 . S
C231 O206 1.252 . S
C231 O209 1.268 . S
C231 C224 1.506 . S
H232 C215 0.931 . S
H233 C216 0.931 . S
H234 C217 0.929 . S
H235 C218 0.930 . S
H236 C226 0.931 . S
H237 C227 0.931 . S
H238 C228 0.930 . S
H239 C229 0.929 . S
Eu240 N269 2.600 . S
Eu240 N275 2.562 1_556 S
Eu240 O284 2.462 . S
Eu240 O285 2.373 1_556 S
Eu240 O287 2.432 . S
Eu240 O288 2.291 1_556 S
Eu240 O292 2.335 . S
Eu240 O295 2.368 1_556 S
Eu240 C304 2.787 . S
C241 N242 1.365 . S
C241 C244 1.405 . S
C241 C248 1.448 . S
N242 C241 1.365 . S
N242 C245 1.319 . S
N242 Eu251 2.600 . S
C243 C245 1.397 . S
C243 C246 1.367 . S
C243 H263 0.931 . S
C244 C241 1.405 . S
C244 C246 1.403 . S
C244 C250 1.439 . S
C245 N242 1.319 . S
C245 C243 1.397 . S
C245 H256 0.930 . S
C246 C243 1.367 . S
C246 C244 1.403 . S
C246 H267 0.929 . S
C247 C248 1.430 . S
C247 C249 1.387 . S
C247 C253 1.404 . S
C248 C241 1.448 . S
C248 C247 1.430 . S
C248 N252 1.351 . S
C249 C247 1.387 . S
C249 C250 1.374 . S
C249 H264 0.931 . S
C250 C244 1.439 . S
C250 C249 1.374 . S
C250 H265 0.931 . S
Eu251 N242 2.600 . S
Eu251 N252 2.562 . S
Eu251 O286 2.335 . S
Eu251 O289 2.372 . S
Eu251 O290 2.462 . S
Eu251 O291 2.363 1_554 S
Eu251 O293 2.432 . S
Eu251 O294 2.291 . S
Eu251 C315 2.787 . S
N252 C248 1.351 . S
N252 Eu251 2.562 . S
N252 C254 1.325 . S
C253 C247 1.404 . S
C253 C255 1.366 . S
C253 H261 0.930 . S
C254 N252 1.325 . S
C254 C255 1.416 . S
C254 H260 0.929 . S
C255 C253 1.366 . S
C255 C254 1.416 . S
C255 H257 0.930 . S
H256 C245 0.930 . S
H257 C255 0.930 . S
H258 C273 0.930 . S
H259 C280 0.930 . S
H260 C254 0.929 . S
H261 C253 0.930 . S
H262 C276 0.929 . S
H263 C243 0.931 . S
H264 C249 0.931 . S
H265 C250 0.931 . S
H266 C271 0.931 . S
H267 C246 0.929 . S
H268 C279 0.930 . S
N269 Eu240 2.600 . S
N269 C270 1.365 1_556 S
N269 C273 1.319 . S
C270 N269 1.365 1_554 S
C270 C272 1.405 . S
C270 C278 1.448 . S
C271 H266 0.931 . S
C271 C273 1.397 . S
C271 C274 1.367 1_556 S
C272 C270 1.405 . S
C272 C274 1.403 . S
C272 C305 1.439 . S
C273 H258 0.930 . S
C273 N269 1.319 . S
C273 C271 1.397 . S
C274 C271 1.367 1_554 S
C274 C272 1.403 . S
C274 H281 0.929 . S
N275 Eu240 2.562 1_554 S
N275 C276 1.325 . S
N275 C278 1.351 . S
C276 H262 0.929 . S
C276 N275 1.325 . S
C276 C280 1.416 . S
C277 C278 1.430 . S
C277 C279 1.404 . S
C277 C306 1.387 . S
C278 C270 1.448 . S
C278 N275 1.351 . S
C278 C277 1.430 . S
C279 H268 0.930 . S
C279 C277 1.404 . S
C279 C280 1.366 . S
C280 H259 0.930 . S
C280 C276 1.416 . S
C280 C279 1.366 . S
H281 C274 0.929 . S
H282 C305 0.931 . S
H283 C306 0.931 . S
O284 Eu240 2.462 . S
O284 C304 1.252 . S
O285 Eu240 2.373 1_554 S
O285 C296 1.249 . S
O286 Eu251 2.335 . S
O286 C296 1.264 . S
O287 Eu240 2.432 . S
O287 C304 1.268 . S
O288 Eu240 2.291 1_554 S
O288 C303 1.255 . S
O289 Eu251 2.372 . S
O289 C303 1.257 . S
O290 Eu251 2.462 . S
O290 C315 1.252 . S
O291 Eu251 2.363 1_556 S
O291 C307 1.256 . S
O292 Eu240 2.335 . S
O292 C307 1.264 . S
O293 Eu251 2.432 . S
O293 C315 1.268 . S
O294 Eu251 2.291 . S
O294 C314 1.255 . S
O295 Eu240 2.368 1_554 S
O295 C314 1.266 . S
C296 O285 1.249 . S
C296 O286 1.264 . S
C297 C300 1.382 . S
C297 C302 1.390 . S
C297 C304 1.506 . S
C298 C299 1.398 . S
C298 C302 1.392 . S
C299 C298 1.398 . S
C299 C301 1.372 . S
C299 H316 0.931 . S
C300 C297 1.382 . S
C300 C301 1.390 . S
C300 H317 0.931 . S
C301 C299 1.372 . S
C301 C300 1.390 . S
C301 H318 0.929 . S
C302 C297 1.390 . S
C302 C298 1.392 . S
C302 H319 0.930 . S
C303 O288 1.255 . S
C303 O289 1.257 . S
C304 Eu240 2.787 . S
C304 O284 1.252 . S
C304 O287 1.268 . S
C304 C297 1.506 . S
C305 C272 1.439 . S
C305 H282 0.931 . S
C305 C306 1.374 . S
C306 C277 1.387 . S
C306 H283 0.931 . S
C306 C305 1.374 . S
C307 O291 1.256 . S
C307 O292 1.264 . S
C308 C311 1.382 . S
C308 C312 1.390 . S
C308 C315 1.506 . S
C309 C310 1.398 . S
C309 C312 1.392 . S
C310 C309 1.398 . S
C310 C313 1.372 . S
C310 H320 0.931 . S
C311 C308 1.382 . S
C311 C313 1.390 . S
C311 H321 0.931 . S
C312 C308 1.390 . S
C312 C309 1.392 . S
C312 H322 0.930 . S
C313 C310 1.372 . S
C313 C311 1.390 . S
C313 H323 0.929 . S
C314 O294 1.255 . S
C314 O295 1.266 . S
C315 Eu251 2.787 . S
C315 O290 1.252 . S
C315 O293 1.268 . S
C315 C308 1.506 . S
H316 C299 0.931 . S
H317 C300 0.931 . S
H318 C301 0.929 . S
H319 C302 0.930 . S
H320 C310 0.931 . S
H321 C311 0.931 . S
H322 C312 0.930 . S
H323 C313 0.929 . S
H324 C330 0.930 . S
H325 C333 0.930 . S
H326 C334 0.930 . S
H327 C335 0.930 . S
H328 C338 0.930 . S
H329 C339 0.930 . S
C330 H324 0.930 . S
C330 C331 1.355 . S
C330 C332 1.415 . S
C331 C330 1.355 . S
C331 C333 1.419 . S
C332 C330 1.415 . S
C332 C337 1.425 . S
C332 C339 1.409 . S
C333 H325 0.930 . S
C333 C331 1.419 . S
C333 C334 1.362 . S
C334 H326 0.930 . S
C334 C333 1.362 . S
C334 C337 1.409 . S
C335 H327 0.930 . S
C335 C336 1.355 . S
C335 C337 1.415 . S
C336 C335 1.355 . S
C336 C338 1.419 . S
C337 C332 1.425 . S
C337 C334 1.409 . S
C337 C335 1.415 . S
C338 H328 0.930 . S
C338 C336 1.419 . S
C338 C339 1.362 . S
C339 H329 0.930 . S
C339 C332 1.409 . S
C339 C338 1.362 . S
H340 C346 0.930 . S
H341 C349 0.925 1_556 S
H342 C350 0.930 1_556 S
H343 C351 0.930 1_556 S
H344 C354 0.930 . S
H345 C355 0.930 . S
C346 H340 0.930 . S
C346 C347 1.355 . S
C346 C348 1.415 . S
C347 C346 1.355 . S
C347 C349 1.419 . S
C348 C346 1.415 . S
C348 C353 1.425 . S
C348 C355 1.409 . S
C349 H341 0.925 1_554 S
C349 C347 1.419 . S
C349 C350 1.362 . S
C350 H342 0.930 1_554 S
C350 C349 1.362 . S
C350 C353 1.409 . S
C351 H343 0.930 1_554 S
C351 C352 1.355 . S
C351 C353 1.415 . S
C352 C351 1.355 . S
C352 C354 1.419 . S
C353 C348 1.425 . S
C353 C350 1.409 . S
C353 C351 1.415 . S
C354 H344 0.930 . S
C354 C352 1.419 . S
C354 C355 1.362 . S
C355 H345 0.930 . S
C355 C348 1.409 . S
C355 C354 1.362 . S
H356 C362 0.930 . S
H357 C365 0.930 . S
H358 C366 0.930 . S
H359 C367 0.930 . S
H360 C370 0.930 . S
H361 C371 0.930 . S
C362 H356 0.930 . S
C362 C363 1.355 . S
C362 C364 1.415 . S
C363 C362 1.355 . S
C363 C365 1.419 . S
C364 C362 1.415 . S
C364 C369 1.425 . S
C364 C371 1.409 . S
C365 H357 0.930 . S
C365 C363 1.419 . S
C365 C366 1.362 . S
C366 H358 0.930 . S
C366 C365 1.362 . S
C366 C369 1.409 . S
C367 H359 0.930 . S
C367 C368 1.355 . S
C367 C369 1.415 . S
C368 C367 1.355 . S
C368 C370 1.419 . S
C369 C364 1.425 . S
C369 C366 1.409 . S
C369 C367 1.415 . S
C370 H360 0.930 . S
C370 C368 1.419 . S
C370 C371 1.362 . S
C371 H361 0.930 . S
C371 C364 1.409 . S
C371 C370 1.362 . S
H372 C378 0.930 . S
H373 C381 0.930 1_556 S
H374 C382 0.930 1_556 S
H375 C383 0.930 . S
H376 C386 0.930 . S
H377 C387 0.930 . S
C378 H372 0.930 . S
C378 C379 1.355 . S
C378 C380 1.415 . S
C379 C378 1.355 . S
C379 C381 1.419 . S
C380 C378 1.415 . S
C380 C385 1.425 . S
C380 C387 1.409 . S
C381 H373 0.930 1_554 S
C381 C379 1.419 . S
C381 C382 1.362 . S
C382 H374 0.930 1_554 S
C382 C381 1.362 . S
C382 C385 1.409 . S
C383 H375 0.930 . S
C383 C384 1.355 . S
C383 C385 1.415 . S
C384 C383 1.355 . S
C384 C386 1.419 . S
C385 C380 1.425 . S
C385 C382 1.409 . S
C385 C383 1.415 . S
C386 H376 0.930 . S
C386 C384 1.419 . S
C386 C387 1.362 . S
C387 H377 0.930 . S
C387 C380 1.409 . S
C387 C386 1.362 . S
H388 C394 0.930 . S
H389 C397 0.930 . S
H390 C398 0.930 . S
H391 C399 0.930 . S
H392 C402 0.924 1_545 S
H393 C403 0.930 . S
C394 H388 0.930 . S
C394 C395 1.355 . S
C394 C396 1.415 . S
C395 C394 1.355 . S
C395 C397 1.419 . S
C396 C394 1.415 . S
C396 C401 1.425 . S
C396 C403 1.409 . S
C397 H389 0.930 . S
C397 C395 1.419 . S
C397 C398 1.362 . S
C398 H390 0.930 . S
C398 C397 1.362 . S
C398 C401 1.409 . S
C399 H391 0.930 . S
C399 C400 1.355 . S
C399 C401 1.415 . S
C400 C399 1.355 . S
C400 C402 1.419 . S
C401 C396 1.425 . S
C401 C398 1.409 . S
C401 C399 1.415 . S
C402 H392 0.924 1_565 S
C402 C400 1.419 . S
C402 C403 1.362 . S
C403 H393 0.930 . S
C403 C396 1.409 . S
C403 C402 1.362 . S
H404 C410 0.930 . S
H405 C413 0.930 . S
H406 C414 0.930 . S
H407 C415 0.930 . S
H408 C418 0.930 . S
H409 C419 0.930 . S
C410 H404 0.930 . S
C410 C411 1.355 . S
C410 C412 1.415 . S
C411 C410 1.355 . S
C411 C413 1.419 . S
C412 C410 1.415 . S
C412 C417 1.425 . S
C412 C419 1.409 . S
C413 H405 0.930 . S
C413 C411 1.419 . S
C413 C414 1.362 . S
C414 H406 0.930 . S
C414 C413 1.362 . S
C414 C417 1.409 . S
C415 H407 0.930 . S
C415 C416 1.355 . S
C415 C417 1.415 . S
C416 C415 1.355 . S
C416 C418 1.419 . S
C417 C412 1.425 . S
C417 C414 1.409 . S
C417 C415 1.415 . S
C418 H408 0.930 . S
C418 C416 1.419 . S
C418 C419 1.362 . S
C419 H409 0.930 . S
C419 C412 1.409 . S
C419 C418 1.362 . S
H420 C426 0.930 . S
H421 C429 0.930 . S
H422 C430 0.930 . S
H423 C431 0.930 . S
H424 C434 0.930 1_565 S
H425 C435 0.930 1_565 S
C426 H420 0.930 . S
C426 C427 1.355 . S
C426 C428 1.415 . S
C427 C426 1.355 . S
C427 C429 1.419 . S
C428 C426 1.415 . S
C428 C433 1.425 . S
C428 C435 1.409 . S
C429 H421 0.930 . S
C429 C427 1.419 . S
C429 C430 1.362 . S
C430 H422 0.930 . S
C430 C429 1.362 . S
C430 C433 1.409 . S
C431 H423 0.930 . S
C431 C432 1.355 . S
C431 C433 1.415 . S
C432 C431 1.355 . S
C432 C434 1.419 . S
C433 C428 1.425 . S
C433 C430 1.409 . S
C433 C431 1.415 . S
C434 H424 0.930 1_545 S
C434 C432 1.419 . S
C434 C435 1.362 . S
C435 H425 0.930 1_545 S
C435 C428 1.409 . S
C435 C434 1.362 . S
H436 C442 0.930 . S
H437 C445 0.930 . S
H438 C446 0.930 . S
H439 C447 0.930 . S
H440 C450 0.930 . S
H441 C451 0.930 . S
C442 H436 0.930 . S
C442 C443 1.355 . S
C442 C444 1.415 . S
C443 C442 1.355 . S
C443 C445 1.419 . S
C444 C442 1.415 . S
C444 C449 1.425 . S
C444 C451 1.409 . S
C445 H437 0.930 . S
C445 C443 1.419 . S
C445 C446 1.362 . S
C446 H438 0.930 . S
C446 C445 1.362 . S
C446 C449 1.409 . S
C447 H439 0.930 . S
C447 C448 1.355 . S
C447 C449 1.415 . S
C448 C447 1.355 . S
C448 C450 1.419 . S
C449 C444 1.425 . S
C449 C446 1.409 . S
C449 C447 1.415 . S
C450 H440 0.930 . S
C450 C448 1.419 . S
C450 C451 1.362 . S
C451 H441 0.930 . S
C451 C444 1.409 . S
C451 C450 1.362 . S
H452 C458 0.930 . S
H453 C461 0.930 . S
H454 C462 0.930 . S
H455 C463 0.930 . S
H456 C466 0.930 . S
H457 C467 0.930 . S
C458 H452 0.930 . S
C458 C459 1.355 . S
C458 C460 1.415 . S
C459 C458 1.355 . S
C459 C461 1.419 . S
C460 C458 1.415 . S
C460 C465 1.425 . S
C460 C467 1.409 . S
C461 H453 0.930 . S
C461 C459 1.419 . S
C461 C462 1.362 . S
C462 H454 0.930 . S
C462 C461 1.362 . S
C462 C465 1.409 . S
C463 H455 0.930 . S
C463 C464 1.355 . S
C463 C465 1.415 . S
C464 C463 1.355 . S
C464 C466 1.419 . S
C465 C460 1.425 . S
C465 C462 1.409 . S
C465 C463 1.415 . S
C466 H456 0.930 . S
C466 C464 1.419 . S
C466 C467 1.362 . S
C467 H457 0.930 . S
C467 C460 1.409 . S
C467 C466 1.362 . S
H468 C474 0.930 . S
H469 C477 0.930 . S
H470 C478 0.930 . S
H471 C479 0.930 . S
H472 C482 0.930 . S
H473 C483 0.930 . S
C474 H468 0.930 . S
C474 C475 1.355 . S
C474 C476 1.415 . S
C475 C474 1.355 . S
C475 C477 1.419 . S
C476 C474 1.415 . S
C476 C481 1.425 . S
C476 C483 1.409 . S
C477 H469 0.930 . S
C477 C475 1.419 . S
C477 C478 1.362 . S
C478 H470 0.930 . S
C478 C477 1.362 . S
C478 C481 1.409 . S
C479 H471 0.930 . S
C479 C480 1.355 . S
C479 C481 1.415 . S
C480 C479 1.355 . S
C480 C482 1.419 . S
C481 C476 1.425 . S
C481 C478 1.409 . S
C481 C479 1.415 . S
C482 H472 0.930 . S
C482 C480 1.419 . S
C482 C483 1.362 . S
C483 H473 0.930 . S
C483 C476 1.409 . S
C483 C482 1.362 . S
H484 C490 0.930 . S
H485 C493 0.930 . S
H486 C494 0.930 . S
H487 C495 0.930 . S
H488 C498 0.930 . S
H489 C499 0.930 . S
C490 H484 0.930 . S
C490 C491 1.355 . S
C490 C492 1.415 . S
C491 C490 1.355 . S
C491 C493 1.419 . S
C492 C490 1.415 . S
C492 C497 1.425 . S
C492 C499 1.409 . S
C493 H485 0.930 . S
C493 C491 1.419 . S
C493 C494 1.362 . S
C494 H486 0.930 . S
C494 C493 1.362 . S
C494 C497 1.409 . S
C495 H487 0.930 . S
C495 C496 1.355 . S
C495 C497 1.415 . S
C496 C495 1.355 . S
C496 C498 1.419 . S
C497 C492 1.425 . S
C497 C494 1.409 . S
C497 C495 1.415 . S
C498 H488 0.930 . S
C498 C496 1.419 . S
C498 C499 1.362 . S
C499 H489 0.930 . S
C499 C492 1.409 . S
C499 C498 1.362 . S
H500 C506 0.930 . S
H501 C509 0.930 . S
H502 C510 0.930 . S
H503 C511 0.930 . S
H504 C514 0.930 . S
H505 C515 0.930 . S
C506 H500 0.930 . S
C506 C507 1.355 . S
C506 C508 1.415 . S
C507 C506 1.355 . S
C507 C509 1.419 . S
C508 C506 1.415 . S
C508 C513 1.425 . S
C508 C515 1.409 . S
C509 H501 0.930 . S
C509 C507 1.419 . S
C509 C510 1.362 . S
C510 H502 0.930 . S
C510 C509 1.362 . S
C510 C513 1.409 . S
C511 H503 0.930 . S
C511 C512 1.355 . S
C511 C513 1.415 . S
C512 C511 1.355 . S
C512 C514 1.419 . S
C513 C508 1.425 . S
C513 C510 1.409 . S
C513 C511 1.415 . S
C514 H504 0.930 . S
C514 C512 1.419 . S
C514 C515 1.362 . S
C515 H505 0.930 . S
C515 C508 1.409 . S
C515 C514 1.362 . S
C336 C219 1.658 . S
C331 C138 1.634 . S
C347 C21 1.639 . S
C352 C314 1.648 . S
C363 C60 1.613 . S
C368 C230 1.658 . S
C379 C99 1.651 . S
C384 C303 1.639 . S
C400 C214 1.471 . S
C395 C16 1.537 . S
C416 C307 1.614 . S
C411 C40 1.592 . S
C427 C79 1.586 . S
C432 C223 1.628 . S
C443 C133 1.521 . S
C448 C298 1.445 . S
C464 C309 1.350 . S
C459 C55 1.540 . S
C480 C225 1.436 . S
C475 C94 1.535 . S
C496 C296 1.617 . S
C491 C118 1.582 . S
C507 C1 1.617 . S
C512 C212 1.635 . S
