# Generated by pormake.
# Topology llj, (12,3)-cn, num edge types: 1
# Building blocks:
#     Node 0, Type 0, BuildingBlock: QEWDON_clean_sbu_0, # of connection points: 12
#     Node 1, Type 0, BuildingBlock: QEWDON_clean_sbu_0, # of connection points: 12
#     Node 2, Type 1, BuildingBlock: CUQRIR_clean_linker_1, # of connection points: 3
#     Node 3, Type 1, BuildingBlock: CUQRIR_clean_linker_1, # of connection points: 3
#     Node 4, Type 1, BuildingBlock: CUQRIR_clean_linker_1, # of connection points: 3
#     Node 5, Type 1, BuildingBlock: CUQRIR_clean_linker_1, # of connection points: 3
#     Node 6, Type 1, BuildingBlock: CUQRIR_clean_linker_1, # of connection points: 3
#     Node 7, Type 1, BuildingBlock: CUQRIR_clean_linker_1, # of connection points: 3
#     Node 8, Type 1, BuildingBlock: CUQRIR_clean_linker_1, # of connection points: 3
#     Node 9, Type 1, BuildingBlock: CUQRIR_clean_linker_1, # of connection points: 3
#     Edge 10, Type (0, 1), BuildingBlock: TEMPAE_clean_linker_10, # of connection points: 2
#     Edge 11, Type (0, 1), BuildingBlock: TEMPAE_clean_linker_10, # of connection points: 2
#     Edge 12, Type (0, 1), BuildingBlock: TEMPAE_clean_linker_10, # of connection points: 2
#     Edge 13, Type (0, 1), BuildingBlock: TEMPAE_clean_linker_10, # of connection points: 2
#     Edge 14, Type (0, 1), BuildingBlock: TEMPAE_clean_linker_10, # of connection points: 2
#     Edge 15, Type (0, 1), BuildingBlock: TEMPAE_clean_linker_10, # of connection points: 2
#     Edge 16, Type (0, 1), BuildingBlock: TEMPAE_clean_linker_10, # of connection points: 2
#     Edge 17, Type (0, 1), BuildingBlock: TEMPAE_clean_linker_10, # of connection points: 2
#     Edge 18, Type (0, 1), BuildingBlock: TEMPAE_clean_linker_10, # of connection points: 2
#     Edge 19, Type (0, 1), BuildingBlock: TEMPAE_clean_linker_10, # of connection points: 2
#     Edge 20, Type (0, 1), BuildingBlock: TEMPAE_clean_linker_10, # of connection points: 2
#     Edge 21, Type (0, 1), BuildingBlock: TEMPAE_clean_linker_10, # of connection points: 2
#     Edge 22, Type (0, 1), BuildingBlock: TEMPAE_clean_linker_10, # of connection points: 2
#     Edge 23, Type (0, 1), BuildingBlock: TEMPAE_clean_linker_10, # of connection points: 2
#     Edge 24, Type (0, 1), BuildingBlock: TEMPAE_clean_linker_10, # of connection points: 2
#     Edge 25, Type (0, 1), BuildingBlock: TEMPAE_clean_linker_10, # of connection points: 2
#     Edge 26, Type (0, 1), BuildingBlock: TEMPAE_clean_linker_10, # of connection points: 2
#     Edge 27, Type (0, 1), BuildingBlock: TEMPAE_clean_linker_10, # of connection points: 2
#     Edge 28, Type (0, 1), BuildingBlock: TEMPAE_clean_linker_10, # of connection points: 2
#     Edge 29, Type (0, 1), BuildingBlock: TEMPAE_clean_linker_10, # of connection points: 2
#     Edge 30, Type (0, 1), BuildingBlock: TEMPAE_clean_linker_10, # of connection points: 2
#     Edge 31, Type (0, 1), BuildingBlock: TEMPAE_clean_linker_10, # of connection points: 2
#     Edge 32, Type (0, 1), BuildingBlock: TEMPAE_clean_linker_10, # of connection points: 2
#     Edge 33, Type (0, 1), BuildingBlock: TEMPAE_clean_linker_10, # of connection points: 2
# Relax obj value: 0.011
# Max RMSD: 0.115
# Mean RMSD: 0.100
data_MOF--net-llj--node1-QEWDON_clean_sbu_0--node2-CUQRIR_clean_linker_1--edge1-TEMPAE_clean_linker_10
_symmetry_space_group_name_H-M    P1
_symmetry_Int_Tables_number       1
_symmetry_cell_setting            triclinic
loop_
_symmetry_equiv_pos_as_xyz
'x, y, z'
_cell_length_a     37.388034
_cell_length_b     37.374543
_cell_length_c     22.934387
_cell_angle_alpha  90.099191
_cell_angle_beta   90.010302
_cell_angle_gamma 90.041574
loop_
_atom_site_label
_atom_site_type_symbol
_atom_site_fract_x
_atom_site_fract_y
_atom_site_fract_z
_atom_type_partial_charge
Zn0 Zn 0.94135 0.067 0.94764 0.0
Zn1 Zn 0.93915 0.06452 0.08725 0.0
O2 O 0.97192 0.0588 0.01872 0.0
H3 H 0.99208 0.04274 0.01693 0.0
C4 C 0.90625 0.99692 0.87165 0.0
O5 O 0.89462 0.00776 0.92277 0.0
Zn6 Zn 0.05748 0.9314 0.08587 0.0
Zn7 Zn 0.05523 0.93097 0.94592 0.0
O8 O 0.02497 0.9384 0.01757 0.0
H9 H 0.00497 0.95468 0.01708 0.0
Zn10 Zn 0.92823 0.93975 0.94662 0.0
O11 O 0.93608 0.97053 0.01746 0.0
Zn12 Zn 0.93074 0.93801 0.08617 0.0
H13 H 0.95162 0.99109 0.01534 0.0
Zn14 Zn 0.06782 0.05912 0.95082 0.0
O15 O 0.0614 0.0263 0.01955 0.0
H16 H 0.0465 0.00533 0.01599 0.0
Zn17 Zn 0.06568 0.05763 0.08976 0.0
C18 C 0.0915 0.00368 0.87397 0.0
O19 O 0.10392 0.99316 0.92472 0.0
O20 O 0.89781 0.09845 0.96677 0.0
O21 O 0.89696 0.09648 0.06405 0.0
O22 O 0.09949 0.90018 0.96343 0.0
O23 O 0.10001 0.90016 0.0608 0.0
O24 O 0.89736 0.89582 0.96581 0.0
O25 O 0.8989 0.89549 0.06315 0.0
C26 C 0.00061 0.08284 0.15488 0.0
O27 O 0.09709 0.10399 0.97265 0.0
O28 O 0.09719 0.10055 0.06985 0.0
O29 O 0.02752 0.92445 0.86803 0.0
C30 C 0.88406 0.1075 0.01554 0.0
O31 O 0.96841 0.07331 0.86903 0.0
C32 C 0.99559 0.9127 0.15243 0.0
O33 O 0.92193 0.96684 0.86819 0.0
C34 C 0.11328 0.89042 0.01175 0.0
O35 O 0.07475 0.03321 0.87121 0.0
C36 C 0.91341 -8e-05 0.15364 0.0
O37 O 0.96665 0.08427 0.15713 0.0
O38 O 0.01512 0.07185 0.10819 0.0
C39 C 0.88823 0.8822 0.0146 0.0
O40 O 0.02955 0.91109 0.15476 0.0
O41 O 0.98112 0.92318 0.10541 0.0
C42 C 0.08231 0.99529 0.15593 0.0
O43 O 0.91152 0.96596 0.156 0.0
O44 O 0.92408 0.01426 0.10666 0.0
C45 C 0.10669 0.11592 0.02248 0.0
O46 O 0.08426 0.02922 0.15901 0.0
O47 O 0.07241 0.9813 0.1081 0.0
C48 C 0.99809 0.90755 0.87161 0.0
O49 O 0.98813 0.89505 0.92261 0.0
C50 C 0.99774 0.09041 0.87192 0.0
O51 O 0.00801 0.10315 0.92268 0.0
Zn52 Zn 0.43789 0.57128 0.44545 0.0
Zn53 Zn 0.43909 0.56739 0.5845 0.0
O54 O 0.47037 0.56316 0.51422 0.0
H55 H 0.49094 0.54776 0.5105 0.0
C56 C 0.40637 0.49963 0.36858 0.0
O57 O 0.39452 0.51018 0.41974 0.0
Zn58 Zn 0.55872 0.43051 0.58257 0.0
Zn59 Zn 0.55787 0.42727 0.44368 0.0
O60 O 0.52626 0.43455 0.51366 0.0
H61 H 0.50551 0.44979 0.51144 0.0
Zn62 Zn 0.42965 0.44251 0.44311 0.0
O63 O 0.43939 0.47278 0.51438 0.0
Zn64 Zn 0.43267 0.4406 0.58321 0.0
H65 H 0.45587 0.49264 0.51276 0.0
Zn66 Zn 0.56583 0.55672 0.44261 0.0
O67 O 0.55803 0.52561 0.51317 0.0
H68 H 0.54194 0.50543 0.51142 0.0
Zn69 Zn 0.56493 0.55778 0.58205 0.0
C70 C 0.58716 0.49972 0.36686 0.0
O71 O 0.59883 0.48881 0.41786 0.0
O72 O 0.39343 0.60094 0.46796 0.0
O73 O 0.39649 0.59935 0.56517 0.0
O74 O 0.60219 0.39711 0.46382 0.0
O75 O 0.6017 0.39921 0.5611 0.0
O76 O 0.39842 0.39859 0.46194 0.0
O77 O 0.40068 0.3984 0.55915 0.0
C78 C 0.50141 0.58334 0.65084 0.0
O79 O 0.59762 0.60018 0.46173 0.0
O80 O 0.59698 0.59995 0.55905 0.0
O81 O 0.53144 0.42127 0.36442 0.0
C82 C 0.38143 0.60982 0.51807 0.0
O83 O 0.46395 0.57847 0.36605 0.0
C84 C 0.49731 0.41392 0.6517 0.0
O85 O 0.42278 0.46994 0.36507 0.0
C86 C 0.61553 0.38845 0.51307 0.0
O87 O 0.57155 0.52985 0.36371 0.0
C88 C 0.41404 0.50255 0.64942 0.0
O89 O 0.46755 0.58558 0.65417 0.0
O90 O 0.51516 0.5732 0.60306 0.0
C91 C 0.38963 0.38506 0.51095 0.0
O92 O 0.53124 0.41132 0.6526 0.0
O93 O 0.48264 0.42536 0.60534 0.0
C94 C 0.58344 0.49562 0.64774 0.0
O95 O 0.41254 0.46862 0.65204 0.0
O96 O 0.42449 0.51688 0.6023 0.0
C97 C 0.60739 0.61338 0.51057 0.0
O98 O 0.58474 0.52957 0.65074 0.0
O99 O 0.57278 0.48125 0.6007 0.0
C100 C 0.50155 0.40515 0.36706 0.0
O101 O 0.49067 0.3929 0.41772 0.0
C102 C 0.4944 0.5935 0.36939 0.0
O103 O 0.50586 0.60425 0.42068 0.0
C104 C 0.31491 0.31407 0.96754 0.0
N105 N 0.34233 0.33587 0.98231 0.0
N106 N 0.29431 0.30694 0.01461 0.0
C107 C 0.30787 0.30019 0.90703 0.0
C108 C 0.31019 0.32527 0.05856 0.0
N109 N 0.33921 0.34322 0.03872 0.0
C110 C 0.29969 0.32266 0.12178 0.0
H111 H 0.31609 0.32016 0.87386 0.0
H112 H 0.27915 0.2936 0.90112 0.0
H113 H 0.3238 0.27552 0.90003 0.0
H114 H 0.32381 0.32079 0.14984 0.0
H115 H 0.28226 0.2992 0.13009 0.0
H116 H 0.28502 0.3473 0.13425 0.0
C117 C 0.67884 0.31145 0.96496 0.0
N118 N 0.65924 0.34056 0.97973 0.0
N119 N 0.69476 0.29731 0.01267 0.0
C120 C 0.68487 0.29866 0.9035 0.0
C121 C 0.68444 0.31894 0.05684 0.0
N122 N 0.663 0.34526 0.0368 0.0
C123 C 0.69575 0.31474 0.11937 0.0
H124 H 0.66176 0.28198 0.88995 0.0
H125 H 0.70954 0.28233 0.89998 0.0
H126 H 0.68673 0.32169 0.87315 0.0
H127 H 0.7188 0.33271 0.12789 0.0
H128 H 0.70398 0.2868 0.12861 0.0
H129 H 0.67377 0.32255 0.14928 0.0
C130 C 0.6818 0.67871 0.0579 0.0
N131 N 0.655 0.65727 0.03948 0.0
N132 N 0.70332 0.68768 0.01287 0.0
C133 C 0.68608 0.69208 0.11937 0.0
C134 C 0.68856 0.67089 0.96631 0.0
N135 N 0.65926 0.65211 0.98265 0.0
C136 C 0.70052 0.67552 0.90418 0.0
H137 H 0.66836 0.71556 0.12579 0.0
H138 H 0.7141 0.70033 0.12802 0.0
H139 H 0.678 0.67119 0.15108 0.0
H140 H 0.71131 0.64972 0.88794 0.0
H141 H 0.7214 0.69643 0.89991 0.0
H142 H 0.67727 0.6826 0.87639 0.0
C143 C 0.31589 0.68364 0.0545 0.0
N144 N 0.33749 0.65682 0.03674 0.0
N145 N 0.30656 0.70453 0.00889 0.0
C146 C 0.30293 0.68869 0.11602 0.0
C147 C 0.32335 0.68939 0.96269 0.0
N148 N 0.34243 0.66046 0.97978 0.0
C149 C 0.31866 0.70071 0.90027 0.0
H150 H 0.27943 0.67111 0.12327 0.0
H151 H 0.29482 0.71684 0.12395 0.0
H152 H 0.32396 0.68096 0.14772 0.0
H153 H 0.34402 0.71276 0.8846 0.0
H154 H 0.29678 0.72048 0.89521 0.0
H155 H 0.313 0.677 0.87254 0.0
C156 C 0.80847 0.82368 0.4653 0.0
N157 N 0.83712 0.84308 0.4828 0.0
N158 N 0.79241 0.80798 0.51159 0.0
C159 C 0.79854 0.81736 0.40261 0.0
C160 C 0.81247 0.81827 0.55773 0.0
N161 N 0.83963 0.83951 0.5402 0.0
C162 C 0.80676 0.80591 0.61936 0.0
H163 H 0.79307 0.84341 0.38128 0.0
H164 H 0.77474 0.79983 0.39827 0.0
H165 H 0.82149 0.80496 0.37949 0.0
H166 H 0.82494 0.7831 0.6282 0.0
H167 H 0.77877 0.79699 0.62624 0.0
H168 H 0.81333 0.82761 0.65067 0.0
C169 C 0.17119 0.81135 0.56515 0.0
N170 N 0.15214 0.83982 0.5461 0.0
N171 N 0.18828 0.79528 0.52012 0.0
C172 C 0.17586 0.80159 0.62831 0.0
C173 C 0.17922 0.81518 0.47319 0.0
N174 N 0.15745 0.84229 0.48907 0.0
C175 C 0.19217 0.80857 0.41207 0.0
H176 H 0.19821 0.78252 0.63484 0.0
H177 H 0.15076 0.78922 0.64439 0.0
H178 H 0.1808 0.82602 0.65472 0.0
H179 H 0.17121 0.81581 0.37991 0.0
H180 H 0.19997 0.78017 0.40593 0.0
H181 H 0.21588 0.8257 0.4038 0.0
C182 C 0.18298 0.18091 0.56098 0.0
N183 N 0.15576 0.1601 0.54211 0.0
N184 N 0.20323 0.19195 0.51555 0.0
C185 C 0.18875 0.19185 0.62337 0.0
C186 C 0.1872 0.17717 0.46832 0.0
N187 N 0.15841 0.15766 0.48456 0.0
C188 C 0.19766 0.18409 0.40604 0.0
H189 H 0.17081 0.21464 0.63361 0.0
H190 H 0.21683 0.20031 0.63088 0.0
H191 H 0.18193 0.16956 0.65328 0.0
H192 H 0.20706 0.1587 0.38613 0.0
H193 H 0.21909 0.20449 0.40251 0.0
H194 H 0.17392 0.19303 0.38094 0.0
C195 C 0.82122 0.18445 0.56015 0.0
N196 N 0.8416 0.15686 0.54163 0.0
N197 N 0.81075 0.20477 0.51455 0.0
C198 C 0.80958 0.19012 0.6222 0.0
C199 C 0.82537 0.18841 0.46755 0.0
N200 N 0.84436 0.15935 0.48411 0.0
C201 C 0.8184 0.19862 0.40522 0.0
H202 H 0.78711 0.17166 0.63191 0.0
H203 H 0.80047 0.21803 0.62943 0.0
H204 H 0.83175 0.18384 0.65265 0.0
H205 H 0.84425 0.20306 0.3826 0.0
H206 H 0.80182 0.22313 0.40185 0.0
H207 H 0.80464 0.17618 0.3827 0.0
C208 C 0.13628 0.16842 0.97522 0.0
C209 C 0.13073 0.14739 0.02503 0.0
C210 C 0.16109 0.19656 0.97547 0.0
C211 C 0.18101 0.20373 0.02667 0.0
C212 C 0.17465 0.18345 0.07772 0.0
C213 C 0.14955 0.15553 0.0763 0.0
C214 C 0.16686 0.21781 0.9203 0.0
C215 C 0.19545 0.1902 0.13312 0.0
C216 C 0.27241 0.24545 0.00441 0.0
C217 C 0.2659 0.28122 0.01866 0.0
C218 C 0.24508 0.21987 0.00765 0.0
C219 C 0.21037 0.23054 0.02527 0.0
C220 C 0.20377 0.26675 0.04014 0.0
C221 C 0.23179 0.29172 0.03687 0.0
C222 C 0.25331 0.1815 0.99192 0.0
C223 C 0.16708 0.27913 0.05874 0.0
H224 H 0.12161 0.16253 0.93558 0.0
H225 H 0.1456 0.13927 0.11485 0.0
H226 H 0.16479 0.24688 0.92953 0.0
H227 H 0.19418 0.21276 0.9033 0.0
H228 H 0.14725 0.21076 0.88573 0.0
H229 H 0.18498 0.1744 0.1704 0.0
H230 H 0.22392 0.18298 0.12621 0.0
H231 H 0.19462 0.219 0.14481 0.0
H232 H 0.29907 0.23759 0.991 0.0
H233 H 0.22713 0.31955 0.04782 0.0
H234 H 0.23668 0.17307 0.95425 0.0
H235 H 0.24652 0.16367 0.02895 0.0
H236 H 0.28192 0.17751 0.98052 0.0
H237 H 0.14759 0.27418 0.02313 0.0
H238 H 0.16659 0.30805 0.06997 0.0
H239 H 0.15796 0.2636 0.09714 0.0
C240 C 0.83506 0.14063 0.06725 0.0
C241 C 0.85352 0.13278 0.01556 0.0
C242 C 0.80735 0.16597 0.06808 0.0
C243 C 0.79827 0.18427 0.01614 0.0
C244 C 0.81636 0.17603 0.96361 0.0
C245 C 0.84357 0.15025 0.96389 0.0
C246 C 0.78824 0.17365 0.12474 0.0
C247 C 0.80777 0.19526 0.90744 0.0
C248 C 0.70989 0.23372 0.00228 0.0
C249 C 0.72036 0.26879 0.01483 0.0
C250 C 0.73482 0.20565 0.00381 0.0
C251 C 0.77106 0.21325 0.0171 0.0
C252 C 0.78161 0.24885 0.02971 0.0
C253 C 0.75597 0.27619 0.02885 0.0
C254 C 0.72247 0.16799 0.99101 0.0
C255 C 0.82006 0.25816 0.04307 0.0
H256 H 0.84248 0.12719 0.10722 0.0
H257 H 0.8577 0.14449 0.92368 0.0
H258 H 0.79344 0.20165 0.13841 0.0
H259 H 0.75892 0.17082 0.11877 0.0
H260 H 0.79691 0.15552 0.16037 0.0
H261 H 0.82331 0.18468 0.86989 0.0
H262 H 0.77886 0.19282 0.89732 0.0
H263 H 0.81376 0.2242 0.91233 0.0
H264 H 0.68215 0.22841 0.99161 0.0
H265 H 0.7637 0.30358 0.03812 0.0
H266 H 0.72973 0.15008 0.02769 0.0
H267 H 0.73619 0.15768 0.95154 0.0
H268 H 0.69312 0.16643 0.9839 0.0
H269 H 0.82946 0.24276 0.08142 0.0
H270 H 0.82375 0.28714 0.05216 0.0
H271 H 0.83731 0.25062 0.00566 0.0
C272 C 0.84776 0.83961 0.9621 0.0
C273 C 0.86355 0.85111 0.01446 0.0
C274 C 0.82279 0.81161 0.96134 0.0
C275 C 0.81357 0.79439 0.01413 0.0
C276 C 0.83011 0.80512 0.0669 0.0
C277 C 0.85475 0.8335 0.06647 0.0
C278 C 0.80547 0.80123 0.90423 0.0
C279 C 0.82127 0.78707 0.12397 0.0
C280 C 0.72245 0.75004 0.02317 0.0
C281 C 0.73105 0.71421 0.01294 0.0
C282 C 0.7491 0.77643 0.02368 0.0
C283 C 0.78521 0.76647 0.01446 0.0
C284 C 0.79398 0.73008 0.00452 0.0
C285 C 0.76661 0.70432 0.00346 0.0
C286 C 0.73857 0.81496 0.03358 0.0
C287 C 0.83219 0.71841 0.99517 0.0
H288 H 0.85425 0.85305 0.92162 0.0
H289 H 0.86682 0.84215 0.10701 0.0
H290 H 0.80885 0.77217 0.89611 0.0
H291 H 0.7763 0.80658 0.9064 0.0
H292 H 0.81679 0.81617 0.86666 0.0
H293 H 0.83801 0.79712 0.16052 0.0
H294 H 0.79275 0.79168 0.13498 0.0
H295 H 0.82511 0.75773 0.12002 0.0
H296 H 0.69472 0.75727 0.03025 0.0
H297 H 0.77284 0.67639 0.99579 0.0
H298 H 0.74697 0.83146 0.9958 0.0
H299 H 0.75247 0.82569 0.07261 0.0
H300 H 0.70928 0.81817 0.03982 0.0
H301 H 0.84336 0.73177 0.95604 0.0
H302 H 0.83456 0.68899 0.98937 0.0
H303 H 0.84884 0.72663 0.03294 0.0
C304 C 0.16393 0.85876 0.06145 0.0
C305 C 0.14449 0.86596 0.01053 0.0
C306 C 0.19211 0.83395 0.06133 0.0
C307 C 0.20097 0.81581 0.00903 0.0
C308 C 0.18214 0.82371 0.95709 0.0
C309 C 0.15424 0.84876 0.95842 0.0
C310 C 0.21188 0.82658 0.11746 0.0
C311 C 0.19062 0.80482 0.90048 0.0
C312 C 0.29019 0.76765 0.99551 0.0
C313 C 0.28028 0.73249 0.00845 0.0
C314 C 0.26473 0.79527 0.99611 0.0
C315 C 0.22858 0.78717 0.00922 0.0
C316 C 0.21856 0.75145 0.02186 0.0
C317 C 0.24466 0.72455 0.02163 0.0
C318 C 0.27647 0.83305 0.98299 0.0
C319 C 0.18026 0.74161 0.03529 0.0
H320 H 0.15698 0.87236 0.10157 0.0
H321 H 0.13946 0.85416 0.91873 0.0
H322 H 0.20745 0.79842 0.13086 0.0
H323 H 0.24107 0.8301 0.11088 0.0
H324 H 0.20309 0.84441 0.15352 0.0
H325 H 0.17495 0.81559 0.86326 0.0
H326 H 0.2195 0.80735 0.89021 0.0
H327 H 0.18467 0.77585 0.90483 0.0
H328 H 0.31794 0.7734 0.98554 0.0
H329 H 0.23736 0.69713 0.0313 0.0
H330 H 0.2697 0.85084 0.02016 0.0
H331 H 0.26195 0.84328 0.94428 0.0
H332 H 0.30567 0.83491 0.97454 0.0
H333 H 0.17083 0.7567 0.07404 0.0
H334 H 0.17694 0.71255 0.04384 0.0
H335 H 0.16278 0.74915 0.99819 0.0
C336 C 0.64806 0.65584 0.45832 0.0
C337 C 0.63248 0.64416 0.51067 0.0
C338 C 0.67328 0.68363 0.45781 0.0
C339 C 0.68298 0.70044 0.51085 0.0
C340 C 0.66676 0.68942 0.56365 0.0
C341 C 0.64186 0.66128 0.56296 0.0
C342 C 0.69024 0.69435 0.40066 0.0
C343 C 0.67613 0.707 0.621 0.0
C344 C 0.77391 0.74534 0.5198 0.0
C345 C 0.76495 0.7812 0.51095 0.0
C346 C 0.74746 0.71873 0.51971 0.0
C347 C 0.71121 0.7285 0.51131 0.0
C348 C 0.70212 0.76493 0.50273 0.0
C349 C 0.72928 0.7909 0.50228 0.0
C350 C 0.75831 0.68019 0.52826 0.0
C351 C 0.66378 0.77641 0.49427 0.0
H352 H 0.64114 0.64275 0.41765 0.0
H353 H 0.62996 0.65248 0.60351 0.0
H354 H 0.68669 0.72344 0.39315 0.0
H355 H 0.71943 0.68911 0.40228 0.0
H356 H 0.67874 0.67956 0.36298 0.0
H357 H 0.65991 0.69646 0.65775 0.0
H358 H 0.70482 0.70257 0.63099 0.0
H359 H 0.67197 0.73633 0.61806 0.0
H360 H 0.80173 0.73829 0.5264 0.0
H361 H 0.7228 0.81886 0.4957 0.0
H362 H 0.74967 0.66396 0.49021 0.0
H363 H 0.74481 0.66905 0.56729 0.0
H364 H 0.78767 0.67712 0.53375 0.0
H365 H 0.65243 0.76322 0.45504 0.0
H366 H 0.66118 0.80585 0.48917 0.0
H367 H 0.64743 0.76784 0.53214 0.0
C368 C 0.32941 0.64074 0.4717 0.0
C369 C 0.35019 0.63408 0.52145 0.0
C370 C 0.30124 0.66547 0.47311 0.0
C371 C 0.2938 0.68417 0.52543 0.0
C372 C 0.314 0.67686 0.57626 0.0
C373 C 0.34194 0.65185 0.57367 0.0
C374 C 0.28008 0.67229 0.41812 0.0
C375 C 0.307 0.6964 0.6328 0.0
C376 C 0.2502 0.77513 0.50875 0.0
C377 C 0.21464 0.76748 0.52272 0.0
C378 C 0.27636 0.74832 0.5104 0.0
C379 C 0.26644 0.71299 0.52582 0.0
C380 C 0.23041 0.70524 0.54027 0.0
C381 C 0.20489 0.73278 0.53886 0.0
C382 C 0.31453 0.75777 0.49534 0.0
C383 C 0.2188 0.66786 0.55635 0.0
H384 H 0.33543 0.62692 0.4313 0.0
H385 H 0.35804 0.64708 0.61216 0.0
H386 H 0.25105 0.66931 0.42682 0.0
H387 H 0.28457 0.70017 0.40329 0.0
H388 H 0.28766 0.65381 0.38219 0.0
H389 H 0.32325 0.68569 0.66938 0.0
H390 H 0.31337 0.7252 0.62738 0.0
H391 H 0.2783 0.6945 0.64468 0.0
H392 H 0.2574 0.80223 0.49677 0.0
H393 H 0.17719 0.72727 0.54955 0.0
H394 H 0.32324 0.74231 0.45653 0.0
H395 H 0.33252 0.75041 0.53186 0.0
H396 H 0.31792 0.78673 0.48599 0.0
H397 H 0.22421 0.64934 0.51953 0.0
H398 H 0.1899 0.66645 0.56732 0.0
H399 H 0.23447 0.65818 0.59424 0.0
C400 C 0.35826 0.33539 0.56375 0.0
C401 C 0.36482 0.35408 0.51183 0.0
C402 C 0.33331 0.3073 0.56561 0.0
C403 C 0.3143 0.29786 0.51443 0.0
C404 C 0.32137 0.31609 0.46162 0.0
C405 C 0.34666 0.34382 0.46088 0.0
C406 C 0.32687 0.28814 0.62257 0.0
C407 C 0.30145 0.30704 0.4062 0.0
C408 C 0.26636 0.20835 0.50293 0.0
C409 C 0.23127 0.21815 0.51646 0.0
C410 C 0.29394 0.23389 0.50322 0.0
C411 C 0.28585 0.27004 0.5165 0.0
C412 C 0.25024 0.27989 0.53025 0.0
C413 C 0.22338 0.25368 0.53042 0.0
C414 C 0.33161 0.22228 0.48907 0.0
C415 C 0.2404 0.31819 0.54386 0.0
H416 H 0.37247 0.34282 0.60313 0.0
H417 H 0.35153 0.35805 0.4205 0.0
H418 H 0.29889 0.29252 0.63701 0.0
H419 H 0.33047 0.2589 0.61664 0.0
H420 H 0.34516 0.29748 0.65765 0.0
H421 H 0.3112 0.3227 0.36824 0.0
H422 H 0.30423 0.27814 0.39606 0.0
H423 H 0.27251 0.3125 0.41214 0.0
H424 H 0.27204 0.18066 0.49232 0.0
H425 H 0.196 0.26088 0.54057 0.0
H426 H 0.34991 0.22994 0.52509 0.0
H427 H 0.34107 0.23617 0.44924 0.0
H428 H 0.33361 0.19295 0.4819 0.0
H429 H 0.25622 0.32799 0.58156 0.0
H430 H 0.21152 0.3213 0.55406 0.0
H431 H 0.24701 0.33551 0.50611 0.0
C432 C 0.66065 0.35019 0.46194 0.0
C433 C 0.64686 0.36413 0.5142 0.0
C434 C 0.68877 0.32541 0.46213 0.0
C435 C 0.7037 0.31439 0.51587 0.0
C436 C 0.69066 0.32906 0.56871 0.0
C437 C 0.66228 0.35363 0.56727 0.0
C438 C 0.70176 0.31021 0.40484 0.0
C439 C 0.70616 0.31819 0.62685 0.0
C440 C 0.74808 0.22318 0.52008 0.0
C441 C 0.78416 0.23233 0.51502 0.0
C442 C 0.72159 0.2497 0.5207 0.0
C443 C 0.73169 0.28616 0.51674 0.0
C444 C 0.76835 0.29543 0.5122 0.0
C445 C 0.79424 0.26823 0.51108 0.0
C446 C 0.68281 0.23868 0.52499 0.0
C447 C 0.78015 0.33398 0.5084 0.0
H448 H 0.64897 0.35805 0.42066 0.0
H449 H 0.6518 0.36418 0.60781 0.0
H450 H 0.73107 0.31407 0.40059 0.0
H451 H 0.6966 0.28098 0.40352 0.0
H452 H 0.68842 0.32278 0.36674 0.0
H453 H 0.6943 0.33342 0.6637 0.0
H454 H 0.70141 0.28925 0.63428 0.0
H455 H 0.73554 0.32242 0.62696 0.0
H456 H 0.74079 0.19518 0.52314 0.0
H457 H 0.82238 0.27483 0.50741 0.0
H458 H 0.66796 0.24832 0.48619 0.0
H459 H 0.67033 0.25118 0.56389 0.0
H460 H 0.67955 0.2092 0.52805 0.0
H461 H 0.76862 0.34658 0.46888 0.0
H462 H 0.80973 0.33668 0.5067 0.0
H463 H 0.77004 0.34915 0.54663 0.0
C464 C 0.05285 0.11314 0.20034 0.0
C465 C 0.02246 0.09165 0.20639 0.0
C466 C 0.07369 0.12246 0.24894 0.0
C467 C 0.06438 0.10908 0.30471 0.0
C468 C 0.03392 0.08682 0.31082 0.0
C469 C 0.01299 0.07878 0.26158 0.0
C470 C 0.10548 0.14688 0.2405 0.0
C471 C 0.02302 0.07187 0.36927 0.0
C472 C 0.14034 0.11135 0.41469 0.0
C473 C 0.13229 0.14239 0.44603 0.0
C474 C 0.11752 0.09914 0.3703 0.0
C475 C 0.08638 0.11899 0.35642 0.0
C476 C 0.07763 0.14979 0.38958 0.0
C477 C 0.10077 0.16108 0.43418 0.0
C478 C 0.12732 0.06571 0.33704 0.0
C479 C 0.04492 0.17187 0.37588 0.0
H480 H 0.05972 0.12353 0.15775 0.0
H481 H 0.9895 0.06197 0.26608 0.0
H482 H 0.10539 0.16867 0.27343 0.0
H483 H 0.13054 0.13143 0.24641 0.0
H484 H 0.10585 0.15913 0.19642 0.0
H485 H 0.0059 0.04781 0.36424 0.0
H486 H 0.04665 0.06469 0.39606 0.0
H487 H 0.00755 0.09236 0.39355 0.0
H488 H 0.16505 0.09733 0.42398 0.0
H489 H 0.09525 0.18552 0.458 0.0
H490 H 0.13633 0.07298 0.29253 0.0
H491 H 0.10361 0.04816 0.3324 0.0
H492 H 0.14902 0.05043 0.35879 0.0
H493 H 0.04718 0.18294 0.33114 0.0
H494 H 0.04131 0.19439 0.407 0.0
H495 H 0.02064 0.15483 0.37698 0.0
C496 C 0.88443 0.05248 0.20034 0.0
C497 C 0.90576 0.02194 0.20545 0.0
C498 C 0.87602 0.07331 0.24941 0.0
C499 C 0.89065 0.06417 0.30445 0.0
C500 C 0.91311 0.03381 0.30939 0.0
C501 C 0.91979 0.01258 0.25994 0.0
C502 C 0.85155 0.1051 0.24178 0.0
C503 C 0.92987 0.02348 0.36679 0.0
C504 C 0.88991 0.1408 0.41336 0.0
C505 C 0.85931 0.13288 0.44584 0.0
C506 C 0.9016 0.11766 0.36901 0.0
C507 C 0.88181 0.0862 0.35665 0.0
C508 C 0.85162 0.0775 0.39117 0.0
C509 C 0.84072 0.10105 0.43545 0.0
C510 C 0.93425 0.12755 0.33395 0.0
C511 C 0.82951 0.04453 0.37887 0.0
H512 H 0.87347 0.05953 0.15814 0.0
H513 H 0.93659 0.98905 0.26364 0.0
H514 H 0.83385 0.10901 0.28006 0.0
H515 H 0.86797 0.12962 0.23644 0.0
H516 H 0.83444 0.10206 0.20254 0.0
H517 H 0.95343 0.0059 0.36027 0.0
H518 H 0.93841 0.04741 0.39187 0.0
H519 H 0.90998 0.00877 0.39348 0.0
H520 H 0.90389 0.16572 0.42154 0.0
H521 H 0.81658 0.09563 0.46001 0.0
H522 H 0.92605 0.1355 0.28932 0.0
H523 H 0.95219 0.10411 0.32975 0.0
H524 H 0.9494 0.15 0.35397 0.0
H525 H 0.81722 0.04676 0.33495 0.0
H526 H 0.8079 0.04067 0.4115 0.0
H527 H 0.84678 0.02042 0.37863 0.0
C528 C 0.94288 0.88429 0.19956 0.0
C529 C 0.97377 0.90518 0.20449 0.0
C530 C 0.92219 0.87606 0.24878 0.0
C531 C 0.93186 0.8904 0.30385 0.0
C532 C 0.96257 0.91241 0.3087 0.0
C533 C 0.98364 0.91895 0.25905 0.0
C534 C 0.88995 0.85211 0.24125 0.0
C535 C 0.97318 0.9289 0.36629 0.0
C536 C 0.85597 0.88953 0.41386 0.0
C537 C 0.86367 0.85846 0.44524 0.0
C538 C 0.87905 0.90151 0.36969 0.0
C539 C 0.91018 0.88149 0.35633 0.0
C540 C 0.91866 0.8508 0.38978 0.0
C541 C 0.89523 0.83969 0.43398 0.0
C542 C 0.86931 0.93458 0.33558 0.0
C543 C 0.951 0.82817 0.37602 0.0
H544 H 0.93544 0.87352 0.15736 0.0
H545 H 0.00743 0.93544 0.26262 0.0
H546 H 0.88588 0.83438 0.27941 0.0
H547 H 0.86571 0.86894 0.23626 0.0
H548 H 0.8925 0.83502 0.20185 0.0
H549 H 0.9946 0.94928 0.36119 0.0
H550 H 0.94972 0.94158 0.3875 0.0
H551 H 0.98291 0.90772 0.39613 0.0
H552 H 0.83121 0.90361 0.42263 0.0
H553 H 0.90044 0.81518 0.45765 0.0
H554 H 0.86117 0.92684 0.29078 0.0
H555 H 0.89283 0.95249 0.33171 0.0
H556 H 0.84702 0.94965 0.35614 0.0
H557 H 0.94712 0.81491 0.33313 0.0
H558 H 0.95569 0.80723 0.40948 0.0
H559 H 0.97527 0.84509 0.37266 0.0
C560 C 0.10602 0.93993 0.20238 0.0
C561 C 0.08906 0.97312 0.20792 0.0
C562 C 0.11402 0.91924 0.25167 0.0
C563 C 0.10483 0.93216 0.30778 0.0
C564 C 0.08628 0.96497 0.3134 0.0
C565 C 0.07898 0.98532 0.26335 0.0
C566 C 0.1334 0.88414 0.24376 0.0
C567 C 0.07477 0.97886 0.37227 0.0
C568 C 0.10758 0.86325 0.42924 0.0
C569 C 0.1421 0.86842 0.45092 0.0
C570 C 0.09437 0.88471 0.38396 0.0
C571 C 0.11632 0.91206 0.36048 0.0
C572 C 0.15061 0.91846 0.38471 0.0
C573 C 0.16325 0.8962 0.42936 0.0
C574 C 0.05796 0.87646 0.35898 0.0
C575 C 0.17456 0.9477 0.36161 0.0
H576 H 0.11408 0.93067 0.15964 0.0
H577 H 0.06521 0.01072 0.26751 0.0
H578 H 0.16153 0.88714 0.25842 0.0
H579 H 0.12093 0.86286 0.2706 0.0
H580 H 0.13341 0.87522 0.1976 0.0
H581 H 0.05475 0.00057 0.36826 0.0
H582 H 0.06307 0.95711 0.39908 0.0
H583 H 0.09843 0.98941 0.39592 0.0
H584 H 0.09172 0.8412 0.44578 0.0
H585 H 0.19012 0.8996 0.44626 0.0
H586 H 0.06112 0.85914 0.31998 0.0
H587 H 0.0441 0.90117 0.34505 0.0
H588 H 0.04089 0.8621 0.39095 0.0
H589 H 0.18227 0.94151 0.31597 0.0
H590 H 0.1993 0.95084 0.38798 0.0
H591 H 0.16005 0.97359 0.36119 0.0
C592 C 0.11934 0.95117 0.82447 0.0
C593 C 0.0968 0.98108 0.82156 0.0
C594 C 0.12521 0.92946 0.77554 0.0
C595 C 0.10776 0.93753 0.72236 0.0
C596 C 0.08434 0.96723 0.71935 0.0
C597 C 0.07932 0.98885 0.76893 0.0
C598 C 0.15058 0.89814 0.78062 0.0
C599 C 0.0651 0.97669 0.66365 0.0
C600 C 0.15411 0.89985 0.58874 0.0
C601 C 0.13665 0.867 0.58239 0.0
C602 C 0.14377 0.92407 0.63238 0.0
C603 C 0.11507 0.91514 0.66997 0.0
C604 C 0.09584 0.88292 0.66087 0.0
C605 C 0.10718 0.85897 0.61747 0.0
C606 C 0.16502 0.95805 0.64067 0.0
C607 C 0.06422 0.87317 0.69843 0.0
H608 H 0.13286 0.94487 0.86499 0.0
H609 H 0.06164 0.01177 0.76641 0.0
H610 H 0.13635 0.87286 0.77032 0.0
H611 H 0.17264 0.90101 0.74858 0.0
H612 H 0.16237 0.8958 0.82493 0.0
H613 H 0.04139 0.99373 0.67231 0.0
H614 H 0.08347 0.99175 0.63472 0.0
H615 H 0.05636 0.95237 0.63977 0.0
H616 H 0.17723 0.9055 0.5618 0.0
H617 H 0.09392 0.83338 0.6121 0.0
H618 H 0.17907 0.95722 0.68328 0.0
H619 H 0.14689 0.98151 0.64146 0.0
H620 H 0.18516 0.96201 0.60566 0.0
H621 H 0.07314 0.86834 0.74387 0.0
H622 H 0.0501 0.84893 0.68231 0.0
H623 H 0.04511 0.89577 0.69948 0.0
C624 C 0.05016 0.1186 0.82268 0.0
C625 C 0.0199 0.0965 0.81928 0.0
C626 C 0.071 0.12578 0.77327 0.0
C627 C 0.06146 0.11043 0.71897 0.0
C628 C 0.03157 0.08726 0.71544 0.0
C629 C 0.01105 0.08061 0.76568 0.0
C630 C 0.10297 0.1503 0.77907 0.0
C631 C 0.02077 0.07021 0.6584 0.0
C632 C 0.09736 0.1628 0.59024 0.0
C633 C 0.12874 0.14403 0.57787 0.0
C634 C 0.07384 0.15078 0.6337 0.0
C635 C 0.08248 0.11965 0.66597 0.0
C636 C 0.11338 0.09965 0.65129 0.0
C637 C 0.1362 0.11217 0.60723 0.0
C638 C 0.04094 0.17258 0.64747 0.0
C639 C 0.12351 0.06633 0.68445 0.0
H640 H 0.05742 0.13076 0.86397 0.0
H641 H 0.98796 0.06312 0.76284 0.0
H642 H 0.12749 0.13641 0.76391 0.0
H643 H 0.09929 0.1742 0.75106 0.0
H644 H 0.10726 0.1594 0.82466 0.0
H645 H 0.00109 0.04835 0.66482 0.0
H646 H 0.00859 0.09076 0.62975 0.0
H647 H 0.04441 0.05928 0.63523 0.0
H648 H 0.09223 0.18775 0.56779 0.0
H649 H 0.16089 0.09817 0.59763 0.0
H650 H 0.04404 0.18537 0.69089 0.0
H651 H 0.01704 0.15503 0.64952 0.0
H652 H 0.03613 0.19385 0.6146 0.0
H653 H 0.13289 0.07383 0.72873 0.0
H654 H 0.1451 0.05109 0.66231 0.0
H655 H 0.09995 0.04866 0.68986 0.0
C656 C 0.91605 0.01017 0.76552 0.0
C657 C 0.90064 0.01938 0.81929 0.0
C658 C 0.90998 0.03107 0.71558 0.0
C659 C 0.88778 0.06164 0.71951 0.0
C660 C 0.87289 0.0715 0.77397 0.0
C661 C 0.87957 0.05032 0.82314 0.0
C662 C 0.92661 0.01989 0.65845 0.0
C663 C 0.84939 0.10417 0.7802 0.0
C664 C 0.88851 0.13622 0.60761 0.0
C665 C 0.85665 0.1295 0.57773 0.0
C666 C 0.90004 0.11331 0.65217 0.0
C667 C 0.87909 0.08303 0.66675 0.0
C668 C 0.84788 0.07513 0.63411 0.0
C669 C 0.8368 0.0988 0.59026 0.0
C670 C 0.93351 0.12257 0.68566 0.0
C671 C 0.82513 0.04284 0.64773 0.0
H672 H 0.93273 0.98653 0.76231 0.0
H673 H 0.86779 0.05782 0.86457 0.0
H674 H 0.90628 0.00584 0.6316 0.0
H675 H 0.93601 0.04338 0.63323 0.0
H676 H 0.94953 0.00155 0.66527 0.0
H677 H 0.84034 0.10845 0.82582 0.0
H678 H 0.86408 0.12836 0.76564 0.0
H679 H 0.82546 0.10141 0.7519 0.0
H680 H 0.90331 0.16045 0.59797 0.0
H681 H 0.81177 0.09433 0.56758 0.0
H682 H 0.95043 0.0985 0.69087 0.0
H683 H 0.92623 0.132 0.72999 0.0
H684 H 0.94939 0.1438 0.66382 0.0
H685 H 0.84194 0.01841 0.64916 0.0
H686 H 0.80352 0.03882 0.61511 0.0
H687 H 0.81275 0.04612 0.6914 0.0
C688 C 0.98411 0.91715 0.76573 0.0
C689 C 0.97555 0.90138 0.81942 0.0
C690 C 0.96345 0.91026 0.71573 0.0
C691 C 0.93355 0.88716 0.71966 0.0
C692 C 0.92421 0.87199 0.7741 0.0
C693 C 0.9453 0.8793 0.82326 0.0
C694 C 0.97431 0.92688 0.65851 0.0
C695 C 0.89219 0.8476 0.78032 0.0
C696 C 0.85909 0.88651 0.60728 0.0
C697 C 0.86651 0.85489 0.57708 0.0
C698 C 0.88165 0.89837 0.65222 0.0
C699 C 0.91226 0.87797 0.6669 0.0
C700 C 0.92084 0.84702 0.63399 0.0
C701 C 0.89753 0.83562 0.58972 0.0
C702 C 0.87174 0.93163 0.68587 0.0
C703 C 0.95357 0.82495 0.64761 0.0
H704 H 0.00717 0.93465 0.76256 0.0
H705 H 0.93825 0.86725 0.86466 0.0
H706 H 0.95067 0.9352 0.63265 0.0
H707 H 0.99171 0.95054 0.66531 0.0
H708 H 0.98936 0.90692 0.63239 0.0
H709 H 0.8886 0.83794 0.82572 0.0
H710 H 0.86756 0.86188 0.7668 0.0
H711 H 0.89519 0.82405 0.7512 0.0
H712 H 0.83465 0.90088 0.5975 0.0
H713 H 0.90259 0.81081 0.56666 0.0
H714 H 0.89544 0.94912 0.69118 0.0
H715 H 0.86252 0.92409 0.73016 0.0
H716 H 0.85017 0.94707 0.6641 0.0
H717 H 0.97766 0.84228 0.64911 0.0
H718 H 0.95799 0.80342 0.61494 0.0
H719 H 0.95058 0.8125 0.69124 0.0
C720 C 0.55441 0.61132 0.6978 0.0
C721 C 0.52387 0.58991 0.70242 0.0
C722 C 0.57531 0.61912 0.74701 0.0
C723 C 0.56631 0.60371 0.80154 0.0
C724 C 0.53613 0.58092 0.8058 0.0
C725 C 0.51473 0.575 0.75638 0.0
C726 C 0.60678 0.64416 0.74046 0.0
C727 C 0.52592 0.56317 0.86244 0.0
C728 C 0.64251 0.60617 0.91092 0.0
C729 C 0.63347 0.6363 0.94399 0.0
C730 C 0.61981 0.59386 0.86637 0.0
C731 C 0.58783 0.61275 0.85413 0.0
C732 C 0.578 0.64235 0.88929 0.0
C733 C 0.60101 0.65373 0.93393 0.0
C734 C 0.63068 0.56157 0.831 0.0
C735 C 0.54428 0.66331 0.87743 0.0
H736 H 0.56125 0.62295 0.656 0.0
H737 H 0.49118 0.55818 0.75971 0.0
H738 H 0.60852 0.6631 0.77767 0.0
H739 H 0.63187 0.62835 0.73946 0.0
H740 H 0.6051 0.65997 0.69964 0.0
H741 H 0.51101 0.53796 0.85442 0.0
H742 H 0.54967 0.55698 0.88959 0.0
H743 H 0.50833 0.58139 0.88767 0.0
H744 H 0.66785 0.593 0.91893 0.0
H745 H 0.59467 0.67749 0.95895 0.0
H746 H 0.63958 0.57026 0.78712 0.0
H747 H 0.60759 0.5433 0.82489 0.0
H748 H 0.65287 0.54655 0.85187 0.0
H749 H 0.54578 0.67546 0.83335 0.0
H750 H 0.53993 0.68494 0.90994 0.0
H751 H 0.52076 0.64523 0.8779 0.0
C752 C 0.38494 0.55495 0.6963 0.0
C753 C 0.40648 0.52455 0.70127 0.0
C754 C 0.37687 0.57597 0.74528 0.0
C755 C 0.39178 0.56695 0.80016 0.0
C756 C 0.41438 0.53672 0.80502 0.0
C757 C 0.42086 0.51535 0.75564 0.0
C758 C 0.35213 0.60761 0.73827 0.0
C759 C 0.43161 0.52699 0.86232 0.0
C760 C 0.38915 0.64304 0.91004 0.0
C761 C 0.35843 0.63443 0.94181 0.0
C762 C 0.40171 0.62018 0.86586 0.0
C763 C 0.38242 0.58854 0.85258 0.0
C764 C 0.35214 0.57916 0.88642 0.0
C765 C 0.34058 0.60227 0.93083 0.0
C766 C 0.43468 0.63059 0.83188 0.0
C767 C 0.33057 0.54594 0.87327 0.0
H768 H 0.37351 0.56166 0.65432 0.0
H769 H 0.43777 0.49189 0.75925 0.0
H770 H 0.33089 0.60717 0.77206 0.0
H771 H 0.36748 0.63278 0.74396 0.0
H772 H 0.33914 0.60807 0.69472 0.0
H773 H 0.45211 0.50572 0.85718 0.0
H774 H 0.44438 0.55085 0.88228 0.0
H775 H 0.41089 0.51753 0.89325 0.0
H776 H 0.40259 0.66819 0.91873 0.0
H777 H 0.31638 0.59629 0.95491 0.0
H778 H 0.42696 0.6384 0.78697 0.0
H779 H 0.4532 0.60753 0.82823 0.0
H780 H 0.44914 0.65334 0.8524 0.0
H781 H 0.3179 0.54859 0.82972 0.0
H782 H 0.30925 0.54124 0.90613 0.0
H783 H 0.34819 0.5221 0.87175 0.0
C784 C 0.44039 0.39439 0.69901 0.0
C785 C 0.47599 0.40547 0.70428 0.0
C786 C 0.42002 0.38551 0.7482 0.0
C787 C 0.43598 0.38684 0.80416 0.0
C788 C 0.4719 0.39831 0.80997 0.0
C789 C 0.49135 0.40789 0.75994 0.0
C790 C 0.38169 0.37371 0.73994 0.0
C791 C 0.48981 0.40024 0.86888 0.0
C792 C 0.37139 0.38593 0.93204 0.0
C793 C 0.3695 0.34932 0.94393 0.0
C794 C 0.39394 0.39887 0.88787 0.0
C795 C 0.41537 0.37452 0.85585 0.0
C796 C 0.41495 0.33769 0.87036 0.0
C797 C 0.39177 0.32551 0.91407 0.0
C798 C 0.3935 0.4382 0.87344 0.0
C799 C 0.43794 0.311 0.83816 0.0
H800 H 0.42863 0.39188 0.65628 0.0
H801 H 0.5186 0.41734 0.76435 0.0
H802 H 0.37955 0.34454 0.74814 0.0
H803 H 0.36388 0.38749 0.77147 0.0
H804 H 0.37183 0.37922 0.69516 0.0
H805 H 0.51904 0.40472 0.86515 0.0
H806 H 0.47814 0.42256 0.89449 0.0
H807 H 0.48528 0.37521 0.89375 0.0
H808 H 0.35387 0.40407 0.95538 0.0
H809 H 0.3902 0.29722 0.92407 0.0
H810 H 0.38215 0.44218 0.8292 0.0
H811 H 0.42118 0.44875 0.87281 0.0
H812 H 0.37748 0.45399 0.90514 0.0
H813 H 0.42893 0.30898 0.79217 0.0
H814 H 0.43673 0.28393 0.85804 0.0
H815 H 0.4662 0.3201 0.83766 0.0
C816 C 0.61539 0.44482 0.69396 0.0
C817 C 0.59175 0.47359 0.69904 0.0
C818 C 0.62451 0.42416 0.74274 0.0
C819 C 0.60812 0.43137 0.79731 0.0
C820 C 0.5834 0.46004 0.80212 0.0
C821 C 0.57615 0.4813 0.75309 0.0
C822 C 0.65187 0.39476 0.73559 0.0
C823 C 0.56433 0.46888 0.85835 0.0
C824 C 0.61603 0.35274 0.90168 0.0
C825 C 0.6424 0.36501 0.93999 0.0
C826 C 0.60348 0.37438 0.85617 0.0
C827 C 0.61777 0.40932 0.84902 0.0
C828 C 0.64368 0.42218 0.88912 0.0
C829 C 0.65558 0.39983 0.93425 0.0
C830 C 0.57637 0.35839 0.81489 0.0
C831 C 0.66029 0.45879 0.88255 0.0
H832 H 0.62762 0.43917 0.65209 0.0
H833 H 0.55763 0.50351 0.75679 0.0
H834 H 0.67006 0.39343 0.77377 0.0
H835 H 0.63789 0.36867 0.73179 0.0
H836 H 0.66835 0.39864 0.69581 0.0
H837 H 0.56653 0.44757 0.8917 0.0
H838 H 0.57564 0.49392 0.87673 0.0
H839 H 0.53555 0.47393 0.84963 0.0
H840 H 0.60617 0.32559 0.90616 0.0
H841 H 0.67668 0.40879 0.96312 0.0
H842 H 0.58886 0.33575 0.79103 0.0
H843 H 0.56586 0.37764 0.78259 0.0
H844 H 0.55362 0.34715 0.84005 0.0
H845 H 0.67071 0.46231 0.83759 0.0
H846 H 0.68249 0.46334 0.9139 0.0
H847 H 0.63968 0.47962 0.88996 0.0
C848 C 0.57824 0.48709 0.26023 0.0
C849 C 0.59315 0.47755 0.31416 0.0
C850 C 0.58539 0.46691 0.20974 0.0
C851 C 0.60798 0.43664 0.21344 0.0
C852 C 0.62192 0.42613 0.26819 0.0
C853 C 0.61435 0.4467 0.3178 0.0
C854 C 0.56968 0.47862 0.15225 0.0
C855 C 0.64552 0.39353 0.27421 0.0
C856 C 0.61265 0.36444 0.09724 0.0
C857 C 0.64576 0.37197 0.07179 0.0
C858 C 0.59887 0.3864 0.14156 0.0
C859 C 0.6187 0.41667 0.16009 0.0
C860 C 0.65112 0.42553 0.13154 0.0
C861 C 0.66457 0.40264 0.08828 0.0
C862 C 0.56448 0.37571 0.17122 0.0
C863 C 0.67272 0.45791 0.14921 0.0
H864 H 0.56127 0.51052 0.25729 0.0
H865 H 0.62564 0.43885 0.35938 0.0
H866 H 0.5909 0.49131 0.12548 0.0
H867 H 0.5593 0.45538 0.1273 0.0
H868 H 0.54766 0.49816 0.15832 0.0
H869 H 0.65321 0.38831 0.3202 0.0
H870 H 0.63155 0.36957 0.25687 0.0
H871 H 0.67028 0.39714 0.2482 0.0
H872 H 0.59872 0.34017 0.08478 0.0
H873 H 0.69055 0.40774 0.06905 0.0
H874 H 0.54901 0.35613 0.14483 0.0
H875 H 0.54753 0.39944 0.17974 0.0
H876 H 0.5707 0.36333 0.21396 0.0
H877 H 0.65532 0.4819 0.15149 0.0
H878 H 0.69499 0.46332 0.11838 0.0
H879 H 0.68416 0.45365 0.1933 0.0
C880 C 0.50763 0.58351 0.2632 0.0
C881 C 0.51678 0.59909 0.31689 0.0
C882 C 0.52862 0.58942 0.21323 0.0
C883 C 0.55922 0.61163 0.21709 0.0
C884 C 0.56903 0.62667 0.27149 0.0
C885 C 0.54777 0.62015 0.32066 0.0
C886 C 0.51753 0.5726 0.15616 0.0
C887 C 0.6018 0.65007 0.27768 0.0
C888 C 0.63379 0.61037 0.10495 0.0
C889 C 0.62742 0.64236 0.07537 0.0
C890 C 0.61082 0.59901 0.14958 0.0
C891 C 0.5807 0.62017 0.16431 0.0
C892 C 0.57312 0.65148 0.13186 0.0
C893 C 0.59696 0.6625 0.08819 0.0
C894 C 0.61993 0.56557 0.1831 0.0
C895 C 0.54098 0.67441 0.14553 0.0
H896 H 0.48403 0.56675 0.26012 0.0
H897 H 0.55526 0.63203 0.36205 0.0
H898 H 0.50392 0.59296 0.12891 0.0
H899 H 0.54105 0.56286 0.13132 0.0
H900 H 0.49889 0.54989 0.16297 0.0
H901 H 0.60579 0.65962 0.32312 0.0
H902 H 0.62597 0.63505 0.26397 0.0
H903 H 0.59947 0.67371 0.24871 0.0
H904 H 0.65788 0.59539 0.09519 0.0
H905 H 0.59277 0.68763 0.06574 0.0
H906 H 0.64065 0.5493 0.16072 0.0
H907 H 0.5957 0.54901 0.1893 0.0
H908 H 0.63 0.57297 0.22701 0.0
H909 H 0.51646 0.6577 0.14717 0.0
H910 H 0.53705 0.69595 0.11281 0.0
H911 H 0.54436 0.68693 0.1891 0.0
C912 C 0.4154 0.51285 0.26228 0.0
C913 C 0.39997 0.52183 0.31613 0.0
C914 C 0.40846 0.5333 0.21214 0.0
C915 C 0.38547 0.56328 0.21599 0.0
C916 C 0.37058 0.57297 0.27053 0.0
C917 C 0.37805 0.55218 0.31988 0.0
C918 C 0.42499 0.52216 0.15493 0.0
C919 C 0.3463 0.60505 0.27664 0.0
C920 C 0.38474 0.6373 0.10297 0.0
C921 C 0.35294 0.62992 0.07335 0.0
C922 C 0.39666 0.61488 0.14793 0.0
C923 C 0.3762 0.58436 0.16312 0.0
C924 C 0.34507 0.57578 0.13072 0.0
C925 C 0.33355 0.59902 0.08654 0.0
C926 C 0.42998 0.62494 0.1812 0.0
C927 C 0.32296 0.54312 0.14478 0.0
H928 H 0.43276 0.4897 0.25914 0.0
H929 H 0.36625 0.55953 0.36136 0.0
H930 H 0.40515 0.50655 0.12941 0.0
H931 H 0.4329 0.54567 0.12843 0.0
H932 H 0.44892 0.5052 0.16184 0.0
H933 H 0.33728 0.60926 0.32228 0.0
H934 H 0.36035 0.62954 0.26172 0.0
H935 H 0.32235 0.6016 0.24858 0.0
H936 H 0.39917 0.66167 0.09284 0.0
H937 H 0.3086 0.59399 0.0639 0.0
H938 H 0.447 0.60109 0.18791 0.0
H939 H 0.42247 0.63528 0.22488 0.0
H940 H 0.44585 0.64578 0.15834 0.0
H941 H 0.34023 0.519 0.14602 0.0
H942 H 0.30125 0.53868 0.11249 0.0
H943 H 0.31078 0.54622 0.18862 0.0
C944 C 0.44924 0.37746 0.31682 0.0
C945 C 0.47916 0.40004 0.31442 0.0
C946 C 0.42789 0.37153 0.26753 0.0
C947 C 0.43631 0.38901 0.21454 0.0
C948 C 0.46596 0.41255 0.21207 0.0
C949 C 0.48726 0.41757 0.26197 0.0
C950 C 0.39663 0.34601 0.272 0.0
C951 C 0.47561 0.43195 0.15661 0.0
C952 C 0.39935 0.34213 0.08085 0.0
C953 C 0.36637 0.35926 0.0745 0.0
C954 C 0.42345 0.35284 0.1244 0.0
C955 C 0.41431 0.38162 0.16179 0.0
C956 C 0.38207 0.40068 0.1524 0.0
C957 C 0.35822 0.38895 0.10914 0.0
C958 C 0.45746 0.33177 0.133 0.0
C959 C 0.37194 0.43225 0.18993 0.0
H960 H 0.44271 0.36389 0.35718 0.0
H961 H 0.5102 0.43529 0.25987 0.0
H962 H 0.37143 0.35998 0.26064 0.0
H963 H 0.40005 0.32374 0.24041 0.0
H964 H 0.39376 0.33452 0.31641 0.0
H965 H 0.49332 0.4552 0.16533 0.0
H966 H 0.48989 0.4134 0.12689 0.0
H967 H 0.45134 0.4414 0.13348 0.0
H968 H 0.40517 0.31892 0.0541 0.0
H969 H 0.33255 0.40199 0.10375 0.0
H970 H 0.45623 0.31735 0.17523 0.0
H971 H 0.4808 0.35003 0.13486 0.0
H972 H 0.46188 0.31193 0.09761 0.0
H973 H 0.36449 0.42286 0.23416 0.0
H974 H 0.34908 0.44745 0.17147 0.0
H975 H 0.39508 0.45053 0.19477 0.0
loop_
_geom_bond_atom_site_label_1
_geom_bond_atom_site_label_2
_geom_bond_distance
_geom_bond_site_symmetry_2
_ccdc_geom_bond_type
Zn0 O2 1.933 1_556 S
Zn0 O20 1.985 . S
Zn0 O31 1.955 . S
Zn1 O2 1.911 . S
Zn1 O21 1.970 . S
Zn1 O37 1.945 . S
Zn1 O44 1.981 . S
O2 Zn0 1.933 1_554 S
O2 Zn1 1.911 . S
O2 H3 0.841 1_655 S
H3 O2 0.841 1_455 S
C4 O5 1.246 . S
C4 O33 1.276 1_545 S
O5 C4 1.246 . S
Zn6 O8 1.911 . S
Zn6 O23 1.970 . S
Zn6 O40 1.945 . S
Zn6 O47 1.981 . S
Zn7 O8 1.933 1_556 S
Zn7 O22 1.985 . S
Zn7 O29 1.955 . S
O8 Zn6 1.911 . S
O8 Zn7 1.933 1_554 S
O8 H9 0.841 1_455 S
H9 O8 0.841 1_655 S
Zn10 O11 1.933 1_556 S
Zn10 O24 1.985 . S
Zn10 O33 1.955 . S
O11 Zn10 1.933 1_554 S
O11 Zn12 1.911 . S
O11 H13 0.841 1_565 S
Zn12 O11 1.911 . S
Zn12 O25 1.970 . S
Zn12 O41 1.981 . S
Zn12 O43 1.945 . S
H13 O11 0.841 1_545 S
Zn14 O15 1.933 1_556 S
Zn14 O27 1.985 . S
Zn14 O35 1.955 . S
O15 Zn14 1.933 1_554 S
O15 H16 0.841 1_545 S
O15 Zn17 1.911 . S
H16 O15 0.841 1_565 S
Zn17 O15 1.911 . S
Zn17 O28 1.970 . S
Zn17 O38 1.981 . S
Zn17 O46 1.945 . S
C18 O19 1.246 . S
C18 O35 1.276 1_565 S
O19 C18 1.246 . S
O20 Zn0 1.985 . S
O20 C30 1.245 1_556 S
O21 Zn1 1.970 . S
O21 C30 1.263 . S
O22 Zn7 1.985 . S
O22 C34 1.245 1_556 S
O23 Zn6 1.970 . S
O23 C34 1.263 . S
O24 Zn10 1.985 . S
O24 C39 1.245 1_556 S
O25 Zn12 1.970 . S
O25 C39 1.263 . S
C26 O37 1.262 1_455 S
C26 O38 1.245 . S
O27 Zn14 1.985 . S
O27 C45 1.245 1_556 S
O28 Zn17 1.970 . S
O28 C45 1.263 . S
O29 Zn7 1.955 . S
O29 C48 1.276 1_455 S
C30 O20 1.245 1_554 S
C30 O21 1.263 . S
O31 Zn0 1.955 . S
O31 C50 1.276 1_655 S
C32 O40 1.262 1_655 S
C32 O41 1.245 . S
O33 C4 1.276 1_565 S
O33 Zn10 1.955 . S
C34 O22 1.245 1_554 S
C34 O23 1.263 . S
O35 Zn14 1.955 . S
O35 C18 1.276 1_545 S
C36 O43 1.262 1_545 S
C36 O44 1.245 . S
O37 Zn1 1.945 . S
O37 C26 1.262 1_655 S
O38 Zn17 1.981 . S
O38 C26 1.245 . S
C39 O24 1.245 1_554 S
C39 O25 1.263 . S
O40 Zn6 1.945 . S
O40 C32 1.262 1_455 S
O41 Zn12 1.981 . S
O41 C32 1.245 . S
C42 O46 1.262 1_565 S
C42 O47 1.245 . S
O43 Zn12 1.945 . S
O43 C36 1.262 1_565 S
O44 Zn1 1.981 . S
O44 C36 1.245 . S
C45 O27 1.245 1_554 S
C45 O28 1.263 . S
O46 Zn17 1.945 . S
O46 C42 1.262 1_545 S
O47 Zn6 1.981 . S
O47 C42 1.245 . S
C48 O29 1.276 1_655 S
C48 O49 1.246 . S
O49 C48 1.246 . S
C50 O31 1.276 1_455 S
C50 O51 1.246 . S
O51 C50 1.246 . S
Zn52 O54 1.933 . S
Zn52 O72 1.985 . S
Zn52 O83 1.955 . S
Zn53 O54 1.911 . S
Zn53 O73 1.970 . S
Zn53 O89 1.945 . S
Zn53 O96 1.981 . S
O54 Zn52 1.933 . S
O54 Zn53 1.911 . S
O54 H55 0.841 . S
H55 O54 0.841 . S
C56 O57 1.246 . S
C56 O85 1.276 . S
O57 C56 1.246 . S
Zn58 O60 1.911 . S
Zn58 O75 1.970 . S
Zn58 O92 1.945 . S
Zn58 O99 1.981 . S
Zn59 O60 1.933 . S
Zn59 O74 1.985 . S
Zn59 O81 1.955 . S
O60 Zn58 1.911 . S
O60 Zn59 1.933 . S
O60 H61 0.841 . S
H61 O60 0.841 . S
Zn62 O63 1.933 . S
Zn62 O76 1.985 . S
Zn62 O85 1.955 . S
O63 Zn62 1.933 . S
O63 Zn64 1.911 . S
O63 H65 0.841 . S
Zn64 O63 1.911 . S
Zn64 O77 1.970 . S
Zn64 O93 1.981 . S
Zn64 O95 1.945 . S
H65 O63 0.841 . S
Zn66 O67 1.933 . S
Zn66 O79 1.985 . S
Zn66 O87 1.955 . S
O67 Zn66 1.933 . S
O67 H68 0.841 . S
O67 Zn69 1.911 . S
H68 O67 0.841 . S
Zn69 O67 1.911 . S
Zn69 O80 1.970 . S
Zn69 O90 1.981 . S
Zn69 O98 1.945 . S
C70 O71 1.246 . S
C70 O87 1.276 . S
O71 C70 1.246 . S
O72 Zn52 1.985 . S
O72 C82 1.245 . S
O73 Zn53 1.970 . S
O73 C82 1.263 . S
O74 Zn59 1.985 . S
O74 C86 1.245 . S
O75 Zn58 1.970 . S
O75 C86 1.263 . S
O76 Zn62 1.985 . S
O76 C91 1.245 . S
O77 Zn64 1.970 . S
O77 C91 1.263 . S
C78 O89 1.262 . S
C78 O90 1.245 . S
O79 Zn66 1.985 . S
O79 C97 1.245 . S
O80 Zn69 1.970 . S
O80 C97 1.263 . S
O81 Zn59 1.955 . S
O81 C100 1.276 . S
C82 O72 1.245 . S
C82 O73 1.263 . S
O83 Zn52 1.955 . S
O83 C102 1.276 . S
C84 O92 1.262 . S
C84 O93 1.245 . S
O85 C56 1.276 . S
O85 Zn62 1.955 . S
C86 O74 1.245 . S
C86 O75 1.263 . S
O87 Zn66 1.955 . S
O87 C70 1.276 . S
C88 O95 1.262 . S
C88 O96 1.245 . S
O89 Zn53 1.945 . S
O89 C78 1.262 . S
O90 Zn69 1.981 . S
O90 C78 1.245 . S
C91 O76 1.245 . S
C91 O77 1.263 . S
O92 Zn58 1.945 . S
O92 C84 1.262 . S
O93 Zn64 1.981 . S
O93 C84 1.245 . S
C94 O98 1.262 . S
C94 O99 1.245 . S
O95 Zn64 1.945 . S
O95 C88 1.262 . S
O96 Zn53 1.981 . S
O96 C88 1.245 . S
C97 O79 1.245 . S
C97 O80 1.263 . S
O98 Zn69 1.945 . S
O98 C94 1.262 . S
O99 Zn58 1.981 . S
O99 C94 1.245 . S
C100 O81 1.276 . S
C100 O101 1.246 . S
O101 C100 1.246 . S
C102 O83 1.276 . S
C102 O103 1.246 . S
O103 C102 1.246 . S
C104 N105 1.317 . S
C104 N106 1.348 1_556 S
C104 C107 1.485 . S
N105 C104 1.317 . S
N105 N109 1.370 1_556 S
N106 C104 1.348 1_554 S
N106 C108 1.346 . S
C107 C104 1.485 . S
C107 H111 0.960 . S
C107 H112 0.961 . S
C107 H113 0.960 . S
C108 N106 1.346 . S
C108 N109 1.307 . S
C108 C110 1.486 . S
N109 N105 1.370 1_554 S
N109 C108 1.307 . S
C110 C108 1.486 . S
C110 H114 0.960 . S
C110 H115 0.960 . S
C110 H116 0.959 . S
H111 C107 0.960 . S
H112 C107 0.961 . S
H113 C107 0.960 . S
H114 C110 0.960 . S
H115 C110 0.960 . S
H116 C110 0.959 . S
C117 N118 1.317 . S
C117 N119 1.348 1_556 S
C117 C120 1.485 . S
N118 C117 1.317 . S
N118 N122 1.370 1_556 S
N119 C117 1.348 1_554 S
N119 C121 1.346 . S
C120 C117 1.485 . S
C120 H124 0.960 . S
C120 H125 0.961 . S
C120 H126 0.960 . S
C121 N119 1.346 . S
C121 N122 1.307 . S
C121 C123 1.486 . S
N122 N118 1.370 1_554 S
N122 C121 1.307 . S
C123 C121 1.486 . S
C123 H127 0.960 . S
C123 H128 0.960 . S
C123 H129 0.959 . S
H124 C120 0.960 . S
H125 C120 0.961 . S
H126 C120 0.960 . S
H127 C123 0.960 . S
H128 C123 0.960 . S
H129 C123 0.959 . S
C130 N131 1.317 . S
C130 N132 1.348 . S
C130 C133 1.485 . S
N131 C130 1.317 . S
N131 N135 1.370 1_554 S
N132 C130 1.348 . S
N132 C134 1.346 1_554 S
C133 C130 1.485 . S
C133 H137 0.960 . S
C133 H138 0.961 . S
C133 H139 0.960 . S
C134 N132 1.346 1_556 S
C134 N135 1.307 . S
C134 C136 1.486 . S
N135 N131 1.370 1_556 S
N135 C134 1.307 . S
C136 C134 1.486 . S
C136 H140 0.960 . S
C136 H141 0.960 . S
C136 H142 0.959 . S
H137 C133 0.960 . S
H138 C133 0.961 . S
H139 C133 0.960 . S
H140 C136 0.960 . S
H141 C136 0.960 . S
H142 C136 0.959 . S
C143 N144 1.317 . S
C143 N145 1.348 . S
C143 C146 1.485 . S
N144 C143 1.317 . S
N144 N148 1.370 1_554 S
N145 C143 1.348 . S
N145 C147 1.346 1_554 S
C146 C143 1.485 . S
C146 H150 0.960 . S
C146 H151 0.961 . S
C146 H152 0.960 . S
C147 N145 1.346 1_556 S
C147 N148 1.307 . S
C147 C149 1.486 . S
N148 N144 1.370 1_556 S
N148 C147 1.307 . S
C149 C147 1.486 . S
C149 H153 0.960 . S
C149 H154 0.960 . S
C149 H155 0.959 . S
H150 C146 0.960 . S
H151 C146 0.961 . S
H152 C146 0.960 . S
H153 C149 0.960 . S
H154 C149 0.960 . S
H155 C149 0.959 . S
C156 N157 1.317 . S
C156 N158 1.348 . S
C156 C159 1.485 . S
N157 C156 1.317 . S
N157 N161 1.370 . S
N158 C156 1.348 . S
N158 C160 1.346 . S
C159 C156 1.485 . S
C159 H163 0.960 . S
C159 H164 0.961 . S
C159 H165 0.960 . S
C160 N158 1.346 . S
C160 N161 1.307 . S
C160 C162 1.486 . S
N161 N157 1.370 . S
N161 C160 1.307 . S
C162 C160 1.486 . S
C162 H166 0.960 . S
C162 H167 0.960 . S
C162 H168 0.959 . S
H163 C159 0.960 . S
H164 C159 0.961 . S
H165 C159 0.960 . S
H166 C162 0.960 . S
H167 C162 0.960 . S
H168 C162 0.959 . S
C169 N170 1.317 . S
C169 N171 1.348 . S
C169 C172 1.485 . S
N170 C169 1.317 . S
N170 N174 1.370 . S
N171 C169 1.348 . S
N171 C173 1.346 . S
C172 C169 1.485 . S
C172 H176 0.960 . S
C172 H177 0.961 . S
C172 H178 0.960 . S
C173 N171 1.346 . S
C173 N174 1.307 . S
C173 C175 1.486 . S
N174 N170 1.370 . S
N174 C173 1.307 . S
C175 C173 1.486 . S
C175 H179 0.960 . S
C175 H180 0.960 . S
C175 H181 0.959 . S
H176 C172 0.960 . S
H177 C172 0.961 . S
H178 C172 0.960 . S
H179 C175 0.960 . S
H180 C175 0.960 . S
H181 C175 0.959 . S
C182 N183 1.317 . S
C182 N184 1.348 . S
C182 C185 1.485 . S
N183 C182 1.317 . S
N183 N187 1.370 . S
N184 C182 1.348 . S
N184 C186 1.346 . S
C185 C182 1.485 . S
C185 H189 0.960 . S
C185 H190 0.961 . S
C185 H191 0.960 . S
C186 N184 1.346 . S
C186 N187 1.307 . S
C186 C188 1.486 . S
N187 N183 1.370 . S
N187 C186 1.307 . S
C188 C186 1.486 . S
C188 H192 0.960 . S
C188 H193 0.960 . S
C188 H194 0.959 . S
H189 C185 0.960 . S
H190 C185 0.961 . S
H191 C185 0.960 . S
H192 C188 0.960 . S
H193 C188 0.960 . S
H194 C188 0.959 . S
C195 N196 1.317 . S
C195 N197 1.348 . S
C195 C198 1.485 . S
N196 C195 1.317 . S
N196 N200 1.370 . S
N197 C195 1.348 . S
N197 C199 1.346 . S
C198 C195 1.485 . S
C198 H202 0.960 . S
C198 H203 0.961 . S
C198 H204 0.960 . S
C199 N197 1.346 . S
C199 N200 1.307 . S
C199 C201 1.486 . S
N200 N196 1.370 . S
N200 C199 1.307 . S
C201 C199 1.486 . S
C201 H205 0.960 . S
C201 H206 0.960 . S
C201 H207 0.959 . S
H202 C198 0.960 . S
H203 C198 0.961 . S
H204 C198 0.960 . S
H205 C201 0.960 . S
H206 C201 0.960 . S
H207 C201 0.959 . S
C208 C209 1.391 1_556 S
C208 C210 1.394 . S
C208 H224 0.931 . S
C209 C208 1.391 1_554 S
C209 C213 1.376 . S
C210 C208 1.394 . S
C210 C211 1.369 1_556 S
C210 C214 1.531 . S
C211 C210 1.369 1_554 S
C211 C212 1.410 . S
C211 C219 1.503 . S
C212 C211 1.410 . S
C212 C213 1.392 . S
C212 C215 1.511 . S
C213 C209 1.376 . S
C213 C212 1.392 . S
C213 H225 0.929 . S
C214 C210 1.531 . S
C214 H226 0.960 . S
C214 H227 0.962 . S
C214 H228 0.960 . S
C215 C212 1.511 . S
C215 H229 0.961 . S
C215 H230 0.961 . S
C215 H231 0.961 . S
C216 C217 1.370 . S
C216 C218 1.363 . S
C216 H232 0.931 . S
C217 C216 1.370 . S
C217 C221 1.408 1_554 S
C218 C216 1.363 . S
C218 C219 1.370 . S
C218 C222 1.524 . S
C219 C211 1.503 . S
C219 C218 1.370 . S
C219 C220 1.403 1_554 S
C220 C219 1.403 1_556 S
C220 C221 1.404 . S
C220 C223 1.539 . S
C221 C217 1.408 1_556 S
C221 C220 1.404 . S
C221 H233 0.930 . S
C222 C218 1.524 . S
C222 H234 0.956 . S
C222 H235 0.961 . S
C222 H236 0.961 . S
C223 C220 1.539 . S
C223 H237 0.958 . S
C223 H238 0.961 . S
C223 H239 0.960 . S
H224 C208 0.931 . S
H225 C213 0.929 . S
H226 C214 0.960 . S
H227 C214 0.962 . S
H228 C214 0.960 . S
H229 C215 0.961 . S
H230 C215 0.961 . S
H231 C215 0.961 . S
H232 C216 0.931 . S
H233 C221 0.930 . S
H234 C222 0.956 . S
H235 C222 0.961 . S
H236 C222 0.961 . S
H237 C223 0.958 . S
H238 C223 0.961 . S
H239 C223 0.960 . S
C240 C241 1.391 . S
C240 C242 1.394 . S
C240 H256 0.931 . S
C241 C240 1.391 . S
C241 C245 1.376 . S
C242 C240 1.394 . S
C242 C243 1.369 . S
C242 C246 1.531 . S
C243 C242 1.369 . S
C243 C244 1.410 . S
C243 C251 1.503 . S
C244 C243 1.410 . S
C244 C245 1.392 . S
C244 C247 1.511 1_554 S
C245 C241 1.376 . S
C245 C244 1.392 . S
C245 H257 0.929 1_554 S
C246 C242 1.531 . S
C246 H258 0.960 . S
C246 H259 0.962 . S
C246 H260 0.960 . S
C247 C244 1.511 1_556 S
C247 H261 0.961 . S
C247 H262 0.961 . S
C247 H263 0.961 1_556 S
C248 C249 1.370 1_556 S
C248 C250 1.363 . S
C248 H264 0.931 . S
C249 C248 1.370 1_554 S
C249 C253 1.408 . S
C250 C248 1.363 . S
C250 C251 1.370 1_556 S
C250 C254 1.524 . S
C251 C243 1.503 . S
C251 C250 1.370 1_554 S
C251 C252 1.403 . S
C252 C251 1.403 . S
C252 C253 1.404 . S
C252 C255 1.539 . S
C253 C249 1.408 . S
C253 C252 1.404 . S
C253 H265 0.930 . S
C254 C250 1.524 . S
C254 H266 0.956 . S
C254 H267 0.961 . S
C254 H268 0.961 . S
C255 C252 1.539 . S
C255 H269 0.958 . S
C255 H270 0.961 . S
C255 H271 0.960 . S
H256 C240 0.931 . S
H257 C245 0.929 1_556 S
H258 C246 0.960 . S
H259 C246 0.962 . S
H260 C246 0.960 . S
H261 C247 0.961 . S
H262 C247 0.961 . S
H263 C247 0.961 1_554 S
H264 C248 0.931 . S
H265 C253 0.930 . S
H266 C254 0.956 . S
H267 C254 0.961 . S
H268 C254 0.961 . S
H269 C255 0.958 . S
H270 C255 0.961 . S
H271 C255 0.960 . S
C272 C273 1.391 . S
C272 C274 1.394 . S
C272 H288 0.931 . S
C273 C272 1.391 . S
C273 C277 1.377 . S
C274 C272 1.394 . S
C274 C275 1.368 1_554 S
C274 C278 1.531 1_554 S
C275 C274 1.368 1_556 S
C275 C276 1.410 . S
C275 C283 1.503 1_556 S
C276 C275 1.410 . S
C276 C277 1.391 1_556 S
C276 C279 1.511 . S
C277 C273 1.377 . S
C277 C276 1.391 1_554 S
C277 H289 0.929 . S
C278 C274 1.531 1_556 S
C278 H290 0.962 . S
C278 H291 0.958 1_556 S
C278 H292 0.962 . S
C279 C276 1.511 . S
C279 H293 0.961 1_556 S
C279 H294 0.961 1_556 S
C279 H295 0.961 . S
C280 C281 1.370 . S
C280 C282 1.363 . S
C280 H296 0.931 . S
C281 C280 1.370 . S
C281 C285 1.408 1_554 S
C282 C280 1.363 . S
C282 C283 1.371 . S
C282 C286 1.524 . S
C283 C275 1.503 1_554 S
C283 C282 1.371 . S
C283 C284 1.402 1_554 S
C284 C283 1.402 1_556 S
C284 C285 1.404 . S
C284 C287 1.539 . S
C285 C281 1.408 1_556 S
C285 C284 1.404 . S
C285 H297 0.930 . S
C286 C282 1.524 . S
C286 H298 0.956 . S
C286 H299 0.961 . S
C286 H300 0.961 . S
C287 C284 1.539 . S
C287 H301 0.958 . S
C287 H302 0.961 . S
C287 H303 0.960 . S
H288 C272 0.931 . S
H289 C277 0.929 . S
H290 C278 0.962 . S
H291 C278 0.958 1_554 S
H292 C278 0.962 . S
H293 C279 0.961 1_554 S
H294 C279 0.961 1_554 S
H295 C279 0.961 . S
H296 C280 0.931 . S
H297 C285 0.930 . S
H298 C286 0.956 . S
H299 C286 0.961 . S
H300 C286 0.961 . S
H301 C287 0.958 . S
H302 C287 0.961 . S
H303 C287 0.960 . S
C304 C305 1.391 . S
C304 C306 1.394 . S
C304 H320 0.931 . S
C305 C304 1.391 . S
C305 C309 1.376 1_554 S
C306 C304 1.394 . S
C306 C307 1.369 . S
C306 C310 1.531 . S
C307 C306 1.369 . S
C307 C308 1.410 . S
C307 C315 1.503 . S
C308 C307 1.410 . S
C308 C309 1.392 1_554 S
C308 C311 1.511 1_554 S
C309 C305 1.376 1_556 S
C309 C308 1.392 1_556 S
C309 H321 0.929 . S
C310 C306 1.531 . S
C310 H322 0.960 . S
C310 H323 0.962 . S
C310 H324 0.960 . S
C311 C308 1.511 1_556 S
C311 H325 0.961 . S
C311 H326 0.961 . S
C311 H327 0.961 1_556 S
C312 C313 1.370 1_556 S
C312 C314 1.363 . S
C312 H328 0.931 . S
C313 C312 1.370 1_554 S
C313 C317 1.408 . S
C314 C312 1.363 . S
C314 C315 1.370 1_556 S
C314 C318 1.524 . S
C315 C307 1.503 . S
C315 C314 1.370 1_554 S
C315 C316 1.403 . S
C316 C315 1.403 . S
C316 C317 1.404 . S
C316 C319 1.539 . S
C317 C313 1.408 . S
C317 C316 1.404 . S
C317 H329 0.930 . S
C318 C314 1.524 . S
C318 H330 0.956 . S
C318 H331 0.961 . S
C318 H332 0.961 . S
C319 C316 1.539 . S
C319 H333 0.958 . S
C319 H334 0.961 . S
C319 H335 0.960 . S
H320 C304 0.931 . S
H321 C309 0.929 . S
H322 C310 0.960 . S
H323 C310 0.962 . S
H324 C310 0.960 . S
H325 C311 0.961 . S
H326 C311 0.961 . S
H327 C311 0.961 1_554 S
H328 C312 0.931 . S
H329 C317 0.930 . S
H330 C318 0.956 . S
H331 C318 0.961 . S
H332 C318 0.961 . S
H333 C319 0.958 . S
H334 C319 0.961 . S
H335 C319 0.960 . S
C336 C337 1.391 . S
C336 C338 1.394 . S
C336 H352 0.931 . S
C337 C336 1.391 . S
C337 C341 1.376 . S
C338 C336 1.394 . S
C338 C339 1.369 . S
C338 C342 1.531 . S
C339 C338 1.369 . S
C339 C340 1.410 . S
C339 C347 1.503 . S
C340 C339 1.410 . S
C340 C341 1.392 . S
C340 C343 1.511 . S
C341 C337 1.376 . S
C341 C340 1.392 . S
C341 H353 0.929 . S
C342 C338 1.531 . S
C342 H354 0.960 . S
C342 H355 0.962 . S
C342 H356 0.960 . S
C343 C340 1.511 . S
C343 H357 0.961 . S
C343 H358 0.961 . S
C343 H359 0.961 . S
C344 C345 1.370 . S
C344 C346 1.363 . S
C344 H360 0.931 . S
C345 C344 1.370 . S
C345 C349 1.408 . S
C346 C344 1.363 . S
C346 C347 1.370 . S
C346 C350 1.524 . S
C347 C339 1.503 . S
C347 C346 1.370 . S
C347 C348 1.403 . S
C348 C347 1.403 . S
C348 C349 1.404 . S
C348 C351 1.539 . S
C349 C345 1.408 . S
C349 C348 1.404 . S
C349 H361 0.930 . S
C350 C346 1.524 . S
C350 H362 0.956 . S
C350 H363 0.961 . S
C350 H364 0.961 . S
C351 C348 1.539 . S
C351 H365 0.958 . S
C351 H366 0.961 . S
C351 H367 0.960 . S
H352 C336 0.931 . S
H353 C341 0.929 . S
H354 C342 0.960 . S
H355 C342 0.962 . S
H356 C342 0.960 . S
H357 C343 0.961 . S
H358 C343 0.961 . S
H359 C343 0.961 . S
H360 C344 0.931 . S
H361 C349 0.930 . S
H362 C350 0.956 . S
H363 C350 0.961 . S
H364 C350 0.961 . S
H365 C351 0.958 . S
H366 C351 0.961 . S
H367 C351 0.960 . S
C368 C369 1.391 . S
C368 C370 1.394 . S
C368 H384 0.931 . S
C369 C368 1.391 . S
C369 C373 1.376 . S
C370 C368 1.394 . S
C370 C371 1.369 . S
C370 C374 1.531 . S
C371 C370 1.369 . S
C371 C372 1.410 . S
C371 C379 1.503 . S
C372 C371 1.410 . S
C372 C373 1.392 . S
C372 C375 1.511 . S
C373 C369 1.376 . S
C373 C372 1.392 . S
C373 H385 0.929 . S
C374 C370 1.531 . S
C374 H386 0.960 . S
C374 H387 0.962 . S
C374 H388 0.960 . S
C375 C372 1.511 . S
C375 H389 0.961 . S
C375 H390 0.961 . S
C375 H391 0.961 . S
C376 C377 1.370 . S
C376 C378 1.363 . S
C376 H392 0.931 . S
C377 C376 1.370 . S
C377 C381 1.408 . S
C378 C376 1.363 . S
C378 C379 1.370 . S
C378 C382 1.524 . S
C379 C371 1.503 . S
C379 C378 1.370 . S
C379 C380 1.403 . S
C380 C379 1.403 . S
C380 C381 1.404 . S
C380 C383 1.539 . S
C381 C377 1.408 . S
C381 C380 1.404 . S
C381 H393 0.930 . S
C382 C378 1.524 . S
C382 H394 0.956 . S
C382 H395 0.961 . S
C382 H396 0.961 . S
C383 C380 1.539 . S
C383 H397 0.958 . S
C383 H398 0.961 . S
C383 H399 0.960 . S
H384 C368 0.931 . S
H385 C373 0.929 . S
H386 C374 0.960 . S
H387 C374 0.962 . S
H388 C374 0.960 . S
H389 C375 0.961 . S
H390 C375 0.961 . S
H391 C375 0.961 . S
H392 C376 0.931 . S
H393 C381 0.930 . S
H394 C382 0.956 . S
H395 C382 0.961 . S
H396 C382 0.961 . S
H397 C383 0.958 . S
H398 C383 0.961 . S
H399 C383 0.960 . S
C400 C401 1.391 . S
C400 C402 1.394 . S
C400 H416 0.931 . S
C401 C400 1.391 . S
C401 C405 1.376 . S
C402 C400 1.394 . S
C402 C403 1.369 . S
C402 C406 1.531 . S
C403 C402 1.369 . S
C403 C404 1.410 . S
C403 C411 1.503 . S
C404 C403 1.410 . S
C404 C405 1.392 . S
C404 C407 1.511 . S
C405 C401 1.376 . S
C405 C404 1.392 . S
C405 H417 0.929 . S
C406 C402 1.531 . S
C406 H418 0.960 . S
C406 H419 0.962 . S
C406 H420 0.960 . S
C407 C404 1.511 . S
C407 H421 0.961 . S
C407 H422 0.961 . S
C407 H423 0.961 . S
C408 C409 1.370 . S
C408 C410 1.363 . S
C408 H424 0.931 . S
C409 C408 1.370 . S
C409 C413 1.408 . S
C410 C408 1.363 . S
C410 C411 1.370 . S
C410 C414 1.524 . S
C411 C403 1.503 . S
C411 C410 1.370 . S
C411 C412 1.403 . S
C412 C411 1.403 . S
C412 C413 1.404 . S
C412 C415 1.539 . S
C413 C409 1.408 . S
C413 C412 1.404 . S
C413 H425 0.930 . S
C414 C410 1.524 . S
C414 H426 0.956 . S
C414 H427 0.961 . S
C414 H428 0.961 . S
C415 C412 1.539 . S
C415 H429 0.958 . S
C415 H430 0.961 . S
C415 H431 0.960 . S
H416 C400 0.931 . S
H417 C405 0.929 . S
H418 C406 0.960 . S
H419 C406 0.962 . S
H420 C406 0.960 . S
H421 C407 0.961 . S
H422 C407 0.961 . S
H423 C407 0.961 . S
H424 C408 0.931 . S
H425 C413 0.930 . S
H426 C414 0.956 . S
H427 C414 0.961 . S
H428 C414 0.961 . S
H429 C415 0.958 . S
H430 C415 0.961 . S
H431 C415 0.960 . S
C432 C433 1.391 . S
C432 C434 1.394 . S
C432 H448 0.931 . S
C433 C432 1.391 . S
C433 C437 1.376 . S
C434 C432 1.394 . S
C434 C435 1.369 . S
C434 C438 1.531 . S
C435 C434 1.369 . S
C435 C436 1.410 . S
C435 C443 1.503 . S
C436 C435 1.410 . S
C436 C437 1.392 . S
C436 C439 1.511 . S
C437 C433 1.376 . S
C437 C436 1.392 . S
C437 H449 0.929 . S
C438 C434 1.531 . S
C438 H450 0.960 . S
C438 H451 0.962 . S
C438 H452 0.960 . S
C439 C436 1.511 . S
C439 H453 0.961 . S
C439 H454 0.961 . S
C439 H455 0.961 . S
C440 C441 1.370 . S
C440 C442 1.363 . S
C440 H456 0.931 . S
C441 C440 1.370 . S
C441 C445 1.408 . S
C442 C440 1.363 . S
C442 C443 1.370 . S
C442 C446 1.524 . S
C443 C435 1.503 . S
C443 C442 1.370 . S
C443 C444 1.403 . S
C444 C443 1.403 . S
C444 C445 1.404 . S
C444 C447 1.539 . S
C445 C441 1.408 . S
C445 C444 1.404 . S
C445 H457 0.930 . S
C446 C442 1.524 . S
C446 H458 0.956 . S
C446 H459 0.961 . S
C446 H460 0.961 . S
C447 C444 1.539 . S
C447 H461 0.958 . S
C447 H462 0.961 . S
C447 H463 0.960 . S
H448 C432 0.931 . S
H449 C437 0.929 . S
H450 C438 0.960 . S
H451 C438 0.962 . S
H452 C438 0.960 . S
H453 C439 0.961 . S
H454 C439 0.961 . S
H455 C439 0.961 . S
H456 C440 0.931 . S
H457 C445 0.930 . S
H458 C446 0.956 . S
H459 C446 0.961 . S
H460 C446 0.961 . S
H461 C447 0.958 . S
H462 C447 0.961 . S
H463 C447 0.960 . S
C464 C465 1.391 . S
C464 C466 1.394 . S
C464 H480 0.950 . S
C465 C464 1.391 . S
C465 C469 1.376 . S
C466 C464 1.394 . S
C466 C467 1.369 . S
C466 C470 1.531 . S
C467 C466 1.369 . S
C467 C468 1.410 . S
C467 C475 1.503 . S
C468 C467 1.410 . S
C468 C469 1.392 . S
C468 C471 1.511 . S
C469 C465 1.376 . S
C469 C468 1.392 . S
C469 H481 0.929 . S
C470 C466 1.531 . S
C470 H482 0.960 . S
C470 H483 0.962 . S
C470 H484 0.960 1_455 S
C471 C468 1.511 . S
C471 H485 0.961 . S
C471 H486 0.961 . S
C471 H487 0.961 . S
C472 C473 1.370 . S
C472 C474 1.363 . S
C472 H488 0.931 . S
C473 C472 1.370 . S
C473 C477 1.408 . S
C474 C472 1.363 . S
C474 C475 1.370 . S
C474 C478 1.524 . S
C475 C467 1.503 . S
C475 C474 1.370 . S
C475 C476 1.403 . S
C476 C475 1.403 . S
C476 C477 1.404 . S
C476 C479 1.539 . S
C477 C473 1.408 . S
C477 C476 1.404 . S
C477 H489 0.930 . S
C478 C474 1.524 . S
C478 H490 0.956 . S
C478 H491 0.961 . S
C478 H492 0.961 . S
C479 C476 1.539 . S
C479 H493 0.958 . S
C479 H494 0.961 . S
C479 H495 0.960 . S
H480 C464 0.950 . S
H481 C469 0.929 . S
H482 C470 0.960 . S
H483 C470 0.962 . S
H484 C470 0.960 1_655 S
H485 C471 0.961 . S
H486 C471 0.961 . S
H487 C471 0.961 . S
H488 C472 0.931 . S
H489 C477 0.930 . S
H490 C478 0.956 . S
H491 C478 0.961 . S
H492 C478 0.961 . S
H493 C479 0.958 . S
H494 C479 0.961 . S
H495 C479 0.960 . S
C496 C497 1.391 . S
C496 C498 1.394 . S
C496 H512 0.931 . S
C497 C496 1.391 . S
C497 C501 1.376 . S
C498 C496 1.394 . S
C498 C499 1.369 . S
C498 C502 1.531 . S
C499 C498 1.369 . S
C499 C500 1.410 . S
C499 C507 1.503 . S
C500 C499 1.410 . S
C500 C501 1.392 . S
C500 C503 1.511 . S
C501 C497 1.376 . S
C501 C500 1.392 . S
C501 H513 0.929 . S
C502 C498 1.531 . S
C502 H514 0.960 . S
C502 H515 0.962 . S
C502 H516 0.960 . S
C503 C500 1.511 . S
C503 H517 0.961 . S
C503 H518 0.961 . S
C503 H519 0.961 . S
C504 C505 1.370 . S
C504 C506 1.363 . S
C504 H520 0.931 . S
C505 C504 1.370 . S
C505 C509 1.408 . S
C506 C504 1.363 . S
C506 C507 1.370 . S
C506 C510 1.524 . S
C507 C499 1.503 . S
C507 C506 1.370 . S
C507 C508 1.403 . S
C508 C507 1.403 . S
C508 C509 1.404 . S
C508 C511 1.539 . S
C509 C505 1.408 . S
C509 C508 1.404 . S
C509 H521 0.930 . S
C510 C506 1.524 . S
C510 H522 0.956 . S
C510 H523 0.961 . S
C510 H524 0.961 . S
C511 C508 1.539 . S
C511 H525 0.959 . S
C511 H526 0.961 1_545 S
C511 H527 0.960 1_545 S
H512 C496 0.931 . S
H513 C501 0.929 . S
H514 C502 0.960 . S
H515 C502 0.962 . S
H516 C502 0.960 . S
H517 C503 0.961 . S
H518 C503 0.961 . S
H519 C503 0.961 . S
H520 C504 0.931 . S
H521 C509 0.930 . S
H522 C510 0.956 . S
H523 C510 0.961 . S
H524 C510 0.961 . S
H525 C511 0.959 . S
H526 C511 0.961 1_565 S
H527 C511 0.960 1_565 S
C528 C529 1.391 . S
C528 C530 1.394 . S
C528 H544 0.931 . S
C529 C528 1.391 . S
C529 C533 1.376 . S
C530 C528 1.394 . S
C530 C531 1.369 . S
C530 C534 1.531 . S
C531 C530 1.369 . S
C531 C532 1.410 . S
C531 C539 1.503 . S
C532 C531 1.410 . S
C532 C533 1.392 . S
C532 C535 1.511 . S
C533 C529 1.376 . S
C533 C532 1.392 . S
C533 H545 0.929 . S
C534 C530 1.531 . S
C534 H546 0.960 . S
C534 H547 0.962 . S
C534 H548 0.960 . S
C535 C532 1.511 . S
C535 H549 0.961 . S
C535 H550 0.961 . S
C535 H551 0.961 . S
C536 C537 1.370 . S
C536 C538 1.363 . S
C536 H552 0.931 . S
C537 C536 1.370 . S
C537 C541 1.408 . S
C538 C536 1.363 . S
C538 C539 1.370 . S
C538 C542 1.524 . S
C539 C531 1.503 . S
C539 C538 1.370 . S
C539 C540 1.403 . S
C540 C539 1.403 . S
C540 C541 1.404 . S
C540 C543 1.539 . S
C541 C537 1.408 . S
C541 C540 1.404 . S
C541 H553 0.930 . S
C542 C538 1.524 . S
C542 H554 0.956 . S
C542 H555 0.961 . S
C542 H556 0.961 . S
C543 C540 1.539 . S
C543 H557 0.958 1_655 S
C543 H558 0.961 1_655 S
C543 H559 0.960 1_655 S
H544 C528 0.931 . S
H545 C533 0.929 . S
H546 C534 0.960 . S
H547 C534 0.962 . S
H548 C534 0.960 . S
H549 C535 0.961 . S
H550 C535 0.961 . S
H551 C535 0.961 . S
H552 C536 0.931 . S
H553 C541 0.930 . S
H554 C542 0.956 . S
H555 C542 0.961 . S
H556 C542 0.961 . S
H557 C543 0.958 1_455 S
H558 C543 0.961 1_455 S
H559 C543 0.960 1_455 S
C560 C561 1.391 . S
C560 C562 1.394 . S
C560 H576 0.931 . S
C561 C560 1.391 . S
C561 C565 1.376 . S
C562 C560 1.394 . S
C562 C563 1.369 . S
C562 C566 1.531 . S
C563 C562 1.369 . S
C563 C564 1.410 . S
C563 C571 1.503 . S
C564 C563 1.410 . S
C564 C565 1.392 . S
C564 C567 1.511 . S
C565 C561 1.376 . S
C565 C564 1.392 . S
C565 H577 0.929 . S
C566 C562 1.531 . S
C566 H578 0.960 . S
C566 H579 0.962 . S
C566 H580 0.947 1_565 S
C567 C564 1.511 . S
C567 H581 0.961 . S
C567 H582 0.961 . S
C567 H583 0.961 . S
C568 C569 1.370 . S
C568 C570 1.363 . S
C568 H584 0.931 . S
C569 C568 1.370 . S
C569 C573 1.408 . S
C570 C568 1.363 . S
C570 C571 1.370 . S
C570 C574 1.524 . S
C571 C563 1.503 . S
C571 C570 1.370 . S
C571 C572 1.403 . S
C572 C571 1.403 . S
C572 C573 1.404 . S
C572 C575 1.539 . S
C573 C569 1.408 . S
C573 C572 1.404 . S
C573 H585 0.930 . S
C574 C570 1.524 . S
C574 H586 0.956 . S
C574 H587 0.961 . S
C574 H588 0.961 . S
C575 C572 1.539 . S
C575 H589 0.958 1_565 S
C575 H590 0.961 . S
C575 H591 0.960 . S
H576 C560 0.931 . S
H577 C565 0.929 . S
H578 C566 0.960 . S
H579 C566 0.962 . S
H580 C566 0.947 1_545 S
H581 C567 0.961 . S
H582 C567 0.961 . S
H583 C567 0.961 . S
H584 C568 0.931 . S
H585 C573 0.930 . S
H586 C574 0.956 . S
H587 C574 0.961 . S
H588 C574 0.961 . S
H589 C575 0.958 1_545 S
H590 C575 0.961 . S
H591 C575 0.960 . S
C592 C593 1.391 . S
C592 C594 1.394 . S
C592 H608 0.931 . S
C593 C592 1.391 . S
C593 C597 1.376 . S
C594 C592 1.394 . S
C594 C595 1.369 . S
C594 C598 1.531 . S
C595 C594 1.369 . S
C595 C596 1.410 . S
C595 C603 1.503 . S
C596 C595 1.410 . S
C596 C597 1.392 . S
C596 C599 1.511 . S
C597 C593 1.376 . S
C597 C596 1.392 . S
C597 H609 0.929 . S
C598 C594 1.531 . S
C598 H610 0.960 . S
C598 H611 0.962 . S
C598 H612 0.960 . S
C599 C596 1.511 . S
C599 H613 0.961 . S
C599 H614 0.961 . S
C599 H615 0.961 . S
C600 C601 1.370 . S
C600 C602 1.363 . S
C600 H616 0.931 . S
C601 C600 1.370 . S
C601 C605 1.408 . S
C602 C600 1.363 . S
C602 C603 1.370 . S
C602 C606 1.524 . S
C603 C595 1.503 . S
C603 C602 1.370 . S
C603 C604 1.403 . S
C604 C603 1.403 . S
C604 C605 1.404 . S
C604 C607 1.539 . S
C605 C601 1.408 . S
C605 C604 1.404 . S
C605 H617 0.930 . S
C606 C602 1.524 . S
C606 H618 0.956 . S
C606 H619 0.961 . S
C606 H620 0.961 . S
C607 C604 1.539 . S
C607 H621 0.958 . S
C607 H622 0.961 . S
C607 H623 0.960 . S
H608 C592 0.931 . S
H609 C597 0.929 . S
H610 C598 0.960 . S
H611 C598 0.962 . S
H612 C598 0.960 . S
H613 C599 0.961 . S
H614 C599 0.961 . S
H615 C599 0.961 . S
H616 C600 0.931 . S
H617 C605 0.930 . S
H618 C606 0.956 . S
H619 C606 0.961 . S
H620 C606 0.961 . S
H621 C607 0.958 . S
H622 C607 0.961 . S
H623 C607 0.960 . S
C624 C625 1.391 . S
C624 C626 1.394 . S
C624 H640 0.931 . S
C625 C624 1.391 . S
C625 C629 1.376 . S
C626 C624 1.394 . S
C626 C627 1.369 . S
C626 C630 1.531 . S
C627 C626 1.369 . S
C627 C628 1.410 . S
C627 C635 1.503 . S
C628 C627 1.410 . S
C628 C629 1.392 . S
C628 C631 1.511 . S
C629 C625 1.376 . S
C629 C628 1.392 . S
C629 H641 0.929 . S
C630 C626 1.531 . S
C630 H642 0.960 . S
C630 H643 0.962 . S
C630 H644 0.960 . S
C631 C628 1.511 . S
C631 H645 0.961 . S
C631 H646 0.961 . S
C631 H647 0.961 . S
C632 C633 1.370 . S
C632 C634 1.363 . S
C632 H648 0.931 . S
C633 C632 1.370 . S
C633 C637 1.408 . S
C634 C632 1.363 . S
C634 C635 1.370 . S
C634 C638 1.524 . S
C635 C627 1.503 . S
C635 C634 1.370 . S
C635 C636 1.403 . S
C636 C635 1.403 . S
C636 C637 1.404 . S
C636 C639 1.539 . S
C637 C633 1.408 . S
C637 C636 1.404 . S
C637 H649 0.930 . S
C638 C634 1.524 . S
C638 H650 0.956 . S
C638 H651 0.961 . S
C638 H652 0.961 . S
C639 C636 1.539 . S
C639 H653 0.958 . S
C639 H654 0.961 . S
C639 H655 0.960 . S
H640 C624 0.931 . S
H641 C629 0.929 . S
H642 C630 0.960 . S
H643 C630 0.962 . S
H644 C630 0.960 . S
H645 C631 0.961 . S
H646 C631 0.961 . S
H647 C631 0.961 . S
H648 C632 0.931 . S
H649 C637 0.930 . S
H650 C638 0.956 . S
H651 C638 0.961 . S
H652 C638 0.961 . S
H653 C639 0.958 . S
H654 C639 0.961 . S
H655 C639 0.960 . S
C656 C657 1.391 . S
C656 C658 1.394 . S
C656 H672 0.931 1_545 S
C657 C656 1.391 . S
C657 C661 1.376 . S
C658 C656 1.394 . S
C658 C659 1.369 . S
C658 C662 1.531 . S
C659 C658 1.369 . S
C659 C660 1.410 . S
C659 C667 1.503 . S
C660 C659 1.410 . S
C660 C661 1.392 . S
C660 C663 1.511 . S
C661 C657 1.376 . S
C661 C660 1.392 . S
C661 H673 0.929 . S
C662 C658 1.531 . S
C662 H674 0.960 . S
C662 H675 0.962 . S
C662 H676 0.960 1_545 S
C663 C660 1.511 . S
C663 H677 0.961 . S
C663 H678 0.961 . S
C663 H679 0.961 . S
C664 C665 1.370 . S
C664 C666 1.363 . S
C664 H680 0.931 . S
C665 C664 1.370 . S
C665 C669 1.408 . S
C666 C664 1.363 . S
C666 C667 1.370 . S
C666 C670 1.524 . S
C667 C659 1.503 . S
C667 C666 1.370 . S
C667 C668 1.403 . S
C668 C667 1.403 . S
C668 C669 1.404 . S
C668 C671 1.539 . S
C669 C665 1.408 . S
C669 C668 1.404 . S
C669 H681 0.930 . S
C670 C666 1.524 . S
C670 H682 0.956 . S
C670 H683 0.961 . S
C670 H684 0.961 . S
C671 C668 1.539 . S
C671 H685 0.958 . S
C671 H686 0.961 . S
C671 H687 0.960 . S
H672 C656 0.931 1_565 S
H673 C661 0.929 . S
H674 C662 0.960 . S
H675 C662 0.962 . S
H676 C662 0.960 1_565 S
H677 C663 0.961 . S
H678 C663 0.961 . S
H679 C663 0.961 . S
H680 C664 0.931 . S
H681 C669 0.930 . S
H682 C670 0.956 . S
H683 C670 0.961 . S
H684 C670 0.961 . S
H685 C671 0.958 . S
H686 C671 0.961 . S
H687 C671 0.960 . S
C688 C689 1.391 . S
C688 C690 1.394 . S
C688 H704 0.931 1_655 S
C689 C688 1.391 . S
C689 C693 1.376 . S
C690 C688 1.394 . S
C690 C691 1.369 . S
C690 C694 1.511 1_655 S
C691 C690 1.369 . S
C691 C692 1.410 . S
C691 C699 1.503 . S
C692 C691 1.410 . S
C692 C693 1.392 . S
C692 C695 1.511 . S
C693 C689 1.376 . S
C693 C692 1.392 . S
C693 H705 0.929 . S
C694 C690 1.511 1_455 S
C694 H706 0.950 1_455 S
C694 H707 0.970 . S
C694 H708 0.983 . S
C695 C692 1.511 . S
C695 H709 0.961 . S
C695 H710 0.961 . S
C695 H711 0.961 . S
C696 C697 1.370 . S
C696 C698 1.363 . S
C696 H712 0.931 . S
C697 C696 1.370 . S
C697 C701 1.408 . S
C698 C696 1.363 . S
C698 C699 1.370 . S
C698 C702 1.524 . S
C699 C691 1.503 . S
C699 C698 1.370 . S
C699 C700 1.403 . S
C700 C699 1.403 . S
C700 C701 1.404 . S
C700 C703 1.539 . S
C701 C697 1.408 . S
C701 C700 1.404 . S
C701 H713 0.930 . S
C702 C698 1.524 . S
C702 H714 0.956 . S
C702 H715 0.961 . S
C702 H716 0.961 . S
C703 C700 1.539 . S
C703 H717 0.958 . S
C703 H718 0.961 . S
C703 H719 0.960 . S
H704 C688 0.931 1_455 S
H705 C693 0.929 . S
H706 C694 0.950 1_655 S
H707 C694 0.970 . S
H708 C694 0.983 . S
H709 C695 0.961 . S
H710 C695 0.961 . S
H711 C695 0.961 . S
H712 C696 0.931 . S
H713 C701 0.930 . S
H714 C702 0.956 . S
H715 C702 0.961 . S
H716 C702 0.961 . S
H717 C703 0.958 . S
H718 C703 0.961 . S
H719 C703 0.960 . S
C720 C721 1.391 . S
C720 C722 1.394 . S
C720 H736 0.931 . S
C721 C720 1.391 . S
C721 C725 1.376 . S
C722 C720 1.394 . S
C722 C723 1.369 . S
C722 C726 1.531 . S
C723 C722 1.369 . S
C723 C724 1.410 . S
C723 C731 1.503 . S
C724 C723 1.410 . S
C724 C725 1.392 . S
C724 C727 1.511 . S
C725 C721 1.376 . S
C725 C724 1.392 . S
C725 H737 0.929 . S
C726 C722 1.531 . S
C726 H738 0.960 . S
C726 H739 0.962 . S
C726 H740 0.960 . S
C727 C724 1.511 . S
C727 H741 0.961 . S
C727 H742 0.961 . S
C727 H743 0.961 . S
C728 C729 1.370 . S
C728 C730 1.363 . S
C728 H744 0.931 . S
C729 C728 1.370 . S
C729 C733 1.408 . S
C730 C728 1.363 . S
C730 C731 1.370 . S
C730 C734 1.524 . S
C731 C723 1.503 . S
C731 C730 1.370 . S
C731 C732 1.403 . S
C732 C731 1.403 . S
C732 C733 1.404 . S
C732 C735 1.539 . S
C733 C729 1.408 . S
C733 C732 1.404 . S
C733 H745 0.930 . S
C734 C730 1.524 . S
C734 H746 0.956 . S
C734 H747 0.961 . S
C734 H748 0.961 . S
C735 C732 1.539 . S
C735 H749 0.958 . S
C735 H750 0.961 . S
C735 H751 0.960 . S
H736 C720 0.931 . S
H737 C725 0.929 . S
H738 C726 0.960 . S
H739 C726 0.962 . S
H740 C726 0.960 . S
H741 C727 0.961 . S
H742 C727 0.961 . S
H743 C727 0.961 . S
H744 C728 0.931 . S
H745 C733 0.930 . S
H746 C734 0.956 . S
H747 C734 0.961 . S
H748 C734 0.961 . S
H749 C735 0.958 . S
H750 C735 0.961 . S
H751 C735 0.960 . S
C752 C753 1.391 . S
C752 C754 1.394 . S
C752 H768 0.931 . S
C753 C752 1.391 . S
C753 C757 1.376 . S
C754 C752 1.394 . S
C754 C755 1.369 . S
C754 C758 1.531 . S
C755 C754 1.369 . S
C755 C756 1.410 . S
C755 C763 1.503 . S
C756 C755 1.410 . S
C756 C757 1.392 . S
C756 C759 1.511 . S
C757 C753 1.376 . S
C757 C756 1.392 . S
C757 H769 0.929 . S
C758 C754 1.531 . S
C758 H770 0.960 . S
C758 H771 0.962 . S
C758 H772 0.960 . S
C759 C756 1.511 . S
C759 H773 0.961 . S
C759 H774 0.961 . S
C759 H775 0.961 . S
C760 C761 1.370 . S
C760 C762 1.363 . S
C760 H776 0.931 . S
C761 C760 1.370 . S
C761 C765 1.408 . S
C762 C760 1.363 . S
C762 C763 1.370 . S
C762 C766 1.524 . S
C763 C755 1.503 . S
C763 C762 1.370 . S
C763 C764 1.403 . S
C764 C763 1.403 . S
C764 C765 1.404 . S
C764 C767 1.539 . S
C765 C761 1.408 . S
C765 C764 1.404 . S
C765 H777 0.930 . S
C766 C762 1.524 . S
C766 H778 0.956 . S
C766 H779 0.961 . S
C766 H780 0.961 . S
C767 C764 1.539 . S
C767 H781 0.958 . S
C767 H782 0.961 . S
C767 H783 0.960 . S
H768 C752 0.931 . S
H769 C757 0.929 . S
H770 C758 0.960 . S
H771 C758 0.962 . S
H772 C758 0.960 . S
H773 C759 0.961 . S
H774 C759 0.961 . S
H775 C759 0.961 . S
H776 C760 0.931 . S
H777 C765 0.930 . S
H778 C766 0.956 . S
H779 C766 0.961 . S
H780 C766 0.961 . S
H781 C767 0.958 . S
H782 C767 0.961 . S
H783 C767 0.960 . S
C784 C785 1.391 . S
C784 C786 1.394 . S
C784 H800 0.931 . S
C785 C784 1.391 . S
C785 C789 1.376 . S
C786 C784 1.394 . S
C786 C787 1.369 . S
C786 C790 1.531 . S
C787 C786 1.369 . S
C787 C788 1.410 . S
C787 C795 1.503 . S
C788 C787 1.410 . S
C788 C789 1.392 . S
C788 C791 1.511 . S
C789 C785 1.376 . S
C789 C788 1.392 . S
C789 H801 0.929 . S
C790 C786 1.531 . S
C790 H802 0.960 . S
C790 H803 0.962 . S
C790 H804 0.960 . S
C791 C788 1.511 . S
C791 H805 0.961 . S
C791 H806 0.961 . S
C791 H807 0.961 . S
C792 C793 1.370 . S
C792 C794 1.363 . S
C792 H808 0.931 . S
C793 C792 1.370 . S
C793 C797 1.408 . S
C794 C792 1.363 . S
C794 C795 1.370 . S
C794 C798 1.524 . S
C795 C787 1.503 . S
C795 C794 1.370 . S
C795 C796 1.403 . S
C796 C795 1.403 . S
C796 C797 1.404 . S
C796 C799 1.539 . S
C797 C793 1.408 . S
C797 C796 1.404 . S
C797 H809 0.930 . S
C798 C794 1.524 . S
C798 H810 0.956 . S
C798 H811 0.961 . S
C798 H812 0.961 . S
C799 C796 1.539 . S
C799 H813 0.958 . S
C799 H814 0.961 . S
C799 H815 0.960 . S
H800 C784 0.931 . S
H801 C789 0.929 . S
H802 C790 0.960 . S
H803 C790 0.962 . S
H804 C790 0.960 . S
H805 C791 0.961 . S
H806 C791 0.961 . S
H807 C791 0.961 . S
H808 C792 0.931 . S
H809 C797 0.930 . S
H810 C798 0.956 . S
H811 C798 0.961 . S
H812 C798 0.961 . S
H813 C799 0.958 . S
H814 C799 0.961 . S
H815 C799 0.960 . S
C816 C817 1.391 . S
C816 C818 1.394 . S
C816 H832 0.931 . S
C817 C816 1.391 . S
C817 C821 1.376 . S
C818 C816 1.394 . S
C818 C819 1.369 . S
C818 C822 1.531 . S
C819 C818 1.369 . S
C819 C820 1.410 . S
C819 C827 1.503 . S
C820 C819 1.410 . S
C820 C821 1.392 . S
C820 C823 1.511 . S
C821 C817 1.376 . S
C821 C820 1.392 . S
C821 H833 0.929 . S
C822 C818 1.531 . S
C822 H834 0.960 . S
C822 H835 0.962 . S
C822 H836 0.960 . S
C823 C820 1.511 . S
C823 H837 0.961 . S
C823 H838 0.961 . S
C823 H839 0.961 . S
C824 C825 1.370 . S
C824 C826 1.363 . S
C824 H840 0.931 . S
C825 C824 1.370 . S
C825 C829 1.408 . S
C826 C824 1.363 . S
C826 C827 1.370 . S
C826 C830 1.524 . S
C827 C819 1.503 . S
C827 C826 1.370 . S
C827 C828 1.403 . S
C828 C827 1.403 . S
C828 C829 1.404 . S
C828 C831 1.539 . S
C829 C825 1.408 . S
C829 C828 1.404 . S
C829 H841 0.930 . S
C830 C826 1.524 . S
C830 H842 0.956 . S
C830 H843 0.961 . S
C830 H844 0.961 . S
C831 C828 1.539 . S
C831 H845 0.958 . S
C831 H846 0.961 . S
C831 H847 0.960 . S
H832 C816 0.931 . S
H833 C821 0.929 . S
H834 C822 0.960 . S
H835 C822 0.962 . S
H836 C822 0.960 . S
H837 C823 0.961 . S
H838 C823 0.961 . S
H839 C823 0.961 . S
H840 C824 0.931 . S
H841 C829 0.930 . S
H842 C830 0.956 . S
H843 C830 0.961 . S
H844 C830 0.961 . S
H845 C831 0.958 . S
H846 C831 0.961 . S
H847 C831 0.960 . S
C848 C849 1.391 . S
C848 C850 1.394 . S
C848 H864 0.931 . S
C849 C848 1.391 . S
C849 C853 1.376 . S
C850 C848 1.394 . S
C850 C851 1.369 . S
C850 C854 1.531 . S
C851 C850 1.369 . S
C851 C852 1.410 . S
C851 C859 1.503 . S
C852 C851 1.410 . S
C852 C853 1.392 . S
C852 C855 1.511 . S
C853 C849 1.376 . S
C853 C852 1.392 . S
C853 H865 0.929 . S
C854 C850 1.531 . S
C854 H866 0.960 . S
C854 H867 0.962 . S
C854 H868 0.960 . S
C855 C852 1.511 . S
C855 H869 0.961 . S
C855 H870 0.961 . S
C855 H871 0.961 . S
C856 C857 1.370 . S
C856 C858 1.363 . S
C856 H872 0.931 . S
C857 C856 1.370 . S
C857 C861 1.408 . S
C858 C856 1.363 . S
C858 C859 1.370 . S
C858 C862 1.524 . S
C859 C851 1.503 . S
C859 C858 1.370 . S
C859 C860 1.403 . S
C860 C859 1.403 . S
C860 C861 1.404 . S
C860 C863 1.539 . S
C861 C857 1.408 . S
C861 C860 1.404 . S
C861 H873 0.930 . S
C862 C858 1.524 . S
C862 H874 0.956 . S
C862 H875 0.961 . S
C862 H876 0.961 . S
C863 C860 1.539 . S
C863 H877 0.958 . S
C863 H878 0.961 . S
C863 H879 0.960 . S
H864 C848 0.931 . S
H865 C853 0.929 . S
H866 C854 0.960 . S
H867 C854 0.962 . S
H868 C854 0.960 . S
H869 C855 0.961 . S
H870 C855 0.961 . S
H871 C855 0.961 . S
H872 C856 0.931 . S
H873 C861 0.930 . S
H874 C862 0.956 . S
H875 C862 0.961 . S
H876 C862 0.961 . S
H877 C863 0.958 . S
H878 C863 0.961 . S
H879 C863 0.960 . S
C880 C881 1.391 . S
C880 C882 1.394 . S
C880 H896 0.931 . S
C881 C880 1.391 . S
C881 C885 1.376 . S
C882 C880 1.394 . S
C882 C883 1.369 . S
C882 C886 1.531 . S
C883 C882 1.369 . S
C883 C884 1.410 . S
C883 C891 1.503 . S
C884 C883 1.410 . S
C884 C885 1.392 . S
C884 C887 1.511 . S
C885 C881 1.376 . S
C885 C884 1.392 . S
C885 H897 0.929 . S
C886 C882 1.531 . S
C886 H898 0.960 . S
C886 H899 0.962 . S
C886 H900 0.960 . S
C887 C884 1.511 . S
C887 H901 0.961 . S
C887 H902 0.961 . S
C887 H903 0.961 . S
C888 C889 1.370 . S
C888 C890 1.363 . S
C888 H904 0.931 . S
C889 C888 1.370 . S
C889 C893 1.408 . S
C890 C888 1.363 . S
C890 C891 1.370 . S
C890 C894 1.524 . S
C891 C883 1.503 . S
C891 C890 1.370 . S
C891 C892 1.403 . S
C892 C891 1.403 . S
C892 C893 1.404 . S
C892 C895 1.539 . S
C893 C889 1.408 . S
C893 C892 1.404 . S
C893 H905 0.930 . S
C894 C890 1.524 . S
C894 H906 0.956 . S
C894 H907 0.961 . S
C894 H908 0.961 . S
C895 C892 1.539 . S
C895 H909 0.958 . S
C895 H910 0.961 . S
C895 H911 0.960 . S
H896 C880 0.931 . S
H897 C885 0.929 . S
H898 C886 0.960 . S
H899 C886 0.962 . S
H900 C886 0.960 . S
H901 C887 0.961 . S
H902 C887 0.961 . S
H903 C887 0.961 . S
H904 C888 0.931 . S
H905 C893 0.930 . S
H906 C894 0.956 . S
H907 C894 0.961 . S
H908 C894 0.961 . S
H909 C895 0.958 . S
H910 C895 0.961 . S
H911 C895 0.960 . S
C912 C913 1.391 . S
C912 C914 1.394 . S
C912 H928 0.931 . S
C913 C912 1.391 . S
C913 C917 1.376 . S
C914 C912 1.394 . S
C914 C915 1.369 . S
C914 C918 1.531 . S
C915 C914 1.369 . S
C915 C916 1.410 . S
C915 C923 1.503 . S
C916 C915 1.410 . S
C916 C917 1.392 . S
C916 C919 1.511 . S
C917 C913 1.376 . S
C917 C916 1.392 . S
C917 H929 0.929 . S
C918 C914 1.531 . S
C918 H930 0.960 . S
C918 H931 0.962 . S
C918 H932 0.960 . S
C919 C916 1.511 . S
C919 H933 0.961 . S
C919 H934 0.961 . S
C919 H935 0.961 . S
C920 C921 1.370 . S
C920 C922 1.363 . S
C920 H936 0.931 . S
C921 C920 1.370 . S
C921 C925 1.408 . S
C922 C920 1.363 . S
C922 C923 1.370 . S
C922 C926 1.524 . S
C923 C915 1.503 . S
C923 C922 1.370 . S
C923 C924 1.403 . S
C924 C923 1.403 . S
C924 C925 1.404 . S
C924 C927 1.539 . S
C925 C921 1.408 . S
C925 C924 1.404 . S
C925 H937 0.930 . S
C926 C922 1.524 . S
C926 H938 0.956 . S
C926 H939 0.961 . S
C926 H940 0.961 . S
C927 C924 1.539 . S
C927 H941 0.958 . S
C927 H942 0.961 . S
C927 H943 0.960 . S
H928 C912 0.931 . S
H929 C917 0.929 . S
H930 C918 0.960 . S
H931 C918 0.962 . S
H932 C918 0.960 . S
H933 C919 0.961 . S
H934 C919 0.961 . S
H935 C919 0.961 . S
H936 C920 0.931 . S
H937 C925 0.930 . S
H938 C926 0.956 . S
H939 C926 0.961 . S
H940 C926 0.961 . S
H941 C927 0.958 . S
H942 C927 0.961 . S
H943 C927 0.960 . S
C944 C945 1.391 . S
C944 C946 1.394 . S
C944 H960 0.931 . S
C945 C944 1.391 . S
C945 C949 1.376 . S
C946 C944 1.394 . S
C946 C947 1.369 . S
C946 C950 1.531 . S
C947 C946 1.369 . S
C947 C948 1.410 . S
C947 C955 1.503 . S
C948 C947 1.410 . S
C948 C949 1.392 . S
C948 C951 1.511 . S
C949 C945 1.376 . S
C949 C948 1.392 . S
C949 H961 0.929 . S
C950 C946 1.531 . S
C950 H962 0.960 . S
C950 H963 0.962 . S
C950 H964 0.960 . S
C951 C948 1.511 . S
C951 H965 0.961 . S
C951 H966 0.961 . S
C951 H967 0.961 . S
C952 C953 1.370 . S
C952 C954 1.363 . S
C952 H968 0.931 . S
C953 C952 1.370 . S
C953 C957 1.408 . S
C954 C952 1.363 . S
C954 C955 1.370 . S
C954 C958 1.524 . S
C955 C947 1.503 . S
C955 C954 1.370 . S
C955 C956 1.403 . S
C956 C955 1.403 . S
C956 C957 1.404 . S
C956 C959 1.539 . S
C957 C953 1.408 . S
C957 C956 1.404 . S
C957 H969 0.930 . S
C958 C954 1.524 . S
C958 H970 0.956 . S
C958 H971 0.961 . S
C958 H972 0.961 . S
C959 C956 1.539 . S
C959 H973 0.958 . S
C959 H974 0.961 . S
C959 H975 0.960 . S
H960 C944 0.931 . S
H961 C949 0.929 . S
H962 C950 0.960 . S
H963 C950 0.962 . S
H964 C950 0.960 . S
H965 C951 0.961 . S
H966 C951 0.961 . S
H967 C951 0.961 . S
H968 C952 0.931 . S
H969 C957 0.930 . S
H970 C958 0.956 . S
H971 C958 0.961 . S
H972 C958 0.961 . S
H973 C959 0.958 . S
H974 C959 0.961 . S
H975 C959 0.960 . S
C209 C45 1.556 . S
C217 N106 1.552 . S
C241 C30 1.536 . S
C249 N119 1.558 . S
C273 C39 1.541 . S
C281 N132 1.547 . S
C313 N145 1.550 . S
C305 C34 1.536 . S
C337 C97 1.547 . S
C345 N158 1.554 . S
C377 N171 1.542 . S
C369 C82 1.553 . S
C409 N184 1.552 . S
C401 C91 1.529 . S
C441 N197 1.540 . S
C433 C86 1.558 . S
C473 N187 1.533 . S
C465 C26 1.502 . S
C505 N200 1.536 . S
C497 C36 1.470 . S
C537 N157 1.543 . S
C529 C32 1.475 . S
C569 N174 1.537 . S
C561 C42 1.494 . S
C593 C18 1.578 . S
C601 N170 1.585 . S
C633 N183 1.585 . S
C625 C50 1.576 . S
C657 C4 1.515 . S
C665 N196 1.595 . S
C689 C48 1.522 . S
C697 N161 1.604 . S
C729 N135 1.534 . S
C721 C78 1.461 . S
C753 C88 1.464 . S
C761 N148 1.536 . S
C793 N105 1.533 . S
C785 C84 1.469 . S
C825 N118 1.541 . S
C817 C94 1.509 . S
C857 N122 1.607 . S
C849 C70 1.517 . S
C889 N131 1.594 . S
C881 C102 1.517 . S
C913 C56 1.517 . S
C921 N144 1.598 . S
C945 C100 1.579 . S
C953 N109 1.608 . S
