# Generated by pormake.
# Topology eea, (3,6)-cn, num edge types: 1
# Building blocks:
#     Node 0, Type 0, BuildingBlock: PAMTOO_clean_linker_0, # of connection points: 3
#     Node 1, Type 0, BuildingBlock: PAMTOO_clean_linker_0, # of connection points: 3
#     Node 2, Type 0, BuildingBlock: PAMTOO_clean_linker_0, # of connection points: 3
#     Node 3, Type 0, BuildingBlock: PAMTOO_clean_linker_0, # of connection points: 3
#     Node 4, Type 0, BuildingBlock: PAMTOO_clean_linker_0, # of connection points: 3
#     Node 5, Type 0, BuildingBlock: PAMTOO_clean_linker_0, # of connection points: 3
#     Node 6, Type 0, BuildingBlock: PAMTOO_clean_linker_0, # of connection points: 3
#     Node 7, Type 0, BuildingBlock: PAMTOO_clean_linker_0, # of connection points: 3
#     Node 8, Type 0, BuildingBlock: PAMTOO_clean_linker_0, # of connection points: 3
#     Node 9, Type 0, BuildingBlock: PAMTOO_clean_linker_0, # of connection points: 3
#     Node 10, Type 0, BuildingBlock: PAMTOO_clean_linker_0, # of connection points: 3
#     Node 11, Type 0, BuildingBlock: PAMTOO_clean_linker_0, # of connection points: 3
#     Node 12, Type 0, BuildingBlock: PAMTOO_clean_linker_0, # of connection points: 3
#     Node 13, Type 0, BuildingBlock: PAMTOO_clean_linker_0, # of connection points: 3
#     Node 14, Type 0, BuildingBlock: PAMTOO_clean_linker_0, # of connection points: 3
#     Node 15, Type 0, BuildingBlock: PAMTOO_clean_linker_0, # of connection points: 3
#     Node 16, Type 0, BuildingBlock: PAMTOO_clean_linker_0, # of connection points: 3
#     Node 17, Type 0, BuildingBlock: PAMTOO_clean_linker_0, # of connection points: 3
#     Node 18, Type 1, BuildingBlock: KUMBUR_clean_sbu_0, # of connection points: 6
#     Node 19, Type 1, BuildingBlock: KUMBUR_clean_sbu_0, # of connection points: 6
#     Node 20, Type 1, BuildingBlock: KUMBUR_clean_sbu_0, # of connection points: 6
#     Node 21, Type 1, BuildingBlock: KUMBUR_clean_sbu_0, # of connection points: 6
#     Node 22, Type 1, BuildingBlock: KUMBUR_clean_sbu_0, # of connection points: 6
#     Node 23, Type 1, BuildingBlock: KUMBUR_clean_sbu_0, # of connection points: 6
#     Node 24, Type 1, BuildingBlock: KUMBUR_clean_sbu_0, # of connection points: 6
#     Node 25, Type 1, BuildingBlock: KUMBUR_clean_sbu_0, # of connection points: 6
#     Node 26, Type 1, BuildingBlock: KUMBUR_clean_sbu_0, # of connection points: 6
#     Edge 27, Type (0, 1), BuildingBlock: XUDNAN_clean_linker_2, # of connection points: 2
#     Edge 28, Type (0, 1), BuildingBlock: XUDNAN_clean_linker_2, # of connection points: 2
#     Edge 29, Type (0, 1), BuildingBlock: XUDNAN_clean_linker_2, # of connection points: 2
#     Edge 30, Type (0, 1), BuildingBlock: XUDNAN_clean_linker_2, # of connection points: 2
#     Edge 31, Type (0, 1), BuildingBlock: XUDNAN_clean_linker_2, # of connection points: 2
#     Edge 32, Type (0, 1), BuildingBlock: XUDNAN_clean_linker_2, # of connection points: 2
#     Edge 33, Type (0, 1), BuildingBlock: XUDNAN_clean_linker_2, # of connection points: 2
#     Edge 34, Type (0, 1), BuildingBlock: XUDNAN_clean_linker_2, # of connection points: 2
#     Edge 35, Type (0, 1), BuildingBlock: XUDNAN_clean_linker_2, # of connection points: 2
#     Edge 36, Type (0, 1), BuildingBlock: XUDNAN_clean_linker_2, # of connection points: 2
#     Edge 37, Type (0, 1), BuildingBlock: XUDNAN_clean_linker_2, # of connection points: 2
#     Edge 38, Type (0, 1), BuildingBlock: XUDNAN_clean_linker_2, # of connection points: 2
#     Edge 39, Type (0, 1), BuildingBlock: XUDNAN_clean_linker_2, # of connection points: 2
#     Edge 40, Type (0, 1), BuildingBlock: XUDNAN_clean_linker_2, # of connection points: 2
#     Edge 41, Type (0, 1), BuildingBlock: XUDNAN_clean_linker_2, # of connection points: 2
#     Edge 42, Type (0, 1), BuildingBlock: XUDNAN_clean_linker_2, # of connection points: 2
#     Edge 43, Type (0, 1), BuildingBlock: XUDNAN_clean_linker_2, # of connection points: 2
#     Edge 44, Type (0, 1), BuildingBlock: XUDNAN_clean_linker_2, # of connection points: 2
#     Edge 45, Type (0, 1), BuildingBlock: XUDNAN_clean_linker_2, # of connection points: 2
#     Edge 46, Type (0, 1), BuildingBlock: XUDNAN_clean_linker_2, # of connection points: 2
#     Edge 47, Type (0, 1), BuildingBlock: XUDNAN_clean_linker_2, # of connection points: 2
#     Edge 48, Type (0, 1), BuildingBlock: XUDNAN_clean_linker_2, # of connection points: 2
#     Edge 49, Type (0, 1), BuildingBlock: XUDNAN_clean_linker_2, # of connection points: 2
#     Edge 50, Type (0, 1), BuildingBlock: XUDNAN_clean_linker_2, # of connection points: 2
#     Edge 51, Type (0, 1), BuildingBlock: XUDNAN_clean_linker_2, # of connection points: 2
#     Edge 52, Type (0, 1), BuildingBlock: XUDNAN_clean_linker_2, # of connection points: 2
#     Edge 53, Type (0, 1), BuildingBlock: XUDNAN_clean_linker_2, # of connection points: 2
#     Edge 54, Type (0, 1), BuildingBlock: XUDNAN_clean_linker_2, # of connection points: 2
#     Edge 55, Type (0, 1), BuildingBlock: XUDNAN_clean_linker_2, # of connection points: 2
#     Edge 56, Type (0, 1), BuildingBlock: XUDNAN_clean_linker_2, # of connection points: 2
#     Edge 57, Type (0, 1), BuildingBlock: XUDNAN_clean_linker_2, # of connection points: 2
#     Edge 58, Type (0, 1), BuildingBlock: XUDNAN_clean_linker_2, # of connection points: 2
#     Edge 59, Type (0, 1), BuildingBlock: XUDNAN_clean_linker_2, # of connection points: 2
#     Edge 60, Type (0, 1), BuildingBlock: XUDNAN_clean_linker_2, # of connection points: 2
#     Edge 61, Type (0, 1), BuildingBlock: XUDNAN_clean_linker_2, # of connection points: 2
#     Edge 62, Type (0, 1), BuildingBlock: XUDNAN_clean_linker_2, # of connection points: 2
#     Edge 63, Type (0, 1), BuildingBlock: XUDNAN_clean_linker_2, # of connection points: 2
#     Edge 64, Type (0, 1), BuildingBlock: XUDNAN_clean_linker_2, # of connection points: 2
#     Edge 65, Type (0, 1), BuildingBlock: XUDNAN_clean_linker_2, # of connection points: 2
#     Edge 66, Type (0, 1), BuildingBlock: XUDNAN_clean_linker_2, # of connection points: 2
#     Edge 67, Type (0, 1), BuildingBlock: XUDNAN_clean_linker_2, # of connection points: 2
#     Edge 68, Type (0, 1), BuildingBlock: XUDNAN_clean_linker_2, # of connection points: 2
#     Edge 69, Type (0, 1), BuildingBlock: XUDNAN_clean_linker_2, # of connection points: 2
#     Edge 70, Type (0, 1), BuildingBlock: XUDNAN_clean_linker_2, # of connection points: 2
#     Edge 71, Type (0, 1), BuildingBlock: XUDNAN_clean_linker_2, # of connection points: 2
#     Edge 72, Type (0, 1), BuildingBlock: XUDNAN_clean_linker_2, # of connection points: 2
#     Edge 73, Type (0, 1), BuildingBlock: XUDNAN_clean_linker_2, # of connection points: 2
#     Edge 74, Type (0, 1), BuildingBlock: XUDNAN_clean_linker_2, # of connection points: 2
#     Edge 75, Type (0, 1), BuildingBlock: XUDNAN_clean_linker_2, # of connection points: 2
#     Edge 76, Type (0, 1), BuildingBlock: XUDNAN_clean_linker_2, # of connection points: 2
#     Edge 77, Type (0, 1), BuildingBlock: XUDNAN_clean_linker_2, # of connection points: 2
#     Edge 78, Type (0, 1), BuildingBlock: XUDNAN_clean_linker_2, # of connection points: 2
#     Edge 79, Type (0, 1), BuildingBlock: XUDNAN_clean_linker_2, # of connection points: 2
#     Edge 80, Type (0, 1), BuildingBlock: XUDNAN_clean_linker_2, # of connection points: 2
# Relax obj value: 0.023
# Max RMSD: 0.165
# Mean RMSD: 0.119
data_MOF--net-eea--node1-KUMBUR_clean_sbu_0--node2-PAMTOO_clean_linker_0--edge1-XUDNAN_clean_linker_2
_symmetry_space_group_name_H-M    P1
_symmetry_Int_Tables_number       1
_symmetry_cell_setting            triclinic
loop_
_symmetry_equiv_pos_as_xyz
'x, y, z'
_cell_length_a     53.861994
_cell_length_b     55.536127
_cell_length_c     66.043612
_cell_angle_alpha  90.081261
_cell_angle_beta   89.935675
_cell_angle_gamma 120.02983
loop_
_atom_site_label
_atom_site_type_symbol
_atom_site_fract_x
_atom_site_fract_y
_atom_site_fract_z
_atom_type_partial_charge
H0 H 0.2389 0.0674 0.43787 0.0
H1 H 0.23496 0.14263 0.44292 0.0
H2 H 0.21179 0.09739 0.38703 0.0
H3 H 0.24871 0.15834 0.38356 0.0
C4 C 0.2393 0.16474 0.39603 0.0
O5 O 0.21804 0.14153 0.40569 0.0
H6 H 0.2567 0.17751 0.40698 0.0
C7 C 0.23371 0.08219 0.43125 0.0
C8 C 0.22473 0.07918 0.41095 0.0
C9 C 0.2374 0.10491 0.44292 0.0
C10 C 0.23215 0.12493 0.43414 0.0
C11 C 0.22311 0.12218 0.414 0.0
C12 C 0.21918 0.09931 0.40251 0.0
H13 H 0.94959 0.17771 0.42852 0.0
H14 H 0.87474 0.0958 0.42565 0.0
H15 H 0.93547 0.12436 0.37716 0.0
H16 H 0.87975 0.08219 0.36042 0.0
C17 C 0.86872 0.07953 0.37517 0.0
O18 O 0.88752 0.08311 0.39063 0.0
H19 H 0.86206 0.09556 0.37589 0.0
C20 C 0.93663 0.15821 0.42064 0.0
C21 C 0.94589 0.1538 0.40175 0.0
C22 C 0.91097 0.13748 0.42956 0.0
C23 C 0.89433 0.11228 0.41908 0.0
C24 C 0.90331 0.1077 0.4003 0.0
C25 C 0.929 0.12828 0.39176 0.0
H26 H 0.84295 0.78294 0.44074 0.0
H27 H 0.92455 0.7862 0.44025 0.0
H28 H 0.89962 0.81741 0.38945 0.0
H29 H 0.93399 0.79077 0.37748 0.0
C30 C 0.94538 0.79322 0.39202 0.0
O31 O 0.94058 0.81025 0.40484 0.0
H32 H 0.93657 0.77229 0.39903 0.0
C33 C 0.8628 0.78807 0.43307 0.0
C34 C 0.86836 0.80049 0.41376 0.0
C35 C 0.88282 0.78277 0.44285 0.0
C36 C 0.90866 0.78967 0.43287 0.0
C37 C 0.91474 0.80214 0.41366 0.0
C38 C 0.89465 0.80761 0.40421 0.0
H39 H 0.08355 0.24342 0.59903 0.0
H40 H 0.14565 0.21656 0.60658 0.0
H41 H 0.08428 0.20079 0.6533 0.0
H42 H 0.14346 0.21312 0.67119 0.0
C43 C 0.15244 0.21403 0.65587 0.0
O44 O 0.1301 0.19757 0.64279 0.0
H45 H 0.16331 0.23618 0.65091 0.0
C46 C 0.09243 0.23296 0.60768 0.0
C47 C 0.08027 0.22145 0.62672 0.0
C48 C 0.11626 0.23166 0.60005 0.0
C49 C 0.12775 0.2185 0.61197 0.0
C50 C 0.11681 0.20801 0.6312 0.0
C51 C 0.09269 0.20894 0.63839 0.0
H52 H 0.80133 0.84587 0.5964 0.0
H53 H 0.8034 0.92391 0.60367 0.0
H54 H 0.84161 0.89687 0.64869 0.0
H55 H 0.82231 0.93565 0.66825 0.0
C56 C 0.81463 0.9387 0.65338 0.0
O57 O 0.83086 0.93627 0.63818 0.0
H58 H 0.79161 0.92238 0.65197 0.0
C59 C 0.80747 0.86466 0.60501 0.0
C60 C 0.82252 0.869 0.62326 0.0
C61 C 0.8007 0.88435 0.59755 0.0
C62 C 0.80794 0.90817 0.60921 0.0
C63 C 0.82236 0.91244 0.62773 0.0
C64 C 0.82963 0.8929 0.63473 0.0
H65 H 0.18321 0.95516 0.59989 0.0
H66 H 0.10421 0.87676 0.59784 0.0
H67 H 0.12516 0.92813 0.65076 0.0
H68 H 0.08797 0.87695 0.66512 0.0
C69 C 0.08727 0.86548 0.65113 0.0
O70 O 0.08737 0.88071 0.63449 0.0
H71 H 0.10702 0.86374 0.65119 0.0
C72 C 0.16319 0.94024 0.60697 0.0
C73 C 0.15718 0.94476 0.62693 0.0
C74 C 0.14411 0.91604 0.59618 0.0
C75 C 0.119 0.89562 0.60582 0.0
C76 C 0.11212 0.90009 0.62546 0.0
C77 C 0.13091 0.92485 0.63571 0.0
H78 H 0.90494 0.38879 0.77788 0.0
H79 H 0.91467 0.47046 0.78154 0.0
H80 H 0.86767 0.41661 0.73235 0.0
H81 H 0.89391 0.47168 0.7193 0.0
C82 C 0.90002 0.48277 0.73409 0.0
O83 O 0.88389 0.46458 0.74929 0.0
H84 H 0.92326 0.49037 0.73651 0.0
C85 C 0.90125 0.40472 0.77157 0.0
C86 C 0.88545 0.39938 0.75353 0.0
C87 C 0.91237 0.43036 0.7817 0.0
C88 C 0.9062 0.45045 0.77413 0.0
C89 C 0.88967 0.44513 0.75655 0.0
C90 C 0.87947 0.41979 0.74629 0.0
H91 H 0.63188 0.51509 0.76902 0.0
H92 H 0.56673 0.42884 0.76317 0.0
H93 H 0.62437 0.47054 0.71378 0.0
H94 H 0.56731 0.42144 0.69679 0.0
C95 C 0.55837 0.41872 0.71233 0.0
O96 O 0.57974 0.42333 0.72608 0.0
H97 H 0.55138 0.43441 0.71414 0.0
C98 C 0.62131 0.49609 0.76019 0.0
C99 C 0.63108 0.4958 0.74044 0.0
C100 C 0.59849 0.47191 0.76876 0.0
C101 C 0.58476 0.4475 0.75703 0.0
C102 C 0.59382 0.44699 0.73723 0.0
C103 C 0.61741 0.47099 0.7291 0.0
H104 H 0.51787 0.12107 0.76473 0.0
H105 H 0.59946 0.12425 0.76248 0.0
H106 H 0.57727 0.16431 0.71621 0.0
H107 H 0.62322 0.15725 0.69898 0.0
C108 C 0.62106 0.14321 0.71166 0.0
O109 O 0.61729 0.1542 0.72949 0.0
H110 H 0.60174 0.12272 0.70825 0.0
C111 C 0.53798 0.1272 0.75708 0.0
C112 C 0.54454 0.14283 0.73908 0.0
C113 C 0.55769 0.12064 0.7659 0.0
C114 C 0.5841 0.12933 0.75611 0.0
C115 C 0.59118 0.14505 0.73826 0.0
C116 C 0.57158 0.15211 0.72998 0.0
H117 H 0.75247 0.56604 0.9368 0.0
H118 H 0.8305 0.5625 0.94107 0.0
H119 H 0.76958 0.53108 0.98959 0.0
H120 H 0.8224 0.54125 1.00721 0.0
C121 C 0.83483 0.5523 0.99349 0.0
O122 O 0.819 0.53842 0.97652 0.0
H123 H 0.83799 0.57372 0.99415 0.0
C124 C 0.76658 0.56114 0.94528 0.0
C125 C 0.75793 0.54866 0.96453 0.0
C126 C 0.79246 0.56582 0.9364 0.0
C127 C 0.81032 0.55876 0.94742 0.0
C128 C 0.80204 0.54617 0.9665 0.0
C129 C 0.77574 0.54082 0.97484 0.0
H130 H 0.45472 0.17327 0.93771 0.0
H131 H 0.46945 0.25697 0.9352 0.0
H132 H 0.48673 0.22651 0.98998 0.0
H133 H 0.45592 0.25917 0.99525 0.0
C134 C 0.46471 0.27277 0.98171 0.0
O135 O 0.48549 0.26865 0.97276 0.0
H136 H 0.44677 0.26713 0.97089 0.0
C137 C 0.46207 0.1934 0.9447 0.0
C138 C 0.47146 0.19755 0.96491 0.0
C139 C 0.46125 0.21465 0.93373 0.0
C140 C 0.46996 0.24027 0.94329 0.0
C141 C 0.47886 0.24443 0.96353 0.0
C142 C 0.48005 0.22325 0.97426 0.0
H143 H 0.84291 0.28356 0.92994 0.0
H144 H 0.7673 0.20236 0.93128 0.0
H145 H 0.78685 0.2576 0.98185 0.0
H146 H 0.75045 0.20417 0.99749 0.0
C147 C 0.74924 0.19286 0.98329 0.0
O148 O 0.74975 0.20871 0.96696 0.0
H149 H 0.76845 0.19025 0.98303 0.0
C150 C 0.8241 0.26792 0.93788 0.0
C151 C 0.81779 0.27377 0.95731 0.0
C152 C 0.806 0.24239 0.92825 0.0
C153 C 0.78157 0.22205 0.93854 0.0
C154 C 0.77449 0.22769 0.95775 0.0
C155 C 0.79248 0.25357 0.96698 0.0
H156 H 0.60367 0.7469 0.101 0.0
H157 H 0.58659 0.8149 0.10548 0.0
H158 H 0.56181 0.76468 0.05237 0.0
H159 H 0.59335 0.82576 0.04531 0.0
C160 C 0.58528 0.83214 0.05861 0.0
O161 O 0.56599 0.8089 0.06933 0.0
H162 H 0.604 0.84571 0.06838 0.0
C163 C 0.59467 0.75895 0.09487 0.0
C164 C 0.58192 0.75236 0.07547 0.0
C165 C 0.59692 0.78176 0.10595 0.0
C166 C 0.58585 0.79762 0.09734 0.0
C167 C 0.57412 0.79187 0.07794 0.0
C168 C 0.57171 0.76912 0.0672 0.0
H169 H 0.29516 0.85247 0.09923 0.0
H170 H 0.22131 0.77061 0.10526 0.0
H171 H 0.28135 0.78733 0.05727 0.0
H172 H 0.22659 0.74432 0.0442 0.0
C173 C 0.21491 0.74118 0.05874 0.0
O174 O 0.2343 0.7492 0.07453 0.0
H175 H 0.20471 0.75437 0.05826 0.0
C176 C 0.2823 0.83135 0.09376 0.0
C177 C 0.29149 0.82265 0.07668 0.0
C178 C 0.25704 0.81287 0.10426 0.0
C179 C 0.24098 0.78514 0.09759 0.0
C180 C 0.24991 0.77602 0.08076 0.0
C181 C 0.27509 0.79468 0.07043 0.0
H182 H 0.18354 0.44206 0.0986 0.0
H183 H 0.27345 0.46686 0.09847 0.0
H184 H 0.23587 0.48281 0.04667 0.0
H185 H 0.28025 0.46657 0.0345 0.0
C186 C 0.28953 0.4686 0.04985 0.0
O187 O 0.28299 0.48546 0.06159 0.0
H188 H 0.27947 0.44737 0.05655 0.0
C189 C 0.20447 0.45215 0.09149 0.0
C190 C 0.20705 0.46322 0.07195 0.0
C191 C 0.22813 0.4533 0.10157 0.0
C192 C 0.25467 0.46532 0.09127 0.0
C193 C 0.25746 0.47546 0.07144 0.0
C194 C 0.23373 0.47493 0.06195 0.0
H195 H 0.40823 0.90323 0.2636 0.0
H196 H 0.4739 0.88074 0.26791 0.0
H197 H 0.41763 0.86624 0.31829 0.0
H198 H 0.4777 0.88204 0.33215 0.0
C199 C 0.48553 0.87979 0.31709 0.0
O200 O 0.46216 0.86265 0.30504 0.0
H201 H 0.49764 0.90091 0.31023 0.0
C202 C 0.41911 0.89456 0.27211 0.0
C203 C 0.40984 0.88469 0.29194 0.0
C204 C 0.44189 0.89286 0.26306 0.0
C205 C 0.45591 0.88169 0.27437 0.0
C206 C 0.44748 0.87237 0.29427 0.0
C207 C 0.42407 0.87339 0.3029 0.0
H208 H 0.12138 0.51536 0.26461 0.0
H209 H 0.12524 0.59448 0.27109 0.0
H210 H 0.169 0.57143 0.31354 0.0
H211 H 0.1554 0.61046 0.33363 0.0
C212 C 0.1446 0.6124 0.3199 0.0
O213 O 0.15809 0.60987 0.30291 0.0
H214 H 0.12174 0.59548 0.32056 0.0
C215 C 0.12903 0.53485 0.27259 0.0
C216 C 0.14682 0.54086 0.28978 0.0
C217 C 0.12064 0.55386 0.26587 0.0
C218 C 0.1309 0.57929 0.27616 0.0
C219 C 0.14853 0.58546 0.29306 0.0
C220 C 0.15621 0.56635 0.2999 0.0
H221 H 0.51391 0.61255 0.2705 0.0
H222 H 0.43453 0.53528 0.26488 0.0
H223 H 0.45531 0.57988 0.32104 0.0
H224 H 0.42772 0.52059 0.32681 0.0
C225 C 0.41444 0.51313 0.31285 0.0
O226 O 0.41728 0.53557 0.30193 0.0
H227 H 0.42206 0.50141 0.3035 0.0
C228 C 0.49383 0.59695 0.27712 0.0
C229 C 0.48744 0.59934 0.29746 0.0
C230 C 0.47486 0.57408 0.26523 0.0
C231 C 0.44942 0.55299 0.27389 0.0
C232 C 0.44258 0.55516 0.29402 0.0
C233 C 0.46137 0.57832 0.30566 0.0
Tb234 Tb 0.50487 0.99801 0.98914 0.0
C235 C 0.55778 0.08053 0.05722 0.0
C236 C 0.60777 0.09328 0.05802 0.0
C237 C 0.59361 0.12662 0.06871 0.0
C238 C 0.57889 0.07396 0.05356 0.0
C239 C 0.56475 0.10673 0.06518 0.0
C240 C 0.61508 0.11984 0.06526 0.0
C241 C 0.51401 0.09039 0.06787 0.0
N242 N 0.53015 0.06044 0.05425 0.0
C243 C 0.5082 0.06453 0.06034 0.0
C244 C 0.54242 0.11172 0.07007 0.0
Tb245 Tb 0.52286 0.01916 0.04112 0.0
N246 N 0.57081 0.04785 0.04713 0.0
C247 C 0.59045 0.03913 0.0462 0.0
C248 C 0.62824 0.085 0.05576 0.0
C249 C 0.61947 0.05768 0.05009 0.0
H250 H 0.48619 0.04813 0.05865 0.0
H251 H 0.63502 0.05085 0.04873 0.0
H252 H 0.63718 0.13507 0.06861 0.0
H253 H 0.49659 0.09382 0.07205 0.0
H254 H 0.58404 0.01805 0.04193 0.0
H255 H 0.39023 0.96228 0.9891 0.0
H256 H 0.65068 0.09927 0.0589 0.0
H257 H 0.54014 0.97263 0.96308 0.0
H258 H 0.44072 0.99719 0.99133 0.0
H259 H 0.52913 0.92772 0.94827 0.0
H260 H 0.59947 0.14695 0.07469 0.0
H261 H 0.3755 0.91388 0.97981 0.0
H262 H 0.38959 0.87956 0.96785 0.0
H263 H 0.54687 0.13163 0.07613 0.0
H264 H 0.4274 0.87014 0.95647 0.0
N265 N 0.4561 0.9691 0.98484 0.0
C266 C 0.43547 0.97639 0.9876 0.0
C267 C 0.3981 0.9292 0.98094 0.0
C268 C 0.41911 0.92235 0.97626 0.0
C269 C 0.40634 0.95649 0.98616 0.0
C270 C 0.44826 0.94305 0.97814 0.0
H271 H 0.4794 0.88814 0.94867 0.0
N272 N 0.49717 0.95845 0.97283 0.0
C273 C 0.5122 0.93012 0.95506 0.0
C274 C 0.46948 0.93759 0.97186 0.0
C275 C 0.51835 0.95558 0.96359 0.0
C276 C 0.4841 0.90782 0.95532 0.0
C277 C 0.46222 0.91155 0.96339 0.0
O278 O 0.52532 0.03633 0.97353 0.0
O279 O 0.53792 0.02588 0.00999 0.0
O280 O 0.52052 0.05188 0.02412 0.0
O281 O 0.4878 0.02446 0.99944 0.0
O282 O 0.54929 0.00753 0.98774 0.0
O283 O 0.49834 0.99879 0.95757 0.0
O284 O 0.49798 0.00557 0.06773 0.0
O285 O 0.49168 0.98955 0.02031 0.0
O286 O 0.51189 0.96627 1.00307 0.0
O287 O 0.53358 0.98635 0.03412 0.0
O288 O 0.47613 1.00165 0.0436 0.0
O289 O 0.53583 1.00213 0.06459 0.0
C290 C 0.55908 0.02497 1.00249 0.0
C291 C 0.53748 0.03436 0.93931 0.0
C292 C 0.5517 0.05011 0.90422 0.0
C293 C 0.53109 0.04074 0.91998 0.0
C294 C 0.5785 0.0524 0.90813 0.0
C295 C 0.56467 0.0375 0.94271 0.0
C296 C 0.58488 0.04626 0.9272 0.0
C297 C 0.50058 0.04732 0.01059 0.0
C298 C 0.51603 0.02527 0.95587 0.0
C299 C 0.43336 0.89042 0.96263 0.0
C300 C 0.41184 0.89579 0.96911 0.0
C301 C 0.46857 0.9848 0.02851 0.0
C302 C 0.52195 0.00669 0.09794 0.0
C303 C 0.50872 0.98682 0.11348 0.0
C304 C 0.51447 0.99466 0.13408 0.0
C305 C 0.53376 0.02271 0.13875 0.0
C306 C 0.54118 0.03441 0.10309 0.0
C307 C 0.54699 0.04233 0.12337 0.0
C308 C 0.52493 0.96646 0.02014 0.0
C309 C 0.51485 0.99831 0.07652 0.0
H310 H 0.51036 0.03893 0.9174 0.0
H311 H 0.5946 0.05875 0.89637 0.0
H312 H 0.5706 0.03343 0.95732 0.0
H313 H 0.60568 0.04837 0.93001 0.0
H314 H 0.49369 0.9654 0.10951 0.0
H315 H 0.53908 0.02944 0.15433 0.0
H316 H 0.55167 0.04995 0.09149 0.0
H317 H 0.56191 0.0638 0.1272 0.0
Tb318 Tb 0.03519 0.50646 0.99875 0.0
C319 C 0.93577 0.46348 0.05924 0.0
C320 C 0.92538 0.50048 0.06537 0.0
C321 C 0.88777 0.45229 0.0694 0.0
C322 C 0.94467 0.49146 0.05973 0.0
C323 C 0.90729 0.44352 0.06422 0.0
C324 C 0.89685 0.48073 0.0701 0.0
C325 C 0.9202 0.40792 0.06033 0.0
N326 N 0.95548 0.45589 0.05468 0.0
C327 C 0.94832 0.42851 0.05585 0.0
C328 C 0.89953 0.41542 0.0644 0.0
Tb329 Tb 1.00114 0.49134 0.04795 0.0
N330 N 0.97255 0.50986 0.05551 0.0
C331 C 0.98275 0.53779 0.05748 0.0
C332 C 0.93546 0.52905 0.06646 0.0
C333 C 0.96433 0.54778 0.06262 0.0
H334 H 0.96404 0.42237 0.05277 0.0
H335 H 0.97247 0.56993 0.06368 0.0
H336 H 0.88169 0.48726 0.07442 0.0
H337 H 0.91453 0.38628 0.06074 0.0
H338 H 1.005 0.55264 0.05471 0.0
H339 H 0.05923 0.42397 0.98681 0.0
H340 H 0.92127 0.53683 0.07056 0.0
H341 H 0.07244 0.57314 0.98686 0.0
H342 H 0.02826 0.44379 0.99383 0.0
H343 H 0.12134 0.60679 0.97556 0.0
H344 H 0.86578 0.4373 0.07324 0.0
H345 H 0.11111 0.45498 0.98078 0.0
H346 H 0.15213 0.50356 0.97546 0.0
H347 H 0.87784 0.39944 0.06806 0.0
H348 H 0.16932 0.55369 0.97273 0.0
N349 N 0.06237 0.4859 0.99294 0.0
C350 C 0.05086 0.45772 0.99142 0.0
C351 C 0.09765 0.46386 0.9841 0.0
C352 C 0.10894 0.49266 0.98421 0.0
C353 C 0.06837 0.44631 0.9874 0.0
C354 C 0.09053 0.50312 0.98881 0.0
H355 H 0.15781 0.59235 0.9723 0.0
N356 N 0.08096 0.53978 0.99024 0.0
C357 C 0.11584 0.58568 0.97914 0.0
C358 C 0.10022 0.53116 0.9874 0.0
C359 C 0.08809 0.56651 0.98552 0.0
C360 C 0.13635 0.57745 0.97734 0.0
C361 C 0.12851 0.54975 0.98108 0.0
O362 O 0.02797 0.52302 0.9722 0.0
O363 O 1.00329 0.50728 0.01795 0.0
O364 O 0.96872 0.46653 0.02557 0.0
O365 O 0.99761 0.46319 1.00088 0.0
O366 O 0.02306 0.53878 0.99768 0.0
O367 O 0.01847 0.48055 0.9731 0.0
O368 O 1.00877 0.47363 0.0736 0.0
O369 O 0.03464 0.49234 0.02916 0.0
O370 O 0.06681 0.5373 0.01999 0.0
O371 O 0.03626 0.53487 0.0461 0.0
O372 O 1.01329 0.45898 0.04757 0.0
O373 O 0.01596 0.5154 0.07462 0.0
C374 C 1.00387 0.52897 0.0116 0.0
C375 C 0.03336 0.50373 0.94168 0.0
C376 C 0.02913 0.49235 0.90562 0.0
C377 C 0.01633 0.4898 0.92472 0.0
C378 C 0.05902 0.50917 0.90367 0.0
C379 C 0.06312 0.52058 0.93922 0.0
C380 C 0.07583 0.52324 0.92037 0.0
C381 C 0.97215 0.45405 0.00964 0.0
C382 C 0.01996 0.50039 0.96177 0.0
C383 C 0.14742 0.53972 0.97745 0.0
C384 C 0.13761 0.51118 0.97894 0.0
C385 C 0.03396 0.47038 0.03481 0.0
C386 C 1.00125 0.48931 0.10501 0.0
C387 C 0.01744 0.50216 0.12252 0.0
C388 C 1.004 0.49665 0.14163 0.0
C389 C 0.97432 0.4781 0.14299 0.0
C390 C 0.97175 0.47053 0.10688 0.0
C391 C 0.95838 0.46509 0.12572 0.0
C392 C 0.06134 0.54758 0.03653 0.0
C393 C 0.01535 0.49517 0.08501 0.0
H394 H 0.99332 0.4767 0.92645 0.0
H395 H 0.06936 0.51168 0.88912 0.0
H396 H 0.07664 0.53184 0.95176 0.0
H397 H 0.09881 0.5363 0.91869 0.0
H398 H 0.04028 0.51656 0.12126 0.0
H399 H 0.9635 0.47331 0.15751 0.0
H400 H 0.959 0.45973 0.09389 0.0
H401 H 0.9356 0.45057 0.12695 0.0
Tb402 Tb 0.54091 0.51899 0.04288 0.0
C403 C 0.48413 0.54465 0.97317 0.0
C404 C 0.43413 0.51009 0.9774 0.0
C405 C 0.44725 0.55486 0.96242 0.0
C406 C 0.46346 0.51879 0.97975 0.0
C407 C 0.47635 0.56264 0.96372 0.0
C408 C 0.42614 0.52861 0.96931 0.0
C409 C 0.52622 0.59263 0.9551 0.0
N410 N 0.51187 0.55108 0.97441 0.0
C411 C 0.53277 0.57396 0.96457 0.0
C412 C 0.49795 0.58723 0.95503 0.0
Tb413 Tb 0.52087 0.51978 0.99055 0.0
N414 N 0.47218 0.50145 0.98712 0.0
C415 C 0.4524 0.4742 0.99094 0.0
C416 C 0.41382 0.48277 0.98256 0.0
C417 C 0.42303 0.4646 0.98898 0.0
H418 H 0.5547 0.57832 0.96471 0.0
H419 H 0.40753 0.44322 0.99255 0.0
H420 H 0.40373 0.52247 0.96764 0.0
H421 H 0.54299 0.61117 0.9479 0.0
H422 H 0.45887 0.45978 0.9961 0.0
H423 H 0.65551 0.59029 0.04065 0.0
H424 H 0.39107 0.47528 0.98108 0.0
H425 H 0.50309 0.45893 0.06679 0.0
H426 H 0.60476 0.57652 0.03684 0.0
H427 H 0.51196 0.42434 0.08374 0.0
H428 H 0.44081 0.56854 0.95546 0.0
H429 H 0.66898 0.55659 0.0535 0.0
H430 H 0.65335 0.5092 0.06799 0.0
H431 H 0.4929 0.60162 0.94758 0.0
H432 H 0.61422 0.46399 0.0799 0.0
N433 N 0.58904 0.53479 0.04676 0.0
C434 C 0.61004 0.56145 0.04251 0.0
C435 C 0.64654 0.55033 0.05183 0.0
C436 C 0.62498 0.52366 0.05739 0.0
C437 C 0.63901 0.56943 0.04464 0.0
C438 C 0.59613 0.51653 0.05472 0.0
H439 H 0.56138 0.43232 0.08617 0.0
N440 N 0.54697 0.48589 0.05919 0.0
C441 C 0.52968 0.443 0.07739 0.0
C442 C 0.57429 0.49118 0.06128 0.0
C443 C 0.52474 0.46267 0.06781 0.0
C444 C 0.5576 0.44755 0.07869 0.0
C445 C 0.5804 0.47209 0.07086 0.0
O446 O 0.51779 0.51464 0.06969 0.0
O447 O 0.50939 0.5179 0.02209 0.0
O448 O 0.52892 0.55938 1.00384 0.0
O449 O 0.5549 0.56169 0.03296 0.0
O450 O 0.49429 0.49242 0.04655 0.0
O451 O 0.55814 0.55178 0.064 0.0
O452 O 0.54456 0.52582 0.96373 0.0
O453 O 0.55238 0.52131 0.01134 0.0
O454 O 0.53568 0.48124 0.02926 0.0
O455 O 0.50855 0.47689 1.00045 0.0
O456 O 0.56749 0.54649 0.9868 0.0
O457 O 0.50545 0.48742 0.96903 0.0
C458 C 0.4865 0.5008 0.03096 0.0
C459 C 0.54598 0.53785 0.09813 0.0
C460 C 0.53966 0.54277 0.13425 0.0
C461 C 0.53262 0.54416 0.11391 0.0
C462 C 0.56018 0.53492 0.13856 0.0
C463 C 0.5668 0.53062 0.10279 0.0
C464 C 0.57373 0.52901 0.1229 0.0
C465 C 0.54517 0.57287 0.01969 0.0
C466 C 0.53751 0.53833 0.077 0.0
C467 C 0.60905 0.4785 0.07278 0.0
C468 C 0.63132 0.50424 0.066 0.0
C469 C 0.57534 0.53813 1.0024 0.0
C470 C 0.51758 0.50209 0.93494 0.0
C471 C 0.53159 0.49647 0.91917 0.0
C472 C 0.52449 0.49755 0.89874 0.0
C473 C 0.50321 0.50441 0.89441 0.0
C474 C 0.49616 0.50847 0.93019 0.0
C475 C 0.48914 0.50973 0.91005 0.0
C476 C 0.51949 0.46678 0.0138 0.0
C477 C 0.52598 0.50185 0.95618 0.0
H478 H 0.51659 0.54987 0.11036 0.0
H479 H 0.56624 0.53395 0.15405 0.0
H480 H 0.5778 0.52631 0.09097 0.0
H481 H 0.58977 0.52334 0.12634 0.0
H482 H 0.54819 0.49155 0.92279 0.0
H483 H 0.49698 0.50508 0.87893 0.0
H484 H 0.48481 0.5124 0.942 0.0
H485 H 0.47259 0.51471 0.90654 0.0
Tb486 Tb 0.16176 0.33259 0.32451 0.0
C487 C 0.21839 0.41392 0.39366 0.0
C488 C 0.26814 0.42582 0.39277 0.0
C489 C 0.25548 0.45989 0.40435 0.0
C490 C 0.23887 0.4067 0.38938 0.0
C491 C 0.22629 0.44028 0.40173 0.0
C492 C 0.27639 0.45268 0.39983 0.0
C493 C 0.1759 0.42481 0.40591 0.0
N494 N 0.19045 0.39429 0.39107 0.0
C495 C 0.16916 0.39886 0.39797 0.0
C496 C 0.20459 0.44576 0.40752 0.0
Tb497 Tb 0.1816 0.35281 0.37729 0.0
N498 N 0.22995 0.3805 0.3827 0.0
C499 C 0.24929 0.37156 0.38034 0.0
C500 C 0.28813 0.41718 0.38937 0.0
C501 C 0.2786 0.3898 0.3834 0.0
H502 H 0.14695 0.38276 0.39666 0.0
H503 H 0.29383 0.38276 0.38102 0.0
H504 H 0.2988 0.46778 0.40232 0.0
H505 H 0.15899 0.42862 0.41079 0.0
H506 H 0.24249 0.3506 0.37558 0.0
H507 H 0.04894 0.30118 0.32607 0.0
H508 H 0.31084 0.43127 0.39167 0.0
H509 H 0.19557 0.30485 0.30085 0.0
H510 H 0.10039 0.33348 0.33028 0.0
H511 H 0.1833 0.26079 0.2836 0.0
H512 H 0.26206 0.4804 0.41032 0.0
H513 H 0.03177 0.25376 0.31281 0.0
H514 H 0.04369 0.21891 0.29811 0.0
H515 H 0.20976 0.46578 0.41378 0.0
H516 H 0.08034 0.20792 0.28636 0.0
N517 N 0.11305 0.30463 0.32019 0.0
C518 C 0.09362 0.313 0.32444 0.0
C519 C 0.05456 0.2679 0.31464 0.0
C520 C 0.07455 0.26005 0.30905 0.0
C521 C 0.06419 0.29466 0.32207 0.0
C522 C 0.10395 0.27922 0.31191 0.0
H523 H 0.13254 0.22362 0.28057 0.0
N524 N 0.15222 0.29262 0.30783 0.0
C525 C 0.16648 0.26389 0.28975 0.0
C526 C 0.12433 0.273 0.30543 0.0
C527 C 0.17333 0.28887 0.29947 0.0
C528 C 0.13782 0.24294 0.28811 0.0
C529 C 0.11627 0.2475 0.29575 0.0
O530 O 0.18353 0.34684 0.29657 0.0
O531 O 0.19402 0.35926 0.34587 0.0
O532 O 0.18119 0.38705 0.36147 0.0
O533 O 0.15004 0.36351 0.33491 0.0
O534 O 0.20805 0.34883 0.32071 0.0
O535 O 0.15077 0.35605 0.30549 0.0
O536 O 0.1569 0.33812 0.40393 0.0
O537 O 0.15014 0.32462 0.35604 0.0
O538 O 0.16678 0.29963 0.3384 0.0
O539 O 0.19283 0.32115 0.36791 0.0
O540 O 0.13506 0.33607 0.38009 0.0
O541 O 0.19455 0.33464 0.39999 0.0
C542 C 0.21651 0.36319 0.33708 0.0
C543 C 0.15602 0.35138 0.27039 0.0
C544 C 0.16097 0.36239 0.23419 0.0
C545 C 0.173 0.36671 0.25374 0.0
C546 C 0.13197 0.3423 0.23146 0.0
C547 C 0.1272 0.33112 0.26718 0.0
C548 C 0.11532 0.32664 0.24782 0.0
C549 C 0.16448 0.38589 0.34641 0.0
C550 C 0.16809 0.35772 0.29107 0.0
C551 C 0.08703 0.22778 0.29357 0.0
C552 C 0.06618 0.23403 0.30026 0.0
C553 C 0.12726 0.32004 0.3645 0.0
C554 C 0.18225 0.34002 0.4336 0.0
C555 C 0.17336 0.32053 0.44962 0.0
C556 C 0.18152 0.32974 0.46977 0.0
C557 C 0.19804 0.35839 0.47367 0.0
C558 C 0.19889 0.36845 0.43807 0.0
C559 C 0.20656 0.37756 0.45793 0.0
C560 C 0.18236 0.30069 0.3543 0.0
C561 C 0.17401 0.33087 0.41236 0.0
H562 H 0.19526 0.38241 0.25607 0.0
H563 H 0.12229 0.33848 0.21657 0.0
H564 H 0.1137 0.31904 0.27965 0.0
H565 H 0.09304 0.31109 0.24552 0.0
H566 H 0.16076 0.29847 0.44642 0.0
H567 H 0.2046 0.36593 0.48899 0.0
H568 H 0.20607 0.3837 0.42625 0.0
H569 H 0.21939 0.39959 0.46112 0.0
Tb570 Tb 0.68758 0.83293 0.33322 0.0
C571 C 0.59713 0.79848 0.40103 0.0
C572 C 0.57593 0.82738 0.39575 0.0
C573 C 0.54794 0.78203 0.41153 0.0
C574 C 0.5992 0.82261 0.39378 0.0
C575 C 0.57178 0.77818 0.41052 0.0
C576 C 0.55001 0.80662 0.40413 0.0
C577 C 0.5966 0.75354 0.41928 0.0
N578 N 0.62073 0.79577 0.39995 0.0
C579 C 0.62126 0.77435 0.40977 0.0
C580 C 0.57158 0.75521 0.41936 0.0
Tb581 Tb 0.66003 0.8305 0.38378 0.0
N582 N 0.62475 0.84222 0.38608 0.0
C583 C 0.6291 0.86815 0.38168 0.0
C584 C 0.57979 0.85324 0.38997 0.0
C585 C 0.60667 0.87388 0.38327 0.0
H586 H 0.64043 0.77278 0.4098 0.0
H587 H 0.61016 0.89423 0.37928 0.0
H588 H 0.53178 0.80975 0.40555 0.0
H589 H 0.59692 0.73624 0.42653 0.0
H590 H 0.64959 0.88444 0.37636 0.0
H591 H 0.73025 0.76329 0.33935 0.0
H592 H 0.56246 0.85775 0.3912 0.0
H593 H 0.71331 0.89389 0.31051 0.0
H594 H 0.69304 0.77637 0.34146 0.0
H595 H 0.75915 0.92938 0.29537 0.0
H596 H 0.52815 0.76655 0.41856 0.0
H597 H 0.77919 0.79759 0.32797 0.0
H598 H 0.81305 0.84535 0.31433 0.0
H599 H 0.55255 0.73914 0.42682 0.0
H600 H 0.82095 0.89063 0.30231 0.0
N601 N 0.72054 0.81826 0.33189 0.0
C602 C 0.71415 0.79171 0.3364 0.0
C603 C 0.76287 0.80352 0.32882 0.0
C604 C 0.76884 0.83012 0.32306 0.0
C605 C 0.73527 0.78411 0.33522 0.0
C606 C 0.74685 0.83679 0.3246 0.0
H607 H 0.80082 0.92201 0.29488 0.0
N608 N 0.72911 0.867 0.31888 0.0
C609 C 0.75727 0.91059 0.30172 0.0
C610 C 0.75131 0.8621 0.31788 0.0
C611 C 0.73135 0.89043 0.31026 0.0
C612 C 0.78076 0.90638 0.30152 0.0
C613 C 0.77785 0.88172 0.3094 0.0
O614 O 0.67726 0.83754 0.30311 0.0
O615 O 0.65417 0.83245 0.35151 0.0
O616 O 0.62977 0.79077 0.36997 0.0
O617 O 0.65729 0.78973 0.34274 0.0
O618 O 0.66567 0.85635 0.32614 0.0
O619 O 0.66902 0.7978 0.31451 0.0
O620 O 0.68051 0.83046 0.4109 0.0
O621 O 0.69367 0.83148 0.36525 0.0
O622 O 0.71751 0.87197 0.34856 0.0
O623 O 0.68666 0.87335 0.37264 0.0
O624 O 0.6818 0.80666 0.39002 0.0
O625 O 0.6723 0.8637 0.40423 0.0
C626 C 0.64815 0.84792 0.34114 0.0
C627 C 0.68006 0.80637 0.27969 0.0
C628 C 0.67714 0.80099 0.24293 0.0
C629 C 0.669 0.80869 0.26098 0.0
C630 C 0.69672 0.79134 0.24369 0.0
C631 C 0.69998 0.79704 0.28008 0.0
C632 C 0.70826 0.78964 0.26217 0.0
C633 C 0.63465 0.77782 0.35497 0.0
C634 C 0.66904 0.81174 0.29864 0.0
C635 C 0.80028 0.87574 0.30859 0.0
C636 C 0.79578 0.84996 0.31543 0.0
C637 C 0.69956 0.81558 0.37515 0.0
C638 C 0.67272 0.85212 0.43874 0.0
C639 C 0.69255 0.85707 0.4542 0.0
C640 C 0.68452 0.85462 0.47475 0.0
C641 C 0.65624 0.84778 0.47949 0.0
C642 C 0.64467 0.84533 0.44378 0.0
C643 C 0.63657 0.84332 0.46408 0.0
C644 C 0.7109 0.88545 0.36216 0.0
C645 C 0.68172 0.85301 0.41759 0.0
H646 H 0.65355 0.81578 0.26049 0.0
H647 H 0.70333 0.78545 0.22993 0.0
H648 H 0.7088 0.79492 0.29419 0.0
H649 H 0.72348 0.78233 0.26264 0.0
H650 H 0.71429 0.86274 0.45009 0.0
H651 H 0.64905 0.84525 0.49506 0.0
H652 H 0.62904 0.84144 0.43209 0.0
H653 H 0.61484 0.83791 0.46791 0.0
Tb654 Tb 0.19651 0.84903 0.37155 0.0
C655 C 0.13832 0.88299 0.30686 0.0
C656 C 0.08826 0.84877 0.31099 0.0
C657 C 0.10186 0.89507 0.29889 0.0
C658 C 0.11751 0.8568 0.31255 0.0
C659 C 0.13084 0.90225 0.29935 0.0
C660 C 0.08056 0.86833 0.30474 0.0
C661 C 0.18072 0.93266 0.29105 0.0
N662 N 0.16589 0.8888 0.30726 0.0
C663 C 0.18693 0.91269 0.29853 0.0
C664 C 0.15261 0.92763 0.29178 0.0
Tb665 Tb 0.17471 0.85577 0.32078 0.0
N666 N 0.12599 0.83855 0.31813 0.0
C667 C 0.10592 0.81106 0.32066 0.0
C668 C 0.0677 0.82111 0.31499 0.0
C669 C 0.07661 0.80206 0.31945 0.0
H670 H 0.20874 0.9168 0.29791 0.0
H671 H 0.06091 0.78044 0.32208 0.0
H672 H 0.05822 0.8627 0.30371 0.0
H673 H 0.19762 0.95188 0.28471 0.0
H674 H 0.1121 0.79591 0.32431 0.0
H675 H 0.30977 0.92433 0.37636 0.0
H676 H 0.045 0.81409 0.31406 0.0
H677 H 0.15971 0.78477 0.3893 0.0
H678 H 0.25874 0.90884 0.37138 0.0
H679 H 0.16977 0.74916 0.40288 0.0
H680 H 0.09565 0.90969 0.29341 0.0
H681 H 0.32488 0.89022 0.38489 0.0
H682 H 0.31076 0.84113 0.39428 0.0
H683 H 0.1478 0.94303 0.28586 0.0
H684 H 0.27252 0.79329 0.40166 0.0
N685 N 0.24469 0.86589 0.37598 0.0
C686 C 0.26481 0.89355 0.37497 0.0
C687 C 0.30236 0.8832 0.38255 0.0
C688 C 0.28152 0.85524 0.38508 0.0
C689 C 0.2939 0.90251 0.37782 0.0
C690 C 0.25254 0.84719 0.38167 0.0
H691 H 0.21985 0.7591 0.40557 0.0
N692 N 0.20362 0.8143 0.38367 0.0
C693 C 0.18725 0.76908 0.39802 0.0
C694 C 0.2312 0.82041 0.38576 0.0
C695 C 0.18164 0.78933 0.39033 0.0
C696 C 0.21554 0.77472 0.39944 0.0
C697 C 0.23797 0.80076 0.39351 0.0
O698 O 0.17305 0.83933 0.39878 0.0
O699 O 0.16417 0.84967 0.3526 0.0
O700 O 0.18192 0.89294 0.33703 0.0
O701 O 0.20877 0.89269 0.36502 0.0
O702 O 0.15012 0.82089 0.37508 0.0
O703 O 0.21156 0.87881 0.39504 0.0
O704 O 0.19732 0.86351 0.2932 0.0
O705 O 0.20791 0.85668 0.33987 0.0
O706 O 0.19312 0.81427 0.35356 0.0
O707 O 0.16161 0.81259 0.32877 0.0
O708 O 0.2206 0.88468 0.31672 0.0
O709 O 0.15919 0.8244 0.29852 0.0
C710 C 0.14167 0.83113 0.36106 0.0
C711 C 0.19911 0.86102 0.42845 0.0
C712 C 0.19567 0.86818 0.46479 0.0
C713 C 0.18914 0.87077 0.44447 0.0
C714 C 0.21242 0.85578 0.46872 0.0
C715 C 0.21594 0.84896 0.43283 0.0
C716 C 0.22251 0.84635 0.45285 0.0
C717 C 0.19856 0.90491 0.35298 0.0
C718 C 0.19099 0.86278 0.40739 0.0
C719 C 0.26684 0.80817 0.39593 0.0
C720 C 0.2886 0.83541 0.39174 0.0
C721 C 0.22983 0.87609 0.33133 0.0
C722 C 0.16829 0.84123 0.26486 0.0
C723 C 0.1838 0.84145 0.24757 0.0
C724 C 0.17485 0.84428 0.2281 0.0
C725 C 0.15009 0.84649 0.22615 0.0
C726 C 0.14347 0.84318 0.26246 0.0
C727 C 0.13445 0.84576 0.24321 0.0
C728 C 0.17447 0.80124 0.3388 0.0
C729 C 0.17859 0.83988 0.2853 0.0
H730 H 0.17599 0.87997 0.44111 0.0
H731 H 0.21821 0.85383 0.48408 0.0
H732 H 0.22394 0.84149 0.42085 0.0
H733 H 0.23554 0.83701 0.45608 0.0
H734 H 0.20309 0.84011 0.24929 0.0
H735 H 0.14275 0.84864 0.21135 0.0
H736 H 0.13106 0.84278 0.27543 0.0
H737 H 0.11533 0.84736 0.24153 0.0
Tb738 Tb 0.8479 0.66078 0.66423 0.0
C739 C 0.89985 0.75499 0.72596 0.0
C740 C 0.94989 0.76759 0.72751 0.0
C741 C 0.93627 0.80237 0.73453 0.0
C742 C 0.92091 0.74772 0.72365 0.0
C743 C 0.90732 0.78227 0.73177 0.0
C744 C 0.95746 0.79499 0.73258 0.0
C745 C 0.8569 0.76707 0.73438 0.0
N746 N 0.87192 0.73486 0.72385 0.0
C747 C 0.85046 0.74022 0.72895 0.0
C748 C 0.88543 0.78829 0.73549 0.0
Tb749 Tb 0.86458 0.69228 0.7137 0.0
N750 N 0.91281 0.72078 0.71932 0.0
C751 C 0.93248 0.71205 0.72067 0.0
C752 C 0.97032 0.75911 0.72704 0.0
C753 C 0.96148 0.73114 0.724 0.0
H754 H 0.82825 0.72422 0.72824 0.0
H755 H 0.977 0.72419 0.72429 0.0
H756 H 0.97963 0.8105 0.73545 0.0
H757 H 0.83982 0.77136 0.73775 0.0
H758 H 0.92658 0.69064 0.71865 0.0
H759 H 0.73638 0.62965 0.65302 0.0
H760 H 0.99279 0.77378 0.72978 0.0
H761 H 0.88377 0.62866 0.65226 0.0
H762 H 0.78737 0.66259 0.65957 0.0
H763 H 0.87296 0.58201 0.64138 0.0
H764 H 0.94241 0.82345 0.73887 0.0
H765 H 0.71999 0.57998 0.64673 0.0
H766 H 0.73282 0.54271 0.64105 0.0
H767 H 0.89033 0.80902 0.73989 0.0
H768 H 0.77013 0.52964 0.6379 0.0
N769 N 0.7999 0.63178 0.65825 0.0
C770 C 0.78066 0.64099 0.65704 0.0
C771 C 0.74244 0.59434 0.6498 0.0
C772 C 0.76256 0.58545 0.64948 0.0
C773 C 0.75162 0.62235 0.65328 0.0
C774 C 0.79145 0.60494 0.65379 0.0
H775 H 0.82257 0.54434 0.63756 0.0
N776 N 0.83989 0.6177 0.65491 0.0
C777 C 0.85564 0.58604 0.64447 0.0
C778 C 0.81226 0.59763 0.652 0.0
C779 C 0.86167 0.61253 0.65063 0.0
C780 C 0.82718 0.56483 0.64238 0.0
C781 C 0.80505 0.57058 0.64584 0.0
O782 O 0.87269 0.66999 0.63764 0.0
O783 O 0.87998 0.69361 0.68321 0.0
O784 O 0.86164 0.72237 0.6939 0.0
O785 O 0.83823 0.69483 0.66564 0.0
O786 O 0.89371 0.67454 0.66346 0.0
O787 O 0.83623 0.67596 0.63889 0.0
O788 O 0.84264 0.65799 0.73339 0.0
O789 O 0.83226 0.66099 0.69439 0.0
O790 O 0.84872 0.63087 0.68566 0.0
O791 O 0.87953 0.66238 0.70967 0.0
O792 O 0.81975 0.68213 0.71317 0.0
O793 O 0.87174 0.69805 0.74528 0.0
C794 C 0.90226 0.69405 0.67666 0.0
C795 C 0.8494 0.66747 0.60659 0.0
C796 C 0.8486 0.67793 0.57058 0.0
C797 C 0.85477 0.68672 0.59095 0.0
C798 C 0.83683 0.64945 0.56623 0.0
C799 C 0.83755 0.63922 0.60184 0.0
C800 C 0.83132 0.63032 0.58175 0.0
C801 C 0.84876 0.71827 0.67615 0.0
C802 C 0.8568 0.67744 0.62764 0.0
C803 C 0.77616 0.55061 0.64248 0.0
C804 C 0.75494 0.55806 0.64425 0.0
C805 C 0.81058 0.66241 0.70001 0.0
C806 C 0.83319 0.66749 0.76643 0.0
C807 C 0.83492 0.65491 0.7845 0.0
C808 C 0.81502 0.64893 0.80041 0.0
C809 C 0.79344 0.65592 0.79772 0.0
C810 C 0.81164 0.67442 0.76435 0.0
C811 C 0.79192 0.66866 0.77992 0.0
C812 C 0.8662 0.6372 0.70142 0.0
C813 C 0.85344 0.67242 0.74971 0.0
H814 H 0.86413 0.70859 0.59465 0.0
H815 H 0.8314 0.64185 0.55084 0.0
H816 H 0.83323 0.62409 0.61359 0.0
H817 H 0.82212 0.60847 0.5782 0.0
H818 H 0.85186 0.64993 0.78612 0.0
H819 H 0.77727 0.6511 0.80922 0.0
H820 H 0.80985 0.68409 0.75068 0.0
H821 H 0.77517 0.67384 0.77809 0.0
Tb822 Tb 0.36334 0.18065 0.66314 0.0
C823 C 0.27344 0.14276 0.73061 0.0
C824 C 0.25485 0.1741 0.72701 0.0
C825 C 0.22436 0.12771 0.74058 0.0
C826 C 0.27719 0.16805 0.72464 0.0
C827 C 0.24733 0.12255 0.73929 0.0
C828 C 0.22811 0.15347 0.73441 0.0
C829 C 0.26986 0.09545 0.74704 0.0
N830 N 0.29626 0.13885 0.72935 0.0
C831 C 0.29533 0.11624 0.73835 0.0
C832 C 0.24557 0.09837 0.74717 0.0
Tb833 Tb 0.33691 0.17345 0.71443 0.0
N834 N 0.3035 0.18746 0.71792 0.0
C835 C 0.30955 0.21427 0.71501 0.0
C836 C 0.26044 0.20099 0.72266 0.0
C837 C 0.28808 0.2213 0.71704 0.0
H838 H 0.31398 0.11376 0.73822 0.0
H839 H 0.29289 0.24239 0.71417 0.0
H840 H 0.21055 0.15757 0.7361 0.0
H841 H 0.26899 0.07719 0.75359 0.0
H842 H 0.33065 0.23032 0.7105 0.0
H843 H 0.4058 0.11053 0.66292 0.0
H844 H 0.24386 0.2065 0.72421 0.0
H845 H 0.38857 0.24276 0.64238 0.0
H846 H 0.36833 0.12317 0.66646 0.0
H847 H 0.4344 0.27947 0.62801 0.0
H848 H 0.20398 0.11232 0.74696 0.0
H849 H 0.45517 0.14621 0.6534 0.0
H850 H 0.48936 0.19542 0.64254 0.0
H851 H 0.22591 0.08232 0.75399 0.0
H852 H 0.49721 0.2416 0.63299 0.0
N853 N 0.39614 0.16604 0.65953 0.0
C854 C 0.38964 0.13906 0.66218 0.0
C855 C 0.43876 0.15194 0.65491 0.0
C856 C 0.44486 0.17911 0.65098 0.0
C857 C 0.4109 0.13173 0.66021 0.0
C858 C 0.42276 0.18549 0.65334 0.0
H859 H 0.47656 0.27288 0.62695 0.0
N860 N 0.40487 0.21597 0.64973 0.0
C861 C 0.43274 0.26049 0.63377 0.0
C862 C 0.42732 0.21144 0.64826 0.0
C863 C 0.40683 0.23966 0.64188 0.0
C864 C 0.45653 0.25673 0.63326 0.0
C865 C 0.45389 0.23179 0.64028 0.0
O866 O 0.34861 0.18796 0.63561 0.0
O867 O 0.33011 0.17788 0.68283 0.0
O868 O 0.30664 0.13455 0.69934 0.0
O869 O 0.33219 0.1364 0.66997 0.0
O870 O 0.34217 0.20557 0.6597 0.0
O871 O 0.34891 0.14973 0.64064 0.0
O872 O 0.35466 0.16817 0.74131 0.0
O873 O 0.36972 0.17557 0.69463 0.0
O874 O 0.39464 0.21804 0.67949 0.0
O875 O 0.36642 0.21758 0.70644 0.0
O876 O 0.35771 0.14822 0.7179 0.0
O877 O 0.35129 0.20477 0.73659 0.0
C878 C 0.32422 0.19476 0.67438 0.0
C879 C 0.3542 0.16577 0.60697 0.0
C880 C 0.34347 0.15603 0.57104 0.0
C881 C 0.33422 0.15444 0.59117 0.0
C882 C 0.37301 0.16907 0.56694 0.0
C883 C 0.38356 0.17836 0.60263 0.0
C884 C 0.3929 0.18004 0.58269 0.0
C885 C 0.31041 0.12311 0.68281 0.0
C886 C 0.34387 0.16451 0.62775 0.0
C887 C 0.47648 0.22611 0.63883 0.0
C888 C 0.47199 0.19981 0.64423 0.0
C889 C 0.37537 0.15847 0.70302 0.0
C890 C 0.34744 0.18862 0.77018 0.0
C891 C 0.36535 0.19048 0.78622 0.0
C892 C 0.356 0.18793 0.80642 0.0
C893 C 0.3283 0.18344 0.81028 0.0
C894 C 0.31993 0.18425 0.77434 0.0
C895 C 0.31045 0.18164 0.79432 0.0
C896 C 0.39001 0.23021 0.69517 0.0
C897 C 0.35785 0.19094 0.74931 0.0
H898 H 0.3115 0.14474 0.59451 0.0
H899 H 0.3807 0.17038 0.55159 0.0
H900 H 0.39926 0.18686 0.61454 0.0
H901 H 0.41561 0.18984 0.57945 0.0
H902 H 0.38673 0.19424 0.78292 0.0
H903 H 0.32027 0.18098 0.82563 0.0
H904 H 0.30584 0.1829 0.76222 0.0
H905 H 0.28916 0.17814 0.79744 0.0
Tb906 Tb 0.86246 0.17356 0.70614 0.0
C907 C 0.80478 0.20545 0.64037 0.0
C908 C 0.75573 0.16716 0.63916 0.0
C909 C 0.76648 0.21342 0.62905 0.0
C910 C 0.78499 0.17752 0.6437 0.0
C911 C 0.79568 0.22354 0.63279 0.0
C912 C 0.74662 0.18527 0.63203 0.0
C913 C 0.84529 0.25971 0.63075 0.0
N914 N 0.8331 0.21453 0.64342 0.0
C915 C 0.85342 0.24099 0.63786 0.0
C916 C 0.8163 0.25107 0.62844 0.0
Tb917 Tb 0.84316 0.1818 0.65578 0.0
N918 N 0.79458 0.1602 0.64996 0.0
C919 C 0.77601 0.13205 0.65053 0.0
C920 C 0.73653 0.1387 0.64123 0.0
C921 C 0.74679 0.12107 0.64667 0.0
H922 H 0.87598 0.24817 0.63923 0.0
H923 H 0.73219 0.09889 0.64781 0.0
H924 H 0.72423 0.17762 0.62856 0.0
H925 H 0.86144 0.28077 0.62689 0.0
H926 H 0.78285 0.11755 0.65454 0.0
H927 H 0.97322 0.25514 0.71255 0.0
H928 H 0.7139 0.13003 0.63806 0.0
H929 H 0.83015 0.10908 0.72357 0.0
H930 H 0.92142 0.23591 0.7076 0.0
H931 H 0.84383 0.0759 0.7368 0.0
H932 H 0.75913 0.22704 0.62329 0.0
H933 H 0.9923 0.2238 0.72 0.0
H934 H 0.98222 0.17549 0.72825 0.0
H935 H 0.81012 0.26558 0.62267 0.0
H936 H 0.94681 0.12635 0.73484 0.0
N937 N 0.91105 0.1937 0.71096 0.0
C938 C 0.92931 0.22185 0.71067 0.0
C939 C 0.9695 0.21517 0.71762 0.0
C940 C 0.95045 0.18662 0.71955 0.0
C941 C 0.9588 0.23292 0.7135 0.0
C942 C 0.92102 0.17647 0.7161 0.0
H943 H 0.89501 0.08916 0.73863 0.0
N944 N 0.87316 0.14094 0.71775 0.0
C945 C 0.86024 0.09631 0.73183 0.0
C946 C 0.9013 0.14901 0.7197 0.0
C947 C 0.85257 0.11523 0.72435 0.0
C948 C 0.88914 0.10385 0.7328 0.0
C949 C 0.91014 0.13067 0.72704 0.0
O950 O 0.83842 0.16088 0.73314 0.0
O951 O 0.829 0.17124 0.68666 0.0
O952 O 0.84218 0.21407 0.67396 0.0
O953 O 0.86993 0.21628 0.70177 0.0
O954 O 0.81693 0.14169 0.7084 0.0
O955 O 0.87447 0.20223 0.73021 0.0
O956 O 0.86739 0.17023 0.63713 0.0
O957 O 0.87714 0.18545 0.67529 0.0
O958 O 0.8616 0.14043 0.68725 0.0
O959 O 0.83045 0.1384 0.66196 0.0
O960 O 0.88673 0.21745 0.65599 0.0
O961 O 0.83557 0.1776 0.62422 0.0
C962 C 0.80731 0.15052 0.69419 0.0
C963 C 0.86293 0.18312 0.7632 0.0
C964 C 0.86004 0.19128 0.79936 0.0
C965 C 0.8528 0.19284 0.77907 0.0
C966 C 0.87758 0.17976 0.80345 0.0
C967 C 0.88053 0.17192 0.76766 0.0
C968 C 0.88774 0.17022 0.78769 0.0
C969 C 0.85659 0.22625 0.69063 0.0
C970 C 0.8545 0.18451 0.7422 0.0
C971 C 0.93953 0.14018 0.72942 0.0
C972 C 0.95968 0.16816 0.7257 0.0
C973 C 0.89769 0.20826 0.66901 0.0
C974 C 0.87581 0.18811 0.60383 0.0
C975 C 0.8724 0.17558 0.58472 0.0
C976 C 0.89144 0.19017 0.56872 0.0
C977 C 0.91387 0.2175 0.57218 0.0
C978 C 0.8983 0.21545 0.6068 0.0
C979 C 0.9172 0.22997 0.59108 0.0
C980 C 0.84412 0.12768 0.67177 0.0
C981 C 0.85595 0.17229 0.62046 0.0
H982 H 0.83903 0.20132 0.77559 0.0
H983 H 0.88392 0.17861 0.81881 0.0
H984 H 0.88866 0.16447 0.75574 0.0
H985 H 0.90138 0.16157 0.791 0.0
H986 H 0.85516 0.15441 0.5824 0.0
H987 H 0.92859 0.22946 0.56016 0.0
H988 H 0.90142 0.22575 0.62117 0.0
H989 H 0.93444 0.25106 0.59354 0.0
H990 H 0.3124 0.87865 0.06958 0.0
H991 H 0.33179 0.81261 0.05884 0.0
H992 H 0.37668 0.8461 0.04174 0.0
H993 H 0.34425 0.91794 0.02271 0.0
H994 H 0.35811 0.95108 0.03519 0.0
H995 H 0.32578 0.92133 0.04436 0.0
H996 H 0.34853 0.9283 0.08005 0.0
H997 H 0.38077 0.95806 0.07096 0.0
H998 H 0.38253 0.92968 0.0827 0.0
H999 H 0.42152 0.88761 0.02806 0.0
H1000 H 0.46314 0.93373 0.02068 0.0
H1001 H 0.41566 0.9731 0.04138 0.0
C1002 C 0.32598 0.87109 0.06364 0.0
C1003 C 0.31823 0.84274 0.06558 0.0
C1004 C 0.33673 0.83396 0.0573 0.0
C1005 C 0.36242 0.8529 0.04758 0.0
C1006 C 0.36948 0.88066 0.04619 0.0
C1007 C 0.3518 0.88974 0.05403 0.0
C1008 C 0.36522 0.921 0.05181 0.0
C1009 C 0.34726 0.92825 0.03768 0.0
C1010 C 0.36952 0.93508 0.07262 0.0
C1011 C 0.39363 0.92823 0.04211 0.0
C1012 C 0.39545 0.90461 0.03861 0.0
C1013 C 0.42013 0.90617 0.03051 0.0
C1014 C 0.44369 0.93252 0.02626 0.0
C1015 C 0.44245 0.957 0.03004 0.0
C1016 C 0.41697 0.95468 0.03796 0.0
H1017 H 0.19421 0.50419 0.06152 0.0
H1018 H 0.16003 0.41505 0.061 0.0
H1019 H 0.11352 0.40793 0.04871 0.0
H1020 H 0.13078 0.50167 0.07995 0.0
H1021 H 0.13439 0.53032 0.0649 0.0
H1022 H 0.16578 0.52869 0.072 0.0
H1023 H 0.17978 0.5331 0.03466 0.0
H1024 H 0.14756 0.53243 0.0263 0.0
H1025 H 0.15644 0.50712 0.01686 0.0
H1026 H 0.06941 0.40971 0.0408 0.0
H1027 H 0.03063 0.42043 0.03534 0.0
H1028 H 0.09227 0.50859 0.039 0.0
C1029 C 0.17709 0.48328 0.05827 0.0
C1030 C 0.18081 0.46011 0.06188 0.0
C1031 C 0.1577 0.43301 0.05807 0.0
C1032 C 0.1312 0.42879 0.05115 0.0
C1033 C 0.12794 0.4519 0.04809 0.0
C1034 C 0.15022 0.47866 0.05142 0.0
C1035 C 0.14025 0.49963 0.04789 0.0
C1036 C 0.14296 0.51604 0.06734 0.0
C1037 C 0.15697 0.51927 0.03037 0.0
C1038 C 0.10889 0.48042 0.04231 0.0
C1039 C 0.10236 0.45296 0.04266 0.0
C1040 C 0.07439 0.43113 0.03999 0.0
C1041 C 0.05248 0.4374 0.03695 0.0
C1042 C 0.05852 0.46526 0.03607 0.0
C1043 C 0.08719 0.48711 0.03877 0.0
H1044 H 0.56899 0.70039 0.08933 0.0
H1045 H 0.58956 0.74996 0.03454 0.0
H1046 H 0.58208 0.70957 0.01434 0.0
H1047 H 0.60491 0.66216 0.07421 0.0
H1048 H 0.57829 0.63024 0.08588 0.0
H1049 H 0.5855 0.66321 0.09613 0.0
H1050 H 0.53167 0.64796 0.09274 0.0
H1051 H 0.52442 0.61506 0.08237 0.0
H1052 H 0.51437 0.63677 0.06844 0.0
H1053 H 0.57032 0.66312 0.99973 0.0
H1054 H 0.55851 0.6149 0.99236 0.0
H1055 H 0.54757 0.5961 0.0565 0.0
C1056 C 0.57236 0.70292 0.07313 0.0
C1057 C 0.57953 0.7284 0.06357 0.0
C1058 C 0.58342 0.73058 0.04225 0.0
C1059 C 0.57941 0.70777 0.03061 0.0
C1060 C 0.57182 0.68289 0.04046 0.0
C1061 C 0.56866 0.68039 0.06126 0.0
C1062 C 0.56047 0.65126 0.06806 0.0
C1063 C 0.58368 0.65176 0.08189 0.0
C1064 C 0.53098 0.63693 0.07852 0.0
C1065 C 0.55934 0.63782 0.04784 0.0
C1066 C 0.56578 0.65635 0.03208 0.0
C1067 C 0.56533 0.64845 0.01196 0.0
C1068 C 0.5583 0.62093 1.00786 0.0
C1069 C 0.552 0.60173 0.02378 0.0
C1070 C 0.55261 0.61042 0.04401 0.0
H1071 H 0.87719 0.3043 0.95703 0.0
H1072 H 0.80227 0.30626 0.97918 0.0
H1073 H 0.83374 0.35252 0.99408 0.0
H1074 H 0.92291 0.33877 0.99992 0.0
H1075 H 0.95489 0.35806 0.98491 0.0
H1076 H 0.92658 0.32486 0.97614 0.0
H1077 H 0.92396 0.34763 0.94261 0.0
H1078 H 0.95217 0.38093 0.95134 0.0
H1079 H 0.9183 0.37698 0.94346 0.0
H1080 H 0.87276 0.39857 1.00613 0.0
H1081 H 0.91694 0.44094 0.01595 0.0
H1082 H 0.96774 0.41051 0.98596 0.0
C1083 C 0.86735 0.31449 0.96492 0.0
C1084 C 0.83707 0.30141 0.96693 0.0
C1085 C 0.82526 0.31546 0.97766 0.0
C1086 C 0.843 0.3419 0.98604 0.0
C1087 C 0.8726 0.3542 0.98361 0.0
C1088 C 0.88477 0.34097 0.9734 0.0
C1089 C 0.91732 0.35887 0.97314 0.0
C1090 C 0.93124 0.34426 0.98419 0.0
C1091 C 0.92859 0.36656 0.95134 0.0
C1092 C 0.92152 0.38424 0.98481 0.0
C1093 C 0.89534 0.381 0.99063 0.0
C1094 C 0.89336 0.40129 1.00169 0.0
C1095 C 0.91872 0.42534 1.00724 0.0
C1096 C 0.94598 0.42911 1.00186 0.0
C1097 C 0.9473 0.40836 0.99021 0.0
H1098 H 0.73368 0.58238 0.96437 0.0
H1099 H 0.71827 0.50175 0.98469 0.0
H1100 H 0.67138 0.49147 0.99855 0.0
H1101 H 0.69901 0.5955 1.00751 0.0
H1102 H 0.68435 0.61217 0.99215 0.0
H1103 H 0.71747 0.6139 0.98487 0.0
H1104 H 0.69578 0.59305 0.94976 0.0
H1105 H 0.66267 0.5913 0.95697 0.0
H1106 H 0.66256 0.56039 0.94846 0.0
H1107 H 0.62442 0.4885 1.00805 0.0
H1108 H 0.58193 0.49349 0.01284 0.0
H1109 H 0.6277 0.57641 0.98737 0.0
C1110 C 0.72048 0.56256 0.97176 0.0
C1111 C 0.72988 0.54292 0.97346 0.0
C1112 C 0.7119 0.51734 0.98341 0.0
C1113 C 0.68511 0.51125 0.99128 0.0
C1114 C 0.6765 0.53099 0.98927 0.0
C1115 C 0.69371 0.55621 0.97984 0.0
C1116 C 0.67908 0.57354 0.97926 0.0
C1117 C 0.696 0.60037 0.99169 0.0
C1118 C 0.67477 0.57993 0.95731 0.0
C1119 C 0.65068 0.55386 0.98934 0.0
C1120 C 0.64971 0.52951 0.99513 0.0
C1121 C 0.6252 0.50771 1.0039 0.0
C1122 C 0.6011 0.51082 1.00673 0.0
C1123 C 0.60165 0.53572 1.00119 0.0
C1124 C 0.62684 0.5574 0.99227 0.0
H1125 H 0.51617 0.19336 0.9811 0.0
H1126 H 0.42391 0.14856 0.97329 0.0
H1127 H 0.42119 0.10668 0.98845 0.0
H1128 H 0.52684 0.13925 0.96655 0.0
H1129 H 0.55491 0.14602 0.9844 0.0
H1130 H 0.54955 0.17395 0.97616 0.0
H1131 H 0.54396 0.185 0.01347 0.0
H1132 H 0.54937 0.15706 0.02182 0.0
H1133 H 0.51764 0.15786 0.0294 0.0
H1134 H 0.42854 0.06866 1.00025 0.0
H1135 H 0.44564 0.03603 1.00795 0.0
H1136 H 0.53347 0.10422 0.00818 0.0
C1137 C 0.4954 0.17492 0.98322 0.0
C1138 C 0.47015 0.17407 0.97633 0.0
C1139 C 0.44337 0.14949 0.97868 0.0
C1140 C 0.44164 0.12571 0.98731 0.0
C1141 C 0.46692 0.12687 0.99354 0.0
C1142 C 0.49334 0.15081 0.99173 0.0
C1143 C 0.51736 0.14545 0.99782 0.0
C1144 C 0.53839 0.15152 0.98018 0.0
C1145 C 0.53301 0.16235 0.01675 0.0
C1146 C 0.50035 0.11458 1.00253 0.0
C1147 C 0.47127 0.10448 1.00023 0.0
C1148 C 0.45122 0.07635 1.00231 0.0
C1149 C 0.46114 0.05793 1.00645 0.0
C1150 C 0.4908 0.06764 0.00841 0.0
C1151 C 0.51063 0.09641 1.00695 0.0
H1152 H 0.69304 0.18047 0.98988 0.0
H1153 H 0.74436 0.14168 0.97843 0.0
H1154 H 0.70171 0.09541 0.98353 0.0
H1155 H 0.65026 0.13588 0.02846 0.0
H1156 H 0.61655 0.13289 0.02102 0.0
H1157 H 0.64987 0.16373 0.01484 0.0
H1158 H 0.63783 0.15811 0.97685 0.0
H1159 H 0.60358 0.12813 0.98265 0.0
H1160 H 0.62712 0.12533 0.96458 0.0
H1161 H 0.65466 0.05369 0.99085 0.0
H1162 H 0.60435 0.01799 0.9974 0.0
H1163 H 0.58191 0.08238 1.00467 0.0
C1164 C 0.69505 0.16214 0.9881 0.0
C1165 C 0.72205 0.16466 0.98373 0.0
C1166 C 0.72396 0.14026 0.9817 0.0
C1167 C 0.69985 0.11389 0.98466 0.0
C1168 C 0.67379 0.11211 0.9895 0.0
C1169 C 0.67099 0.13546 0.99086 0.0
C1170 C 0.64027 0.1274 0.99625 0.0
C1171 C 0.63916 0.14075 0.01635 0.0
C1172 C 0.62639 0.13521 0.97905 0.0
C1173 C 0.62651 0.09597 0.99818 0.0
C1174 C 0.64637 0.08774 0.99409 0.0
C1175 C 0.63895 0.05987 0.99416 0.0
C1176 C 0.61038 0.03976 0.99799 0.0
C1177 C 0.58948 0.04744 1.00201 0.0
C1178 C 0.59767 0.07599 1.00226 0.0
H1179 H 0.84625 0.50866 0.99545 0.0
H1180 H 0.8882 0.5987 0.99423 0.0
H1181 H 0.93483 0.60177 1.00046 0.0
H1182 H 0.88657 0.50313 0.03444 0.0
H1183 H 0.89087 0.47519 0.02427 0.0
H1184 H 0.85995 0.47795 0.01764 0.0
H1185 H 0.87053 0.47994 0.97964 0.0
H1186 H 0.90035 0.47499 0.98545 0.0
H1187 H 0.90584 0.50425 0.97031 0.0
H1188 H 0.97657 0.59569 1.00767 0.0
H1189 H 1.01218 0.58067 0.01274 0.0
H1190 H 0.94456 0.49442 0.00986 0.0
C1191 C 0.8654 0.52895 0.99608 0.0
C1192 C 0.8636 0.55348 0.99421 0.0
C1193 C 0.88904 0.57967 0.99544 0.0
C1194 C 0.91563 0.58162 0.99909 0.0
C1195 C 0.91663 0.55718 1.00138 0.0
C1196 C 0.89236 0.53129 0.99955 0.0
C1197 C 0.89971 0.50839 1.00269 0.0
C1198 C 0.88332 0.49006 0.02086 0.0
C1199 C 0.89376 0.49086 0.98337 0.0
C1200 C 0.93176 0.52552 1.00694 0.0
C1201 C 0.94093 0.55362 1.00602 0.0
C1202 C 0.96964 0.57376 0.00855 0.0
C1203 C 0.98969 0.56506 0.01152 0.0
C1204 C 0.98108 0.53648 0.01229 0.0
C1205 C 0.95163 0.5164 0.01012 0.0
H1206 H 0.44987 0.31159 0.9695 0.0
H1207 H 0.50796 0.30075 0.00881 0.0
H1208 H 0.52862 0.34936 0.02067 0.0
H1209 H 0.49954 0.38344 0.95549 0.0
H1210 H 0.47247 0.39347 0.95562 0.0
H1211 H 0.46281 0.35815 0.9497 0.0
H1212 H 0.42483 0.34033 0.97834 0.0
H1213 H 0.43442 0.37558 0.98437 0.0
H1214 H 0.43561 0.35334 1.00373 0.0
H1215 H 0.54245 0.39818 0.02842 0.0
H1216 H 0.54896 0.44483 0.03218 0.0
H1217 H 0.48103 0.42467 0.98848 0.0
C1218 C 0.46706 0.31959 0.98051 0.0
C1219 C 0.47755 0.30262 0.98823 0.0
C1220 C 0.49987 0.3136 1.00271 0.0
C1221 C 0.51166 0.34109 0.00949 0.0
C1222 C 0.50079 0.35725 1.00166 0.0
C1223 C 0.47903 0.34701 0.9875 0.0
C1224 C 0.471 0.36876 0.98189 0.0
C1225 C 0.47681 0.3764 0.95933 0.0
C1226 C 0.4396 0.35891 0.98742 0.0
C1227 C 0.49153 0.39275 0.99525 0.0
C1228 C 0.50853 0.38556 1.00643 0.0
C1229 C 0.52915 0.404 0.01985 0.0
C1230 C 0.53248 0.43048 0.02199 0.0
C1231 C 0.51514 0.43843 0.01093 0.0
C1232 C 0.49451 0.41926 0.99724 0.0
H1233 H 0.20741 0.69529 0.03706 0.0
H1234 H 0.16981 0.71973 0.08517 0.0
H1235 H 0.12838 0.67174 0.08649 0.0
H1236 H 0.14372 0.65169 0.01042 0.0
H1237 H 0.15513 0.62718 1.00383 0.0
H1238 H 0.18137 0.66273 0.00869 0.0
H1239 H 0.20338 0.64392 0.03535 0.0
H1240 H 0.17513 0.60869 0.03084 0.0
H1241 H 0.1814 0.62295 0.05607 0.0
H1242 H 0.08938 0.62292 0.08037 0.0
H1243 H 0.05524 0.57621 0.068 0.0
H1244 H 0.11768 0.5822 0.02357 0.0
C1245 C 0.19067 0.6903 0.04812 0.0
C1246 C 0.19162 0.71114 0.061 0.0
C1247 C 0.16937 0.704 0.07522 0.0
C1248 C 0.14583 0.67683 0.07606 0.0
C1249 C 0.14507 0.65695 0.06273 0.0
C1250 C 0.16704 0.6632 0.0492 0.0
C1251 C 0.16015 0.63832 0.03583 0.0
C1252 C 0.16003 0.64544 0.01337 0.0
C1253 C 0.18128 0.62786 0.03977 0.0
C1254 C 0.13025 0.61749 0.04331 0.0
C1255 C 0.12229 0.62862 0.05906 0.0
C1256 C 0.09547 0.61391 0.06815 0.0
C1257 C 0.07612 0.58727 0.06089 0.0
C1258 C 0.08337 0.57535 0.0445 0.0
C1259 C 0.11114 0.59067 0.03586 0.0
H1260 H 0.32022 0.44145 0.05515 0.0
H1261 H 0.3311 0.52149 0.03821 0.0
H1262 H 0.38264 0.53884 0.03117 0.0
H1263 H 0.38925 0.4669 0.07965 0.0
H1264 H 0.39362 0.43873 0.07031 0.0
H1265 H 0.3582 0.43343 0.0746 0.0
H1266 H 0.34478 0.41683 0.03754 0.0
H1267 H 0.38031 0.42263 0.03285 0.0
H1268 H 0.36597 0.43929 0.01715 0.0
H1269 H 0.43356 0.54685 0.02529 0.0
H1270 H 0.47843 0.545 0.02209 0.0
H1271 H 0.43368 0.4595 0.04265 0.0
C1272 C 0.33356 0.46281 0.05032 0.0
C1273 C 0.32173 0.48036 0.04769 0.0
C1274 C 0.33981 0.50791 0.04077 0.0
C1275 C 0.36907 0.51784 0.03662 0.0
C1276 C 0.37999 0.49993 0.03931 0.0
C1277 C 0.36272 0.473 0.0461 0.0
C1278 C 0.37937 0.45764 0.0474 0.0
C1279 C 0.38016 0.44865 0.06929 0.0
C1280 C 0.36686 0.43262 0.03287 0.0
C1281 C 0.40879 0.48011 0.04047 0.0
C1282 C 0.40878 0.50435 0.03573 0.0
C1283 C 0.43365 0.52789 0.02892 0.0
C1284 C 0.45905 0.52662 0.02699 0.0
C1285 C 0.4594 0.50188 0.03162 0.0
C1286 C 0.43394 0.47855 0.03869 0.0
H1287 H 0.59495 0.88366 0.07094 0.0
H1288 H 0.54378 0.8159 0.02968 0.0
H1289 H 0.52175 0.84239 0.016 0.0
H1290 H 0.54061 0.90319 0.08122 0.0
H1291 H 0.56633 0.93988 0.08207 0.0
H1292 H 0.5769 0.91501 0.08928 0.0
H1293 H 0.61806 0.93621 0.06291 0.0
H1294 H 0.60752 0.96103 0.05556 0.0
H1295 H 0.60985 0.93865 0.03679 0.0
H1296 H 0.50696 0.87681 1.00599 0.0
H1297 H 0.49932 0.91641 1.00058 0.0
H1298 H 0.56067 0.96246 0.04813 0.0
C1299 C 0.57892 0.87437 0.05914 0.0
C1300 C 0.57098 0.84782 0.05125 0.0
C1301 C 0.55002 0.83624 0.03583 0.0
C1302 C 0.53747 0.85112 0.02802 0.0
C1303 C 0.54608 0.87745 0.03589 0.0
C1304 C 0.56621 0.88896 0.05117 0.0
C1305 C 0.57216 0.91793 0.05658 0.0
C1306 C 0.56347 0.91905 0.07859 0.0
C1307 C 0.60378 0.93974 0.05272 0.0
C1308 C 0.55253 0.92105 0.04175 0.0
C1309 C 0.53763 0.89741 0.03003 0.0
C1310 C 0.51851 0.89542 0.01508 0.0
C1311 C 0.51452 0.91819 0.012 0.0
C1312 C 0.52967 0.94276 0.02373 0.0
C1313 C 0.54878 0.94403 0.0389 0.0
H1314 H 0.96871 0.21083 0.40115 0.0
H1315 H 0.98609 0.14576 0.38225 0.0
H1316 H 0.03236 0.18116 0.36793 0.0
H1317 H 1.00339 0.25736 0.35771 0.0
H1318 H 0.01758 0.28838 0.37297 0.0
H1319 H 0.98448 0.25786 0.38013 0.0
H1320 H 1.00575 0.25857 0.41551 0.0
H1321 H 0.0388 0.28907 0.40843 0.0
H1322 H 0.03912 0.2585 0.4172 0.0
H1323 H 0.07809 0.22325 0.35809 0.0
H1324 H 0.12056 0.26925 0.35379 0.0
H1325 H 0.07463 0.308 0.37877 0.0
C1326 C 0.9822 0.204 0.39396 0.0
C1327 C 0.97354 0.17539 0.39272 0.0
C1328 C 0.99187 0.16743 0.38307 0.0
C1329 C 0.01829 0.18741 0.37494 0.0
C1330 C 0.02616 0.21535 0.37649 0.0
C1331 C 1.0087 0.22371 0.38573 0.0
C1332 C 0.023 0.2552 0.38624 0.0
C1333 C 1.0061 0.26528 0.3735 0.0
C1334 C 0.0269 0.26596 0.40815 0.0
C1335 C 0.05156 0.26318 0.37642 0.0
C1336 C 0.0527 0.23982 0.37068 0.0
C1337 C 0.07725 0.2417 0.36219 0.0
C1338 C 0.10136 0.2681 0.35967 0.0
C1339 C 0.10078 0.29242 0.36532 0.0
C1340 C 0.07548 0.28981 0.37386 0.0
H1341 H 0.80937 0.76761 0.41236 0.0
H1342 H 0.87902 0.84824 0.39382 0.0
H1343 H 0.84378 0.86036 0.38042 0.0
H1344 H 0.76242 0.75775 0.36913 0.0
H1345 H 0.73021 0.74092 0.38419 0.0
H1346 H 0.76089 0.73791 0.39116 0.0
H1347 H 0.76081 0.75717 0.4269 0.0
H1348 H 0.73012 0.76018 0.42011 0.0
H1349 H 0.76222 0.79018 0.4293 0.0
H1350 H 0.80022 0.86512 0.3716 0.0
H1351 H 0.75273 0.86089 0.36656 0.0
H1352 H 0.71158 0.77687 0.3901 0.0
C1353 C 0.81728 0.78779 0.4054 0.0
C1354 C 0.84712 0.80696 0.40419 0.0
C1355 C 0.85639 0.83303 0.39475 0.0
C1356 C 0.83648 0.84017 0.38718 0.0
C1357 C 0.80725 0.82095 0.38895 0.0
C1358 C 0.79771 0.79517 0.39765 0.0
C1359 C 0.76518 0.77842 0.39804 0.0
C1360 C 0.75402 0.75219 0.38485 0.0
C1361 C 0.75393 0.77107 0.41989 0.0
C1362 C 0.75785 0.79905 0.38875 0.0
C1363 C 0.78238 0.82343 0.38348 0.0
C1364 C 0.78093 0.8459 0.37535 0.0
C1365 C 0.75378 0.84327 0.37242 0.0
C1366 C 0.72836 0.81821 0.37726 0.0
C1367 C 0.73062 0.79604 0.3858 0.0
H1368 H 0.20547 0.02505 0.42293 0.0
H1369 H 0.23853 0.07986 0.37079 0.0
H1370 H 0.23537 0.04123 0.35039 0.0
H1371 H 0.24464 0.98929 0.41355 0.0
H1372 H 0.21605 0.95608 0.42211 0.0
H1373 H 0.21974 0.98772 0.43249 0.0
H1374 H 0.1674 0.97209 0.42217 0.0
H1375 H 0.16359 0.94039 0.4118 0.0
H1376 H 0.1565 0.96286 0.39618 0.0
H1377 H 0.22889 0.99681 0.33562 0.0
H1378 H 0.21985 0.94958 0.32773 0.0
H1379 H 0.19324 0.92429 0.38969 0.0
C1380 C 0.21228 0.02909 0.40727 0.0
C1381 C 0.22212 0.05561 0.3985 0.0
C1382 C 0.23037 0.05969 0.37782 0.0
C1383 C 0.2289 0.03792 0.36613 0.0
C1384 C 0.21935 0.0122 0.37533 0.0
C1385 C 0.21126 0.00769 0.39544 0.0
C1386 C 0.20216 0.97816 0.40173 0.0
C1387 C 0.22183 0.97781 0.41846 0.0
C1388 C 0.17053 0.96245 0.40836 0.0
C1389 C 0.20643 0.9668 0.38199 0.0
C1390 C 0.2162 0.98674 0.36693 0.0
C1391 C 0.22117 0.98101 0.34727 0.0
C1392 C 0.21573 0.95411 0.34286 0.0
C1393 C 0.20557 0.9334 0.35802 0.0
C1394 C 0.20122 0.93993 0.37788 0.0
H1395 H 0.52297 0.65375 0.28531 0.0
H1396 H 0.49918 0.60011 0.33815 0.0
H1397 H 0.53362 0.63995 0.35873 0.0
H1398 H 0.59848 0.69193 0.29645 0.0
H1399 H 0.60327 0.72441 0.28696 0.0
H1400 H 0.57563 0.69201 0.27656 0.0
H1401 H 0.53752 0.70604 0.28487 0.0
H1402 H 0.56507 0.73849 0.29527 0.0
H1403 H 0.53437 0.71562 0.31044 0.0
H1404 H 0.57084 0.68597 0.37371 0.0
H1405 H 0.60907 0.73408 0.38134 0.0
H1406 H 0.6106 0.75652 0.31839 0.0
C1407 C 0.52509 0.65013 0.30114 0.0
C1408 C 0.50805 0.62357 0.31002 0.0
C1409 C 0.51139 0.62023 0.33096 0.0
C1410 C 0.53113 0.64273 0.34279 0.0
C1411 C 0.54765 0.66845 0.33348 0.0
C1412 C 0.54497 0.67222 0.3131 0.0
C1413 C 0.56579 0.70181 0.30663 0.0
C1414 C 0.58705 0.70257 0.29071 0.0
C1415 C 0.54972 0.71634 0.29885 0.0
C1416 C 0.58061 0.71409 0.32656 0.0
C1417 C 0.56969 0.69461 0.34192 0.0
C1418 C 0.57956 0.70136 0.36179 0.0
C1419 C 0.60109 0.72876 0.36604 0.0
C1420 C 0.61263 0.74888 0.35049 0.0
C1421 C 0.60236 0.74136 0.3305 0.0
H1422 H 0.35697 0.84432 0.3071 0.0
H1423 H 0.41001 0.93309 0.29734 0.0
H1424 H 0.37125 0.94024 0.31045 0.0
H1425 H 0.2919 0.83955 0.29061 0.0
H1426 H 0.26921 0.81376 0.30888 0.0
H1427 H 0.30209 0.81565 0.30084 0.0
H1428 H 0.31794 0.82034 0.33809 0.0
H1429 H 0.2857 0.81959 0.34652 0.0
H1430 H 0.3204 0.8484 0.35328 0.0
H1431 H 0.32621 0.93793 0.32104 0.0
H1432 H 0.27649 0.92628 0.32804 0.0
H1433 H 0.25052 0.83889 0.33183 0.0
C1434 C 0.3605 0.86526 0.30816 0.0
C1435 C 0.38666 0.88827 0.30137 0.0
C1436 C 0.39026 0.91527 0.30251 0.0
C1437 C 0.36838 0.91952 0.31001 0.0
C1438 C 0.34277 0.89653 0.31631 0.0
C1439 C 0.33855 0.86987 0.31545 0.0
C1440 C 0.30796 0.84875 0.32179 0.0
C1441 C 0.29184 0.82822 0.3045 0.0
C1442 C 0.30799 0.83334 0.34108 0.0
C1443 C 0.2956 0.8677 0.32589 0.0
C1444 C 0.31632 0.8952 0.32278 0.0
C1445 C 0.30997 0.91657 0.32393 0.0
C1446 C 0.28166 0.90976 0.32794 0.0
C1447 C 0.25988 0.88187 0.33114 0.0
C1448 C 0.26699 0.8605 0.33029 0.0
H1449 H 0.11588 0.48284 0.28898 0.0
H1450 H 0.19728 0.55281 0.30853 0.0
H1451 H 0.2085 0.52079 0.32635 0.0
H1452 H 0.09984 0.44049 0.33209 0.0
H1453 H 0.08688 0.40813 0.31861 0.0
H1454 H 0.08426 0.43625 0.30726 0.0
H1455 H 0.11239 0.43492 0.27584 0.0
H1456 H 0.11467 0.40647 0.28695 0.0
H1457 H 0.14685 0.43751 0.27922 0.0
H1458 H 0.20891 0.48246 0.34511 0.0
H1459 H 0.20388 0.43874 0.35771 0.0
H1460 H 0.12613 0.39213 0.3222 0.0
C1461 C 0.13632 0.49152 0.29664 0.0
C1462 C 0.15514 0.5207 0.29785 0.0
C1463 C 0.18173 0.53081 0.30806 0.0
C1464 C 0.18852 0.51274 0.31814 0.0
C1465 C 0.16903 0.48439 0.31734 0.0
C1466 C 0.14396 0.47365 0.30631 0.0
C1467 C 0.12761 0.44205 0.30721 0.0
C1468 C 0.09789 0.4311 0.31687 0.0
C1469 C 0.12525 0.4295 0.28604 0.0
C1470 C 0.14719 0.43695 0.32086 0.0
C1471 C 0.17066 0.46178 0.32675 0.0
C1472 C 0.19099 0.46282 0.34024 0.0
C1473 C 0.18782 0.43775 0.34739 0.0
C1474 C 0.1649 0.41187 0.34067 0.0
C1475 C 0.1441 0.41155 0.32741 0.0
H1476 H 0.38318 0.45583 0.31236 0.0
H1477 H 0.37665 0.52831 0.328 0.0
H1478 H 0.32594 0.49772 0.33792 0.0
H1479 H 0.31407 0.41552 0.29102 0.0
H1480 H 0.30795 0.38287 0.30115 0.0
H1481 H 0.34397 0.4104 0.29621 0.0
H1482 H 0.35775 0.4081 0.33346 0.0
H1483 H 0.32166 0.38068 0.33861 0.0
H1484 H 0.33749 0.41193 0.3537 0.0
H1485 H 0.27507 0.45944 0.34343 0.0
H1486 H 0.22839 0.41626 0.34538 0.0
H1487 H 0.26813 0.36829 0.3279 0.0
C1488 C 0.37102 0.4652 0.31786 0.0
C1489 C 0.38354 0.49443 0.31894 0.0
C1490 C 0.36721 0.50598 0.32664 0.0
C1491 C 0.3385 0.48878 0.33241 0.0
C1492 C 0.32661 0.46005 0.33076 0.0
C1493 C 0.34241 0.44832 0.32384 0.0
C1494 C 0.32438 0.41686 0.32327 0.0
C1495 C 0.32248 0.40577 0.30163 0.0
C1496 C 0.33602 0.40362 0.33815 0.0
C1497 C 0.29577 0.41276 0.33034 0.0
C1498 C 0.29758 0.43794 0.33474 0.0
C1499 C 0.2736 0.43959 0.34049 0.0
C1500 C 0.24712 0.41488 0.34179 0.0
C1501 C 0.24484 0.38883 0.33777 0.0
C1502 C 0.26949 0.38788 0.33173 0.0
H1503 H 0.54424 0.90643 0.31201 0.0
H1504 H 0.47203 0.82745 0.33033 0.0
H1505 H 0.50531 0.81011 0.33859 0.0
H1506 H 0.5869 0.87918 0.28936 0.0
H1507 H 0.62031 0.90777 0.29832 0.0
H1508 H 0.59051 0.91295 0.29306 0.0
H1509 H 0.59411 0.93178 0.32933 0.0
H1510 H 0.62327 0.92588 0.33525 0.0
H1511 H 0.59137 0.91041 0.35067 0.0
H1512 H 0.54762 0.80199 0.34546 0.0
H1513 H 0.5943 0.8039 0.34988 0.0
H1514 H 0.6384 0.88859 0.32762 0.0
C1515 C 0.53537 0.8853 0.31741 0.0
C1516 C 0.50542 0.86804 0.32012 0.0
C1517 C 0.4948 0.84079 0.32775 0.0
C1518 C 0.51358 0.83085 0.33257 0.0
C1519 C 0.54303 0.84848 0.32979 0.0
C1520 C 0.55379 0.87512 0.3223 0.0
C1521 C 0.58627 0.89028 0.32117 0.0
C1522 C 0.5966 0.89799 0.29917 0.0
C1523 C 0.59954 0.91611 0.33493 0.0
C1524 C 0.59222 0.8681 0.32918 0.0
C1525 C 0.56706 0.84409 0.3341 0.0
C1526 C 0.56738 0.82077 0.34172 0.0
C1527 C 0.59401 0.82208 0.34434 0.0
C1528 C 0.61999 0.84665 0.33963 0.0
C1529 C 0.61888 0.86971 0.33168 0.0
H1530 H 0.18144 0.66031 0.34068 0.0
H1531 H 0.11085 0.62647 0.29802 0.0
H1532 H 0.11158 0.67142 0.29777 0.0
H1533 H 0.15854 0.7001 0.37 0.0
H1534 H 0.19457 0.72826 0.37402 0.0
H1535 H 0.18819 0.69362 0.37008 0.0
H1536 H 0.22497 0.71264 0.3404 0.0
H1537 H 0.23025 0.74702 0.34425 0.0
H1538 H 0.21935 0.73062 0.31978 0.0
H1539 H 0.11892 0.71894 0.30294 0.0
H1540 H 0.13248 0.76662 0.31259 0.0
H1541 H 0.1988 0.77041 0.35217 0.0
C1542 C 0.16624 0.66251 0.33127 0.0
C1543 C 0.14578 0.64 0.31956 0.0
C1544 C 0.12639 0.64352 0.30723 0.0
C1545 C 0.12672 0.66891 0.30698 0.0
C1546 C 0.14677 0.69057 0.31901 0.0
C1547 C 0.1663 0.68775 0.33083 0.0
C1548 C 0.1852 0.71417 0.34264 0.0
C1549 C 0.18135 0.70868 0.36554 0.0
C1550 C 0.21682 0.72686 0.33639 0.0
C1551 C 0.17302 0.7322 0.33577 0.0
C1552 C 0.15097 0.71814 0.32208 0.0
C1553 C 0.13619 0.7302 0.31362 0.0
C1554 C 0.14411 0.7574 0.31926 0.0
C1555 C 0.16662 0.77238 0.33331 0.0
C1556 C 0.1813 0.75951 0.3416 0.0
H1557 H 0.85807 0.03145 0.35536 0.0
H1558 H 0.82091 0.06363 0.39827 0.0
H1559 H 0.77671 0.0175 0.3996 0.0
H1560 H 0.7938 0.98796 0.32746 0.0
H1561 H 0.80187 0.96044 0.32378 0.0
H1562 H 0.83056 0.99574 0.32669 0.0
H1563 H 0.85062 0.9802 0.35655 0.0
H1564 H 0.82164 0.94495 0.35364 0.0
H1565 H 0.82766 0.96225 0.37776 0.0
H1566 H 0.73622 0.96898 0.39519 0.0
H1567 H 0.70238 0.92012 0.38693 0.0
H1568 H 0.76591 0.91841 0.34724 0.0
C1569 C 0.8406 0.02864 0.36506 0.0
C1570 C 0.84252 0.05106 0.37649 0.0
C1571 C 0.81953 0.0467 0.38924 0.0
C1572 C 0.79444 0.02064 0.39008 0.0
C1573 C 0.79289 0.99911 0.37824 0.0
C1574 C 0.81541 1.00269 0.36612 0.0
C1575 C 0.80804 0.97607 0.35487 0.0
C1576 C 0.80859 0.98032 0.33183 0.0
C1577 C 0.82819 0.96523 0.36109 0.0
C1578 C 0.77776 0.95707 0.36243 0.0
C1579 C 0.76951 0.97086 0.37588 0.0
C1580 C 0.74246 0.95791 0.38475 0.0
C1581 C 0.72335 0.93007 0.3799 0.0
C1582 C 0.7313 0.91528 0.3663 0.0
C1583 C 0.75896 0.9291 0.35748 0.0
H1584 H 0.97674 0.76629 0.39169 0.0
H1585 H 0.98516 0.84698 0.38093 0.0
H1586 H 0.03612 0.86576 0.37126 0.0
H1587 H 0.04714 0.79062 0.41283 0.0
H1588 H 0.05161 0.76387 0.4008 0.0
H1589 H 0.01623 0.75733 0.4071 0.0
H1590 H 1.00073 0.74411 0.36977 0.0
H1591 H 0.03618 0.75108 0.36316 0.0
H1592 H 0.02051 0.76862 0.34996 0.0
H1593 H 0.08688 0.87551 0.36274 0.0
H1594 H 0.13213 0.87526 0.35656 0.0
H1595 H 0.08992 0.78794 0.37244 0.0
C1596 C 0.98942 0.78802 0.38757 0.0
C1597 C 0.97715 0.80538 0.38755 0.0
C1598 C 0.99429 0.8335 0.3815 0.0
C1599 C 0.0232 0.84426 0.37588 0.0
C1600 C 0.03466 0.82659 0.37617 0.0
C1601 C 0.01824 0.79904 0.38188 0.0
C1602 C 0.03541 0.78422 0.38067 0.0
C1603 C 0.03773 0.77338 0.4016 0.0
C1604 C 0.02243 0.76061 0.36496 0.0
C1605 C 0.06419 0.80773 0.37364 0.0
C1606 C 0.06337 0.83201 0.37098 0.0
C1607 C 0.08759 0.85652 0.36467 0.0
C1608 C 0.1132 0.85617 0.36105 0.0
C1609 C 0.11435 0.83141 0.36351 0.0
C1610 C 0.08953 0.80705 0.37012 0.0
H1611 H 0.25058 0.21737 0.40675 0.0
H1612 H 0.20016 0.14941 0.36545 0.0
H1613 H 0.1799 0.17664 0.35023 0.0
H1614 H 0.1975 0.23806 0.41499 0.0
H1615 H 0.22344 0.27469 0.41582 0.0
H1616 H 0.23351 0.24968 0.4236 0.0
H1617 H 0.27533 0.2703 0.39772 0.0
H1618 H 0.26532 0.29532 0.38984 0.0
H1619 H 0.26787 0.27267 0.37142 0.0
H1620 H 0.16529 0.21127 0.33966 0.0
H1621 H 0.15722 0.25068 0.3343 0.0
H1622 H 0.21831 0.29673 0.38201 0.0
C1623 C 0.23523 0.20826 0.39452 0.0
C1624 C 0.22685 0.18136 0.38717 0.0
C1625 C 0.20674 0.17003 0.3712 0.0
C1626 C 0.1952 0.18532 0.3625 0.0
C1627 C 0.20404 0.2119 0.36999 0.0
C1628 C 0.22358 0.22329 0.38564 0.0
C1629 C 0.22966 0.25236 0.39075 0.0
C1630 C 0.22047 0.25376 0.41258 0.0
C1631 C 0.26143 0.27393 0.38722 0.0
C1632 C 0.21056 0.25557 0.37549 0.0
C1633 C 0.19592 0.23198 0.3637 0.0
C1634 C 0.1768 0.22992 0.3487 0.0
C1635 C 0.17253 0.25257 0.34567 0.0
C1636 C 0.18748 0.2771 0.35747 0.0
C1637 C 0.20667 0.27843 0.37261 0.0
H1638 H 0.68512 0.50782 0.72768 0.0
H1639 H 0.62978 0.54325 0.73381 0.0
H1640 H 0.66857 0.58823 0.72092 0.0
H1641 H 0.74872 0.56835 0.74503 0.0
H1642 H 0.77264 0.56436 0.72804 0.0
H1643 H 0.73984 0.53427 0.73609 0.0
H1644 H 0.7258 0.52129 0.69874 0.0
H1645 H 0.75789 0.55187 0.69022 0.0
H1646 H 0.72311 0.54561 0.68218 0.0
H1647 H 0.71367 0.62996 0.70998 0.0
H1648 H 0.76321 0.66676 0.70236 0.0
H1649 H 0.7909 0.6057 0.70305 0.0
C1650 C 0.68115 0.52499 0.72594 0.0
C1651 C 0.65435 0.52206 0.7315 0.0
C1652 C 0.65008 0.54509 0.72951 0.0
C1653 C 0.67196 0.57066 0.72216 0.0
C1654 C 0.69821 0.57306 0.71698 0.0
C1655 C 0.70306 0.55096 0.71886 0.0
C1656 C 0.73401 0.55991 0.7135 0.0
C1657 C 0.74972 0.55652 0.73175 0.0
C1658 C 0.7353 0.54371 0.69505 0.0
C1659 C 0.74575 0.59047 0.70846 0.0
C1660 C 0.72456 0.59745 0.7105 0.0
C1661 C 0.73032 0.62467 0.70803 0.0
C1662 C 0.7585 0.64543 0.70369 0.0
C1663 C 0.78067 0.63899 0.70162 0.0
C1664 C 0.77416 0.61105 0.70389 0.0
H1665 H 0.48583 0.1092 0.73568 0.0
H1666 H 0.55499 0.19275 0.72287 0.0
H1667 H 0.51969 0.20529 0.71033 0.0
H1668 H 0.44112 0.10376 0.69201 0.0
H1669 H 0.40812 0.08437 0.70593 0.0
H1670 H 0.43896 0.08145 0.71257 0.0
H1671 H 0.43601 0.09572 0.7495 0.0
H1672 H 0.4052 0.09866 0.74299 0.0
H1673 H 0.43621 0.12782 0.75415 0.0
H1674 H 0.47603 0.20975 0.70168 0.0
H1675 H 0.42841 0.20511 0.69675 0.0
H1676 H 0.38772 0.11856 0.7146 0.0
C1677 C 0.49362 0.13014 0.73019 0.0
C1678 C 0.52334 0.14997 0.73031 0.0
C1679 C 0.53248 0.17704 0.72275 0.0
C1680 C 0.51253 0.18441 0.71566 0.0
C1681 C 0.48341 0.16445 0.71603 0.0
C1682 C 0.47402 0.13779 0.72296 0.0
C1683 C 0.44154 0.12039 0.72223 0.0
C1684 C 0.43187 0.09605 0.7073 0.0
C1685 C 0.42901 0.11005 0.74348 0.0
C1686 C 0.43402 0.14161 0.71439 0.0
C1687 C 0.45847 0.16686 0.71073 0.0
C1688 C 0.45682 0.1899 0.70417 0.0
C1689 C 0.42959 0.18703 0.70126 0.0
C1690 C 0.40426 0.16121 0.70459 0.0
C1691 C 0.4067 0.13837 0.71145 0.0
H1692 H 0.91336 0.36918 0.75036 0.0
H1693 H 0.83636 0.36919 0.73065 0.0
H1694 H 0.82184 0.32613 0.71137 0.0
H1695 H 0.9266 0.34173 0.70553 0.0
H1696 H 0.93754 0.32024 0.71881 0.0
H1697 H 0.94274 0.35189 0.73025 0.0
H1698 H 0.91397 0.32429 0.76181 0.0
H1699 H 0.90883 0.29258 0.75052 0.0
H1700 H 0.87825 0.29511 0.75864 0.0
H1701 H 0.81597 0.2832 0.69383 0.0
H1702 H 0.81737 0.24196 0.68148 0.0
H1703 H 0.89588 0.26781 0.71525 0.0
C1704 C 0.89318 0.36008 0.7423 0.0
C1705 C 0.87613 0.37294 0.74209 0.0
C1706 C 0.85022 0.3603 0.73082 0.0
C1707 C 0.84164 0.33565 0.71991 0.0
C1708 C 0.85895 0.32361 0.72058 0.0
C1709 C 0.884 0.33523 0.73169 0.0
C1710 C 0.89823 0.31763 0.73056 0.0
C1711 C 0.92804 0.33385 0.7207 0.0
C1712 C 0.8999 0.30676 0.75163 0.0
C1713 C 0.87729 0.29428 0.717 0.0
C1714 C 0.85495 0.29829 0.71122 0.0
C1715 C 0.83329 0.2798 0.69834 0.0
C1716 C 0.83436 0.2565 0.69134 0.0
C1717 C 0.85673 0.25167 0.69744 0.0
C1718 C 0.87844 0.27087 0.71044 0.0
H1719 H 0.19492 0.99855 0.6135 0.0
H1720 H 0.16937 0.94702 0.66752 0.0
H1721 H 0.20562 0.98665 0.68725 0.0
H1722 H 0.27092 0.03493 0.62422 0.0
H1723 H 0.27712 0.06772 0.6143 0.0
H1724 H 0.2484 0.03561 0.60432 0.0
H1725 H 0.21211 0.05198 0.61242 0.0
H1726 H 0.24078 0.08415 0.62235 0.0
H1727 H 0.20992 0.06264 0.63784 0.0
H1728 H 0.24489 0.03165 0.70136 0.0
H1729 H 0.28438 0.07905 0.70868 0.0
H1730 H 0.28629 0.10157 0.6457 0.0
C1731 C 0.19698 0.99544 0.62944 0.0
C1732 C 0.17882 0.96942 0.63887 0.0
C1733 C 0.1823 0.96669 0.65989 0.0
C1734 C 0.20312 0.98908 0.67125 0.0
C1735 C 0.22064 0.01423 0.66147 0.0
C1736 C 0.21787 0.01758 0.64104 0.0
C1737 C 0.23972 0.04685 0.63424 0.0
C1738 C 0.26026 0.04623 0.61833 0.0
C1739 C 0.22473 0.06231 0.62625 0.0
C1740 C 0.25518 0.05935 0.65406 0.0
C1741 C 0.2437 0.04015 0.66957 0.0
C1742 C 0.25395 0.04686 0.68934 0.0
C1743 C 0.27625 0.07395 0.69343 0.0
C1744 C 0.2882 0.09409 0.67789 0.0
C1745 C 0.27772 0.08651 0.65787 0.0
H1746 H 0.02748 0.18066 0.64169 0.0
H1747 H 0.07803 0.26918 0.62979 0.0
H1748 H 0.03812 0.27526 0.64186 0.0
H1749 H 0.96048 0.17316 0.62461 0.0
H1750 H 0.93891 0.14774 0.64344 0.0
H1751 H 0.97202 0.1504 0.63506 0.0
H1752 H 0.9893 0.15696 0.67211 0.0
H1753 H 0.95668 0.15522 0.68076 0.0
H1754 H 0.99102 0.18504 0.68689 0.0
H1755 H 0.99249 0.27192 0.65336 0.0
H1756 H 0.94301 0.25914 0.66268 0.0
H1757 H 0.92028 0.17264 0.66742 0.0
C1758 C 0.03019 0.20134 0.64189 0.0
C1759 C 0.05601 0.22452 0.63484 0.0
C1760 C 0.05851 0.25115 0.63502 0.0
C1761 C 0.03597 0.25482 0.64194 0.0
C1762 C 1.01077 0.23163 0.6486 0.0
C1763 C 1.00757 0.20534 0.64854 0.0
C1764 C 0.97748 0.18383 0.6555 0.0
C1765 C 0.96127 0.16253 0.63865 0.0
C1766 C 0.97868 0.1694 0.67499 0.0
C1767 C 0.96435 0.20216 0.65941 0.0
C1768 C 0.98412 0.22968 0.65537 0.0
C1769 C 0.97694 0.2505 0.65678 0.0
C1770 C 0.94879 0.24306 0.66211 0.0
C1771 C 0.92796 0.21507 0.66618 0.0
C1772 C 0.93594 0.19433 0.66495 0.0
H1773 H 0.81862 0.84466 0.66064 0.0
H1774 H 0.84845 0.84873 0.59896 0.0
H1775 H 0.86048 0.81248 0.60673 0.0
H1776 H 0.87342 0.83144 0.6847 0.0
H1777 H 0.84848 0.80788 0.70318 0.0
H1778 H 0.84435 0.83602 0.69351 0.0
H1779 H 0.79229 0.8007 0.6827 0.0
H1780 H 0.7964 0.77252 0.69221 0.0
H1781 H 0.78584 0.77219 0.66627 0.0
H1782 H 0.86472 0.77321 0.61946 0.0
H1783 H 0.86424 0.7343 0.63762 0.0
H1784 H 0.83356 0.75538 0.69179 0.0
C1785 C 0.82824 0.83827 0.64895 0.0
C1786 C 0.83234 0.8493 0.62912 0.0
C1787 C 0.84471 0.84025 0.61414 0.0
C1788 C 0.85177 0.81979 0.61843 0.0
C1789 C 0.84671 0.80873 0.63786 0.0
C1790 C 0.83559 0.81777 0.65302 0.0
C1791 C 0.8313 0.80132 0.67237 0.0
C1792 C 0.85054 0.8203 0.68945 0.0
C1793 C 0.79957 0.78576 0.67875 0.0
C1794 C 0.84103 0.78125 0.66546 0.0
C1795 C 0.84986 0.78607 0.64549 0.0
C1796 C 0.85823 0.76942 0.63518 0.0
C1797 C 0.85762 0.74723 0.64556 0.0
C1798 C 0.84889 0.74194 0.66605 0.0
C1799 C 0.84075 0.75932 0.67622 0.0
H1800 H 0.02996 0.85093 0.65576 0.0
H1801 H 0.08519 0.81531 0.64969 0.0
H1802 H 0.04424 0.76881 0.65703 0.0
H1803 H 0.98919 0.81046 0.69606 0.0
H1804 H 0.95433 0.80404 0.68796 0.0
H1805 H 0.98632 0.83513 0.68004 0.0
H1806 H 0.97413 0.82397 0.64242 0.0
H1807 H 0.94089 0.79369 0.64967 0.0
H1808 H 0.96522 0.79021 0.63277 0.0
H1809 H 0.99892 0.72691 0.66666 0.0
H1810 H 0.9496 0.69012 0.67455 0.0
H1811 H 0.92169 0.75105 0.67471 0.0
C1812 C 0.03314 0.83316 0.65549 0.0
C1813 C 0.0608 0.83674 0.65202 0.0
C1814 C 0.06427 0.8131 0.65214 0.0
C1815 C 0.04113 0.78659 0.65641 0.0
C1816 C 1.01443 0.78386 0.66039 0.0
C1817 C 1.01001 0.80628 0.65953 0.0
C1818 C 0.97889 0.79721 0.66454 0.0
C1819 C 0.97705 0.81261 0.68328 0.0
C1820 C 0.9639 0.80152 0.64626 0.0
C1821 C 0.96682 0.76637 0.66882 0.0
C1822 C 0.98788 0.75931 0.66625 0.0
C1823 C 0.98226 0.73216 0.66873 0.0
C1824 C 0.95422 0.71143 0.67332 0.0
C1825 C 0.93203 0.71779 0.67567 0.0
C1826 C 0.93844 0.74574 0.67359 0.0
H1827 H 0.21129 0.24505 0.65122 0.0
H1828 H 0.14305 0.16173 0.66528 0.0
H1829 H 0.17917 0.14723 0.67138 0.0
H1830 H 0.2587 0.22555 0.62561 0.0
H1831 H 0.29074 0.25447 0.63595 0.0
H1832 H 0.25936 0.2575 0.6318 0.0
H1833 H 0.26067 0.27133 0.66931 0.0
H1834 H 0.29152 0.2676 0.67399 0.0
H1835 H 0.25949 0.24829 0.68895 0.0
H1836 H 0.22362 0.14249 0.67693 0.0
H1837 H 0.27174 0.14766 0.68072 0.0
H1838 H 0.31086 0.23429 0.66335 0.0
C1839 C 0.20391 0.2236 0.65521 0.0
C1840 C 0.17425 0.20432 0.65738 0.0
C1841 C 0.16558 0.17666 0.66315 0.0
C1842 C 0.18597 0.16832 0.66674 0.0
C1843 C 0.21507 0.18793 0.6646 0.0
C1844 C 0.22398 0.21498 0.65886 0.0
C1845 C 0.25647 0.23227 0.65814 0.0
C1846 C 0.26693 0.24308 0.63659 0.0
C1847 C 0.2677 0.25629 0.67351 0.0
C1848 C 0.26455 0.21079 0.6643 0.0
C1849 C 0.2404 0.18533 0.66803 0.0
C1850 C 0.2426 0.16238 0.67407 0.0
C1851 C 0.27008 0.16555 0.67633 0.0
C1852 C 0.29511 0.19155 0.67282 0.0
C1853 C 0.29212 0.21426 0.66641 0.0
H1854 H 0.84769 0.98497 0.67707 0.0
H1855 H 0.78759 0.9558 0.62704 0.0
H1856 H 0.79031 1.00163 0.62546 0.0
H1857 H 0.82053 0.02445 0.70187 0.0
H1858 H 0.85566 0.0513 0.70969 0.0
H1859 H 0.84883 0.01653 0.70578 0.0
H1860 H 0.89209 0.03687 0.68075 0.0
H1861 H 0.89748 0.07134 0.68433 0.0
H1862 H 0.89196 0.05675 0.65923 0.0
H1863 H 0.79801 0.04942 0.63018 0.0
H1864 H 0.80983 0.09636 0.64059 0.0
H1865 H 0.86552 0.09543 0.68778 0.0
C1866 C 0.83526 0.98838 0.66574 0.0
C1867 C 0.81714 0.9669 0.65229 0.0
C1868 C 0.80133 0.97203 0.63755 0.0
C1869 C 0.80283 0.99794 0.63653 0.0
C1870 C 0.82046 0.01855 0.65025 0.0
C1871 C 0.83653 0.01418 0.66451 0.0
C1872 C 0.85306 0.03959 0.67786 0.0
C1873 C 0.84392 0.03253 0.70011 0.0
C1874 C 0.88558 0.05186 0.67538 0.0
C1875 C 0.84343 0.05882 0.66908 0.0
C1876 C 0.82476 0.04623 0.6531 0.0
C1877 C 0.81259 0.0595 0.64268 0.0
C1878 C 0.81942 0.08624 0.64882 0.0
C1879 C 0.83821 0.09962 0.66535 0.0
C1880 C 0.85068 0.08573 0.67538 0.0
H1881 H 0.5419 0.37197 0.68857 0.0
H1882 H 0.51618 0.4009 0.74116 0.0
H1883 H 0.47076 0.35573 0.74293 0.0
H1884 H 0.47362 0.33626 0.66556 0.0
H1885 H 0.47759 0.30797 0.65609 0.0
H1886 H 0.50878 0.34155 0.65995 0.0
H1887 H 0.5306 0.31933 0.68322 0.0
H1888 H 0.49939 0.28565 0.67922 0.0
H1889 H 0.51024 0.2987 0.70459 0.0
H1890 H 0.42653 0.30869 0.73723 0.0
H1891 H 0.38847 0.26229 0.7263 0.0
H1892 H 0.44347 0.2632 0.67783 0.0
C1893 C 0.5269 0.36855 0.70066 0.0
C1894 C 0.53245 0.38992 0.71474 0.0
C1895 C 0.51228 0.38477 0.73028 0.0
C1896 C 0.48643 0.35923 0.73134 0.0
C1897 C 0.48118 0.33888 0.71685 0.0
C1898 C 0.50103 0.3431 0.70197 0.0
C1899 C 0.48975 0.31818 0.68787 0.0
C1900 C 0.48729 0.3265 0.66608 0.0
C1901 C 0.50862 0.30467 0.68879 0.0
C1902 C 0.46039 0.29936 0.69703 0.0
C1903 C 0.45584 0.31174 0.71368 0.0
C1904 C 0.43001 0.29872 0.72431 0.0
C1905 C 0.40842 0.2723 0.71792 0.0
C1906 C 0.41267 0.25889 0.70105 0.0
C1907 C 0.43918 0.2728 0.69057 0.0
H1908 H 0.67828 0.18363 0.70621 0.0
H1909 H 0.62328 0.09558 0.71792 0.0
H1910 H 0.66468 0.08836 0.7137 0.0
H1911 H 0.71911 0.17798 0.66872 0.0
H1912 H 0.75415 0.2063 0.67564 0.0
H1913 H 0.72234 0.20756 0.68219 0.0
H1914 H 0.73385 0.21298 0.72004 0.0
H1915 H 0.76732 0.21452 0.71421 0.0
H1916 H 0.74308 0.18958 0.73236 0.0
H1917 H 0.71084 0.0899 0.70648 0.0
H1918 H 0.76041 0.10067 0.69971 0.0
H1919 H 0.78686 0.18777 0.69209 0.0
C1920 C 0.6752 0.16298 0.70832 0.0
C1921 C 0.6475 0.14008 0.71229 0.0
C1922 C 0.64423 0.11334 0.71484 0.0
C1923 C 0.66762 0.10905 0.7124 0.0
C1924 C 0.69437 0.13178 0.7077 0.0
C1925 C 0.69853 0.15836 0.70614 0.0
C1926 C 0.72962 0.17901 0.70073 0.0
C1927 C 0.73146 0.1936 0.6806 0.0
C1928 C 0.74434 0.20027 0.71786 0.0
C1929 C 0.74198 0.15972 0.69887 0.0
C1930 C 0.72118 0.13262 0.70315 0.0
C1931 C 0.72727 0.11102 0.70309 0.0
C1932 C 0.75545 0.1173 0.69913 0.0
C1933 C 0.77731 0.14486 0.69493 0.0
C1934 C 0.77042 0.16638 0.69465 0.0
H1935 H 0.86598 0.49278 0.70812 0.0
H1936 H 0.92351 0.52782 0.75929 0.0
H1937 H 0.91895 0.56999 0.75754 0.0
H1938 H 0.89222 0.55521 0.68007 0.0
H1939 H 0.85735 0.54681 0.67076 0.0
H1940 H 0.86431 0.5194 0.67734 0.0
H1941 H 0.82021 0.4996 0.70153 0.0
H1942 H 0.81437 0.52793 0.69516 0.0
H1943 H 0.81905 0.52152 0.72124 0.0
H1944 H 0.91095 0.60923 0.74878 0.0
H1945 H 0.89938 0.64313 0.73438 0.0
H1946 H 0.84616 0.58281 0.68878 0.0
C1947 C 0.8773 0.50924 0.71908 0.0
C1948 C 0.89534 0.50734 0.73375 0.0
C1949 C 0.90978 0.52912 0.7479 0.0
C1950 C 0.90726 0.55305 0.74702 0.0
C1951 C 0.88992 0.55466 0.73204 0.0
C1952 C 0.87494 0.53326 0.71844 0.0
C1953 C 0.85868 0.5408 0.70334 0.0
C1954 C 0.86879 0.54057 0.6816 0.0
C1955 C 0.82615 0.5213 0.70546 0.0
C1956 C 0.86746 0.57006 0.71026 0.0
C1957 C 0.88531 0.57747 0.72693 0.0
C1958 C 0.8969 0.60363 0.73579 0.0
C1959 C 0.89024 0.62283 0.72737 0.0
C1960 C 0.87218 0.61595 0.71015 0.0
C1961 C 0.86035 0.58897 0.7017 0.0
H1962 H 0.45096 0.94169 0.24548 0.0
H1963 H 0.45428 0.86671 0.23278 0.0
H1964 H 0.47085 0.88338 0.19797 0.0
H1965 H 0.42663 0.94897 0.1955 0.0
H1966 H 0.44841 0.98635 0.19549 0.0
H1967 H 0.43548 0.9679 0.21907 0.0
H1968 H 0.48756 0.99105 0.23259 0.0
H1969 H 0.50063 0.00956 0.20907 0.0
H1970 H 0.51432 0.98791 0.21827 0.0
H1971 H 0.48795 0.90876 0.16447 0.0
H1972 H 0.50661 0.94183 0.13584 0.0
H1973 H 0.4926 1.00049 0.17041 0.0
C1974 C 0.45482 0.92862 0.23529 0.0
C1975 C 0.45121 0.90281 0.24189 0.0
C1976 C 0.45705 0.88661 0.22816 0.0
C1977 C 0.46632 0.89584 0.2083 0.0
C1978 C 0.4698 0.92143 0.20232 0.0
C1979 C 0.46434 0.93765 0.21544 0.0
C1980 C 0.47096 0.96486 0.20552 0.0
C1981 C 0.44375 0.96714 0.20379 0.0
C1982 C 0.49479 0.98982 0.21705 0.0
C1983 C 0.48122 0.96153 0.18484 0.0
C1984 C 0.48012 0.93621 0.18321 0.0
C1985 C 0.48879 0.9286 0.16558 0.0
C1986 C 0.49921 0.94747 0.14932 0.0
C1987 C 0.50114 0.97382 0.15078 0.0
C1988 C 0.49167 0.98065 0.1688 0.0
H1989 H 0.1203 0.53011 0.22888 0.0
H1990 H 0.07507 0.56236 0.26396 0.0
H1991 H 0.04252 0.55372 0.23527 0.0
H1992 H 0.11522 0.55777 0.1805 0.0
H1993 H 0.10937 0.52768 0.16623 0.0
H1994 H 0.12976 0.53668 0.1894 0.0
H1995 H 0.0955 0.48759 0.20379 0.0
H1996 H 0.07519 0.47836 0.18061 0.0
H1997 H 0.05747 0.47495 0.20448 0.0
H1998 H 1.01445 0.54125 0.20344 0.0
H1999 H 0.99086 0.52351 0.17042 0.0
H2000 H 0.05346 0.49893 0.15533 0.0
C2001 C 0.10343 0.53517 0.23054 0.0
C2002 C 0.10044 0.5472 0.24863 0.0
C2003 C 0.07814 0.55363 0.25015 0.0
C2004 C 0.05947 0.54873 0.23395 0.0
C2005 C 0.06325 0.53731 0.21626 0.0
C2006 C 0.08452 0.53044 0.21442 0.0
C2007 C 0.08339 0.51791 0.19375 0.0
C2008 C 0.11109 0.5361 0.18176 0.0
C2009 C 0.07753 0.48792 0.19578 0.0
C2010 C 0.05804 0.51865 0.1844 0.0
C2011 C 0.04689 0.53005 0.19769 0.0
C2012 C 0.023 0.53234 0.19287 0.0
C2013 C 1.00974 0.5222 0.17411 0.0
C2014 C 0.02038 0.50994 0.16035 0.0
C2015 C 0.04515 0.50858 0.16546 0.0
H2016 H 0.4783 0.5321 0.24599 0.0
H2017 H 0.48751 0.61333 0.23621 0.0
H2018 H 0.50118 0.6124 0.20055 0.0
H2019 H 0.53921 0.54486 0.21762 0.0
H2020 H 0.52375 0.51011 0.20755 0.0
H2021 H 0.51171 0.51583 0.23155 0.0
H2022 H 0.45938 0.49114 0.21836 0.0
H2023 H 0.47128 0.48532 0.19428 0.0
H2024 H 0.45112 0.50319 0.19539 0.0
H2025 H 0.51567 0.60339 0.16638 0.0
H2026 H 0.53341 0.58859 0.13704 0.0
H2027 H 0.51674 0.51413 0.16952 0.0
C2028 C 0.48272 0.54941 0.23618 0.0
C2029 C 0.48164 0.57268 0.24368 0.0
C2030 C 0.48819 0.59531 0.23064 0.0
C2031 C 0.49583 0.59489 0.21039 0.0
C2032 C 0.497 0.57177 0.20347 0.0
C2033 C 0.4908 0.54951 0.216 0.0
C2034 C 0.49585 0.5282 0.20527 0.0
C2035 C 0.51901 0.52455 0.21614 0.0
C2036 C 0.46773 0.50031 0.2032 0.0
C2037 C 0.50628 0.54215 0.18488 0.0
C2038 C 0.50632 0.56703 0.18402 0.0
C2039 C 0.51559 0.58387 0.16684 0.0
C2040 C 0.5255 0.57526 0.15023 0.0
C2041 C 0.52644 0.55026 0.15104 0.0
C2042 C 0.51636 0.53341 0.16853 0.0
H2043 H 0.91409 0.45745 0.8174 0.0
H2044 H 0.95452 0.41714 0.78615 0.0
H2045 H 0.98591 0.42564 0.8155 0.0
H2046 H 0.97863 0.51152 0.84 0.0
H2047 H 0.9617 0.512 0.86344 0.0
H2048 H 0.94122 0.50155 0.84034 0.0
H2049 H 0.90441 0.45498 0.85707 0.0
H2050 H 0.92494 0.4652 0.88019 0.0
H2051 H 0.9166 0.43296 0.86798 0.0
H2052 H 1.01402 0.43957 0.8473 0.0
H2053 H 0.03881 0.46007 0.87953 0.0
H2054 H 0.98125 0.49206 0.89069 0.0
C2055 C 0.92958 0.45046 0.81674 0.0
C2056 C 0.9315 0.43625 0.79952 0.0
C2057 C 0.9521 0.42746 0.7993 0.0
C2058 C 0.97015 0.43229 0.81588 0.0
C2059 C 0.9675 0.44603 0.83264 0.0
C2060 C 0.94788 0.45514 0.83323 0.0
C2061 C 0.95028 0.47027 0.85294 0.0
C2062 C 0.95845 0.50064 0.84893 0.0
C2063 C 0.92239 0.45493 0.86527 0.0
C2064 C 0.97454 0.46849 0.86317 0.0
C2065 C 0.98397 0.45425 0.85117 0.0
C2066 C 1.00677 0.45065 0.85689 0.0
C2067 C 0.02073 0.46238 0.87518 0.0
C2068 C 1.01188 0.47754 0.88757 0.0
C2069 C 0.98814 0.4802 0.88163 0.0
H2070 H 0.58746 0.51026 0.78688 0.0
H2071 H 0.5879 0.43363 0.79842 0.0
H2072 H 0.5716 0.43317 0.83352 0.0
H2073 H 0.61156 0.54111 0.83686 0.0
H2074 H 0.58843 0.55588 0.83742 0.0
H2075 H 0.60158 0.55094 0.81358 0.0
H2076 H 0.54943 0.52181 0.80042 0.0
H2077 H 0.53614 0.52668 0.8242 0.0
H2078 H 0.52375 0.49205 0.81473 0.0
H2079 H 0.55463 0.44082 0.86738 0.0
H2080 H 0.53519 0.45425 0.89648 0.0
H2081 H 0.54482 0.52534 0.86264 0.0
C2082 C 0.58443 0.49357 0.79688 0.0
C2083 C 0.58906 0.47202 0.78995 0.0
C2084 C 0.58435 0.45026 0.80339 0.0
C2085 C 0.57526 0.44992 0.82338 0.0
C2086 C 0.5708 0.47141 0.82972 0.0
C2087 C 0.57506 0.49275 0.81683 0.0
C2088 C 0.56739 0.51261 0.82711 0.0
C2089 C 0.59382 0.54187 0.82884 0.0
C2090 C 0.54271 0.51331 0.81595 0.0
C2091 C 0.55794 0.49899 0.84772 0.0
C2092 C 0.56039 0.47544 0.84902 0.0
C2093 C 0.5527 0.45928 0.86654 0.0
C2094 C 0.54183 0.46715 0.88305 0.0
C2095 C 0.53845 0.49082 0.88187 0.0
C2096 C 0.54695 0.50702 0.86398 0.0
H2097 H 0.59336 0.13203 0.79873 0.0
H2098 H 0.5067 0.07566 0.7781 0.0
H2099 H 0.49499 0.05225 0.81144 0.0
H2100 H 0.60193 0.08188 0.828 0.0
H2101 H 0.62218 0.10633 0.84775 0.0
H2102 H 0.62351 0.1184 0.82226 0.0
H2103 H 0.60747 0.15258 0.8352 0.0
H2104 H 0.60592 0.14049 0.86071 0.0
H2105 H 0.5748 0.1394 0.84964 0.0
H2106 H 0.49298 0.03468 0.84742 0.0
H2107 H 0.50132 0.02402 0.88228 0.0
H2108 H 0.58887 0.09289 0.87935 0.0
C2109 C 0.57201 0.11455 0.80112 0.0
C2110 C 0.55097 0.10568 0.78572 0.0
C2111 C 0.52313 0.08301 0.78968 0.0
C2112 C 0.51629 0.06953 0.80856 0.0
C2113 C 0.53747 0.07897 0.82345 0.0
C2114 C 0.56477 0.10096 0.8199 0.0
C2115 C 0.58362 0.10723 0.83843 0.0
C2116 C 0.60933 0.10321 0.83383 0.0
C2117 C 0.59353 0.13667 0.84647 0.0
C2118 C 0.56276 0.08521 0.85291 0.0
C2119 C 0.53622 0.06912 0.84405 0.0
C2120 C 0.51369 0.04725 0.85451 0.0
C2121 C 0.51856 0.04147 0.8744 0.0
C2122 C 0.54578 0.05747 0.88368 0.0
C2123 C 0.56791 0.07988 0.87272 0.0
H2124 H 0.09131 0.23867 0.56501 0.0
H2125 H 0.17351 0.25665 0.59008 0.0
H2126 H 0.19682 0.27761 0.55792 0.0
H2127 H 0.10368 0.22555 0.51286 0.0
H2128 H 0.08685 0.24354 0.50195 0.0
H2129 H 0.07529 0.22698 0.5263 0.0
H2130 H 0.0849 0.27351 0.5422 0.0
H2131 H 0.09616 0.2901 0.51787 0.0
H2132 H 0.11977 0.30404 0.53937 0.0
H2133 H 0.21239 0.29851 0.52395 0.0
H2134 H 0.21992 0.32275 0.49128 0.0
H2135 H 0.12917 0.29496 0.48792 0.0
C2136 C 0.1142 0.24697 0.56384 0.0
C2137 C 0.13019 0.24504 0.58026 0.0
C2138 C 0.16024 0.25653 0.57776 0.0
C2139 C 0.17389 0.26879 0.55948 0.0
C2140 C 0.1575 0.27 0.54368 0.0
C2141 C 0.12841 0.25983 0.54569 0.0
C2142 C 0.11642 0.26597 0.52677 0.0
C2143 C 0.09424 0.23889 0.51636 0.0
C2144 C 0.10356 0.28451 0.53186 0.0
C2145 C 0.14344 0.28148 0.51398 0.0
C2146 C 0.16675 0.28309 0.52402 0.0
C2147 C 0.19429 0.29721 0.51587 0.0
C2148 C 0.19836 0.3108 0.49728 0.0
C2149 C 0.17511 0.31032 0.48698 0.0
C2150 C 0.14716 0.29502 0.49526 0.0
H2151 H 0.75765 0.89443 0.58491 0.0
H2152 H 0.81466 0.86563 0.56359 0.0
H2153 H 0.79144 0.85548 0.53021 0.0
H2154 H 0.69519 0.84467 0.55881 0.0
H2155 H 0.68284 0.86845 0.55235 0.0
H2156 H 0.70433 0.8744 0.57469 0.0
H2157 H 0.74107 0.92368 0.56184 0.0
H2158 H 0.71956 0.91797 0.53953 0.0
H2159 H 0.75676 0.92771 0.53706 0.0
H2160 H 0.7605 0.84547 0.50004 0.0
H2161 H 0.72557 0.83914 0.47372 0.0
H2162 H 0.69036 0.87755 0.51303 0.0
C2163 C 0.76547 0.88634 0.57314 0.0
C2164 C 0.78769 0.88039 0.57705 0.0
C2165 C 0.79721 0.8697 0.56119 0.0
C2166 C 0.7843 0.86404 0.54209 0.0
C2167 C 0.76208 0.86949 0.53889 0.0
C2168 C 0.7529 0.8807 0.55382 0.0
C2169 C 0.72841 0.88439 0.54621 0.0
C2170 C 0.70108 0.86693 0.55877 0.0
C2171 C 0.73697 0.91528 0.54616 0.0
C2172 C 0.72512 0.87313 0.52482 0.0
C2173 C 0.74475 0.86462 0.521 0.0
C2174 C 0.74534 0.85253 0.50268 0.0
C2175 C 0.72547 0.84922 0.48773 0.0
C2176 C 0.70536 0.85825 0.49101 0.0
C2177 C 0.70529 0.87032 0.50993 0.0
H2178 H 0.14326 0.87072 0.57815 0.0
H2179 H 0.15959 0.95407 0.56577 0.0
H2180 H 0.17176 0.94989 0.53033 0.0
H2181 H 0.20138 0.87626 0.54882 0.0
H2182 H 0.18246 0.84085 0.53987 0.0
H2183 H 0.17301 0.84956 0.56383 0.0
H2184 H 0.12035 0.82836 0.55191 0.0
H2185 H 0.12965 0.81956 0.52788 0.0
H2186 H 0.11271 0.8405 0.52873 0.0
H2187 H 0.1833 0.93711 0.49633 0.0
H2188 H 0.19609 0.91774 0.46702 0.0
H2189 H 0.1734 0.84308 0.50154 0.0
C2190 C 0.14903 0.88791 0.56788 0.0
C2191 C 0.15039 0.9127 0.5747 0.0
C2192 C 0.15854 0.93494 0.56089 0.0
C2193 C 0.16534 0.93271 0.54071 0.0
C2194 C 0.16406 0.90812 0.53449 0.0
C2195 C 0.15624 0.88615 0.54769 0.0
C2196 C 0.15809 0.86262 0.53742 0.0
C2197 C 0.18004 0.85701 0.54812 0.0
C2198 C 0.12843 0.8362 0.53643 0.0
C2199 C 0.16842 0.87492 0.5165 0.0
C2200 C 0.17139 0.90104 0.51505 0.0
C2201 C 0.18095 0.91662 0.49728 0.0
C2202 C 0.18802 0.90538 0.48065 0.0
C2203 C 0.1858 0.8789 0.48192 0.0
C2204 C 0.17556 0.86346 0.5001 0.0
H2205 H 0.59815 0.74766 0.13622 0.0
H2206 H 0.62968 0.83452 0.12147 0.0
H2207 H 0.65084 0.84815 0.15535 0.0
H2208 H 0.58253 0.75026 0.18853 0.0
H2209 H 0.59568 0.7278 0.19688 0.0
H2210 H 0.58154 0.72425 0.17166 0.0
H2211 H 0.62897 0.73084 0.15658 0.0
H2212 H 0.64316 0.73415 0.18176 0.0
H2213 H 0.66245 0.76118 0.16338 0.0
H2214 H 0.66721 0.85266 0.19128 0.0
H2215 H 0.68307 0.84791 0.22551 0.0
H2216 H 0.64572 0.75922 0.21594 0.0
C2217 C 0.60972 0.76958 0.13996 0.0
C2218 C 0.61142 0.78985 0.12613 0.0
C2219 C 0.62692 0.81833 0.13188 0.0
C2220 C 0.63931 0.8264 0.1511 0.0
C2221 C 0.6367 0.8059 0.16441 0.0
C2222 C 0.62281 0.77814 0.159 0.0
C2223 C 0.62436 0.76048 0.17591 0.0
C2224 C 0.59423 0.73946 0.1837 0.0
C2225 C 0.64072 0.7458 0.16899 0.0
C2226 C 0.64121 0.78269 0.19162 0.0
C2227 C 0.64771 0.8087 0.18478 0.0
C2228 C 0.66246 0.83244 0.19677 0.0
C2229 C 0.67125 0.82958 0.21617 0.0
C2230 C 0.66564 0.80329 0.22318 0.0
C2231 C 0.65033 0.77956 0.21079 0.0
H2232 H 0.23504 0.78659 0.1409 0.0
H2233 H 0.25668 0.8618 0.10739 0.0
H2234 H 0.24077 0.87895 0.13624 0.0
H2235 H 0.17121 0.77873 0.16405 0.0
H2236 H 0.17684 0.7664 0.18788 0.0
H2237 H 0.19092 0.76038 0.16488 0.0
H2238 H 0.24177 0.78445 0.18065 0.0
H2239 H 0.22785 0.79068 0.20366 0.0
H2240 H 0.25693 0.81931 0.19046 0.0
H2241 H 0.22042 0.88711 0.16777 0.0
H2242 H 0.19687 0.88572 0.20023 0.0
H2243 H 0.18905 0.80594 0.2141 0.0
C2244 C 0.23638 0.80665 0.13963 0.0
C2245 C 0.24729 0.82291 0.12186 0.0
C2246 C 0.24884 0.84913 0.12091 0.0
C2247 C 0.23975 0.85902 0.1372 0.0
C2248 C 0.22924 0.84257 0.15447 0.0
C2249 C 0.22753 0.81696 0.15585 0.0
C2250 C 0.21487 0.80326 0.17608 0.0
C2251 C 0.18679 0.77556 0.17303 0.0
C2252 C 0.23666 0.79919 0.18844 0.0
C2253 C 0.20938 0.82502 0.1857 0.0
C2254 C 0.21789 0.84752 0.17293 0.0
C2255 C 0.21391 0.86973 0.17797 0.0
C2256 C 0.20052 0.86877 0.1964 0.0
C2257 C 0.19142 0.84588 0.20968 0.0
C2258 C 0.19629 0.8239 0.20436 0.0
H2259 H 0.1905 0.44894 0.1321 0.0
H2260 H 0.2574 0.42915 0.11878 0.0
H2261 H 0.25083 0.40826 0.15256 0.0
H2262 H 0.20325 0.46191 0.18584 0.0
H2263 H 0.16562 0.44474 0.19201 0.0
H2264 H 0.17792 0.46132 0.16774 0.0
H2265 H 0.14293 0.41513 0.14967 0.0
H2266 H 0.13041 0.39847 0.17385 0.0
H2267 H 0.14422 0.38407 0.15552 0.0
H2268 H 0.23577 0.3878 0.18788 0.0
H2269 H 0.21025 0.36576 0.21984 0.0
H2270 H 0.15008 0.39434 0.20824 0.0
C2271 C 0.20379 0.44015 0.13603 0.0
C2272 C 0.22475 0.44119 0.12245 0.0
C2273 C 0.24174 0.42958 0.12881 0.0
C2274 C 0.23803 0.41738 0.14803 0.0
C2275 C 0.21697 0.41649 0.16081 0.0
C2276 C 0.19991 0.42729 0.15494 0.0
C2277 C 0.1772 0.42169 0.17074 0.0
C2278 C 0.18125 0.44905 0.17961 0.0
C2279 C 0.1469 0.40377 0.16192 0.0
C2280 C 0.1839 0.40574 0.18632 0.0
C2281 C 0.2073 0.40343 0.18053 0.0
C2282 C 0.21744 0.3895 0.19253 0.0
C2283 C 0.20294 0.37717 0.21068 0.0
C2284 C 0.17829 0.3784 0.21643 0.0
C2285 C 0.16891 0.39313 0.20416 0.0
H2286 H 0.78703 0.60775 0.9181 0.0
H2287 H 0.81433 0.54757 0.90642 0.0
H2288 H 0.82493 0.56344 0.87095 0.0
H2289 H 0.75209 0.60016 0.87073 0.0
H2290 H 0.76319 0.6365 0.86833 0.0
H2291 H 0.75893 0.62128 0.89305 0.0
H2292 H 0.8112 0.65831 0.90205 0.0
H2293 H 0.8156 0.67367 0.87735 0.0
H2294 H 0.84008 0.66258 0.88584 0.0
H2295 H 0.83007 0.58412 0.83605 0.0
H2296 H 0.83029 0.60861 0.80488 0.0
H2297 H 0.80149 0.65669 0.83948 0.0
C2298 C 0.79529 0.59794 0.90811 0.0
C2299 C 0.79997 0.57647 0.91518 0.0
C2300 C 0.81099 0.56434 0.90154 0.0
C2301 C 0.81693 0.57311 0.88129 0.0
C2302 C 0.81193 0.59418 0.87481 0.0
C2303 C 0.80152 0.60656 0.88784 0.0
C2304 C 0.7977 0.62854 0.87696 0.0
C2305 C 0.7661 0.62117 0.87729 0.0
C2306 C 0.81732 0.65749 0.88609 0.0
C2307 C 0.8072 0.62631 0.85573 0.0
C2308 C 0.81534 0.60639 0.85481 0.0
C2309 C 0.82406 0.60002 0.83666 0.0
C2310 C 0.82434 0.61426 0.819 0.0
C2311 C 0.81606 0.63483 0.8195 0.0
C2312 C 0.80766 0.64095 0.83831 0.0
H2313 H 0.42467 0.22992 0.91685 0.0
H2314 H 0.47186 0.1874 0.9032 0.0
H2315 H 0.45079 0.17662 0.86887 0.0
H2316 H 0.36094 0.18348 0.89111 0.0
H2317 H 0.35396 0.21005 0.88189 0.0
H2318 H 0.37366 0.21546 0.90506 0.0
H2319 H 0.4158 0.26108 0.89069 0.0
H2320 H 0.39613 0.25594 0.86752 0.0
H2321 H 0.43163 0.26036 0.86679 0.0
H2322 H 0.42314 0.16905 0.83647 0.0
H2323 H 0.39145 0.16573 0.80831 0.0
H2324 H 0.36359 0.21446 0.84296 0.0
C2325 C 0.431 0.21877 0.90654 0.0
C2326 C 0.44995 0.20953 0.91271 0.0
C2327 C 0.45717 0.19446 0.89887 0.0
C2328 C 0.44543 0.18837 0.87931 0.0
C2329 C 0.42659 0.19755 0.87382 0.0
C2330 C 0.41953 0.21254 0.88699 0.0
C2331 C 0.39825 0.21944 0.87755 0.0
C2332 C 0.37003 0.20632 0.88962 0.0
C2333 C 0.41124 0.25109 0.87551 0.0
C2334 C 0.39419 0.20573 0.85706 0.0
C2335 C 0.41079 0.1933 0.85517 0.0
C2336 C 0.41023 0.17892 0.83772 0.0
C2337 C 0.39227 0.17726 0.82176 0.0
C2338 C 0.37508 0.1899 0.82337 0.0
C2339 C 0.37622 0.20434 0.8413 0.0
H2340 H 0.80823 0.19757 0.91224 0.0
H2341 H 0.81779 0.27754 0.89637 0.0
H2342 H 0.8303 0.2721 0.86135 0.0
H2343 H 0.86747 0.20524 0.88333 0.0
H2344 H 0.85061 0.16932 0.8756 0.0
H2345 H 0.84041 0.17846 0.89909 0.0
H2346 H 0.78735 0.15342 0.88748 0.0
H2347 H 0.79739 0.14412 0.86396 0.0
H2348 H 0.77815 0.16294 0.86373 0.0
H2349 H 0.84347 0.25893 0.8284 0.0
H2350 H 0.85777 0.2395 0.80002 0.0
H2351 H 0.84011 0.1681 0.83703 0.0
C2352 C 0.81257 0.2137 0.90128 0.0
C2353 C 0.81206 0.23799 0.907 0.0
C2354 C 0.81829 0.25887 0.89234 0.0
C2355 C 0.82527 0.25591 0.87239 0.0
C2356 C 0.826 0.23194 0.86728 0.0
C2357 C 0.81987 0.21118 0.88127 0.0
C2358 C 0.82354 0.18813 0.87202 0.0
C2359 C 0.8469 0.18513 0.88317 0.0
C2360 C 0.7949 0.16052 0.87178 0.0
C2361 C 0.83299 0.19934 0.85075 0.0
C2362 C 0.834 0.22451 0.84829 0.0
C2363 C 0.84256 0.23913 0.83009 0.0
C2364 C 0.85051 0.22784 0.81401 0.0
C2365 C 0.85002 0.20223 0.81621 0.0
C2366 C 0.84093 0.18781 0.83486 0.0
H2367 H 0.28197 0.15084 0.46037 0.0
H2368 H 0.21623 0.06578 0.47287 0.0
H2369 H 0.23469 0.07029 0.50781 0.0
H2370 H 0.33753 0.14825 0.48692 0.0
H2371 H 0.35394 0.18345 0.49622 0.0
H2372 H 0.33414 0.17424 0.47283 0.0
H2373 H 0.30175 0.19267 0.48678 0.0
H2374 H 0.32154 0.20205 0.5102 0.0
H2375 H 0.28318 0.17944 0.51046 0.0
H2376 H 0.26116 0.08386 0.54106 0.0
H2377 H 0.29519 0.10465 0.56959 0.0
H2378 H 0.34441 0.18029 0.53481 0.0
C2379 C 0.27121 0.13336 0.4706 0.0
C2380 C 0.24757 0.10804 0.46408 0.0
C2381 C 0.23439 0.08534 0.47767 0.0
C2382 C 0.24463 0.08775 0.49751 0.0
C2383 C 0.26817 0.11295 0.50344 0.0
C2384 C 0.28136 0.13532 0.49035 0.0
C2385 C 0.30729 0.15954 0.50006 0.0
C2386 C 0.33485 0.16678 0.48831 0.0
C2387 C 0.30318 0.18492 0.50199 0.0
C2388 C 0.30682 0.14722 0.52057 0.0
C2389 C 0.28389 0.12046 0.52233 0.0
C2390 C 0.27914 0.10483 0.53989 0.0
C2391 C 0.29848 0.11681 0.55601 0.0
C2392 C 0.3224 0.144 0.55433 0.0
C2393 C 0.32643 0.15937 0.53641 0.0
H2394 H 0.94498 0.16315 0.4628 0.0
H2395 H 0.8564 0.12179 0.44259 0.0
H2396 H 0.84138 0.12852 0.47647 0.0
H2397 H 0.93139 0.13672 0.51379 0.0
H2398 H 0.95894 0.16881 0.5247 0.0
H2399 H 0.96258 0.15978 0.4991 0.0
H2400 H 0.96857 0.20651 0.48634 0.0
H2401 H 0.96509 0.21573 0.51191 0.0
H2402 H 0.94155 0.21548 0.49242 0.0
H2403 H 0.83615 0.1407 0.5126 0.0
H2404 H 0.84149 0.15901 0.54746 0.0
H2405 H 0.93351 0.1929 0.54365 0.0
C2406 C 0.92243 0.15568 0.46538 0.0
C2407 C 0.90189 0.14186 0.44994 0.0
C2408 C 0.87254 0.13207 0.45419 0.0
C2409 C 0.86379 0.1359 0.47339 0.0
C2410 C 0.88462 0.14959 0.48822 0.0
C2411 C 0.91334 0.15942 0.4844 0.0
C2412 C 0.93155 0.17404 0.50276 0.0
C2413 C 0.94702 0.15892 0.51055 0.0
C2414 C 0.95295 0.20476 0.49807 0.0
C2415 C 0.90861 0.17115 0.51746 0.0
C2416 C 0.88165 0.15681 0.50886 0.0
C2417 C 0.85716 0.15187 0.51951 0.0
C2418 C 0.86038 0.16219 0.53935 0.0
C2419 C 0.8879 0.17742 0.54831 0.0
C2420 C 0.9122 0.18159 0.53719 0.0
H2421 H 0.89045 0.74063 0.45814 0.0
H2422 H 0.86234 0.79871 0.47507 0.0
H2423 H 0.85208 0.7794 0.50971 0.0
H2424 H 0.83727 0.68292 0.4865 0.0
H2425 H 0.8609 0.67022 0.49377 0.0
H2426 H 0.86712 0.68931 0.47052 0.0
H2427 H 0.91881 0.72441 0.48216 0.0
H2428 H 0.91276 0.7054 0.50546 0.0
H2429 H 0.92432 0.74198 0.50612 0.0
H2430 H 0.84442 0.75343 0.54262 0.0
H2431 H 0.838 0.72145 0.5707 0.0
H2432 H 0.87078 0.67997 0.53248 0.0
C2433 C 0.88239 0.74944 0.4692 0.0
C2434 C 0.87715 0.77118 0.46383 0.0
C2435 C 0.86623 0.78186 0.47872 0.0
C2436 C 0.8605 0.77114 0.49849 0.0
C2437 C 0.86571 0.74962 0.50324 0.0
C2438 C 0.87632 0.73881 0.48901 0.0
C2439 C 0.87915 0.71509 0.49789 0.0
C2440 C 0.85996 0.68777 0.48649 0.0
C2441 C 0.91063 0.72215 0.49791 0.0
C2442 C 0.86832 0.71417 0.51926 0.0
C2443 C 0.86091 0.73441 0.5221 0.0
C2444 C 0.85025 0.73754 0.54057 0.0
C2445 C 0.84682 0.71936 0.5565 0.0
C2446 C 0.85384 0.69812 0.55389 0.0
C2447 C 0.86492 0.69576 0.53497 0.0
loop_
_geom_bond_atom_site_label_1
_geom_bond_atom_site_label_2
_geom_bond_distance
_geom_bond_site_symmetry_2
_ccdc_geom_bond_type
H0 C7 0.929 . S
H1 C10 0.930 . S
H2 C12 0.929 . S
H3 C4 0.969 . S
C4 H3 0.969 . S
C4 O5 1.550 . S
C4 H6 0.973 . S
O5 C4 1.550 . S
O5 C11 1.412 . S
H6 C4 0.973 . S
C7 H0 0.929 . S
C7 C8 1.400 . S
C7 C9 1.364 . S
C8 C7 1.400 . S
C8 C12 1.377 . S
C9 C7 1.364 . S
C9 C10 1.374 . S
C10 H1 0.930 . S
C10 C9 1.374 . S
C10 C11 1.383 . S
C11 O5 1.412 . S
C11 C10 1.383 . S
C11 C12 1.394 . S
C12 H2 0.929 . S
C12 C8 1.377 . S
C12 C11 1.394 . S
H13 C20 0.929 . S
H14 C23 0.930 . S
H15 C25 0.929 . S
H16 C17 0.969 . S
C17 H16 0.969 . S
C17 O18 1.550 . S
C17 H19 0.973 . S
O18 C17 1.550 . S
O18 C24 1.412 . S
H19 C17 0.973 . S
C20 H13 0.929 . S
C20 C21 1.400 . S
C20 C22 1.364 . S
C21 C20 1.400 . S
C21 C25 1.377 . S
C22 C20 1.364 . S
C22 C23 1.374 . S
C23 H14 0.930 . S
C23 C22 1.374 . S
C23 C24 1.383 . S
C24 O18 1.412 . S
C24 C23 1.383 . S
C24 C25 1.394 . S
C25 H15 0.929 . S
C25 C21 1.377 . S
C25 C24 1.394 . S
H26 C33 0.929 . S
H27 C36 0.930 . S
H28 C38 0.929 . S
H29 C30 0.969 . S
C30 H29 0.969 . S
C30 O31 1.550 . S
C30 H32 0.973 . S
O31 C30 1.550 . S
O31 C37 1.412 . S
H32 C30 0.973 . S
C33 H26 0.929 . S
C33 C34 1.400 . S
C33 C35 1.364 . S
C34 C33 1.400 . S
C34 C38 1.377 . S
C35 C33 1.364 . S
C35 C36 1.374 . S
C36 H27 0.930 . S
C36 C35 1.374 . S
C36 C37 1.383 . S
C37 O31 1.412 . S
C37 C36 1.383 . S
C37 C38 1.394 . S
C38 H28 0.929 . S
C38 C34 1.377 . S
C38 C37 1.394 . S
H39 C46 0.929 . S
H40 C49 0.930 . S
H41 C51 0.929 . S
H42 C43 0.969 . S
C43 H42 0.969 . S
C43 O44 1.550 . S
C43 H45 0.973 . S
O44 C43 1.550 . S
O44 C50 1.412 . S
H45 C43 0.973 . S
C46 H39 0.929 . S
C46 C47 1.400 . S
C46 C48 1.364 . S
C47 C46 1.400 . S
C47 C51 1.377 . S
C48 C46 1.364 . S
C48 C49 1.374 . S
C49 H40 0.930 . S
C49 C48 1.374 . S
C49 C50 1.383 . S
C50 O44 1.412 . S
C50 C49 1.383 . S
C50 C51 1.394 . S
C51 H41 0.929 . S
C51 C47 1.377 . S
C51 C50 1.394 . S
H52 C59 0.929 . S
H53 C62 0.930 . S
H54 C64 0.929 . S
H55 C56 0.969 . S
C56 H55 0.969 . S
C56 O57 1.550 . S
C56 H58 0.973 . S
O57 C56 1.550 . S
O57 C63 1.412 . S
H58 C56 0.973 . S
C59 H52 0.929 . S
C59 C60 1.400 . S
C59 C61 1.364 . S
C60 C59 1.400 . S
C60 C64 1.377 . S
C61 C59 1.364 . S
C61 C62 1.374 . S
C62 H53 0.930 . S
C62 C61 1.374 . S
C62 C63 1.383 . S
C63 O57 1.412 . S
C63 C62 1.383 . S
C63 C64 1.394 . S
C64 H54 0.929 . S
C64 C60 1.377 . S
C64 C63 1.394 . S
H65 C72 0.929 . S
H66 C75 0.930 . S
H67 C77 0.929 . S
H68 C69 0.969 . S
C69 H68 0.969 . S
C69 O70 1.550 . S
C69 H71 0.973 . S
O70 C69 1.550 . S
O70 C76 1.412 . S
H71 C69 0.973 . S
C72 H65 0.929 . S
C72 C73 1.400 . S
C72 C74 1.364 . S
C73 C72 1.400 . S
C73 C77 1.377 . S
C74 C72 1.364 . S
C74 C75 1.374 . S
C75 H66 0.930 . S
C75 C74 1.374 . S
C75 C76 1.383 . S
C76 O70 1.412 . S
C76 C75 1.383 . S
C76 C77 1.394 . S
C77 H67 0.929 . S
C77 C73 1.377 . S
C77 C76 1.394 . S
H78 C85 0.929 . S
H79 C88 0.930 . S
H80 C90 0.929 . S
H81 C82 0.969 . S
C82 H81 0.969 . S
C82 O83 1.550 . S
C82 H84 0.973 . S
O83 C82 1.550 . S
O83 C89 1.412 . S
H84 C82 0.973 . S
C85 H78 0.929 . S
C85 C86 1.400 . S
C85 C87 1.364 . S
C86 C85 1.400 . S
C86 C90 1.377 . S
C87 C85 1.364 . S
C87 C88 1.374 . S
C88 H79 0.930 . S
C88 C87 1.374 . S
C88 C89 1.383 . S
C89 O83 1.412 . S
C89 C88 1.383 . S
C89 C90 1.394 . S
C90 H80 0.929 . S
C90 C86 1.377 . S
C90 C89 1.394 . S
H91 C98 0.929 . S
H92 C101 0.930 . S
H93 C103 0.929 . S
H94 C95 0.969 . S
C95 H94 0.969 . S
C95 O96 1.550 . S
C95 H97 0.973 . S
O96 C95 1.550 . S
O96 C102 1.412 . S
H97 C95 0.973 . S
C98 H91 0.929 . S
C98 C99 1.400 . S
C98 C100 1.364 . S
C99 C98 1.400 . S
C99 C103 1.377 . S
C100 C98 1.364 . S
C100 C101 1.374 . S
C101 H92 0.930 . S
C101 C100 1.374 . S
C101 C102 1.383 . S
C102 O96 1.412 . S
C102 C101 1.383 . S
C102 C103 1.394 . S
C103 H93 0.929 . S
C103 C99 1.377 . S
C103 C102 1.394 . S
H104 C111 0.929 . S
H105 C114 0.930 . S
H106 C116 0.929 . S
H107 C108 0.969 . S
C108 H107 0.969 . S
C108 O109 1.550 . S
C108 H110 0.973 . S
O109 C108 1.550 . S
O109 C115 1.412 . S
H110 C108 0.973 . S
C111 H104 0.929 . S
C111 C112 1.400 . S
C111 C113 1.364 . S
C112 C111 1.400 . S
C112 C116 1.377 . S
C113 C111 1.364 . S
C113 C114 1.374 . S
C114 H105 0.930 . S
C114 C113 1.374 . S
C114 C115 1.383 . S
C115 O109 1.412 . S
C115 C114 1.383 . S
C115 C116 1.394 . S
C116 H106 0.929 . S
C116 C112 1.377 . S
C116 C115 1.394 . S
H117 C124 0.929 . S
H118 C127 0.930 . S
H119 C129 0.929 . S
H120 C121 0.969 . S
C121 H120 0.969 . S
C121 O122 1.550 . S
C121 H123 0.973 . S
O122 C121 1.550 . S
O122 C128 1.412 . S
H123 C121 0.973 . S
C124 H117 0.929 . S
C124 C125 1.400 . S
C124 C126 1.364 . S
C125 C124 1.400 . S
C125 C129 1.377 . S
C126 C124 1.364 . S
C126 C127 1.374 . S
C127 H118 0.930 . S
C127 C126 1.374 . S
C127 C128 1.383 . S
C128 O122 1.412 . S
C128 C127 1.383 . S
C128 C129 1.394 . S
C129 H119 0.929 . S
C129 C125 1.377 . S
C129 C128 1.394 . S
H130 C137 0.929 . S
H131 C140 0.930 . S
H132 C142 0.929 . S
H133 C134 0.969 . S
C134 H133 0.969 . S
C134 O135 1.550 . S
C134 H136 0.973 . S
O135 C134 1.550 . S
O135 C141 1.412 . S
H136 C134 0.973 . S
C137 H130 0.929 . S
C137 C138 1.400 . S
C137 C139 1.364 . S
C138 C137 1.400 . S
C138 C142 1.377 . S
C139 C137 1.364 . S
C139 C140 1.374 . S
C140 H131 0.930 . S
C140 C139 1.374 . S
C140 C141 1.383 . S
C141 O135 1.412 . S
C141 C140 1.383 . S
C141 C142 1.394 . S
C142 H132 0.929 . S
C142 C138 1.377 . S
C142 C141 1.394 . S
H143 C150 0.929 . S
H144 C153 0.930 . S
H145 C155 0.929 . S
H146 C147 0.969 . S
C147 H146 0.969 . S
C147 O148 1.550 . S
C147 H149 0.973 . S
O148 C147 1.550 . S
O148 C154 1.412 . S
H149 C147 0.973 . S
C150 H143 0.929 . S
C150 C151 1.400 . S
C150 C152 1.364 . S
C151 C150 1.400 . S
C151 C155 1.377 . S
C152 C150 1.364 . S
C152 C153 1.374 . S
C153 H144 0.930 . S
C153 C152 1.374 . S
C153 C154 1.383 . S
C154 O148 1.412 . S
C154 C153 1.383 . S
C154 C155 1.394 . S
C155 H145 0.929 . S
C155 C151 1.377 . S
C155 C154 1.394 . S
H156 C163 0.929 . S
H157 C166 0.930 . S
H158 C168 0.929 . S
H159 C160 0.969 . S
C160 H159 0.969 . S
C160 O161 1.550 . S
C160 H162 0.973 . S
O161 C160 1.550 . S
O161 C167 1.412 . S
H162 C160 0.973 . S
C163 H156 0.929 . S
C163 C164 1.400 . S
C163 C165 1.364 . S
C164 C163 1.400 . S
C164 C168 1.377 . S
C165 C163 1.364 . S
C165 C166 1.374 . S
C166 H157 0.930 . S
C166 C165 1.374 . S
C166 C167 1.383 . S
C167 O161 1.412 . S
C167 C166 1.383 . S
C167 C168 1.394 . S
C168 H158 0.929 . S
C168 C164 1.377 . S
C168 C167 1.394 . S
H169 C176 0.929 . S
H170 C179 0.930 . S
H171 C181 0.929 . S
H172 C173 0.969 . S
C173 H172 0.969 . S
C173 O174 1.550 . S
C173 H175 0.973 . S
O174 C173 1.550 . S
O174 C180 1.412 . S
H175 C173 0.973 . S
C176 H169 0.929 . S
C176 C177 1.400 . S
C176 C178 1.364 . S
C177 C176 1.400 . S
C177 C181 1.377 . S
C178 C176 1.364 . S
C178 C179 1.374 . S
C179 H170 0.930 . S
C179 C178 1.374 . S
C179 C180 1.383 . S
C180 O174 1.412 . S
C180 C179 1.383 . S
C180 C181 1.394 . S
C181 H171 0.929 . S
C181 C177 1.377 . S
C181 C180 1.394 . S
H182 C189 0.929 . S
H183 C192 0.930 . S
H184 C194 0.929 . S
H185 C186 0.969 . S
C186 H185 0.969 . S
C186 O187 1.550 . S
C186 H188 0.973 . S
O187 C186 1.550 . S
O187 C193 1.412 . S
H188 C186 0.973 . S
C189 H182 0.929 . S
C189 C190 1.400 . S
C189 C191 1.364 . S
C190 C189 1.400 . S
C190 C194 1.377 . S
C191 C189 1.364 . S
C191 C192 1.374 . S
C192 H183 0.930 . S
C192 C191 1.374 . S
C192 C193 1.383 . S
C193 O187 1.412 . S
C193 C192 1.383 . S
C193 C194 1.394 . S
C194 H184 0.929 . S
C194 C190 1.377 . S
C194 C193 1.394 . S
H195 C202 0.929 . S
H196 C205 0.930 . S
H197 C207 0.929 . S
H198 C199 0.969 . S
C199 H198 0.969 . S
C199 O200 1.550 . S
C199 H201 0.973 . S
O200 C199 1.550 . S
O200 C206 1.412 . S
H201 C199 0.973 . S
C202 H195 0.929 . S
C202 C203 1.400 . S
C202 C204 1.364 . S
C203 C202 1.400 . S
C203 C207 1.377 . S
C204 C202 1.364 . S
C204 C205 1.374 . S
C205 H196 0.930 . S
C205 C204 1.374 . S
C205 C206 1.383 . S
C206 O200 1.412 . S
C206 C205 1.383 . S
C206 C207 1.394 . S
C207 H197 0.929 . S
C207 C203 1.377 . S
C207 C206 1.394 . S
H208 C215 0.929 . S
H209 C218 0.930 . S
H210 C220 0.929 . S
H211 C212 0.969 . S
C212 H211 0.969 . S
C212 O213 1.550 . S
C212 H214 0.973 . S
O213 C212 1.550 . S
O213 C219 1.412 . S
H214 C212 0.973 . S
C215 H208 0.929 . S
C215 C216 1.400 . S
C215 C217 1.364 . S
C216 C215 1.400 . S
C216 C220 1.377 . S
C217 C215 1.364 . S
C217 C218 1.374 . S
C218 H209 0.930 . S
C218 C217 1.374 . S
C218 C219 1.383 . S
C219 O213 1.412 . S
C219 C218 1.383 . S
C219 C220 1.394 . S
C220 H210 0.929 . S
C220 C216 1.377 . S
C220 C219 1.394 . S
H221 C228 0.929 . S
H222 C231 0.930 . S
H223 C233 0.929 . S
H224 C225 0.969 . S
C225 H224 0.969 . S
C225 O226 1.550 . S
C225 H227 0.973 . S
O226 C225 1.550 . S
O226 C232 1.412 . S
H227 C225 0.973 . S
C228 H221 0.929 . S
C228 C229 1.400 . S
C228 C230 1.364 . S
C229 C228 1.400 . S
C229 C233 1.377 . S
C230 C228 1.364 . S
C230 C231 1.374 . S
C231 H222 0.930 . S
C231 C230 1.374 . S
C231 C232 1.383 . S
C232 O226 1.412 . S
C232 C231 1.383 . S
C232 C233 1.394 . S
C233 H223 0.929 . S
C233 C229 1.377 . S
C233 C232 1.394 . S
Tb234 N265 2.660 . S
Tb234 N272 2.600 . S
Tb234 O278 2.546 . S
Tb234 O279 2.610 1_566 S
Tb234 O281 2.320 1_565 S
Tb234 O282 2.552 1_565 S
Tb234 O283 2.413 1_565 S
Tb234 O285 2.362 1_556 S
Tb234 O286 2.424 . S
Tb234 C298 2.831 1_565 S
C235 C238 1.432 . S
C235 C239 1.414 . S
C235 N242 1.359 . S
C236 C238 1.417 . S
C236 C240 1.432 . S
C236 C248 1.410 . S
C237 C239 1.444 . S
C237 C240 1.317 . S
C237 H260 0.929 . S
C238 C235 1.432 . S
C238 C236 1.417 . S
C238 N246 1.360 . S
C239 C235 1.414 . S
C239 C237 1.444 . S
C239 C244 1.385 . S
C240 C236 1.432 . S
C240 C237 1.317 . S
C240 H252 0.930 . S
C241 C243 1.392 . S
C241 C244 1.370 . S
C241 H253 0.931 . S
N242 C235 1.359 . S
N242 C243 1.327 . S
N242 Tb245 2.600 . S
C243 C241 1.392 . S
C243 N242 1.327 . S
C243 H250 0.930 . S
C244 C239 1.385 . S
C244 C241 1.370 . S
C244 H263 0.930 . S
Tb245 N242 2.600 . S
Tb245 N246 2.660 . S
Tb245 O279 2.362 . S
Tb245 O280 2.421 . S
Tb245 O284 2.546 . S
Tb245 O285 2.610 1_545 S
Tb245 O287 2.320 1_545 S
Tb245 O288 2.552 1_545 S
Tb245 O289 2.413 1_545 S
Tb245 C309 2.833 . S
N246 C238 1.360 . S
N246 Tb245 2.660 . S
N246 C247 1.305 . S
C247 N246 1.305 . S
C247 C249 1.407 . S
C247 H254 0.930 . S
C248 C236 1.410 . S
C248 C249 1.345 . S
C248 H256 0.930 . S
C249 C247 1.407 . S
C249 C248 1.345 . S
C249 H251 0.930 . S
H250 C243 0.930 . S
H251 C249 0.930 . S
H252 C240 0.930 . S
H253 C241 0.931 . S
H254 C247 0.930 . S
H255 C269 0.930 . S
H256 C248 0.930 . S
H257 C275 0.930 . S
H258 C266 0.930 . S
H259 C273 0.931 . S
H260 C237 0.929 . S
H261 C267 0.930 . S
H262 C300 0.930 . S
H263 C244 0.930 . S
H264 C299 0.929 . S
N265 Tb234 2.660 . S
N265 C266 1.305 . S
N265 C270 1.360 . S
C266 H258 0.930 . S
C266 N265 1.305 . S
C266 C269 1.407 . S
C267 H261 0.930 . S
C267 C268 1.410 . S
C267 C269 1.345 . S
C268 C267 1.410 . S
C268 C270 1.417 . S
C268 C300 1.432 . S
C269 H255 0.930 . S
C269 C266 1.407 . S
C269 C267 1.345 . S
C270 N265 1.360 . S
C270 C268 1.417 . S
C270 C274 1.432 . S
H271 C276 0.930 . S
N272 Tb234 2.600 . S
N272 C274 1.359 . S
N272 C275 1.327 . S
C273 H259 0.931 . S
C273 C275 1.392 . S
C273 C276 1.370 . S
C274 C270 1.432 . S
C274 N272 1.359 . S
C274 C277 1.414 . S
C275 H257 0.930 . S
C275 N272 1.327 . S
C275 C273 1.392 . S
C276 H271 0.930 . S
C276 C273 1.370 . S
C276 C277 1.385 . S
C277 C274 1.414 . S
C277 C276 1.385 . S
C277 C299 1.444 . S
O278 Tb234 2.546 . S
O278 C298 1.226 1_565 S
O279 Tb234 2.610 1_544 S
O279 Tb245 2.362 . S
O279 C290 1.283 1_554 S
O280 Tb245 2.421 . S
O280 C297 1.262 . S
O281 Tb234 2.320 1_545 S
O281 C297 1.260 1_556 S
O282 Tb234 2.552 1_545 S
O282 C290 1.243 . S
O283 Tb234 2.413 1_545 S
O283 C298 1.277 . S
O284 Tb245 2.546 . S
O284 C309 1.251 . S
O285 Tb234 2.362 1_554 S
O285 Tb245 2.610 1_565 S
O285 C301 1.283 . S
O286 Tb234 2.424 . S
O286 C308 1.256 1_556 S
O287 Tb245 2.320 1_565 S
O287 C308 1.260 . S
O288 Tb245 2.552 1_565 S
O288 C301 1.243 . S
O289 Tb245 2.413 1_565 S
O289 C309 1.256 1_565 S
C290 O279 1.283 1_556 S
C290 O282 1.243 . S
C291 C293 1.382 . S
C291 C295 1.393 1_545 S
C291 C298 1.504 . S
C292 C293 1.400 . S
C292 C294 1.384 . S
C293 C291 1.382 . S
C293 C292 1.400 . S
C293 H310 0.930 . S
C294 C292 1.384 . S
C294 C296 1.392 1_545 S
C294 H311 0.931 . S
C295 C291 1.393 1_565 S
C295 C296 1.401 . S
C295 H312 0.930 . S
C296 C294 1.392 1_565 S
C296 C295 1.401 . S
C296 H313 0.930 . S
C297 O280 1.262 . S
C297 O281 1.260 1_554 S
C298 Tb234 2.831 1_545 S
C298 O278 1.226 1_545 S
C298 O283 1.277 . S
C298 C291 1.504 . S
C299 H264 0.929 . S
C299 C277 1.444 . S
C299 C300 1.317 . S
C300 H262 0.930 . S
C300 C268 1.432 . S
C300 C299 1.317 . S
C301 O285 1.283 . S
C301 O288 1.243 . S
C302 C303 1.337 1_545 S
C302 C306 1.431 . S
C302 C309 1.508 . S
C303 C302 1.337 1_565 S
C303 C304 1.400 . S
C303 H314 0.930 . S
C304 C303 1.400 . S
C304 C305 1.384 . S
C305 C304 1.384 . S
C305 C307 1.392 1_565 S
C305 H315 0.931 . S
C306 C302 1.431 . S
C306 C307 1.401 . S
C306 H316 0.930 . S
C307 C305 1.392 1_545 S
C307 C306 1.401 . S
C307 H317 0.930 . S
C308 O286 1.256 1_554 S
C308 O287 1.260 . S
C309 Tb245 2.833 . S
C309 O284 1.251 . S
C309 O289 1.256 1_545 S
C309 C302 1.508 . S
H310 C293 0.930 . S
H311 C294 0.931 . S
H312 C295 0.930 . S
H313 C296 0.930 . S
H314 C303 0.930 . S
H315 C305 0.931 . S
H316 C306 0.930 . S
H317 C307 0.930 . S
Tb318 N349 2.660 . S
Tb318 N356 2.600 . S
Tb318 O362 2.546 . S
Tb318 O363 2.610 1_456 S
Tb318 O365 2.320 1_455 S
Tb318 O366 2.552 1_455 S
Tb318 O367 2.413 . S
Tb318 O369 2.362 1_556 S
Tb318 O370 2.397 1_556 S
Tb318 C382 2.833 . S
C319 C322 1.432 . S
C319 C323 1.414 . S
C319 N326 1.359 . S
C320 C322 1.417 . S
C320 C324 1.432 . S
C320 C332 1.410 . S
C321 C323 1.444 . S
C321 C324 1.317 . S
C321 H344 0.929 . S
C322 C319 1.432 . S
C322 C320 1.417 . S
C322 N330 1.360 . S
C323 C319 1.414 . S
C323 C321 1.444 . S
C323 C328 1.385 . S
C324 C320 1.432 . S
C324 C321 1.317 . S
C324 H336 0.930 . S
C325 C327 1.392 . S
C325 C328 1.370 . S
C325 H337 0.931 . S
N326 C319 1.359 . S
N326 C327 1.327 . S
N326 Tb329 2.600 . S
C327 C325 1.392 . S
C327 N326 1.327 . S
C327 H334 0.930 . S
C328 C323 1.385 . S
C328 C325 1.370 . S
C328 H347 0.930 . S
Tb329 N326 2.600 . S
Tb329 N330 2.660 . S
Tb329 O363 2.362 . S
Tb329 O364 2.421 . S
Tb329 O368 2.546 . S
Tb329 O369 2.610 1_655 S
Tb329 O371 2.320 1_655 S
Tb329 O372 2.552 1_655 S
Tb329 O373 2.413 1_655 S
Tb329 C393 2.833 . S
N330 C322 1.360 . S
N330 Tb329 2.660 . S
N330 C331 1.305 . S
C331 N330 1.305 . S
C331 C333 1.407 . S
C331 H338 0.930 . S
C332 C320 1.410 . S
C332 C333 1.345 . S
C332 H340 0.930 . S
C333 C331 1.407 . S
C333 C332 1.345 . S
C333 H335 0.930 . S
H334 C327 0.930 . S
H335 C333 0.930 . S
H336 C324 0.930 . S
H337 C325 0.931 . S
H338 C331 0.930 . S
H339 C353 0.930 . S
H340 C332 0.930 . S
H341 C359 0.930 . S
H342 C350 0.930 . S
H343 C357 0.931 . S
H344 C321 0.929 . S
H345 C351 0.930 . S
H346 C384 0.930 . S
H347 C328 0.930 . S
H348 C383 0.929 . S
N349 Tb318 2.660 . S
N349 C350 1.305 . S
N349 C354 1.360 . S
C350 H342 0.930 . S
C350 N349 1.305 . S
C350 C353 1.407 . S
C351 H345 0.930 . S
C351 C352 1.410 . S
C351 C353 1.345 . S
C352 C351 1.410 . S
C352 C354 1.417 . S
C352 C384 1.432 . S
C353 H339 0.930 . S
C353 C350 1.407 . S
C353 C351 1.345 . S
C354 N349 1.360 . S
C354 C352 1.417 . S
C354 C358 1.432 . S
H355 C360 0.930 . S
N356 Tb318 2.600 . S
N356 C358 1.359 . S
N356 C359 1.327 . S
C357 H343 0.931 . S
C357 C359 1.392 . S
C357 C360 1.370 . S
C358 C354 1.432 . S
C358 N356 1.359 . S
C358 C361 1.414 . S
C359 H341 0.930 . S
C359 N356 1.327 . S
C359 C357 1.392 . S
C360 H355 0.930 . S
C360 C357 1.370 . S
C360 C361 1.385 . S
C361 C358 1.414 . S
C361 C360 1.385 . S
C361 C383 1.444 . S
O362 Tb318 2.546 . S
O362 C382 1.251 . S
O363 Tb318 2.610 1_654 S
O363 Tb329 2.362 . S
O363 C374 1.283 1_554 S
O364 Tb329 2.421 . S
O364 C381 1.262 . S
O365 Tb318 2.320 1_655 S
O365 C381 1.260 1_556 S
O366 Tb318 2.552 1_655 S
O366 C374 1.243 . S
O367 Tb318 2.413 . S
O367 C382 1.257 . S
O368 Tb329 2.546 . S
O368 C393 1.251 . S
O369 Tb318 2.362 1_554 S
O369 Tb329 2.610 1_455 S
O369 C385 1.283 . S
O370 Tb318 2.397 1_554 S
O370 C392 1.309 . S
O371 Tb329 2.320 1_455 S
O371 C392 1.260 . S
O372 Tb329 2.552 1_455 S
O372 C385 1.243 . S
O373 Tb329 2.413 1_455 S
O373 C393 1.256 1_455 S
C374 O363 1.283 1_556 S
C374 O366 1.243 . S
C375 C377 1.382 1_455 S
C375 C379 1.393 . S
C375 C382 1.500 . S
C376 C377 1.400 . S
C376 C378 1.384 . S
C377 C375 1.382 1_655 S
C377 C376 1.400 . S
C377 H394 0.930 . S
C378 C376 1.384 . S
C378 C380 1.392 1_655 S
C378 H395 0.931 . S
C379 C375 1.393 . S
C379 C380 1.401 . S
C379 H396 0.930 . S
C380 C378 1.392 1_455 S
C380 C379 1.401 . S
C380 H397 0.930 . S
C381 O364 1.262 . S
C381 O365 1.260 1_554 S
C382 Tb318 2.833 . S
C382 O362 1.251 . S
C382 O367 1.257 . S
C382 C375 1.500 . S
C383 H348 0.929 . S
C383 C361 1.444 . S
C383 C384 1.317 . S
C384 H346 0.930 . S
C384 C352 1.432 . S
C384 C383 1.317 . S
C385 O369 1.283 . S
C385 O372 1.243 . S
C386 C387 1.382 . S
C386 C390 1.393 1_455 S
C386 C393 1.500 1_455 S
C387 C386 1.382 . S
C387 C388 1.400 . S
C387 H398 0.930 . S
C388 C387 1.400 . S
C388 C389 1.384 . S
C389 C388 1.384 . S
C389 C391 1.392 1_455 S
C389 H399 0.931 . S
C390 C386 1.393 1_655 S
C390 C391 1.401 . S
C390 H400 0.930 . S
C391 C389 1.392 1_655 S
C391 C390 1.401 . S
C391 H401 0.930 . S
C392 O370 1.309 . S
C392 O371 1.260 . S
C393 Tb329 2.833 . S
C393 O368 1.251 . S
C393 O373 1.256 1_655 S
C393 C386 1.500 1_655 S
H394 C377 0.930 . S
H395 C378 0.931 . S
H396 C379 0.930 . S
H397 C380 0.930 . S
H398 C387 0.930 . S
H399 C389 0.931 . S
H400 C390 0.930 . S
H401 C391 0.930 . S
Tb402 N433 2.660 . S
Tb402 N440 2.600 . S
Tb402 O446 2.546 . S
Tb402 O447 2.610 . S
Tb402 O449 2.320 . S
Tb402 O450 2.552 . S
Tb402 O451 2.413 . S
Tb402 O453 2.362 . S
Tb402 O454 2.421 . S
Tb402 C466 2.833 . S
C403 C406 1.432 . S
C403 C407 1.414 . S
C403 N410 1.359 . S
C404 C406 1.417 . S
C404 C408 1.432 . S
C404 C416 1.410 . S
C405 C407 1.444 . S
C405 C408 1.317 . S
C405 H428 0.929 . S
C406 C403 1.432 . S
C406 C404 1.417 . S
C406 N414 1.360 . S
C407 C403 1.414 . S
C407 C405 1.444 . S
C407 C412 1.385 . S
C408 C404 1.432 . S
C408 C405 1.317 . S
C408 H420 0.930 . S
C409 C411 1.392 . S
C409 C412 1.370 . S
C409 H421 0.931 . S
N410 C403 1.359 . S
N410 C411 1.327 . S
N410 Tb413 2.600 . S
C411 C409 1.392 . S
C411 N410 1.327 . S
C411 H418 0.930 . S
C412 C407 1.385 . S
C412 C409 1.370 . S
C412 H431 0.930 . S
Tb413 N410 2.600 . S
Tb413 N414 2.660 . S
Tb413 O447 2.362 1_556 S
Tb413 O448 2.421 1_556 S
Tb413 O452 2.546 . S
Tb413 O453 2.610 1_556 S
Tb413 O455 2.320 . S
Tb413 O456 2.552 . S
Tb413 O457 2.413 . S
Tb413 C477 2.833 . S
N414 C406 1.360 . S
N414 Tb413 2.660 . S
N414 C415 1.305 . S
C415 N414 1.305 . S
C415 C417 1.407 . S
C415 H422 0.930 . S
C416 C404 1.410 . S
C416 C417 1.345 . S
C416 H424 0.930 . S
C417 C415 1.407 . S
C417 C416 1.345 . S
C417 H419 0.930 . S
H418 C411 0.930 . S
H419 C417 0.930 . S
H420 C408 0.930 . S
H421 C409 0.931 . S
H422 C415 0.930 . S
H423 C437 0.930 . S
H424 C416 0.930 . S
H425 C443 0.930 . S
H426 C434 0.930 . S
H427 C441 0.931 . S
H428 C405 0.929 . S
H429 C435 0.930 . S
H430 C468 0.930 . S
H431 C412 0.930 . S
H432 C467 0.929 . S
N433 Tb402 2.660 . S
N433 C434 1.305 . S
N433 C438 1.360 . S
C434 H426 0.930 . S
C434 N433 1.305 . S
C434 C437 1.407 . S
C435 H429 0.930 . S
C435 C436 1.410 . S
C435 C437 1.345 . S
C436 C435 1.410 . S
C436 C438 1.417 . S
C436 C468 1.432 . S
C437 H423 0.930 . S
C437 C434 1.407 . S
C437 C435 1.345 . S
C438 N433 1.360 . S
C438 C436 1.417 . S
C438 C442 1.432 . S
H439 C444 0.930 . S
N440 Tb402 2.600 . S
N440 C442 1.359 . S
N440 C443 1.327 . S
C441 H427 0.931 . S
C441 C443 1.392 . S
C441 C444 1.370 . S
C442 C438 1.432 . S
C442 N440 1.359 . S
C442 C445 1.414 . S
C443 H425 0.930 . S
C443 N440 1.327 . S
C443 C441 1.392 . S
C444 H439 0.930 . S
C444 C441 1.370 . S
C444 C445 1.385 . S
C445 C442 1.414 . S
C445 C444 1.385 . S
C445 C467 1.444 . S
O446 Tb402 2.546 . S
O446 C466 1.251 . S
O447 Tb402 2.610 . S
O447 Tb413 2.362 1_554 S
O447 C458 1.283 . S
O448 Tb413 2.421 1_554 S
O448 C465 1.262 . S
O449 Tb402 2.320 . S
O449 C465 1.260 . S
O450 Tb402 2.552 . S
O450 C458 1.243 . S
O451 Tb402 2.413 . S
O451 C466 1.256 . S
O452 Tb413 2.546 . S
O452 C477 1.251 . S
O453 Tb402 2.362 . S
O453 Tb413 2.610 1_554 S
O453 C469 1.283 1_554 S
O454 Tb402 2.421 . S
O454 C476 1.262 . S
O455 Tb413 2.320 . S
O455 C476 1.260 1_556 S
O456 Tb413 2.552 . S
O456 C469 1.243 . S
O457 Tb413 2.413 . S
O457 C477 1.256 . S
C458 O447 1.283 . S
C458 O450 1.243 . S
C459 C461 1.382 . S
C459 C463 1.393 . S
C459 C466 1.500 . S
C460 C461 1.400 . S
C460 C462 1.384 . S
C461 C459 1.382 . S
C461 C460 1.400 . S
C461 H478 0.930 . S
C462 C460 1.384 . S
C462 C464 1.392 . S
C462 H479 0.931 . S
C463 C459 1.393 . S
C463 C464 1.401 . S
C463 H480 0.930 . S
C464 C462 1.392 . S
C464 C463 1.401 . S
C464 H481 0.930 . S
C465 O448 1.262 . S
C465 O449 1.260 . S
C466 Tb402 2.833 . S
C466 O446 1.251 . S
C466 O451 1.256 . S
C466 C459 1.500 . S
C467 H432 0.929 . S
C467 C445 1.444 . S
C467 C468 1.317 . S
C468 H430 0.930 . S
C468 C436 1.432 . S
C468 C467 1.317 . S
C469 O453 1.283 1_556 S
C469 O456 1.243 . S
C470 C471 1.382 . S
C470 C474 1.393 . S
C470 C477 1.500 . S
C471 C470 1.382 . S
C471 C472 1.400 . S
C471 H482 0.930 . S
C472 C471 1.400 . S
C472 C473 1.384 . S
C473 C472 1.384 . S
C473 C475 1.392 . S
C473 H483 0.931 . S
C474 C470 1.393 . S
C474 C475 1.401 . S
C474 H484 0.930 . S
C475 C473 1.392 . S
C475 C474 1.401 . S
C475 H485 0.930 . S
C476 O454 1.262 . S
C476 O455 1.260 1_554 S
C477 Tb413 2.833 . S
C477 O452 1.251 . S
C477 O457 1.256 . S
C477 C470 1.500 . S
H478 C461 0.930 . S
H479 C462 0.931 . S
H480 C463 0.930 . S
H481 C464 0.930 . S
H482 C471 0.930 . S
H483 C473 0.931 . S
H484 C474 0.930 . S
H485 C475 0.930 . S
Tb486 N517 2.660 . S
Tb486 N524 2.600 . S
Tb486 O530 2.546 . S
Tb486 O531 2.610 . S
Tb486 O533 2.320 . S
Tb486 O534 2.552 . S
Tb486 O535 2.413 . S
Tb486 O537 2.362 . S
Tb486 O538 2.421 . S
Tb486 C550 2.833 . S
C487 C490 1.432 . S
C487 C491 1.414 . S
C487 N494 1.359 . S
C488 C490 1.417 . S
C488 C492 1.432 . S
C488 C500 1.410 . S
C489 C491 1.444 . S
C489 C492 1.317 . S
C489 H512 0.929 . S
C490 C487 1.432 . S
C490 C488 1.417 . S
C490 N498 1.360 . S
C491 C487 1.414 . S
C491 C489 1.444 . S
C491 C496 1.385 . S
C492 C488 1.432 . S
C492 C489 1.317 . S
C492 H504 0.930 . S
C493 C495 1.392 . S
C493 C496 1.370 . S
C493 H505 0.931 . S
N494 C487 1.359 . S
N494 C495 1.327 . S
N494 Tb497 2.600 . S
C495 C493 1.392 . S
C495 N494 1.327 . S
C495 H502 0.930 . S
C496 C491 1.385 . S
C496 C493 1.370 . S
C496 H515 0.930 . S
Tb497 N494 2.600 . S
Tb497 N498 2.660 . S
Tb497 O531 2.362 . S
Tb497 O532 2.421 . S
Tb497 O536 2.546 . S
Tb497 O537 2.610 . S
Tb497 O539 2.320 . S
Tb497 O540 2.552 . S
Tb497 O541 2.413 . S
Tb497 C561 2.833 . S
N498 C490 1.360 . S
N498 Tb497 2.660 . S
N498 C499 1.305 . S
C499 N498 1.305 . S
C499 C501 1.407 . S
C499 H506 0.930 . S
C500 C488 1.410 . S
C500 C501 1.345 . S
C500 H508 0.930 . S
C501 C499 1.407 . S
C501 C500 1.345 . S
C501 H503 0.930 . S
H502 C495 0.930 . S
H503 C501 0.930 . S
H504 C492 0.930 . S
H505 C493 0.931 . S
H506 C499 0.930 . S
H507 C521 0.930 . S
H508 C500 0.930 . S
H509 C527 0.930 . S
H510 C518 0.930 . S
H511 C525 0.931 . S
H512 C489 0.929 . S
H513 C519 0.948 . S
H514 C552 0.930 . S
H515 C496 0.930 . S
H516 C551 0.929 . S
N517 Tb486 2.660 . S
N517 C518 1.305 . S
N517 C522 1.360 . S
C518 H510 0.930 . S
C518 N517 1.305 . S
C518 C521 1.407 . S
C519 H513 0.948 . S
C519 C520 1.410 . S
C519 C521 1.345 . S
C520 C519 1.410 . S
C520 C522 1.417 . S
C520 C552 1.432 . S
C521 H507 0.930 . S
C521 C518 1.407 . S
C521 C519 1.345 . S
C522 N517 1.360 . S
C522 C520 1.417 . S
C522 C526 1.432 . S
H523 C528 0.930 . S
N524 Tb486 2.600 . S
N524 C526 1.359 . S
N524 C527 1.327 . S
C525 H511 0.931 . S
C525 C527 1.392 . S
C525 C528 1.370 . S
C526 C522 1.432 . S
C526 N524 1.359 . S
C526 C529 1.414 . S
C527 H509 0.930 . S
C527 N524 1.327 . S
C527 C525 1.392 . S
C528 H523 0.930 . S
C528 C525 1.370 . S
C528 C529 1.385 . S
C529 C526 1.414 . S
C529 C528 1.385 . S
C529 C551 1.444 . S
O530 Tb486 2.546 . S
O530 C550 1.251 . S
O531 Tb486 2.610 . S
O531 Tb497 2.362 . S
O531 C542 1.283 . S
O532 Tb497 2.421 . S
O532 C549 1.262 . S
O533 Tb486 2.320 . S
O533 C549 1.260 . S
O534 Tb486 2.552 . S
O534 C542 1.243 . S
O535 Tb486 2.413 . S
O535 C550 1.256 . S
O536 Tb497 2.546 . S
O536 C561 1.251 . S
O537 Tb486 2.362 . S
O537 Tb497 2.610 . S
O537 C553 1.283 . S
O538 Tb486 2.421 . S
O538 C560 1.262 . S
O539 Tb497 2.320 . S
O539 C560 1.260 . S
O540 Tb497 2.552 . S
O540 C553 1.243 . S
O541 Tb497 2.413 . S
O541 C561 1.256 . S
C542 O531 1.283 . S
C542 O534 1.243 . S
C543 C545 1.382 . S
C543 C547 1.393 . S
C543 C550 1.500 . S
C544 C545 1.400 . S
C544 C546 1.384 . S
C545 C543 1.382 . S
C545 C544 1.400 . S
C545 H562 0.930 . S
C546 C544 1.384 . S
C546 C548 1.392 . S
C546 H563 0.931 . S
C547 C543 1.393 . S
C547 C548 1.401 . S
C547 H564 0.930 . S
C548 C546 1.392 . S
C548 C547 1.401 . S
C548 H565 0.930 . S
C549 O532 1.262 . S
C549 O533 1.260 . S
C550 Tb486 2.833 . S
C550 O530 1.251 . S
C550 O535 1.256 . S
C550 C543 1.500 . S
C551 H516 0.929 . S
C551 C529 1.444 . S
C551 C552 1.317 . S
C552 H514 0.930 . S
C552 C520 1.432 . S
C552 C551 1.317 . S
C553 O537 1.283 . S
C553 O540 1.243 . S
C554 C555 1.382 . S
C554 C558 1.393 . S
C554 C561 1.500 . S
C555 C554 1.382 . S
C555 C556 1.400 . S
C555 H566 0.930 . S
C556 C555 1.400 . S
C556 C557 1.384 . S
C557 C556 1.384 . S
C557 C559 1.392 . S
C557 H567 0.931 . S
C558 C554 1.393 . S
C558 C559 1.401 . S
C558 H568 0.930 . S
C559 C557 1.392 . S
C559 C558 1.401 . S
C559 H569 0.930 . S
C560 O538 1.262 . S
C560 O539 1.260 . S
C561 Tb497 2.833 . S
C561 O536 1.251 . S
C561 O541 1.256 . S
C561 C554 1.500 . S
H562 C545 0.930 . S
H563 C546 0.931 . S
H564 C547 0.930 . S
H565 C548 0.930 . S
H566 C555 0.930 . S
H567 C557 0.931 . S
H568 C558 0.930 . S
H569 C559 0.930 . S
Tb570 N601 2.660 . S
Tb570 N608 2.600 . S
Tb570 O614 2.546 . S
Tb570 O615 2.610 . S
Tb570 O617 2.320 . S
Tb570 O618 2.552 . S
Tb570 O619 2.413 . S
Tb570 O621 2.362 . S
Tb570 O622 2.421 . S
Tb570 C634 2.833 . S
C571 C574 1.432 . S
C571 C575 1.414 . S
C571 N578 1.359 . S
C572 C574 1.417 . S
C572 C576 1.432 . S
C572 C584 1.410 . S
C573 C575 1.444 . S
C573 C576 1.317 . S
C573 H596 0.929 . S
C574 C571 1.432 . S
C574 C572 1.417 . S
C574 N582 1.360 . S
C575 C571 1.414 . S
C575 C573 1.444 . S
C575 C580 1.385 . S
C576 C572 1.432 . S
C576 C573 1.317 . S
C576 H588 0.930 . S
C577 C579 1.392 . S
C577 C580 1.370 . S
C577 H589 0.931 . S
N578 C571 1.359 . S
N578 C579 1.327 . S
N578 Tb581 2.600 . S
C579 C577 1.392 . S
C579 N578 1.327 . S
C579 H586 0.930 . S
C580 C575 1.385 . S
C580 C577 1.370 . S
C580 H599 0.930 . S
Tb581 N578 2.600 . S
Tb581 N582 2.660 . S
Tb581 O615 2.362 . S
Tb581 O616 2.421 . S
Tb581 O620 2.546 . S
Tb581 O621 2.610 . S
Tb581 O623 2.320 . S
Tb581 O624 2.552 . S
Tb581 O625 2.413 . S
Tb581 C645 2.833 . S
N582 C574 1.360 . S
N582 Tb581 2.660 . S
N582 C583 1.305 . S
C583 N582 1.305 . S
C583 C585 1.407 . S
C583 H590 0.930 . S
C584 C572 1.410 . S
C584 C585 1.345 . S
C584 H592 0.930 . S
C585 C583 1.407 . S
C585 C584 1.345 . S
C585 H587 0.930 . S
H586 C579 0.930 . S
H587 C585 0.930 . S
H588 C576 0.930 . S
H589 C577 0.931 . S
H590 C583 0.930 . S
H591 C605 0.930 . S
H592 C584 0.930 . S
H593 C611 0.930 . S
H594 C602 0.930 . S
H595 C609 0.931 . S
H596 C573 0.929 . S
H597 C603 0.930 . S
H598 C636 0.930 . S
H599 C580 0.930 . S
H600 C635 0.929 . S
N601 Tb570 2.660 . S
N601 C602 1.305 . S
N601 C606 1.360 . S
C602 H594 0.930 . S
C602 N601 1.305 . S
C602 C605 1.407 . S
C603 H597 0.930 . S
C603 C604 1.410 . S
C603 C605 1.345 . S
C604 C603 1.410 . S
C604 C606 1.417 . S
C604 C636 1.432 . S
C605 H591 0.930 . S
C605 C602 1.407 . S
C605 C603 1.345 . S
C606 N601 1.360 . S
C606 C604 1.417 . S
C606 C610 1.432 . S
H607 C612 0.930 . S
N608 Tb570 2.600 . S
N608 C610 1.359 . S
N608 C611 1.327 . S
C609 H595 0.931 . S
C609 C611 1.392 . S
C609 C612 1.370 . S
C610 C606 1.432 . S
C610 N608 1.359 . S
C610 C613 1.414 . S
C611 H593 0.930 . S
C611 N608 1.327 . S
C611 C609 1.392 . S
C612 H607 0.930 . S
C612 C609 1.370 . S
C612 C613 1.385 . S
C613 C610 1.414 . S
C613 C612 1.385 . S
C613 C635 1.444 . S
O614 Tb570 2.546 . S
O614 C634 1.251 . S
O615 Tb570 2.610 . S
O615 Tb581 2.362 . S
O615 C626 1.283 . S
O616 Tb581 2.421 . S
O616 C633 1.262 . S
O617 Tb570 2.320 . S
O617 C633 1.260 . S
O618 Tb570 2.552 . S
O618 C626 1.243 . S
O619 Tb570 2.413 . S
O619 C634 1.256 . S
O620 Tb581 2.546 . S
O620 C645 1.251 . S
O621 Tb570 2.362 . S
O621 Tb581 2.610 . S
O621 C637 1.283 . S
O622 Tb570 2.421 . S
O622 C644 1.262 . S
O623 Tb581 2.320 . S
O623 C644 1.260 . S
O624 Tb581 2.552 . S
O624 C637 1.243 . S
O625 Tb581 2.413 . S
O625 C645 1.256 . S
C626 O615 1.283 . S
C626 O618 1.243 . S
C627 C629 1.382 . S
C627 C631 1.393 . S
C627 C634 1.500 . S
C628 C629 1.400 . S
C628 C630 1.384 . S
C629 C627 1.382 . S
C629 C628 1.400 . S
C629 H646 0.930 . S
C630 C628 1.384 . S
C630 C632 1.392 . S
C630 H647 0.931 . S
C631 C627 1.393 . S
C631 C632 1.401 . S
C631 H648 0.930 . S
C632 C630 1.392 . S
C632 C631 1.401 . S
C632 H649 0.930 . S
C633 O616 1.262 . S
C633 O617 1.260 . S
C634 Tb570 2.833 . S
C634 O614 1.251 . S
C634 O619 1.256 . S
C634 C627 1.500 . S
C635 H600 0.929 . S
C635 C613 1.444 . S
C635 C636 1.317 . S
C636 H598 0.930 . S
C636 C604 1.432 . S
C636 C635 1.317 . S
C637 O621 1.283 . S
C637 O624 1.243 . S
C638 C639 1.382 . S
C638 C642 1.393 . S
C638 C645 1.500 . S
C639 C638 1.382 . S
C639 C640 1.400 . S
C639 H650 0.930 . S
C640 C639 1.400 . S
C640 C641 1.384 . S
C641 C640 1.384 . S
C641 C643 1.392 . S
C641 H651 0.931 . S
C642 C638 1.393 . S
C642 C643 1.401 . S
C642 H652 0.930 . S
C643 C641 1.392 . S
C643 C642 1.401 . S
C643 H653 0.930 . S
C644 O622 1.262 . S
C644 O623 1.260 . S
C645 Tb581 2.833 . S
C645 O620 1.251 . S
C645 O625 1.256 . S
C645 C638 1.500 . S
H646 C629 0.930 . S
H647 C630 0.931 . S
H648 C631 0.930 . S
H649 C632 0.930 . S
H650 C639 0.930 . S
H651 C641 0.931 . S
H652 C642 0.930 . S
H653 C643 0.930 . S
Tb654 N685 2.660 . S
Tb654 N692 2.600 . S
Tb654 O698 2.546 . S
Tb654 O699 2.610 . S
Tb654 O701 2.320 . S
Tb654 O702 2.552 . S
Tb654 O703 2.413 . S
Tb654 O705 2.362 . S
Tb654 O706 2.421 . S
Tb654 C718 2.833 . S
C655 C658 1.432 . S
C655 C659 1.414 . S
C655 N662 1.359 . S
C656 C658 1.417 . S
C656 C660 1.432 . S
C656 C668 1.410 . S
C657 C659 1.444 . S
C657 C660 1.317 . S
C657 H680 0.929 . S
C658 C655 1.432 . S
C658 C656 1.417 . S
C658 N666 1.360 . S
C659 C655 1.414 . S
C659 C657 1.444 . S
C659 C664 1.385 . S
C660 C656 1.432 . S
C660 C657 1.317 . S
C660 H672 0.930 . S
C661 C663 1.392 . S
C661 C664 1.370 . S
C661 H673 0.931 . S
N662 C655 1.359 . S
N662 C663 1.327 . S
N662 Tb665 2.600 . S
C663 C661 1.392 . S
C663 N662 1.327 . S
C663 H670 0.930 . S
C664 C659 1.385 . S
C664 C661 1.370 . S
C664 H683 0.930 . S
Tb665 N662 2.600 . S
Tb665 N666 2.660 . S
Tb665 O699 2.362 . S
Tb665 O700 2.421 . S
Tb665 O704 2.546 . S
Tb665 O705 2.610 . S
Tb665 O707 2.320 . S
Tb665 O708 2.552 . S
Tb665 O709 2.413 . S
Tb665 C729 2.833 . S
N666 C658 1.360 . S
N666 Tb665 2.660 . S
N666 C667 1.305 . S
C667 N666 1.305 . S
C667 C669 1.407 . S
C667 H674 0.930 . S
C668 C656 1.410 . S
C668 C669 1.345 . S
C668 H676 0.930 . S
C669 C667 1.407 . S
C669 C668 1.345 . S
C669 H671 0.930 . S
H670 C663 0.930 . S
H671 C669 0.930 . S
H672 C660 0.930 . S
H673 C661 0.931 . S
H674 C667 0.930 . S
H675 C689 0.930 . S
H676 C668 0.930 . S
H677 C695 0.930 . S
H678 C686 0.930 . S
H679 C693 0.931 . S
H680 C657 0.929 . S
H681 C687 0.930 . S
H682 C720 0.930 . S
H683 C664 0.930 . S
H684 C719 0.929 . S
N685 Tb654 2.660 . S
N685 C686 1.305 . S
N685 C690 1.360 . S
C686 H678 0.930 . S
C686 N685 1.305 . S
C686 C689 1.407 . S
C687 H681 0.930 . S
C687 C688 1.410 . S
C687 C689 1.345 . S
C688 C687 1.410 . S
C688 C690 1.417 . S
C688 C720 1.432 . S
C689 H675 0.930 . S
C689 C686 1.407 . S
C689 C687 1.345 . S
C690 N685 1.360 . S
C690 C688 1.417 . S
C690 C694 1.432 . S
H691 C696 0.930 . S
N692 Tb654 2.600 . S
N692 C694 1.359 . S
N692 C695 1.327 . S
C693 H679 0.931 . S
C693 C695 1.392 . S
C693 C696 1.370 . S
C694 C690 1.432 . S
C694 N692 1.359 . S
C694 C697 1.414 . S
C695 H677 0.930 . S
C695 N692 1.327 . S
C695 C693 1.392 . S
C696 H691 0.930 . S
C696 C693 1.370 . S
C696 C697 1.385 . S
C697 C694 1.414 . S
C697 C696 1.385 . S
C697 C719 1.444 . S
O698 Tb654 2.546 . S
O698 C718 1.251 . S
O699 Tb654 2.610 . S
O699 Tb665 2.362 . S
O699 C710 1.283 . S
O700 Tb665 2.421 . S
O700 C717 1.262 . S
O701 Tb654 2.320 . S
O701 C717 1.260 . S
O702 Tb654 2.552 . S
O702 C710 1.243 . S
O703 Tb654 2.413 . S
O703 C718 1.256 . S
O704 Tb665 2.546 . S
O704 C729 1.251 . S
O705 Tb654 2.362 . S
O705 Tb665 2.610 . S
O705 C721 1.283 . S
O706 Tb654 2.421 . S
O706 C728 1.262 . S
O707 Tb665 2.320 . S
O707 C728 1.260 . S
O708 Tb665 2.552 . S
O708 C721 1.243 . S
O709 Tb665 2.413 . S
O709 C729 1.256 . S
C710 O699 1.283 . S
C710 O702 1.243 . S
C711 C713 1.382 . S
C711 C715 1.393 . S
C711 C718 1.500 . S
C712 C713 1.400 . S
C712 C714 1.384 . S
C713 C711 1.382 . S
C713 C712 1.400 . S
C713 H730 0.930 . S
C714 C712 1.384 . S
C714 C716 1.392 . S
C714 H731 0.931 . S
C715 C711 1.393 . S
C715 C716 1.401 . S
C715 H732 0.930 . S
C716 C714 1.392 . S
C716 C715 1.401 . S
C716 H733 0.930 . S
C717 O700 1.262 . S
C717 O701 1.260 . S
C718 Tb654 2.833 . S
C718 O698 1.251 . S
C718 O703 1.256 . S
C718 C711 1.500 . S
C719 H684 0.929 . S
C719 C697 1.444 . S
C719 C720 1.317 . S
C720 H682 0.930 . S
C720 C688 1.432 . S
C720 C719 1.317 . S
C721 O705 1.283 . S
C721 O708 1.243 . S
C722 C723 1.382 . S
C722 C726 1.393 . S
C722 C729 1.500 . S
C723 C722 1.382 . S
C723 C724 1.400 . S
C723 H734 0.930 . S
C724 C723 1.400 . S
C724 C725 1.384 . S
C725 C724 1.384 . S
C725 C727 1.392 . S
C725 H735 0.931 . S
C726 C722 1.393 . S
C726 C727 1.401 . S
C726 H736 0.930 . S
C727 C725 1.392 . S
C727 C726 1.401 . S
C727 H737 0.930 . S
C728 O706 1.262 . S
C728 O707 1.260 . S
C729 Tb665 2.833 . S
C729 O704 1.251 . S
C729 O709 1.256 . S
C729 C722 1.500 . S
H730 C713 0.930 . S
H731 C714 0.931 . S
H732 C715 0.930 . S
H733 C716 0.930 . S
H734 C723 0.930 . S
H735 C725 0.931 . S
H736 C726 0.930 . S
H737 C727 0.930 . S
Tb738 N769 2.660 . S
Tb738 N776 2.600 . S
Tb738 O782 2.546 . S
Tb738 O783 2.610 . S
Tb738 O785 2.320 . S
Tb738 O786 2.552 . S
Tb738 O787 2.413 . S
Tb738 O789 2.362 . S
Tb738 O790 2.421 . S
Tb738 C802 2.833 . S
C739 C742 1.432 . S
C739 C743 1.414 . S
C739 N746 1.359 . S
C740 C742 1.417 . S
C740 C744 1.432 . S
C740 C752 1.410 . S
C741 C743 1.444 . S
C741 C744 1.317 . S
C741 H764 0.929 . S
C742 C739 1.432 . S
C742 C740 1.417 . S
C742 N750 1.360 . S
C743 C739 1.414 . S
C743 C741 1.444 . S
C743 C748 1.385 . S
C744 C740 1.432 . S
C744 C741 1.317 . S
C744 H756 0.930 . S
C745 C747 1.392 . S
C745 C748 1.370 . S
C745 H757 0.931 . S
N746 C739 1.359 . S
N746 C747 1.327 . S
N746 Tb749 2.600 . S
C747 C745 1.392 . S
C747 N746 1.327 . S
C747 H754 0.930 . S
C748 C743 1.385 . S
C748 C745 1.370 . S
C748 H767 0.930 . S
Tb749 N746 2.600 . S
Tb749 N750 2.660 . S
Tb749 O783 2.362 . S
Tb749 O784 2.421 . S
Tb749 O788 2.546 . S
Tb749 O789 2.610 . S
Tb749 O791 2.320 . S
Tb749 O792 2.552 . S
Tb749 O793 2.413 . S
Tb749 C813 2.833 . S
N750 C742 1.360 . S
N750 Tb749 2.660 . S
N750 C751 1.305 . S
C751 N750 1.305 . S
C751 C753 1.407 . S
C751 H758 0.930 . S
C752 C740 1.410 . S
C752 C753 1.345 . S
C752 H760 0.930 . S
C753 C751 1.407 . S
C753 C752 1.345 . S
C753 H755 0.930 . S
H754 C747 0.930 . S
H755 C753 0.930 . S
H756 C744 0.930 . S
H757 C745 0.931 . S
H758 C751 0.930 . S
H759 C773 0.930 . S
H760 C752 0.930 . S
H761 C779 0.930 . S
H762 C770 0.930 . S
H763 C777 0.931 . S
H764 C741 0.929 . S
H765 C771 0.930 . S
H766 C804 0.930 . S
H767 C748 0.930 . S
H768 C803 0.929 . S
N769 Tb738 2.660 . S
N769 C770 1.305 . S
N769 C774 1.360 . S
C770 H762 0.930 . S
C770 N769 1.305 . S
C770 C773 1.407 . S
C771 H765 0.930 . S
C771 C772 1.410 . S
C771 C773 1.345 . S
C772 C771 1.410 . S
C772 C774 1.417 . S
C772 C804 1.432 . S
C773 H759 0.930 . S
C773 C770 1.407 . S
C773 C771 1.345 . S
C774 N769 1.360 . S
C774 C772 1.417 . S
C774 C778 1.432 . S
H775 C780 0.930 . S
N776 Tb738 2.600 . S
N776 C778 1.359 . S
N776 C779 1.327 . S
C777 H763 0.931 . S
C777 C779 1.392 . S
C777 C780 1.370 . S
C778 C774 1.432 . S
C778 N776 1.359 . S
C778 C781 1.414 . S
C779 H761 0.930 . S
C779 N776 1.327 . S
C779 C777 1.392 . S
C780 H775 0.930 . S
C780 C777 1.370 . S
C780 C781 1.385 . S
C781 C778 1.414 . S
C781 C780 1.385 . S
C781 C803 1.444 . S
O782 Tb738 2.546 . S
O782 C802 1.251 . S
O783 Tb738 2.610 . S
O783 Tb749 2.362 . S
O783 C794 1.283 . S
O784 Tb749 2.421 . S
O784 C801 1.262 . S
O785 Tb738 2.320 . S
O785 C801 1.260 . S
O786 Tb738 2.552 . S
O786 C794 1.243 . S
O787 Tb738 2.413 . S
O787 C802 1.256 . S
O788 Tb749 2.546 . S
O788 C813 1.251 . S
O789 Tb738 2.362 . S
O789 Tb749 2.610 . S
O789 C805 1.283 . S
O790 Tb738 2.421 . S
O790 C812 1.262 . S
O791 Tb749 2.320 . S
O791 C812 1.260 . S
O792 Tb749 2.552 . S
O792 C805 1.243 . S
O793 Tb749 2.413 . S
O793 C813 1.256 . S
C794 O783 1.283 . S
C794 O786 1.243 . S
C795 C797 1.382 . S
C795 C799 1.393 . S
C795 C802 1.500 . S
C796 C797 1.400 . S
C796 C798 1.384 . S
C797 C795 1.382 . S
C797 C796 1.400 . S
C797 H814 0.930 . S
C798 C796 1.384 . S
C798 C800 1.392 . S
C798 H815 0.931 . S
C799 C795 1.393 . S
C799 C800 1.401 . S
C799 H816 0.930 . S
C800 C798 1.392 . S
C800 C799 1.401 . S
C800 H817 0.930 . S
C801 O784 1.262 . S
C801 O785 1.260 . S
C802 Tb738 2.833 . S
C802 O782 1.251 . S
C802 O787 1.256 . S
C802 C795 1.500 . S
C803 H768 0.929 . S
C803 C781 1.444 . S
C803 C804 1.317 . S
C804 H766 0.930 . S
C804 C772 1.432 . S
C804 C803 1.317 . S
C805 O789 1.283 . S
C805 O792 1.243 . S
C806 C807 1.382 . S
C806 C810 1.393 . S
C806 C813 1.500 . S
C807 C806 1.382 . S
C807 C808 1.400 . S
C807 H818 0.930 . S
C808 C807 1.400 . S
C808 C809 1.384 . S
C809 C808 1.384 . S
C809 C811 1.392 . S
C809 H819 0.931 . S
C810 C806 1.393 . S
C810 C811 1.401 . S
C810 H820 0.930 . S
C811 C809 1.392 . S
C811 C810 1.401 . S
C811 H821 0.930 . S
C812 O790 1.262 . S
C812 O791 1.260 . S
C813 Tb749 2.833 . S
C813 O788 1.251 . S
C813 O793 1.256 . S
C813 C806 1.500 . S
H814 C797 0.930 . S
H815 C798 0.931 . S
H816 C799 0.930 . S
H817 C800 0.930 . S
H818 C807 0.930 . S
H819 C809 0.931 . S
H820 C810 0.930 . S
H821 C811 0.930 . S
Tb822 N853 2.660 . S
Tb822 N860 2.600 . S
Tb822 O866 2.546 . S
Tb822 O867 2.610 . S
Tb822 O869 2.320 . S
Tb822 O870 2.552 . S
Tb822 O871 2.413 . S
Tb822 O873 2.362 . S
Tb822 O874 2.421 . S
Tb822 C886 2.833 . S
C823 C826 1.432 . S
C823 C827 1.414 . S
C823 N830 1.359 . S
C824 C826 1.417 . S
C824 C828 1.432 . S
C824 C836 1.410 . S
C825 C827 1.444 . S
C825 C828 1.317 . S
C825 H848 0.929 . S
C826 C823 1.432 . S
C826 C824 1.417 . S
C826 N834 1.360 . S
C827 C823 1.414 . S
C827 C825 1.444 . S
C827 C832 1.385 . S
C828 C824 1.432 . S
C828 C825 1.317 . S
C828 H840 0.930 . S
C829 C831 1.392 . S
C829 C832 1.370 . S
C829 H841 0.931 . S
N830 C823 1.359 . S
N830 C831 1.327 . S
N830 Tb833 2.600 . S
C831 C829 1.392 . S
C831 N830 1.327 . S
C831 H838 0.930 . S
C832 C827 1.385 . S
C832 C829 1.370 . S
C832 H851 0.930 . S
Tb833 N830 2.600 . S
Tb833 N834 2.660 . S
Tb833 O867 2.362 . S
Tb833 O868 2.421 . S
Tb833 O872 2.546 . S
Tb833 O873 2.610 . S
Tb833 O875 2.320 . S
Tb833 O876 2.552 . S
Tb833 O877 2.413 . S
Tb833 C897 2.833 . S
N834 C826 1.360 . S
N834 Tb833 2.660 . S
N834 C835 1.305 . S
C835 N834 1.305 . S
C835 C837 1.407 . S
C835 H842 0.930 . S
C836 C824 1.410 . S
C836 C837 1.345 . S
C836 H844 0.930 . S
C837 C835 1.407 . S
C837 C836 1.345 . S
C837 H839 0.930 . S
H838 C831 0.930 . S
H839 C837 0.930 . S
H840 C828 0.930 . S
H841 C829 0.931 . S
H842 C835 0.930 . S
H843 C857 0.930 . S
H844 C836 0.930 . S
H845 C863 0.930 . S
H846 C854 0.930 . S
H847 C861 0.931 . S
H848 C825 0.929 . S
H849 C855 0.930 . S
H850 C888 0.930 . S
H851 C832 0.930 . S
H852 C887 0.929 . S
N853 Tb822 2.660 . S
N853 C854 1.305 . S
N853 C858 1.360 . S
C854 H846 0.930 . S
C854 N853 1.305 . S
C854 C857 1.407 . S
C855 H849 0.930 . S
C855 C856 1.410 . S
C855 C857 1.345 . S
C856 C855 1.410 . S
C856 C858 1.417 . S
C856 C888 1.432 . S
C857 H843 0.930 . S
C857 C854 1.407 . S
C857 C855 1.345 . S
C858 N853 1.360 . S
C858 C856 1.417 . S
C858 C862 1.432 . S
H859 C864 0.930 . S
N860 Tb822 2.600 . S
N860 C862 1.359 . S
N860 C863 1.327 . S
C861 H847 0.931 . S
C861 C863 1.392 . S
C861 C864 1.370 . S
C862 C858 1.432 . S
C862 N860 1.359 . S
C862 C865 1.414 . S
C863 H845 0.930 . S
C863 N860 1.327 . S
C863 C861 1.392 . S
C864 H859 0.930 . S
C864 C861 1.370 . S
C864 C865 1.385 . S
C865 C862 1.414 . S
C865 C864 1.385 . S
C865 C887 1.444 . S
O866 Tb822 2.546 . S
O866 C886 1.251 . S
O867 Tb822 2.610 . S
O867 Tb833 2.362 . S
O867 C878 1.283 . S
O868 Tb833 2.421 . S
O868 C885 1.262 . S
O869 Tb822 2.320 . S
O869 C885 1.260 . S
O870 Tb822 2.552 . S
O870 C878 1.243 . S
O871 Tb822 2.413 . S
O871 C886 1.256 . S
O872 Tb833 2.546 . S
O872 C897 1.251 . S
O873 Tb822 2.362 . S
O873 Tb833 2.610 . S
O873 C889 1.283 . S
O874 Tb822 2.421 . S
O874 C896 1.262 . S
O875 Tb833 2.320 . S
O875 C896 1.260 . S
O876 Tb833 2.552 . S
O876 C889 1.243 . S
O877 Tb833 2.413 . S
O877 C897 1.256 . S
C878 O867 1.283 . S
C878 O870 1.243 . S
C879 C881 1.382 . S
C879 C883 1.393 . S
C879 C886 1.500 . S
C880 C881 1.400 . S
C880 C882 1.384 . S
C881 C879 1.382 . S
C881 C880 1.400 . S
C881 H898 0.930 . S
C882 C880 1.384 . S
C882 C884 1.392 . S
C882 H899 0.931 . S
C883 C879 1.393 . S
C883 C884 1.401 . S
C883 H900 0.930 . S
C884 C882 1.392 . S
C884 C883 1.401 . S
C884 H901 0.930 . S
C885 O868 1.262 . S
C885 O869 1.260 . S
C886 Tb822 2.833 . S
C886 O866 1.251 . S
C886 O871 1.256 . S
C886 C879 1.500 . S
C887 H852 0.929 . S
C887 C865 1.444 . S
C887 C888 1.317 . S
C888 H850 0.930 . S
C888 C856 1.432 . S
C888 C887 1.317 . S
C889 O873 1.283 . S
C889 O876 1.243 . S
C890 C891 1.382 . S
C890 C894 1.393 . S
C890 C897 1.500 . S
C891 C890 1.382 . S
C891 C892 1.400 . S
C891 H902 0.930 . S
C892 C891 1.400 . S
C892 C893 1.384 . S
C893 C892 1.384 . S
C893 C895 1.392 . S
C893 H903 0.931 . S
C894 C890 1.393 . S
C894 C895 1.401 . S
C894 H904 0.930 . S
C895 C893 1.392 . S
C895 C894 1.401 . S
C895 H905 0.930 . S
C896 O874 1.262 . S
C896 O875 1.260 . S
C897 Tb833 2.833 . S
C897 O872 1.251 . S
C897 O877 1.256 . S
C897 C890 1.500 . S
H898 C881 0.930 . S
H899 C882 0.931 . S
H900 C883 0.930 . S
H901 C884 0.930 . S
H902 C891 0.930 . S
H903 C893 0.931 . S
H904 C894 0.930 . S
H905 C895 0.930 . S
Tb906 N937 2.660 . S
Tb906 N944 2.600 . S
Tb906 O950 2.546 . S
Tb906 O951 2.610 . S
Tb906 O953 2.320 . S
Tb906 O954 2.552 . S
Tb906 O955 2.413 . S
Tb906 O957 2.362 . S
Tb906 O958 2.421 . S
Tb906 C970 2.833 . S
C907 C910 1.432 . S
C907 C911 1.414 . S
C907 N914 1.359 . S
C908 C910 1.417 . S
C908 C912 1.432 . S
C908 C920 1.410 . S
C909 C911 1.444 . S
C909 C912 1.317 . S
C909 H932 0.929 . S
C910 C907 1.432 . S
C910 C908 1.417 . S
C910 N918 1.360 . S
C911 C907 1.414 . S
C911 C909 1.444 . S
C911 C916 1.385 . S
C912 C908 1.432 . S
C912 C909 1.317 . S
C912 H924 0.930 . S
C913 C915 1.392 . S
C913 C916 1.370 . S
C913 H925 0.931 . S
N914 C907 1.359 . S
N914 C915 1.327 . S
N914 Tb917 2.600 . S
C915 C913 1.392 . S
C915 N914 1.327 . S
C915 H922 0.930 . S
C916 C911 1.385 . S
C916 C913 1.370 . S
C916 H935 0.930 . S
Tb917 N914 2.600 . S
Tb917 N918 2.660 . S
Tb917 O951 2.362 . S
Tb917 O952 2.421 . S
Tb917 O956 2.546 . S
Tb917 O957 2.610 . S
Tb917 O959 2.320 . S
Tb917 O960 2.552 . S
Tb917 O961 2.413 . S
Tb917 C981 2.833 . S
N918 C910 1.360 . S
N918 Tb917 2.660 . S
N918 C919 1.305 . S
C919 N918 1.305 . S
C919 C921 1.407 . S
C919 H926 0.930 . S
C920 C908 1.410 . S
C920 C921 1.345 . S
C920 H928 0.930 . S
C921 C919 1.407 . S
C921 C920 1.345 . S
C921 H923 0.930 . S
H922 C915 0.930 . S
H923 C921 0.930 . S
H924 C912 0.930 . S
H925 C913 0.931 . S
H926 C919 0.930 . S
H927 C941 0.930 . S
H928 C920 0.930 . S
H929 C947 0.930 . S
H930 C938 0.930 . S
H931 C945 0.931 . S
H932 C909 0.929 . S
H933 C939 0.930 1_455 S
H934 C972 0.930 1_455 S
H935 C916 0.930 . S
H936 C971 0.929 . S
N937 Tb906 2.660 . S
N937 C938 1.305 . S
N937 C942 1.360 . S
C938 H930 0.930 . S
C938 N937 1.305 . S
C938 C941 1.407 . S
C939 H933 0.930 1_655 S
C939 C940 1.410 . S
C939 C941 1.345 . S
C940 C939 1.410 . S
C940 C942 1.417 . S
C940 C972 1.432 . S
C941 H927 0.930 . S
C941 C938 1.407 . S
C941 C939 1.345 . S
C942 N937 1.360 . S
C942 C940 1.417 . S
C942 C946 1.432 . S
H943 C948 0.930 . S
N944 Tb906 2.600 . S
N944 C946 1.359 . S
N944 C947 1.327 . S
C945 H931 0.931 . S
C945 C947 1.392 . S
C945 C948 1.370 . S
C946 C942 1.432 . S
C946 N944 1.359 . S
C946 C949 1.414 . S
C947 H929 0.930 . S
C947 N944 1.327 . S
C947 C945 1.392 . S
C948 H943 0.930 . S
C948 C945 1.370 . S
C948 C949 1.385 . S
C949 C946 1.414 . S
C949 C948 1.385 . S
C949 C971 1.444 . S
O950 Tb906 2.546 . S
O950 C970 1.251 . S
O951 Tb906 2.610 . S
O951 Tb917 2.362 . S
O951 C962 1.283 . S
O952 Tb917 2.421 . S
O952 C969 1.262 . S
O953 Tb906 2.320 . S
O953 C969 1.260 . S
O954 Tb906 2.552 . S
O954 C962 1.243 . S
O955 Tb906 2.413 . S
O955 C970 1.256 . S
O956 Tb917 2.546 . S
O956 C981 1.251 . S
O957 Tb906 2.362 . S
O957 Tb917 2.610 . S
O957 C973 1.283 . S
O958 Tb906 2.421 . S
O958 C980 1.262 . S
O959 Tb917 2.320 . S
O959 C980 1.260 . S
O960 Tb917 2.552 . S
O960 C973 1.243 . S
O961 Tb917 2.413 . S
O961 C981 1.256 . S
C962 O951 1.283 . S
C962 O954 1.243 . S
C963 C965 1.382 . S
C963 C967 1.393 . S
C963 C970 1.500 . S
C964 C965 1.400 . S
C964 C966 1.384 . S
C965 C963 1.382 . S
C965 C964 1.400 . S
C965 H982 0.930 . S
C966 C964 1.384 . S
C966 C968 1.392 . S
C966 H983 0.931 . S
C967 C963 1.393 . S
C967 C968 1.401 . S
C967 H984 0.930 . S
C968 C966 1.392 . S
C968 C967 1.401 . S
C968 H985 0.930 . S
C969 O952 1.262 . S
C969 O953 1.260 . S
C970 Tb906 2.833 . S
C970 O950 1.251 . S
C970 O955 1.256 . S
C970 C963 1.500 . S
C971 H936 0.929 . S
C971 C949 1.444 . S
C971 C972 1.317 . S
C972 H934 0.930 1_655 S
C972 C940 1.432 . S
C972 C971 1.317 . S
C973 O957 1.283 . S
C973 O960 1.243 . S
C974 C975 1.382 . S
C974 C978 1.393 . S
C974 C981 1.500 . S
C975 C974 1.382 . S
C975 C976 1.400 . S
C975 H986 0.930 . S
C976 C975 1.400 . S
C976 C977 1.384 . S
C977 C976 1.384 . S
C977 C979 1.392 . S
C977 H987 0.931 . S
C978 C974 1.393 . S
C978 C979 1.401 . S
C978 H988 0.930 . S
C979 C977 1.392 . S
C979 C978 1.401 . S
C979 H989 0.930 . S
C980 O958 1.262 . S
C980 O959 1.260 . S
C981 Tb917 2.833 . S
C981 O956 1.251 . S
C981 O961 1.256 . S
C981 C974 1.500 . S
H982 C965 0.930 . S
H983 C966 0.931 . S
H984 C967 0.930 . S
H985 C968 0.930 . S
H986 C975 0.930 . S
H987 C977 0.931 . S
H988 C978 0.930 . S
H989 C979 0.930 . S
H990 C1002 0.930 . S
H991 C1004 0.930 . S
H992 C1005 0.930 . S
H993 C1009 0.959 . S
H994 C1009 0.959 . S
H995 C1009 0.961 . S
H996 C1010 0.960 . S
H997 C1010 0.961 . S
H998 C1010 0.959 . S
H999 C1013 0.929 1_556 S
H1000 C1014 0.931 1_556 S
H1001 C1016 0.930 . S
C1002 H990 0.930 . S
C1002 C1003 1.399 . S
C1002 C1007 1.399 . S
C1003 C1002 1.399 . S
C1003 C1004 1.376 . S
C1004 H991 0.930 . S
C1004 C1003 1.376 . S
C1004 C1005 1.388 . S
C1005 H992 0.930 . S
C1005 C1004 1.388 . S
C1005 C1006 1.390 . S
C1006 C1005 1.390 . S
C1006 C1007 1.394 . S
C1006 C1012 1.465 . S
C1007 C1002 1.399 . S
C1007 C1006 1.394 . S
C1007 C1008 1.516 . S
C1008 C1007 1.516 . S
C1008 C1009 1.502 . S
C1008 C1010 1.561 . S
C1008 C1011 1.526 . S
C1009 H993 0.959 . S
C1009 H994 0.959 . S
C1009 H995 0.961 . S
C1009 C1008 1.502 . S
C1010 H996 0.960 . S
C1010 H997 0.961 . S
C1010 H998 0.959 . S
C1010 C1008 1.561 . S
C1011 C1008 1.526 . S
C1011 C1012 1.396 . S
C1011 C1016 1.390 . S
C1012 C1006 1.465 . S
C1012 C1011 1.396 . S
C1012 C1013 1.399 . S
C1013 H999 0.929 1_554 S
C1013 C1012 1.399 . S
C1013 C1014 1.385 . S
C1014 H1000 0.931 1_554 S
C1014 C1013 1.385 . S
C1014 C1015 1.389 . S
C1015 C1014 1.389 . S
C1015 C1016 1.387 . S
C1016 H1001 0.930 . S
C1016 C1011 1.390 . S
C1016 C1015 1.387 . S
H1017 C1029 0.930 . S
H1018 C1031 0.930 . S
H1019 C1032 0.930 . S
H1020 C1036 0.959 . S
H1021 C1036 0.959 . S
H1022 C1036 0.961 . S
H1023 C1037 0.960 . S
H1024 C1037 0.961 . S
H1025 C1037 0.959 . S
H1026 C1040 0.929 . S
H1027 C1041 0.931 . S
H1028 C1043 0.930 . S
C1029 H1017 0.930 . S
C1029 C1030 1.399 . S
C1029 C1034 1.399 . S
C1030 C1029 1.399 . S
C1030 C1031 1.376 . S
C1031 H1018 0.930 . S
C1031 C1030 1.376 . S
C1031 C1032 1.388 . S
C1032 H1019 0.930 . S
C1032 C1031 1.388 . S
C1032 C1033 1.390 . S
C1033 C1032 1.390 . S
C1033 C1034 1.394 . S
C1033 C1039 1.465 . S
C1034 C1029 1.399 . S
C1034 C1033 1.394 . S
C1034 C1035 1.516 . S
C1035 C1034 1.516 . S
C1035 C1036 1.502 . S
C1035 C1037 1.561 . S
C1035 C1038 1.526 . S
C1036 H1020 0.959 . S
C1036 H1021 0.959 . S
C1036 H1022 0.961 . S
C1036 C1035 1.502 . S
C1037 H1023 0.960 . S
C1037 H1024 0.961 . S
C1037 H1025 0.959 . S
C1037 C1035 1.561 . S
C1038 C1035 1.526 . S
C1038 C1039 1.396 . S
C1038 C1043 1.390 . S
C1039 C1033 1.465 . S
C1039 C1038 1.396 . S
C1039 C1040 1.399 . S
C1040 H1026 0.929 . S
C1040 C1039 1.399 . S
C1040 C1041 1.385 . S
C1041 H1027 0.931 . S
C1041 C1040 1.385 . S
C1041 C1042 1.389 . S
C1042 C1041 1.389 . S
C1042 C1043 1.387 . S
C1043 H1028 0.930 . S
C1043 C1038 1.390 . S
C1043 C1042 1.387 . S
H1044 C1056 0.930 . S
H1045 C1058 0.930 . S
H1046 C1059 0.930 . S
H1047 C1063 0.959 . S
H1048 C1063 0.959 . S
H1049 C1063 0.961 . S
H1050 C1064 0.960 . S
H1051 C1064 0.961 . S
H1052 C1064 0.959 . S
H1053 C1067 0.929 . S
H1054 C1068 0.931 1_556 S
H1055 C1070 0.930 . S
C1056 H1044 0.930 . S
C1056 C1057 1.399 . S
C1056 C1061 1.399 . S
C1057 C1056 1.399 . S
C1057 C1058 1.376 . S
C1058 H1045 0.930 . S
C1058 C1057 1.376 . S
C1058 C1059 1.388 . S
C1059 H1046 0.930 . S
C1059 C1058 1.388 . S
C1059 C1060 1.390 . S
C1060 C1059 1.390 . S
C1060 C1061 1.394 . S
C1060 C1066 1.465 . S
C1061 C1056 1.399 . S
C1061 C1060 1.394 . S
C1061 C1062 1.516 . S
C1062 C1061 1.516 . S
C1062 C1063 1.502 . S
C1062 C1064 1.561 . S
C1062 C1065 1.526 . S
C1063 H1047 0.959 . S
C1063 H1048 0.959 . S
C1063 H1049 0.961 . S
C1063 C1062 1.502 . S
C1064 H1050 0.960 . S
C1064 H1051 0.961 . S
C1064 H1052 0.959 . S
C1064 C1062 1.561 . S
C1065 C1062 1.526 . S
C1065 C1066 1.396 . S
C1065 C1070 1.390 . S
C1066 C1060 1.465 . S
C1066 C1065 1.396 . S
C1066 C1067 1.399 . S
C1067 H1053 0.929 . S
C1067 C1066 1.399 . S
C1067 C1068 1.385 . S
C1068 H1054 0.931 1_554 S
C1068 C1067 1.385 . S
C1068 C1069 1.389 . S
C1069 C1068 1.389 . S
C1069 C1070 1.387 . S
C1070 H1055 0.930 . S
C1070 C1065 1.390 . S
C1070 C1069 1.387 . S
H1071 C1083 0.930 . S
H1072 C1085 0.930 . S
H1073 C1086 0.930 . S
H1074 C1090 0.959 . S
H1075 C1090 0.959 . S
H1076 C1090 0.961 . S
H1077 C1091 0.960 . S
H1078 C1091 0.961 . S
H1079 C1091 0.959 . S
H1080 C1094 0.929 . S
H1081 C1095 0.931 1_554 S
H1082 C1097 0.930 . S
C1083 H1071 0.930 . S
C1083 C1084 1.399 . S
C1083 C1088 1.399 . S
C1084 C1083 1.399 . S
C1084 C1085 1.376 . S
C1085 H1072 0.930 . S
C1085 C1084 1.376 . S
C1085 C1086 1.388 . S
C1086 H1073 0.930 . S
C1086 C1085 1.388 . S
C1086 C1087 1.390 . S
C1087 C1086 1.390 . S
C1087 C1088 1.394 . S
C1087 C1093 1.465 . S
C1088 C1083 1.399 . S
C1088 C1087 1.394 . S
C1088 C1089 1.516 . S
C1089 C1088 1.516 . S
C1089 C1090 1.502 . S
C1089 C1091 1.561 . S
C1089 C1092 1.526 . S
C1090 H1074 0.959 . S
C1090 H1075 0.959 . S
C1090 H1076 0.961 . S
C1090 C1089 1.502 . S
C1091 H1077 0.960 . S
C1091 H1078 0.961 . S
C1091 H1079 0.959 . S
C1091 C1089 1.561 . S
C1092 C1089 1.526 . S
C1092 C1093 1.396 . S
C1092 C1097 1.390 . S
C1093 C1087 1.465 . S
C1093 C1092 1.396 . S
C1093 C1094 1.399 . S
C1094 H1080 0.929 . S
C1094 C1093 1.399 . S
C1094 C1095 1.385 . S
C1095 H1081 0.931 1_556 S
C1095 C1094 1.385 . S
C1095 C1096 1.389 . S
C1096 C1095 1.389 . S
C1096 C1097 1.387 . S
C1097 H1082 0.930 . S
C1097 C1092 1.390 . S
C1097 C1096 1.387 . S
H1098 C1110 0.930 . S
H1099 C1112 0.930 . S
H1100 C1113 0.930 . S
H1101 C1117 0.959 . S
H1102 C1117 0.959 . S
H1103 C1117 0.961 . S
H1104 C1118 0.960 . S
H1105 C1118 0.961 . S
H1106 C1118 0.959 1_556 S
H1107 C1121 0.929 . S
H1108 C1122 0.931 . S
H1109 C1124 0.930 . S
C1110 H1098 0.930 . S
C1110 C1111 1.399 . S
C1110 C1115 1.399 . S
C1111 C1110 1.399 . S
C1111 C1112 1.376 . S
C1112 H1099 0.930 . S
C1112 C1111 1.376 . S
C1112 C1113 1.388 . S
C1113 H1100 0.930 . S
C1113 C1112 1.388 . S
C1113 C1114 1.390 . S
C1114 C1113 1.390 . S
C1114 C1115 1.394 . S
C1114 C1120 1.465 . S
C1115 C1110 1.399 . S
C1115 C1114 1.394 . S
C1115 C1116 1.516 . S
C1116 C1115 1.516 . S
C1116 C1117 1.502 1_556 S
C1116 C1118 1.561 1_556 S
C1116 C1119 1.526 . S
C1117 H1101 0.959 . S
C1117 H1102 0.959 . S
C1117 H1103 0.961 . S
C1117 C1116 1.502 1_554 S
C1118 H1104 0.960 . S
C1118 H1105 0.961 . S
C1118 H1106 0.959 1_554 S
C1118 C1116 1.561 1_554 S
C1119 C1116 1.526 . S
C1119 C1120 1.396 . S
C1119 C1124 1.390 1_556 S
C1120 C1114 1.465 . S
C1120 C1119 1.396 . S
C1120 C1121 1.399 . S
C1121 H1107 0.929 . S
C1121 C1120 1.399 . S
C1121 C1122 1.385 . S
C1122 H1108 0.931 . S
C1122 C1121 1.385 . S
C1122 C1123 1.389 . S
C1123 C1122 1.389 . S
C1123 C1124 1.387 1_556 S
C1124 H1109 0.930 . S
C1124 C1119 1.390 1_554 S
C1124 C1123 1.387 1_554 S
H1125 C1137 0.930 . S
H1126 C1139 0.930 . S
H1127 C1140 0.930 . S
H1128 C1144 0.959 1_556 S
H1129 C1144 0.959 . S
H1130 C1144 0.961 . S
H1131 C1145 0.960 . S
H1132 C1145 0.961 . S
H1133 C1145 0.959 . S
H1134 C1148 0.929 . S
H1135 C1149 0.931 . S
H1136 C1151 0.930 . S
C1137 H1125 0.930 . S
C1137 C1138 1.399 . S
C1137 C1142 1.399 . S
C1138 C1137 1.399 . S
C1138 C1139 1.376 . S
C1139 H1126 0.930 . S
C1139 C1138 1.376 . S
C1139 C1140 1.388 . S
C1140 H1127 0.930 . S
C1140 C1139 1.388 . S
C1140 C1141 1.390 . S
C1141 C1140 1.390 . S
C1141 C1142 1.394 . S
C1141 C1147 1.465 . S
C1142 C1137 1.399 . S
C1142 C1141 1.394 . S
C1142 C1143 1.516 1_556 S
C1143 C1142 1.516 1_554 S
C1143 C1144 1.502 . S
C1143 C1145 1.561 . S
C1143 C1146 1.526 1_554 S
C1144 H1128 0.959 1_554 S
C1144 H1129 0.959 . S
C1144 H1130 0.961 . S
C1144 C1143 1.502 . S
C1145 H1131 0.960 . S
C1145 H1132 0.961 . S
C1145 H1133 0.959 . S
C1145 C1143 1.561 . S
C1146 C1143 1.526 1_556 S
C1146 C1147 1.396 . S
C1146 C1151 1.390 1_556 S
C1147 C1141 1.465 . S
C1147 C1146 1.396 . S
C1147 C1148 1.399 . S
C1148 H1134 0.929 . S
C1148 C1147 1.399 . S
C1148 C1149 1.385 . S
C1149 H1135 0.931 . S
C1149 C1148 1.385 . S
C1149 C1150 1.389 . S
C1150 C1149 1.389 . S
C1150 C1151 1.387 1_556 S
C1151 H1136 0.930 . S
C1151 C1146 1.390 1_554 S
C1151 C1150 1.387 1_554 S
H1152 C1164 0.930 . S
H1153 C1166 0.930 . S
H1154 C1167 0.902 1_554 S
H1155 C1171 0.959 . S
H1156 C1171 0.959 . S
H1157 C1171 0.961 . S
H1158 C1172 0.960 . S
H1159 C1172 0.961 . S
H1160 C1172 0.959 . S
H1161 C1175 0.929 . S
H1162 C1176 0.931 . S
H1163 C1178 0.930 . S
C1164 H1152 0.930 . S
C1164 C1165 1.399 . S
C1164 C1169 1.399 . S
C1165 C1164 1.399 . S
C1165 C1166 1.376 . S
C1166 H1153 0.930 . S
C1166 C1165 1.376 . S
C1166 C1167 1.401 . S
C1167 H1154 0.902 1_556 S
C1167 C1166 1.401 . S
C1167 C1168 1.406 . S
C1168 C1167 1.406 . S
C1168 C1169 1.394 . S
C1168 C1174 1.465 . S
C1169 C1164 1.399 . S
C1169 C1168 1.394 . S
C1169 C1170 1.516 . S
C1170 C1169 1.516 . S
C1170 C1171 1.502 . S
C1170 C1172 1.561 . S
C1170 C1173 1.526 . S
C1171 H1155 0.959 . S
C1171 H1156 0.959 . S
C1171 H1157 0.961 . S
C1171 C1170 1.502 . S
C1172 H1158 0.960 . S
C1172 H1159 0.961 . S
C1172 H1160 0.959 . S
C1172 C1170 1.561 . S
C1173 C1170 1.526 . S
C1173 C1174 1.396 . S
C1173 C1178 1.390 . S
C1174 C1168 1.465 . S
C1174 C1173 1.396 . S
C1174 C1175 1.399 1_556 S
C1175 H1161 0.929 . S
C1175 C1174 1.399 1_554 S
C1175 C1176 1.385 . S
C1176 H1162 0.931 . S
C1176 C1175 1.385 . S
C1176 C1177 1.389 1_554 S
C1177 C1176 1.389 1_556 S
C1177 C1178 1.387 . S
C1178 H1163 0.930 . S
C1178 C1173 1.390 . S
C1178 C1177 1.387 . S
H1179 C1191 0.930 . S
H1180 C1193 0.930 . S
H1181 C1194 0.930 1_554 S
H1182 C1198 0.959 . S
H1183 C1198 0.959 . S
H1184 C1198 0.961 . S
H1185 C1199 0.960 . S
H1186 C1199 0.961 . S
H1187 C1199 0.959 . S
H1188 C1202 0.929 . S
H1189 C1203 0.931 . S
H1190 C1205 0.930 . S
C1191 H1179 0.930 . S
C1191 C1192 1.399 . S
C1191 C1196 1.399 . S
C1192 C1191 1.399 . S
C1192 C1193 1.376 . S
C1193 H1180 0.930 . S
C1193 C1192 1.376 . S
C1193 C1194 1.388 . S
C1194 H1181 0.930 1_556 S
C1194 C1193 1.388 . S
C1194 C1195 1.390 . S
C1195 C1194 1.390 . S
C1195 C1196 1.394 . S
C1195 C1201 1.465 . S
C1196 C1191 1.399 . S
C1196 C1195 1.394 . S
C1196 C1197 1.516 . S
C1197 C1196 1.516 . S
C1197 C1198 1.502 . S
C1197 C1199 1.561 . S
C1197 C1200 1.526 . S
C1198 H1182 0.959 . S
C1198 H1183 0.959 . S
C1198 H1184 0.961 . S
C1198 C1197 1.502 . S
C1199 H1185 0.960 . S
C1199 H1186 0.961 . S
C1199 H1187 0.959 . S
C1199 C1197 1.561 . S
C1200 C1197 1.526 . S
C1200 C1201 1.396 . S
C1200 C1205 1.390 . S
C1201 C1195 1.465 . S
C1201 C1200 1.396 . S
C1201 C1202 1.399 1_556 S
C1202 H1188 0.929 . S
C1202 C1201 1.399 1_554 S
C1202 C1203 1.385 . S
C1203 H1189 0.931 . S
C1203 C1202 1.385 . S
C1203 C1204 1.389 1_554 S
C1204 C1203 1.389 1_556 S
C1204 C1205 1.387 . S
C1205 H1190 0.930 . S
C1205 C1200 1.390 . S
C1205 C1204 1.387 . S
H1206 C1218 0.930 . S
H1207 C1220 0.930 . S
H1208 C1221 0.930 1_554 S
H1209 C1225 0.959 . S
H1210 C1225 0.959 . S
H1211 C1225 0.961 . S
H1212 C1226 0.960 . S
H1213 C1226 0.961 . S
H1214 C1226 0.959 . S
H1215 C1229 0.929 . S
H1216 C1230 0.931 . S
H1217 C1232 0.930 . S
C1218 H1206 0.930 . S
C1218 C1219 1.399 . S
C1218 C1223 1.399 . S
C1219 C1218 1.399 . S
C1219 C1220 1.376 . S
C1220 H1207 0.930 . S
C1220 C1219 1.376 . S
C1220 C1221 1.388 . S
C1221 H1208 0.930 1_556 S
C1221 C1220 1.388 . S
C1221 C1222 1.390 . S
C1222 C1221 1.390 . S
C1222 C1223 1.394 . S
C1222 C1228 1.465 . S
C1223 C1218 1.399 . S
C1223 C1222 1.394 . S
C1223 C1224 1.516 . S
C1224 C1223 1.516 . S
C1224 C1225 1.502 . S
C1224 C1226 1.561 . S
C1224 C1227 1.526 . S
C1225 H1209 0.959 . S
C1225 H1210 0.959 . S
C1225 H1211 0.961 . S
C1225 C1224 1.502 . S
C1226 H1212 0.960 . S
C1226 H1213 0.961 . S
C1226 H1214 0.959 . S
C1226 C1224 1.561 . S
C1227 C1224 1.526 . S
C1227 C1228 1.396 . S
C1227 C1232 1.390 . S
C1228 C1222 1.465 . S
C1228 C1227 1.396 . S
C1228 C1229 1.399 1_556 S
C1229 H1215 0.929 . S
C1229 C1228 1.399 1_554 S
C1229 C1230 1.385 . S
C1230 H1216 0.931 . S
C1230 C1229 1.385 . S
C1230 C1231 1.389 1_554 S
C1231 C1230 1.389 1_556 S
C1231 C1232 1.387 . S
C1232 H1217 0.930 . S
C1232 C1227 1.390 . S
C1232 C1231 1.387 . S
H1233 C1245 0.930 . S
H1234 C1247 0.930 . S
H1235 C1248 0.930 . S
H1236 C1252 0.959 1_554 S
H1237 C1252 0.959 . S
H1238 C1252 0.961 . S
H1239 C1253 0.960 . S
H1240 C1253 0.961 1_556 S
H1241 C1253 0.959 . S
H1242 C1256 0.929 . S
H1243 C1257 0.931 . S
H1244 C1259 0.930 . S
C1245 H1233 0.930 . S
C1245 C1246 1.399 . S
C1245 C1250 1.399 . S
C1246 C1245 1.399 . S
C1246 C1247 1.376 . S
C1247 H1234 0.930 . S
C1247 C1246 1.376 . S
C1247 C1248 1.388 . S
C1248 H1235 0.930 . S
C1248 C1247 1.388 . S
C1248 C1249 1.390 . S
C1249 C1248 1.390 . S
C1249 C1250 1.394 . S
C1249 C1255 1.465 . S
C1250 C1245 1.399 . S
C1250 C1249 1.394 . S
C1250 C1251 1.516 . S
C1251 C1250 1.516 . S
C1251 C1252 1.502 1_554 S
C1251 C1253 1.561 . S
C1251 C1254 1.526 . S
C1252 H1236 0.959 1_556 S
C1252 H1237 0.959 . S
C1252 H1238 0.961 . S
C1252 C1251 1.502 1_556 S
C1253 H1239 0.960 . S
C1253 H1240 0.961 1_554 S
C1253 H1241 0.959 . S
C1253 C1251 1.561 . S
C1254 C1251 1.526 . S
C1254 C1255 1.396 . S
C1254 C1259 1.390 . S
C1255 C1249 1.465 . S
C1255 C1254 1.396 . S
C1255 C1256 1.399 . S
C1256 H1242 0.929 . S
C1256 C1255 1.399 . S
C1256 C1257 1.385 . S
C1257 H1243 0.931 . S
C1257 C1256 1.385 . S
C1257 C1258 1.389 . S
C1258 C1257 1.389 . S
C1258 C1259 1.387 . S
C1259 H1244 0.930 . S
C1259 C1254 1.390 . S
C1259 C1258 1.387 . S
H1260 C1272 0.930 . S
H1261 C1274 0.930 . S
H1262 C1275 0.930 . S
H1263 C1279 0.959 . S
H1264 C1279 0.959 . S
H1265 C1279 0.961 . S
H1266 C1280 0.960 . S
H1267 C1280 0.961 . S
H1268 C1280 0.959 . S
H1269 C1283 0.929 . S
H1270 C1284 0.931 . S
H1271 C1286 0.930 . S
C1272 H1260 0.930 . S
C1272 C1273 1.399 . S
C1272 C1277 1.399 . S
C1273 C1272 1.399 . S
C1273 C1274 1.376 . S
C1274 H1261 0.930 . S
C1274 C1273 1.376 . S
C1274 C1275 1.388 . S
C1275 H1262 0.930 . S
C1275 C1274 1.388 . S
C1275 C1276 1.390 . S
C1276 C1275 1.390 . S
C1276 C1277 1.394 . S
C1276 C1282 1.465 . S
C1277 C1272 1.399 . S
C1277 C1276 1.394 . S
C1277 C1278 1.516 . S
C1278 C1277 1.516 . S
C1278 C1279 1.502 . S
C1278 C1280 1.561 . S
C1278 C1281 1.526 . S
C1279 H1263 0.959 . S
C1279 H1264 0.959 . S
C1279 H1265 0.961 . S
C1279 C1278 1.502 . S
C1280 H1266 0.960 . S
C1280 H1267 0.961 . S
C1280 H1268 0.959 . S
C1280 C1278 1.561 . S
C1281 C1278 1.526 . S
C1281 C1282 1.396 . S
C1281 C1286 1.390 . S
C1282 C1276 1.465 . S
C1282 C1281 1.396 . S
C1282 C1283 1.399 . S
C1283 H1269 0.929 . S
C1283 C1282 1.399 . S
C1283 C1284 1.385 . S
C1284 H1270 0.931 . S
C1284 C1283 1.385 . S
C1284 C1285 1.389 . S
C1285 C1284 1.389 . S
C1285 C1286 1.387 . S
C1286 H1271 0.930 . S
C1286 C1281 1.390 . S
C1286 C1285 1.387 . S
H1287 C1299 0.930 . S
H1288 C1301 0.930 . S
H1289 C1302 0.930 . S
H1290 C1306 0.959 . S
H1291 C1306 0.959 . S
H1292 C1306 0.961 . S
H1293 C1307 0.960 . S
H1294 C1307 0.961 . S
H1295 C1307 0.959 . S
H1296 C1310 0.929 1_556 S
H1297 C1311 0.931 1_556 S
H1298 C1313 0.930 . S
C1299 H1287 0.930 . S
C1299 C1300 1.399 . S
C1299 C1304 1.399 . S
C1300 C1299 1.399 . S
C1300 C1301 1.376 . S
C1301 H1288 0.930 . S
C1301 C1300 1.376 . S
C1301 C1302 1.388 . S
C1302 H1289 0.930 . S
C1302 C1301 1.388 . S
C1302 C1303 1.390 . S
C1303 C1302 1.390 . S
C1303 C1304 1.394 . S
C1303 C1309 1.465 . S
C1304 C1299 1.399 . S
C1304 C1303 1.394 . S
C1304 C1305 1.516 . S
C1305 C1304 1.516 . S
C1305 C1306 1.502 . S
C1305 C1307 1.561 . S
C1305 C1308 1.526 . S
C1306 H1290 0.959 . S
C1306 H1291 0.959 . S
C1306 H1292 0.961 . S
C1306 C1305 1.502 . S
C1307 H1293 0.960 . S
C1307 H1294 0.961 . S
C1307 H1295 0.959 . S
C1307 C1305 1.561 . S
C1308 C1305 1.526 . S
C1308 C1309 1.396 . S
C1308 C1313 1.390 . S
C1309 C1303 1.465 . S
C1309 C1308 1.396 . S
C1309 C1310 1.399 . S
C1310 H1296 0.929 1_554 S
C1310 C1309 1.399 . S
C1310 C1311 1.385 . S
C1311 H1297 0.931 1_554 S
C1311 C1310 1.385 . S
C1311 C1312 1.389 . S
C1312 C1311 1.389 . S
C1312 C1313 1.387 . S
C1313 H1298 0.930 . S
C1313 C1308 1.390 . S
C1313 C1312 1.387 . S
H1314 C1326 0.930 . S
H1315 C1328 0.930 . S
H1316 C1329 0.930 . S
H1317 C1333 0.959 1_655 S
H1318 C1333 0.959 . S
H1319 C1333 0.961 1_655 S
H1320 C1334 0.960 . S
H1321 C1334 0.961 . S
H1322 C1334 0.959 . S
H1323 C1337 0.929 . S
H1324 C1338 0.931 . S
H1325 C1340 0.930 . S
C1326 H1314 0.930 . S
C1326 C1327 1.399 . S
C1326 C1331 1.399 . S
C1327 C1326 1.399 . S
C1327 C1328 1.376 . S
C1328 H1315 0.930 . S
C1328 C1327 1.376 . S
C1328 C1329 1.388 . S
C1329 H1316 0.930 . S
C1329 C1328 1.388 . S
C1329 C1330 1.390 . S
C1330 C1329 1.390 . S
C1330 C1331 1.394 . S
C1330 C1336 1.465 1_655 S
C1331 C1326 1.399 . S
C1331 C1330 1.394 . S
C1331 C1332 1.516 1_655 S
C1332 C1331 1.516 1_455 S
C1332 C1333 1.502 . S
C1332 C1334 1.561 . S
C1332 C1335 1.526 . S
C1333 H1317 0.959 1_455 S
C1333 H1318 0.959 . S
C1333 H1319 0.961 1_455 S
C1333 C1332 1.502 . S
C1334 H1320 0.960 . S
C1334 H1321 0.961 . S
C1334 H1322 0.959 . S
C1334 C1332 1.561 . S
C1335 C1332 1.526 . S
C1335 C1336 1.396 . S
C1335 C1340 1.390 . S
C1336 C1330 1.465 1_455 S
C1336 C1335 1.396 . S
C1336 C1337 1.399 . S
C1337 H1323 0.929 . S
C1337 C1336 1.399 . S
C1337 C1338 1.385 . S
C1338 H1324 0.931 . S
C1338 C1337 1.385 . S
C1338 C1339 1.389 . S
C1339 C1338 1.389 . S
C1339 C1340 1.387 . S
C1340 H1325 0.930 . S
C1340 C1335 1.390 . S
C1340 C1339 1.387 . S
H1341 C1353 0.930 . S
H1342 C1355 0.930 . S
H1343 C1356 0.930 . S
H1344 C1360 0.959 . S
H1345 C1360 0.959 . S
H1346 C1360 0.961 . S
H1347 C1361 0.960 . S
H1348 C1361 0.961 . S
H1349 C1361 0.959 . S
H1350 C1364 0.929 . S
H1351 C1365 0.931 . S
H1352 C1367 0.930 . S
C1353 H1341 0.930 . S
C1353 C1354 1.399 . S
C1353 C1358 1.399 . S
C1354 C1353 1.399 . S
C1354 C1355 1.376 . S
C1355 H1342 0.930 . S
C1355 C1354 1.376 . S
C1355 C1356 1.388 . S
C1356 H1343 0.930 . S
C1356 C1355 1.388 . S
C1356 C1357 1.390 . S
C1357 C1356 1.390 . S
C1357 C1358 1.394 . S
C1357 C1363 1.465 . S
C1358 C1353 1.399 . S
C1358 C1357 1.394 . S
C1358 C1359 1.516 . S
C1359 C1358 1.516 . S
C1359 C1360 1.502 . S
C1359 C1361 1.561 . S
C1359 C1362 1.526 . S
C1360 H1344 0.959 . S
C1360 H1345 0.959 . S
C1360 H1346 0.961 . S
C1360 C1359 1.502 . S
C1361 H1347 0.960 . S
C1361 H1348 0.961 . S
C1361 H1349 0.959 . S
C1361 C1359 1.561 . S
C1362 C1359 1.526 . S
C1362 C1363 1.396 . S
C1362 C1367 1.390 . S
C1363 C1357 1.465 . S
C1363 C1362 1.396 . S
C1363 C1364 1.399 . S
C1364 H1350 0.929 . S
C1364 C1363 1.399 . S
C1364 C1365 1.385 . S
C1365 H1351 0.931 . S
C1365 C1364 1.385 . S
C1365 C1366 1.389 . S
C1366 C1365 1.389 . S
C1366 C1367 1.387 . S
C1367 H1352 0.930 . S
C1367 C1362 1.390 . S
C1367 C1366 1.387 . S
H1368 C1380 0.930 . S
H1369 C1382 0.930 . S
H1370 C1383 0.930 . S
H1371 C1387 0.959 1_545 S
H1372 C1387 0.959 . S
H1373 C1387 0.961 1_545 S
H1374 C1388 0.960 . S
H1375 C1388 0.961 . S
H1376 C1388 0.959 . S
H1377 C1391 0.911 1_545 S
H1378 C1392 0.931 . S
H1379 C1394 0.930 . S
C1380 H1368 0.930 . S
C1380 C1381 1.399 . S
C1380 C1385 1.399 . S
C1381 C1380 1.399 . S
C1381 C1382 1.376 . S
C1382 H1369 0.930 . S
C1382 C1381 1.376 . S
C1382 C1383 1.388 . S
C1383 H1370 0.930 . S
C1383 C1382 1.388 . S
C1383 C1384 1.390 . S
C1384 C1383 1.390 . S
C1384 C1385 1.394 . S
C1384 C1390 1.465 1_545 S
C1385 C1380 1.399 . S
C1385 C1384 1.394 . S
C1385 C1386 1.516 1_545 S
C1386 C1385 1.516 1_565 S
C1386 C1387 1.502 . S
C1386 C1388 1.561 . S
C1386 C1389 1.526 . S
C1387 H1371 0.959 1_565 S
C1387 H1372 0.959 . S
C1387 H1373 0.961 1_565 S
C1387 C1386 1.502 . S
C1388 H1374 0.960 . S
C1388 H1375 0.961 . S
C1388 H1376 0.959 . S
C1388 C1386 1.561 . S
C1389 C1386 1.526 . S
C1389 C1390 1.396 . S
C1389 C1394 1.390 . S
C1390 C1384 1.465 1_565 S
C1390 C1389 1.396 . S
C1390 C1391 1.399 . S
C1391 H1377 0.911 1_565 S
C1391 C1390 1.399 . S
C1391 C1392 1.385 . S
C1392 H1378 0.931 . S
C1392 C1391 1.385 . S
C1392 C1393 1.389 . S
C1393 C1392 1.389 . S
C1393 C1394 1.387 . S
C1394 H1379 0.930 . S
C1394 C1389 1.390 . S
C1394 C1393 1.387 . S
H1395 C1407 0.930 . S
H1396 C1409 0.930 . S
H1397 C1410 0.930 . S
H1398 C1414 0.959 . S
H1399 C1414 0.959 . S
H1400 C1414 0.961 . S
H1401 C1415 0.960 . S
H1402 C1415 0.961 . S
H1403 C1415 0.959 . S
H1404 C1418 0.929 . S
H1405 C1419 0.931 . S
H1406 C1421 0.930 . S
C1407 H1395 0.930 . S
C1407 C1408 1.399 . S
C1407 C1412 1.399 . S
C1408 C1407 1.399 . S
C1408 C1409 1.376 . S
C1409 H1396 0.930 . S
C1409 C1408 1.376 . S
C1409 C1410 1.388 . S
C1410 H1397 0.930 . S
C1410 C1409 1.388 . S
C1410 C1411 1.390 . S
C1411 C1410 1.390 . S
C1411 C1412 1.394 . S
C1411 C1417 1.465 . S
C1412 C1407 1.399 . S
C1412 C1411 1.394 . S
C1412 C1413 1.516 . S
C1413 C1412 1.516 . S
C1413 C1414 1.502 . S
C1413 C1415 1.561 . S
C1413 C1416 1.526 . S
C1414 H1398 0.959 . S
C1414 H1399 0.959 . S
C1414 H1400 0.961 . S
C1414 C1413 1.502 . S
C1415 H1401 0.960 . S
C1415 H1402 0.961 . S
C1415 H1403 0.959 . S
C1415 C1413 1.561 . S
C1416 C1413 1.526 . S
C1416 C1417 1.396 . S
C1416 C1421 1.390 . S
C1417 C1411 1.465 . S
C1417 C1416 1.396 . S
C1417 C1418 1.399 . S
C1418 H1404 0.929 . S
C1418 C1417 1.399 . S
C1418 C1419 1.385 . S
C1419 H1405 0.931 . S
C1419 C1418 1.385 . S
C1419 C1420 1.389 . S
C1420 C1419 1.389 . S
C1420 C1421 1.387 . S
C1421 H1406 0.930 . S
C1421 C1416 1.390 . S
C1421 C1420 1.387 . S
H1422 C1434 0.930 . S
H1423 C1436 0.930 . S
H1424 C1437 0.930 . S
H1425 C1441 0.959 . S
H1426 C1441 0.959 . S
H1427 C1441 0.961 . S
H1428 C1442 0.960 . S
H1429 C1442 0.961 . S
H1430 C1442 0.959 . S
H1431 C1445 0.929 . S
H1432 C1446 0.931 . S
H1433 C1448 0.930 . S
C1434 H1422 0.930 . S
C1434 C1435 1.399 . S
C1434 C1439 1.399 . S
C1435 C1434 1.399 . S
C1435 C1436 1.376 . S
C1436 H1423 0.930 . S
C1436 C1435 1.376 . S
C1436 C1437 1.388 . S
C1437 H1424 0.930 . S
C1437 C1436 1.388 . S
C1437 C1438 1.390 . S
C1438 C1437 1.390 . S
C1438 C1439 1.394 . S
C1438 C1444 1.465 . S
C1439 C1434 1.399 . S
C1439 C1438 1.394 . S
C1439 C1440 1.516 . S
C1440 C1439 1.516 . S
C1440 C1441 1.502 . S
C1440 C1442 1.561 . S
C1440 C1443 1.526 . S
C1441 H1425 0.959 . S
C1441 H1426 0.959 . S
C1441 H1427 0.961 . S
C1441 C1440 1.502 . S
C1442 H1428 0.960 . S
C1442 H1429 0.961 . S
C1442 H1430 0.959 . S
C1442 C1440 1.561 . S
C1443 C1440 1.526 . S
C1443 C1444 1.396 . S
C1443 C1448 1.390 . S
C1444 C1438 1.465 . S
C1444 C1443 1.396 . S
C1444 C1445 1.399 . S
C1445 H1431 0.929 . S
C1445 C1444 1.399 . S
C1445 C1446 1.385 . S
C1446 H1432 0.931 . S
C1446 C1445 1.385 . S
C1446 C1447 1.389 . S
C1447 C1446 1.389 . S
C1447 C1448 1.387 . S
C1448 H1433 0.930 . S
C1448 C1443 1.390 . S
C1448 C1447 1.387 . S
H1449 C1461 0.930 . S
H1450 C1463 0.930 . S
H1451 C1464 0.930 . S
H1452 C1468 0.959 . S
H1453 C1468 0.959 . S
H1454 C1468 0.961 . S
H1455 C1469 0.960 . S
H1456 C1469 0.961 . S
H1457 C1469 0.959 . S
H1458 C1472 0.929 . S
H1459 C1473 0.931 . S
H1460 C1475 0.930 . S
C1461 H1449 0.930 . S
C1461 C1462 1.399 . S
C1461 C1466 1.399 . S
C1462 C1461 1.399 . S
C1462 C1463 1.376 . S
C1463 H1450 0.930 . S
C1463 C1462 1.376 . S
C1463 C1464 1.388 . S
C1464 H1451 0.930 . S
C1464 C1463 1.388 . S
C1464 C1465 1.390 . S
C1465 C1464 1.390 . S
C1465 C1466 1.394 . S
C1465 C1471 1.465 . S
C1466 C1461 1.399 . S
C1466 C1465 1.394 . S
C1466 C1467 1.516 . S
C1467 C1466 1.516 . S
C1467 C1468 1.502 . S
C1467 C1469 1.561 . S
C1467 C1470 1.526 . S
C1468 H1452 0.959 . S
C1468 H1453 0.959 . S
C1468 H1454 0.961 . S
C1468 C1467 1.502 . S
C1469 H1455 0.960 . S
C1469 H1456 0.961 . S
C1469 H1457 0.959 . S
C1469 C1467 1.561 . S
C1470 C1467 1.526 . S
C1470 C1471 1.396 . S
C1470 C1475 1.390 . S
C1471 C1465 1.465 . S
C1471 C1470 1.396 . S
C1471 C1472 1.399 . S
C1472 H1458 0.929 . S
C1472 C1471 1.399 . S
C1472 C1473 1.385 . S
C1473 H1459 0.931 . S
C1473 C1472 1.385 . S
C1473 C1474 1.389 . S
C1474 C1473 1.389 . S
C1474 C1475 1.387 . S
C1475 H1460 0.930 . S
C1475 C1470 1.390 . S
C1475 C1474 1.387 . S
H1476 C1488 0.930 . S
H1477 C1490 0.930 . S
H1478 C1491 0.930 . S
H1479 C1495 0.959 . S
H1480 C1495 0.959 . S
H1481 C1495 0.961 . S
H1482 C1496 0.960 . S
H1483 C1496 0.961 . S
H1484 C1496 0.959 . S
H1485 C1499 0.929 . S
H1486 C1500 0.931 . S
H1487 C1502 0.930 . S
C1488 H1476 0.930 . S
C1488 C1489 1.399 . S
C1488 C1493 1.399 . S
C1489 C1488 1.399 . S
C1489 C1490 1.376 . S
C1490 H1477 0.930 . S
C1490 C1489 1.376 . S
C1490 C1491 1.388 . S
C1491 H1478 0.930 . S
C1491 C1490 1.388 . S
C1491 C1492 1.390 . S
C1492 C1491 1.390 . S
C1492 C1493 1.394 . S
C1492 C1498 1.465 . S
C1493 C1488 1.399 . S
C1493 C1492 1.394 . S
C1493 C1494 1.516 . S
C1494 C1493 1.516 . S
C1494 C1495 1.502 . S
C1494 C1496 1.561 . S
C1494 C1497 1.526 . S
C1495 H1479 0.959 . S
C1495 H1480 0.959 . S
C1495 H1481 0.961 . S
C1495 C1494 1.502 . S
C1496 H1482 0.960 . S
C1496 H1483 0.961 . S
C1496 H1484 0.959 . S
C1496 C1494 1.561 . S
C1497 C1494 1.526 . S
C1497 C1498 1.396 . S
C1497 C1502 1.390 . S
C1498 C1492 1.465 . S
C1498 C1497 1.396 . S
C1498 C1499 1.399 . S
C1499 H1485 0.929 . S
C1499 C1498 1.399 . S
C1499 C1500 1.385 . S
C1500 H1486 0.931 . S
C1500 C1499 1.385 . S
C1500 C1501 1.389 . S
C1501 C1500 1.389 . S
C1501 C1502 1.387 . S
C1502 H1487 0.930 . S
C1502 C1497 1.390 . S
C1502 C1501 1.387 . S
H1503 C1515 0.930 . S
H1504 C1517 0.930 . S
H1505 C1518 0.930 . S
H1506 C1522 0.959 . S
H1507 C1522 0.959 . S
H1508 C1522 0.961 . S
H1509 C1523 0.960 . S
H1510 C1523 0.961 . S
H1511 C1523 0.959 . S
H1512 C1526 0.929 . S
H1513 C1527 0.931 . S
H1514 C1529 0.930 . S
C1515 H1503 0.930 . S
C1515 C1516 1.399 . S
C1515 C1520 1.399 . S
C1516 C1515 1.399 . S
C1516 C1517 1.376 . S
C1517 H1504 0.930 . S
C1517 C1516 1.376 . S
C1517 C1518 1.388 . S
C1518 H1505 0.930 . S
C1518 C1517 1.388 . S
C1518 C1519 1.390 . S
C1519 C1518 1.390 . S
C1519 C1520 1.394 . S
C1519 C1525 1.465 . S
C1520 C1515 1.399 . S
C1520 C1519 1.394 . S
C1520 C1521 1.516 . S
C1521 C1520 1.516 . S
C1521 C1522 1.502 . S
C1521 C1523 1.561 . S
C1521 C1524 1.526 . S
C1522 H1506 0.959 . S
C1522 H1507 0.959 . S
C1522 H1508 0.961 . S
C1522 C1521 1.502 . S
C1523 H1509 0.960 . S
C1523 H1510 0.961 . S
C1523 H1511 0.959 . S
C1523 C1521 1.561 . S
C1524 C1521 1.526 . S
C1524 C1525 1.396 . S
C1524 C1529 1.390 . S
C1525 C1519 1.465 . S
C1525 C1524 1.396 . S
C1525 C1526 1.399 . S
C1526 H1512 0.929 . S
C1526 C1525 1.399 . S
C1526 C1527 1.385 . S
C1527 H1513 0.931 . S
C1527 C1526 1.385 . S
C1527 C1528 1.389 . S
C1528 C1527 1.389 . S
C1528 C1529 1.387 . S
C1529 H1514 0.930 . S
C1529 C1524 1.390 . S
C1529 C1528 1.387 . S
H1530 C1542 0.930 . S
H1531 C1544 0.930 . S
H1532 C1545 0.930 . S
H1533 C1549 0.959 . S
H1534 C1549 0.959 . S
H1535 C1549 0.961 . S
H1536 C1550 0.960 . S
H1537 C1550 0.961 . S
H1538 C1550 0.959 . S
H1539 C1553 0.929 . S
H1540 C1554 0.931 . S
H1541 C1556 0.930 . S
C1542 H1530 0.930 . S
C1542 C1543 1.399 . S
C1542 C1547 1.399 . S
C1543 C1542 1.399 . S
C1543 C1544 1.376 . S
C1544 H1531 0.930 . S
C1544 C1543 1.376 . S
C1544 C1545 1.388 . S
C1545 H1532 0.930 . S
C1545 C1544 1.388 . S
C1545 C1546 1.390 . S
C1546 C1545 1.390 . S
C1546 C1547 1.394 . S
C1546 C1552 1.465 . S
C1547 C1542 1.399 . S
C1547 C1546 1.394 . S
C1547 C1548 1.516 . S
C1548 C1547 1.516 . S
C1548 C1549 1.502 . S
C1548 C1550 1.561 . S
C1548 C1551 1.526 . S
C1549 H1533 0.959 . S
C1549 H1534 0.959 . S
C1549 H1535 0.961 . S
C1549 C1548 1.502 . S
C1550 H1536 0.960 . S
C1550 H1537 0.961 . S
C1550 H1538 0.959 . S
C1550 C1548 1.561 . S
C1551 C1548 1.526 . S
C1551 C1552 1.396 . S
C1551 C1556 1.390 . S
C1552 C1546 1.465 . S
C1552 C1551 1.396 . S
C1552 C1553 1.399 . S
C1553 H1539 0.929 . S
C1553 C1552 1.399 . S
C1553 C1554 1.385 . S
C1554 H1540 0.931 . S
C1554 C1553 1.385 . S
C1554 C1555 1.389 . S
C1555 C1554 1.389 . S
C1555 C1556 1.387 . S
C1556 H1541 0.930 . S
C1556 C1551 1.390 . S
C1556 C1555 1.387 . S
H1557 C1569 0.930 . S
H1558 C1571 0.930 . S
H1559 C1572 0.930 . S
H1560 C1576 0.959 . S
H1561 C1576 0.959 . S
H1562 C1576 0.961 . S
H1563 C1577 0.960 . S
H1564 C1577 0.961 . S
H1565 C1577 0.959 . S
H1566 C1580 0.929 . S
H1567 C1581 0.931 . S
H1568 C1583 0.930 . S
C1569 H1557 0.930 . S
C1569 C1570 1.399 . S
C1569 C1574 1.399 1_545 S
C1570 C1569 1.399 . S
C1570 C1571 1.376 . S
C1571 H1558 0.930 . S
C1571 C1570 1.376 . S
C1571 C1572 1.388 1_545 S
C1572 H1559 0.930 . S
C1572 C1571 1.388 1_565 S
C1572 C1573 1.390 . S
C1573 C1572 1.390 . S
C1573 C1574 1.394 . S
C1573 C1579 1.465 . S
C1574 C1569 1.399 1_565 S
C1574 C1573 1.394 . S
C1574 C1575 1.516 . S
C1575 C1574 1.516 . S
C1575 C1576 1.502 . S
C1575 C1577 1.561 . S
C1575 C1578 1.526 . S
C1576 H1560 0.959 . S
C1576 H1561 0.959 . S
C1576 H1562 0.961 . S
C1576 C1575 1.502 . S
C1577 H1563 0.960 . S
C1577 H1564 0.961 . S
C1577 H1565 0.959 . S
C1577 C1575 1.561 . S
C1578 C1575 1.526 . S
C1578 C1579 1.396 . S
C1578 C1583 1.390 . S
C1579 C1573 1.465 . S
C1579 C1578 1.396 . S
C1579 C1580 1.399 . S
C1580 H1566 0.929 . S
C1580 C1579 1.399 . S
C1580 C1581 1.385 . S
C1581 H1567 0.931 . S
C1581 C1580 1.385 . S
C1581 C1582 1.389 . S
C1582 C1581 1.389 . S
C1582 C1583 1.387 . S
C1583 H1568 0.930 . S
C1583 C1578 1.390 . S
C1583 C1582 1.387 . S
H1584 C1596 0.930 . S
H1585 C1598 0.930 1_655 S
H1586 C1599 0.930 . S
H1587 C1603 0.959 . S
H1588 C1603 0.959 . S
H1589 C1603 0.961 . S
H1590 C1604 0.960 . S
H1591 C1604 0.961 . S
H1592 C1604 0.959 . S
H1593 C1607 0.929 . S
H1594 C1608 0.931 . S
H1595 C1610 0.930 . S
C1596 H1584 0.930 . S
C1596 C1597 1.399 1_455 S
C1596 C1601 1.399 . S
C1597 C1596 1.399 1_655 S
C1597 C1598 1.376 1_655 S
C1598 H1585 0.930 1_455 S
C1598 C1597 1.376 1_455 S
C1598 C1599 1.388 . S
C1599 H1586 0.930 . S
C1599 C1598 1.388 . S
C1599 C1600 1.390 . S
C1600 C1599 1.390 . S
C1600 C1601 1.394 . S
C1600 C1606 1.465 . S
C1601 C1596 1.399 . S
C1601 C1600 1.394 . S
C1601 C1602 1.516 . S
C1602 C1601 1.516 . S
C1602 C1603 1.502 . S
C1602 C1604 1.561 . S
C1602 C1605 1.526 . S
C1603 H1587 0.959 . S
C1603 H1588 0.959 . S
C1603 H1589 0.961 . S
C1603 C1602 1.502 . S
C1604 H1590 0.960 . S
C1604 H1591 0.961 . S
C1604 H1592 0.959 . S
C1604 C1602 1.561 . S
C1605 C1602 1.526 . S
C1605 C1606 1.396 . S
C1605 C1610 1.390 . S
C1606 C1600 1.465 . S
C1606 C1605 1.396 . S
C1606 C1607 1.399 . S
C1607 H1593 0.929 . S
C1607 C1606 1.399 . S
C1607 C1608 1.385 . S
C1608 H1594 0.931 . S
C1608 C1607 1.385 . S
C1608 C1609 1.389 . S
C1609 C1608 1.389 . S
C1609 C1610 1.387 . S
C1610 H1595 0.930 . S
C1610 C1605 1.390 . S
C1610 C1609 1.387 . S
H1611 C1623 0.930 . S
H1612 C1625 0.930 . S
H1613 C1626 0.930 . S
H1614 C1630 0.959 . S
H1615 C1630 0.959 . S
H1616 C1630 0.961 . S
H1617 C1631 0.960 . S
H1618 C1631 0.961 . S
H1619 C1631 0.959 . S
H1620 C1634 0.929 . S
H1621 C1635 0.931 . S
H1622 C1637 0.930 . S
C1623 H1611 0.930 . S
C1623 C1624 1.399 . S
C1623 C1628 1.399 . S
C1624 C1623 1.399 . S
C1624 C1625 1.376 . S
C1625 H1612 0.930 . S
C1625 C1624 1.376 . S
C1625 C1626 1.388 . S
C1626 H1613 0.930 . S
C1626 C1625 1.388 . S
C1626 C1627 1.390 . S
C1627 C1626 1.390 . S
C1627 C1628 1.394 . S
C1627 C1633 1.465 . S
C1628 C1623 1.399 . S
C1628 C1627 1.394 . S
C1628 C1629 1.516 . S
C1629 C1628 1.516 . S
C1629 C1630 1.502 . S
C1629 C1631 1.561 . S
C1629 C1632 1.526 . S
C1630 H1614 0.959 . S
C1630 H1615 0.959 . S
C1630 H1616 0.961 . S
C1630 C1629 1.502 . S
C1631 H1617 0.960 . S
C1631 H1618 0.961 . S
C1631 H1619 0.959 . S
C1631 C1629 1.561 . S
C1632 C1629 1.526 . S
C1632 C1633 1.396 . S
C1632 C1637 1.390 . S
C1633 C1627 1.465 . S
C1633 C1632 1.396 . S
C1633 C1634 1.399 . S
C1634 H1620 0.929 . S
C1634 C1633 1.399 . S
C1634 C1635 1.385 . S
C1635 H1621 0.931 . S
C1635 C1634 1.385 . S
C1635 C1636 1.389 . S
C1636 C1635 1.389 . S
C1636 C1637 1.387 . S
C1637 H1622 0.930 . S
C1637 C1632 1.390 . S
C1637 C1636 1.387 . S
H1638 C1650 0.930 . S
H1639 C1652 0.930 . S
H1640 C1653 0.930 . S
H1641 C1657 0.959 . S
H1642 C1657 0.959 . S
H1643 C1657 0.961 . S
H1644 C1658 0.960 . S
H1645 C1658 0.961 . S
H1646 C1658 0.959 . S
H1647 C1661 0.929 . S
H1648 C1662 0.931 . S
H1649 C1664 0.930 . S
C1650 H1638 0.930 . S
C1650 C1651 1.399 . S
C1650 C1655 1.399 . S
C1651 C1650 1.399 . S
C1651 C1652 1.376 . S
C1652 H1639 0.930 . S
C1652 C1651 1.376 . S
C1652 C1653 1.388 . S
C1653 H1640 0.930 . S
C1653 C1652 1.388 . S
C1653 C1654 1.390 . S
C1654 C1653 1.390 . S
C1654 C1655 1.394 . S
C1654 C1660 1.465 . S
C1655 C1650 1.399 . S
C1655 C1654 1.394 . S
C1655 C1656 1.516 . S
C1656 C1655 1.516 . S
C1656 C1657 1.502 . S
C1656 C1658 1.561 . S
C1656 C1659 1.526 . S
C1657 H1641 0.959 . S
C1657 H1642 0.959 . S
C1657 H1643 0.961 . S
C1657 C1656 1.502 . S
C1658 H1644 0.960 . S
C1658 H1645 0.961 . S
C1658 H1646 0.959 . S
C1658 C1656 1.561 . S
C1659 C1656 1.526 . S
C1659 C1660 1.396 . S
C1659 C1664 1.390 . S
C1660 C1654 1.465 . S
C1660 C1659 1.396 . S
C1660 C1661 1.399 . S
C1661 H1647 0.929 . S
C1661 C1660 1.399 . S
C1661 C1662 1.385 . S
C1662 H1648 0.931 . S
C1662 C1661 1.385 . S
C1662 C1663 1.389 . S
C1663 C1662 1.389 . S
C1663 C1664 1.387 . S
C1664 H1649 0.930 . S
C1664 C1659 1.390 . S
C1664 C1663 1.387 . S
H1665 C1677 0.930 . S
H1666 C1679 0.930 . S
H1667 C1680 0.930 . S
H1668 C1684 0.959 . S
H1669 C1684 0.959 . S
H1670 C1684 0.961 . S
H1671 C1685 0.960 . S
H1672 C1685 0.961 . S
H1673 C1685 0.959 . S
H1674 C1688 0.929 . S
H1675 C1689 0.931 . S
H1676 C1691 0.930 . S
C1677 H1665 0.930 . S
C1677 C1678 1.399 . S
C1677 C1682 1.399 . S
C1678 C1677 1.399 . S
C1678 C1679 1.376 . S
C1679 H1666 0.930 . S
C1679 C1678 1.376 . S
C1679 C1680 1.388 . S
C1680 H1667 0.930 . S
C1680 C1679 1.388 . S
C1680 C1681 1.390 . S
C1681 C1680 1.390 . S
C1681 C1682 1.394 . S
C1681 C1687 1.465 . S
C1682 C1677 1.399 . S
C1682 C1681 1.394 . S
C1682 C1683 1.516 . S
C1683 C1682 1.516 . S
C1683 C1684 1.502 . S
C1683 C1685 1.561 . S
C1683 C1686 1.526 . S
C1684 H1668 0.959 . S
C1684 H1669 0.959 . S
C1684 H1670 0.961 . S
C1684 C1683 1.502 . S
C1685 H1671 0.960 . S
C1685 H1672 0.961 . S
C1685 H1673 0.959 . S
C1685 C1683 1.561 . S
C1686 C1683 1.526 . S
C1686 C1687 1.396 . S
C1686 C1691 1.390 . S
C1687 C1681 1.465 . S
C1687 C1686 1.396 . S
C1687 C1688 1.399 . S
C1688 H1674 0.929 . S
C1688 C1687 1.399 . S
C1688 C1689 1.385 . S
C1689 H1675 0.931 . S
C1689 C1688 1.385 . S
C1689 C1690 1.389 . S
C1690 C1689 1.389 . S
C1690 C1691 1.387 . S
C1691 H1676 0.930 . S
C1691 C1686 1.390 . S
C1691 C1690 1.387 . S
H1692 C1704 0.930 . S
H1693 C1706 0.930 . S
H1694 C1707 0.930 . S
H1695 C1711 0.959 . S
H1696 C1711 0.959 . S
H1697 C1711 0.961 . S
H1698 C1712 0.960 . S
H1699 C1712 0.961 . S
H1700 C1712 0.959 . S
H1701 C1715 0.929 . S
H1702 C1716 0.931 . S
H1703 C1718 0.930 . S
C1704 H1692 0.930 . S
C1704 C1705 1.399 . S
C1704 C1709 1.399 . S
C1705 C1704 1.399 . S
C1705 C1706 1.376 . S
C1706 H1693 0.930 . S
C1706 C1705 1.376 . S
C1706 C1707 1.388 . S
C1707 H1694 0.930 . S
C1707 C1706 1.388 . S
C1707 C1708 1.390 . S
C1708 C1707 1.390 . S
C1708 C1709 1.394 . S
C1708 C1714 1.465 . S
C1709 C1704 1.399 . S
C1709 C1708 1.394 . S
C1709 C1710 1.516 . S
C1710 C1709 1.516 . S
C1710 C1711 1.502 . S
C1710 C1712 1.561 . S
C1710 C1713 1.526 . S
C1711 H1695 0.959 . S
C1711 H1696 0.959 . S
C1711 H1697 0.961 . S
C1711 C1710 1.502 . S
C1712 H1698 0.960 . S
C1712 H1699 0.961 . S
C1712 H1700 0.959 . S
C1712 C1710 1.561 . S
C1713 C1710 1.526 . S
C1713 C1714 1.396 . S
C1713 C1718 1.390 . S
C1714 C1708 1.465 . S
C1714 C1713 1.396 . S
C1714 C1715 1.399 . S
C1715 H1701 0.929 . S
C1715 C1714 1.399 . S
C1715 C1716 1.385 . S
C1716 H1702 0.931 . S
C1716 C1715 1.385 . S
C1716 C1717 1.389 . S
C1717 C1716 1.389 . S
C1717 C1718 1.387 . S
C1718 H1703 0.930 . S
C1718 C1713 1.390 . S
C1718 C1717 1.387 . S
H1719 C1731 0.930 . S
H1720 C1733 0.930 . S
H1721 C1734 0.930 . S
H1722 C1738 0.959 . S
H1723 C1738 0.959 . S
H1724 C1738 0.961 . S
H1725 C1739 0.960 . S
H1726 C1739 0.961 . S
H1727 C1739 0.959 . S
H1728 C1742 0.929 . S
H1729 C1743 0.931 . S
H1730 C1745 0.930 . S
C1731 H1719 0.930 . S
C1731 C1732 1.399 . S
C1731 C1736 1.399 . S
C1732 C1731 1.399 . S
C1732 C1733 1.376 . S
C1733 H1720 0.930 . S
C1733 C1732 1.376 . S
C1733 C1734 1.388 . S
C1734 H1721 0.930 . S
C1734 C1733 1.388 . S
C1734 C1735 1.390 . S
C1735 C1734 1.390 . S
C1735 C1736 1.394 . S
C1735 C1741 1.465 1_565 S
C1736 C1731 1.399 . S
C1736 C1735 1.394 . S
C1736 C1737 1.516 1_565 S
C1737 C1736 1.516 1_545 S
C1737 C1738 1.502 . S
C1737 C1739 1.561 . S
C1737 C1740 1.526 . S
C1738 H1722 0.959 . S
C1738 H1723 0.959 . S
C1738 H1724 0.961 . S
C1738 C1737 1.502 . S
C1739 H1725 0.960 . S
C1739 H1726 0.961 . S
C1739 H1727 0.959 . S
C1739 C1737 1.561 . S
C1740 C1737 1.526 . S
C1740 C1741 1.396 . S
C1740 C1745 1.390 . S
C1741 C1735 1.465 1_545 S
C1741 C1740 1.396 . S
C1741 C1742 1.399 . S
C1742 H1728 0.929 . S
C1742 C1741 1.399 . S
C1742 C1743 1.385 . S
C1743 H1729 0.931 . S
C1743 C1742 1.385 . S
C1743 C1744 1.389 . S
C1744 C1743 1.389 . S
C1744 C1745 1.387 . S
C1745 H1730 0.930 . S
C1745 C1740 1.390 . S
C1745 C1744 1.387 . S
H1746 C1758 0.930 . S
H1747 C1760 0.930 . S
H1748 C1761 0.930 . S
H1749 C1765 0.959 . S
H1750 C1765 0.959 . S
H1751 C1765 0.961 . S
H1752 C1766 0.960 . S
H1753 C1766 0.961 . S
H1754 C1766 0.959 . S
H1755 C1769 0.929 1_455 S
H1756 C1770 0.931 . S
H1757 C1772 0.930 . S
C1758 H1746 0.930 . S
C1758 C1759 1.399 . S
C1758 C1763 1.399 . S
C1759 C1758 1.399 . S
C1759 C1760 1.376 . S
C1760 H1747 0.930 . S
C1760 C1759 1.376 . S
C1760 C1761 1.388 . S
C1761 H1748 0.930 . S
C1761 C1760 1.388 . S
C1761 C1762 1.390 . S
C1762 C1761 1.390 . S
C1762 C1763 1.394 . S
C1762 C1768 1.465 1_455 S
C1763 C1758 1.399 . S
C1763 C1762 1.394 . S
C1763 C1764 1.516 1_455 S
C1764 C1763 1.516 1_655 S
C1764 C1765 1.502 . S
C1764 C1766 1.561 . S
C1764 C1767 1.526 . S
C1765 H1749 0.959 . S
C1765 H1750 0.959 . S
C1765 H1751 0.961 . S
C1765 C1764 1.502 . S
C1766 H1752 0.960 . S
C1766 H1753 0.961 . S
C1766 H1754 0.959 . S
C1766 C1764 1.561 . S
C1767 C1764 1.526 . S
C1767 C1768 1.396 . S
C1767 C1772 1.390 . S
C1768 C1762 1.465 1_655 S
C1768 C1767 1.396 . S
C1768 C1769 1.399 . S
C1769 H1755 0.929 1_655 S
C1769 C1768 1.399 . S
C1769 C1770 1.385 . S
C1770 H1756 0.931 . S
C1770 C1769 1.385 . S
C1770 C1771 1.389 . S
C1771 C1770 1.389 . S
C1771 C1772 1.387 . S
C1772 H1757 0.930 . S
C1772 C1767 1.390 . S
C1772 C1771 1.387 . S
H1773 C1785 0.930 . S
H1774 C1787 0.930 . S
H1775 C1788 0.930 . S
H1776 C1792 0.959 . S
H1777 C1792 0.959 . S
H1778 C1792 0.961 . S
H1779 C1793 0.960 . S
H1780 C1793 0.961 . S
H1781 C1793 0.959 . S
H1782 C1796 0.929 . S
H1783 C1797 0.931 . S
H1784 C1799 0.930 . S
C1785 H1773 0.930 . S
C1785 C1786 1.399 . S
C1785 C1790 1.399 . S
C1786 C1785 1.399 . S
C1786 C1787 1.376 . S
C1787 H1774 0.930 . S
C1787 C1786 1.376 . S
C1787 C1788 1.388 . S
C1788 H1775 0.930 . S
C1788 C1787 1.388 . S
C1788 C1789 1.390 . S
C1789 C1788 1.390 . S
C1789 C1790 1.394 . S
C1789 C1795 1.465 . S
C1790 C1785 1.399 . S
C1790 C1789 1.394 . S
C1790 C1791 1.516 . S
C1791 C1790 1.516 . S
C1791 C1792 1.502 . S
C1791 C1793 1.561 . S
C1791 C1794 1.526 . S
C1792 H1776 0.959 . S
C1792 H1777 0.959 . S
C1792 H1778 0.961 . S
C1792 C1791 1.502 . S
C1793 H1779 0.960 . S
C1793 H1780 0.961 . S
C1793 H1781 0.959 . S
C1793 C1791 1.561 . S
C1794 C1791 1.526 . S
C1794 C1795 1.396 . S
C1794 C1799 1.390 . S
C1795 C1789 1.465 . S
C1795 C1794 1.396 . S
C1795 C1796 1.399 . S
C1796 H1782 0.929 . S
C1796 C1795 1.399 . S
C1796 C1797 1.385 . S
C1797 H1783 0.931 . S
C1797 C1796 1.385 . S
C1797 C1798 1.389 . S
C1798 C1797 1.389 . S
C1798 C1799 1.387 . S
C1799 H1784 0.930 . S
C1799 C1794 1.390 . S
C1799 C1798 1.387 . S
H1800 C1812 0.930 . S
H1801 C1814 0.930 . S
H1802 C1815 0.930 . S
H1803 C1819 0.959 . S
H1804 C1819 0.959 . S
H1805 C1819 0.961 . S
H1806 C1820 0.960 . S
H1807 C1820 0.961 . S
H1808 C1820 0.959 . S
H1809 C1823 0.929 . S
H1810 C1824 0.931 . S
H1811 C1826 0.930 . S
C1812 H1800 0.930 . S
C1812 C1813 1.399 1_655 S
C1812 C1817 1.399 . S
C1813 C1812 1.399 1_455 S
C1813 C1814 1.376 . S
C1814 H1801 0.930 . S
C1814 C1813 1.376 . S
C1814 C1815 1.388 1_455 S
C1815 H1802 0.930 . S
C1815 C1814 1.388 1_655 S
C1815 C1816 1.390 . S
C1816 C1815 1.390 . S
C1816 C1817 1.394 . S
C1816 C1822 1.465 . S
C1817 C1812 1.399 . S
C1817 C1816 1.394 . S
C1817 C1818 1.516 . S
C1818 C1817 1.516 . S
C1818 C1819 1.502 . S
C1818 C1820 1.561 . S
C1818 C1821 1.526 . S
C1819 H1803 0.959 . S
C1819 H1804 0.959 . S
C1819 H1805 0.961 . S
C1819 C1818 1.502 . S
C1820 H1806 0.960 . S
C1820 H1807 0.961 . S
C1820 H1808 0.959 . S
C1820 C1818 1.561 . S
C1821 C1818 1.526 . S
C1821 C1822 1.396 . S
C1821 C1826 1.390 . S
C1822 C1816 1.465 . S
C1822 C1821 1.396 . S
C1822 C1823 1.399 . S
C1823 H1809 0.929 . S
C1823 C1822 1.399 . S
C1823 C1824 1.385 . S
C1824 H1810 0.931 . S
C1824 C1823 1.385 . S
C1824 C1825 1.389 . S
C1825 C1824 1.389 . S
C1825 C1826 1.387 . S
C1826 H1811 0.930 . S
C1826 C1821 1.390 . S
C1826 C1825 1.387 . S
H1827 C1839 0.930 . S
H1828 C1841 0.930 . S
H1829 C1842 0.930 . S
H1830 C1846 0.959 . S
H1831 C1846 0.959 . S
H1832 C1846 0.961 . S
H1833 C1847 0.960 . S
H1834 C1847 0.961 . S
H1835 C1847 0.959 . S
H1836 C1850 0.929 . S
H1837 C1851 0.931 . S
H1838 C1853 0.930 . S
C1839 H1827 0.930 . S
C1839 C1840 1.399 . S
C1839 C1844 1.399 . S
C1840 C1839 1.399 . S
C1840 C1841 1.376 . S
C1841 H1828 0.930 . S
C1841 C1840 1.376 . S
C1841 C1842 1.388 . S
C1842 H1829 0.930 . S
C1842 C1841 1.388 . S
C1842 C1843 1.390 . S
C1843 C1842 1.390 . S
C1843 C1844 1.394 . S
C1843 C1849 1.465 . S
C1844 C1839 1.399 . S
C1844 C1843 1.394 . S
C1844 C1845 1.516 . S
C1845 C1844 1.516 . S
C1845 C1846 1.502 . S
C1845 C1847 1.561 . S
C1845 C1848 1.526 . S
C1846 H1830 0.959 . S
C1846 H1831 0.959 . S
C1846 H1832 0.961 . S
C1846 C1845 1.502 . S
C1847 H1833 0.960 . S
C1847 H1834 0.961 . S
C1847 H1835 0.959 . S
C1847 C1845 1.561 . S
C1848 C1845 1.526 . S
C1848 C1849 1.396 . S
C1848 C1853 1.390 . S
C1849 C1843 1.465 . S
C1849 C1848 1.396 . S
C1849 C1850 1.399 . S
C1850 H1836 0.929 . S
C1850 C1849 1.399 . S
C1850 C1851 1.385 . S
C1851 H1837 0.931 . S
C1851 C1850 1.385 . S
C1851 C1852 1.389 . S
C1852 C1851 1.389 . S
C1852 C1853 1.387 . S
C1853 H1838 0.930 . S
C1853 C1848 1.390 . S
C1853 C1852 1.387 . S
H1854 C1866 0.920 1_565 S
H1855 C1868 0.930 1_565 S
H1856 C1869 0.930 . S
H1857 C1873 0.959 . S
H1858 C1873 0.959 . S
H1859 C1873 0.961 . S
H1860 C1874 0.960 . S
H1861 C1874 0.961 . S
H1862 C1874 0.959 . S
H1863 C1877 0.929 . S
H1864 C1878 0.931 . S
H1865 C1880 0.930 . S
C1866 H1854 0.920 1_545 S
C1866 C1867 1.380 1_545 S
C1866 C1871 1.428 . S
C1867 C1866 1.380 1_565 S
C1867 C1868 1.376 1_565 S
C1868 H1855 0.930 1_545 S
C1868 C1867 1.376 1_545 S
C1868 C1869 1.388 . S
C1869 H1856 0.930 . S
C1869 C1868 1.388 . S
C1869 C1870 1.390 . S
C1870 C1869 1.390 . S
C1870 C1871 1.394 . S
C1870 C1876 1.465 . S
C1871 C1866 1.428 . S
C1871 C1870 1.394 . S
C1871 C1872 1.516 . S
C1872 C1871 1.516 . S
C1872 C1873 1.502 . S
C1872 C1874 1.561 . S
C1872 C1875 1.526 . S
C1873 H1857 0.959 . S
C1873 H1858 0.959 . S
C1873 H1859 0.961 . S
C1873 C1872 1.502 . S
C1874 H1860 0.960 . S
C1874 H1861 0.961 . S
C1874 H1862 0.959 . S
C1874 C1872 1.561 . S
C1875 C1872 1.526 . S
C1875 C1876 1.396 . S
C1875 C1880 1.390 . S
C1876 C1870 1.465 . S
C1876 C1875 1.396 . S
C1876 C1877 1.399 . S
C1877 H1863 0.929 . S
C1877 C1876 1.399 . S
C1877 C1878 1.385 . S
C1878 H1864 0.931 . S
C1878 C1877 1.385 . S
C1878 C1879 1.389 . S
C1879 C1878 1.389 . S
C1879 C1880 1.387 . S
C1880 H1865 0.930 . S
C1880 C1875 1.390 . S
C1880 C1879 1.387 . S
H1881 C1893 0.930 . S
H1882 C1895 0.930 . S
H1883 C1896 0.930 . S
H1884 C1900 0.959 . S
H1885 C1900 0.959 . S
H1886 C1900 0.961 . S
H1887 C1901 0.960 . S
H1888 C1901 0.961 . S
H1889 C1901 0.959 . S
H1890 C1904 0.929 . S
H1891 C1905 0.931 . S
H1892 C1907 0.930 . S
C1893 H1881 0.930 . S
C1893 C1894 1.399 . S
C1893 C1898 1.399 . S
C1894 C1893 1.399 . S
C1894 C1895 1.376 . S
C1895 H1882 0.930 . S
C1895 C1894 1.376 . S
C1895 C1896 1.388 . S
C1896 H1883 0.930 . S
C1896 C1895 1.388 . S
C1896 C1897 1.390 . S
C1897 C1896 1.390 . S
C1897 C1898 1.394 . S
C1897 C1903 1.465 . S
C1898 C1893 1.399 . S
C1898 C1897 1.394 . S
C1898 C1899 1.516 . S
C1899 C1898 1.516 . S
C1899 C1900 1.502 . S
C1899 C1901 1.561 . S
C1899 C1902 1.526 . S
C1900 H1884 0.959 . S
C1900 H1885 0.959 . S
C1900 H1886 0.961 . S
C1900 C1899 1.502 . S
C1901 H1887 0.960 . S
C1901 H1888 0.961 . S
C1901 H1889 0.959 . S
C1901 C1899 1.561 . S
C1902 C1899 1.526 . S
C1902 C1903 1.396 . S
C1902 C1907 1.390 . S
C1903 C1897 1.465 . S
C1903 C1902 1.396 . S
C1903 C1904 1.399 . S
C1904 H1890 0.929 . S
C1904 C1903 1.399 . S
C1904 C1905 1.385 . S
C1905 H1891 0.931 . S
C1905 C1904 1.385 . S
C1905 C1906 1.389 . S
C1906 C1905 1.389 . S
C1906 C1907 1.387 . S
C1907 H1892 0.930 . S
C1907 C1902 1.390 . S
C1907 C1906 1.387 . S
H1908 C1920 0.930 . S
H1909 C1922 0.930 . S
H1910 C1923 0.930 . S
H1911 C1927 0.959 . S
H1912 C1927 0.959 . S
H1913 C1927 0.961 . S
H1914 C1928 0.960 . S
H1915 C1928 0.961 . S
H1916 C1928 0.959 . S
H1917 C1931 0.929 . S
H1918 C1932 0.931 . S
H1919 C1934 0.930 . S
C1920 H1908 0.930 . S
C1920 C1921 1.399 . S
C1920 C1925 1.399 . S
C1921 C1920 1.399 . S
C1921 C1922 1.376 . S
C1922 H1909 0.930 . S
C1922 C1921 1.376 . S
C1922 C1923 1.388 . S
C1923 H1910 0.930 . S
C1923 C1922 1.388 . S
C1923 C1924 1.390 . S
C1924 C1923 1.390 . S
C1924 C1925 1.394 . S
C1924 C1930 1.465 . S
C1925 C1920 1.399 . S
C1925 C1924 1.394 . S
C1925 C1926 1.516 . S
C1926 C1925 1.516 . S
C1926 C1927 1.502 . S
C1926 C1928 1.561 . S
C1926 C1929 1.526 . S
C1927 H1911 0.959 . S
C1927 H1912 0.959 . S
C1927 H1913 0.961 . S
C1927 C1926 1.502 . S
C1928 H1914 0.960 . S
C1928 H1915 0.961 . S
C1928 H1916 0.959 . S
C1928 C1926 1.561 . S
C1929 C1926 1.526 . S
C1929 C1930 1.396 . S
C1929 C1934 1.390 . S
C1930 C1924 1.465 . S
C1930 C1929 1.396 . S
C1930 C1931 1.399 . S
C1931 H1917 0.929 . S
C1931 C1930 1.399 . S
C1931 C1932 1.385 . S
C1932 H1918 0.931 . S
C1932 C1931 1.385 . S
C1932 C1933 1.389 . S
C1933 C1932 1.389 . S
C1933 C1934 1.387 . S
C1934 H1919 0.930 . S
C1934 C1929 1.390 . S
C1934 C1933 1.387 . S
H1935 C1947 0.930 . S
H1936 C1949 0.930 . S
H1937 C1950 0.930 . S
H1938 C1954 0.959 . S
H1939 C1954 0.959 . S
H1940 C1954 0.961 . S
H1941 C1955 0.960 . S
H1942 C1955 0.961 . S
H1943 C1955 0.959 . S
H1944 C1958 0.929 . S
H1945 C1959 0.931 . S
H1946 C1961 0.930 . S
C1947 H1935 0.930 . S
C1947 C1948 1.399 . S
C1947 C1952 1.399 . S
C1948 C1947 1.399 . S
C1948 C1949 1.376 . S
C1949 H1936 0.930 . S
C1949 C1948 1.376 . S
C1949 C1950 1.388 . S
C1950 H1937 0.930 . S
C1950 C1949 1.388 . S
C1950 C1951 1.390 . S
C1951 C1950 1.390 . S
C1951 C1952 1.394 . S
C1951 C1957 1.465 . S
C1952 C1947 1.399 . S
C1952 C1951 1.394 . S
C1952 C1953 1.516 . S
C1953 C1952 1.516 . S
C1953 C1954 1.502 . S
C1953 C1955 1.561 . S
C1953 C1956 1.526 . S
C1954 H1938 0.959 . S
C1954 H1939 0.959 . S
C1954 H1940 0.961 . S
C1954 C1953 1.502 . S
C1955 H1941 0.960 . S
C1955 H1942 0.961 . S
C1955 H1943 0.959 . S
C1955 C1953 1.561 . S
C1956 C1953 1.526 . S
C1956 C1957 1.396 . S
C1956 C1961 1.390 . S
C1957 C1951 1.465 . S
C1957 C1956 1.396 . S
C1957 C1958 1.399 . S
C1958 H1944 0.929 . S
C1958 C1957 1.399 . S
C1958 C1959 1.385 . S
C1959 H1945 0.931 . S
C1959 C1958 1.385 . S
C1959 C1960 1.389 . S
C1960 C1959 1.389 . S
C1960 C1961 1.387 . S
C1961 H1946 0.930 . S
C1961 C1956 1.390 . S
C1961 C1960 1.387 . S
H1962 C1974 0.930 . S
H1963 C1976 0.930 . S
H1964 C1977 0.930 . S
H1965 C1981 0.959 . S
H1966 C1981 0.959 . S
H1967 C1981 0.961 . S
H1968 C1982 0.960 . S
H1969 C1982 0.961 . S
H1970 C1982 0.959 . S
H1971 C1985 0.929 . S
H1972 C1986 0.931 . S
H1973 C1988 0.930 . S
C1974 H1962 0.930 . S
C1974 C1975 1.399 . S
C1974 C1979 1.399 . S
C1975 C1974 1.399 . S
C1975 C1976 1.376 . S
C1976 H1963 0.930 . S
C1976 C1975 1.376 . S
C1976 C1977 1.388 . S
C1977 H1964 0.930 . S
C1977 C1976 1.388 . S
C1977 C1978 1.390 . S
C1978 C1977 1.390 . S
C1978 C1979 1.394 . S
C1978 C1984 1.465 . S
C1979 C1974 1.399 . S
C1979 C1978 1.394 . S
C1979 C1980 1.516 . S
C1980 C1979 1.516 . S
C1980 C1981 1.502 . S
C1980 C1982 1.561 . S
C1980 C1983 1.526 . S
C1981 H1965 0.959 . S
C1981 H1966 0.959 . S
C1981 H1967 0.961 . S
C1981 C1980 1.502 . S
C1982 H1968 0.960 . S
C1982 H1969 0.961 . S
C1982 H1970 0.959 . S
C1982 C1980 1.561 . S
C1983 C1980 1.526 . S
C1983 C1984 1.396 . S
C1983 C1988 1.390 . S
C1984 C1978 1.465 . S
C1984 C1983 1.396 . S
C1984 C1985 1.399 . S
C1985 H1971 0.929 . S
C1985 C1984 1.399 . S
C1985 C1986 1.385 . S
C1986 H1972 0.931 . S
C1986 C1985 1.385 . S
C1986 C1987 1.389 . S
C1987 C1986 1.389 . S
C1987 C1988 1.387 . S
C1988 H1973 0.930 . S
C1988 C1983 1.390 . S
C1988 C1987 1.387 . S
H1989 C2001 0.930 . S
H1990 C2003 0.930 . S
H1991 C2004 0.930 . S
H1992 C2008 0.959 . S
H1993 C2008 0.959 . S
H1994 C2008 0.961 . S
H1995 C2009 0.960 . S
H1996 C2009 0.961 . S
H1997 C2009 0.959 . S
H1998 C2012 0.929 . S
H1999 C2013 0.931 . S
H2000 C2015 0.930 . S
C2001 H1989 0.930 . S
C2001 C2002 1.399 . S
C2001 C2006 1.399 . S
C2002 C2001 1.399 . S
C2002 C2003 1.376 . S
C2003 H1990 0.930 . S
C2003 C2002 1.376 . S
C2003 C2004 1.388 . S
C2004 H1991 0.930 . S
C2004 C2003 1.388 . S
C2004 C2005 1.390 . S
C2005 C2004 1.390 . S
C2005 C2006 1.394 . S
C2005 C2011 1.465 . S
C2006 C2001 1.399 . S
C2006 C2005 1.394 . S
C2006 C2007 1.516 . S
C2007 C2006 1.516 . S
C2007 C2008 1.502 . S
C2007 C2009 1.561 . S
C2007 C2010 1.526 . S
C2008 H1992 0.959 . S
C2008 H1993 0.959 . S
C2008 H1994 0.961 . S
C2008 C2007 1.502 . S
C2009 H1995 0.960 . S
C2009 H1996 0.961 . S
C2009 H1997 0.959 . S
C2009 C2007 1.561 . S
C2010 C2007 1.526 . S
C2010 C2011 1.396 . S
C2010 C2015 1.390 . S
C2011 C2005 1.465 . S
C2011 C2010 1.396 . S
C2011 C2012 1.399 . S
C2012 H1998 0.929 . S
C2012 C2011 1.399 . S
C2012 C2013 1.385 . S
C2013 H1999 0.931 . S
C2013 C2012 1.385 . S
C2013 C2014 1.389 . S
C2014 C2013 1.389 . S
C2014 C2015 1.387 . S
C2015 H2000 0.930 . S
C2015 C2010 1.390 . S
C2015 C2014 1.387 . S
H2016 C2028 0.930 . S
H2017 C2030 0.930 . S
H2018 C2031 0.930 . S
H2019 C2035 0.959 . S
H2020 C2035 0.959 . S
H2021 C2035 0.961 . S
H2022 C2036 0.960 . S
H2023 C2036 0.961 . S
H2024 C2036 0.959 . S
H2025 C2039 0.929 . S
H2026 C2040 0.931 . S
H2027 C2042 0.930 . S
C2028 H2016 0.930 . S
C2028 C2029 1.399 . S
C2028 C2033 1.399 . S
C2029 C2028 1.399 . S
C2029 C2030 1.376 . S
C2030 H2017 0.930 . S
C2030 C2029 1.376 . S
C2030 C2031 1.388 . S
C2031 H2018 0.930 . S
C2031 C2030 1.388 . S
C2031 C2032 1.390 . S
C2032 C2031 1.390 . S
C2032 C2033 1.394 . S
C2032 C2038 1.465 . S
C2033 C2028 1.399 . S
C2033 C2032 1.394 . S
C2033 C2034 1.516 . S
C2034 C2033 1.516 . S
C2034 C2035 1.502 . S
C2034 C2036 1.561 . S
C2034 C2037 1.526 . S
C2035 H2019 0.959 . S
C2035 H2020 0.959 . S
C2035 H2021 0.961 . S
C2035 C2034 1.502 . S
C2036 H2022 0.960 . S
C2036 H2023 0.961 . S
C2036 H2024 0.959 . S
C2036 C2034 1.561 . S
C2037 C2034 1.526 . S
C2037 C2038 1.396 . S
C2037 C2042 1.390 . S
C2038 C2032 1.465 . S
C2038 C2037 1.396 . S
C2038 C2039 1.399 . S
C2039 H2025 0.929 . S
C2039 C2038 1.399 . S
C2039 C2040 1.385 . S
C2040 H2026 0.931 . S
C2040 C2039 1.385 . S
C2040 C2041 1.389 . S
C2041 C2040 1.389 . S
C2041 C2042 1.387 . S
C2042 H2027 0.930 . S
C2042 C2037 1.390 . S
C2042 C2041 1.387 . S
H2043 C2055 0.930 . S
H2044 C2057 0.930 . S
H2045 C2058 0.930 . S
H2046 C2062 0.959 . S
H2047 C2062 0.959 . S
H2048 C2062 0.961 . S
H2049 C2063 0.960 . S
H2050 C2063 0.961 . S
H2051 C2063 0.959 . S
H2052 C2066 0.929 . S
H2053 C2067 0.931 . S
H2054 C2069 0.930 . S
C2055 H2043 0.930 . S
C2055 C2056 1.399 . S
C2055 C2060 1.399 . S
C2056 C2055 1.399 . S
C2056 C2057 1.376 . S
C2057 H2044 0.930 . S
C2057 C2056 1.376 . S
C2057 C2058 1.388 . S
C2058 H2045 0.930 . S
C2058 C2057 1.388 . S
C2058 C2059 1.390 . S
C2059 C2058 1.390 . S
C2059 C2060 1.394 . S
C2059 C2065 1.465 . S
C2060 C2055 1.399 . S
C2060 C2059 1.394 . S
C2060 C2061 1.516 . S
C2061 C2060 1.516 . S
C2061 C2062 1.502 . S
C2061 C2063 1.561 . S
C2061 C2064 1.526 . S
C2062 H2046 0.959 . S
C2062 H2047 0.959 . S
C2062 H2048 0.961 . S
C2062 C2061 1.502 . S
C2063 H2049 0.960 . S
C2063 H2050 0.961 . S
C2063 H2051 0.959 . S
C2063 C2061 1.561 . S
C2064 C2061 1.526 . S
C2064 C2065 1.396 . S
C2064 C2069 1.390 . S
C2065 C2059 1.465 . S
C2065 C2064 1.396 . S
C2065 C2066 1.399 . S
C2066 H2052 0.929 . S
C2066 C2065 1.399 . S
C2066 C2067 1.385 . S
C2067 H2053 0.931 . S
C2067 C2066 1.385 . S
C2067 C2068 1.389 . S
C2068 C2067 1.389 . S
C2068 C2069 1.387 . S
C2069 H2054 0.930 . S
C2069 C2064 1.390 . S
C2069 C2068 1.387 . S
H2070 C2082 0.930 . S
H2071 C2084 0.930 . S
H2072 C2085 0.930 . S
H2073 C2089 0.959 . S
H2074 C2089 0.959 . S
H2075 C2089 0.961 . S
H2076 C2090 0.960 . S
H2077 C2090 0.961 . S
H2078 C2090 0.959 . S
H2079 C2093 0.929 . S
H2080 C2094 0.931 . S
H2081 C2096 0.930 . S
C2082 H2070 0.930 . S
C2082 C2083 1.399 . S
C2082 C2087 1.399 . S
C2083 C2082 1.399 . S
C2083 C2084 1.376 . S
C2084 H2071 0.930 . S
C2084 C2083 1.376 . S
C2084 C2085 1.388 . S
C2085 H2072 0.930 . S
C2085 C2084 1.388 . S
C2085 C2086 1.390 . S
C2086 C2085 1.390 . S
C2086 C2087 1.394 . S
C2086 C2092 1.465 . S
C2087 C2082 1.399 . S
C2087 C2086 1.394 . S
C2087 C2088 1.516 . S
C2088 C2087 1.516 . S
C2088 C2089 1.502 . S
C2088 C2090 1.561 . S
C2088 C2091 1.526 . S
C2089 H2073 0.959 . S
C2089 H2074 0.959 . S
C2089 H2075 0.961 . S
C2089 C2088 1.502 . S
C2090 H2076 0.960 . S
C2090 H2077 0.961 . S
C2090 H2078 0.959 . S
C2090 C2088 1.561 . S
C2091 C2088 1.526 . S
C2091 C2092 1.396 . S
C2091 C2096 1.390 . S
C2092 C2086 1.465 . S
C2092 C2091 1.396 . S
C2092 C2093 1.399 . S
C2093 H2079 0.929 . S
C2093 C2092 1.399 . S
C2093 C2094 1.385 . S
C2094 H2080 0.931 . S
C2094 C2093 1.385 . S
C2094 C2095 1.389 . S
C2095 C2094 1.389 . S
C2095 C2096 1.387 . S
C2096 H2081 0.930 . S
C2096 C2091 1.390 . S
C2096 C2095 1.387 . S
H2097 C2109 0.930 . S
H2098 C2111 0.930 . S
H2099 C2112 0.930 . S
H2100 C2116 0.959 . S
H2101 C2116 0.959 . S
H2102 C2116 0.961 . S
H2103 C2117 0.960 . S
H2104 C2117 0.961 . S
H2105 C2117 0.959 . S
H2106 C2120 0.929 . S
H2107 C2121 0.931 . S
H2108 C2123 0.930 . S
C2109 H2097 0.930 . S
C2109 C2110 1.399 . S
C2109 C2114 1.399 . S
C2110 C2109 1.399 . S
C2110 C2111 1.376 . S
C2111 H2098 0.930 . S
C2111 C2110 1.376 . S
C2111 C2112 1.388 . S
C2112 H2099 0.930 . S
C2112 C2111 1.388 . S
C2112 C2113 1.390 . S
C2113 C2112 1.390 . S
C2113 C2114 1.394 . S
C2113 C2119 1.465 . S
C2114 C2109 1.399 . S
C2114 C2113 1.394 . S
C2114 C2115 1.516 . S
C2115 C2114 1.516 . S
C2115 C2116 1.502 . S
C2115 C2117 1.561 . S
C2115 C2118 1.526 . S
C2116 H2100 0.959 . S
C2116 H2101 0.959 . S
C2116 H2102 0.961 . S
C2116 C2115 1.502 . S
C2117 H2103 0.960 . S
C2117 H2104 0.961 . S
C2117 H2105 0.959 . S
C2117 C2115 1.561 . S
C2118 C2115 1.526 . S
C2118 C2119 1.396 . S
C2118 C2123 1.390 . S
C2119 C2113 1.465 . S
C2119 C2118 1.396 . S
C2119 C2120 1.399 . S
C2120 H2106 0.929 . S
C2120 C2119 1.399 . S
C2120 C2121 1.385 . S
C2121 H2107 0.931 . S
C2121 C2120 1.385 . S
C2121 C2122 1.389 . S
C2122 C2121 1.389 . S
C2122 C2123 1.387 . S
C2123 H2108 0.930 . S
C2123 C2118 1.390 . S
C2123 C2122 1.387 . S
H2124 C2136 0.930 . S
H2125 C2138 0.930 . S
H2126 C2139 0.930 . S
H2127 C2143 0.959 . S
H2128 C2143 0.959 . S
H2129 C2143 0.961 . S
H2130 C2144 0.960 . S
H2131 C2144 0.961 . S
H2132 C2144 0.959 . S
H2133 C2147 0.929 . S
H2134 C2148 0.931 . S
H2135 C2150 0.930 . S
C2136 H2124 0.930 . S
C2136 C2137 1.399 . S
C2136 C2141 1.399 . S
C2137 C2136 1.399 . S
C2137 C2138 1.376 . S
C2138 H2125 0.930 . S
C2138 C2137 1.376 . S
C2138 C2139 1.388 . S
C2139 H2126 0.930 . S
C2139 C2138 1.388 . S
C2139 C2140 1.390 . S
C2140 C2139 1.390 . S
C2140 C2141 1.394 . S
C2140 C2146 1.465 . S
C2141 C2136 1.399 . S
C2141 C2140 1.394 . S
C2141 C2142 1.516 . S
C2142 C2141 1.516 . S
C2142 C2143 1.502 . S
C2142 C2144 1.561 . S
C2142 C2145 1.526 . S
C2143 H2127 0.959 . S
C2143 H2128 0.959 . S
C2143 H2129 0.961 . S
C2143 C2142 1.502 . S
C2144 H2130 0.960 . S
C2144 H2131 0.961 . S
C2144 H2132 0.959 . S
C2144 C2142 1.561 . S
C2145 C2142 1.526 . S
C2145 C2146 1.396 . S
C2145 C2150 1.390 . S
C2146 C2140 1.465 . S
C2146 C2145 1.396 . S
C2146 C2147 1.399 . S
C2147 H2133 0.929 . S
C2147 C2146 1.399 . S
C2147 C2148 1.385 . S
C2148 H2134 0.931 . S
C2148 C2147 1.385 . S
C2148 C2149 1.389 . S
C2149 C2148 1.389 . S
C2149 C2150 1.387 . S
C2150 H2135 0.930 . S
C2150 C2145 1.390 . S
C2150 C2149 1.387 . S
H2151 C2163 0.930 . S
H2152 C2165 0.930 . S
H2153 C2166 0.930 . S
H2154 C2170 0.959 . S
H2155 C2170 0.959 . S
H2156 C2170 0.961 . S
H2157 C2171 0.960 . S
H2158 C2171 0.961 . S
H2159 C2171 0.959 . S
H2160 C2174 0.929 . S
H2161 C2175 0.931 . S
H2162 C2177 0.930 . S
C2163 H2151 0.930 . S
C2163 C2164 1.399 . S
C2163 C2168 1.399 . S
C2164 C2163 1.399 . S
C2164 C2165 1.376 . S
C2165 H2152 0.930 . S
C2165 C2164 1.376 . S
C2165 C2166 1.388 . S
C2166 H2153 0.930 . S
C2166 C2165 1.388 . S
C2166 C2167 1.390 . S
C2167 C2166 1.390 . S
C2167 C2168 1.394 . S
C2167 C2173 1.465 . S
C2168 C2163 1.399 . S
C2168 C2167 1.394 . S
C2168 C2169 1.516 . S
C2169 C2168 1.516 . S
C2169 C2170 1.502 . S
C2169 C2171 1.561 . S
C2169 C2172 1.526 . S
C2170 H2154 0.959 . S
C2170 H2155 0.959 . S
C2170 H2156 0.961 . S
C2170 C2169 1.502 . S
C2171 H2157 0.960 . S
C2171 H2158 0.961 . S
C2171 H2159 0.959 . S
C2171 C2169 1.561 . S
C2172 C2169 1.526 . S
C2172 C2173 1.396 . S
C2172 C2177 1.390 . S
C2173 C2167 1.465 . S
C2173 C2172 1.396 . S
C2173 C2174 1.399 . S
C2174 H2160 0.929 . S
C2174 C2173 1.399 . S
C2174 C2175 1.385 . S
C2175 H2161 0.931 . S
C2175 C2174 1.385 . S
C2175 C2176 1.389 . S
C2176 C2175 1.389 . S
C2176 C2177 1.387 . S
C2177 H2162 0.930 . S
C2177 C2172 1.390 . S
C2177 C2176 1.387 . S
H2178 C2190 0.930 . S
H2179 C2192 0.930 . S
H2180 C2193 0.930 . S
H2181 C2197 0.959 . S
H2182 C2197 0.959 . S
H2183 C2197 0.961 . S
H2184 C2198 0.960 . S
H2185 C2198 0.961 . S
H2186 C2198 0.959 . S
H2187 C2201 0.929 . S
H2188 C2202 0.931 . S
H2189 C2204 0.930 . S
C2190 H2178 0.930 . S
C2190 C2191 1.399 . S
C2190 C2195 1.399 . S
C2191 C2190 1.399 . S
C2191 C2192 1.376 . S
C2192 H2179 0.930 . S
C2192 C2191 1.376 . S
C2192 C2193 1.388 . S
C2193 H2180 0.930 . S
C2193 C2192 1.388 . S
C2193 C2194 1.390 . S
C2194 C2193 1.390 . S
C2194 C2195 1.394 . S
C2194 C2200 1.465 . S
C2195 C2190 1.399 . S
C2195 C2194 1.394 . S
C2195 C2196 1.516 . S
C2196 C2195 1.516 . S
C2196 C2197 1.502 . S
C2196 C2198 1.561 . S
C2196 C2199 1.526 . S
C2197 H2181 0.959 . S
C2197 H2182 0.959 . S
C2197 H2183 0.961 . S
C2197 C2196 1.502 . S
C2198 H2184 0.960 . S
C2198 H2185 0.961 . S
C2198 H2186 0.959 . S
C2198 C2196 1.561 . S
C2199 C2196 1.526 . S
C2199 C2200 1.396 . S
C2199 C2204 1.390 . S
C2200 C2194 1.465 . S
C2200 C2199 1.396 . S
C2200 C2201 1.399 . S
C2201 H2187 0.929 . S
C2201 C2200 1.399 . S
C2201 C2202 1.385 . S
C2202 H2188 0.931 . S
C2202 C2201 1.385 . S
C2202 C2203 1.389 . S
C2203 C2202 1.389 . S
C2203 C2204 1.387 . S
C2204 H2189 0.930 . S
C2204 C2199 1.390 . S
C2204 C2203 1.387 . S
H2205 C2217 0.930 . S
H2206 C2219 0.930 . S
H2207 C2220 0.930 . S
H2208 C2224 0.959 . S
H2209 C2224 0.959 . S
H2210 C2224 0.961 . S
H2211 C2225 0.960 . S
H2212 C2225 0.961 . S
H2213 C2225 0.959 . S
H2214 C2228 0.929 . S
H2215 C2229 0.931 . S
H2216 C2231 0.930 . S
C2217 H2205 0.930 . S
C2217 C2218 1.399 . S
C2217 C2222 1.399 . S
C2218 C2217 1.399 . S
C2218 C2219 1.376 . S
C2219 H2206 0.930 . S
C2219 C2218 1.376 . S
C2219 C2220 1.388 . S
C2220 H2207 0.930 . S
C2220 C2219 1.388 . S
C2220 C2221 1.390 . S
C2221 C2220 1.390 . S
C2221 C2222 1.394 . S
C2221 C2227 1.465 . S
C2222 C2217 1.399 . S
C2222 C2221 1.394 . S
C2222 C2223 1.516 . S
C2223 C2222 1.516 . S
C2223 C2224 1.502 . S
C2223 C2225 1.561 . S
C2223 C2226 1.526 . S
C2224 H2208 0.959 . S
C2224 H2209 0.959 . S
C2224 H2210 0.961 . S
C2224 C2223 1.502 . S
C2225 H2211 0.960 . S
C2225 H2212 0.961 . S
C2225 H2213 0.959 . S
C2225 C2223 1.561 . S
C2226 C2223 1.526 . S
C2226 C2227 1.396 . S
C2226 C2231 1.390 . S
C2227 C2221 1.465 . S
C2227 C2226 1.396 . S
C2227 C2228 1.399 . S
C2228 H2214 0.929 . S
C2228 C2227 1.399 . S
C2228 C2229 1.385 . S
C2229 H2215 0.931 . S
C2229 C2228 1.385 . S
C2229 C2230 1.389 . S
C2230 C2229 1.389 . S
C2230 C2231 1.387 . S
C2231 H2216 0.930 . S
C2231 C2226 1.390 . S
C2231 C2230 1.387 . S
H2232 C2244 0.930 . S
H2233 C2246 0.930 . S
H2234 C2247 0.930 . S
H2235 C2251 0.959 . S
H2236 C2251 0.959 . S
H2237 C2251 0.961 . S
H2238 C2252 0.960 . S
H2239 C2252 0.961 . S
H2240 C2252 0.959 . S
H2241 C2255 0.929 . S
H2242 C2256 0.931 . S
H2243 C2258 0.930 . S
C2244 H2232 0.930 . S
C2244 C2245 1.399 . S
C2244 C2249 1.399 . S
C2245 C2244 1.399 . S
C2245 C2246 1.376 . S
C2246 H2233 0.930 . S
C2246 C2245 1.376 . S
C2246 C2247 1.388 . S
C2247 H2234 0.930 . S
C2247 C2246 1.388 . S
C2247 C2248 1.390 . S
C2248 C2247 1.390 . S
C2248 C2249 1.394 . S
C2248 C2254 1.465 . S
C2249 C2244 1.399 . S
C2249 C2248 1.394 . S
C2249 C2250 1.516 . S
C2250 C2249 1.516 . S
C2250 C2251 1.502 . S
C2250 C2252 1.561 . S
C2250 C2253 1.526 . S
C2251 H2235 0.959 . S
C2251 H2236 0.959 . S
C2251 H2237 0.961 . S
C2251 C2250 1.502 . S
C2252 H2238 0.960 . S
C2252 H2239 0.961 . S
C2252 H2240 0.959 . S
C2252 C2250 1.561 . S
C2253 C2250 1.526 . S
C2253 C2254 1.396 . S
C2253 C2258 1.390 . S
C2254 C2248 1.465 . S
C2254 C2253 1.396 . S
C2254 C2255 1.399 . S
C2255 H2241 0.929 . S
C2255 C2254 1.399 . S
C2255 C2256 1.385 . S
C2256 H2242 0.931 . S
C2256 C2255 1.385 . S
C2256 C2257 1.389 . S
C2257 C2256 1.389 . S
C2257 C2258 1.387 . S
C2258 H2243 0.930 . S
C2258 C2253 1.390 . S
C2258 C2257 1.387 . S
H2259 C2271 0.930 . S
H2260 C2273 0.930 . S
H2261 C2274 0.930 . S
H2262 C2278 0.959 . S
H2263 C2278 0.959 . S
H2264 C2278 0.961 . S
H2265 C2279 0.960 . S
H2266 C2279 0.961 . S
H2267 C2279 0.959 . S
H2268 C2282 0.929 . S
H2269 C2283 0.931 . S
H2270 C2285 0.930 . S
C2271 H2259 0.930 . S
C2271 C2272 1.399 . S
C2271 C2276 1.399 . S
C2272 C2271 1.399 . S
C2272 C2273 1.376 . S
C2273 H2260 0.930 . S
C2273 C2272 1.376 . S
C2273 C2274 1.388 . S
C2274 H2261 0.930 . S
C2274 C2273 1.388 . S
C2274 C2275 1.390 . S
C2275 C2274 1.390 . S
C2275 C2276 1.394 . S
C2275 C2281 1.465 . S
C2276 C2271 1.399 . S
C2276 C2275 1.394 . S
C2276 C2277 1.516 . S
C2277 C2276 1.516 . S
C2277 C2278 1.502 . S
C2277 C2279 1.561 . S
C2277 C2280 1.526 . S
C2278 H2262 0.959 . S
C2278 H2263 0.959 . S
C2278 H2264 0.961 . S
C2278 C2277 1.502 . S
C2279 H2265 0.960 . S
C2279 H2266 0.961 . S
C2279 H2267 0.959 . S
C2279 C2277 1.561 . S
C2280 C2277 1.526 . S
C2280 C2281 1.396 . S
C2280 C2285 1.390 . S
C2281 C2275 1.465 . S
C2281 C2280 1.396 . S
C2281 C2282 1.399 . S
C2282 H2268 0.929 . S
C2282 C2281 1.399 . S
C2282 C2283 1.385 . S
C2283 H2269 0.931 . S
C2283 C2282 1.385 . S
C2283 C2284 1.389 . S
C2284 C2283 1.389 . S
C2284 C2285 1.387 . S
C2285 H2270 0.930 . S
C2285 C2280 1.390 . S
C2285 C2284 1.387 . S
H2286 C2298 0.930 . S
H2287 C2300 0.930 . S
H2288 C2301 0.930 . S
H2289 C2305 0.959 . S
H2290 C2305 0.959 . S
H2291 C2305 0.961 . S
H2292 C2306 0.960 . S
H2293 C2306 0.961 . S
H2294 C2306 0.959 . S
H2295 C2309 0.929 . S
H2296 C2310 0.931 . S
H2297 C2312 0.930 . S
C2298 H2286 0.930 . S
C2298 C2299 1.399 . S
C2298 C2303 1.399 . S
C2299 C2298 1.399 . S
C2299 C2300 1.376 . S
C2300 H2287 0.930 . S
C2300 C2299 1.376 . S
C2300 C2301 1.388 . S
C2301 H2288 0.930 . S
C2301 C2300 1.388 . S
C2301 C2302 1.390 . S
C2302 C2301 1.390 . S
C2302 C2303 1.394 . S
C2302 C2308 1.465 . S
C2303 C2298 1.399 . S
C2303 C2302 1.394 . S
C2303 C2304 1.516 . S
C2304 C2303 1.516 . S
C2304 C2305 1.502 . S
C2304 C2306 1.561 . S
C2304 C2307 1.526 . S
C2305 H2289 0.959 . S
C2305 H2290 0.959 . S
C2305 H2291 0.961 . S
C2305 C2304 1.502 . S
C2306 H2292 0.960 . S
C2306 H2293 0.961 . S
C2306 H2294 0.959 . S
C2306 C2304 1.561 . S
C2307 C2304 1.526 . S
C2307 C2308 1.396 . S
C2307 C2312 1.390 . S
C2308 C2302 1.465 . S
C2308 C2307 1.396 . S
C2308 C2309 1.399 . S
C2309 H2295 0.929 . S
C2309 C2308 1.399 . S
C2309 C2310 1.385 . S
C2310 H2296 0.931 . S
C2310 C2309 1.385 . S
C2310 C2311 1.389 . S
C2311 C2310 1.389 . S
C2311 C2312 1.387 . S
C2312 H2297 0.930 . S
C2312 C2307 1.390 . S
C2312 C2311 1.387 . S
H2313 C2325 0.930 . S
H2314 C2327 0.930 . S
H2315 C2328 0.930 . S
H2316 C2332 0.959 . S
H2317 C2332 0.959 . S
H2318 C2332 0.961 . S
H2319 C2333 0.960 . S
H2320 C2333 0.961 . S
H2321 C2333 0.959 . S
H2322 C2336 0.929 . S
H2323 C2337 0.931 . S
H2324 C2339 0.930 . S
C2325 H2313 0.930 . S
C2325 C2326 1.399 . S
C2325 C2330 1.399 . S
C2326 C2325 1.399 . S
C2326 C2327 1.376 . S
C2327 H2314 0.930 . S
C2327 C2326 1.376 . S
C2327 C2328 1.388 . S
C2328 H2315 0.930 . S
C2328 C2327 1.388 . S
C2328 C2329 1.390 . S
C2329 C2328 1.390 . S
C2329 C2330 1.394 . S
C2329 C2335 1.465 . S
C2330 C2325 1.399 . S
C2330 C2329 1.394 . S
C2330 C2331 1.516 . S
C2331 C2330 1.516 . S
C2331 C2332 1.502 . S
C2331 C2333 1.561 . S
C2331 C2334 1.526 . S
C2332 H2316 0.959 . S
C2332 H2317 0.959 . S
C2332 H2318 0.961 . S
C2332 C2331 1.502 . S
C2333 H2319 0.960 . S
C2333 H2320 0.961 . S
C2333 H2321 0.959 . S
C2333 C2331 1.561 . S
C2334 C2331 1.526 . S
C2334 C2335 1.396 . S
C2334 C2339 1.390 . S
C2335 C2329 1.465 . S
C2335 C2334 1.396 . S
C2335 C2336 1.399 . S
C2336 H2322 0.929 . S
C2336 C2335 1.399 . S
C2336 C2337 1.385 . S
C2337 H2323 0.931 . S
C2337 C2336 1.385 . S
C2337 C2338 1.389 . S
C2338 C2337 1.389 . S
C2338 C2339 1.387 . S
C2339 H2324 0.930 . S
C2339 C2334 1.390 . S
C2339 C2338 1.387 . S
H2340 C2352 0.930 . S
H2341 C2354 0.930 . S
H2342 C2355 0.930 . S
H2343 C2359 0.959 . S
H2344 C2359 0.959 . S
H2345 C2359 0.961 . S
H2346 C2360 0.960 . S
H2347 C2360 0.961 . S
H2348 C2360 0.959 . S
H2349 C2363 0.929 . S
H2350 C2364 0.931 . S
H2351 C2366 0.930 . S
C2352 H2340 0.930 . S
C2352 C2353 1.399 . S
C2352 C2357 1.399 . S
C2353 C2352 1.399 . S
C2353 C2354 1.376 . S
C2354 H2341 0.930 . S
C2354 C2353 1.376 . S
C2354 C2355 1.388 . S
C2355 H2342 0.930 . S
C2355 C2354 1.388 . S
C2355 C2356 1.390 . S
C2356 C2355 1.390 . S
C2356 C2357 1.394 . S
C2356 C2362 1.465 . S
C2357 C2352 1.399 . S
C2357 C2356 1.394 . S
C2357 C2358 1.516 . S
C2358 C2357 1.516 . S
C2358 C2359 1.502 . S
C2358 C2360 1.561 . S
C2358 C2361 1.526 . S
C2359 H2343 0.959 . S
C2359 H2344 0.959 . S
C2359 H2345 0.961 . S
C2359 C2358 1.502 . S
C2360 H2346 0.960 . S
C2360 H2347 0.961 . S
C2360 H2348 0.959 . S
C2360 C2358 1.561 . S
C2361 C2358 1.526 . S
C2361 C2362 1.396 . S
C2361 C2366 1.390 . S
C2362 C2356 1.465 . S
C2362 C2361 1.396 . S
C2362 C2363 1.399 . S
C2363 H2349 0.929 . S
C2363 C2362 1.399 . S
C2363 C2364 1.385 . S
C2364 H2350 0.931 . S
C2364 C2363 1.385 . S
C2364 C2365 1.389 . S
C2365 C2364 1.389 . S
C2365 C2366 1.387 . S
C2366 H2351 0.930 . S
C2366 C2361 1.390 . S
C2366 C2365 1.387 . S
H2367 C2379 0.930 . S
H2368 C2381 0.930 . S
H2369 C2382 0.930 . S
H2370 C2386 0.959 . S
H2371 C2386 0.959 . S
H2372 C2386 0.961 . S
H2373 C2387 0.960 . S
H2374 C2387 0.961 . S
H2375 C2387 0.959 . S
H2376 C2390 0.929 . S
H2377 C2391 0.931 . S
H2378 C2393 0.930 . S
C2379 H2367 0.930 . S
C2379 C2380 1.399 . S
C2379 C2384 1.399 . S
C2380 C2379 1.399 . S
C2380 C2381 1.376 . S
C2381 H2368 0.930 . S
C2381 C2380 1.376 . S
C2381 C2382 1.388 . S
C2382 H2369 0.930 . S
C2382 C2381 1.388 . S
C2382 C2383 1.390 . S
C2383 C2382 1.390 . S
C2383 C2384 1.394 . S
C2383 C2389 1.465 . S
C2384 C2379 1.399 . S
C2384 C2383 1.394 . S
C2384 C2385 1.516 . S
C2385 C2384 1.516 . S
C2385 C2386 1.502 . S
C2385 C2387 1.561 . S
C2385 C2388 1.526 . S
C2386 H2370 0.959 . S
C2386 H2371 0.959 . S
C2386 H2372 0.961 . S
C2386 C2385 1.502 . S
C2387 H2373 0.960 . S
C2387 H2374 0.961 . S
C2387 H2375 0.959 . S
C2387 C2385 1.561 . S
C2388 C2385 1.526 . S
C2388 C2389 1.396 . S
C2388 C2393 1.390 . S
C2389 C2383 1.465 . S
C2389 C2388 1.396 . S
C2389 C2390 1.399 . S
C2390 H2376 0.929 . S
C2390 C2389 1.399 . S
C2390 C2391 1.385 . S
C2391 H2377 0.931 . S
C2391 C2390 1.385 . S
C2391 C2392 1.389 . S
C2392 C2391 1.389 . S
C2392 C2393 1.387 . S
C2393 H2378 0.930 . S
C2393 C2388 1.390 . S
C2393 C2392 1.387 . S
H2394 C2406 0.930 . S
H2395 C2408 0.930 . S
H2396 C2409 0.930 . S
H2397 C2413 0.959 . S
H2398 C2413 0.959 . S
H2399 C2413 0.961 . S
H2400 C2414 0.960 . S
H2401 C2414 0.961 . S
H2402 C2414 0.959 . S
H2403 C2417 0.929 . S
H2404 C2418 0.931 . S
H2405 C2420 0.930 . S
C2406 H2394 0.930 . S
C2406 C2407 1.399 . S
C2406 C2411 1.399 . S
C2407 C2406 1.399 . S
C2407 C2408 1.376 . S
C2408 H2395 0.930 . S
C2408 C2407 1.376 . S
C2408 C2409 1.388 . S
C2409 H2396 0.930 . S
C2409 C2408 1.388 . S
C2409 C2410 1.390 . S
C2410 C2409 1.390 . S
C2410 C2411 1.394 . S
C2410 C2416 1.465 . S
C2411 C2406 1.399 . S
C2411 C2410 1.394 . S
C2411 C2412 1.516 . S
C2412 C2411 1.516 . S
C2412 C2413 1.502 . S
C2412 C2414 1.561 . S
C2412 C2415 1.526 . S
C2413 H2397 0.959 . S
C2413 H2398 0.959 . S
C2413 H2399 0.961 . S
C2413 C2412 1.502 . S
C2414 H2400 0.960 . S
C2414 H2401 0.961 . S
C2414 H2402 0.959 . S
C2414 C2412 1.561 . S
C2415 C2412 1.526 . S
C2415 C2416 1.396 . S
C2415 C2420 1.390 . S
C2416 C2410 1.465 . S
C2416 C2415 1.396 . S
C2416 C2417 1.399 . S
C2417 H2403 0.929 . S
C2417 C2416 1.399 . S
C2417 C2418 1.385 . S
C2418 H2404 0.931 . S
C2418 C2417 1.385 . S
C2418 C2419 1.389 . S
C2419 C2418 1.389 . S
C2419 C2420 1.387 . S
C2420 H2405 0.930 . S
C2420 C2415 1.390 . S
C2420 C2419 1.387 . S
H2421 C2433 0.930 . S
H2422 C2435 0.930 . S
H2423 C2436 0.930 . S
H2424 C2440 0.959 . S
H2425 C2440 0.959 . S
H2426 C2440 0.961 . S
H2427 C2441 0.960 . S
H2428 C2441 0.961 . S
H2429 C2441 0.959 . S
H2430 C2444 0.929 . S
H2431 C2445 0.931 . S
H2432 C2447 0.930 . S
C2433 H2421 0.930 . S
C2433 C2434 1.399 . S
C2433 C2438 1.399 . S
C2434 C2433 1.399 . S
C2434 C2435 1.376 . S
C2435 H2422 0.930 . S
C2435 C2434 1.376 . S
C2435 C2436 1.388 . S
C2436 H2423 0.930 . S
C2436 C2435 1.388 . S
C2436 C2437 1.390 . S
C2437 C2436 1.390 . S
C2437 C2438 1.394 . S
C2437 C2443 1.465 . S
C2438 C2433 1.399 . S
C2438 C2437 1.394 . S
C2438 C2439 1.516 . S
C2439 C2438 1.516 . S
C2439 C2440 1.502 . S
C2439 C2441 1.561 . S
C2439 C2442 1.526 . S
C2440 H2424 0.959 . S
C2440 H2425 0.959 . S
C2440 H2426 0.961 . S
C2440 C2439 1.502 . S
C2441 H2427 0.960 . S
C2441 H2428 0.961 . S
C2441 H2429 0.959 . S
C2441 C2439 1.561 . S
C2442 C2439 1.526 . S
C2442 C2443 1.396 . S
C2442 C2447 1.390 . S
C2443 C2437 1.465 . S
C2443 C2442 1.396 . S
C2443 C2444 1.399 . S
C2444 H2430 0.929 . S
C2444 C2443 1.399 . S
C2444 C2445 1.385 . S
C2445 H2431 0.931 . S
C2445 C2444 1.385 . S
C2445 C2446 1.389 . S
C2446 C2445 1.389 . S
C2446 C2447 1.387 . S
C2447 H2432 0.930 . S
C2447 C2442 1.390 . S
C2447 C2446 1.387 . S
C1003 C177 1.460 . S
C1015 C301 1.433 . S
C1030 C190 1.475 . S
C1042 C385 1.430 . S
C1057 C164 1.455 . S
C1069 C465 1.438 . S
C1084 C151 1.429 . S
C1096 C381 1.435 1_556 S
C1123 C469 1.331 . S
C1111 C125 1.421 . S
C1138 C138 1.392 . S
C1150 C297 1.389 1_556 S
C1177 C290 1.458 . S
C1165 C147 1.447 . S
C1204 C374 1.468 . S
C1192 C121 1.449 . S
C1219 C134 1.451 . S
C1231 C476 1.440 1_556 S
C1246 C173 1.408 . S
C1258 C392 1.462 . S
C1273 C186 1.460 . S
C1285 C458 1.454 . S
C1312 C308 1.399 . S
C1300 C160 1.422 . S
C1339 C553 1.433 . S
C1327 C21 1.460 . S
C1354 C34 1.461 . S
C1366 C637 1.378 . S
C1381 C8 1.458 . S
C1393 C717 1.425 . S
C1408 C229 1.438 . S
C1420 C633 1.421 . S
C1435 C203 1.420 . S
C1447 C721 1.334 . S
C1462 C216 1.408 . S
C1474 C549 1.409 . S
C1489 C225 1.456 . S
C1501 C542 1.431 . S
C1516 C199 1.489 . S
C1528 C626 1.472 . S
C1555 C728 1.499 . S
C1543 C212 1.448 . S
C1570 C17 1.427 . S
C1582 C644 1.476 . S
C1609 C710 1.455 . S
C1597 C30 1.460 . S
C1624 C4 1.384 . S
C1636 C560 1.390 . S
C1663 C805 1.360 . S
C1651 C99 1.440 . S
C1678 C112 1.468 . S
C1690 C889 1.395 . S
C1717 C969 1.442 . S
C1705 C86 1.453 . S
C1744 C885 1.410 . S
C1732 C73 1.438 . S
C1771 C973 1.381 . S
C1759 C47 1.432 . S
C1786 C60 1.391 . S
C1798 C801 1.392 . S
C1813 C69 1.408 . S
C1825 C794 1.412 . S
C1840 C43 1.473 . S
C1852 C878 1.490 . S
C1879 C980 1.508 . S
C1867 C56 1.463 . S
C1894 C95 1.423 . S
C1906 C896 1.473 . S
C1921 C108 1.376 . S
C1933 C962 1.381 . S
C1948 C82 1.396 . S
C1960 C812 1.445 . S
C1975 C204 1.571 . S
C1987 C304 1.455 . S
C2014 C388 1.428 . S
C2002 C217 1.620 . S
C2029 C230 1.549 . S
C2041 C460 1.435 . S
C2056 C87 1.564 . S
C2068 C376 1.412 . S
C2083 C100 1.590 . S
C2095 C472 1.450 . S
C2122 C292 1.318 . S
C2110 C113 1.506 . S
C2137 C48 1.540 . S
C2149 C556 1.374 . S
C2164 C61 1.595 . S
C2176 C640 1.473 . S
C2191 C74 1.563 . S
C2203 C712 1.440 . S
C2218 C165 1.591 . S
C2230 C628 1.323 . S
C2257 C724 1.386 . S
C2245 C178 1.555 . S
C2272 C191 1.528 . S
C2284 C544 1.294 . S
C2299 C126 1.570 . S
C2311 C808 1.481 . S
C2326 C139 1.593 . S
C2338 C892 1.461 . S
C2365 C964 1.413 . S
C2353 C152 1.542 . S
C2380 C9 1.576 . S
C2392 C880 1.453 . S
C2407 C22 1.587 . S
C2419 C976 1.430 . S
C2434 C35 1.509 . S
C2446 C796 1.400 . S
