# Generated by pormake.
# Topology anh, (6,3)-cn, num edge types: 1
# Building blocks:
#     Node 0, Type 0, BuildingBlock: PAMTOO_clean_sbu_0, # of connection points: 6
#     Node 1, Type 0, BuildingBlock: PAMTOO_clean_sbu_0, # of connection points: 6
#     Node 2, Type 0, BuildingBlock: PAMTOO_clean_sbu_0, # of connection points: 6
#     Node 3, Type 1, BuildingBlock: MIDCAF_clean_linker_0, # of connection points: 3
#     Node 4, Type 1, BuildingBlock: MIDCAF_clean_linker_0, # of connection points: 3
#     Node 5, Type 1, BuildingBlock: MIDCAF_clean_linker_0, # of connection points: 3
#     Node 6, Type 1, BuildingBlock: MIDCAF_clean_linker_0, # of connection points: 3
#     Node 7, Type 1, BuildingBlock: MIDCAF_clean_linker_0, # of connection points: 3
#     Node 8, Type 1, BuildingBlock: MIDCAF_clean_linker_0, # of connection points: 3
#     Edge 9, Type (0, 1), BuildingBlock: UVAHIK_clean_linker_0, # of connection points: 2
#     Edge 10, Type (0, 1), BuildingBlock: UVAHIK_clean_linker_0, # of connection points: 2
#     Edge 11, Type (0, 1), BuildingBlock: UVAHIK_clean_linker_0, # of connection points: 2
#     Edge 12, Type (0, 1), BuildingBlock: UVAHIK_clean_linker_0, # of connection points: 2
#     Edge 13, Type (0, 1), BuildingBlock: UVAHIK_clean_linker_0, # of connection points: 2
#     Edge 14, Type (0, 1), BuildingBlock: UVAHIK_clean_linker_0, # of connection points: 2
#     Edge 15, Type (0, 1), BuildingBlock: UVAHIK_clean_linker_0, # of connection points: 2
#     Edge 16, Type (0, 1), BuildingBlock: UVAHIK_clean_linker_0, # of connection points: 2
#     Edge 17, Type (0, 1), BuildingBlock: UVAHIK_clean_linker_0, # of connection points: 2
#     Edge 18, Type (0, 1), BuildingBlock: UVAHIK_clean_linker_0, # of connection points: 2
#     Edge 19, Type (0, 1), BuildingBlock: UVAHIK_clean_linker_0, # of connection points: 2
#     Edge 20, Type (0, 1), BuildingBlock: UVAHIK_clean_linker_0, # of connection points: 2
#     Edge 21, Type (0, 1), BuildingBlock: UVAHIK_clean_linker_0, # of connection points: 2
#     Edge 22, Type (0, 1), BuildingBlock: UVAHIK_clean_linker_0, # of connection points: 2
#     Edge 23, Type (0, 1), BuildingBlock: UVAHIK_clean_linker_0, # of connection points: 2
#     Edge 24, Type (0, 1), BuildingBlock: UVAHIK_clean_linker_0, # of connection points: 2
#     Edge 25, Type (0, 1), BuildingBlock: UVAHIK_clean_linker_0, # of connection points: 2
#     Edge 26, Type (0, 1), BuildingBlock: UVAHIK_clean_linker_0, # of connection points: 2
# Relax obj value: 0.162
# Max RMSD: 0.188
# Mean RMSD: 0.150
data_MOF--net-anh--node1-PAMTOO_clean_sbu_0--node2-MIDCAF_clean_linker_0--edge1-UVAHIK_clean_linker_0
_symmetry_space_group_name_H-M    P1
_symmetry_Int_Tables_number       1
_symmetry_cell_setting            triclinic
loop_
_symmetry_equiv_pos_as_xyz
'x, y, z'
_cell_length_a     45.337001
_cell_length_b     43.932648
_cell_length_c     82.91361
_cell_angle_alpha  90.548645
_cell_angle_beta   95.378991
_cell_angle_gamma 107.87057
loop_
_atom_site_label
_atom_site_type_symbol
_atom_site_fract_x
_atom_site_fract_y
_atom_site_fract_z
_atom_type_partial_charge
Dy0 Dy 0.05407 0.5869 0.1488 0.0
Dy1 Dy 1.02708 0.5089 0.14033 0.0
C2 C 0.04912 0.55934 0.11258 0.0
O3 O 1.00271 0.57681 0.14112 0.0
O4 O 0.9858 0.52336 0.14637 0.0
O5 O 0.06053 0.63604 0.14257 0.0
O6 O 0.07802 0.62513 0.16635 0.0
O7 O 0.03846 0.51472 0.16721 0.0
O8 O 1.03314 0.56437 0.17066 0.0
O9 O 0.07834 0.52139 0.13764 0.0
O10 O 0.09597 0.56931 0.15239 0.0
O11 O 1.02696 0.46038 0.14458 0.0
O12 O 0.99429 0.4695 0.12598 0.0
C13 C 0.98002 0.55049 0.14342 0.0
O14 O 0.06515 0.58119 0.12362 0.0
O15 O 1.02925 0.53232 0.11641 0.0
C16 C 0.1068 0.67289 0.15536 0.0
C17 C 0.1649 0.72093 0.15533 0.0
C18 C 0.15728 0.69343 0.14496 0.0
C19 C 0.12851 0.66956 0.14502 0.0
C20 C 0.11415 0.70023 0.16561 0.0
C21 C 0.14288 0.72398 0.16564 0.0
C22 C 0.0771 0.6475 0.15627 0.0
C23 C 1.03483 0.53732 0.17653 0.0
C24 C 0.10126 0.54494 0.1451 0.0
C25 C 0.97672 0.42245 0.14023 0.0
C26 C 0.9251 0.37477 0.15052 0.0
C27 C 0.94117 0.40191 0.16061 0.0
C28 C 0.96664 0.42559 0.15548 0.0
C29 C 0.96103 0.39539 0.1302 0.0
C30 C 0.93547 0.37179 0.13526 0.0
C31 C 1.00245 0.44787 0.1343 0.0
H32 H 0.17349 0.69037 0.13677 0.0
H33 H 0.1233 0.64842 0.1371 0.0
H34 H 0.0978 0.703 0.17381 0.0
H35 H 0.14809 0.74441 0.17403 0.0
H36 H 0.93416 0.40485 0.1725 0.0
H37 H 0.97832 0.44645 0.16337 0.0
H38 H 0.96828 0.39275 0.11831 0.0
H39 H 0.92342 0.35157 0.12705 0.0
Dy40 Dy 0.53878 0.01778 0.50774 0.0
Dy41 Dy 0.61577 0.03833 0.51123 0.0
C42 C 0.57822 0.0278 0.54169 0.0
O43 O 0.55364 0.07028 0.50374 0.0
O44 O 0.60446 0.08375 0.51517 0.0
O45 O 0.49647 -0.0017 0.51917 0.0
O46 O 0.49428 0.01358 0.49444 0.0
O47 O 0.60017 0.04752 0.48595 0.0
O48 O 0.55278 0.00874 0.4835 0.0
O49 O 0.6006 0.9855 0.50597 0.0
O50 O 0.54978 0.97219 0.51212 0.0
O51 O 0.65897 0.03908 0.50205 0.0
O52 O 0.65953 0.06213 0.52536 0.0
C53 C 0.57993 0.09174 0.50943 0.0
O54 O 0.55729 0.03717 0.5329 0.0
O55 O 0.59947 0.01929 0.53477 0.0
C56 C 0.45348 0.96885 0.50148 0.0
C57 C 0.40611 0.90993 0.49446 0.0
C58 C 0.40296 0.93212 0.50602 0.0
C59 C 0.42639 0.96129 0.50946 0.0
C60 C 0.45685 0.94691 0.48994 0.0
C61 C 0.43331 0.9178 0.48639 0.0
C62 C 0.47855 -0.00112 0.50602 0.0
C63 C 0.57627 0.02828 0.47693 0.0
C64 C 0.57434 0.96416 0.50892 0.0
C65 C 0.69947 0.08707 0.50931 0.0
C66 C 0.74405 0.144 0.50137 0.0
C67 C 0.71446 0.13329 0.49253 0.0
C68 C 0.6923 0.10518 0.49653 0.0
C69 C 0.72892 0.09759 0.51813 0.0
C70 C 0.75103 0.12587 0.51422 0.0
C71 C 0.67599 0.05801 0.51393 0.0
H72 H 0.38267 0.92671 0.51269 0.0
H73 H 0.42357 0.97778 0.51855 0.0
H74 H 0.47775 0.95217 0.48375 0.0
H75 H 0.4364 0.90154 0.47728 0.0
H76 H 0.70826 0.14697 0.48271 0.0
H77 H 0.6695 0.09769 0.48971 0.0
H78 H 0.73476 0.08402 0.5281 0.0
H79 H 0.7737 0.13339 0.52116 0.0
Dy80 Dy 0.54555 0.49564 0.84051 0.0
Dy81 Dy 0.46986 0.46891 0.83159 0.0
C82 C 0.51606 0.48798 0.80372 0.0
O83 O 0.52793 0.53627 0.84648 0.0
O84 O 0.4857 0.52149 0.82756 0.0
O85 O 0.58995 0.53216 0.84026 0.0
O86 O 0.58746 0.48655 0.85077 0.0
O87 O 0.47623 0.47837 0.85846 0.0
O88 O 0.52744 0.48031 0.86409 0.0
O89 O 0.48413 0.42635 0.83901 0.0
O90 O 0.53253 0.44532 0.8304 0.0
O91 O 0.42362 0.46831 0.83608 0.0
O92 O 0.42989 0.44054 0.81578 0.0
C93 C 0.50621 0.54349 0.83713 0.0
O94 O 0.53824 0.50514 0.81437 0.0
O95 O 0.49032 0.46809 0.80815 0.0
C96 C 0.62953 0.50921 0.83553 0.0
C97 C 0.6742 0.49927 0.81643 0.0
C98 C 0.65519 0.51758 0.81073 0.0
C99 C 0.63288 0.52235 0.82014 0.0
C100 C 0.64853 0.4909 0.8412 0.0
C101 C 0.67056 0.48583 0.83171 0.0
C102 C 0.60543 0.51296 0.84546 0.0
C103 C 0.50016 0.47864 0.86878 0.0
C104 C 0.50937 0.42139 0.83459 0.0
C105 C 0.39357 0.46872 0.81174 0.0
C106 C 0.35995 0.50551 0.79535 0.0
C107 C 0.39251 0.51773 0.79888 0.0
C108 C 0.40909 0.49937 0.80679 0.0
C109 C 0.36155 0.45539 0.80739 0.0
C110 C 0.34489 0.4735 0.79905 0.0
C111 C 0.4108 0.45239 0.82255 0.0
H112 H 0.65759 0.52819 0.79899 0.0
H113 H 0.6183 0.53627 0.81534 0.0
H114 H 0.6463 0.48045 0.85298 0.0
H115 H 0.68533 0.4721 0.83651 0.0
H116 H 0.40523 0.5422 0.79655 0.0
H117 H 0.43391 0.50981 0.80981 0.0
H118 H 0.34929 0.43152 0.81092 0.0
H119 H 0.32004 0.46279 0.79611 0.0
C120 C 0.45338 0.97461 0.21354 0.0
C121 C 0.45469 0.96451 0.19759 0.0
C122 C 0.48273 0.97634 0.19045 0.0
C123 C 0.50894 -0.00198 0.19913 0.0
H124 H 0.59562 0.07296 0.19496 0.0
H125 H 0.63785 0.11194 0.18282 0.0
H126 H 0.67126 0.16039 0.2296 0.0
H127 H 0.62935 0.12189 0.24172 0.0
H128 H 0.60043 0.09289 0.27322 0.0
H129 H 0.60242 0.09108 0.30264 0.0
H130 H 0.52922 0.00025 0.29814 0.0
H131 H 0.52646 0.00262 0.26882 0.0
H132 H 0.4777 0.00272 0.23461 0.0
H133 H 0.43219 0.96564 0.21941 0.0
H134 H 0.4843 0.96894 0.17814 0.0
H135 H 0.53029 0.00672 0.19338 0.0
N136 N 0.55886 0.05019 0.21773 0.0
N137 N 0.5847 0.06997 0.24339 0.0
N138 N 0.53709 0.02901 0.24136 0.0
C139 C 0.58358 0.07073 0.22695 0.0
C140 C 0.56167 0.04905 0.25069 0.0
C141 C 0.53539 0.0294 0.22493 0.0
C142 C 0.609 0.0942 0.21933 0.0
C143 C 0.61193 0.09196 0.20265 0.0
C144 C 0.6362 0.11418 0.1957 0.0
C145 C 0.65781 0.13931 0.20525 0.0
C146 C 0.65478 0.14156 0.22188 0.0
C147 C 0.6308 0.11927 0.22884 0.0
C148 C 0.56323 0.04796 0.26862 0.0
C149 C 0.58474 0.07254 0.27851 0.0
C150 C 0.586 0.07141 0.29541 0.0
C151 C 0.56596 0.04553 0.30283 0.0
C152 C 0.54461 0.02087 0.2929 0.0
C153 C 0.54315 0.02215 0.27603 0.0
C154 C 0.50769 0.00764 0.21522 0.0
C155 C 0.47958 -0.00429 0.22228 0.0
C156 C 0.6011 0.42761 0.55176 0.0
C157 C 0.58944 0.41829 0.53557 0.0
C158 C 0.57519 0.43776 0.52645 0.0
C159 C 0.5722 0.4657 0.53352 0.0
H160 H 0.59005 0.57532 0.52965 0.0
H161 H 0.58793 0.62541 0.51745 0.0
H162 H 0.53675 0.64259 0.55609 0.0
H163 H 0.53872 0.5931 0.56816 0.0
H164 H 0.56521 0.57107 0.60374 0.0
H165 H 0.55858 0.56717 0.6326 0.0
H166 H 0.55464 0.46778 0.63003 0.0
H167 H 0.56117 0.47146 0.60121 0.0
H168 H 0.60632 0.46102 0.57148 0.0
H169 H 0.61187 0.41297 0.55917 0.0
H170 H 0.56608 0.43119 0.51392 0.0
H171 H 0.56054 0.47991 0.52635 0.0
N172 N 0.57368 0.52717 0.55016 0.0
N173 N 0.56455 0.5494 0.5744 0.0
N174 N 0.57355 0.49983 0.57439 0.0
C175 C 0.56764 0.55143 0.55826 0.0
C176 C 0.56744 0.52371 0.58255 0.0
C177 C 0.57671 0.50126 0.55826 0.0
C178 C 0.56467 0.58025 0.54992 0.0
C179 C 0.57806 0.58966 0.53541 0.0
C180 C 0.57702 0.61839 0.52848 0.0
C181 C 0.56211 0.6379 0.53579 0.0
C182 C 0.54807 0.62795 0.55004 0.0
C183 C 0.54943 0.59962 0.55703 0.0
C184 C 0.56371 0.52157 0.60012 0.0
C185 C 0.56292 0.54836 0.6093 0.0
C186 C 0.5593 0.54621 0.62586 0.0
C187 C 0.55605 0.51717 0.63354 0.0
C188 C 0.55679 0.49039 0.62439 0.0
C189 C 0.56072 0.4926 0.60788 0.0
C190 C 0.58285 0.4742 0.54991 0.0
C191 C 0.59771 0.45507 0.55885 0.0
C192 C 0.97023 0.5743 0.84979 0.0
C193 C 0.97208 0.56219 0.83431 0.0
C194 C 1.00119 0.56355 0.82944 0.0
C195 C 1.02826 0.57789 0.83973 0.0
H196 H 0.11297 0.64159 0.83567 0.0
H197 H 0.15911 0.65758 0.82183 0.0
H198 H 0.21598 0.68229 0.8678 0.0
H199 H 0.16902 0.66452 0.88193 0.0
H200 H 0.13285 0.63857 0.91473 0.0
H201 H 0.13229 0.63474 0.94411 0.0
H202 H 1.03172 0.60073 0.93819 0.0
H203 H 1.03211 0.60482 0.90903 0.0
H204 H 0.99524 0.59752 0.87203 0.0
H205 H 0.94786 0.57326 0.85377 0.0
H206 H 1.00301 0.55431 0.81754 0.0
H207 H 0.05056 0.57921 0.83557 0.0
N208 N 0.08178 0.62119 0.85885 0.0
N209 N 0.10903 0.63685 0.88454 0.0
N210 N 0.05565 0.60781 0.88201 0.0
C211 C 0.10867 0.63646 0.8681 0.0
C212 C 0.08245 0.62258 0.89157 0.0
C213 C 0.05528 0.60688 0.86564 0.0
C214 C 0.13721 0.65101 0.85999 0.0
C215 C 0.13518 0.65069 0.84296 0.0
C216 C 0.16188 0.66046 0.83492 0.0
C217 C 0.19154 0.67122 0.84363 0.0
C218 C 0.19356 0.67364 0.86069 0.0
C219 C 0.16664 0.66355 0.8688 0.0
C220 C 0.08254 0.62196 0.90947 0.0
C221 C 0.11062 0.63053 0.9197 0.0
C222 C 0.11033 0.62814 0.93652 0.0
C223 C 0.08196 0.61743 0.94346 0.0
C224 C 0.05395 0.60942 0.93325 0.0
C225 C 0.05422 0.61158 0.91648 0.0
C226 C 1.02653 0.59043 0.85517 0.0
C227 C 0.99724 0.58801 0.86022 0.0
C228 C 0.16204 0.60406 0.43551 0.0
C229 C 0.16078 0.61563 0.45118 0.0
C230 C 0.1343 0.60154 0.45928 0.0
C231 C 0.10941 0.57657 0.45172 0.0
H232 H 0.0423 0.48006 0.45843 0.0
H233 H 1.00409 0.43897 0.47194 0.0
H234 H 0.93965 0.42278 0.42865 0.0
H235 H 0.97752 0.46353 0.41515 0.0
H236 H 1.0123 0.47382 0.38138 0.0
H237 H 1.00643 0.4733 0.35179 0.0
H238 H 0.08358 0.56055 0.35283 0.0
H239 H 0.08944 0.56136 0.38229 0.0
H240 H 0.13864 0.57166 0.41567 0.0
H241 H 0.182 0.61466 0.42891 0.0
H242 H 0.13281 0.60996 0.47141 0.0
H243 H 0.0891 0.56645 0.45814 0.0
N244 N 0.06155 0.52035 0.43527 0.0
N245 N 1.03345 0.49763 0.41051 0.0
N246 N 0.07971 0.54006 0.41065 0.0
C247 C 0.03657 0.49838 0.427 0.0
C248 C 0.05492 0.51839 0.40225 0.0
C249 C 0.08324 0.54128 0.42711 0.0
C250 C 1.01304 0.47499 0.43568 0.0
C251 C 1.01988 0.46793 0.45185 0.0
C252 C 0.9981 0.44431 0.45956 0.0
C253 C 0.96891 0.42772 0.45134 0.0
C254 C 0.96182 0.43539 0.43534 0.0
C255 C 0.98366 0.45861 0.42758 0.0
C256 C 0.05132 0.51767 0.38427 0.0
C257 C 1.02802 0.49293 0.37532 0.0
C258 C 1.02473 0.4925 0.35836 0.0
C259 C 0.04446 0.51694 0.35001 0.0
C260 C 0.06776 0.5416 0.35894 0.0
C261 C 0.07121 0.54192 0.37585 0.0
C262 C 0.11034 0.56572 0.43583 0.0
C263 C 0.13707 0.57955 0.42789 0.0
C264 C 0.55444 0.10573 0.7995 0.0
C265 C 0.53662 0.10581 0.81246 0.0
C266 C 0.52021 0.07626 0.81858 0.0
C267 C 0.52115 0.04731 0.8116 0.0
H268 H 0.53668 0.94757 0.81949 0.0
H269 H 0.52964 0.89439 0.83054 0.0
H270 H 0.49979 0.85118 0.78239 0.0
H271 H 0.50655 0.90355 0.77146 0.0
H272 H 0.54174 0.94573 0.74278 0.0
H273 H 0.54823 0.94999 0.71391 0.0
H274 H 0.5527 0.04951 0.71694 0.0
H275 H 0.54595 0.04537 0.74566 0.0
H276 H 0.56859 0.07813 0.78226 0.0
H277 H 0.56703 0.12791 0.79431 0.0
H278 H 0.50639 0.07553 0.82862 0.0
H279 H 0.5077 0.0249 0.81626 0.0
N280 N 0.53025 0.98868 0.79628 0.0
N281 N 0.5328 0.96419 0.77128 0.0
N282 N 0.54067 0.01919 0.77316 0.0
C283 C 0.52851 0.96181 0.7873 0.0
C284 C 0.53889 0.99275 0.76411 0.0
C285 C 0.53642 0.01756 0.78915 0.0
C286 C 0.52229 0.92991 0.79457 0.0
C287 C 0.52829 0.92664 0.81133 0.0
C288 C 0.52447 0.89623 0.81764 0.0
C289 C 0.51407 0.86853 0.80735 0.0
C290 C 0.50743 0.87191 0.7907 0.0
C291 C 0.51156 0.90209 0.78441 0.0
C292 C 0.54324 -0.00482 0.7466 0.0
C293 C 0.5441 0.96854 0.73731 0.0
C294 C 0.54799 0.971 0.72078 0.0
C295 C 0.55089 6e-05 0.71315 0.0
C296 C 0.55013 0.02667 0.72242 0.0
C297 C 0.54643 0.0243 0.73894 0.0
C298 C 0.53811 0.04745 0.79823 0.0
C299 C 0.55513 0.07705 0.79248 0.0
C300 C 0.64956 0.57367 0.11995 0.0
C301 C 0.65814 0.55642 0.13277 0.0
C302 C 0.63478 0.5399 0.14251 0.0
C303 C 0.60333 0.53882 0.13869 0.0
H304 H 0.4977 0.57628 0.14331 0.0
H305 H 0.44705 0.57682 0.15158 0.0
H306 H 0.40091 0.49482 0.11928 0.0
H307 H 0.45075 0.49386 0.11164 0.0
H308 H 0.47204 0.51154 0.07455 0.0
H309 H 0.46406 0.50103 0.04533 0.0
H310 H 0.56358 0.53568 0.04296 0.0
H311 H 0.57168 0.54538 0.07219 0.0
H312 H 0.61291 0.58517 0.10573 0.0
H313 H 0.66682 0.58729 0.1124 0.0
H314 H 0.64048 0.52636 0.15251 0.0
H315 H 0.58563 0.52415 0.14568 0.0
N316 N 0.53676 0.54498 0.12664 0.0
N317 N 0.50318 0.53258 0.10233 0.0
N318 N 0.55647 0.54236 0.1015 0.0
C319 C 0.50721 0.53766 0.11869 0.0
C320 C 0.52752 0.53495 0.09364 0.0
C321 C 0.56163 0.54726 0.11786 0.0
C322 C 0.47845 0.53489 0.12689 0.0
C323 C 0.47674 0.5578 0.13844 0.0
C324 C 0.44755 0.55838 0.14296 0.0
C325 C 0.41938 0.53594 0.1361 0.0
C326 C 0.42163 0.51227 0.12513 0.0
C327 C 0.45048 0.51177 0.12066 0.0
C328 C 0.52253 0.52922 0.07578 0.0
C329 C 0.49226 0.51698 0.06781 0.0
C330 C 0.48764 0.51109 0.05102 0.0
C331 C 0.51317 0.51742 0.04177 0.0
C332 C 0.5434 0.52997 0.04973 0.0
C333 C 0.54803 0.5357 0.06652 0.0
C334 C 0.59471 0.55441 0.12512 0.0
C335 C 0.61853 0.57269 0.11621 0.0
C336 C 0.15969 0.57201 0.14925 0.0
C337 C 0.13424 0.54434 0.14506 0.0
C338 C 0.19058 0.57165 0.14887 0.0
C339 C 0.23771 0.52244 0.13285 0.0
H340 H 0.30442 0.57819 0.16219 0.0
C341 C 0.36198 0.50955 0.13936 0.0
C342 C 0.38765 0.53764 0.13947 0.0
C343 C 0.33174 0.51094 0.14067 0.0
C344 C 0.28614 0.56261 0.15381 0.0
H345 H 0.12189 0.49433 0.13743 0.0
H346 H 0.17523 0.49328 0.13731 0.0
H347 H 0.25106 0.57904 0.1633 0.0
H348 H 0.40082 0.58944 0.14172 0.0
H349 H 0.34826 0.59175 0.14445 0.0
H350 H 0.27281 0.50556 0.12365 0.0
C351 C 0.17159 0.51573 0.14044 0.0
C352 C 0.25532 0.56314 0.15438 0.0
C353 C 0.14072 0.51622 0.14063 0.0
C354 C 0.38201 0.56718 0.14171 0.0
C355 C 0.35169 0.56855 0.14321 0.0
C356 C 0.2684 0.52163 0.13243 0.0
C357 C 0.19721 0.54349 0.14445 0.0
C358 C 0.23043 0.54304 0.14391 0.0
C359 C 0.32595 0.54044 0.14238 0.0
C360 C 0.29316 0.54166 0.1429 0.0
H361 H 0.15579 0.59425 0.1526 0.0
H362 H 0.20923 0.59377 0.15177 0.0
H363 H 0.21976 0.50708 0.12425 0.0
H364 H 0.3651 0.48621 0.13813 0.0
H365 H 0.31278 0.48872 0.14034 0.0
C366 C 0.77238 0.18054 0.48095 0.0
C367 C 0.76744 0.17404 0.4972 0.0
C368 C 0.79417 0.20892 0.47697 0.0
C369 C 0.86286 0.27526 0.49442 0.0
H370 H 0.84431 0.31703 0.45553 0.0
C371 C 0.9558 0.37746 0.46692 0.0
C372 C 0.94623 0.40151 0.45904 0.0
C373 C 0.93393 0.35108 0.47277 0.0
C374 C 0.84977 0.30599 0.46656 0.0
H375 H 0.78126 0.19235 0.52203 0.0
H376 H 0.81898 0.24217 0.51511 0.0
H377 H 0.8061 0.26882 0.46337 0.0
H378 H 0.90653 0.4177 0.45186 0.0
H379 H 0.86843 0.37215 0.46239 0.0
H380 H 0.90626 0.31299 0.49781 0.0
C381 C 0.80649 0.22505 0.50543 0.0
C382 C 0.82799 0.27797 0.47092 0.0
C383 C 0.78483 0.19653 0.50941 0.0
C384 C 0.91451 0.39928 0.45768 0.0
C385 C 0.89268 0.37308 0.46365 0.0
C386 C 0.8846 0.30345 0.49011 0.0
C387 C 0.81141 0.23164 0.48915 0.0
C388 C 0.83434 0.26206 0.48483 0.0
C389 C 0.90201 0.34829 0.47098 0.0
C390 C 0.87843 0.31906 0.47605 0.0
H391 H 0.75965 0.16346 0.47129 0.0
H392 H 0.79777 0.21283 0.46433 0.0
H393 H 0.8687 0.26354 0.50513 0.0
H394 H 0.98006 0.37839 0.46799 0.0
H395 H 0.94197 0.33231 0.47815 0.0
C396 C 0.53017 0.60244 0.84435 0.0
C397 C 0.50581 0.57718 0.83643 0.0
C398 C 0.53045 0.63429 0.84271 0.0
C399 C 0.49782 0.68444 0.81511 0.0
H400 H 0.52572 0.74816 0.85052 0.0
C401 C 0.48537 0.80978 0.80778 0.0
C402 C 0.51099 0.83608 0.81358 0.0
C403 C 0.48405 0.77869 0.81197 0.0
C404 C 0.51811 0.73071 0.84048 0.0
H405 H 0.46202 0.56572 0.8211 0.0
H406 H 0.46231 0.6208 0.81847 0.0
H407 H 0.52491 0.69299 0.85517 0.0
H408 H 0.55477 0.85035 0.82891 0.0
H409 H 0.55253 0.7959 0.83623 0.0
H410 H 0.49115 0.7219 0.80038 0.0
C411 C 0.4816 0.6162 0.82565 0.0
C412 C 0.51766 0.69907 0.84314 0.0
C413 C 0.48136 0.58449 0.82724 0.0
C414 C 0.53461 0.83063 0.82432 0.0
C415 C 0.53333 0.79941 0.8285 0.0
C416 C 0.49823 0.71592 0.81247 0.0
C417 C 0.50636 0.6416 0.83314 0.0
C418 C 0.50732 0.67547 0.83049 0.0
C419 C 0.50836 0.77297 0.82206 0.0
C420 C 0.50818 0.73947 0.82512 0.0
H421 H 0.5494 0.59771 0.85151 0.0
H422 H 0.55 0.65322 0.84857 0.0
H423 H 0.49042 0.66718 0.80497 0.0
H424 H 0.46649 0.81319 0.79974 0.0
H425 H 0.46408 0.75904 0.80711 0.0
C426 C 0.93982 0.58023 0.14275 0.0
C427 C 0.94699 0.55119 0.14296 0.0
C428 C 0.90876 0.58053 0.14247 0.0
C429 C 0.82675 0.52937 0.13145 0.0
H430 H 0.80504 0.59195 0.15721 0.0
C431 C 0.70561 0.54949 0.12141 0.0
C432 C 0.69087 0.55438 0.135 0.0
C433 C 0.73639 0.54847 0.12304 0.0
C434 C 0.8106 0.57415 0.15 0.0
H435 H 0.92643 0.49962 0.143 0.0
H436 H 0.87271 0.50017 0.14232 0.0
H437 H 0.85926 0.59183 0.1587 0.0
H438 H 0.69751 0.56178 0.16111 0.0
H439 H 0.75155 0.5603 0.16399 0.0
H440 H 0.77828 0.51178 0.12267 0.0
C441 C 0.89106 0.5228 0.14235 0.0
C442 C 0.84185 0.57429 0.15073 0.0
C443 C 0.92206 0.52251 0.14283 0.0
C444 C 0.70797 0.55791 0.15037 0.0
C445 C 0.73908 0.55732 0.15199 0.0
C446 C 0.79566 0.52949 0.13057 0.0
C447 C 0.88382 0.55179 0.14217 0.0
C448 C 0.85045 0.55187 0.14146 0.0
C449 C 0.75378 0.55255 0.13833 0.0
C450 C 0.78702 0.5519 0.1398 0.0
H451 H 0.95823 0.60283 0.14288 0.0
H452 H 0.90424 0.60334 0.1422 0.0
H453 H 0.8323 0.51186 0.12402 0.0
H454 H 0.69322 0.54629 0.10938 0.0
H455 H 0.74677 0.54501 0.1122 0.0
C456 C 0.34963 0.87647 0.49082 0.0
C457 C 0.38129 0.87863 0.49101 0.0
C458 C 0.32636 0.84705 0.48778 0.0
C459 C 0.31069 0.76786 0.46816 0.0
H460 H 0.24144 0.74263 0.49447 0.0
C461 C 0.21767 0.64454 0.45785 0.0
C462 C 0.18652 0.64337 0.45857 0.0
C463 C 0.24196 0.67201 0.46327 0.0
C464 C 0.26042 0.74943 0.48689 0.0
H465 H 0.41312 0.85113 0.48836 0.0
H466 H 0.37243 0.79998 0.48268 0.0
H467 H 0.28263 0.79333 0.50071 0.0
H468 H 0.15634 0.66974 0.46582 0.0
H469 H 0.19863 0.718 0.47498 0.0
H470 H 0.28829 0.72462 0.45403 0.0
C471 C 0.36572 0.82118 0.48483 0.0
C472 C 0.28405 0.77845 0.4905 0.0
C473 C 0.38902 0.85056 0.48801 0.0
C474 C 0.18016 0.66986 0.46529 0.0
C475 C 0.20445 0.6975 0.47055 0.0
C476 C 0.28696 0.73901 0.46445 0.0
C477 C 0.33415 0.81911 0.48471 0.0
C478 C 0.30938 0.788 0.48114 0.0
C479 C 0.23568 0.69914 0.46936 0.0
C480 C 0.26145 0.72941 0.47374 0.0
H481 H 0.34273 0.89762 0.49278 0.0
H482 H 0.30221 0.84627 0.48753 0.0
H483 H 0.32971 0.77479 0.46059 0.0
H484 H 0.22324 0.62428 0.45291 0.0
H485 H 0.26569 0.67206 0.46252 0.0
C486 C 0.4858 0.36161 0.8357 0.0
C487 C 0.5117 0.38842 0.83385 0.0
C488 C 0.48817 0.33058 0.8347 0.0
C489 C 0.53763 0.28557 0.81906 0.0
H490 H 0.49395 0.21885 0.84635 0.0
C491 C 0.56047 0.16421 0.82033 0.0
C492 C 0.53414 0.13679 0.81871 0.0
C493 C 0.5576 0.19432 0.82373 0.0
C494 C 0.50613 0.2372 0.83859 0.0
H495 H 0.56066 0.40356 0.82993 0.0
H496 H 0.56495 0.34984 0.82854 0.0
H497 H 0.48912 0.27258 0.84904 0.0
H498 H 0.48432 0.11944 0.82026 0.0
H499 H 0.47935 0.17214 0.82639 0.0
H500 H 0.55478 0.25038 0.80868 0.0
C501 C 0.54254 0.35257 0.83035 0.0
C502 C 0.5033 0.26799 0.84007 0.0
C503 C 0.54012 0.38349 0.83123 0.0
C504 C 0.5051 0.14001 0.82154 0.0
C505 C 0.50224 0.17024 0.825 0.0
C506 C 0.5406 0.25496 0.81766 0.0
C507 C 0.51655 0.32563 0.83191 0.0
C508 C 0.51912 0.29264 0.83035 0.0
C509 C 0.52834 0.19785 0.82568 0.0
C510 C 0.52501 0.2304 0.82743 0.0
H511 H 0.46354 0.36453 0.83771 0.0
H512 H 0.46757 0.31047 0.83579 0.0
H513 H 0.54956 0.30361 0.81108 0.0
H514 H 0.58329 0.16252 0.81856 0.0
H515 H 0.57828 0.215 0.82454 0.0
C516 C 0.5442 0.90636 0.51145 0.0
C517 C 0.57249 0.92982 0.50922 0.0
C518 C 0.54259 0.87418 0.51252 0.0
C519 C 0.5836 0.81547 0.50391 0.0
H520 H 0.53619 0.76835 0.53723 0.0
C521 C 0.58957 0.69114 0.52472 0.0
C522 C 0.56205 0.66924 0.52918 0.0
C523 C 0.59031 0.7222 0.52057 0.0
C524 C 0.54915 0.78094 0.52769 0.0
H525 H 0.62116 0.93753 0.50598 0.0
H526 H 0.61838 0.88136 0.50802 0.0
H527 H 0.53861 0.82377 0.53336 0.0
H528 H 0.51324 0.66198 0.5317 0.0
H529 H 0.51439 0.71583 0.52427 0.0
H530 H 0.59434 0.77249 0.49839 0.0
C531 C 0.59736 0.88788 0.50879 0.0
C532 C 0.55056 0.81281 0.52548 0.0
C533 C 0.59898 0.92014 0.5077 0.0
C534 C 0.53494 0.67851 0.5286 0.0
C535 C 0.53564 0.70941 0.5244 0.0
C536 C 0.58218 0.78348 0.50613 0.0
C537 C 0.56922 0.86456 0.51141 0.0
C538 C 0.56773 0.83049 0.51355 0.0
C539 C 0.56351 0.73193 0.52074 0.0
C540 C 0.56486 0.7658 0.51803 0.0
H541 H 0.52322 0.91281 0.51251 0.0
H542 H 0.5204 0.85679 0.51424 0.0
H543 H 0.5968 0.8283 0.49451 0.0
H544 H 0.61089 0.68479 0.52518 0.0
H545 H 0.61222 0.73897 0.51791 0.0
C546 C 0.72059 0.52384 0.80165 0.0
C547 C 0.69963 0.49631 0.80721 0.0
C548 C 0.7481 0.52242 0.79593 0.0
C549 C 0.80153 0.47585 0.80417 0.0
H550 H 0.85308 0.54323 0.7799 0.0
C551 C 0.92479 0.56843 0.8189 0.0
C552 C 0.94358 0.54912 0.82315 0.0
C553 C 0.89624 0.55557 0.80965 0.0
C554 C 0.83888 0.52383 0.78645 0.0
H555 H 0.68904 0.4451 0.80948 0.0
H556 H 0.73685 0.44234 0.79905 0.0
H557 H 0.79645 0.52984 0.77558 0.0
H558 H 0.94844 0.50186 0.82059 0.0
H559 H 0.89749 0.47878 0.80479 0.0
H560 H 0.84399 0.47096 0.8156 0.0
C561 C 0.73257 0.46525 0.79958 0.0
C562 C 0.80649 0.51628 0.78408 0.0
C563 C 0.70521 0.46678 0.80553 0.0
C564 C 0.93414 0.51708 0.81742 0.0
C565 C 0.9052 0.50398 0.80839 0.0
C566 C 0.83385 0.48308 0.80636 0.0
C567 C 0.75509 0.49334 0.79549 0.0
C568 C 0.78757 0.49374 0.79375 0.0
C569 C 0.88576 0.52301 0.80471 0.0
C570 C 0.8528 0.50851 0.79828 0.0
H571 H 0.71691 0.54694 0.80288 0.0
H572 H 0.7649 0.54468 0.79311 0.0
H573 H 0.78791 0.45841 0.8119 0.0
H574 H 0.93183 0.59327 0.82315 0.0
H575 H 0.88152 0.57065 0.80724 0.0
C576 C 0.22318 0.73767 0.15461 0.0
C577 C 0.19585 0.74602 0.1558 0.0
C578 C 0.25237 0.76116 0.1561 0.0
C579 C 0.29069 0.84967 0.15627 0.0
H580 H 0.35808 0.83 0.18189 0.0
C581 C 0.39747 0.94556 0.18875 0.0
C582 C 0.42685 0.94107 0.18878 0.0
C583 C 0.37065 0.92204 0.18197 0.0
C584 C 0.33966 0.83573 0.17449 0.0
H585 H 0.17794 0.78598 0.1588 0.0
H586 H 0.22862 0.82657 0.16202 0.0
H587 H 0.30858 0.78816 0.1753 0.0
H588 H 0.45134 0.90882 0.1814 0.0
H589 H 0.40425 0.86737 0.16963 0.0
H590 H 0.32156 0.89766 0.15612 0.0
C591 C 0.22761 0.80196 0.15969 0.0
C592 C 0.31123 0.81171 0.17067 0.0
C593 C 0.19846 0.77854 0.15809 0.0
C594 C 0.42899 0.91296 0.18145 0.0
C595 C 0.40206 0.88918 0.17484 0.0
C596 C 0.31901 0.87375 0.16024 0.0
C597 C 0.25503 0.79359 0.15889 0.0
C598 C 0.28617 0.81847 0.16172 0.0
C599 C 0.37257 0.89332 0.17523 0.0
C600 C 0.34365 0.86715 0.1696 0.0
H601 H 0.22216 0.71288 0.15297 0.0
H602 H 0.27289 0.75382 0.15518 0.0
H603 H 0.27222 0.85566 0.14906 0.0
H604 H 0.39518 0.96708 0.19426 0.0
H605 H 0.34827 0.92583 0.18258 0.0
C606 C 0.55572 0.13584 0.50495 0.0
C607 C 0.58191 0.12612 0.50982 0.0
C608 C 0.5575 0.16821 0.50592 0.0
C609 C 0.6034 0.24418 0.52756 0.0
H610 H 0.56201 0.28309 0.49453 0.0
C611 C 0.61791 0.37841 0.53185 0.0
C612 C 0.59073 0.38731 0.52882 0.0
C613 C 0.61794 0.34755 0.52766 0.0
C614 C 0.57351 0.27252 0.50391 0.0
H615 H 0.63082 0.14314 0.51907 0.0
H616 H 0.6339 0.19936 0.52063 0.0
H617 H 0.55968 0.22705 0.49096 0.0
H618 H 0.54263 0.37125 0.51838 0.0
H619 H 0.54254 0.31716 0.51115 0.0
H620 H 0.61687 0.28923 0.54065 0.0
C621 C 0.61183 0.18193 0.51632 0.0
C622 C 0.57216 0.2404 0.50187 0.0
C623 C 0.61006 0.14963 0.51536 0.0
C624 C 0.564 0.36516 0.52075 0.0
C625 C 0.56397 0.33415 0.51662 0.0
C626 C 0.60472 0.27617 0.52961 0.0
C627 C 0.5855 0.19161 0.51178 0.0
C628 C 0.58711 0.22585 0.51369 0.0
C629 C 0.59073 0.32472 0.52042 0.0
C630 C 0.58983 0.29081 0.51782 0.0
H631 H 0.53366 0.11842 0.50062 0.0
H632 H 0.53671 0.1748 0.50246 0.0
H633 H 0.61465 0.23361 0.53706 0.0
H634 H 0.63901 0.39513 0.53783 0.0
H635 H 0.63918 0.34138 0.5304 0.0
C636 C 0.3127 0.52385 0.79584 0.0
C637 C 0.34183 0.52757 0.79012 0.0
C638 C 0.299 0.54821 0.7944 0.0
C639 C 0.32311 0.63059 0.80054 0.0
H640 H 0.23582 0.62236 0.78998 0.0
C641 C 0.22004 0.68475 0.8187 0.0
C642 C 0.21962 0.67508 0.83487 0.0
C643 C 0.24123 0.67884 0.80886 0.0
C644 C 0.26048 0.6256 0.79262 0.0
H645 H 0.37718 0.55859 0.77645 0.0
H646 H 0.35414 0.60211 0.77513 0.0
H647 H 0.25771 0.58409 0.778 0.0
H648 H 0.24413 0.65562 0.85385 0.0
H649 H 0.28172 0.64678 0.83692 0.0
H650 H 0.32497 0.6698 0.81663 0.0
C651 C 0.34206 0.58005 0.78059 0.0
C652 C 0.2729 0.60366 0.7858 0.0
C653 C 0.35537 0.55522 0.78158 0.0
C654 C 0.24362 0.66352 0.84153 0.0
C655 C 0.26523 0.65833 0.83179 0.0
C656 C 0.31051 0.65213 0.80763 0.0
C657 C 0.31433 0.57707 0.78749 0.0
C658 C 0.30394 0.60518 0.79028 0.0
C659 C 0.26303 0.66418 0.81517 0.0
C660 C 0.27875 0.64887 0.80427 0.0
H661 H 0.30147 0.50334 0.80264 0.0
H662 H 0.27769 0.54554 0.79996 0.0
H663 H 0.34705 0.63196 0.80429 0.0
H664 H 0.20257 0.69475 0.8133 0.0
H665 H 0.23931 0.68379 0.7961 0.0
C666 C 0.89187 0.31731 0.15189 0.0
C667 C 0.89733 0.34998 0.15572 0.0
C668 C 0.86547 0.29414 0.15649 0.0
C669 C 0.78699 0.28458 0.16961 0.0
H670 H 0.7931 0.20305 0.18438 0.0
C671 C 0.69114 0.19587 0.20223 0.0
C672 C 0.68364 0.1631 0.19805 0.0
C673 C 0.71634 0.21822 0.19614 0.0
C674 C 0.79093 0.22555 0.1801 0.0
H675 H 0.87893 0.38372 0.16738 0.0
H676 H 0.83363 0.34337 0.17586 0.0
H677 H 0.83902 0.2429 0.17595 0.0
H678 H 0.69656 0.12813 0.18405 0.0
H679 H 0.74068 0.16725 0.17337 0.0
H680 H 0.739 0.26736 0.17409 0.0
C681 C 0.84947 0.33564 0.16904 0.0
C682 C 0.81726 0.24843 0.17524 0.0
C683 C 0.87577 0.3588 0.16438 0.0
C684 C 0.70165 0.15323 0.18742 0.0
C685 C 0.72707 0.17558 0.18143 0.0
C686 C 0.76073 0.26179 0.17457 0.0
C687 C 0.84388 0.30299 0.16511 0.0
C688 C 0.81569 0.27833 0.17 0.0
C689 C 0.7348 0.20832 0.1858 0.0
C690 C 0.76242 0.23206 0.17993 0.0
H691 H 0.9081 0.30953 0.14541 0.0
H692 H 0.86183 0.2693 0.15309 0.0
H693 H 0.78468 0.30704 0.16535 0.0
H694 H 0.67754 0.20426 0.21028 0.0
H695 H 0.72181 0.24321 0.19984 0.0
C696 C 0.07352 0.59504 0.09089 0.0
C697 C 0.05376 0.56549 0.09531 0.0
C698 C 0.07783 0.6011 0.07463 0.0
C699 C 0.07099 0.56124 0.0345 0.0
H700 H 0.07032 0.64368 0.01843 0.0
C701 C 0.10126 0.59947 0.96996 0.0
C702 C 0.08133 0.61384 0.96123 0.0
C703 C 0.09924 0.59431 0.9865 0.0
C704 C 0.07046 0.62051 0.02272 0.0
H705 H 1.02322 0.51904 0.08603 0.0
H706 H 1.03071 0.52972 0.05762 0.0
H707 H 0.06341 0.63252 0.04683 0.0
H708 H 0.04432 0.63496 0.96311 0.0
H709 H 0.04066 0.62579 -0.00809 0.0
H710 H 0.07752 0.54906 0.0103 0.0
C711 C 0.04302 0.54809 0.06679 0.0
C712 C 0.0668 0.61422 0.03902 0.0
C713 C 0.03859 0.54206 0.08307 0.0
C714 C 0.05981 0.62357 0.96947 0.0
C715 C 0.05791 0.61857 0.986 0.0
C716 C 0.07481 0.5676 0.0182 0.0
C717 C 0.0626 0.57774 0.06239 0.0
C718 C 0.06689 0.58447 0.04509 0.0
C719 C 0.0774 0.60362 -0.00533 0.0
C720 C 0.07443 0.59725 0.01211 0.0
H721 H 0.08567 0.61364 0.09998 0.0
H722 H 0.09336 0.62403 0.07165 0.0
H723 H 0.07146 0.5382 0.03884 0.0
H724 H 0.1179 0.59148 0.96392 0.0
H725 H 0.11479 0.58301 -0.00711 0.0
C726 C 0.54798 0.01404 0.4491 0.0
C727 C 0.57556 0.0292 0.45906 0.0
C728 C 0.54717 0.01567 0.43223 0.0
C729 C 0.59002 0.06246 0.39988 0.0
H730 H 0.54025 0.98953 0.37231 0.0
C731 C 0.59597 0.05492 0.33054 0.0
C732 C 0.5673 0.04412 0.32083 0.0
C733 C 0.59717 0.05326 0.34741 0.0
C734 C 0.55407 0.01016 0.37986 0.0
H735 H 0.62411 0.05745 0.45911 0.0
H736 H 0.62296 0.05953 0.42975 0.0
H737 H 0.54231 0.98581 0.40169 0.0
H738 H 0.51732 0.02372 0.32144 0.0
H739 H 0.51959 0.0202 0.35082 0.0
H740 H 0.60215 0.08653 0.37795 0.0
C741 C 0.60168 0.04706 0.43493 0.0
C742 C 0.55519 0.0081 0.39671 0.0
C743 C 0.60241 0.04569 0.45179 0.0
C744 C 0.53988 0.03167 0.32846 0.0
C745 C 0.54113 0.02972 0.34531 0.0
C746 C 0.58913 0.06439 0.38303 0.0
C747 C 0.57401 0.03224 0.42492 0.0
C748 C 0.5731 0.03427 0.40695 0.0
C749 C 0.56978 0.04048 0.35496 0.0
C750 C 0.57105 0.03831 0.37285 0.0
H751 H 0.52683 0.0013 0.45432 0.0
H752 H 0.52532 0.00438 0.42496 0.0
H753 H 0.6036 0.0833 0.40734 0.0
H754 H 0.61762 0.06416 0.32511 0.0
H755 H 0.61963 0.06141 0.35455 0.0
C756 C 0.54567 0.51502 0.78106 0.0
C757 C 0.52025 0.4911 0.78625 0.0
C758 C 0.54949 0.51819 0.76457 0.0
C759 C 0.50626 0.49571 0.72373 0.0
H760 H 0.58922 0.51805 0.70968 0.0
C761 C 0.52889 0.48858 0.65658 0.0
C762 C 0.5518 0.51471 0.65105 0.0
C763 C 0.52491 0.48616 0.67308 0.0
C764 C 0.56594 0.51207 0.71345 0.0
H765 H 0.4791 0.4515 0.77817 0.0
H766 H 0.48619 0.45651 0.74947 0.0
H767 H 0.58261 0.51243 0.73846 0.0
H768 H 0.58868 0.55862 0.65843 0.0
H769 H 0.58179 0.55431 0.68732 0.0
H770 H 0.48966 0.49479 0.69862 0.0
C771 C 0.50281 0.47332 0.7581 0.0
C772 C 0.56212 0.50893 0.72994 0.0
C773 C 0.49885 0.47031 0.77458 0.0
C774 C 0.5707 0.53834 0.66235 0.0
C775 C 0.56693 0.53574 0.67887 0.0
C776 C 0.51008 0.49858 0.70723 0.0
C777 C 0.52813 0.49737 0.75287 0.0
C778 C 0.53223 0.50072 0.7353 0.0
C779 C 0.54396 0.50964 0.68439 0.0
C780 C 0.53995 0.50681 0.70192 0.0
H781 H 0.56253 0.53156 0.78971 0.0
H782 H 0.56899 0.5373 0.76099 0.0
H783 H 0.48295 0.48996 0.72741 0.0
H784 H 0.51384 0.47015 0.64812 0.0
H785 H 0.50718 0.46566 0.677 0.0
C786 C 0.59707 0.01259 0.56893 0.0
C787 C 0.57738 0.02625 0.55948 0.0
C788 C 0.59549 0.01022 0.58566 0.0
C789 C 0.56956 0.04421 0.62051 0.0
H790 H 0.5683 0.96433 0.64038 0.0
C791 C 0.53781 0.01902 0.68576 0.0
C792 C 0.55451 0.0027 0.69555 0.0
C793 C 0.54148 0.022 0.66925 0.0
C794 C 0.56905 0.98696 0.63508 0.0
H795 H 0.54085 0.04846 0.56024 0.0
H796 H 0.53818 0.04436 0.58938 0.0
H797 H 0.57375 0.96987 0.61147 0.0
H798 H 0.5883 0.97687 0.69571 0.0
H799 H 0.59497 0.98233 0.66689 0.0
H800 H 0.56502 0.06142 0.64406 0.0
C801 C 0.55494 0.03564 0.58388 0.0
C802 C 0.57215 0.99011 0.61851 0.0
C803 C 0.55637 0.03783 0.56715 0.0
C804 C 0.57484 0.98926 0.68843 0.0
C805 C 0.57863 0.99238 0.67192 0.0
C806 C 0.56663 0.04113 0.63708 0.0
C807 C 0.57436 0.02167 0.5933 0.0
C808 C 0.5722 0.01869 0.61102 0.0
C809 C 0.56205 0.00887 0.66213 0.0
C810 C 0.56609 0.01238 0.64456 0.0
H811 H 0.61352 0.00343 0.5634 0.0
H812 H 0.61097 -0.00038 0.59263 0.0
H813 H 0.57001 0.06671 0.61513 0.0
H814 H 0.52159 0.02918 0.69083 0.0
H815 H 0.52785 0.03428 0.66203 0.0
C816 C 0.47151 0.48474 0.89252 0.0
C817 C 0.49693 0.47822 0.88639 0.0
C818 C 0.46979 0.48637 0.90927 0.0
C819 C 0.49999 0.46199 0.94828 0.0
H820 H 0.48359 0.53606 0.96654 0.0
C821 C 0.52853 0.49804 0.0162 0.0
C822 C 0.50836 0.51078 0.02392 0.0
C823 C 0.52439 0.49217 -0.00057 0.0
C824 C 0.48769 0.51494 0.96165 0.0
H825 H 0.53997 0.46736 0.89305 0.0
H826 H 0.53682 0.47003 0.92213 0.0
H827 H 0.48038 0.52833 0.93717 0.0
H828 H 0.46793 0.52734 0.01995 0.0
H829 H 0.46018 0.51627 0.99073 0.0
H830 H 0.50742 0.44856 0.97268 0.0
C831 C 0.51822 0.47385 0.91402 0.0
C832 C 0.48587 0.51055 0.94481 0.0
C833 C 0.5201 0.47253 0.89734 0.0
C834 C 0.48373 0.51722 0.01444 0.0
C835 C 0.4795 0.51123 -0.00236 0.0
C836 C 0.50162 0.46625 0.96509 0.0
C837 C 0.49324 0.48111 0.92018 0.0
C838 C 0.49249 0.48429 0.93797 0.0
C839 C 0.49984 0.49872 0.98992 0.0
C840 C 0.49599 0.49306 0.97201 0.0
H841 H 0.4533 0.48929 0.88442 0.0
H842 H 0.45015 0.49179 0.91368 0.0
H843 H 0.50476 0.44127 0.94334 0.0
H844 H 0.5475 0.49237 0.02313 0.0
H845 H 0.54078 0.48295 -0.00611 0.0
C846 C 1.03307 0.55833 0.20442 0.0
C847 C 1.03325 0.53279 0.19414 0.0
C848 C 1.03311 0.5549 0.22113 0.0
C849 C 1.01542 0.49609 0.25285 0.0
H850 H 0.07257 0.56524 0.28026 0.0
C851 C 0.03677 0.48887 0.32267 0.0
C852 C 0.0409 0.51697 0.33204 0.0
C853 C 1.03493 0.48945 0.30574 0.0
C854 C 0.05618 0.54589 0.27281 0.0
H855 H 1.03277 0.48324 0.19334 0.0
H856 H 1.0328 0.47728 0.22265 0.0
H857 H 0.07081 0.56849 0.25094 0.0
H858 H 0.04493 0.56735 0.33103 0.0
H859 H 0.04129 0.56834 0.30157 0.0
H860 H 1.00055 0.47365 0.27479 0.0
C861 C 1.0326 0.49995 0.2177 0.0
C862 C 0.05524 0.54773 0.256 0.0
C863 C 1.03275 0.50343 0.20093 0.0
C864 C 0.04234 0.54545 0.32414 0.0
C865 C 0.04033 0.546 0.30726 0.0
C866 C 1.01623 0.49431 0.26973 0.0
C867 C 1.03321 0.52582 0.22797 0.0
C868 C 1.03469 0.52301 0.24583 0.0
C869 C 0.03703 0.51813 0.29785 0.0
C870 C 0.03646 0.51935 0.2799 0.0
H871 H 1.03333 0.58126 0.19963 0.0
H872 H 1.03308 0.57511 0.22871 0.0
H873 H 0.99919 0.47678 0.2453 0.0
H874 H 0.03583 0.46663 0.32845 0.0
H875 H 1.03269 0.46763 0.29888 0.0
loop_
_geom_bond_atom_site_label_1
_geom_bond_atom_site_label_2
_geom_bond_distance
_geom_bond_site_symmetry_2
_ccdc_geom_bond_type
Dy0 O3 2.307 1_455 S
Dy0 O5 2.395 . S
Dy0 O6 2.379 . S
Dy0 O8 2.339 . S
Dy0 O10 2.298 . S
Dy0 O14 2.275 . S
Dy0 C22 2.738 . S
Dy1 O4 2.298 . S
Dy1 O7 2.275 1_655 S
Dy1 O9 2.307 1_655 S
Dy1 O11 2.395 . S
Dy1 O12 2.379 . S
Dy1 O15 2.339 . S
Dy1 C31 2.738 . S
C2 O14 1.254 . S
C2 O15 1.257 1_455 S
O3 Dy0 2.307 1_655 S
O3 C13 1.266 . S
O4 Dy1 2.298 . S
O4 C13 1.236 . S
O5 Dy0 2.395 . S
O5 C22 1.255 . S
O6 Dy0 2.379 . S
O6 C22 1.249 . S
O7 Dy1 2.275 1_455 S
O7 C23 1.254 . S
O8 Dy0 2.339 . S
O8 C23 1.257 . S
O9 Dy1 2.307 1_455 S
O9 C24 1.266 . S
O10 Dy0 2.298 . S
O10 C24 1.236 . S
O11 Dy1 2.395 . S
O11 C31 1.255 . S
O12 Dy1 2.379 . S
O12 C31 1.249 . S
C13 O3 1.266 . S
C13 O4 1.236 . S
O14 Dy0 2.275 . S
O14 C2 1.254 . S
O15 Dy1 2.339 . S
O15 C2 1.257 1_655 S
C16 C19 1.344 . S
C16 C20 1.328 . S
C16 C22 1.516 . S
C17 C18 1.304 . S
C17 C21 1.323 . S
C18 C17 1.304 . S
C18 C19 1.371 . S
C18 H32 0.930 . S
C19 C16 1.344 . S
C19 C18 1.371 . S
C19 H33 0.931 . S
C20 C16 1.328 . S
C20 C21 1.433 . S
C20 H34 0.931 . S
C21 C17 1.323 . S
C21 C20 1.433 . S
C21 H35 0.933 . S
C22 Dy0 2.738 . S
C22 O5 1.255 . S
C22 O6 1.249 . S
C22 C16 1.516 . S
C23 O7 1.254 . S
C23 O8 1.257 . S
C24 O9 1.266 . S
C24 O10 1.236 . S
C25 C28 1.344 . S
C25 C29 1.328 . S
C25 C31 1.516 . S
C26 C27 1.304 . S
C26 C30 1.323 . S
C27 C26 1.304 . S
C27 C28 1.371 . S
C27 H36 0.930 . S
C28 C25 1.344 . S
C28 C27 1.371 . S
C28 H37 0.931 . S
C29 C25 1.328 . S
C29 C30 1.433 . S
C29 H38 0.931 . S
C30 C26 1.323 . S
C30 C29 1.433 . S
C30 H39 0.933 . S
C31 Dy1 2.738 . S
C31 O11 1.255 . S
C31 O12 1.249 . S
C31 C25 1.516 . S
H32 C18 0.930 . S
H33 C19 0.931 . S
H34 C20 0.931 . S
H35 C21 0.933 . S
H36 C27 0.930 . S
H37 C28 0.931 . S
H38 C29 0.931 . S
H39 C30 0.933 . S
Dy40 O43 2.307 . S
Dy40 O45 2.395 1_545 S
Dy40 O46 2.379 1_545 S
Dy40 O48 2.339 . S
Dy40 O50 2.298 1_545 S
Dy40 O54 2.275 . S
Dy40 C62 2.738 1_545 S
Dy41 O44 2.298 . S
Dy41 O47 2.275 . S
Dy41 O49 2.307 1_545 S
Dy41 O51 2.395 . S
Dy41 O52 2.379 . S
Dy41 O55 2.339 . S
Dy41 C71 2.738 . S
C42 O54 1.254 . S
C42 O55 1.257 . S
O43 Dy40 2.307 . S
O43 C53 1.266 . S
O44 Dy41 2.298 . S
O44 C53 1.236 . S
O45 Dy40 2.395 1_565 S
O45 C62 1.255 . S
O46 Dy40 2.379 1_565 S
O46 C62 1.249 . S
O47 Dy41 2.275 . S
O47 C63 1.254 . S
O48 Dy40 2.339 . S
O48 C63 1.257 . S
O49 Dy41 2.307 1_565 S
O49 C64 1.266 . S
O50 Dy40 2.298 1_565 S
O50 C64 1.236 . S
O51 Dy41 2.395 . S
O51 C71 1.255 . S
O52 Dy41 2.379 . S
O52 C71 1.249 . S
C53 O43 1.266 . S
C53 O44 1.236 . S
O54 Dy40 2.275 . S
O54 C42 1.254 . S
O55 Dy41 2.339 . S
O55 C42 1.257 . S
C56 C59 1.344 . S
C56 C60 1.328 . S
C56 C62 1.516 . S
C57 C58 1.304 . S
C57 C61 1.323 . S
C58 C57 1.304 . S
C58 C59 1.371 . S
C58 H72 0.930 . S
C59 C56 1.344 . S
C59 C58 1.371 . S
C59 H73 0.931 . S
C60 C56 1.328 . S
C60 C61 1.433 . S
C60 H74 0.931 . S
C61 C57 1.323 . S
C61 C60 1.433 . S
C61 H75 0.933 . S
C62 Dy40 2.738 1_565 S
C62 O45 1.255 . S
C62 O46 1.249 . S
C62 C56 1.516 . S
C63 O47 1.254 . S
C63 O48 1.257 . S
C64 O49 1.266 . S
C64 O50 1.236 . S
C65 C68 1.344 . S
C65 C69 1.328 . S
C65 C71 1.516 . S
C66 C67 1.304 . S
C66 C70 1.323 . S
C67 C66 1.304 . S
C67 C68 1.371 . S
C67 H76 0.930 . S
C68 C65 1.344 . S
C68 C67 1.371 . S
C68 H77 0.931 . S
C69 C65 1.328 . S
C69 C70 1.433 . S
C69 H78 0.931 . S
C70 C66 1.323 . S
C70 C69 1.433 . S
C70 H79 0.933 . S
C71 Dy41 2.738 . S
C71 O51 1.255 . S
C71 O52 1.249 . S
C71 C65 1.516 . S
H72 C58 0.930 . S
H73 C59 0.931 . S
H74 C60 0.931 . S
H75 C61 0.933 . S
H76 C67 0.930 . S
H77 C68 0.931 . S
H78 C69 0.931 . S
H79 C70 0.933 . S
Dy80 O83 2.307 . S
Dy80 O85 2.395 . S
Dy80 O86 2.379 . S
Dy80 O88 2.339 . S
Dy80 O90 2.298 . S
Dy80 O94 2.275 . S
Dy80 C102 2.738 . S
Dy81 O84 2.298 . S
Dy81 O87 2.275 . S
Dy81 O89 2.307 . S
Dy81 O91 2.395 . S
Dy81 O92 2.379 . S
Dy81 O95 2.339 . S
Dy81 C111 2.738 . S
C82 O94 1.254 . S
C82 O95 1.257 . S
O83 Dy80 2.307 . S
O83 C93 1.266 . S
O84 Dy81 2.298 . S
O84 C93 1.236 . S
O85 Dy80 2.395 . S
O85 C102 1.255 . S
O86 Dy80 2.379 . S
O86 C102 1.249 . S
O87 Dy81 2.275 . S
O87 C103 1.254 . S
O88 Dy80 2.339 . S
O88 C103 1.257 . S
O89 Dy81 2.307 . S
O89 C104 1.266 . S
O90 Dy80 2.298 . S
O90 C104 1.236 . S
O91 Dy81 2.395 . S
O91 C111 1.255 . S
O92 Dy81 2.379 . S
O92 C111 1.249 . S
C93 O83 1.266 . S
C93 O84 1.236 . S
O94 Dy80 2.275 . S
O94 C82 1.254 . S
O95 Dy81 2.339 . S
O95 C82 1.257 . S
C96 C99 1.344 . S
C96 C100 1.328 . S
C96 C102 1.516 . S
C97 C98 1.304 . S
C97 C101 1.323 . S
C98 C97 1.304 . S
C98 C99 1.371 . S
C98 H112 0.930 . S
C99 C96 1.344 . S
C99 C98 1.371 . S
C99 H113 0.931 . S
C100 C96 1.328 . S
C100 C101 1.433 . S
C100 H114 0.931 . S
C101 C97 1.323 . S
C101 C100 1.433 . S
C101 H115 0.933 . S
C102 Dy80 2.738 . S
C102 O85 1.255 . S
C102 O86 1.249 . S
C102 C96 1.516 . S
C103 O87 1.254 . S
C103 O88 1.257 . S
C104 O89 1.266 . S
C104 O90 1.236 . S
C105 C108 1.344 . S
C105 C109 1.328 . S
C105 C111 1.516 . S
C106 C107 1.304 . S
C106 C110 1.323 . S
C107 C106 1.304 . S
C107 C108 1.371 . S
C107 H116 0.930 . S
C108 C105 1.344 . S
C108 C107 1.371 . S
C108 H117 0.931 . S
C109 C105 1.328 . S
C109 C110 1.433 . S
C109 H118 0.931 . S
C110 C106 1.323 . S
C110 C109 1.433 . S
C110 H119 0.933 . S
C111 Dy81 2.738 . S
C111 O91 1.255 . S
C111 O92 1.249 . S
C111 C105 1.516 . S
H112 C98 0.930 . S
H113 C99 0.931 . S
H114 C100 0.931 . S
H115 C101 0.933 . S
H116 C107 0.930 . S
H117 C108 0.931 . S
H118 C109 0.931 . S
H119 C110 0.933 . S
C120 C121 1.384 . S
C120 H133 0.947 . S
C120 C155 1.382 . S
C121 C120 1.384 . S
C121 C122 1.378 . S
C122 C121 1.378 . S
C122 C123 1.378 1_565 S
C122 H134 0.952 . S
C123 C122 1.378 1_545 S
C123 H135 0.950 . S
C123 C154 1.383 . S
H124 C143 0.947 . S
H125 C144 0.946 . S
H126 C146 0.953 . S
H127 C147 0.945 . S
H128 C149 0.952 . S
H129 C150 0.949 . S
H130 C152 0.950 . S
H131 C153 0.948 . S
H132 C155 0.951 . S
H133 C120 0.947 . S
H134 C122 0.952 . S
H135 C123 0.950 . S
N136 C139 1.382 . S
N136 C141 1.363 . S
N137 C139 1.371 . S
N137 C140 1.372 . S
N138 C140 1.361 . S
N138 C141 1.377 . S
C139 N136 1.382 . S
C139 N137 1.371 . S
C139 C142 1.480 . S
C140 N137 1.372 . S
C140 N138 1.361 . S
C140 C148 1.457 . S
C141 N136 1.363 . S
C141 N138 1.377 . S
C141 C154 1.479 . S
C142 C139 1.480 . S
C142 C143 1.383 . S
C142 C147 1.385 . S
C143 H124 0.947 . S
C143 C142 1.383 . S
C143 C144 1.388 . S
C144 H125 0.946 . S
C144 C143 1.388 . S
C144 C145 1.384 . S
C145 C144 1.384 . S
C145 C146 1.377 . S
C146 H126 0.953 . S
C146 C145 1.377 . S
C146 C147 1.369 . S
C147 H127 0.945 . S
C147 C142 1.385 . S
C147 C146 1.369 . S
C148 C140 1.457 . S
C148 C149 1.372 . S
C148 C153 1.364 . S
C149 H128 0.952 . S
C149 C148 1.372 . S
C149 C150 1.389 . S
C150 H129 0.949 . S
C150 C149 1.389 . S
C150 C151 1.387 . S
C151 C150 1.387 . S
C151 C152 1.372 . S
C152 H130 0.950 . S
C152 C151 1.372 . S
C152 C153 1.379 . S
C153 H131 0.948 . S
C153 C148 1.364 . S
C153 C152 1.379 . S
C154 C123 1.383 . S
C154 C141 1.479 . S
C154 C155 1.398 1_545 S
C155 C120 1.382 . S
C155 H132 0.951 . S
C155 C154 1.398 1_565 S
C156 C157 1.384 . S
C156 H169 0.947 . S
C156 C191 1.382 . S
C157 C156 1.384 . S
C157 C158 1.378 . S
C158 C157 1.378 . S
C158 C159 1.378 . S
C158 H170 0.952 . S
C159 C158 1.378 . S
C159 H171 0.950 . S
C159 C190 1.383 . S
H160 C179 0.947 . S
H161 C180 0.946 . S
H162 C182 0.953 . S
H163 C183 0.945 . S
H164 C185 0.952 . S
H165 C186 0.949 . S
H166 C188 0.950 . S
H167 C189 0.948 . S
H168 C191 0.951 . S
H169 C156 0.947 . S
H170 C158 0.952 . S
H171 C159 0.950 . S
N172 C175 1.382 . S
N172 C177 1.363 . S
N173 C175 1.371 . S
N173 C176 1.372 . S
N174 C176 1.361 . S
N174 C177 1.377 . S
C175 N172 1.382 . S
C175 N173 1.371 . S
C175 C178 1.480 . S
C176 N173 1.372 . S
C176 N174 1.361 . S
C176 C184 1.457 . S
C177 N172 1.363 . S
C177 N174 1.377 . S
C177 C190 1.479 . S
C178 C175 1.480 . S
C178 C179 1.383 . S
C178 C183 1.385 . S
C179 H160 0.947 . S
C179 C178 1.383 . S
C179 C180 1.388 . S
C180 H161 0.946 . S
C180 C179 1.388 . S
C180 C181 1.384 . S
C181 C180 1.384 . S
C181 C182 1.377 . S
C182 H162 0.953 . S
C182 C181 1.377 . S
C182 C183 1.369 . S
C183 H163 0.945 . S
C183 C178 1.385 . S
C183 C182 1.369 . S
C184 C176 1.457 . S
C184 C185 1.372 . S
C184 C189 1.364 . S
C185 H164 0.952 . S
C185 C184 1.372 . S
C185 C186 1.389 . S
C186 H165 0.949 . S
C186 C185 1.389 . S
C186 C187 1.387 . S
C187 C186 1.387 . S
C187 C188 1.372 . S
C188 H166 0.950 . S
C188 C187 1.372 . S
C188 C189 1.379 . S
C189 H167 0.948 . S
C189 C184 1.364 . S
C189 C188 1.379 . S
C190 C159 1.383 . S
C190 C177 1.479 . S
C190 C191 1.398 . S
C191 C156 1.382 . S
C191 H168 0.951 . S
C191 C190 1.398 . S
C192 C193 1.384 . S
C192 H205 0.947 . S
C192 C227 1.382 . S
C193 C192 1.384 . S
C193 C194 1.378 . S
C194 C193 1.378 . S
C194 C195 1.378 . S
C194 H206 0.952 . S
C195 C194 1.378 . S
C195 H207 0.950 . S
C195 C226 1.383 . S
H196 C215 0.947 . S
H197 C216 0.946 . S
H198 C218 0.953 . S
H199 C219 0.945 . S
H200 C221 0.952 . S
H201 C222 0.949 . S
H202 C224 0.954 . S
H203 C225 0.948 . S
H204 C227 0.951 . S
H205 C192 0.947 . S
H206 C194 0.952 . S
H207 C195 0.950 . S
N208 C211 1.382 . S
N208 C213 1.363 1_455 S
N209 C211 1.371 . S
N209 C212 1.372 . S
N210 C212 1.361 1_655 S
N210 C213 1.377 . S
C211 N208 1.382 . S
C211 N209 1.371 . S
C211 C214 1.480 . S
C212 N209 1.372 . S
C212 N210 1.361 1_455 S
C212 C220 1.457 . S
C213 N208 1.363 1_655 S
C213 N210 1.377 . S
C213 C226 1.479 . S
C214 C211 1.480 . S
C214 C215 1.383 . S
C214 C219 1.385 . S
C215 H196 0.947 . S
C215 C214 1.383 . S
C215 C216 1.388 . S
C216 H197 0.946 . S
C216 C215 1.388 . S
C216 C217 1.384 . S
C217 C216 1.384 . S
C217 C218 1.377 . S
C218 H198 0.953 . S
C218 C217 1.377 . S
C218 C219 1.369 . S
C219 H199 0.945 . S
C219 C214 1.385 . S
C219 C218 1.369 . S
C220 C212 1.457 . S
C220 C221 1.372 . S
C220 C225 1.364 1_455 S
C221 H200 0.952 . S
C221 C220 1.372 . S
C221 C222 1.389 . S
C222 H201 0.949 . S
C222 C221 1.389 . S
C222 C223 1.387 . S
C223 C222 1.387 . S
C223 C224 1.368 1_455 S
C224 H202 0.954 . S
C224 C223 1.368 1_655 S
C224 C225 1.379 . S
C225 H203 0.948 . S
C225 C220 1.364 1_655 S
C225 C224 1.379 . S
C226 C195 1.383 . S
C226 C213 1.479 . S
C226 C227 1.398 . S
C227 C192 1.382 . S
C227 H204 0.951 . S
C227 C226 1.398 . S
C228 C229 1.384 . S
C228 H241 0.947 . S
C228 C263 1.382 . S
C229 C228 1.384 . S
C229 C230 1.378 . S
C230 C229 1.378 . S
C230 C231 1.378 . S
C230 H242 0.952 . S
C231 C230 1.378 . S
C231 H243 0.950 . S
C231 C262 1.383 . S
H232 C251 0.947 . S
H233 C252 0.946 . S
H234 C254 0.953 . S
H235 C255 0.945 . S
H236 C257 0.952 . S
H237 C258 0.949 . S
H238 C260 0.950 . S
H239 C261 0.948 . S
H240 C263 0.951 . S
H241 C228 0.947 . S
H242 C230 0.952 . S
H243 C231 0.950 . S
N244 C247 1.382 1_455 S
N244 C249 1.363 . S
N245 C247 1.371 . S
N245 C248 1.372 1_655 S
N246 C248 1.361 . S
N246 C249 1.377 . S
C247 N244 1.382 1_655 S
C247 N245 1.371 . S
C247 C250 1.480 . S
C248 N245 1.372 1_455 S
C248 N246 1.361 . S
C248 C256 1.457 . S
C249 N244 1.363 . S
C249 N246 1.377 . S
C249 C262 1.479 . S
C250 C247 1.480 . S
C250 C251 1.383 . S
C250 C255 1.385 . S
C251 H232 0.947 . S
C251 C250 1.383 . S
C251 C252 1.388 . S
C252 H233 0.946 . S
C252 C251 1.388 . S
C252 C253 1.384 . S
C253 C252 1.384 . S
C253 C254 1.377 . S
C254 H234 0.953 . S
C254 C253 1.377 . S
C254 C255 1.369 . S
C255 H235 0.945 . S
C255 C250 1.385 . S
C255 C254 1.369 . S
C256 C248 1.457 . S
C256 C257 1.372 1_455 S
C256 C261 1.364 . S
C257 H236 0.952 . S
C257 C256 1.372 1_655 S
C257 C258 1.389 . S
C258 H237 0.949 . S
C258 C257 1.389 . S
C258 C259 1.387 1_655 S
C259 C258 1.387 1_455 S
C259 C260 1.372 . S
C260 H238 0.950 . S
C260 C259 1.372 . S
C260 C261 1.379 . S
C261 H239 0.948 . S
C261 C256 1.364 . S
C261 C260 1.379 . S
C262 C231 1.383 . S
C262 C249 1.479 . S
C262 C263 1.398 . S
C263 C228 1.382 . S
C263 H240 0.951 . S
C263 C262 1.398 . S
C264 C265 1.384 . S
C264 H277 0.947 . S
C264 C299 1.382 . S
C265 C264 1.384 . S
C265 C266 1.378 . S
C266 C265 1.378 . S
C266 C267 1.378 . S
C266 H278 0.952 . S
C267 C266 1.378 . S
C267 H279 0.950 . S
C267 C298 1.383 . S
H268 C287 0.947 . S
H269 C288 0.946 . S
H270 C290 0.953 . S
H271 C291 0.945 . S
H272 C293 0.952 . S
H273 C294 0.949 . S
H274 C296 0.950 . S
H275 C297 0.948 . S
H276 C299 0.951 . S
H277 C264 0.947 . S
H278 C266 0.952 . S
H279 C267 0.950 . S
N280 C283 1.382 1_545 S
N280 C285 1.363 . S
N281 C283 1.371 . S
N281 C284 1.372 1_565 S
N282 C284 1.361 . S
N282 C285 1.377 . S
C283 N280 1.382 1_565 S
C283 N281 1.371 . S
C283 C286 1.480 . S
C284 N281 1.372 1_545 S
C284 N282 1.361 . S
C284 C292 1.457 . S
C285 N280 1.363 . S
C285 N282 1.377 . S
C285 C298 1.479 . S
C286 C283 1.480 . S
C286 C287 1.383 . S
C286 C291 1.385 . S
C287 H268 0.947 . S
C287 C286 1.383 . S
C287 C288 1.388 . S
C288 H269 0.946 . S
C288 C287 1.388 . S
C288 C289 1.384 . S
C289 C288 1.384 . S
C289 C290 1.377 . S
C290 H270 0.953 . S
C290 C289 1.377 . S
C290 C291 1.369 . S
C291 H271 0.945 . S
C291 C286 1.385 . S
C291 C290 1.369 . S
C292 C284 1.457 . S
C292 C293 1.372 1_545 S
C292 C297 1.364 . S
C293 H272 0.952 . S
C293 C292 1.372 1_565 S
C293 C294 1.389 . S
C294 H273 0.949 . S
C294 C293 1.389 . S
C294 C295 1.387 1_565 S
C295 C294 1.387 1_545 S
C295 C296 1.372 . S
C296 H274 0.950 . S
C296 C295 1.372 . S
C296 C297 1.379 . S
C297 H275 0.948 . S
C297 C292 1.364 . S
C297 C296 1.379 . S
C298 C267 1.383 . S
C298 C285 1.479 . S
C298 C299 1.398 . S
C299 C264 1.382 . S
C299 H276 0.951 . S
C299 C298 1.398 . S
C300 C301 1.384 . S
C300 H313 0.947 . S
C300 C335 1.382 . S
C301 C300 1.384 . S
C301 C302 1.378 . S
C302 C301 1.378 . S
C302 C303 1.378 . S
C302 H314 0.952 . S
C303 C302 1.378 . S
C303 H315 0.950 . S
C303 C334 1.383 . S
H304 C323 0.947 . S
H305 C324 0.946 . S
H306 C326 0.953 . S
H307 C327 0.945 . S
H308 C329 0.952 . S
H309 C330 0.949 . S
H310 C332 0.950 . S
H311 C333 0.948 . S
H312 C335 0.951 . S
H313 C300 0.947 . S
H314 C302 0.952 . S
H315 C303 0.950 . S
N316 C319 1.382 . S
N316 C321 1.363 . S
N317 C319 1.371 . S
N317 C320 1.372 . S
N318 C320 1.361 . S
N318 C321 1.377 . S
C319 N316 1.382 . S
C319 N317 1.371 . S
C319 C322 1.480 . S
C320 N317 1.372 . S
C320 N318 1.361 . S
C320 C328 1.457 . S
C321 N316 1.363 . S
C321 N318 1.377 . S
C321 C334 1.479 . S
C322 C319 1.480 . S
C322 C323 1.383 . S
C322 C327 1.385 . S
C323 H304 0.947 . S
C323 C322 1.383 . S
C323 C324 1.388 . S
C324 H305 0.946 . S
C324 C323 1.388 . S
C324 C325 1.384 . S
C325 C324 1.384 . S
C325 C326 1.377 . S
C326 H306 0.953 . S
C326 C325 1.377 . S
C326 C327 1.369 . S
C327 H307 0.945 . S
C327 C322 1.385 . S
C327 C326 1.369 . S
C328 C320 1.457 . S
C328 C329 1.372 . S
C328 C333 1.364 . S
C329 H308 0.952 . S
C329 C328 1.372 . S
C329 C330 1.389 . S
C330 H309 0.949 . S
C330 C329 1.389 . S
C330 C331 1.387 . S
C331 C330 1.387 . S
C331 C332 1.372 . S
C332 H310 0.950 . S
C332 C331 1.372 . S
C332 C333 1.379 . S
C333 H311 0.948 . S
C333 C328 1.364 . S
C333 C332 1.379 . S
C334 C303 1.383 . S
C334 C321 1.479 . S
C334 C335 1.398 . S
C335 C300 1.382 . S
C335 H312 0.951 . S
C335 C334 1.398 . S
C336 C337 1.349 . S
C336 C338 1.327 . S
C336 H361 0.950 . S
C337 C336 1.349 . S
C337 C353 1.349 . S
C338 C336 1.327 . S
C338 C357 1.429 . S
C338 H362 0.950 . S
C339 C356 1.574 . S
C339 C358 1.368 . S
C339 H363 0.949 . S
H340 C344 0.949 . S
C341 C342 1.349 . S
C341 C343 1.327 . S
C341 H364 0.950 . S
C342 C341 1.349 . S
C342 C354 1.349 . S
C343 C341 1.327 . S
C343 C359 1.429 . S
C343 H365 0.950 . S
C344 H340 0.949 . S
C344 C352 1.574 . S
C344 C360 1.368 . S
H345 C353 0.950 . S
H346 C351 0.950 . S
H347 C352 0.949 . S
H348 C354 0.950 . S
H349 C355 0.950 . S
H350 C356 0.949 . S
C351 H346 0.950 . S
C351 C353 1.327 . S
C351 C357 1.429 . S
C352 C344 1.574 . S
C352 H347 0.949 . S
C352 C358 1.368 . S
C353 C337 1.349 . S
C353 H345 0.950 . S
C353 C351 1.327 . S
C354 C342 1.349 . S
C354 H348 0.950 . S
C354 C355 1.327 . S
C355 H349 0.950 . S
C355 C354 1.327 . S
C355 C359 1.429 . S
C356 C339 1.574 . S
C356 H350 0.949 . S
C356 C360 1.368 . S
C357 C338 1.429 . S
C357 C351 1.429 . S
C357 C358 1.523 . S
C358 C339 1.368 . S
C358 C352 1.368 . S
C358 C357 1.523 . S
C359 C343 1.429 . S
C359 C355 1.429 . S
C359 C360 1.523 . S
C360 C344 1.368 . S
C360 C356 1.368 . S
C360 C359 1.523 . S
H361 C336 0.950 . S
H362 C338 0.950 . S
H363 C339 0.949 . S
H364 C341 0.950 . S
H365 C343 0.950 . S
C366 C367 1.349 . S
C366 C368 1.327 . S
C366 H391 0.950 . S
C367 C366 1.349 . S
C367 C383 1.349 . S
C368 C366 1.327 . S
C368 C387 1.429 . S
C368 H392 0.950 . S
C369 C386 1.574 . S
C369 C388 1.368 . S
C369 H393 0.949 . S
H370 C374 0.949 . S
C371 C372 1.349 . S
C371 C373 1.327 . S
C371 H394 0.950 . S
C372 C371 1.349 . S
C372 C384 1.349 . S
C373 C371 1.327 . S
C373 C389 1.429 . S
C373 H395 0.950 . S
C374 H370 0.949 . S
C374 C382 1.574 . S
C374 C390 1.368 . S
H375 C383 0.950 . S
H376 C381 0.950 . S
H377 C382 0.949 . S
H378 C384 0.950 . S
H379 C385 0.950 . S
H380 C386 0.949 . S
C381 H376 0.950 . S
C381 C383 1.327 . S
C381 C387 1.429 . S
C382 C374 1.574 . S
C382 H377 0.949 . S
C382 C388 1.368 . S
C383 C367 1.349 . S
C383 H375 0.950 . S
C383 C381 1.327 . S
C384 C372 1.349 . S
C384 H378 0.950 . S
C384 C385 1.327 . S
C385 H379 0.950 . S
C385 C384 1.327 . S
C385 C389 1.429 . S
C386 C369 1.574 . S
C386 H380 0.949 . S
C386 C390 1.368 . S
C387 C368 1.429 . S
C387 C381 1.429 . S
C387 C388 1.523 . S
C388 C369 1.368 . S
C388 C382 1.368 . S
C388 C387 1.523 . S
C389 C373 1.429 . S
C389 C385 1.429 . S
C389 C390 1.523 . S
C390 C374 1.368 . S
C390 C386 1.368 . S
C390 C389 1.523 . S
H391 C366 0.950 . S
H392 C368 0.950 . S
H393 C369 0.949 . S
H394 C371 0.950 . S
H395 C373 0.950 . S
C396 C397 1.349 . S
C396 C398 1.327 . S
C396 H421 0.950 . S
C397 C396 1.349 . S
C397 C413 1.349 . S
C398 C396 1.327 . S
C398 C417 1.429 . S
C398 H422 0.950 . S
C399 C416 1.574 . S
C399 C418 1.368 . S
C399 H423 0.949 . S
H400 C404 0.949 . S
C401 C402 1.349 . S
C401 C403 1.327 . S
C401 H424 0.950 . S
C402 C401 1.349 . S
C402 C414 1.349 . S
C403 C401 1.327 . S
C403 C419 1.429 . S
C403 H425 0.950 . S
C404 H400 0.949 . S
C404 C412 1.574 . S
C404 C420 1.368 . S
H405 C413 0.950 . S
H406 C411 0.950 . S
H407 C412 0.949 . S
H408 C414 0.950 . S
H409 C415 0.950 . S
H410 C416 0.949 . S
C411 H406 0.950 . S
C411 C413 1.327 . S
C411 C417 1.429 . S
C412 C404 1.574 . S
C412 H407 0.949 . S
C412 C418 1.368 . S
C413 C397 1.349 . S
C413 H405 0.950 . S
C413 C411 1.327 . S
C414 C402 1.349 . S
C414 H408 0.950 . S
C414 C415 1.327 . S
C415 H409 0.950 . S
C415 C414 1.327 . S
C415 C419 1.429 . S
C416 C399 1.574 . S
C416 H410 0.949 . S
C416 C420 1.368 . S
C417 C398 1.429 . S
C417 C411 1.429 . S
C417 C418 1.523 . S
C418 C399 1.368 . S
C418 C412 1.368 . S
C418 C417 1.523 . S
C419 C403 1.429 . S
C419 C415 1.429 . S
C419 C420 1.523 . S
C420 C404 1.368 . S
C420 C416 1.368 . S
C420 C419 1.523 . S
H421 C396 0.950 . S
H422 C398 0.950 . S
H423 C399 0.949 . S
H424 C401 0.950 . S
H425 C403 0.950 . S
C426 C427 1.349 . S
C426 C428 1.327 . S
C426 H451 0.950 . S
C427 C426 1.349 . S
C427 C443 1.349 . S
C428 C426 1.327 . S
C428 C447 1.429 . S
C428 H452 0.950 . S
C429 C446 1.574 . S
C429 C448 1.368 . S
C429 H453 0.949 . S
H430 C434 0.949 . S
C431 C432 1.349 . S
C431 C433 1.327 . S
C431 H454 0.950 . S
C432 C431 1.349 . S
C432 C444 1.349 . S
C433 C431 1.327 . S
C433 C449 1.429 . S
C433 H455 0.950 . S
C434 H430 0.949 . S
C434 C442 1.574 . S
C434 C450 1.368 . S
H435 C443 0.950 . S
H436 C441 0.950 . S
H437 C442 0.949 . S
H438 C444 0.950 . S
H439 C445 0.950 . S
H440 C446 0.949 . S
C441 H436 0.950 . S
C441 C443 1.327 . S
C441 C447 1.429 . S
C442 C434 1.574 . S
C442 H437 0.949 . S
C442 C448 1.368 . S
C443 C427 1.349 . S
C443 H435 0.950 . S
C443 C441 1.327 . S
C444 C432 1.349 . S
C444 H438 0.950 . S
C444 C445 1.327 . S
C445 H439 0.950 . S
C445 C444 1.327 . S
C445 C449 1.429 . S
C446 C429 1.574 . S
C446 H440 0.949 . S
C446 C450 1.368 . S
C447 C428 1.429 . S
C447 C441 1.429 . S
C447 C448 1.523 . S
C448 C429 1.368 . S
C448 C442 1.368 . S
C448 C447 1.523 . S
C449 C433 1.429 . S
C449 C445 1.429 . S
C449 C450 1.523 . S
C450 C434 1.368 . S
C450 C446 1.368 . S
C450 C449 1.523 . S
H451 C426 0.950 . S
H452 C428 0.950 . S
H453 C429 0.949 . S
H454 C431 0.950 . S
H455 C433 0.950 . S
C456 C457 1.349 . S
C456 C458 1.327 . S
C456 H481 0.950 . S
C457 C456 1.349 . S
C457 C473 1.349 . S
C458 C456 1.327 . S
C458 C477 1.429 . S
C458 H482 0.950 . S
C459 C476 1.574 . S
C459 C478 1.368 . S
C459 H483 0.949 . S
H460 C464 0.949 . S
C461 C462 1.349 . S
C461 C463 1.327 . S
C461 H484 0.950 . S
C462 C461 1.349 . S
C462 C474 1.349 . S
C463 C461 1.327 . S
C463 C479 1.429 . S
C463 H485 0.950 . S
C464 H460 0.949 . S
C464 C472 1.574 . S
C464 C480 1.368 . S
H465 C473 0.950 . S
H466 C471 0.950 . S
H467 C472 0.949 . S
H468 C474 0.950 . S
H469 C475 0.950 . S
H470 C476 0.949 . S
C471 H466 0.950 . S
C471 C473 1.327 . S
C471 C477 1.429 . S
C472 C464 1.574 . S
C472 H467 0.949 . S
C472 C478 1.368 . S
C473 C457 1.349 . S
C473 H465 0.950 . S
C473 C471 1.327 . S
C474 C462 1.349 . S
C474 H468 0.950 . S
C474 C475 1.327 . S
C475 H469 0.950 . S
C475 C474 1.327 . S
C475 C479 1.429 . S
C476 C459 1.574 . S
C476 H470 0.949 . S
C476 C480 1.368 . S
C477 C458 1.429 . S
C477 C471 1.429 . S
C477 C478 1.523 . S
C478 C459 1.368 . S
C478 C472 1.368 . S
C478 C477 1.523 . S
C479 C463 1.429 . S
C479 C475 1.429 . S
C479 C480 1.523 . S
C480 C464 1.368 . S
C480 C476 1.368 . S
C480 C479 1.523 . S
H481 C456 0.950 . S
H482 C458 0.950 . S
H483 C459 0.949 . S
H484 C461 0.950 . S
H485 C463 0.950 . S
C486 C487 1.349 . S
C486 C488 1.327 . S
C486 H511 0.950 . S
C487 C486 1.349 . S
C487 C503 1.349 . S
C488 C486 1.327 . S
C488 C507 1.429 . S
C488 H512 0.950 . S
C489 C506 1.574 . S
C489 C508 1.368 . S
C489 H513 0.949 . S
H490 C494 0.949 . S
C491 C492 1.349 . S
C491 C493 1.327 . S
C491 H514 0.950 . S
C492 C491 1.349 . S
C492 C504 1.349 . S
C493 C491 1.327 . S
C493 C509 1.429 . S
C493 H515 0.950 . S
C494 H490 0.949 . S
C494 C502 1.574 . S
C494 C510 1.368 . S
H495 C503 0.950 . S
H496 C501 0.950 . S
H497 C502 0.949 . S
H498 C504 0.950 . S
H499 C505 0.950 . S
H500 C506 0.949 . S
C501 H496 0.950 . S
C501 C503 1.327 . S
C501 C507 1.429 . S
C502 C494 1.574 . S
C502 H497 0.949 . S
C502 C508 1.368 . S
C503 C487 1.349 . S
C503 H495 0.950 . S
C503 C501 1.327 . S
C504 C492 1.349 . S
C504 H498 0.950 . S
C504 C505 1.327 . S
C505 H499 0.950 . S
C505 C504 1.327 . S
C505 C509 1.429 . S
C506 C489 1.574 . S
C506 H500 0.949 . S
C506 C510 1.368 . S
C507 C488 1.429 . S
C507 C501 1.429 . S
C507 C508 1.523 . S
C508 C489 1.368 . S
C508 C502 1.368 . S
C508 C507 1.523 . S
C509 C493 1.429 . S
C509 C505 1.429 . S
C509 C510 1.523 . S
C510 C494 1.368 . S
C510 C506 1.368 . S
C510 C509 1.523 . S
H511 C486 0.950 . S
H512 C488 0.950 . S
H513 C489 0.949 . S
H514 C491 0.950 . S
H515 C493 0.950 . S
C516 C517 1.349 . S
C516 C518 1.327 . S
C516 H541 0.950 . S
C517 C516 1.349 . S
C517 C533 1.349 . S
C518 C516 1.327 . S
C518 C537 1.429 . S
C518 H542 0.950 . S
C519 C536 1.574 . S
C519 C538 1.368 . S
C519 H543 0.949 . S
H520 C524 0.949 . S
C521 C522 1.349 . S
C521 C523 1.327 . S
C521 H544 0.950 . S
C522 C521 1.349 . S
C522 C534 1.349 . S
C523 C521 1.327 . S
C523 C539 1.429 . S
C523 H545 0.950 . S
C524 H520 0.949 . S
C524 C532 1.574 . S
C524 C540 1.368 . S
H525 C533 0.950 . S
H526 C531 0.950 . S
H527 C532 0.949 . S
H528 C534 0.950 . S
H529 C535 0.950 . S
H530 C536 0.949 . S
C531 H526 0.950 . S
C531 C533 1.327 . S
C531 C537 1.429 . S
C532 C524 1.574 . S
C532 H527 0.949 . S
C532 C538 1.368 . S
C533 C517 1.349 . S
C533 H525 0.950 . S
C533 C531 1.327 . S
C534 C522 1.349 . S
C534 H528 0.950 . S
C534 C535 1.327 . S
C535 H529 0.950 . S
C535 C534 1.327 . S
C535 C539 1.429 . S
C536 C519 1.574 . S
C536 H530 0.949 . S
C536 C540 1.368 . S
C537 C518 1.429 . S
C537 C531 1.429 . S
C537 C538 1.523 . S
C538 C519 1.368 . S
C538 C532 1.368 . S
C538 C537 1.523 . S
C539 C523 1.429 . S
C539 C535 1.429 . S
C539 C540 1.523 . S
C540 C524 1.368 . S
C540 C536 1.368 . S
C540 C539 1.523 . S
H541 C516 0.950 . S
H542 C518 0.950 . S
H543 C519 0.949 . S
H544 C521 0.950 . S
H545 C523 0.950 . S
C546 C547 1.349 . S
C546 C548 1.327 . S
C546 H571 0.950 . S
C547 C546 1.349 . S
C547 C563 1.349 . S
C548 C546 1.327 . S
C548 C567 1.429 . S
C548 H572 0.950 . S
C549 C566 1.574 . S
C549 C568 1.368 . S
C549 H573 0.949 . S
H550 C554 0.949 . S
C551 C552 1.349 . S
C551 C553 1.327 . S
C551 H574 0.950 . S
C552 C551 1.349 . S
C552 C564 1.349 . S
C553 C551 1.327 . S
C553 C569 1.429 . S
C553 H575 0.950 . S
C554 H550 0.949 . S
C554 C562 1.574 . S
C554 C570 1.368 . S
H555 C563 0.950 . S
H556 C561 0.950 . S
H557 C562 0.949 . S
H558 C564 0.950 . S
H559 C565 0.950 . S
H560 C566 0.949 . S
C561 H556 0.950 . S
C561 C563 1.327 . S
C561 C567 1.429 . S
C562 C554 1.574 . S
C562 H557 0.949 . S
C562 C568 1.368 . S
C563 C547 1.349 . S
C563 H555 0.950 . S
C563 C561 1.327 . S
C564 C552 1.349 . S
C564 H558 0.950 . S
C564 C565 1.327 . S
C565 H559 0.950 . S
C565 C564 1.327 . S
C565 C569 1.429 . S
C566 C549 1.574 . S
C566 H560 0.949 . S
C566 C570 1.368 . S
C567 C548 1.429 . S
C567 C561 1.429 . S
C567 C568 1.523 . S
C568 C549 1.368 . S
C568 C562 1.368 . S
C568 C567 1.523 . S
C569 C553 1.429 . S
C569 C565 1.429 . S
C569 C570 1.523 . S
C570 C554 1.368 . S
C570 C566 1.368 . S
C570 C569 1.523 . S
H571 C546 0.950 . S
H572 C548 0.950 . S
H573 C549 0.949 . S
H574 C551 0.950 . S
H575 C553 0.950 . S
C576 C577 1.349 . S
C576 C578 1.327 . S
C576 H601 0.950 . S
C577 C576 1.349 . S
C577 C593 1.349 . S
C578 C576 1.327 . S
C578 C597 1.429 . S
C578 H602 0.950 . S
C579 C596 1.574 . S
C579 C598 1.368 . S
C579 H603 0.949 . S
H580 C584 0.949 . S
C581 C582 1.349 . S
C581 C583 1.327 . S
C581 H604 0.950 . S
C582 C581 1.349 . S
C582 C594 1.349 . S
C583 C581 1.327 . S
C583 C599 1.429 . S
C583 H605 0.950 . S
C584 H580 0.949 . S
C584 C592 1.574 . S
C584 C600 1.368 . S
H585 C593 0.950 . S
H586 C591 0.950 . S
H587 C592 0.949 . S
H588 C594 0.950 . S
H589 C595 0.950 . S
H590 C596 0.949 . S
C591 H586 0.950 . S
C591 C593 1.327 . S
C591 C597 1.429 . S
C592 C584 1.574 . S
C592 H587 0.949 . S
C592 C598 1.368 . S
C593 C577 1.349 . S
C593 H585 0.950 . S
C593 C591 1.327 . S
C594 C582 1.349 . S
C594 H588 0.950 . S
C594 C595 1.327 . S
C595 H589 0.950 . S
C595 C594 1.327 . S
C595 C599 1.429 . S
C596 C579 1.574 . S
C596 H590 0.949 . S
C596 C600 1.368 . S
C597 C578 1.429 . S
C597 C591 1.429 . S
C597 C598 1.523 . S
C598 C579 1.368 . S
C598 C592 1.368 . S
C598 C597 1.523 . S
C599 C583 1.429 . S
C599 C595 1.429 . S
C599 C600 1.523 . S
C600 C584 1.368 . S
C600 C596 1.368 . S
C600 C599 1.523 . S
H601 C576 0.950 . S
H602 C578 0.950 . S
H603 C579 0.949 . S
H604 C581 0.950 . S
H605 C583 0.950 . S
C606 C607 1.349 . S
C606 C608 1.327 . S
C606 H631 0.950 . S
C607 C606 1.349 . S
C607 C623 1.349 . S
C608 C606 1.327 . S
C608 C627 1.429 . S
C608 H632 0.950 . S
C609 C626 1.574 . S
C609 C628 1.368 . S
C609 H633 0.949 . S
H610 C614 0.949 . S
C611 C612 1.349 . S
C611 C613 1.327 . S
C611 H634 0.950 . S
C612 C611 1.349 . S
C612 C624 1.349 . S
C613 C611 1.327 . S
C613 C629 1.429 . S
C613 H635 0.950 . S
C614 H610 0.949 . S
C614 C622 1.574 . S
C614 C630 1.368 . S
H615 C623 0.950 . S
H616 C621 0.950 . S
H617 C622 0.949 . S
H618 C624 0.950 . S
H619 C625 0.950 . S
H620 C626 0.949 . S
C621 H616 0.950 . S
C621 C623 1.327 . S
C621 C627 1.429 . S
C622 C614 1.574 . S
C622 H617 0.949 . S
C622 C628 1.368 . S
C623 C607 1.349 . S
C623 H615 0.950 . S
C623 C621 1.327 . S
C624 C612 1.349 . S
C624 H618 0.950 . S
C624 C625 1.327 . S
C625 H619 0.950 . S
C625 C624 1.327 . S
C625 C629 1.429 . S
C626 C609 1.574 . S
C626 H620 0.949 . S
C626 C630 1.368 . S
C627 C608 1.429 . S
C627 C621 1.429 . S
C627 C628 1.523 . S
C628 C609 1.368 . S
C628 C622 1.368 . S
C628 C627 1.523 . S
C629 C613 1.429 . S
C629 C625 1.429 . S
C629 C630 1.523 . S
C630 C614 1.368 . S
C630 C626 1.368 . S
C630 C629 1.523 . S
H631 C606 0.950 . S
H632 C608 0.950 . S
H633 C609 0.949 . S
H634 C611 0.950 . S
H635 C613 0.950 . S
C636 C637 1.349 . S
C636 C638 1.327 . S
C636 H661 0.950 . S
C637 C636 1.349 . S
C637 C653 1.349 . S
C638 C636 1.327 . S
C638 C657 1.429 . S
C638 H662 0.950 . S
C639 C656 1.574 . S
C639 C658 1.368 . S
C639 H663 0.949 . S
H640 C644 0.949 . S
C641 C642 1.349 . S
C641 C643 1.327 . S
C641 H664 0.950 . S
C642 C641 1.349 . S
C642 C654 1.349 . S
C643 C641 1.327 . S
C643 C659 1.429 . S
C643 H665 0.950 . S
C644 H640 0.949 . S
C644 C652 1.574 . S
C644 C660 1.368 . S
H645 C653 0.950 . S
H646 C651 0.950 . S
H647 C652 0.949 . S
H648 C654 0.950 . S
H649 C655 0.950 . S
H650 C656 0.949 . S
C651 H646 0.950 . S
C651 C653 1.327 . S
C651 C657 1.429 . S
C652 C644 1.574 . S
C652 H647 0.949 . S
C652 C658 1.368 . S
C653 C637 1.349 . S
C653 H645 0.950 . S
C653 C651 1.327 . S
C654 C642 1.349 . S
C654 H648 0.950 . S
C654 C655 1.327 . S
C655 H649 0.950 . S
C655 C654 1.327 . S
C655 C659 1.429 . S
C656 C639 1.574 . S
C656 H650 0.949 . S
C656 C660 1.368 . S
C657 C638 1.429 . S
C657 C651 1.429 . S
C657 C658 1.523 . S
C658 C639 1.368 . S
C658 C652 1.368 . S
C658 C657 1.523 . S
C659 C643 1.429 . S
C659 C655 1.429 . S
C659 C660 1.523 . S
C660 C644 1.368 . S
C660 C656 1.368 . S
C660 C659 1.523 . S
H661 C636 0.950 . S
H662 C638 0.950 . S
H663 C639 0.949 . S
H664 C641 0.950 . S
H665 C643 0.950 . S
C666 C667 1.349 . S
C666 C668 1.327 . S
C666 H691 0.950 . S
C667 C666 1.349 . S
C667 C683 1.349 . S
C668 C666 1.327 . S
C668 C687 1.429 . S
C668 H692 0.950 . S
C669 C686 1.574 . S
C669 C688 1.368 . S
C669 H693 0.949 . S
H670 C674 0.949 . S
C671 C672 1.349 . S
C671 C673 1.327 . S
C671 H694 0.950 . S
C672 C671 1.349 . S
C672 C684 1.349 . S
C673 C671 1.327 . S
C673 C689 1.429 . S
C673 H695 0.950 . S
C674 H670 0.949 . S
C674 C682 1.574 . S
C674 C690 1.368 . S
H675 C683 0.950 . S
H676 C681 0.950 . S
H677 C682 0.949 . S
H678 C684 0.950 . S
H679 C685 0.950 . S
H680 C686 0.949 . S
C681 H676 0.950 . S
C681 C683 1.327 . S
C681 C687 1.429 . S
C682 C674 1.574 . S
C682 H677 0.949 . S
C682 C688 1.368 . S
C683 C667 1.349 . S
C683 H675 0.950 . S
C683 C681 1.327 . S
C684 C672 1.349 . S
C684 H678 0.950 . S
C684 C685 1.327 . S
C685 H679 0.950 . S
C685 C684 1.327 . S
C685 C689 1.429 . S
C686 C669 1.574 . S
C686 H680 0.949 . S
C686 C690 1.368 . S
C687 C668 1.429 . S
C687 C681 1.429 . S
C687 C688 1.523 . S
C688 C669 1.368 . S
C688 C682 1.368 . S
C688 C687 1.523 . S
C689 C673 1.429 . S
C689 C685 1.429 . S
C689 C690 1.523 . S
C690 C674 1.368 . S
C690 C686 1.368 . S
C690 C689 1.523 . S
H691 C666 0.950 . S
H692 C668 0.950 . S
H693 C669 0.949 . S
H694 C671 0.950 . S
H695 C673 0.950 . S
C696 C697 1.349 . S
C696 C698 1.327 . S
C696 H721 0.950 . S
C697 C696 1.349 . S
C697 C713 1.349 1_455 S
C698 C696 1.327 . S
C698 C717 1.429 . S
C698 H722 0.950 . S
C699 C716 1.574 . S
C699 C718 1.368 1_655 S
C699 H723 0.949 . S
H700 C704 0.949 . S
C701 C702 1.349 . S
C701 C703 1.327 1_556 S
C701 H724 0.950 1_455 S
C702 C701 1.349 . S
C702 C714 1.349 . S
C703 C701 1.327 1_554 S
C703 C719 1.429 . S
C703 H725 0.950 1_455 S
C704 H700 0.949 . S
C704 C712 1.574 . S
C704 C720 1.368 . S
H705 C713 0.950 . S
H706 C711 0.950 . S
H707 C712 0.949 . S
H708 C714 0.950 . S
H709 C715 0.950 . S
H710 C716 0.949 . S
C711 H706 0.950 . S
C711 C713 1.327 . S
C711 C717 1.429 1_655 S
C712 C704 1.574 . S
C712 H707 0.949 . S
C712 C718 1.368 . S
C713 C697 1.349 1_655 S
C713 H705 0.950 . S
C713 C711 1.327 . S
C714 C702 1.349 . S
C714 H708 0.950 . S
C714 C715 1.327 1_556 S
C715 H709 0.950 . S
C715 C714 1.327 1_554 S
C715 C719 1.429 . S
C716 C699 1.574 . S
C716 H710 0.949 . S
C716 C720 1.368 1_655 S
C717 C698 1.429 . S
C717 C711 1.429 1_455 S
C717 C718 1.523 . S
C718 C699 1.368 1_455 S
C718 C712 1.368 . S
C718 C717 1.523 . S
C719 C703 1.429 . S
C719 C715 1.429 . S
C719 C720 1.523 . S
C720 C704 1.368 . S
C720 C716 1.368 1_455 S
C720 C719 1.523 . S
H721 C696 0.950 . S
H722 C698 0.950 . S
H723 C699 0.949 . S
H724 C701 0.950 1_655 S
H725 C703 0.950 1_655 S
C726 C727 1.349 . S
C726 C728 1.327 . S
C726 H751 0.950 . S
C727 C726 1.349 . S
C727 C743 1.349 . S
C728 C726 1.327 . S
C728 C747 1.429 . S
C728 H752 0.950 . S
C729 C746 1.574 . S
C729 C748 1.368 . S
C729 H753 0.949 . S
H730 C734 0.949 . S
C731 C732 1.349 . S
C731 C733 1.327 . S
C731 H754 0.950 . S
C732 C731 1.349 . S
C732 C744 1.349 . S
C733 C731 1.327 . S
C733 C749 1.429 . S
C733 H755 0.950 . S
C734 H730 0.949 . S
C734 C742 1.574 . S
C734 C750 1.368 . S
H735 C743 0.950 . S
H736 C741 0.950 . S
H737 C742 0.949 . S
H738 C744 0.950 . S
H739 C745 0.950 . S
H740 C746 0.949 . S
C741 H736 0.950 . S
C741 C743 1.327 . S
C741 C747 1.429 . S
C742 C734 1.574 . S
C742 H737 0.949 . S
C742 C748 1.368 . S
C743 C727 1.349 . S
C743 H735 0.950 . S
C743 C741 1.327 . S
C744 C732 1.349 . S
C744 H738 0.950 . S
C744 C745 1.327 . S
C745 H739 0.950 . S
C745 C744 1.327 . S
C745 C749 1.429 . S
C746 C729 1.574 . S
C746 H740 0.949 . S
C746 C750 1.368 . S
C747 C728 1.429 . S
C747 C741 1.429 . S
C747 C748 1.523 . S
C748 C729 1.368 . S
C748 C742 1.368 . S
C748 C747 1.523 . S
C749 C733 1.429 . S
C749 C745 1.429 . S
C749 C750 1.523 . S
C750 C734 1.368 . S
C750 C746 1.368 . S
C750 C749 1.523 . S
H751 C726 0.950 . S
H752 C728 0.950 . S
H753 C729 0.949 . S
H754 C731 0.950 . S
H755 C733 0.950 . S
C756 C757 1.349 . S
C756 C758 1.327 . S
C756 H781 0.950 . S
C757 C756 1.349 . S
C757 C773 1.349 . S
C758 C756 1.327 . S
C758 C777 1.429 . S
C758 H782 0.950 . S
C759 C776 1.574 . S
C759 C778 1.368 . S
C759 H783 0.949 . S
H760 C764 0.949 . S
C761 C762 1.349 . S
C761 C763 1.327 . S
C761 H784 0.950 . S
C762 C761 1.349 . S
C762 C774 1.349 . S
C763 C761 1.327 . S
C763 C779 1.429 . S
C763 H785 0.950 . S
C764 H760 0.949 . S
C764 C772 1.574 . S
C764 C780 1.368 . S
H765 C773 0.950 . S
H766 C771 0.950 . S
H767 C772 0.949 . S
H768 C774 0.950 . S
H769 C775 0.950 . S
H770 C776 0.949 . S
C771 H766 0.950 . S
C771 C773 1.327 . S
C771 C777 1.429 . S
C772 C764 1.574 . S
C772 H767 0.949 . S
C772 C778 1.368 . S
C773 C757 1.349 . S
C773 H765 0.950 . S
C773 C771 1.327 . S
C774 C762 1.349 . S
C774 H768 0.950 . S
C774 C775 1.327 . S
C775 H769 0.950 . S
C775 C774 1.327 . S
C775 C779 1.429 . S
C776 C759 1.574 . S
C776 H770 0.949 . S
C776 C780 1.368 . S
C777 C758 1.429 . S
C777 C771 1.429 . S
C777 C778 1.523 . S
C778 C759 1.368 . S
C778 C772 1.368 . S
C778 C777 1.523 . S
C779 C763 1.429 . S
C779 C775 1.429 . S
C779 C780 1.523 . S
C780 C764 1.368 . S
C780 C776 1.368 . S
C780 C779 1.523 . S
H781 C756 0.950 . S
H782 C758 0.950 . S
H783 C759 0.949 . S
H784 C761 0.950 . S
H785 C763 0.950 . S
C786 C787 1.349 1_565 S
C786 C788 1.327 . S
C786 H811 0.950 . S
C787 C786 1.349 1_545 S
C787 C803 1.349 . S
C788 C786 1.327 . S
C788 C807 1.429 1_565 S
C788 H812 0.950 . S
C789 C806 1.574 . S
C789 C808 1.368 . S
C789 H813 0.949 . S
H790 C794 0.949 . S
C791 C792 1.349 . S
C791 C793 1.327 . S
C791 H814 0.950 . S
C792 C791 1.349 . S
C792 C804 1.349 1_545 S
C793 C791 1.327 . S
C793 C809 1.429 . S
C793 H815 0.950 . S
C794 H790 0.949 . S
C794 C802 1.574 . S
C794 C810 1.368 1_565 S
H795 C803 0.950 . S
H796 C801 0.950 . S
H797 C802 0.949 . S
H798 C804 0.950 . S
H799 C805 0.950 . S
H800 C806 0.949 . S
C801 H796 0.950 . S
C801 C803 1.327 . S
C801 C807 1.429 . S
C802 C794 1.574 . S
C802 H797 0.949 . S
C802 C808 1.368 1_565 S
C803 C787 1.349 . S
C803 H795 0.950 . S
C803 C801 1.327 . S
C804 C792 1.349 1_565 S
C804 H798 0.950 . S
C804 C805 1.327 . S
C805 H799 0.950 . S
C805 C804 1.327 . S
C805 C809 1.429 1_565 S
C806 C789 1.574 . S
C806 H800 0.949 . S
C806 C810 1.368 . S
C807 C788 1.429 1_545 S
C807 C801 1.429 . S
C807 C808 1.523 . S
C808 C789 1.368 . S
C808 C802 1.368 1_545 S
C808 C807 1.523 . S
C809 C793 1.429 . S
C809 C805 1.429 1_545 S
C809 C810 1.523 . S
C810 C794 1.368 1_545 S
C810 C806 1.368 . S
C810 C809 1.523 . S
H811 C786 0.950 . S
H812 C788 0.950 . S
H813 C789 0.949 . S
H814 C791 0.950 . S
H815 C793 0.950 . S
C816 C817 1.349 . S
C816 C818 1.327 . S
C816 H841 0.950 . S
C817 C816 1.349 . S
C817 C833 1.349 . S
C818 C816 1.327 . S
C818 C837 1.429 . S
C818 H842 0.950 . S
C819 C836 1.574 . S
C819 C838 1.368 . S
C819 H843 0.949 . S
H820 C824 0.949 . S
C821 C822 1.349 . S
C821 C823 1.327 1_554 S
C821 H844 0.950 . S
C822 C821 1.349 . S
C822 C834 1.349 . S
C823 C821 1.327 1_556 S
C823 C839 1.429 . S
C823 H845 0.950 . S
C824 H820 0.949 . S
C824 C832 1.574 . S
C824 C840 1.368 . S
H825 C833 0.950 . S
H826 C831 0.950 . S
H827 C832 0.949 . S
H828 C834 0.950 . S
H829 C835 0.950 . S
H830 C836 0.949 . S
C831 H826 0.950 . S
C831 C833 1.327 . S
C831 C837 1.429 . S
C832 C824 1.574 . S
C832 H827 0.949 . S
C832 C838 1.368 . S
C833 C817 1.349 . S
C833 H825 0.950 . S
C833 C831 1.327 . S
C834 C822 1.349 . S
C834 H828 0.950 . S
C834 C835 1.327 1_554 S
C835 H829 0.950 . S
C835 C834 1.327 1_556 S
C835 C839 1.429 . S
C836 C819 1.574 . S
C836 H830 0.949 . S
C836 C840 1.368 . S
C837 C818 1.429 . S
C837 C831 1.429 . S
C837 C838 1.523 . S
C838 C819 1.368 . S
C838 C832 1.368 . S
C838 C837 1.523 . S
C839 C823 1.429 . S
C839 C835 1.429 . S
C839 C840 1.523 . S
C840 C824 1.368 . S
C840 C836 1.368 . S
C840 C839 1.523 . S
H841 C816 0.950 . S
H842 C818 0.950 . S
H843 C819 0.949 . S
H844 C821 0.950 . S
H845 C823 0.950 . S
C846 C847 1.349 . S
C846 C848 1.330 . S
C846 H871 0.950 1_455 S
C847 C846 1.349 . S
C847 C863 1.349 . S
C848 C846 1.330 . S
C848 C867 1.437 . S
C848 H872 0.938 1_455 S
C849 C866 1.574 . S
C849 C868 1.368 . S
C849 H873 0.949 . S
H850 C854 0.949 . S
C851 C852 1.349 1_455 S
C851 C853 1.327 . S
C851 H874 0.950 . S
C852 C851 1.349 1_655 S
C852 C864 1.348 . S
C853 C851 1.327 . S
C853 C869 1.429 . S
C853 H875 0.950 . S
C854 H850 0.949 . S
C854 C862 1.574 . S
C854 C870 1.368 1_655 S
H855 C863 0.950 . S
H856 C861 0.950 . S
H857 C862 0.949 . S
H858 C864 0.950 . S
H859 C865 0.950 . S
H860 C866 0.949 . S
C861 H856 0.950 . S
C861 C863 1.327 . S
C861 C867 1.429 . S
C862 C854 1.574 . S
C862 H857 0.949 . S
C862 C868 1.368 1_655 S
C863 C847 1.349 . S
C863 H855 0.950 . S
C863 C861 1.327 . S
C864 C852 1.348 . S
C864 H858 0.950 . S
C864 C865 1.327 . S
C865 H859 0.950 . S
C865 C864 1.327 . S
C865 C869 1.429 1_655 S
C866 C849 1.574 . S
C866 H860 0.949 . S
C866 C870 1.368 . S
C867 C848 1.437 . S
C867 C861 1.429 . S
C867 C868 1.523 . S
C868 C849 1.368 . S
C868 C862 1.368 1_455 S
C868 C867 1.523 . S
C869 C853 1.429 . S
C869 C865 1.429 1_455 S
C869 C870 1.523 . S
C870 C854 1.368 1_455 S
C870 C866 1.368 . S
C870 C869 1.523 . S
H871 C846 0.950 1_655 S
H872 C848 0.938 1_655 S
H873 C849 0.949 . S
H874 C851 0.950 . S
H875 C853 0.950 . S
C337 C24 2.846 . S
C342 C325 2.782 . S
C367 C66 1.035 . S
C372 C253 1.041 . S
C397 C93 1.727 . S
C402 C289 1.678 . S
C427 C13 3.002 . S
C432 C301 2.970 . S
C462 C229 1.232 . S
C457 C57 1.241 . S
C492 C265 1.869 . S
C487 C104 1.905 . S
C517 C64 1.890 . S
C522 C181 1.825 . S
C547 C97 0.374 . S
C552 C193 0.399 . S
C577 C17 1.211 . S
C582 C121 1.216 . S
C612 C157 1.719 . S
C607 C53 1.738 . S
C642 C217 0.252 . S
C637 C106 0.308 . S
C667 C26 1.051 . S
C672 C145 1.054 . S
C702 C223 1.089 . S
C697 C2 1.080 . S
C727 C63 1.464 . S
C732 C151 1.500 . S
C757 C82 1.371 . S
C762 C187 1.390 . S
C792 C295 1.402 . S
C787 C42 1.386 . S
C822 C331 1.773 . S
C817 C103 1.731 . S
C847 C23 1.472 . S
C852 C259 1.496 1_655 S
