# Generated by pormake.
# Topology pth, (4,4)-cn, num edge types: 1
# Building blocks:
#     Node 0, Type 0, BuildingBlock: AZAVOO_clean_sbu_0, # of connection points: 4
#     Node 1, Type 0, BuildingBlock: AZAVOO_clean_sbu_0, # of connection points: 4
#     Node 2, Type 0, BuildingBlock: AZAVOO_clean_sbu_0, # of connection points: 4
#     Node 3, Type 1, BuildingBlock: AZAVOO_clean_linker_0, # of connection points: 4
#     Node 4, Type 1, BuildingBlock: AZAVOO_clean_linker_0, # of connection points: 4
#     Node 5, Type 1, BuildingBlock: AZAVOO_clean_linker_0, # of connection points: 4
#     Edge 6, Type (0, 1), BuildingBlock: UVAHIK_clean_linker_0, # of connection points: 2
#     Edge 7, Type (0, 1), BuildingBlock: UVAHIK_clean_linker_0, # of connection points: 2
#     Edge 8, Type (0, 1), BuildingBlock: UVAHIK_clean_linker_0, # of connection points: 2
#     Edge 9, Type (0, 1), BuildingBlock: UVAHIK_clean_linker_0, # of connection points: 2
#     Edge 10, Type (0, 1), BuildingBlock: UVAHIK_clean_linker_0, # of connection points: 2
#     Edge 11, Type (0, 1), BuildingBlock: UVAHIK_clean_linker_0, # of connection points: 2
#     Edge 12, Type (0, 1), BuildingBlock: UVAHIK_clean_linker_0, # of connection points: 2
#     Edge 13, Type (0, 1), BuildingBlock: UVAHIK_clean_linker_0, # of connection points: 2
#     Edge 14, Type (0, 1), BuildingBlock: UVAHIK_clean_linker_0, # of connection points: 2
#     Edge 15, Type (0, 1), BuildingBlock: UVAHIK_clean_linker_0, # of connection points: 2
#     Edge 16, Type (0, 1), BuildingBlock: UVAHIK_clean_linker_0, # of connection points: 2
#     Edge 17, Type (0, 1), BuildingBlock: UVAHIK_clean_linker_0, # of connection points: 2
# Relax obj value: 0.166
# Max RMSD: 0.230
# Mean RMSD: 0.224
data_MOF--net-pth--node1-AZAVOO_clean_sbu_0--node2-AZAVOO_clean_linker_0--edge1-UVAHIK_clean_linker_0
_symmetry_space_group_name_H-M    P1
_symmetry_Int_Tables_number       1
_symmetry_cell_setting            triclinic
loop_
_symmetry_equiv_pos_as_xyz
'x, y, z'
_cell_length_a     32.317286
_cell_length_b     33.084916
_cell_length_c     86.652842
_cell_angle_alpha  92.224527
_cell_angle_beta   91.990245
_cell_angle_gamma 121.88785
loop_
_atom_site_label
_atom_site_type_symbol
_atom_site_fract_x
_atom_site_fract_y
_atom_site_fract_z
_atom_type_partial_charge
Mg0 Mg 0.17572 0.08653 0.07068 0.0
O1 O 0.11553 0.05409 0.05088 0.0
O2 O 0.12799 0.11397 0.0365 0.0
Mg3 Mg 0.19162 0.18409 0.04763 0.0
C4 C 0.10441 0.06984 0.03921 0.0
C5 C 0.24502 0.09843 0.09947 0.0
O6 O 0.28397 0.12137 0.1091 0.0
O7 O 0.13484 0.11501 0.0831 0.0
O8 O 0.14732 0.17483 0.06885 0.0
O9 O 0.22713 0.08082 0.05469 0.0
O10 O 0.2211 0.14323 0.05716 0.0
C11 C 0.12915 0.14942 0.08038 0.0
C12 C 0.23914 0.12193 0.05018 0.0
O13 O 0.23673 0.12152 0.08979 0.0
Mg14 Mg 0.9183 0.00747 0.38186 0.0
O15 O 0.98667 0.04054 0.39848 0.0
O16 O 0.9881 0.09591 0.41453 0.0
Mg17 Mg 0.92488 0.10347 0.40649 0.0
C18 C 0.00602 0.07154 0.40994 0.0
C19 C 0.95591 0.94048 0.37493 0.0
O20 O 0.94881 0.93525 0.38974 0.0
O21 O 0.95636 0.07198 0.36736 0.0
O22 O 0.95992 0.12846 0.38342 0.0
O23 O 0.87584 0.9578 0.39985 0.0
O24 O 0.88484 0.02833 0.39756 0.0
C25 C 0.96902 0.11515 0.37063 0.0
C26 C 0.87009 0.99129 0.40539 0.0
O27 O 0.94713 0.96873 0.36809 0.0
Mg28 Mg 0.03372 0.05742 0.72161 0.0
O29 O 0.0851 0.12741 0.73575 0.0
O30 O 0.04116 0.14786 0.74964 0.0
Mg31 Mg 0.96096 0.08818 0.74507 0.0
C32 C 0.08202 0.15597 0.74525 0.0
C33 C 0.13555 0.07784 0.71298 0.0
O34 O 0.13954 0.07519 0.728 0.0
O35 O 0.01087 0.0958 0.70549 0.0
O36 O 0.96417 0.1106 0.72016 0.0
O37 O 0.03727 0.01682 0.74098 0.0
O38 O 0.98269 0.03742 0.73815 0.0
C39 C 0.98332 0.11225 0.70736 0.0
C40 C 0.00105 0.01823 0.7463 0.0
O41 O 0.09616 0.07167 0.70684 0.0
H42 H 0.9778 0.43338 0.11808 0.0
H43 H 0.06133 0.83867 0.24196 0.0
H44 H 0.94636 0.42453 0.20721 0.0
H45 H 0.94409 0.35677 0.19364 0.0
H46 H 0.09961 0.44413 0.1892 0.0
H47 H 0.10187 0.51127 0.20312 0.0
H48 H 0.94518 0.47615 0.181 0.0
H49 H 0.94402 0.44881 0.15424 0.0
H50 H 0.09887 0.55268 0.15379 0.0
H51 H 0.09951 0.57929 0.18061 0.0
H52 H 0.95064 0.57565 0.18431 0.0
H53 H 0.9564 0.62363 0.1626 0.0
H54 H 0.11218 0.71449 0.17331 0.0
H55 H 0.10614 0.66539 0.19441 0.0
H56 H 0.94819 0.60315 0.22684 0.0
H57 H 0.94488 0.67299 0.23505 0.0
H58 H 0.09956 0.76397 0.22917 0.0
H59 H 0.10238 0.69379 0.22116 0.0
H60 H 0.95684 0.52961 0.25058 0.0
H61 H 0.9524 0.56311 0.27566 0.0
H62 H 0.09842 0.6849 0.27197 0.0
H63 H 0.10341 0.6495 0.24745 0.0
H64 H 0.956 0.44529 0.23615 0.0
H65 H 0.96503 0.39594 0.25465 0.0
H66 H 0.1185 0.50383 0.26256 0.0
H67 H 0.10909 0.55286 0.24393 0.0
O68 O 0.97894 0.44517 0.12858 0.0
O69 O 0.05836 0.49978 0.12885 0.0
O70 O 0.98209 0.76216 0.24152 0.0
O71 O 0.06149 0.81051 0.23862 0.0
C72 C 0.02409 0.51582 0.21084 0.0
C73 C 0.02352 0.54419 0.1992 0.0
C74 C 0.02562 0.58685 0.20327 0.0
C75 C 0.02735 0.60078 0.21898 0.0
C76 C 0.02872 0.5727 0.23067 0.0
C77 C 0.02734 0.53031 0.22658 0.0
C78 C 0.02436 0.47249 0.20622 0.0
C79 C 0.98019 0.42831 0.2039 0.0
C80 C 0.9789 0.38986 0.19612 0.0
C81 C 0.02164 0.39566 0.19036 0.0
C82 C 0.06625 0.43906 0.19355 0.0
C83 C 0.06764 0.47718 0.20153 0.0
C84 C 0.02237 0.52973 0.18268 0.0
C85 C 0.97871 0.49307 0.17506 0.0
C86 C 0.9782 0.4775 0.15979 0.0
C87 C 0.02138 0.49851 0.15188 0.0
C88 C 0.06498 0.53573 0.15954 0.0
C89 C 0.06544 0.55115 0.17482 0.0
C90 C 0.02791 0.61764 0.191 0.0
C91 C 0.98583 0.60618 0.18196 0.0
C92 C 0.98921 0.63356 0.16961 0.0
C93 C 0.0348 0.67263 0.16615 0.0
C94 C 0.07666 0.68411 0.17544 0.0
C95 C 0.07325 0.65664 0.18767 0.0
C96 C 0.02535 0.64356 0.22322 0.0
C97 C 0.98119 0.63827 0.22722 0.0
C98 C 0.97946 0.67818 0.23194 0.0
C99 C 0.02196 0.72412 0.23273 0.0
C100 C 0.06613 0.72918 0.22864 0.0
C101 C 0.0678 0.68921 0.22395 0.0
C102 C 0.03014 0.58756 0.24713 0.0
C103 C 0.98842 0.5627 0.25548 0.0
C104 C 0.98579 0.58222 0.26972 0.0
C105 C 0.02461 0.62728 0.27569 0.0
C106 C 0.06788 0.65008 0.26782 0.0
C107 C 0.07071 0.63013 0.25372 0.0
C108 C 0.03197 0.50232 0.23865 0.0
C109 C 0.99152 0.45816 0.24188 0.0
C110 C 0.99681 0.43003 0.25238 0.0
C111 C 0.0426 0.44587 0.25991 0.0
C112 C 0.08279 0.49083 0.25696 0.0
C113 C 0.07751 0.5188 0.24636 0.0
C114 C 0.02087 0.48137 0.13575 0.0
C115 C 0.02043 0.7666 0.23788 0.0
H116 H 0.54027 0.03234 0.44972 0.0
H117 H 0.32135 0.19987 0.56737 0.0
H118 H 0.57015 0.04136 0.53356 0.0
H119 H 0.62858 0.02049 0.52564 0.0
H120 H 0.74661 0.16668 0.53626 0.0
H121 H 0.68725 0.18756 0.54365 0.0
H122 H 0.4922 0.0441 0.51352 0.0
H123 H 0.49961 0.02614 0.48647 0.0
H124 H 0.63414 0.16353 0.48612 0.0
H125 H 0.62599 0.18125 0.51313 0.0
H126 H 0.41997 0.06064 0.53305 0.0
H127 H 0.35658 0.0537 0.51482 0.0
H128 H 0.46509 0.17914 0.49342 0.0
H129 H 0.52838 0.18714 0.51214 0.0
H130 H 0.43355 0.07876 0.56752 0.0
H131 H 0.36544 0.08629 0.57491 0.0
H132 H 0.42822 0.21939 0.55269 0.0
H133 H 0.49655 0.21179 0.54558 0.0
H134 H 0.52612 0.07981 0.58457 0.0
H135 H 0.49466 0.07774 0.60986 0.0
H136 H 0.51166 0.21475 0.60369 0.0
H137 H 0.54659 0.21802 0.5789 0.0
H138 H 0.60024 0.07021 0.56855 0.0
H139 H 0.66699 0.08128 0.5861 0.0
H140 H 0.71797 0.23066 0.59386 0.0
H141 H 0.6517 0.21961 0.57595 0.0
O142 O 0.53793 0.04026 0.46038 0.0
O143 O 0.60697 0.11125 0.46082 0.0
O144 O 0.31759 0.12784 0.57609 0.0
O145 O 0.34799 0.19611 0.56465 0.0
C146 C 0.58801 0.12804 0.54323 0.0
C147 C 0.55414 0.12478 0.53173 0.0
C148 C 0.51589 0.13084 0.53596 0.0
C149 C 0.51163 0.14035 0.55169 0.0
C150 C 0.54606 0.14434 0.56319 0.0
C151 C 0.5846 0.13878 0.55891 0.0
C152 C 0.62448 0.11604 0.53897 0.0
C153 C 0.60865 0.06885 0.53416 0.0
C154 C 0.64219 0.05688 0.52988 0.0
C155 C 0.69231 0.09189 0.5304 0.0
C156 C 0.70821 0.13901 0.53563 0.0
C157 C 0.67448 0.15101 0.53985 0.0
C158 C 0.55839 0.11408 0.51524 0.0
C159 C 0.52304 0.07039 0.50754 0.0
C160 C 0.52747 0.06018 0.49211 0.0
C161 C 0.56746 0.09342 0.48412 0.0
C162 C 0.60288 0.13715 0.49192 0.0
C163 C 0.59834 0.14735 0.50734 0.0
C164 C 0.47859 0.12479 0.52405 0.0
C165 C 0.43007 0.08673 0.52447 0.0
C166 C 0.39404 0.08272 0.51407 0.0
C167 C 0.40619 0.11607 0.50285 0.0
C168 C 0.45508 0.15301 0.50198 0.0
C169 C 0.49106 0.15758 0.51262 0.0
C170 C 0.47013 0.1449 0.55611 0.0
C171 C 0.43266 0.10965 0.56434 0.0
C172 C 0.39373 0.11398 0.56851 0.0
C173 C 0.3914 0.15349 0.5644 0.0
C174 C 0.42891 0.18856 0.55605 0.0
C175 C 0.46794 0.1843 0.55196 0.0
C176 C 0.53807 0.14879 0.57979 0.0
C177 C 0.52494 0.11027 0.58896 0.0
C178 C 0.50623 0.10883 0.60332 0.0
C179 C 0.49929 0.14544 0.60864 0.0
C180 C 0.51651 0.18594 0.60002 0.0
C181 C 0.53622 0.18778 0.58578 0.0
C182 C 0.62161 0.14426 0.57082 0.0
C183 C 0.62583 0.10531 0.57403 0.0
C184 C 0.66394 0.1117 0.58399 0.0
C185 C 0.69784 0.15694 0.59114 0.0
C186 C 0.69228 0.19547 0.58846 0.0
C187 C 0.65452 0.1892 0.5783 0.0
C188 C 0.57216 0.08238 0.46775 0.0
C189 C 0.35005 0.1582 0.56876 0.0
H190 H 0.5791 0.5995 -0.00148 0.0
H191 H 0.36733 0.28683 0.84519 0.0
H192 H 0.59155 0.67276 0.92229 0.0
H193 H 0.65458 0.74127 0.93885 0.0
H194 H 0.76586 0.72682 0.91795 0.0
H195 H 0.70265 0.65739 0.9018 0.0
H196 H 0.51361 0.56833 0.933 0.0
H197 H 0.52735 0.57844 0.9612 0.0
H198 H 0.671 0.60115 0.95698 0.0
H199 H 0.6565 0.59029 0.92879 0.0
H200 H 0.44549 0.4769 0.91176 0.0
H201 H 0.40743 0.40386 0.9257 0.0
H202 H 0.54578 0.41276 0.92992 0.0
H203 H 0.58345 0.48587 0.91608 0.0
H204 H 0.43703 0.49993 0.87908 0.0
H205 H 0.37442 0.42595 0.86471 0.0
H206 H 0.47361 0.37552 0.86529 0.0
H207 H 0.53602 0.44993 0.87954 0.0
H208 H 0.49725 0.58835 0.8652 0.0
H209 H 0.45511 0.55702 0.83976 0.0
H210 H 0.54708 0.50129 0.83032 0.0
H211 H 0.5864 0.52997 0.85634 0.0
H212 H 0.61065 0.6979 0.88328 0.0
H213 H 0.67116 0.76041 0.86768 0.0
H214 H 0.72086 0.66718 0.85348 0.0
H215 H 0.66083 0.60554 0.86897 0.0
O216 O 0.5742 0.59496 0.98737 0.0
O217 O 0.64773 0.60639 0.98458 0.0
O218 O 0.34184 0.34399 0.85091 0.0
O219 O 0.39121 0.31616 0.85103 0.0
C220 C 0.60403 0.6141 0.90291 0.0
C221 C 0.57599 0.57432 0.91174 0.0
C222 C 0.54034 0.52998 0.90425 0.0
C223 C 0.52973 0.52626 0.88818 0.0
C224 C 0.55746 0.56595 0.87938 0.0
C225 C 0.59604 0.60919 0.88662 0.0
C226 C 0.64255 0.66013 0.91086 0.0
C227 C 0.6296 0.6849 0.92112 0.0
C228 C 0.66548 0.7238 0.93057 0.0
C229 C 0.71488 0.73903 0.92967 0.0
C230 C 0.72801 0.71594 0.91875 0.0
C231 C 0.69203 0.67646 0.9095 0.0
C232 C 0.58413 0.57881 0.92887 0.0
C233 C 0.54788 0.57516 0.93821 0.0
C234 C 0.5559 0.58112 0.9543 0.0
C235 C 0.60036 0.5908 0.96135 0.0
C236 C 0.63641 0.59386 0.95193 0.0
C237 C 0.62827 0.58775 0.93583 0.0
C238 C 0.51713 0.48656 0.91299 0.0
C239 C 0.4674 0.46291 0.91568 0.0
C240 C 0.44575 0.42111 0.92353 0.0
C241 C 0.47364 0.40249 0.92882 0.0
C242 C 0.52351 0.42645 0.92608 0.0
C243 C 0.54504 0.46813 0.91821 0.0
C244 C 0.49092 0.48014 0.88032 0.0
C245 C 0.44502 0.47273 0.87614 0.0
C246 C 0.40939 0.4305 0.86792 0.0
C247 C 0.41906 0.39484 0.86381 0.0
C248 C 0.46498 0.40223 0.86825 0.0
C249 C 0.50062 0.44457 0.87643 0.0
C250 C 0.5447 0.56133 0.86258 0.0
C251 C 0.50938 0.57084 0.8574 0.0
C252 C 0.48535 0.55283 0.84279 0.0
C253 C 0.49691 0.52565 0.833 0.0
C254 C 0.53619 0.52082 0.83768 0.0
C255 C 0.55942 0.53794 0.85244 0.0
C256 C 0.63095 0.64703 0.87701 0.0
C257 C 0.63453 0.69112 0.87671 0.0
C258 C 0.66919 0.72673 0.86791 0.0
C259 C 0.70041 0.71845 0.85927 0.0
C260 C 0.6967 0.67427 0.85975 0.0
C261 C 0.6624 0.639 0.86856 0.0
C262 C 0.60904 0.59784 0.97845 0.0
C263 C 0.38159 0.35022 0.85488 0.0
C264 C 0.09775 0.20091 0.08879 0.0
C265 C 0.10195 0.16139 0.0911 0.0
C266 C 0.07509 0.21443 0.09939 0.0
C267 C 0.04938 0.2078 0.1403 0.0
H268 H 0.98215 0.27064 0.12758 0.0
C269 C -0.00086 0.3119 0.18337 0.0
C270 C 0.01891 0.35911 0.17939 0.0
C271 C 0.99756 0.27804 0.17276 0.0
C272 C 0.00045 0.25276 0.13129 0.0
H273 H 0.08363 0.10379 0.10606 0.0
H274 H 0.04354 0.12732 0.12453 0.0
H275 H -0.00098 0.22654 0.10822 0.0
H276 H 0.05038 0.40786 0.16121 0.0
H277 H 0.04725 0.34883 0.14265 0.0
H278 H 0.05187 0.23532 0.16334 0.0
C279 C 0.0585 0.14818 0.1146 0.0
C280 C 0.01031 0.22773 0.12023 0.0
C281 C 0.08137 0.13466 0.10399 0.0
C282 C 0.03562 0.37174 0.16457 0.0
C283 C 0.03328 0.33789 0.15392 0.0
C284 C 0.03907 0.2325 0.15139 0.0
C285 C 0.05578 0.18865 0.11253 0.0
C286 C 0.0367 0.20668 0.12452 0.0
C287 C 0.01464 0.29087 0.15795 0.0
C288 C 0.01626 0.25674 0.14687 0.0
H289 H 0.11311 0.22232 0.079 0.0
H290 H 0.07446 0.2463 0.09756 0.0
H291 H 0.07004 0.19227 0.144 0.0
H292 H 0.98582 0.30154 0.19474 0.0
H293 H 0.98308 0.24196 0.17609 0.0
C294 C 0.84677 0.02708 0.42647 0.0
C295 C 0.85478 0.99123 0.42124 0.0
C296 C 0.83833 0.03144 0.44189 0.0
C297 C 0.86092 0.04924 0.47704 0.0
H298 H 0.73359 0.96189 0.49182 0.0
C299 C 0.76184 0.11058 0.51414 0.0
C300 C 0.7268 0.07986 0.52404 0.0
C301 C 0.78829 0.0959 0.50583 0.0
C302 C 0.76998 0.98598 0.48818 0.0
H303 H 0.85725 0.9299 0.42789 0.0
H304 H 0.84022 0.93661 0.45502 0.0
H305 H 0.75824 0.93984 0.46821 0.0
H306 H 0.6953 0.01138 0.53409 0.0
H307 H 0.74145 0.98548 0.51939 0.0
H308 H 0.87198 0.09653 0.49645 0.0
C309 C 0.84204 0.96195 0.4471 0.0
C310 C 0.78392 0.97329 0.47464 0.0
C311 C 0.85143 0.95804 0.43162 0.0
C312 C 0.7214 0.03546 0.5263 0.0
C313 C 0.74786 0.02068 0.51793 0.0
C314 C 0.84729 0.06173 0.49063 0.0
C315 C 0.83668 -0.00053 0.45235 0.0
C316 C 0.82837 0.00594 0.4686 0.0
C317 C 0.78035 0.05012 0.5072 0.0
C318 C 0.80051 0.03142 0.49584 0.0
H319 H 0.84771 0.05238 0.41872 0.0
H320 H 0.83307 0.05994 0.44568 0.0
H321 H 0.89555 0.07477 0.47254 0.0
H322 H 0.76651 0.14473 0.51197 0.0
H323 H 0.81241 0.11925 0.49749 0.0
C324 C 0.00231 0.97924 0.77038 0.0
C325 C 0.98095 -0.00178 0.76112 0.0
C326 C 0.98034 0.95633 0.78365 0.0
C327 C 0.88406 0.93574 0.81037 0.0
H328 H 0.8706 0.81287 0.81369 0.0
C329 C 0.76625 0.80316 0.85543 0.0
C330 C 0.73679 0.75531 0.84967 0.0
C331 C 0.80208 0.83714 0.8465 0.0
C332 C 0.87403 0.84711 0.81292 0.0
H333 H 0.92065 0.00934 0.75876 0.0
H334 H 0.8822 0.96905 0.78164 0.0
H335 H 0.92379 0.86654 0.79503 0.0
H336 H 0.72045 0.70584 0.8299 0.0
H337 H 0.78235 0.76491 0.81431 0.0
H338 H 0.83214 0.91502 0.82771 0.0
C339 C 0.91631 0.9725 0.77889 0.0
C340 C 0.90507 0.87818 0.80237 0.0
C341 C 0.93827 0.99541 0.76569 0.0
C342 C 0.74323 0.74227 0.83475 0.0
C343 C 0.77885 0.7761 0.82585 0.0
C344 C 0.85287 0.90456 0.82091 0.0
C345 C 0.93654 0.95189 0.78787 0.0
C346 C 0.90946 0.92233 0.80068 0.0
C347 C 0.80898 0.82381 0.83166 0.0
C348 C 0.8465 0.85936 0.82197 0.0
H349 H 0.03536 0.98109 0.76721 0.0
H350 H 0.99713 0.94129 0.79043 0.0
H351 H 0.88723 0.96983 0.8095 0.0
H352 H 0.76236 0.81408 0.86696 0.0
H353 H 0.82489 0.87361 0.85131 0.0
C354 C 0.161 0.02565 0.0982 0.0
C355 C 0.21182 0.04654 0.09992 0.0
C356 C 0.12952 0.97715 0.10029 0.0
C357 C 0.12137 0.8625 0.10218 0.0
H358 H 0.04188 0.84237 0.13699 0.0
C359 C 0.07982 0.71959 0.14399 0.0
C360 C 0.03933 0.70206 0.15307 0.0
C361 C 0.08833 0.75278 0.13317 0.0
C362 C 0.0625 0.84658 0.12695 0.0
H363 H 0.26979 0.03335 0.10454 0.0
H364 H 0.2148 0.94831 0.1079 0.0
H365 H 0.0807 0.91848 0.12525 0.0
H366 H 0.97373 0.70265 0.15699 0.0
H367 H 0.98763 0.75949 0.13764 0.0
H368 H 0.10414 0.79105 0.10402 0.0
C369 C 0.1993 0.96933 0.10492 0.0
C370 C 0.08493 0.89041 0.12026 0.0
C371 C 0.23071 0.01794 0.10314 0.0
C372 C 0.0054 0.71564 0.15022 0.0
C373 C 0.01365 0.7486 0.13924 0.0
C374 C 0.09825 0.81833 0.10868 0.0
C375 C 0.14848 0.94875 0.10385 0.0
C376 C 0.11625 0.89939 0.1083 0.0
C377 C 0.05617 0.76887 0.13098 0.0
C378 C 0.07051 0.81066 0.12165 0.0
H379 H 0.1456 0.0472 0.09603 0.0
H380 H 0.09045 0.96207 0.09953 0.0
H381 H 0.14496 0.86854 0.09282 0.0
H382 H 0.10602 0.70891 0.14563 0.0
H383 H 0.12171 0.76773 0.1272 0.0
C384 C 0.07958 0.06466 0.41164 0.0
C385 C 0.04959 0.07818 0.41857 0.0
C386 C 0.11997 0.06977 0.42005 0.0
C387 C 0.16285 0.06881 0.45885 0.0
H388 H 0.29426 0.14179 0.44505 0.0
C389 C 0.32761 0.11228 0.49901 0.0
C390 C 0.3673 0.11326 0.49258 0.0
C391 C 0.29002 0.10862 0.48947 0.0
C392 C 0.25773 0.12058 0.44896 0.0
H393 H 0.03825 0.1075 0.4397 0.0
H394 H 0.10809 0.11518 0.45445 0.0
H395 H 0.22605 0.13332 0.42899 0.0
H396 H 0.39946 0.11142 0.47129 0.0
H397 H 0.33264 0.10301 0.45445 0.0
H398 H 0.19343 0.05448 0.47852 0.0
C399 C 0.10055 0.1012 0.44249 0.0
C400 C 0.21883 0.11601 0.43979 0.0
C401 C 0.06081 0.097 0.43402 0.0
C402 C 0.36914 0.11091 0.47645 0.0
C403 C 0.33101 0.10635 0.46685 0.0
C404 C 0.20145 0.0726 0.46788 0.0
C405 C 0.13031 0.08751 0.43558 0.0
C406 C 0.17126 0.09064 0.4448 0.0
C407 C 0.2908 0.1049 0.47325 0.0
C408 C 0.24955 0.09916 0.46319 0.0
H409 H 0.07185 0.05016 0.39974 0.0
H410 H 0.14244 0.05884 0.41454 0.0
H411 H 0.12626 0.0485 0.46281 0.0
H412 H 0.32591 0.11476 0.51145 0.0
H413 H 0.26047 0.10899 0.49485 0.0
C414 C 0.12719 0.24061 0.75621 0.0
C415 C 0.12744 0.19976 0.75138 0.0
C416 C 0.17027 0.28195 0.76207 0.0
C417 C 0.30608 0.33769 0.7664 0.0
H418 H 0.29612 0.41094 0.80049 0.0
C419 C 0.45331 0.45053 0.81558 0.0
C420 C 0.46385 0.49706 0.81921 0.0
C421 C 0.41673 0.42054 0.80429 0.0
C422 C 0.29933 0.39124 0.7908 0.0
H423 H 0.17271 0.1699 0.74891 0.0
H424 H 0.24713 0.24072 0.75991 0.0
H425 H 0.2221 0.34524 0.78709 0.0
H426 H 0.44578 0.54918 0.81295 0.0
H427 H 0.37992 0.49545 0.79376 0.0
H428 H 0.38373 0.38201 0.77112 0.0
C429 C 0.21436 0.24193 0.75865 0.0
C430 C 0.25692 0.35362 0.78305 0.0
C431 C 0.17153 0.20101 0.75247 0.0
C432 C 0.43816 0.51338 0.81071 0.0
C433 C 0.40073 0.48287 0.79965 0.0
C434 C 0.34847 0.37467 0.77441 0.0
C435 C 0.21438 0.283 0.76357 0.0
C436 C 0.25964 0.32577 0.77089 0.0
C437 C 0.38921 0.43598 0.7966 0.0
C438 C 0.34532 0.4013 0.78677 0.0
H439 H 0.09377 0.2408 0.7553 0.0
H440 H 0.16886 0.31305 0.7654 0.0
H441 H 0.30983 0.31798 0.75686 0.0
H442 H 0.47121 0.43602 0.82206 0.0
H443 H 0.40794 0.38423 0.80225 0.0
C444 C 0.94535 0.15482 0.69633 0.0
C445 C 0.9704 0.13114 0.69407 0.0
C446 C 0.92781 0.16764 0.6837 0.0
C447 C 0.88248 0.12625 0.64384 0.0
H448 H 0.87743 0.24071 0.64318 0.0
C449 C 0.76754 0.14573 0.59625 0.0
C450 C 0.73912 0.16373 0.60124 0.0
C451 C 0.80478 0.14959 0.60607 0.0
C452 C 0.87834 0.20846 0.64323 0.0
H453 H -0.00088 0.10482 0.67679 0.0
H454 H 0.96805 0.127 0.6547 0.0
H455 H 0.92845 0.23461 0.66327 0.0
H456 H 0.72788 0.20089 0.62015 0.0
H457 H 0.79195 0.20643 0.63754 0.0
H458 H 0.83075 0.09892 0.62437 0.0
C459 C 0.96182 0.13531 0.66628 0.0
C460 C 0.90771 0.2051 0.65469 0.0
C461 C 0.97974 0.12278 0.67893 0.0
C462 C 0.74949 0.18693 0.61604 0.0
C463 C 0.78639 0.19031 0.62594 0.0
C464 C 0.85288 0.12943 0.63249 0.0
C465 C 0.9347 0.15683 0.66854 0.0
C466 C 0.90931 0.16357 0.65527 0.0
C467 C 0.81399 0.17102 0.62115 0.0
C468 C 0.84967 0.17018 0.63222 0.0
H469 H 0.93787 0.16216 0.70785 0.0
H470 H 0.90667 0.18381 0.68581 0.0
H471 H 0.88236 0.09349 0.64414 0.0
H472 H 0.76075 0.12843 0.58477 0.0
H473 H 0.82597 0.13523 0.60189 0.0
C474 C 0.02536 0.99219 0.03293 0.0
C475 C 0.06323 0.03602 0.02825 0.0
C476 C 0.98607 0.9609 0.02253 0.0
C477 C 0.92558 0.95648 0.98444 0.0
H478 H 0.86595 0.81997 0.9865 0.0
C479 C 0.7957 0.8146 0.93605 0.0
C480 C 0.75222 0.7761 0.94097 0.0
C481 C 0.83212 0.84782 0.9469 0.0
C482 C 0.88211 0.85804 0.98589 0.0
H483 H 0.09041 0.08095 0.00892 0.0
H484 H 0.02332 0.02578 0.99065 0.0
H485 H 0.93326 0.87442 0.00499 0.0
H486 H 0.71252 0.74181 0.96094 0.0
H487 H 0.77667 0.79953 0.97993 0.0
H488 H 0.87529 0.93956 0.96489 0.0
C489 C 0.02269 0.01607 0.00247 0.0
C490 C 0.92051 0.8893 0.99652 0.0
C491 C 0.06143 0.04765 0.01292 0.0
C492 C 0.74556 0.77153 0.95688 0.0
C493 C 0.78228 0.80422 0.96771 0.0
C494 C 0.88774 0.92516 0.97365 0.0
C495 C 0.98426 0.9724 0.00714 0.0
C496 C 0.94281 0.93899 0.99595 0.0
C497 C 0.82597 0.84245 0.96281 0.0
C498 C 0.86567 0.87571 0.9743 0.0
H499 H 0.02562 0.98246 0.04471 0.0
H500 H 0.95683 0.92801 0.02665 0.0
H501 H 0.94103 0.9944 0.98381 0.0
H502 H 0.80155 0.81877 0.92383 0.0
H503 H 0.86566 0.87693 0.94287 0.0
C504 C 0.971 0.8737 0.37288 0.0
C505 C 0.97061 0.91144 0.36612 0.0
C506 C 0.98096 0.84375 0.36415 0.0
C507 C 0.97575 0.80314 0.32358 0.0
H508 H 0.04548 0.74706 0.3404 0.0
C509 C 0.9731 0.65047 0.28976 0.0
C510 C 0.01785 0.65322 0.28879 0.0
C511 C 0.9683 0.67995 0.3005 0.0
C512 C 0.02618 0.76265 0.33552 0.0
H513 H 0.98298 0.94901 0.34516 0.0
H514 H 0.00138 0.89749 0.33004 0.0
H515 H 0.03945 0.80623 0.35629 0.0
H516 H 0.09181 0.68722 0.29911 0.0
H517 H 0.08382 0.73993 0.31758 0.0
H518 H 0.96346 0.76084 0.30273 0.0
C519 C 0.9927 0.89017 0.34196 0.0
C520 C 0.02235 0.79622 0.34466 0.0
C521 C 0.98239 0.91986 0.35065 0.0
C522 C 0.05703 0.68466 0.29938 0.0
C523 C 0.05232 0.71454 0.31008 0.0
C524 C 0.97971 0.76987 0.31447 0.0
C525 C 0.99104 0.85113 0.34851 0.0
C526 C 0.99695 0.81674 0.33879 0.0
C527 C 0.00827 0.71342 0.31044 0.0
C528 C 0.0046 0.74891 0.32035 0.0
H529 H 0.96211 0.8663 0.38479 0.0
H530 H 0.97896 0.8138 0.36952 0.0
H531 H 0.9553 0.81764 0.31875 0.0
H532 H 0.94224 0.62724 0.28171 0.0
H533 H 0.93353 0.67744 0.30071 0.0
C534 C 0.17356 0.09475 0.6875 0.0
C535 C 0.17619 0.08753 0.70329 0.0
C536 C 0.21131 0.10285 0.67823 0.0
C537 C 0.34095 0.13806 0.67944 0.0
H538 H 0.30346 0.07497 0.63823 0.0
C539 C 0.47797 0.17716 0.632 0.0
C540 C 0.46863 0.13852 0.62189 0.0
C541 C 0.44503 0.17117 0.6431 0.0
C542 C 0.31464 0.09245 0.64976 0.0
H543 H 0.2209 0.08386 0.72177 0.0
H544 H 0.28648 0.09709 0.70547 0.0
H545 H 0.24074 0.0643 0.65518 0.0
H546 H 0.41774 0.06291 0.61591 0.0
H547 H 0.36198 0.05225 0.63556 0.0
H548 H 0.41505 0.16532 0.67403 0.0
C549 C 0.2555 0.09718 0.70032 0.0
C550 C 0.27863 0.0869 0.65941 0.0
C551 C 0.21777 0.08929 0.70964 0.0
C552 C 0.42674 0.09342 0.62361 0.0
C553 C 0.39416 0.08741 0.63473 0.0
C554 C 0.37713 0.14354 0.66976 0.0
C555 C 0.25248 0.10362 0.68448 0.0
C556 C 0.29128 0.10973 0.67434 0.0
C557 C 0.40216 0.12642 0.64431 0.0
C558 C 0.36431 0.12068 0.65482 0.0
H559 H 0.14225 0.09409 0.68227 0.0
H560 H 0.20824 0.10859 0.66613 0.0
H561 H 0.35192 0.15645 0.69084 0.0
H562 H 0.51013 0.21227 0.63112 0.0
H563 H 0.45221 0.202 0.65029 0.0
C564 C 0.27689 0.11324 0.02641 0.0
C565 C 0.26678 0.14118 0.03635 0.0
C566 C 0.29909 0.1308 0.01257 0.0
C567 C 0.37584 0.20158 0.98975 0.0
H568 H 0.31209 0.25033 0.96461 0.0
C569 C 0.47555 0.35805 0.95126 0.0
C570 C 0.45113 0.35934 0.93773 0.0
C571 C 0.45237 0.31967 0.9606 0.0
C572 C 0.32991 0.23599 0.97124 0.0
H573 H 0.27509 0.2104 0.04016 0.0
H574 H 0.31223 0.24013 0.01595 0.0
H575 H 0.27227 0.20502 0.98669 0.0
H576 H 0.38481 0.31995 0.92276 0.0
H577 H 0.34405 0.25292 0.93919 0.0
H578 H 0.4348 0.23488 0.97474 0.0
C579 C 0.30246 0.2046 0.01874 0.0
C580 C 0.30723 0.21039 0.98393 0.0
C581 C 0.28107 0.18747 0.03256 0.0
C582 C 0.4041 0.3203 0.93329 0.0
C583 C 0.38091 0.28189 0.94263 0.0
C584 C 0.39887 0.22767 0.97707 0.0
C585 C 0.31079 0.17615 0.00851 0.0
C586 C 0.33073 0.19443 0.99356 0.0
C587 C 0.4043 0.28186 0.95661 0.0
C588 C 0.37673 0.24642 0.96801 0.0
H589 H 0.26653 0.07751 0.0291 0.0
H590 H 0.30564 0.10852 0.00484 0.0
H591 H 0.39453 0.18957 0.99709 0.0
H592 H 0.51165 0.38781 0.95505 0.0
H593 H 0.47107 0.32107 0.97141 0.0
C594 C 0.98411 0.13748 0.34317 0.0
C595 C 0.99265 0.15097 0.35908 0.0
C596 C 0.00071 0.17221 0.33233 0.0
C597 C 0.03267 0.29633 0.32989 0.0
H598 H 0.0676 0.28149 0.28862 0.0
C599 C 0.07398 0.43472 0.28523 0.0
C600 C 0.04816 0.41537 0.27079 0.0
C601 C 0.07642 0.40524 0.29585 0.0
C602 C 0.05793 0.28605 0.30012 0.0
H603 H 0.0288 0.21111 0.37613 0.0
H604 H 0.05916 0.27149 0.3573 0.0
H605 H 0.0567 0.22456 0.30769 0.0
H606 H 0.00685 0.3506 0.25581 0.0
H607 H 0.01067 0.29901 0.27443 0.0
H608 H 0.03319 0.35727 0.32231 0.0
C609 C 0.03809 0.23426 0.35313 0.0
C610 C 0.05156 0.25343 0.31102 0.0
C611 C 0.02091 0.19966 0.36393 0.0
C612 C 0.02641 0.36633 0.26695 0.0
C613 C 0.02912 0.33692 0.27753 0.0
C614 C 0.03938 0.32902 0.31906 0.0
C615 C 0.02672 0.22103 0.33722 0.0
C616 C 0.03812 0.25779 0.32597 0.0
C617 C 0.05339 0.35593 0.29219 0.0
C618 C 0.05131 0.32383 0.304 0.0
H619 H 0.96237 0.10018 0.33911 0.0
H620 H 0.99097 0.16068 0.32018 0.0
H621 H 0.02129 0.30032 0.34116 0.0
H622 H 0.09098 0.47238 0.2885 0.0
H623 H 0.09569 0.42088 0.30704 0.0
loop_
_geom_bond_atom_site_label_1
_geom_bond_atom_site_label_2
_geom_bond_distance
_geom_bond_site_symmetry_2
_ccdc_geom_bond_type
Mg0 O1 2.028 . S
Mg0 O7 1.986 . S
Mg0 O9 2.114 . S
Mg0 O10 2.251 . S
Mg0 O13 2.010 . S
O1 Mg0 2.028 . S
O1 C4 1.250 . S
O2 Mg3 2.028 . S
O2 C4 1.248 . S
Mg3 O2 2.028 . S
Mg3 O8 2.032 . S
Mg3 O10 2.079 . S
C4 O1 1.250 . S
C4 O2 1.248 . S
C5 O6 1.264 . S
C5 O13 1.249 . S
O6 C5 1.264 . S
O7 Mg0 1.986 . S
O7 C11 1.246 . S
O8 Mg3 2.032 . S
O8 C11 1.259 . S
O9 Mg0 2.114 . S
O9 C12 1.252 . S
O10 Mg0 2.251 . S
O10 Mg3 2.079 . S
O10 C12 1.273 . S
C11 O7 1.246 . S
C11 O8 1.259 . S
C12 O9 1.252 . S
C12 O10 1.273 . S
O13 Mg0 2.010 . S
O13 C5 1.249 . S
Mg14 O15 2.028 1_655 S
Mg14 O21 1.986 1_655 S
Mg14 O23 2.114 1_545 S
Mg14 O24 2.251 . S
Mg14 O27 2.010 1_545 S
O15 Mg14 2.028 1_455 S
O15 C18 1.250 . S
O16 Mg17 2.028 . S
O16 C18 1.248 . S
Mg17 O16 2.028 . S
Mg17 O22 2.032 . S
Mg17 O24 2.079 1_455 S
C18 O15 1.250 . S
C18 O16 1.248 . S
C19 O20 1.264 . S
C19 O27 1.249 . S
O20 C19 1.264 . S
O21 Mg14 1.986 1_455 S
O21 C25 1.246 . S
O22 Mg17 2.032 . S
O22 C25 1.259 . S
O23 Mg14 2.114 1_565 S
O23 C26 1.252 1_565 S
O24 Mg14 2.251 . S
O24 Mg17 2.079 1_655 S
O24 C26 1.273 . S
C25 O21 1.246 . S
C25 O22 1.259 . S
C26 O23 1.252 1_545 S
C26 O24 1.273 . S
O27 Mg14 2.010 1_565 S
O27 C19 1.249 . S
Mg28 O29 2.028 . S
Mg28 O35 1.986 . S
Mg28 O37 2.114 . S
Mg28 O38 2.251 . S
Mg28 O41 2.010 . S
O29 Mg28 2.028 . S
O29 C32 1.250 . S
O30 Mg31 2.028 . S
O30 C32 1.248 . S
Mg31 O30 2.028 . S
Mg31 O36 2.032 . S
Mg31 O38 2.079 . S
C32 O29 1.250 . S
C32 O30 1.248 . S
C33 O34 1.264 . S
C33 O41 1.249 . S
O34 C33 1.264 . S
O35 Mg28 1.986 . S
O35 C39 1.246 . S
O36 Mg31 2.032 . S
O36 C39 1.259 . S
O37 Mg28 2.114 . S
O37 C40 1.252 . S
O38 Mg28 2.251 . S
O38 Mg31 2.079 . S
O38 C40 1.273 . S
C39 O35 1.246 . S
C39 O36 1.259 . S
C40 O37 1.252 . S
C40 O38 1.273 . S
O41 Mg28 2.010 . S
O41 C33 1.249 . S
H42 O68 0.856 . S
H43 O71 0.854 . S
H44 C79 0.930 1_655 S
H45 C80 0.930 1_655 S
H46 C82 0.930 . S
H47 C83 0.930 . S
H48 C85 0.931 . S
H49 C86 0.930 . S
H50 C88 0.930 . S
H51 C89 0.929 . S
H52 C91 0.930 . S
H53 C92 0.931 . S
H54 C94 0.930 . S
H55 C95 0.929 . S
H56 C97 0.931 1_655 S
H57 C98 0.930 1_655 S
H58 C100 0.930 . S
H59 C101 0.932 . S
H60 C103 0.930 . S
H61 C104 0.929 . S
H62 C106 0.931 . S
H63 C107 0.930 . S
H64 C109 0.929 1_655 S
H65 C110 0.931 1_655 S
H66 C112 0.930 . S
H67 C113 0.929 . S
O68 H42 0.856 . S
O68 C114 1.300 . S
O69 C114 1.209 . S
O70 C115 1.199 . S
O71 H43 0.854 . S
O71 C115 1.297 . S
C72 C73 1.404 . S
C72 C77 1.397 . S
C72 C78 1.492 . S
C73 C72 1.404 . S
C73 C74 1.396 . S
C73 C84 1.492 . S
C74 C73 1.396 . S
C74 C75 1.397 . S
C74 C90 1.509 . S
C75 C74 1.397 . S
C75 C76 1.412 . S
C75 C96 1.485 . S
C76 C75 1.412 . S
C76 C77 1.388 . S
C76 C102 1.490 . S
C77 C72 1.397 . S
C77 C76 1.388 . S
C77 C108 1.519 . S
C78 C72 1.492 . S
C78 C79 1.363 . S
C78 C83 1.390 . S
C79 H44 0.930 1_455 S
C79 C78 1.363 . S
C79 C80 1.372 . S
C80 H45 0.930 1_455 S
C80 C79 1.372 . S
C80 C81 1.383 . S
C81 C80 1.383 . S
C81 C82 1.395 . S
C82 H46 0.930 . S
C82 C81 1.395 . S
C82 C83 1.362 . S
C83 H47 0.930 . S
C83 C78 1.390 . S
C83 C82 1.362 . S
C84 C73 1.492 . S
C84 C85 1.377 . S
C84 C89 1.397 . S
C85 H48 0.931 . S
C85 C84 1.377 . S
C85 C86 1.376 . S
C86 H49 0.930 . S
C86 C85 1.376 . S
C86 C87 1.376 . S
C87 C86 1.376 . S
C87 C88 1.378 . S
C87 C114 1.486 . S
C88 H50 0.930 . S
C88 C87 1.378 . S
C88 C89 1.376 . S
C89 H51 0.929 . S
C89 C84 1.397 . S
C89 C88 1.376 . S
C90 C74 1.509 . S
C90 C91 1.391 . S
C90 C95 1.386 . S
C91 H52 0.930 . S
C91 C90 1.391 . S
C91 C92 1.375 . S
C92 H53 0.931 . S
C92 C91 1.375 . S
C92 C93 1.375 . S
C93 C92 1.375 . S
C93 C94 1.361 . S
C94 H54 0.930 . S
C94 C93 1.361 . S
C94 C95 1.399 . S
C95 H55 0.929 . S
C95 C90 1.386 . S
C95 C94 1.399 . S
C96 C75 1.485 . S
C96 C97 1.394 . S
C96 C101 1.360 . S
C97 H56 0.931 1_455 S
C97 C96 1.394 . S
C97 C98 1.372 . S
C98 H57 0.930 1_455 S
C98 C97 1.372 . S
C98 C99 1.397 . S
C99 C98 1.397 . S
C99 C100 1.390 . S
C99 C115 1.476 . S
C100 H58 0.930 . S
C100 C99 1.390 . S
C100 C101 1.366 . S
C101 H59 0.932 . S
C101 C96 1.360 . S
C101 C100 1.366 . S
C102 C76 1.490 . S
C102 C103 1.380 1_455 S
C102 C107 1.386 . S
C103 H60 0.930 . S
C103 C102 1.380 1_655 S
C103 C104 1.381 . S
C104 H61 0.929 . S
C104 C103 1.381 . S
C104 C105 1.371 1_655 S
C105 C104 1.371 1_455 S
C105 C106 1.380 . S
C106 H62 0.931 . S
C106 C105 1.380 . S
C106 C107 1.387 . S
C107 H63 0.930 . S
C107 C102 1.386 . S
C107 C106 1.387 . S
C108 C77 1.519 . S
C108 C109 1.377 . S
C108 C113 1.361 . S
C109 H64 0.929 1_455 S
C109 C108 1.377 . S
C109 C110 1.386 . S
C110 H65 0.931 1_455 S
C110 C109 1.386 . S
C110 C111 1.363 . S
C111 C110 1.363 . S
C111 C112 1.385 . S
C112 H66 0.930 . S
C112 C111 1.385 . S
C112 C113 1.396 . S
C113 H67 0.929 . S
C113 C108 1.361 . S
C113 C112 1.396 . S
C114 O68 1.300 . S
C114 O69 1.209 . S
C114 C87 1.486 . S
C115 O70 1.199 . S
C115 O71 1.297 . S
C115 C99 1.476 . S
H116 O142 0.856 . S
H117 O145 0.854 . S
H118 C153 0.930 . S
H119 C154 0.930 . S
H120 C156 0.930 . S
H121 C157 0.930 . S
H122 C159 0.931 . S
H123 C160 0.930 . S
H124 C162 0.930 . S
H125 C163 0.929 . S
H126 C165 0.930 . S
H127 C166 0.931 . S
H128 C168 0.930 . S
H129 C169 0.929 . S
H130 C171 0.931 . S
H131 C172 0.930 . S
H132 C174 0.930 . S
H133 C175 0.932 . S
H134 C177 0.930 . S
H135 C178 0.929 . S
H136 C180 0.931 . S
H137 C181 0.930 . S
H138 C183 0.929 . S
H139 C184 0.931 . S
H140 C186 0.930 . S
H141 C187 0.929 . S
O142 H116 0.856 . S
O142 C188 1.300 . S
O143 C188 1.209 . S
O144 C189 1.199 . S
O145 H117 0.854 . S
O145 C189 1.297 . S
C146 C147 1.404 . S
C146 C151 1.397 . S
C146 C152 1.492 . S
C147 C146 1.404 . S
C147 C148 1.396 . S
C147 C158 1.492 . S
C148 C147 1.396 . S
C148 C149 1.397 . S
C148 C164 1.509 . S
C149 C148 1.397 . S
C149 C150 1.412 . S
C149 C170 1.485 . S
C150 C149 1.412 . S
C150 C151 1.388 . S
C150 C176 1.490 . S
C151 C146 1.397 . S
C151 C150 1.388 . S
C151 C182 1.519 . S
C152 C146 1.492 . S
C152 C153 1.363 . S
C152 C157 1.390 . S
C153 H118 0.930 . S
C153 C152 1.363 . S
C153 C154 1.372 . S
C154 H119 0.930 . S
C154 C153 1.372 . S
C154 C155 1.383 . S
C155 C154 1.383 . S
C155 C156 1.395 . S
C156 H120 0.930 . S
C156 C155 1.395 . S
C156 C157 1.362 . S
C157 H121 0.930 . S
C157 C152 1.390 . S
C157 C156 1.362 . S
C158 C147 1.492 . S
C158 C159 1.377 . S
C158 C163 1.397 . S
C159 H122 0.931 . S
C159 C158 1.377 . S
C159 C160 1.376 . S
C160 H123 0.930 . S
C160 C159 1.376 . S
C160 C161 1.376 . S
C161 C160 1.376 . S
C161 C162 1.378 . S
C161 C188 1.486 . S
C162 H124 0.930 . S
C162 C161 1.378 . S
C162 C163 1.376 . S
C163 H125 0.929 . S
C163 C158 1.397 . S
C163 C162 1.376 . S
C164 C148 1.509 . S
C164 C165 1.391 . S
C164 C169 1.386 . S
C165 H126 0.930 . S
C165 C164 1.391 . S
C165 C166 1.375 . S
C166 H127 0.931 . S
C166 C165 1.375 . S
C166 C167 1.375 . S
C167 C166 1.375 . S
C167 C168 1.361 . S
C168 H128 0.930 . S
C168 C167 1.361 . S
C168 C169 1.399 . S
C169 H129 0.929 . S
C169 C164 1.386 . S
C169 C168 1.399 . S
C170 C149 1.485 . S
C170 C171 1.394 . S
C170 C175 1.360 . S
C171 H130 0.931 . S
C171 C170 1.394 . S
C171 C172 1.372 . S
C172 H131 0.930 . S
C172 C171 1.372 . S
C172 C173 1.397 . S
C173 C172 1.397 . S
C173 C174 1.390 . S
C173 C189 1.476 . S
C174 H132 0.930 . S
C174 C173 1.390 . S
C174 C175 1.366 . S
C175 H133 0.932 . S
C175 C170 1.360 . S
C175 C174 1.366 . S
C176 C150 1.490 . S
C176 C177 1.380 . S
C176 C181 1.386 . S
C177 H134 0.930 . S
C177 C176 1.380 . S
C177 C178 1.381 . S
C178 H135 0.929 . S
C178 C177 1.381 . S
C178 C179 1.371 . S
C179 C178 1.371 . S
C179 C180 1.380 . S
C180 H136 0.931 . S
C180 C179 1.380 . S
C180 C181 1.387 . S
C181 H137 0.930 . S
C181 C176 1.386 . S
C181 C180 1.387 . S
C182 C151 1.519 . S
C182 C183 1.377 . S
C182 C187 1.361 . S
C183 H138 0.929 . S
C183 C182 1.377 . S
C183 C184 1.386 . S
C184 H139 0.931 . S
C184 C183 1.386 . S
C184 C185 1.363 . S
C185 C184 1.363 . S
C185 C186 1.385 . S
C186 H140 0.930 . S
C186 C185 1.385 . S
C186 C187 1.396 . S
C187 H141 0.929 . S
C187 C182 1.361 . S
C187 C186 1.396 . S
C188 O142 1.300 . S
C188 O143 1.209 . S
C188 C161 1.486 . S
C189 O144 1.199 . S
C189 O145 1.297 . S
C189 C173 1.476 . S
H190 O216 0.856 1_554 S
H191 O219 0.854 . S
H192 C227 0.930 . S
H193 C228 0.930 . S
H194 C230 0.930 . S
H195 C231 0.930 . S
H196 C233 0.931 . S
H197 C234 0.930 . S
H198 C236 0.930 . S
H199 C237 0.929 . S
H200 C239 0.930 . S
H201 C240 0.931 . S
H202 C242 0.930 . S
H203 C243 0.929 . S
H204 C245 0.931 . S
H205 C246 0.930 . S
H206 C248 0.930 . S
H207 C249 0.932 . S
H208 C251 0.930 . S
H209 C252 0.929 . S
H210 C254 0.931 . S
H211 C255 0.930 . S
H212 C257 0.929 . S
H213 C258 0.931 . S
H214 C260 0.930 . S
H215 C261 0.929 . S
O216 H190 0.856 1_556 S
O216 C262 1.300 . S
O217 C262 1.209 . S
O218 C263 1.199 . S
O219 H191 0.854 . S
O219 C263 1.297 . S
C220 C221 1.404 . S
C220 C225 1.397 . S
C220 C226 1.492 . S
C221 C220 1.404 . S
C221 C222 1.396 . S
C221 C232 1.492 . S
C222 C221 1.396 . S
C222 C223 1.397 . S
C222 C238 1.509 . S
C223 C222 1.397 . S
C223 C224 1.412 . S
C223 C244 1.485 . S
C224 C223 1.412 . S
C224 C225 1.388 . S
C224 C250 1.490 . S
C225 C220 1.397 . S
C225 C224 1.388 . S
C225 C256 1.519 . S
C226 C220 1.492 . S
C226 C227 1.363 . S
C226 C231 1.390 . S
C227 H192 0.930 . S
C227 C226 1.363 . S
C227 C228 1.372 . S
C228 H193 0.930 . S
C228 C227 1.372 . S
C228 C229 1.383 . S
C229 C228 1.383 . S
C229 C230 1.395 . S
C230 H194 0.930 . S
C230 C229 1.395 . S
C230 C231 1.362 . S
C231 H195 0.930 . S
C231 C226 1.390 . S
C231 C230 1.362 . S
C232 C221 1.492 . S
C232 C233 1.377 . S
C232 C237 1.397 . S
C233 H196 0.931 . S
C233 C232 1.377 . S
C233 C234 1.376 . S
C234 H197 0.930 . S
C234 C233 1.376 . S
C234 C235 1.376 . S
C235 C234 1.376 . S
C235 C236 1.378 . S
C235 C262 1.486 . S
C236 H198 0.930 . S
C236 C235 1.378 . S
C236 C237 1.376 . S
C237 H199 0.929 . S
C237 C232 1.397 . S
C237 C236 1.376 . S
C238 C222 1.509 . S
C238 C239 1.391 . S
C238 C243 1.386 . S
C239 H200 0.930 . S
C239 C238 1.391 . S
C239 C240 1.375 . S
C240 H201 0.931 . S
C240 C239 1.375 . S
C240 C241 1.375 . S
C241 C240 1.375 . S
C241 C242 1.361 . S
C242 H202 0.930 . S
C242 C241 1.361 . S
C242 C243 1.399 . S
C243 H203 0.929 . S
C243 C238 1.386 . S
C243 C242 1.399 . S
C244 C223 1.485 . S
C244 C245 1.394 . S
C244 C249 1.360 . S
C245 H204 0.931 . S
C245 C244 1.394 . S
C245 C246 1.372 . S
C246 H205 0.930 . S
C246 C245 1.372 . S
C246 C247 1.397 . S
C247 C246 1.397 . S
C247 C248 1.390 . S
C247 C263 1.476 . S
C248 H206 0.930 . S
C248 C247 1.390 . S
C248 C249 1.366 . S
C249 H207 0.932 . S
C249 C244 1.360 . S
C249 C248 1.366 . S
C250 C224 1.490 . S
C250 C251 1.380 . S
C250 C255 1.386 . S
C251 H208 0.930 . S
C251 C250 1.380 . S
C251 C252 1.381 . S
C252 H209 0.929 . S
C252 C251 1.381 . S
C252 C253 1.371 . S
C253 C252 1.371 . S
C253 C254 1.380 . S
C254 H210 0.931 . S
C254 C253 1.380 . S
C254 C255 1.387 . S
C255 H211 0.930 . S
C255 C250 1.386 . S
C255 C254 1.387 . S
C256 C225 1.519 . S
C256 C257 1.377 . S
C256 C261 1.361 . S
C257 H212 0.929 . S
C257 C256 1.377 . S
C257 C258 1.386 . S
C258 H213 0.931 . S
C258 C257 1.386 . S
C258 C259 1.363 . S
C259 C258 1.363 . S
C259 C260 1.385 . S
C260 H214 0.930 . S
C260 C259 1.385 . S
C260 C261 1.396 . S
C261 H215 0.929 . S
C261 C256 1.361 . S
C261 C260 1.396 . S
C262 O216 1.300 . S
C262 O217 1.209 . S
C262 C235 1.486 . S
C263 O218 1.199 . S
C263 O219 1.297 . S
C263 C247 1.476 . S
C264 C265 1.349 . S
C264 C266 1.327 . S
C264 H289 0.950 . S
C265 C264 1.349 . S
C265 C281 1.349 . S
C266 C264 1.327 . S
C266 C285 1.429 . S
C266 H290 0.950 . S
C267 C284 1.574 . S
C267 C286 1.368 . S
C267 H291 0.949 . S
H268 C272 0.949 . S
C269 C270 1.349 . S
C269 C271 1.327 . S
C269 H292 0.950 . S
C270 C269 1.349 . S
C270 C282 1.349 . S
C271 C269 1.327 . S
C271 C287 1.429 . S
C271 H293 0.950 . S
C272 H268 0.949 . S
C272 C280 1.574 . S
C272 C288 1.368 . S
H273 C281 0.950 . S
H274 C279 0.950 . S
H275 C280 0.949 . S
H276 C282 0.950 . S
H277 C283 0.950 . S
H278 C284 0.949 . S
C279 H274 0.950 . S
C279 C281 1.327 . S
C279 C285 1.429 . S
C280 C272 1.574 . S
C280 H275 0.949 . S
C280 C286 1.368 . S
C281 C265 1.349 . S
C281 H273 0.950 . S
C281 C279 1.327 . S
C282 C270 1.349 . S
C282 H276 0.950 . S
C282 C283 1.327 . S
C283 H277 0.950 . S
C283 C282 1.327 . S
C283 C287 1.429 . S
C284 C267 1.574 . S
C284 H278 0.949 . S
C284 C288 1.368 . S
C285 C266 1.429 . S
C285 C279 1.429 . S
C285 C286 1.523 . S
C286 C267 1.368 . S
C286 C280 1.368 . S
C286 C285 1.523 . S
C287 C271 1.429 . S
C287 C283 1.429 . S
C287 C288 1.523 . S
C288 C272 1.368 . S
C288 C284 1.368 . S
C288 C287 1.523 . S
H289 C264 0.950 . S
H290 C266 0.950 . S
H291 C267 0.949 . S
H292 C269 0.950 . S
H293 C271 0.950 . S
C294 C295 1.349 1_565 S
C294 C296 1.327 . S
C294 H319 0.950 . S
C295 C294 1.349 1_545 S
C295 C311 1.349 . S
C296 C294 1.327 . S
C296 C315 1.429 1_565 S
C296 H320 0.950 . S
C297 C314 1.574 . S
C297 C316 1.368 . S
C297 H321 0.949 . S
H298 C302 0.949 1_565 S
C299 C300 1.349 . S
C299 C301 1.327 . S
C299 H322 0.950 . S
C300 C299 1.349 . S
C300 C312 1.349 . S
C301 C299 1.327 . S
C301 C317 1.429 . S
C301 H323 0.950 . S
C302 H298 0.949 1_545 S
C302 C310 1.574 1_545 S
C302 C318 1.368 . S
H303 C311 0.950 . S
H304 C309 0.950 . S
H305 C310 0.949 . S
H306 C312 0.950 . S
H307 C313 0.950 1_565 S
H308 C314 0.949 . S
C309 H304 0.950 . S
C309 C311 1.327 . S
C309 C315 1.429 . S
C310 C302 1.574 1_565 S
C310 H305 0.949 . S
C310 C316 1.368 1_565 S
C311 C295 1.349 . S
C311 H303 0.950 . S
C311 C309 1.327 . S
C312 C300 1.349 . S
C312 H306 0.950 . S
C312 C313 1.327 . S
C313 H307 0.950 1_545 S
C313 C312 1.327 . S
C313 C317 1.429 . S
C314 C297 1.574 . S
C314 H308 0.949 . S
C314 C318 1.368 . S
C315 C296 1.429 1_545 S
C315 C309 1.429 . S
C315 C316 1.523 . S
C316 C297 1.368 . S
C316 C310 1.368 1_545 S
C316 C315 1.523 . S
C317 C301 1.429 . S
C317 C313 1.429 . S
C317 C318 1.523 . S
C318 C302 1.368 . S
C318 C314 1.368 . S
C318 C317 1.523 . S
H319 C294 0.950 . S
H320 C296 0.950 . S
H321 C297 0.949 . S
H322 C299 0.950 . S
H323 C301 0.950 . S
C324 C325 1.349 . S
C324 C326 1.327 . S
C324 H349 0.950 . S
C325 C324 1.349 . S
C325 C341 1.349 . S
C326 C324 1.327 . S
C326 C345 1.429 . S
C326 H350 0.950 . S
C327 C344 1.574 . S
C327 C346 1.368 . S
C327 H351 0.949 . S
H328 C332 0.949 . S
C329 C330 1.349 . S
C329 C331 1.327 . S
C329 H352 0.950 . S
C330 C329 1.349 . S
C330 C342 1.349 . S
C331 C329 1.327 . S
C331 C347 1.429 . S
C331 H353 0.950 . S
C332 H328 0.949 . S
C332 C340 1.574 . S
C332 C348 1.368 . S
H333 C341 0.950 1_545 S
H334 C339 0.950 . S
H335 C340 0.949 . S
H336 C342 0.950 . S
H337 C343 0.950 . S
H338 C344 0.949 . S
C339 H334 0.950 . S
C339 C341 1.327 . S
C339 C345 1.429 . S
C340 C332 1.574 . S
C340 H335 0.949 . S
C340 C346 1.368 . S
C341 C325 1.349 . S
C341 H333 0.950 1_565 S
C341 C339 1.327 . S
C342 C330 1.349 . S
C342 H336 0.950 . S
C342 C343 1.327 . S
C343 H337 0.950 . S
C343 C342 1.327 . S
C343 C347 1.429 . S
C344 C327 1.574 . S
C344 H338 0.949 . S
C344 C348 1.368 . S
C345 C326 1.429 . S
C345 C339 1.429 . S
C345 C346 1.523 . S
C346 C327 1.368 . S
C346 C340 1.368 . S
C346 C345 1.523 . S
C347 C331 1.429 . S
C347 C343 1.429 . S
C347 C348 1.523 . S
C348 C332 1.368 . S
C348 C344 1.368 . S
C348 C347 1.523 . S
H349 C324 0.950 . S
H350 C326 0.950 . S
H351 C327 0.949 . S
H352 C329 0.950 . S
H353 C331 0.950 . S
C354 C355 1.349 . S
C354 C356 1.327 1_545 S
C354 H379 0.950 . S
C355 C354 1.349 . S
C355 C371 1.349 1_545 S
C356 C354 1.327 1_565 S
C356 C375 1.429 . S
C356 H380 0.950 . S
C357 C374 1.574 . S
C357 C376 1.368 . S
C357 H381 0.949 . S
H358 C362 0.949 . S
C359 C360 1.349 . S
C359 C361 1.327 . S
C359 H382 0.950 . S
C360 C359 1.349 . S
C360 C372 1.349 . S
C361 C359 1.327 . S
C361 C377 1.429 . S
C361 H383 0.950 . S
C362 H358 0.949 . S
C362 C370 1.574 . S
C362 C378 1.368 . S
H363 C371 0.950 . S
H364 C369 0.950 . S
H365 C370 0.949 . S
H366 C372 0.950 . S
H367 C373 0.950 . S
H368 C374 0.949 . S
C369 H364 0.950 . S
C369 C371 1.327 . S
C369 C375 1.429 . S
C370 C362 1.574 . S
C370 H365 0.949 . S
C370 C376 1.368 . S
C371 C355 1.349 1_565 S
C371 H363 0.950 . S
C371 C369 1.327 . S
C372 C360 1.349 . S
C372 H366 0.950 . S
C372 C373 1.327 . S
C373 H367 0.950 . S
C373 C372 1.327 . S
C373 C377 1.429 . S
C374 C357 1.574 . S
C374 H368 0.949 . S
C374 C378 1.368 . S
C375 C356 1.429 . S
C375 C369 1.429 . S
C375 C376 1.523 . S
C376 C357 1.368 . S
C376 C370 1.368 . S
C376 C375 1.523 . S
C377 C361 1.429 . S
C377 C373 1.429 . S
C377 C378 1.523 . S
C378 C362 1.368 . S
C378 C374 1.368 . S
C378 C377 1.523 . S
H379 C354 0.950 . S
H380 C356 0.950 . S
H381 C357 0.949 . S
H382 C359 0.950 . S
H383 C361 0.950 . S
C384 C385 1.349 . S
C384 C386 1.327 . S
C384 H409 0.950 . S
C385 C384 1.349 . S
C385 C401 1.349 . S
C386 C384 1.327 . S
C386 C405 1.429 . S
C386 H410 0.950 . S
C387 C404 1.574 . S
C387 C406 1.368 . S
C387 H411 0.949 . S
H388 C392 0.949 . S
C389 C390 1.349 . S
C389 C391 1.327 . S
C389 H412 0.950 . S
C390 C389 1.349 . S
C390 C402 1.349 . S
C391 C389 1.327 . S
C391 C407 1.429 . S
C391 H413 0.950 . S
C392 H388 0.949 . S
C392 C400 1.574 . S
C392 C408 1.368 . S
H393 C401 0.950 . S
H394 C399 0.950 . S
H395 C400 0.949 . S
H396 C402 0.950 . S
H397 C403 0.950 . S
H398 C404 0.949 . S
C399 H394 0.950 . S
C399 C401 1.327 . S
C399 C405 1.429 . S
C400 C392 1.574 . S
C400 H395 0.949 . S
C400 C406 1.368 . S
C401 C385 1.349 . S
C401 H393 0.950 . S
C401 C399 1.327 . S
C402 C390 1.349 . S
C402 H396 0.950 . S
C402 C403 1.327 . S
C403 H397 0.950 . S
C403 C402 1.327 . S
C403 C407 1.429 . S
C404 C387 1.574 . S
C404 H398 0.949 . S
C404 C408 1.368 . S
C405 C386 1.429 . S
C405 C399 1.429 . S
C405 C406 1.523 . S
C406 C387 1.368 . S
C406 C400 1.368 . S
C406 C405 1.523 . S
C407 C391 1.429 . S
C407 C403 1.429 . S
C407 C408 1.523 . S
C408 C392 1.368 . S
C408 C404 1.368 . S
C408 C407 1.523 . S
H409 C384 0.950 . S
H410 C386 0.950 . S
H411 C387 0.949 . S
H412 C389 0.950 . S
H413 C391 0.950 . S
C414 C415 1.349 . S
C414 C416 1.327 . S
C414 H439 0.950 . S
C415 C414 1.349 . S
C415 C431 1.349 . S
C416 C414 1.327 . S
C416 C435 1.429 . S
C416 H440 0.950 . S
C417 C434 1.574 . S
C417 C436 1.368 . S
C417 H441 0.949 . S
H418 C422 0.949 . S
C419 C420 1.349 . S
C419 C421 1.327 . S
C419 H442 0.950 . S
C420 C419 1.349 . S
C420 C432 1.349 . S
C421 C419 1.327 . S
C421 C437 1.429 . S
C421 H443 0.950 . S
C422 H418 0.949 . S
C422 C430 1.574 . S
C422 C438 1.368 . S
H423 C431 0.950 . S
H424 C429 0.950 . S
H425 C430 0.949 . S
H426 C432 0.950 . S
H427 C433 0.950 . S
H428 C434 0.949 . S
C429 H424 0.950 . S
C429 C431 1.327 . S
C429 C435 1.429 . S
C430 C422 1.574 . S
C430 H425 0.949 . S
C430 C436 1.368 . S
C431 C415 1.349 . S
C431 H423 0.950 . S
C431 C429 1.327 . S
C432 C420 1.349 . S
C432 H426 0.950 . S
C432 C433 1.327 . S
C433 H427 0.950 . S
C433 C432 1.327 . S
C433 C437 1.429 . S
C434 C417 1.574 . S
C434 H428 0.949 . S
C434 C438 1.368 . S
C435 C416 1.429 . S
C435 C429 1.429 . S
C435 C436 1.523 . S
C436 C417 1.368 . S
C436 C430 1.368 . S
C436 C435 1.523 . S
C437 C421 1.429 . S
C437 C433 1.429 . S
C437 C438 1.523 . S
C438 C422 1.368 . S
C438 C434 1.368 . S
C438 C437 1.523 . S
H439 C414 0.950 . S
H440 C416 0.950 . S
H441 C417 0.949 . S
H442 C419 0.950 . S
H443 C421 0.950 . S
C444 C445 1.349 . S
C444 C446 1.327 . S
C444 H469 0.950 . S
C445 C444 1.349 . S
C445 C461 1.349 1_655 S
C446 C444 1.327 . S
C446 C465 1.429 . S
C446 H470 0.950 . S
C447 C464 1.574 . S
C447 C466 1.368 . S
C447 H471 0.949 . S
H448 C452 0.949 . S
C449 C450 1.349 . S
C449 C451 1.327 . S
C449 H472 0.950 . S
C450 C449 1.349 . S
C450 C462 1.349 . S
C451 C449 1.327 . S
C451 C467 1.429 . S
C451 H473 0.950 . S
C452 H448 0.949 . S
C452 C460 1.574 . S
C452 C468 1.368 . S
H453 C461 0.950 . S
H454 C459 0.950 . S
H455 C460 0.949 . S
H456 C462 0.950 . S
H457 C463 0.950 . S
H458 C464 0.949 . S
C459 H454 0.950 . S
C459 C461 1.327 1_655 S
C459 C465 1.429 . S
C460 C452 1.574 . S
C460 H455 0.949 . S
C460 C466 1.368 . S
C461 C445 1.349 1_455 S
C461 H453 0.950 . S
C461 C459 1.327 1_455 S
C462 C450 1.349 . S
C462 H456 0.950 . S
C462 C463 1.327 . S
C463 H457 0.950 . S
C463 C462 1.327 . S
C463 C467 1.429 . S
C464 C447 1.574 . S
C464 H458 0.949 . S
C464 C468 1.368 . S
C465 C446 1.429 . S
C465 C459 1.429 . S
C465 C466 1.523 . S
C466 C447 1.368 . S
C466 C460 1.368 . S
C466 C465 1.523 . S
C467 C451 1.429 . S
C467 C463 1.429 . S
C467 C468 1.523 . S
C468 C452 1.368 . S
C468 C464 1.368 . S
C468 C467 1.523 . S
H469 C444 0.950 . S
H470 C446 0.950 . S
H471 C447 0.949 . S
H472 C449 0.950 . S
H473 C451 0.950 . S
C474 C475 1.349 1_665 S
C474 C476 1.327 . S
C474 H499 0.950 . S
C475 C474 1.349 1_445 S
C475 C491 1.349 . S
C476 C474 1.327 . S
C476 C495 1.429 . S
C476 H500 0.950 . S
C477 C494 1.574 . S
C477 C496 1.368 . S
C477 H501 0.949 . S
H478 C482 0.949 . S
C479 C480 1.349 . S
C479 C481 1.327 . S
C479 H502 0.950 . S
C480 C479 1.349 . S
C480 C492 1.349 . S
C481 C479 1.327 . S
C481 C497 1.429 . S
C481 H503 0.950 . S
C482 H478 0.949 . S
C482 C490 1.617 . S
C482 C498 1.368 . S
H483 C491 0.950 . S
H484 C489 0.950 1_456 S
H485 C490 0.895 1_554 S
H486 C492 0.950 . S
H487 C493 0.950 . S
H488 C494 0.949 . S
C489 H484 0.950 1_654 S
C489 C491 1.327 1_665 S
C489 C495 1.429 . S
C490 C482 1.617 . S
C490 H485 0.895 1_556 S
C490 C496 1.386 . S
C491 C475 1.349 . S
C491 H483 0.950 . S
C491 C489 1.327 1_445 S
C492 C480 1.349 . S
C492 H486 0.950 . S
C492 C493 1.327 . S
C493 H487 0.950 . S
C493 C492 1.327 . S
C493 C497 1.429 . S
C494 C477 1.574 . S
C494 H488 0.949 . S
C494 C498 1.368 . S
C495 C476 1.429 . S
C495 C489 1.429 . S
C495 C496 1.523 1_554 S
C496 C477 1.368 . S
C496 C490 1.386 . S
C496 C495 1.523 1_556 S
C497 C481 1.429 . S
C497 C493 1.429 . S
C497 C498 1.523 . S
C498 C482 1.368 . S
C498 C494 1.368 . S
C498 C497 1.523 . S
H499 C474 0.950 . S
H500 C476 0.950 . S
H501 C477 0.949 . S
H502 C479 0.950 . S
H503 C481 0.950 . S
C504 C505 1.349 . S
C504 C506 1.327 . S
C504 H529 0.950 . S
C505 C504 1.349 . S
C505 C521 1.349 . S
C506 C504 1.327 . S
C506 C525 1.429 . S
C506 H530 0.950 . S
C507 C524 1.574 . S
C507 C526 1.368 1_455 S
C507 H531 0.949 . S
H508 C512 0.949 . S
C509 C510 1.349 . S
C509 C511 1.327 . S
C509 H532 0.950 . S
C510 C509 1.349 . S
C510 C522 1.349 1_455 S
C511 C509 1.327 . S
C511 C527 1.432 . S
C511 H533 0.950 . S
C512 H508 0.949 . S
C512 C520 1.574 . S
C512 C528 1.368 . S
H513 C521 0.950 1_455 S
H514 C519 0.950 . S
H515 C520 0.949 . S
H516 C522 0.950 . S
H517 C523 0.950 . S
H518 C524 0.949 . S
C519 H514 0.950 . S
C519 C521 1.327 1_455 S
C519 C525 1.429 1_455 S
C520 C512 1.574 . S
C520 H515 0.949 . S
C520 C526 1.368 . S
C521 C505 1.349 . S
C521 H513 0.950 1_655 S
C521 C519 1.327 1_655 S
C522 C510 1.349 1_655 S
C522 H516 0.950 . S
C522 C523 1.327 . S
C523 H517 0.950 . S
C523 C522 1.327 . S
C523 C527 1.430 1_655 S
C524 C507 1.574 . S
C524 H518 0.949 . S
C524 C528 1.368 1_455 S
C525 C506 1.429 . S
C525 C519 1.429 1_655 S
C525 C526 1.523 . S
C526 C507 1.368 1_655 S
C526 C520 1.368 . S
C526 C525 1.523 . S
C527 C511 1.432 . S
C527 C523 1.430 1_455 S
C527 C528 1.518 1_455 S
C528 C512 1.368 . S
C528 C524 1.368 1_655 S
C528 C527 1.518 1_655 S
H529 C504 0.950 . S
H530 C506 0.950 . S
H531 C507 0.949 . S
H532 C509 0.950 . S
H533 C511 0.950 . S
C534 C535 1.349 . S
C534 C536 1.327 . S
C534 H559 0.950 . S
C535 C534 1.349 . S
C535 C551 1.349 . S
C536 C534 1.327 . S
C536 C555 1.429 . S
C536 H560 0.950 . S
C537 C554 1.574 . S
C537 C556 1.368 . S
C537 H561 0.949 . S
H538 C542 0.949 . S
C539 C540 1.349 . S
C539 C541 1.327 . S
C539 H562 0.950 . S
C540 C539 1.349 . S
C540 C552 1.349 . S
C541 C539 1.327 . S
C541 C557 1.429 . S
C541 H563 0.950 . S
C542 H538 0.949 . S
C542 C550 1.574 . S
C542 C558 1.368 . S
H543 C551 0.950 . S
H544 C549 0.950 . S
H545 C550 0.949 . S
H546 C552 0.950 . S
H547 C553 0.950 . S
H548 C554 0.949 . S
C549 H544 0.950 . S
C549 C551 1.327 . S
C549 C555 1.429 . S
C550 C542 1.574 . S
C550 H545 0.949 . S
C550 C556 1.368 . S
C551 C535 1.349 . S
C551 H543 0.950 . S
C551 C549 1.327 . S
C552 C540 1.349 . S
C552 H546 0.950 . S
C552 C553 1.327 . S
C553 H547 0.950 . S
C553 C552 1.327 . S
C553 C557 1.429 . S
C554 C537 1.574 . S
C554 H548 0.949 . S
C554 C558 1.368 . S
C555 C536 1.429 . S
C555 C549 1.429 . S
C555 C556 1.523 . S
C556 C537 1.368 . S
C556 C550 1.368 . S
C556 C555 1.523 . S
C557 C541 1.429 . S
C557 C553 1.429 . S
C557 C558 1.523 . S
C558 C542 1.368 . S
C558 C554 1.368 . S
C558 C557 1.523 . S
H559 C534 0.950 . S
H560 C536 0.950 . S
H561 C537 0.949 . S
H562 C539 0.950 . S
H563 C541 0.950 . S
C564 C565 1.349 . S
C564 C566 1.327 . S
C564 H589 0.950 . S
C565 C564 1.349 . S
C565 C581 1.349 . S
C566 C564 1.327 . S
C566 C585 1.429 . S
C566 H590 0.950 . S
C567 C584 1.574 . S
C567 C586 1.368 . S
C567 H591 0.949 . S
H568 C572 0.949 . S
C569 C570 1.349 . S
C569 C571 1.327 . S
C569 H592 0.950 . S
C570 C569 1.349 . S
C570 C582 1.349 . S
C571 C569 1.327 . S
C571 C587 1.429 . S
C571 H593 0.950 . S
C572 H568 0.949 . S
C572 C580 1.574 . S
C572 C588 1.368 . S
H573 C581 0.950 . S
H574 C579 0.950 . S
H575 C580 0.949 . S
H576 C582 0.950 . S
H577 C583 0.950 . S
H578 C584 0.949 . S
C579 H574 0.950 . S
C579 C581 1.327 . S
C579 C585 1.429 . S
C580 C572 1.574 . S
C580 H575 0.949 . S
C580 C586 1.368 1_556 S
C581 C565 1.349 . S
C581 H573 0.950 . S
C581 C579 1.327 . S
C582 C570 1.349 . S
C582 H576 0.950 . S
C582 C583 1.327 . S
C583 H577 0.950 . S
C583 C582 1.327 . S
C583 C587 1.429 . S
C584 C567 1.574 . S
C584 H578 0.949 . S
C584 C588 1.368 1_554 S
C585 C566 1.429 . S
C585 C579 1.429 . S
C585 C586 1.523 . S
C586 C567 1.368 . S
C586 C580 1.368 1_554 S
C586 C585 1.523 . S
C587 C571 1.429 . S
C587 C583 1.429 . S
C587 C588 1.523 . S
C588 C572 1.368 . S
C588 C584 1.368 1_556 S
C588 C587 1.523 . S
H589 C564 0.950 . S
H590 C566 0.950 . S
H591 C567 0.949 . S
H592 C569 0.950 . S
H593 C571 0.950 . S
C594 C595 1.349 . S
C594 C596 1.327 . S
C594 H619 0.950 . S
C595 C594 1.349 . S
C595 C611 1.349 . S
C596 C594 1.327 . S
C596 C615 1.429 . S
C596 H620 0.950 . S
C597 C614 1.574 . S
C597 C616 1.368 . S
C597 H621 0.949 . S
H598 C602 0.949 . S
C599 C600 1.349 . S
C599 C601 1.327 . S
C599 H622 0.950 . S
C600 C599 1.349 . S
C600 C612 1.349 . S
C601 C599 1.327 . S
C601 C617 1.429 . S
C601 H623 0.950 . S
C602 H598 0.949 . S
C602 C610 1.574 . S
C602 C618 1.368 . S
H603 C611 0.950 . S
H604 C609 0.950 . S
H605 C610 0.949 . S
H606 C612 0.950 . S
H607 C613 0.950 . S
H608 C614 0.949 . S
C609 H604 0.950 . S
C609 C611 1.327 . S
C609 C615 1.429 . S
C610 C602 1.574 . S
C610 H605 0.949 . S
C610 C616 1.368 . S
C611 C595 1.349 . S
C611 H603 0.950 . S
C611 C609 1.327 . S
C612 C600 1.349 . S
C612 H606 0.950 . S
C612 C613 1.327 . S
C613 H607 0.950 . S
C613 C612 1.327 . S
C613 C617 1.429 . S
C614 C597 1.574 . S
C614 H608 0.949 . S
C614 C618 1.368 . S
C615 C596 1.429 . S
C615 C609 1.429 . S
C615 C616 1.523 . S
C616 C597 1.368 . S
C616 C610 1.368 . S
C616 C615 1.523 . S
C617 C601 1.429 . S
C617 C613 1.429 . S
C617 C618 1.523 . S
C618 C602 1.368 . S
C618 C614 1.368 . S
C618 C617 1.523 . S
H619 C594 0.950 . S
H620 C596 0.950 . S
H621 C597 0.949 . S
H622 C599 0.950 . S
H623 C601 0.950 . S
C270 C81 1.219 . S
C265 C11 1.273 . S
C295 C26 1.364 . S
C300 C155 1.329 . S
C325 C40 2.065 1_665 S
C330 C259 2.075 . S
C355 C5 0.674 . S
C360 C93 0.551 . S
C390 C167 0.751 . S
C385 C18 0.748 . S
C415 C32 1.318 . S
C420 C253 1.255 . S
C450 C185 1.994 . S
C445 C39 1.989 1_655 S
C475 C4 1.308 . S
C480 C229 1.285 . S
C510 C105 1.251 . S
C505 C19 1.173 . S
C540 C179 1.113 . S
C535 C33 1.036 . S
C570 C241 0.607 . S
C565 C12 0.610 . S
C595 C25 2.150 . S
C600 C111 2.166 . S
