# Generated by pormake.
# Topology zzz, (3,6)-cn, num edge types: 1
# Building blocks:
#     Node 0, Type 0, BuildingBlock: BETDIP_clean_linker_0, # of connection points: 3
#     Node 1, Type 0, BuildingBlock: BETDIP_clean_linker_0, # of connection points: 3
#     Node 2, Type 0, BuildingBlock: BETDIP_clean_linker_0, # of connection points: 3
#     Node 3, Type 0, BuildingBlock: BETDIP_clean_linker_0, # of connection points: 3
#     Node 4, Type 0, BuildingBlock: BETDIP_clean_linker_0, # of connection points: 3
#     Node 5, Type 0, BuildingBlock: BETDIP_clean_linker_0, # of connection points: 3
#     Node 6, Type 0, BuildingBlock: BETDIP_clean_linker_0, # of connection points: 3
#     Node 7, Type 0, BuildingBlock: BETDIP_clean_linker_0, # of connection points: 3
#     Node 8, Type 1, BuildingBlock: KUMBOL_clean_sbu_0, # of connection points: 6
#     Node 9, Type 1, BuildingBlock: KUMBOL_clean_sbu_0, # of connection points: 6
#     Node 10, Type 1, BuildingBlock: KUMBOL_clean_sbu_0, # of connection points: 6
#     Node 11, Type 1, BuildingBlock: KUMBOL_clean_sbu_0, # of connection points: 6
#     Edge 12, Type (0, 1), BuildingBlock: UVAHIK_clean_linker_0, # of connection points: 2
#     Edge 13, Type (0, 1), BuildingBlock: UVAHIK_clean_linker_0, # of connection points: 2
#     Edge 14, Type (0, 1), BuildingBlock: UVAHIK_clean_linker_0, # of connection points: 2
#     Edge 15, Type (0, 1), BuildingBlock: UVAHIK_clean_linker_0, # of connection points: 2
#     Edge 16, Type (0, 1), BuildingBlock: UVAHIK_clean_linker_0, # of connection points: 2
#     Edge 17, Type (0, 1), BuildingBlock: UVAHIK_clean_linker_0, # of connection points: 2
#     Edge 18, Type (0, 1), BuildingBlock: UVAHIK_clean_linker_0, # of connection points: 2
#     Edge 19, Type (0, 1), BuildingBlock: UVAHIK_clean_linker_0, # of connection points: 2
#     Edge 20, Type (0, 1), BuildingBlock: UVAHIK_clean_linker_0, # of connection points: 2
#     Edge 21, Type (0, 1), BuildingBlock: UVAHIK_clean_linker_0, # of connection points: 2
#     Edge 22, Type (0, 1), BuildingBlock: UVAHIK_clean_linker_0, # of connection points: 2
#     Edge 23, Type (0, 1), BuildingBlock: UVAHIK_clean_linker_0, # of connection points: 2
#     Edge 24, Type (0, 1), BuildingBlock: UVAHIK_clean_linker_0, # of connection points: 2
#     Edge 25, Type (0, 1), BuildingBlock: UVAHIK_clean_linker_0, # of connection points: 2
#     Edge 26, Type (0, 1), BuildingBlock: UVAHIK_clean_linker_0, # of connection points: 2
#     Edge 27, Type (0, 1), BuildingBlock: UVAHIK_clean_linker_0, # of connection points: 2
#     Edge 28, Type (0, 1), BuildingBlock: UVAHIK_clean_linker_0, # of connection points: 2
#     Edge 29, Type (0, 1), BuildingBlock: UVAHIK_clean_linker_0, # of connection points: 2
#     Edge 30, Type (0, 1), BuildingBlock: UVAHIK_clean_linker_0, # of connection points: 2
#     Edge 31, Type (0, 1), BuildingBlock: UVAHIK_clean_linker_0, # of connection points: 2
#     Edge 32, Type (0, 1), BuildingBlock: UVAHIK_clean_linker_0, # of connection points: 2
#     Edge 33, Type (0, 1), BuildingBlock: UVAHIK_clean_linker_0, # of connection points: 2
#     Edge 34, Type (0, 1), BuildingBlock: UVAHIK_clean_linker_0, # of connection points: 2
#     Edge 35, Type (0, 1), BuildingBlock: UVAHIK_clean_linker_0, # of connection points: 2
# Relax obj value: 0.146
# Max RMSD: 0.151
# Mean RMSD: 0.112
data_MOF--net-zzz--node1-KUMBOL_clean_sbu_0--node2-BETDIP_clean_linker_0--edge1-UVAHIK_clean_linker_0
_symmetry_space_group_name_H-M    P1
_symmetry_Int_Tables_number       1
_symmetry_cell_setting            triclinic
loop_
_symmetry_equiv_pos_as_xyz
'x, y, z'
_cell_length_a     65.835647
_cell_length_b     65.850672
_cell_length_c     18.895522
_cell_angle_alpha  90.937835
_cell_angle_beta   89.961906
_cell_angle_gamma 89.893586
loop_
_atom_site_label
_atom_site_type_symbol
_atom_site_fract_x
_atom_site_fract_y
_atom_site_fract_z
_atom_type_partial_charge
H0 H 0.76071 0.53085 0.25298 0.0
H1 H 0.75266 0.55659 0.04642 0.0
H2 H 0.81241 0.55156 0.13422 0.0
H3 H 0.72377 0.57048 0.11893 0.0
C4 C 0.71874 0.55483 0.12358 0.0
C5 C 0.76705 0.53779 0.20633 0.0
C6 C 0.78833 0.54063 0.20077 0.0
C7 C 0.754 0.54383 0.15085 0.0
C8 C 0.76245 0.5524 0.0899 0.0
C9 C 0.78341 0.55528 0.08366 0.0
C10 C 0.79614 0.54952 0.13936 0.0
N11 N 0.73252 0.54068 0.15433 0.0
H12 H 1.00327 0.7687 0.25178 0.0
H13 H 0.97856 0.75717 0.04443 0.0
H14 H 0.98319 0.81851 0.1257 0.0
H15 H 0.96549 0.72768 0.13247 0.0
C16 C 0.98159 0.72421 0.12749 0.0
C17 C 0.9966 0.77427 0.20345 0.0
C18 C 0.99261 0.79531 0.1964 0.0
C19 C 0.99134 0.76042 0.1482 0.0
C20 C 0.98259 0.76787 0.08611 0.0
C21 C 0.98002 0.78879 0.07589 0.0
C22 C 0.98478 0.80227 0.13213 0.0
N23 N 0.99576 0.73917 0.15228 0.0
H24 H 0.75829 0.99982 0.27229 0.0
H25 H 0.76732 0.97325 0.06472 0.0
H26 H 0.70809 0.97256 0.16001 0.0
H27 H 0.79805 0.9611 0.15495 0.0
C28 C 0.8015 0.97712 0.14863 0.0
C29 C 0.75235 0.99181 0.22627 0.0
C30 C 0.73163 0.98609 0.22396 0.0
C31 C 0.76548 0.9865 0.16953 0.0
C32 C 0.75748 0.97658 0.10947 0.0
C33 C 0.73681 0.97173 0.10525 0.0
C34 C 0.72417 0.97603 0.16335 0.0
N35 N 0.78654 0.99161 0.17083 0.0
H36 H 0.53055 0.76994 0.25736 0.0
H37 H 0.56875 0.77744 0.07383 0.0
H38 H 0.56334 0.71898 0.16787 0.0
H39 H 0.57468 0.80989 0.15864 0.0
C40 C 0.55873 0.81257 0.14701 0.0
C41 C 0.54121 0.76371 0.21904 0.0
C42 C 0.54606 0.74282 0.21948 0.0
C43 C 0.54988 0.77647 0.16772 0.0
C44 C 0.56296 0.76808 0.11595 0.0
C45 C 0.56778 0.74741 0.11638 0.0
C46 C 0.55968 0.73507 0.16874 0.0
N47 N 0.54433 0.79735 0.16482 0.0
H48 H 0.26567 0.51044 0.01686 0.0
H49 H 0.27221 0.47972 0.21565 0.0
H50 H 0.21693 0.47384 0.09761 0.0
H51 H 0.28506 0.5168 0.23203 0.0
C52 C 0.29707 0.51216 0.19558 0.0
C53 C 0.2598 0.50019 0.05616 0.0
C54 C 0.23983 0.4924 0.04942 0.0
C55 C 0.2716 0.49573 0.11671 0.0
C56 C 0.26345 0.48307 0.16872 0.0
C57 C 0.24397 0.4749 0.16131 0.0
C58 C 0.23238 0.47947 0.10159 0.0
N59 N 0.29125 0.50446 0.12741 0.0
H60 H 0.01871 0.26199 0.01596 0.0
H61 H 0.0511 0.26792 0.21368 0.0
H62 H 0.0558 0.21282 0.09051 0.0
H63 H 0.01629 0.28227 0.23675 0.0
C64 C 0.01975 0.29396 0.19855 0.0
C65 C 0.02902 0.25585 0.0548 0.0
C66 C 0.03719 0.23602 0.04474 0.0
C67 C 0.03397 0.26752 0.11632 0.0
C68 C 0.04712 0.25914 0.16672 0.0
C69 C 0.05508 0.23952 0.1578 0.0
C70 C 0.05026 0.22828 0.09642 0.0
N71 N 0.02568 0.28743 0.12879 0.0
H72 H 0.26394 0.03175 0.96958 0.0
H73 H 0.25589 0.0638 0.16851 0.0
H74 H 0.31332 0.06578 0.06195 0.0
H75 H 0.24049 0.03187 0.18905 0.0
C76 C 0.22963 0.03376 0.1463 0.0
C77 C 0.26976 0.04168 0.01103 0.0
C78 C 0.28992 0.0491 0.00709 0.0
C79 C 0.25737 0.04675 0.07008 0.0
C80 C 0.26531 0.05949 0.12369 0.0
C81 C 0.28551 0.06607 0.12207 0.0
C82 C 0.2975 0.06122 0.06284 0.0
N83 N 0.23735 0.03856 0.07774 0.0
H84 H 0.49347 0.26133 0.94558 0.0
H85 H 0.46654 0.26087 0.1536 0.0
H86 H 0.4585 0.31255 0.0214 0.0
H87 H 0.50399 0.24723 0.16086 0.0
C88 C 0.49821 0.23459 0.12903 0.0
C89 C 0.48399 0.26845 0.98577 0.0
C90 C 0.47591 0.28804 0.97491 0.0
C91 C 0.48047 0.25847 0.05016 0.0
C92 C 0.46894 0.26824 0.10342 0.0
C93 C 0.46075 0.28758 0.09285 0.0
C94 C 0.46398 0.29715 0.02818 0.0
N95 N 0.48903 0.23897 0.06273 0.0
Gd96 Gd 0.99098 0.02131 0.54501 0.0
Gd97 Gd 0.02826 0.01421 0.68519 0.0
C98 C 0.05229 0.06952 0.80893 0.0
C99 C 0.08731 0.07092 0.76914 0.0
C100 C 0.06502 0.04389 0.72688 0.0
C101 C 0.04905 0.05213 0.76552 0.0
C102 C 0.08451 0.05275 0.73056 0.0
C103 C 0.07122 0.07929 0.80831 0.0
C104 C 0.03669 0.07613 0.8539 0.0
C105 C 0.01878 0.06498 0.85719 0.0
N106 N 0.03088 0.04227 0.76529 0.0
C107 C 0.01625 0.04786 0.81334 0.0
H108 H 1.00234 0.03963 0.81814 0.0
C109 C 0.07825 0.0151 0.66634 0.0
N110 N 0.062 0.02609 0.69144 0.0
C111 C 0.09777 0.02339 0.66765 0.0
C112 C 0.10084 0.04254 0.69847 0.0
H113 H 0.07595 1.00019 0.64306 0.0
H114 H 0.07381 0.09286 0.84023 0.0
H115 H 0.02025 0.99862 0.41644 0.0
H116 H 0.03857 0.08939 0.88793 0.0
H117 H 1.00683 0.06959 0.89343 0.0
H118 H 0.10209 0.07812 0.77158 0.0
H119 H 0.94354 0.02824 0.6044 0.0
H120 H 0.98628 0.95042 0.32198 0.0
H121 H 0.01778 0.97059 0.33118 0.0
H122 H 0.9211 0.95597 0.43252 0.0
H123 H 0.11042 0.01496 0.64524 0.0
H124 H 0.11603 0.04885 0.70012 0.0
H125 H 0.9504 0.94489 0.36085 0.0
H126 H 0.9099 0.01186 0.59388 0.0
N127 N 0.99035 0.99477 0.45859 0.0
C128 C 0.98717 0.96291 0.35988 0.0
C129 C 1.00495 0.97428 0.36489 0.0
C130 C 0.97061 0.96807 0.40285 0.0
C131 C 0.9726 0.98439 0.45183 0.0
C132 C 1.00621 0.99035 0.41396 0.0
N133 N 0.95837 1.00666 0.53691 0.0
C134 C 0.95616 0.99047 0.49248 0.0
C135 C 0.92279 1.00561 0.5653 0.0
C136 C 0.92055 0.98821 0.52295 0.0
C137 C 0.94182 0.01486 0.57096 0.0
C138 C 0.93724 0.98061 0.48496 0.0
H139 H 0.90578 0.98106 0.51857 0.0
O140 O 0.96892 0.04309 0.50806 0.0
O141 O 0.01087 0.03727 0.62479 0.0
O142 O 0.99613 0.016 0.73076 0.0
O143 O 0.97643 1.00471 0.63629 0.0
O144 O 0.9811 0.04696 0.61879 0.0
O145 O 0.99689 0.03819 0.4494 0.0
O146 O 0.04642 1.00163 0.77001 0.0
O147 O 0.00961 0.99871 0.60218 0.0
O148 O 0.0225 0.02516 0.49708 0.0
O149 O 0.04616 0.02348 0.58893 0.0
O150 O 0.0394 0.98918 0.61082 0.0
O151 O 0.01868 0.98682 0.73873 0.0
C152 C 0.9984 0.05043 0.64816 0.0
C153 C 0.93543 0.96387 0.43842 0.0
C154 C 0.9521 0.95759 0.39753 0.0
C155 C 0.9808 0.04958 0.45838 0.0
C156 C 0.98369 0.07167 0.45872 0.0
C157 C 0.96719 0.0841 0.44145 0.0
C158 C 1.0021 0.08053 0.48088 0.0
C159 C 1.00416 0.10179 0.48422 0.0
C160 C 0.96899 0.10515 0.44582 0.0
C161 C 0.98731 0.11397 0.46671 0.0
C162 C 0.97896 0.00843 0.7048 0.0
C163 C 0.02244 0.98594 0.57826 0.0
C164 C 0.03598 0.98491 0.77103 0.0
C165 C 0.04725 0.96584 0.75624 0.0
C166 C 0.06856 0.96583 0.75028 0.0
C167 C 0.03656 0.94785 0.74111 0.0
C168 C 0.04683 0.93017 0.7183 0.0
C169 C 0.07883 0.94839 0.72727 0.0
C170 C 0.06808 0.93071 0.71081 0.0
C171 C 0.04131 0.026 0.52181 0.0
H172 H 0.95282 0.07748 0.42529 0.0
H173 H 0.01475 0.07093 0.49556 0.0
H174 H 0.95621 0.11468 0.43219 0.0
H175 H 0.98842 0.13037 0.46678 0.0
H176 H 0.07731 0.97938 0.76188 0.0
H177 H 0.0202 0.94763 0.74751 0.0
H178 H 0.0952 0.94861 0.72181 0.0
H179 H 0.07641 0.91742 0.6926 0.0
Gd180 Gd 0.50505 1.00054 0.54577 0.0
Gd181 Gd 0.51751 0.03557 0.6938 0.0
C182 C 0.46483 0.03797 0.85494 0.0
C183 C 0.45029 0.07118 0.83388 0.0
C184 C 0.48054 0.06 0.7698 0.0
C185 C 0.48005 0.04168 0.80386 0.0
C186 C 0.46607 0.07525 0.78628 0.0
C187 C 0.44967 0.05255 0.86819 0.0
C188 C 0.4655 0.01989 0.89234 0.0
C189 C 0.48155 1.00649 0.88086 0.0
N190 N 0.49488 0.02784 0.78923 0.0
C191 C 0.4963 0.01085 0.83015 0.0
H192 H 0.50879 1.00046 0.82623 0.0
C193 C 0.49931 0.08279 0.70103 0.0
N194 N 0.496 0.06346 0.72426 0.0
C195 C 0.48534 0.09833 0.71514 0.0
C196 C 0.46834 0.09441 0.75658 0.0
H197 H 0.51277 0.08626 0.67102 0.0
H198 H 0.4377 0.04977 0.9062 0.0
H199 H 0.52498 0.03336 0.42059 0.0
H200 H 0.45409 0.01646 0.93174 0.0
H201 H 0.48269 0.9928 0.91157 0.0
H202 H 0.43886 0.08257 0.84618 0.0
H203 H 0.49849 0.95077 0.57486 0.0
H204 H 0.57471 1.00406 0.31927 0.0
H205 H 0.55274 0.03407 0.33727 0.0
H206 H 0.57257 0.93634 0.40529 0.0
H207 H 0.48782 0.11337 0.69455 0.0
H208 H 0.45757 0.1065 0.76793 0.0
H209 H 0.58219 0.96781 0.34582 0.0
H210 H 0.51653 0.91838 0.55337 0.0
N211 N 0.53043 1.00286 0.45511 0.0
C212 C 0.56227 1.00348 0.35676 0.0
C213 C 0.5499 0.02041 0.36678 0.0
C214 C 0.55805 0.9858 0.39362 0.0
C215 C 0.54172 0.98586 0.44234 0.0
C216 C 0.53392 0.01981 0.41543 0.0
N217 N 0.52006 0.96855 0.51915 0.0
C218 C 0.53646 0.96822 0.47592 0.0
C219 C 0.52245 0.9323 0.53176 0.0
C220 C 0.54018 0.93199 0.49144 0.0
C221 C 0.51233 0.95069 0.54395 0.0
C222 C 0.54715 0.94998 0.46158 0.0
H223 H 0.54798 0.9177 0.4817 0.0
O224 O 0.48481 0.97962 0.49015 0.0
O225 O 0.49279 0.01973 0.6349 0.0
O226 O 0.52645 1.00356 0.72459 0.0
O227 O 0.51482 0.98111 0.6368 0.0
O228 O 0.48268 0.99003 0.62779 0.0
O229 O 0.4802 0.01178 0.48145 0.0
O230 O 0.53496 0.06039 0.7402 0.0
O231 O 0.52983 0.01618 0.60534 0.0
O232 O 0.50149 0.03273 0.50693 0.0
O233 O 0.50803 0.05493 0.60188 0.0
O234 O 0.5406 0.04561 0.61334 0.0
O235 O 0.5424 0.02957 0.76627 0.0
C236 C 0.48035 1.0072 0.66057 0.0
C237 C 0.56401 0.95012 0.41613 0.0
C238 C 0.56946 0.96801 0.3822 0.0
C239 C 0.47202 0.99389 0.47469 0.0
C240 C 0.45116 0.99195 0.50336 0.0
C241 C 0.44549 0.97484 0.54237 0.0
C242 C 0.43771 0.00848 0.49996 0.0
C243 C 0.41926 0.00856 0.53782 0.0
C244 C 0.4272 0.97472 0.57967 0.0
C245 C 0.41428 0.99152 0.57831 0.0
C246 C 0.52307 0.98501 0.69914 0.0
C247 C 0.54273 0.0284 0.5806 0.0
C248 C 0.54884 0.04826 0.76417 0.0
C249 C 0.56966 0.05125 0.73603 0.0
C250 C 0.57468 0.06924 0.70092 0.0
C251 C 0.58363 0.03507 0.73498 0.0
C252 C 0.60191 0.03628 0.69638 0.0
C253 C 0.59276 0.0706 0.66278 0.0
C254 C 0.60616 0.05418 0.65958 0.0
C255 C 0.50298 0.05119 0.53522 0.0
H256 H 0.45549 0.96184 0.54642 0.0
H257 H 0.44184 0.02138 0.46817 0.0
H258 H 0.4232 0.96169 0.61097 0.0
H259 H 0.40048 0.99117 0.60939 0.0
H260 H 0.56428 0.08201 0.70049 0.0
H261 H 0.5801 0.02147 0.76391 0.0
H262 H 0.59623 0.08432 0.63446 0.0
H263 H 0.6198 0.05554 0.62799 0.0
Gd264 Gd 0.49619 0.52579 0.69247 0.0
Gd265 Gd 0.53484 0.51081 0.55913 0.0
C266 C 0.59796 0.5014 0.6583 0.0
C267 C 0.61662 0.53043 0.61529 0.0
C268 C 0.58159 0.52472 0.57883 0.0
C269 C 0.58066 0.50769 0.62002 0.0
C270 C 0.59983 0.53588 0.57393 0.0
C271 C 0.61569 0.5132 0.65743 0.0
C272 C 0.5971 0.4832 0.69506 0.0
C273 C 0.57957 0.47145 0.69127 0.0
N274 N 0.56319 0.49676 0.6202 0.0
C275 C 0.5628 0.47835 0.65312 0.0
H276 H 0.54973 0.46867 0.65146 0.0
C277 C 0.56692 0.5436 0.4871 0.0
N278 N 0.56516 0.52946 0.53927 0.0
C279 C 0.58456 0.5552 0.48063 0.0
C280 C 0.60095 0.55164 0.52541 0.0
H281 H 0.55442 0.54635 0.45147 0.0
H282 H 0.62894 0.5088 0.68757 0.0
H283 H 0.4746 0.56305 0.58646 0.0
H284 H 0.61002 0.47787 0.72506 0.0
H285 H 0.57889 0.45708 0.71814 0.0
H286 H 0.63063 0.53903 0.61315 0.0
H287 H 0.48442 0.49444 0.82351 0.0
H288 H 0.41255 0.54846 0.55502 0.0
H289 H 0.44222 0.57025 0.5326 0.0
H290 H 0.40096 0.49304 0.70964 0.0
H291 H 0.58551 0.56681 0.44089 0.0
H292 H 0.61468 0.56055 0.52004 0.0
H293 H 0.39743 0.51945 0.62003 0.0
H294 H 0.4554 0.47376 0.86303 0.0
N295 N 0.46472 0.53632 0.64067 0.0
C296 C 0.42697 0.54506 0.57982 0.0
C297 C 0.44366 0.55737 0.56715 0.0
C298 C 0.42892 0.52888 0.62611 0.0
C299 C 0.44812 0.525 0.65673 0.0
C300 C 0.46235 0.55299 0.59858 0.0
N301 N 0.46829 0.50767 0.73825 0.0
C302 C 0.45003 0.51011 0.70674 0.0
C303 C 0.45369 0.48379 0.8186 0.0
C304 C 0.43511 0.48515 0.78358 0.0
C305 C 0.47007 0.49548 0.79599 0.0
C306 C 0.43296 0.49875 0.72795 0.0
H307 H 0.42238 0.47616 0.80135 0.0
O308 O 0.48827 0.53437 0.80079 0.0
O309 O 0.52924 0.52186 0.66923 0.0
O310 O 0.52092 0.4822 0.60444 0.0
O311 O 0.49662 0.49146 0.68942 0.0
O312 O 0.5186 0.50967 0.76231 0.0
O313 O 0.50526 0.55506 0.73706 0.0
O314 O 0.54195 0.50875 0.44715 0.0
O315 O 0.50173 0.51377 0.5834 0.0
O316 O 0.50475 0.55351 0.62991 0.0
O317 O 0.53299 0.54505 0.56034 0.0
O318 O 0.51128 0.52391 0.48589 0.0
O319 O 0.53634 0.48141 0.5055 0.0
C320 C 0.53465 0.51325 0.72553 0.0
C321 C 0.41417 0.5018 0.69477 0.0
C322 C 0.41215 0.51685 0.64387 0.0
C323 C 0.49999 0.55021 0.80083 0.0
C324 C 0.51636 0.55106 0.85452 0.0
C325 C 0.51905 0.53525 0.90293 0.0
C326 C 0.53058 0.56694 0.85335 0.0
C327 C 0.54743 0.56698 0.89912 0.0
C328 C 0.53584 0.53514 0.94797 0.0
C329 C 0.55 0.55086 0.94607 0.0
C330 C 0.50727 0.47774 0.65335 0.0
C331 C 0.49564 0.52094 0.52542 0.0
C332 C 0.53758 0.48952 0.44315 0.0
C333 C 0.52179 0.48377 0.39086 0.0
C334 C 0.51948 0.49504 0.32884 0.0
C335 C 0.5081 0.46792 0.40438 0.0
C336 C 0.49228 0.46331 0.35679 0.0
C337 C 0.50364 0.49077 0.28197 0.0
C338 C 0.4901 0.47504 0.2957 0.0
C339 C 0.51968 0.55823 0.58628 0.0
H340 H 0.50849 0.52269 0.90496 0.0
H341 H 0.52845 0.57932 0.81697 0.0
H342 H 0.53796 0.52276 0.98422 0.0
H343 H 0.56295 0.55042 0.98135 0.0
H344 H 0.52976 0.50736 0.31703 0.0
H345 H 0.50961 0.45922 0.45221 0.0
H346 H 0.50193 0.49959 0.2345 0.0
H347 H 0.47833 0.4717 0.2573 0.0
Gd348 Gd 1.00701 0.49466 0.6963 0.0
Gd349 Gd 0.01827 0.53435 0.56824 0.0
C350 C 0.01632 0.60288 0.61612 0.0
C351 C 0.98836 0.61386 0.54209 0.0
C352 C 0.9987 0.57837 0.54199 0.0
C353 C 0.01358 0.58272 0.59122 0.0
C354 C 0.98618 0.59394 0.51565 0.0
C355 C 1.00339 0.61832 0.59233 0.0
C356 C 0.03217 0.607 0.66327 0.0
C357 C 0.04514 0.59134 0.68297 0.0
N358 N 0.02578 0.56739 0.61307 0.0
C359 C 0.04187 0.57164 0.6567 0.0
H360 H 0.05202 0.55998 0.67388 0.0
C361 C 0.98405 0.55441 0.46299 0.0
N362 N 0.99703 0.55902 0.51748 0.0
C363 C 0.9713 0.5693 0.43521 0.0
C364 C 0.97218 0.58911 0.4623 0.0
H365 H 0.98313 0.53905 0.44229 0.0
H366 H 1.00517 0.63382 0.6114 0.0
H367 H 0.97412 0.46826 0.59274 0.0
H368 H 0.03472 0.62223 0.68388 0.0
H369 H 0.05761 0.59439 0.71886 0.0
H370 H 0.97878 0.62599 0.523 0.0
H371 H 0.0414 0.49081 0.82533 0.0
H372 H 0.99484 0.40695 0.57482 0.0
H373 H 0.97007 0.43371 0.5446 0.0
H374 H 0.05117 0.40499 0.73484 0.0
H375 H 0.96075 0.56544 0.39323 0.0
H376 H 0.96231 0.60064 0.44071 0.0
H377 H 0.02538 0.39647 0.64494 0.0
H378 H 0.06477 0.46513 0.87383 0.0
N379 N 1.00134 0.4617 0.64902 0.0
C380 C 0.9967 0.42218 0.59643 0.0
C381 C 0.98268 0.43722 0.5794 0.0
C382 C 0.01262 0.42683 0.64285 0.0
C383 C 0.01442 0.44693 0.66917 0.0
C384 C 0.98507 0.45691 0.60708 0.0
N385 N 0.02944 0.4709 0.74598 0.0
C386 C 0.02895 0.45169 0.71929 0.0
C387 C 0.05485 0.46116 0.83013 0.0
C388 C 0.05536 0.44161 0.80035 0.0
C389 C 0.04155 0.47563 0.80272 0.0
C390 C 0.04208 0.43656 0.74502 0.0
H391 H 0.06567 0.43042 0.82165 0.0
O392 O 1.00018 0.49367 0.8083 0.0
O393 O 1.00749 0.52798 0.67657 0.0
O394 O 0.04594 0.52701 0.63692 0.0
O395 O 0.04089 0.49394 0.67481 0.0
O396 O 0.01828 0.51899 0.77324 0.0
O397 O 0.97656 0.48714 0.73115 0.0
O398 O 0.0248 0.53719 0.45649 0.0
O399 O 0.01704 0.50106 0.58713 0.0
O400 O 0.97885 0.50244 0.63037 0.0
O401 O 0.98438 0.53514 0.5896 0.0
O402 O 1.00511 0.51059 0.49285 0.0
O403 O 0.04955 0.53496 0.53111 0.0
C404 C 0.01436 0.5345 0.73505 0.0
C405 C 0.04106 0.41677 0.71639 0.0
C406 C 0.02636 0.41192 0.66527 0.0
C407 C 0.98082 0.49118 0.7974 0.0
C408 C 0.96763 0.50575 0.8353 0.0
C409 C 0.96875 0.50706 0.90929 0.0
C410 C 0.9547 0.51899 0.79872 0.0
C411 C 0.94261 0.53319 0.83588 0.0
C412 C 0.9571 0.52132 0.94649 0.0
C413 C 0.94405 0.53422 0.91032 0.0
C414 C 0.05286 0.5097 0.66323 0.0
C415 C 0.00941 0.49485 0.52941 0.0
C416 C 0.04394 0.53292 0.46513 0.0
C417 C 0.05138 0.51474 0.42582 0.0
C418 C 0.04109 0.50789 0.36473 0.0
C419 C 0.06756 0.50307 0.45211 0.0
C420 C 0.07348 0.48484 0.41786 0.0
C421 C 0.04656 0.48964 0.33155 0.0
C422 C 0.06262 0.47819 0.35767 0.0
C423 C 0.9722 0.51964 0.60249 0.0
H424 H 0.97877 0.4971 0.93827 0.0
H425 H 0.954 0.51824 0.74157 0.0
H426 H 0.95798 0.5222 1.00366 0.0
H427 H 0.93461 0.54454 0.94115 0.0
H428 H 0.02851 0.51644 0.34332 0.0
H429 H 0.07546 0.50807 0.49955 0.0
H430 H 0.03842 0.48443 0.28495 0.0
H431 H 0.06694 0.46447 0.32908 0.0
C432 C 0.19177 0.02928 0.12478 0.0
C433 C 0.20796 0.03594 0.16765 0.0
C434 C 0.17174 0.02944 0.15139 0.0
C435 C 0.13814 0.05325 0.28509 0.0
H436 H 0.11078 1.00136 0.29796 0.0
C437 C 0.05804 0.04223 0.41646 0.0
C438 C 0.05835 0.02788 0.47071 0.0
C439 C 0.07473 0.04411 0.37037 0.0
C440 C 0.11813 0.01601 0.2941 0.0
H441 H 0.21586 0.04859 0.27042 0.0
H442 H 0.18109 0.04974 0.31522 0.0
H443 H 0.14261 1.00385 0.23097 0.0
H444 H 0.07574 1.0034 0.51612 0.0
H445 H 0.10448 1.00633 0.43527 0.0
H446 H 0.1138 0.06536 0.349 0.0
C447 C 0.18375 0.04415 0.26175 0.0
C448 C 0.13627 0.01745 0.25537 0.0
C449 C 0.20367 0.04344 0.2361 0.0
C450 C 0.07527 0.01496 0.47613 0.0
C451 C 0.09164 0.01646 0.4292 0.0
C452 C 0.11975 0.05191 0.32245 0.0
C453 C 0.16755 0.03684 0.22038 0.0
C454 C 0.14675 0.03599 0.25183 0.0
C455 C 0.09171 0.03117 0.37616 0.0
C456 C 0.10979 0.03317 0.32889 0.0
H457 H 0.19468 0.02322 0.07211 0.0
H458 H 0.15954 0.02365 0.11837 0.0
H459 H 0.14589 0.06774 0.28345 0.0
H460 H 0.04509 0.05221 0.41058 0.0
H461 H 0.07431 0.05555 0.32985 0.0
C462 C 0.50764 0.21176 0.22689 0.0
C463 C 0.49826 0.21411 0.16087 0.0
C464 C 0.50672 0.1933 0.26203 0.0
C465 C 0.49705 0.13819 0.24038 0.0
H466 H 0.48864 0.1421 0.44331 0.0
C467 C 0.4896 0.06752 0.42419 0.0
C468 C 0.50045 0.06896 0.48826 0.0
C469 C 0.48769 0.08447 0.3803 0.0
C470 C 0.49111 0.1407 0.38676 0.0
H471 H 0.48091 0.1987 0.07876 0.0
H472 H 0.47924 0.16617 0.14058 0.0
H473 H 0.48854 0.17276 0.37342 0.0
H474 H 0.51896 0.08905 0.5533 0.0
H475 H 0.51523 0.11837 0.47875 0.0
H476 H 0.49979 0.10597 0.25453 0.0
C477 C 0.48741 0.1787 0.16497 0.0
C478 C 0.49109 0.15832 0.34658 0.0
C479 C 0.48833 0.19733 0.12958 0.0
C480 C 0.50968 0.08755 0.50637 0.0
C481 C 0.50769 0.10441 0.46306 0.0
C482 C 0.49704 0.12045 0.28082 0.0
C483 C 0.4963 0.1766 0.23233 0.0
C484 C 0.49454 0.1574 0.2731 0.0
C485 C 0.49656 0.1032 0.39969 0.0
C486 C 0.49453 0.12156 0.3548 0.0
H487 H 0.51548 0.22438 0.25214 0.0
H488 H 0.51416 0.19216 0.31293 0.0
H489 H 0.49978 0.13692 0.18396 0.0
H490 H 0.48246 0.05337 0.40823 0.0
H491 H 0.47902 0.08301 0.3318 0.0
C492 C 0.33482 0.50401 0.18526 0.0
C493 C 0.31831 0.51235 0.22305 0.0
C494 C 0.35433 0.50349 0.21591 0.0
C495 C 0.38031 0.50694 0.39237 0.0
H496 H 0.42847 0.5178 0.28152 0.0
C497 C 0.46964 0.53141 0.43757 0.0
C498 C 0.47511 0.5188 0.4937 0.0
C499 C 0.45095 0.52906 0.40318 0.0
C500 C 0.41518 0.51482 0.31347 0.0
H501 H 0.30942 0.52696 0.32179 0.0
H502 H 0.34311 0.52643 0.37426 0.0
H503 H 0.39529 0.51715 0.22407 0.0
H504 H 0.46587 0.4929 0.55478 0.0
H505 H 0.43299 0.48873 0.49492 0.0
H506 H 0.40012 0.50523 0.48214 0.0
C507 C 0.34115 0.51987 0.32179 0.0
C508 C 0.39611 0.5142 0.2802 0.0
C509 C 0.3218 0.52037 0.29133 0.0
C510 C 0.46174 0.50326 0.51321 0.0
C511 C 0.44296 0.50086 0.47864 0.0
C512 C 0.39937 0.50754 0.42559 0.0
C513 C 0.35773 0.51124 0.28507 0.0
C514 C 0.37832 0.51055 0.31931 0.0
C515 C 0.43726 0.51379 0.42316 0.0
C516 C 0.41707 0.51176 0.38686 0.0
H517 H 0.33262 0.4976 0.13269 0.0
H518 H 0.36665 0.49661 0.18599 0.0
H519 H 0.36708 0.50372 0.42429 0.0
H520 H 0.47981 0.5433 0.42061 0.0
H521 H 0.44711 0.53948 0.36149 0.0
C522 C 0.01306 0.31935 0.29515 0.0
C523 C 0.01939 0.31554 0.22507 0.0
C524 C 0.01339 0.33898 0.32479 0.0
C525 C 0.01535 0.39399 0.28072 0.0
H526 H 0.02873 0.3999 0.4799 0.0
C527 C 0.02846 0.46163 0.51156 0.0
C528 C 0.01212 0.47448 0.49491 0.0
C529 C 0.03096 0.44279 0.47615 0.0
C530 C 0.02516 0.39866 0.42406 0.0
H531 H 0.03095 0.32972 0.13074 0.0
H532 H 0.0316 0.36427 0.18251 0.0
H533 H 0.03036 0.36654 0.42262 0.0
H534 H 0.98633 0.47814 0.42543 0.0
H535 H 0.99034 0.44537 0.3649 0.0
H536 H 0.01035 0.4262 0.28216 0.0
C537 C 0.0262 0.35193 0.2146 0.0
C538 C 0.02583 0.37937 0.39116 0.0
C539 C 0.02587 0.3321 0.18476 0.0
C540 C 0.99887 0.46842 0.44028 0.0
C541 C 1.00132 0.44966 0.40505 0.0
C542 C 0.01464 0.4133 0.31369 0.0
C543 C 0.02014 0.35565 0.28552 0.0
C544 C 0.02067 0.37661 0.31912 0.0
C545 C 0.01731 0.43642 0.42258 0.0
C546 C 0.0193 0.41595 0.38617 0.0
H547 H 0.00791 0.30698 0.32773 0.0
H548 H 0.00814 0.34107 0.37874 0.0
H549 H 0.01117 0.39263 0.22544 0.0
H550 H 0.03934 0.46617 0.55175 0.0
H551 H 0.04369 0.43328 0.49051 0.0
C552 C 0.8349 0.9669 0.09742 0.0
C553 C 0.82057 0.98234 0.11033 0.0
C554 C 0.85217 0.97039 0.05623 0.0
C555 C 0.88439 0.01095 0.97752 0.0
H556 H 0.90222 0.96635 0.85608 0.0
C557 C 0.96068 0.01373 0.82167 0.0
C558 C 0.96142 1.00482 0.7535 0.0
C559 C 0.94361 0.01135 0.86537 0.0
C560 C 0.89743 0.97909 0.88897 0.0
H561 H 0.81333 0.01384 0.09069 0.0
H562 H 0.84347 0.01999 0.01747 0.0
H563 H 0.87236 0.96234 0.92979 0.0
H564 H 0.94492 0.9854 0.67993 0.0
H565 H 0.91503 0.98181 0.75442 0.0
H566 H 0.90921 0.02789 0.93479 0.0
C567 C 0.84149 1.00515 0.04024 0.0
C568 C 0.88036 0.97668 0.93238 0.0
C569 C 0.82416 1.00165 0.08218 0.0
C570 C 0.94478 0.99295 0.73124 0.0
C571 C 0.92767 0.99064 0.77468 0.0
C572 C 0.90148 0.01339 0.93378 0.0
C573 C 0.85562 0.98944 0.02569 0.0
C574 C 0.87361 0.99249 0.97787 0.0
C575 C 0.92672 0.9999 0.84242 0.0
C576 C 0.90834 0.99746 0.88893 0.0
H577 H 0.83261 0.95188 0.11858 0.0
H578 H 0.86282 0.95802 0.04819 0.0
H579 H 0.87984 0.02346 0.01189 0.0
H580 H 0.97315 0.02282 0.84134 0.0
H581 H 0.94377 0.01839 0.91755 0.0
C582 C 0.56737 0.84711 0.10446 0.0
C583 C 0.55316 0.83129 0.10873 0.0
C584 C 0.56338 0.86424 0.06382 0.0
C585 C 0.53513 0.88023 0.90807 0.0
H586 H 0.54582 0.93495 0.9769 0.0
C587 C 0.51515 0.94999 0.74016 0.0
C588 C 0.52732 0.96746 0.74526 0.0
C589 C 0.51814 0.9337 0.78556 0.0
C590 C 0.54306 0.91979 0.95618 0.0
H591 H 0.52349 0.82104 0.07402 0.0
H592 H 0.51661 0.8509 1.00166 0.0
H593 H 0.55073 0.90628 0.05531 0.0
H594 H 0.55228 0.9815 0.8021 0.0
H595 H 0.55814 0.95273 0.87981 0.0
H596 H 0.52819 0.8934 0.80837 0.0
C597 C 0.53081 0.85007 0.03039 0.0
C598 C 0.54574 0.90335 1.0015 0.0
C599 C 0.53468 0.83305 0.07217 0.0
C600 C 0.54267 0.96822 0.79682 0.0
C601 C 0.54589 0.95175 0.84177 0.0
C602 C 0.53275 0.89661 0.86242 0.0
C603 C 0.5452 0.86579 0.02535 0.0
C604 C 0.54174 0.88338 0.97804 0.0
C605 C 0.53359 0.93424 0.83707 0.0
C606 C 0.53659 0.91669 0.88574 0.0
H607 H 0.58179 0.84608 0.13182 0.0
H608 H 0.57484 0.87597 0.06061 0.0
H609 H 0.53226 0.865 0.888 0.0
H610 H 0.5028 0.94913 0.70248 0.0
H611 H 0.50795 0.92087 0.78109 0.0
C612 C 0.69033 0.56346 0.04257 0.0
C613 C 0.69978 0.54894 0.08528 0.0
C614 C 0.67291 0.55867 1.00341 0.0
C615 C 0.62887 0.5246 0.99418 0.0
H616 H 0.62609 0.54139 0.79862 0.0
C617 C 0.56056 0.50286 0.81443 0.0
C618 C 0.55437 0.51645 0.76218 0.0
C619 C 0.57842 0.50624 0.8531 0.0
C620 C 0.62638 0.53684 0.85341 0.0
H621 H 0.69808 0.51793 0.12118 0.0
H622 H 0.66713 0.50958 0.05352 0.0
H623 H 0.65676 0.5479 0.86742 0.0
H624 H 0.56121 0.5451 0.71311 0.0
H625 H 0.59219 0.55134 0.78132 0.0
H626 H 0.59829 0.51414 0.98126 0.0
C627 C 0.67342 0.52472 0.05017 0.0
C628 C 0.6441 0.54047 0.89283 0.0
C629 C 0.69116 0.52946 0.08879 0.0
C630 C 0.56601 0.53397 0.75127 0.0
C631 C 0.58381 0.53751 0.79053 0.0
C632 C 0.61102 0.5212 0.95505 0.0
C633 C 0.6642 0.53925 0.0064 0.0
C634 C 0.64558 0.53446 0.9638 0.0
C635 C 0.59037 0.52363 0.84196 0.0
C636 C 0.60946 0.52728 0.88396 0.0
H637 H 0.69657 0.57862 0.03876 0.0
H638 H 0.66611 0.57032 0.97118 0.0
H639 H 0.62937 0.52001 0.04893 0.0
H640 H 0.55163 0.48944 0.82492 0.0
H641 H 0.58293 0.49503 0.89131 0.0
C642 C 0.97254 0.68956 0.08236 0.0
C643 C 0.9873 0.70482 0.09 0.0
C644 C 0.97634 0.67189 0.04204 0.0
C645 C 0.01786 0.6415 0.95196 0.0
H646 H 0.97181 0.61553 0.86071 0.0
C647 C 0.02472 0.56094 0.82427 0.0
C648 C 0.01233 0.55533 0.7667 0.0
C649 C 0.02228 0.57976 0.85915 0.0
C650 C 0.98499 0.6226 0.8847 0.0
H651 H 0.01783 0.71339 0.06068 0.0
H652 H 0.02443 0.68282 0.98833 0.0
H653 H 0.96693 0.64686 0.92754 0.0
H654 H 0.98699 0.5649 0.70245 0.0
H655 H 0.98317 0.59815 0.76094 0.0
H656 H 0.03607 0.61772 0.90619 0.0
C657 C 0.00995 0.68419 0.01512 0.0
C658 C 0.98211 0.64057 0.92469 0.0
C659 C 1.00621 0.70182 0.05671 0.0
C660 C 0.99715 0.56897 0.74543 0.0
C661 C 0.99478 0.58796 0.78001 0.0
C662 C 0.02079 0.62366 0.91115 0.0
C663 C 0.99495 0.66896 0.00632 0.0
C664 C 0.99841 0.65022 0.96023 0.0
C665 C 1.00728 0.5937 0.83788 0.0
C666 C 1.00436 0.61365 0.87761 0.0
H667 H 0.95782 0.69136 0.10738 0.0
H668 H 0.96452 0.66052 0.03912 0.0
H669 H 0.03089 0.64818 0.97823 0.0
H670 H 0.03628 0.55061 0.84295 0.0
H671 H 0.03192 0.58306 0.90423 0.0
C672 C 0.08279 0.21659 0.20154 0.0
C673 C 0.0663 0.22961 0.21608 0.0
C674 C 0.09006 0.20355 0.25344 0.0
C675 C 0.0815 0.1871 0.44071 0.0
H676 H 0.07414 0.13484 0.34767 0.0
C677 C 0.02519 0.1306 0.53209 0.0
C678 C 0.02418 0.11151 0.49804 0.0
C679 C 0.04225 0.14288 0.52383 0.0
C680 C 0.07692 0.14901 0.37577 0.0
H681 H 0.04597 0.24068 0.29848 0.0
H682 H 0.05833 0.21789 0.3881 0.0
H683 H 0.08352 0.16356 0.2788 0.0
H684 H 0.04188 0.08872 0.44103 0.0
H685 H 0.072 0.1096 0.43031 0.0
H686 H 0.07351 0.17256 0.53731 0.0
C687 C 0.06592 0.2178 0.33725 0.0
C688 C 0.08235 0.1657 0.3356 0.0
C689 C 0.05872 0.23087 0.28552 0.0
C690 C 0.04191 0.10353 0.46663 0.0
C691 C 0.05917 0.11566 0.45975 0.0
C692 C 0.07621 0.17029 0.48121 0.0
C693 C 0.08087 0.20318 0.32065 0.0
C694 C 0.08315 0.18521 0.36667 0.0
C695 C 0.05879 0.13614 0.4823 0.0
C696 C 0.07222 0.15139 0.44816 0.0
H697 H 0.08924 0.21563 0.14884 0.0
H698 H 0.10187 0.19274 0.23936 0.0
H699 H 0.08261 0.20186 0.46654 0.0
H700 H 0.01209 0.13682 0.55964 0.0
H701 H 0.04133 0.15839 0.54347 0.0
C702 C 0.291 0.06639 0.2527 0.0
C703 C 0.29502 0.07503 0.18667 0.0
C704 C 0.3029 0.0713 0.31138 0.0
C705 C 0.3557 0.08455 0.34208 0.0
H706 H 0.33978 0.07051 0.53269 0.0
C707 C 0.38386 0.02254 0.53007 0.0
C708 C 0.40493 0.02598 0.5322 0.0
C709 C 0.37053 0.03814 0.51265 0.0
C710 C 0.34451 0.07494 0.48023 0.0
H711 H 0.31325 0.09729 0.13237 0.0
H712 H 0.33409 0.10603 0.23549 0.0
H713 H 0.3143 0.08315 0.45046 0.0
H714 H 0.42817 0.04931 0.52624 0.0
H715 H 0.40484 0.07624 0.49129 0.0
H716 H 0.38566 0.07531 0.37071 0.0
C717 C 0.32195 0.09511 0.24137 0.0
C718 C 0.32993 0.08203 0.43291 0.0
C719 C 0.31005 0.0901 0.18228 0.0
C720 C 0.41212 0.04589 0.52238 0.0
C721 C 0.39878 0.06142 0.50348 0.0
C722 C 0.37031 0.0778 0.38973 0.0
C723 C 0.31917 0.085 0.30574 0.0
C724 C 0.33508 0.08537 0.36169 0.0
C725 C 0.37795 0.05746 0.49594 0.0
C726 C 0.36456 0.07157 0.45751 0.0
H727 H 0.27972 0.05455 0.25802 0.0
H728 H 0.30036 0.0629 0.35936 0.0
H729 H 0.36035 0.08695 0.2879 0.0
H730 H 0.37767 1.00748 0.53682 0.0
H731 H 0.35457 0.03457 0.50632 0.0
C732 C 0.46265 0.30239 0.21469 0.0
C733 C 0.45156 0.29937 0.15205 0.0
C734 C 0.45724 0.3179 0.26233 0.0
C735 C 0.43423 0.36805 0.24715 0.0
H736 H 0.45493 0.37366 0.43843 0.0
C737 C 0.45843 0.44573 0.34857 0.0
C738 C 0.47907 0.44535 0.36774 0.0
C739 C 0.4471 0.42779 0.34645 0.0
C740 C 0.4488 0.37232 0.38537 0.0
H741 H 0.42472 0.30827 0.09416 0.0
H742 H 0.41471 0.33491 0.17874 0.0
H743 H 0.44789 0.33985 0.38926 0.0
H744 H 0.50343 0.42612 0.40575 0.0
H745 H 0.48376 0.39508 0.40222 0.0
H746 H 0.43616 0.4003 0.24161 0.0
C747 C 0.42803 0.32584 0.19002 0.0
C748 C 0.44484 0.35296 0.35707 0.0
C749 C 0.43365 0.31053 0.14178 0.0
C750 C 0.48756 0.42703 0.39096 0.0
C751 C 0.47622 0.40916 0.38919 0.0
C752 C 0.43802 0.38733 0.27559 0.0
C753 C 0.44049 0.33057 0.24852 0.0
C754 C 0.43865 0.35055 0.28612 0.0
C755 C 0.45616 0.40918 0.36385 0.0
C756 C 0.44644 0.38962 0.3435 0.0
H757 H 0.4766 0.29405 0.22366 0.0
H758 H 0.46734 0.32105 0.30631 0.0
H759 H 0.42965 0.36696 0.19221 0.0
H760 H 0.45128 0.45972 0.33231 0.0
H761 H 0.43156 0.42831 0.32772 0.0
C762 C 0.22542 0.44492 0.20834 0.0
C763 C 0.23436 0.46398 0.22005 0.0
C764 C 0.21233 0.43681 0.25881 0.0
C765 C 0.18693 0.44941 0.43387 0.0
H766 H 0.13922 0.43295 0.32785 0.0
C767 C 0.10952 0.48466 0.46043 0.0
C768 C 0.09207 0.47376 0.44011 0.0
C769 C 0.1283 0.47493 0.46445 0.0
C770 C 0.15242 0.43694 0.35931 0.0
H771 H 0.23809 0.48885 0.29501 0.0
H772 H 0.21455 0.47552 0.38109 0.0
H773 H 0.17206 0.43071 0.27252 0.0
H774 H 0.08019 0.44355 0.41866 0.0
H775 H 0.11325 0.42671 0.42289 0.0
H776 H 0.16649 0.45775 0.51797 0.0
C777 C 0.21793 0.46625 0.33476 0.0
C778 C 0.17147 0.43563 0.3274 0.0
C779 C 0.23138 0.47406 0.2851 0.0
C780 C 0.09346 0.45252 0.43196 0.0
C781 C 0.11234 0.44281 0.43516 0.0
C782 C 0.16775 0.45105 0.4654 0.0
C783 C 0.20739 0.448 0.32072 0.0
C784 C 0.18885 0.44309 0.36255 0.0
C785 C 0.13007 0.45414 0.44757 0.0
C786 C 0.15022 0.44595 0.42671 0.0
H787 H 0.22773 0.43681 0.15862 0.0
H788 H 0.20507 0.42242 0.24701 0.0
H789 H 0.20003 0.45458 0.46364 0.0
H790 H 0.10912 0.50102 0.46709 0.0
H791 H 0.14169 0.48414 0.47368 0.0
C792 C 0.98054 0.78631 0.9423 0.0
C793 C 0.97451 0.79674 1.0046 0.0
C794 C 0.97939 0.79563 0.8766 0.0
C795 C 0.96907 0.84689 0.79501 0.0
H796 H 0.02068 0.83465 0.70542 0.0
C797 C 0.01593 0.9107 0.67769 0.0
C798 C 0.03552 0.91089 0.70749 0.0
C799 C 1.00414 0.89304 0.6784 0.0
C800 C 1.00612 0.83825 0.72933 0.0
H801 H 0.95944 0.8241 0.04354 0.0
H802 H 0.95974 0.84112 0.93199 0.0
H803 H 1.00489 0.80958 0.77814 0.0
H804 H 0.05849 0.89236 0.75752 0.0
H805 H 0.03818 0.862 0.7597 0.0
H806 H 0.97194 0.87667 0.75302 0.0
C807 C 0.96497 0.82556 0.93256 0.0
C808 C 0.99676 0.82366 0.77074 0.0
C809 C 0.96531 0.8159 0.9978 0.0
C810 C 0.04358 0.89274 0.73336 0.0
C811 C 0.03186 0.87519 0.73424 0.0
C812 C 0.97878 0.86172 0.75517 0.0
C813 C 0.97316 0.816 0.87158 0.0
C814 C 0.97886 0.82832 0.80873 0.0
C815 C 0.01173 0.87527 0.70914 0.0
C816 C 0.99819 0.85802 0.72657 0.0
H817 H 0.98756 0.77147 0.94395 0.0
H818 H 0.98484 0.78725 0.83063 0.0
H819 H 0.95473 0.85073 0.81989 0.0
H820 H 0.00943 0.92439 0.65634 0.0
H821 H 0.98881 0.89356 0.65776 0.0
C822 C 0.71273 0.94962 0.03553 0.0
C823 C 0.72776 0.96473 0.03731 0.0
C824 C 0.70121 0.94627 0.97428 0.0
C825 C 0.69406 0.96467 0.78796 0.0
H826 H 0.63777 0.96759 0.84738 0.0
C827 C 0.63783 0.02349 0.69987 0.0
C828 C 0.6169 0.0193 0.69784 0.0
C829 C 0.6518 0.00816 0.71409 0.0
C830 C 0.65331 0.96621 0.82891 0.0
H831 H 0.7436 0.98706 0.97499 0.0
H832 H 0.72336 0.98177 0.86972 0.0
H833 H 0.66306 0.95498 0.92823 0.0
H834 H 0.59458 0.99503 0.70031 0.0
H835 H 0.61901 0.96848 0.72898 0.0
H836 H 0.68424 0.97805 0.69106 0.0
C837 C 0.72058 0.97204 0.91432 0.0
C838 C 0.66793 0.95891 0.87548 0.0
C839 C 0.73221 0.9752 0.97512 0.0
C840 C 0.6105 0.999 0.70411 0.0
C841 C 0.62448 0.9837 0.71953 0.0
C842 C 0.67943 0.97226 0.74172 0.0
C843 C 0.70429 0.95822 0.91409 0.0
C844 C 0.68866 0.95928 0.85729 0.0
C845 C 0.64516 0.98833 0.72753 0.0
C846 C 0.65912 0.9742 0.76355 0.0
H847 H 0.70924 0.9411 0.08253 0.0
H848 H 0.68912 0.93515 0.97553 0.0
H849 H 0.7098 0.96453 0.7713 0.0
H850 H 0.64344 0.03886 0.69578 0.0
H851 H 0.66762 0.01226 0.72074 0.0
C852 C 0.56703 0.73094 0.9985 0.0
C853 C 0.57848 0.73739 0.057 0.0
C854 C 0.57392 0.71495 0.95544 0.0
C855 C 0.58765 0.67775 0.87653 0.0
H856 H 0.60923 0.63804 0.00554 0.0
C857 C 0.56836 0.59343 0.83826 0.0
C858 C 0.56149 0.58452 0.90099 0.0
C859 C 0.57938 0.61159 0.84081 0.0
C860 C 0.60318 0.6489 0.9686 0.0
H861 H 0.60705 0.73427 0.11199 0.0
H862 H 0.61994 0.70731 0.03373 0.0
H863 H 0.61236 0.67367 0.03434 0.0
H864 H 0.56151 0.58709 0.0154 0.0
H865 H 0.58004 0.61871 0.02018 0.0
H866 H 0.5763 0.65272 0.81531 0.0
C867 C 0.6052 0.7138 0.02255 0.0
C868 C 0.60532 0.66955 0.98445 0.0
C869 C 0.59803 0.72949 0.06678 0.0
C870 C 0.56677 0.59348 0.96621 0.0
C871 C 0.57757 0.61164 0.96879 0.0
C872 C 0.58503 0.65705 0.86166 0.0
C873 C 0.59256 0.70524 0.96975 0.0
C874 C 0.59639 0.68429 0.94099 0.0
C875 C 0.58358 0.62127 0.90615 0.0
C876 C 0.59163 0.64241 0.91 0.0
H877 H 0.55178 0.73671 0.99074 0.0
H878 H 0.56354 0.70899 0.91597 0.0
H879 H 0.58136 0.68858 0.84002 0.0
H880 H 0.56477 0.58662 0.78722 0.0
H881 H 0.58404 0.61835 0.79155 0.0
C882 C 0.78615 0.55494 0.95118 0.0
C883 C 0.79232 0.56299 0.01711 0.0
C884 C 0.79705 0.55934 0.8898 0.0
C885 C 0.8414 0.58877 0.8211 0.0
H886 H 0.85871 0.53546 0.75593 0.0
C887 C 0.92158 0.56478 0.82553 0.0
C888 C 0.92701 0.5455 0.79886 0.0
C889 C 0.90302 0.57347 0.80733 0.0
C890 C 0.85395 0.55069 0.77068 0.0
H891 H 0.81324 0.58368 0.06931 0.0
H892 H 0.83259 0.59091 0.96308 0.0
H893 H 0.82645 0.53924 0.81373 0.0
H894 H 0.91917 0.52224 0.72068 0.0
H895 H 0.88741 0.53795 0.68599 0.0
H896 H 0.86967 0.59992 0.78176 0.0
C897 C 0.81928 0.58135 0.95817 0.0
C898 C 0.83523 0.55284 0.80441 0.0
C899 C 0.8084 0.57695 0.01943 0.0
C900 C 0.91527 0.53686 0.74393 0.0
C901 C 0.89688 0.54581 0.72443 0.0
C902 C 0.86011 0.58665 0.78655 0.0
C903 C 0.81433 0.57184 0.89323 0.0
C904 C 0.82952 0.57157 0.83504 0.0
C905 C 0.88964 0.56317 0.76103 0.0
C906 C 0.86739 0.56725 0.76671 0.0
H907 H 0.77377 0.54416 0.94764 0.0
H908 H 0.79274 0.55193 0.84047 0.0
H909 H 0.83708 0.60354 0.84228 0.0
H910 H 0.93081 0.57235 0.86537 0.0
H911 H 0.89838 0.58706 0.83598 0.0
C912 C 0.01213 0.21381 0.97822 0.0
C913 C 0.03174 0.22209 0.98414 0.0
C914 C 0.00839 0.19683 0.93366 0.0
C915 C 0.03632 0.15332 0.84528 0.0
H916 H 0.98406 0.14253 0.75867 0.0
C917 C 0.02157 0.08076 0.66955 0.0
C918 C 1.00309 0.07064 0.68129 0.0
C919 C 0.02516 0.10014 0.69987 0.0
C920 C 0.99875 0.14519 0.78283 0.0
H921 H 0.06257 0.21945 0.9455 0.0
H922 H 0.056 0.19069 0.8658 0.0
H923 H 0.98975 0.17469 0.82135 0.0
H924 H 0.97351 0.07353 0.73027 0.0
H925 H 0.97977 0.1069 0.78382 0.0
H926 H 0.04527 0.12377 0.80663 0.0
C927 C 0.0435 0.19679 0.89674 0.0
C928 C 1.00202 0.16373 0.81916 0.0
C929 C 0.04723 0.2136 0.94161 0.0
C930 C 0.98803 0.08075 0.72128 0.0
C931 C 0.99159 0.10002 0.75153 0.0
C932 C 0.03308 0.13483 0.80858 0.0
C933 C 0.02416 0.18763 0.89355 0.0
C934 C 0.02082 0.16812 0.85165 0.0
C935 C 0.01027 0.11001 0.74198 0.0
C936 C 0.01417 0.13034 0.77734 0.0
H937 H 0.99997 0.21964 0.0115 0.0
H938 H 0.99331 0.1903 0.9337 0.0
H939 H 0.05091 0.15569 0.87041 0.0
H940 H 0.03322 0.07369 0.63692 0.0
H941 H 0.0396 0.10742 0.69007 0.0
C942 C 0.31343 0.05852 0.90884 0.0
C943 C 0.3044 0.04329 0.94947 0.0
C944 C 0.33081 0.05444 0.86801 0.0
C945 C 0.36515 0.01257 0.80059 0.0
H946 H 0.40545 0.05546 0.80368 0.0
C947 C 0.44985 0.99787 0.73157 0.0
C948 C 0.46028 0.01243 0.69211 0.0
C949 C 0.43021 1.00174 0.75715 0.0
C950 C 0.39432 0.04337 0.80148 0.0
H951 H 0.3063 0.01169 0.97783 0.0
H952 H 0.33671 1.00445 0.90727 0.0
H953 H 0.37218 0.06154 0.85614 0.0
H954 H 0.45777 0.04204 0.6447 0.0
H955 H 0.42354 0.04905 0.69049 0.0
H956 H 0.38767 0.99427 0.74753 0.0
C957 C 0.33018 0.01953 0.90537 0.0
C958 C 0.37509 0.04687 0.83145 0.0
C959 C 0.31262 0.0236 0.94571 0.0
C960 C 0.4504 0.03081 0.67712 0.0
C961 C 0.43074 0.03476 0.70309 0.0
C962 C 0.38446 0.00903 0.77109 0.0
C963 C 0.33995 0.03506 0.86757 0.0
C964 C 0.36017 0.0315 0.83197 0.0
C965 C 0.42034 0.02024 0.7434 0.0
C966 C 0.3994 0.02433 0.77166 0.0
H967 H 0.30758 0.07391 0.91144 0.0
H968 H 0.33743 0.06673 0.83848 0.0
H969 H 0.35411 1.00041 0.79859 0.0
H970 H 0.45694 0.98341 0.74268 0.0
H971 H 0.42282 0.99026 0.78837 0.0
C972 C 0.50196 0.30643 0.90371 0.0
C973 C 0.48163 0.30071 0.91353 0.0
C974 C 0.50682 0.32295 0.86087 0.0
C975 C 0.48653 0.35942 0.72881 0.0
H976 H 0.52007 0.39847 0.83036 0.0
C977 C 0.50783 0.44018 0.62348 0.0
C978 C 0.50479 0.45611 0.67296 0.0
C979 C 0.50618 0.41982 0.64404 0.0
C980 C 0.51075 0.3877 0.8011 0.0
H981 H 0.45062 0.30677 0.88225 0.0
H982 H 0.45907 0.33523 0.80637 0.0
H983 H 0.5157 0.36446 0.87706 0.0
H984 H 0.49844 0.46298 0.78327 0.0
H985 H 0.49559 0.42781 0.81889 0.0
H986 H 0.48126 0.38303 0.65369 0.0
C987 C 0.47131 0.32707 0.83165 0.0
C988 C 0.50841 0.36811 0.82748 0.0
C989 C 0.46644 0.31074 0.87505 0.0
C990 C 0.50031 0.45119 0.74334 0.0
C991 C 0.49899 0.43096 0.76406 0.0
C992 C 0.48911 0.379 0.70184 0.0
C993 C 0.49146 0.33395 0.82642 0.0
C994 C 0.49595 0.35381 0.79254 0.0
C995 C 0.50198 0.415 0.71488 0.0
C996 C 0.50087 0.39352 0.73865 0.0
H997 H 0.51394 0.29918 0.93346 0.0
H998 H 0.52253 0.3277 0.85734 0.0
H999 H 0.4769 0.34876 0.70042 0.0
H1000 H 0.51146 0.44345 0.56897 0.0
H1001 H 0.50864 0.40785 0.60495 0.0
C1002 C 0.22548 0.49043 0.92552 0.0
C1003 C 0.22524 0.49904 0.99402 0.0
C1004 C 0.20888 0.49308 0.87951 0.0
C1005 C 0.16041 0.52304 0.85715 0.0
H1006 H 0.14359 0.47627 0.74501 0.0
C1007 C 0.087 0.5259 0.68824 0.0
C1008 C 0.07465 0.50848 0.68586 0.0
C1009 C 0.10672 0.52521 0.71649 0.0
C1010 C 0.14791 0.48947 0.77632 0.0
H1011 H 0.20764 0.51739 0.06759 0.0
H1012 H 0.17893 0.52206 0.98857 0.0
H1013 H 0.17523 0.47503 0.81152 0.0
H1014 H 0.07451 0.47614 0.70517 0.0
H1015 H 0.10825 0.47505 0.75738 0.0
H1016 H 0.13269 0.53714 0.82515 0.0
C1017 C 0.19192 0.51359 0.96889 0.0
C1018 C 0.16635 0.48888 0.81382 0.0
C1019 C 0.20845 0.51095 0.0145 0.0
C1020 C 0.08315 0.49007 0.70863 0.0
C1021 C 0.10279 0.48939 0.73758 0.0
C1022 C 0.14195 0.52359 0.82014 0.0
C1023 C 0.19159 0.50433 0.90111 0.0
C1024 C 0.1728 0.50556 0.85572 0.0
C1025 C 0.1148 0.50705 0.74341 0.0
C1026 C 0.13522 0.50674 0.77962 0.0
H1027 H 0.23804 0.48083 0.90886 0.0
H1028 H 0.20942 0.48591 0.82758 0.0
H1029 H 0.16485 0.53637 0.88761 0.0
H1030 H 0.08139 0.54028 0.6695 0.0
H1031 H 0.11556 0.53905 0.71758 0.0
C1032 C 0.01573 0.81918 0.26459 0.0
C1033 C 0.99633 0.81081 0.25387 0.0
C1034 C 0.01832 0.83696 0.30628 0.0
C1035 C 0.9887 0.88216 0.37501 0.0
H1036 H 0.03794 0.89341 0.4805 0.0
C1037 C 0.99933 0.95606 0.54867 0.0
C1038 C 0.01822 0.96586 0.54314 0.0
C1039 C 0.99621 0.93673 0.51729 0.0
C1040 C 0.02412 0.89063 0.45088 0.0
H1041 H 0.96451 0.81442 0.27936 0.0
H1042 H 0.96897 0.84472 0.35404 0.0
H1043 H 0.03364 0.86047 0.42142 0.0
H1044 H 0.04895 0.96242 0.50402 0.0
H1045 H 0.04366 0.92888 0.45025 0.0
H1046 H 0.97923 0.91238 0.40473 0.0
C1047 C 0.98227 0.83793 0.32957 0.0
C1048 C 0.02165 0.87163 0.41667 0.0
C1049 C 0.9797 0.82027 0.28768 0.0
C1050 C 0.0341 0.95548 0.50817 0.0
C1051 C 0.03109 0.93613 0.47771 0.0
C1052 C 0.99114 0.90111 0.40953 0.0
C1053 C 1.00155 0.84695 0.33827 0.0
C1054 C 1.00395 0.86705 0.37756 0.0
C1055 C 0.01208 0.92642 0.48139 0.0
C1056 C 0.00898 0.90575 0.44749 0.0
H1057 H 0.02875 0.8126 0.23764 0.0
H1058 H 0.0334 0.84337 0.31049 0.0
H1059 H 0.97498 0.87961 0.34465 0.0
H1060 H 0.987 0.96329 0.57751 0.0
H1061 H 0.98144 0.92969 0.52235 0.0
C1062 C 0.70997 0.01076 0.29396 0.0
C1063 C 0.7169 0.99082 0.28194 0.0
C1064 C 0.69258 0.01453 0.3356 0.0
C1065 C 0.64582 0.9878 0.39734 0.0
H1066 H 0.63679 0.0376 0.50485 0.0
C1067 C 0.57134 1.00346 0.55733 0.0
C1068 C 0.56271 0.02282 0.54892 0.0
C1069 C 0.59084 0.99907 0.53069 0.0
C1070 C 0.63902 0.02365 0.4747 0.0
H1071 H 0.71165 0.95931 0.30651 0.0
H1072 H 0.68207 0.96581 0.38146 0.0
H1073 H 0.66994 0.03112 0.45082 0.0
H1074 H 0.56819 0.053 0.50967 0.0
H1075 H 0.60206 0.04544 0.46349 0.0
H1076 H 0.61487 0.98038 0.4213 0.0
C1077 C 0.68955 0.97861 0.3575 0.0
C1078 C 0.65808 0.01993 0.4435 0.0
C1079 C 0.70675 0.97486 0.31544 0.0
C1080 C 0.57428 0.03783 0.51567 0.0
C1081 C 0.59378 0.03353 0.48976 0.0
C1082 C 0.62683 0.99147 0.42892 0.0
C1083 C 0.68173 0.99842 0.36639 0.0
C1084 C 0.66176 1.00202 0.40359 0.0
C1085 C 0.60236 0.01409 0.49666 0.0
C1086 C 0.62306 0.00956 0.46725 0.0
H1087 H 0.71721 0.02331 0.26755 0.0
H1088 H 0.68706 0.02999 0.34035 0.0
H1089 H 0.64774 0.974 0.3661 0.0
H1090 H 0.56308 0.99178 0.58484 0.0
H1091 H 0.59705 0.984 0.53781 0.0
C1092 C 0.53841 0.73027 0.34246 0.0
C1093 C 0.53649 0.72818 0.26866 0.0
C1094 C 0.5331 0.71413 0.38681 0.0
C1095 C 0.5076 0.66276 0.3846 0.0
H1096 H 0.54481 0.65133 0.5379 0.0
C1097 C 0.52373 0.58236 0.48684 0.0
C1098 C 0.52041 0.57921 0.55926 0.0
C1099 C 0.52355 0.60198 0.45959 0.0
C1100 C 0.53417 0.65447 0.49576 0.0
H1101 H 0.52631 0.70817 0.1839 0.0
H1102 H 0.51757 0.68024 0.25955 0.0
H1103 H 0.5473 0.68358 0.47592 0.0
H1104 H 0.51442 0.5941 0.66017 0.0
H1105 H 0.5149 0.62873 0.61256 0.0
H1106 H 0.49544 0.63303 0.40171 0.0
C1107 C 0.52284 0.69418 0.28444 0.0
C1108 C 0.53548 0.67302 0.46036 0.0
C1109 C 0.52801 0.71022 0.24062 0.0
C1110 C 0.51709 0.59613 0.60416 0.0
C1111 C 0.51741 0.61589 0.57705 0.0
C1112 C 0.5066 0.64413 0.41895 0.0
C1113 C 0.52575 0.69561 0.35816 0.0
C1114 C 0.52252 0.67725 0.40297 0.0
C1115 C 0.52042 0.61894 0.50431 0.0
C1116 C 0.52012 0.63963 0.47392 0.0
H1117 H 0.545 0.7439 0.36551 0.0
H1118 H 0.53525 0.71601 0.44332 0.0
H1119 H 0.49692 0.66556 0.34232 0.0
H1120 H 0.5259 0.5696 0.45077 0.0
H1121 H 0.52592 0.60392 0.40336 0.0
C1122 C 0.82051 0.52308 0.23679 0.0
C1123 C 0.80311 0.53427 0.25657 0.0
C1124 C 0.83644 0.52002 0.28451 0.0
C1125 C 0.85948 0.54212 0.44846 0.0
H1126 H 0.8935 0.49417 0.43324 0.0
C1127 C 0.94211 0.53976 0.55851 0.0
C1128 C 0.95044 0.52112 0.57984 0.0
C1129 C 0.9225 0.54077 0.52943 0.0
C1130 C 0.88412 0.50759 0.43935 0.0
H1131 H 0.78859 0.55033 0.34368 0.0
H1132 H 0.81632 0.54463 0.42821 0.0
H1133 H 0.86213 0.4958 0.36622 0.0
H1134 H 0.94367 0.48919 0.5925 0.0
H1135 H 0.90951 0.49097 0.54365 0.0
H1136 H 0.88143 0.55377 0.52257 0.0
C1137 C 0.81775 0.53847 0.37496 0.0
C1138 C 0.86612 0.50866 0.3998 0.0
C1139 C 0.80169 0.54151 0.32686 0.0
C1140 C 0.93805 0.50376 0.57547 0.0
C1141 C 0.91839 0.50477 0.54677 0.0
C1142 C 0.87749 0.54102 0.48839 0.0
C1143 C 0.83558 0.52799 0.35408 0.0
C1144 C 0.85367 0.52609 0.40247 0.0
C1145 C 0.91046 0.5232 0.52146 0.0
C1146 C 0.89031 0.52387 0.4836 0.0
H1147 H 0.82213 0.51728 0.18308 0.0
H1148 H 0.84985 0.5121 0.26551 0.0
H1149 H 0.85049 0.55588 0.45199 0.0
H1150 H 0.95088 0.5536 0.56293 0.0
H1151 H 0.91713 0.55528 0.51082 0.0
loop_
_geom_bond_atom_site_label_1
_geom_bond_atom_site_label_2
_geom_bond_distance
_geom_bond_site_symmetry_2
_ccdc_geom_bond_type
H0 C5 0.930 . S
H1 C8 0.930 . S
H2 C10 0.930 . S
H3 C4 1.016 . S
C4 H3 1.016 . S
C4 N11 1.286 . S
C5 H0 0.930 . S
C5 C6 1.397 . S
C5 C7 1.361 . S
C6 C5 1.397 . S
C6 C10 1.390 . S
C7 C5 1.361 . S
C7 C8 1.393 . S
C7 N11 1.413 . S
C8 H1 0.930 . S
C8 C7 1.393 . S
C8 C9 1.399 . S
C9 C8 1.399 . S
C9 C10 1.381 . S
C10 H2 0.930 . S
C10 C6 1.390 . S
C10 C9 1.381 . S
N11 C4 1.286 . S
N11 C7 1.413 . S
H12 C17 0.930 . S
H13 C20 0.930 . S
H14 C22 0.930 . S
H15 C16 1.016 . S
C16 H15 1.016 . S
C16 N23 1.286 . S
C17 H12 0.930 . S
C17 C18 1.397 . S
C17 C19 1.361 . S
C18 C17 1.397 . S
C18 C22 1.390 . S
C19 C17 1.361 . S
C19 C20 1.393 . S
C19 N23 1.413 . S
C20 H13 0.930 . S
C20 C19 1.393 . S
C20 C21 1.399 . S
C21 C20 1.399 . S
C21 C22 1.381 . S
C22 H14 0.930 . S
C22 C18 1.390 . S
C22 C21 1.381 . S
N23 C16 1.286 . S
N23 C19 1.413 . S
H24 C29 0.930 . S
H25 C32 0.930 . S
H26 C34 0.930 . S
H27 C28 1.016 . S
C28 H27 1.016 . S
C28 N35 1.286 . S
C29 H24 0.930 . S
C29 C30 1.397 . S
C29 C31 1.361 . S
C30 C29 1.397 . S
C30 C34 1.390 . S
C31 C29 1.361 . S
C31 C32 1.393 . S
C31 N35 1.413 . S
C32 H25 0.930 . S
C32 C31 1.393 . S
C32 C33 1.399 . S
C33 C32 1.399 . S
C33 C34 1.381 . S
C34 H26 0.930 . S
C34 C30 1.390 . S
C34 C33 1.381 . S
N35 C28 1.286 . S
N35 C31 1.413 . S
H36 C41 0.930 . S
H37 C44 0.930 . S
H38 C46 0.930 . S
H39 C40 1.016 . S
C40 H39 1.016 . S
C40 N47 1.286 . S
C41 H36 0.930 . S
C41 C42 1.397 . S
C41 C43 1.361 . S
C42 C41 1.397 . S
C42 C46 1.390 . S
C43 C41 1.361 . S
C43 C44 1.393 . S
C43 N47 1.413 . S
C44 H37 0.930 . S
C44 C43 1.393 . S
C44 C45 1.399 . S
C45 C44 1.399 . S
C45 C46 1.381 . S
C46 H38 0.930 . S
C46 C42 1.390 . S
C46 C45 1.381 . S
N47 C40 1.286 . S
N47 C43 1.413 . S
H48 C53 0.930 . S
H49 C56 0.930 . S
H50 C58 0.930 . S
H51 C52 1.016 . S
C52 H51 1.016 . S
C52 N59 1.286 . S
C53 H48 0.930 . S
C53 C54 1.397 . S
C53 C55 1.361 1_556 S
C54 C53 1.397 . S
C54 C58 1.390 . S
C55 C53 1.361 1_554 S
C55 C56 1.393 . S
C55 N59 1.413 . S
C56 H49 0.930 . S
C56 C55 1.393 . S
C56 C57 1.399 . S
C57 C56 1.399 . S
C57 C58 1.381 1_554 S
C58 H50 0.930 . S
C58 C54 1.390 . S
C58 C57 1.381 1_556 S
N59 C52 1.286 . S
N59 C55 1.413 . S
H60 C65 0.930 . S
H61 C68 0.930 . S
H62 C70 0.930 . S
H63 C64 1.016 . S
C64 H63 1.016 . S
C64 N71 1.286 . S
C65 H60 0.930 . S
C65 C66 1.397 . S
C65 C67 1.361 1_556 S
C66 C65 1.397 . S
C66 C70 1.390 . S
C67 C65 1.361 1_554 S
C67 C68 1.393 . S
C67 N71 1.413 . S
C68 H61 0.930 . S
C68 C67 1.393 . S
C68 C69 1.399 . S
C69 C68 1.399 . S
C69 C70 1.381 1_554 S
C70 H62 0.930 . S
C70 C66 1.390 . S
C70 C69 1.381 1_556 S
N71 C64 1.286 . S
N71 C67 1.413 . S
H72 C77 0.930 . S
H73 C80 0.930 . S
H74 C82 0.930 . S
H75 C76 1.016 . S
C76 H75 1.016 . S
C76 N83 1.286 . S
C77 H72 0.930 . S
C77 C78 1.397 . S
C77 C79 1.361 1_556 S
C78 C77 1.397 . S
C78 C82 1.390 . S
C79 C77 1.361 1_554 S
C79 C80 1.393 . S
C79 N83 1.413 . S
C80 H73 0.930 . S
C80 C79 1.393 . S
C80 C81 1.399 . S
C81 C80 1.399 . S
C81 C82 1.381 1_554 S
C82 H74 0.930 . S
C82 C78 1.390 . S
C82 C81 1.381 1_556 S
N83 C76 1.286 . S
N83 C79 1.413 . S
H84 C89 0.930 . S
H85 C92 0.930 . S
H86 C94 0.930 . S
H87 C88 1.016 . S
C88 H87 1.016 . S
C88 N95 1.286 . S
C89 H84 0.930 . S
C89 C90 1.397 . S
C89 C91 1.361 1_556 S
C90 C89 1.397 . S
C90 C94 1.390 . S
C91 C89 1.361 1_554 S
C91 C92 1.393 . S
C91 N95 1.413 . S
C92 H85 0.930 . S
C92 C91 1.393 . S
C92 C93 1.399 . S
C93 C92 1.399 . S
C93 C94 1.381 1_554 S
C94 H86 0.930 . S
C94 C90 1.390 . S
C94 C93 1.381 1_556 S
N95 C88 1.286 . S
N95 C91 1.413 . S
Gd96 N127 2.661 . S
Gd96 N133 2.601 . S
Gd96 O140 2.545 . S
Gd96 O141 2.606 1_655 S
Gd96 O143 2.429 . S
Gd96 O144 2.545 1_655 S
Gd96 O145 2.413 1_655 S
Gd96 O147 2.362 1_545 S
Gd96 O148 2.324 1_655 S
Gd96 C155 2.828 . S
Gd97 N106 2.661 1_565 S
Gd97 N110 2.594 1_565 S
Gd97 O141 2.362 1_565 S
Gd97 O142 2.333 1_455 S
Gd97 O146 2.545 . S
Gd97 O147 2.606 1_455 S
Gd97 O149 2.429 . S
Gd97 O150 2.545 . S
Gd97 O151 2.412 . S
Gd97 C164 2.828 . S
C98 C101 1.417 . S
C98 C103 1.431 . S
C98 C104 1.412 . S
C99 C102 1.437 . S
C99 C103 1.317 . S
C99 H118 0.929 . S
C100 C101 1.426 . S
C100 C102 1.413 . S
C100 N110 1.377 . S
C101 C98 1.417 . S
C101 C100 1.426 . S
C101 N106 1.350 . S
C102 C99 1.437 . S
C102 C100 1.413 . S
C102 C112 1.391 . S
C103 C98 1.431 . S
C103 C99 1.317 . S
C103 H114 0.930 . S
C104 C98 1.412 . S
C104 C105 1.355 . S
C104 H116 0.930 . S
C105 C104 1.355 . S
C105 C107 1.402 . S
C105 H117 0.930 1_455 S
N106 Gd97 2.661 1_545 S
N106 C101 1.350 . S
N106 C107 1.307 . S
C107 C105 1.402 . S
C107 N106 1.307 . S
C107 H108 0.930 1_455 S
H108 C107 0.930 1_655 S
C109 N110 1.321 1_565 S
C109 C111 1.394 . S
C109 H113 0.930 . S
N110 Gd97 2.594 1_545 S
N110 C100 1.377 . S
N110 C109 1.321 1_545 S
C111 C109 1.394 . S
C111 C112 1.359 1_565 S
C111 H123 0.930 . S
C112 C102 1.391 . S
C112 C111 1.359 1_545 S
C112 H124 0.929 . S
H113 C109 0.930 . S
H114 C103 0.930 . S
H115 C132 0.930 . S
H116 C104 0.930 . S
H117 C105 0.930 1_655 S
H118 C99 0.929 . S
H119 C137 0.930 . S
H120 C128 0.930 . S
H121 C129 0.930 . S
H122 C153 0.929 . S
H123 C111 0.930 . S
H124 C112 0.929 . S
H125 C154 0.930 . S
H126 C135 0.930 . S
N127 Gd96 2.661 . S
N127 C131 1.341 1_545 S
N127 C132 1.307 1_645 S
C128 H120 0.930 . S
C128 C129 1.355 1_655 S
C128 C130 1.412 . S
C129 H121 0.930 . S
C129 C128 1.355 1_455 S
C129 C132 1.402 . S
C130 C128 1.412 . S
C130 C131 1.448 . S
C130 C154 1.431 . S
C131 N127 1.341 1_565 S
C131 C130 1.448 . S
C131 C134 1.407 1_565 S
C132 H115 0.930 . S
C132 N127 1.307 1_465 S
C132 C129 1.402 . S
N133 Gd96 2.601 . S
N133 C134 1.359 . S
N133 C137 1.334 . S
C134 C131 1.407 1_545 S
C134 N133 1.359 . S
C134 C138 1.413 . S
C135 H126 0.930 . S
C135 C136 1.359 . S
C135 C137 1.394 . S
C136 C135 1.359 . S
C136 C138 1.391 . S
C136 H139 0.929 . S
C137 H119 0.930 . S
C137 N133 1.334 . S
C137 C135 1.394 . S
C138 C134 1.413 . S
C138 C136 1.391 . S
C138 C153 1.437 1_545 S
H139 C136 0.929 . S
O140 Gd96 2.545 . S
O140 C155 1.258 . S
O141 Gd96 2.606 1_455 S
O141 Gd97 2.362 1_545 S
O141 C152 1.284 . S
O142 Gd97 2.333 1_655 S
O142 C162 1.240 1_565 S
O143 Gd96 2.429 . S
O143 C162 1.268 . S
O144 Gd96 2.545 1_455 S
O144 C152 1.250 . S
O145 Gd96 2.413 1_455 S
O145 C155 1.255 1_455 S
O146 Gd97 2.545 . S
O146 C164 1.258 . S
O147 Gd96 2.362 1_565 S
O147 Gd97 2.606 1_655 S
O147 C163 1.284 . S
O148 Gd96 2.324 1_455 S
O148 C171 1.254 . S
O149 Gd97 2.429 . S
O149 C171 1.268 1_565 S
O150 Gd97 2.545 . S
O150 C163 1.250 1_455 S
O151 Gd97 2.412 . S
O151 C164 1.252 . S
C152 O141 1.284 . S
C152 O144 1.250 . S
C153 H122 0.929 . S
C153 C138 1.437 1_565 S
C153 C154 1.317 . S
C154 H125 0.930 . S
C154 C130 1.431 . S
C154 C153 1.317 . S
C155 Gd96 2.828 . S
C155 O140 1.258 . S
C155 O145 1.255 1_655 S
C155 C156 1.497 . S
C156 C155 1.497 . S
C156 C157 1.395 . S
C156 C158 1.345 1_655 S
C157 C156 1.395 . S
C157 C160 1.398 . S
C157 H172 0.930 . S
C158 C156 1.345 1_455 S
C158 C159 1.389 1_455 S
C158 H173 0.969 . S
C159 C158 1.389 1_655 S
C159 C161 1.404 . S
C160 C157 1.398 . S
C160 C161 1.380 . S
C160 H174 0.930 . S
C161 C159 1.404 . S
C161 C160 1.380 . S
C161 H175 0.930 . S
C162 O142 1.240 1_545 S
C162 O143 1.268 . S
C163 O147 1.284 . S
C163 O150 1.250 1_655 S
C164 Gd97 2.828 . S
C164 O146 1.258 . S
C164 O151 1.252 . S
C164 C165 1.497 . S
C165 C164 1.497 . S
C165 C166 1.395 . S
C165 C167 1.380 . S
C166 C165 1.395 . S
C166 C169 1.398 . S
C166 H176 0.930 . S
C167 C165 1.380 . S
C167 C168 1.391 . S
C167 H177 0.930 1_455 S
C168 C167 1.391 . S
C168 C170 1.387 . S
C169 C166 1.398 . S
C169 C170 1.380 . S
C169 H178 0.930 . S
C170 C168 1.387 . S
C170 C169 1.380 . S
C170 H179 0.930 . S
C171 O148 1.254 . S
C171 O149 1.268 1_545 S
H172 C157 0.930 . S
H173 C158 0.969 . S
H174 C160 0.930 . S
H175 C161 0.930 . S
H176 C166 0.930 . S
H177 C167 0.930 1_655 S
H178 C169 0.930 . S
H179 C170 0.930 . S
Gd180 N211 2.661 . S
Gd180 N217 2.601 . S
Gd180 O224 2.545 . S
Gd180 O225 2.606 1_565 S
Gd180 O227 2.429 . S
Gd180 O228 2.545 1_565 S
Gd180 O229 2.412 1_565 S
Gd180 O231 2.362 1_565 S
Gd180 O232 2.324 1_565 S
Gd180 C239 2.828 . S
Gd181 N190 2.661 . S
Gd181 N194 2.601 . S
Gd181 O225 2.362 . S
Gd181 O226 2.324 1_545 S
Gd181 O230 2.545 . S
Gd181 O231 2.606 . S
Gd181 O233 2.429 . S
Gd181 O234 2.545 . S
Gd181 O235 2.412 . S
Gd181 C248 2.828 . S
C182 C185 1.417 . S
C182 C187 1.431 . S
C182 C188 1.412 . S
C183 C186 1.437 . S
C183 C187 1.317 . S
C183 H202 0.929 . S
C184 C185 1.426 . S
C184 C186 1.413 . S
C184 N194 1.359 . S
C185 C182 1.417 . S
C185 C184 1.426 . S
C185 N190 1.350 . S
C186 C183 1.437 . S
C186 C184 1.413 . S
C186 C196 1.391 . S
C187 C182 1.431 . S
C187 C183 1.317 . S
C187 H198 0.930 . S
C188 C182 1.412 . S
C188 C189 1.355 . S
C188 H200 0.930 . S
C189 C188 1.355 . S
C189 C191 1.402 . S
C189 H201 0.930 1_545 S
N190 Gd181 2.661 . S
N190 C185 1.350 . S
N190 C191 1.307 . S
C191 C189 1.402 . S
C191 N190 1.307 . S
C191 H192 0.930 1_545 S
H192 C191 0.930 1_565 S
C193 N194 1.334 . S
C193 C195 1.394 . S
C193 H197 0.930 . S
N194 Gd181 2.601 . S
N194 C184 1.359 . S
N194 C193 1.334 . S
C195 C193 1.394 . S
C195 C196 1.359 . S
C195 H207 0.930 . S
C196 C186 1.391 . S
C196 C195 1.359 . S
C196 H208 0.929 . S
H197 C193 0.930 . S
H198 C187 0.930 . S
H199 C216 0.930 . S
H200 C188 0.930 . S
H201 C189 0.930 1_565 S
H202 C183 0.929 . S
H203 C221 0.930 . S
H204 C212 0.930 . S
H205 C213 0.930 . S
H206 C237 0.929 . S
H207 C195 0.930 . S
H208 C196 0.929 . S
H209 C238 0.930 . S
H210 C219 0.930 . S
N211 Gd180 2.661 . S
N211 C215 1.350 . S
N211 C216 1.307 1_565 S
C212 H204 0.930 . S
C212 C213 1.355 1_565 S
C212 C214 1.412 . S
C213 H205 0.930 . S
C213 C212 1.355 1_545 S
C213 C216 1.402 . S
C214 C212 1.412 . S
C214 C215 1.417 . S
C214 C238 1.431 . S
C215 N211 1.350 . S
C215 C214 1.417 . S
C215 C218 1.426 . S
C216 H199 0.930 . S
C216 N211 1.307 1_545 S
C216 C213 1.402 . S
N217 Gd180 2.601 . S
N217 C218 1.359 . S
N217 C221 1.334 . S
C218 C215 1.426 . S
C218 N217 1.359 . S
C218 C222 1.413 . S
C219 H210 0.930 . S
C219 C220 1.359 . S
C219 C221 1.394 . S
C220 C219 1.359 . S
C220 C222 1.391 . S
C220 H223 0.929 . S
C221 H203 0.930 . S
C221 N217 1.334 . S
C221 C219 1.394 . S
C222 C218 1.413 . S
C222 C220 1.391 . S
C222 C237 1.437 . S
H223 C220 0.929 . S
O224 Gd180 2.545 . S
O224 C239 1.258 . S
O225 Gd180 2.606 1_545 S
O225 Gd181 2.362 . S
O225 C236 1.284 . S
O226 Gd181 2.324 1_565 S
O226 C246 1.254 . S
O227 Gd180 2.429 . S
O227 C246 1.268 . S
O228 Gd180 2.545 1_545 S
O228 C236 1.250 . S
O229 Gd180 2.412 1_545 S
O229 C239 1.252 1_545 S
O230 Gd181 2.545 . S
O230 C248 1.258 . S
O231 Gd180 2.362 1_545 S
O231 Gd181 2.606 . S
O231 C247 1.284 . S
O232 Gd180 2.324 1_545 S
O232 C255 1.254 . S
O233 Gd181 2.429 . S
O233 C255 1.268 . S
O234 Gd181 2.545 . S
O234 C247 1.265 . S
O235 Gd181 2.412 . S
O235 C248 1.252 . S
C236 O225 1.284 . S
C236 O228 1.250 . S
C237 H206 0.929 . S
C237 C222 1.437 . S
C237 C238 1.317 . S
C238 H209 0.930 . S
C238 C214 1.431 . S
C238 C237 1.317 . S
C239 Gd180 2.828 . S
C239 O224 1.258 . S
C239 O229 1.252 1_565 S
C239 C240 1.497 . S
C240 C239 1.497 . S
C240 C241 1.395 . S
C240 C242 1.380 1_565 S
C241 C240 1.395 . S
C241 C244 1.398 . S
C241 H256 0.930 . S
C242 C240 1.380 1_545 S
C242 C243 1.391 . S
C242 H257 0.930 . S
C243 C242 1.391 . S
C243 C245 1.387 1_545 S
C244 C241 1.398 . S
C244 C245 1.380 . S
C244 H258 0.930 . S
C245 C243 1.387 1_565 S
C245 C244 1.380 . S
C245 H259 0.930 . S
C246 O226 1.254 . S
C246 O227 1.268 . S
C247 O231 1.284 . S
C247 O234 1.265 . S
C248 Gd181 2.828 . S
C248 O230 1.258 . S
C248 O235 1.252 . S
C248 C249 1.497 . S
C249 C248 1.497 . S
C249 C250 1.395 . S
C249 C251 1.380 . S
C250 C249 1.395 . S
C250 C253 1.398 . S
C250 H260 0.930 . S
C251 C249 1.380 . S
C251 C252 1.391 . S
C251 H261 0.930 . S
C252 C251 1.391 . S
C252 C254 1.387 . S
C253 C250 1.398 . S
C253 C254 1.380 . S
C253 H262 0.930 . S
C254 C252 1.387 . S
C254 C253 1.380 . S
C254 H263 0.930 . S
C255 O232 1.254 . S
C255 O233 1.268 . S
H256 C241 0.930 . S
H257 C242 0.930 . S
H258 C244 0.930 . S
H259 C245 0.930 . S
H260 C250 0.930 . S
H261 C251 0.930 . S
H262 C253 0.930 . S
H263 C254 0.930 . S
Gd264 N295 2.661 . S
Gd264 N301 2.601 . S
Gd264 O308 2.545 . S
Gd264 O309 2.606 . S
Gd264 O311 2.429 . S
Gd264 O312 2.545 . S
Gd264 O313 2.412 . S
Gd264 O315 2.362 . S
Gd264 O316 2.324 . S
Gd264 C323 2.828 . S
Gd265 N274 2.661 . S
Gd265 N278 2.601 . S
Gd265 O309 2.362 . S
Gd265 O310 2.324 . S
Gd265 O314 2.545 . S
Gd265 O315 2.606 . S
Gd265 O317 2.429 . S
Gd265 O318 2.545 . S
Gd265 O319 2.412 . S
Gd265 C332 2.828 . S
C266 C269 1.417 . S
C266 C271 1.431 . S
C266 C272 1.412 . S
C267 C270 1.437 . S
C267 C271 1.317 . S
C267 H286 0.929 . S
C268 C269 1.426 . S
C268 C270 1.413 . S
C268 N278 1.359 . S
C269 C266 1.417 . S
C269 C268 1.426 . S
C269 N274 1.350 . S
C270 C267 1.437 . S
C270 C268 1.413 . S
C270 C280 1.391 . S
C271 C266 1.431 . S
C271 C267 1.317 . S
C271 H282 0.930 . S
C272 C266 1.412 . S
C272 C273 1.355 . S
C272 H284 0.930 . S
C273 C272 1.355 . S
C273 C275 1.402 . S
C273 H285 0.930 . S
N274 Gd265 2.661 . S
N274 C269 1.350 . S
N274 C275 1.307 . S
C275 C273 1.402 . S
C275 N274 1.307 . S
C275 H276 0.930 . S
H276 C275 0.930 . S
C277 N278 1.334 . S
C277 C279 1.394 . S
C277 H281 0.930 . S
N278 Gd265 2.601 . S
N278 C268 1.359 . S
N278 C277 1.334 . S
C279 C277 1.394 . S
C279 C280 1.359 . S
C279 H291 0.930 . S
C280 C270 1.391 . S
C280 C279 1.359 . S
C280 H292 0.929 . S
H281 C277 0.930 . S
H282 C271 0.930 . S
H283 C300 0.930 . S
H284 C272 0.930 . S
H285 C273 0.930 . S
H286 C267 0.929 . S
H287 C305 0.930 . S
H288 C296 0.930 . S
H289 C297 0.930 . S
H290 C321 0.929 . S
H291 C279 0.930 . S
H292 C280 0.929 . S
H293 C322 0.930 . S
H294 C303 0.930 . S
N295 Gd264 2.661 . S
N295 C299 1.350 . S
N295 C300 1.307 . S
C296 H288 0.930 . S
C296 C297 1.355 . S
C296 C298 1.412 . S
C297 H289 0.930 . S
C297 C296 1.355 . S
C297 C300 1.402 . S
C298 C296 1.412 . S
C298 C299 1.417 . S
C298 C322 1.431 . S
C299 N295 1.350 . S
C299 C298 1.417 . S
C299 C302 1.426 . S
C300 H283 0.930 . S
C300 N295 1.307 . S
C300 C297 1.402 . S
N301 Gd264 2.601 . S
N301 C302 1.359 . S
N301 C305 1.334 . S
C302 C299 1.426 . S
C302 N301 1.359 . S
C302 C306 1.413 . S
C303 H294 0.930 . S
C303 C304 1.359 . S
C303 C305 1.394 . S
C304 C303 1.359 . S
C304 C306 1.391 . S
C304 H307 0.929 . S
C305 H287 0.930 . S
C305 N301 1.334 . S
C305 C303 1.394 . S
C306 C302 1.413 . S
C306 C304 1.391 . S
C306 C321 1.437 . S
H307 C304 0.929 . S
O308 Gd264 2.545 . S
O308 C323 1.258 . S
O309 Gd264 2.606 . S
O309 Gd265 2.362 . S
O309 C320 1.284 . S
O310 Gd265 2.324 . S
O310 C330 1.254 . S
O311 Gd264 2.429 . S
O311 C330 1.268 . S
O312 Gd264 2.545 . S
O312 C320 1.250 . S
O313 Gd264 2.412 . S
O313 C323 1.252 . S
O314 Gd265 2.545 . S
O314 C332 1.258 . S
O315 Gd264 2.362 . S
O315 Gd265 2.606 . S
O315 C331 1.284 . S
O316 Gd264 2.324 . S
O316 C339 1.254 . S
O317 Gd265 2.429 . S
O317 C339 1.268 . S
O318 Gd265 2.545 . S
O318 C331 1.250 . S
O319 Gd265 2.412 . S
O319 C332 1.252 . S
C320 O309 1.284 . S
C320 O312 1.250 . S
C321 H290 0.929 . S
C321 C306 1.437 . S
C321 C322 1.317 . S
C322 H293 0.930 . S
C322 C298 1.431 . S
C322 C321 1.317 . S
C323 Gd264 2.828 . S
C323 O308 1.258 . S
C323 O313 1.252 . S
C323 C324 1.497 . S
C324 C323 1.497 . S
C324 C325 1.395 . S
C324 C326 1.380 . S
C325 C324 1.395 . S
C325 C328 1.398 . S
C325 H340 0.930 . S
C326 C324 1.380 . S
C326 C327 1.391 . S
C326 H341 0.930 . S
C327 C326 1.391 . S
C327 C329 1.387 . S
C328 C325 1.398 . S
C328 C329 1.380 . S
C328 H342 0.930 1_556 S
C329 C327 1.387 . S
C329 C328 1.380 . S
C329 H343 0.930 . S
C330 O310 1.254 . S
C330 O311 1.268 . S
C331 O315 1.284 . S
C331 O318 1.250 . S
C332 Gd265 2.828 . S
C332 O314 1.258 . S
C332 O319 1.252 . S
C332 C333 1.497 . S
C333 C332 1.497 . S
C333 C334 1.395 . S
C333 C335 1.380 . S
C334 C333 1.395 . S
C334 C337 1.398 . S
C334 H344 0.930 . S
C335 C333 1.380 . S
C335 C336 1.391 . S
C335 H345 0.930 . S
C336 C335 1.391 . S
C336 C338 1.387 . S
C337 C334 1.398 . S
C337 C338 1.380 . S
C337 H346 0.930 . S
C338 C336 1.387 . S
C338 C337 1.380 . S
C338 H347 0.930 . S
C339 O316 1.254 . S
C339 O317 1.268 . S
H340 C325 0.930 . S
H341 C326 0.930 . S
H342 C328 0.930 1_554 S
H343 C329 0.930 . S
H344 C334 0.930 . S
H345 C335 0.930 . S
H346 C337 0.930 . S
H347 C338 0.930 . S
Gd348 N379 2.661 . S
Gd348 N385 2.601 . S
Gd348 O392 2.545 . S
Gd348 O393 2.606 1_655 S
Gd348 O395 2.429 1_655 S
Gd348 O396 2.545 . S
Gd348 O397 2.412 . S
Gd348 O399 2.362 1_655 S
Gd348 O400 2.324 . S
Gd348 C407 2.828 . S
Gd349 N358 2.661 . S
Gd349 N362 2.601 . S
Gd349 O393 2.362 . S
Gd349 O394 2.324 . S
Gd349 O398 2.545 . S
Gd349 O399 2.606 . S
Gd349 O401 2.429 1_455 S
Gd349 O402 2.545 . S
Gd349 O403 2.412 . S
Gd349 C416 2.828 . S
C350 C353 1.417 . S
C350 C355 1.431 . S
C350 C356 1.412 . S
C351 C354 1.437 . S
C351 C355 1.317 . S
C351 H370 0.929 . S
C352 C353 1.426 . S
C352 C354 1.413 . S
C352 N362 1.359 . S
C353 C350 1.417 . S
C353 C352 1.426 . S
C353 N358 1.350 . S
C354 C351 1.437 . S
C354 C352 1.413 . S
C354 C364 1.391 . S
C355 C350 1.431 . S
C355 C351 1.317 . S
C355 H366 0.930 . S
C356 C350 1.412 . S
C356 C357 1.355 . S
C356 H368 0.930 . S
C357 C356 1.355 . S
C357 C359 1.402 . S
C357 H369 0.930 . S
N358 Gd349 2.661 . S
N358 C353 1.350 . S
N358 C359 1.307 . S
C359 C357 1.402 . S
C359 N358 1.307 . S
C359 H360 0.930 . S
H360 C359 0.930 . S
C361 N362 1.334 . S
C361 C363 1.394 . S
C361 H365 0.930 1_455 S
N362 Gd349 2.601 . S
N362 C352 1.359 . S
N362 C361 1.334 . S
C363 C361 1.394 . S
C363 C364 1.359 . S
C363 H375 0.930 1_455 S
C364 C354 1.391 . S
C364 C363 1.359 . S
C364 H376 0.929 . S
H365 C361 0.930 1_655 S
H366 C355 0.930 . S
H367 C384 0.930 . S
H368 C356 0.930 . S
H369 C357 0.930 . S
H370 C351 0.929 . S
H371 C389 0.930 . S
H372 C380 0.930 . S
H373 C381 0.930 . S
H374 C405 0.929 . S
H375 C363 0.930 1_655 S
H376 C364 0.929 . S
H377 C406 0.930 . S
H378 C387 0.930 . S
N379 Gd348 2.661 . S
N379 C383 1.350 . S
N379 C384 1.307 . S
C380 H372 0.930 . S
C380 C381 1.355 . S
C380 C382 1.412 . S
C381 H373 0.930 . S
C381 C380 1.355 . S
C381 C384 1.402 . S
C382 C380 1.412 . S
C382 C383 1.417 . S
C382 C406 1.431 . S
C383 N379 1.350 . S
C383 C382 1.417 . S
C383 C386 1.426 . S
C384 H367 0.930 . S
C384 N379 1.307 . S
C384 C381 1.402 . S
N385 Gd348 2.601 . S
N385 C386 1.359 . S
N385 C389 1.334 1_655 S
C386 C383 1.426 . S
C386 N385 1.359 . S
C386 C390 1.413 . S
C387 H378 0.930 . S
C387 C388 1.359 . S
C387 C389 1.394 . S
C388 C387 1.359 . S
C388 C390 1.391 1_455 S
C388 H391 0.929 . S
C389 H371 0.930 . S
C389 N385 1.334 1_455 S
C389 C387 1.394 . S
C390 C386 1.413 . S
C390 C388 1.391 1_655 S
C390 C405 1.437 . S
H391 C388 0.929 . S
O392 Gd348 2.545 . S
O392 C407 1.258 . S
O393 Gd348 2.606 1_455 S
O393 Gd349 2.362 . S
O393 C404 1.284 1_455 S
O394 Gd349 2.324 . S
O394 C414 1.254 . S
O395 Gd348 2.429 1_455 S
O395 C414 1.268 . S
O396 Gd348 2.545 . S
O396 C404 1.250 . S
O397 Gd348 2.412 . S
O397 C407 1.252 . S
O398 Gd349 2.545 . S
O398 C416 1.258 . S
O399 Gd348 2.362 1_455 S
O399 Gd349 2.606 . S
O399 C415 1.284 . S
O400 Gd348 2.324 . S
O400 C423 1.254 . S
O401 Gd349 2.429 1_655 S
O401 C423 1.268 . S
O402 Gd349 2.545 . S
O402 C415 1.250 . S
O403 Gd349 2.412 . S
O403 C416 1.252 . S
C404 O393 1.284 1_655 S
C404 O396 1.250 . S
C405 H374 0.929 . S
C405 C390 1.437 . S
C405 C406 1.317 . S
C406 H377 0.930 . S
C406 C382 1.431 . S
C406 C405 1.317 . S
C407 Gd348 2.828 . S
C407 O392 1.258 . S
C407 O397 1.252 . S
C407 C408 1.497 . S
C408 C407 1.497 . S
C408 C409 1.395 . S
C408 C410 1.380 . S
C409 C408 1.395 . S
C409 C412 1.398 . S
C409 H424 0.930 . S
C410 C408 1.380 . S
C410 C411 1.391 . S
C410 H425 0.930 . S
C411 C410 1.391 . S
C411 C413 1.387 . S
C412 C409 1.398 . S
C412 C413 1.380 . S
C412 H426 0.930 1_556 S
C413 C411 1.387 . S
C413 C412 1.380 . S
C413 H427 0.930 . S
C414 O394 1.254 . S
C414 O395 1.268 . S
C415 O399 1.284 . S
C415 O402 1.250 . S
C416 Gd349 2.828 . S
C416 O398 1.258 . S
C416 O403 1.252 . S
C416 C417 1.497 . S
C417 C416 1.497 . S
C417 C418 1.395 . S
C417 C419 1.380 . S
C418 C417 1.395 . S
C418 C421 1.398 . S
C418 H428 0.930 . S
C419 C417 1.380 . S
C419 C420 1.391 . S
C419 H429 0.930 . S
C420 C419 1.391 . S
C420 C422 1.387 . S
C421 C418 1.398 . S
C421 C422 1.380 . S
C421 H430 0.930 . S
C422 C420 1.387 . S
C422 C421 1.380 . S
C422 H431 0.930 . S
C423 O400 1.254 . S
C423 O401 1.268 . S
H424 C409 0.930 . S
H425 C410 0.930 . S
H426 C412 0.930 1_554 S
H427 C413 0.930 . S
H428 C418 0.930 . S
H429 C419 0.930 . S
H430 C421 0.930 . S
H431 C422 0.930 . S
C432 C433 1.349 . S
C432 C434 1.327 . S
C432 H457 0.950 . S
C433 C432 1.349 . S
C433 C449 1.349 . S
C434 C432 1.327 . S
C434 C453 1.429 . S
C434 H458 0.950 . S
C435 C452 1.574 . S
C435 C454 1.368 . S
C435 H459 0.949 . S
H436 C440 0.949 . S
C437 C438 1.349 . S
C437 C439 1.327 . S
C437 H460 0.950 . S
C438 C437 1.349 . S
C438 C450 1.349 . S
C439 C437 1.327 . S
C439 C455 1.429 . S
C439 H461 0.950 . S
C440 H436 0.949 . S
C440 C448 1.574 . S
C440 C456 1.368 . S
H441 C449 0.950 . S
H442 C447 0.950 . S
H443 C448 0.949 . S
H444 C450 0.950 1_565 S
H445 C451 0.950 . S
H446 C452 0.949 . S
C447 H442 0.950 . S
C447 C449 1.327 . S
C447 C453 1.429 . S
C448 C440 1.574 . S
C448 H443 0.949 . S
C448 C454 1.368 . S
C449 C433 1.349 . S
C449 H441 0.950 . S
C449 C447 1.327 . S
C450 C438 1.349 . S
C450 H444 0.950 1_545 S
C450 C451 1.327 . S
C451 H445 0.950 . S
C451 C450 1.327 . S
C451 C455 1.429 . S
C452 C435 1.574 . S
C452 H446 0.949 . S
C452 C456 1.368 . S
C453 C434 1.429 . S
C453 C447 1.429 . S
C453 C454 1.523 . S
C454 C435 1.368 . S
C454 C448 1.368 . S
C454 C453 1.523 . S
C455 C439 1.429 . S
C455 C451 1.429 . S
C455 C456 1.523 . S
C456 C440 1.368 . S
C456 C452 1.368 . S
C456 C455 1.523 . S
H457 C432 0.950 . S
H458 C434 0.950 . S
H459 C435 0.949 . S
H460 C437 0.950 . S
H461 C439 0.950 . S
C462 C463 1.349 . S
C462 C464 1.327 . S
C462 H487 0.950 . S
C463 C462 1.349 . S
C463 C479 1.349 . S
C464 C462 1.327 . S
C464 C483 1.429 . S
C464 H488 0.950 . S
C465 C482 1.574 . S
C465 C484 1.368 . S
C465 H489 0.949 . S
H466 C470 0.949 . S
C467 C468 1.349 . S
C467 C469 1.327 . S
C467 H490 0.950 . S
C468 C467 1.349 . S
C468 C480 1.349 . S
C469 C467 1.327 . S
C469 C485 1.429 . S
C469 H491 0.950 . S
C470 H466 0.949 . S
C470 C478 1.574 . S
C470 C486 1.368 . S
H471 C479 0.950 . S
H472 C477 0.950 . S
H473 C478 0.949 . S
H474 C480 0.950 . S
H475 C481 0.950 . S
H476 C482 0.949 . S
C477 H472 0.950 . S
C477 C479 1.327 . S
C477 C483 1.429 . S
C478 C470 1.574 . S
C478 H473 0.949 . S
C478 C484 1.368 . S
C479 C463 1.349 . S
C479 H471 0.950 . S
C479 C477 1.327 . S
C480 C468 1.349 . S
C480 H474 0.950 . S
C480 C481 1.327 . S
C481 H475 0.950 . S
C481 C480 1.327 . S
C481 C485 1.429 . S
C482 C465 1.574 . S
C482 H476 0.949 . S
C482 C486 1.368 . S
C483 C464 1.429 . S
C483 C477 1.429 . S
C483 C484 1.523 . S
C484 C465 1.368 . S
C484 C478 1.368 . S
C484 C483 1.523 . S
C485 C469 1.429 . S
C485 C481 1.429 . S
C485 C486 1.523 . S
C486 C470 1.368 . S
C486 C482 1.368 . S
C486 C485 1.523 . S
H487 C462 0.950 . S
H488 C464 0.950 . S
H489 C465 0.949 . S
H490 C467 0.950 . S
H491 C469 0.950 . S
C492 C493 1.349 . S
C492 C494 1.327 . S
C492 H517 0.950 . S
C493 C492 1.349 . S
C493 C509 1.349 . S
C494 C492 1.327 . S
C494 C513 1.429 . S
C494 H518 0.950 . S
C495 C512 1.574 . S
C495 C514 1.368 . S
C495 H519 0.949 . S
H496 C500 0.949 . S
C497 C498 1.349 . S
C497 C499 1.327 . S
C497 H520 0.950 . S
C498 C497 1.349 . S
C498 C510 1.349 . S
C499 C497 1.327 . S
C499 C515 1.429 . S
C499 H521 0.950 . S
C500 H496 0.949 . S
C500 C508 1.574 . S
C500 C516 1.368 . S
H501 C509 0.950 . S
H502 C507 0.950 . S
H503 C508 0.949 . S
H504 C510 0.950 . S
H505 C511 0.950 . S
H506 C512 0.949 . S
C507 H502 0.950 . S
C507 C509 1.327 . S
C507 C513 1.429 . S
C508 C500 1.574 . S
C508 H503 0.949 . S
C508 C514 1.368 . S
C509 C493 1.349 . S
C509 H501 0.950 . S
C509 C507 1.327 . S
C510 C498 1.349 . S
C510 H504 0.950 . S
C510 C511 1.327 . S
C511 H505 0.950 . S
C511 C510 1.327 . S
C511 C515 1.429 . S
C512 C495 1.574 . S
C512 H506 0.949 . S
C512 C516 1.368 . S
C513 C494 1.429 . S
C513 C507 1.429 . S
C513 C514 1.523 . S
C514 C495 1.368 . S
C514 C508 1.368 . S
C514 C513 1.523 . S
C515 C499 1.429 . S
C515 C511 1.429 . S
C515 C516 1.523 . S
C516 C500 1.368 . S
C516 C512 1.368 . S
C516 C515 1.523 . S
H517 C492 0.950 . S
H518 C494 0.950 . S
H519 C495 0.949 . S
H520 C497 0.950 . S
H521 C499 0.950 . S
C522 C523 1.349 . S
C522 C524 1.327 . S
C522 H547 0.950 . S
C523 C522 1.349 . S
C523 C539 1.349 . S
C524 C522 1.327 . S
C524 C543 1.429 . S
C524 H548 0.950 . S
C525 C542 1.574 . S
C525 C544 1.368 . S
C525 H549 0.949 . S
H526 C530 0.949 . S
C527 C528 1.349 . S
C527 C529 1.327 . S
C527 H550 0.950 . S
C528 C527 1.349 . S
C528 C540 1.349 . S
C529 C527 1.327 . S
C529 C545 1.429 . S
C529 H551 0.950 . S
C530 H526 0.949 . S
C530 C538 1.574 . S
C530 C546 1.368 . S
H531 C539 0.950 . S
H532 C537 0.950 . S
H533 C538 0.949 . S
H534 C540 0.950 . S
H535 C541 0.950 . S
H536 C542 0.949 . S
C537 H532 0.950 . S
C537 C539 1.327 . S
C537 C543 1.429 . S
C538 C530 1.574 . S
C538 H533 0.949 . S
C538 C544 1.368 . S
C539 C523 1.349 . S
C539 H531 0.950 . S
C539 C537 1.327 . S
C540 C528 1.349 . S
C540 H534 0.950 . S
C540 C541 1.327 . S
C541 H535 0.950 . S
C541 C540 1.327 . S
C541 C545 1.429 . S
C542 C525 1.574 . S
C542 H536 0.949 . S
C542 C546 1.368 . S
C543 C524 1.429 . S
C543 C537 1.429 . S
C543 C544 1.523 . S
C544 C525 1.368 . S
C544 C538 1.368 . S
C544 C543 1.523 . S
C545 C529 1.429 . S
C545 C541 1.429 . S
C545 C546 1.523 . S
C546 C530 1.368 . S
C546 C542 1.368 . S
C546 C545 1.523 . S
H547 C522 0.950 . S
H548 C524 0.950 . S
H549 C525 0.949 . S
H550 C527 0.950 . S
H551 C529 0.950 . S
C552 C553 1.349 . S
C552 C554 1.327 . S
C552 H577 0.950 . S
C553 C552 1.349 . S
C553 C569 1.349 . S
C554 C552 1.327 . S
C554 C573 1.429 . S
C554 H578 0.950 1_554 S
C555 C572 1.574 1_554 S
C555 C574 1.368 1_554 S
C555 H579 0.949 . S
H556 C560 0.949 . S
C557 C558 1.349 1_545 S
C557 C559 1.327 . S
C557 H580 0.950 . S
C558 C557 1.349 1_565 S
C558 C570 1.349 . S
C559 C557 1.327 . S
C559 C575 1.429 1_545 S
C559 H581 0.950 . S
C560 H556 0.949 . S
C560 C568 1.574 . S
C560 C576 1.368 . S
H561 C569 0.950 . S
H562 C567 0.950 . S
H563 C568 0.949 . S
H564 C570 0.950 . S
H565 C571 0.950 . S
H566 C572 0.949 1_545 S
C567 H562 0.950 . S
C567 C569 1.327 . S
C567 C573 1.429 . S
C568 C560 1.574 . S
C568 H563 0.949 . S
C568 C574 1.368 . S
C569 C553 1.349 . S
C569 H561 0.950 . S
C569 C567 1.327 . S
C570 C558 1.349 . S
C570 H564 0.950 . S
C570 C571 1.327 . S
C571 H565 0.950 . S
C571 C570 1.327 . S
C571 C575 1.429 . S
C572 C555 1.574 1_556 S
C572 H566 0.949 1_565 S
C572 C576 1.368 . S
C573 C554 1.429 . S
C573 C567 1.429 . S
C573 C574 1.523 1_554 S
C574 C555 1.368 1_556 S
C574 C568 1.368 . S
C574 C573 1.523 1_556 S
C575 C559 1.429 1_565 S
C575 C571 1.429 . S
C575 C576 1.523 . S
C576 C560 1.368 . S
C576 C572 1.368 . S
C576 C575 1.523 . S
H577 C552 0.950 . S
H578 C554 0.950 1_556 S
H579 C555 0.949 . S
H580 C557 0.950 . S
H581 C559 0.950 . S
C582 C583 1.349 . S
C582 C584 1.327 . S
C582 H607 0.950 . S
C583 C582 1.349 . S
C583 C599 1.349 . S
C584 C582 1.327 . S
C584 C603 1.429 . S
C584 H608 0.950 . S
C585 C602 1.574 . S
C585 C604 1.368 . S
C585 H609 0.949 . S
H586 C590 0.949 . S
C587 C588 1.349 . S
C587 C589 1.327 . S
C587 H610 0.950 . S
C588 C587 1.349 . S
C588 C600 1.349 . S
C589 C587 1.327 . S
C589 C605 1.429 . S
C589 H611 0.950 . S
C590 H586 0.949 . S
C590 C598 1.574 . S
C590 C606 1.368 . S
H591 C599 0.950 . S
H592 C597 0.950 1_556 S
H593 C598 0.949 1_554 S
H594 C600 0.950 . S
H595 C601 0.950 . S
H596 C602 0.949 . S
C597 H592 0.950 1_554 S
C597 C599 1.327 . S
C597 C603 1.429 . S
C598 C590 1.574 . S
C598 H593 0.949 1_556 S
C598 C604 1.368 . S
C599 C583 1.349 . S
C599 H591 0.950 . S
C599 C597 1.327 . S
C600 C588 1.349 . S
C600 H594 0.950 . S
C600 C601 1.327 . S
C601 H595 0.950 . S
C601 C600 1.327 . S
C601 C605 1.429 . S
C602 C585 1.574 . S
C602 H596 0.949 . S
C602 C606 1.368 . S
C603 C584 1.429 . S
C603 C597 1.429 . S
C603 C604 1.523 1_554 S
C604 C585 1.368 . S
C604 C598 1.368 . S
C604 C603 1.523 1_556 S
C605 C589 1.429 . S
C605 C601 1.429 . S
C605 C606 1.523 . S
C606 C590 1.368 . S
C606 C602 1.368 . S
C606 C605 1.523 . S
H607 C582 0.950 . S
H608 C584 0.950 . S
H609 C585 0.949 . S
H610 C587 0.950 . S
H611 C589 0.950 . S
C612 C613 1.349 . S
C612 C614 1.327 . S
C612 H637 0.950 . S
C613 C612 1.349 . S
C613 C629 1.349 . S
C614 C612 1.327 . S
C614 C633 1.429 . S
C614 H638 0.950 1_554 S
C615 C632 1.576 . S
C615 C634 1.370 . S
C615 H639 0.945 1_556 S
H616 C620 0.949 . S
C617 C618 1.349 . S
C617 C619 1.327 . S
C617 H640 0.950 . S
C618 C617 1.349 . S
C618 C630 1.349 . S
C619 C617 1.327 . S
C619 C635 1.429 . S
C619 H641 0.950 . S
C620 H616 0.949 . S
C620 C628 1.574 . S
C620 C636 1.368 . S
H621 C629 0.950 . S
H622 C627 0.950 . S
H623 C628 0.949 . S
H624 C630 0.950 . S
H625 C631 0.950 . S
H626 C632 0.949 . S
C627 H622 0.950 . S
C627 C629 1.327 . S
C627 C633 1.429 . S
C628 C620 1.574 . S
C628 H623 0.949 . S
C628 C634 1.368 . S
C629 C613 1.349 . S
C629 H621 0.950 . S
C629 C627 1.327 . S
C630 C618 1.349 . S
C630 H624 0.950 . S
C630 C631 1.327 . S
C631 H625 0.950 . S
C631 C630 1.327 . S
C631 C635 1.429 . S
C632 C615 1.576 . S
C632 H626 0.949 . S
C632 C636 1.368 . S
C633 C614 1.429 . S
C633 C627 1.429 . S
C633 C634 1.523 1_554 S
C634 C615 1.370 . S
C634 C628 1.368 . S
C634 C633 1.523 1_556 S
C635 C619 1.429 . S
C635 C631 1.429 . S
C635 C636 1.523 . S
C636 C620 1.368 . S
C636 C632 1.368 . S
C636 C635 1.523 . S
H637 C612 0.950 . S
H638 C614 0.950 1_556 S
H639 C615 0.945 1_554 S
H640 C617 0.950 . S
H641 C619 0.950 . S
C642 C643 1.349 . S
C642 C644 1.327 . S
C642 H667 0.950 . S
C643 C642 1.349 . S
C643 C659 1.349 . S
C644 C642 1.327 . S
C644 C663 1.429 . S
C644 H668 0.950 . S
C645 C662 1.574 . S
C645 C664 1.368 . S
C645 H669 0.949 . S
H646 C650 0.949 . S
C647 C648 1.349 1_455 S
C647 C649 1.327 . S
C647 H670 0.950 . S
C648 C647 1.349 1_655 S
C648 C660 1.349 . S
C649 C647 1.327 . S
C649 C665 1.429 1_455 S
C649 H671 0.950 . S
C650 H646 0.949 . S
C650 C658 1.574 . S
C650 C666 1.368 . S
H651 C659 0.950 . S
H652 C657 0.950 . S
H653 C658 0.949 . S
H654 C660 0.950 . S
H655 C661 0.950 . S
H656 C662 0.949 1_455 S
C657 H652 0.950 . S
C657 C659 1.327 . S
C657 C663 1.429 . S
C658 C650 1.574 . S
C658 H653 0.949 . S
C658 C664 1.368 . S
C659 C643 1.349 . S
C659 H651 0.950 . S
C659 C657 1.327 . S
C660 C648 1.349 . S
C660 H654 0.950 . S
C660 C661 1.327 . S
C661 H655 0.950 . S
C661 C660 1.327 . S
C661 C665 1.429 . S
C662 C645 1.574 . S
C662 H656 0.949 1_655 S
C662 C666 1.368 . S
C663 C644 1.429 . S
C663 C657 1.429 . S
C663 C664 1.523 1_554 S
C664 C645 1.368 . S
C664 C658 1.368 . S
C664 C663 1.523 1_556 S
C665 C649 1.429 1_655 S
C665 C661 1.429 . S
C665 C666 1.523 . S
C666 C650 1.368 . S
C666 C662 1.368 . S
C666 C665 1.523 . S
H667 C642 0.950 . S
H668 C644 0.950 . S
H669 C645 0.949 . S
H670 C647 0.950 . S
H671 C649 0.950 . S
C672 C673 1.349 . S
C672 C674 1.327 . S
C672 H697 0.950 1_554 S
C673 C672 1.349 . S
C673 C689 1.349 . S
C674 C672 1.327 . S
C674 C693 1.429 . S
C674 H698 0.950 . S
C675 C692 1.574 . S
C675 C694 1.368 . S
C675 H699 0.949 . S
H676 C680 0.949 . S
C677 C678 1.349 . S
C677 C679 1.327 . S
C677 H700 0.950 . S
C678 C677 1.349 . S
C678 C690 1.349 . S
C679 C677 1.327 . S
C679 C695 1.429 . S
C679 H701 0.950 . S
C680 H676 0.949 . S
C680 C688 1.574 . S
C680 C696 1.368 . S
H681 C689 0.950 . S
H682 C687 0.950 . S
H683 C688 0.949 . S
H684 C690 0.950 . S
H685 C691 0.950 . S
H686 C692 0.949 . S
C687 H682 0.950 . S
C687 C689 1.327 . S
C687 C693 1.429 . S
C688 C680 1.574 . S
C688 H683 0.949 . S
C688 C694 1.368 . S
C689 C673 1.349 . S
C689 H681 0.950 . S
C689 C687 1.327 . S
C690 C678 1.349 . S
C690 H684 0.950 . S
C690 C691 1.327 . S
C691 H685 0.950 . S
C691 C690 1.327 . S
C691 C695 1.429 . S
C692 C675 1.574 . S
C692 H686 0.949 . S
C692 C696 1.368 . S
C693 C674 1.429 . S
C693 C687 1.429 . S
C693 C694 1.523 . S
C694 C675 1.368 . S
C694 C688 1.368 . S
C694 C693 1.523 . S
C695 C679 1.429 . S
C695 C691 1.429 . S
C695 C696 1.523 . S
C696 C680 1.368 . S
C696 C692 1.368 . S
C696 C695 1.523 . S
H697 C672 0.950 1_556 S
H698 C674 0.950 . S
H699 C675 0.949 . S
H700 C677 0.950 . S
H701 C679 0.950 . S
C702 C703 1.349 . S
C702 C704 1.327 . S
C702 H727 0.950 . S
C703 C702 1.349 . S
C703 C719 1.349 . S
C704 C702 1.327 . S
C704 C723 1.429 . S
C704 H728 0.950 . S
C705 C722 1.574 . S
C705 C724 1.368 . S
C705 H729 0.949 . S
H706 C710 0.949 . S
C707 C708 1.349 . S
C707 C709 1.327 . S
C707 H730 0.950 . S
C708 C707 1.349 . S
C708 C720 1.349 . S
C709 C707 1.327 . S
C709 C725 1.429 . S
C709 H731 0.950 . S
C710 H706 0.949 . S
C710 C718 1.574 . S
C710 C726 1.368 . S
H711 C719 0.950 1_556 S
H712 C717 0.950 . S
H713 C718 0.949 . S
H714 C720 0.950 . S
H715 C721 0.950 . S
H716 C722 0.949 . S
C717 H712 0.950 . S
C717 C719 1.327 . S
C717 C723 1.429 . S
C718 C710 1.574 . S
C718 H713 0.949 . S
C718 C724 1.368 . S
C719 C703 1.349 . S
C719 H711 0.950 1_554 S
C719 C717 1.327 . S
C720 C708 1.349 . S
C720 H714 0.950 . S
C720 C721 1.327 . S
C721 H715 0.950 . S
C721 C720 1.327 . S
C721 C725 1.429 . S
C722 C705 1.574 . S
C722 H716 0.949 . S
C722 C726 1.368 . S
C723 C704 1.429 . S
C723 C717 1.429 . S
C723 C724 1.523 . S
C724 C705 1.368 . S
C724 C718 1.368 . S
C724 C723 1.523 . S
C725 C709 1.429 . S
C725 C721 1.429 . S
C725 C726 1.523 . S
C726 C710 1.368 . S
C726 C722 1.368 . S
C726 C725 1.523 . S
H727 C702 0.950 . S
H728 C704 0.950 . S
H729 C705 0.949 . S
H730 C707 0.950 . S
H731 C709 0.950 . S
C732 C733 1.349 . S
C732 C734 1.327 . S
C732 H757 0.950 . S
C733 C732 1.349 . S
C733 C749 1.349 . S
C734 C732 1.327 . S
C734 C753 1.429 . S
C734 H758 0.950 . S
C735 C752 1.574 . S
C735 C754 1.368 . S
C735 H759 0.949 . S
H736 C740 0.949 . S
C737 C738 1.349 . S
C737 C739 1.327 . S
C737 H760 0.950 . S
C738 C737 1.349 . S
C738 C750 1.349 . S
C739 C737 1.327 . S
C739 C755 1.429 . S
C739 H761 0.950 . S
C740 H736 0.949 . S
C740 C748 1.574 . S
C740 C756 1.368 . S
H741 C749 0.950 . S
H742 C747 0.950 . S
H743 C748 0.949 . S
H744 C750 0.950 . S
H745 C751 0.950 . S
H746 C752 0.949 . S
C747 H742 0.950 . S
C747 C749 1.327 . S
C747 C753 1.429 . S
C748 C740 1.574 . S
C748 H743 0.949 . S
C748 C754 1.368 . S
C749 C733 1.349 . S
C749 H741 0.950 . S
C749 C747 1.327 . S
C750 C738 1.349 . S
C750 H744 0.950 . S
C750 C751 1.327 . S
C751 H745 0.950 . S
C751 C750 1.327 . S
C751 C755 1.429 . S
C752 C735 1.574 . S
C752 H746 0.949 . S
C752 C756 1.368 . S
C753 C734 1.429 . S
C753 C747 1.429 . S
C753 C754 1.523 . S
C754 C735 1.368 . S
C754 C748 1.368 . S
C754 C753 1.523 . S
C755 C739 1.429 . S
C755 C751 1.429 . S
C755 C756 1.523 . S
C756 C740 1.368 . S
C756 C752 1.368 . S
C756 C755 1.523 . S
H757 C732 0.950 . S
H758 C734 0.950 . S
H759 C735 0.949 . S
H760 C737 0.950 . S
H761 C739 0.950 . S
C762 C763 1.349 . S
C762 C764 1.327 . S
C762 H787 0.950 . S
C763 C762 1.349 . S
C763 C779 1.349 . S
C764 C762 1.327 . S
C764 C783 1.429 . S
C764 H788 0.950 . S
C765 C782 1.574 . S
C765 C784 1.368 . S
C765 H789 0.949 . S
H766 C770 0.949 . S
C767 C768 1.349 . S
C767 C769 1.327 . S
C767 H790 0.950 . S
C768 C767 1.349 . S
C768 C780 1.349 . S
C769 C767 1.327 . S
C769 C785 1.429 . S
C769 H791 0.950 . S
C770 H766 0.949 . S
C770 C778 1.574 . S
C770 C786 1.368 . S
H771 C779 0.950 . S
H772 C777 0.950 . S
H773 C778 0.949 . S
H774 C780 0.950 . S
H775 C781 0.950 . S
H776 C782 0.949 . S
C777 H772 0.950 . S
C777 C779 1.327 . S
C777 C783 1.429 . S
C778 C770 1.574 . S
C778 H773 0.949 . S
C778 C784 1.368 . S
C779 C763 1.349 . S
C779 H771 0.950 . S
C779 C777 1.327 . S
C780 C768 1.349 . S
C780 H774 0.950 . S
C780 C781 1.327 . S
C781 H775 0.950 . S
C781 C780 1.327 . S
C781 C785 1.429 . S
C782 C765 1.574 . S
C782 H776 0.949 . S
C782 C786 1.368 . S
C783 C764 1.429 . S
C783 C777 1.429 . S
C783 C784 1.523 . S
C784 C765 1.368 . S
C784 C778 1.368 . S
C784 C783 1.523 . S
C785 C769 1.429 . S
C785 C781 1.429 . S
C785 C786 1.523 . S
C786 C770 1.368 . S
C786 C782 1.368 . S
C786 C785 1.523 . S
H787 C762 0.950 . S
H788 C764 0.950 . S
H789 C765 0.949 . S
H790 C767 0.950 . S
H791 C769 0.950 . S
C792 C793 1.349 . S
C792 C794 1.327 . S
C792 H817 0.950 . S
C793 C792 1.349 . S
C793 C809 1.349 . S
C794 C792 1.327 . S
C794 C813 1.429 . S
C794 H818 0.950 . S
C795 C812 1.574 1_554 S
C795 C814 1.368 . S
C795 H819 0.949 . S
H796 C800 0.949 1_456 S
C797 C798 1.349 1_655 S
C797 C799 1.327 . S
C797 H820 0.950 . S
C798 C797 1.349 1_455 S
C798 C810 1.349 . S
C799 C797 1.327 . S
C799 C815 1.429 . S
C799 H821 0.950 . S
C800 H796 0.949 1_654 S
C800 C808 1.574 . S
C800 C816 1.368 1_554 S
H801 C809 0.950 . S
H802 C807 0.950 . S
H803 C808 0.949 . S
H804 C810 0.950 . S
H805 C811 0.950 . S
H806 C812 0.949 . S
C807 H802 0.950 . S
C807 C809 1.327 . S
C807 C813 1.429 . S
C808 C800 1.574 . S
C808 H803 0.949 . S
C808 C814 1.368 . S
C809 C793 1.349 . S
C809 H801 0.950 . S
C809 C807 1.327 . S
C810 C798 1.349 . S
C810 H804 0.950 . S
C810 C811 1.327 . S
C811 H805 0.950 . S
C811 C810 1.327 . S
C811 C815 1.429 1_455 S
C812 C795 1.574 1_556 S
C812 H806 0.949 . S
C812 C816 1.368 . S
C813 C794 1.429 . S
C813 C807 1.429 . S
C813 C814 1.523 . S
C814 C795 1.368 . S
C814 C808 1.368 . S
C814 C813 1.523 . S
C815 C799 1.429 . S
C815 C811 1.429 1_655 S
C815 C816 1.523 . S
C816 C800 1.368 1_556 S
C816 C812 1.368 . S
C816 C815 1.523 . S
H817 C792 0.950 . S
H818 C794 0.950 . S
H819 C795 0.949 . S
H820 C797 0.950 . S
H821 C799 0.950 . S
C822 C823 1.349 . S
C822 C824 1.327 . S
C822 H847 0.950 . S
C823 C822 1.349 . S
C823 C839 1.349 . S
C824 C822 1.327 . S
C824 C843 1.429 . S
C824 H848 0.950 . S
C825 C842 1.574 1_565 S
C825 C844 1.368 . S
C825 H849 0.949 1_565 S
H826 C830 0.949 . S
C827 C828 1.349 . S
C827 C829 1.327 . S
C827 H850 0.950 . S
C828 C827 1.349 . S
C828 C840 1.349 1_545 S
C829 C827 1.327 . S
C829 C845 1.429 1_545 S
C829 H851 0.950 . S
C830 H826 0.949 . S
C830 C838 1.574 1_556 S
C830 C846 1.368 . S
H831 C839 0.950 . S
H832 C837 0.950 . S
H833 C838 0.949 . S
H834 C840 0.950 . S
H835 C841 0.950 . S
H836 C842 0.949 1_556 S
C837 H832 0.950 . S
C837 C839 1.327 . S
C837 C843 1.429 . S
C838 C830 1.574 1_554 S
C838 H833 0.949 . S
C838 C844 1.368 . S
C839 C823 1.349 . S
C839 H831 0.950 . S
C839 C837 1.327 . S
C840 C828 1.349 1_565 S
C840 H834 0.950 . S
C840 C841 1.327 . S
C841 H835 0.950 . S
C841 C840 1.327 . S
C841 C845 1.429 . S
C842 C825 1.574 1_545 S
C842 H836 0.949 1_554 S
C842 C846 1.368 1_544 S
C843 C824 1.429 . S
C843 C837 1.429 . S
C843 C844 1.523 . S
C844 C825 1.368 . S
C844 C838 1.368 . S
C844 C843 1.523 . S
C845 C829 1.429 1_565 S
C845 C841 1.429 . S
C845 C846 1.523 . S
C846 C830 1.368 . S
C846 C842 1.368 1_566 S
C846 C845 1.523 . S
H847 C822 0.950 . S
H848 C824 0.950 . S
H849 C825 0.949 1_545 S
H850 C827 0.950 . S
H851 C829 0.950 . S
C852 C853 1.349 . S
C852 C854 1.327 . S
C852 H877 0.950 . S
C853 C852 1.349 . S
C853 C869 1.349 . S
C854 C852 1.327 . S
C854 C873 1.429 . S
C854 H878 0.950 . S
C855 C872 1.574 . S
C855 C874 1.368 1_556 S
C855 H879 0.949 . S
H856 C860 0.949 . S
C857 C858 1.349 . S
C857 C859 1.327 . S
C857 H880 0.950 . S
C858 C857 1.349 . S
C858 C870 1.349 . S
C859 C857 1.327 . S
C859 C875 1.429 . S
C859 H881 0.950 . S
C860 H856 0.949 . S
C860 C868 1.574 . S
C860 C876 1.368 1_554 S
H861 C869 0.950 . S
H862 C867 0.950 . S
H863 C868 0.949 . S
H864 C870 0.950 . S
H865 C871 0.950 1_554 S
H866 C872 0.949 . S
C867 H862 0.950 . S
C867 C869 1.327 . S
C867 C873 1.429 . S
C868 C860 1.574 . S
C868 H863 0.949 . S
C868 C874 1.368 . S
C869 C853 1.349 . S
C869 H861 0.950 . S
C869 C867 1.327 . S
C870 C858 1.349 . S
C870 H864 0.950 . S
C870 C871 1.327 . S
C871 H865 0.950 1_556 S
C871 C870 1.327 . S
C871 C875 1.429 . S
C872 C855 1.574 . S
C872 H866 0.949 . S
C872 C876 1.368 . S
C873 C854 1.429 . S
C873 C867 1.429 . S
C873 C874 1.523 . S
C874 C855 1.368 1_554 S
C874 C868 1.368 . S
C874 C873 1.523 . S
C875 C859 1.429 . S
C875 C871 1.429 . S
C875 C876 1.523 . S
C876 C860 1.368 1_556 S
C876 C872 1.368 . S
C876 C875 1.523 . S
H877 C852 0.950 . S
H878 C854 0.950 . S
H879 C855 0.949 . S
H880 C857 0.950 . S
H881 C859 0.950 . S
C882 C883 1.349 . S
C882 C884 1.327 . S
C882 H907 0.950 . S
C883 C882 1.349 . S
C883 C899 1.349 . S
C884 C882 1.327 . S
C884 C903 1.429 . S
C884 H908 0.950 . S
C885 C902 1.568 1_554 S
C885 C904 1.368 . S
C885 H909 0.949 . S
H886 C890 0.949 . S
C887 C888 1.349 . S
C887 C889 1.327 . S
C887 H910 0.950 . S
C888 C887 1.349 . S
C888 C900 1.349 . S
C889 C887 1.327 . S
C889 C905 1.429 . S
C889 H911 0.950 . S
C890 H886 0.949 . S
C890 C898 1.574 1_556 S
C890 C906 1.368 . S
H891 C899 0.950 . S
H892 C897 0.950 . S
H893 C898 0.949 . S
H894 C900 0.950 . S
H895 C901 0.950 . S
H896 C902 0.952 . S
C897 H892 0.950 . S
C897 C899 1.327 . S
C897 C903 1.429 . S
C898 C890 1.574 1_554 S
C898 H893 0.949 . S
C898 C904 1.368 . S
C899 C883 1.349 . S
C899 H891 0.950 . S
C899 C897 1.327 . S
C900 C888 1.349 . S
C900 H894 0.950 . S
C900 C901 1.327 . S
C901 H895 0.950 . S
C901 C900 1.327 . S
C901 C905 1.429 . S
C902 C885 1.568 1_556 S
C902 H896 0.952 . S
C902 C906 1.372 . S
C903 C884 1.429 . S
C903 C897 1.429 . S
C903 C904 1.523 . S
C904 C885 1.368 . S
C904 C898 1.368 . S
C904 C903 1.523 . S
C905 C889 1.429 . S
C905 C901 1.429 . S
C905 C906 1.523 . S
C906 C890 1.368 . S
C906 C902 1.372 . S
C906 C905 1.523 . S
H907 C882 0.950 . S
H908 C884 0.950 . S
H909 C885 0.949 . S
H910 C887 0.950 . S
H911 C889 0.950 . S
C912 C913 1.349 . S
C912 C914 1.327 . S
C912 H937 0.950 . S
C913 C912 1.349 . S
C913 C929 1.349 . S
C914 C912 1.327 . S
C914 C933 1.429 . S
C914 H938 0.950 . S
C915 C932 1.574 . S
C915 C934 1.368 . S
C915 H939 0.949 . S
H916 C920 0.949 . S
C917 C918 1.349 . S
C917 C919 1.327 . S
C917 H940 0.950 . S
C918 C917 1.349 . S
C918 C930 1.349 . S
C919 C917 1.327 . S
C919 C935 1.429 . S
C919 H941 0.950 . S
C920 H916 0.949 . S
C920 C928 1.574 . S
C920 C936 1.368 . S
H921 C929 0.950 . S
H922 C927 0.950 . S
H923 C928 0.949 . S
H924 C930 0.950 1_655 S
H925 C931 0.950 . S
H926 C932 0.949 . S
C927 H922 0.950 . S
C927 C929 1.327 . S
C927 C933 1.429 . S
C928 C920 1.574 . S
C928 H923 0.949 . S
C928 C934 1.368 . S
C929 C913 1.349 . S
C929 H921 0.950 . S
C929 C927 1.327 . S
C930 C918 1.349 . S
C930 H924 0.950 1_455 S
C930 C931 1.327 . S
C931 H925 0.950 . S
C931 C930 1.327 . S
C931 C935 1.429 . S
C932 C915 1.574 . S
C932 H926 0.949 . S
C932 C936 1.368 . S
C933 C914 1.429 . S
C933 C927 1.429 . S
C933 C934 1.523 . S
C934 C915 1.368 . S
C934 C928 1.368 . S
C934 C933 1.523 . S
C935 C919 1.429 . S
C935 C931 1.429 . S
C935 C936 1.523 . S
C936 C920 1.368 . S
C936 C932 1.368 . S
C936 C935 1.523 . S
H937 C912 0.950 . S
H938 C914 0.950 . S
H939 C915 0.949 . S
H940 C917 0.950 . S
H941 C919 0.950 . S
C942 C943 1.349 . S
C942 C944 1.327 . S
C942 H967 0.950 . S
C943 C942 1.349 . S
C943 C959 1.349 . S
C944 C942 1.327 . S
C944 C963 1.429 . S
C944 H968 0.950 . S
C945 C962 1.574 . S
C945 C964 1.368 . S
C945 H969 0.949 . S
H946 C950 0.949 . S
C947 C948 1.349 . S
C947 C949 1.327 . S
C947 H970 0.950 1_545 S
C948 C947 1.349 . S
C948 C960 1.349 . S
C949 C947 1.327 . S
C949 C965 1.429 . S
C949 H971 0.950 . S
C950 H946 0.949 . S
C950 C958 1.574 . S
C950 C966 1.368 . S
H951 C959 0.950 . S
H952 C957 0.950 . S
H953 C958 0.949 . S
H954 C960 0.950 . S
H955 C961 0.950 . S
H956 C962 0.949 . S
C957 H952 0.950 . S
C957 C959 1.327 . S
C957 C963 1.429 . S
C958 C950 1.574 . S
C958 H953 0.949 . S
C958 C964 1.368 . S
C959 C943 1.349 . S
C959 H951 0.950 . S
C959 C957 1.327 . S
C960 C948 1.349 . S
C960 H954 0.950 . S
C960 C961 1.327 . S
C961 H955 0.950 . S
C961 C960 1.327 . S
C961 C965 1.429 . S
C962 C945 1.574 . S
C962 H956 0.949 . S
C962 C966 1.368 . S
C963 C944 1.429 . S
C963 C957 1.429 . S
C963 C964 1.523 . S
C964 C945 1.368 . S
C964 C958 1.368 . S
C964 C963 1.523 . S
C965 C949 1.429 . S
C965 C961 1.429 . S
C965 C966 1.523 . S
C966 C950 1.368 . S
C966 C962 1.368 . S
C966 C965 1.523 . S
H967 C942 0.950 . S
H968 C944 0.950 . S
H969 C945 0.949 . S
H970 C947 0.950 1_565 S
H971 C949 0.950 . S
C972 C973 1.349 . S
C972 C974 1.327 . S
C972 H997 0.950 . S
C973 C972 1.349 . S
C973 C989 1.349 . S
C974 C972 1.327 . S
C974 C993 1.429 . S
C974 H998 0.950 . S
C975 C992 1.574 . S
C975 C994 1.368 . S
C975 H999 0.949 . S
H976 C980 0.949 . S
C977 C978 1.349 . S
C977 C979 1.327 . S
C977 H1000 0.950 . S
C978 C977 1.349 . S
C978 C990 1.349 . S
C979 C977 1.327 . S
C979 C995 1.429 . S
C979 H1001 0.950 . S
C980 H976 0.949 . S
C980 C988 1.574 . S
C980 C996 1.368 . S
H981 C989 0.950 . S
H982 C987 0.950 . S
H983 C988 0.949 . S
H984 C990 0.950 . S
H985 C991 0.950 . S
H986 C992 0.949 . S
C987 H982 0.950 . S
C987 C989 1.327 . S
C987 C993 1.429 . S
C988 C980 1.574 . S
C988 H983 0.949 . S
C988 C994 1.368 . S
C989 C973 1.349 . S
C989 H981 0.950 . S
C989 C987 1.327 . S
C990 C978 1.349 . S
C990 H984 0.950 . S
C990 C991 1.327 . S
C991 H985 0.950 . S
C991 C990 1.327 . S
C991 C995 1.429 . S
C992 C975 1.574 . S
C992 H986 0.949 . S
C992 C996 1.368 . S
C993 C974 1.429 . S
C993 C987 1.429 . S
C993 C994 1.523 . S
C994 C975 1.368 . S
C994 C988 1.368 . S
C994 C993 1.523 . S
C995 C979 1.429 . S
C995 C991 1.429 . S
C995 C996 1.523 . S
C996 C980 1.368 . S
C996 C992 1.368 . S
C996 C995 1.523 . S
H997 C972 0.950 . S
H998 C974 0.950 . S
H999 C975 0.949 . S
H1000 C977 0.950 . S
H1001 C979 0.950 . S
C1002 C1003 1.349 . S
C1002 C1004 1.327 . S
C1002 H1027 0.950 . S
C1003 C1002 1.349 . S
C1003 C1019 1.349 . S
C1004 C1002 1.327 . S
C1004 C1023 1.429 . S
C1004 H1028 0.950 . S
C1005 C1022 1.574 . S
C1005 C1024 1.368 . S
C1005 H1029 0.949 . S
H1006 C1010 0.949 . S
C1007 C1008 1.349 . S
C1007 C1009 1.327 . S
C1007 H1030 0.950 . S
C1008 C1007 1.349 . S
C1008 C1020 1.349 . S
C1009 C1007 1.327 . S
C1009 C1025 1.429 . S
C1009 H1031 0.950 . S
C1010 H1006 0.949 . S
C1010 C1018 1.574 . S
C1010 C1026 1.368 . S
H1011 C1019 0.950 . S
H1012 C1017 0.950 . S
H1013 C1018 0.949 . S
H1014 C1020 0.950 . S
H1015 C1021 0.950 . S
H1016 C1022 0.949 . S
C1017 H1012 0.950 . S
C1017 C1019 1.327 . S
C1017 C1023 1.429 . S
C1018 C1010 1.574 . S
C1018 H1013 0.949 . S
C1018 C1024 1.368 . S
C1019 C1003 1.349 . S
C1019 H1011 0.950 . S
C1019 C1017 1.327 . S
C1020 C1008 1.349 . S
C1020 H1014 0.950 . S
C1020 C1021 1.327 . S
C1021 H1015 0.950 . S
C1021 C1020 1.327 . S
C1021 C1025 1.429 . S
C1022 C1005 1.574 . S
C1022 H1016 0.949 . S
C1022 C1026 1.368 . S
C1023 C1004 1.429 . S
C1023 C1017 1.429 . S
C1023 C1024 1.523 . S
C1024 C1005 1.368 . S
C1024 C1018 1.368 . S
C1024 C1023 1.523 . S
C1025 C1009 1.429 . S
C1025 C1021 1.429 . S
C1025 C1026 1.523 . S
C1026 C1010 1.368 . S
C1026 C1022 1.368 . S
C1026 C1025 1.523 . S
H1027 C1002 0.950 . S
H1028 C1004 0.950 . S
H1029 C1005 0.949 . S
H1030 C1007 0.950 . S
H1031 C1009 0.950 . S
C1032 C1033 1.349 . S
C1032 C1034 1.327 . S
C1032 H1057 0.950 . S
C1033 C1032 1.349 . S
C1033 C1049 1.349 . S
C1034 C1032 1.327 . S
C1034 C1053 1.429 . S
C1034 H1058 0.950 . S
C1035 C1052 1.574 . S
C1035 C1054 1.368 . S
C1035 H1059 0.949 . S
H1036 C1040 0.949 . S
C1037 C1038 1.349 . S
C1037 C1039 1.327 . S
C1037 H1060 0.950 . S
C1038 C1037 1.349 . S
C1038 C1050 1.349 . S
C1039 C1037 1.327 . S
C1039 C1055 1.429 . S
C1039 H1061 0.950 . S
C1040 H1036 0.949 . S
C1040 C1048 1.574 . S
C1040 C1056 1.368 . S
H1041 C1049 0.950 . S
H1042 C1047 0.950 . S
H1043 C1048 0.949 . S
H1044 C1050 0.950 1_455 S
H1045 C1051 0.950 1_455 S
H1046 C1052 0.949 . S
C1047 H1042 0.950 . S
C1047 C1049 1.327 . S
C1047 C1053 1.429 . S
C1048 C1040 1.574 . S
C1048 H1043 0.949 . S
C1048 C1054 1.368 . S
C1049 C1033 1.349 . S
C1049 H1041 0.950 . S
C1049 C1047 1.327 . S
C1050 C1038 1.349 . S
C1050 H1044 0.950 1_655 S
C1050 C1051 1.327 . S
C1051 H1045 0.950 1_655 S
C1051 C1050 1.327 . S
C1051 C1055 1.429 . S
C1052 C1035 1.574 . S
C1052 H1046 0.949 . S
C1052 C1056 1.368 . S
C1053 C1034 1.429 . S
C1053 C1047 1.429 . S
C1053 C1054 1.523 . S
C1054 C1035 1.368 . S
C1054 C1048 1.368 . S
C1054 C1053 1.523 . S
C1055 C1039 1.429 . S
C1055 C1051 1.429 . S
C1055 C1056 1.523 . S
C1056 C1040 1.368 . S
C1056 C1052 1.368 . S
C1056 C1055 1.523 . S
H1057 C1032 0.950 . S
H1058 C1034 0.950 . S
H1059 C1035 0.949 . S
H1060 C1037 0.950 . S
H1061 C1039 0.950 . S
C1062 C1063 1.349 . S
C1062 C1064 1.327 . S
C1062 H1087 0.950 . S
C1063 C1062 1.349 . S
C1063 C1079 1.349 . S
C1064 C1062 1.327 . S
C1064 C1083 1.429 . S
C1064 H1088 0.950 . S
C1065 C1082 1.574 . S
C1065 C1084 1.368 . S
C1065 H1089 0.949 . S
H1066 C1070 0.949 1_545 S
C1067 C1068 1.349 . S
C1067 C1069 1.327 . S
C1067 H1090 0.950 . S
C1068 C1067 1.349 . S
C1068 C1080 1.349 1_565 S
C1069 C1067 1.327 . S
C1069 C1085 1.429 . S
C1069 H1091 0.950 . S
C1070 H1066 0.949 1_565 S
C1070 C1078 1.574 . S
C1070 C1086 1.368 . S
H1071 C1079 0.950 . S
H1072 C1077 0.950 . S
H1073 C1078 0.923 1_545 S
H1074 C1080 0.950 . S
H1075 C1081 0.950 . S
H1076 C1082 0.949 . S
C1077 H1072 0.950 . S
C1077 C1079 1.327 . S
C1077 C1083 1.429 . S
C1078 C1070 1.574 . S
C1078 H1073 0.923 1_565 S
C1078 C1084 1.368 . S
C1079 C1063 1.349 . S
C1079 H1071 0.950 . S
C1079 C1077 1.327 . S
C1080 C1068 1.349 1_545 S
C1080 H1074 0.950 . S
C1080 C1081 1.327 . S
C1081 H1075 0.950 . S
C1081 C1080 1.327 . S
C1081 C1085 1.429 1_545 S
C1082 C1065 1.574 . S
C1082 H1076 0.949 . S
C1082 C1086 1.368 . S
C1083 C1064 1.429 . S
C1083 C1077 1.429 . S
C1083 C1084 1.523 . S
C1084 C1065 1.368 . S
C1084 C1078 1.368 . S
C1084 C1083 1.523 . S
C1085 C1069 1.429 . S
C1085 C1081 1.429 1_565 S
C1085 C1086 1.523 . S
C1086 C1070 1.368 . S
C1086 C1082 1.368 . S
C1086 C1085 1.523 . S
H1087 C1062 0.950 . S
H1088 C1064 0.950 . S
H1089 C1065 0.949 . S
H1090 C1067 0.950 . S
H1091 C1069 0.950 . S
C1092 C1093 1.349 . S
C1092 C1094 1.327 . S
C1092 H1117 0.950 . S
C1093 C1092 1.349 . S
C1093 C1109 1.349 . S
C1094 C1092 1.327 . S
C1094 C1113 1.429 . S
C1094 H1118 0.950 . S
C1095 C1112 1.574 . S
C1095 C1114 1.368 . S
C1095 H1119 0.949 . S
H1096 C1100 0.949 . S
C1097 C1098 1.349 . S
C1097 C1099 1.327 . S
C1097 H1120 0.950 . S
C1098 C1097 1.349 . S
C1098 C1110 1.349 . S
C1099 C1097 1.327 . S
C1099 C1115 1.429 . S
C1099 H1121 0.950 . S
C1100 H1096 0.949 . S
C1100 C1108 1.574 . S
C1100 C1116 1.368 . S
H1101 C1109 0.950 . S
H1102 C1107 0.950 . S
H1103 C1108 0.949 . S
H1104 C1110 0.950 . S
H1105 C1111 0.950 . S
H1106 C1112 0.949 . S
C1107 H1102 0.950 . S
C1107 C1109 1.327 . S
C1107 C1113 1.429 . S
C1108 C1100 1.574 . S
C1108 H1103 0.949 . S
C1108 C1114 1.368 . S
C1109 C1093 1.349 . S
C1109 H1101 0.950 . S
C1109 C1107 1.327 . S
C1110 C1098 1.349 . S
C1110 H1104 0.950 . S
C1110 C1111 1.327 . S
C1111 H1105 0.950 . S
C1111 C1110 1.327 . S
C1111 C1115 1.429 . S
C1112 C1095 1.574 . S
C1112 H1106 0.949 . S
C1112 C1116 1.368 . S
C1113 C1094 1.429 . S
C1113 C1107 1.429 . S
C1113 C1114 1.523 . S
C1114 C1095 1.368 . S
C1114 C1108 1.368 . S
C1114 C1113 1.523 . S
C1115 C1099 1.429 . S
C1115 C1111 1.429 . S
C1115 C1116 1.523 . S
C1116 C1100 1.368 . S
C1116 C1112 1.368 . S
C1116 C1115 1.523 . S
H1117 C1092 0.950 . S
H1118 C1094 0.950 . S
H1119 C1095 0.949 . S
H1120 C1097 0.950 . S
H1121 C1099 0.950 . S
C1122 C1123 1.349 . S
C1122 C1124 1.327 . S
C1122 H1147 0.950 . S
C1123 C1122 1.349 . S
C1123 C1139 1.349 . S
C1124 C1122 1.327 . S
C1124 C1143 1.429 . S
C1124 H1148 0.950 . S
C1125 C1142 1.574 . S
C1125 C1144 1.368 . S
C1125 H1149 0.949 . S
H1126 C1130 0.949 . S
C1127 C1128 1.349 . S
C1127 C1129 1.327 . S
C1127 H1150 0.950 . S
C1128 C1127 1.349 . S
C1128 C1140 1.349 . S
C1129 C1127 1.327 . S
C1129 C1145 1.429 . S
C1129 H1151 0.950 . S
C1130 H1126 0.949 . S
C1130 C1138 1.574 . S
C1130 C1146 1.368 . S
H1131 C1139 0.950 . S
H1132 C1137 0.950 . S
H1133 C1138 0.949 . S
H1134 C1140 0.950 . S
H1135 C1141 0.950 . S
H1136 C1142 0.949 . S
C1137 H1132 0.950 . S
C1137 C1139 1.327 . S
C1137 C1143 1.429 . S
C1138 C1130 1.574 . S
C1138 H1133 0.949 . S
C1138 C1144 1.368 . S
C1139 C1123 1.349 . S
C1139 H1131 0.950 . S
C1139 C1137 1.327 . S
C1140 C1128 1.349 . S
C1140 H1134 0.950 . S
C1140 C1141 1.327 . S
C1141 H1135 0.950 . S
C1141 C1140 1.327 . S
C1141 C1145 1.429 . S
C1142 C1125 1.574 . S
C1142 H1136 0.949 . S
C1142 C1146 1.368 . S
C1143 C1124 1.429 . S
C1143 C1137 1.429 . S
C1143 C1144 1.523 . S
C1144 C1125 1.368 . S
C1144 C1138 1.368 . S
C1144 C1143 1.523 . S
C1145 C1129 1.429 . S
C1145 C1141 1.429 . S
C1145 C1146 1.523 . S
C1146 C1130 1.368 . S
C1146 C1142 1.368 . S
C1146 C1145 1.523 . S
H1147 C1122 0.950 . S
H1148 C1124 0.950 . S
H1149 C1125 0.949 . S
H1150 C1127 0.950 . S
H1151 C1129 0.950 . S
C433 C76 1.793 . S
C438 C171 1.861 . S
C468 C255 1.890 . S
C463 C88 1.821 . S
C498 C331 1.902 . S
C493 C52 1.933 . S
C528 C415 1.877 . S
C523 C64 1.907 . S
C558 C162 1.862 1_565 S
C553 C28 1.805 . S
C583 C40 1.833 . S
C588 C246 1.891 . S
C613 C4 1.946 . S
C618 C320 1.902 . S
C643 C16 1.920 . S
C648 C404 1.877 . S
C678 C159 0.509 1_455 S
C673 C69 0.483 . S
C708 C243 0.511 . S
C703 C81 0.453 . S
C738 C336 0.502 . S
C733 C93 0.433 . S
C763 C57 0.460 . S
C768 C420 0.514 . S
C793 C21 0.498 . S
C798 C168 0.527 . S
C828 C252 0.512 . S
C823 C33 0.470 . S
C858 C327 0.502 . S
C853 C45 0.453 . S
C883 C9 0.478 . S
C888 C411 0.514 . S
C913 C66 1.965 . S
C918 C152 1.998 . S
C943 C78 1.929 . S
C948 C236 1.962 . S
C978 C330 1.952 . S
C973 C90 1.827 . S
C1008 C414 1.985 . S
C1003 C54 1.859 . S
C1033 C18 1.947 . S
C1038 C163 1.998 . S
C1068 C247 1.953 1_565 S
C1063 C30 1.913 . S
C1098 C339 1.952 . S
C1093 C42 1.810 . S
C1123 C6 1.840 . S
C1128 C423 1.984 . S
