# Generated by pormake.
# Topology cml, (3,6)-cn, num edge types: 1
# Building blocks:
#     Node 0, Type 0, BuildingBlock: BETDAH_clean_linker_0, # of connection points: 3
#     Node 1, Type 0, BuildingBlock: BETDAH_clean_linker_0, # of connection points: 3
#     Node 2, Type 0, BuildingBlock: BETDAH_clean_linker_0, # of connection points: 3
#     Node 3, Type 0, BuildingBlock: BETDAH_clean_linker_0, # of connection points: 3
#     Node 4, Type 0, BuildingBlock: BETDAH_clean_linker_0, # of connection points: 3
#     Node 5, Type 0, BuildingBlock: BETDAH_clean_linker_0, # of connection points: 3
#     Node 6, Type 0, BuildingBlock: BETDAH_clean_linker_0, # of connection points: 3
#     Node 7, Type 0, BuildingBlock: BETDAH_clean_linker_0, # of connection points: 3
#     Node 8, Type 1, BuildingBlock: OJICUG_clean_sbu_0, # of connection points: 6
#     Node 9, Type 1, BuildingBlock: OJICUG_clean_sbu_0, # of connection points: 6
#     Node 10, Type 1, BuildingBlock: OJICUG_clean_sbu_0, # of connection points: 6
#     Node 11, Type 1, BuildingBlock: OJICUG_clean_sbu_0, # of connection points: 6
#     Edge 12, Type (0, 1), BuildingBlock: EZIPEK_clean_linker_0, # of connection points: 2
#     Edge 13, Type (0, 1), BuildingBlock: EZIPEK_clean_linker_0, # of connection points: 2
#     Edge 14, Type (0, 1), BuildingBlock: EZIPEK_clean_linker_0, # of connection points: 2
#     Edge 15, Type (0, 1), BuildingBlock: EZIPEK_clean_linker_0, # of connection points: 2
#     Edge 16, Type (0, 1), BuildingBlock: EZIPEK_clean_linker_0, # of connection points: 2
#     Edge 17, Type (0, 1), BuildingBlock: EZIPEK_clean_linker_0, # of connection points: 2
#     Edge 18, Type (0, 1), BuildingBlock: EZIPEK_clean_linker_0, # of connection points: 2
#     Edge 19, Type (0, 1), BuildingBlock: EZIPEK_clean_linker_0, # of connection points: 2
#     Edge 20, Type (0, 1), BuildingBlock: EZIPEK_clean_linker_0, # of connection points: 2
#     Edge 21, Type (0, 1), BuildingBlock: EZIPEK_clean_linker_0, # of connection points: 2
#     Edge 22, Type (0, 1), BuildingBlock: EZIPEK_clean_linker_0, # of connection points: 2
#     Edge 23, Type (0, 1), BuildingBlock: EZIPEK_clean_linker_0, # of connection points: 2
#     Edge 24, Type (0, 1), BuildingBlock: EZIPEK_clean_linker_0, # of connection points: 2
#     Edge 25, Type (0, 1), BuildingBlock: EZIPEK_clean_linker_0, # of connection points: 2
#     Edge 26, Type (0, 1), BuildingBlock: EZIPEK_clean_linker_0, # of connection points: 2
#     Edge 27, Type (0, 1), BuildingBlock: EZIPEK_clean_linker_0, # of connection points: 2
#     Edge 28, Type (0, 1), BuildingBlock: EZIPEK_clean_linker_0, # of connection points: 2
#     Edge 29, Type (0, 1), BuildingBlock: EZIPEK_clean_linker_0, # of connection points: 2
#     Edge 30, Type (0, 1), BuildingBlock: EZIPEK_clean_linker_0, # of connection points: 2
#     Edge 31, Type (0, 1), BuildingBlock: EZIPEK_clean_linker_0, # of connection points: 2
#     Edge 32, Type (0, 1), BuildingBlock: EZIPEK_clean_linker_0, # of connection points: 2
#     Edge 33, Type (0, 1), BuildingBlock: EZIPEK_clean_linker_0, # of connection points: 2
#     Edge 34, Type (0, 1), BuildingBlock: EZIPEK_clean_linker_0, # of connection points: 2
#     Edge 35, Type (0, 1), BuildingBlock: EZIPEK_clean_linker_0, # of connection points: 2
# Relax obj value: 0.007
# Max RMSD: 0.047
# Mean RMSD: 0.041
data_MOF--net-cml--node1-OJICUG_clean_sbu_0--node2-BETDAH_clean_linker_0--edge1-EZIPEK_clean_linker_0
_symmetry_space_group_name_H-M    P1
_symmetry_Int_Tables_number       1
_symmetry_cell_setting            triclinic
loop_
_symmetry_equiv_pos_as_xyz
'x, y, z'
_cell_length_a     30.013161
_cell_length_b     29.205091
_cell_length_c     25.731593
_cell_angle_alpha  89.28507
_cell_angle_beta   90.989826
_cell_angle_gamma 91.073945
loop_
_atom_site_label
_atom_site_type_symbol
_atom_site_fract_x
_atom_site_fract_y
_atom_site_fract_z
_atom_type_partial_charge
H0 H 0.38118 0.4188 0.02366 0.0
H1 H 0.2846 0.41536 0.89909 0.0
H2 H 0.27241 0.32034 0.02779 0.0
C3 C 0.35061 0.40463 0.00682 0.0
C4 C 0.32814 0.36836 0.03202 0.0
C5 C 0.33488 0.42164 0.95914 0.0
C6 C 0.29626 0.40272 0.93664 0.0
C7 C 0.27342 0.36644 0.96086 0.0
C8 C 0.28917 0.34911 0.00911 0.0
N9 N 0.23656 0.34725 0.93318 0.0
C10 C 0.20483 0.31651 0.95207 0.0
H11 H 0.6351 0.58229 0.52783 0.0
H12 H 0.72465 0.59903 0.4007 0.0
H13 H 0.73536 0.68991 0.53096 0.0
C14 C 0.66393 0.59926 0.51086 0.0
C15 C 0.68412 0.63697 0.53584 0.0
C16 C 0.6787 0.58531 0.46241 0.0
C17 C 0.71424 0.60875 0.43911 0.0
C18 C 0.73552 0.64572 0.46387 0.0
C19 C 0.72063 0.65991 0.51269 0.0
N20 N 0.76822 0.67046 0.43541 0.0
C21 C 0.80468 0.69424 0.45621 0.0
H22 H 0.64126 0.43761 0.03603 0.0
H23 H 0.75556 0.45831 0.93945 0.0
H24 H 0.76153 0.36391 0.0691 0.0
C25 C 0.67548 0.43004 0.02688 0.0
C26 C 0.69892 0.39831 0.05753 0.0
C27 C 0.69553 0.45146 0.98393 0.0
C28 C 0.73978 0.44186 0.97255 0.0
C29 C 0.76357 0.41037 0.00295 0.0
C30 C 0.74307 0.38812 0.04531 0.0
N31 N 0.80853 0.4027 0.991 0.0
C32 C 0.82452 0.3592 0.98297 0.0
H33 H 0.37564 0.56197 0.52808 0.0
H34 H 0.25343 0.62834 0.56411 0.0
H35 H 0.25792 0.53727 0.43414 0.0
C36 C 0.34062 0.56781 0.51982 0.0
C37 C 0.31957 0.54625 0.47738 0.0
C38 C 0.31694 0.59738 0.55116 0.0
C39 C 0.27184 0.60547 0.53994 0.0
C40 C 0.2505 0.58324 0.49795 0.0
C41 C 0.27434 0.55363 0.46707 0.0
N42 N 0.20515 0.59048 0.48558 0.0
C43 C 0.18738 0.63389 0.48503 0.0
H44 H 0.86615 0.92794 0.05366 0.0
H45 H 0.7373 0.90849 0.98073 0.0
H46 H 0.76799 0.841 0.12668 0.0
C47 C 0.833 0.91246 0.05371 0.0
C48 C 0.82062 0.88324 0.09455 0.0
C49 C 0.803 0.92193 0.01293 0.0
C50 C 0.76039 0.9013 0.0125 0.0
C51 C 0.7477 0.87197 0.05377 0.0
C52 C 0.77771 0.8636 0.09494 0.0
N53 N 0.70505 0.85053 0.05514 0.0
C54 C 0.68164 0.83729 0.0107 0.0
H55 H 0.14709 0.06337 0.54662 0.0
H56 H 0.26305 0.11482 0.47146 0.0
H57 H 0.22912 0.1669 0.62021 0.0
C58 C 0.17745 0.08351 0.54996 0.0
C59 C 0.18822 0.10846 0.59529 0.0
C60 C 0.20479 0.08454 0.50646 0.0
C61 C 0.24202 0.11405 0.50526 0.0
C62 C 0.25034 0.14387 0.54693 0.0
C63 C 0.22312 0.14145 0.59076 0.0
N64 N 0.28543 0.17716 0.54643 0.0
C65 C 0.31388 0.18541 0.50518 0.0
H66 H 0.13259 0.90893 0.05588 0.0
H67 H 0.22593 0.92942 0.93274 0.0
H68 H 0.26209 0.84814 0.06714 0.0
C69 C 0.16483 0.90252 0.03924 0.0
C70 C 0.1956 0.87563 0.06673 0.0
C71 C 0.17523 0.92147 0.99066 0.0
C72 C 0.21721 0.91398 0.96981 0.0
C73 C 0.24858 0.88779 0.99713 0.0
C74 C 0.23764 0.86783 0.04546 0.0
N75 N 0.29235 0.88659 0.97794 0.0
C76 C 0.31354 0.84637 0.96608 0.0
H77 H 0.88214 0.08379 0.54429 0.0
H78 H 0.75273 0.14375 0.55572 0.0
H79 H 0.78341 0.06089 0.42424 0.0
C80 C 0.84905 0.08968 0.52821 0.0
C81 C 0.83659 0.07027 0.48065 0.0
C82 C 0.81909 0.11613 0.55554 0.0
C83 C 0.77625 0.12373 0.53455 0.0
C84 C 0.76335 0.10316 0.4873 0.0
C85 C 0.79355 0.07669 0.46058 0.0
N86 N 0.71936 0.106 0.46742 0.0
C87 C 0.69809 0.14729 0.46018 0.0
Sc88 Sc 0.02468 0.80576 0.32385 0.0
Sc89 Sc 0.03515 0.92472 0.30508 0.0
Sc90 Sc 0.03555 0.87772 0.43184 0.0
O91 O 0.03202 0.86942 0.35355 0.0
C92 C 0.96165 0.79749 0.42074 0.0
C93 C 0.96192 0.864 0.24709 0.0
C94 C 0.97232 0.95777 0.39634 0.0
C95 C 0.09391 0.85113 0.24629 0.0
C96 C 0.0924 0.79009 0.42025 0.0
C97 C 0.10414 0.95609 0.3916 0.0
O98 O 0.96936 0.7897 0.37325 0.0
O99 O 0.97804 0.90263 0.2604 0.0
O100 O 0.98342 0.9266 0.4286 0.0
O101 O 0.07983 0.81638 0.27187 0.0
O102 O 0.08751 0.82869 0.4414 0.0
O103 O 0.09284 0.95354 0.344 0.0
O104 O 0.07046 0.77688 0.38028 0.0
O105 O 0.07964 0.89142 0.25294 0.0
O106 O 0.08554 0.9321 0.42705 0.0
O107 O 0.9767 0.82617 0.26448 0.0
O108 O 0.98545 0.82495 0.44799 0.0
O109 O 0.99002 0.96336 0.35198 0.0
Sc110 Sc 0.9899 0.18907 0.81568 0.0
Sc111 Sc 0.97639 0.06969 0.8084 0.0
Sc112 Sc 0.98194 0.12201 0.9299 0.0
O113 O 0.98246 0.12712 0.85131 0.0
C114 C 0.05546 0.2012 0.91219 0.0
C115 C 0.0512 0.12467 0.74798 0.0
C116 C 0.04001 0.03774 0.90225 0.0
C117 C 0.92011 0.14163 0.74004 0.0
C118 C 0.92483 0.2097 0.91046 0.0
C119 C 0.90885 0.04546 0.89563 0.0
O120 O 0.04612 0.20763 0.86434 0.0
O121 O 0.03491 0.0876 0.76635 0.0
O122 O 0.03347 0.07228 0.93038 0.0
O123 O 0.93405 0.17722 0.76358 0.0
O124 O 0.93107 0.17233 0.93519 0.0
O125 O 0.91742 0.04685 0.84754 0.0
O126 O 0.94501 0.2209 0.86887 0.0
O127 O 0.93406 0.10168 0.75053 0.0
O128 O 0.93086 0.06849 0.92942 0.0
O129 O 0.03628 0.16399 0.7587 0.0
O130 O 0.03323 0.1742 0.94144 0.0
O131 O 0.01875 0.03 0.86 0.0
Sc132 Sc 0.50991 0.29052 0.28569 0.0
Sc133 Sc 0.50503 0.41034 0.27295 0.0
Sc134 Sc 0.50903 0.35928 0.39704 0.0
O135 O 0.50783 0.35337 0.31852 0.0
C136 C 0.44557 0.27087 0.37905 0.0
C137 C 0.44198 0.34297 0.2087 0.0
C138 C 0.43868 0.43352 0.36525 0.0
C139 C 0.57521 0.34857 0.214 0.0
C140 C 0.57697 0.28037 0.38374 0.0
C141 C 0.56888 0.44637 0.36297 0.0
O142 O 0.45546 0.2646 0.33185 0.0
O143 O 0.45175 0.38276 0.22524 0.0
O144 O 0.45228 0.40219 0.39586 0.0
O145 O 0.56518 0.31112 0.23718 0.0
O146 O 0.56634 0.31709 0.40583 0.0
O147 O 0.55865 0.44401 0.31502 0.0
O148 O 0.55793 0.26564 0.34247 0.0
O149 O 0.55468 0.38568 0.22101 0.0
O150 O 0.55258 0.41912 0.39691 0.0
O151 O 0.46152 0.30706 0.22495 0.0
O152 O 0.46458 0.30094 0.40758 0.0
O153 O 0.45532 0.44166 0.32074 0.0
Sc154 Sc 0.50221 0.71368 0.78198 0.0
Sc155 Sc 0.51133 0.59416 0.77449 0.0
Sc156 Sc 0.50764 0.64609 0.89613 0.0
O157 O 0.50731 0.65144 0.81756 0.0
C158 C 0.56708 0.73685 0.87575 0.0
C159 C 0.57205 0.66213 0.70998 0.0
C160 C 0.57813 0.57215 0.8702 0.0
C161 C 0.43956 0.65301 0.71006 0.0
C162 C 0.43681 0.72296 0.87888 0.0
C163 C 0.44775 0.5588 0.8627 0.0
O164 O 0.55594 0.7426 0.82826 0.0
O165 O 0.56478 0.62248 0.72923 0.0
O166 O 0.56563 0.60463 0.89839 0.0
O167 O 0.44707 0.69054 0.73342 0.0
O168 O 0.44959 0.68706 0.9026 0.0
O169 O 0.45745 0.56105 0.81494 0.0
O170 O 0.45406 0.73781 0.83688 0.0
O171 O 0.46235 0.6173 0.7183 0.0
O172 O 0.46501 0.58549 0.89657 0.0
O173 O 0.55043 0.69734 0.72287 0.0
O174 O 0.55068 0.70555 0.90485 0.0
O175 O 0.56026 0.56288 0.82621 0.0
C176 C 0.16922 0.24014 0.96507 0.0
C177 C 0.16514 0.2879 0.95715 0.0
C178 C 0.08561 0.27812 0.93676 0.0
C179 C 0.09147 0.23009 0.93547 0.0
N180 N 0.1366 0.16411 0.95281 0.0
N181 N 0.12023 0.35383 0.9388 0.0
C182 C 0.13246 0.21061 0.95196 0.0
C183 C 0.12331 0.30738 0.94495 0.0
N184 N 0.20834 0.22343 0.98476 0.0
N185 N 0.04377 0.29546 0.93094 0.0
H186 H 0.14658 0.3764 0.94763 0.0
H187 H 0.09238 0.37001 0.92316 0.0
H188 H 0.01547 0.27473 0.92518 0.0
H189 H 0.03634 0.32973 0.93621 0.0
H190 H 0.21314 0.1893 0.99507 0.0
H191 H 0.23539 0.24482 0.99452 0.0
H192 H 0.16653 0.14739 0.95921 0.0
H193 H 0.10976 0.14183 0.94562 0.0
C194 C 0.8492 0.76374 0.47887 0.0
C195 C 0.84751 0.71742 0.46348 0.0
C196 C 0.92633 0.72151 0.44089 0.0
C197 C 0.92545 0.76983 0.44557 0.0
N198 N 0.88895 0.83699 0.47656 0.0
N199 N 0.88414 0.65011 0.43403 0.0
C200 C 0.88804 0.79094 0.46793 0.0
C201 C 0.88628 0.69545 0.44672 0.0
N202 N 0.81343 0.78139 0.5034 0.0
N203 N 0.96585 0.70071 0.43182 0.0
H204 H 0.85602 0.62946 0.44077 0.0
H205 H 0.90936 0.63336 0.41504 0.0
H206 H 0.99588 0.71904 0.42863 0.0
H207 H 0.96983 0.66539 0.43248 0.0
H208 H 0.81282 0.81402 0.51906 0.0
H209 H 0.785 0.76164 0.51158 0.0
H210 H 0.8616 0.85545 0.48802 0.0
H211 H 0.91725 0.85751 0.47135 0.0
C212 C 0.83239 0.29562 0.92125 0.0
C213 C 0.84441 0.31638 0.9691 0.0
C214 C 0.90692 0.26469 0.9808 0.0
C215 C 0.8949 0.24351 0.93297 0.0
N216 N 0.8414 0.23144 0.86341 0.0
N217 N 0.88513 0.3145 0.05039 0.0
C218 C 0.85605 0.25673 0.90491 0.0
C219 C 0.87903 0.29872 0.00092 0.0
N220 N 0.79929 0.31396 0.8908 0.0
N221 N 0.94633 0.25441 0.00539 0.0
H222 H 0.86523 0.33968 0.06596 0.0
H223 H 0.90695 0.29983 0.07744 0.0
H224 H 0.96803 0.22988 0.99208 0.0
H225 H 0.95938 0.27271 0.03678 0.0
H226 H 0.7924 0.30396 0.85277 0.0
H227 H 0.77993 0.34108 0.90279 0.0
H228 H 0.8111 0.23658 0.84413 0.0
H229 H 0.85789 0.20254 0.85087 0.0
C230 C 0.12475 0.68578 0.49819 0.0
C231 C 0.16765 0.67834 0.47836 0.0
C232 C 0.165 0.74988 0.42808 0.0
C233 C 0.12132 0.75639 0.44621 0.0
N234 N 0.06352 0.738 0.50738 0.0
N235 N 0.23352 0.70708 0.43594 0.0
C236 C 0.10256 0.72679 0.48446 0.0
C237 C 0.18949 0.71182 0.44713 0.0
N238 N 0.10459 0.65273 0.52825 0.0
N239 N 0.18218 0.77914 0.39136 0.0
H240 H 0.25213 0.67945 0.44961 0.0
H241 H 0.25258 0.73205 0.41695 0.0
H242 H 0.16566 0.80843 0.37851 0.0
H243 H 0.21172 0.77357 0.37201 0.0
H244 H 0.07127 0.65327 0.53871 0.0
H245 H 0.12087 0.62325 0.54093 0.0
H246 H 0.04991 0.72006 0.53867 0.0
H247 H 0.04629 0.76769 0.49778 0.0
C248 C 0.67261 0.77894 0.9423 0.0
C249 C 0.65649 0.81812 0.96738 0.0
C250 C 0.58429 0.80956 0.92277 0.0
C251 C 0.59958 0.76897 0.8998 0.0
N252 N 0.66007 0.72106 0.87621 0.0
N253 N 0.60267 0.87779 0.97255 0.0
C254 C 0.64452 0.75569 0.90579 0.0
C255 C 0.61412 0.83585 0.95448 0.0
N256 N 0.71406 0.76313 0.95495 0.0
N257 N 0.54077 0.82171 0.91601 0.0
H258 H 0.62412 0.89758 0.99587 0.0
H259 H 0.5738 0.89466 0.96118 0.0
H260 H 0.51868 0.80434 0.8911 0.0
H261 H 0.52588 0.84759 0.93661 0.0
H262 H 0.72601 0.73187 0.94283 0.0
H263 H 0.7362 0.78072 0.97964 0.0
H264 H 0.69332 0.71169 0.87545 0.0
H265 H 0.64002 0.70403 0.84882 0.0
C266 C 0.33238 0.2259 0.42304 0.0
C267 C 0.34618 0.19892 0.4663 0.0
C268 C 0.42409 0.20816 0.44082 0.0
C269 C 0.41091 0.2413 0.40319 0.0
N270 N 0.35318 0.28206 0.35692 0.0
N271 N 0.40425 0.16296 0.51707 0.0
C272 C 0.36512 0.24974 0.39319 0.0
C273 C 0.39178 0.18912 0.47502 0.0
N274 N 0.288 0.22849 0.41065 0.0
N275 N 0.46741 0.19448 0.44298 0.0
H276 H 0.38124 0.14672 0.54141 0.0
H277 H 0.43719 0.15902 0.52937 0.0
H278 H 0.4914 0.20725 0.41745 0.0
H279 H 0.47876 0.16777 0.46653 0.0
H280 H 0.2757 0.2443 0.37704 0.0
H281 H 0.26349 0.2113 0.43205 0.0
H282 H 0.32087 0.29388 0.35193 0.0
H283 H 0.37624 0.29894 0.33325 0.0
C284 C 0.33121 0.79031 0.89821 0.0
C285 C 0.34032 0.80926 0.94781 0.0
C286 C 0.41182 0.77068 0.95294 0.0
C287 C 0.4025 0.75073 0.90367 0.0
N288 N 0.34997 0.73342 0.83447 0.0
N289 N 0.38309 0.80971 0.02769 0.0
C290 C 0.3611 0.75811 0.87775 0.0
C291 C 0.3786 0.79673 0.97696 0.0
N292 N 0.29467 0.80412 0.8701 0.0
N293 N 0.4533 0.76713 0.97537 0.0
H294 H 0.35926 0.82905 0.04617 0.0
H295 H 0.40808 0.79783 0.05271 0.0
H296 H 0.47901 0.74903 0.95896 0.0
H297 H 0.4636 0.78542 0.00805 0.0
H298 H 0.28894 0.79593 0.83128 0.0
H299 H 0.27104 0.82597 0.88499 0.0
H300 H 0.3186 0.73388 0.81661 0.0
H301 H 0.37101 0.7093 0.81883 0.0
C302 C 0.63874 0.20177 0.47814 0.0
C303 C 0.67315 0.18746 0.44565 0.0
C304 C 0.65118 0.24362 0.37913 0.0
C305 C 0.61241 0.25237 0.40782 0.0
N306 N 0.56736 0.23845 0.48369 0.0
N307 N 0.71347 0.19359 0.36562 0.0
C308 C 0.60596 0.23173 0.45756 0.0
C309 C 0.68012 0.20843 0.39644 0.0
N310 N 0.63753 0.18663 0.52861 0.0
N311 N 0.66067 0.26971 0.33608 0.0
H312 H 0.73662 0.16945 0.37819 0.0
H313 H 0.71696 0.20342 0.32685 0.0
H314 H 0.64038 0.29627 0.32301 0.0
H315 H 0.69042 0.26797 0.31605 0.0
H316 H 0.61583 0.19918 0.55593 0.0
H317 H 0.66114 0.16439 0.54442 0.0
H318 H 0.55843 0.21996 0.51688 0.0
H319 H 0.5424 0.26017 0.47033 0.0
C320 C 0.39191 0.44311 0.89306 0.0
C321 C 0.36099 0.45695 0.93054 0.0
C322 C 0.37918 0.53745 0.91192 0.0
C323 C 0.41478 0.52364 0.8804 0.0
N324 N 0.456 0.46264 0.84122 0.0
N325 N 0.32604 0.51645 0.97841 0.0
C326 C 0.42102 0.47632 0.87028 0.0
C327 C 0.35474 0.50393 0.94065 0.0
N328 N 0.39328 0.3981 0.87903 0.0
N329 N 0.36758 0.58251 0.91249 0.0
H330 H 0.30629 0.49288 0.99887 0.0
H331 H 0.32392 0.5498 0.99188 0.0
H332 H 0.38347 0.60762 0.8899 0.0
H333 H 0.33941 0.59427 0.93081 0.0
H334 H 0.41067 0.38664 0.8472 0.0
H335 H 0.37438 0.37223 0.89686 0.0
H336 H 0.46613 0.42882 0.83929 0.0
H337 H 0.47715 0.48493 0.82122 0.0
C338 C 0.66413 0.50294 0.43931 0.0
C339 C 0.65334 0.54975 0.43294 0.0
C340 C 0.5928 0.52959 0.37157 0.0
C341 C 0.60122 0.48232 0.38108 0.0
N342 N 0.65151 0.42431 0.41188 0.0
N343 N 0.60577 0.60837 0.39756 0.0
C344 C 0.63881 0.46908 0.4117 0.0
C345 C 0.61759 0.5633 0.39979 0.0
N346 N 0.69759 0.49093 0.47331 0.0
N347 N 0.56199 0.54265 0.33476 0.0
H348 H 0.62388 0.63445 0.41609 0.0
H349 H 0.57626 0.61987 0.38056 0.0
H350 H 0.54177 0.52005 0.3138 0.0
H351 H 0.55865 0.57621 0.32141 0.0
H352 H 0.70421 0.4574 0.48464 0.0
H353 H 0.71761 0.51498 0.4928 0.0
H354 H 0.68056 0.41246 0.42959 0.0
H355 H 0.63494 0.39921 0.38998 0.0
C356 C 0.63042 0.46361 0.92393 0.0
C357 C 0.66885 0.48194 0.9494 0.0
C358 C 0.65308 0.55736 0.9112 0.0
C359 C 0.61107 0.54036 0.89329 0.0
N360 N 0.55559 0.47932 0.89482 0.0
N361 N 0.7139 0.54812 0.97329 0.0
C362 C 0.59866 0.49388 0.90247 0.0
C363 C 0.67973 0.52935 0.94442 0.0
N364 N 0.62427 0.41729 0.92002 0.0
N365 N 0.66763 0.59995 0.89597 0.0
H366 H 0.7335 0.52904 0.99908 0.0
H367 H 0.72024 0.58326 0.9751 0.0
H368 H 0.64907 0.62076 0.87082 0.0
H369 H 0.69965 0.61262 0.90403 0.0
H370 H 0.59855 0.40249 0.89784 0.0
H371 H 0.64745 0.39387 0.93426 0.0
H372 H 0.54408 0.44675 0.9057 0.0
H373 H 0.53032 0.50148 0.88374 0.0
C374 C 0.38116 0.53918 0.41413 0.0
C375 C 0.34597 0.51803 0.44213 0.0
C376 C 0.36432 0.44412 0.40501 0.0
C377 C 0.40415 0.4639 0.38519 0.0
N378 N 0.45437 0.52951 0.37947 0.0
N379 N 0.30664 0.44904 0.46916 0.0
C380 C 0.41348 0.5114 0.39139 0.0
C381 C 0.33785 0.47012 0.43857 0.0
N382 N 0.38364 0.5858 0.4091 0.0
N383 N 0.35174 0.40065 0.39136 0.0
H384 H 0.28718 0.46669 0.49513 0.0
H385 H 0.30277 0.41359 0.47206 0.0
H386 H 0.37011 0.38126 0.36585 0.0
H387 H 0.32109 0.3858 0.40094 0.0
H388 H 0.40641 0.60264 0.38505 0.0
H389 H 0.36002 0.60731 0.42461 0.0
H390 H 0.46429 0.56288 0.38862 0.0
H391 H 0.48004 0.50995 0.36553 0.0
C392 C 0.84514 0.93605 0.93193 0.0
C393 C 0.81796 0.95352 0.97105 0.0
C394 C 0.83892 0.03181 0.94519 0.0
C395 C 0.87302 0.01404 0.9142 0.0
N396 N 0.90967 0.94851 0.87838 0.0
N397 N 0.78675 0.0175 0.0148 0.0
C398 C 0.87581 0.96597 0.90649 0.0
C399 C 0.81353 0.00136 0.977 0.0
N400 N 0.84211 0.8906 0.92009 0.0
N401 N 0.83077 0.0777 0.94369 0.0
H402 H 0.76633 0.996 0.03714 0.0
H403 H 0.78621 0.05172 0.02557 0.0
H404 H 0.84844 0.10053 0.91983 0.0
H405 H 0.804 0.09243 0.962 0.0
H406 H 0.85793 0.87631 0.88863 0.0
H407 H 0.82011 0.86803 0.93883 0.0
H408 H 0.9166 0.91374 0.87728 0.0
H409 H 0.9332 0.96861 0.85897 0.0
C410 C 0.20084 0.006 0.46896 0.0
C411 C 0.19263 0.05343 0.46301 0.0
C412 C 0.13388 0.03748 0.39835 0.0
C413 C 0.13948 0.98967 0.40755 0.0
N414 N 0.18679 0.92886 0.43751 0.0
N415 N 0.16251 0.11498 0.41161 0.0
C416 C 0.17598 0.9741 0.43823 0.0
C417 C 0.16313 0.0693 0.42368 0.0
N418 N 0.23082 0.99161 0.50594 0.0
N419 N 0.09877 0.05276 0.3688 0.0
H420 H 0.18323 0.13887 0.43037 0.0
H421 H 0.14489 0.12861 0.38002 0.0
H422 H 0.07689 0.03129 0.34838 0.0
H423 H 0.08947 0.08689 0.36673 0.0
H424 H 0.23453 0.95749 0.51708 0.0
H425 H 0.25107 0.01447 0.52694 0.0
H426 H 0.21508 0.91567 0.45575 0.0
H427 H 0.16949 0.90513 0.41438 0.0
C428 C 0.15155 0.99687 0.95142 0.0
C429 C 0.14197 0.95 0.96254 0.0
C430 C 0.0647 0.96017 0.93315 0.0
C431 C 0.07535 0.00603 0.91883 0.0
N432 N 0.13193 0.0629 0.89892 0.0
N433 N 0.09284 0.88433 0.95082 0.0
C434 C 0.11979 0.0228 0.92309 0.0
C435 C 0.09955 0.93073 0.94919 0.0
N436 N 0.18963 0.01751 0.97031 0.0
N437 N 0.02129 0.94529 0.9338 0.0
H438 H 0.11806 0.86159 0.96093 0.0
H439 H 0.06375 0.8683 0.93704 0.0
H440 H 0.9948 0.96627 0.9234 0.0
H441 H 0.01138 0.91357 0.94907 0.0
H442 H 0.19566 0.0527 0.96733 0.0
H443 H 0.21301 0.00053 0.99352 0.0
H444 H 0.16496 0.07434 0.89671 0.0
H445 H 0.1096 0.08217 0.87653 0.0
C446 C 0.86186 0.99437 0.44859 0.0
C447 C 0.86892 0.04231 0.45276 0.0
C448 C 0.94389 0.03553 0.41803 0.0
C449 C 0.93585 0.98796 0.41127 0.0
N450 N 0.88332 0.92453 0.40737 0.0
N451 N 0.91174 0.11008 0.42981 0.0
C452 C 0.89354 0.96818 0.42245 0.0
C453 C 0.90842 0.06343 0.43362 0.0
N454 N 0.8264 0.97329 0.47224 0.0
N455 N 0.98587 0.05363 0.41257 0.0
H456 H 0.88607 0.13153 0.44036 0.0
H457 H 0.93804 0.12721 0.41159 0.0
H458 H 0.01293 0.03394 0.40262 0.0
H459 H 0.99463 0.08712 0.42246 0.0
H460 H 0.82261 0.93781 0.47518 0.0
H461 H 0.80281 0.9909 0.49306 0.0
H462 H 0.85112 0.91058 0.40847 0.0
H463 H 0.90625 0.90355 0.38985 0.0
C464 C 0.38832 0.32369 0.07509 0.0
C465 C 0.3491 0.34927 0.08017 0.0
C466 C 0.36471 0.3567 0.17359 0.0
C467 C 0.40797 0.33923 0.16617 0.0
N468 N 0.46277 0.3099 0.10799 0.0
N469 N 0.29891 0.3904 0.13366 0.0
C470 C 0.42002 0.32277 0.11666 0.0
C471 C 0.33655 0.36521 0.12951 0.0
N472 N 0.39557 0.3012 0.02986 0.0
N473 N 0.35061 0.36476 0.2228 0.0
H474 H 0.27687 0.39567 0.10245 0.0
H475 H 0.29067 0.40779 0.16713 0.0
H476 H 0.37042 0.35836 0.25574 0.0
H477 H 0.31814 0.3737 0.23131 0.0
H478 H 0.42158 0.27856 0.02524 0.0
H479 H 0.37283 0.30173 0.9987 0.0
H480 H 0.47472 0.30275 0.07126 0.0
H481 H 0.48761 0.3103 0.13666 0.0
C482 C 0.62096 0.67763 0.57497 0.0
C483 C 0.66197 0.65507 0.58242 0.0
C484 C 0.64923 0.65147 0.67633 0.0
C485 C 0.6048 0.66595 0.66733 0.0
N486 N 0.54651 0.6878 0.60637 0.0
N487 N 0.71597 0.61993 0.63961 0.0
C488 C 0.59033 0.6786 0.61633 0.0
C489 C 0.67672 0.64241 0.63312 0.0
N490 N 0.61105 0.69737 0.52785 0.0
N491 N 0.66507 0.64678 0.72619 0.0
H492 H 0.7374 0.6143 0.60894 0.0
H493 H 0.72618 0.60493 0.67464 0.0
H494 H 0.64576 0.65373 0.75842 0.0
H495 H 0.69822 0.64013 0.73556 0.0
H496 H 0.58351 0.71799 0.52134 0.0
H497 H 0.63286 0.69691 0.49671 0.0
H498 H 0.53315 0.69192 0.56901 0.0
H499 H 0.52241 0.68709 0.63495 0.0
C500 C 0.6475 0.33825 0.09444 0.0
C501 C 0.67617 0.3767 0.10267 0.0
C502 C 0.64894 0.38335 0.19138 0.0
C503 C 0.61447 0.35107 0.17955 0.0
N504 N 0.58211 0.29472 0.12169 0.0
N505 N 0.70584 0.43573 0.15866 0.0
C506 C 0.61464 0.32683 0.13201 0.0
C507 C 0.67793 0.39873 0.15145 0.0
N508 N 0.65177 0.31299 0.05049 0.0
N509 N 0.6541 0.39869 0.24116 0.0
H510 H 0.72879 0.44671 0.13095 0.0
H511 H 0.70481 0.4569 0.19085 0.0
H512 H 0.63388 0.387 0.27136 0.0
H513 H 0.68076 0.41929 0.25367 0.0
H514 H 0.63478 0.28218 0.04382 0.0
H515 H 0.67533 0.32101 0.02229 0.0
H516 H 0.57653 0.28029 0.08533 0.0
H517 H 0.55943 0.28333 0.14934 0.0
C518 C 0.36681 0.65917 0.58758 0.0
C519 C 0.34019 0.61922 0.59599 0.0
C520 C 0.36787 0.61416 0.68583 0.0
C521 C 0.40049 0.64836 0.6743 0.0
N522 N 0.42985 0.70633 0.61606 0.0
N523 N 0.31415 0.55838 0.65254 0.0
C524 C 0.39907 0.67244 0.62603 0.0
C525 C 0.3398 0.59704 0.64528 0.0
N526 N 0.36107 0.68417 0.54277 0.0
N527 N 0.36355 0.59869 0.73591 0.0
H528 H 0.292 0.54577 0.62424 0.0
H529 H 0.31648 0.53737 0.68542 0.0
H530 H 0.38306 0.61166 0.76653 0.0
H531 H 0.33805 0.57661 0.74803 0.0
H532 H 0.37642 0.71585 0.53584 0.0
H533 H 0.3379 0.67488 0.51389 0.0
H534 H 0.43463 0.72105 0.5795 0.0
H535 H 0.45194 0.71892 0.6443 0.0
C536 C 0.85123 0.89585 0.18462 0.0
C537 C 0.85352 0.87313 0.13646 0.0
C538 C 0.92653 0.84277 0.16106 0.0
C539 C 0.92335 0.86371 0.2103 0.0
N540 N 0.87839 0.90083 0.27347 0.0
N541 N 0.88781 0.81706 0.08293 0.0
C542 C 0.88431 0.88743 0.22345 0.0
C543 C 0.88941 0.8439 0.12609 0.0
N544 N 0.81856 0.9269 0.19251 0.0
N545 N 0.96582 0.82435 0.14634 0.0
H546 H 0.8611 0.81723 0.05642 0.0
H547 H 0.91083 0.79169 0.07596 0.0
H548 H 0.99413 0.82397 0.17028 0.0
H549 H 0.97161 0.81315 0.10883 0.0
H550 H 0.81837 0.94853 0.22438 0.0
H551 H 0.79331 0.93358 0.16526 0.0
H552 H 0.84883 0.9143 0.28672 0.0
H553 H 0.90165 0.89419 0.30295 0.0
C554 C 0.12192 0.07417 0.6445 0.0
C555 C 0.1596 0.10394 0.64369 0.0
C556 C 0.13086 0.14133 0.72115 0.0
C557 C 0.08841 0.12026 0.71118 0.0
N558 N 0.04309 0.06926 0.65751 0.0
N559 N 0.21023 0.13713 0.70662 0.0
C560 C 0.08382 0.08742 0.67117 0.0
C561 C 0.16749 0.13032 0.6891 0.0
N562 N 0.12496 0.03028 0.62769 0.0
N563 N 0.13664 0.17094 0.76148 0.0
H564 H 0.23689 0.12106 0.6893 0.0
H565 H 0.2186 0.15246 0.74187 0.0
H566 H 0.11214 0.17689 0.78863 0.0
H567 H 0.16522 0.19133 0.76641 0.0
H568 H 0.09913 0.00615 0.6318 0.0
H569 H 0.15534 0.01703 0.61633 0.0
H570 H 0.03889 0.0472 0.62612 0.0
H571 H 0.01342 0.07994 0.67364 0.0
C572 C 0.15032 0.82116 0.11985 0.0
C573 C 0.18222 0.85739 0.11839 0.0
C574 C 0.16747 0.8742 0.20939 0.0
C575 C 0.12883 0.84554 0.20666 0.0
N576 N 0.08375 0.78978 0.15957 0.0
N577 N 0.22333 0.91775 0.16176 0.0
C578 C 0.12091 0.81744 0.16253 0.0
C579 C 0.19219 0.88308 0.16361 0.0
N580 N 0.14776 0.79109 0.07963 0.0
N581 N 0.18034 0.89272 0.25592 0.0
H582 H 0.24305 0.92403 0.12937 0.0
H583 H 0.2282 0.9415 0.19126 0.0
H584 H 0.16314 0.88586 0.29017 0.0
H585 H 0.21015 0.91092 0.26163 0.0
H586 H 0.12791 0.76147 0.0799 0.0
H587 H 0.16902 0.79367 0.04798 0.0
H588 H 0.07312 0.77344 0.1257 0.0
H589 H 0.06188 0.7848 0.19012 0.0
C590 C 0.82222 0.11073 0.65308 0.0
C591 C 0.83406 0.1343 0.60666 0.0
C592 C 0.89778 0.17092 0.65104 0.0
C593 C 0.88688 0.14615 0.69713 0.0
N594 N 0.83197 0.10435 0.74673 0.0
N595 N 0.87337 0.19674 0.56528 0.0
C596 C 0.84663 0.12009 0.69968 0.0
C597 C 0.8684 0.16815 0.60729 0.0
N598 N 0.78971 0.07736 0.65195 0.0
N599 N 0.9377 0.19398 0.64742 0.0
H600 H 0.85213 0.19494 0.53277 0.0
H601 H 0.89535 0.22476 0.56484 0.0
H602 H 0.96072 0.19646 0.67806 0.0
H603 H 0.94958 0.2079 0.61276 0.0
H604 H 0.78347 0.05506 0.68299 0.0
H605 H 0.77044 0.07024 0.61884 0.0
H606 H 0.80097 0.08846 0.75185 0.0
H607 H 0.84909 0.11131 0.7815 0.0
loop_
_geom_bond_atom_site_label_1
_geom_bond_atom_site_label_2
_geom_bond_distance
_geom_bond_site_symmetry_2
_ccdc_geom_bond_type
H0 C3 0.929 . S
H1 C6 0.929 . S
H2 C8 0.930 . S
C3 H0 0.929 . S
C3 C4 1.398 . S
C3 C5 1.396 1_554 S
C4 C3 1.398 . S
C4 C8 1.407 . S
C5 C3 1.396 1_556 S
C5 C6 1.394 . S
C6 H1 0.929 . S
C6 C5 1.394 . S
C6 C7 1.382 1_556 S
C7 C6 1.382 1_554 S
C7 C8 1.392 . S
C7 N9 1.420 1_554 S
C8 H2 0.930 . S
C8 C4 1.407 . S
C8 C7 1.392 . S
N9 C7 1.420 1_556 S
N9 C10 1.244 . S
C10 N9 1.244 . S
H11 C14 0.929 . S
H12 C17 0.929 . S
H13 C19 0.930 . S
C14 H11 0.929 . S
C14 C15 1.398 . S
C14 C16 1.396 . S
C15 C14 1.398 . S
C15 C19 1.407 . S
C16 C14 1.396 . S
C16 C17 1.394 . S
C17 H12 0.929 . S
C17 C16 1.394 . S
C17 C18 1.382 . S
C18 C17 1.382 . S
C18 C19 1.392 . S
C18 N20 1.420 . S
C19 H13 0.930 . S
C19 C15 1.407 . S
C19 C18 1.392 . S
N20 C18 1.420 . S
N20 C21 1.244 . S
C21 N20 1.244 . S
H22 C25 0.929 . S
H23 C28 0.929 . S
H24 C30 0.930 . S
C25 H22 0.929 . S
C25 C26 1.398 . S
C25 C27 1.396 1_554 S
C26 C25 1.398 . S
C26 C30 1.407 . S
C27 C25 1.396 1_556 S
C27 C28 1.394 . S
C28 H23 0.929 . S
C28 C27 1.394 . S
C28 C29 1.382 1_556 S
C29 C28 1.382 1_554 S
C29 C30 1.392 . S
C29 N31 1.420 . S
C30 H24 0.930 . S
C30 C26 1.407 . S
C30 C29 1.392 . S
N31 C29 1.420 . S
N31 C32 1.244 1_554 S
C32 N31 1.244 1_556 S
H33 C36 0.929 . S
H34 C39 0.929 . S
H35 C41 0.930 . S
C36 H33 0.929 . S
C36 C37 1.398 . S
C36 C38 1.396 . S
C37 C36 1.398 . S
C37 C41 1.407 . S
C38 C36 1.396 . S
C38 C39 1.394 . S
C39 H34 0.929 . S
C39 C38 1.394 . S
C39 C40 1.382 . S
C40 C39 1.382 . S
C40 C41 1.392 . S
C40 N42 1.420 . S
C41 H35 0.930 . S
C41 C37 1.407 . S
C41 C40 1.392 . S
N42 C40 1.420 . S
N42 C43 1.244 . S
C43 N42 1.244 . S
H44 C47 0.929 . S
H45 C50 0.929 . S
H46 C52 0.930 . S
C47 H44 0.929 . S
C47 C48 1.398 . S
C47 C49 1.396 1_554 S
C48 C47 1.398 . S
C48 C52 1.407 . S
C49 C47 1.396 1_556 S
C49 C50 1.394 . S
C50 H45 0.929 . S
C50 C49 1.394 . S
C50 C51 1.382 1_556 S
C51 C50 1.382 1_554 S
C51 C52 1.392 . S
C51 N53 1.420 1_554 S
C52 H46 0.930 . S
C52 C48 1.407 . S
C52 C51 1.392 . S
N53 C51 1.420 1_556 S
N53 C54 1.244 . S
C54 N53 1.244 . S
H55 C58 0.929 . S
H56 C61 0.929 . S
H57 C63 0.930 . S
C58 H55 0.929 . S
C58 C59 1.398 . S
C58 C60 1.396 . S
C59 C58 1.398 . S
C59 C63 1.407 . S
C60 C58 1.396 . S
C60 C61 1.394 . S
C61 H56 0.929 . S
C61 C60 1.394 . S
C61 C62 1.382 . S
C62 C61 1.382 . S
C62 C63 1.392 . S
C62 N64 1.420 . S
C63 H57 0.930 . S
C63 C59 1.407 . S
C63 C62 1.392 . S
N64 C62 1.420 . S
N64 C65 1.244 . S
C65 N64 1.244 . S
H66 C69 0.929 . S
H67 C72 0.929 . S
H68 C74 0.930 . S
C69 H66 0.929 . S
C69 C70 1.398 . S
C69 C71 1.396 1_554 S
C70 C69 1.398 . S
C70 C74 1.407 . S
C71 C69 1.396 1_556 S
C71 C72 1.394 . S
C72 H67 0.929 . S
C72 C71 1.394 . S
C72 C73 1.382 1_556 S
C73 C72 1.382 1_554 S
C73 C74 1.392 . S
C73 N75 1.420 . S
C74 H68 0.930 . S
C74 C70 1.407 . S
C74 C73 1.392 . S
N75 C73 1.420 . S
N75 C76 1.244 1_554 S
C76 N75 1.244 1_556 S
H77 C80 0.929 . S
H78 C83 0.929 . S
H79 C85 0.930 . S
C80 H77 0.929 . S
C80 C81 1.398 . S
C80 C82 1.396 . S
C81 C80 1.398 . S
C81 C85 1.407 . S
C82 C80 1.396 . S
C82 C83 1.394 . S
C83 H78 0.929 . S
C83 C82 1.394 . S
C83 C84 1.382 . S
C84 C83 1.382 . S
C84 C85 1.392 . S
C84 N86 1.420 . S
C85 H79 0.930 . S
C85 C81 1.407 . S
C85 C84 1.392 . S
N86 C84 1.420 . S
N86 C87 1.244 . S
C87 N86 1.244 . S
Sc88 O91 2.025 . S
Sc88 O98 2.105 1_455 S
Sc88 O101 2.105 . S
Sc88 O104 2.105 . S
Sc88 O107 2.105 1_455 S
Sc89 O91 2.025 . S
Sc89 O99 2.105 1_455 S
Sc89 O103 2.105 . S
Sc89 O105 2.105 . S
Sc89 O109 2.105 1_455 S
Sc90 O91 2.025 . S
Sc90 O100 2.105 1_455 S
Sc90 O102 2.105 . S
Sc90 O106 2.105 . S
Sc90 O108 2.105 1_455 S
O91 Sc88 2.025 . S
O91 Sc89 2.025 . S
O91 Sc90 2.025 . S
C92 O98 1.268 . S
C92 O108 1.268 . S
C93 O99 1.268 . S
C93 O107 1.268 . S
C94 O100 1.268 . S
C94 O109 1.268 . S
C95 O101 1.268 . S
C95 O105 1.268 . S
C96 O102 1.268 . S
C96 O104 1.268 . S
C97 O103 1.268 . S
C97 O106 1.268 . S
O98 Sc88 2.105 1_655 S
O98 C92 1.268 . S
O99 Sc89 2.105 1_655 S
O99 C93 1.268 . S
O100 Sc90 2.105 1_655 S
O100 C94 1.268 . S
O101 Sc88 2.105 . S
O101 C95 1.268 . S
O102 Sc90 2.105 . S
O102 C96 1.268 . S
O103 Sc89 2.105 . S
O103 C97 1.268 . S
O104 Sc88 2.105 . S
O104 C96 1.268 . S
O105 Sc89 2.105 . S
O105 C95 1.268 . S
O106 Sc90 2.105 . S
O106 C97 1.268 . S
O107 Sc88 2.105 1_655 S
O107 C93 1.268 . S
O108 Sc90 2.105 1_655 S
O108 C92 1.268 . S
O109 Sc89 2.105 1_655 S
O109 C94 1.268 . S
Sc110 O113 2.025 . S
Sc110 O120 2.105 . S
Sc110 O123 2.105 1_455 S
Sc110 O126 2.105 1_455 S
Sc110 O129 2.105 . S
Sc111 O113 2.025 . S
Sc111 O121 2.105 . S
Sc111 O125 2.105 1_455 S
Sc111 O127 2.105 1_455 S
Sc111 O131 2.105 . S
Sc112 O113 2.025 . S
Sc112 O122 2.105 . S
Sc112 O124 2.105 1_455 S
Sc112 O128 2.105 1_455 S
Sc112 O130 2.105 . S
O113 Sc110 2.025 . S
O113 Sc111 2.025 . S
O113 Sc112 2.025 . S
C114 O120 1.268 . S
C114 O130 1.268 . S
C115 O121 1.268 . S
C115 O129 1.268 . S
C116 O122 1.268 . S
C116 O131 1.268 . S
C117 O123 1.268 . S
C117 O127 1.268 . S
C118 O124 1.268 . S
C118 O126 1.268 . S
C119 O125 1.268 . S
C119 O128 1.268 . S
O120 Sc110 2.105 . S
O120 C114 1.268 . S
O121 Sc111 2.105 . S
O121 C115 1.268 . S
O122 Sc112 2.105 . S
O122 C116 1.268 . S
O123 Sc110 2.105 1_655 S
O123 C117 1.268 . S
O124 Sc112 2.105 1_655 S
O124 C118 1.268 . S
O125 Sc111 2.105 1_655 S
O125 C119 1.268 . S
O126 Sc110 2.105 1_655 S
O126 C118 1.268 . S
O127 Sc111 2.105 1_655 S
O127 C117 1.268 . S
O128 Sc112 2.105 1_655 S
O128 C119 1.268 . S
O129 Sc110 2.105 . S
O129 C115 1.268 . S
O130 Sc112 2.105 . S
O130 C114 1.268 . S
O131 Sc111 2.105 . S
O131 C116 1.268 . S
Sc132 O135 2.025 . S
Sc132 O142 2.105 . S
Sc132 O145 2.105 . S
Sc132 O148 2.105 . S
Sc132 O151 2.105 . S
Sc133 O135 2.025 . S
Sc133 O143 2.105 . S
Sc133 O147 2.105 . S
Sc133 O149 2.105 . S
Sc133 O153 2.105 . S
Sc134 O135 2.025 . S
Sc134 O144 2.105 . S
Sc134 O146 2.105 . S
Sc134 O150 2.105 . S
Sc134 O152 2.105 . S
O135 Sc132 2.025 . S
O135 Sc133 2.025 . S
O135 Sc134 2.025 . S
C136 O142 1.268 . S
C136 O152 1.268 . S
C137 O143 1.268 . S
C137 O151 1.268 . S
C138 O144 1.268 . S
C138 O153 1.268 . S
C139 O145 1.268 . S
C139 O149 1.268 . S
C140 O146 1.268 . S
C140 O148 1.268 . S
C141 O147 1.268 . S
C141 O150 1.268 . S
O142 Sc132 2.105 . S
O142 C136 1.268 . S
O143 Sc133 2.105 . S
O143 C137 1.268 . S
O144 Sc134 2.105 . S
O144 C138 1.268 . S
O145 Sc132 2.105 . S
O145 C139 1.268 . S
O146 Sc134 2.105 . S
O146 C140 1.268 . S
O147 Sc133 2.105 . S
O147 C141 1.268 . S
O148 Sc132 2.105 . S
O148 C140 1.268 . S
O149 Sc133 2.105 . S
O149 C139 1.268 . S
O150 Sc134 2.105 . S
O150 C141 1.268 . S
O151 Sc132 2.105 . S
O151 C137 1.268 . S
O152 Sc134 2.105 . S
O152 C136 1.268 . S
O153 Sc133 2.105 . S
O153 C138 1.268 . S
Sc154 O157 2.025 . S
Sc154 O164 2.105 . S
Sc154 O167 2.105 . S
Sc154 O170 2.105 . S
Sc154 O173 2.105 . S
Sc155 O157 2.025 . S
Sc155 O165 2.105 . S
Sc155 O169 2.105 . S
Sc155 O171 2.105 . S
Sc155 O175 2.105 . S
Sc156 O157 2.025 . S
Sc156 O166 2.105 . S
Sc156 O168 2.105 . S
Sc156 O172 2.105 . S
Sc156 O174 2.105 . S
O157 Sc154 2.025 . S
O157 Sc155 2.025 . S
O157 Sc156 2.025 . S
C158 O164 1.268 . S
C158 O174 1.268 . S
C159 O165 1.268 . S
C159 O173 1.268 . S
C160 O166 1.268 . S
C160 O175 1.268 . S
C161 O167 1.268 . S
C161 O171 1.268 . S
C162 O168 1.268 . S
C162 O170 1.268 . S
C163 O169 1.268 . S
C163 O172 1.268 . S
O164 Sc154 2.105 . S
O164 C158 1.268 . S
O165 Sc155 2.105 . S
O165 C159 1.268 . S
O166 Sc156 2.105 . S
O166 C160 1.268 . S
O167 Sc154 2.105 . S
O167 C161 1.268 . S
O168 Sc156 2.105 . S
O168 C162 1.268 . S
O169 Sc155 2.105 . S
O169 C163 1.268 . S
O170 Sc154 2.105 . S
O170 C162 1.268 . S
O171 Sc155 2.105 . S
O171 C161 1.268 . S
O172 Sc156 2.105 . S
O172 C163 1.268 . S
O173 Sc154 2.105 . S
O173 C159 1.268 . S
O174 Sc156 2.105 . S
O174 C158 1.268 . S
O175 Sc155 2.105 . S
O175 C160 1.268 . S
C176 C177 1.363 . S
C176 C182 1.379 . S
C176 N184 1.356 1_556 S
C177 C176 1.363 . S
C177 C183 1.363 . S
C178 C179 1.363 . S
C178 C183 1.379 . S
C178 N185 1.356 . S
C179 C178 1.363 . S
C179 C182 1.363 . S
N180 C182 1.356 . S
N180 H192 0.984 . S
N180 H193 0.985 . S
N181 C183 1.356 . S
N181 H186 0.984 . S
N181 H187 0.985 . S
C182 C176 1.379 . S
C182 C179 1.363 . S
C182 N180 1.356 . S
C183 C177 1.363 . S
C183 C178 1.379 . S
C183 N181 1.356 . S
N184 C176 1.356 1_554 S
N184 H190 0.984 . S
N184 H191 0.984 . S
N185 C178 1.356 . S
N185 H188 0.984 . S
N185 H189 0.985 . S
H186 N181 0.984 . S
H187 N181 0.985 . S
H188 N185 0.984 . S
H189 N185 0.985 . S
H190 N184 0.984 . S
H191 N184 0.984 . S
H192 N180 0.984 . S
H193 N180 0.985 . S
C194 C195 1.363 . S
C194 C200 1.379 . S
C194 N202 1.356 . S
C195 C194 1.363 . S
C195 C201 1.363 . S
C196 C197 1.363 . S
C196 C201 1.379 . S
C196 N203 1.356 . S
C197 C196 1.363 . S
C197 C200 1.363 . S
N198 C200 1.356 . S
N198 H210 0.984 . S
N198 H211 0.985 . S
N199 C201 1.356 . S
N199 H204 0.984 . S
N199 H205 0.985 . S
C200 C194 1.379 . S
C200 C197 1.363 . S
C200 N198 1.356 . S
C201 C195 1.363 . S
C201 C196 1.379 . S
C201 N199 1.356 . S
N202 C194 1.356 . S
N202 H208 0.984 . S
N202 H209 0.984 . S
N203 C196 1.356 . S
N203 H206 0.984 . S
N203 H207 0.985 . S
H204 N199 0.984 . S
H205 N199 0.985 . S
H206 N203 0.984 . S
H207 N203 0.985 . S
H208 N202 0.984 . S
H209 N202 0.984 . S
H210 N198 0.984 . S
H211 N198 0.985 . S
C212 C213 1.363 . S
C212 C218 1.379 . S
C212 N220 1.356 . S
C213 C212 1.363 . S
C213 C219 1.363 . S
C214 C215 1.363 . S
C214 C219 1.379 . S
C214 N221 1.356 . S
C215 C214 1.363 . S
C215 C218 1.363 . S
N216 C218 1.356 . S
N216 H228 0.984 . S
N216 H229 0.985 . S
N217 C219 1.356 1_554 S
N217 H222 0.984 . S
N217 H223 0.985 . S
C218 C212 1.379 . S
C218 C215 1.363 . S
C218 N216 1.356 . S
C219 C213 1.363 . S
C219 C214 1.379 . S
C219 N217 1.356 1_556 S
N220 C212 1.356 . S
N220 H226 0.984 . S
N220 H227 0.984 . S
N221 C214 1.356 . S
N221 H224 0.984 . S
N221 H225 0.985 . S
H222 N217 0.984 . S
H223 N217 0.985 . S
H224 N221 0.984 . S
H225 N221 0.985 . S
H226 N220 0.984 . S
H227 N220 0.984 . S
H228 N216 0.984 . S
H229 N216 0.985 . S
C230 C231 1.363 . S
C230 C236 1.379 . S
C230 N238 1.356 . S
C231 C230 1.363 . S
C231 C237 1.363 . S
C232 C233 1.363 . S
C232 C237 1.379 . S
C232 N239 1.356 . S
C233 C232 1.363 . S
C233 C236 1.363 . S
N234 C236 1.356 . S
N234 H246 0.984 . S
N234 H247 0.985 . S
N235 C237 1.356 . S
N235 H240 0.984 . S
N235 H241 0.985 . S
C236 C230 1.379 . S
C236 C233 1.363 . S
C236 N234 1.356 . S
C237 C231 1.363 . S
C237 C232 1.379 . S
C237 N235 1.356 . S
N238 C230 1.356 . S
N238 H244 0.984 . S
N238 H245 0.984 . S
N239 C232 1.356 . S
N239 H242 0.984 . S
N239 H243 0.985 . S
H240 N235 0.984 . S
H241 N235 0.985 . S
H242 N239 0.984 . S
H243 N239 0.985 . S
H244 N238 0.984 . S
H245 N238 0.984 . S
H246 N234 0.984 . S
H247 N234 0.985 . S
C248 C249 1.363 . S
C248 C254 1.379 . S
C248 N256 1.356 . S
C249 C248 1.363 . S
C249 C255 1.363 . S
C250 C251 1.363 . S
C250 C255 1.379 . S
C250 N257 1.356 . S
C251 C250 1.363 . S
C251 C254 1.363 . S
N252 C254 1.356 . S
N252 H264 0.984 . S
N252 H265 0.985 . S
N253 C255 1.356 . S
N253 H258 0.984 . S
N253 H259 0.985 . S
C254 C248 1.379 . S
C254 C251 1.363 . S
C254 N252 1.356 . S
C255 C249 1.363 . S
C255 C250 1.379 . S
C255 N253 1.356 . S
N256 C248 1.356 . S
N256 H262 0.984 . S
N256 H263 0.984 . S
N257 C250 1.356 . S
N257 H260 0.984 . S
N257 H261 0.985 . S
H258 N253 0.984 . S
H259 N253 0.985 . S
H260 N257 0.984 . S
H261 N257 0.985 . S
H262 N256 0.984 . S
H263 N256 0.984 . S
H264 N252 0.984 . S
H265 N252 0.985 . S
C266 C267 1.363 . S
C266 C272 1.379 . S
C266 N274 1.356 . S
C267 C266 1.363 . S
C267 C273 1.363 . S
C268 C269 1.363 . S
C268 C273 1.379 . S
C268 N275 1.356 . S
C269 C268 1.363 . S
C269 C272 1.363 . S
N270 C272 1.356 . S
N270 H282 0.984 . S
N270 H283 0.985 . S
N271 C273 1.356 . S
N271 H276 0.984 . S
N271 H277 0.985 . S
C272 C266 1.379 . S
C272 C269 1.363 . S
C272 N270 1.356 . S
C273 C267 1.363 . S
C273 C268 1.379 . S
C273 N271 1.356 . S
N274 C266 1.356 . S
N274 H280 0.984 . S
N274 H281 0.984 . S
N275 C268 1.356 . S
N275 H278 0.984 . S
N275 H279 0.985 . S
H276 N271 0.984 . S
H277 N271 0.985 . S
H278 N275 0.984 . S
H279 N275 0.985 . S
H280 N274 0.984 . S
H281 N274 0.984 . S
H282 N270 0.984 . S
H283 N270 0.985 . S
C284 C285 1.363 . S
C284 C290 1.379 . S
C284 N292 1.356 . S
C285 C284 1.363 . S
C285 C291 1.363 . S
C286 C287 1.363 . S
C286 C291 1.379 . S
C286 N293 1.356 . S
C287 C286 1.363 . S
C287 C290 1.363 . S
N288 C290 1.356 . S
N288 H300 0.984 . S
N288 H301 0.985 . S
N289 C291 1.356 1_554 S
N289 H294 0.984 . S
N289 H295 0.985 . S
C290 C284 1.379 . S
C290 C287 1.363 . S
C290 N288 1.356 . S
C291 C285 1.363 . S
C291 C286 1.379 . S
C291 N289 1.356 1_556 S
N292 C284 1.356 . S
N292 H298 0.984 . S
N292 H299 0.984 . S
N293 C286 1.356 . S
N293 H296 0.984 . S
N293 H297 0.998 . S
H294 N289 0.984 . S
H295 N289 0.985 . S
H296 N293 0.984 . S
H297 N293 0.998 . S
H298 N292 0.984 . S
H299 N292 0.984 . S
H300 N288 0.984 . S
H301 N288 0.985 . S
C302 C303 1.363 . S
C302 C308 1.379 . S
C302 N310 1.356 . S
C303 C302 1.363 . S
C303 C309 1.363 . S
C304 C305 1.363 . S
C304 C309 1.379 . S
C304 N311 1.356 . S
C305 C304 1.363 . S
C305 C308 1.363 . S
N306 C308 1.356 . S
N306 H318 0.984 . S
N306 H319 0.985 . S
N307 C309 1.356 . S
N307 H312 0.984 . S
N307 H313 0.985 . S
C308 C302 1.379 . S
C308 C305 1.363 . S
C308 N306 1.356 . S
C309 C303 1.363 . S
C309 C304 1.379 . S
C309 N307 1.356 . S
N310 C302 1.356 . S
N310 H316 0.984 . S
N310 H317 0.984 . S
N311 C304 1.356 . S
N311 H314 0.984 . S
N311 H315 0.985 . S
H312 N307 0.984 . S
H313 N307 0.985 . S
H314 N311 0.984 . S
H315 N311 0.985 . S
H316 N310 0.984 . S
H317 N310 0.984 . S
H318 N306 0.984 . S
H319 N306 0.985 . S
C320 C321 1.363 . S
C320 C326 1.379 . S
C320 N328 1.356 . S
C321 C320 1.363 . S
C321 C327 1.363 . S
C322 C323 1.363 . S
C322 C327 1.379 . S
C322 N329 1.356 . S
C323 C322 1.363 . S
C323 C326 1.363 . S
N324 C326 1.356 . S
N324 H336 0.984 . S
N324 H337 0.985 . S
N325 C327 1.356 . S
N325 H330 0.984 . S
N325 H331 0.985 . S
C326 C320 1.379 . S
C326 C323 1.363 . S
C326 N324 1.356 . S
C327 C321 1.363 . S
C327 C322 1.379 . S
C327 N325 1.356 . S
N328 C320 1.356 . S
N328 H334 0.984 . S
N328 H335 0.984 . S
N329 C322 1.356 . S
N329 H332 0.984 . S
N329 H333 0.985 . S
H330 N325 0.984 . S
H331 N325 0.985 . S
H332 N329 0.984 . S
H333 N329 0.985 . S
H334 N328 0.984 . S
H335 N328 0.984 . S
H336 N324 0.984 . S
H337 N324 0.985 . S
C338 C339 1.363 . S
C338 C344 1.379 . S
C338 N346 1.356 . S
C339 C338 1.363 . S
C339 C345 1.363 . S
C340 C341 1.363 . S
C340 C345 1.379 . S
C340 N347 1.356 . S
C341 C340 1.363 . S
C341 C344 1.363 . S
N342 C344 1.356 . S
N342 H354 0.984 . S
N342 H355 0.985 . S
N343 C345 1.356 . S
N343 H348 0.984 . S
N343 H349 0.985 . S
C344 C338 1.379 . S
C344 C341 1.363 . S
C344 N342 1.356 . S
C345 C339 1.363 . S
C345 C340 1.379 . S
C345 N343 1.356 . S
N346 C338 1.356 . S
N346 H352 0.984 . S
N346 H353 0.984 . S
N347 C340 1.356 . S
N347 H350 0.984 . S
N347 H351 0.985 . S
H348 N343 0.984 . S
H349 N343 0.985 . S
H350 N347 0.984 . S
H351 N347 0.985 . S
H352 N346 0.984 . S
H353 N346 0.984 . S
H354 N342 0.984 . S
H355 N342 0.985 . S
C356 C357 1.363 . S
C356 C362 1.379 . S
C356 N364 1.356 1_556 S
C357 C356 1.363 . S
C357 C363 1.363 . S
C358 C359 1.363 . S
C358 C363 1.379 . S
C358 N365 1.356 . S
C359 C358 1.363 . S
C359 C362 1.363 . S
N360 C362 1.356 . S
N360 H372 0.984 . S
N360 H373 0.985 . S
N361 C363 1.356 . S
N361 H366 0.984 . S
N361 H367 0.985 . S
C362 C356 1.379 . S
C362 C359 1.363 . S
C362 N360 1.356 . S
C363 C357 1.363 . S
C363 C358 1.379 . S
C363 N361 1.356 . S
N364 C356 1.356 1_554 S
N364 H370 0.984 . S
N364 H371 0.984 . S
N365 C358 1.356 . S
N365 H368 0.984 . S
N365 H369 0.985 . S
H366 N361 0.984 . S
H367 N361 0.985 . S
H368 N365 0.984 . S
H369 N365 0.985 . S
H370 N364 0.984 . S
H371 N364 0.984 . S
H372 N360 0.984 . S
H373 N360 0.985 . S
C374 C375 1.363 . S
C374 C380 1.379 . S
C374 N382 1.356 . S
C375 C374 1.363 . S
C375 C381 1.363 . S
C376 C377 1.363 . S
C376 C381 1.379 . S
C376 N383 1.356 . S
C377 C376 1.363 . S
C377 C380 1.363 . S
N378 C380 1.356 . S
N378 H390 0.984 . S
N378 H391 0.985 . S
N379 C381 1.356 . S
N379 H384 0.984 . S
N379 H385 0.985 . S
C380 C374 1.379 . S
C380 C377 1.363 . S
C380 N378 1.356 . S
C381 C375 1.363 . S
C381 C376 1.379 . S
C381 N379 1.356 . S
N382 C374 1.356 . S
N382 H388 0.984 . S
N382 H389 0.984 . S
N383 C376 1.356 . S
N383 H386 0.984 . S
N383 H387 0.985 . S
H384 N379 0.984 . S
H385 N379 0.985 . S
H386 N383 0.984 . S
H387 N383 0.985 . S
H388 N382 0.984 . S
H389 N382 0.984 . S
H390 N378 0.984 . S
H391 N378 0.985 . S
C392 C393 1.363 . S
C392 C398 1.379 . S
C392 N400 1.356 . S
C393 C392 1.363 . S
C393 C399 1.363 1_565 S
C394 C395 1.363 . S
C394 C399 1.379 . S
C394 N401 1.356 . S
C395 C394 1.363 . S
C395 C398 1.363 1_545 S
N396 C398 1.356 . S
N396 H408 0.984 . S
N396 H409 0.978 1_565 S
N397 C399 1.356 1_554 S
N397 H402 0.984 1_545 S
N397 H403 0.985 . S
C398 C392 1.379 . S
C398 C395 1.363 1_565 S
C398 N396 1.356 . S
C399 C393 1.363 1_545 S
C399 C394 1.379 . S
C399 N397 1.356 1_556 S
N400 C392 1.356 . S
N400 H406 0.984 . S
N400 H407 0.984 . S
N401 C394 1.356 . S
N401 H404 0.984 . S
N401 H405 0.985 . S
H402 N397 0.984 1_565 S
H403 N397 0.985 . S
H404 N401 0.984 . S
H405 N401 0.985 . S
H406 N400 0.984 . S
H407 N400 0.984 . S
H408 N396 0.984 . S
H409 N396 0.978 1_545 S
C410 C411 1.363 1_565 S
C410 C416 1.379 . S
C410 N418 1.356 . S
C411 C410 1.363 1_545 S
C411 C417 1.363 . S
C412 C413 1.363 1_545 S
C412 C417 1.379 . S
C412 N419 1.356 . S
C413 C412 1.363 1_565 S
C413 C416 1.363 . S
N414 C416 1.356 . S
N414 H426 0.984 . S
N414 H427 0.985 . S
N415 C417 1.356 . S
N415 H420 0.984 . S
N415 H421 0.985 . S
C416 C410 1.379 . S
C416 C413 1.363 . S
C416 N414 1.356 . S
C417 C411 1.363 . S
C417 C412 1.379 . S
C417 N415 1.356 . S
N418 C410 1.356 . S
N418 H424 0.984 . S
N418 H425 0.984 1_565 S
N419 C412 1.356 . S
N419 H422 0.984 1_545 S
N419 H423 0.985 . S
H420 N415 0.984 . S
H421 N415 0.985 . S
H422 N419 0.984 1_565 S
H423 N419 0.985 . S
H424 N418 0.984 . S
H425 N418 0.984 1_545 S
H426 N414 0.984 . S
H427 N414 0.985 . S
C428 C429 1.368 . S
C428 C434 1.375 1_565 S
C428 N436 1.357 . S
C429 C428 1.368 . S
C429 C435 1.363 . S
C430 C431 1.363 1_565 S
C430 C435 1.379 . S
C430 N437 1.356 . S
C431 C430 1.363 1_545 S
C431 C434 1.363 . S
N432 C434 1.356 . S
N432 H444 0.984 . S
N432 H445 0.985 . S
N433 C435 1.356 1_554 S
N433 H438 0.984 . S
N433 H439 0.985 . S
C434 C428 1.375 1_545 S
C434 C431 1.363 . S
C434 N432 1.356 . S
C435 C429 1.363 . S
C435 C430 1.379 . S
C435 N433 1.356 1_556 S
N436 C428 1.357 . S
N436 H442 0.984 1_565 S
N436 H443 0.984 . S
N437 C430 1.356 . S
N437 H440 0.984 1_565 S
N437 H441 0.985 . S
H438 N433 0.984 . S
H439 N433 0.985 . S
H440 N437 0.984 1_545 S
H441 N437 0.985 . S
H442 N436 0.984 1_545 S
H443 N436 0.984 . S
H444 N432 0.984 . S
H445 N432 0.985 . S
C446 C447 1.363 . S
C446 C452 1.379 1_545 S
C446 N454 1.356 . S
C447 C446 1.363 . S
C447 C453 1.363 . S
C448 C449 1.363 . S
C448 C453 1.379 1_565 S
C448 N455 1.356 . S
C449 C448 1.363 . S
C449 C452 1.363 . S
N450 C452 1.356 . S
N450 H462 0.984 . S
N450 H463 0.985 . S
N451 C453 1.356 . S
N451 H456 0.984 . S
N451 H457 0.985 . S
C452 C446 1.379 1_565 S
C452 C449 1.363 . S
C452 N450 1.356 . S
C453 C447 1.363 . S
C453 C448 1.379 1_545 S
C453 N451 1.356 . S
N454 C446 1.356 . S
N454 H460 0.984 . S
N454 H461 0.984 . S
N455 C448 1.356 . S
N455 H458 0.984 . S
N455 H459 0.985 . S
H456 N451 0.984 . S
H457 N451 0.985 . S
H458 N455 0.984 . S
H459 N455 0.985 . S
H460 N454 0.984 . S
H461 N454 0.984 . S
H462 N450 0.984 . S
H463 N450 0.985 . S
C464 C465 1.363 . S
C464 C470 1.379 . S
C464 N472 1.356 . S
C465 C464 1.363 . S
C465 C471 1.363 . S
C466 C467 1.363 . S
C466 C471 1.379 . S
C466 N473 1.356 . S
C467 C466 1.363 . S
C467 C470 1.363 . S
N468 C470 1.356 . S
N468 H480 0.984 . S
N468 H481 0.985 . S
N469 C471 1.356 . S
N469 H474 0.984 . S
N469 H475 0.985 . S
C470 C464 1.379 . S
C470 C467 1.363 . S
C470 N468 1.356 . S
C471 C465 1.363 . S
C471 C466 1.379 . S
C471 N469 1.356 . S
N472 C464 1.356 . S
N472 H478 0.984 . S
N472 H479 0.984 . S
N473 C466 1.356 . S
N473 H476 0.984 . S
N473 H477 0.985 . S
H474 N469 0.984 . S
H475 N469 0.985 . S
H476 N473 0.984 . S
H477 N473 0.985 . S
H478 N472 0.984 . S
H479 N472 0.984 . S
H480 N468 0.984 . S
H481 N468 0.985 . S
C482 C483 1.363 . S
C482 C488 1.379 . S
C482 N490 1.356 . S
C483 C482 1.363 . S
C483 C489 1.363 . S
C484 C485 1.363 . S
C484 C489 1.379 . S
C484 N491 1.356 . S
C485 C484 1.363 . S
C485 C488 1.363 . S
N486 C488 1.356 . S
N486 H498 0.984 . S
N486 H499 0.985 . S
N487 C489 1.356 . S
N487 H492 0.984 . S
N487 H493 0.985 . S
C488 C482 1.379 . S
C488 C485 1.363 . S
C488 N486 1.356 . S
C489 C483 1.363 . S
C489 C484 1.379 . S
C489 N487 1.356 . S
N490 C482 1.356 . S
N490 H496 0.984 . S
N490 H497 0.984 . S
N491 C484 1.356 . S
N491 H494 0.984 . S
N491 H495 0.985 . S
H492 N487 0.984 . S
H493 N487 0.985 . S
H494 N491 0.984 . S
H495 N491 0.985 . S
H496 N490 0.984 . S
H497 N490 0.984 . S
H498 N486 0.984 . S
H499 N486 0.985 . S
C500 C501 1.363 . S
C500 C506 1.379 . S
C500 N508 1.356 . S
C501 C500 1.363 . S
C501 C507 1.363 . S
C502 C503 1.363 . S
C502 C507 1.379 . S
C502 N509 1.356 . S
C503 C502 1.363 . S
C503 C506 1.363 . S
N504 C506 1.356 . S
N504 H516 0.984 . S
N504 H517 0.985 . S
N505 C507 1.356 . S
N505 H510 0.984 . S
N505 H511 0.985 . S
C506 C500 1.379 . S
C506 C503 1.363 . S
C506 N504 1.356 . S
C507 C501 1.363 . S
C507 C502 1.379 . S
C507 N505 1.356 . S
N508 C500 1.356 . S
N508 H514 0.984 . S
N508 H515 0.984 . S
N509 C502 1.356 . S
N509 H512 0.984 . S
N509 H513 0.985 . S
H510 N505 0.984 . S
H511 N505 0.985 . S
H512 N509 0.984 . S
H513 N509 0.985 . S
H514 N508 0.984 . S
H515 N508 0.984 . S
H516 N504 0.984 . S
H517 N504 0.985 . S
C518 C519 1.363 . S
C518 C524 1.379 . S
C518 N526 1.356 . S
C519 C518 1.363 . S
C519 C525 1.363 . S
C520 C521 1.363 . S
C520 C525 1.379 . S
C520 N527 1.356 . S
C521 C520 1.363 . S
C521 C524 1.363 . S
N522 C524 1.356 . S
N522 H534 0.984 . S
N522 H535 0.985 . S
N523 C525 1.356 . S
N523 H528 0.984 . S
N523 H529 0.985 . S
C524 C518 1.379 . S
C524 C521 1.363 . S
C524 N522 1.356 . S
C525 C519 1.363 . S
C525 C520 1.379 . S
C525 N523 1.356 . S
N526 C518 1.356 . S
N526 H532 0.984 . S
N526 H533 0.984 . S
N527 C520 1.356 . S
N527 H530 0.984 . S
N527 H531 0.985 . S
H528 N523 0.984 . S
H529 N523 0.985 . S
H530 N527 0.984 . S
H531 N527 0.985 . S
H532 N526 0.984 . S
H533 N526 0.984 . S
H534 N522 0.984 . S
H535 N522 0.985 . S
C536 C537 1.363 . S
C536 C542 1.379 . S
C536 N544 1.356 . S
C537 C536 1.363 . S
C537 C543 1.363 . S
C538 C539 1.363 . S
C538 C543 1.379 . S
C538 N545 1.356 . S
C539 C538 1.363 . S
C539 C542 1.363 . S
N540 C542 1.356 . S
N540 H552 0.984 . S
N540 H553 0.985 . S
N541 C543 1.356 . S
N541 H546 0.984 . S
N541 H547 0.985 . S
C542 C536 1.379 . S
C542 C539 1.363 . S
C542 N540 1.356 . S
C543 C537 1.363 . S
C543 C538 1.379 . S
C543 N541 1.356 . S
N544 C536 1.356 . S
N544 H550 0.984 . S
N544 H551 0.984 . S
N545 C538 1.356 . S
N545 H548 0.984 . S
N545 H549 0.985 . S
H546 N541 0.984 . S
H547 N541 0.985 . S
H548 N545 0.984 . S
H549 N545 0.985 . S
H550 N544 0.984 . S
H551 N544 0.984 . S
H552 N540 0.984 . S
H553 N540 0.985 . S
C554 C555 1.363 . S
C554 C560 1.379 . S
C554 N562 1.356 . S
C555 C554 1.363 . S
C555 C561 1.363 . S
C556 C557 1.363 . S
C556 C561 1.379 . S
C556 N563 1.356 . S
C557 C556 1.363 . S
C557 C560 1.363 . S
N558 C560 1.356 . S
N558 H570 0.984 . S
N558 H571 0.985 . S
N559 C561 1.356 . S
N559 H564 0.984 . S
N559 H565 0.985 . S
C560 C554 1.379 . S
C560 C557 1.363 . S
C560 N558 1.356 . S
C561 C555 1.363 . S
C561 C556 1.379 . S
C561 N559 1.356 . S
N562 C554 1.356 . S
N562 H568 0.984 . S
N562 H569 0.984 . S
N563 C556 1.356 . S
N563 H566 0.984 . S
N563 H567 0.985 . S
H564 N559 0.984 . S
H565 N559 0.985 . S
H566 N563 0.984 . S
H567 N563 0.985 . S
H568 N562 0.984 . S
H569 N562 0.984 . S
H570 N558 0.984 . S
H571 N558 0.985 . S
C572 C573 1.363 . S
C572 C578 1.379 . S
C572 N580 1.356 . S
C573 C572 1.363 . S
C573 C579 1.363 . S
C574 C575 1.363 . S
C574 C579 1.379 . S
C574 N581 1.356 . S
C575 C574 1.363 . S
C575 C578 1.363 . S
N576 C578 1.356 . S
N576 H588 0.984 . S
N576 H589 0.985 . S
N577 C579 1.356 . S
N577 H582 0.984 . S
N577 H583 0.985 . S
C578 C572 1.379 . S
C578 C575 1.363 . S
C578 N576 1.356 . S
C579 C573 1.363 . S
C579 C574 1.379 . S
C579 N577 1.356 . S
N580 C572 1.356 . S
N580 H586 0.984 . S
N580 H587 0.984 . S
N581 C574 1.356 . S
N581 H584 0.984 . S
N581 H585 0.985 . S
H582 N577 0.984 . S
H583 N577 0.985 . S
H584 N581 0.984 . S
H585 N581 0.985 . S
H586 N580 0.984 . S
H587 N580 0.984 . S
H588 N576 0.984 . S
H589 N576 0.985 . S
C590 C591 1.363 . S
C590 C596 1.379 . S
C590 N598 1.356 . S
C591 C590 1.363 . S
C591 C597 1.363 . S
C592 C593 1.363 . S
C592 C597 1.379 . S
C592 N599 1.356 . S
C593 C592 1.363 . S
C593 C596 1.363 . S
N594 C596 1.356 . S
N594 H606 0.984 . S
N594 H607 0.985 . S
N595 C597 1.356 . S
N595 H600 0.984 . S
N595 H601 0.985 . S
C596 C590 1.379 . S
C596 C593 1.363 . S
C596 N594 1.356 . S
C597 C591 1.363 . S
C597 C592 1.379 . S
C597 N595 1.356 . S
N598 C590 1.356 . S
N598 H604 0.984 . S
N598 H605 0.984 . S
N599 C592 1.356 . S
N599 H602 0.984 . S
N599 H603 0.985 . S
H600 N595 0.984 . S
H601 N595 0.985 . S
H602 N599 0.984 . S
H603 N599 0.985 . S
H604 N598 0.984 . S
H605 N598 0.984 . S
H606 N594 0.984 . S
H607 N594 0.985 . S
C177 C10 1.534 . S
C179 C114 1.509 . S
C197 C92 1.512 . S
C195 C21 1.535 . S
C215 C118 1.565 . S
C213 C32 1.586 . S
C233 C96 1.469 . S
C231 C43 1.496 . S
C251 C158 1.509 . S
C249 C54 1.534 . S
C269 C136 1.512 . S
C267 C65 1.535 . S
C285 C76 1.585 . S
C287 C162 1.565 . S
C305 C140 1.469 . S
C303 C87 1.496 . S
C321 C5 1.503 . S
C323 C163 1.532 . S
C341 C141 1.507 . S
C339 C16 1.481 . S
C357 C27 1.549 . S
C359 C160 1.580 . S
C375 C37 1.438 . S
C377 C138 1.452 . S
C395 C119 1.532 . S
C393 C49 1.503 . S
C411 C60 1.481 . S
C413 C97 1.508 . S
C431 C116 1.580 . S
C429 C71 1.549 . S
C449 C94 1.452 . S
C447 C81 1.438 . S
C467 C137 1.492 . S
C465 C4 1.487 . S
C485 C159 1.494 . S
C483 C15 1.481 . S
C501 C26 1.498 . S
C503 C139 1.490 . S
C521 C161 1.494 . S
C519 C38 1.472 . S
C539 C93 1.492 . S
C537 C48 1.487 . S
C555 C59 1.481 . S
C557 C115 1.494 . S
C573 C70 1.498 . S
C575 C95 1.490 . S
C591 C82 1.472 . S
C593 C117 1.494 . S
