# Generated by pormake.
# Topology ftw, (4,12)-cn, num edge types: 1
# Building blocks:
#     Node 0, Type 0, BuildingBlock: GIZVER_clean_linker_0, # of connection points: 4
#     Node 1, Type 0, BuildingBlock: GIZVER_clean_linker_0, # of connection points: 4
#     Node 2, Type 0, BuildingBlock: GIZVER_clean_linker_0, # of connection points: 4
#     Node 3, Type 1, BuildingBlock: QEWDON_clean_sbu_0, # of connection points: 12
#     Edge 4, Type (0, 1), BuildingBlock: CIFDUS_clean_linker_0, # of connection points: 2
#     Edge 5, Type (0, 1), BuildingBlock: CIFDUS_clean_linker_0, # of connection points: 2
#     Edge 6, Type (0, 1), BuildingBlock: CIFDUS_clean_linker_0, # of connection points: 2
#     Edge 7, Type (0, 1), BuildingBlock: CIFDUS_clean_linker_0, # of connection points: 2
#     Edge 8, Type (0, 1), BuildingBlock: CIFDUS_clean_linker_0, # of connection points: 2
#     Edge 9, Type (0, 1), BuildingBlock: CIFDUS_clean_linker_0, # of connection points: 2
#     Edge 10, Type (0, 1), BuildingBlock: CIFDUS_clean_linker_0, # of connection points: 2
#     Edge 11, Type (0, 1), BuildingBlock: CIFDUS_clean_linker_0, # of connection points: 2
#     Edge 12, Type (0, 1), BuildingBlock: CIFDUS_clean_linker_0, # of connection points: 2
#     Edge 13, Type (0, 1), BuildingBlock: CIFDUS_clean_linker_0, # of connection points: 2
#     Edge 14, Type (0, 1), BuildingBlock: CIFDUS_clean_linker_0, # of connection points: 2
#     Edge 15, Type (0, 1), BuildingBlock: CIFDUS_clean_linker_0, # of connection points: 2
# Relax obj value: 0.120
# Max RMSD: 0.263
# Mean RMSD: 0.214
data_MOF--net-ftw--node1-QEWDON_clean_sbu_0--node2-GIZVER_clean_linker_0--edge1-CIFDUS_clean_linker_0
_symmetry_space_group_name_H-M    P1
_symmetry_Int_Tables_number       1
_symmetry_cell_setting            triclinic
loop_
_symmetry_equiv_pos_as_xyz
'x, y, z'
_cell_length_a     23.547788
_cell_length_b     22.014736
_cell_length_c     21.126264
_cell_angle_alpha  89.520307
_cell_angle_beta   89.50734
_cell_angle_gamma 90.754673
loop_
_atom_site_label
_atom_site_type_symbol
_atom_site_fract_x
_atom_site_fract_y
_atom_site_fract_z
_atom_type_partial_charge
H0 H 0.92593 0.46961 0.40639 0.0
H1 H 0.90553 0.44924 0.60783 0.0
H2 H 0.01559 0.32985 0.50665 0.0
H3 H 0.83926 0.50611 0.46452 0.0
H4 H 0.83825 0.50766 0.54901 0.0
H5 H 0.88267 0.58804 0.40457 0.0
H6 H 0.94728 0.7431 0.50585 0.0
H7 H 0.91006 0.57708 0.60546 0.0
C8 C 0.93825 0.44815 0.45046 0.0
C9 C 0.9754 0.39851 0.44951 0.0
C10 C 0.91319 0.46708 0.50748 0.0
C11 C 0.92677 0.43702 0.56409 0.0
C12 C 0.96457 0.38833 0.56389 0.0
C13 C 0.98974 0.37026 0.50693 0.0
C14 C 0.8664 0.51334 0.50673 0.0
C15 C 0.89027 0.57713 0.50567 0.0
C16 C 0.89471 0.60994 0.44825 0.0
C17 C 0.9163 0.66983 0.44716 0.0
C18 C 0.93233 0.69636 0.50471 0.0
C19 C 0.93255 0.66265 0.56105 0.0
C20 C 0.91027 0.60338 0.56184 0.0
H21 H 0.43656 0.03479 0.38099 0.0
H22 H 0.45367 0.04127 0.58262 0.0
H23 H 0.30918 0.95031 0.50124 0.0
H24 H 0.49786 0.10923 0.42792 0.0
H25 H 0.49845 0.11878 0.51123 0.0
H26 H 0.56951 0.04819 0.3755 0.0
H27 H 0.71877 0.01099 0.48331 0.0
H28 H 0.56245 0.05611 0.57877 0.0
C29 C 0.4217 0.0206 0.42756 0.0
C30 C 0.36932 0.98934 0.43414 0.0
C31 C 0.45262 0.03892 0.48094 0.0
C32 C 0.43138 0.02431 0.5416 0.0
C33 C 0.37931 0.99281 0.54959 0.0
C34 C 0.34918 0.9747 0.49549 0.0
C35 C 0.50151 0.08394 0.47352 0.0
C36 C 0.55957 0.05536 0.47696 0.0
C37 C 0.58987 0.04276 0.421 0.0
C38 C 0.64736 0.02684 0.42336 0.0
C39 C 0.67407 0.02195 0.48223 0.0
C40 C 0.64395 0.03102 0.53914 0.0
C41 C 0.58638 0.04771 0.53581 0.0
H42 H 0.54462 0.36854 0.14163 0.0
H43 H 0.61112 0.55091 0.1592 0.0
H44 H 0.70904 0.41551 0.06415 0.0
H45 H 0.5004 0.44474 0.21672 0.0
H46 H 0.52405 0.52252 0.21441 0.0
H47 H 0.44955 0.40024 0.12527 0.0
H48 H 0.36468 0.52394 0.00141 0.0
H49 H 0.48939 0.59136 0.13232 0.0
C50 C 0.57826 0.40181 0.13355 0.0
C51 C 0.62696 0.38534 0.09963 0.0
C52 C 0.57199 0.46182 0.15463 0.0
C53 C 0.6159 0.50439 0.14374 0.0
C54 C 0.6657 0.48737 0.1123 0.0
C55 C 0.67093 0.42814 0.08978 0.0
C56 C 0.51728 0.48143 0.18497 0.0
C57 C 0.47464 0.49428 0.13396 0.0
C58 C 0.44419 0.44596 0.10709 0.0
C59 C 0.40502 0.45644 0.05893 0.0
C60 C 0.39653 0.51582 0.03716 0.0
C61 C 0.42656 0.56493 0.06347 0.0
C62 C 0.46603 0.55381 0.11165 0.0
Zn63 Zn 0.14652 0.07042 0.97924 0.0
Zn64 Zn 0.0839 0.12537 0.09432 0.0
O65 O 0.06887 0.06562 0.02456 0.0
H66 H 0.042 0.03212 0.02572 0.0
C67 C 0.92945 0.14495 0.84267 0.0
O68 O 0.97423 0.14278 0.87922 0.0
Zn69 Zn 0.9304 0.86976 0.08429 0.0
Zn70 Zn 0.89921 0.87855 0.93551 0.0
O71 O 0.92407 0.92879 0.01037 0.0
H72 H 0.94549 0.96635 0.00618 0.0
Zn73 Zn 0.87437 0.07235 0.94525 0.0
O74 O 0.93599 0.09026 0.01026 0.0
Zn75 Zn 0.89644 0.07705 0.09268 0.0
H76 H 0.96726 0.11855 0.00396 0.0
Zn77 Zn 0.14371 0.88107 0.93752 0.0
O78 O 0.09248 0.91435 0.00496 0.0
H79 H 0.05381 0.92735 0.99946 0.0
Zn80 Zn 0.13758 0.91693 0.0837 0.0
C81 C 0.05211 0.81491 0.87491 0.0
O82 O 0.02694 0.82391 0.92971 0.0
O83 O 0.18713 0.15304 0.99237 0.0
O84 O 0.12843 0.19729 0.06045 0.0
O85 O 0.86144 0.79958 0.96477 0.0
O86 O 0.89216 0.78774 0.06353 0.0
O87 O 0.79344 0.0848 0.98121 0.0
O88 O 0.81274 0.08857 0.0836 0.0
C89 C 0.14901 0.0339 0.15951 0.0
O90 O 0.21896 0.84818 0.97286 0.0
O91 O 0.21555 0.87996 0.0726 0.0
O92 O 0.86978 0.91428 0.8501 0.0
C93 C 0.17124 0.19948 0.02309 0.0
O94 O 0.16189 0.0334 0.88962 0.0
C95 C 0.88186 0.95983 0.16151 0.0
O96 O 0.88441 0.1164 0.85918 0.0
C97 C 0.86375 0.76896 0.016 0.0
O98 O 0.10267 0.83453 0.86616 0.0
C99 C 0.96549 0.17005 0.16303 0.0
O100 O 0.13169 0.08811 0.16289 0.0
O101 O 0.13762 0.00397 0.10999 0.0
C102 C 0.77746 0.0914 0.03845 0.0
O103 O 0.88688 0.90266 0.15908 0.0
O104 O 0.90905 0.99196 0.12105 0.0
C105 C 0.0442 0.85628 0.15254 0.0
O106 O 0.91904 0.14218 0.15253 0.0
O107 O 0.01125 0.15294 0.1366 0.0
C108 C 0.24103 0.85269 0.02761 0.0
O109 O 0.09685 0.86982 0.15132 0.0
O110 O 0.01435 0.86814 0.10415 0.0
C111 C 0.82782 0.94988 0.84578 0.0
O112 O 0.80371 0.96983 0.89777 0.0
C113 C 0.21155 0.01353 0.87878 0.0
O114 O 0.24783 0.01183 0.92567 0.0
H115 H 0.90337 0.3746 0.35438 0.0
H116 H 0.077 0.34968 0.41109 0.0
H117 H 0.09184 0.28009 0.32257 0.0
H118 H 0.05128 0.21729 0.23619 0.0
H119 H 0.87551 0.24112 0.18603 0.0
H120 H 0.86611 0.3207 0.26404 0.0
C121 C 0.94509 0.35566 0.34632 0.0
C122 C 0.98902 0.36749 0.38915 0.0
C123 C 0.95269 0.3146 0.29683 0.0
C124 C 0.04239 0.34113 0.37876 0.0
C125 C 0.0508 0.30115 0.32835 0.0
C126 C 0.01132 0.24066 0.24186 0.0
C127 C 0.96401 0.2227 0.20596 0.0
C128 C 0.00564 0.28599 0.2882 0.0
C129 C 0.91238 0.25333 0.21375 0.0
C130 C 0.9069 0.29905 0.25827 0.0
H131 H 0.74659 0.08036 0.38506 0.0
H132 H 0.62199 0.94579 0.33103 0.0
H133 H 0.68247 0.91538 0.24215 0.0
H134 H 0.77463 0.92098 0.18598 0.0
H135 H 0.89831 0.05704 0.23807 0.0
H136 H 0.83434 0.09375 0.3211 0.0
C137 C 0.73255 0.04489 0.35323 0.0
C138 C 0.68031 0.01481 0.36473 0.0
C139 C 0.76745 0.02793 0.30219 0.0
C140 C 0.66204 0.9695 0.32293 0.0
C141 C 0.69673 0.95193 0.27242 0.0
C142 C 0.7871 0.95916 0.21513 0.0
C143 C 0.84087 0.98653 0.20616 0.0
C144 C 0.75007 0.97984 0.26254 0.0
C145 C 0.85669 0.03612 0.24362 0.0
C146 C 0.82036 0.05662 0.29143 0.0
H147 H 0.00371 0.74762 0.42191 0.0
H148 H 0.85672 0.66595 0.33405 0.0
H149 H 0.88117 0.71837 0.23441 0.0
H150 H 0.94758 0.78561 0.17178 0.0
H151 H 0.08763 0.87213 0.26829 0.0
H152 H 0.0602 0.82204 0.3663 0.0
C153 C 0.97525 0.74256 0.38221 0.0
C154 C 0.92787 0.70319 0.38645 0.0
C155 C 0.98815 0.77425 0.32643 0.0
C156 C 0.89385 0.69545 0.33246 0.0
C157 C 0.90751 0.72587 0.27551 0.0
C158 C 0.97119 0.79426 0.21456 0.0
C159 C 0.02008 0.83177 0.21232 0.0
C160 C 0.95497 0.76522 0.27183 0.0
C161 C 0.05047 0.84254 0.26822 0.0
C162 C 0.03489 0.81394 0.3245 0.0
H163 H 0.25481 0.00307 0.42612 0.0
H164 H 0.40113 0.95455 0.31403 0.0
H165 H 0.34296 0.95397 0.21858 0.0
H166 H 0.25279 0.98048 0.16527 0.0
H167 H 0.10899 0.03251 0.27903 0.0
H168 H 0.1631 0.01605 0.37553 0.0
C169 C 0.2739 0.99054 0.38129 0.0
C170 C 0.33259 0.97937 0.37757 0.0
C171 C 0.24037 0.99087 0.32658 0.0
C172 C 0.35633 0.96441 0.31837 0.0
C173 C 0.32301 0.96384 0.26369 0.0
C174 C 0.23298 0.98609 0.21136 0.0
C175 C 0.17699 0.00735 0.21531 0.0
C176 C 0.26527 0.97882 0.26687 0.0
C177 C 0.15197 0.01584 0.27508 0.0
C178 C 0.18305 0.00696 0.33022 0.0
H179 H 0.89165 0.67934 0.6811 0.0
H180 H 0.04079 0.70321 0.56319 0.0
H181 H 0.09122 0.75162 0.64998 0.0
H182 H 0.0924 0.78957 0.75781 0.0
H183 H 0.94354 0.76872 0.87693 0.0
H184 H 0.89345 0.71714 0.79144 0.0
C185 C 0.93532 0.69474 0.675 0.0
C186 C 0.96258 0.68802 0.61615 0.0
C187 C 0.96393 0.72341 0.72502 0.0
C188 C 0.01901 0.7084 0.60819 0.0
C189 C 0.04783 0.73604 0.65768 0.0
C190 C 0.04906 0.77363 0.76527 0.0
C191 C 0.02182 0.78297 0.82368 0.0
C192 C 0.02058 0.74427 0.71604 0.0
C193 C 0.96555 0.7621 0.83238 0.0
C194 C 0.93686 0.73252 0.78352 0.0
H195 H 0.26871 0.00768 0.58642 0.0
H196 H 0.43332 0.96039 0.65889 0.0
H197 H 0.39472 0.95805 0.76655 0.0
H198 H 0.31614 0.97645 0.84069 0.0
H199 H 0.15153 0.02422 0.76861 0.0
H200 H 0.18793 0.01763 0.66022 0.0
C201 C 0.29596 -0.00447 0.62552 0.0
C202 C 0.35408 0.98456 0.6143 0.0
C203 C 0.27349 -0.00553 0.68752 0.0
C204 C 0.38872 0.96989 0.66601 0.0
C205 C 0.36661 0.96834 0.72766 0.0
C206 C 0.28793 0.98477 0.80134 0.0
C207 C 0.23124 0.00143 0.81305 0.0
C208 C 0.30935 0.98172 0.7391 0.0
C209 C 0.19538 0.0116 0.76123 0.0
C210 C 0.21625 0.00805 0.69912 0.0
H211 H 0.87993 0.32156 0.61431 0.0
H212 H 0.05797 0.36286 0.63496 0.0
H213 H 0.0636 0.28957 0.72312 0.0
H214 H 0.017 0.21351 0.79359 0.0
H215 H 0.83945 0.16943 0.76707 0.0
H216 H 0.83461 0.24346 0.68123 0.0
C217 C 0.91971 0.31489 0.63884 0.0
C218 C 0.96819 0.34803 0.6197 0.0
C219 C 0.92277 0.27176 0.68768 0.0
C220 C 0.02005 0.33819 0.65005 0.0
C221 C 0.02322 0.2962 0.69999 0.0
C222 C 0.97736 0.21989 0.76879 0.0
C223 C 0.92862 0.18616 0.78707 0.0
C224 C 0.97481 0.26254 0.71905 0.0
C225 C 0.87764 0.19475 0.75417 0.0
C226 C 0.87469 0.2373 0.70518 0.0
H227 H 0.72682 0.95049 0.57066 0.0
H228 H 0.62815 0.09657 0.64857 0.0
H229 H 0.67656 0.08512 0.74951 0.0
H230 H 0.74703 0.03329 0.8162 0.0
H231 H 0.84984 0.89259 0.73449 0.0
H232 H 0.80127 0.90438 0.63387 0.0
C233 C 0.71636 0.98081 0.60907 0.0
C234 C 0.67341 0.02426 0.60134 0.0
C235 C 0.74563 0.9754 0.66645 0.0
C236 C 0.65996 0.06177 0.65291 0.0
C237 C 0.68815 0.05575 0.71069 0.0
C238 C 0.75904 0.00548 0.77625 0.0
C239 C 0.80184 0.96185 0.78321 0.0
C240 C 0.73101 0.01262 0.71807 0.0
C241 C 0.81717 0.92659 0.73069 0.0
C242 C 0.78917 0.93304 0.67309 0.0
H243 H 0.29079 0.45338 0.05561 0.0
H244 H 0.43844 0.34631 0.01493 0.0
H245 H 0.37759 0.2582 0.99207 0.0
H246 H 0.28323 0.20956 0.99474 0.0
H247 H 0.13651 0.31499 0.04469 0.0
H248 H 0.19604 0.40638 0.05185 0.0
C249 C 0.30943 0.41107 0.04035 0.0
C250 C 0.3687 0.40599 0.03671 0.0
C251 C 0.2744 0.36042 0.02947 0.0
C252 C 0.39274 0.35085 0.01808 0.0
C253 C 0.35804 0.30064 0.00516 0.0
C254 C 0.2642 0.25278 0.00612 0.0
C255 C 0.20575 0.25567 0.01953 0.0
C256 C 0.29891 0.30453 0.01234 0.0
C257 C 0.18158 0.31172 0.03474 0.0
C258 C 0.21553 0.36389 0.03886 0.0
H259 H 0.40242 0.65884 0.14101 0.0
H260 H 0.41462 0.61062 0.944 0.0
H261 H 0.36615 0.70386 0.91405 0.0
H262 H 0.30594 0.78837 0.94549 0.0
H263 H 0.29015 0.83429 0.14319 0.0
H264 H 0.35582 0.75384 0.17095 0.0
C265 C 0.39614 0.66979 0.09143 0.0
C266 C 0.41117 0.62759 0.04481 0.0
C267 C 0.36694 0.7227 0.07471 0.0
C268 C 0.40253 0.6421 0.98073 0.0
C269 C 0.37474 0.69529 0.96362 0.0
C270 C 0.31781 0.7818 0.99455 0.0
C271 C 0.2919 0.81635 0.04224 0.0
C272 C 0.35439 0.73436 0.01045 0.0
C273 C 0.30872 0.80786 0.10544 0.0
C274 C 0.34609 0.76155 0.1215 0.0
H275 H 0.62752 0.27912 0.165 0.0
H276 H 0.64026 0.3548 0.97664 0.0
H277 H 0.67183 0.25723 0.93576 0.0
H278 H 0.71701 0.16085 0.9586 0.0
H279 H 0.71709 0.09024 0.14967 0.0
H280 H 0.65666 0.17327 0.18407 0.0
C281 C 0.63561 0.27336 0.11479 0.0
C282 C 0.63275 0.32372 0.07383 0.0
C283 C 0.65621 0.21793 0.09228 0.0
C284 C 0.64318 0.31643 0.00887 0.0
C285 C 0.66116 0.26078 0.9856 0.0
C286 C 0.70182 0.1621 0.00721 0.0
C287 C 0.72269 0.12058 0.05189 0.0
C288 C 0.67095 0.2124 0.02749 0.0
C289 C 0.70222 0.1224 0.11459 0.0
C290 C 0.66835 0.17038 0.13446 0.0
H291 H 0.66445 0.57591 0.02482 0.0
H292 H 0.76721 0.49899 0.17179 0.0
H293 H 0.83997 0.57863 0.15416 0.0
H294 H 0.87163 0.67333 0.09934 0.0
H295 H 0.76917 0.74523 0.94822 0.0
H296 H 0.6993 0.66448 0.96471 0.0
C297 C 0.70305 0.57669 0.05254 0.0
C298 C 0.71081 0.53273 0.09972 0.0
C299 C 0.74461 0.62166 0.04139 0.0
C300 C 0.76078 0.5331 0.13537 0.0
C301 C 0.80214 0.57847 0.1253 0.0
C302 C 0.83433 0.67076 0.06965 0.0
C303 C 0.82574 0.71529 0.02271 0.0
C304 C 0.79423 0.62346 0.0788 0.0
C305 C 0.77725 0.71131 0.98437 0.0
C306 C 0.73692 0.66532 0.99393 0.0
loop_
_geom_bond_atom_site_label_1
_geom_bond_atom_site_label_2
_geom_bond_distance
_geom_bond_site_symmetry_2
_ccdc_geom_bond_type
H0 C8 0.930 . S
H1 C11 0.930 . S
H2 C13 0.930 . S
H3 C14 0.970 . S
H4 C14 0.970 . S
H5 C16 0.930 . S
H6 C18 0.930 . S
H7 C20 0.930 . S
C8 H0 0.930 . S
C8 C9 1.382 . S
C8 C10 1.426 . S
C9 C8 1.382 . S
C9 C13 1.389 1_655 S
C10 C8 1.426 . S
C10 C11 1.375 . S
C10 C14 1.532 . S
C11 H1 0.930 . S
C11 C10 1.375 . S
C11 C12 1.416 . S
C12 C11 1.416 . S
C12 C13 1.371 1_655 S
C13 H2 0.930 . S
C13 C9 1.389 1_455 S
C13 C12 1.371 1_455 S
C14 H3 0.970 . S
C14 H4 0.970 . S
C14 C10 1.532 . S
C14 C15 1.499 . S
C15 C14 1.499 . S
C15 C16 1.370 . S
C15 C20 1.415 . S
C16 H5 0.930 . S
C16 C15 1.370 . S
C16 C17 1.407 . S
C17 C16 1.407 . S
C17 C18 1.365 1_655 S
C18 H6 0.930 . S
C18 C17 1.365 1_455 S
C18 C19 1.393 1_455 S
C19 C18 1.393 1_655 S
C19 C20 1.387 . S
C20 H7 0.930 . S
C20 C15 1.415 . S
C20 C19 1.387 . S
H21 C29 0.930 . S
H22 C32 0.930 . S
H23 C34 0.930 . S
H24 C35 0.970 . S
H25 C35 0.970 . S
H26 C37 0.930 . S
H27 C39 0.930 . S
H28 C41 0.930 . S
C29 H21 0.930 . S
C29 C30 1.382 . S
C29 C31 1.426 . S
C30 C29 1.382 . S
C30 C34 1.389 1_545 S
C31 C29 1.426 . S
C31 C32 1.375 . S
C31 C35 1.532 . S
C32 H22 0.930 . S
C32 C31 1.375 . S
C32 C33 1.416 . S
C33 C32 1.416 . S
C33 C34 1.371 1_545 S
C34 H23 0.930 . S
C34 C30 1.389 1_565 S
C34 C33 1.371 1_565 S
C35 H24 0.970 . S
C35 H25 0.970 . S
C35 C31 1.532 . S
C35 C36 1.499 . S
C36 C35 1.499 . S
C36 C37 1.370 . S
C36 C41 1.415 . S
C37 H26 0.930 . S
C37 C36 1.370 . S
C37 C38 1.407 . S
C38 C37 1.407 . S
C38 C39 1.365 1_545 S
C39 H27 0.930 . S
C39 C38 1.365 1_565 S
C39 C40 1.393 1_565 S
C40 C39 1.393 1_545 S
C40 C41 1.387 . S
C41 H28 0.930 . S
C41 C36 1.415 . S
C41 C40 1.387 . S
H42 C50 0.930 . S
H43 C53 0.930 . S
H44 C55 0.930 1_556 S
H45 C56 0.970 . S
H46 C56 0.970 . S
H47 C58 0.930 . S
H48 C60 0.930 1_556 S
H49 C62 0.930 . S
C50 H42 0.930 . S
C50 C51 1.382 . S
C50 C52 1.426 . S
C51 C50 1.382 . S
C51 C55 1.389 . S
C52 C50 1.426 . S
C52 C53 1.375 . S
C52 C56 1.532 . S
C53 H43 0.930 . S
C53 C52 1.375 . S
C53 C54 1.416 . S
C54 C53 1.416 . S
C54 C55 1.371 . S
C55 H44 0.930 1_554 S
C55 C51 1.389 . S
C55 C54 1.371 . S
C56 H45 0.970 . S
C56 H46 0.970 . S
C56 C52 1.532 . S
C56 C57 1.499 . S
C57 C56 1.499 . S
C57 C58 1.370 . S
C57 C62 1.415 . S
C58 H47 0.930 . S
C58 C57 1.370 . S
C58 C59 1.407 . S
C59 C58 1.407 . S
C59 C60 1.365 . S
C60 H48 0.930 1_554 S
C60 C59 1.365 . S
C60 C61 1.393 . S
C61 C60 1.393 . S
C61 C62 1.387 . S
C62 H49 0.930 . S
C62 C57 1.415 . S
C62 C61 1.387 . S
Zn63 O65 1.933 1_556 S
Zn63 O83 1.985 . S
Zn63 O94 1.955 . S
Zn64 O65 1.911 . S
Zn64 O84 1.970 . S
Zn64 O100 1.945 . S
Zn64 O107 1.981 . S
O65 Zn63 1.933 1_554 S
O65 Zn64 1.911 . S
O65 H66 0.841 . S
H66 O65 0.841 . S
C67 O68 1.246 . S
C67 O96 1.276 1_455 S
O68 C67 1.246 . S
Zn69 O71 1.911 . S
Zn69 O86 1.970 . S
Zn69 O103 1.945 . S
Zn69 O110 1.981 . S
Zn70 O71 1.933 1_556 S
Zn70 O85 1.985 . S
Zn70 O92 1.955 . S
O71 Zn69 1.911 . S
O71 Zn70 1.933 1_554 S
O71 H72 0.841 . S
H72 O71 0.841 . S
Zn73 O74 1.933 1_556 S
Zn73 O87 1.985 . S
Zn73 O96 1.955 . S
O74 Zn73 1.933 1_554 S
O74 Zn75 1.911 . S
O74 H76 0.841 . S
Zn75 O74 1.911 . S
Zn75 O88 1.970 . S
Zn75 O104 1.981 . S
Zn75 O106 1.945 . S
H76 O74 0.841 . S
Zn77 O78 1.933 1_556 S
Zn77 O90 1.985 . S
Zn77 O98 1.955 . S
O78 Zn77 1.933 1_554 S
O78 H79 0.841 . S
O78 Zn80 1.911 . S
H79 O78 0.841 . S
Zn80 O78 1.911 . S
Zn80 O91 1.970 . S
Zn80 O101 1.981 . S
Zn80 O109 1.945 . S
C81 O82 1.246 . S
C81 O98 1.276 1_655 S
O82 C81 1.246 . S
O83 Zn63 1.985 . S
O83 C93 1.245 1_556 S
O84 Zn64 1.970 . S
O84 C93 1.263 . S
O85 Zn70 1.985 . S
O85 C97 1.245 1_556 S
O86 Zn69 1.970 . S
O86 C97 1.263 . S
O87 Zn73 1.985 . S
O87 C102 1.245 1_556 S
O88 Zn75 1.970 . S
O88 C102 1.263 . S
C89 O100 1.262 . S
C89 O101 1.245 1_545 S
O90 Zn77 1.985 . S
O90 C108 1.245 1_556 S
O91 Zn80 1.970 . S
O91 C108 1.263 . S
O92 Zn70 1.955 . S
O92 C111 1.276 1_565 S
C93 O83 1.245 1_554 S
C93 O84 1.263 . S
O94 Zn63 1.955 . S
O94 C113 1.276 1_545 S
C95 O103 1.266 . S
C95 O104 1.242 1_565 S
O96 C67 1.276 1_655 S
O96 Zn73 1.955 . S
C97 O85 1.245 1_554 S
C97 O86 1.263 . S
O98 Zn77 1.955 . S
O98 C81 1.276 1_455 S
C99 O106 1.264 . S
C99 O107 1.244 1_655 S
O100 Zn64 1.945 . S
O100 C89 1.262 . S
O101 Zn80 1.981 . S
O101 C89 1.245 1_565 S
C102 O87 1.245 1_554 S
C102 O88 1.263 . S
O103 Zn69 1.945 . S
O103 C95 1.266 . S
O104 Zn75 1.981 . S
O104 C95 1.242 1_545 S
C105 O109 1.264 1_655 S
C105 O110 1.243 . S
O106 Zn75 1.945 . S
O106 C99 1.264 . S
O107 Zn64 1.981 . S
O107 C99 1.244 1_455 S
C108 O90 1.245 1_554 S
C108 O91 1.263 . S
O109 Zn80 1.945 . S
O109 C105 1.264 1_455 S
O110 Zn69 1.981 . S
O110 C105 1.243 . S
C111 O92 1.276 1_545 S
C111 O112 1.246 . S
O112 C111 1.246 . S
C113 O94 1.276 1_565 S
C113 O114 1.246 . S
O114 C113 1.246 . S
H115 C121 0.930 . S
H116 C124 0.930 . S
H117 C125 0.930 . S
H118 C126 0.930 . S
H119 C129 0.930 . S
H120 C130 0.930 . S
C121 H115 0.930 . S
C121 C122 1.355 1_655 S
C121 C123 1.415 . S
C122 C121 1.355 1_455 S
C122 C124 1.419 . S
C123 C121 1.415 . S
C123 C128 1.425 1_655 S
C123 C130 1.409 . S
C124 H116 0.930 . S
C124 C122 1.419 . S
C124 C125 1.362 . S
C125 H117 0.930 . S
C125 C124 1.362 . S
C125 C128 1.409 . S
C126 H118 0.930 . S
C126 C127 1.355 . S
C126 C128 1.415 . S
C127 C126 1.355 . S
C127 C129 1.419 1_455 S
C128 C123 1.425 1_455 S
C128 C125 1.409 . S
C128 C126 1.415 . S
C129 H119 0.930 . S
C129 C127 1.419 1_655 S
C129 C130 1.362 . S
C130 H120 0.930 . S
C130 C123 1.409 . S
C130 C129 1.362 . S
H131 C137 0.930 . S
H132 C140 0.930 . S
H133 C141 0.930 . S
H134 C142 0.930 . S
H135 C145 0.930 . S
H136 C146 0.930 . S
C137 H131 0.930 . S
C137 C138 1.355 1_545 S
C137 C139 1.415 . S
C138 C137 1.355 1_565 S
C138 C140 1.419 . S
C139 C137 1.415 . S
C139 C144 1.425 1_545 S
C139 C146 1.409 . S
C140 H132 0.930 . S
C140 C138 1.419 . S
C140 C141 1.362 . S
C141 H133 0.930 . S
C141 C140 1.362 . S
C141 C144 1.409 . S
C142 H134 0.930 . S
C142 C143 1.355 1_565 S
C142 C144 1.415 . S
C143 C142 1.355 1_545 S
C143 C145 1.419 . S
C144 C139 1.425 1_565 S
C144 C141 1.409 . S
C144 C142 1.415 . S
C145 H135 0.930 . S
C145 C143 1.419 . S
C145 C146 1.362 . S
C146 H136 0.930 . S
C146 C139 1.409 . S
C146 C145 1.362 . S
H147 C153 0.930 . S
H148 C156 0.930 . S
H149 C157 0.930 . S
H150 C158 0.930 . S
H151 C161 0.930 . S
H152 C162 0.930 . S
C153 H147 0.930 . S
C153 C154 1.355 1_455 S
C153 C155 1.415 . S
C154 C153 1.355 1_655 S
C154 C156 1.419 . S
C155 C153 1.415 . S
C155 C160 1.425 1_455 S
C155 C162 1.409 . S
C156 H148 0.930 . S
C156 C154 1.419 . S
C156 C157 1.362 . S
C157 H149 0.930 . S
C157 C156 1.362 . S
C157 C160 1.409 . S
C158 H150 0.930 . S
C158 C159 1.355 . S
C158 C160 1.415 . S
C159 C158 1.355 . S
C159 C161 1.419 1_655 S
C160 C155 1.425 1_655 S
C160 C157 1.409 . S
C160 C158 1.415 . S
C161 H151 0.930 . S
C161 C159 1.419 1_455 S
C161 C162 1.362 . S
C162 H152 0.930 . S
C162 C155 1.409 . S
C162 C161 1.362 . S
H163 C169 0.930 . S
H164 C172 0.930 . S
H165 C173 0.930 . S
H166 C174 0.930 . S
H167 C177 0.930 . S
H168 C178 0.930 . S
C169 H163 0.930 . S
C169 C170 1.355 1_545 S
C169 C171 1.415 . S
C170 C169 1.355 1_565 S
C170 C172 1.419 . S
C171 C169 1.415 . S
C171 C176 1.425 1_545 S
C171 C178 1.409 . S
C172 H164 0.930 . S
C172 C170 1.419 . S
C172 C173 1.362 . S
C173 H165 0.930 . S
C173 C172 1.362 . S
C173 C176 1.409 . S
C174 H166 0.930 . S
C174 C175 1.355 . S
C174 C176 1.415 . S
C175 C174 1.355 . S
C175 C177 1.419 1_565 S
C176 C171 1.425 1_565 S
C176 C173 1.409 . S
C176 C174 1.415 . S
C177 H167 0.930 . S
C177 C175 1.419 1_545 S
C177 C178 1.362 . S
C178 H168 0.930 . S
C178 C171 1.409 . S
C178 C177 1.362 . S
H179 C185 0.930 . S
H180 C188 0.930 . S
H181 C189 0.930 . S
H182 C190 0.930 . S
H183 C193 0.930 . S
H184 C194 0.930 . S
C185 H179 0.930 . S
C185 C186 1.358 . S
C185 C187 1.415 . S
C186 C185 1.358 . S
C186 C188 1.415 1_655 S
C187 C185 1.415 . S
C187 C192 1.425 1_655 S
C187 C194 1.409 . S
C188 H180 0.930 . S
C188 C186 1.415 1_455 S
C188 C189 1.362 . S
C189 H181 0.930 . S
C189 C188 1.362 . S
C189 C192 1.409 . S
C190 H182 0.930 . S
C190 C191 1.355 1_455 S
C190 C192 1.415 . S
C191 C190 1.355 1_655 S
C191 C193 1.419 . S
C192 C187 1.425 1_455 S
C192 C189 1.409 . S
C192 C190 1.415 . S
C193 H183 0.930 . S
C193 C191 1.419 . S
C193 C194 1.362 . S
C194 H184 0.930 . S
C194 C187 1.409 . S
C194 C193 1.362 . S
H195 C201 0.930 . S
H196 C204 0.930 . S
H197 C205 0.930 . S
H198 C206 0.930 . S
H199 C209 0.930 . S
H200 C210 0.930 1_545 S
C201 H195 0.930 . S
C201 C202 1.355 1_545 S
C201 C203 1.415 1_545 S
C202 C201 1.355 1_565 S
C202 C204 1.419 . S
C203 C201 1.415 1_565 S
C203 C208 1.425 . S
C203 C210 1.409 . S
C204 H196 0.930 . S
C204 C202 1.419 . S
C204 C205 1.362 . S
C205 H197 0.930 . S
C205 C204 1.362 . S
C205 C208 1.409 . S
C206 H198 0.930 . S
C206 C207 1.355 . S
C206 C208 1.415 . S
C207 C206 1.355 . S
C207 C209 1.419 . S
C208 C203 1.425 . S
C208 C205 1.409 . S
C208 C206 1.415 . S
C209 H199 0.930 . S
C209 C207 1.419 . S
C209 C210 1.362 . S
C210 H200 0.930 1_565 S
C210 C203 1.409 . S
C210 C209 1.362 . S
H211 C217 0.930 . S
H212 C220 0.930 . S
H213 C221 0.930 . S
H214 C222 0.930 . S
H215 C225 0.930 . S
H216 C226 0.930 . S
C217 H211 0.930 . S
C217 C218 1.355 1_655 S
C217 C219 1.415 . S
C218 C217 1.355 1_455 S
C218 C220 1.419 . S
C219 C217 1.415 . S
C219 C224 1.425 1_655 S
C219 C226 1.409 . S
C220 H212 0.930 . S
C220 C218 1.419 . S
C220 C221 1.362 . S
C221 H213 0.930 . S
C221 C220 1.362 . S
C221 C224 1.409 . S
C222 H214 0.930 . S
C222 C223 1.355 . S
C222 C224 1.415 . S
C223 C222 1.355 . S
C223 C225 1.419 1_455 S
C224 C219 1.425 1_455 S
C224 C221 1.409 . S
C224 C222 1.415 . S
C225 H215 0.930 . S
C225 C223 1.419 1_655 S
C225 C226 1.362 . S
C226 H216 0.930 . S
C226 C219 1.409 . S
C226 C225 1.362 . S
H227 C233 0.930 . S
H228 C236 0.930 . S
H229 C237 0.930 . S
H230 C238 0.930 . S
H231 C241 0.930 . S
H232 C242 0.930 . S
C233 H227 0.930 . S
C233 C234 1.355 1_565 S
C233 C235 1.415 . S
C234 C233 1.355 1_545 S
C234 C236 1.419 . S
C235 C233 1.415 . S
C235 C240 1.425 1_565 S
C235 C242 1.409 . S
C236 H228 0.930 . S
C236 C234 1.419 . S
C236 C237 1.362 . S
C237 H229 0.930 . S
C237 C236 1.362 . S
C237 C240 1.409 . S
C238 H230 0.930 . S
C238 C239 1.355 . S
C238 C240 1.415 . S
C239 C238 1.355 . S
C239 C241 1.419 1_545 S
C240 C235 1.425 1_545 S
C240 C237 1.409 . S
C240 C238 1.415 . S
C241 H231 0.930 . S
C241 C239 1.419 1_565 S
C241 C242 1.362 . S
C242 H232 0.930 . S
C242 C235 1.409 . S
C242 C241 1.362 . S
H243 C249 0.930 1_556 S
H244 C252 0.930 . S
H245 C253 0.930 . S
H246 C254 0.930 . S
H247 C257 0.930 . S
H248 C258 0.930 . S
C249 H243 0.930 1_554 S
C249 C250 1.355 . S
C249 C251 1.415 . S
C250 C249 1.355 . S
C250 C252 1.419 . S
C251 C249 1.415 . S
C251 C256 1.425 . S
C251 C258 1.409 1_554 S
C252 H244 0.930 . S
C252 C250 1.419 . S
C252 C253 1.362 . S
C253 H245 0.930 . S
C253 C252 1.362 . S
C253 C256 1.409 . S
C254 H246 0.930 . S
C254 C255 1.355 . S
C254 C256 1.415 . S
C255 C254 1.355 . S
C255 C257 1.419 1_554 S
C256 C251 1.425 . S
C256 C253 1.409 . S
C256 C254 1.415 . S
C257 H247 0.930 . S
C257 C255 1.419 1_556 S
C257 C258 1.362 . S
C258 H248 0.930 . S
C258 C251 1.409 1_556 S
C258 C257 1.362 . S
H259 C265 0.930 . S
H260 C268 0.930 . S
H261 C269 0.930 . S
H262 C270 0.930 . S
H263 C273 0.930 . S
H264 C274 0.930 . S
C265 H259 0.930 . S
C265 C266 1.355 . S
C265 C267 1.415 . S
C266 C265 1.355 . S
C266 C268 1.419 1_554 S
C267 C265 1.415 . S
C267 C272 1.425 . S
C267 C274 1.409 . S
C268 H260 0.930 . S
C268 C266 1.419 1_556 S
C268 C269 1.362 . S
C269 H261 0.930 . S
C269 C268 1.362 . S
C269 C272 1.409 1_556 S
C270 H262 0.930 . S
C270 C271 1.355 1_556 S
C270 C272 1.415 1_556 S
C271 C270 1.355 1_554 S
C271 C273 1.419 . S
C272 C267 1.425 . S
C272 C269 1.409 1_554 S
C272 C270 1.415 1_554 S
C273 H263 0.930 . S
C273 C271 1.419 . S
C273 C274 1.362 . S
C274 H264 0.930 . S
C274 C267 1.409 . S
C274 C273 1.362 . S
H275 C281 0.930 . S
H276 C284 0.930 . S
H277 C285 0.930 . S
H278 C286 0.930 . S
H279 C289 0.930 . S
H280 C290 0.930 . S
C281 H275 0.930 . S
C281 C282 1.355 . S
C281 C283 1.415 . S
C282 C281 1.355 . S
C282 C284 1.419 1_554 S
C283 C281 1.415 . S
C283 C288 1.425 1_554 S
C283 C290 1.409 . S
C284 H276 0.930 . S
C284 C282 1.419 1_556 S
C284 C285 1.362 . S
C285 H277 0.930 . S
C285 C284 1.362 . S
C285 C288 1.409 . S
C286 H278 0.930 . S
C286 C287 1.355 1_556 S
C286 C288 1.415 . S
C287 C286 1.355 1_554 S
C287 C289 1.419 . S
C288 C283 1.425 1_556 S
C288 C285 1.409 . S
C288 C286 1.415 . S
C289 H279 0.930 . S
C289 C287 1.419 . S
C289 C290 1.362 . S
C290 H280 0.930 . S
C290 C283 1.409 . S
C290 C289 1.362 . S
H291 C297 0.930 . S
H292 C300 0.930 . S
H293 C301 0.930 . S
H294 C302 0.930 1_556 S
H295 C305 0.930 . S
H296 C306 0.930 . S
C297 H291 0.930 . S
C297 C298 1.355 . S
C297 C299 1.415 . S
C298 C297 1.355 . S
C298 C300 1.419 1_554 S
C299 C297 1.415 . S
C299 C304 1.425 . S
C299 C306 1.409 . S
C300 H292 0.930 . S
C300 C298 1.419 1_556 S
C300 C301 1.362 . S
C301 H293 0.930 . S
C301 C300 1.362 . S
C301 C304 1.409 1_556 S
C302 H294 0.930 1_554 S
C302 C303 1.355 . S
C302 C304 1.415 . S
C303 C302 1.355 . S
C303 C305 1.419 . S
C304 C299 1.425 . S
C304 C301 1.409 1_554 S
C304 C302 1.415 . S
C305 H295 0.930 . S
C305 C303 1.419 . S
C305 C306 1.362 . S
C306 H296 0.930 . S
C306 C299 1.409 . S
C306 C305 1.362 . S
C127 C99 1.295 1_455 S
C122 C9 1.392 1_455 S
C143 C95 1.691 1_545 S
C138 C38 1.720 1_565 S
C159 C105 1.317 . S
C154 C17 1.353 . S
C175 C89 1.605 1_565 S
C170 C30 1.710 1_565 S
C186 C19 1.490 . S
C191 C81 1.444 . S
C207 C113 1.772 . S
C202 C33 1.811 1_565 S
C218 C12 1.512 1_455 S
C223 C67 1.411 . S
C234 C40 1.805 . S
C239 C111 1.735 . S
C250 C59 1.386 . S
C255 C93 1.420 . S
C266 C61 1.446 . S
C271 C108 1.362 . S
C287 C102 1.422 . S
C282 C51 1.430 . S
C303 C97 1.369 . S
C298 C54 1.360 . S
