# Generated by pormake.
# Topology anh, (6,3)-cn, num edge types: 1
# Building blocks:
#     Node 0, Type 0, BuildingBlock: NUHQIS_clean_sbu_0, # of connection points: 6
#     Node 1, Type 0, BuildingBlock: NUHQIS_clean_sbu_0, # of connection points: 6
#     Node 2, Type 0, BuildingBlock: NUHQIS_clean_sbu_0, # of connection points: 6
#     Node 3, Type 1, BuildingBlock: ESEHIV_clean_linker_0, # of connection points: 3
#     Node 4, Type 1, BuildingBlock: ESEHIV_clean_linker_0, # of connection points: 3
#     Node 5, Type 1, BuildingBlock: ESEHIV_clean_linker_0, # of connection points: 3
#     Node 6, Type 1, BuildingBlock: ESEHIV_clean_linker_0, # of connection points: 3
#     Node 7, Type 1, BuildingBlock: ESEHIV_clean_linker_0, # of connection points: 3
#     Node 8, Type 1, BuildingBlock: ESEHIV_clean_linker_0, # of connection points: 3
#     Edge 9, Type (0, 1), BuildingBlock: AJUNOK_clean_linker_0, # of connection points: 2
#     Edge 10, Type (0, 1), BuildingBlock: AJUNOK_clean_linker_0, # of connection points: 2
#     Edge 11, Type (0, 1), BuildingBlock: AJUNOK_clean_linker_0, # of connection points: 2
#     Edge 12, Type (0, 1), BuildingBlock: AJUNOK_clean_linker_0, # of connection points: 2
#     Edge 13, Type (0, 1), BuildingBlock: AJUNOK_clean_linker_0, # of connection points: 2
#     Edge 14, Type (0, 1), BuildingBlock: AJUNOK_clean_linker_0, # of connection points: 2
#     Edge 15, Type (0, 1), BuildingBlock: AJUNOK_clean_linker_0, # of connection points: 2
#     Edge 16, Type (0, 1), BuildingBlock: AJUNOK_clean_linker_0, # of connection points: 2
#     Edge 17, Type (0, 1), BuildingBlock: AJUNOK_clean_linker_0, # of connection points: 2
#     Edge 18, Type (0, 1), BuildingBlock: AJUNOK_clean_linker_0, # of connection points: 2
#     Edge 19, Type (0, 1), BuildingBlock: AJUNOK_clean_linker_0, # of connection points: 2
#     Edge 20, Type (0, 1), BuildingBlock: AJUNOK_clean_linker_0, # of connection points: 2
#     Edge 21, Type (0, 1), BuildingBlock: AJUNOK_clean_linker_0, # of connection points: 2
#     Edge 22, Type (0, 1), BuildingBlock: AJUNOK_clean_linker_0, # of connection points: 2
#     Edge 23, Type (0, 1), BuildingBlock: AJUNOK_clean_linker_0, # of connection points: 2
#     Edge 24, Type (0, 1), BuildingBlock: AJUNOK_clean_linker_0, # of connection points: 2
#     Edge 25, Type (0, 1), BuildingBlock: AJUNOK_clean_linker_0, # of connection points: 2
#     Edge 26, Type (0, 1), BuildingBlock: AJUNOK_clean_linker_0, # of connection points: 2
# Relax obj value: 0.438
# Max RMSD: 0.219
# Mean RMSD: 0.179
data_MOF--net-anh--node1-NUHQIS_clean_sbu_0--node2-ESEHIV_clean_linker_0--edge1-AJUNOK_clean_linker_0
_symmetry_space_group_name_H-M    P1
_symmetry_Int_Tables_number       1
_symmetry_cell_setting            triclinic
loop_
_symmetry_equiv_pos_as_xyz
'x, y, z'
_cell_length_a     19.532625
_cell_length_b     19.588542
_cell_length_c     37.974635
_cell_angle_alpha  89.635702
_cell_angle_beta   90.719314
_cell_angle_gamma 119.63585
loop_
_atom_site_label
_atom_site_type_symbol
_atom_site_fract_x
_atom_site_fract_y
_atom_site_fract_z
_atom_type_partial_charge
Tb0 Tb 0.37183 0.73519 0.19312 0.0
Eu1 Eu 0.28379 0.83039 0.168 0.0
C2 C 0.30497 0.80748 0.24695 0.0
C3 C 1.18154 0.64016 0.19195 0.0
C4 C 0.41858 0.5768 0.19918 0.0
C5 C 0.46465 0.48374 0.1924 0.0
C6 C 0.47014 0.54967 0.2089 0.0
C7 C 0.35647 0.53309 0.17541 0.0
C8 C 0.35096 0.46704 0.15883 0.0
C9 C 0.40795 0.44469 0.1657 0.0
C10 C 0.43595 0.65539 0.20998 0.0
O11 O 0.3378 0.70411 0.13698 0.0
O12 O 0.33606 0.81405 0.11888 0.0
O13 O 0.40807 0.9276 0.18419 0.0
O14 O 0.47261 0.85678 0.18884 0.0
C15 C 0.33741 0.74979 0.11134 0.0
O16 O 1.20718 0.85 0.13223 0.0
O17 O 0.26171 0.92784 0.17681 0.0
O18 O 0.25246 0.79643 0.22312 0.0
O19 O 0.36493 0.79722 0.23991 0.0
O20 O 0.24839 0.64231 0.19998 0.0
O21 O 1.1815 0.70271 0.17793 0.0
C22 C 0.47403 0.92513 0.18901 0.0
O23 O 0.46109 0.7075 0.18476 0.0
O24 O 0.38233 0.65854 0.22885 0.0
C25 C 1.12703 0.88132 0.16527 0.0
C26 C 0.97087 0.7679 0.17688 0.0
C27 C 0.99079 0.81391 0.1462 0.0
C28 C 1.06912 0.87052 0.14031 0.0
C29 C 1.10383 0.84672 0.19876 0.0
C30 C 1.0256 0.79029 0.20458 0.0
C31 C 1.206 0.90267 0.15284 0.0
H32 H 0.50995 0.46843 0.19798 0.0
H33 H 0.51816 0.5827 0.22728 0.0
H34 H 0.31582 0.55329 0.16779 0.0
H35 H 0.30668 0.43785 0.13845 0.0
H36 H 0.94897 0.79738 0.12452 0.0
H37 H 1.08569 0.8968 0.1144 0.0
H38 H 1.14713 0.85436 0.21868 0.0
H39 H 1.01087 0.75631 0.22863 0.0
Tb40 Tb 0.9294 0.26129 0.52002 0.0
Eu41 Eu 0.74092 0.1875 0.51991 0.0
C42 C 0.83619 0.22084 0.5869 0.0
C43 C 0.82285 1.07285 0.52367 0.0
C44 C 1.11548 0.40084 0.49204 0.0
C45 C 1.10247 0.51473 0.4783 0.0
C46 C 1.12067 0.47202 0.50243 0.0
C47 C 1.11342 0.38554 0.45573 0.0
C48 C 1.09368 0.42727 0.4317 0.0
C49 C 1.08138 0.48796 0.44347 0.0
C50 C 1.07584 0.33264 0.51597 0.0
O51 O 0.8975 0.26704 0.46458 0.0
O52 O 0.76329 0.18321 0.4621 0.0
O53 O 0.78361 0.31763 0.5116 0.0
O54 O 0.91258 0.36579 0.52837 0.0
C55 C 0.83118 0.22681 0.44645 0.0
O56 O 0.6252 0.17 0.50568 0.0
O57 O 0.64261 1.1263 0.55593 0.0
O58 O 0.80642 0.25438 0.56759 0.0
O59 O 0.88562 0.20527 0.57113 0.0
O60 O 0.89234 1.13532 0.51811 0.0
O61 O 0.75877 1.07972 0.52628 0.0
C62 C 0.85226 0.37743 0.521 0.0
O63 O 1.03903 0.34185 0.54252 0.0
O64 O 1.03119 0.26598 0.49998 0.0
C65 C 0.51255 1.06968 0.5335 0.0
C66 C 0.35259 0.96452 0.52149 0.0
C67 C 0.41038 0.95559 0.50361 0.0
C68 C 0.49013 1.00816 0.50951 0.0
C69 C 0.45542 1.07445 0.55366 0.0
C70 C 0.37563 1.02211 0.54767 0.0
C71 C 0.59341 1.13449 0.53522 0.0
H72 H 1.09815 0.56463 0.48761 0.0
H73 H 1.12612 0.48793 0.53001 0.0
H74 H 1.11303 0.33306 0.44657 0.0
H75 H 1.08048 0.40673 0.40486 0.0
H76 H 0.39387 0.9119 0.48307 0.0
H77 H 0.53385 1.00371 0.49392 0.0
H78 H 0.47232 1.12156 0.57252 0.0
H79 H 0.33201 1.02969 0.56181 0.0
Tb80 Tb 0.84514 0.73336 0.85937 0.0
Eu81 Eu 0.74412 0.54833 0.84079 0.0
C82 C 0.78855 0.60505 0.91733 0.0
C83 C 0.93929 0.63909 0.85596 0.0
C84 C 0.86529 0.92343 0.87428 0.0
C85 C 0.74206 0.92373 0.88215 0.0
C86 C 0.79577 0.90059 0.89335 0.0
C87 C 0.88556 0.97939 0.84738 0.0
C88 C 0.83195 1.00289 0.83632 0.0
C89 C 0.75768 0.97066 0.8521 0.0
C90 C 0.90474 0.87573 0.87625 0.0
O91 O 0.82846 0.73261 0.80131 0.0
O92 O 0.77185 0.60166 0.7873 0.0
O93 O 0.65133 0.58776 0.83736 0.0
O94 O 0.72106 0.70105 0.86903 0.0
C95 C 0.80268 0.67523 0.7778 0.0
O96 O 0.65537 0.43277 0.85928 0.0
O97 O 0.7154 0.44335 0.81036 0.0
O98 O 0.7283 0.56584 0.89679 0.0
O99 O 0.84989 0.66913 0.90601 0.0
O100 O 0.94156 0.70744 0.85296 0.0
O101 O 0.87059 0.57242 0.85502 0.0
C102 C 0.6534 0.64585 0.85571 0.0
O103 O 0.87601 0.81839 0.89891 0.0
O104 O 0.91686 0.85249 0.84602 0.0
C105 C 0.58318 0.34241 0.81476 0.0
C106 C 0.45358 0.23056 0.7755 0.0
C107 C 0.48515 0.31126 0.76855 0.0
C108 C 0.54992 0.36696 0.78802 0.0
C109 C 0.54627 0.26336 0.82445 0.0
C110 C 0.48187 0.20784 0.80511 0.0
C111 C 0.65883 0.39689 0.83131 0.0
H112 H 0.68542 0.8992 0.8949 0.0
H113 H 0.77889 0.85862 0.91471 0.0
H114 H 0.93897 0.99849 0.83249 0.0
H115 H 0.84519 1.0395 0.81308 0.0
H116 H 0.46456 0.33064 0.74606 0.0
H117 H 0.57697 0.42842 0.78078 0.0
H118 H 0.57059 0.24379 0.84544 0.0
H119 H 0.46036 0.1465 0.81116 0.0
H120 H 0.72874 0.15604 0.28535 0.0
H121 H 0.94207 0.37883 0.29072 0.0
H122 H 0.82981 0.28639 0.18974 0.0
C123 C 0.77429 0.20728 0.27202 0.0
C124 C 0.77041 0.21225 0.2351 0.0
C125 C 0.83559 0.2664 0.29221 0.0
C126 C 0.89518 0.33327 0.27501 0.0
C127 C 0.89508 0.34278 0.23801 0.0
C128 C 0.83168 0.28093 0.21807 0.0
H129 H 0.81405 0.81922 0.61926 0.0
H130 H 0.84764 0.61804 0.61828 0.0
H131 H 0.84235 0.72853 0.52039 0.0
C132 C 0.82418 0.77757 0.60479 0.0
C133 C 0.82881 0.78315 0.5677 0.0
C134 C 0.83116 0.71872 0.62341 0.0
C135 C 0.84243 0.66357 0.60416 0.0
C136 C 0.8461 0.66502 0.56706 0.0
C137 C 0.8395 0.7259 0.54886 0.0
H138 H 1.20033 0.67164 0.9543 0.0
H139 H 0.41753 0.66741 0.95781 0.0
H140 H 0.29407 0.63476 0.85831 0.0
C141 C 0.24503 0.6648 0.94067 0.0
C142 C 0.23688 0.65015 0.90408 0.0
C143 C 0.30932 0.67021 0.96013 0.0
C144 C 0.36811 0.66255 0.94248 0.0
C145 C 0.36557 0.65104 0.90557 0.0
C146 C 0.29791 0.64322 0.88656 0.0
H147 H 1.04728 0.72539 0.33141 0.0
H148 H 1.21324 0.91228 0.39648 0.0
H149 H 1.01532 0.71979 0.44383 0.0
C150 C 1.06314 0.75245 0.35714 0.0
C151 C 1.0249 0.70891 0.38724 0.0
C152 C 1.13491 0.82235 0.36091 0.0
C153 C 1.15561 0.86055 0.39331 0.0
C154 C 1.10921 0.82487 0.42294 0.0
C155 C 1.04322 0.74978 0.4197 0.0
H156 H 0.50842 1.04409 0.65557 0.0
H157 H 0.66631 0.9998 0.71832 0.0
H158 H 0.4639 0.98593 0.76581 0.0
C159 C 0.52095 1.02339 0.68003 0.0
C160 C 0.47428 1.01289 0.70977 0.0
C161 C 0.59234 1.0225 0.68338 0.0
C162 C 0.60986 0.9973 0.71492 0.0
C163 C 0.56143 0.98126 0.74409 0.0
C164 C 0.49427 0.98917 0.74167 0.0
H165 H 0.60465 0.38691 0.03849 0.0
H166 H 0.83742 0.53986 0.07755 0.0
H167 H 0.64834 0.42429 0.15016 0.0
C168 C 0.64549 0.40958 0.06057 0.0
C169 C 0.61638 0.39629 0.09513 0.0
C170 C 0.72535 0.46258 0.05438 0.0
C171 C 0.77705 0.49549 0.08283 0.0
C172 C 0.74979 0.48087 0.11749 0.0
C173 C 0.66987 0.4298 0.12353 0.0
C174 C 0.44447 0.34277 0.15165 0.0
C175 C 0.42389 0.39839 0.13972 0.0
C176 C 0.49748 0.3289 0.13269 0.0
C177 C 0.5326 0.37178 0.10188 0.0
H178 H 0.42794 0.31792 0.1778 0.0
H179 H 0.52016 0.294 0.1449 0.0
S180 S 0.47771 0.50422 0.0544 0.0
N181 N 0.42607 0.48021 0.09091 0.0
N182 N 0.52642 0.45547 0.0557 0.0
C183 C 0.50037 0.41533 0.08647 0.0
C184 C 0.44585 0.42871 0.10553 0.0
C185 C 0.98255 0.53257 0.43579 0.0
C186 C 1.04119 0.51992 0.4211 0.0
C187 C 0.95793 0.58041 0.41878 0.0
C188 C 0.9964 0.62209 0.38817 0.0
H189 H 0.95977 0.51011 0.46173 0.0
H190 H 0.91889 0.59499 0.43278 0.0
S191 S 1.11274 0.56667 0.32939 0.0
N192 N 1.10861 0.523 0.3672 0.0
N193 N 1.06141 0.61178 0.33521 0.0
C194 C 1.03743 0.59182 0.36899 0.0
C195 C 1.06216 0.54259 0.38606 0.0
C196 C 0.69964 1.04329 0.8214 0.0
C197 C 0.69272 0.97159 0.83235 0.0
C198 C 0.65017 1.04526 0.79492 0.0
C199 C 0.5932 0.9757 0.77851 0.0
H200 H 0.74683 1.09818 0.83167 0.0
H201 H 0.6606 1.10176 0.78525 0.0
S202 S 0.54785 0.77325 0.79934 0.0
N203 N 0.6209 0.82922 0.82646 0.0
N204 N 0.52849 0.83374 0.77641 0.0
C205 C 0.58196 0.90361 0.79085 0.0
C206 C 0.63172 0.90136 0.81796 0.0
C207 C 0.8316 0.65773 0.17565 0.0
C208 C 0.91237 0.68434 0.17302 0.0
C209 C 0.77644 0.58416 0.16193 0.0
C210 C 0.80115 0.53611 0.14506 0.0
H211 H 0.8114 0.69637 0.18557 0.0
H212 H 0.71509 0.5691 0.16104 0.0
S213 S 1.00587 0.57861 0.13345 0.0
N214 N 1.01424 0.65653 0.1539 0.0
N215 N 0.91056 0.51655 0.1303 0.0
C216 C 0.88133 0.55879 0.14604 0.0
C217 C 0.93718 0.6339 0.15916 0.0
C218 C 0.23305 0.84291 0.50146 0.0
C219 C 0.27124 0.92422 0.5075 0.0
C220 C 1.171 0.80794 0.47706 0.0
C221 C 1.14627 0.85367 0.45778 0.0
H222 H 0.25612 0.80765 0.5131 0.0
H223 H 1.14873 0.74676 0.4704 0.0
S224 S 1.21646 1.06551 0.46923 0.0
N225 N 0.27152 1.04696 0.49667 0.0
N226 N 1.15503 0.98074 0.45047 0.0
C227 C 1.17726 0.93278 0.46684 0.0
C228 C 0.23994 0.96832 0.49187 0.0
C229 C 0.45168 0.18775 0.71459 0.0
C230 C 0.41307 0.17169 0.74712 0.0
C231 C 0.45838 1.129 0.69695 0.0
C232 C 0.42593 1.05277 0.71136 0.0
H233 H 0.48907 0.24774 0.70598 0.0
H234 H 0.50026 0.14788 0.67572 0.0
S235 S 0.27842 0.97366 0.78244 0.0
N236 N 0.31267 1.06952 0.78342 0.0
N237 N 0.3234 0.95787 0.74951 0.0
C238 C 0.36826 1.03232 0.73736 0.0
C239 C 0.36212 1.09248 0.75555 0.0
C240 C 0.88816 0.98678 0.52749 0.0
C241 C 0.81943 0.99381 0.53016 0.0
C242 C 0.88955 0.91714 0.53717 0.0
C243 C 0.82242 0.85026 0.55026 0.0
H244 H 0.94268 1.03658 0.51879 0.0
H245 H 0.94489 0.91707 0.53592 0.0
S246 S 0.62599 0.83377 0.56123 0.0
N247 N 0.68079 0.92344 0.54555 0.0
N248 N 0.68427 0.79514 0.56427 0.0
C249 C 0.75282 0.85534 0.55209 0.0
C250 C 0.75102 0.92583 0.54185 0.0
C251 C 1.08568 0.71106 0.873 0.0
C252 C 1.01685 0.63973 0.86404 0.0
C253 C 1.15702 0.71414 0.88379 0.0
C254 C 1.16515 0.64645 0.88563 0.0
H255 H 1.08405 0.76552 0.87294 0.0
H256 H 1.20598 0.77024 0.89184 0.0
S257 S 1.006 0.44462 0.86394 0.0
N258 N 0.96407 0.49911 0.85713 0.0
N259 N 1.09753 0.50549 0.87676 0.0
C260 C 1.09805 0.57502 0.87576 0.0
C261 C 1.02464 0.57155 0.86515 0.0
C262 C 0.6211 0.99896 0.20678 0.0
C263 C 0.5522 1.00124 0.19651 0.0
C264 C 0.69235 1.06761 0.21678 0.0
C265 C 0.70032 1.14352 0.21646 0.0
H266 H 0.6195 0.94298 0.20834 0.0
H267 H 0.74125 1.06074 0.22606 0.0
S268 S 0.53995 0.18491 0.19187 0.0
N269 N 0.49892 1.0889 0.1867 0.0
N270 N 0.63161 0.21585 0.20494 0.0
C271 C 0.63292 0.14721 0.20548 0.0
C272 C 0.55984 1.0772 0.19566 0.0
C273 C 0.79067 0.46709 0.52206 0.0
C274 C 0.85706 0.45693 0.52799 0.0
C275 C 0.78937 0.53631 0.53225 0.0
C276 C 0.85439 0.59991 0.54898 0.0
H277 H 0.73755 0.41979 0.51046 0.0
H278 H 0.73536 0.53836 0.52849 0.0
S279 S 1.04571 0.6089 0.56825 0.0
N280 N 0.99206 0.52163 0.54993 0.0
N281 N 0.98905 0.64948 0.5691 0.0
C282 C 0.92215 0.59216 0.55379 0.0
C283 C 0.92374 0.52189 0.54328 0.0
C284 C 0.58183 0.7048 0.88866 0.0
C285 C 0.57804 0.64785 0.86483 0.0
C286 C 0.51408 0.70696 0.89992 0.0
C287 C 0.43691 0.65167 0.8885 0.0
H288 H 0.63822 0.74829 0.89951 0.0
H289 H 0.52251 0.75231 0.91839 0.0
S290 S 0.3916 0.49082 0.82492 0.0
N291 N 0.48855 0.53548 0.82909 0.0
N292 N 0.36189 0.53878 0.85056 0.0
C293 C 0.43185 0.59542 0.86387 0.0
C294 C 0.50151 0.59329 0.85219 0.0
C295 C 1.0911 0.48943 0.19133 0.0
C296 C 1.10439 0.565 0.20097 0.0
C297 C 1.02177 0.41853 0.20118 0.0
C298 C 0.96213 0.41861 0.22198 0.0
H299 H 1.13521 0.4849 0.17611 0.0
H300 H 1.01643 0.36291 0.19356 0.0
S301 S 0.96838 0.5991 0.25614 0.0
N302 N 1.05079 0.63349 0.23363 0.0
N303 N 0.92342 0.50255 0.25234 0.0
C304 C 0.97502 0.49372 0.23188 0.0
C305 C 1.04484 0.56573 0.22146 0.0
C306 C 0.33654 0.78057 0.0466 0.0
C307 C 0.33292 0.72759 0.07302 0.0
C308 C 0.32859 0.76137 0.01051 0.0
C309 C 0.31739 0.68857 -0.00117 0.0
H310 H 0.34507 0.83767 0.05375 0.0
H311 H 0.33163 0.80426 0.99149 0.0
S312 S 0.29841 0.52631 0.05615 0.0
N313 N 0.31372 0.59682 0.08414 0.0
N314 N 0.30027 0.5619 0.01639 0.0
C315 C 0.3136 0.63484 0.02462 0.0
C316 C 0.32098 0.65402 0.06156 0.0
C317 C 0.76844 0.23198 0.38848 0.0
C318 C 0.83298 0.23517 0.40704 0.0
C319 C 0.77006 0.24281 0.35163 0.0
C320 C 0.83632 0.25748 0.33159 0.0
H321 H 0.71649 0.22216 0.4026 0.0
H322 H 0.71908 0.24025 0.33871 0.0
S323 S 1.01582 0.25996 0.36628 0.0
N324 N 0.96207 0.24654 0.40163 0.0
N325 N 0.96516 0.26753 0.33282 0.0
C326 C 0.90041 0.25899 0.34965 0.0
C327 C 0.89873 0.2477 0.38714 0.0
C328 C 0.76823 0.62776 0.7151 0.0
C329 C 0.80818 0.69136 0.73872 0.0
C330 C 0.77551 0.63769 0.67839 0.0
C331 C 0.82307 0.71175 0.66297 0.0
H332 H 0.731 0.56887 0.72496 0.0
H333 H 0.74315 0.58632 0.66186 0.0
S334 S 0.93994 0.89861 0.71225 0.0
N335 N 0.89647 0.83218 0.74344 0.0
N336 N 0.91064 0.85073 0.67448 0.0
C337 C 0.8623 0.7765 0.68605 0.0
C338 C 0.85478 0.76632 0.72374 0.0
C339 C 0.73894 0.19895 0.63228 0.0
C340 C 0.78744 0.17378 0.6166 0.0
C341 C 0.67548 0.14863 0.65303 0.0
C342 C 0.65799 1.07097 0.65938 0.0
H343 H 0.74777 0.25724 0.62708 0.0
H344 H 0.63983 0.1711 0.66428 0.0
S345 S 0.77521 0.98028 0.63006 0.0
N346 N 0.81987 1.06902 0.6124 0.0
N347 N 0.70002 0.97396 0.65222 0.0
C348 C 0.70934 1.04648 0.64616 0.0
C349 C 0.77438 1.09807 0.62467 0.0
C350 C 0.80462 0.61676 0.98246 0.0
C351 C 0.78676 0.57102 0.952 0.0
C352 C 0.78681 0.58099 0.01566 0.0
C353 C 0.75136 0.49861 0.0193 0.0
H354 H 0.8279 0.67962 0.98054 0.0
H355 H 0.79756 0.61781 0.03856 0.0
S356 S 0.70446 0.35508 0.94746 0.0
N357 N 0.74006 0.44079 0.92735 0.0
N358 N 0.70675 0.37386 0.98993 0.0
C359 C 0.7377 0.45307 0.98909 0.0
C360 C 0.75569 0.48934 0.95537 0.0
C361 C 0.27341 0.77998 0.30995 0.0
C362 C 0.29236 0.83169 0.28149 0.0
C363 C 0.22738 0.78234 0.33737 0.0
C364 C 1.19806 0.83524 0.33652 0.0
H365 H 0.28722 0.7328 0.30932 0.0
H366 H 1.20962 0.73874 0.35808 0.0
S367 S 0.2468 0.99364 0.27177 0.0
N368 N 0.29171 0.9467 0.25734 0.0
N369 N 1.20226 0.94857 0.30845 0.0
C370 C 0.22409 0.89271 0.3104 0.0
C371 C 0.27224 0.89149 0.28292 0.0
loop_
_geom_bond_atom_site_label_1
_geom_bond_atom_site_label_2
_geom_bond_distance
_geom_bond_site_symmetry_2
_ccdc_geom_bond_type
Tb0 C10 2.825 . S
Tb0 O11 2.347 . S
Tb0 O14 2.366 . S
Tb0 O19 2.418 . S
Tb0 O20 2.384 1_455 S
Tb0 O23 2.479 . S
Tb0 O24 2.471 . S
Eu1 O12 2.418 . S
Eu1 O13 2.384 1_655 S
Eu1 O16 2.479 . S
Eu1 O17 2.471 . S
Eu1 O18 2.347 1_655 S
Eu1 O21 2.366 . S
Eu1 C31 2.825 . S
C2 O18 1.259 . S
C2 O19 1.265 . S
C3 O20 1.255 . S
C3 O21 1.265 . S
C4 C6 1.380 . S
C4 C7 1.374 . S
C4 C10 1.507 . S
C5 C6 1.384 . S
C5 C9 1.387 . S
C5 H32 0.930 . S
C6 C4 1.380 . S
C6 C5 1.384 . S
C6 H33 0.931 . S
C7 C4 1.374 . S
C7 C8 1.390 . S
C7 H34 0.930 . S
C8 C7 1.390 . S
C8 C9 1.391 . S
C8 H35 0.930 . S
C9 C5 1.387 . S
C9 C8 1.391 . S
C10 Tb0 2.825 . S
C10 C4 1.507 . S
C10 O23 1.238 . S
C10 O24 1.247 . S
O11 Tb0 2.347 . S
O11 C15 1.259 . S
O12 Eu1 2.418 . S
O12 C15 1.265 1_655 S
O13 Eu1 2.384 1_455 S
O13 C22 1.255 . S
O14 Tb0 2.366 . S
O14 C22 1.265 . S
C15 O11 1.259 . S
C15 O12 1.265 1_455 S
O16 Eu1 2.479 . S
O16 C31 1.238 . S
O17 Eu1 2.471 . S
O17 C31 1.247 . S
O18 Eu1 2.347 1_455 S
O18 C2 1.259 . S
O19 Tb0 2.418 . S
O19 C2 1.265 . S
O20 Tb0 2.384 1_655 S
O20 C3 1.255 . S
O21 Eu1 2.366 . S
O21 C3 1.265 . S
C22 O13 1.255 . S
C22 O14 1.265 . S
O23 Tb0 2.479 . S
O23 C10 1.238 . S
O24 Tb0 2.471 . S
O24 C10 1.247 . S
C25 C28 1.380 . S
C25 C29 1.374 . S
C25 C31 1.507 . S
C26 C27 1.387 . S
C26 C30 1.391 . S
C27 C26 1.387 . S
C27 C28 1.384 . S
C27 H36 0.930 . S
C28 C25 1.380 . S
C28 C27 1.384 . S
C28 H37 0.931 . S
C29 C25 1.374 . S
C29 C30 1.390 . S
C29 H38 0.930 . S
C30 C26 1.391 . S
C30 C29 1.390 . S
C30 H39 0.930 . S
C31 Eu1 2.825 . S
C31 O16 1.238 . S
C31 O17 1.247 . S
C31 C25 1.507 . S
H32 C5 0.930 . S
H33 C6 0.931 . S
H34 C7 0.930 . S
H35 C8 0.930 . S
H36 C27 0.930 . S
H37 C28 0.931 . S
H38 C29 0.930 . S
H39 C30 0.930 . S
Tb40 C50 2.825 . S
Tb40 O51 2.347 . S
Tb40 O54 2.366 . S
Tb40 O59 2.418 . S
Tb40 O60 2.384 1_545 S
Tb40 O63 2.479 . S
Tb40 O64 2.471 . S
Eu41 O52 2.418 . S
Eu41 O53 2.384 . S
Eu41 O56 2.479 1_545 S
Eu41 O57 2.471 1_545 S
Eu41 O58 2.347 . S
Eu41 O61 2.366 1_545 S
Eu41 C71 2.825 1_545 S
C42 O58 1.259 . S
C42 O59 1.265 . S
C43 O60 1.255 . S
C43 O61 1.265 . S
C44 C46 1.380 . S
C44 C47 1.374 . S
C44 C50 1.507 . S
C45 C46 1.384 . S
C45 C49 1.387 . S
C45 H72 0.930 . S
C46 C44 1.380 . S
C46 C45 1.384 . S
C46 H73 0.931 . S
C47 C44 1.374 . S
C47 C48 1.390 . S
C47 H74 0.930 . S
C48 C47 1.390 . S
C48 C49 1.391 . S
C48 H75 0.930 . S
C49 C45 1.387 . S
C49 C48 1.391 . S
C50 Tb40 2.825 . S
C50 C44 1.507 . S
C50 O63 1.238 . S
C50 O64 1.247 . S
O51 Tb40 2.347 . S
O51 C55 1.259 . S
O52 Eu41 2.418 . S
O52 C55 1.265 . S
O53 Eu41 2.384 . S
O53 C62 1.255 . S
O54 Tb40 2.366 . S
O54 C62 1.265 . S
C55 O51 1.259 . S
C55 O52 1.265 . S
O56 Eu41 2.479 1_565 S
O56 C71 1.238 . S
O57 Eu41 2.471 1_565 S
O57 C71 1.247 . S
O58 Eu41 2.347 . S
O58 C42 1.259 . S
O59 Tb40 2.418 . S
O59 C42 1.265 . S
O60 Tb40 2.384 1_565 S
O60 C43 1.255 . S
O61 Eu41 2.366 1_565 S
O61 C43 1.265 . S
C62 O53 1.255 . S
C62 O54 1.265 . S
O63 Tb40 2.479 . S
O63 C50 1.238 . S
O64 Tb40 2.471 . S
O64 C50 1.247 . S
C65 C68 1.380 . S
C65 C69 1.374 . S
C65 C71 1.507 . S
C66 C67 1.387 . S
C66 C70 1.391 . S
C67 C66 1.387 . S
C67 C68 1.384 . S
C67 H76 0.930 . S
C68 C65 1.380 . S
C68 C67 1.384 . S
C68 H77 0.931 . S
C69 C65 1.374 . S
C69 C70 1.390 . S
C69 H78 0.930 . S
C70 C66 1.391 . S
C70 C69 1.390 . S
C70 H79 0.930 . S
C71 Eu41 2.825 1_565 S
C71 O56 1.238 . S
C71 O57 1.247 . S
C71 C65 1.507 . S
H72 C45 0.930 . S
H73 C46 0.931 . S
H74 C47 0.930 . S
H75 C48 0.930 . S
H76 C67 0.930 . S
H77 C68 0.931 . S
H78 C69 0.930 . S
H79 C70 0.930 . S
Tb80 C90 2.825 . S
Tb80 O91 2.347 . S
Tb80 O94 2.366 . S
Tb80 O99 2.418 . S
Tb80 O100 2.384 . S
Tb80 O103 2.479 . S
Tb80 O104 2.471 . S
Eu81 O92 2.418 . S
Eu81 O93 2.384 . S
Eu81 O96 2.479 . S
Eu81 O97 2.471 . S
Eu81 O98 2.347 . S
Eu81 O101 2.366 . S
Eu81 C111 2.825 . S
C82 O98 1.259 . S
C82 O99 1.265 . S
C83 O100 1.255 . S
C83 O101 1.265 . S
C84 C86 1.380 . S
C84 C87 1.374 . S
C84 C90 1.507 . S
C85 C86 1.384 . S
C85 C89 1.387 . S
C85 H112 0.930 . S
C86 C84 1.380 . S
C86 C85 1.384 . S
C86 H113 0.931 . S
C87 C84 1.374 . S
C87 C88 1.390 . S
C87 H114 0.930 . S
C88 C87 1.390 . S
C88 C89 1.391 . S
C88 H115 0.930 . S
C89 C85 1.387 . S
C89 C88 1.391 . S
C90 Tb80 2.825 . S
C90 C84 1.507 . S
C90 O103 1.238 . S
C90 O104 1.247 . S
O91 Tb80 2.347 . S
O91 C95 1.259 . S
O92 Eu81 2.418 . S
O92 C95 1.265 . S
O93 Eu81 2.384 . S
O93 C102 1.255 . S
O94 Tb80 2.366 . S
O94 C102 1.265 . S
C95 O91 1.259 . S
C95 O92 1.265 . S
O96 Eu81 2.479 . S
O96 C111 1.238 . S
O97 Eu81 2.471 . S
O97 C111 1.247 . S
O98 Eu81 2.347 . S
O98 C82 1.259 . S
O99 Tb80 2.418 . S
O99 C82 1.265 . S
O100 Tb80 2.384 . S
O100 C83 1.255 . S
O101 Eu81 2.366 . S
O101 C83 1.265 . S
C102 O93 1.255 . S
C102 O94 1.265 . S
O103 Tb80 2.479 . S
O103 C90 1.238 . S
O104 Tb80 2.471 . S
O104 C90 1.247 . S
C105 C108 1.380 . S
C105 C109 1.374 . S
C105 C111 1.507 . S
C106 C107 1.387 . S
C106 C110 1.391 . S
C107 C106 1.387 . S
C107 C108 1.384 . S
C107 H116 0.930 . S
C108 C105 1.380 . S
C108 C107 1.384 . S
C108 H117 0.931 . S
C109 C105 1.374 . S
C109 C110 1.390 . S
C109 H118 0.930 . S
C110 C106 1.391 . S
C110 C109 1.390 . S
C110 H119 0.930 . S
C111 Eu81 2.825 . S
C111 O96 1.238 . S
C111 O97 1.247 . S
C111 C105 1.507 . S
H112 C85 0.930 . S
H113 C86 0.931 . S
H114 C87 0.930 . S
H115 C88 0.930 . S
H116 C107 0.930 . S
H117 C108 0.931 . S
H118 C109 0.930 . S
H119 C110 0.930 . S
H120 C123 0.931 . S
H121 C126 0.928 . S
H122 C128 0.930 . S
C123 H120 0.931 . S
C123 C124 1.413 . S
C123 C125 1.360 1_565 S
C124 C123 1.413 . S
C124 C128 1.429 1_565 S
C125 C123 1.360 1_545 S
C125 C126 1.372 . S
C126 H121 0.928 . S
C126 C125 1.372 . S
C126 C127 1.404 . S
C127 C126 1.404 . S
C127 C128 1.391 . S
C128 H122 0.930 . S
C128 C124 1.429 1_545 S
C128 C127 1.391 . S
H129 C132 0.931 . S
H130 C135 0.928 . S
H131 C137 0.930 . S
C132 H129 0.931 . S
C132 C133 1.413 . S
C132 C134 1.360 . S
C133 C132 1.413 . S
C133 C137 1.429 . S
C134 C132 1.360 . S
C134 C135 1.372 . S
C135 H130 0.928 . S
C135 C134 1.372 . S
C135 C136 1.404 . S
C136 C135 1.404 . S
C136 C137 1.391 . S
C137 H131 0.930 . S
C137 C133 1.429 . S
C137 C136 1.391 . S
H138 C141 0.931 . S
H139 C144 0.928 . S
H140 C146 0.930 . S
C141 H138 0.931 . S
C141 C142 1.413 . S
C141 C143 1.360 1_655 S
C142 C141 1.413 . S
C142 C146 1.429 1_655 S
C143 C141 1.360 1_455 S
C143 C144 1.372 . S
C144 H139 0.928 . S
C144 C143 1.372 . S
C144 C145 1.404 . S
C145 C144 1.404 . S
C145 C146 1.391 . S
C146 H140 0.930 . S
C146 C142 1.429 1_455 S
C146 C145 1.391 . S
H147 C150 0.931 . S
H148 C153 0.928 . S
H149 C155 0.930 . S
C150 H147 0.931 . S
C150 C151 1.413 . S
C150 C152 1.360 1_655 S
C151 C150 1.413 . S
C151 C155 1.429 1_655 S
C152 C150 1.360 1_455 S
C152 C153 1.372 . S
C153 H148 0.928 . S
C153 C152 1.372 . S
C153 C154 1.404 . S
C154 C153 1.404 . S
C154 C155 1.391 . S
C155 H149 0.930 . S
C155 C151 1.429 1_455 S
C155 C154 1.391 . S
H156 C159 0.931 . S
H157 C162 0.928 . S
H158 C164 0.930 . S
C159 H156 0.931 . S
C159 C160 1.413 . S
C159 C161 1.360 . S
C160 C159 1.413 . S
C160 C164 1.442 . S
C161 C159 1.360 . S
C161 C162 1.372 1_545 S
C162 H157 0.928 . S
C162 C161 1.372 1_565 S
C162 C163 1.404 . S
C163 C162 1.404 . S
C163 C164 1.378 1_565 S
C164 H158 0.930 . S
C164 C160 1.442 . S
C164 C163 1.378 1_545 S
H165 C168 0.931 . S
H166 C171 0.928 . S
H167 C173 0.930 . S
C168 H165 0.931 . S
C168 C169 1.413 . S
C168 C170 1.360 . S
C169 C168 1.413 . S
C169 C173 1.429 . S
C170 C168 1.360 . S
C170 C171 1.372 . S
C171 H166 0.928 . S
C171 C170 1.372 . S
C171 C172 1.404 . S
C172 C171 1.404 . S
C172 C173 1.391 . S
C173 H167 0.930 . S
C173 C169 1.429 . S
C173 C172 1.391 . S
C174 C175 1.369 . S
C174 C176 1.419 . S
C174 H178 0.930 . S
C175 C174 1.369 . S
C175 C184 1.429 . S
C176 C174 1.419 . S
C176 C177 1.363 . S
C176 H179 0.929 . S
C177 C176 1.363 . S
C177 C183 1.428 . S
H178 C174 0.930 . S
H179 C176 0.929 . S
S180 N181 1.613 . S
S180 N182 1.610 . S
N181 S180 1.613 . S
N181 C184 1.350 . S
N182 S180 1.610 . S
N182 C183 1.351 . S
C183 C177 1.428 . S
C183 N182 1.351 . S
C183 C184 1.434 . S
C184 C175 1.429 . S
C184 N181 1.350 . S
C184 C183 1.434 . S
C185 C186 1.369 . S
C185 C187 1.419 . S
C185 H189 0.930 . S
C186 C185 1.369 . S
C186 C195 1.429 . S
C187 C185 1.419 . S
C187 C188 1.363 . S
C187 H190 0.929 . S
C188 C187 1.363 . S
C188 C194 1.428 . S
H189 C185 0.930 . S
H190 C187 0.929 . S
S191 N192 1.613 . S
S191 N193 1.610 . S
N192 S191 1.613 . S
N192 C195 1.350 . S
N193 S191 1.610 . S
N193 C194 1.351 . S
C194 C188 1.428 . S
C194 N193 1.351 . S
C194 C195 1.434 . S
C195 C186 1.429 . S
C195 N192 1.350 . S
C195 C194 1.434 . S
C196 C197 1.369 . S
C196 C198 1.419 . S
C196 H200 0.930 . S
C197 C196 1.369 . S
C197 C206 1.429 . S
C198 C196 1.419 . S
C198 C199 1.363 . S
C198 H201 0.929 1_565 S
C199 C198 1.363 . S
C199 C205 1.428 . S
H200 C196 0.930 . S
H201 C198 0.929 1_545 S
S202 N203 1.613 . S
S202 N204 1.610 . S
N203 S202 1.613 . S
N203 C206 1.350 . S
N204 S202 1.610 . S
N204 C205 1.351 . S
C205 C199 1.428 . S
C205 N204 1.351 . S
C205 C206 1.434 . S
C206 C197 1.429 . S
C206 N203 1.350 . S
C206 C205 1.434 . S
C207 C208 1.369 . S
C207 C209 1.419 . S
C207 H211 0.930 . S
C208 C207 1.369 . S
C208 C217 1.429 . S
C209 C207 1.419 . S
C209 C210 1.363 . S
C209 H212 0.929 . S
C210 C209 1.363 . S
C210 C216 1.428 . S
H211 C207 0.930 . S
H212 C209 0.929 . S
S213 N214 1.613 . S
S213 N215 1.610 . S
N214 S213 1.613 . S
N214 C217 1.350 . S
N215 S213 1.610 . S
N215 C216 1.351 . S
C216 C210 1.428 . S
C216 N215 1.351 . S
C216 C217 1.434 . S
C217 C208 1.429 . S
C217 N214 1.350 . S
C217 C216 1.434 . S
C218 C219 1.369 . S
C218 C220 1.419 . S
C218 H222 0.930 . S
C219 C218 1.369 . S
C219 C228 1.429 . S
C220 C218 1.419 . S
C220 C221 1.363 . S
C220 H223 0.929 . S
C221 C220 1.363 . S
C221 C227 1.428 . S
H222 C218 0.930 . S
H223 C220 0.929 . S
S224 N225 1.613 . S
S224 N226 1.610 . S
N225 S224 1.613 . S
N225 C228 1.350 . S
N226 S224 1.610 . S
N226 C227 1.351 . S
C227 C221 1.428 . S
C227 N226 1.351 . S
C227 C228 1.434 . S
C228 C219 1.429 . S
C228 N225 1.350 . S
C228 C227 1.434 . S
C229 C230 1.369 . S
C229 C231 1.419 . S
C229 H233 0.930 . S
C230 C229 1.369 . S
C230 C239 1.429 . S
C231 C229 1.419 . S
C231 C232 1.363 . S
C231 H234 0.929 . S
C232 C231 1.363 . S
C232 C238 1.428 . S
H233 C229 0.930 . S
H234 C231 0.929 . S
S235 N236 1.613 . S
S235 N237 1.610 . S
N236 S235 1.613 . S
N236 C239 1.350 . S
N237 S235 1.610 . S
N237 C238 1.351 . S
C238 C232 1.428 . S
C238 N237 1.351 . S
C238 C239 1.434 . S
C239 C230 1.429 . S
C239 N236 1.350 . S
C239 C238 1.434 . S
C240 C241 1.369 . S
C240 C242 1.419 . S
C240 H244 0.930 . S
C241 C240 1.369 . S
C241 C250 1.429 . S
C242 C240 1.419 . S
C242 C243 1.363 . S
C242 H245 0.929 . S
C243 C242 1.363 . S
C243 C249 1.428 . S
H244 C240 0.930 . S
H245 C242 0.929 . S
S246 N247 1.613 . S
S246 N248 1.610 . S
N247 S246 1.613 . S
N247 C250 1.350 . S
N248 S246 1.610 . S
N248 C249 1.351 . S
C249 C243 1.428 . S
C249 N248 1.351 . S
C249 C250 1.434 . S
C250 C241 1.429 . S
C250 N247 1.350 . S
C250 C249 1.434 . S
C251 C252 1.369 . S
C251 C253 1.419 . S
C251 H255 0.930 . S
C252 C251 1.369 . S
C252 C261 1.429 . S
C253 C251 1.419 . S
C253 C254 1.363 . S
C253 H256 0.929 . S
C254 C253 1.363 . S
C254 C260 1.428 . S
H255 C251 0.930 . S
H256 C253 0.929 . S
S257 N258 1.613 . S
S257 N259 1.610 . S
N258 S257 1.613 . S
N258 C261 1.350 . S
N259 S257 1.610 . S
N259 C260 1.351 . S
C260 C254 1.428 . S
C260 N259 1.351 . S
C260 C261 1.434 . S
C261 C252 1.429 . S
C261 N258 1.350 . S
C261 C260 1.434 . S
C262 C263 1.369 . S
C262 C264 1.419 . S
C262 H266 0.930 . S
C263 C262 1.369 . S
C263 C272 1.429 . S
C264 C262 1.419 . S
C264 C265 1.363 . S
C264 H267 0.929 . S
C265 C264 1.363 . S
C265 C271 1.428 . S
H266 C262 0.930 . S
H267 C264 0.929 . S
S268 N269 1.613 . S
S268 N270 1.610 . S
N269 S268 1.613 . S
N269 C272 1.350 . S
N270 S268 1.610 . S
N270 C271 1.351 . S
C271 C265 1.428 . S
C271 N270 1.351 . S
C271 C272 1.434 . S
C272 C263 1.429 . S
C272 N269 1.350 . S
C272 C271 1.434 . S
C273 C274 1.369 . S
C273 C275 1.419 . S
C273 H277 0.930 . S
C274 C273 1.369 . S
C274 C283 1.429 . S
C275 C273 1.419 . S
C275 C276 1.363 . S
C275 H278 0.929 . S
C276 C275 1.363 . S
C276 C282 1.428 . S
H277 C273 0.930 . S
H278 C275 0.929 . S
S279 N280 1.613 . S
S279 N281 1.610 . S
N280 S279 1.613 . S
N280 C283 1.350 . S
N281 S279 1.610 . S
N281 C282 1.351 . S
C282 C276 1.428 . S
C282 N281 1.351 . S
C282 C283 1.434 . S
C283 C274 1.429 . S
C283 N280 1.350 . S
C283 C282 1.434 . S
C284 C285 1.369 . S
C284 C286 1.419 . S
C284 H288 0.930 . S
C285 C284 1.369 . S
C285 C294 1.429 . S
C286 C284 1.419 . S
C286 C287 1.363 . S
C286 H289 0.929 . S
C287 C286 1.363 . S
C287 C293 1.428 . S
H288 C284 0.930 . S
H289 C286 0.929 . S
S290 N291 1.613 . S
S290 N292 1.610 . S
N291 S290 1.613 . S
N291 C294 1.350 . S
N292 S290 1.610 . S
N292 C293 1.351 . S
C293 C287 1.428 . S
C293 N292 1.351 . S
C293 C294 1.434 . S
C294 C285 1.429 . S
C294 N291 1.350 . S
C294 C293 1.434 . S
C295 C296 1.369 . S
C295 C297 1.419 . S
C295 H299 0.930 . S
C296 C295 1.369 . S
C296 C305 1.429 . S
C297 C295 1.419 . S
C297 C298 1.363 . S
C297 H300 0.929 . S
C298 C297 1.363 . S
C298 C304 1.428 . S
H299 C295 0.930 . S
H300 C297 0.929 . S
S301 N302 1.613 . S
S301 N303 1.610 . S
N302 S301 1.613 . S
N302 C305 1.350 . S
N303 S301 1.610 . S
N303 C304 1.351 . S
C304 C298 1.428 . S
C304 N303 1.351 . S
C304 C305 1.434 . S
C305 C296 1.429 . S
C305 N302 1.350 . S
C305 C304 1.434 . S
C306 C307 1.369 1_655 S
C306 C308 1.419 . S
C306 H310 0.930 . S
C307 C306 1.369 1_455 S
C307 C316 1.429 . S
C308 C306 1.419 . S
C308 C309 1.363 1_654 S
C308 H311 0.931 . S
C309 C308 1.363 1_456 S
C309 C315 1.428 1_556 S
H310 C306 0.930 . S
H311 C308 0.931 . S
S312 N313 1.613 . S
S312 N314 1.610 1_554 S
N313 S312 1.613 . S
N313 C316 1.350 . S
N314 S312 1.610 1_556 S
N314 C315 1.351 1_556 S
C315 C309 1.428 1_554 S
C315 N314 1.351 1_554 S
C315 C316 1.434 . S
C316 C307 1.429 . S
C316 N313 1.350 . S
C316 C315 1.434 . S
C317 C318 1.369 . S
C317 C319 1.419 . S
C317 H321 0.930 . S
C318 C317 1.369 . S
C318 C327 1.429 1_545 S
C319 C317 1.419 . S
C319 C320 1.363 . S
C319 H322 0.929 . S
C320 C319 1.363 . S
C320 C326 1.428 1_545 S
H321 C317 0.930 . S
H322 C319 0.929 . S
S323 N324 1.613 . S
S323 N325 1.610 . S
N324 S323 1.613 . S
N324 C327 1.350 . S
N325 S323 1.610 . S
N325 C326 1.351 . S
C326 C320 1.428 1_565 S
C326 N325 1.351 . S
C326 C327 1.434 . S
C327 C318 1.429 1_565 S
C327 N324 1.350 . S
C327 C326 1.434 . S
C328 C329 1.369 . S
C328 C330 1.419 . S
C328 H332 0.930 . S
C329 C328 1.369 . S
C329 C338 1.429 . S
C330 C328 1.419 . S
C330 C331 1.363 . S
C330 H333 0.929 . S
C331 C330 1.363 . S
C331 C337 1.428 . S
H332 C328 0.930 . S
H333 C330 0.929 . S
S334 N335 1.613 . S
S334 N336 1.610 . S
N335 S334 1.613 . S
N335 C338 1.350 . S
N336 S334 1.610 . S
N336 C337 1.351 . S
C337 C331 1.428 . S
C337 N336 1.351 . S
C337 C338 1.434 . S
C338 C329 1.429 . S
C338 N335 1.350 . S
C338 C337 1.434 . S
C339 C340 1.369 . S
C339 C341 1.419 . S
C339 H343 0.930 . S
C340 C339 1.369 . S
C340 C349 1.429 1_545 S
C341 C339 1.419 . S
C341 C342 1.363 . S
C341 H344 0.929 . S
C342 C341 1.363 . S
C342 C348 1.428 1_545 S
H343 C339 0.930 . S
H344 C341 0.929 . S
S345 N346 1.613 . S
S345 N347 1.610 . S
N346 S345 1.613 . S
N346 C349 1.350 . S
N347 S345 1.610 . S
N347 C348 1.351 . S
C348 C342 1.428 1_565 S
C348 N347 1.351 . S
C348 C349 1.434 . S
C349 C340 1.429 1_565 S
C349 N346 1.350 . S
C349 C348 1.434 . S
C350 C351 1.369 . S
C350 C352 1.419 1_556 S
C350 H354 0.930 . S
C351 C350 1.369 . S
C351 C360 1.429 . S
C352 C350 1.419 1_554 S
C352 C353 1.363 . S
C352 H355 0.929 . S
C353 C352 1.363 . S
C353 C359 1.428 1_554 S
H354 C350 0.930 . S
H355 C352 0.929 . S
S356 N357 1.613 . S
S356 N358 1.610 . S
N357 S356 1.613 . S
N357 C360 1.350 . S
N358 S356 1.610 . S
N358 C359 1.351 . S
C359 C353 1.428 1_556 S
C359 N358 1.351 . S
C359 C360 1.434 . S
C360 C351 1.429 . S
C360 N357 1.350 . S
C360 C359 1.434 . S
C361 C362 1.369 1_655 S
C361 C363 1.419 . S
C361 H365 0.930 . S
C362 C361 1.369 1_455 S
C362 C371 1.429 . S
C363 C361 1.419 . S
C363 C364 1.363 1_655 S
C363 H366 0.929 . S
C364 C363 1.363 1_455 S
C364 C370 1.428 . S
H365 C361 0.930 . S
H366 C363 0.929 . S
S367 N368 1.613 . S
S367 N369 1.610 . S
N368 S367 1.613 . S
N368 C371 1.350 . S
N369 S367 1.610 . S
N369 C370 1.351 . S
C370 C364 1.428 . S
C370 N369 1.351 . S
C370 C371 1.434 . S
C371 C362 1.429 . S
C371 N368 1.350 . S
C371 C370 1.434 . S
C175 C9 0.965 . S
C177 C169 1.052 . S
C186 C49 0.903 . S
C188 C151 0.973 . S
C197 C89 0.892 . S
C199 C163 0.964 . S
C208 C26 0.931 . S
C210 C172 1.087 . S
C221 C154 1.116 . S
C219 C66 0.965 . S
C232 C160 1.199 . S
C230 C106 0.997 . S
C241 C43 2.947 . S
C243 C133 2.929 . S
C252 C83 3.013 . S
C254 C142 2.982 . S
C263 C22 3.046 . S
C265 C124 3.010 . S
C276 C136 3.012 . S
C274 C62 3.052 . S
C287 C145 2.952 . S
C285 C102 2.980 . S
C296 C3 2.951 . S
C298 C127 2.934 . S
C309 C143 1.839 . S
C307 C15 1.768 . S
C318 C55 1.774 . S
C320 C125 1.837 . S
C329 C95 1.774 . S
C331 C134 1.831 . S
C342 C161 0.922 . S
C340 C42 0.924 . S
C353 C170 0.922 . S
C351 C82 0.923 . S
C362 C2 0.906 . S
C364 C152 0.899 . S
