# Generated by pormake.
# Topology anh, (6,3)-cn, num edge types: 1
# Building blocks:
#     Node 0, Type 0, BuildingBlock: BETFEN_clean_sbu_0, # of connection points: 6
#     Node 1, Type 0, BuildingBlock: BETFEN_clean_sbu_0, # of connection points: 6
#     Node 2, Type 0, BuildingBlock: BETFEN_clean_sbu_0, # of connection points: 6
#     Node 3, Type 1, BuildingBlock: BETDIP_clean_linker_0, # of connection points: 3
#     Node 4, Type 1, BuildingBlock: BETDIP_clean_linker_0, # of connection points: 3
#     Node 5, Type 1, BuildingBlock: BETDIP_clean_linker_0, # of connection points: 3
#     Node 6, Type 1, BuildingBlock: BETDIP_clean_linker_0, # of connection points: 3
#     Node 7, Type 1, BuildingBlock: BETDIP_clean_linker_0, # of connection points: 3
#     Node 8, Type 1, BuildingBlock: BETDIP_clean_linker_0, # of connection points: 3
#     Edge 9, Type (0, 1), BuildingBlock: EZIPEK_clean_linker_0, # of connection points: 2
#     Edge 10, Type (0, 1), BuildingBlock: EZIPEK_clean_linker_0, # of connection points: 2
#     Edge 11, Type (0, 1), BuildingBlock: EZIPEK_clean_linker_0, # of connection points: 2
#     Edge 12, Type (0, 1), BuildingBlock: EZIPEK_clean_linker_0, # of connection points: 2
#     Edge 13, Type (0, 1), BuildingBlock: EZIPEK_clean_linker_0, # of connection points: 2
#     Edge 14, Type (0, 1), BuildingBlock: EZIPEK_clean_linker_0, # of connection points: 2
#     Edge 15, Type (0, 1), BuildingBlock: EZIPEK_clean_linker_0, # of connection points: 2
#     Edge 16, Type (0, 1), BuildingBlock: EZIPEK_clean_linker_0, # of connection points: 2
#     Edge 17, Type (0, 1), BuildingBlock: EZIPEK_clean_linker_0, # of connection points: 2
#     Edge 18, Type (0, 1), BuildingBlock: EZIPEK_clean_linker_0, # of connection points: 2
#     Edge 19, Type (0, 1), BuildingBlock: EZIPEK_clean_linker_0, # of connection points: 2
#     Edge 20, Type (0, 1), BuildingBlock: EZIPEK_clean_linker_0, # of connection points: 2
#     Edge 21, Type (0, 1), BuildingBlock: EZIPEK_clean_linker_0, # of connection points: 2
#     Edge 22, Type (0, 1), BuildingBlock: EZIPEK_clean_linker_0, # of connection points: 2
#     Edge 23, Type (0, 1), BuildingBlock: EZIPEK_clean_linker_0, # of connection points: 2
#     Edge 24, Type (0, 1), BuildingBlock: EZIPEK_clean_linker_0, # of connection points: 2
#     Edge 25, Type (0, 1), BuildingBlock: EZIPEK_clean_linker_0, # of connection points: 2
#     Edge 26, Type (0, 1), BuildingBlock: EZIPEK_clean_linker_0, # of connection points: 2
# Relax obj value: 0.224
# Max RMSD: 0.208
# Mean RMSD: 0.141
data_MOF--net-anh--node1-BETFEN_clean_sbu_0--node2-BETDIP_clean_linker_0--edge1-EZIPEK_clean_linker_0
_symmetry_space_group_name_H-M    P1
_symmetry_Int_Tables_number       1
_symmetry_cell_setting            triclinic
loop_
_symmetry_equiv_pos_as_xyz
'x, y, z'
_cell_length_a     22.032267
_cell_length_b     22.890235
_cell_length_c     36.518834
_cell_angle_alpha  93.104647
_cell_angle_beta   94.504066
_cell_angle_gamma 97.466844
loop_
_atom_site_label
_atom_site_type_symbol
_atom_site_fract_x
_atom_site_fract_y
_atom_site_fract_z
_atom_type_partial_charge
Pr0 Pr 1.03429 0.59671 0.15008 0.0
Pr1 Pr 0.05475 0.7251 0.13411 0.0
C2 C 1.02316 0.4896 0.17769 0.0
C3 C 0.97137 0.44427 0.1824 0.0
C4 C 0.98185 0.38807 0.19271 0.0
C5 C 0.93259 0.34677 0.20037 0.0
C6 C 0.87258 0.36162 0.19794 0.0
C7 C 0.86206 0.41723 0.18655 0.0
C8 C 0.91114 0.45828 0.17882 0.0
C9 C 1.00151 0.61608 0.07633 0.0
C10 C 0.91368 0.66638 0.14237 0.0
C11 C 0.09269 0.83401 0.11304 0.0
C12 C 0.15133 0.87377 0.12033 0.0
C13 C 0.15278 0.9271 0.14148 0.0
C14 C 0.20881 0.96064 0.15399 0.0
C15 C 0.26427 0.94176 0.14517 0.0
C16 C 0.26296 0.89042 0.12213 0.0
C17 C 0.20693 0.85638 0.11002 0.0
C18 C 0.05092 0.70568 0.20896 0.0
C19 C 0.17766 0.65389 0.13896 0.0
O20 O 1.02431 0.53893 0.19778 0.0
O21 O 1.03637 0.49783 0.14385 0.0
O22 O 0.04872 0.64168 0.09533 0.0
O23 O 0.97087 0.57748 0.09493 0.0
O24 O 0.94719 0.70358 0.12315 0.0
O25 O 0.93956 0.62795 0.162 0.0
O26 O 0.09278 0.78612 0.09195 0.0
O27 O 0.06154 0.8246 0.14156 0.0
O28 O 0.0788 0.67767 0.18647 0.0
O29 O 1.0253 0.74663 0.19319 0.0
O30 O 0.14092 0.60605 0.14571 0.0
O31 O 0.15659 0.70473 0.13473 0.0
H32 H 1.02812 0.37669 0.19566 0.0
H33 H 0.94131 0.30394 0.20911 0.0
H34 H 0.81602 0.42932 0.18456 0.0
H35 H 0.90236 0.50159 0.17107 0.0
H36 H 0.11062 0.94142 0.14977 0.0
H37 H 0.20902 1.0002 0.17171 0.0
H38 H 0.30541 0.87526 0.11506 0.0
H39 H 0.20747 0.81537 0.09388 0.0
Pr40 Pr 0.61113 0.12399 0.49932 0.0
Pr41 Pr 0.48726 0.10699 0.52311 0.0
C42 C 0.70841 0.15882 0.46189 0.0
C43 C 0.7441 0.21599 0.45518 0.0
C44 C 0.8042 0.23136 0.47185 0.0
C45 C 0.8376 0.28606 0.46658 0.0
C46 C 0.81145 0.32592 0.44438 0.0
C47 C 0.75185 0.31062 0.42735 0.0
C48 C 0.7184 0.2561 0.43266 0.0
C49 C 0.61504 0.12129 0.57501 0.0
C50 C 0.5439 0.24828 0.51934 0.0
C51 C 0.38019 1.06825 0.55 0.0
C52 C 0.33602 1.01634 0.53665 0.0
C53 C 0.34188 0.98839 0.50217 0.0
C54 C 0.30086 0.939 0.48869 0.0
C55 C 0.25321 0.91677 0.50943 0.0
C56 C 0.24744 0.94423 0.54413 0.0
C57 C 0.28878 0.99393 0.55771 0.0
C58 C 0.49001 0.1059 0.44693 0.0
C59 C 0.55821 0.98418 0.5109 0.0
O60 O 0.65199 0.14824 0.44658 0.0
O61 O 0.714 0.1413 0.49536 0.0
O62 O 0.57776 0.14834 0.5563 0.0
O63 O 0.65053 1.09508 0.55471 0.0
O64 O 0.49922 0.21155 0.53125 0.0
O65 O 0.58966 0.22517 0.50476 0.0
O66 O 0.43313 1.05686 0.5646 0.0
O67 O 0.38591 0.11026 0.5272 0.0
O68 O 0.52281 1.07937 0.46826 0.0
O69 O 0.45197 0.13288 0.4645 0.0
O70 O 0.60019 1.01854 0.49486 0.0
O71 O 0.51379 1.00839 0.52603 0.0
H72 H 0.8252 0.20121 0.48915 0.0
H73 H 0.88376 0.29733 0.47974 0.0
H74 H 0.73123 0.341 0.41006 0.0
H75 H 0.67231 0.24569 0.41928 0.0
H76 H 0.37818 1.00507 0.48557 0.0
H77 H 0.306 0.91827 0.46192 0.0
H78 H 0.21086 0.92741 0.56046 0.0
H79 H 0.28381 1.01486 0.58442 0.0
Pr80 Pr 0.46383 0.56012 0.81885 0.0
Pr81 Pr 0.4882 0.69123 0.82227 0.0
C82 C 0.43654 0.44276 0.80669 0.0
C83 C 0.46929 0.39416 0.81849 0.0
C84 C 0.47998 0.35097 0.79202 0.0
C85 C 0.52353 0.3135 0.80012 0.0
C86 C 0.55663 0.31866 0.83482 0.0
C87 C 0.54183 0.35784 0.86252 0.0
C88 C 0.49871 0.39594 0.85428 0.0
C89 C 0.49098 0.60988 0.89086 0.0
C90 C 0.609 0.6177 0.83133 0.0
C91 C 0.50632 0.80957 0.83266 0.0
C92 C 0.56009 0.85183 0.82701 0.0
C93 C 0.55822 0.91281 0.83075 0.0
C94 C 0.61074 0.95229 0.82612 0.0
C95 C 0.66536 0.93087 0.8179 0.0
C96 C 0.66701 0.86988 0.81415 0.0
C97 C 0.61468 0.83061 0.81859 0.0
C98 C 0.50694 0.63967 0.75357 0.0
C99 C 0.34188 0.63063 0.81697 0.0
O100 O 0.46423 0.47628 0.78336 0.0
O101 O 0.41328 0.47268 0.83242 0.0
O102 O 0.45625 0.62923 0.86655 0.0
O103 O 0.51271 0.56361 0.8782 0.0
O104 O 0.58725 0.66759 0.8399 0.0
O105 O 0.57096 0.57089 0.81786 0.0
O106 O 0.51518 0.77447 0.85903 0.0
O107 O 0.477 0.78193 0.80283 0.0
O108 O 0.46234 0.62317 0.77212 0.0
O109 O 0.54149 0.68505 0.76995 0.0
O110 O 0.36171 0.57901 0.81281 0.0
O111 O 0.38031 0.68024 0.82139 0.0
H112 H 0.45794 0.34908 0.7643 0.0
H113 H 0.53449 0.28325 0.77851 0.0
H114 H 0.56712 0.3622 0.88941 0.0
H115 H 0.4915 0.42922 0.87515 0.0
H116 H 0.51641 0.92974 0.83732 0.0
H117 H 0.60892 0.99933 0.82893 0.0
H118 H 0.70879 0.85278 0.80769 0.0
H119 H 0.61685 0.78359 0.81565 0.0
H120 H 0.5371 0.09977 0.18557 0.0
H121 H 0.60496 0.15842 0.2971 0.0
H122 H 0.42936 1.05188 0.27544 0.0
H123 H 0.63841 0.24148 0.26703 0.0
C124 C 0.65673 0.22236 0.24306 0.0
C125 C 0.53137 0.10126 0.21479 0.0
C126 C 0.47787 1.07194 0.22759 0.0
C127 C 0.57625 0.1346 0.23952 0.0
C128 C 0.56939 0.1351 0.27751 0.0
C129 C 0.5166 0.10514 0.29049 0.0
C130 C 0.47056 1.07451 0.26543 0.0
N131 N 0.62745 0.16781 0.22566 0.0
H132 H 0.54415 0.5541 0.49437 0.0
H133 H 0.53112 0.66791 0.59114 0.0
H134 H 0.53884 0.48461 0.60239 0.0
H135 H 0.59835 0.73246 0.56246 0.0
C136 C 0.56973 0.73088 0.53671 0.0
C137 C 0.5425 0.56042 0.52384 0.0
C138 C 0.54073 0.50979 0.54611 0.0
C139 C 0.54231 0.61942 0.54022 0.0
C140 C 0.53561 0.62523 0.5781 0.0
C141 C 0.53397 0.57697 0.59995 0.0
C142 C 0.53892 0.52078 0.58439 0.0
N143 N 0.54662 0.67241 0.51951 0.0
H144 H 0.91153 0.62583 0.81316 0.0
H145 H 0.04347 0.62076 0.90639 0.0
H146 H 0.85201 0.60656 0.92223 0.0
H147 H 0.09785 0.68952 0.86933 0.0
C148 C 0.09243 0.6587 0.84524 0.0
C149 C 0.9219 0.6216 0.8423 0.0
C150 C 0.87368 0.6158 0.86592 0.0
C151 C 0.98371 0.62344 0.85663 0.0
C152 C 0.99655 0.61913 0.89465 0.0
C153 C 0.94927 0.61311 0.91808 0.0
C154 C 0.88824 0.61064 0.90369 0.0
N155 N 1.03264 0.62888 0.83297 0.0
H156 H 0.0624 0.67062 0.47268 0.0
H157 H 1.00012 0.60269 0.36187 0.0
H158 H 0.12354 0.76446 0.38031 0.0
H159 H 0.91294 0.57374 0.39092 0.0
C160 C 0.93325 0.55532 0.41502 0.0
C161 C 0.06247 0.6741 0.44321 0.0
C162 C 0.0977 0.72221 0.42928 0.0
C163 C 1.02586 0.63146 0.41915 0.0
C164 C 1.02659 0.63607 0.38094 0.0
C165 C 0.06162 0.68387 0.36689 0.0
C166 C 0.09696 0.72702 0.39112 0.0
N167 N 0.989 0.58415 0.43376 0.0
H168 H 0.81477 0.18241 0.82072 0.0
H169 H 0.8115 0.12782 0.70579 0.0
H170 H 0.65951 0.20435 0.74615 0.0
H171 H 0.93023 1.08113 0.80587 0.0
C172 C 0.88469 1.08695 0.79432 0.0
C173 C 0.79179 0.1778 0.79317 0.0
C174 C 0.73445 0.19718 0.78665 0.0
C175 C 0.82013 0.15373 0.76383 0.0
C176 C 0.79012 0.14749 0.72827 0.0
C177 C 0.73149 0.16458 0.72211 0.0
C178 C 0.70436 0.19011 0.75116 0.0
N179 N 0.87758 0.13301 0.77045 0.0
H180 H 0.48757 0.65759 0.15523 0.0
H181 H 0.58167 0.64857 0.05622 0.0
H182 H 0.38619 0.64253 0.04837 0.0
H183 H 0.65307 0.71727 0.09383 0.0
C184 C 0.65567 0.68741 0.11589 0.0
C185 C 0.48662 0.6546 0.12548 0.0
C186 C 0.42983 0.65008 0.10381 0.0
C187 C 0.54225 0.65648 0.10851 0.0
C188 C 0.53997 0.6503 0.06987 0.0
C189 C 0.48395 0.64509 0.04836 0.0
C190 C 0.4294 0.64616 0.0653 0.0
N191 N 0.6 0.66288 0.13012 0.0
C192 C 0.2908 0.69602 0.14945 0.0
C193 C 0.24419 0.65014 0.13421 0.0
C194 C 0.32486 0.59714 0.11092 0.0
C195 C 0.3692 0.64756 0.11999 0.0
N196 N 0.39179 0.74912 0.14394 0.0
N197 N 0.21813 0.56264 0.09261 0.0
C198 C 0.35169 0.69804 0.13848 0.0
C199 C 0.26151 0.60175 0.11314 0.0
N200 N 0.27782 0.73687 0.17525 0.0
N201 N 0.34332 0.54484 0.09971 0.0
H202 H 0.17153 0.56693 0.09019 0.0
H203 H 0.22931 0.53007 0.07424 0.0
H204 H 0.38956 0.53993 0.09837 0.0
H205 H 0.31345 0.50538 0.09574 0.0
H206 H 0.3119 0.76625 0.19039 0.0
H207 H 0.2344 0.73715 0.18446 0.0
H208 H 0.37877 0.7891 0.15334 0.0
H209 H 0.43666 0.75279 0.13632 0.0
C210 C 0.84578 0.4326 0.46402 0.0
C211 C 0.84661 0.38383 0.43844 0.0
C212 C 0.90524 0.44736 0.39805 0.0
C213 C 0.90653 0.49574 0.42428 0.0
N214 N 0.88537 0.53419 0.48407 0.0
N215 N 0.88466 0.34132 0.38444 0.0
C216 C 0.87941 0.48817 0.45799 0.0
C217 C 0.87861 0.39022 0.4064 0.0
N218 N 0.81068 0.42624 0.49321 0.0
N219 N 0.92878 0.45625 0.36492 0.0
H220 H 0.86471 0.29889 0.38932 0.0
H221 H 0.9132 0.34177 0.36303 0.0
H222 H 0.95205 0.49656 0.35855 0.0
H223 H 0.92261 0.42471 0.34287 0.0
H224 H 0.80208 0.46131 0.5105 0.0
H225 H 0.78643 0.38596 0.49887 0.0
H226 H 0.87294 0.52988 0.5108 0.0
H227 H 0.90632 0.5765 0.47981 0.0
C228 C 0.73903 0.97797 0.77609 0.0
C229 C 0.72109 0.97188 0.81227 0.0
C230 C 0.81093 1.04128 0.83714 0.0
C231 C 0.83088 1.04402 0.80124 0.0
N232 N 0.82165 1.006 0.7379 0.0
N233 N 0.74367 0.98989 0.87793 0.0
C234 C 0.79711 1.00973 0.77106 0.0
C235 C 0.75806 1.0014 0.84306 0.0
N236 N 0.69982 0.95458 0.7465 0.0
N237 N 0.84121 1.07832 0.86525 0.0
H238 H 0.70487 0.9615 0.88334 0.0
H239 H 0.77242 1.00493 0.90146 0.0
H240 H 0.88098 0.10706 0.86207 0.0
H241 H 0.8247 1.08359 0.891 0.0
H242 H 0.70771 0.96254 0.71937 0.0
H243 H 0.65654 0.93139 0.74912 0.0
H244 H 0.80204 0.97723 0.71583 0.0
H245 H 0.86486 1.02766 0.73349 0.0
C246 C 0.8026 0.61795 0.13092 0.0
C247 C 0.84596 0.66883 0.14204 0.0
C248 C 0.76163 0.72956 0.14278 0.0
C249 C 0.7185 0.67893 0.13149 0.0
N250 N 0.696 0.57293 0.12252 0.0
N251 N 0.86482 0.76932 0.16791 0.0
C252 C 0.73834 0.62241 0.12852 0.0
C253 C 0.8248 0.72353 0.15079 0.0
N254 N 0.82262 0.56625 0.11993 0.0
N255 N 0.74223 0.78391 0.14516 0.0
H256 H 0.91107 0.76635 0.17473 0.0
H257 H 0.85131 0.80826 0.17854 0.0
H258 H 0.69591 0.78964 0.14248 0.0
H259 H 0.77198 0.82343 0.14816 0.0
H260 H 0.79398 0.53001 0.10703 0.0
H261 H 0.86871 0.56058 0.12099 0.0
H262 H 0.70701 0.53028 0.12453 0.0
H263 H 0.64892 0.5742 0.11851 0.0
C264 C 0.22847 0.80818 0.49283 0.0
C265 C 0.20926 0.865 0.49395 0.0
C266 C 0.11124 0.82413 0.45993 0.0
C267 C 0.13401 0.76942 0.45444 0.0
N268 N 0.21569 0.70955 0.46298 0.0
N269 N 0.13498 0.92917 0.47613 0.0
C270 C 0.19283 0.76123 0.47047 0.0
C271 C 0.15102 0.8735 0.47717 0.0
N272 N 0.28047 0.79915 0.51352 0.0
N273 N 0.05132 0.82856 0.44896 0.0
H274 H 0.1624 0.96639 0.48891 0.0
H275 H 0.09656 0.9392 0.4605 0.0
H276 H 1.02105 0.79327 0.43605 0.0
H277 H 1.03009 0.86539 0.45547 0.0
H278 H 0.29378 0.75762 0.51685 0.0
H279 H 0.30766 0.83277 0.53006 0.0
H280 H 0.26096 0.70337 0.4702 0.0
H281 H 0.1905 0.67382 0.44724 0.0
C282 C 0.60556 0.22741 0.84212 0.0
C283 C 0.61242 0.28924 0.83921 0.0
C284 C 0.71728 0.28815 0.82199 0.0
C285 C 0.70419 0.22614 0.816 0.0
N286 N 0.64289 0.13472 0.82585 0.0
N287 N 0.67598 0.38056 0.83007 0.0
C288 C 0.65101 0.19502 0.8288 0.0
C289 C 0.66948 0.32051 0.83147 0.0
N290 N 0.55469 0.2003 0.85651 0.0
N291 N 0.77461 0.31577 0.81716 0.0
H292 H 0.64263 0.40608 0.83769 0.0
H293 H 0.71331 0.40519 0.81994 0.0
H294 H 0.8099 0.2926 0.80961 0.0
H295 H 0.78894 0.36048 0.82383 0.0
H296 H 0.54761 0.15562 0.86124 0.0
H297 H 0.52136 0.22416 0.86634 0.0
H298 H 0.6026 0.10861 0.83101 0.0
H299 H 0.67721 0.11076 0.81748 0.0
C300 C 0.61722 0.8961 0.52488 0.0
C301 C 0.56132 0.91733 0.51292 0.0
C302 C 0.5093 0.81297 0.51147 0.0
C303 C 0.56605 0.79183 0.52131 0.0
N304 N 0.67626 0.81352 0.5277 0.0
N305 N 0.45659 0.89151 0.48683 0.0
C306 C 0.62048 0.83367 0.52482 0.0
C307 C 0.50811 0.87431 0.50389 0.0
N308 N 0.66673 0.9353 0.53893 0.0
N309 N 0.45585 0.77532 0.51102 0.0
H310 H 0.45451 0.93472 0.47977 0.0
H311 H 0.41835 0.86205 0.47635 0.0
H312 H 0.45488 0.7307 0.51563 0.0
H313 H 0.41261 0.78917 0.50856 0.0
H314 H 0.70623 0.92243 0.5519 0.0
H315 H 0.66614 0.98073 0.54141 0.0
H316 H 0.71773 0.84075 0.5266 0.0
H317 H 0.68057 0.7686 0.52699 0.0
C318 C 0.71106 0.6517 0.86795 0.0
C319 C 0.67718 0.61427 0.83893 0.0
C320 C 0.77371 0.57366 0.82792 0.0
C321 C 0.80763 0.6182 0.85277 0.0
N322 N 0.80811 0.71006 0.88854 0.0
N323 N 0.68202 0.54342 0.78711 0.0
C324 C 0.77609 0.66088 0.86988 0.0
C325 C 0.71 0.57626 0.8176 0.0
N326 N 0.68188 0.67411 0.89604 0.0
N327 N 0.80127 0.52726 0.81532 0.0
H328 H 0.63609 0.54176 0.77788 0.0
H329 H 0.70627 0.52135 0.76863 0.0
H330 H 0.8471 0.52304 0.82263 0.0
H331 H 0.77734 0.49034 0.80021 0.0
H332 H 0.70537 0.69869 0.91891 0.0
H333 H 0.63603 0.65962 0.89946 0.0
H334 H 0.78651 0.74438 0.89919 0.0
H335 H 0.85592 0.71922 0.88972 0.0
C336 C 0.3585 0.94566 0.18922 0.0
C337 C 0.32344 0.97341 0.16268 0.0
C338 C 0.39165 1.06652 0.1772 0.0
C339 C 0.42886 1.03751 0.20192 0.0
N340 N 0.45703 0.94626 0.22359 0.0
N341 N 0.31468 1.05591 0.1252 0.0
C342 C 0.41534 0.9759 0.20525 0.0
C343 C 0.3427 1.03253 0.15463 0.0
N344 N 0.33587 0.89208 0.20094 0.0
N345 N 0.40071 0.12666 0.17667 0.0
H346 H 0.27903 1.0319 0.10794 0.0
H347 H 0.33064 1.09686 0.1159 0.0
H348 H 0.43539 0.1534 0.19313 0.0
H349 H 0.37063 0.1504 0.16216 0.0
H350 H 0.35687 0.87291 0.22296 0.0
H351 H 0.29298 0.86946 0.19128 0.0
H352 H 0.45189 0.90039 0.22393 0.0
H353 H 0.49973 0.96706 0.23514 0.0
C354 C 0.50447 0.34126 0.54822 0.0
C355 C 0.54284 0.3164 0.52338 0.0
C356 C 0.58224 0.42111 0.51147 0.0
C357 C 0.53733 0.44399 0.53226 0.0
N358 N 0.44088 0.41826 0.55826 0.0
N359 N 0.60564 0.33891 0.47268 0.0
C360 C 0.49343 0.40138 0.54624 0.0
C361 C 0.57814 0.3581 0.50242 0.0
N362 N 0.48218 0.31003 0.5762 0.0
N363 N 0.63029 0.45861 0.50122 0.0
H364 H 0.59913 0.29525 0.46218 0.0
H365 H 0.62793 0.36777 0.45536 0.0
H366 H 0.63556 0.504 0.50759 0.0
H367 H 0.66751 0.44371 0.48941 0.0
H368 H 0.45701 0.32827 0.59588 0.0
H369 H 0.4972 0.2707 0.58361 0.0
H370 H 0.40575 0.38806 0.56656 0.0
H371 H 0.42979 0.4609 0.55569 0.0
C372 C 0.24139 0.66757 0.79747 0.0
C373 C 0.27487 0.63238 0.82036 0.0
C374 C 0.18061 0.60004 0.84982 0.0
C375 C 0.15009 0.64197 0.83118 0.0
N376 N 0.1514 0.71815 0.78831 0.0
N377 N 0.27813 0.57267 0.873 0.0
C378 C 0.18038 0.67621 0.80508 0.0
C379 C 0.24481 0.60001 0.84752 0.0
N380 N 0.26728 0.6914 0.76792 0.0
N381 N 0.14816 0.56014 0.86985 0.0
H382 H 0.32565 0.57386 0.87382 0.0
H383 H 0.25967 0.554 0.89575 0.0
H384 H 0.10095 0.55847 0.87148 0.0
H385 H 0.16653 0.52488 0.88132 0.0
H386 H 0.24336 0.7128 0.74817 0.0
H387 H 0.31129 0.68514 0.7613 0.0
H388 H 0.17327 0.74947 0.77238 0.0
H389 H 0.10583 0.72336 0.79194 0.0
C390 C 0.77484 0.29288 0.18189 0.0
C391 C 0.82056 0.32048 0.20906 0.0
C392 C 0.76369 0.27406 0.25722 0.0
C393 C 0.71418 0.25313 0.23055 0.0
N394 N 0.66793 0.25281 0.16822 0.0
N395 N 0.85457 0.34496 0.27318 0.0
C396 C 0.71852 0.26469 0.19295 0.0
C397 C 0.81413 0.31297 0.24693 0.0
N398 N 0.78541 0.29338 0.14552 0.0
N399 N 0.76337 0.25551 0.2922 0.0
H400 H 0.89235 0.37394 0.26694 0.0
H401 H 0.84766 0.34659 0.30108 0.0
H402 H 0.72776 0.22614 0.30073 0.0
H403 H 0.80103 0.26461 0.31171 0.0
H404 H 0.75631 0.2689 0.12473 0.0
H405 H 0.82622 0.3138 0.13651 0.0
H406 H 0.66719 0.26598 0.14134 0.0
H407 H 0.62471 0.23549 0.17541 0.0
C408 C 0.98483 0.66954 0.01835 0.0
C409 C 0.99262 0.61632 0.03546 0.0
C410 C 0.96944 0.56047 0.97551 0.0
C411 C 0.96435 0.61394 0.95844 0.0
N412 N 0.97703 0.72033 0.96194 0.0
N413 N 1.00827 0.51395 0.02892 0.0
C414 C 0.9751 0.66878 0.97939 0.0
C415 C 0.98923 0.56244 0.01365 0.0
N416 N 0.98412 0.72051 0.03936 0.0
N417 N 0.95457 0.50774 0.95537 0.0
H418 H 1.02641 0.51451 0.0562 0.0
H419 H 1.0125 0.47513 0.01368 0.0
H420 H 0.94168 0.50474 0.92714 0.0
H421 H 0.95049 0.46707 0.96706 0.0
H422 H 0.97025 0.7587 0.02913 0.0
H423 H 0.99398 0.7237 0.06766 0.0
H424 H 0.99224 0.76173 0.9751 0.0
H425 H 0.96771 0.72174 0.93358 0.0
C426 C 0.49563 1.05162 0.38606 0.0
C427 C 0.49466 0.1058 0.40669 0.0
C428 C 0.5012 0.15868 0.35025 0.0
C429 C 0.50942 0.10555 0.33057 0.0
N430 N 0.52649 1.00354 0.33122 0.0
N431 N 0.50918 0.21258 0.40957 0.0
C432 C 0.51013 1.05254 0.3489 0.0
C433 C 0.50073 0.15989 0.38913 0.0
N434 N 0.47998 0.99916 0.40136 0.0
N435 N 0.49206 0.20758 0.33175 0.0
H436 H 0.51063 0.2158 0.43818 0.0
H437 H 0.5208 0.25304 0.3984 0.0
H438 H 0.49146 0.20835 0.30319 0.0
H439 H 0.47938 0.24554 0.34436 0.0
H440 H 0.47415 0.95847 0.3864 0.0
H441 H 0.46621 0.99654 0.42794 0.0
H442 H 0.53396 0.96564 0.3445 0.0
H443 H 0.53843 1.00267 0.30413 0.0
C444 C 0.46056 0.60591 0.68873 0.0
C445 C 0.51316 0.61941 0.71455 0.0
C446 C 0.57983 0.60497 0.66455 0.0
C447 C 0.52715 0.58646 0.63995 0.0
N448 N 0.41766 0.55867 0.62965 0.0
N449 N 0.62337 0.62325 0.72747 0.0
C450 C 0.46765 0.58307 0.65252 0.0
C451 C 0.57294 0.61654 0.70255 0.0
N452 N 0.40462 0.61972 0.69739 0.0
N453 N 0.63658 0.61303 0.65139 0.0
H454 H 0.62161 0.63224 0.75552 0.0
H455 H 0.66663 0.61463 0.72094 0.0
H456 H 0.64391 0.60214 0.62412 0.0
H457 H 0.67584 0.63425 0.66676 0.0
H458 H 0.36639 0.6161 0.67832 0.0
H459 H 0.39762 0.64182 0.72203 0.0
H460 H 0.37394 0.54885 0.63857 0.0
H461 H 0.42086 0.54347 0.60252 0.0
C462 C 0.67107 0.1921 0.62494 0.0
C463 C 0.63528 0.13663 0.61428 0.0
C464 C 0.65621 0.10287 0.67603 0.0
C465 C 0.69745 0.15548 0.68521 0.0
N466 N 0.74702 0.24951 0.66911 0.0
N467 N 0.59558 1.03793 0.62814 0.0
C468 C 0.70523 0.20021 0.65996 0.0
C469 C 0.628 1.09179 0.63953 0.0
N470 N 0.67283 0.23686 0.60154 0.0
N471 N 0.64339 1.06403 0.70245 0.0
H472 H 0.57131 1.02937 0.60228 0.0
H473 H 0.59498 1.00087 0.64348 0.0
H474 H 0.66451 1.06989 0.72922 0.0
H475 H 0.60887 1.02807 0.69878 0.0
H476 H 0.69188 0.28022 0.60917 0.0
H477 H 0.65159 0.23212 0.57489 0.0
H478 H 0.76065 0.28067 0.65064 0.0
H479 H 0.77137 0.25781 0.69494 0.0
C480 C 0.51232 0.67511 0.94938 0.0
C481 C 0.48559 0.62075 0.93078 0.0
C482 C 0.45949 0.58159 -0.0105 0.0
C483 C 0.48252 0.63727 0.00772 0.0
N484 N 0.51931 0.74059 0.00442 0.0
N485 N 0.42012 0.52774 0.9319 0.0
C486 C 0.50542 0.6852 0.98745 0.0
C487 C 0.4551 0.57554 0.95048 0.0
N488 N 0.54655 0.71612 0.93108 0.0
N489 N 0.44397 0.53388 0.00947 0.0
H490 H 0.41421 0.52245 0.90326 0.0
H491 H 0.39187 0.49652 0.94475 0.0
H492 H 0.44695 0.53628 0.03816 0.0
H493 H 0.4334 0.49091 -0.00228 0.0
H494 H 0.57289 0.75378 0.94396 0.0
H495 H 0.55293 0.70961 0.90334 0.0
H496 H 0.53013 0.77833 -0.00973 0.0
H497 H 0.51467 0.74962 0.0323 0.0
C498 C 1.00028 0.70127 0.26841 0.0
C499 C 0.05398 0.69903 0.24941 0.0
C500 C 0.11101 0.68054 0.30722 0.0
C501 C 0.05938 0.68955 0.32653 0.0
N502 N 0.95867 0.72009 0.32665 0.0
N503 N 0.16442 0.70096 0.25319 0.0
C504 C 1.00509 0.70335 0.30746 0.0
C505 C 0.11049 0.6923 0.26941 0.0
N506 N 0.94404 0.69875 0.2493 0.0
N507 N 0.16018 0.65976 0.32476 0.0
H508 H 0.16693 0.71403 0.22649 0.0
H509 H 0.20737 0.70217 0.26757 0.0
H510 H 0.16237 0.65086 0.35251 0.0
H511 H 0.19616 0.64633 0.31097 0.0
H512 H 0.90288 0.69376 0.26175 0.0
H513 H 0.93771 0.69545 0.22073 0.0
H514 H 0.92094 0.73688 0.31428 0.0
H515 H 0.96056 0.7226 0.35534 0.0
loop_
_geom_bond_atom_site_label_1
_geom_bond_atom_site_label_2
_geom_bond_distance
_geom_bond_site_symmetry_2
_ccdc_geom_bond_type
Pr0 C2 2.880 1_455 S
Pr0 O20 2.562 1_455 S
Pr0 O21 2.490 1_455 S
Pr0 O22 2.695 . S
Pr0 O23 2.512 . S
Pr0 O25 2.437 1_455 S
Pr0 O28 2.436 . S
Pr0 O30 2.438 . S
Pr1 C11 2.880 . S
Pr1 O22 2.436 . S
Pr1 O24 2.438 1_455 S
Pr1 O26 2.562 . S
Pr1 O27 2.490 . S
Pr1 O28 2.695 . S
Pr1 O29 2.512 . S
Pr1 O31 2.437 . S
C2 Pr0 2.880 1_655 S
C2 C3 1.491 . S
C2 O20 1.254 . S
C2 O21 1.225 . S
C3 C2 1.491 . S
C3 C4 1.392 . S
C3 C8 1.356 . S
C4 C3 1.392 . S
C4 C5 1.368 . S
C4 H32 0.929 . S
C5 C4 1.368 . S
C5 C6 1.386 . S
C5 H33 0.929 . S
C6 C5 1.386 . S
C6 C7 1.373 . S
C7 C6 1.373 . S
C7 C8 1.409 . S
C7 H34 0.931 . S
C8 C3 1.356 . S
C8 C7 1.409 . S
C8 H35 0.930 . S
C9 O22 1.270 . S
C9 O23 1.248 . S
C10 O24 1.267 . S
C10 O25 1.278 . S
C11 Pr1 2.880 . S
C11 C12 1.491 . S
C11 O26 1.254 . S
C11 O27 1.225 . S
C12 C11 1.491 . S
C12 C13 1.392 . S
C12 C17 1.356 . S
C13 C12 1.392 . S
C13 C14 1.368 . S
C13 H36 0.929 . S
C14 C13 1.368 . S
C14 C15 1.386 . S
C14 H37 0.929 . S
C15 C14 1.386 . S
C15 C16 1.373 . S
C16 C15 1.373 . S
C16 C17 1.409 . S
C16 H38 0.931 . S
C17 C12 1.356 . S
C17 C16 1.409 . S
C17 H39 0.930 . S
C18 O28 1.270 . S
C18 O29 1.248 . S
C19 O30 1.267 . S
C19 O31 1.278 . S
O20 Pr0 2.562 1_655 S
O20 C2 1.254 . S
O21 Pr0 2.490 1_655 S
O21 C2 1.225 . S
O22 Pr0 2.695 . S
O22 Pr1 2.436 . S
O22 C9 1.270 . S
O23 Pr0 2.512 . S
O23 C9 1.248 . S
O24 Pr1 2.438 1_655 S
O24 C10 1.267 . S
O25 Pr0 2.437 1_655 S
O25 C10 1.278 . S
O26 Pr1 2.562 . S
O26 C11 1.254 . S
O27 Pr1 2.490 . S
O27 C11 1.225 . S
O28 Pr0 2.436 . S
O28 Pr1 2.695 . S
O28 C18 1.270 . S
O29 Pr1 2.512 . S
O29 C18 1.248 . S
O30 Pr0 2.438 . S
O30 C19 1.267 . S
O31 Pr1 2.437 . S
O31 C19 1.278 . S
H32 C4 0.929 . S
H33 C5 0.929 . S
H34 C7 0.931 . S
H35 C8 0.930 . S
H36 C13 0.929 . S
H37 C14 0.929 . S
H38 C16 0.931 . S
H39 C17 0.930 . S
Pr40 C42 2.880 . S
Pr40 O60 2.562 . S
Pr40 O61 2.490 . S
Pr40 O62 2.695 . S
Pr40 O63 2.512 . S
Pr40 O65 2.437 . S
Pr40 O68 2.436 . S
Pr40 O70 2.438 1_545 S
Pr41 C51 2.880 1_545 S
Pr41 O62 2.436 . S
Pr41 O64 2.438 . S
Pr41 O66 2.562 1_545 S
Pr41 O67 2.490 1_545 S
Pr41 O68 2.695 . S
Pr41 O69 2.512 . S
Pr41 O71 2.437 1_545 S
C42 Pr40 2.880 . S
C42 C43 1.491 . S
C42 O60 1.254 . S
C42 O61 1.225 . S
C43 C42 1.491 . S
C43 C44 1.392 . S
C43 C48 1.356 . S
C44 C43 1.392 . S
C44 C45 1.368 . S
C44 H72 0.929 . S
C45 C44 1.368 . S
C45 C46 1.386 . S
C45 H73 0.929 . S
C46 C45 1.386 . S
C46 C47 1.373 . S
C47 C46 1.373 . S
C47 C48 1.409 . S
C47 H74 0.931 . S
C48 C43 1.356 . S
C48 C47 1.409 . S
C48 H75 0.930 . S
C49 O62 1.270 . S
C49 O63 1.248 . S
C50 O64 1.267 . S
C50 O65 1.278 . S
C51 Pr41 2.880 1_565 S
C51 C52 1.491 . S
C51 O66 1.254 . S
C51 O67 1.225 . S
C52 C51 1.491 . S
C52 C53 1.392 . S
C52 C57 1.356 . S
C53 C52 1.392 . S
C53 C54 1.368 . S
C53 H76 0.929 . S
C54 C53 1.368 . S
C54 C55 1.386 . S
C54 H77 0.929 . S
C55 C54 1.386 . S
C55 C56 1.373 . S
C56 C55 1.373 . S
C56 C57 1.409 . S
C56 H78 0.931 . S
C57 C52 1.356 . S
C57 C56 1.409 . S
C57 H79 0.930 . S
C58 O68 1.270 . S
C58 O69 1.248 . S
C59 O70 1.267 . S
C59 O71 1.278 . S
O60 Pr40 2.562 . S
O60 C42 1.254 . S
O61 Pr40 2.490 . S
O61 C42 1.225 . S
O62 Pr40 2.695 . S
O62 Pr41 2.436 . S
O62 C49 1.270 . S
O63 Pr40 2.512 . S
O63 C49 1.248 . S
O64 Pr41 2.438 . S
O64 C50 1.267 . S
O65 Pr40 2.437 . S
O65 C50 1.278 . S
O66 Pr41 2.562 1_565 S
O66 C51 1.254 . S
O67 Pr41 2.490 1_565 S
O67 C51 1.225 . S
O68 Pr40 2.436 . S
O68 Pr41 2.695 . S
O68 C58 1.270 . S
O69 Pr41 2.512 . S
O69 C58 1.248 . S
O70 Pr40 2.438 1_565 S
O70 C59 1.267 . S
O71 Pr41 2.437 1_565 S
O71 C59 1.278 . S
H72 C44 0.929 . S
H73 C45 0.929 . S
H74 C47 0.931 . S
H75 C48 0.930 . S
H76 C53 0.929 . S
H77 C54 0.929 . S
H78 C56 0.931 . S
H79 C57 0.930 . S
Pr80 C82 2.880 . S
Pr80 O100 2.562 . S
Pr80 O101 2.490 . S
Pr80 O102 2.695 . S
Pr80 O103 2.512 . S
Pr80 O105 2.437 . S
Pr80 O108 2.436 . S
Pr80 O110 2.438 . S
Pr81 C91 2.880 . S
Pr81 O102 2.436 . S
Pr81 O104 2.438 . S
Pr81 O106 2.562 . S
Pr81 O107 2.490 . S
Pr81 O108 2.695 . S
Pr81 O109 2.512 . S
Pr81 O111 2.437 . S
C82 Pr80 2.880 . S
C82 C83 1.491 . S
C82 O100 1.254 . S
C82 O101 1.225 . S
C83 C82 1.491 . S
C83 C84 1.392 . S
C83 C88 1.356 . S
C84 C83 1.392 . S
C84 C85 1.368 . S
C84 H112 0.929 . S
C85 C84 1.368 . S
C85 C86 1.386 . S
C85 H113 0.929 . S
C86 C85 1.386 . S
C86 C87 1.373 . S
C87 C86 1.373 . S
C87 C88 1.409 . S
C87 H114 0.931 . S
C88 C83 1.356 . S
C88 C87 1.409 . S
C88 H115 0.930 . S
C89 O102 1.270 . S
C89 O103 1.248 . S
C90 O104 1.267 . S
C90 O105 1.278 . S
C91 Pr81 2.880 . S
C91 C92 1.491 . S
C91 O106 1.254 . S
C91 O107 1.225 . S
C92 C91 1.491 . S
C92 C93 1.392 . S
C92 C97 1.356 . S
C93 C92 1.392 . S
C93 C94 1.368 . S
C93 H116 0.929 . S
C94 C93 1.368 . S
C94 C95 1.386 . S
C94 H117 0.929 . S
C95 C94 1.386 . S
C95 C96 1.373 . S
C96 C95 1.373 . S
C96 C97 1.409 . S
C96 H118 0.931 . S
C97 C92 1.356 . S
C97 C96 1.409 . S
C97 H119 0.930 . S
C98 O108 1.270 . S
C98 O109 1.248 . S
C99 O110 1.267 . S
C99 O111 1.278 . S
O100 Pr80 2.562 . S
O100 C82 1.254 . S
O101 Pr80 2.490 . S
O101 C82 1.225 . S
O102 Pr80 2.695 . S
O102 Pr81 2.436 . S
O102 C89 1.270 . S
O103 Pr80 2.512 . S
O103 C89 1.248 . S
O104 Pr81 2.438 . S
O104 C90 1.267 . S
O105 Pr80 2.437 . S
O105 C90 1.278 . S
O106 Pr81 2.562 . S
O106 C91 1.254 . S
O107 Pr81 2.490 . S
O107 C91 1.225 . S
O108 Pr80 2.436 . S
O108 Pr81 2.695 . S
O108 C98 1.270 . S
O109 Pr81 2.512 . S
O109 C98 1.248 . S
O110 Pr80 2.438 . S
O110 C99 1.267 . S
O111 Pr81 2.437 . S
O111 C99 1.278 . S
H112 C84 0.929 . S
H113 C85 0.929 . S
H114 C87 0.931 . S
H115 C88 0.930 . S
H116 C93 0.929 . S
H117 C94 0.929 . S
H118 C96 0.931 . S
H119 C97 0.930 . S
H120 C125 0.930 . S
H121 C128 0.930 . S
H122 C130 0.930 1_565 S
H123 C124 1.016 . S
C124 H123 1.016 . S
C124 N131 1.286 . S
C125 H120 0.930 . S
C125 C126 1.397 1_545 S
C125 C127 1.361 . S
C126 C125 1.397 1_565 S
C126 C130 1.390 1_565 S
C127 C125 1.361 . S
C127 C128 1.393 . S
C127 N131 1.413 . S
C128 H121 0.930 . S
C128 C127 1.393 . S
C128 C129 1.399 . S
C129 C128 1.399 . S
C129 C130 1.381 . S
C130 H122 0.930 1_545 S
C130 C126 1.390 1_545 S
C130 C129 1.381 . S
N131 C124 1.286 . S
N131 C127 1.413 . S
H132 C137 0.930 . S
H133 C140 0.930 . S
H134 C142 0.930 . S
H135 C136 1.016 . S
C136 H135 1.016 . S
C136 N143 1.286 . S
C137 H132 0.930 . S
C137 C138 1.397 . S
C137 C139 1.361 . S
C138 C137 1.397 . S
C138 C142 1.390 . S
C139 C137 1.361 . S
C139 C140 1.393 . S
C139 N143 1.413 . S
C140 H133 0.930 . S
C140 C139 1.393 . S
C140 C141 1.399 . S
C141 C140 1.399 . S
C141 C142 1.381 . S
C142 H134 0.930 . S
C142 C138 1.390 . S
C142 C141 1.381 . S
N143 C136 1.286 . S
N143 C139 1.413 . S
H144 C149 0.930 . S
H145 C152 0.930 . S
H146 C154 0.930 . S
H147 C148 1.016 . S
C148 H147 1.016 . S
C148 N155 1.286 . S
C149 H144 0.930 . S
C149 C150 1.397 . S
C149 C151 1.361 1_655 S
C150 C149 1.397 . S
C150 C154 1.390 . S
C151 C149 1.361 1_455 S
C151 C152 1.393 . S
C151 N155 1.413 . S
C152 H145 0.930 . S
C152 C151 1.393 . S
C152 C153 1.412 . S
C153 C152 1.412 . S
C153 C154 1.367 1_455 S
C154 H146 0.930 . S
C154 C150 1.390 . S
C154 C153 1.367 1_655 S
N155 C148 1.286 . S
N155 C151 1.413 . S
H156 C161 0.930 . S
H157 C164 0.930 . S
H158 C166 0.930 . S
H159 C160 1.016 . S
C160 H159 1.016 . S
C160 N167 1.286 . S
C161 H156 0.930 . S
C161 C162 1.397 . S
C161 C163 1.361 . S
C162 C161 1.397 . S
C162 C166 1.390 . S
C163 C161 1.361 . S
C163 C164 1.393 1_455 S
C163 N167 1.413 1_455 S
C164 H157 0.930 . S
C164 C163 1.393 1_655 S
C164 C165 1.399 1_655 S
C165 C164 1.399 1_455 S
C165 C166 1.381 . S
C166 H158 0.930 . S
C166 C162 1.390 . S
C166 C165 1.381 . S
N167 C160 1.286 . S
N167 C163 1.413 1_655 S
H168 C173 0.930 . S
H169 C176 0.930 . S
H170 C178 0.930 . S
H171 C172 1.016 . S
C172 H171 1.016 . S
C172 N179 1.286 . S
C173 H168 0.930 . S
C173 C174 1.397 . S
C173 C175 1.361 . S
C174 C173 1.397 . S
C174 C178 1.390 . S
C175 C173 1.361 . S
C175 C176 1.393 1_545 S
C175 N179 1.413 1_545 S
C176 H169 0.930 . S
C176 C175 1.393 1_565 S
C176 C177 1.399 1_565 S
C177 C176 1.399 1_545 S
C177 C178 1.381 . S
C178 H170 0.930 . S
C178 C174 1.390 . S
C178 C177 1.381 . S
N179 C172 1.286 . S
N179 C175 1.413 1_565 S
H180 C185 0.930 . S
H181 C188 0.930 . S
H182 C190 0.930 . S
H183 C184 1.016 . S
C184 H183 1.016 . S
C184 N191 1.286 . S
C185 H180 0.930 . S
C185 C186 1.397 . S
C185 C187 1.361 . S
C186 C185 1.397 . S
C186 C190 1.390 . S
C187 C185 1.361 . S
C187 C188 1.393 . S
C187 N191 1.413 . S
C188 H181 0.930 . S
C188 C187 1.393 . S
C188 C189 1.399 . S
C189 C188 1.399 . S
C189 C190 1.381 . S
C190 H182 0.930 . S
C190 C186 1.390 . S
C190 C189 1.381 . S
N191 C184 1.286 . S
N191 C187 1.413 . S
C192 C193 1.363 . S
C192 C198 1.379 . S
C192 N200 1.356 . S
C193 C192 1.363 . S
C193 C199 1.363 . S
C194 C195 1.363 . S
C194 C199 1.379 . S
C194 N201 1.356 . S
C195 C194 1.363 . S
C195 C198 1.363 . S
N196 C198 1.356 . S
N196 H208 0.984 . S
N196 H209 0.985 . S
N197 C199 1.356 . S
N197 H202 0.984 . S
N197 H203 0.985 . S
C198 C192 1.379 . S
C198 C195 1.363 . S
C198 N196 1.356 . S
C199 C193 1.363 . S
C199 C194 1.379 . S
C199 N197 1.356 . S
N200 C192 1.356 . S
N200 H206 0.984 . S
N200 H207 0.984 . S
N201 C194 1.356 . S
N201 H204 0.984 . S
N201 H205 0.985 . S
H202 N197 0.984 . S
H203 N197 0.985 . S
H204 N201 0.984 . S
H205 N201 0.985 . S
H206 N200 0.984 . S
H207 N200 0.984 . S
H208 N196 0.984 . S
H209 N196 0.985 . S
C210 C211 1.363 . S
C210 C216 1.379 . S
C210 N218 1.356 . S
C211 C210 1.363 . S
C211 C217 1.363 . S
C212 C213 1.363 . S
C212 C217 1.379 . S
C212 N219 1.356 . S
C213 C212 1.363 . S
C213 C216 1.363 . S
N214 C216 1.356 . S
N214 H226 0.984 . S
N214 H227 0.985 . S
N215 C217 1.356 . S
N215 H220 0.984 . S
N215 H221 0.985 . S
C216 C210 1.379 . S
C216 C213 1.363 . S
C216 N214 1.356 . S
C217 C211 1.363 . S
C217 C212 1.379 . S
C217 N215 1.356 . S
N218 C210 1.356 . S
N218 H224 0.984 . S
N218 H225 0.984 . S
N219 C212 1.356 . S
N219 H222 0.984 . S
N219 H223 0.985 . S
H220 N215 0.984 . S
H221 N215 0.985 . S
H222 N219 0.984 . S
H223 N219 0.985 . S
H224 N218 0.984 . S
H225 N218 0.984 . S
H226 N214 0.984 . S
H227 N214 0.985 . S
C228 C229 1.363 . S
C228 C234 1.379 . S
C228 N236 1.356 . S
C229 C228 1.363 . S
C229 C235 1.363 . S
C230 C231 1.363 . S
C230 C235 1.379 . S
C230 N237 1.356 . S
C231 C230 1.363 . S
C231 C234 1.363 . S
N232 C234 1.356 . S
N232 H244 0.984 . S
N232 H245 0.985 . S
N233 C235 1.356 . S
N233 H238 0.984 . S
N233 H239 0.985 . S
C234 C228 1.379 . S
C234 C231 1.363 . S
C234 N232 1.356 . S
C235 C229 1.363 . S
C235 C230 1.379 . S
C235 N233 1.356 . S
N236 C228 1.356 . S
N236 H242 0.984 . S
N236 H243 0.984 . S
N237 C230 1.356 . S
N237 H240 0.984 . S
N237 H241 0.985 . S
H238 N233 0.984 . S
H239 N233 0.985 . S
H240 N237 0.984 . S
H241 N237 0.985 . S
H242 N236 0.984 . S
H243 N236 0.984 . S
H244 N232 0.984 . S
H245 N232 0.985 . S
C246 C247 1.363 . S
C246 C252 1.379 . S
C246 N254 1.356 . S
C247 C246 1.363 . S
C247 C253 1.363 . S
C248 C249 1.363 . S
C248 C253 1.379 . S
C248 N255 1.356 . S
C249 C248 1.363 . S
C249 C252 1.363 . S
N250 C252 1.356 . S
N250 H262 0.984 . S
N250 H263 0.985 . S
N251 C253 1.356 . S
N251 H256 0.984 . S
N251 H257 0.985 . S
C252 C246 1.379 . S
C252 C249 1.363 . S
C252 N250 1.356 . S
C253 C247 1.363 . S
C253 C248 1.379 . S
C253 N251 1.356 . S
N254 C246 1.356 . S
N254 H260 0.984 . S
N254 H261 0.984 . S
N255 C248 1.356 . S
N255 H258 0.984 . S
N255 H259 0.985 . S
H256 N251 0.984 . S
H257 N251 0.985 . S
H258 N255 0.984 . S
H259 N255 0.985 . S
H260 N254 0.984 . S
H261 N254 0.984 . S
H262 N250 0.984 . S
H263 N250 0.985 . S
C264 C265 1.363 . S
C264 C270 1.379 . S
C264 N272 1.356 . S
C265 C264 1.363 . S
C265 C271 1.363 . S
C266 C267 1.363 . S
C266 C271 1.379 . S
C266 N273 1.356 . S
C267 C266 1.363 . S
C267 C270 1.363 . S
N268 C270 1.356 . S
N268 H280 0.984 . S
N268 H281 0.985 . S
N269 C271 1.356 . S
N269 H274 0.984 . S
N269 H275 0.985 . S
C270 C264 1.379 . S
C270 C267 1.363 . S
C270 N268 1.356 . S
C271 C265 1.363 . S
C271 C266 1.379 . S
C271 N269 1.356 . S
N272 C264 1.356 . S
N272 H278 0.984 . S
N272 H279 0.984 . S
N273 C266 1.356 . S
N273 H276 0.984 . S
N273 H277 0.985 . S
H274 N269 0.984 . S
H275 N269 0.985 . S
H276 N273 0.984 . S
H277 N273 0.985 . S
H278 N272 0.984 . S
H279 N272 0.984 . S
H280 N268 0.984 . S
H281 N268 0.985 . S
C282 C283 1.363 . S
C282 C288 1.379 . S
C282 N290 1.356 . S
C283 C282 1.363 . S
C283 C289 1.363 . S
C284 C285 1.363 . S
C284 C289 1.379 . S
C284 N291 1.356 . S
C285 C284 1.363 . S
C285 C288 1.363 . S
N286 C288 1.356 . S
N286 H298 0.984 . S
N286 H299 0.985 . S
N287 C289 1.356 . S
N287 H292 0.984 . S
N287 H293 0.985 . S
C288 C282 1.379 . S
C288 C285 1.363 . S
C288 N286 1.356 . S
C289 C283 1.363 . S
C289 C284 1.379 . S
C289 N287 1.356 . S
N290 C282 1.356 . S
N290 H296 0.984 . S
N290 H297 0.984 . S
N291 C284 1.356 . S
N291 H294 0.984 . S
N291 H295 0.985 . S
H292 N287 0.984 . S
H293 N287 0.985 . S
H294 N291 0.984 . S
H295 N291 0.985 . S
H296 N290 0.984 . S
H297 N290 0.984 . S
H298 N286 0.984 . S
H299 N286 0.985 . S
C300 C301 1.363 . S
C300 C306 1.379 . S
C300 N308 1.356 . S
C301 C300 1.363 . S
C301 C307 1.363 . S
C302 C303 1.363 . S
C302 C307 1.379 . S
C302 N309 1.356 . S
C303 C302 1.363 . S
C303 C306 1.363 . S
N304 C306 1.356 . S
N304 H316 0.984 . S
N304 H317 0.985 . S
N305 C307 1.356 . S
N305 H310 0.984 . S
N305 H311 0.985 . S
C306 C300 1.379 . S
C306 C303 1.363 . S
C306 N304 1.356 . S
C307 C301 1.363 . S
C307 C302 1.379 . S
C307 N305 1.356 . S
N308 C300 1.356 . S
N308 H314 0.984 . S
N308 H315 0.984 . S
N309 C302 1.356 . S
N309 H312 0.984 . S
N309 H313 0.985 . S
H310 N305 0.984 . S
H311 N305 0.985 . S
H312 N309 0.984 . S
H313 N309 0.985 . S
H314 N308 0.984 . S
H315 N308 0.984 . S
H316 N304 0.984 . S
H317 N304 0.985 . S
C318 C319 1.363 . S
C318 C324 1.379 . S
C318 N326 1.356 . S
C319 C318 1.363 . S
C319 C325 1.363 . S
C320 C321 1.363 . S
C320 C325 1.379 . S
C320 N327 1.356 . S
C321 C320 1.363 . S
C321 C324 1.363 . S
N322 C324 1.356 . S
N322 H334 0.984 . S
N322 H335 0.985 . S
N323 C325 1.356 . S
N323 H328 0.984 . S
N323 H329 0.985 . S
C324 C318 1.379 . S
C324 C321 1.363 . S
C324 N322 1.356 . S
C325 C319 1.363 . S
C325 C320 1.379 . S
C325 N323 1.356 . S
N326 C318 1.356 . S
N326 H332 0.984 . S
N326 H333 0.984 . S
N327 C320 1.356 . S
N327 H330 0.984 . S
N327 H331 0.985 . S
H328 N323 0.984 . S
H329 N323 0.985 . S
H330 N327 0.984 . S
H331 N327 0.985 . S
H332 N326 0.984 . S
H333 N326 0.984 . S
H334 N322 0.984 . S
H335 N322 0.985 . S
C336 C337 1.363 . S
C336 C342 1.379 . S
C336 N344 1.356 . S
C337 C336 1.363 . S
C337 C343 1.363 . S
C338 C339 1.363 . S
C338 C343 1.379 . S
C338 N345 1.356 . S
C339 C338 1.363 . S
C339 C342 1.363 . S
N340 C342 1.356 . S
N340 H352 0.984 . S
N340 H353 0.985 . S
N341 C343 1.356 . S
N341 H346 0.984 . S
N341 H347 0.985 . S
C342 C336 1.379 . S
C342 C339 1.363 . S
C342 N340 1.356 . S
C343 C337 1.363 . S
C343 C338 1.379 . S
C343 N341 1.356 . S
N344 C336 1.356 . S
N344 H350 0.984 . S
N344 H351 0.984 . S
N345 C338 1.356 . S
N345 H348 0.984 1_565 S
N345 H349 0.985 . S
H346 N341 0.984 . S
H347 N341 0.985 . S
H348 N345 0.984 1_545 S
H349 N345 0.985 . S
H350 N344 0.984 . S
H351 N344 0.984 . S
H352 N340 0.984 . S
H353 N340 0.985 . S
C354 C355 1.363 . S
C354 C360 1.379 . S
C354 N362 1.356 . S
C355 C354 1.363 . S
C355 C361 1.363 . S
C356 C357 1.363 . S
C356 C361 1.379 . S
C356 N363 1.356 . S
C357 C356 1.363 . S
C357 C360 1.363 . S
N358 C360 1.356 . S
N358 H370 0.984 . S
N358 H371 0.985 . S
N359 C361 1.356 . S
N359 H364 0.984 . S
N359 H365 0.985 . S
C360 C354 1.379 . S
C360 C357 1.363 . S
C360 N358 1.356 . S
C361 C355 1.363 . S
C361 C356 1.379 . S
C361 N359 1.356 . S
N362 C354 1.356 . S
N362 H368 0.984 . S
N362 H369 0.984 . S
N363 C356 1.356 . S
N363 H366 0.984 . S
N363 H367 0.985 . S
H364 N359 0.984 . S
H365 N359 0.985 . S
H366 N363 0.984 . S
H367 N363 0.985 . S
H368 N362 0.984 . S
H369 N362 0.984 . S
H370 N358 0.984 . S
H371 N358 0.985 . S
C372 C373 1.363 . S
C372 C378 1.379 . S
C372 N380 1.356 . S
C373 C372 1.363 . S
C373 C379 1.363 . S
C374 C375 1.363 . S
C374 C379 1.379 . S
C374 N381 1.356 . S
C375 C374 1.363 . S
C375 C378 1.363 . S
N376 C378 1.356 . S
N376 H388 0.984 . S
N376 H389 0.985 . S
N377 C379 1.356 . S
N377 H382 0.984 . S
N377 H383 0.985 . S
C378 C372 1.379 . S
C378 C375 1.363 . S
C378 N376 1.356 . S
C379 C373 1.363 . S
C379 C374 1.379 . S
C379 N377 1.356 . S
N380 C372 1.356 . S
N380 H386 0.984 . S
N380 H387 0.984 . S
N381 C374 1.356 . S
N381 H384 0.984 . S
N381 H385 0.985 . S
H382 N377 0.984 . S
H383 N377 0.985 . S
H384 N381 0.984 . S
H385 N381 0.985 . S
H386 N380 0.984 . S
H387 N380 0.984 . S
H388 N376 0.984 . S
H389 N376 0.985 . S
C390 C391 1.363 . S
C390 C396 1.379 . S
C390 N398 1.356 . S
C391 C390 1.363 . S
C391 C397 1.363 . S
C392 C393 1.363 . S
C392 C397 1.379 . S
C392 N399 1.356 . S
C393 C392 1.363 . S
C393 C396 1.363 . S
N394 C396 1.356 . S
N394 H406 0.984 . S
N394 H407 0.985 . S
N395 C397 1.356 . S
N395 H400 0.984 . S
N395 H401 0.985 . S
C396 C390 1.379 . S
C396 C393 1.363 . S
C396 N394 1.356 . S
C397 C391 1.363 . S
C397 C392 1.379 . S
C397 N395 1.356 . S
N398 C390 1.356 . S
N398 H404 0.984 . S
N398 H405 0.984 . S
N399 C392 1.356 . S
N399 H402 0.984 . S
N399 H403 0.985 . S
H400 N395 0.984 . S
H401 N395 0.985 . S
H402 N399 0.984 . S
H403 N399 0.985 . S
H404 N398 0.984 . S
H405 N398 0.984 . S
H406 N394 0.984 . S
H407 N394 0.985 . S
C408 C409 1.363 . S
C408 C414 1.379 1_554 S
C408 N416 1.356 . S
C409 C408 1.363 . S
C409 C415 1.363 . S
C410 C411 1.363 . S
C410 C415 1.379 1_556 S
C410 N417 1.356 . S
C411 C410 1.363 . S
C411 C414 1.363 . S
N412 C414 1.356 1_655 S
N412 H424 0.984 . S
N412 H425 0.985 . S
N413 C415 1.356 . S
N413 H418 0.984 . S
N413 H419 0.985 . S
C414 C408 1.379 1_556 S
C414 C411 1.363 . S
C414 N412 1.356 1_455 S
C415 C409 1.363 . S
C415 C410 1.379 1_554 S
C415 N413 1.356 . S
N416 C408 1.356 . S
N416 H422 0.984 1_455 S
N416 H423 0.984 . S
N417 C410 1.356 . S
N417 H420 0.984 . S
N417 H421 0.985 . S
H418 N413 0.984 . S
H419 N413 0.985 . S
H420 N417 0.984 . S
H421 N417 0.985 . S
H422 N416 0.984 1_655 S
H423 N416 0.984 . S
H424 N412 0.984 . S
H425 N412 0.985 . S
C426 C427 1.363 . S
C426 C432 1.379 . S
C426 N434 1.356 1_545 S
C427 C426 1.363 . S
C427 C433 1.363 . S
C428 C429 1.363 . S
C428 C433 1.379 . S
C428 N435 1.356 . S
C429 C428 1.363 . S
C429 C432 1.363 . S
N430 C432 1.356 1_565 S
N430 H442 0.984 . S
N430 H443 0.985 . S
N431 C433 1.356 . S
N431 H436 0.984 . S
N431 H437 0.985 . S
C432 C426 1.379 . S
C432 C429 1.363 . S
C432 N430 1.356 1_545 S
C433 C427 1.363 . S
C433 C428 1.379 . S
C433 N431 1.356 . S
N434 C426 1.356 1_565 S
N434 H440 0.984 . S
N434 H441 0.984 . S
N435 C428 1.356 . S
N435 H438 0.984 . S
N435 H439 0.985 . S
H436 N431 0.984 . S
H437 N431 0.985 . S
H438 N435 0.984 . S
H439 N435 0.985 . S
H440 N434 0.984 . S
H441 N434 0.984 . S
H442 N430 0.984 . S
H443 N430 0.985 . S
C444 C445 1.363 . S
C444 C450 1.379 . S
C444 N452 1.356 . S
C445 C444 1.363 . S
C445 C451 1.363 . S
C446 C447 1.363 . S
C446 C451 1.379 . S
C446 N453 1.356 . S
C447 C446 1.363 . S
C447 C450 1.363 . S
N448 C450 1.356 . S
N448 H460 0.984 . S
N448 H461 0.985 . S
N449 C451 1.356 . S
N449 H454 0.984 . S
N449 H455 0.985 . S
C450 C444 1.379 . S
C450 C447 1.363 . S
C450 N448 1.356 . S
C451 C445 1.363 . S
C451 C446 1.379 . S
C451 N449 1.356 . S
N452 C444 1.356 . S
N452 H458 0.984 . S
N452 H459 0.984 . S
N453 C446 1.356 . S
N453 H456 0.984 . S
N453 H457 0.985 . S
H454 N449 0.984 . S
H455 N449 0.985 . S
H456 N453 0.984 . S
H457 N453 0.985 . S
H458 N452 0.984 . S
H459 N452 0.984 . S
H460 N448 0.984 . S
H461 N448 0.985 . S
C462 C463 1.363 . S
C462 C468 1.379 . S
C462 N470 1.356 . S
C463 C462 1.363 . S
C463 C469 1.363 . S
C464 C465 1.373 . S
C464 C469 1.382 . S
C464 N471 1.345 1_545 S
C465 C464 1.373 . S
C465 C468 1.363 . S
N466 C468 1.356 . S
N466 H478 0.984 . S
N466 H479 0.985 . S
N467 C469 1.356 1_565 S
N467 H472 0.984 . S
N467 H473 0.985 . S
C468 C462 1.379 . S
C468 C465 1.363 . S
C468 N466 1.356 . S
C469 C463 1.363 . S
C469 C464 1.382 . S
C469 N467 1.356 1_545 S
N470 C462 1.356 . S
N470 H476 0.984 . S
N470 H477 0.984 . S
N471 C464 1.345 1_565 S
N471 H474 0.984 . S
N471 H475 0.985 . S
H472 N467 0.984 . S
H473 N467 0.985 . S
H474 N471 0.984 . S
H475 N471 0.985 . S
H476 N470 0.984 . S
H477 N470 0.984 . S
H478 N466 0.984 . S
H479 N466 0.985 . S
C480 C481 1.363 . S
C480 C486 1.379 1_556 S
C480 N488 1.356 . S
C481 C480 1.363 . S
C481 C487 1.363 . S
C482 C483 1.363 . S
C482 C487 1.379 1_554 S
C482 N489 1.356 . S
C483 C482 1.363 . S
C483 C486 1.363 . S
N484 C486 1.356 . S
N484 H496 0.984 . S
N484 H497 0.985 . S
N485 C487 1.356 . S
N485 H490 0.984 . S
N485 H491 0.985 . S
C486 C480 1.379 1_554 S
C486 C483 1.363 . S
C486 N484 1.356 . S
C487 C481 1.363 . S
C487 C482 1.379 1_556 S
C487 N485 1.356 . S
N488 C480 1.356 . S
N488 H494 0.984 . S
N488 H495 0.984 . S
N489 C482 1.356 . S
N489 H492 0.984 . S
N489 H493 0.985 . S
H490 N485 0.984 . S
H491 N485 0.985 . S
H492 N489 0.984 . S
H493 N489 0.985 . S
H494 N488 0.984 . S
H495 N488 0.984 . S
H496 N484 0.984 . S
H497 N484 0.985 . S
C498 C499 1.363 1_655 S
C498 C504 1.379 . S
C498 N506 1.356 . S
C499 C498 1.363 1_455 S
C499 C505 1.363 . S
C500 C501 1.363 . S
C500 C505 1.379 . S
C500 N507 1.356 . S
C501 C500 1.363 . S
C501 C504 1.363 1_455 S
N502 C504 1.356 . S
N502 H514 0.984 . S
N502 H515 0.985 . S
N503 C505 1.356 . S
N503 H508 0.984 . S
N503 H509 0.985 . S
C504 C498 1.379 . S
C504 C501 1.363 1_655 S
C504 N502 1.356 . S
C505 C499 1.363 . S
C505 C500 1.379 . S
C505 N503 1.356 . S
N506 C498 1.356 . S
N506 H512 0.984 . S
N506 H513 0.984 . S
N507 C500 1.356 . S
N507 H510 0.984 . S
N507 H511 0.985 . S
H508 N503 0.984 . S
H509 N503 0.985 . S
H510 N507 0.984 . S
H511 N507 0.985 . S
H512 N506 0.984 . S
H513 N506 0.984 . S
H514 N502 0.984 . S
H515 N502 0.985 . S
C193 C19 2.088 . S
C195 C186 2.072 . S
C211 C46 1.367 . S
C213 C160 1.400 . S
C229 C95 0.832 . S
C231 C172 0.897 . S
C247 C10 1.877 . S
C249 C184 1.739 . S
C267 C162 1.343 . S
C265 C55 1.302 . S
C285 C174 0.791 . S
C283 C86 0.777 . S
C301 C59 3.179 . S
C303 C136 3.081 . S
C319 C90 2.149 . S
C321 C150 2.182 . S
C337 C15 1.231 . S
C339 C126 1.270 . S
C357 C138 3.005 . S
C355 C50 3.029 . S
C375 C148 1.723 . S
C373 C99 1.811 . S
C391 C6 1.329 . S
C393 C124 1.348 . S
C411 C153 1.478 . S
C409 C9 1.406 . S
C427 C58 1.527 . S
C429 C129 1.540 . S
C445 C98 1.689 . S
C447 C141 1.783 . S
C465 C177 1.157 . S
C463 C49 1.107 . S
C483 C189 1.483 . S
C481 C89 1.439 . S
C499 C18 1.491 . S
C501 C165 1.505 . S
