# Generated by pormake.
# Topology ctn, (3,4)-cn, num edge types: 1
# Building blocks:
#     Node 0, Type 0, BuildingBlock: ESEHIV_clean_linker_0, # of connection points: 3
#     Node 1, Type 0, BuildingBlock: ESEHIV_clean_linker_0, # of connection points: 3
#     Node 2, Type 0, BuildingBlock: ESEHIV_clean_linker_0, # of connection points: 3
#     Node 3, Type 0, BuildingBlock: ESEHIV_clean_linker_0, # of connection points: 3
#     Node 4, Type 0, BuildingBlock: ESEHIV_clean_linker_0, # of connection points: 3
#     Node 5, Type 0, BuildingBlock: ESEHIV_clean_linker_0, # of connection points: 3
#     Node 6, Type 0, BuildingBlock: ESEHIV_clean_linker_0, # of connection points: 3
#     Node 7, Type 0, BuildingBlock: ESEHIV_clean_linker_0, # of connection points: 3
#     Node 8, Type 0, BuildingBlock: ESEHIV_clean_linker_0, # of connection points: 3
#     Node 9, Type 0, BuildingBlock: ESEHIV_clean_linker_0, # of connection points: 3
#     Node 10, Type 0, BuildingBlock: ESEHIV_clean_linker_0, # of connection points: 3
#     Node 11, Type 0, BuildingBlock: ESEHIV_clean_linker_0, # of connection points: 3
#     Node 12, Type 0, BuildingBlock: ESEHIV_clean_linker_0, # of connection points: 3
#     Node 13, Type 0, BuildingBlock: ESEHIV_clean_linker_0, # of connection points: 3
#     Node 14, Type 0, BuildingBlock: ESEHIV_clean_linker_0, # of connection points: 3
#     Node 15, Type 0, BuildingBlock: ESEHIV_clean_linker_0, # of connection points: 3
#     Node 16, Type 1, BuildingBlock: KUFVIS_clean_sbu_0, # of connection points: 4
#     Node 17, Type 1, BuildingBlock: KUFVIS_clean_sbu_0, # of connection points: 4
#     Node 18, Type 1, BuildingBlock: KUFVIS_clean_sbu_0, # of connection points: 4
#     Node 19, Type 1, BuildingBlock: KUFVIS_clean_sbu_0, # of connection points: 4
#     Node 20, Type 1, BuildingBlock: KUFVIS_clean_sbu_0, # of connection points: 4
#     Node 21, Type 1, BuildingBlock: KUFVIS_clean_sbu_0, # of connection points: 4
#     Node 22, Type 1, BuildingBlock: KUFVIS_clean_sbu_0, # of connection points: 4
#     Node 23, Type 1, BuildingBlock: KUFVIS_clean_sbu_0, # of connection points: 4
#     Node 24, Type 1, BuildingBlock: KUFVIS_clean_sbu_0, # of connection points: 4
#     Node 25, Type 1, BuildingBlock: KUFVIS_clean_sbu_0, # of connection points: 4
#     Node 26, Type 1, BuildingBlock: KUFVIS_clean_sbu_0, # of connection points: 4
#     Node 27, Type 1, BuildingBlock: KUFVIS_clean_sbu_0, # of connection points: 4
#     Edge 28, Type (0, 1), BuildingBlock: EZIPEK_clean_linker_0, # of connection points: 2
#     Edge 29, Type (0, 1), BuildingBlock: EZIPEK_clean_linker_0, # of connection points: 2
#     Edge 30, Type (0, 1), BuildingBlock: EZIPEK_clean_linker_0, # of connection points: 2
#     Edge 31, Type (0, 1), BuildingBlock: EZIPEK_clean_linker_0, # of connection points: 2
#     Edge 32, Type (0, 1), BuildingBlock: EZIPEK_clean_linker_0, # of connection points: 2
#     Edge 33, Type (0, 1), BuildingBlock: EZIPEK_clean_linker_0, # of connection points: 2
#     Edge 34, Type (0, 1), BuildingBlock: EZIPEK_clean_linker_0, # of connection points: 2
#     Edge 35, Type (0, 1), BuildingBlock: EZIPEK_clean_linker_0, # of connection points: 2
#     Edge 36, Type (0, 1), BuildingBlock: EZIPEK_clean_linker_0, # of connection points: 2
#     Edge 37, Type (0, 1), BuildingBlock: EZIPEK_clean_linker_0, # of connection points: 2
#     Edge 38, Type (0, 1), BuildingBlock: EZIPEK_clean_linker_0, # of connection points: 2
#     Edge 39, Type (0, 1), BuildingBlock: EZIPEK_clean_linker_0, # of connection points: 2
#     Edge 40, Type (0, 1), BuildingBlock: EZIPEK_clean_linker_0, # of connection points: 2
#     Edge 41, Type (0, 1), BuildingBlock: EZIPEK_clean_linker_0, # of connection points: 2
#     Edge 42, Type (0, 1), BuildingBlock: EZIPEK_clean_linker_0, # of connection points: 2
#     Edge 43, Type (0, 1), BuildingBlock: EZIPEK_clean_linker_0, # of connection points: 2
#     Edge 44, Type (0, 1), BuildingBlock: EZIPEK_clean_linker_0, # of connection points: 2
#     Edge 45, Type (0, 1), BuildingBlock: EZIPEK_clean_linker_0, # of connection points: 2
#     Edge 46, Type (0, 1), BuildingBlock: EZIPEK_clean_linker_0, # of connection points: 2
#     Edge 47, Type (0, 1), BuildingBlock: EZIPEK_clean_linker_0, # of connection points: 2
#     Edge 48, Type (0, 1), BuildingBlock: EZIPEK_clean_linker_0, # of connection points: 2
#     Edge 49, Type (0, 1), BuildingBlock: EZIPEK_clean_linker_0, # of connection points: 2
#     Edge 50, Type (0, 1), BuildingBlock: EZIPEK_clean_linker_0, # of connection points: 2
#     Edge 51, Type (0, 1), BuildingBlock: EZIPEK_clean_linker_0, # of connection points: 2
#     Edge 52, Type (0, 1), BuildingBlock: EZIPEK_clean_linker_0, # of connection points: 2
#     Edge 53, Type (0, 1), BuildingBlock: EZIPEK_clean_linker_0, # of connection points: 2
#     Edge 54, Type (0, 1), BuildingBlock: EZIPEK_clean_linker_0, # of connection points: 2
#     Edge 55, Type (0, 1), BuildingBlock: EZIPEK_clean_linker_0, # of connection points: 2
#     Edge 56, Type (0, 1), BuildingBlock: EZIPEK_clean_linker_0, # of connection points: 2
#     Edge 57, Type (0, 1), BuildingBlock: EZIPEK_clean_linker_0, # of connection points: 2
#     Edge 58, Type (0, 1), BuildingBlock: EZIPEK_clean_linker_0, # of connection points: 2
#     Edge 59, Type (0, 1), BuildingBlock: EZIPEK_clean_linker_0, # of connection points: 2
#     Edge 60, Type (0, 1), BuildingBlock: EZIPEK_clean_linker_0, # of connection points: 2
#     Edge 61, Type (0, 1), BuildingBlock: EZIPEK_clean_linker_0, # of connection points: 2
#     Edge 62, Type (0, 1), BuildingBlock: EZIPEK_clean_linker_0, # of connection points: 2
#     Edge 63, Type (0, 1), BuildingBlock: EZIPEK_clean_linker_0, # of connection points: 2
#     Edge 64, Type (0, 1), BuildingBlock: EZIPEK_clean_linker_0, # of connection points: 2
#     Edge 65, Type (0, 1), BuildingBlock: EZIPEK_clean_linker_0, # of connection points: 2
#     Edge 66, Type (0, 1), BuildingBlock: EZIPEK_clean_linker_0, # of connection points: 2
#     Edge 67, Type (0, 1), BuildingBlock: EZIPEK_clean_linker_0, # of connection points: 2
#     Edge 68, Type (0, 1), BuildingBlock: EZIPEK_clean_linker_0, # of connection points: 2
#     Edge 69, Type (0, 1), BuildingBlock: EZIPEK_clean_linker_0, # of connection points: 2
#     Edge 70, Type (0, 1), BuildingBlock: EZIPEK_clean_linker_0, # of connection points: 2
#     Edge 71, Type (0, 1), BuildingBlock: EZIPEK_clean_linker_0, # of connection points: 2
#     Edge 72, Type (0, 1), BuildingBlock: EZIPEK_clean_linker_0, # of connection points: 2
#     Edge 73, Type (0, 1), BuildingBlock: EZIPEK_clean_linker_0, # of connection points: 2
#     Edge 74, Type (0, 1), BuildingBlock: EZIPEK_clean_linker_0, # of connection points: 2
#     Edge 75, Type (0, 1), BuildingBlock: EZIPEK_clean_linker_0, # of connection points: 2
# Relax obj value: 0.012
# Max RMSD: 0.062
# Mean RMSD: 0.031
data_MOF--net-ctn--node1-KUFVIS_clean_sbu_0--node2-ESEHIV_clean_linker_0--edge1-EZIPEK_clean_linker_0
_symmetry_space_group_name_H-M    P1
_symmetry_Int_Tables_number       1
_symmetry_cell_setting            triclinic
loop_
_symmetry_equiv_pos_as_xyz
'x, y, z'
_cell_length_a     35.897672
_cell_length_b     35.70178
_cell_length_c     35.842391
_cell_angle_alpha  90.846265
_cell_angle_beta   90.16643
_cell_angle_gamma 91.561789
loop_
_atom_site_label
_atom_site_type_symbol
_atom_site_fract_x
_atom_site_fract_y
_atom_site_fract_z
_atom_type_partial_charge
H0 H 0.99415 0.09766 0.07365 0.0
H1 H 0.06718 1.00604 0.09234 0.0
H2 H 0.08506 0.07824 0.99851 0.0
C3 C 0.01852 0.08207 0.0659 0.0
C4 C 0.03867 0.09196 0.0339 0.0
C5 C 0.02889 0.05136 0.08727 0.0
C6 C 0.05971 0.03033 0.07645 0.0
C7 C 0.08018 0.04 0.04447 0.0
C8 C 0.06975 0.07108 0.02356 0.0
H9 H 0.33331 0.66631 0.2544 0.0
H10 H 0.35953 0.77215 0.20216 0.0
H11 H 0.26009 0.71114 0.17299 0.0
C12 C 0.32831 0.68758 0.23395 0.0
C13 C 0.29453 0.68489 0.21393 0.0
C14 C 0.35455 0.7174 0.22867 0.0
C15 C 0.34348 0.74657 0.20497 0.0
C16 C 0.31037 0.74394 0.18403 0.0
C17 C 0.28579 0.7132 0.18893 0.0
H18 H 0.96906 0.53754 0.08762 0.0
H19 H 0.03246 0.43936 0.06387 0.0
H20 H 0.94036 0.46709 0.99309 0.0
C21 C 0.97478 0.51363 0.06975 0.0
C22 C 0.95162 0.50527 0.03896 0.0
C23 C 1.00444 0.49034 0.07835 0.0
C24 C 0.01068 0.45828 0.05622 0.0
C25 C 0.98789 0.44986 0.02512 0.0
C26 C 0.95891 0.47404 0.01627 0.0
H27 H 0.6683 0.76012 0.19782 0.0
H28 H 0.76491 0.82412 0.1627 0.0
H29 H 0.70223 0.86032 0.25827 0.0
C30 C 0.6874 0.78392 0.20167 0.0
C31 C 0.68244 0.80904 0.23166 0.0
C32 C 0.71646 0.78997 0.17612 0.0
C33 C 0.74185 0.82007 0.18183 0.0
C34 C 0.73694 0.8456 0.21144 0.0
C35 C 0.70644 0.84052 0.23554 0.0
H36 H 0.99299 0.93463 0.47025 0.0
H37 H 0.06239 0.03001 0.4429 0.0
H38 H 0.08804 0.96486 0.53896 0.0
C39 C 0.0162 0.95363 0.47692 0.0
C40 C 0.03903 0.94677 0.50787 0.0
C41 C 0.02447 0.98398 0.45355 0.0
C42 C 0.05519 1.00775 0.4618 0.0
C43 C 0.07796 1.00144 0.49284 0.0
C44 C 0.06987 0.97068 0.51565 0.0
H45 H 0.16691 0.75237 0.83959 0.0
H46 H 0.2589 0.69216 0.88136 0.0
H47 H 0.20121 0.65202 0.78386 0.0
C48 C 0.18243 0.72692 0.8389 0.0
C49 C 0.17376 0.69766 0.81297 0.0
C50 C 0.2118 0.72442 0.86467 0.0
C51 C 0.23583 0.69418 0.86196 0.0
C52 C 0.23235 0.66872 0.83205 0.0
C53 C 0.20163 0.67071 0.80778 0.0
H54 H 0.94457 0.56574 0.53406 0.0
H55 H 0.03923 0.58956 0.46467 0.0
H56 H 0.96435 0.49645 0.43781 0.0
C57 C 0.9621 0.55827 0.51093 0.0
C58 C 0.95128 0.52809 0.4877 0.0
C59 C 0.99402 0.5802 0.50332 0.0
C60 C 0.01515 0.57199 0.47139 0.0
C61 C 1.00474 0.54164 0.44768 0.0
C62 C 0.97291 0.51948 0.45623 0.0
H63 H 0.77087 0.81673 0.86807 0.0
H64 H 0.83435 0.86545 0.77838 0.0
H65 H 0.87115 0.76506 0.83074 0.0
C66 C 0.79516 0.81684 0.85016 0.0
C67 C 0.82122 0.78841 0.85333 0.0
C68 C 0.79973 0.84476 0.82326 0.0
C69 C 0.83096 0.84425 0.79954 0.0
C70 C 0.85648 0.81506 0.80142 0.0
C71 C 0.85168 0.78767 0.82892 0.0
H72 H 0.27465 0.3253 0.36618 0.0
H73 H 0.34539 0.38141 0.28855 0.0
H74 H 0.3803 0.27927 0.3406 0.0
C75 C 0.30101 0.32728 0.35155 0.0
C76 C 0.32771 0.30006 0.35693 0.0
C77 C 0.30783 0.35657 0.32672 0.0
C78 C 0.34207 0.35874 0.30757 0.0
C79 C 0.36981 0.3317 0.31251 0.0
C80 C 0.36128 0.30199 0.33713 0.0
H81 H 0.45843 0.02828 0.59042 0.0
H82 H 0.53048 0.93572 0.57075 0.0
H83 H 0.43855 0.95395 0.49634 0.0
C84 C 0.46591 1.00394 0.57392 0.0
C85 C 0.44503 0.99374 0.54198 0.0
C86 C 0.49657 0.98291 0.58449 0.0
C87 C 0.50656 0.95174 0.56281 0.0
C88 C 0.48554 0.94084 0.53119 0.0
C89 C 0.45481 0.96206 0.52082 0.0
H90 H 0.15614 0.26881 0.69031 0.0
H91 H 0.25282 0.33261 0.6556 0.0
H92 H 0.18682 0.37224 0.74729 0.0
C93 C 0.1743 0.29342 0.69334 0.0
C94 C 0.16799 0.31986 0.72195 0.0
C95 C 0.20436 0.29865 0.66887 0.0
C96 C 0.22891 0.32946 0.67382 0.0
C97 C 0.22295 0.35612 0.70207 0.0
C98 C 0.19162 0.3518 0.72527 0.0
H99 H 0.83883 0.13939 0.72719 0.0
H100 H 0.84949 0.25946 0.71414 0.0
H101 H 0.75568 0.19863 0.66833 0.0
C102 C 0.82857 0.16594 0.71799 0.0
C103 C 0.79307 0.1664 0.70145 0.0
C104 C 0.84814 0.19977 0.72647 0.0
C105 C 0.83523 0.23271 0.70954 0.0
C106 C 0.80452 0.23139 0.6851 0.0
C107 C 0.78171 0.19887 0.68373 0.0
H108 H 0.49201 0.58537 0.57381 0.0
H109 H 0.57609 0.5043 0.59402 0.0
H110 H 0.58519 0.57627 0.49907 0.0
C111 C 0.51805 0.57267 0.56614 0.0
C112 C 0.53721 0.5848 0.53416 0.0
C113 C 0.53232 0.54419 0.58826 0.0
C114 C 0.56551 0.52697 0.57758 0.0
C115 C 0.58447 0.53799 0.54517 0.0
C116 C 0.57059 0.5675 0.52403 0.0
H117 H 0.47786 0.43695 0.98268 0.0
H118 H 0.55775 0.5166 0.93762 0.0
H119 H 0.57986 0.46246 0.04136 0.0
C120 C 0.50409 0.45264 0.98438 0.0
C121 C 0.52819 0.44594 0.01424 0.0
C122 C 0.51502 0.47664 0.95523 0.0
C123 C 0.54874 0.49771 0.95937 0.0
C124 C 0.57125 0.49432 0.99139 0.0
C125 C 0.56144 0.46722 0.01798 0.0
H126 H 0.68155 0.26318 0.3326 0.0
H127 H 0.75618 0.19474 0.39094 0.0
H128 H 0.70283 0.15374 0.289 0.0
C129 C 0.69561 0.23678 0.33471 0.0
C130 C 0.68881 0.20839 0.30799 0.0
C131 C 0.71899 0.23081 0.36512 0.0
C132 C 0.73705 0.19661 0.3681 0.0
C133 C 0.73113 0.16704 0.34181 0.0
C134 C 0.70724 0.17427 0.31113 0.0
H135 H 0.42412 0.08371 0.0138 0.0
H136 H 0.54006 0.07786 0.98107 0.0
H137 H 0.45777 1.00214 0.93392 0.0
C138 C 0.44683 0.07087 0.99911 0.0
C139 C 0.43851 0.03841 0.97795 0.0
C140 C 0.48401 0.08469 1.00334 0.0
C141 C 0.51111 0.06882 0.97944 0.0
C142 C 0.50065 0.04224 0.95153 0.0
C143 C 0.46512 0.025 0.95302 0.0
Mn144 Mn 0.2528 0.88583 0.02014 0.0
Mn145 Mn 0.24961 0.91491 0.931 0.0
C146 C 0.22937 0.84613 0.97341 0.0
C147 C 0.27976 0.85338 0.06927 0.0
C148 C 0.19868 0.94428 0.99202 0.0
O149 O 0.29121 0.92968 0.01963 0.0
O150 O 0.29009 0.94312 0.95793 0.0
C151 C 0.32234 0.89125 0.90154 0.0
N152 N 0.28441 0.88951 0.90008 0.0
C153 C 0.28519 0.85216 0.84366 0.0
C154 C 0.32426 0.85377 0.84443 0.0
C155 C 0.3429 0.87319 0.87364 0.0
C156 C 0.2662 0.87077 0.87218 0.0
H157 H 0.33681 0.9065 0.92369 0.0
C158 C 0.3035 0.94737 0.99099 0.0
O159 O 0.25519 0.87874 0.07531 0.0
O160 O 0.29157 0.84987 0.03526 0.0
N161 N 0.212 0.888 0.90257 0.0
C162 C 0.1746 0.88522 0.90852 0.0
C163 C 0.15187 0.86451 0.88329 0.0
C164 C 0.16793 0.84625 0.85258 0.0
C165 C 0.20665 0.84846 0.84769 0.0
C166 C 0.22784 0.86963 0.8737 0.0
H167 H 0.16244 0.89745 0.93312 0.0
O168 O 0.21912 0.84177 1.00777 0.0
O169 O 0.25155 0.87471 0.96736 0.0
O170 O 0.20954 0.92221 0.01725 0.0
O171 O 0.21241 0.94412 0.95925 0.0
C172 C 0.22513 0.82977 0.81853 0.0
C173 C 0.26436 0.83197 0.81627 0.0
H174 H 0.34022 0.83972 0.82305 0.0
H175 H 0.37305 0.87436 0.87455 0.0
H176 H 0.12213 0.86207 0.88789 0.0
H177 H 0.15037 0.82993 0.83342 0.0
H178 H 0.20948 0.81323 0.79798 0.0
H179 H 0.27828 0.81714 0.79398 0.0
Mn180 Mn 0.15725 0.50929 0.26371 0.0
Mn181 Mn 0.11891 0.59467 0.25755 0.0
C182 C 0.19044 0.55924 0.2369 0.0
C183 C 0.19412 0.46422 0.29149 0.0
C184 C 0.09643 0.52843 0.20743 0.0
O185 O 0.11564 0.50687 0.30307 0.0
O186 O 0.09431 0.56564 0.29804 0.0
C187 C 0.14139 0.62761 0.33083 0.0
N188 N 0.1416 0.62896 0.29286 0.0
C189 C 0.17325 0.68926 0.29428 0.0
C190 C 0.17315 0.68862 0.33339 0.0
C191 C 0.1574 0.65752 0.35172 0.0
C192 C 0.15725 0.65846 0.27495 0.0
H193 H 0.12896 0.60399 0.34511 0.0
C194 C 0.09457 0.5335 0.31358 0.0
O195 O 0.16783 0.45511 0.26797 0.0
O196 O 0.19697 0.4993 0.30155 0.0
N197 N 0.1411 0.62597 0.22025 0.0
C198 C 0.13941 0.62212 0.18241 0.0
C199 C 0.15591 0.64982 0.15995 0.0
C200 C 0.17319 0.68166 0.17658 0.0
C201 C 0.17368 0.68556 0.21555 0.0
C202 C 0.15724 0.65676 0.23651 0.0
H203 H 0.12548 0.59818 0.16946 0.0
O204 O 0.1981 0.52483 0.22839 0.0
O205 O 0.16289 0.56329 0.2599 0.0
O206 O 0.11903 0.50552 0.22119 0.0
O207 O 0.09364 0.56219 0.21912 0.0
C208 C 0.18977 0.71694 0.23441 0.0
C209 C 0.18928 0.71893 0.27374 0.0
H210 H 0.18544 0.71165 0.3496 0.0
H211 H 0.1574 0.65672 0.38189 0.0
H212 H 0.15509 0.64675 0.12987 0.0
H213 H 0.18577 0.70305 0.15916 0.0
H214 H 0.20271 0.73963 0.21894 0.0
H215 H 0.20201 0.74305 0.28794 0.0
Mn216 Mn 0.76166 0.6218 0.01861 0.0
Mn217 Mn 0.69097 0.66014 0.97347 0.0
C218 C 0.70473 0.58892 0.01482 0.0
C219 C 0.81683 0.58876 0.01882 0.0
C220 C 0.7221 0.68933 0.04755 0.0
O221 O 0.78536 0.66436 0.98743 0.0
O222 O 0.73756 0.67533 0.94817 0.0
C223 C 0.69199 0.62267 0.89932 0.0
N224 N 0.67372 0.63103 0.93149 0.0
C225 C 0.61673 0.60242 0.90812 0.0
C226 C 0.63496 0.59323 0.8748 0.0
C227 C 0.67282 0.60323 0.87047 0.0
C228 C 0.63749 0.62111 0.93614 0.0
H229 H 0.72091 0.63087 0.89573 0.0
C230 C 0.77158 0.67961 0.95848 0.0
O231 O 0.8095 0.61321 0.04462 0.0
O232 O 0.79244 0.58369 0.99221 0.0
N233 N 0.64418 0.64698 0.9958 0.0
C234 C 0.63141 0.65525 0.03064 0.0
C235 C 0.59397 0.64742 0.03946 0.0
C236 C 0.57011 0.63094 0.01245 0.0
C237 C 0.58422 0.6216 0.9772 0.0
C238 C 0.62173 0.63003 0.97002 0.0
H239 H 0.64968 0.66719 0.05176 0.0
O240 O 0.72934 0.5802 0.03967 0.0
O241 O 0.7149 0.6158 0.99274 0.0
O242 O 0.73948 0.65973 0.05489 0.0
O243 O 0.70616 0.69359 0.01615 0.0
C244 C 0.56242 0.6044 0.94887 0.0
C245 C 0.57869 0.59426 0.9145 0.0
H246 H 0.62014 0.57861 0.85233 0.0
H247 H 0.68708 0.59632 0.84481 0.0
H248 H 0.58358 0.65394 0.06705 0.0
H249 H 0.54123 0.62489 0.01931 0.0
H250 H 0.53309 0.59925 0.95344 0.0
H251 H 0.56167 0.58051 0.89309 0.0
Mn252 Mn 0.87494 0.0176 0.26892 0.0
Mn253 Mn 0.91746 0.93508 0.25552 0.0
C254 C 0.84408 0.96794 0.23827 0.0
C255 C 0.83575 0.05674 0.30255 0.0
C256 C 0.93673 1.00539 0.21188 0.0
O257 O 0.91677 0.01994 0.30806 0.0
O258 O 0.94004 0.96217 0.29924 0.0
C259 C 0.89658 0.89538 0.3247 0.0
N260 N 0.89602 0.8973 0.28676 0.0
C261 C 0.86546 0.83661 0.2814 0.0
C262 C 0.86598 0.83388 0.32039 0.0
C263 C 0.88138 0.86351 0.34212 0.0
C264 C 0.88091 0.8691 0.26561 0.0
H265 H 0.90869 0.9179 0.34157 0.0
C266 C 0.93832 0.99347 0.31716 0.0
O267 O 0.85993 0.07029 0.27917 0.0
O268 O 0.83599 0.02102 0.30828 0.0
N269 N 0.89666 0.90602 0.21477 0.0
C270 C 0.89815 0.91301 0.17754 0.0
C271 C 0.88192 0.88707 0.15208 0.0
C272 C 0.86494 0.85388 0.16509 0.0
C273 C 0.86459 0.84681 0.20345 0.0
C274 C 0.88087 0.8739 0.22753 0.0
H275 H 0.91159 0.93816 0.16733 0.0
O276 O 0.83465 1.00219 0.2325 0.0
O277 O 0.87235 0.96411 0.26036 0.0
O278 O 0.91246 0.02625 0.22669 0.0
O279 O 0.94149 0.97146 0.22115 0.0
C280 C 0.84877 0.81394 0.21873 0.0
C281 C 0.84953 0.80867 0.25765 0.0
H282 H 0.85421 0.80938 0.33394 0.0
H283 H 0.88168 0.86172 0.37223 0.0
H284 H 0.8826 0.89261 0.12248 0.0
H285 H 0.85247 0.83391 0.14538 0.0
H286 H 0.83594 0.79253 0.20081 0.0
H287 H 0.83715 0.78334 0.26909 0.0
Mn288 Mn 0.26848 0.12661 0.51484 0.0
Mn289 Mn 0.19503 0.16684 0.47401 0.0
C290 C 0.21009 0.09678 0.51577 0.0
C291 C 0.32048 0.08877 0.51317 0.0
C292 C 0.23092 0.19564 0.5464 0.0
O293 O 0.2926 0.16635 0.4812 0.0
O294 O 0.24159 0.18513 0.45005 0.0
C295 C 0.19895 0.13231 0.3986 0.0
N296 N 0.17961 0.1389 0.43054 0.0
C297 C 0.12475 0.10747 0.40549 0.0
C298 C 0.14409 0.10022 0.37234 0.0
C299 C 0.18143 0.11252 0.36897 0.0
C300 C 0.14394 0.12656 0.43435 0.0
H301 H 0.22745 0.14217 0.39579 0.0
C302 C 0.27676 0.1855 0.45606 0.0
O303 O 0.31714 0.11512 0.53807 0.0
O304 O 0.29439 0.08517 0.48806 0.0
N305 N 0.14792 0.15179 0.49451 0.0
C306 C 0.13303 0.16169 0.52804 0.0
C307 C 0.09581 0.15159 0.53588 0.0
C308 C 0.07402 0.13234 0.50881 0.0
C309 C 0.08966 0.1234 0.47412 0.0
C310 C 0.12702 0.13376 0.46807 0.0
H311 H 0.14939 0.17718 0.54867 0.0
O312 O 0.23549 0.08819 0.53979 0.0
O313 O 0.21976 0.12243 0.49213 0.0
O314 O 0.25191 0.16788 0.55056 0.0
O315 O 0.20838 0.19744 0.51887 0.0
C316 C 0.06948 0.10515 0.44509 0.0
C317 C 0.0871 0.09685 0.41092 0.0
H318 H 0.13053 0.08533 0.34928 0.0
H319 H 0.19655 0.10708 0.34348 0.0
H320 H 0.08387 0.1589 0.56261 0.0
H321 H 0.04527 0.12476 0.51488 0.0
H322 H 0.04044 0.09704 0.44887 0.0
H323 H 0.0714 0.08232 0.38899 0.0
Mn324 Mn 0.37661 0.51277 0.76095 0.0
Mn325 Mn 0.40713 0.42478 0.75052 0.0
C326 C 0.34039 0.46815 0.72907 0.0
C327 C 0.34289 0.55949 0.79107 0.0
C328 C 0.44306 0.49241 0.71305 0.0
O329 O 0.41471 0.50771 0.80311 0.0
O330 O 0.42551 0.44522 0.8002 0.0
C331 C 0.37652 0.3742 0.80806 0.0
N332 N 0.37639 0.38597 0.77219 0.0
C333 C 0.33986 0.33115 0.75315 0.0
C334 C 0.33729 0.32038 0.79048 0.0
C335 C 0.35606 0.34185 0.81805 0.0
C336 C 0.36036 0.36406 0.7451 0.0
H337 H 0.39409 0.3879 0.82824 0.0
C338 C 0.4289 0.47795 0.81619 0.0
O339 O 0.37118 0.56753 0.76999 0.0
O340 O 0.33612 0.52426 0.79727 0.0
N341 N 0.38894 0.40488 0.70349 0.0
C342 C 0.39494 0.4182 0.6685 0.0
C343 C 0.37939 0.39898 0.6375 0.0
C344 C 0.35728 0.36649 0.64269 0.0
C345 C 0.35064 0.35376 0.67891 0.0
C346 C 0.3667 0.37429 0.70879 0.0
H347 H 0.41074 0.44375 0.66416 0.0
O348 O 0.33681 0.50354 0.72228 0.0
O349 O 0.36638 0.46024 0.75266 0.0
O350 O 0.41746 0.5151 0.72097 0.0
O351 O 0.44265 0.4594 0.72565 0.0
C352 C 0.32876 0.32145 0.68648 0.0
C353 C 0.32355 0.31002 0.72358 0.0
H354 H 0.32187 0.29516 0.79813 0.0
H355 H 0.35586 0.33278 0.84673 0.0
H356 H 0.38413 0.40943 0.60967 0.0
H357 H 0.34527 0.35174 0.61872 0.0
H358 H 0.31617 0.30493 0.66394 0.0
H359 H 0.30716 0.28477 0.72905 0.0
Mn360 Mn 0.75798 0.38491 0.52772 0.0
Mn361 Mn 0.76194 0.41688 0.43948 0.0
C362 C 0.73534 0.34819 0.47827 0.0
C363 C 0.78036 0.3491 0.57695 0.0
C364 C 0.70857 0.44699 0.49798 0.0
O365 O 0.79892 0.4262 0.53105 0.0
O366 O 0.80157 0.44209 0.46999 0.0
C367 C 0.83532 0.38997 0.41493 0.0
N368 N 0.79764 0.39052 0.41046 0.0
C369 C 0.80077 0.35395 0.35368 0.0
C370 C 0.83963 0.35319 0.35756 0.0
C371 C 0.85694 0.37109 0.38844 0.0
C372 C 0.78069 0.37325 0.38093 0.0
H373 H 0.84882 0.40395 0.43843 0.0
C374 C 0.81356 0.44414 0.50371 0.0
O375 O 0.75672 0.37543 0.58267 0.0
O376 O 0.79376 0.34637 0.5435 0.0
N377 N 0.72535 0.39282 0.4075 0.0
C378 C 0.68753 0.39244 0.41021 0.0
C379 C 0.66579 0.37385 0.38265 0.0
C380 C 0.6832 0.35521 0.35296 0.0
C381 C 0.7222 0.35501 0.35133 0.0
C382 C 0.74237 0.37426 0.37947 0.0
H383 H 0.67412 0.40495 0.43397 0.0
O384 O 0.72273 0.34319 0.51175 0.0
O385 O 0.75934 0.37567 0.47462 0.0
O386 O 0.71715 0.42404 0.52341 0.0
O387 O 0.7241 0.44682 0.46602 0.0
C388 C 0.74184 0.33577 0.32335 0.0
C389 C 0.78112 0.33549 0.32435 0.0
H390 H 0.85638 0.33851 0.33728 0.0
H391 H 0.88689 0.37045 0.39175 0.0
H392 H 0.63571 0.37329 0.38469 0.0
H393 H 0.66636 0.34048 0.33201 0.0
H394 H 0.72699 0.32066 0.30121 0.0
H395 H 0.79589 0.32021 0.30295 0.0
Mn396 Mn 0.6512 1.00112 0.76632 0.0
Mn397 Mn 0.61853 0.08893 0.76013 0.0
C398 C 0.68526 0.04753 0.73482 0.0
C399 C 0.68726 0.95492 0.79308 0.0
C400 C 0.58883 0.02332 0.71287 0.0
O401 O 0.61262 1.00239 0.80856 0.0
O402 O 0.59399 0.0618 0.80197 0.0
C403 C 0.64696 0.12008 0.8322 0.0
N404 N 0.64507 0.12167 0.79428 0.0
C405 C 0.67966 0.18038 0.79424 0.0
C406 C 0.68178 0.17945 0.83328 0.0
C407 C 0.66562 0.14901 0.8523 0.0
C408 C 0.66129 0.15041 0.77566 0.0
H409 H 0.63417 0.09703 0.84705 0.0
C410 C 0.59328 0.03035 0.81884 0.0
O411 O 0.65873 0.9465 0.77203 0.0
O412 O 0.69284 0.99013 0.80147 0.0
N413 N 0.64062 0.11904 0.72178 0.0
C414 C 0.63602 0.11599 0.68412 0.0
C415 C 0.65242 0.14309 0.66091 0.0
C416 C 0.67225 0.17386 0.6767 0.0
C417 C 0.67541 0.17726 0.71559 0.0
C418 C 0.65915 0.1489 0.73728 0.0
H419 H 0.61945 0.09343 0.67191 0.0
O420 O 0.68996 0.0123 0.7274 0.0
O421 O 0.66025 0.05451 0.75998 0.0
O422 O 0.60974 0.99887 0.7268 0.0
O423 O 0.58976 0.05781 0.72301 0.0
C424 C 0.69376 0.20787 0.7337 0.0
C425 C 0.69568 0.20955 0.773 0.0
H426 H 0.69605 0.20178 0.84889 0.0
H427 H 0.66729 0.14799 0.88242 0.0
H428 H 0.64926 0.14059 0.63093 0.0
H429 H 0.68447 0.19496 0.65872 0.0
H430 H 0.70656 0.23023 0.71767 0.0
H431 H 0.71017 0.23303 0.7866 0.0
Mn432 Mn 0.00941 0.26135 0.8718 0.0
Mn433 Mn 0.92347 0.25277 0.90828 0.0
C434 C 0.96269 0.22645 0.84012 0.0
C435 C 0.05413 0.28907 0.83305 0.0
C436 C 0.98836 0.20922 0.93659 0.0
O437 O 1.00883 0.30577 0.9092 0.0
O438 O 0.95189 0.29508 0.93192 0.0
C439 C 0.90071 0.32117 0.86927 0.0
N440 N 0.8933 0.28515 0.87957 0.0
C441 C 0.83683 0.28259 0.8432 0.0
C442 C 0.84259 0.3204 0.83426 0.0
C443 C 0.87506 0.33957 0.84679 0.0
C444 C 0.86384 0.26562 0.86502 0.0
H445 H 0.92627 0.33553 0.8778 0.0
C446 C 0.98235 0.31425 0.93137 0.0
O447 O 0.0634 0.26831 0.86079 0.0
O448 O 0.01914 0.29638 0.82987 0.0
N449 N 0.89117 0.21314 0.88991 0.0
C450 C 0.88979 0.17684 0.90125 0.0
C451 C 0.85858 0.15386 0.89226 0.0
C452 C 0.82874 0.16857 0.87229 0.0
C453 C 0.83057 0.20603 0.86117 0.0
C454 C 0.86205 0.22776 0.87163 0.0
H455 H 0.91201 0.16566 0.91772 0.0
O456 O 0.99757 0.22025 0.83409 0.0
O457 O 0.9565 0.25201 0.86518 0.0
O458 O 0.01214 0.2235 0.91418 0.0
O459 O 0.95393 0.2176 0.93712 0.0
C460 C 0.802 0.22295 0.84092 0.0
C461 C 0.80558 0.26096 0.83106 0.0
H462 H 0.82272 0.3347 0.81712 0.0
H463 H 0.88041 0.36838 0.83898 0.0
H464 H 0.85736 0.12499 0.90103 0.0
H465 H 0.80472 0.15075 0.86535 0.0
H466 H 0.77716 0.20704 0.8328 0.0
H467 H 0.7839 0.27339 0.81461 0.0
Mn468 Mn 0.51818 0.75615 0.37778 0.0
Mn469 Mn 0.43152 0.76033 0.41295 0.0
C470 C 0.46756 0.73235 0.34358 0.0
C471 C 0.56655 0.77944 0.34091 0.0
C472 C 0.48748 0.70402 0.43867 0.0
O473 O 0.52462 0.7969 0.41809 0.0
O474 O 0.46562 0.7964 0.43986 0.0
C475 C 0.41621 0.8376 0.38929 0.0
N476 N 0.4074 0.80021 0.38828 0.0
C477 C 0.35699 0.80972 0.34546 0.0
C478 C 0.36554 0.84826 0.34602 0.0
C479 C 0.39531 0.86225 0.36806 0.0
C480 C 0.37888 0.78646 0.36713 0.0
H481 H 0.43905 0.84862 0.40607 0.0
C482 C 0.49929 0.80926 0.43963 0.0
O483 O 0.57245 0.75525 0.36684 0.0
O484 O 0.53319 0.7922 0.33844 0.0
N485 N 0.3956 0.7279 0.38842 0.0
C486 C 0.39027 0.6902 0.39182 0.0
C487 C 0.36112 0.67189 0.37198 0.0
C488 C 0.33761 0.69259 0.34919 0.0
C489 C 0.34308 0.73153 0.34688 0.0
C490 C 0.37239 0.74824 0.36748 0.0
H491 H 0.40832 0.67419 0.40927 0.0
O492 O 0.50073 0.72011 0.33776 0.0
O493 O 0.46501 0.75711 0.37036 0.0
O494 O 0.51381 0.71564 0.4176 0.0
O495 O 0.45492 0.71787 0.43887 0.0
C496 C 0.32051 0.75453 0.32517 0.0
C497 C 0.32761 0.79349 0.32421 0.0
H498 H 0.34944 0.86735 0.32966 0.0
H499 H 0.40214 0.89197 0.36866 0.0
H500 H 0.3569 0.64187 0.37409 0.0
H501 H 0.3154 0.67827 0.33382 0.0
H502 H 0.2974 0.74286 0.30929 0.0
H503 H 0.31011 0.81073 0.30724 0.0
Mn504 Mn 0.02568 0.76293 0.63784 0.0
Mn505 Mn 0.9833 0.68666 0.67573 0.0
C506 C 0.02374 0.70586 0.60523 0.0
C507 C 0.0239 0.81717 0.60244 0.0
C508 C 0.05987 0.71709 0.70019 0.0
O509 O 0.99374 0.78572 0.67929 0.0
O510 O 0.96473 0.73302 0.69961 0.0
C511 C 0.90689 0.69972 0.64832 0.0
N512 N 0.93684 0.67723 0.65058 0.0
C513 C 0.90447 0.62784 0.61628 0.0
C514 C 0.87331 0.65049 0.61357 0.0
C515 C 0.87463 0.6867 0.62947 0.0
C516 C 0.9362 0.64275 0.63453 0.0
H517 H 0.90758 0.72736 0.66088 0.0
C518 C 0.97016 0.76857 0.70006 0.0
O519 O 0.04978 0.81248 0.6271 0.0
O520 O 0.99832 0.79096 0.59893 0.0
N521 N 0.99746 0.63924 0.65533 0.0
C522 C 0.02872 0.61987 0.66262 0.0
C523 C 0.03192 0.58312 0.64874 0.0
C524 C 1.00209 0.56591 0.62906 0.0
C525 C 0.96926 0.58553 0.6238 0.0
C526 C 0.96814 0.62247 0.6374 0.0
H527 H 0.0506 0.632 0.67969 0.0
O528 O 0.04843 0.73171 0.59725 0.0
O529 O 1.0011 0.7142 0.63213 0.0
O530 O 0.06226 0.74358 0.67677 0.0
O531 O 0.0317 0.69441 0.70243 0.0
C532 C 0.93722 0.56948 0.60659 0.0
C533 C 0.90507 0.59084 0.60216 0.0
H534 H 0.84819 0.64031 0.59951 0.0
H535 H 0.85071 0.70437 0.62753 0.0
H536 H 0.05698 0.56783 0.65393 0.0
H537 H 1.00438 0.53736 0.61885 0.0
H538 H 0.93709 0.54076 0.59638 0.0
H539 H 0.88083 0.57836 0.58826 0.0
Mn540 Mn 0.52149 0.26422 0.14447 0.0
Mn541 Mn 0.49293 0.18777 0.19241 0.0
C542 C 0.51697 0.20627 0.11298 0.0
C543 C 0.51106 0.31797 0.11 0.0
C544 C 0.56953 0.22549 0.20116 0.0
O545 O 0.49676 0.28591 0.1911 0.0
O546 O 0.4716 0.23332 0.21589 0.0
C547 C 0.41091 0.18453 0.18434 0.0
N548 N 0.44447 0.16813 0.17999 0.0
C549 C 0.41498 0.10734 0.17068 0.0
C550 C 0.38007 0.12363 0.17459 0.0
C551 C 0.37803 0.16245 0.18108 0.0
C552 C 0.4467 0.13092 0.17311 0.0
H553 H 0.4093 0.2141 0.19074 0.0
C554 C 0.47588 0.26903 0.21474 0.0
O555 O 0.54085 0.31443 0.12983 0.0
O556 O 0.4862 0.2908 0.11096 0.0
N557 N 0.51083 0.1418 0.17242 0.0
C558 C 0.54653 0.1313 0.16653 0.0
C559 C 0.55338 0.09397 0.15636 0.0
C560 C 0.52356 0.06771 0.15345 0.0
C561 C 0.48706 0.07924 0.15986 0.0
C562 C 0.48188 0.11708 0.16846 0.0
H563 H 0.56954 0.1512 0.16981 0.0
O564 O 0.53771 0.23384 0.10085 0.0
O565 O 0.49884 0.21344 0.14384 0.0
O566 O 0.56685 0.24894 0.17508 0.0
O567 O 0.54299 0.20327 0.2104 0.0
C568 C 0.45561 0.05472 0.15822 0.0
C569 C 0.4196 0.06869 0.16406 0.0
H570 H 0.35466 0.10664 0.1726 0.0
H571 H 0.3512 0.1752 0.18433 0.0
H572 H 0.58163 0.0853 0.15147 0.0
H573 H 0.52902 0.0388 0.14628 0.0
H574 H 0.45875 0.02518 0.15211 0.0
H575 H 0.39561 0.04967 0.16228 0.0
C576 C 0.25212 0.77332 0.89873 0.0
C577 C 0.21719 0.75416 0.89418 0.0
C578 C 0.1897 0.79633 0.94066 0.0
C579 C 0.22505 0.81426 0.94638 0.0
N580 N 0.292 0.80936 0.94099 0.0
N581 N 0.15648 0.73986 0.92009 0.0
C582 C 0.25699 0.79957 0.92857 0.0
C583 C 0.18699 0.76345 0.91788 0.0
N584 N 0.28032 0.76768 0.8739 0.0
N585 N 0.1585 0.81101 0.95623 0.0
H586 H 0.15451 0.71425 0.90575 0.0
H587 H 0.13519 0.74352 0.93939 0.0
H588 H 0.15913 0.83516 0.97296 0.0
H589 H 0.13162 0.80134 0.94953 0.0
H590 H 0.30588 0.78211 0.87527 0.0
H591 H 0.27697 0.7518 0.84944 0.0
H592 H 0.31592 0.79664 0.93119 0.0
H593 H 0.29707 0.82688 0.96402 0.0
C594 C 0.01118 0.54483 0.37772 0.0
C595 C 0.02618 0.53466 0.4127 0.0
C596 C 0.0858 0.52082 0.38255 0.0
C597 C 0.07017 0.52897 0.3471 0.0
N598 N 0.01553 0.54129 0.31037 0.0
N599 N 0.0746 0.50521 0.44735 0.0
C600 C 0.03203 0.53855 0.34459 0.0
C601 C 0.06247 0.52005 0.41469 0.0
N602 N 0.9778 0.56235 0.37626 0.0
N603 N 0.12337 0.51655 0.38622 0.0
H604 H 0.05833 0.50446 0.47143 0.0
H605 H 0.09921 0.4906 0.44956 0.0
H606 H 0.14189 0.51812 0.36396 0.0
H607 H 0.13674 0.51488 0.41194 0.0
H608 H 0.96755 0.5745 0.35222 0.0
H609 H 0.96161 0.56762 0.39978 0.0
H610 H 0.98695 0.54398 0.30663 0.0
H611 H 0.02995 0.5375 0.28552 0.0
C612 C 0.80609 0.72117 0.86965 0.0
C613 C 0.81552 0.75843 0.88141 0.0
C614 C 0.80432 0.74137 0.94661 0.0
C615 C 0.79504 0.70421 0.9347 0.0
N616 N 0.79786 0.65612 0.88734 0.0
N617 N 0.83338 0.80135 0.93128 0.0
C618 C 0.79976 0.69329 0.89694 0.0
C619 C 0.81789 0.76764 0.92005 0.0
N620 N 0.80072 0.71287 0.83263 0.0
N621 N 0.79809 0.75218 0.98273 0.0
H622 H 0.84378 0.82106 0.9125 0.0
H623 H 0.83904 0.8083 0.95908 0.0
H624 H 0.78899 0.73353 1.00309 0.0
H625 H 0.79984 0.77996 0.99199 0.0
H626 H 0.78989 0.68717 0.82292 0.0
H627 H 0.80394 0.73261 0.81167 0.0
H628 H 0.8042 0.64592 0.8608 0.0
H629 H 0.79361 0.63526 0.90714 0.0
C630 C 0.96653 1.00373 0.42008 0.0
C631 C 1.00289 0.98928 0.41855 0.0
C632 C 0.99955 0.98778 0.35021 0.0
C633 C 0.96133 0.99704 0.35182 0.0
N634 N 0.9066 1.00748 0.38959 0.0
N635 N 0.05214 0.96201 0.38244 0.0
C636 C 0.94432 1.00375 0.38708 0.0
C637 C 0.019 0.97998 0.38366 0.0
N638 N 0.95331 0.01777 0.453 0.0
N639 N 0.01747 0.9869 0.31665 0.0
H640 H 0.06685 0.95491 0.40631 0.0
H641 H 0.06326 0.95092 0.35799 0.0
H642 H 1.00416 0.99238 0.29155 0.0
H643 H 0.04619 0.98433 0.31408 0.0
H644 H 0.92863 0.03236 0.45496 0.0
H645 H 0.96866 0.01779 0.47777 0.0
H646 H 0.89244 1.00817 0.41491 0.0
H647 H 0.88876 1.00636 0.36664 0.0
C648 C 0.23649 0.24278 0.64271 0.0
C649 C 0.21113 0.27199 0.63771 0.0
C650 C 0.20915 0.25859 0.57054 0.0
C651 C 0.23031 0.22601 0.57616 0.0
N652 N 0.28091 0.2025 0.61321 0.0
N653 N 0.1707 0.30646 0.59781 0.0
C654 C 0.24879 0.22205 0.6111 0.0
C655 C 0.19672 0.27954 0.60187 0.0
N656 N 0.24859 0.23461 0.6778 0.0
N657 N 0.20486 0.27212 0.53535 0.0
H658 H 0.16145 0.32293 0.62003 0.0
H659 H 0.15599 0.31021 0.57311 0.0
H660 H 0.21918 0.26138 0.51247 0.0
H661 H 0.19226 0.29734 0.52969 0.0
H662 H 0.2636 0.21086 0.68379 0.0
H663 H 0.24087 0.24981 0.7015 0.0
H664 H 0.2968 0.20074 0.63743 0.0
H665 H 0.29544 0.19382 0.58966 0.0
C666 C 0.49745 0.49363 0.62262 0.0
C667 C 0.51165 0.53095 0.62188 0.0
C668 C 0.48637 0.54188 0.68478 0.0
C669 C 0.47282 0.50397 0.68554 0.0
N670 N 0.48434 0.44097 0.66165 0.0
N671 N 0.52735 0.58818 0.65553 0.0
C672 C 0.48404 0.47882 0.65661 0.0
C673 C 0.5083 0.5545 0.65393 0.0
N674 N 0.49578 0.47231 0.59064 0.0
N675 N 0.47924 0.56552 0.71406 0.0
H676 H 0.54414 0.59787 0.63382 0.0
H677 H 0.52913 0.60515 0.67935 0.0
H678 H 0.46881 0.55604 0.73946 0.0
H679 H 0.48337 0.59447 0.71309 0.0
H680 H 0.48209 0.44618 0.58925 0.0
H681 H 0.5044 0.4823 0.56476 0.0
H682 H 0.49474 0.42253 0.64166 0.0
H683 H 0.48015 0.42818 0.68718 0.0
C684 C 0.79992 0.25425 0.61938 0.0
C685 C 0.79845 0.26232 0.65822 0.0
C686 C 0.79121 0.32891 0.64394 0.0
C687 C 0.78715 0.31965 0.60533 0.0
N688 N 0.77558 0.27 0.55929 0.0
N689 N 0.78573 0.30683 0.70751 0.0
C690 C 0.78814 0.28135 0.5938 0.0
C691 C 0.79207 0.29957 0.6706 0.0
N692 N 0.81363 0.22113 0.60655 0.0
N693 N 0.7958 0.36546 0.65517 0.0
H694 H 0.78515 0.2859 0.72753 0.0
H695 H 0.77751 0.33286 0.71756 0.0
H696 H 0.79725 0.38754 0.63648 0.0
H697 H 0.8022 0.37342 0.68258 0.0
H698 H 0.81822 0.21571 0.57829 0.0
H699 H 0.82447 0.20103 0.62406 0.0
H700 H 0.77306 0.24183 0.55133 0.0
H701 H 0.76292 0.28772 0.54059 0.0
C702 C 0.50703 0.98399 0.65414 0.0
C703 C 0.51923 0.99401 0.61785 0.0
C704 C 0.57843 0.01805 0.64376 0.0
C705 C 0.56498 0.01182 0.68039 0.0
N706 N 0.5166 0.98923 0.72126 0.0
N707 N 0.5638 0.02582 0.57841 0.0
C708 C 0.52921 0.99489 0.68582 0.0
C709 C 0.55414 0.0126 0.61277 0.0
N710 N 0.47494 0.96291 0.65809 0.0
N711 N 0.61513 0.02727 0.63845 0.0
H712 H 0.5468 0.02221 0.55489 0.0
H713 H 0.58709 0.04319 0.57391 0.0
H714 H 0.63371 0.03029 0.66064 0.0
H715 H 0.62774 0.02833 0.61234 0.0
H716 H 0.46625 0.95131 0.68316 0.0
H717 H 0.45789 0.95489 0.63557 0.0
H718 H 0.48927 0.98129 0.72763 0.0
H719 H 0.53345 0.99389 0.74468 0.0
C720 C 0.90861 0.23057 0.74943 0.0
C721 C 0.88102 0.20168 0.75337 0.0
C722 C 0.91693 0.18151 0.80796 0.0
C723 C 0.93501 0.2171 0.81026 0.0
N724 N 0.94286 0.27868 0.78326 0.0
N725 N 0.85819 0.1513 0.79363 0.0
C726 C 0.92922 0.24274 0.78113 0.0
C727 C 0.88523 0.17689 0.78426 0.0
N728 N 0.91708 0.24474 0.71527 0.0
N729 N 0.92893 0.15275 0.82901 0.0
H730 H 0.83069 0.15385 0.7856 0.0
H731 H 0.8614 0.13162 0.81446 0.0
H732 H 0.9516 0.1559 0.84701 0.0
H733 H 0.91856 0.12532 0.82583 0.0
H734 H 0.93879 0.26434 0.71144 0.0
H735 H 0.90561 0.23327 0.69071 0.0
H736 H 0.93713 0.2983 0.76286 0.0
H737 H 0.95587 0.28977 0.80703 0.0
C738 C 0.5077 0.9112 0.47131 0.0
C739 C 0.49566 0.9071 0.50878 0.0
C740 C 0.50256 0.83917 0.50268 0.0
C741 C 0.50703 0.84276 0.46374 0.0
N742 N 0.51256 0.88239 0.40993 0.0
N743 N 0.47806 0.86629 0.55942 0.0
C744 C 0.50988 0.87888 0.44775 0.0
C745 C 0.49256 0.87084 0.52451 0.0
N746 N 0.51757 0.94591 0.45844 0.0
N747 N 0.50832 0.80537 0.51866 0.0
H748 H 0.4692 0.88854 0.57601 0.0
H749 H 0.4717 0.84012 0.57059 0.0
H750 H 0.5176 0.78258 0.50302 0.0
H751 H 0.50829 0.80133 0.54739 0.0
H752 H 0.52989 0.95025 0.43253 0.0
H753 H 0.51678 0.97008 0.47511 0.0
H754 H 0.50984 0.90778 0.39637 0.0
H755 H 0.51517 0.85954 0.39178 0.0
C756 C 0.14765 0.30921 0.78819 0.0
C757 C 0.13809 0.31308 0.75005 0.0
C758 C 0.07303 0.29848 0.76545 0.0
C759 C 0.08199 0.30037 0.80429 0.0
N760 N 0.12738 0.31845 0.85168 0.0
N761 N 0.08986 0.31969 0.70375 0.0
C762 C 0.11916 0.30926 0.81541 0.0
C763 C 0.10016 0.31052 0.73909 0.0
N764 N 0.18356 0.30298 0.79835 0.0
N765 N 0.04011 0.28254 0.75316 0.0
H766 H 0.10893 0.32905 0.68381 0.0
H767 H 0.06207 0.3215 0.69561 0.0
H768 H 0.02083 0.26946 0.7706 0.0
H769 H 0.03416 0.27793 0.72496 0.0
H770 H 0.19135 0.2974 0.82572 0.0
H771 H 0.20425 0.2981 0.7787 0.0
H772 H 0.15389 0.32776 0.86022 0.0
H773 H 0.10694 0.32117 0.8721 0.0
C774 C 0.51128 0.60651 0.47282 0.0
C775 C 0.52162 0.61479 0.51038 0.0
C776 C 0.49997 0.67898 0.50282 0.0
C777 C 0.49559 0.67235 0.46387 0.0
N778 N 0.50087 0.63031 0.4109 0.0
N779 N 0.53132 0.66108 0.5595 0.0
C780 C 0.50243 0.63624 0.44861 0.0
C781 C 0.51724 0.6516 0.52507 0.0
N782 N 0.50841 0.57009 0.46065 0.0
N783 N 0.48758 0.71132 0.51869 0.0
H784 H 0.54531 0.64232 0.57618 0.0
H785 H 0.5324 0.68848 0.56994 0.0
H786 H 0.47451 0.73183 0.50342 0.0
H787 H 0.4869 0.71606 0.54742 0.0
H788 H 0.49757 0.56214 0.43463 0.0
H789 H 0.51301 0.54751 0.47803 0.0
H790 H 0.50979 0.60585 0.39792 0.0
H791 H 0.49317 0.65089 0.39235 0.0
C792 C 0.88028 0.8069 0.735 0.0
C793 C 0.88762 0.81154 0.77392 0.0
C794 C 0.95203 0.79293 0.76353 0.0
C795 C 0.94512 0.7902 0.72462 0.0
N796 N 0.90593 0.80484 0.67251 0.0
N797 N 0.93364 0.82032 0.82266 0.0
C798 C 0.91044 0.80116 0.71012 0.0
C799 C 0.92466 0.80846 0.78729 0.0
N800 N 0.84451 0.80454 0.72195 0.0
N801 N 0.98375 0.77881 0.77814 0.0
H802 H 0.91436 0.83272 0.84039 0.0
H803 H 0.9609 0.82147 0.83278 0.0
H804 H 1.00371 0.76621 0.76155 0.0
H805 H 0.9885 0.77665 0.80672 0.0
H806 H 0.83778 0.79726 0.69443 0.0
H807 H 0.82135 0.80576 0.7392 0.0
H808 H 0.88221 0.81599 0.66064 0.0
H809 H 0.92738 0.80008 0.65357 0.0
C810 C 1.00671 0.91267 0.56024 0.0
C811 C 0.03278 0.9126 0.53053 0.0
C812 C 0.0526 0.84994 0.54786 0.0
C813 C 0.02573 0.84946 0.57688 0.0
N814 N 0.97348 0.87719 0.60772 0.0
N815 N 0.07567 0.87931 0.49147 0.0
C816 C 1.0015 0.87984 0.58205 0.0
C817 C 0.05432 0.88064 0.52301 0.0
N818 N 0.98797 0.9446 0.56836 0.0
N819 N 0.0769 0.82124 0.5444 0.0
H820 H 0.0779 0.9014 0.4728 0.0
H821 H 0.08886 0.85538 0.48205 0.0
H822 H 0.07522 0.79718 0.56052 0.0
H823 H 0.1001 0.82204 0.52706 0.0
H824 H 0.97165 0.9481 0.59204 0.0
H825 H 0.99056 0.96879 0.55249 0.0
H826 H 0.95239 0.89649 0.61027 0.0
H827 H 0.96981 0.85419 0.62506 0.0
C828 C 0.13182 0.67083 0.75988 0.0
C829 C 0.13885 0.6982 0.78837 0.0
C830 C 0.09247 0.7379 0.75938 0.0
C831 C 0.09034 0.71329 0.72803 0.0
N832 N 0.11525 0.66026 0.69539 0.0
N833 N 0.10194 0.73982 0.82574 0.0
C834 C 0.11199 0.68078 0.72746 0.0
C835 C 0.11268 0.72727 0.79141 0.0
N836 N 0.13805 0.634 0.76638 0.0
N837 N 0.07588 0.77178 0.75866 0.0
H838 H 0.11053 0.72685 0.8501 0.0
H839 H 0.08053 0.75865 0.82959 0.0
H840 H 0.06172 0.78121 0.73531 0.0
H841 H 0.07946 0.79174 0.78001 0.0
H842 H 0.13039 0.61264 0.74748 0.0
H843 H 0.14545 0.62477 0.79283 0.0
H844 H 0.13308 0.63776 0.693 0.0
H845 H 0.10332 0.66867 0.67045 0.0
C846 C 0.03583 0.61466 0.55031 0.0
C847 C 1.00317 0.6134 0.5278 0.0
C848 C 0.98346 0.67252 0.55681 0.0
C849 C 0.01663 0.67397 0.5787 0.0
N850 N 0.07695 0.64893 0.5923 0.0
N851 N 0.95062 0.64568 0.5031 0.0
C852 C 0.04371 0.64615 0.57374 0.0
C853 C 0.97818 0.64357 0.52937 0.0
N854 N 0.05987 0.5858 0.55077 0.0
N855 N 0.95698 0.69891 0.56197 0.0
H856 H 0.94695 0.62598 0.48155 0.0
H857 H 0.93376 0.66871 0.50016 0.0
H858 H 0.96094 0.72269 0.57882 0.0
H859 H 0.93008 0.69619 0.55116 0.0
H860 H 0.05602 0.56081 0.53561 0.0
H861 H 0.05602 0.56081 0.53561 0.0
H862 H 0.09737 0.62881 0.58961 0.0
H863 H 0.08431 0.67168 0.60956 0.0
C864 C 0.77218 0.90341 0.18934 0.0
C865 C 0.7643 0.87723 0.21792 0.0
C866 C 0.80339 0.91472 0.26109 0.0
C867 C 0.81663 0.93677 0.23093 0.0
N868 N 0.81533 0.95022 0.16517 0.0
N869 N 0.77843 0.85437 0.27933 0.0
C870 C 0.80147 0.9306 0.19467 0.0
C871 C 0.7816 0.8819 0.25337 0.0
N872 N 0.75041 0.90375 0.15799 0.0
N873 N 0.81029 0.92562 0.29723 0.0
H874 H 0.76666 0.82803 0.27321 0.0
H875 H 0.79154 0.85579 0.30527 0.0
H876 H 0.82482 0.9502 0.30467 0.0
H877 H 0.79796 0.91243 0.31999 0.0
H878 H 0.75267 0.92453 0.13797 0.0
H879 H 0.72739 0.8857 0.15391 0.0
H880 H 0.80835 0.94379 0.13753 0.0
H881 H 0.83627 0.97078 0.16808 0.0
C882 C 0.74109 0.09928 0.32069 0.0
C883 C 0.75199 0.13033 0.34361 0.0
C884 C 0.81467 0.10557 0.34849 0.0
C885 C 0.80626 0.08017 0.31875 0.0
N886 N 0.76011 0.0505 0.27784 0.0
N887 N 0.78683 0.13652 0.40093 0.0
C888 C 0.76886 0.07573 0.30573 0.0
C889 C 0.78564 0.12694 0.36403 0.0
N890 N 0.7041 0.09033 0.31657 0.0
N891 N 0.85 0.1089 0.36254 0.0
H892 H 0.76246 0.14221 0.41555 0.0
H893 H 0.80988 0.132 0.4179 0.0
H894 H 0.87173 0.09245 0.35307 0.0
H895 H 0.85777 0.1296 0.38211 0.0
H896 H 0.69407 0.06603 0.30311 0.0
H897 H 0.68379 0.1054 0.33067 0.0
H898 H 0.73434 0.04938 0.26436 0.0
H899 H 0.77933 0.03229 0.26647 0.0
C900 C 0.36839 0.03043 0.97245 0.0
C901 C 0.40306 0.01668 0.98442 0.0
C902 C 0.3719 0.95843 1.00483 0.0
C903 C 0.33691 0.97282 0.99444 0.0
N904 N 0.30092 0.02567 0.97667 0.0
N905 N 0.43632 0.97233 0.02125 0.0
C906 C 0.33492 0.00992 0.98088 0.0
C907 C 0.40431 0.98217 1.00357 0.0
N908 N 0.36753 0.06224 0.95177 0.0
N909 N 0.37483 0.92149 0.01362 0.0
H910 H 0.46065 0.98899 0.02127 0.0
H911 H 0.43762 0.94948 0.03892 0.0
H912 H 0.35213 0.90272 0.01451 0.0
H913 H 0.40031 0.90863 0.01691 0.0
H914 H 0.34352 0.07153 0.93887 0.0
H915 H 0.39152 0.07779 0.94494 0.0
H916 H 0.29758 0.05371 0.97013 0.0
H917 H 0.27603 0.01157 0.98341 0.0
C918 C 0.26526 0.40883 0.3468 0.0
C919 C 0.27799 0.38381 0.31864 0.0
C920 C 0.2394 0.41488 0.27264 0.0
C921 C 0.22304 0.43676 0.30144 0.0
N922 N 0.21617 0.44974 0.36727 0.0
N923 N 0.26965 0.35721 0.25675 0.0
C924 C 0.23481 0.43245 0.33897 0.0
C925 C 0.26273 0.38506 0.28218 0.0
N926 N 0.283 0.41101 0.38057 0.0
N927 N 0.23468 0.42386 0.236 0.0
H928 H 0.28574 0.33418 0.26284 0.0
H929 H 0.25613 0.35499 0.231 0.0
H930 H 0.22026 0.44717 0.22742 0.0
H931 H 0.24901 0.41086 0.21436 0.0
H932 H 0.27741 0.43137 0.40075 0.0
H933 H 0.30569 0.39466 0.38712 0.0
H934 H 0.22114 0.44463 0.39537 0.0
H935 H 0.19326 0.46643 0.3627 0.0
C936 C 0.14192 0.02393 0.4734 0.0
C937 C 0.1122 0.02527 0.49943 0.0
C938 C 0.14886 0.06994 0.53841 0.0
C939 C 0.17655 0.07198 0.51037 0.0
N940 N 0.1996 0.05151 0.45032 0.0
N941 N 0.08747 0.05153 0.55696 0.0
C942 C 0.17304 0.04924 0.47754 0.0
C943 C 0.11571 0.04847 0.53189 0.0
N944 N 0.14155 0.9967 0.44612 0.0
N945 N 0.15331 0.08967 0.57115 0.0
H946 H 0.0614 0.03813 0.55403 0.0
H947 H 0.0614 0.03813 0.55403 0.0
H948 H 0.17668 0.10675 0.57706 0.0
H949 H 0.13345 0.08876 0.59238 0.0
H950 H 0.16397 0.99156 0.4286 0.0
H951 H 0.1202 0.97649 0.44325 0.0
H952 H 0.19588 0.04022 0.42358 0.0
H953 H 0.22477 0.06642 0.45355 0.0
C954 C 0.75399 0.12922 0.74578 0.0
C955 C 0.76584 0.13514 0.70858 0.0
C956 C 0.72581 0.08209 0.68741 0.0
C957 C 0.71485 0.07586 0.72505 0.0
N958 N 0.73025 0.08475 0.79035 0.0
N959 N 0.76799 0.11421 0.64458 0.0
C960 C 0.73258 0.09671 0.75434 0.0
C961 C 0.75305 0.11077 0.67944 0.0
N962 N 0.76167 0.15564 0.77285 0.0
N963 N 0.71011 0.06081 0.65931 0.0
H964 H 0.78788 0.13492 0.63806 0.0
H965 H 0.7628 0.0952 0.62279 0.0
H966 H 0.69399 0.03683 0.66428 0.0
H967 H 0.71242 0.06727 0.63118 0.0
H968 H 0.75216 0.15351 0.80014 0.0
H969 H 0.77433 0.18159 0.76726 0.0
H970 H 0.7458 0.09687 0.81219 0.0
H971 H 0.71642 0.06 0.79785 0.0
C972 C 0.37589 1.00352 0.53865 0.0
C973 C 0.41273 0.01648 0.53082 0.0
C974 C 0.38878 0.07589 0.50821 0.0
C975 C 0.35188 0.0626 0.51527 0.0
N976 N 0.30943 0.01167 0.53085 0.0
N977 N 0.45421 0.06133 0.50167 0.0
C978 C 0.34518 0.02561 0.52823 0.0
C979 C 0.41915 0.05163 0.51363 0.0
N980 N 0.37037 0.97097 0.55779 0.0
N981 N 0.39478 0.11196 0.49688 0.0
H982 H 0.47703 0.04424 0.50525 0.0
H983 H 0.46028 0.08475 0.48561 0.0
H984 H 0.37314 0.12967 0.49032 0.0
H985 H 0.42102 0.125 0.49566 0.0
H986 H 0.34468 0.96213 0.56834 0.0
H987 H 0.39206 0.95389 0.56565 0.0
H988 H 0.30279 0.98366 0.53601 0.0
H989 H 0.28612 0.02738 0.52509 0.0
C990 C 0.65152 0.51876 0.55299 0.0
C991 C 0.61776 0.51712 0.53218 0.0
C992 C 0.64884 0.4812 0.48314 0.0
C993 C 0.67998 0.47594 0.50701 0.0
N994 N 0.71265 0.49351 0.56394 0.0
N995 N 0.58243 0.48987 0.48071 0.0
C996 C 0.68171 0.49579 0.54187 0.0
C997 C 0.6159 0.49635 0.49821 0.0
N998 N 0.65523 0.54337 0.58244 0.0
N999 N 0.65084 0.47405 0.44571 0.0
H1000 H 0.55732 0.49913 0.49151 0.0
H1001 H 0.57924 0.47174 0.45777 0.0
H1002 H 0.6756 0.46857 0.43207 0.0
H1003 H 0.62927 0.47984 0.42731 0.0
H1004 H 0.68021 0.5488 0.59657 0.0
H1005 H 0.63395 0.56088 0.5909 0.0
H1006 H 0.71367 0.5026 0.59167 0.0
H1007 H 0.73734 0.48186 0.55463 0.0
C1008 C 0.69206 0.27104 0.41616 0.0
C1009 C 0.72347 0.26013 0.39501 0.0
C1010 C 0.76331 0.30138 0.43402 0.0
C1011 C 0.73109 0.31766 0.44983 0.0
N1012 N 0.66403 0.31895 0.45446 0.0
N1013 N 0.78902 0.26782 0.38133 0.0
C1014 C 0.6952 0.30268 0.44056 0.0
C1015 C 0.75917 0.2761 0.40327 0.0
N1016 N 0.65986 0.2498 0.41469 0.0
N1017 N 0.79773 0.30853 0.44937 0.0
H1018 H 0.78684 0.25101 0.35735 0.0
H1019 H 0.8153 0.28047 0.38474 0.0
H1020 H 0.80209 0.32526 0.47308 0.0
H1021 H 0.82149 0.29454 0.44114 0.0
H1022 H 0.63711 0.25444 0.43197 0.0
H1023 H 0.65763 0.22472 0.39955 0.0
H1024 H 0.63719 0.3117 0.44528 0.0
H1025 H 0.66503 0.34216 0.47247 0.0
C1026 C 0.55908 0.0185 0.91993 0.0
C1027 C 0.52436 0.03642 0.9177 0.0
C1028 C 0.53175 0.04092 0.84981 0.0
C1029 C 0.56866 0.02781 0.85247 0.0
N1030 N 0.6198 0.01008 0.89206 0.0
N1031 N 0.48161 0.07218 0.88113 0.0
C1032 C 0.58295 0.01783 0.88804 0.0
C1033 C 0.51172 0.04957 0.88278 0.0
N1034 N 0.56906 1.00171 0.95231 0.0
N1035 N 0.5154 0.04463 0.81564 0.0
H1036 H 0.46677 0.08066 0.9046 0.0
H1037 H 0.47376 0.08581 0.85695 0.0
H1038 H 0.52895 0.03844 0.79074 0.0
H1039 H 0.48725 0.05016 0.81218 0.0
H1040 H 0.59222 0.98492 0.95453 0.0
H1041 H 0.55229 1.0019 0.97604 0.0
H1042 H 0.63247 1.00665 0.91792 0.0
H1043 H 0.63863 0.01042 0.87002 0.0
C1044 C 0.31175 0.23218 0.36935 0.0
C1045 C 0.32028 0.26889 0.38327 0.0
C1046 C 0.30773 0.24834 0.44715 0.0
C1047 C 0.29918 0.21175 0.43313 0.0
N1048 N 0.30246 0.16621 0.38339 0.0
N1049 N 0.33532 0.30988 0.43554 0.0
C1050 C 0.3044 0.20285 0.39495 0.0
C1051 C 0.32116 0.2763 0.4223 0.0
N1052 N 0.30873 0.22576 0.33175 0.0
N1053 N 0.30128 0.25681 0.48385 0.0
H1054 H 0.34537 0.33096 0.41808 0.0
H1055 H 0.34009 0.31566 0.46374 0.0
H1056 H 0.29305 0.23665 0.50316 0.0
H1057 H 0.30221 0.284 0.49479 0.0
H1058 H 0.29864 0.2006 0.32005 0.0
H1059 H 0.31362 0.24654 0.31208 0.0
H1060 H 0.30912 0.15729 0.3565 0.0
H1061 H 0.29766 0.14434 0.40195 0.0
C1062 C 0.4864 0.51284 0.90144 0.0
C1063 C 0.49188 0.47841 0.92004 0.0
C1064 C 0.44551 0.45052 0.87795 0.0
C1065 C 0.44894 0.48063 0.85302 0.0
N1066 N 0.4796 0.5408 0.84096 0.0
N1067 N 0.48257 0.41062 0.91488 0.0
C1068 C 0.47152 0.51211 0.86453 0.0
C1069 C 0.47337 0.44589 0.90498 0.0
N1070 N 0.49195 0.5461 0.91982 0.0
N1071 N 0.4137 0.42918 0.87919 0.0
H1072 H 0.5062 0.40526 0.93064 0.0
H1073 H 0.46915 0.38696 0.90305 0.0
H1074 H 0.38993 0.43692 0.86461 0.0
H1075 H 0.40988 0.40791 0.89863 0.0
H1076 H 0.48581 0.57166 0.90779 0.0
H1077 H 0.49721 0.54723 0.94845 0.0
H1078 H 0.49779 0.56292 0.84859 0.0
H1079 H 0.4717 0.54045 0.81298 0.0
C1080 C 0.69149 0.76954 0.11344 0.0
C1081 C 0.71879 0.76637 0.14175 0.0
C1082 C 0.75313 0.72386 0.10139 0.0
C1083 C 0.72198 0.72016 0.0767 0.0
N1084 N 0.66024 0.74212 0.0599 0.0
N1085 N 0.77417 0.73743 0.16443 0.0
C1086 C 0.69089 0.74391 0.08261 0.0
C1087 C 0.74924 0.74267 0.13623 0.0
N1088 N 0.66702 0.79825 0.11505 0.0
N1089 N 0.7872 0.71145 0.09065 0.0
H1090 H 0.77212 0.75053 0.19053 0.0
H1091 H 0.79479 0.71747 0.16294 0.0
H1092 H 0.79232 0.70096 0.0639 0.0
H1093 H 0.81136 0.7163 0.10639 0.0
H1094 H 0.6494 0.8048 0.09308 0.0
H1095 H 0.66691 0.81805 0.13673 0.0
H1096 H 0.63487 0.75343 0.06756 0.0
H1097 H 0.65896 0.72906 0.03394 0.0
C1098 C 0.01799 0.04803 0.15667 0.0
C1099 C 1.00558 0.03994 0.11967 0.0
C1100 C 0.9456 0.0165 0.14361 0.0
C1101 C 0.95942 0.02044 0.18058 0.0
N1102 N 1.0083 0.03986 0.22322 0.0
N1103 N 0.96003 0.01129 0.07782 0.0
C1104 C 0.99557 0.03619 0.18737 0.0
C1105 C 0.97002 0.02277 0.11311 0.0
N1106 N 0.05052 0.06815 0.16233 0.0
N1107 N 0.90872 1.00797 0.13768 0.0
H1108 H 0.97723 0.01515 0.0547 0.0
H1109 H 0.9362 0.99496 0.07193 0.0
H1110 H 0.88999 1.00431 0.15954 0.0
H1111 H 0.89605 1.00825 0.11152 0.0
H1112 H 0.05947 0.07831 0.18829 0.0
H1113 H 0.06767 0.07696 0.14052 0.0
H1114 H 0.03582 0.04666 0.23028 0.0
H1115 H 0.99119 0.03486 0.24617 0.0
C1116 C 0.29804 0.81062 0.16478 0.0
C1117 C 0.30291 0.77239 0.15487 0.0
C1118 C 0.28954 0.78676 0.08966 0.0
C1119 C 0.28934 0.82579 0.09861 0.0
N1120 N 0.30144 0.87503 0.14432 0.0
N1121 N 0.31362 0.72667 0.106 0.0
C1122 C 0.29586 0.83781 0.13613 0.0
C1123 C 0.30185 0.76126 0.11674 0.0
N1124 N 0.29442 0.82086 0.20144 0.0
N1125 N 0.27574 0.77331 0.05634 0.0
H1126 H 0.32433 0.7076 0.1247 0.0
H1127 H 0.31667 0.71872 0.07809 0.0
H1128 H 0.26335 0.78997 0.03652 0.0
H1129 H 0.27228 0.74475 0.05041 0.0
H1130 H 0.2872 0.8477 0.21003 0.0
H1131 H 0.29512 0.80165 0.22307 0.0
H1132 H 0.30969 0.885 0.17062 0.0
H1133 H 0.30182 0.89559 0.12395 0.0
C1134 C 0.06388 0.5161 0.10677 0.0
C1135 C 0.02827 0.49878 0.11161 0.0
C1136 C 0.03773 0.49911 0.17962 0.0
C1137 C 0.07364 0.51582 0.17458 0.0
N1138 N 0.12466 0.53048 0.13345 0.0
N1139 N 0.98296 0.46852 0.15136 0.0
C1140 C 0.0878 0.5215 0.13813 0.0
C1141 C 0.01559 0.48883 0.14775 0.0
N1142 N 0.07445 0.52837 0.07231 0.0
N1143 N 0.025 0.49299 0.21495 0.0
H1144 H 0.96606 0.46075 0.12866 0.0
H1145 H 0.9736 0.45721 0.17633 0.0
H1146 H 0.04205 0.49658 0.23837 0.0
H1147 H 0.99759 0.48533 0.22126 0.0
H1148 H 0.09822 0.54504 0.0678 0.0
H1149 H 0.05794 0.52443 0.0485 0.0
H1150 H 0.13775 0.53144 0.10759 0.0
H1151 H 0.14296 0.53325 0.15592 0.0
C1152 C 0.41242 0.75247 0.25596 0.0
C1153 C 0.39115 0.71887 0.25069 0.0
C1154 C 0.42708 0.69124 0.30139 0.0
C1155 C 0.43948 0.72779 0.31303 0.0
N1156 N 0.44419 0.79428 0.29914 0.0
N1157 N 0.40072 0.65257 0.25118 0.0
C1158 C 0.43173 0.75883 0.29003 0.0
C1159 C 0.40477 0.68673 0.26855 0.0
N1160 N 0.42198 0.77355 0.22591 0.0
N1161 N 0.43569 0.66094 0.3222 0.0
H1162 H 0.38907 0.64977 0.22451 0.0
H1163 H 0.41287 0.62831 0.26064 0.0
H1164 H 0.45194 0.66323 0.34626 0.0
H1165 H 0.42403 0.63425 0.31756 0.0
H1166 H 0.44018 0.7968 0.22768 0.0
H1167 H 0.41738 0.76346 0.19874 0.0
H1168 H 0.43573 0.81756 0.28437 0.0
H1169 H 0.46071 0.80093 0.32229 0.0
C1170 C 0.95776 0.38935 1.0048 0.0
C1171 C 0.98978 0.41299 1.0051 0.0
C1172 C 0.02072 0.36629 0.96599 0.0
C1173 C 0.98555 0.34808 0.95755 0.0
N1174 N 0.91756 0.35381 0.96429 0.0
N1175 N 0.05174 0.42568 0.98174 0.0
C1176 C 0.95312 0.36252 0.97578 0.0
C1177 C 0.02137 0.40208 0.9844 0.0
N1178 N 0.93121 0.39291 0.03175 0.0
N1179 N 0.05349 0.34898 0.95912 0.0
H1180 H 0.05309 0.45206 0.99464 0.0
H1181 H 0.07402 0.42014 0.96408 0.0
H1182 H 0.05495 0.32089 0.95127 0.0
H1183 H 0.07926 0.36079 0.96701 0.0
H1184 H 0.90858 0.3741 0.03396 0.0
H1185 H 0.93428 0.41169 0.05421 0.0
H1186 H 0.89438 0.36631 0.97613 0.0
H1187 H 0.91062 0.33968 0.93981 0.0
C1188 C 0.66184 0.79601 0.29745 0.0
C1189 C 0.65244 0.80219 0.25958 0.0
C1190 C 0.58675 0.79011 0.27427 0.0
C1191 C 0.59573 0.78916 0.31302 0.0
N1192 N 0.64166 0.80092 0.36153 0.0
N1193 N 0.60476 0.81372 0.21385 0.0
C1194 C 0.63325 0.79505 0.32467 0.0
C1195 C 0.6145 0.80199 0.24856 0.0
N1196 N 0.69778 0.78923 0.30726 0.0
N1197 N 0.55277 0.77733 0.2614 0.0
H1198 H 0.62424 0.82336 0.19446 0.0
H1199 H 0.57718 0.81745 0.20588 0.0
H1200 H 0.5324 0.76524 0.27836 0.0
H1201 H 0.54652 0.77447 0.23307 0.0
H1202 H 0.70546 0.78147 0.33407 0.0
H1203 H 0.71898 0.78686 0.28765 0.0
H1204 H 0.66837 0.80853 0.37086 0.0
H1205 H 0.62133 0.8025 0.38218 0.0
C1206 C 0.01114 0.11311 0.97345 0.0
C1207 C 0.0254 0.12239 1.00947 0.0
C1208 C 0.01178 0.18863 0.99919 0.0
C1209 C 1.00121 0.17959 0.96189 0.0
N1210 N 0.99888 0.13456 0.9111 0.0
N1211 N 0.04459 0.16963 0.05488 0.0
C1212 C 1.0033 0.1422 0.94831 0.0
C1213 C 0.02708 0.16039 0.02198 0.0
N1214 N 1.00369 0.0765 0.96369 0.0
N1215 N 1.0071 0.22415 0.01283 0.0
H1216 H 0.05644 0.14978 0.07202 0.0
H1217 H 0.05014 0.19713 0.06374 0.0
H1218 H 0.99725 0.24574 0.99648 0.0
H1219 H 0.01051 0.23158 0.04085 0.0
H1220 H 0.98974 0.06841 0.93923 0.0
H1221 H 1.00789 0.05435 0.98173 0.0
H1222 H 1.00369 0.10841 0.89904 0.0
H1223 H 0.99432 0.1554 0.89175 0.0
C1224 C 0.4361 0.3104 0.30492 0.0
C1225 C 0.40608 0.33065 0.29049 0.0
C1226 C 0.42824 0.3183 0.22713 0.0
C1227 C 0.45364 0.29198 0.24117 0.0
N1228 N 0.48054 0.26174 0.29459 0.0
N1229 N 0.39736 0.37549 0.24197 0.0
C1230 C 0.45777 0.28811 0.28047 0.0
C1231 C 0.4082 0.34097 0.25253 0.0
N1232 N 0.44438 0.31384 0.34202 0.0
N1233 N 0.42177 0.32077 0.18969 0.0
H1234 H 0.39382 0.39683 0.26169 0.0
H1235 H 0.40016 0.38516 0.21479 0.0
H1236 H 0.43469 0.30398 0.16981 0.0
H1237 H 0.40078 0.33709 0.17882 0.0
H1238 H 0.46792 0.30268 0.3542 0.0
H1239 H 0.42937 0.33149 0.35959 0.0
H1240 H 0.48145 0.25513 0.32278 0.0
H1241 H 0.49627 0.24411 0.27795 0.0
C1242 C 0.50573 0.41805 0.07489 0.0
C1243 C 0.52077 0.41311 0.03862 0.0
C1244 C 0.51911 0.34488 0.04661 0.0
C1245 C 0.50843 0.35004 0.08434 0.0
N1246 N 0.49292 0.39098 0.13559 0.0
N1247 N 0.54736 0.37254 0.99191 0.0
C1248 C 0.50195 0.38653 0.0988 0.0
C1249 C 0.5287 0.37667 0.02488 0.0
N1250 N 0.49463 0.45273 0.08614 0.0
N1251 N 0.5203 0.30952 0.03157 0.0
H1252 H 0.55579 0.3951 0.97551 0.0
H1253 H 0.55761 0.34714 0.98239 0.0
H1254 H 0.51417 0.28549 0.0468 0.0
H1255 H 0.524 0.30408 1.00322 0.0
H1256 H 0.48015 0.45775 0.11074 0.0
H1257 H 0.49769 0.47634 0.06948 0.0
H1258 H 0.49195 0.41691 0.14916 0.0
H1259 H 0.48791 0.36832 0.15313 0.0
C1260 C 0.62322 0.22343 0.29031 0.0
C1261 C 0.65952 0.21366 0.27881 0.0
C1262 C 0.63786 0.21339 0.21353 0.0
C1263 C 0.60295 0.22661 0.22566 0.0
N1264 N 0.56889 0.25781 0.27404 0.0
N1265 N 0.70351 0.20751 0.2283 0.0
C1266 C 0.59776 0.23602 0.26359 0.0
C1267 C 0.66759 0.21099 0.23996 0.0
N1268 N 0.61209 0.2186 0.32634 0.0
N1269 N 0.64236 0.2023 0.17726 0.0
H1270 H 0.72597 0.20693 0.24678 0.0
H1271 H 0.71129 0.20876 0.20035 0.0
H1272 H 0.62142 0.20465 0.15724 0.0
H1273 H 0.6659 0.18869 0.16775 0.0
H1274 H 0.58488 0.22308 0.33513 0.0
H1275 H 0.6285 0.20538 0.34591 0.0
H1276 H 0.56557 0.26772 0.30133 0.0
H1277 H 0.55133 0.26963 0.25444 0.0
C1278 C 0.47067 0.12062 0.06452 0.0
C1279 C 0.49379 0.115 0.03268 0.0
C1280 C 0.53669 0.16225 0.06083 0.0
C1281 C 0.5096 0.17283 0.08767 0.0
N1282 N 0.44296 0.17112 0.09857 0.0
N1283 N 0.54116 0.14706 0.99553 0.0
C1284 C 0.47403 0.15483 0.0849 0.0
C1285 C 0.52507 0.14026 0.02923 0.0
N1286 N 0.44671 0.09337 0.07672 0.0
N1287 N 0.57315 0.1733 0.0647 0.0
H1288 H 0.52897 0.13785 0.97048 0.0
H1289 H 0.56288 0.1668 0.99246 0.0
H1290 H 0.58342 0.1869 0.08871 0.0
H1291 H 0.59346 0.16464 0.0459 0.0
H1292 H 0.42698 0.09857 0.09714 0.0
H1293 H 0.44935 0.06526 0.06906 0.0
H1294 H 0.41643 0.159 0.09457 0.0
H1295 H 0.44328 0.19831 0.10953 0.0
C1296 C 0.26233 0.41138 0.6799 0.0
C1297 C 0.25129 0.38685 0.70902 0.0
C1298 C 0.29214 0.42219 0.75221 0.0
C1299 C 0.30866 0.44148 0.72179 0.0
N1300 N 0.31032 0.45349 0.65574 0.0
N1301 N 0.26218 0.36469 0.77143 0.0
C1302 C 0.29385 0.436 0.68531 0.0
C1303 C 0.26778 0.39126 0.74487 0.0
N1304 N 0.24187 0.41224 0.64774 0.0
N1305 N 0.29891 0.43367 0.78819 0.0
H1306 H 0.24948 0.33881 0.76543 0.0
H1307 H 0.27479 0.36593 0.79764 0.0
H1308 H 0.31549 0.45702 0.79527 0.0
H1309 H 0.28447 0.42267 0.81089 0.0
H1310 H 0.24659 0.4319 0.62698 0.0
H1311 H 0.21767 0.39586 0.64354 0.0
H1312 H 0.30328 0.44726 0.62808 0.0
H1313 H 0.33322 0.47191 0.65865 0.0
C1314 C 0.2711 0.61271 0.84822 0.0
C1315 C 0.26272 0.64214 0.82358 0.0
C1316 C 0.3048 0.61593 0.77712 0.0
C1317 C 0.31643 0.58879 0.80308 0.0
N1318 N 0.31619 0.56702 0.86655 0.0
N1319 N 0.28035 0.67767 0.7693 0.0
C1320 C 0.3012 0.58881 0.83965 0.0
C1321 C 0.28245 0.64567 0.78958 0.0
N1322 N 0.24957 0.60661 0.87901 0.0
N1323 N 0.31254 0.6121 0.73995 0.0
H1324 H 0.26514 0.70068 0.77804 0.0
H1325 H 0.29699 0.68281 0.74604 0.0
H1326 H 0.3257 0.58902 0.72846 0.0
H1327 H 0.30156 0.62952 0.71983 0.0
H1328 H 0.25208 0.58322 0.89578 0.0
H1329 H 0.227 0.62312 0.8859 0.0
H1330 H 0.30839 0.56856 0.89449 0.0
H1331 H 0.33914 0.55034 0.86174 0.0
C1332 C 0.91669 0.47055 0.51062 0.0
C1333 C 0.91582 0.5071 0.49567 0.0
C1334 C 0.84759 0.5055 0.50016 0.0
C1335 C 0.84824 0.46708 0.50926 0.0
N1336 N 0.88337 0.41157 0.52029 0.0
N1337 N 0.88032 0.55836 0.47251 0.0
C1338 C 0.88279 0.44926 0.51427 0.0
C1339 C 0.88121 0.5245 0.48978 0.0
N1340 N 0.94983 0.45642 0.52185 0.0
N1341 N 0.8146 0.52369 0.50148 0.0
H1342 H 0.90425 0.57273 0.46354 0.0
H1343 H 0.8558 0.57067 0.46403 0.0
H1344 H 0.78967 0.51026 0.50927 0.0
H1345 H 0.81256 0.55254 0.49854 0.0
H1346 H 0.95181 0.43162 0.53657 0.0
H1347 H 0.97521 0.4711 0.51926 0.0
H1348 H 0.9076 0.3962 0.51934 0.0
H1349 H 0.8593 0.39505 0.52393 0.0
C1350 C 0.74922 0.87045 0.78337 0.0
C1351 C 0.76972 0.87222 0.81716 0.0
C1352 C 0.7316 0.92463 0.83825 0.0
C1353 C 0.7153 0.92626 0.80211 0.0
N1354 N 0.71814 0.90652 0.73711 0.0
N1355 N 0.78389 0.90443 0.87533 0.0
C1356 C 0.72666 0.90075 0.77374 0.0
C1357 C 0.76189 0.9003 0.84431 0.0
N1358 N 0.75029 0.83931 0.76085 0.0
N1359 N 0.71735 0.94511 0.86709 0.0
H1360 H 0.8063 0.88724 0.88057 0.0
H1361 H 0.78185 0.9268 0.89413 0.0
H1362 H 0.69438 0.96206 0.86405 0.0
H1363 H 0.72588 0.94232 0.89469 0.0
H1364 H 0.73329 0.83555 0.73738 0.0
H1365 H 0.76461 0.81548 0.7682 0.0
H1366 H 0.72876 0.89023 0.71545 0.0
H1367 H 0.70473 0.93017 0.72782 0.0
C1368 C 0.60843 0.54291 0.02887 0.0
C1369 C 0.60556 0.5187 0.99706 0.0
C1370 C 0.66684 0.54232 0.97571 0.0
C1371 C 0.67049 0.5649 1.00866 0.0
N1372 N 0.64853 0.57994 0.07051 0.0
N1373 N 0.63556 0.48941 0.94454 0.0
C1374 C 0.64258 0.56282 0.03657 0.0
C1375 C 0.63566 0.51693 0.97149 0.0
N1376 N 0.57786 0.54848 0.05073 0.0
N1377 N 0.69353 0.54454 0.94865 0.0
H1378 H 0.61406 0.46937 0.94148 0.0
H1379 H 0.65825 0.48401 0.92747 0.0
H1380 H 0.71845 0.55992 0.95186 0.0
H1381 H 0.69004 0.53289 0.92202 0.0
H1382 H 0.57719 0.56848 0.07215 0.0
H1383 H 0.55182 0.53597 0.04512 0.0
H1384 H 0.63115 0.57568 0.09336 0.0
H1385 H 0.67209 0.59666 0.07662 0.0
C1386 C 0.25934 0.62716 0.18913 0.0
C1387 C 0.26835 0.652 0.21937 0.0
C1388 C 0.23324 0.61073 0.26152 0.0
C1389 C 0.21857 0.59002 0.23044 0.0
N1390 N 0.2178 0.57851 0.16394 0.0
N1391 N 0.25911 0.67003 0.2836 0.0
C1392 C 0.23181 0.59812 0.19402 0.0
C1393 C 0.2541 0.64434 0.25541 0.0
N1394 N 0.27855 0.62994 0.15637 0.0
N1395 N 0.22845 0.59773 0.29693 0.0
H1396 H 0.27082 0.69646 0.279 0.0
H1397 H 0.2478 0.66705 0.31014 0.0
H1398 H 0.21487 0.57236 0.30275 0.0
H1399 H 0.24164 0.6099 0.32021 0.0
H1400 H 0.27591 0.61039 0.13462 0.0
H1401 H 0.30005 0.64963 0.15232 0.0
H1402 H 0.22239 0.58643 0.13645 0.0
H1403 H 0.19965 0.55557 0.16655 0.0
C1404 C 0.88473 0.51709 0.05422 0.0
C1405 C 0.91691 0.52639 0.03297 0.0
C1406 C 0.88157 0.5727 0.99829 0.0
C1407 C 0.85047 0.56567 0.0218 0.0
N1408 N 0.82255 0.53339 0.07382 0.0
N1409 N 0.94775 0.56473 0.98714 0.0
C1410 C 0.85212 0.53847 0.05024 0.0
C1411 C 0.91577 0.55456 1.00547 0.0
N1412 N 0.88497 0.48693 0.07734 0.0
N1413 N 0.87829 0.59665 0.96911 0.0
H1414 H 0.97303 0.5517 0.99148 0.0
H1415 H 0.95007 0.58758 0.96953 0.0
H1416 H 0.85412 0.6113 0.9639 0.0
H1417 H 0.89845 0.60027 0.94858 0.0
H1418 H 0.86128 0.47578 0.09018 0.0
H1419 H 0.90849 0.47105 0.08175 0.0
H1420 H 0.82369 0.51786 0.09813 0.0
H1421 H 0.79713 0.54636 0.07024 0.0
C1422 C 0.14631 0.01777 0.04944 0.0
C1423 C 0.11119 0.01622 0.03114 0.0
C1424 C 0.13731 0.9772 0.9814 0.0
C1425 C 0.1705 0.97304 1.00265 0.0
N1426 N 0.20821 0.99282 0.05573 0.0
N1427 N 0.07124 0.98855 0.98349 0.0
C1428 C 0.17535 0.99427 0.03649 0.0
C1429 C 0.10613 0.99414 0.99829 0.0
N1430 N 0.15232 0.04279 0.07823 0.0
N1431 N 0.13577 0.96729 0.9445 0.0
H1432 H 0.04751 0.99993 0.99538 0.0
H1433 H 0.06543 0.96945 0.96184 0.0
H1434 H 0.15898 0.95991 0.92918 0.0
H1435 H 0.11287 0.97235 0.92755 0.0
H1436 H 0.17827 0.0484 0.09038 0.0
H1437 H 0.13167 0.06014 0.08847 0.0
H1438 H 0.21181 1.00283 0.08295 0.0
H1439 H 0.23207 0.98104 0.04454 0.0
loop_
_geom_bond_atom_site_label_1
_geom_bond_atom_site_label_2
_geom_bond_distance
_geom_bond_site_symmetry_2
_ccdc_geom_bond_type
H0 C3 0.931 1_655 S
H1 C6 0.928 1_565 S
H2 C8 0.930 1_556 S
C3 H0 0.931 1_455 S
C3 C4 1.413 . S
C3 C5 1.360 . S
C4 C3 1.413 . S
C4 C8 1.429 . S
C5 C3 1.360 . S
C5 C6 1.372 . S
C6 H1 0.928 1_545 S
C6 C5 1.372 . S
C6 C7 1.404 . S
C7 C6 1.404 . S
C7 C8 1.391 . S
C8 H2 0.930 1_554 S
C8 C4 1.429 . S
C8 C7 1.391 . S
H9 C12 0.931 . S
H10 C15 0.928 . S
H11 C17 0.930 . S
C12 H9 0.931 . S
C12 C13 1.413 . S
C12 C14 1.360 . S
C13 C12 1.413 . S
C13 C17 1.429 . S
C14 C12 1.360 . S
C14 C15 1.372 . S
C15 H10 0.928 . S
C15 C14 1.372 . S
C15 C16 1.404 . S
C16 C15 1.404 . S
C16 C17 1.391 . S
C17 H11 0.930 . S
C17 C13 1.429 . S
C17 C16 1.391 . S
H18 C21 0.931 . S
H19 C24 0.928 1_455 S
H20 C26 0.930 1_556 S
C21 H18 0.931 . S
C21 C22 1.413 . S
C21 C23 1.360 . S
C22 C21 1.413 . S
C22 C26 1.429 . S
C23 C21 1.360 . S
C23 C24 1.372 . S
C24 H19 0.928 1_655 S
C24 C23 1.372 . S
C24 C25 1.404 . S
C25 C24 1.404 . S
C25 C26 1.391 . S
C26 H20 0.930 1_554 S
C26 C22 1.429 . S
C26 C25 1.391 . S
H27 C30 0.931 . S
H28 C33 0.928 . S
H29 C35 0.930 . S
C30 H27 0.931 . S
C30 C31 1.413 . S
C30 C32 1.360 . S
C31 C30 1.413 . S
C31 C35 1.429 . S
C32 C30 1.360 . S
C32 C33 1.372 . S
C33 H28 0.928 . S
C33 C32 1.372 . S
C33 C34 1.404 . S
C34 C33 1.404 . S
C34 C35 1.391 . S
C35 H29 0.930 . S
C35 C31 1.429 . S
C35 C34 1.391 . S
H36 C39 0.931 1_655 S
H37 C42 0.944 . S
H38 C44 0.930 . S
C39 H36 0.931 1_455 S
C39 C40 1.413 . S
C39 C41 1.360 . S
C40 C39 1.413 . S
C40 C44 1.429 . S
C41 C39 1.360 . S
C41 C42 1.359 1_565 S
C42 H37 0.944 . S
C42 C41 1.359 1_545 S
C42 C43 1.401 1_545 S
C43 C42 1.401 1_565 S
C43 C44 1.391 . S
C44 H38 0.930 . S
C44 C40 1.429 . S
C44 C43 1.391 . S
H45 C48 0.931 . S
H46 C51 0.928 . S
H47 C53 0.930 . S
C48 H45 0.931 . S
C48 C49 1.413 . S
C48 C50 1.360 . S
C49 C48 1.413 . S
C49 C53 1.429 . S
C50 C48 1.360 . S
C50 C51 1.372 . S
C51 H46 0.928 . S
C51 C50 1.372 . S
C51 C52 1.404 . S
C52 C51 1.404 . S
C52 C53 1.391 . S
C53 H47 0.930 . S
C53 C49 1.429 . S
C53 C52 1.391 . S
H54 C57 0.931 . S
H55 C60 0.928 . S
H56 C62 0.930 . S
C57 H54 0.931 . S
C57 C58 1.413 . S
C57 C59 1.360 . S
C58 C57 1.413 . S
C58 C62 1.429 . S
C59 C57 1.360 . S
C59 C60 1.372 1_655 S
C60 H55 0.928 . S
C60 C59 1.372 1_455 S
C60 C61 1.404 1_455 S
C61 C60 1.404 1_655 S
C61 C62 1.391 . S
C62 H56 0.930 . S
C62 C58 1.429 . S
C62 C61 1.391 . S
H63 C66 0.931 . S
H64 C69 0.928 . S
H65 C71 0.930 . S
C66 H63 0.931 . S
C66 C67 1.413 . S
C66 C68 1.360 . S
C67 C66 1.413 . S
C67 C71 1.429 . S
C68 C66 1.360 . S
C68 C69 1.372 . S
C69 H64 0.928 . S
C69 C68 1.372 . S
C69 C70 1.404 . S
C70 C69 1.404 . S
C70 C71 1.391 . S
C71 H65 0.930 . S
C71 C67 1.429 . S
C71 C70 1.391 . S
H72 C75 0.931 . S
H73 C78 0.928 . S
H74 C80 0.930 . S
C75 H72 0.931 . S
C75 C76 1.413 . S
C75 C77 1.360 . S
C76 C75 1.413 . S
C76 C80 1.429 . S
C77 C75 1.360 . S
C77 C78 1.372 . S
C78 H73 0.928 . S
C78 C77 1.372 . S
C78 C79 1.404 . S
C79 C78 1.404 . S
C79 C80 1.391 . S
C80 H74 0.930 . S
C80 C76 1.429 . S
C80 C79 1.391 . S
H81 C84 0.931 1_545 S
H82 C87 0.928 . S
H83 C89 0.930 . S
C84 H81 0.931 1_565 S
C84 C85 1.413 . S
C84 C86 1.360 . S
C85 C84 1.413 . S
C85 C89 1.429 . S
C86 C84 1.360 . S
C86 C87 1.372 . S
C87 H82 0.928 . S
C87 C86 1.372 . S
C87 C88 1.404 . S
C88 C87 1.404 . S
C88 C89 1.391 . S
C89 H83 0.930 . S
C89 C85 1.429 . S
C89 C88 1.391 . S
H90 C93 0.931 . S
H91 C96 0.928 . S
H92 C98 0.930 . S
C93 H90 0.931 . S
C93 C94 1.413 . S
C93 C95 1.360 . S
C94 C93 1.413 . S
C94 C98 1.429 . S
C95 C93 1.360 . S
C95 C96 1.372 . S
C96 H91 0.928 . S
C96 C95 1.372 . S
C96 C97 1.404 . S
C97 C96 1.404 . S
C97 C98 1.391 . S
C98 H92 0.930 . S
C98 C94 1.429 . S
C98 C97 1.391 . S
H99 C102 0.931 . S
H100 C105 0.928 . S
H101 C107 0.930 . S
C102 H99 0.931 . S
C102 C103 1.413 . S
C102 C104 1.360 . S
C103 C102 1.413 . S
C103 C107 1.429 . S
C104 C102 1.360 . S
C104 C105 1.372 . S
C105 H100 0.928 . S
C105 C104 1.372 . S
C105 C106 1.404 . S
C106 C105 1.404 . S
C106 C107 1.391 . S
C107 H101 0.930 . S
C107 C103 1.429 . S
C107 C106 1.391 . S
H108 C111 0.931 . S
H109 C114 0.928 . S
H110 C116 0.930 . S
C111 H108 0.931 . S
C111 C112 1.413 . S
C111 C113 1.360 . S
C112 C111 1.413 . S
C112 C116 1.429 . S
C113 C111 1.360 . S
C113 C114 1.372 . S
C114 H109 0.928 . S
C114 C113 1.372 . S
C114 C115 1.404 . S
C115 C114 1.404 . S
C115 C116 1.391 . S
C116 H110 0.930 . S
C116 C112 1.429 . S
C116 C115 1.391 . S
H117 C120 0.931 . S
H118 C123 0.928 . S
H119 C125 0.930 1_554 S
C120 H117 0.931 . S
C120 C121 1.413 . S
C120 C122 1.360 . S
C121 C120 1.413 . S
C121 C125 1.429 . S
C122 C120 1.360 . S
C122 C123 1.372 . S
C123 H118 0.928 . S
C123 C122 1.372 . S
C123 C124 1.404 . S
C124 C123 1.404 . S
C124 C125 1.391 . S
C125 H119 0.930 1_556 S
C125 C121 1.429 . S
C125 C124 1.391 . S
H126 C129 0.931 . S
H127 C132 0.928 . S
H128 C134 0.930 . S
C129 H126 0.931 . S
C129 C130 1.413 . S
C129 C131 1.360 . S
C130 C129 1.413 . S
C130 C134 1.429 . S
C131 C129 1.360 . S
C131 C132 1.372 . S
C132 H127 0.928 . S
C132 C131 1.372 . S
C132 C133 1.404 . S
C133 C132 1.404 . S
C133 C134 1.391 . S
C134 H128 0.930 . S
C134 C130 1.429 . S
C134 C133 1.391 . S
H135 C138 0.931 . S
H136 C141 0.928 . S
H137 C143 0.930 1_565 S
C138 H135 0.931 . S
C138 C139 1.413 1_554 S
C138 C140 1.360 1_554 S
C139 C138 1.413 1_556 S
C139 C143 1.429 . S
C140 C138 1.360 1_556 S
C140 C141 1.372 . S
C141 H136 0.928 . S
C141 C140 1.372 . S
C141 C142 1.404 . S
C142 C141 1.404 . S
C142 C143 1.391 . S
C143 H137 0.930 1_545 S
C143 C139 1.429 . S
C143 C142 1.391 . S
Mn144 O149 2.095 . S
Mn144 O159 2.162 . S
Mn144 O160 2.297 . S
Mn144 O168 2.385 1_554 S
Mn144 O169 2.209 1_554 S
Mn144 O170 2.094 . S
Mn145 O150 2.121 . S
Mn145 N152 2.257 . S
Mn145 N161 2.282 . S
Mn145 O169 2.215 . S
Mn145 O171 2.117 . S
C146 O168 1.234 . S
C146 O169 1.283 . S
C147 O159 1.281 . S
C147 O160 1.236 . S
C148 O170 1.240 . S
C148 O171 1.264 1_554 S
O149 Mn144 2.095 . S
O149 C158 1.250 1_554 S
O150 Mn145 2.121 . S
O150 C158 1.258 . S
C151 N152 1.326 . S
C151 C155 1.460 . S
C151 H157 0.929 . S
N152 Mn145 2.257 . S
N152 C151 1.326 . S
N152 C156 1.362 . S
C153 C154 1.258 . S
C153 C156 1.431 . S
C153 C173 1.449 . S
C154 C153 1.258 . S
C154 C155 1.477 . S
C154 H174 0.931 . S
C155 C151 1.460 . S
C155 C154 1.477 . S
C155 H175 0.930 . S
C156 N152 1.362 . S
C156 C153 1.431 . S
C156 C166 1.476 . S
H157 C151 0.929 . S
C158 O149 1.250 1_556 S
C158 O150 1.258 . S
O159 Mn144 2.162 . S
O159 C147 1.281 . S
O160 Mn144 2.297 . S
O160 C147 1.236 . S
N161 Mn145 2.282 . S
N161 C162 1.328 . S
N161 C166 1.318 . S
C162 N161 1.328 . S
C162 C163 1.457 . S
C162 H167 0.929 . S
C163 C162 1.457 . S
C163 C164 1.291 . S
C163 H176 0.931 . S
C164 C163 1.291 . S
C164 C165 1.373 . S
C164 H177 0.929 . S
C165 C164 1.373 . S
C165 C166 1.396 . S
C165 C172 1.403 . S
C166 C156 1.476 . S
C166 N161 1.318 . S
C166 C165 1.396 . S
H167 C162 0.929 . S
O168 Mn144 2.385 1_556 S
O168 C146 1.234 . S
O169 Mn144 2.209 1_556 S
O169 Mn145 2.215 . S
O169 C146 1.283 . S
O170 Mn144 2.094 . S
O170 C148 1.240 . S
O171 Mn145 2.117 . S
O171 C148 1.264 1_556 S
C172 C165 1.403 . S
C172 C173 1.399 . S
C172 H178 0.929 . S
C173 C153 1.449 . S
C173 C172 1.399 . S
C173 H179 0.930 . S
H174 C154 0.931 . S
H175 C155 0.930 . S
H176 C163 0.931 . S
H177 C164 0.929 . S
H178 C172 0.929 . S
H179 C173 0.930 . S
Mn180 O185 2.095 . S
Mn180 O195 2.162 . S
Mn180 O196 2.297 . S
Mn180 O204 2.385 . S
Mn180 O205 2.209 . S
Mn180 O206 2.094 . S
Mn181 O186 2.121 . S
Mn181 N188 2.257 . S
Mn181 N197 2.282 . S
Mn181 O205 2.215 . S
Mn181 O207 2.117 . S
C182 O204 1.234 . S
C182 O205 1.283 . S
C183 O195 1.281 . S
C183 O196 1.236 . S
C184 O206 1.240 . S
C184 O207 1.264 . S
O185 Mn180 2.095 . S
O185 C194 1.250 . S
O186 Mn181 2.121 . S
O186 C194 1.258 . S
C187 N188 1.326 . S
C187 C191 1.460 . S
C187 H193 0.929 . S
N188 Mn181 2.257 . S
N188 C187 1.326 . S
N188 C192 1.362 . S
C189 C190 1.258 . S
C189 C192 1.431 . S
C189 C209 1.449 . S
C190 C189 1.258 . S
C190 C191 1.477 . S
C190 H210 0.931 . S
C191 C187 1.460 . S
C191 C190 1.477 . S
C191 H211 0.930 . S
C192 N188 1.362 . S
C192 C189 1.431 . S
C192 C202 1.476 . S
H193 C187 0.929 . S
C194 O185 1.250 . S
C194 O186 1.258 . S
O195 Mn180 2.162 . S
O195 C183 1.281 . S
O196 Mn180 2.297 . S
O196 C183 1.236 . S
N197 Mn181 2.282 . S
N197 C198 1.328 . S
N197 C202 1.318 . S
C198 N197 1.328 . S
C198 C199 1.457 . S
C198 H203 0.929 . S
C199 C198 1.457 . S
C199 C200 1.291 . S
C199 H212 0.931 . S
C200 C199 1.291 . S
C200 C201 1.373 . S
C200 H213 0.929 . S
C201 C200 1.373 . S
C201 C202 1.396 . S
C201 C208 1.403 . S
C202 C192 1.476 . S
C202 N197 1.318 . S
C202 C201 1.396 . S
H203 C198 0.929 . S
O204 Mn180 2.385 . S
O204 C182 1.234 . S
O205 Mn180 2.209 . S
O205 Mn181 2.215 . S
O205 C182 1.283 . S
O206 Mn180 2.094 . S
O206 C184 1.240 . S
O207 Mn181 2.117 . S
O207 C184 1.264 . S
C208 C201 1.403 . S
C208 C209 1.399 . S
C208 H214 0.929 . S
C209 C189 1.449 . S
C209 C208 1.399 . S
C209 H215 0.930 . S
H210 C190 0.931 . S
H211 C191 0.930 . S
H212 C199 0.931 . S
H213 C200 0.929 . S
H214 C208 0.929 . S
H215 C209 0.930 . S
Mn216 O221 2.095 1_554 S
Mn216 O231 2.162 . S
Mn216 O232 2.297 1_554 S
Mn216 O240 2.385 . S
Mn216 O241 2.209 1_554 S
Mn216 O242 2.094 . S
Mn217 O222 2.121 . S
Mn217 N224 2.257 . S
Mn217 N233 2.282 . S
Mn217 O241 2.215 . S
Mn217 O243 2.117 1_556 S
C218 O240 1.260 . S
C218 O241 1.265 1_554 S
C219 O231 1.281 . S
C219 O232 1.236 1_554 S
C220 O242 1.240 . S
C220 O243 1.264 . S
O221 Mn216 2.095 1_556 S
O221 C230 1.250 . S
O222 Mn217 2.121 . S
O222 C230 1.258 . S
C223 N224 1.326 . S
C223 C227 1.460 . S
C223 H229 0.929 . S
N224 Mn217 2.257 . S
N224 C223 1.326 . S
N224 C228 1.362 . S
C225 C226 1.258 . S
C225 C228 1.431 . S
C225 C245 1.449 . S
C226 C225 1.258 . S
C226 C227 1.477 . S
C226 H246 0.931 . S
C227 C223 1.460 . S
C227 C226 1.477 . S
C227 H247 0.930 . S
C228 N224 1.362 . S
C228 C225 1.431 . S
C228 C238 1.476 . S
H229 C223 0.929 . S
C230 O221 1.250 . S
C230 O222 1.258 . S
O231 Mn216 2.162 . S
O231 C219 1.281 . S
O232 Mn216 2.297 1_556 S
O232 C219 1.236 1_556 S
N233 Mn217 2.282 . S
N233 C234 1.328 1_556 S
N233 C238 1.318 . S
C234 N233 1.328 1_554 S
C234 C235 1.457 . S
C234 H239 0.929 . S
C235 C234 1.457 . S
C235 C236 1.291 . S
C235 H248 0.931 . S
C236 C235 1.291 . S
C236 C237 1.373 1_554 S
C236 H249 0.929 . S
C237 C236 1.373 1_556 S
C237 C238 1.396 . S
C237 C244 1.403 . S
C238 C228 1.476 . S
C238 N233 1.318 . S
C238 C237 1.396 . S
H239 C234 0.929 . S
O240 Mn216 2.385 . S
O240 C218 1.260 . S
O241 Mn216 2.209 1_556 S
O241 Mn217 2.215 . S
O241 C218 1.265 1_556 S
O242 Mn216 2.094 . S
O242 C220 1.240 . S
O243 Mn217 2.117 1_554 S
O243 C220 1.264 . S
C244 C237 1.403 . S
C244 C245 1.399 . S
C244 H250 0.929 . S
C245 C225 1.449 . S
C245 C244 1.399 . S
C245 H251 0.930 . S
H246 C226 0.931 . S
H247 C227 0.930 . S
H248 C235 0.931 . S
H249 C236 0.929 . S
H250 C244 0.929 . S
H251 C245 0.930 . S
Mn252 O257 2.095 . S
Mn252 O267 2.162 . S
Mn252 O268 2.297 . S
Mn252 O276 2.385 1_545 S
Mn252 O277 2.209 1_545 S
Mn252 O278 2.094 . S
Mn253 O258 2.121 . S
Mn253 N260 2.257 . S
Mn253 N269 2.282 . S
Mn253 O277 2.215 . S
Mn253 O279 2.117 . S
C254 O276 1.234 . S
C254 O277 1.283 . S
C255 O267 1.281 . S
C255 O268 1.236 . S
C256 O278 1.240 . S
C256 O279 1.264 1_545 S
O257 Mn252 2.095 . S
O257 C266 1.250 1_545 S
O258 Mn253 2.121 . S
O258 C266 1.258 . S
C259 N260 1.326 . S
C259 C263 1.460 . S
C259 H265 0.929 . S
N260 Mn253 2.257 . S
N260 C259 1.326 . S
N260 C264 1.362 . S
C261 C262 1.258 . S
C261 C264 1.431 . S
C261 C281 1.449 . S
C262 C261 1.258 . S
C262 C263 1.477 . S
C262 H282 0.931 . S
C263 C259 1.460 . S
C263 C262 1.477 . S
C263 H283 0.930 . S
C264 N260 1.362 . S
C264 C261 1.431 . S
C264 C274 1.476 . S
H265 C259 0.929 . S
C266 O257 1.250 1_565 S
C266 O258 1.258 . S
O267 Mn252 2.162 . S
O267 C255 1.281 . S
O268 Mn252 2.297 . S
O268 C255 1.236 . S
N269 Mn253 2.282 . S
N269 C270 1.328 . S
N269 C274 1.318 . S
C270 N269 1.328 . S
C270 C271 1.457 . S
C270 H275 0.929 . S
C271 C270 1.457 . S
C271 C272 1.291 . S
C271 H284 0.931 . S
C272 C271 1.291 . S
C272 C273 1.373 . S
C272 H285 0.929 . S
C273 C272 1.373 . S
C273 C274 1.396 . S
C273 C280 1.403 . S
C274 C264 1.476 . S
C274 N269 1.318 . S
C274 C273 1.396 . S
H275 C270 0.929 . S
O276 Mn252 2.385 1_565 S
O276 C254 1.234 . S
O277 Mn252 2.209 1_565 S
O277 Mn253 2.215 . S
O277 C254 1.283 . S
O278 Mn252 2.094 . S
O278 C256 1.240 . S
O279 Mn253 2.117 . S
O279 C256 1.264 1_565 S
C280 C273 1.403 . S
C280 C281 1.399 . S
C280 H286 0.929 . S
C281 C261 1.449 . S
C281 C280 1.399 . S
C281 H287 0.930 . S
H282 C262 0.931 . S
H283 C263 0.930 . S
H284 C271 0.931 . S
H285 C272 0.929 . S
H286 C280 0.929 . S
H287 C281 0.930 . S
Mn288 O293 2.095 . S
Mn288 O303 2.162 . S
Mn288 O304 2.297 . S
Mn288 O312 2.385 . S
Mn288 O313 2.209 . S
Mn288 O314 2.094 . S
Mn289 O294 2.121 . S
Mn289 N296 2.257 . S
Mn289 N305 2.282 . S
Mn289 O313 2.215 . S
Mn289 O315 2.117 . S
C290 O312 1.234 . S
C290 O313 1.283 . S
C291 O303 1.281 . S
C291 O304 1.236 . S
C292 O314 1.240 . S
C292 O315 1.264 . S
O293 Mn288 2.095 . S
O293 C302 1.250 . S
O294 Mn289 2.121 . S
O294 C302 1.258 . S
C295 N296 1.326 . S
C295 C299 1.460 . S
C295 H301 0.929 . S
N296 Mn289 2.257 . S
N296 C295 1.326 . S
N296 C300 1.362 . S
C297 C298 1.258 . S
C297 C300 1.431 . S
C297 C317 1.449 . S
C298 C297 1.258 . S
C298 C299 1.477 . S
C298 H318 0.931 . S
C299 C295 1.460 . S
C299 C298 1.477 . S
C299 H319 0.930 . S
C300 N296 1.362 . S
C300 C297 1.431 . S
C300 C310 1.476 . S
H301 C295 0.929 . S
C302 O293 1.250 . S
C302 O294 1.258 . S
O303 Mn288 2.162 . S
O303 C291 1.281 . S
O304 Mn288 2.297 . S
O304 C291 1.236 . S
N305 Mn289 2.282 . S
N305 C306 1.328 . S
N305 C310 1.318 . S
C306 N305 1.328 . S
C306 C307 1.457 . S
C306 H311 0.929 . S
C307 C306 1.457 . S
C307 C308 1.291 . S
C307 H320 0.931 . S
C308 C307 1.291 . S
C308 C309 1.373 . S
C308 H321 0.929 . S
C309 C308 1.373 . S
C309 C310 1.396 . S
C309 C316 1.403 . S
C310 C300 1.476 . S
C310 N305 1.318 . S
C310 C309 1.396 . S
H311 C306 0.929 . S
O312 Mn288 2.385 . S
O312 C290 1.234 . S
O313 Mn288 2.209 . S
O313 Mn289 2.215 . S
O313 C290 1.283 . S
O314 Mn288 2.094 . S
O314 C292 1.240 . S
O315 Mn289 2.117 . S
O315 C292 1.264 . S
C316 C309 1.403 . S
C316 C317 1.399 . S
C316 H322 0.929 . S
C317 C297 1.449 . S
C317 C316 1.399 . S
C317 H323 0.930 . S
H318 C298 0.931 . S
H319 C299 0.930 . S
H320 C307 0.931 . S
H321 C308 0.929 . S
H322 C316 0.929 . S
H323 C317 0.930 . S
Mn324 O329 2.095 . S
Mn324 O339 2.162 . S
Mn324 O340 2.297 . S
Mn324 O348 2.385 . S
Mn324 O349 2.209 . S
Mn324 O350 2.094 . S
Mn325 O330 2.121 . S
Mn325 N332 2.257 . S
Mn325 N341 2.282 . S
Mn325 O349 2.215 . S
Mn325 O351 2.117 . S
C326 O348 1.234 . S
C326 O349 1.283 . S
C327 O339 1.281 . S
C327 O340 1.236 . S
C328 O350 1.240 . S
C328 O351 1.264 . S
O329 Mn324 2.095 . S
O329 C338 1.250 . S
O330 Mn325 2.121 . S
O330 C338 1.258 . S
C331 N332 1.326 . S
C331 C335 1.460 . S
C331 H337 0.929 . S
N332 Mn325 2.257 . S
N332 C331 1.326 . S
N332 C336 1.362 . S
C333 C334 1.258 . S
C333 C336 1.431 . S
C333 C353 1.449 . S
C334 C333 1.258 . S
C334 C335 1.477 . S
C334 H354 0.931 . S
C335 C331 1.460 . S
C335 C334 1.477 . S
C335 H355 0.930 . S
C336 N332 1.362 . S
C336 C333 1.431 . S
C336 C346 1.476 . S
H337 C331 0.929 . S
C338 O329 1.250 . S
C338 O330 1.258 . S
O339 Mn324 2.162 . S
O339 C327 1.281 . S
O340 Mn324 2.297 . S
O340 C327 1.236 . S
N341 Mn325 2.282 . S
N341 C342 1.328 . S
N341 C346 1.318 . S
C342 N341 1.328 . S
C342 C343 1.457 . S
C342 H347 0.929 . S
C343 C342 1.457 . S
C343 C344 1.291 . S
C343 H356 0.931 . S
C344 C343 1.291 . S
C344 C345 1.373 . S
C344 H357 0.929 . S
C345 C344 1.373 . S
C345 C346 1.396 . S
C345 C352 1.403 . S
C346 C336 1.476 . S
C346 N341 1.318 . S
C346 C345 1.396 . S
H347 C342 0.929 . S
O348 Mn324 2.385 . S
O348 C326 1.234 . S
O349 Mn324 2.209 . S
O349 Mn325 2.215 . S
O349 C326 1.283 . S
O350 Mn324 2.094 . S
O350 C328 1.240 . S
O351 Mn325 2.117 . S
O351 C328 1.264 . S
C352 C345 1.403 . S
C352 C353 1.399 . S
C352 H358 0.929 . S
C353 C333 1.449 . S
C353 C352 1.399 . S
C353 H359 0.930 . S
H354 C334 0.931 . S
H355 C335 0.930 . S
H356 C343 0.931 . S
H357 C344 0.929 . S
H358 C352 0.929 . S
H359 C353 0.930 . S
Mn360 O365 2.095 . S
Mn360 O375 2.162 . S
Mn360 O376 2.297 . S
Mn360 O384 2.385 . S
Mn360 O385 2.209 . S
Mn360 O386 2.094 . S
Mn361 O366 2.121 . S
Mn361 N368 2.257 . S
Mn361 N377 2.282 . S
Mn361 O385 2.215 . S
Mn361 O387 2.117 . S
C362 O384 1.234 . S
C362 O385 1.283 . S
C363 O375 1.281 . S
C363 O376 1.236 . S
C364 O386 1.240 . S
C364 O387 1.264 . S
O365 Mn360 2.095 . S
O365 C374 1.250 . S
O366 Mn361 2.121 . S
O366 C374 1.258 . S
C367 N368 1.326 . S
C367 C371 1.460 . S
C367 H373 0.929 . S
N368 Mn361 2.257 . S
N368 C367 1.326 . S
N368 C372 1.362 . S
C369 C370 1.258 . S
C369 C372 1.431 . S
C369 C389 1.449 . S
C370 C369 1.258 . S
C370 C371 1.477 . S
C370 H390 0.931 . S
C371 C367 1.460 . S
C371 C370 1.477 . S
C371 H391 0.930 . S
C372 N368 1.362 . S
C372 C369 1.431 . S
C372 C382 1.476 . S
H373 C367 0.929 . S
C374 O365 1.250 . S
C374 O366 1.258 . S
O375 Mn360 2.162 . S
O375 C363 1.281 . S
O376 Mn360 2.297 . S
O376 C363 1.236 . S
N377 Mn361 2.282 . S
N377 C378 1.328 . S
N377 C382 1.318 . S
C378 N377 1.328 . S
C378 C379 1.457 . S
C378 H383 0.929 . S
C379 C378 1.457 . S
C379 C380 1.291 . S
C379 H392 0.931 . S
C380 C379 1.291 . S
C380 C381 1.373 . S
C380 H393 0.929 . S
C381 C380 1.373 . S
C381 C382 1.396 . S
C381 C388 1.403 . S
C382 C372 1.476 . S
C382 N377 1.318 . S
C382 C381 1.396 . S
H383 C378 0.929 . S
O384 Mn360 2.385 . S
O384 C362 1.234 . S
O385 Mn360 2.209 . S
O385 Mn361 2.215 . S
O385 C362 1.283 . S
O386 Mn360 2.094 . S
O386 C364 1.240 . S
O387 Mn361 2.117 . S
O387 C364 1.264 . S
C388 C381 1.403 . S
C388 C389 1.399 . S
C388 H394 0.929 . S
C389 C369 1.449 . S
C389 C388 1.399 . S
C389 H395 0.930 . S
H390 C370 0.931 . S
H391 C371 0.930 . S
H392 C379 0.931 . S
H393 C380 0.929 . S
H394 C388 0.929 . S
H395 C389 0.930 . S
Mn396 O401 2.095 . S
Mn396 O411 2.162 . S
Mn396 O412 2.297 . S
Mn396 O420 2.385 1_565 S
Mn396 O421 2.209 1_565 S
Mn396 O422 2.094 . S
Mn397 O402 2.121 . S
Mn397 N404 2.257 . S
Mn397 N413 2.282 . S
Mn397 O421 2.215 . S
Mn397 O423 2.117 . S
C398 O420 1.234 . S
C398 O421 1.283 . S
C399 O411 1.281 . S
C399 O412 1.236 . S
C400 O422 1.224 1_545 S
C400 O423 1.285 . S
O401 Mn396 2.095 . S
O401 C410 1.250 1_565 S
O402 Mn397 2.121 . S
O402 C410 1.258 . S
C403 N404 1.326 . S
C403 C407 1.460 . S
C403 H409 0.929 . S
N404 Mn397 2.257 . S
N404 C403 1.326 . S
N404 C408 1.362 . S
C405 C406 1.258 . S
C405 C408 1.431 . S
C405 C425 1.449 . S
C406 C405 1.258 . S
C406 C407 1.477 . S
C406 H426 0.931 . S
C407 C403 1.460 . S
C407 C406 1.477 . S
C407 H427 0.930 . S
C408 N404 1.362 . S
C408 C405 1.431 . S
C408 C418 1.476 . S
H409 C403 0.929 . S
C410 O401 1.250 1_545 S
C410 O402 1.258 . S
O411 Mn396 2.162 . S
O411 C399 1.281 . S
O412 Mn396 2.297 . S
O412 C399 1.236 . S
N413 Mn397 2.282 . S
N413 C414 1.328 . S
N413 C418 1.318 . S
C414 N413 1.328 . S
C414 C415 1.457 . S
C414 H419 0.929 . S
C415 C414 1.457 . S
C415 C416 1.291 . S
C415 H428 0.931 . S
C416 C415 1.291 . S
C416 C417 1.373 . S
C416 H429 0.929 . S
C417 C416 1.373 . S
C417 C418 1.396 . S
C417 C424 1.403 . S
C418 C408 1.476 . S
C418 N413 1.318 . S
C418 C417 1.396 . S
H419 C414 0.929 . S
O420 Mn396 2.385 1_545 S
O420 C398 1.234 . S
O421 Mn396 2.209 1_545 S
O421 Mn397 2.215 . S
O421 C398 1.283 . S
O422 Mn396 2.094 . S
O422 C400 1.224 1_565 S
O423 Mn397 2.117 . S
O423 C400 1.285 . S
C424 C417 1.403 . S
C424 C425 1.399 . S
C424 H430 0.929 . S
C425 C405 1.449 . S
C425 C424 1.399 . S
C425 H431 0.930 . S
H426 C406 0.931 . S
H427 C407 0.930 . S
H428 C415 0.931 . S
H429 C416 0.929 . S
H430 C424 0.929 . S
H431 C425 0.930 . S
Mn432 O437 2.095 . S
Mn432 O447 2.162 . S
Mn432 O448 2.297 . S
Mn432 O456 2.385 1_455 S
Mn432 O457 2.209 1_455 S
Mn432 O458 2.094 . S
Mn433 O438 2.121 . S
Mn433 N440 2.257 . S
Mn433 N449 2.282 . S
Mn433 O457 2.215 . S
Mn433 O459 2.117 . S
C434 O456 1.234 . S
C434 O457 1.283 . S
C435 O447 1.281 . S
C435 O448 1.236 . S
C436 O458 1.240 . S
C436 O459 1.264 1_455 S
O437 Mn432 2.095 . S
O437 C446 1.250 1_455 S
O438 Mn433 2.121 . S
O438 C446 1.258 . S
C439 N440 1.326 . S
C439 C443 1.460 . S
C439 H445 0.929 . S
N440 Mn433 2.257 . S
N440 C439 1.326 . S
N440 C444 1.362 . S
C441 C442 1.258 . S
C441 C444 1.431 . S
C441 C461 1.449 . S
C442 C441 1.258 . S
C442 C443 1.477 . S
C442 H462 0.931 . S
C443 C439 1.460 . S
C443 C442 1.477 . S
C443 H463 0.930 . S
C444 N440 1.362 . S
C444 C441 1.431 . S
C444 C454 1.476 . S
H445 C439 0.929 . S
C446 O437 1.250 1_655 S
C446 O438 1.258 . S
O447 Mn432 2.162 . S
O447 C435 1.281 . S
O448 Mn432 2.297 . S
O448 C435 1.236 . S
N449 Mn433 2.282 . S
N449 C450 1.328 . S
N449 C454 1.318 . S
C450 N449 1.328 . S
C450 C451 1.457 . S
C450 H455 0.929 . S
C451 C450 1.457 . S
C451 C452 1.291 . S
C451 H464 0.931 . S
C452 C451 1.291 . S
C452 C453 1.373 . S
C452 H465 0.929 . S
C453 C452 1.373 . S
C453 C454 1.396 . S
C453 C460 1.403 . S
C454 C444 1.476 . S
C454 N449 1.318 . S
C454 C453 1.396 . S
H455 C450 0.929 . S
O456 Mn432 2.385 1_655 S
O456 C434 1.234 . S
O457 Mn432 2.209 1_655 S
O457 Mn433 2.215 . S
O457 C434 1.283 . S
O458 Mn432 2.094 . S
O458 C436 1.240 . S
O459 Mn433 2.117 . S
O459 C436 1.264 1_655 S
C460 C453 1.403 . S
C460 C461 1.399 . S
C460 H466 0.929 . S
C461 C441 1.449 . S
C461 C460 1.399 . S
C461 H467 0.930 . S
H462 C442 0.931 . S
H463 C443 0.930 . S
H464 C451 0.931 . S
H465 C452 0.929 . S
H466 C460 0.929 . S
H467 C461 0.930 . S
Mn468 O473 2.095 . S
Mn468 O483 2.162 . S
Mn468 O484 2.297 . S
Mn468 O492 2.385 . S
Mn468 O493 2.209 . S
Mn468 O494 2.094 . S
Mn469 O474 2.121 . S
Mn469 N476 2.257 . S
Mn469 N485 2.282 . S
Mn469 O493 2.215 . S
Mn469 O495 2.117 . S
C470 O492 1.234 . S
C470 O493 1.283 . S
C471 O483 1.281 . S
C471 O484 1.236 . S
C472 O494 1.240 . S
C472 O495 1.264 . S
O473 Mn468 2.095 . S
O473 C482 1.250 . S
O474 Mn469 2.121 . S
O474 C482 1.258 . S
C475 N476 1.326 . S
C475 C479 1.460 . S
C475 H481 0.929 . S
N476 Mn469 2.257 . S
N476 C475 1.326 . S
N476 C480 1.362 . S
C477 C478 1.258 . S
C477 C480 1.431 . S
C477 C497 1.449 . S
C478 C477 1.258 . S
C478 C479 1.477 . S
C478 H498 0.931 . S
C479 C475 1.460 . S
C479 C478 1.477 . S
C479 H499 0.930 . S
C480 N476 1.362 . S
C480 C477 1.431 . S
C480 C490 1.476 . S
H481 C475 0.929 . S
C482 O473 1.250 . S
C482 O474 1.258 . S
O483 Mn468 2.162 . S
O483 C471 1.281 . S
O484 Mn468 2.297 . S
O484 C471 1.236 . S
N485 Mn469 2.282 . S
N485 C486 1.328 . S
N485 C490 1.318 . S
C486 N485 1.328 . S
C486 C487 1.457 . S
C486 H491 0.929 . S
C487 C486 1.457 . S
C487 C488 1.291 . S
C487 H500 0.931 . S
C488 C487 1.291 . S
C488 C489 1.373 . S
C488 H501 0.929 . S
C489 C488 1.373 . S
C489 C490 1.396 . S
C489 C496 1.403 . S
C490 C480 1.476 . S
C490 N485 1.318 . S
C490 C489 1.396 . S
H491 C486 0.929 . S
O492 Mn468 2.385 . S
O492 C470 1.234 . S
O493 Mn468 2.209 . S
O493 Mn469 2.215 . S
O493 C470 1.283 . S
O494 Mn468 2.094 . S
O494 C472 1.240 . S
O495 Mn469 2.117 . S
O495 C472 1.264 . S
C496 C489 1.403 . S
C496 C497 1.399 . S
C496 H502 0.929 . S
C497 C477 1.449 . S
C497 C496 1.399 . S
C497 H503 0.930 . S
H498 C478 0.931 . S
H499 C479 0.930 . S
H500 C487 0.931 . S
H501 C488 0.929 . S
H502 C496 0.929 . S
H503 C497 0.930 . S
Mn504 O509 2.095 1_455 S
Mn504 O519 2.162 . S
Mn504 O520 2.297 1_455 S
Mn504 O528 2.385 . S
Mn504 O529 2.209 1_455 S
Mn504 O530 2.094 . S
Mn505 O510 2.121 . S
Mn505 N512 2.257 . S
Mn505 N521 2.276 1_655 S
Mn505 O529 2.215 . S
Mn505 O531 2.117 1_655 S
C506 O528 1.234 . S
C506 O529 1.283 1_455 S
C507 O519 1.281 . S
C507 O520 1.236 1_455 S
C508 O530 1.240 . S
C508 O531 1.264 . S
O509 Mn504 2.095 1_655 S
O509 C518 1.250 . S
O510 Mn505 2.121 . S
O510 C518 1.258 . S
C511 N512 1.326 . S
C511 C515 1.460 . S
C511 H517 0.929 . S
N512 Mn505 2.257 . S
N512 C511 1.326 . S
N512 C516 1.362 . S
C513 C514 1.258 . S
C513 C516 1.431 . S
C513 C533 1.449 . S
C514 C513 1.258 . S
C514 C515 1.477 . S
C514 H534 0.931 . S
C515 C511 1.460 . S
C515 C514 1.477 . S
C515 H535 0.930 . S
C516 N512 1.362 . S
C516 C513 1.431 . S
C516 C526 1.476 . S
H517 C511 0.929 . S
C518 O509 1.250 . S
C518 O510 1.258 . S
O519 Mn504 2.162 . S
O519 C507 1.281 . S
O520 Mn504 2.297 1_655 S
O520 C507 1.236 1_655 S
N521 Mn505 2.276 1_455 S
N521 C522 1.341 . S
N521 C526 1.309 1_455 S
C522 N521 1.341 . S
C522 C523 1.457 . S
C522 H527 0.929 . S
C523 C522 1.457 . S
C523 C524 1.291 . S
C523 H536 0.931 . S
C524 C523 1.291 . S
C524 C525 1.373 1_455 S
C524 H537 0.929 . S
C525 C524 1.373 1_655 S
C525 C526 1.396 . S
C525 C532 1.403 . S
C526 C516 1.476 . S
C526 N521 1.309 1_655 S
C526 C525 1.396 . S
H527 C522 0.929 . S
O528 Mn504 2.385 . S
O528 C506 1.234 . S
O529 Mn504 2.209 1_655 S
O529 Mn505 2.215 . S
O529 C506 1.283 1_655 S
O530 Mn504 2.094 . S
O530 C508 1.240 . S
O531 Mn505 2.117 1_455 S
O531 C508 1.264 . S
C532 C525 1.403 . S
C532 C533 1.399 . S
C532 H538 0.929 . S
C533 C513 1.449 . S
C533 C532 1.399 . S
C533 H539 0.930 . S
H534 C514 0.931 . S
H535 C515 0.930 . S
H536 C523 0.931 . S
H537 C524 0.929 . S
H538 C532 0.929 . S
H539 C533 0.930 . S
Mn540 O545 2.095 . S
Mn540 O555 2.162 . S
Mn540 O556 2.297 . S
Mn540 O564 2.385 . S
Mn540 O565 2.209 . S
Mn540 O566 2.094 . S
Mn541 O546 2.121 . S
Mn541 N548 2.257 . S
Mn541 N557 2.282 . S
Mn541 O565 2.215 . S
Mn541 O567 2.117 . S
C542 O564 1.234 . S
C542 O565 1.283 . S
C543 O555 1.281 . S
C543 O556 1.236 . S
C544 O566 1.240 . S
C544 O567 1.264 . S
O545 Mn540 2.095 . S
O545 C554 1.250 . S
O546 Mn541 2.121 . S
O546 C554 1.258 . S
C547 N548 1.326 . S
C547 C551 1.460 . S
C547 H553 0.929 . S
N548 Mn541 2.257 . S
N548 C547 1.326 . S
N548 C552 1.362 . S
C549 C550 1.258 . S
C549 C552 1.431 . S
C549 C569 1.449 . S
C550 C549 1.258 . S
C550 C551 1.477 . S
C550 H570 0.931 . S
C551 C547 1.460 . S
C551 C550 1.477 . S
C551 H571 0.930 . S
C552 N548 1.362 . S
C552 C549 1.431 . S
C552 C562 1.476 . S
H553 C547 0.929 . S
C554 O545 1.250 . S
C554 O546 1.258 . S
O555 Mn540 2.162 . S
O555 C543 1.281 . S
O556 Mn540 2.297 . S
O556 C543 1.236 . S
N557 Mn541 2.282 . S
N557 C558 1.328 . S
N557 C562 1.318 . S
C558 N557 1.328 . S
C558 C559 1.457 . S
C558 H563 0.929 . S
C559 C558 1.457 . S
C559 C560 1.291 . S
C559 H572 0.931 . S
C560 C559 1.291 . S
C560 C561 1.373 . S
C560 H573 0.929 . S
C561 C560 1.373 . S
C561 C562 1.396 . S
C561 C568 1.403 . S
C562 C552 1.476 . S
C562 N557 1.318 . S
C562 C561 1.396 . S
H563 C558 0.929 . S
O564 Mn540 2.385 . S
O564 C542 1.234 . S
O565 Mn540 2.209 . S
O565 Mn541 2.215 . S
O565 C542 1.283 . S
O566 Mn540 2.094 . S
O566 C544 1.240 . S
O567 Mn541 2.117 . S
O567 C544 1.264 . S
C568 C561 1.403 . S
C568 C569 1.399 . S
C568 H574 0.929 . S
C569 C549 1.449 . S
C569 C568 1.399 . S
C569 H575 0.930 . S
H570 C550 0.931 . S
H571 C551 0.930 . S
H572 C559 0.931 . S
H573 C560 0.929 . S
H574 C568 0.929 . S
H575 C569 0.930 . S
C576 C577 1.363 . S
C576 C582 1.379 . S
C576 N584 1.356 . S
C577 C576 1.363 . S
C577 C583 1.363 . S
C578 C579 1.363 . S
C578 C583 1.379 . S
C578 N585 1.356 . S
C579 C578 1.363 . S
C579 C582 1.363 . S
N580 C582 1.356 . S
N580 H592 0.984 . S
N580 H593 0.985 . S
N581 C583 1.356 . S
N581 H586 0.984 . S
N581 H587 0.985 . S
C582 C576 1.379 . S
C582 C579 1.363 . S
C582 N580 1.356 . S
C583 C577 1.363 . S
C583 C578 1.379 . S
C583 N581 1.356 . S
N584 C576 1.356 . S
N584 H590 0.984 . S
N584 H591 0.984 . S
N585 C578 1.356 . S
N585 H588 0.984 . S
N585 H589 0.985 1_556 S
H586 N581 0.984 . S
H587 N581 0.985 . S
H588 N585 0.984 . S
H589 N585 0.985 1_554 S
H590 N584 0.984 . S
H591 N584 0.984 . S
H592 N580 0.984 . S
H593 N580 0.985 . S
C594 C595 1.363 . S
C594 C600 1.379 . S
C594 N602 1.356 1_455 S
C595 C594 1.363 . S
C595 C601 1.363 . S
C596 C597 1.363 . S
C596 C601 1.379 . S
C596 N603 1.356 . S
C597 C596 1.363 . S
C597 C600 1.363 . S
N598 C600 1.356 . S
N598 H610 0.984 . S
N598 H611 0.985 . S
N599 C601 1.356 . S
N599 H604 0.984 . S
N599 H605 0.985 . S
C600 C594 1.379 . S
C600 C597 1.363 . S
C600 N598 1.356 . S
C601 C595 1.363 . S
C601 C596 1.379 . S
C601 N599 1.356 . S
N602 C594 1.356 1_655 S
N602 H608 0.984 . S
N602 H609 0.984 . S
N603 C596 1.356 . S
N603 H606 0.984 . S
N603 H607 0.985 . S
H604 N599 0.984 . S
H605 N599 0.985 . S
H606 N603 0.984 . S
H607 N603 0.985 . S
H608 N602 0.984 . S
H609 N602 0.984 . S
H610 N598 0.984 . S
H611 N598 0.985 . S
C612 C613 1.363 . S
C612 C618 1.379 . S
C612 N620 1.356 . S
C613 C612 1.363 . S
C613 C619 1.363 . S
C614 C615 1.363 . S
C614 C619 1.379 . S
C614 N621 1.356 . S
C615 C614 1.363 . S
C615 C618 1.363 . S
N616 C618 1.356 . S
N616 H628 0.984 . S
N616 H629 0.985 . S
N617 C619 1.356 . S
N617 H622 0.984 . S
N617 H623 0.985 . S
C618 C612 1.379 . S
C618 C615 1.363 . S
C618 N616 1.356 . S
C619 C613 1.363 . S
C619 C614 1.379 . S
C619 N617 1.356 . S
N620 C612 1.356 . S
N620 H626 0.984 . S
N620 H627 0.984 . S
N621 C614 1.356 . S
N621 H624 0.984 . S
N621 H625 0.985 . S
H622 N617 0.984 . S
H623 N617 0.985 . S
H624 N621 0.984 . S
H625 N621 0.985 . S
H626 N620 0.984 . S
H627 N620 0.984 . S
H628 N616 0.984 . S
H629 N616 0.985 . S
C630 C631 1.363 1_545 S
C630 C636 1.379 . S
C630 N638 1.356 . S
C631 C630 1.363 1_565 S
C631 C637 1.363 . S
C632 C633 1.363 . S
C632 C637 1.379 . S
C632 N639 1.356 . S
C633 C632 1.363 . S
C633 C636 1.363 1_565 S
N634 C636 1.356 . S
N634 H646 0.984 . S
N634 H647 0.985 . S
N635 C637 1.356 1_455 S
N635 H640 0.984 . S
N635 H641 0.985 . S
C636 C630 1.379 . S
C636 C633 1.363 1_545 S
C636 N634 1.356 . S
C637 C631 1.363 . S
C637 C632 1.379 . S
C637 N635 1.356 1_655 S
N638 C630 1.356 . S
N638 H644 0.984 . S
N638 H645 0.984 . S
N639 C632 1.356 . S
N639 H642 0.984 . S
N639 H643 0.985 . S
H640 N635 0.984 . S
H641 N635 0.985 . S
H642 N639 0.984 . S
H643 N639 0.985 . S
H644 N638 0.984 . S
H645 N638 0.984 . S
H646 N634 0.984 . S
H647 N634 0.985 . S
C648 C649 1.363 . S
C648 C654 1.379 . S
C648 N656 1.356 . S
C649 C648 1.363 . S
C649 C655 1.363 . S
C650 C651 1.363 . S
C650 C655 1.379 . S
C650 N657 1.356 . S
C651 C650 1.363 . S
C651 C654 1.363 . S
N652 C654 1.356 . S
N652 H664 0.984 . S
N652 H665 0.985 . S
N653 C655 1.356 . S
N653 H658 0.984 . S
N653 H659 0.985 . S
C654 C648 1.379 . S
C654 C651 1.363 . S
C654 N652 1.356 . S
C655 C649 1.363 . S
C655 C650 1.379 . S
C655 N653 1.356 . S
N656 C648 1.356 . S
N656 H662 0.984 . S
N656 H663 0.984 . S
N657 C650 1.356 . S
N657 H660 0.984 . S
N657 H661 0.985 . S
H658 N653 0.984 . S
H659 N653 0.985 . S
H660 N657 0.984 . S
H661 N657 0.985 . S
H662 N656 0.984 . S
H663 N656 0.984 . S
H664 N652 0.984 . S
H665 N652 0.985 . S
C666 C667 1.363 . S
C666 C672 1.379 . S
C666 N674 1.356 . S
C667 C666 1.363 . S
C667 C673 1.363 . S
C668 C669 1.363 . S
C668 C673 1.379 . S
C668 N675 1.356 . S
C669 C668 1.363 . S
C669 C672 1.363 . S
N670 C672 1.356 . S
N670 H682 0.984 . S
N670 H683 0.985 . S
N671 C673 1.356 . S
N671 H676 0.984 . S
N671 H677 0.985 . S
C672 C666 1.379 . S
C672 C669 1.363 . S
C672 N670 1.356 . S
C673 C667 1.363 . S
C673 C668 1.379 . S
C673 N671 1.356 . S
N674 C666 1.356 . S
N674 H680 0.984 . S
N674 H681 0.984 . S
N675 C668 1.356 . S
N675 H678 0.984 . S
N675 H679 0.985 . S
H676 N671 0.984 . S
H677 N671 0.985 . S
H678 N675 0.984 . S
H679 N675 0.985 . S
H680 N674 0.984 . S
H681 N674 0.984 . S
H682 N670 0.984 . S
H683 N670 0.985 . S
C684 C685 1.363 . S
C684 C690 1.379 . S
C684 N692 1.356 . S
C685 C684 1.363 . S
C685 C691 1.363 . S
C686 C687 1.363 . S
C686 C691 1.379 . S
C686 N693 1.356 . S
C687 C686 1.363 . S
C687 C690 1.363 . S
N688 C690 1.356 . S
N688 H700 0.984 . S
N688 H701 0.985 . S
N689 C691 1.356 . S
N689 H694 0.984 . S
N689 H695 0.985 . S
C690 C684 1.379 . S
C690 C687 1.363 . S
C690 N688 1.356 . S
C691 C685 1.363 . S
C691 C686 1.379 . S
C691 N689 1.356 . S
N692 C684 1.356 . S
N692 H698 0.984 . S
N692 H699 0.984 . S
N693 C686 1.356 . S
N693 H696 0.984 . S
N693 H697 0.985 . S
H694 N689 0.984 . S
H695 N689 0.985 . S
H696 N693 0.984 . S
H697 N693 0.985 . S
H698 N692 0.984 . S
H699 N692 0.984 . S
H700 N688 0.984 . S
H701 N688 0.985 . S
C702 C703 1.363 . S
C702 C708 1.379 . S
C702 N710 1.356 . S
C703 C702 1.363 . S
C703 C709 1.363 1_565 S
C704 C705 1.363 1_545 S
C704 C709 1.379 . S
C704 N711 1.356 . S
C705 C704 1.363 1_565 S
C705 C708 1.363 . S
N706 C708 1.356 . S
N706 H718 0.984 . S
N706 H719 0.985 . S
N707 C709 1.356 . S
N707 H712 0.984 . S
N707 H713 0.985 . S
C708 C702 1.379 . S
C708 C705 1.363 . S
C708 N706 1.356 . S
C709 C703 1.363 1_545 S
C709 C704 1.379 . S
C709 N707 1.356 . S
N710 C702 1.356 . S
N710 H716 0.984 . S
N710 H717 0.984 . S
N711 C704 1.356 . S
N711 H714 0.984 . S
N711 H715 0.985 . S
H712 N707 0.984 . S
H713 N707 0.985 . S
H714 N711 0.984 . S
H715 N711 0.985 . S
H716 N710 0.984 . S
H717 N710 0.984 . S
H718 N706 0.984 . S
H719 N706 0.985 . S
C720 C721 1.363 . S
C720 C726 1.379 . S
C720 N728 1.356 . S
C721 C720 1.363 . S
C721 C727 1.363 . S
C722 C723 1.363 . S
C722 C727 1.379 . S
C722 N729 1.356 . S
C723 C722 1.363 . S
C723 C726 1.363 . S
N724 C726 1.356 . S
N724 H736 0.984 . S
N724 H737 0.985 . S
N725 C727 1.356 . S
N725 H730 0.984 . S
N725 H731 0.985 . S
C726 C720 1.379 . S
C726 C723 1.363 . S
C726 N724 1.356 . S
C727 C721 1.363 . S
C727 C722 1.379 . S
C727 N725 1.356 . S
N728 C720 1.356 . S
N728 H734 0.984 . S
N728 H735 0.984 . S
N729 C722 1.356 . S
N729 H732 0.984 . S
N729 H733 0.985 . S
H730 N725 0.984 . S
H731 N725 0.985 . S
H732 N729 0.984 . S
H733 N729 0.985 . S
H734 N728 0.984 . S
H735 N728 0.984 . S
H736 N724 0.984 . S
H737 N724 0.985 . S
C738 C739 1.363 . S
C738 C744 1.379 . S
C738 N746 1.356 . S
C739 C738 1.363 . S
C739 C745 1.363 . S
C740 C741 1.363 . S
C740 C745 1.379 . S
C740 N747 1.356 . S
C741 C740 1.363 . S
C741 C744 1.363 . S
N742 C744 1.356 . S
N742 H754 0.984 . S
N742 H755 0.985 . S
N743 C745 1.356 . S
N743 H748 0.984 . S
N743 H749 0.985 . S
C744 C738 1.379 . S
C744 C741 1.363 . S
C744 N742 1.356 . S
C745 C739 1.363 . S
C745 C740 1.379 . S
C745 N743 1.356 . S
N746 C738 1.356 . S
N746 H752 0.984 . S
N746 H753 0.984 . S
N747 C740 1.356 . S
N747 H750 0.984 . S
N747 H751 0.985 . S
H748 N743 0.984 . S
H749 N743 0.985 . S
H750 N747 0.984 . S
H751 N747 0.985 . S
H752 N746 0.984 . S
H753 N746 0.984 . S
H754 N742 0.984 . S
H755 N742 0.985 . S
C756 C757 1.363 . S
C756 C762 1.379 . S
C756 N764 1.356 . S
C757 C756 1.363 . S
C757 C763 1.363 . S
C758 C759 1.363 . S
C758 C763 1.379 . S
C758 N765 1.356 . S
C759 C758 1.363 . S
C759 C762 1.363 . S
N760 C762 1.356 . S
N760 H772 0.984 . S
N760 H773 0.985 . S
N761 C763 1.356 . S
N761 H766 0.984 . S
N761 H767 0.985 . S
C762 C756 1.379 . S
C762 C759 1.363 . S
C762 N760 1.356 . S
C763 C757 1.363 . S
C763 C758 1.379 . S
C763 N761 1.356 . S
N764 C756 1.356 . S
N764 H770 0.984 . S
N764 H771 0.984 . S
N765 C758 1.356 . S
N765 H768 0.984 . S
N765 H769 0.985 . S
H766 N761 0.984 . S
H767 N761 0.985 . S
H768 N765 0.984 . S
H769 N765 0.985 . S
H770 N764 0.984 . S
H771 N764 0.984 . S
H772 N760 0.984 . S
H773 N760 0.985 . S
C774 C775 1.363 . S
C774 C780 1.379 . S
C774 N782 1.356 . S
C775 C774 1.363 . S
C775 C781 1.363 . S
C776 C777 1.363 . S
C776 C781 1.379 . S
C776 N783 1.356 . S
C777 C776 1.363 . S
C777 C780 1.363 . S
N778 C780 1.356 . S
N778 H790 0.984 . S
N778 H791 0.985 . S
N779 C781 1.356 . S
N779 H784 0.984 . S
N779 H785 0.985 . S
C780 C774 1.379 . S
C780 C777 1.363 . S
C780 N778 1.356 . S
C781 C775 1.363 . S
C781 C776 1.379 . S
C781 N779 1.356 . S
N782 C774 1.356 . S
N782 H788 0.984 . S
N782 H789 0.984 . S
N783 C776 1.356 . S
N783 H786 0.984 . S
N783 H787 0.985 . S
H784 N779 0.984 . S
H785 N779 0.985 . S
H786 N783 0.984 . S
H787 N783 0.985 . S
H788 N782 0.984 . S
H789 N782 0.984 . S
H790 N778 0.984 . S
H791 N778 0.985 . S
C792 C793 1.363 . S
C792 C798 1.379 . S
C792 N800 1.356 . S
C793 C792 1.363 . S
C793 C799 1.363 . S
C794 C795 1.363 . S
C794 C799 1.379 . S
C794 N801 1.356 . S
C795 C794 1.363 . S
C795 C798 1.363 . S
N796 C798 1.356 . S
N796 H808 0.984 . S
N796 H809 0.985 . S
N797 C799 1.356 . S
N797 H802 0.984 . S
N797 H803 0.985 . S
C798 C792 1.379 . S
C798 C795 1.363 . S
C798 N796 1.356 . S
C799 C793 1.363 . S
C799 C794 1.379 . S
C799 N797 1.356 . S
N800 C792 1.356 . S
N800 H806 0.984 . S
N800 H807 0.984 . S
N801 C794 1.356 . S
N801 H804 0.984 . S
N801 H805 0.985 . S
H802 N797 0.984 . S
H803 N797 0.985 . S
H804 N801 0.984 . S
H805 N801 0.985 . S
H806 N800 0.984 . S
H807 N800 0.984 . S
H808 N796 0.984 . S
H809 N796 0.985 . S
C810 C811 1.363 1_655 S
C810 C816 1.379 . S
C810 N818 1.356 . S
C811 C810 1.363 1_455 S
C811 C817 1.363 . S
C812 C813 1.363 . S
C812 C817 1.379 . S
C812 N819 1.356 . S
C813 C812 1.363 . S
C813 C816 1.363 1_455 S
N814 C816 1.356 . S
N814 H826 0.984 . S
N814 H827 0.985 . S
N815 C817 1.356 . S
N815 H820 0.984 . S
N815 H821 0.985 . S
C816 C810 1.379 . S
C816 C813 1.363 1_655 S
C816 N814 1.356 . S
C817 C811 1.363 . S
C817 C812 1.379 . S
C817 N815 1.356 . S
N818 C810 1.356 . S
N818 H824 0.984 . S
N818 H825 0.984 . S
N819 C812 1.356 . S
N819 H822 0.984 . S
N819 H823 0.985 . S
H820 N815 0.984 . S
H821 N815 0.985 . S
H822 N819 0.984 . S
H823 N819 0.985 . S
H824 N818 0.984 . S
H825 N818 0.984 . S
H826 N814 0.984 . S
H827 N814 0.985 . S
C828 C829 1.363 . S
C828 C834 1.379 . S
C828 N836 1.356 . S
C829 C828 1.363 . S
C829 C835 1.363 . S
C830 C831 1.363 . S
C830 C835 1.379 . S
C830 N837 1.356 . S
C831 C830 1.363 . S
C831 C834 1.363 . S
N832 C834 1.356 . S
N832 H844 0.984 . S
N832 H845 0.985 . S
N833 C835 1.356 . S
N833 H838 0.984 . S
N833 H839 0.985 . S
C834 C828 1.379 . S
C834 C831 1.363 . S
C834 N832 1.356 . S
C835 C829 1.363 . S
C835 C830 1.379 . S
C835 N833 1.356 . S
N836 C828 1.356 . S
N836 H842 0.984 . S
N836 H843 0.984 . S
N837 C830 1.356 . S
N837 H840 0.984 . S
N837 H841 0.985 . S
H838 N833 0.984 . S
H839 N833 0.985 . S
H840 N837 0.984 . S
H841 N837 0.985 . S
H842 N836 0.984 . S
H843 N836 0.984 . S
H844 N832 0.984 . S
H845 N832 0.985 . S
C846 C847 1.363 . S
C846 C852 1.379 1_655 S
C846 N854 1.356 1_655 S
C847 C846 1.363 . S
C847 C853 1.363 . S
C848 C849 1.363 . S
C848 C853 1.379 . S
C848 N855 1.356 . S
C849 C848 1.363 . S
C849 C852 1.363 1_655 S
N850 C852 1.356 . S
N850 H862 0.984 . S
N850 H863 0.985 . S
N851 C853 1.356 . S
N851 H856 0.984 . S
N851 H857 0.985 . S
C852 C846 1.379 1_455 S
C852 C849 1.363 1_455 S
C852 N850 1.356 . S
C853 C847 1.363 . S
C853 C848 1.379 . S
C853 N851 1.356 . S
N854 C846 1.356 1_455 S
N854 H860 0.984 . S
N854 H861 0.984 1_455 S
N855 C848 1.356 . S
N855 H858 0.984 . S
N855 H859 0.985 . S
H856 N851 0.984 . S
H857 N851 0.985 . S
H858 N855 0.984 . S
H859 N855 0.985 . S
H860 N854 0.984 . S
H861 N854 0.984 1_655 S
H862 N850 0.984 . S
H863 N850 0.985 . S
C864 C865 1.363 . S
C864 C870 1.379 . S
C864 N872 1.356 . S
C865 C864 1.363 . S
C865 C871 1.363 . S
C866 C867 1.363 . S
C866 C871 1.379 . S
C866 N873 1.356 . S
C867 C866 1.363 . S
C867 C870 1.363 . S
N868 C870 1.356 . S
N868 H880 0.984 . S
N868 H881 0.985 . S
N869 C871 1.356 . S
N869 H874 0.984 . S
N869 H875 0.985 . S
C870 C864 1.379 . S
C870 C867 1.363 . S
C870 N868 1.356 . S
C871 C865 1.363 . S
C871 C866 1.379 . S
C871 N869 1.356 . S
N872 C864 1.356 . S
N872 H878 0.984 . S
N872 H879 0.984 . S
N873 C866 1.356 . S
N873 H876 0.984 . S
N873 H877 0.985 . S
H874 N869 0.984 . S
H875 N869 0.985 . S
H876 N873 0.984 . S
H877 N873 0.985 . S
H878 N872 0.984 . S
H879 N872 0.984 . S
H880 N868 0.984 . S
H881 N868 0.985 . S
C882 C883 1.363 . S
C882 C888 1.379 . S
C882 N890 1.356 . S
C883 C882 1.363 . S
C883 C889 1.363 . S
C884 C885 1.363 . S
C884 C889 1.379 . S
C884 N891 1.356 . S
C885 C884 1.363 . S
C885 C888 1.363 . S
N886 C888 1.356 . S
N886 H898 0.984 . S
N886 H899 0.985 . S
N887 C889 1.356 . S
N887 H892 0.984 . S
N887 H893 0.985 . S
C888 C882 1.379 . S
C888 C885 1.363 . S
C888 N886 1.356 . S
C889 C883 1.363 . S
C889 C884 1.379 . S
C889 N887 1.356 . S
N890 C882 1.356 . S
N890 H896 0.984 . S
N890 H897 0.984 . S
N891 C884 1.356 . S
N891 H894 0.984 . S
N891 H895 0.985 . S
H892 N887 0.984 . S
H893 N887 0.985 . S
H894 N891 0.984 . S
H895 N891 0.985 . S
H896 N890 0.984 . S
H897 N890 0.984 . S
H898 N886 0.984 . S
H899 N886 0.985 . S
C900 C901 1.363 . S
C900 C906 1.379 . S
C900 N908 1.356 1_565 S
C901 C900 1.363 . S
C901 C907 1.363 1_556 S
C902 C903 1.356 1_554 S
C902 C907 1.379 . S
C902 N909 1.356 . S
C903 C902 1.356 1_556 S
C903 C906 1.373 . S
N904 C906 1.356 . S
N904 H916 0.984 . S
N904 H917 0.985 . S
N905 C907 1.356 . S
N905 H910 0.984 . S
N905 H911 0.985 . S
C906 C900 1.379 . S
C906 C903 1.373 . S
C906 N904 1.356 . S
C907 C901 1.363 1_554 S
C907 C902 1.379 . S
C907 N905 1.356 . S
N908 C900 1.356 1_545 S
N908 H914 0.984 . S
N908 H915 0.984 . S
N909 C902 1.356 . S
N909 H912 0.984 . S
N909 H913 0.985 . S
H910 N905 0.984 . S
H911 N905 0.985 . S
H912 N909 0.984 . S
H913 N909 0.985 . S
H914 N908 0.984 . S
H915 N908 0.984 . S
H916 N904 0.984 . S
H917 N904 0.985 . S
C918 C919 1.363 . S
C918 C924 1.379 . S
C918 N926 1.356 . S
C919 C918 1.363 . S
C919 C925 1.363 . S
C920 C921 1.363 . S
C920 C925 1.379 . S
C920 N927 1.356 . S
C921 C920 1.363 . S
C921 C924 1.363 . S
N922 C924 1.356 . S
N922 H934 0.984 . S
N922 H935 0.985 . S
N923 C925 1.356 . S
N923 H928 0.984 . S
N923 H929 0.985 . S
C924 C918 1.379 . S
C924 C921 1.363 . S
C924 N922 1.356 . S
C925 C919 1.363 . S
C925 C920 1.379 . S
C925 N923 1.356 . S
N926 C918 1.356 . S
N926 H932 0.984 . S
N926 H933 0.984 . S
N927 C920 1.356 . S
N927 H930 0.984 . S
N927 H931 0.985 . S
H928 N923 0.984 . S
H929 N923 0.985 . S
H930 N927 0.984 . S
H931 N927 0.985 . S
H932 N926 0.984 . S
H933 N926 0.984 . S
H934 N922 0.984 . S
H935 N922 0.985 . S
C936 C937 1.363 . S
C936 C942 1.379 . S
C936 N944 1.356 1_545 S
C937 C936 1.363 . S
C937 C943 1.363 . S
C938 C939 1.363 . S
C938 C943 1.379 . S
C938 N945 1.356 . S
C939 C938 1.363 . S
C939 C942 1.363 . S
N940 C942 1.356 . S
N940 H952 0.991 . S
N940 H953 0.985 . S
N941 C943 1.356 . S
N941 H946 0.984 . S
N941 H947 0.985 . S
C942 C936 1.379 . S
C942 C939 1.363 . S
C942 N940 1.356 . S
C943 C937 1.363 . S
C943 C938 1.379 . S
C943 N941 1.356 . S
N944 C936 1.356 1_565 S
N944 H950 0.984 . S
N944 H951 0.984 . S
N945 C938 1.356 . S
N945 H948 0.984 . S
N945 H949 0.985 . S
H946 N941 0.984 . S
H947 N941 0.985 . S
H948 N945 0.984 . S
H949 N945 0.985 . S
H950 N944 0.984 . S
H951 N944 0.984 . S
H952 N940 0.991 . S
H953 N940 0.985 . S
C954 C955 1.363 . S
C954 C960 1.379 . S
C954 N962 1.356 . S
C955 C954 1.363 . S
C955 C961 1.363 . S
C956 C957 1.363 . S
C956 C961 1.379 . S
C956 N963 1.356 . S
C957 C956 1.363 . S
C957 C960 1.363 . S
N958 C960 1.356 . S
N958 H970 0.984 . S
N958 H971 0.985 . S
N959 C961 1.356 . S
N959 H964 0.984 . S
N959 H965 0.985 . S
C960 C954 1.379 . S
C960 C957 1.363 . S
C960 N958 1.356 . S
C961 C955 1.363 . S
C961 C956 1.379 . S
C961 N959 1.356 . S
N962 C954 1.356 . S
N962 H968 0.984 . S
N962 H969 0.984 . S
N963 C956 1.356 . S
N963 H966 0.984 . S
N963 H967 0.985 . S
H964 N959 0.984 . S
H965 N959 0.985 . S
H966 N963 0.984 . S
H967 N963 0.985 . S
H968 N962 0.984 . S
H969 N962 0.984 . S
H970 N958 0.984 . S
H971 N958 0.985 . S
C972 C973 1.363 . S
C972 C978 1.379 . S
C972 N980 1.356 1_545 S
C973 C972 1.363 . S
C973 C979 1.363 . S
C974 C975 1.363 . S
C974 C979 1.379 . S
C974 N981 1.356 . S
C975 C974 1.363 . S
C975 C978 1.363 . S
N976 C978 1.356 . S
N976 H988 0.984 . S
N976 H989 0.985 . S
N977 C979 1.356 . S
N977 H982 0.984 . S
N977 H983 0.985 . S
C978 C972 1.379 . S
C978 C975 1.363 . S
C978 N976 1.356 . S
C979 C973 1.363 . S
C979 C974 1.379 . S
C979 N977 1.356 . S
N980 C972 1.356 1_565 S
N980 H986 0.984 . S
N980 H987 0.984 . S
N981 C974 1.356 . S
N981 H984 0.984 . S
N981 H985 0.985 . S
H982 N977 0.984 . S
H983 N977 0.985 . S
H984 N981 0.984 . S
H985 N981 0.985 . S
H986 N980 0.984 . S
H987 N980 0.984 . S
H988 N976 0.984 . S
H989 N976 0.985 . S
C990 C991 1.363 . S
C990 C996 1.379 . S
C990 N998 1.356 . S
C991 C990 1.363 . S
C991 C997 1.363 . S
C992 C993 1.363 . S
C992 C997 1.379 . S
C992 N999 1.356 . S
C993 C992 1.363 . S
C993 C996 1.363 . S
N994 C996 1.356 . S
N994 H1006 0.984 . S
N994 H1007 0.985 . S
N995 C997 1.356 . S
N995 H1000 0.984 . S
N995 H1001 0.985 . S
C996 C990 1.379 . S
C996 C993 1.363 . S
C996 N994 1.356 . S
C997 C991 1.363 . S
C997 C992 1.379 . S
C997 N995 1.356 . S
N998 C990 1.356 . S
N998 H1004 0.984 . S
N998 H1005 0.984 . S
N999 C992 1.356 . S
N999 H1002 0.984 . S
N999 H1003 0.985 . S
H1000 N995 0.984 . S
H1001 N995 0.985 . S
H1002 N999 0.984 . S
H1003 N999 0.985 . S
H1004 N998 0.984 . S
H1005 N998 0.984 . S
H1006 N994 0.984 . S
H1007 N994 0.985 . S
C1008 C1009 1.363 . S
C1008 C1014 1.379 . S
C1008 N1016 1.356 . S
C1009 C1008 1.363 . S
C1009 C1015 1.363 . S
C1010 C1011 1.363 . S
C1010 C1015 1.379 . S
C1010 N1017 1.356 . S
C1011 C1010 1.363 . S
C1011 C1014 1.363 . S
N1012 C1014 1.356 . S
N1012 H1024 0.984 . S
N1012 H1025 0.985 . S
N1013 C1015 1.356 . S
N1013 H1018 0.984 . S
N1013 H1019 0.985 . S
C1014 C1008 1.379 . S
C1014 C1011 1.363 . S
C1014 N1012 1.356 . S
C1015 C1009 1.363 . S
C1015 C1010 1.379 . S
C1015 N1013 1.356 . S
N1016 C1008 1.356 . S
N1016 H1022 0.984 . S
N1016 H1023 0.984 . S
N1017 C1010 1.356 . S
N1017 H1020 0.984 . S
N1017 H1021 0.985 . S
H1018 N1013 0.984 . S
H1019 N1013 0.985 . S
H1020 N1017 0.984 . S
H1021 N1017 0.985 . S
H1022 N1016 0.984 . S
H1023 N1016 0.984 . S
H1024 N1012 0.984 . S
H1025 N1012 0.985 . S
C1026 C1027 1.363 1_565 S
C1026 C1032 1.379 . S
C1026 N1034 1.356 . S
C1027 C1026 1.363 1_545 S
C1027 C1033 1.363 . S
C1028 C1029 1.363 . S
C1028 C1033 1.379 . S
C1028 N1035 1.356 . S
C1029 C1028 1.363 . S
C1029 C1032 1.363 1_545 S
N1030 C1032 1.356 . S
N1030 H1042 0.984 . S
N1030 H1043 0.985 . S
N1031 C1033 1.356 . S
N1031 H1036 0.984 . S
N1031 H1037 0.985 . S
C1032 C1026 1.379 . S
C1032 C1029 1.363 1_565 S
C1032 N1030 1.356 . S
C1033 C1027 1.363 . S
C1033 C1028 1.379 . S
C1033 N1031 1.356 . S
N1034 C1026 1.356 . S
N1034 H1040 0.984 . S
N1034 H1041 0.984 . S
N1035 C1028 1.356 . S
N1035 H1038 0.984 . S
N1035 H1039 0.985 . S
H1036 N1031 0.984 . S
H1037 N1031 0.985 . S
H1038 N1035 0.984 . S
H1039 N1035 0.985 . S
H1040 N1034 0.984 . S
H1041 N1034 0.984 . S
H1042 N1030 0.984 . S
H1043 N1030 0.985 . S
C1044 C1045 1.363 . S
C1044 C1050 1.379 . S
C1044 N1052 1.356 . S
C1045 C1044 1.363 . S
C1045 C1051 1.363 . S
C1046 C1047 1.363 . S
C1046 C1051 1.379 . S
C1046 N1053 1.356 . S
C1047 C1046 1.363 . S
C1047 C1050 1.363 . S
N1048 C1050 1.356 . S
N1048 H1060 0.984 . S
N1048 H1061 0.985 . S
N1049 C1051 1.356 . S
N1049 H1054 0.984 . S
N1049 H1055 0.985 . S
C1050 C1044 1.379 . S
C1050 C1047 1.363 . S
C1050 N1048 1.356 . S
C1051 C1045 1.363 . S
C1051 C1046 1.379 . S
C1051 N1049 1.356 . S
N1052 C1044 1.356 . S
N1052 H1058 0.984 . S
N1052 H1059 0.984 . S
N1053 C1046 1.356 . S
N1053 H1056 0.984 . S
N1053 H1057 0.985 . S
H1054 N1049 0.984 . S
H1055 N1049 0.985 . S
H1056 N1053 0.984 . S
H1057 N1053 0.985 . S
H1058 N1052 0.984 . S
H1059 N1052 0.984 . S
H1060 N1048 0.984 . S
H1061 N1048 0.985 . S
C1062 C1063 1.363 . S
C1062 C1068 1.379 . S
C1062 N1070 1.356 . S
C1063 C1062 1.363 . S
C1063 C1069 1.363 . S
C1064 C1065 1.363 . S
C1064 C1069 1.379 . S
C1064 N1071 1.356 . S
C1065 C1064 1.363 . S
C1065 C1068 1.363 . S
N1066 C1068 1.356 . S
N1066 H1078 0.984 . S
N1066 H1079 0.985 . S
N1067 C1069 1.356 . S
N1067 H1072 0.984 . S
N1067 H1073 0.985 . S
C1068 C1062 1.379 . S
C1068 C1065 1.363 . S
C1068 N1066 1.356 . S
C1069 C1063 1.363 . S
C1069 C1064 1.379 . S
C1069 N1067 1.356 . S
N1070 C1062 1.356 . S
N1070 H1076 0.984 . S
N1070 H1077 0.984 . S
N1071 C1064 1.356 . S
N1071 H1074 0.984 . S
N1071 H1075 0.985 . S
H1072 N1067 0.984 . S
H1073 N1067 0.985 . S
H1074 N1071 0.984 . S
H1075 N1071 0.985 . S
H1076 N1070 0.984 . S
H1077 N1070 0.984 . S
H1078 N1066 0.984 . S
H1079 N1066 0.985 . S
C1080 C1081 1.363 . S
C1080 C1086 1.379 . S
C1080 N1088 1.356 . S
C1081 C1080 1.363 . S
C1081 C1087 1.363 . S
C1082 C1083 1.363 . S
C1082 C1087 1.379 . S
C1082 N1089 1.356 . S
C1083 C1082 1.363 . S
C1083 C1086 1.363 . S
N1084 C1086 1.356 . S
N1084 H1096 0.984 . S
N1084 H1097 0.985 . S
N1085 C1087 1.356 . S
N1085 H1090 0.984 . S
N1085 H1091 0.985 . S
C1086 C1080 1.379 . S
C1086 C1083 1.363 . S
C1086 N1084 1.356 . S
C1087 C1081 1.363 . S
C1087 C1082 1.379 . S
C1087 N1085 1.356 . S
N1088 C1080 1.356 . S
N1088 H1094 0.984 . S
N1088 H1095 0.984 . S
N1089 C1082 1.356 . S
N1089 H1092 0.984 . S
N1089 H1093 0.985 . S
H1090 N1085 0.984 . S
H1091 N1085 0.985 . S
H1092 N1089 0.984 . S
H1093 N1089 0.985 . S
H1094 N1088 0.984 . S
H1095 N1088 0.984 . S
H1096 N1084 0.984 . S
H1097 N1084 0.985 . S
C1098 C1099 1.363 . S
C1098 C1104 1.379 . S
C1098 N1106 1.356 1_655 S
C1099 C1098 1.363 . S
C1099 C1105 1.363 1_545 S
C1100 C1101 1.363 1_565 S
C1100 C1105 1.379 . S
C1100 N1107 1.356 . S
C1101 C1100 1.363 1_545 S
C1101 C1104 1.363 . S
N1102 C1104 1.356 . S
N1102 H1114 0.984 . S
N1102 H1115 0.985 . S
N1103 C1105 1.356 . S
N1103 H1108 0.984 . S
N1103 H1109 0.985 . S
C1104 C1098 1.379 . S
C1104 C1101 1.363 . S
C1104 N1102 1.356 . S
C1105 C1099 1.363 1_565 S
C1105 C1100 1.379 . S
C1105 N1103 1.356 . S
N1106 C1098 1.356 1_455 S
N1106 H1112 0.984 . S
N1106 H1113 0.984 . S
N1107 C1100 1.356 . S
N1107 H1110 0.984 . S
N1107 H1111 0.985 . S
H1108 N1103 0.984 . S
H1109 N1103 0.985 . S
H1110 N1107 0.984 . S
H1111 N1107 0.985 . S
H1112 N1106 0.984 . S
H1113 N1106 0.984 . S
H1114 N1102 0.984 . S
H1115 N1102 0.985 . S
C1116 C1117 1.363 . S
C1116 C1122 1.379 . S
C1116 N1124 1.356 . S
C1117 C1116 1.363 . S
C1117 C1123 1.363 . S
C1118 C1119 1.363 . S
C1118 C1123 1.379 . S
C1118 N1125 1.356 . S
C1119 C1118 1.363 . S
C1119 C1122 1.363 . S
N1120 C1122 1.356 . S
N1120 H1132 0.984 . S
N1120 H1133 0.985 . S
N1121 C1123 1.356 . S
N1121 H1126 0.984 . S
N1121 H1127 0.985 . S
C1122 C1116 1.379 . S
C1122 C1119 1.363 . S
C1122 N1120 1.356 . S
C1123 C1117 1.363 . S
C1123 C1118 1.379 . S
C1123 N1121 1.356 . S
N1124 C1116 1.356 . S
N1124 H1130 0.984 . S
N1124 H1131 0.984 . S
N1125 C1118 1.356 . S
N1125 H1128 0.984 . S
N1125 H1129 0.985 . S
H1126 N1121 0.984 . S
H1127 N1121 0.985 . S
H1128 N1125 0.984 . S
H1129 N1125 0.985 . S
H1130 N1124 0.984 . S
H1131 N1124 0.984 . S
H1132 N1120 0.984 . S
H1133 N1120 0.985 . S
C1134 C1135 1.363 . S
C1134 C1140 1.379 . S
C1134 N1142 1.356 . S
C1135 C1134 1.363 . S
C1135 C1141 1.363 . S
C1136 C1137 1.363 . S
C1136 C1141 1.379 . S
C1136 N1143 1.356 . S
C1137 C1136 1.363 . S
C1137 C1140 1.363 . S
N1138 C1140 1.356 . S
N1138 H1150 0.984 . S
N1138 H1151 0.985 . S
N1139 C1141 1.356 1_655 S
N1139 H1144 0.984 . S
N1139 H1145 0.985 . S
C1140 C1134 1.379 . S
C1140 C1137 1.363 . S
C1140 N1138 1.356 . S
C1141 C1135 1.363 . S
C1141 C1136 1.379 . S
C1141 N1139 1.356 1_455 S
N1142 C1134 1.356 . S
N1142 H1148 0.984 . S
N1142 H1149 0.984 . S
N1143 C1136 1.356 . S
N1143 H1146 0.984 . S
N1143 H1147 0.985 . S
H1144 N1139 0.984 . S
H1145 N1139 0.985 . S
H1146 N1143 0.984 . S
H1147 N1143 0.985 . S
H1148 N1142 0.984 . S
H1149 N1142 0.984 . S
H1150 N1138 0.984 . S
H1151 N1138 0.985 . S
C1152 C1153 1.363 . S
C1152 C1158 1.379 . S
C1152 N1160 1.356 . S
C1153 C1152 1.363 . S
C1153 C1159 1.363 . S
C1154 C1155 1.363 . S
C1154 C1159 1.379 . S
C1154 N1161 1.356 . S
C1155 C1154 1.363 . S
C1155 C1158 1.363 . S
N1156 C1158 1.356 . S
N1156 H1168 0.984 . S
N1156 H1169 0.985 . S
N1157 C1159 1.356 . S
N1157 H1162 0.984 . S
N1157 H1163 0.985 . S
C1158 C1152 1.379 . S
C1158 C1155 1.363 . S
C1158 N1156 1.356 . S
C1159 C1153 1.363 . S
C1159 C1154 1.379 . S
C1159 N1157 1.356 . S
N1160 C1152 1.356 . S
N1160 H1166 0.984 . S
N1160 H1167 0.984 . S
N1161 C1154 1.356 . S
N1161 H1164 0.984 . S
N1161 H1165 0.985 . S
H1162 N1157 0.984 . S
H1163 N1157 0.985 . S
H1164 N1161 0.984 . S
H1165 N1161 0.985 . S
H1166 N1160 0.984 . S
H1167 N1160 0.984 . S
H1168 N1156 0.984 . S
H1169 N1156 0.985 . S
C1170 C1171 1.363 . S
C1170 C1176 1.379 . S
C1170 N1178 1.356 . S
C1171 C1170 1.363 . S
C1171 C1177 1.363 1_655 S
C1172 C1173 1.363 1_455 S
C1172 C1177 1.379 . S
C1172 N1179 1.356 . S
C1173 C1172 1.363 1_655 S
C1173 C1176 1.363 . S
N1174 C1176 1.356 . S
N1174 H1186 0.984 . S
N1174 H1187 0.985 . S
N1175 C1177 1.356 1_554 S
N1175 H1180 0.984 . S
N1175 H1181 0.985 . S
C1176 C1170 1.379 . S
C1176 C1173 1.363 . S
C1176 N1174 1.356 . S
C1177 C1171 1.363 1_455 S
C1177 C1172 1.379 . S
C1177 N1175 1.356 1_556 S
N1178 C1170 1.356 . S
N1178 H1184 0.984 . S
N1178 H1185 0.984 . S
N1179 C1172 1.356 . S
N1179 H1182 0.984 . S
N1179 H1183 0.985 . S
H1180 N1175 0.984 . S
H1181 N1175 0.985 . S
H1182 N1179 0.984 . S
H1183 N1179 0.985 . S
H1184 N1178 0.984 . S
H1185 N1178 0.984 . S
H1186 N1174 0.984 . S
H1187 N1174 0.985 . S
C1188 C1189 1.363 . S
C1188 C1194 1.379 . S
C1188 N1196 1.356 . S
C1189 C1188 1.363 . S
C1189 C1195 1.363 . S
C1190 C1191 1.363 . S
C1190 C1195 1.379 . S
C1190 N1197 1.356 . S
C1191 C1190 1.363 . S
C1191 C1194 1.363 . S
N1192 C1194 1.356 . S
N1192 H1204 0.984 . S
N1192 H1205 0.985 . S
N1193 C1195 1.356 . S
N1193 H1198 0.984 . S
N1193 H1199 0.985 . S
C1194 C1188 1.379 . S
C1194 C1191 1.363 . S
C1194 N1192 1.356 . S
C1195 C1189 1.363 . S
C1195 C1190 1.379 . S
C1195 N1193 1.356 . S
N1196 C1188 1.356 . S
N1196 H1202 0.984 . S
N1196 H1203 0.984 . S
N1197 C1190 1.356 . S
N1197 H1200 0.984 . S
N1197 H1201 0.985 . S
H1198 N1193 0.984 . S
H1199 N1193 0.985 . S
H1200 N1197 0.984 . S
H1201 N1197 0.985 . S
H1202 N1196 0.984 . S
H1203 N1196 0.984 . S
H1204 N1192 0.984 . S
H1205 N1192 0.985 . S
C1206 C1207 1.363 . S
C1206 C1212 1.379 . S
C1206 N1214 1.356 . S
C1207 C1206 1.363 . S
C1207 C1213 1.363 1_556 S
C1208 C1209 1.363 . S
C1208 C1213 1.379 1_556 S
C1208 N1215 1.356 . S
C1209 C1208 1.363 . S
C1209 C1212 1.363 . S
N1210 C1212 1.356 . S
N1210 H1222 0.984 . S
N1210 H1223 0.985 . S
N1211 C1213 1.356 . S
N1211 H1216 0.984 . S
N1211 H1217 0.985 . S
C1212 C1206 1.379 . S
C1212 C1209 1.363 . S
C1212 N1210 1.356 . S
C1213 C1207 1.363 1_554 S
C1213 C1208 1.379 1_554 S
C1213 N1211 1.356 . S
N1214 C1206 1.356 . S
N1214 H1220 0.984 . S
N1214 H1221 0.984 . S
N1215 C1208 1.356 . S
N1215 H1218 0.984 . S
N1215 H1219 0.985 1_556 S
H1216 N1211 0.984 . S
H1217 N1211 0.985 . S
H1218 N1215 0.984 . S
H1219 N1215 0.985 1_554 S
H1220 N1214 0.984 . S
H1221 N1214 0.984 . S
H1222 N1210 0.984 . S
H1223 N1210 0.985 . S
C1224 C1225 1.363 . S
C1224 C1230 1.379 . S
C1224 N1232 1.356 . S
C1225 C1224 1.363 . S
C1225 C1231 1.363 . S
C1226 C1227 1.363 . S
C1226 C1231 1.379 . S
C1226 N1233 1.356 . S
C1227 C1226 1.363 . S
C1227 C1230 1.363 . S
N1228 C1230 1.356 . S
N1228 H1240 0.984 . S
N1228 H1241 0.985 . S
N1229 C1231 1.356 . S
N1229 H1234 0.984 . S
N1229 H1235 0.985 . S
C1230 C1224 1.379 . S
C1230 C1227 1.363 . S
C1230 N1228 1.356 . S
C1231 C1225 1.363 . S
C1231 C1226 1.379 . S
C1231 N1229 1.356 . S
N1232 C1224 1.356 . S
N1232 H1238 0.984 . S
N1232 H1239 0.984 . S
N1233 C1226 1.356 . S
N1233 H1236 0.984 . S
N1233 H1237 0.985 . S
H1234 N1229 0.984 . S
H1235 N1229 0.985 . S
H1236 N1233 0.984 . S
H1237 N1233 0.985 . S
H1238 N1232 0.984 . S
H1239 N1232 0.984 . S
H1240 N1228 0.984 . S
H1241 N1228 0.985 . S
C1242 C1243 1.363 . S
C1242 C1248 1.379 . S
C1242 N1250 1.356 . S
C1243 C1242 1.363 . S
C1243 C1249 1.363 . S
C1244 C1245 1.363 . S
C1244 C1249 1.379 . S
C1244 N1251 1.356 . S
C1245 C1244 1.363 . S
C1245 C1248 1.363 . S
N1246 C1248 1.356 . S
N1246 H1258 0.984 . S
N1246 H1259 0.985 . S
N1247 C1249 1.356 1_556 S
N1247 H1252 0.984 . S
N1247 H1253 0.985 . S
C1248 C1242 1.379 . S
C1248 C1245 1.363 . S
C1248 N1246 1.356 . S
C1249 C1243 1.363 . S
C1249 C1244 1.379 . S
C1249 N1247 1.356 1_554 S
N1250 C1242 1.356 . S
N1250 H1256 0.984 . S
N1250 H1257 0.984 . S
N1251 C1244 1.356 . S
N1251 H1254 0.984 . S
N1251 H1255 0.967 1_554 S
H1252 N1247 0.984 . S
H1253 N1247 0.985 . S
H1254 N1251 0.984 . S
H1255 N1251 0.967 1_556 S
H1256 N1250 0.984 . S
H1257 N1250 0.984 . S
H1258 N1246 0.984 . S
H1259 N1246 0.985 . S
C1260 C1261 1.363 . S
C1260 C1266 1.379 . S
C1260 N1268 1.356 . S
C1261 C1260 1.363 . S
C1261 C1267 1.363 . S
C1262 C1263 1.363 . S
C1262 C1267 1.379 . S
C1262 N1269 1.356 . S
C1263 C1262 1.363 . S
C1263 C1266 1.363 . S
N1264 C1266 1.356 . S
N1264 H1276 0.984 . S
N1264 H1277 0.985 . S
N1265 C1267 1.356 . S
N1265 H1270 0.984 . S
N1265 H1271 0.985 . S
C1266 C1260 1.379 . S
C1266 C1263 1.363 . S
C1266 N1264 1.356 . S
C1267 C1261 1.363 . S
C1267 C1262 1.379 . S
C1267 N1265 1.356 . S
N1268 C1260 1.356 . S
N1268 H1274 0.984 . S
N1268 H1275 0.984 . S
N1269 C1262 1.356 . S
N1269 H1272 0.984 . S
N1269 H1273 0.985 . S
H1270 N1265 0.984 . S
H1271 N1265 0.985 . S
H1272 N1269 0.984 . S
H1273 N1269 0.985 . S
H1274 N1268 0.984 . S
H1275 N1268 0.984 . S
H1276 N1264 0.984 . S
H1277 N1264 0.985 . S
C1278 C1279 1.363 . S
C1278 C1284 1.379 . S
C1278 N1286 1.356 . S
C1279 C1278 1.363 . S
C1279 C1285 1.363 . S
C1280 C1281 1.363 . S
C1280 C1285 1.379 . S
C1280 N1287 1.356 . S
C1281 C1280 1.363 . S
C1281 C1284 1.363 . S
N1282 C1284 1.356 . S
N1282 H1294 0.984 . S
N1282 H1295 0.985 . S
N1283 C1285 1.356 1_556 S
N1283 H1288 0.984 . S
N1283 H1289 0.985 . S
C1284 C1278 1.379 . S
C1284 C1281 1.363 . S
C1284 N1282 1.356 . S
C1285 C1279 1.363 . S
C1285 C1280 1.379 . S
C1285 N1283 1.356 1_554 S
N1286 C1278 1.356 . S
N1286 H1292 0.984 . S
N1286 H1293 0.984 . S
N1287 C1280 1.356 . S
N1287 H1290 0.984 . S
N1287 H1291 0.985 . S
H1288 N1283 0.984 . S
H1289 N1283 0.985 . S
H1290 N1287 0.984 . S
H1291 N1287 0.985 . S
H1292 N1286 0.984 . S
H1293 N1286 0.984 . S
H1294 N1282 0.984 . S
H1295 N1282 0.985 . S
C1296 C1297 1.363 . S
C1296 C1302 1.379 . S
C1296 N1304 1.356 . S
C1297 C1296 1.363 . S
C1297 C1303 1.363 . S
C1298 C1299 1.363 . S
C1298 C1303 1.379 . S
C1298 N1305 1.356 . S
C1299 C1298 1.363 . S
C1299 C1302 1.363 . S
N1300 C1302 1.356 . S
N1300 H1312 0.984 . S
N1300 H1313 0.985 . S
N1301 C1303 1.356 . S
N1301 H1306 0.984 . S
N1301 H1307 0.985 . S
C1302 C1296 1.379 . S
C1302 C1299 1.363 . S
C1302 N1300 1.356 . S
C1303 C1297 1.363 . S
C1303 C1298 1.379 . S
C1303 N1301 1.356 . S
N1304 C1296 1.356 . S
N1304 H1310 0.984 . S
N1304 H1311 0.984 . S
N1305 C1298 1.356 . S
N1305 H1308 0.984 . S
N1305 H1309 0.985 . S
H1306 N1301 0.984 . S
H1307 N1301 0.985 . S
H1308 N1305 0.984 . S
H1309 N1305 0.985 . S
H1310 N1304 0.984 . S
H1311 N1304 0.984 . S
H1312 N1300 0.984 . S
H1313 N1300 0.985 . S
C1314 C1315 1.363 . S
C1314 C1320 1.379 . S
C1314 N1322 1.356 . S
C1315 C1314 1.363 . S
C1315 C1321 1.363 . S
C1316 C1317 1.363 . S
C1316 C1321 1.379 . S
C1316 N1323 1.356 . S
C1317 C1316 1.363 . S
C1317 C1320 1.363 . S
N1318 C1320 1.356 . S
N1318 H1330 0.984 . S
N1318 H1331 0.985 . S
N1319 C1321 1.356 . S
N1319 H1324 0.984 . S
N1319 H1325 0.985 . S
C1320 C1314 1.379 . S
C1320 C1317 1.363 . S
C1320 N1318 1.356 . S
C1321 C1315 1.363 . S
C1321 C1316 1.379 . S
C1321 N1319 1.356 . S
N1322 C1314 1.356 . S
N1322 H1328 0.984 . S
N1322 H1329 0.984 . S
N1323 C1316 1.356 . S
N1323 H1326 0.984 . S
N1323 H1327 0.985 . S
H1324 N1319 0.984 . S
H1325 N1319 0.985 . S
H1326 N1323 0.984 . S
H1327 N1323 0.985 . S
H1328 N1322 0.984 . S
H1329 N1322 0.984 . S
H1330 N1318 0.984 . S
H1331 N1318 0.985 . S
C1332 C1333 1.363 . S
C1332 C1338 1.379 . S
C1332 N1340 1.356 . S
C1333 C1332 1.363 . S
C1333 C1339 1.363 . S
C1334 C1335 1.363 . S
C1334 C1339 1.379 . S
C1334 N1341 1.356 . S
C1335 C1334 1.363 . S
C1335 C1338 1.363 . S
N1336 C1338 1.356 . S
N1336 H1348 0.984 . S
N1336 H1349 0.985 . S
N1337 C1339 1.356 . S
N1337 H1342 0.984 . S
N1337 H1343 0.985 . S
C1338 C1332 1.379 . S
C1338 C1335 1.363 . S
C1338 N1336 1.356 . S
C1339 C1333 1.363 . S
C1339 C1334 1.379 . S
C1339 N1337 1.356 . S
N1340 C1332 1.356 . S
N1340 H1346 0.984 . S
N1340 H1347 0.984 . S
N1341 C1334 1.356 . S
N1341 H1344 0.984 . S
N1341 H1345 0.985 . S
H1342 N1337 0.984 . S
H1343 N1337 0.985 . S
H1344 N1341 0.984 . S
H1345 N1341 0.985 . S
H1346 N1340 0.984 . S
H1347 N1340 0.984 . S
H1348 N1336 0.984 . S
H1349 N1336 0.985 . S
C1350 C1351 1.363 . S
C1350 C1356 1.379 . S
C1350 N1358 1.356 . S
C1351 C1350 1.363 . S
C1351 C1357 1.363 . S
C1352 C1353 1.363 . S
C1352 C1357 1.379 . S
C1352 N1359 1.356 . S
C1353 C1352 1.363 . S
C1353 C1356 1.363 . S
N1354 C1356 1.356 . S
N1354 H1366 0.984 . S
N1354 H1367 0.985 . S
N1355 C1357 1.356 . S
N1355 H1360 0.984 . S
N1355 H1361 0.985 . S
C1356 C1350 1.379 . S
C1356 C1353 1.363 . S
C1356 N1354 1.356 . S
C1357 C1351 1.363 . S
C1357 C1352 1.379 . S
C1357 N1355 1.356 . S
N1358 C1350 1.356 . S
N1358 H1364 0.984 . S
N1358 H1365 0.984 . S
N1359 C1352 1.356 . S
N1359 H1362 0.984 . S
N1359 H1363 0.985 . S
H1360 N1355 0.984 . S
H1361 N1355 0.985 . S
H1362 N1359 0.984 . S
H1363 N1359 0.985 . S
H1364 N1358 0.984 . S
H1365 N1358 0.984 . S
H1366 N1354 0.984 . S
H1367 N1354 0.985 . S
C1368 C1369 1.347 1_554 S
C1368 C1374 1.383 . S
C1368 N1376 1.365 . S
C1369 C1368 1.347 1_556 S
C1369 C1375 1.363 . S
C1370 C1371 1.363 . S
C1370 C1375 1.379 . S
C1370 N1377 1.356 . S
C1371 C1370 1.363 . S
C1371 C1374 1.363 1_556 S
N1372 C1374 1.356 . S
N1372 H1384 0.984 . S
N1372 H1385 0.985 . S
N1373 C1375 1.356 . S
N1373 H1378 0.984 . S
N1373 H1379 0.985 . S
C1374 C1368 1.383 . S
C1374 C1371 1.363 1_554 S
C1374 N1372 1.356 . S
C1375 C1369 1.363 . S
C1375 C1370 1.379 . S
C1375 N1373 1.356 . S
N1376 C1368 1.365 . S
N1376 H1382 0.984 . S
N1376 H1383 0.984 . S
N1377 C1370 1.356 . S
N1377 H1380 0.984 . S
N1377 H1381 0.985 . S
H1378 N1373 0.984 . S
H1379 N1373 0.985 . S
H1380 N1377 0.984 . S
H1381 N1377 0.985 . S
H1382 N1376 0.984 . S
H1383 N1376 0.984 . S
H1384 N1372 0.984 . S
H1385 N1372 0.985 . S
C1386 C1387 1.363 . S
C1386 C1392 1.379 . S
C1386 N1394 1.356 . S
C1387 C1386 1.363 . S
C1387 C1393 1.363 . S
C1388 C1389 1.363 . S
C1388 C1393 1.379 . S
C1388 N1395 1.356 . S
C1389 C1388 1.363 . S
C1389 C1392 1.363 . S
N1390 C1392 1.356 . S
N1390 H1402 0.984 . S
N1390 H1403 0.985 . S
N1391 C1393 1.356 . S
N1391 H1396 0.984 . S
N1391 H1397 0.985 . S
C1392 C1386 1.379 . S
C1392 C1389 1.363 . S
C1392 N1390 1.356 . S
C1393 C1387 1.363 . S
C1393 C1388 1.379 . S
C1393 N1391 1.356 . S
N1394 C1386 1.356 . S
N1394 H1400 0.984 . S
N1394 H1401 0.984 . S
N1395 C1388 1.356 . S
N1395 H1398 0.984 . S
N1395 H1399 0.985 . S
H1396 N1391 0.984 . S
H1397 N1391 0.985 . S
H1398 N1395 0.984 . S
H1399 N1395 0.985 . S
H1400 N1394 0.984 . S
H1401 N1394 0.984 . S
H1402 N1390 0.984 . S
H1403 N1390 0.985 . S
C1404 C1405 1.363 . S
C1404 C1410 1.379 . S
C1404 N1412 1.356 . S
C1405 C1404 1.363 . S
C1405 C1411 1.363 . S
C1406 C1407 1.363 1_556 S
C1406 C1411 1.379 1_556 S
C1406 N1413 1.356 . S
C1407 C1406 1.363 1_554 S
C1407 C1410 1.363 . S
N1408 C1410 1.356 . S
N1408 H1420 0.984 . S
N1408 H1421 0.985 . S
N1409 C1411 1.356 1_556 S
N1409 H1414 0.983 1_556 S
N1409 H1415 0.985 . S
C1410 C1404 1.379 . S
C1410 C1407 1.363 . S
C1410 N1408 1.356 . S
C1411 C1405 1.363 . S
C1411 C1406 1.379 1_554 S
C1411 N1409 1.356 1_554 S
N1412 C1404 1.356 . S
N1412 H1418 0.984 . S
N1412 H1419 0.984 . S
N1413 C1406 1.356 . S
N1413 H1416 0.984 . S
N1413 H1417 0.985 . S
H1414 N1409 0.983 1_554 S
H1415 N1409 0.985 . S
H1416 N1413 0.984 . S
H1417 N1413 0.985 . S
H1418 N1412 0.984 . S
H1419 N1412 0.984 . S
H1420 N1408 0.984 . S
H1421 N1408 0.985 . S
C1422 C1423 1.363 . S
C1422 C1428 1.379 . S
C1422 N1430 1.356 . S
C1423 C1422 1.363 . S
C1423 C1429 1.363 1_554 S
C1424 C1425 1.363 1_556 S
C1424 C1429 1.379 . S
C1424 N1431 1.356 . S
C1425 C1424 1.363 1_554 S
C1425 C1428 1.363 . S
N1426 C1428 1.356 . S
N1426 H1438 0.984 . S
N1426 H1439 0.985 . S
N1427 C1429 1.356 1_545 S
N1427 H1432 0.984 . S
N1427 H1433 0.985 . S
C1428 C1422 1.379 . S
C1428 C1425 1.363 . S
C1428 N1426 1.356 . S
C1429 C1423 1.363 1_556 S
C1429 C1424 1.379 . S
C1429 N1427 1.356 1_565 S
N1430 C1422 1.356 . S
N1430 H1436 0.984 . S
N1430 H1437 0.984 . S
N1431 C1424 1.356 . S
N1431 H1434 0.984 . S
N1431 H1435 0.985 . S
H1432 N1427 0.984 . S
H1433 N1427 0.985 . S
H1434 N1431 0.984 . S
H1435 N1431 0.985 . S
H1436 N1430 0.984 . S
H1437 N1430 0.984 . S
H1438 N1426 0.984 . S
H1439 N1426 0.985 . S
C579 C146 1.449 . S
C577 C50 1.454 . S
C597 C194 1.556 . S
C595 C61 1.608 1_455 S
C613 C67 1.459 . S
C615 C230 1.392 . S
C633 C266 1.515 . S
C631 C41 1.564 1_655 S
C651 C292 1.465 . S
C649 C95 1.462 . S
C669 C328 1.540 . S
C667 C113 1.541 . S
C685 C106 1.489 . S
C687 C363 1.497 . S
C705 C400 1.565 1_565 S
C703 C86 1.572 . S
C721 C104 1.453 . S
C723 C434 1.448 . S
C741 C482 1.510 . S
C739 C88 1.557 . S
C757 C94 1.453 . S
C759 C435 1.464 . S
C777 C472 1.556 . S
C775 C112 1.556 . S
C793 C70 1.478 . S
C795 C518 1.412 . S
C811 C40 1.578 . S
C813 C507 1.571 . S
C829 C49 1.489 . S
C831 C508 1.490 . S
C847 C59 1.599 . S
C849 C506 1.595 1_655 S
C865 C34 1.448 . S
C867 C254 1.442 . S
C883 C133 1.446 . S
C885 C255 1.454 . S
C903 C158 1.541 . S
C901 C139 1.592 1_565 S
C921 C183 1.493 . S
C919 C77 1.491 . S
C937 C43 1.572 1_545 S
C939 C290 1.568 . S
C957 C398 1.478 . S
C955 C103 1.484 . S
C975 C291 1.554 . S
C973 C85 1.561 1_545 S
C993 C364 1.554 . S
C991 C115 1.556 . S
C1011 C362 1.449 . S
C1009 C131 1.454 . S
C1027 C142 1.608 . S
C1029 C410 1.556 . S
C1045 C76 1.459 . S
C1047 C302 1.392 . S
C1065 C338 1.515 . S
C1063 C122 1.564 . S
C1081 C32 1.462 . S
C1083 C220 1.465 . S
C1101 C256 1.540 . S
C1099 C5 1.541 1_655 S
C1119 C147 1.497 . S
C1117 C16 1.489 . S
C1137 C184 1.569 . S
C1135 C23 1.571 1_455 S
C1153 C14 1.453 . S
C1155 C470 1.448 . S
C1171 C25 1.557 1_556 S
C1173 C446 1.509 . S
C1189 C31 1.453 . S
C1191 C471 1.464 . S
C1207 C4 1.556 1_556 S
C1209 C436 1.556 . S
C1227 C554 1.412 . S
C1225 C79 1.478 . S
C1245 C543 1.571 . S
C1243 C121 1.578 1_554 S
C1263 C544 1.490 . S
C1261 C130 1.489 . S
C1279 C140 1.599 1_554 S
C1281 C542 1.595 . S
C1297 C97 1.448 . S
C1299 C326 1.442 . S
C1317 C327 1.455 . S
C1315 C52 1.446 . S
C1335 C374 1.541 . S
C1333 C58 1.592 . S
C1353 C399 1.493 . S
C1351 C68 1.494 . S
C1369 C124 1.572 . S
C1371 C218 1.562 1_556 S
C1389 C182 1.478 . S
C1387 C13 1.486 . S
C1405 C22 1.561 . S
C1407 C219 1.554 . S
C1425 C148 1.554 . S
C1423 C7 1.556 1_565 S
