# Generated by pormake.
# Topology tsx, (6,3)-cn, num edge types: 1
# Building blocks:
#     Node 0, Type 0, BuildingBlock: VOLQOD_clean_sbu_1, # of connection points: 6
#     Node 1, Type 0, BuildingBlock: VOLQOD_clean_sbu_1, # of connection points: 6
#     Node 2, Type 1, BuildingBlock: VETTIZ_charged_linker_0, # of connection points: 3
#     Node 3, Type 1, BuildingBlock: VETTIZ_charged_linker_0, # of connection points: 3
#     Node 4, Type 1, BuildingBlock: VETTIZ_charged_linker_0, # of connection points: 3
#     Node 5, Type 1, BuildingBlock: VETTIZ_charged_linker_0, # of connection points: 3
#     Edge 6, Type (0, 1), BuildingBlock: XIVTED_clean_linker_0, # of connection points: 2
#     Edge 7, Type (0, 1), BuildingBlock: XIVTED_clean_linker_0, # of connection points: 2
#     Edge 8, Type (0, 1), BuildingBlock: XIVTED_clean_linker_0, # of connection points: 2
#     Edge 9, Type (0, 1), BuildingBlock: XIVTED_clean_linker_0, # of connection points: 2
#     Edge 10, Type (0, 1), BuildingBlock: XIVTED_clean_linker_0, # of connection points: 2
#     Edge 11, Type (0, 1), BuildingBlock: XIVTED_clean_linker_0, # of connection points: 2
#     Edge 12, Type (0, 1), BuildingBlock: XIVTED_clean_linker_0, # of connection points: 2
#     Edge 13, Type (0, 1), BuildingBlock: XIVTED_clean_linker_0, # of connection points: 2
#     Edge 14, Type (0, 1), BuildingBlock: XIVTED_clean_linker_0, # of connection points: 2
#     Edge 15, Type (0, 1), BuildingBlock: XIVTED_clean_linker_0, # of connection points: 2
#     Edge 16, Type (0, 1), BuildingBlock: XIVTED_clean_linker_0, # of connection points: 2
#     Edge 17, Type (0, 1), BuildingBlock: XIVTED_clean_linker_0, # of connection points: 2
# Relax obj value: 0.078
# Max RMSD: 0.110
# Mean RMSD: 0.085
data_MOF--net-tsx--node1-VOLQOD_clean_sbu_1--node2-VETTIZ_charged_linker_0--edge1-XIVTED_clean_linker_0
_symmetry_space_group_name_H-M    P1
_symmetry_Int_Tables_number       1
_symmetry_cell_setting            triclinic
loop_
_symmetry_equiv_pos_as_xyz
'x, y, z'
_cell_length_a     24.871644
_cell_length_b     25.763196
_cell_length_c     49.440725
_cell_angle_alpha  90.252943
_cell_angle_beta   89.79281
_cell_angle_gamma 90.191243
loop_
_atom_site_label
_atom_site_type_symbol
_atom_site_fract_x
_atom_site_fract_y
_atom_site_fract_z
_atom_type_partial_charge
O0 O 0.05446 -0.00029 0.07456 0.0
Zn1 Zn 0.07902 -0.00227 0.0356 0.0
O2 O 0.01844 -0.00028 0.0105 0.0
Zn3 Zn 0.01799 0.93673 0.98849 0.0
Zn4 Zn 0.95198 0.00479 0.03129 0.0
Zn5 Zn 0.02411 0.05942 0.98649 0.0
O6 O 0.01614 0.95259 0.94868 0.0
O7 O 0.02639 0.03805 0.94734 0.0
O8 O 0.12408 0.93347 0.03023 0.0
O9 O 0.08467 0.89565 0.99493 0.0
O10 O 0.95383 0.89195 0.99714 0.0
O11 O 0.90489 0.94367 0.02354 0.0
O12 O 0.90979 0.06833 0.02212 0.0
O13 O 0.12723 0.05913 0.02896 0.0
O14 O 0.95942 0.10507 0.99004 0.0
O15 O 0.08982 0.10172 0.99487 0.0
C16 C 0.00813 0.0027 0.08552 0.0
C17 C 0.02114 0.99451 0.93537 0.0
C18 C 0.91112 0.90142 0.01052 0.0
C19 C 0.12194 0.89768 0.01245 0.0
C20 C 0.9176 0.10415 0.00493 0.0
C21 C 0.12701 0.09671 0.01228 0.0
O22 O 0.96574 0.0052 0.07125 0.0
O23 O 0.54527 0.49448 0.57828 0.0
Zn24 Zn 0.56793 0.49107 0.53894 0.0
O25 O 0.50665 0.50548 0.51519 0.0
Zn26 Zn 0.49018 0.44439 0.4934 0.0
Zn27 Zn 0.44351 0.52337 0.53686 0.0
Zn28 Zn 0.5242 0.56283 0.49102 0.0
O29 O 0.48867 0.46106 0.45376 0.0
O30 O 0.52297 0.54063 0.45188 0.0
O31 O 0.59997 0.42036 0.53102 0.0
O32 O 0.5471 0.39056 0.4983 0.0
O33 O 0.41899 0.41283 0.50346 0.0
O34 O 0.38503 0.46933 0.53283 0.0
O35 O 0.4129 0.59244 0.52618 0.0
O36 O 0.6271 0.5444 0.53311 0.0
O37 O 0.47029 0.62041 0.49497 0.0
O38 O 0.59684 0.5925 0.49928 0.0
C39 C 0.5029 0.51153 0.58984 0.0
C40 C 0.50531 0.49987 0.44023 0.0
C41 C 0.38122 0.42748 0.51913 0.0
C42 C 0.58746 0.38543 0.51381 0.0
C43 C 0.42829 0.6268 0.5094 0.0
C44 C 0.63301 0.58175 0.5165 0.0
O45 O 0.46231 0.52627 0.5763 0.0
C46 C 0.12686 0.91565 0.45882 0.0
C47 C 0.16703 0.88621 0.44584 0.0
C48 C 0.16584 0.88067 0.41749 0.0
C49 C 0.08569 0.9332 0.41535 0.0
C50 C 0.08676 0.93899 0.44315 0.0
C51 C 0.04137 0.97252 0.45331 0.0
H52 H 0.81844 0.11193 0.42396 0.0
C53 C 0.03865 0.96127 0.40498 0.0
C54 C 0.01189 0.98396 0.42711 0.0
H55 H 0.89568 0.09728 0.50185 0.0
H56 H 0.96006 0.03754 0.48236 0.0
H57 H 0.92173 0.13323 0.39365 0.0
H58 H 0.83235 0.99138 0.40325 0.0
H59 H 0.85187 -0.00435 0.36907 0.0
H60 H 0.80925 0.04513 0.38349 0.0
H61 H 0.86289 0.1195 0.374 0.0
H62 H 0.92898 0.09957 0.36303 0.0
C63 C 0.06631 0.02215 0.46583 0.0
C64 C 0.00683 0.94026 0.47321 0.0
C65 C 0.00711 0.96886 0.30366 0.0
C66 C 0.96805 0.99341 0.28773 0.0
C67 C 0.92494 0.01896 0.30071 0.0
C68 C 0.92164 0.02119 0.32899 0.0
C69 C 0.96206 -0.00199 0.34459 0.0
C70 C 0.00341 0.97178 0.33187 0.0
C71 C 0.04277 0.9495 0.35165 0.0
C72 C 0.01896 0.9679 0.37832 0.0
C73 C 0.97183 -0.00375 0.37406 0.0
C74 C 0.09857 0.97437 0.34603 0.0
C75 C 0.04112 0.8895 0.3489 0.0
C76 C 0.84942 0.09651 0.43696 0.0
C77 C 0.85227 0.11042 0.46445 0.0
C78 C 0.89237 0.08751 0.4806 0.0
C79 C 0.93022 0.0533 0.46916 0.0
C80 C 0.92849 0.04251 0.44123 0.0
C81 C 0.88818 0.06386 0.42575 0.0
C82 C 0.89397 0.05155 0.3962 0.0
C83 C 0.94442 0.01896 0.39632 0.0
C84 C 0.96436 0.0132 0.42273 0.0
C85 C 0.90196 0.10336 0.38071 0.0
C86 C 0.84424 0.01952 0.38728 0.0
H87 H 0.12675 0.8977 0.38079 0.0
H88 H 0.12692 0.92069 0.48058 0.0
H89 H 0.00188 0.89977 0.46569 0.0
H90 H 0.96562 0.9553 0.47564 0.0
H91 H 0.02614 0.93845 0.49341 0.0
H92 H 0.10057 0.03626 0.4533 0.0
H93 H 0.08188 0.01432 0.4864 0.0
H94 H 0.0381 0.05502 0.46682 0.0
H95 H 0.0402 0.94801 0.2944 0.0
H96 H 0.89446 0.03855 0.289 0.0
H97 H 0.88823 0.04176 0.3376 0.0
H98 H 0.09432 0.01582 0.34019 0.0
H99 H 0.11966 0.95404 0.32924 0.0
H100 H 0.12494 0.97513 0.36394 0.0
H101 H 0.00056 0.87571 0.34263 0.0
H102 H 0.04867 0.86951 0.36825 0.0
H103 H 0.0704 0.87561 0.3335 0.0
H104 H 0.19573 0.85741 0.40708 0.0
C105 C 0.12542 0.90378 0.40224 0.0
C106 C 0.07683 0.13545 0.56281 0.0
C107 C 0.09846 0.17909 0.57622 0.0
C108 C 0.09333 0.18286 0.60455 0.0
C109 C 0.04861 0.09947 0.60592 0.0
C110 C 0.05184 0.09627 0.57806 0.0
C111 C 0.02619 0.04723 0.56735 0.0
H112 H 0.90215 0.81822 0.59484 0.0
C113 C 0.02269 0.05178 0.61596 0.0
C114 C 0.00861 0.02112 0.5935 0.0
H115 H 0.93197 0.88495 0.51611 0.0
H116 H 0.97475 0.95942 0.53721 0.0
H117 H 0.01899 0.84931 0.62094 0.0
H118 H 0.86139 0.91745 0.62175 0.0
H119 H 0.88812 0.92765 0.65413 0.0
H120 H 0.87773 0.86219 0.64205 0.0
H121 H 0.96359 0.82221 0.63952 0.0
H122 H 0.00675 0.87121 0.65407 0.0
C123 C 0.06987 0.01552 0.55239 0.0
C124 C 0.97789 0.06249 0.54939 0.0
C125 C 0.01221 0.02048 0.71724 0.0
C126 C 0.99262 0.97901 0.7329 0.0
C127 C 0.96915 0.93599 0.71966 0.0
C128 C 0.96583 0.93405 0.69138 0.0
C129 C 0.98611 0.97559 0.67604 0.0
C130 C 0.00843 0.01799 0.68903 0.0
C131 C 0.02772 0.05862 0.66951 0.0
C132 C 0.01358 0.03341 0.64262 0.0
C133 C 0.98949 0.98481 0.64659 0.0
C134 C 0.08931 0.06471 0.67315 0.0
C135 C -0.00497 0.10895 0.67463 0.0
C136 C 0.91905 0.84812 0.582 0.0
C137 C 0.91424 0.8453 0.55375 0.0
C138 C 0.93519 0.88619 0.53794 0.0
C139 C 0.95999 0.92935 0.55023 0.0
C140 C 0.96364 0.93175 0.57861 0.0
C141 C 0.9434 0.89135 0.5939 0.0
C142 C 0.94845 0.90085 0.62374 0.0
C143 C 0.9745 0.95399 0.62401 0.0
C144 C 0.98382 0.97194 0.59757 0.0
C145 C 0.98604 0.8587 0.63543 0.0
C146 C 0.89119 0.9018 0.6363 0.0
H147 H 0.06667 0.14853 0.64092 0.0
H148 H 0.07951 0.13183 0.54102 0.0
H149 H 0.95925 0.09932 0.55652 0.0
H150 H 0.94488 0.03371 0.55006 0.0
H151 H 0.99072 0.06825 0.52807 0.0
H152 H 0.10644 0.01211 0.56515 0.0
H153 H 0.08177 0.03491 0.53329 0.0
H154 H 0.05717 0.9755 0.54762 0.0
H155 H 0.03104 0.05391 0.72664 0.0
H156 H 0.95285 0.90388 0.73117 0.0
H157 H 0.94758 0.9002 0.68259 0.0
H158 H 0.10845 0.02629 0.67647 0.0
H159 H 0.09872 0.08962 0.69092 0.0
H160 H 0.10981 0.08073 0.65521 0.0
H161 H 0.95443 0.10013 0.68299 0.0
H162 H 0.98699 0.13066 0.65582 0.0
H163 H 0.0157 0.13492 0.68929 0.0
H164 H 0.11019 0.21564 0.61544 0.0
C165 C 0.06849 0.14349 0.61941 0.0
C166 C 0.5781 0.35457 0.95958 0.0
C167 C 0.61225 0.32016 0.94556 0.0
C168 C 0.6126 0.32073 0.91702 0.0
C169 C 0.54726 0.38971 0.91691 0.0
C170 C 0.54617 0.38907 0.94485 0.0
C171 C 0.5097 0.43027 0.95632 0.0
H172 H 0.35513 0.64085 0.93344 0.0
C173 C 0.51167 0.43141 0.90764 0.0
C174 C 0.48945 0.45553 0.93057 0.0
H175 H 0.39863 0.57609 0.01076 0.0
H176 H 0.44403 0.50485 0.988 0.0
H177 H 0.46961 0.62367 0.9037 0.0
H178 H 0.32261 0.53509 0.9062 0.0
H179 H 0.35009 0.52544 0.87381 0.0
H180 H 0.33028 0.58993 0.88429 0.0
H181 H 0.40717 0.64548 0.88965 0.0
H182 H 0.45231 0.60532 0.87047 0.0
C183 C 0.54416 0.46785 0.97371 0.0
C184 C 0.46372 0.40314 0.97202 0.0
C185 C 0.49732 0.46779 0.80716 0.0
C186 C 0.46648 0.5027 0.79189 0.0
C187 C 0.43075 0.53625 0.80568 0.0
C188 C 0.4267 0.53566 0.83399 0.0
C189 C 0.45842 0.50098 0.84883 0.0
C190 C 0.4921 0.46714 0.83532 0.0
C191 C 0.52077 0.43115 0.85419 0.0
C192 C 0.49921 0.44942 0.88134 0.0
C193 C 0.46348 0.49081 0.87813 0.0
C194 C 0.58205 0.44129 0.85131 0.0
C195 C 0.50279 0.37479 0.84752 0.0
C196 C 0.37511 0.61175 0.94551 0.0
C197 C 0.37504 0.61487 0.97387 0.0
C198 C 0.39919 0.57492 0.98887 0.0
C199 C 0.4256 0.53386 0.9756 0.0
C200 C 0.4276 0.53293 0.94711 0.0
C201 C 0.40152 0.57094 0.93263 0.0
C202 C 0.40641 0.56363 0.90258 0.0
C203 C 0.4415 0.51584 0.90124 0.0
C204 C 0.45405 0.4981 0.92734 0.0
C205 C 0.4351 0.612 0.89075 0.0
C206 C 0.34955 0.55331 0.89091 0.0
H207 H 0.58301 0.35364 0.88108 0.0
H208 H 0.57667 0.35517 0.98147 0.0
H209 H 0.45026 0.36741 0.96124 0.0
H210 H 0.42743 0.42749 0.97381 0.0
H211 H 0.47708 0.39159 0.99254 0.0
H212 H 0.58492 0.47301 0.96474 0.0
H213 H 0.54934 0.45273 0.99454 0.0
H214 H 0.52747 0.5074 0.97489 0.0
H215 H 0.52567 0.44171 0.79757 0.0
H216 H 0.40538 0.56274 0.79462 0.0
H217 H 0.39909 0.56233 0.84323 0.0
H218 H 0.59036 0.48313 0.84759 0.0
H219 H 0.59928 0.41897 0.8341 0.0
H220 H 0.60479 0.43222 0.86983 0.0
H221 H 0.46081 0.37377 0.83981 0.0
H222 H 0.50198 0.3494 0.86548 0.0
H223 H 0.52897 0.3571 0.83176 0.0
H224 H 0.63939 0.29588 0.90555 0.0
C225 C 0.58016 0.35493 0.9027 0.0
C226 C 0.59851 0.62795 0.06563 0.0
C227 C 0.63766 0.65896 0.07814 0.0
C228 C 0.64213 0.65926 0.10648 0.0
C229 C 0.57047 0.59595 0.10959 0.0
C230 C 0.56588 0.59619 0.08171 0.0
C231 C 0.52568 0.55695 0.07169 0.0
H232 H 0.37104 0.34795 0.09875 0.0
C233 C 0.53374 0.556 0.12025 0.0
C234 C 0.50786 0.53251 0.09815 0.0
H235 H 0.39661 0.42136 0.02139 0.0
H236 H 0.44891 0.48932 0.04291 0.0
H237 H 0.48851 0.36181 0.1226 0.0
H238 H 0.34539 0.45422 0.1295 0.0
H239 H 0.37738 0.45792 0.16101 0.0
H240 H 0.35421 0.3958 0.14855 0.0
H241 H 0.43069 0.34199 0.14184 0.0
H242 H 0.4828 0.3817 0.15655 0.0
C243 C 0.5556 0.51797 0.05304 0.0
C244 C 0.47923 0.58636 0.05775 0.0
C245 C 0.52074 0.52599 0.22161 0.0
C246 C 0.49321 0.48901 0.23742 0.0
C247 C 0.46245 0.45045 0.22417 0.0
C248 C 0.45829 0.44936 0.19594 0.0
C249 C 0.48564 0.48682 0.18056 0.0
C250 C 0.51671 0.52391 0.19339 0.0
C251 C 0.54505 0.559 0.17365 0.0
C252 C 0.52368 0.53829 0.14694 0.0
C253 C 0.48902 0.49609 0.15116 0.0
C254 C 0.60659 0.55062 0.17653 0.0
C255 C 0.52647 0.6154 0.17902 0.0
C256 C 0.3885 0.37839 0.08643 0.0
C257 C 0.38162 0.37858 0.05827 0.0
C258 C 0.40267 0.41999 0.04302 0.0
C259 C 0.43293 0.45924 0.05558 0.0
C260 C 0.44162 0.45708 0.08367 0.0
C261 C 0.41809 0.41799 0.09867 0.0
C262 C 0.42836 0.4236 0.12845 0.0
C263 C 0.46384 0.47145 0.12882 0.0
C264 C 0.47217 0.49038 0.10253 0.0
C265 C 0.45887 0.37475 0.13813 0.0
C266 C 0.37372 0.43304 0.14284 0.0
H267 H 0.61366 0.62998 0.14381 0.0
H268 H 0.59491 0.62694 0.0438 0.0
H269 H 0.4723 0.6248 0.06749 0.0
H270 H 0.44027 0.56585 0.05952 0.0
H271 H 0.48837 0.59332 0.03606 0.0
H272 H 0.59564 0.50819 0.06156 0.0
H273 H 0.56219 0.5346 0.03259 0.0
H274 H 0.53465 0.48048 0.0508 0.0
H275 H 0.5446 0.55637 0.2309 0.0
H276 H 0.44192 0.42054 0.23558 0.0
H277 H 0.43421 0.41907 0.18719 0.0
H278 H 0.61597 0.51243 0.18579 0.0
H279 H 0.62515 0.58108 0.18947 0.0
H280 H 0.62752 0.54972 0.15673 0.0
H281 H 0.48215 0.61677 0.18207 0.0
H282 H 0.53504 0.64169 0.16196 0.0
H283 H 0.54574 0.63149 0.1975 0.0
H284 H 0.67208 0.68337 0.11633 0.0
C285 C 0.60837 0.62822 0.12232 0.0
H286 H 0.13245 0.19079 0.98654 0.0
H287 H 0.39737 0.27562 0.06618 0.0
H288 H 0.22009 0.09225 0.04128 0.0
H289 H 0.30033 0.38296 0.02099 0.0
H290 H 0.34144 0.20424 0.04998 0.0
H291 H 0.20144 0.25784 0.99225 0.0
C292 C 0.16639 0.18305 -0.00043 0.0
C293 C 0.17014 0.13609 0.01376 0.0
C294 C 0.3325 0.24329 0.04338 0.0
C295 C 0.24906 0.21243 0.02024 0.0
C296 C 0.36437 0.28399 0.05265 0.0
C297 C 0.35263 0.33516 0.04529 0.0
C298 C 0.28827 0.25385 0.02677 0.0
C299 C 0.31034 0.34395 0.02723 0.0
C300 C 0.20569 0.22135 0.00281 0.0
C301 C 0.21511 0.12809 0.03023 0.0
N302 N 0.27905 0.30364 0.01884 0.0
N303 N 0.25259 0.166 0.03313 0.0
H304 H 0.17392 0.86816 0.96715 0.0
H305 H 0.30549 0.61696 0.01741 0.0
H306 H 0.16859 0.84156 0.05318 0.0
H307 H 0.38659 0.71616 0.96007 0.0
H308 H 0.25003 0.6914 0.03164 0.0
H309 H 0.24514 0.80359 0.96296 0.0
C310 C 0.18792 0.84857 0.98515 0.0
C311 C 0.16566 0.8598 0.0105 0.0
C312 C 0.28089 0.6968 0.01639 0.0
C313 C 0.24621 0.78568 0.00584 0.0
C314 C 0.31248 0.65456 0.00831 0.0
C315 C 0.34952 0.66026 0.98703 0.0
C316 C 0.28631 0.74421 0.00276 0.0
C317 C 0.35722 0.70977 0.97594 0.0
C318 C 0.22869 0.81215 0.9828 0.0
C319 C 0.18521 0.83376 0.03331 0.0
N320 N 0.32501 0.74955 0.98349 0.0
N321 N 0.22402 0.79693 0.03041 0.0
H322 H 0.92282 0.79608 0.00895 0.0
H323 H 0.61469 0.73805 0.04372 0.0
H324 H 0.80369 0.91664 0.01705 0.0
H325 H 0.74591 0.64866 0.07572 0.0
H326 H 0.68007 0.79385 0.02009 0.0
H327 H 0.85333 0.73127 0.01944 0.0
C328 C 0.88184 0.80873 0.01237 0.0
C329 C 0.86887 0.86163 0.01255 0.0
C330 C 0.69431 0.76153 0.032 0.0
C331 C 0.78986 0.78825 0.02416 0.0
C332 C 0.65726 0.7299 0.04537 0.0
C333 C 0.67547 0.68954 0.06179 0.0
C334 C 0.74951 0.75175 0.03479 0.0
C335 C 0.73075 0.68002 0.06342 0.0
C336 C 0.84246 0.77189 0.01844 0.0
C337 C 0.81532 0.87617 0.01715 0.0
N338 N 0.76602 0.71109 0.05011 0.0
N339 N 0.77767 0.83962 0.02291 0.0
H340 H 0.89814 0.15574 0.95823 0.0
H341 H 0.66889 0.34089 0.99226 0.0
H342 H 0.83794 0.13651 0.03966 0.0
H343 H 0.64313 0.22152 0.9319 0.0
H344 H 0.74284 0.28921 0.01083 0.0
H345 H 0.8191 0.20797 0.94767 0.0
C346 C 0.8689 0.16337 0.97404 0.0
C347 C 0.87432 0.14163 -0.00018 0.0
C348 C 0.72019 0.27447 0.99375 0.0
C349 C 0.78479 0.20139 0.98784 0.0
C350 C 0.67788 0.30355 0.98322 0.0
C351 C 0.65037 0.28606 0.96007 0.0
C352 C 0.73535 0.22852 0.98065 0.0
C353 C 0.66431 0.23749 0.94914 0.0
C354 C 0.82386 0.19274 0.96792 0.0
C355 C 0.83489 0.15241 0.01949 0.0
N356 N 0.70668 0.21098 0.95913 0.0
N357 N 0.79145 0.18183 0.01311 0.0
H358 H 0.72193 0.57004 0.54871 0.0
H359 H 0.83981 0.84919 0.513 0.0
H360 H 0.65545 0.66916 0.48714 0.0
H361 H 0.91758 0.7422 0.56707 0.0
H362 H 0.77776 0.78017 0.49946 0.0
H363 H 0.79844 0.62925 0.55275 0.0
C364 C 0.72353 0.60402 0.53591 0.0
C365 C 0.68178 0.61488 0.5178 0.0
C366 C 0.80886 0.77156 0.51403 0.0
C367 C 0.76929 0.68298 0.52237 0.0
C368 C 0.84462 0.8109 0.52159 0.0
C369 C 0.8834 0.80171 0.54153 0.0
C370 C 0.8117 0.72283 0.52662 0.0
C371 C 0.88744 0.75134 0.55211 0.0
C372 C 0.76735 0.63778 0.53817 0.0
C373 C 0.68639 0.65935 0.50157 0.0
N374 N 0.85155 0.71404 0.54482 0.0
N375 N 0.72901 0.69199 0.50444 0.0
H376 H 0.59128 0.32112 0.47011 0.0
H377 H 0.80608 0.11821 0.51556 0.0
H378 H 0.6648 0.34662 0.54811 0.0
H379 H 0.81448 0.19614 0.43837 0.0
H380 H 0.7403 0.18352 0.53088 0.0
H381 H 0.65605 0.25242 0.46102 0.0
C382 C 0.6205 0.31183 0.48553 0.0
C383 C 0.62296 0.34007 0.50982 0.0
C384 C 0.7569 0.18581 0.51064 0.0
C385 C 0.69672 0.26106 0.49949 0.0
C386 C 0.79447 0.14885 0.50187 0.0
C387 C 0.81503 0.15067 0.47533 0.0
C388 C 0.73933 0.22382 0.49252 0.0
C389 C 0.79834 0.19148 0.45857 0.0
C390 C 0.65751 0.27278 0.48023 0.0
C391 C 0.66191 0.32611 0.52901 0.0
N392 N 0.76096 0.22579 0.46729 0.0
N393 N 0.69754 0.28738 0.52344 0.0
H394 H 0.3615 0.33237 0.49597 0.0
H395 H 0.09421 0.28462 0.58258 0.0
H396 H 0.29095 0.44623 0.54964 0.0
H397 H 0.17442 0.16478 0.53664 0.0
H398 H 0.15714 0.34846 0.56423 0.0
H399 H 0.28518 0.27484 0.50457 0.0
C400 C 0.3298 0.34552 0.5094 0.0
C401 C 0.33307 0.39406 0.52237 0.0
C402 C 0.16064 0.30832 0.5579 0.0
C403 C 0.24549 0.32823 0.53226 0.0
C404 C 0.12475 0.27186 0.56838 0.0
C405 C 0.12965 0.21919 0.56146 0.0
C406 C 0.20194 0.29202 0.54043 0.0
C407 C 0.16921 0.20498 0.54254 0.0
C408 C 0.28621 0.31259 0.51429 0.0
C409 C 0.29051 0.40901 0.5394 0.0
N410 N 0.20432 0.24109 0.53295 0.0
N411 N 0.24873 0.37607 0.544 0.0
H412 H 0.45054 0.7107 0.47741 0.0
H413 H 0.15514 0.82778 0.49167 0.0
H414 H 0.33022 0.64986 0.53205 0.0
H415 H 0.27465 0.88276 0.43511 0.0
H416 H 0.22317 0.77211 0.51233 0.0
H417 H 0.39113 0.78288 0.46711 0.0
C418 C 0.4118 0.71269 0.48744 0.0
C419 C 0.39507 0.67365 0.50532 0.0
C420 C 0.23467 0.79687 0.49563 0.0
C421 C 0.32657 0.75629 0.49348 0.0
C422 C 0.19596 0.82887 0.48397 0.0
C423 C 0.20919 0.85921 0.46141 0.0
C424 C 0.28683 0.79538 0.48461 0.0
C425 C 0.26256 0.85908 0.45214 0.0
C426 C 0.37786 0.75403 0.48155 0.0
C427 C 0.34462 0.67876 0.51793 0.0
N428 N 0.29925 0.82722 0.46358 0.0
N429 N 0.3119 0.71899 0.51152 0.0
H430 H 0.0889 0.00364 0.12322 0.0
H431 H 0.88819 0.98326 0.24977 0.0
H432 H 0.9159 0.00029 0.11596 0.0
H433 H 0.05969 0.00505 0.25735 0.0
H434 H 0.89779 0.98639 0.20061 0.0
H435 H 0.07928 0.00102 0.17239 0.0
C436 C 0.04889 0.00242 0.13193 0.0
C437 C 0.00315 0.00219 0.11537 0.0
C438 C 0.93332 0.99044 0.21304 0.0
C439 C 0.99188 -0.00101 0.17169 0.0
C440 C 0.92784 0.98888 0.24113 0.0
C441 C 0.97319 0.99386 0.25778 0.0
C442 C 0.98455 -0.00304 0.20145 0.0
C443 C 0.02368 0.00023 0.24536 0.0
C444 C 0.04344 0.00095 0.16002 0.0
C445 C 0.95234 0.00061 0.12786 0.0
N446 N 0.02797 0.00161 0.21798 0.0
N447 N 0.9481 -0.00104 0.15524 0.0
H448 H 0.01608 0.07636 0.90028 0.0
H449 H 0.0166 0.89885 0.7672 0.0
H450 H 0.02131 0.90886 0.90221 0.0
H451 H 0.97919 0.06243 0.76702 0.0
H452 H 0.02439 0.9023 0.81639 0.0
H453 H 0.00972 0.07263 0.85106 0.0
C454 C 0.01613 0.03877 0.89038 0.0
C455 C 0.01915 0.99283 0.90546 0.0
C456 C 0.01441 0.93741 0.80557 0.0
C457 C 0.0118 0.98835 0.84904 0.0
C458 C 0.00962 0.93543 0.77748 0.0
C459 C -0.00289 0.98041 0.76287 0.0
C460 C 0.00696 0.98476 0.81922 0.0
C461 C 0.98964 0.02691 0.77733 0.0
C462 C 0.01228 0.03669 0.86226 0.0
C463 C 0.01888 0.94527 0.89146 0.0
N464 N -0.00526 0.02787 0.80467 0.0
N465 N 0.01531 0.94428 0.86404 0.0
H466 H 0.44249 0.57613 0.62148 0.0
H467 H 0.48732 0.42159 0.75686 0.0
H468 H 0.55562 0.44982 0.62591 0.0
H469 H 0.45776 0.58691 0.7579 0.0
H470 H 0.49959 0.42553 0.70798 0.0
H471 H 0.43451 0.57521 0.67091 0.0
C472 C 0.4657 0.54829 0.63287 0.0
C473 C 0.49979 0.51298 0.61964 0.0
C474 C 0.49053 0.46086 0.71902 0.0
C475 C 0.49005 0.51121 0.6759 0.0
C476 C 0.48377 0.45884 0.747 0.0
C477 C 0.47185 0.50411 0.76184 0.0
C478 C 0.48416 0.50817 0.70558 0.0
C479 C 0.46605 0.55079 0.74748 0.0
C480 C 0.46125 0.54795 0.661 0.0
C481 C 0.52912 0.47786 0.63535 0.0
N482 N 0.47195 0.55154 0.72014 0.0
N483 N 0.52309 0.47743 0.66269 0.0
H484 H 0.44297 0.4371 0.40846 0.0
H485 H 0.57897 0.51798 0.26941 0.0
H486 H 0.56421 0.55712 0.40411 0.0
H487 H 0.41458 0.46369 0.27443 0.0
H488 H 0.58211 0.52145 0.31876 0.0
H489 H 0.44046 0.4342 0.359 0.0
C490 C 0.46919 0.46271 0.3971 0.0
C491 C 0.50376 0.49752 0.41039 0.0
C492 C 0.54544 0.50883 0.30893 0.0
C493 C 0.5014 0.49394 0.35394 0.0
C494 C 0.54339 0.50709 0.28074 0.0
C495 C 0.49634 0.49059 0.2675 0.0
C496 C 0.50053 0.49311 0.32407 0.0
C497 C 0.45211 0.47572 0.28354 0.0
C498 C 0.46753 0.46117 0.36892 0.0
C499 C 0.53672 0.52995 0.39466 0.0
N500 N 0.45541 0.47708 0.31094 0.0
N501 N 0.535 0.52714 0.36721 0.0
loop_
_geom_bond_atom_site_label_1
_geom_bond_atom_site_label_2
_geom_bond_distance
_geom_bond_site_symmetry_2
_ccdc_geom_bond_type
O0 Zn1 1.953 . S
O0 C16 1.225 1_565 S
Zn1 O0 1.953 . S
Zn1 O2 1.949 1_565 S
Zn1 O8 1.919 . S
Zn1 O13 1.924 1_565 S
O2 Zn1 1.949 1_545 S
O2 Zn3 1.923 1_444 S
O2 Zn4 1.950 1_455 S
O2 Zn5 1.945 1_554 S
Zn3 O2 1.923 1_666 S
Zn3 O6 1.933 . S
Zn3 O9 1.941 1_655 S
Zn3 O10 1.963 1_556 S
Zn4 O2 1.950 1_655 S
Zn4 O11 1.938 1_545 S
Zn4 O12 1.906 . S
Zn4 O22 1.953 . S
Zn5 O2 1.945 1_556 S
Zn5 O7 1.932 . S
Zn5 O14 1.977 1_455 S
Zn5 O15 1.910 1_556 S
O6 Zn3 1.933 . S
O6 C17 1.226 1_665 S
O7 Zn5 1.932 . S
O7 C17 1.307 . S
O8 Zn1 1.919 . S
O8 C19 1.253 . S
O9 Zn3 1.941 1_455 S
O9 C19 1.283 1_556 S
O10 Zn3 1.963 1_554 S
O10 C18 1.310 . S
O11 Zn4 1.938 1_565 S
O11 C18 1.247 . S
O12 Zn4 1.906 . S
O12 C20 1.304 . S
O13 Zn1 1.924 1_545 S
O13 C21 1.311 . S
O14 Zn5 1.977 1_655 S
O14 C20 1.272 1_556 S
O15 Zn5 1.910 1_554 S
O15 C21 1.231 . S
C16 O0 1.225 1_545 S
C16 O22 1.298 1_455 S
C17 O6 1.226 1_445 S
C17 O7 1.307 . S
C18 O10 1.310 . S
C18 O11 1.247 . S
C19 O8 1.253 . S
C19 O9 1.283 1_554 S
C20 O12 1.304 . S
C20 O14 1.272 1_554 S
C21 O13 1.311 . S
C21 O15 1.231 . S
O22 Zn4 1.953 . S
O22 C16 1.298 1_655 S
O23 Zn24 1.953 . S
O23 C39 1.225 . S
Zn24 O23 1.953 . S
Zn24 O25 1.949 . S
Zn24 O31 1.919 . S
Zn24 O36 1.924 . S
O25 Zn24 1.949 . S
O25 Zn26 1.923 . S
O25 Zn27 1.950 . S
O25 Zn28 1.945 . S
Zn26 O25 1.923 . S
Zn26 O29 1.933 . S
Zn26 O32 1.941 . S
Zn26 O33 1.965 . S
Zn27 O25 1.950 . S
Zn27 O34 1.938 . S
Zn27 O35 1.906 . S
Zn27 O45 1.953 . S
Zn28 O25 1.945 . S
Zn28 O30 1.932 . S
Zn28 O37 1.977 . S
Zn28 O38 1.910 . S
O29 Zn26 1.933 . S
O29 C40 1.226 . S
O30 Zn28 1.932 . S
O30 C40 1.307 . S
O31 Zn24 1.919 . S
O31 C42 1.253 . S
O32 Zn26 1.941 . S
O32 C42 1.283 . S
O33 Zn26 1.965 . S
O33 C41 1.303 . S
O34 Zn27 1.938 . S
O34 C41 1.247 . S
O35 Zn27 1.906 . S
O35 C43 1.304 . S
O36 Zn24 1.924 . S
O36 C44 1.311 . S
O37 Zn28 1.977 . S
O37 C43 1.272 . S
O38 Zn28 1.910 . S
O38 C44 1.231 . S
C39 O23 1.225 . S
C39 O45 1.298 . S
C40 O29 1.226 . S
C40 O30 1.307 . S
C41 O33 1.303 . S
C41 O34 1.247 . S
C42 O31 1.253 . S
C42 O32 1.283 . S
C43 O35 1.304 . S
C43 O37 1.272 . S
C44 O36 1.311 . S
C44 O38 1.231 . S
O45 Zn27 1.953 . S
O45 C39 1.298 . S
C46 C47 1.391 . S
C46 C50 1.391 . S
C46 H88 0.948 . S
C47 C46 1.391 . S
C47 C48 1.391 . S
C48 C47 1.391 . S
C48 H104 0.947 . S
C48 C105 1.392 . S
C49 C50 1.391 . S
C49 C53 1.397 . S
C49 C105 1.419 . S
C50 C46 1.391 . S
C50 C49 1.391 . S
C50 C51 1.399 . S
C51 C50 1.399 . S
C51 C54 1.396 . S
C51 C63 1.453 1_565 S
C51 C64 1.684 1_455 S
H52 C76 0.948 . S
C53 C49 1.397 . S
C53 C54 1.394 . S
C53 C72 1.723 . S
C54 C51 1.396 . S
C54 C53 1.394 . S
C54 C84 1.723 1_465 S
H55 C78 0.947 . S
H56 C79 0.948 . S
H57 C85 0.982 . S
H58 C86 0.979 . S
H59 C86 0.980 . S
H60 C86 0.983 . S
H61 C85 0.979 . S
H62 C85 0.977 . S
C63 C51 1.453 1_545 S
C63 H92 0.982 . S
C63 H93 0.979 1_545 S
C63 H94 0.977 . S
C64 C51 1.684 1_655 S
C64 H89 0.979 . S
C64 H90 0.980 . S
C64 H91 0.983 1_655 S
C65 C66 1.391 1_465 S
C65 C70 1.391 . S
C65 H95 0.948 . S
C66 C65 1.391 1_645 S
C66 C67 1.391 . S
C67 C66 1.391 . S
C67 C68 1.392 . S
C67 H96 0.947 . S
C68 C67 1.392 . S
C68 C69 1.419 . S
C68 H97 0.948 . S
C69 C68 1.419 . S
C69 C70 1.391 1_645 S
C69 C73 1.397 . S
C70 C65 1.391 . S
C70 C69 1.391 1_465 S
C70 C71 1.399 . S
C71 C70 1.399 . S
C71 C72 1.396 . S
C71 C74 1.453 . S
C71 C75 1.684 . S
C72 C53 1.723 . S
C72 C71 1.396 . S
C72 C73 1.394 1_465 S
C73 C69 1.397 . S
C73 C72 1.394 1_645 S
C73 C83 1.723 . S
C74 C71 1.453 . S
C74 H98 0.982 . S
C74 H99 0.979 . S
C74 H100 0.977 . S
C75 C71 1.684 . S
C75 H101 0.979 . S
C75 H102 0.980 . S
C75 H103 0.983 . S
C76 H52 0.948 . S
C76 C77 1.391 . S
C76 C81 1.391 . S
C77 C76 1.391 . S
C77 C78 1.391 . S
C78 H55 0.947 . S
C78 C77 1.391 . S
C78 C79 1.392 . S
C79 H56 0.948 . S
C79 C78 1.392 . S
C79 C80 1.419 . S
C80 C79 1.419 . S
C80 C81 1.391 . S
C80 C84 1.397 . S
C81 C76 1.391 . S
C81 C80 1.391 . S
C81 C82 1.399 . S
C82 C81 1.399 . S
C82 C83 1.396 . S
C82 C85 1.453 . S
C82 C86 1.684 . S
C83 C73 1.723 . S
C83 C82 1.396 . S
C83 C84 1.394 . S
C84 C54 1.723 1_645 S
C84 C80 1.397 . S
C84 C83 1.394 . S
C85 H57 0.982 . S
C85 H61 0.979 . S
C85 H62 0.977 . S
C85 C82 1.453 . S
C86 H58 0.979 . S
C86 H59 0.980 . S
C86 H60 0.983 . S
C86 C82 1.684 . S
H87 C105 0.948 . S
H88 C46 0.948 . S
H89 C64 0.979 . S
H90 C64 0.980 . S
H91 C64 0.983 1_455 S
H92 C63 0.982 . S
H93 C63 0.979 1_565 S
H94 C63 0.977 . S
H95 C65 0.948 . S
H96 C67 0.947 . S
H97 C68 0.948 . S
H98 C74 0.982 . S
H99 C74 0.979 . S
H100 C74 0.977 . S
H101 C75 0.979 . S
H102 C75 0.980 . S
H103 C75 0.983 . S
H104 C48 0.947 . S
C105 C48 1.392 . S
C105 C49 1.419 . S
C105 H87 0.948 . S
C106 C107 1.391 . S
C106 C110 1.391 . S
C106 H148 0.948 . S
C107 C106 1.391 . S
C107 C108 1.391 . S
C108 C107 1.391 . S
C108 H164 0.947 . S
C108 C165 1.392 . S
C109 C110 1.391 . S
C109 C113 1.397 . S
C109 C165 1.419 . S
C110 C106 1.391 . S
C110 C109 1.391 . S
C110 C111 1.399 . S
C111 C110 1.399 . S
C111 C114 1.396 . S
C111 C123 1.455 1_545 S
C111 C124 1.686 . S
H112 C136 0.948 . S
C113 C109 1.397 . S
C113 C114 1.394 . S
C113 C132 1.723 . S
C114 C111 1.396 . S
C114 C113 1.394 . S
C114 C144 1.723 1_445 S
H115 C138 0.947 . S
H116 C139 0.948 . S
H117 C145 0.982 . S
H118 C146 0.979 . S
H119 C146 0.980 . S
H120 C146 0.983 . S
H121 C145 0.979 . S
H122 C145 0.977 . S
C123 C111 1.455 1_565 S
C123 H152 0.981 . S
C123 H153 0.980 1_565 S
C123 H154 0.975 . S
C124 C111 1.686 . S
C124 H149 0.977 1_455 S
C124 H150 0.978 1_455 S
C124 H151 0.985 . S
C125 C126 1.391 . S
C125 C130 1.391 . S
C125 H155 0.948 . S
C126 C125 1.391 . S
C126 C127 1.391 1_445 S
C127 C126 1.391 1_665 S
C127 C128 1.392 . S
C127 H156 0.947 . S
C128 C127 1.392 . S
C128 C129 1.406 1_655 S
C128 H157 0.948 . S
C129 C128 1.406 1_455 S
C129 C130 1.402 1_565 S
C129 C133 1.399 . S
C130 C125 1.391 . S
C130 C129 1.402 1_545 S
C130 C131 1.399 . S
C131 C130 1.399 . S
C131 C132 1.396 . S
C131 C134 1.453 . S
C131 C135 1.684 . S
C132 C113 1.723 . S
C132 C131 1.396 . S
C132 C133 1.394 1_545 S
C133 C129 1.399 . S
C133 C132 1.394 1_565 S
C133 C143 1.723 1_455 S
C134 C131 1.453 . S
C134 H158 0.982 . S
C134 H159 0.979 . S
C134 H160 0.977 . S
C135 C131 1.684 . S
C135 H161 0.979 . S
C135 H162 0.980 . S
C135 H163 0.983 . S
C136 H112 0.948 . S
C136 C137 1.391 . S
C136 C141 1.391 . S
C137 C136 1.391 . S
C137 C138 1.391 . S
C138 H115 0.947 . S
C138 C137 1.391 . S
C138 C139 1.392 . S
C139 H116 0.948 . S
C139 C138 1.392 . S
C139 C140 1.419 . S
C140 C139 1.419 . S
C140 C141 1.391 . S
C140 C144 1.397 . S
C141 C136 1.391 . S
C141 C140 1.391 . S
C141 C142 1.399 . S
C142 C141 1.399 . S
C142 C143 1.396 . S
C142 C145 1.453 . S
C142 C146 1.684 . S
C143 C133 1.723 1_655 S
C143 C142 1.396 . S
C143 C144 1.394 . S
C144 C114 1.723 1_665 S
C144 C140 1.397 . S
C144 C143 1.394 . S
C145 H117 0.982 . S
C145 H121 0.979 . S
C145 H122 0.977 . S
C145 C142 1.453 . S
C146 H118 0.979 . S
C146 H119 0.980 . S
C146 H120 0.983 . S
C146 C142 1.684 . S
H147 C165 0.948 . S
H148 C106 0.948 . S
H149 C124 0.977 1_655 S
H150 C124 0.978 1_655 S
H151 C124 0.985 . S
H152 C123 0.981 . S
H153 C123 0.980 1_545 S
H154 C123 0.975 . S
H155 C125 0.948 . S
H156 C127 0.947 . S
H157 C128 0.948 . S
H158 C134 0.982 . S
H159 C134 0.979 . S
H160 C134 0.977 . S
H161 C135 0.979 . S
H162 C135 0.980 . S
H163 C135 0.983 . S
H164 C108 0.947 . S
C165 C108 1.392 . S
C165 C109 1.419 . S
C165 H147 0.948 . S
C166 C167 1.391 . S
C166 C170 1.391 . S
C166 H208 0.948 . S
C167 C166 1.391 . S
C167 C168 1.391 . S
C168 C167 1.391 . S
C168 H224 0.947 . S
C168 C225 1.392 . S
C169 C170 1.391 . S
C169 C173 1.397 . S
C169 C225 1.419 . S
C170 C166 1.391 . S
C170 C169 1.391 . S
C170 C171 1.399 . S
C171 C170 1.399 . S
C171 C174 1.396 . S
C171 C183 1.453 . S
C171 C184 1.684 . S
H172 C196 0.948 . S
C173 C169 1.397 . S
C173 C174 1.394 . S
C173 C192 1.723 . S
C174 C171 1.396 . S
C174 C173 1.394 . S
C174 C204 1.723 . S
H175 C198 0.947 . S
H176 C199 0.948 . S
H177 C205 0.982 . S
H178 C206 0.979 . S
H179 C206 0.980 . S
H180 C206 0.983 . S
H181 C205 0.979 . S
H182 C205 0.977 . S
C183 C171 1.453 . S
C183 H212 0.982 . S
C183 H213 0.979 . S
C183 H214 0.977 . S
C184 C171 1.684 . S
C184 H209 0.979 . S
C184 H210 0.980 . S
C184 H211 0.983 . S
C185 C186 1.391 . S
C185 C190 1.391 . S
C185 H215 0.948 . S
C186 C185 1.391 . S
C186 C187 1.391 . S
C187 C186 1.391 . S
C187 C188 1.392 . S
C187 H216 0.947 . S
C188 C187 1.392 . S
C188 C189 1.419 . S
C188 H217 0.948 . S
C189 C188 1.419 . S
C189 C190 1.391 . S
C189 C193 1.397 . S
C190 C185 1.391 . S
C190 C189 1.391 . S
C190 C191 1.399 . S
C191 C190 1.399 . S
C191 C192 1.396 . S
C191 C194 1.453 . S
C191 C195 1.684 . S
C192 C173 1.723 . S
C192 C191 1.396 . S
C192 C193 1.394 . S
C193 C189 1.397 . S
C193 C192 1.394 . S
C193 C203 1.723 . S
C194 C191 1.453 . S
C194 H218 0.982 . S
C194 H219 0.979 . S
C194 H220 0.977 . S
C195 C191 1.684 . S
C195 H221 0.979 . S
C195 H222 0.980 . S
C195 H223 0.983 . S
C196 H172 0.948 . S
C196 C197 1.391 . S
C196 C201 1.391 . S
C197 C196 1.391 . S
C197 C198 1.391 . S
C198 H175 0.947 . S
C198 C197 1.391 . S
C198 C199 1.392 . S
C199 H176 0.948 . S
C199 C198 1.392 . S
C199 C200 1.419 . S
C200 C199 1.419 . S
C200 C201 1.391 . S
C200 C204 1.397 . S
C201 C196 1.391 . S
C201 C200 1.391 . S
C201 C202 1.399 . S
C202 C201 1.399 . S
C202 C203 1.396 . S
C202 C205 1.453 . S
C202 C206 1.684 . S
C203 C193 1.723 . S
C203 C202 1.396 . S
C203 C204 1.394 . S
C204 C174 1.723 . S
C204 C200 1.397 . S
C204 C203 1.394 . S
C205 H177 0.982 . S
C205 H181 0.979 . S
C205 H182 0.977 . S
C205 C202 1.453 . S
C206 H178 0.979 . S
C206 H179 0.980 . S
C206 H180 0.983 . S
C206 C202 1.684 . S
H207 C225 0.948 . S
H208 C166 0.948 . S
H209 C184 0.979 . S
H210 C184 0.980 . S
H211 C184 0.983 . S
H212 C183 0.982 . S
H213 C183 0.979 . S
H214 C183 0.977 . S
H215 C185 0.948 . S
H216 C187 0.947 . S
H217 C188 0.948 . S
H218 C194 0.982 . S
H219 C194 0.979 . S
H220 C194 0.977 . S
H221 C195 0.979 . S
H222 C195 0.980 . S
H223 C195 0.983 . S
H224 C168 0.947 . S
C225 C168 1.392 . S
C225 C169 1.419 . S
C225 H207 0.948 . S
C226 C227 1.391 . S
C226 C230 1.391 . S
C226 H268 0.948 . S
C227 C226 1.391 . S
C227 C228 1.391 . S
C228 C227 1.391 . S
C228 H284 0.947 . S
C228 C285 1.392 . S
C229 C230 1.391 . S
C229 C233 1.397 . S
C229 C285 1.419 . S
C230 C226 1.391 . S
C230 C229 1.391 . S
C230 C231 1.399 . S
C231 C230 1.399 . S
C231 C234 1.396 . S
C231 C243 1.453 . S
C231 C244 1.684 . S
H232 C256 0.948 . S
C233 C229 1.397 . S
C233 C234 1.394 . S
C233 C252 1.723 . S
C234 C231 1.396 . S
C234 C233 1.394 . S
C234 C264 1.723 . S
H235 C258 0.947 . S
H236 C259 0.948 . S
H237 C265 0.982 . S
H238 C266 0.979 . S
H239 C266 0.980 . S
H240 C266 0.983 . S
H241 C265 0.979 . S
H242 C265 0.977 . S
C243 C231 1.453 . S
C243 H272 0.982 . S
C243 H273 0.979 . S
C243 H274 0.977 . S
C244 C231 1.684 . S
C244 H269 0.979 . S
C244 H270 0.980 . S
C244 H271 0.983 . S
C245 C246 1.391 . S
C245 C250 1.391 . S
C245 H275 0.948 . S
C246 C245 1.391 . S
C246 C247 1.391 . S
C247 C246 1.391 . S
C247 C248 1.392 . S
C247 H276 0.947 . S
C248 C247 1.392 . S
C248 C249 1.419 . S
C248 H277 0.948 . S
C249 C248 1.419 . S
C249 C250 1.391 . S
C249 C253 1.397 . S
C250 C245 1.391 . S
C250 C249 1.391 . S
C250 C251 1.399 . S
C251 C250 1.399 . S
C251 C252 1.396 . S
C251 C254 1.453 . S
C251 C255 1.684 . S
C252 C233 1.723 . S
C252 C251 1.396 . S
C252 C253 1.394 . S
C253 C249 1.397 . S
C253 C252 1.394 . S
C253 C263 1.723 . S
C254 C251 1.453 . S
C254 H278 0.982 . S
C254 H279 0.979 . S
C254 H280 0.977 . S
C255 C251 1.684 . S
C255 H281 0.979 . S
C255 H282 0.980 . S
C255 H283 0.983 . S
C256 H232 0.948 . S
C256 C257 1.391 . S
C256 C261 1.391 . S
C257 C256 1.391 . S
C257 C258 1.391 . S
C258 H235 0.947 . S
C258 C257 1.391 . S
C258 C259 1.392 . S
C259 H236 0.948 . S
C259 C258 1.392 . S
C259 C260 1.419 . S
C260 C259 1.419 . S
C260 C261 1.391 . S
C260 C264 1.397 . S
C261 C256 1.391 . S
C261 C260 1.391 . S
C261 C262 1.399 . S
C262 C261 1.399 . S
C262 C263 1.396 . S
C262 C265 1.453 . S
C262 C266 1.684 . S
C263 C253 1.723 . S
C263 C262 1.396 . S
C263 C264 1.394 . S
C264 C234 1.723 . S
C264 C260 1.397 . S
C264 C263 1.394 . S
C265 H237 0.982 . S
C265 H241 0.979 . S
C265 H242 0.977 . S
C265 C262 1.453 . S
C266 H238 0.979 . S
C266 H239 0.980 . S
C266 H240 0.983 . S
C266 C262 1.684 . S
H267 C285 0.948 . S
H268 C226 0.948 . S
H269 C244 0.979 . S
H270 C244 0.980 . S
H271 C244 0.983 . S
H272 C243 0.982 . S
H273 C243 0.979 . S
H274 C243 0.977 . S
H275 C245 0.948 . S
H276 C247 0.947 . S
H277 C248 0.948 . S
H278 C254 0.982 . S
H279 C254 0.979 . S
H280 C254 0.977 . S
H281 C255 0.979 . S
H282 C255 0.980 . S
H283 C255 0.983 . S
H284 C228 0.947 . S
C285 C228 1.392 . S
C285 C229 1.419 . S
C285 H267 0.948 . S
H286 C292 0.930 . S
H287 C296 0.930 . S
H288 C301 0.929 . S
H289 C299 0.929 . S
H290 C294 0.929 . S
H291 C300 0.929 . S
C292 H286 0.930 . S
C292 C293 1.367 . S
C292 C300 1.378 . S
C293 C292 1.367 . S
C293 C301 1.433 . S
C294 H290 0.929 . S
C294 C296 1.378 . S
C294 C298 1.350 . S
C295 C298 1.463 . S
C295 C300 1.350 . S
C295 N303 1.427 . S
C296 H287 0.930 . S
C296 C294 1.378 . S
C296 C297 1.367 . S
C297 C296 1.367 . S
C297 C299 1.433 . S
C298 C294 1.350 . S
C298 C295 1.463 . S
C298 N302 1.427 . S
C299 H289 0.929 . S
C299 C297 1.433 . S
C299 N302 1.384 . S
C300 H291 0.929 . S
C300 C292 1.378 . S
C300 C295 1.350 . S
C301 H288 0.929 . S
C301 C293 1.433 . S
C301 N303 1.384 . S
N302 C298 1.427 . S
N302 C299 1.384 . S
N303 C295 1.427 . S
N303 C301 1.384 . S
H304 C310 0.930 . S
H305 C314 0.930 1_554 S
H306 C319 0.929 . S
H307 C317 0.929 . S
H308 C312 0.891 1_554 S
H309 C318 0.929 . S
C310 H304 0.930 . S
C310 C311 1.367 . S
C310 C318 1.378 . S
C311 C310 1.367 . S
C311 C319 1.433 1_556 S
C312 H308 0.891 1_556 S
C312 C314 1.387 . S
C312 C316 1.380 . S
C313 C316 1.463 . S
C313 C318 1.350 . S
C313 N321 1.427 1_556 S
C314 H305 0.930 1_556 S
C314 C312 1.387 . S
C314 C315 1.367 . S
C315 C314 1.367 . S
C315 C317 1.433 . S
C316 C312 1.380 . S
C316 C313 1.463 . S
C316 N320 1.427 . S
C317 H307 0.929 . S
C317 C315 1.433 . S
C317 N320 1.384 . S
C318 H309 0.929 . S
C318 C310 1.378 . S
C318 C313 1.350 . S
C319 H306 0.929 . S
C319 C311 1.433 1_554 S
C319 N321 1.384 . S
N320 C316 1.427 . S
N320 C317 1.384 . S
N321 C313 1.427 1_554 S
N321 C319 1.384 . S
H322 C328 0.930 . S
H323 C332 0.930 . S
H324 C337 0.929 . S
H325 C335 0.929 . S
H326 C330 0.929 . S
H327 C336 0.929 . S
C328 H322 0.930 . S
C328 C329 1.367 . S
C328 C336 1.378 . S
C329 C328 1.367 . S
C329 C337 1.433 . S
C330 H326 0.929 . S
C330 C332 1.378 . S
C330 C334 1.350 . S
C331 C334 1.463 . S
C331 C336 1.350 . S
C331 N339 1.427 . S
C332 H323 0.930 . S
C332 C330 1.378 . S
C332 C333 1.367 . S
C333 C332 1.367 . S
C333 C335 1.433 . S
C334 C330 1.350 . S
C334 C331 1.463 . S
C334 N338 1.427 . S
C335 H325 0.929 . S
C335 C333 1.433 . S
C335 N338 1.384 . S
C336 H327 0.929 . S
C336 C328 1.378 . S
C336 C331 1.350 . S
C337 H324 0.929 . S
C337 C329 1.433 . S
C337 N339 1.384 . S
N338 C334 1.427 . S
N338 C335 1.384 . S
N339 C331 1.427 . S
N339 C337 1.384 . S
H340 C346 0.930 . S
H341 C350 0.930 1_554 S
H342 C355 0.929 . S
H343 C353 0.929 . S
H344 C348 0.887 1_554 S
H345 C354 0.929 . S
C346 H340 0.930 . S
C346 C347 1.367 . S
C346 C354 1.378 . S
C347 C346 1.367 . S
C347 C355 1.433 1_556 S
C348 H344 0.887 1_556 S
C348 C350 1.388 . S
C348 C352 1.382 . S
C349 C352 1.463 . S
C349 C354 1.350 . S
C349 N357 1.427 1_556 S
C350 H341 0.930 1_556 S
C350 C348 1.388 . S
C350 C351 1.367 . S
C351 C350 1.367 . S
C351 C353 1.433 . S
C352 C348 1.382 . S
C352 C349 1.463 . S
C352 N356 1.427 . S
C353 H343 0.929 . S
C353 C351 1.433 . S
C353 N356 1.384 . S
C354 H345 0.929 . S
C354 C346 1.378 . S
C354 C349 1.350 . S
C355 H342 0.929 . S
C355 C347 1.433 1_554 S
C355 N357 1.384 . S
N356 C352 1.427 . S
N356 C353 1.384 . S
N357 C349 1.427 1_554 S
N357 C355 1.384 . S
H358 C364 0.930 . S
H359 C368 0.930 . S
H360 C373 0.929 . S
H361 C371 0.929 . S
H362 C366 0.929 . S
H363 C372 0.929 . S
C364 H358 0.930 . S
C364 C365 1.367 . S
C364 C372 1.378 . S
C365 C364 1.367 . S
C365 C373 1.433 . S
C366 H362 0.929 . S
C366 C368 1.378 . S
C366 C370 1.350 . S
C367 C370 1.463 . S
C367 C372 1.350 . S
C367 N375 1.427 . S
C368 H359 0.930 . S
C368 C366 1.378 . S
C368 C369 1.367 . S
C369 C368 1.367 . S
C369 C371 1.433 . S
C370 C366 1.350 . S
C370 C367 1.463 . S
C370 N374 1.427 . S
C371 H361 0.929 . S
C371 C369 1.433 . S
C371 N374 1.384 . S
C372 H363 0.929 . S
C372 C364 1.378 . S
C372 C367 1.350 . S
C373 H360 0.929 . S
C373 C365 1.433 . S
C373 N375 1.384 . S
N374 C370 1.427 . S
N374 C371 1.384 . S
N375 C367 1.427 . S
N375 C373 1.384 . S
H376 C382 0.930 . S
H377 C386 0.930 . S
H378 C391 0.929 . S
H379 C389 0.929 . S
H380 C384 0.929 . S
H381 C390 0.929 . S
C382 H376 0.930 . S
C382 C383 1.367 . S
C382 C390 1.378 . S
C383 C382 1.367 . S
C383 C391 1.433 . S
C384 H380 0.929 . S
C384 C386 1.378 . S
C384 C388 1.350 . S
C385 C388 1.463 . S
C385 C390 1.350 . S
C385 N393 1.427 . S
C386 H377 0.930 . S
C386 C384 1.378 . S
C386 C387 1.367 . S
C387 C386 1.367 . S
C387 C389 1.433 . S
C388 C384 1.350 . S
C388 C385 1.463 . S
C388 N392 1.427 . S
C389 H379 0.929 . S
C389 C387 1.433 . S
C389 N392 1.384 . S
C390 H381 0.929 . S
C390 C382 1.378 . S
C390 C385 1.350 . S
C391 H378 0.929 . S
C391 C383 1.433 . S
C391 N393 1.384 . S
N392 C388 1.427 . S
N392 C389 1.384 . S
N393 C385 1.427 . S
N393 C391 1.384 . S
H394 C400 0.930 . S
H395 C404 0.930 . S
H396 C409 0.929 . S
H397 C407 0.929 . S
H398 C402 0.929 . S
H399 C408 0.929 . S
C400 H394 0.930 . S
C400 C401 1.367 . S
C400 C408 1.378 . S
C401 C400 1.367 . S
C401 C409 1.433 . S
C402 H398 0.929 . S
C402 C404 1.378 . S
C402 C406 1.350 . S
C403 C406 1.463 . S
C403 C408 1.350 . S
C403 N411 1.427 . S
C404 H395 0.930 . S
C404 C402 1.378 . S
C404 C405 1.367 . S
C405 C404 1.367 . S
C405 C407 1.433 . S
C406 C402 1.350 . S
C406 C403 1.463 . S
C406 N410 1.427 . S
C407 H397 0.929 . S
C407 C405 1.433 . S
C407 N410 1.384 . S
C408 H399 0.929 . S
C408 C400 1.378 . S
C408 C403 1.350 . S
C409 H396 0.929 . S
C409 C401 1.433 . S
C409 N411 1.384 . S
N410 C406 1.427 . S
N410 C407 1.384 . S
N411 C403 1.427 . S
N411 C409 1.384 . S
H412 C418 0.930 . S
H413 C422 0.930 . S
H414 C427 0.929 . S
H415 C425 0.929 . S
H416 C420 0.929 . S
H417 C426 0.929 . S
C418 H412 0.930 . S
C418 C419 1.367 . S
C418 C426 1.378 . S
C419 C418 1.367 . S
C419 C427 1.433 . S
C420 H416 0.929 . S
C420 C422 1.378 . S
C420 C424 1.350 . S
C421 C424 1.463 . S
C421 C426 1.350 . S
C421 N429 1.427 . S
C422 H413 0.930 . S
C422 C420 1.378 . S
C422 C423 1.367 . S
C423 C422 1.367 . S
C423 C425 1.433 . S
C424 C420 1.350 . S
C424 C421 1.463 . S
C424 N428 1.427 . S
C425 H415 0.929 . S
C425 C423 1.433 . S
C425 N428 1.384 . S
C426 H417 0.929 . S
C426 C418 1.378 . S
C426 C421 1.350 . S
C427 H414 0.929 . S
C427 C419 1.433 . S
C427 N429 1.384 . S
N428 C424 1.427 . S
N428 C425 1.384 . S
N429 C421 1.427 . S
N429 C427 1.384 . S
H430 C436 0.930 . S
H431 C440 0.930 . S
H432 C445 0.929 . S
H433 C443 0.929 . S
H434 C438 0.929 . S
H435 C444 0.929 . S
C436 H430 0.930 . S
C436 C437 1.367 1_565 S
C436 C444 1.378 . S
C437 C436 1.367 1_545 S
C437 C445 1.433 1_455 S
C438 H434 0.929 . S
C438 C440 1.378 . S
C438 C442 1.350 1_655 S
C439 C442 1.463 . S
C439 C444 1.350 1_545 S
C439 N447 1.427 1_455 S
C440 H431 0.930 . S
C440 C438 1.378 . S
C440 C441 1.376 1_655 S
C441 C440 1.376 1_455 S
C441 C443 1.425 1_545 S
C442 C438 1.350 1_455 S
C442 C439 1.463 . S
C442 N446 1.427 1_545 S
C443 H433 0.929 . S
C443 C441 1.425 1_565 S
C443 N446 1.384 . S
C444 H435 0.929 . S
C444 C436 1.378 . S
C444 C439 1.350 1_565 S
C445 H432 0.929 . S
C445 C437 1.433 1_655 S
C445 N447 1.384 . S
N446 C442 1.427 1_565 S
N446 C443 1.384 . S
N447 C439 1.427 1_655 S
N447 C445 1.384 . S
H448 C454 0.930 . S
H449 C458 0.930 . S
H450 C463 0.929 1_655 S
H451 C461 0.929 . S
H452 C456 0.929 . S
H453 C462 0.929 . S
C454 H448 0.930 . S
C454 C455 1.367 . S
C454 C462 1.378 . S
C455 C454 1.367 . S
C455 C463 1.433 1_545 S
C456 H452 0.929 . S
C456 C458 1.378 . S
C456 C460 1.350 1_565 S
C457 C460 1.463 . S
C457 C462 1.350 . S
C457 N465 1.427 1_545 S
C458 H449 0.930 . S
C458 C456 1.378 . S
C458 C459 1.367 1_565 S
C459 C458 1.367 1_545 S
C459 C461 1.433 . S
C460 C456 1.350 1_545 S
C460 C457 1.463 . S
C460 N464 1.427 . S
C461 H451 0.929 . S
C461 C459 1.433 . S
C461 N464 1.384 . S
C462 H453 0.929 . S
C462 C454 1.378 . S
C462 C457 1.350 . S
C463 H450 0.929 1_455 S
C463 C455 1.433 1_565 S
C463 N465 1.384 . S
N464 C460 1.427 . S
N464 C461 1.384 . S
N465 C457 1.427 1_565 S
N465 C463 1.384 . S
H466 C472 0.930 . S
H467 C476 0.930 . S
H468 C481 0.929 . S
H469 C479 0.929 . S
H470 C474 0.929 . S
H471 C480 0.929 . S
C472 H466 0.930 . S
C472 C473 1.367 . S
C472 C480 1.378 . S
C473 C472 1.367 . S
C473 C481 1.433 . S
C474 H470 0.929 . S
C474 C476 1.378 . S
C474 C478 1.350 . S
C475 C478 1.463 . S
C475 C480 1.350 . S
C475 N483 1.427 . S
C476 H467 0.930 . S
C476 C474 1.378 . S
C476 C477 1.367 . S
C477 C476 1.367 . S
C477 C479 1.433 . S
C478 C474 1.350 . S
C478 C475 1.463 . S
C478 N482 1.427 . S
C479 H469 0.929 . S
C479 C477 1.433 . S
C479 N482 1.384 . S
C480 H471 0.929 . S
C480 C472 1.378 . S
C480 C475 1.350 . S
C481 H468 0.929 . S
C481 C473 1.433 . S
C481 N483 1.384 . S
N482 C478 1.427 . S
N482 C479 1.384 . S
N483 C475 1.427 . S
N483 C481 1.384 . S
H484 C490 0.930 . S
H485 C494 0.930 . S
H486 C499 0.929 . S
H487 C497 0.929 . S
H488 C492 0.929 . S
H489 C498 0.929 . S
C490 H484 0.930 . S
C490 C491 1.367 . S
C490 C498 1.378 . S
C491 C490 1.367 . S
C491 C499 1.433 . S
C492 H488 0.929 . S
C492 C494 1.378 . S
C492 C496 1.350 . S
C493 C496 1.463 . S
C493 C498 1.350 . S
C493 N501 1.427 . S
C494 H485 0.930 . S
C494 C492 1.378 . S
C494 C495 1.367 . S
C495 C494 1.367 . S
C495 C497 1.433 . S
C496 C492 1.350 . S
C496 C493 1.463 . S
C496 N500 1.427 . S
C497 H487 0.929 . S
C497 C495 1.433 . S
C497 N500 1.384 . S
C498 H489 0.929 . S
C498 C490 1.378 . S
C498 C493 1.350 . S
C499 H486 0.929 . S
C499 C491 1.433 . S
C499 N501 1.384 . S
N500 C496 1.427 . S
N500 C497 1.384 . S
N501 C493 1.427 . S
N501 C499 1.384 . S
C297 C257 1.457 . S
C293 C21 1.451 . S
C311 C19 1.443 1_556 S
C315 C197 1.451 . S
C329 C18 1.416 . S
C333 C227 1.359 . S
C347 C20 1.437 1_556 S
C351 C167 1.382 . S
C365 C44 1.451 . S
C369 C137 1.453 . S
C383 C42 1.444 . S
C387 C77 1.450 . S
C405 C107 1.348 . S
C401 C41 1.411 . S
C423 C47 1.379 . S
C419 C43 1.435 . S
C437 C16 1.491 . S
C441 C66 1.465 1_455 S
C455 C17 1.456 . S
C459 C126 1.431 . S
C477 C186 1.474 . S
C473 C39 1.493 . S
C491 C40 1.455 . S
C495 C246 1.438 . S
