# Generated by pormake.
# Topology pyr, (3,6)-cn, num edge types: 1
# Building blocks:
#     Node 0, Type 0, BuildingBlock: ESEHIV_clean_linker_0, # of connection points: 3
#     Node 1, Type 0, BuildingBlock: ESEHIV_clean_linker_0, # of connection points: 3
#     Node 2, Type 0, BuildingBlock: ESEHIV_clean_linker_0, # of connection points: 3
#     Node 3, Type 0, BuildingBlock: ESEHIV_clean_linker_0, # of connection points: 3
#     Node 4, Type 0, BuildingBlock: ESEHIV_clean_linker_0, # of connection points: 3
#     Node 5, Type 0, BuildingBlock: ESEHIV_clean_linker_0, # of connection points: 3
#     Node 6, Type 0, BuildingBlock: ESEHIV_clean_linker_0, # of connection points: 3
#     Node 7, Type 0, BuildingBlock: ESEHIV_clean_linker_0, # of connection points: 3
#     Node 8, Type 1, BuildingBlock: BETDEL_clean_sbu_0, # of connection points: 6
#     Node 9, Type 1, BuildingBlock: BETDEL_clean_sbu_0, # of connection points: 6
#     Node 10, Type 1, BuildingBlock: BETDEL_clean_sbu_0, # of connection points: 6
#     Node 11, Type 1, BuildingBlock: BETDEL_clean_sbu_0, # of connection points: 6
#     Edge 12, Type (0, 1), BuildingBlock: UVAHIK_clean_linker_0, # of connection points: 2
#     Edge 13, Type (0, 1), BuildingBlock: UVAHIK_clean_linker_0, # of connection points: 2
#     Edge 14, Type (0, 1), BuildingBlock: UVAHIK_clean_linker_0, # of connection points: 2
#     Edge 15, Type (0, 1), BuildingBlock: UVAHIK_clean_linker_0, # of connection points: 2
#     Edge 16, Type (0, 1), BuildingBlock: UVAHIK_clean_linker_0, # of connection points: 2
#     Edge 17, Type (0, 1), BuildingBlock: UVAHIK_clean_linker_0, # of connection points: 2
#     Edge 18, Type (0, 1), BuildingBlock: UVAHIK_clean_linker_0, # of connection points: 2
#     Edge 19, Type (0, 1), BuildingBlock: UVAHIK_clean_linker_0, # of connection points: 2
#     Edge 20, Type (0, 1), BuildingBlock: UVAHIK_clean_linker_0, # of connection points: 2
#     Edge 21, Type (0, 1), BuildingBlock: UVAHIK_clean_linker_0, # of connection points: 2
#     Edge 22, Type (0, 1), BuildingBlock: UVAHIK_clean_linker_0, # of connection points: 2
#     Edge 23, Type (0, 1), BuildingBlock: UVAHIK_clean_linker_0, # of connection points: 2
#     Edge 24, Type (0, 1), BuildingBlock: UVAHIK_clean_linker_0, # of connection points: 2
#     Edge 25, Type (0, 1), BuildingBlock: UVAHIK_clean_linker_0, # of connection points: 2
#     Edge 26, Type (0, 1), BuildingBlock: UVAHIK_clean_linker_0, # of connection points: 2
#     Edge 27, Type (0, 1), BuildingBlock: UVAHIK_clean_linker_0, # of connection points: 2
#     Edge 28, Type (0, 1), BuildingBlock: UVAHIK_clean_linker_0, # of connection points: 2
#     Edge 29, Type (0, 1), BuildingBlock: UVAHIK_clean_linker_0, # of connection points: 2
#     Edge 30, Type (0, 1), BuildingBlock: UVAHIK_clean_linker_0, # of connection points: 2
#     Edge 31, Type (0, 1), BuildingBlock: UVAHIK_clean_linker_0, # of connection points: 2
#     Edge 32, Type (0, 1), BuildingBlock: UVAHIK_clean_linker_0, # of connection points: 2
#     Edge 33, Type (0, 1), BuildingBlock: UVAHIK_clean_linker_0, # of connection points: 2
#     Edge 34, Type (0, 1), BuildingBlock: UVAHIK_clean_linker_0, # of connection points: 2
#     Edge 35, Type (0, 1), BuildingBlock: UVAHIK_clean_linker_0, # of connection points: 2
# Relax obj value: 0.027
# Max RMSD: 0.090
# Mean RMSD: 0.038
data_MOF--net-pyr--node1-BETDEL_clean_sbu_0--node2-ESEHIV_clean_linker_0--edge1-UVAHIK_clean_linker_0
_symmetry_space_group_name_H-M    P1
_symmetry_Int_Tables_number       1
_symmetry_cell_setting            triclinic
loop_
_symmetry_equiv_pos_as_xyz
'x, y, z'
_cell_length_a     45.655281
_cell_length_b     47.450391
_cell_length_c     43.78527
_cell_angle_alpha  91.788638
_cell_angle_beta   89.427406
_cell_angle_gamma 94.910816
loop_
_atom_site_label
_atom_site_type_symbol
_atom_site_fract_x
_atom_site_fract_y
_atom_site_fract_z
_atom_type_partial_charge
H0 H 0.16242 0.21981 0.18389 0.0
H1 H 0.22044 0.1545 0.19533 0.0
H2 H 0.24518 0.22289 0.13557 0.0
C3 C 0.18332 0.21123 0.17919 0.0
C4 C 0.20345 0.2249 0.15888 0.0
C5 C 0.18915 0.18573 0.19218 0.0
C6 C 0.21557 0.17399 0.18493 0.0
C7 C 0.23582 0.18713 0.16445 0.0
C8 C 0.22977 0.21276 0.15164 0.0
H9 H 0.24352 0.85013 0.69798 0.0
H10 H 0.31343 0.7954 0.70047 0.0
H11 H 0.25897 0.79442 0.62095 0.0
C12 C 0.25601 0.83426 0.68689 0.0
C13 C 0.24839 0.82391 0.65731 0.0
C14 C 0.27974 0.82454 0.70239 0.0
C15 C 0.29505 0.80304 0.68868 0.0
C16 C 0.28732 0.79169 0.65958 0.0
C17 C 0.26405 0.8023 0.64394 0.0
H18 H 0.67851 0.30776 0.87859 0.0
H19 H 0.68112 0.3719 0.81116 0.0
H20 H 0.60979 0.30662 0.81177 0.0
C21 C 0.66916 0.3166 0.85874 0.0
C22 C 0.64272 0.30378 0.84651 0.0
C23 C 0.68318 0.34124 0.84631 0.0
C24 C 0.6704 0.35307 0.82114 0.0
C25 C 0.64379 0.34089 0.80877 0.0
C26 C 0.62998 0.31635 0.82169 0.0
H27 H 0.80963 0.68677 0.37634 0.0
H28 H 0.87484 0.68782 0.30497 0.0
H29 H 0.80746 0.61865 0.30926 0.0
C30 C 0.81907 0.67675 0.35642 0.0
C31 C 0.80599 0.65073 0.345 0.0
C32 C 0.84374 0.69038 0.34203 0.0
C33 C 0.85527 0.67777 0.31556 0.0
C34 C 0.84238 0.65183 0.3034 0.0
C35 C 0.81763 0.63858 0.31831 0.0
H36 H 0.75278 0.82768 0.79285 0.0
H37 H 0.82041 0.77085 0.80085 0.0
H38 H 0.74553 0.76437 0.86128 0.0
C39 C 0.76112 0.80955 0.80323 0.0
C40 C 0.74586 0.79689 0.82793 0.0
C41 C 0.78805 0.80023 0.79325 0.0
C42 C 0.79894 0.77723 0.80743 0.0
C43 C 0.78372 0.76397 0.83181 0.0
C44 C 0.75715 0.77398 0.84201 0.0
H45 H 0.70026 0.22385 0.2972 0.0
H46 H 0.76941 0.16884 0.30628 0.0
H47 H 0.75489 0.23155 0.37678 0.0
C48 C 0.71863 0.21719 0.3098 0.0
C49 C 0.7259 0.23044 0.33815 0.0
C50 C 0.73433 0.19509 0.29795 0.0
C51 C 0.75759 0.18624 0.31501 0.0
C52 C 0.76513 0.19902 0.34362 0.0
C53 C 0.74937 0.22146 0.3548 0.0
H54 H 0.32487 0.70578 0.12865 0.0
H55 H 0.32854 0.63456 0.18691 0.0
H56 H 0.39203 0.70644 0.1967 0.0
C57 C 0.33523 0.69511 0.14664 0.0
C58 C 0.36016 0.70884 0.16098 0.0
C59 C 0.32318 0.66839 0.15595 0.0
C60 C 0.33696 0.65538 0.1798 0.0
C61 C 0.36148 0.66908 0.19493 0.0
C62 C 0.37279 0.69596 0.18555 0.0
H63 H 0.12833 0.31703 0.70045 0.0
H64 H 0.19265 0.31996 0.62783 0.0
H65 H 0.18887 0.39072 0.69135 0.0
C66 C 0.14676 0.32792 0.68865 0.0
C67 C 0.15759 0.35505 0.6991 0.0
C68 C 0.15876 0.31538 0.66238 0.0
C69 C 0.1825 0.33004 0.64728 0.0
C70 C 0.19377 0.35717 0.65757 0.0
C71 C 0.18083 0.36964 0.68335 0.0
Dy72 Dy 0.00685 0.01196 0.47415 0.0
C73 C 0.97062 0.9664 0.58893 0.0
C74 C 0.02031 0.0384 0.42092 0.0
Dy75 Dy 0.98453 0.99494 0.53705 0.0
O76 O 0.02564 0.0127 0.42667 0.0
O77 O 0.00765 0.04982 0.44431 0.0
O78 O 0.03668 0.97667 0.47292 0.0
O79 O 0.02726 0.99674 0.51474 0.0
C80 C 0.03938 0.97645 0.50234 0.0
C81 C 0.95205 0.03059 0.50903 0.0
O82 O 0.01785 0.02999 0.55141 0.0
O83 O 0.02304 0.04984 0.50369 0.0
O84 O 0.96242 0.99114 0.58293 0.0
O85 O 0.98677 0.95739 0.56675 0.0
O86 O 0.95437 0.02995 0.53849 0.0
O87 O 0.96426 0.01038 0.49653 0.0
O88 O 0.97277 0.97754 0.46008 0.0
O89 O 0.96886 0.95701 0.50737 0.0
C90 C 0.02706 0.05121 0.53373 0.0
C91 C 0.96434 0.95591 0.47745 0.0
Dy92 Dy 0.53299 0.01706 0.02745 0.0
C93 C 0.43539 0.96706 0.95134 0.0
C94 C 0.57929 0.04832 0.05362 0.0
Dy95 Dy 0.47888 0.99568 0.98493 0.0
O96 O 0.57726 0.02099 0.04948 0.0
O97 O 0.55604 0.05873 0.04315 0.0
O98 O 0.52607 0.98285 0.06284 0.0
O99 O 0.49776 0.98431 0.02681 0.0
C100 C 0.50265 0.97054 0.0499 0.0
C101 C 0.50562 0.04712 0.97388 0.0
O102 O 0.45639 0.0122 0.02631 0.0
O103 O 0.49617 0.04179 0.04482 0.0
O104 O 0.44328 0.9939 0.94993 0.0
O105 O 0.45123 0.95565 0.9713 0.0
O106 O 0.47781 0.04017 0.96951 0.0
O107 O 0.51812 0.02573 0.98161 0.0
O108 O 0.5556 0.99313 0.99079 0.0
O109 O 0.51498 0.97229 0.96364 0.0
C110 C 0.46762 0.03354 0.0441 0.0
C111 C 0.54362 0.97536 0.96945 0.0
Dy112 Dy 0.51053 0.48103 0.48194 0.0
C113 C 0.45691 0.56558 0.55405 0.0
C114 C 0.54506 0.44519 0.45138 0.0
Dy115 Dy 0.49042 0.5285 0.52406 0.0
O116 O 0.51666 0.44119 0.45415 0.0
O117 O 0.55449 0.46888 0.46498 0.0
O118 O 0.46392 0.46174 0.4781 0.0
O119 O 0.47802 0.48351 0.51847 0.0
C120 C 0.45601 0.47168 0.50466 0.0
C121 C 0.54493 0.5376 0.50117 0.0
O122 O 0.50488 0.50017 0.55997 0.0
O123 O 0.53174 0.47279 0.527 0.0
O124 O 0.48547 0.56766 0.55332 0.0
O125 O 0.4467 0.54299 0.53884 0.0
O126 O 0.53726 0.54725 0.52793 0.0
O127 O 0.52275 0.52604 0.48746 0.0
O128 O 0.49445 0.50819 0.44579 0.0
O129 O 0.47003 0.53763 0.47891 0.0
C130 C 0.52421 0.48113 0.55507 0.0
C131 C 0.47634 0.52831 0.45085 0.0
Dy132 Dy 0.01044 0.47697 0.01581 0.0
C133 C 0.96915 0.57685 0.96931 0.0
C134 C 0.03891 0.43134 0.03097 0.0
Dy135 Dy 0.99586 0.53121 0.98784 0.0
O136 O 0.02046 0.44365 0.04852 0.0
O137 O 0.04137 0.4436 0.00488 0.0
O138 O 0.97386 0.4796 0.04975 0.0
O139 O 0.99682 0.51709 0.03461 0.0
C140 C 0.97535 0.50711 0.05053 0.0
C141 C 0.03056 0.49997 0.95357 0.0
O142 O 0.03556 0.54953 0.01305 0.0
O143 O 0.0513 0.50605 0.0254 0.0
O144 O 0.98504 0.56138 0.95206 0.0
O145 O 0.96819 0.56769 0.99695 0.0
O146 O 0.03334 0.52746 0.95471 0.0
O147 O 0.00865 0.49092 0.96924 0.0
O148 O 0.97117 0.45906 0.98957 0.0
O149 O 0.95408 0.5027 0.98085 0.0
C150 C 0.05547 0.53404 0.02427 0.0
C151 C 0.95038 0.47461 0.98031 0.0
C152 C 0.15254 0.18565 0.23529 0.0
C153 C 0.16725 0.17076 0.21244 0.0
C154 C 0.13267 0.17122 0.255 0.0
C155 C 0.11725 0.10132 0.28698 0.0
H156 H 0.0432 0.12903 0.31298 0.0
C157 C 0.04137 0.03777 0.36848 0.0
C158 C 0.03007 0.05309 0.39314 0.0
C159 C 0.05401 0.05185 0.34352 0.0
C160 C 0.06389 0.12114 0.30603 0.0
H161 H 0.17158 0.12937 0.19125 0.0
H162 H 0.13708 0.1042 0.22577 0.0
H163 H 0.07359 0.15464 0.27477 0.0
H164 H 0.0216 0.09483 0.41067 0.0
H165 H 0.04445 0.11967 0.36728 0.0
H166 H 0.10824 0.06835 0.31857 0.0
C167 C 0.14128 0.12693 0.22878 0.0
C168 C 0.08124 0.13578 0.2842 0.0
C169 C 0.16109 0.14132 0.20911 0.0
C170 C 0.03025 0.0826 0.39186 0.0
C171 C 0.04318 0.09677 0.36696 0.0
C172 C 0.10005 0.08681 0.3088 0.0
C173 C 0.12719 0.14167 0.25218 0.0
C174 C 0.10812 0.12599 0.27454 0.0
C175 C 0.05591 0.08155 0.34293 0.0
C176 C 0.0732 0.09654 0.31862 0.0
H177 H 0.157 0.20834 0.23847 0.0
H178 H 0.12233 0.18307 0.27304 0.0
H179 H 0.13814 0.09359 0.28043 0.0
H180 H 0.04115 0.01493 0.36883 0.0
H181 H 0.063 0.03949 0.32502 0.0
C182 C 0.29086 0.86787 0.7358 0.0
C183 C 0.28991 0.83829 0.73182 0.0
C184 C 0.30283 0.88128 0.76217 0.0
C185 C 0.32653 0.86967 0.84119 0.0
H186 H 0.3785 0.93705 0.82698 0.0
C187 C 0.40994 0.92205 0.92994 0.0
C188 C 0.4137 0.95173 0.9309 0.0
C189 C 0.39168 0.90774 0.90797 0.0
C190 C 0.36374 0.91851 0.83145 0.0
H191 H 0.29959 0.79953 0.75317 0.0
H192 H 0.32134 0.8231 0.79893 0.0
H193 H 0.35236 0.91296 0.78438 0.0
H194 H 0.40026 0.98982 0.91105 0.0
H195 H 0.3682 0.96496 0.87307 0.0
H196 H 0.33858 0.87514 0.88839 0.0
C197 C 0.3125 0.83585 0.78173 0.0
C198 C 0.34871 0.90469 0.80701 0.0
C199 C 0.30036 0.82238 0.75535 0.0
C200 C 0.39794 0.9669 0.9106 0.0
C201 C 0.37971 0.95267 0.88877 0.0
C202 C 0.3417 0.88351 0.86575 0.0
C203 C 0.31439 0.86551 0.78513 0.0
C204 C 0.32985 0.88017 0.81156 0.0
C205 C 0.37696 0.92295 0.88669 0.0
C206 C 0.36038 0.90815 0.86109 0.0
H207 H 0.28331 0.88084 0.71805 0.0
H208 H 0.3035 0.90413 0.76431 0.0
H209 H 0.312 0.85092 0.84546 0.0
H210 H 0.42188 0.90991 0.94541 0.0
H211 H 0.39009 0.88482 0.90682 0.0
C212 C 0.64785 0.36081 0.75632 0.0
C213 C 0.63066 0.35394 0.78224 0.0
C214 C 0.63595 0.37406 0.73176 0.0
C215 C 0.56442 0.39174 0.69879 0.0
H216 H 0.61557 0.44469 0.6528 0.0
C217 C 0.52218 0.46738 0.61011 0.0
C218 C 0.53654 0.4674 0.58153 0.0
C219 C 0.53331 0.4535 0.63472 0.0
C220 C 0.60106 0.42985 0.66535 0.0
H221 H 0.58755 0.3556 0.80285 0.0
H222 H 0.56695 0.37968 0.76062 0.0
H223 H 0.6353 0.42082 0.6955 0.0
H224 H 0.57414 0.45325 0.5566 0.0
H225 H 0.59391 0.42968 0.59978 0.0
H226 H 0.52999 0.40174 0.66896 0.0
C227 C 0.58942 0.37415 0.75865 0.0
C228 C 0.61238 0.41594 0.68978 0.0
C229 C 0.60122 0.36043 0.78301 0.0
C230 C 0.56251 0.4536 0.57827 0.0
C231 C 0.57391 0.44019 0.60302 0.0
C232 C 0.55301 0.40604 0.67466 0.0
C233 C 0.60664 0.3813 0.73265 0.0
C234 C 0.59431 0.39647 0.70678 0.0
C235 C 0.55933 0.43982 0.63146 0.0
C236 C 0.57125 0.4251 0.65755 0.0
H237 H 0.67052 0.35574 0.75495 0.0
H238 H 0.64981 0.37843 0.71198 0.0
H239 H 0.54981 0.37661 0.7108 0.0
H240 H 0.50206 0.47768 0.61336 0.0
H241 H 0.5217 0.4537 0.65641 0.0
C242 C 0.8669 0.6549 0.25148 0.0
C243 C 0.85503 0.63835 0.27552 0.0
C244 C 0.8789 0.6422 0.22549 0.0
C245 C 0.87616 0.57555 0.18052 0.0
H246 H 0.9539 0.60218 0.15168 0.0
C247 C 0.94009 0.50986 0.09419 0.0
C248 C 0.95935 0.52377 0.07328 0.0
C249 C 0.92618 0.52516 0.11702 0.0
C250 C 0.93194 0.59475 0.15899 0.0
H251 H 0.84716 0.59527 0.29094 0.0
H252 H 0.86718 0.57323 0.24525 0.0
H253 H 0.93185 0.62659 0.19486 0.0
H254 H 0.97867 0.5647 0.05937 0.0
H255 H 0.95354 0.59166 0.09858 0.0
H256 H 0.87583 0.54401 0.14458 0.0
C257 C 0.86703 0.59606 0.24656 0.0
C258 C 0.91938 0.60871 0.18386 0.0
C259 C 0.85542 0.60874 0.27272 0.0
C260 C 0.96391 0.55342 0.07519 0.0
C261 C 0.9497 0.56882 0.09788 0.0
C262 C 0.88851 0.56183 0.15543 0.0
C263 C 0.87894 0.61263 0.2227 0.0
C264 C 0.89156 0.59897 0.19517 0.0
C265 C 0.93086 0.55486 0.11933 0.0
C266 C 0.9168 0.57091 0.1446 0.0
H267 H 0.8666 0.6777 0.25252 0.0
H268 H 0.88773 0.65547 0.20732 0.0
H269 H 0.85447 0.56785 0.18846 0.0
H270 H 0.93623 0.487 0.09338 0.0
H271 H 0.91233 0.51353 0.13336 0.0
C272 C 0.26018 0.14395 0.14838 0.0
C273 C 0.26247 0.1731 0.15551 0.0
C274 C 0.28507 0.13023 0.14057 0.0
C275 C 0.36032 0.14256 0.11077 0.0
H276 H 0.36612 0.06624 0.13809 0.0
C277 C 0.45639 0.07654 0.07512 0.0
C278 C 0.44728 0.04949 0.06287 0.0
C279 C 0.43641 0.09256 0.09073 0.0
C280 C 0.36479 0.08755 0.13033 0.0
H281 H 0.29254 0.21087 0.15988 0.0
H282 H 0.33639 0.18675 0.14623 0.0
H283 H 0.32641 0.09328 0.15738 0.0
H284 H 0.41044 0.0176 0.05841 0.0
H285 H 0.37569 0.04551 0.08578 0.0
H286 H 0.39854 0.13656 0.08338 0.0
C287 C 0.31521 0.17459 0.14653 0.0
C288 C 0.34204 0.103 0.14127 0.0
C289 C 0.29017 0.18839 0.1543 0.0
C290 C 0.41811 0.03841 0.06746 0.0
C291 C 0.39825 0.0543 0.08332 0.0
C292 C 0.38322 0.12714 0.09997 0.0
C293 C 0.3129 0.14531 0.13975 0.0
C294 C 0.33909 0.13039 0.13098 0.0
C295 C 0.40709 0.08168 0.09469 0.0
C296 C 0.38521 0.09924 0.10908 0.0
H297 H 0.23901 0.13174 0.14852 0.0
H298 H 0.2824 0.10782 0.13468 0.0
H299 H 0.35852 0.16351 0.10222 0.0
H300 H 0.47873 0.08569 0.07193 0.0
H301 H 0.44379 0.11356 0.09946 0.0
C302 C 0.2062 0.82027 0.61996 0.0
C303 C 0.22496 0.83669 0.64022 0.0
C304 C 0.18417 0.8326 0.60432 0.0
C305 C 0.13522 0.88771 0.61042 0.0
H306 H 0.1381 0.89299 0.52227 0.0
C307 C 0.06706 0.96451 0.54835 0.0
C308 C 0.05763 0.95765 0.51847 0.0
C309 C 0.08552 0.94734 0.56309 0.0
C310 C 0.13644 0.89122 0.54682 0.0
H311 H 0.23573 0.87939 0.6587 0.0
H312 H 0.19641 0.90022 0.63273 0.0
H313 H 0.17353 0.86633 0.54795 0.0
H314 H 0.05891 0.92704 0.48087 0.0
H315 H 0.09002 0.89628 0.50698 0.0
H316 H 0.09792 0.9119 0.60968 0.0
C317 C 0.19886 0.87784 0.6291 0.0
C318 C 0.15688 0.87605 0.56146 0.0
C319 C 0.22122 0.86575 0.64416 0.0
C320 C 0.0662 0.93292 0.50385 0.0
C321 C 0.08421 0.91542 0.51878 0.0
C322 C 0.1144 0.90237 0.5958 0.0
C323 C 0.18017 0.86139 0.60914 0.0
C324 C 0.15673 0.87467 0.59338 0.0
C325 C 0.09447 0.92258 0.54848 0.0
C326 C 0.11509 0.90488 0.56383 0.0
H327 H 0.20817 0.79782 0.6165 0.0
H328 H 0.1699 0.81958 0.58894 0.0
H329 H 0.13468 0.88671 0.63511 0.0
H330 H 0.0608 0.98355 0.56008 0.0
H331 H 0.09333 0.95397 0.58566 0.0
C332 C 0.7155 0.38431 0.86371 0.0
C333 C 0.71096 0.35472 0.85988 0.0
C334 C 0.74131 0.39693 0.87702 0.0
C335 C 0.81811 0.38356 0.89459 0.0
H336 H 0.81347 0.44728 0.95156 0.0
C337 C 0.91837 0.43073 0.96504 0.0
C338 C 0.92258 0.4604 0.96788 0.0
C339 C 0.89246 0.41749 0.95245 0.0
C340 C 0.81521 0.42968 0.93547 0.0
H341 H 0.73041 0.31527 0.86665 0.0
H342 H 0.77514 0.33722 0.89036 0.0
H343 H 0.76874 0.42501 0.92817 0.0
H344 H 0.90258 0.49938 0.95983 0.0
H345 H 0.85767 0.47634 0.9378 0.0
H346 H 0.86461 0.38827 0.9019 0.0
C347 C 0.75884 0.35071 0.88282 0.0
C348 C 0.78954 0.41692 0.92202 0.0
C349 C 0.73301 0.3381 0.86953 0.0
C350 C 0.90013 0.47648 0.95809 0.0
C351 C 0.87424 0.46325 0.94558 0.0
C352 C 0.84379 0.39632 0.90807 0.0
C353 C 0.76329 0.3803 0.88684 0.0
C354 C 0.79065 0.39375 0.90133 0.0
C355 C 0.8701 0.43359 0.94248 0.0
C356 C 0.84269 0.41961 0.92861 0.0
H357 H 0.69888 0.39776 0.85684 0.0
H358 H 0.74412 0.41978 0.87941 0.0
H359 H 0.81987 0.36603 0.87844 0.0
H360 H 0.93514 0.41765 0.97236 0.0
H361 H 0.88986 0.39459 0.95076 0.0
C362 C 0.77929 0.63655 0.39336 0.0
C363 C 0.78031 0.63633 0.36122 0.0
C364 C 0.75485 0.62401 0.40878 0.0
C365 C 0.69075 0.57178 0.40017 0.0
H366 H 0.65867 0.61464 0.46755 0.0
C367 C 0.57716 0.54 0.45468 0.0
C368 C 0.57343 0.54538 0.48614 0.0
C369 C 0.60339 0.54927 0.43995 0.0
C370 C 0.66758 0.60212 0.44916 0.0
H371 H 0.75635 0.62235 0.32017 0.0
H372 H 0.71382 0.60007 0.3472 0.0
H373 H 0.70245 0.6341 0.44084 0.0
H374 H 0.5945 0.56357 0.52713 0.0
H375 H 0.64059 0.57918 0.50166 0.0
H376 H 0.656 0.53968 0.4086 0.0
C377 C 0.73209 0.60991 0.36038 0.0
C378 C 0.69265 0.61336 0.43376 0.0
C379 C 0.75649 0.62265 0.34491 0.0
C380 C 0.59672 0.55936 0.5028 0.0
C381 C 0.62304 0.56847 0.48812 0.0
C382 C 0.66576 0.56041 0.41574 0.0
C383 C 0.73088 0.61072 0.39249 0.0
C384 C 0.70447 0.59839 0.40903 0.0
C385 C 0.62655 0.56398 0.45639 0.0
C386 C 0.65377 0.57549 0.44038 0.0
H387 H 0.79749 0.64633 0.40669 0.0
H388 H 0.75479 0.62458 0.43354 0.0
H389 H 0.69955 0.5596 0.38142 0.0
H390 H 0.55953 0.52926 0.44126 0.0
H391 H 0.6051 0.54568 0.41548 0.0
C392 C 0.19922 0.25341 0.11211 0.0
C393 C 0.1956 0.2507 0.14382 0.0
C394 C 0.18767 0.27563 0.09733 0.0
C395 C 0.1542 0.34384 0.11139 0.0
H396 H 0.10951 0.32078 0.03858 0.0
C397 C 0.05776 0.40261 0.07174 0.0
C398 C 0.05753 0.40963 0.04087 0.0
C399 C 0.07767 0.38439 0.082 0.0
C400 C 0.1222 0.32759 0.05865 0.0
H401 H 0.179 0.27017 0.1852 0.0
H402 H 0.15819 0.30835 0.15951 0.0
H403 H 0.14122 0.28809 0.06077 0.0
H404 H 0.07706 0.4026 0.99626 0.0
H405 H 0.1116 0.37001 0.0142 0.0
H406 H 0.13401 0.38285 0.10997 0.0
C407 C 0.17014 0.29361 0.14594 0.0
C408 C 0.14051 0.30898 0.0713 0.0
C409 C 0.18177 0.27152 0.16067 0.0
C410 C 0.07682 0.39741 0.02018 0.0
C411 C 0.09654 0.37885 0.0304 0.0
C412 C 0.13568 0.36228 0.09894 0.0
C413 C 0.17226 0.29551 0.114 0.0
C414 C 0.15621 0.31667 0.09821 0.0
C415 C 0.09746 0.37263 0.06151 0.0
C416 C 0.11906 0.35408 0.07287 0.0
H417 H 0.20967 0.23761 0.09849 0.0
H418 H 0.19007 0.27677 0.07276 0.0
H419 H 0.16646 0.35063 0.13175 0.0
H420 H 0.04311 0.41181 0.08814 0.0
H421 H 0.07767 0.37954 0.10602 0.0
C422 C 0.6461 0.25597 0.86908 0.0
C423 C 0.62872 0.27722 0.85974 0.0
C424 C 0.63323 0.23135 0.88221 0.0
C425 C 0.56268 0.18729 0.88861 0.0
H426 H 0.59936 0.15652 0.9583 0.0
C427 C 0.504 0.09601 0.95518 0.0
C428 C 0.52074 0.07433 0.96441 0.0
C429 C 0.51765 0.12102 0.94375 0.0
C430 C 0.589 0.16463 0.93864 0.0
H431 H 0.58401 0.28905 0.85707 0.0
H432 H 0.56152 0.24602 0.8798 0.0
H433 H 0.62198 0.19939 0.93531 0.0
H434 H 0.56498 0.06216 0.96986 0.0
H435 H 0.58902 0.10588 0.94949 0.0
H436 H 0.52983 0.15255 0.89171 0.0
C437 C 0.58516 0.24832 0.87668 0.0
C438 C 0.60196 0.18925 0.92546 0.0
C439 C 0.59805 0.27301 0.8636 0.0
C440 C 0.55154 0.07853 0.96288 0.0
C441 C 0.56527 0.10363 0.9513 0.0
C442 C 0.54977 0.16269 0.90173 0.0
C443 C 0.6026 0.22721 0.88627 0.0
C444 C 0.58891 0.20095 0.90032 0.0
C445 C 0.54844 0.12501 0.9411 0.0
C446 C 0.56265 0.15107 0.92702 0.0
H447 H 0.66974 0.2582 0.86596 0.0
H448 H 0.6473 0.21535 0.8888 0.0
H449 H 0.55229 0.19537 0.86895 0.0
H450 H 0.48021 0.0935 0.95637 0.0
H451 H 0.50398 0.13722 0.93684 0.0
C452 C 0.86111 0.72158 0.38674 0.0
C453 C 0.85746 0.71768 0.355 0.0
C454 C 0.87299 0.74747 0.3992 0.0
C455 C 0.88494 0.82341 0.38277 0.0
H456 H 0.93951 0.82492 0.45021 0.0
C457 C 0.94638 0.92702 0.43125 0.0
C458 C 0.95001 0.9296 0.4631 0.0
C459 C 0.93469 0.90151 0.41758 0.0
C460 C 0.92402 0.82488 0.43163 0.0
H461 H 0.86362 0.73794 0.31144 0.0
H462 H 0.88479 0.78314 0.3332 0.0
H463 H 0.92086 0.77971 0.42695 0.0
H464 H 0.94348 0.90749 0.50561 0.0
H465 H 0.92279 0.86326 0.48184 0.0
H466 H 0.88807 0.86864 0.38755 0.0
C467 C 0.87816 0.76619 0.34846 0.0
C468 C 0.91336 0.79895 0.41826 0.0
C469 C 0.86633 0.74021 0.33596 0.0
C470 C 0.94111 0.90627 0.48101 0.0
C471 C 0.92943 0.88079 0.46735 0.0
C472 C 0.89561 0.84939 0.39618 0.0
C473 C 0.88152 0.77016 0.38025 0.0
C474 C 0.89357 0.79787 0.39377 0.0
C475 C 0.92639 0.87798 0.43544 0.0
C476 C 0.91516 0.85043 0.42089 0.0
H477 H 0.85481 0.70455 0.40203 0.0
H478 H 0.875 0.74985 0.42379 0.0
H479 H 0.86943 0.82332 0.36421 0.0
H480 H 0.95308 0.94452 0.41673 0.0
H481 H 0.9329 0.90002 0.39293 0.0
C482 C 0.33498 0.77111 0.64738 0.0
C483 C 0.30415 0.76914 0.64552 0.0
C484 C 0.35082 0.74907 0.63621 0.0
C485 C 0.34275 0.67249 0.6187 0.0
H486 H 0.41753 0.68765 0.57705 0.0
C487 C 0.40809 0.58417 0.56406 0.0
C488 C 0.4388 0.58735 0.56697 0.0
C489 C 0.39109 0.60594 0.57381 0.0
C490 C 0.39685 0.68308 0.58897 0.0
H491 H 0.26581 0.74285 0.62975 0.0
H492 H 0.29358 0.70434 0.60976 0.0
H493 H 0.38868 0.72682 0.59191 0.0
H494 H 0.47583 0.61526 0.5831 0.0
H495 H 0.44615 0.65316 0.60055 0.0
H496 H 0.35101 0.62874 0.61585 0.0
C497 C 0.30543 0.72284 0.62027 0.0
C498 C 0.38028 0.70552 0.59741 0.0
C499 C 0.28955 0.74498 0.63141 0.0
C500 C 0.45218 0.61231 0.58054 0.0
C501 C 0.4352 0.63408 0.59028 0.0
C502 C 0.35933 0.65002 0.61024 0.0
C503 C 0.33622 0.72452 0.62286 0.0
C504 C 0.35313 0.70052 0.61254 0.0
C505 C 0.4045 0.63131 0.58663 0.0
C506 C 0.38667 0.65508 0.59546 0.0
H507 H 0.34688 0.78964 0.65776 0.0
H508 H 0.37448 0.75097 0.63878 0.0
H509 H 0.32212 0.66796 0.63073 0.0
H510 H 0.39725 0.56514 0.55356 0.0
H511 H 0.36754 0.60321 0.57046 0.0
C512 C 0.80968 0.84613 0.77262 0.0
C513 C 0.80664 0.8164 0.77072 0.0
C514 C 0.8296 0.86139 0.75375 0.0
C515 C 0.87367 0.85587 0.68293 0.0
H516 H 0.91841 0.92182 0.71853 0.0
C517 C 0.96273 0.92016 0.61445 0.0
C518 C 0.95896 0.9492 0.61433 0.0
C519 C 0.94765 0.90294 0.63575 0.0
C520 C 0.90606 0.90345 0.70833 0.0
H521 H 0.82138 0.77944 0.74674 0.0
H522 H 0.85671 0.8061 0.71424 0.0
H523 H 0.88376 0.89347 0.75027 0.0
H524 H 0.93809 0.98344 0.6372 0.0
H525 H 0.91196 0.95341 0.67463 0.0
H526 H 0.89597 0.86599 0.64096 0.0
C527 C 0.84347 0.81761 0.73013 0.0
C528 C 0.8861 0.88731 0.7264 0.0
C529 C 0.8234 0.80233 0.74891 0.0
C530 C 0.94132 0.96107 0.63687 0.0
C531 C 0.92647 0.94392 0.65832 0.0
C532 C 0.89379 0.87191 0.66492 0.0
C533 C 0.84711 0.84731 0.73268 0.0
C534 C 0.86933 0.8636 0.71378 0.0
C535 C 0.92884 0.91457 0.65741 0.0
C536 C 0.90986 0.89607 0.67735 0.0
H537 H 0.79743 0.85764 0.78944 0.0
H538 H 0.83146 0.88428 0.75588 0.0
H539 H 0.8609 0.83792 0.67243 0.0
H540 H 0.97626 0.91054 0.59727 0.0
H541 H 0.95009 0.88042 0.6348 0.0
C542 C 0.72571 0.15076 0.26514 0.0
C543 C 0.72526 0.18028 0.26863 0.0
C544 C 0.71521 0.13659 0.23851 0.0
C545 C 0.69058 0.14767 0.15887 0.0
H546 H 0.64549 0.07585 0.1712 0.0
C547 C 0.60243 0.09377 0.07623 0.0
C548 C 0.60248 0.06436 0.07164 0.0
C549 C 0.62206 0.10824 0.09679 0.0
C550 C 0.65834 0.0957 0.16732 0.0
H551 H 0.71459 0.21812 0.24601 0.0
H552 H 0.69469 0.19328 0.20045 0.0
H553 H 0.67075 0.10034 0.2141 0.0
H554 H 0.62394 0.02719 0.08346 0.0
H555 H 0.65794 0.05241 0.11961 0.0
H556 H 0.67657 0.14335 0.11216 0.0
C557 C 0.70378 0.18108 0.21798 0.0
C558 C 0.67299 0.10974 0.19189 0.0
C559 C 0.71477 0.19531 0.24441 0.0
C560 C 0.62337 0.04987 0.0867 0.0
C561 C 0.64274 0.06424 0.10743 0.0
C562 C 0.67549 0.13377 0.13433 0.0
C563 C 0.70342 0.15146 0.21489 0.0
C564 C 0.68923 0.13597 0.18809 0.0
C565 C 0.64176 0.09342 0.11322 0.0
C566 C 0.65919 0.1077 0.13841 0.0
H567 H 0.73329 0.13834 0.28334 0.0
H568 H 0.7159 0.11384 0.23674 0.0
H569 H 0.70321 0.16761 0.15494 0.0
H570 H 0.58653 0.1054 0.06483 0.0
H571 H 0.62079 0.13072 0.10099 0.0
C572 C 0.38085 0.66993 0.24856 0.0
C573 C 0.37506 0.65518 0.22064 0.0
C574 C 0.39217 0.65635 0.27326 0.0
C575 C 0.43363 0.59647 0.29319 0.0
H576 H 0.3957 0.60311 0.37237 0.0
C577 C 0.46499 0.52995 0.39482 0.0
C578 C 0.46423 0.54228 0.4244 0.0
C579 C 0.45401 0.5435 0.3699 0.0
C580 C 0.40695 0.60133 0.35061 0.0
H581 H 0.37739 0.61489 0.19644 0.0
H582 H 0.39761 0.5913 0.23942 0.0
H583 H 0.37796 0.62791 0.32927 0.0
H584 H 0.45158 0.57877 0.45083 0.0
H585 H 0.43347 0.60275 0.40754 0.0
H586 H 0.46312 0.57054 0.31446 0.0
C587 C 0.3932 0.6133 0.24226 0.0
C588 C 0.39664 0.61552 0.32584 0.0
C589 C 0.38146 0.62674 0.21774 0.0
C590 C 0.45227 0.56849 0.42843 0.0
C591 C 0.44168 0.58221 0.4035 0.0
C592 C 0.44423 0.58259 0.31806 0.0
C593 C 0.3984 0.62785 0.27041 0.0
C594 C 0.40979 0.61318 0.29683 0.0
C595 C 0.44232 0.56994 0.37381 0.0
C596 C 0.431 0.58473 0.34717 0.0
H597 H 0.37599 0.6918 0.25151 0.0
H598 H 0.39616 0.66817 0.29459 0.0
H599 H 0.4444 0.59449 0.27117 0.0
H600 H 0.47388 0.50969 0.39091 0.0
H601 H 0.45444 0.53302 0.34761 0.0
C602 C 0.13224 0.39445 0.72418 0.0
C603 C 0.14441 0.3684 0.72635 0.0
C604 C 0.11985 0.40715 0.74991 0.0
C605 C 0.12461 0.41491 0.8317 0.0
H606 H 0.04358 0.43375 0.83045 0.0
C607 C 0.07166 0.49328 0.91663 0.0
C608 C 0.04539 0.48259 0.93062 0.0
C609 C 0.08464 0.47761 0.89336 0.0
C610 C 0.0662 0.42851 0.8311 0.0
H611 H 0.15362 0.33531 0.75689 0.0
H612 H 0.13277 0.35813 0.80236 0.0
H613 H 0.06441 0.40996 0.78574 0.0
H614 H 0.0123 0.44701 0.93173 0.0
H615 H 0.03454 0.42005 0.89025 0.0
H616 H 0.12668 0.43441 0.87666 0.0
C617 C 0.13248 0.36841 0.78063 0.0
C618 C 0.0781 0.41506 0.80556 0.0
C619 C 0.14424 0.35536 0.75472 0.0
C620 C 0.03258 0.45574 0.92133 0.0
C621 C 0.0452 0.44037 0.89759 0.0
C622 C 0.11291 0.42898 0.85698 0.0
C623 C 0.12006 0.39434 0.77838 0.0
C624 C 0.10738 0.40812 0.80566 0.0
C625 C 0.07121 0.45127 0.88326 0.0
C626 C 0.08358 0.43583 0.8569 0.0
H627 H 0.13209 0.40483 0.70249 0.0
H628 H 0.11048 0.4272 0.74769 0.0
H629 H 0.14729 0.40985 0.8322 0.0
H630 H 0.08198 0.51389 0.92346 0.0
H631 H 0.10466 0.48647 0.88255 0.0
C632 C 0.72084 0.81829 0.87259 0.0
C633 C 0.72052 0.81029 0.84145 0.0
C634 C 0.69962 0.83499 0.88469 0.0
C635 C 0.62682 0.85792 0.87693 0.0
H636 H 0.66019 0.9286 0.91406 0.0
C637 C 0.55394 0.94354 0.92447 0.0
C638 C 0.56327 0.9577 0.95179 0.0
C639 C 0.57236 0.92591 0.90869 0.0
C640 C 0.65044 0.90883 0.90418 0.0
H641 H 0.69708 0.81208 0.79886 0.0
H642 H 0.65927 0.84092 0.82042 0.0
H643 H 0.69258 0.89502 0.89222 0.0
H644 H 0.59908 0.96423 0.98416 0.0
H645 H 0.63058 0.93299 0.95744 0.0
H646 H 0.58468 0.8711 0.88995 0.0
C647 C 0.67615 0.83439 0.83523 0.0
C648 C 0.66902 0.88971 0.89155 0.0
C649 C 0.69771 0.81802 0.82295 0.0
C650 C 0.59134 0.95394 0.96296 0.0
C651 C 0.60952 0.93608 0.94748 0.0
C652 C 0.60814 0.87688 0.89008 0.0
C653 C 0.6775 0.84364 0.86597 0.0
C654 C 0.65739 0.864 0.87816 0.0
C655 C 0.60032 0.92183 0.92014 0.0
C656 C 0.61978 0.90243 0.90422 0.0
H657 H 0.73838 0.81288 0.88723 0.0
H658 H 0.70093 0.84182 0.90852 0.0
H659 H 0.61745 0.83816 0.86665 0.0
H660 H 0.53244 0.94609 0.91523 0.0
H661 H 0.5647 0.91559 0.88749 0.0
C662 C 0.78406 0.18486 0.39419 0.0
C663 C 0.78803 0.18742 0.36247 0.0
C664 C 0.80387 0.17112 0.41137 0.0
C665 C 0.8774 0.1417 0.40783 0.0
H666 H 0.84319 0.0939 0.47143 0.0
C667 C 0.93492 0.05059 0.46082 0.0
C668 C 0.93476 0.05024 0.49288 0.0
C669 C 0.91853 0.06938 0.44567 0.0
C670 C 0.85307 0.10734 0.4539 0.0
H671 H 0.8171 0.17893 0.32437 0.0
H672 H 0.85059 0.15373 0.35386 0.0
H673 H 0.81218 0.12356 0.44389 0.0
H674 H 0.91743 0.06903 0.53428 0.0
H675 H 0.88814 0.10133 0.50773 0.0
H676 H 0.91808 0.12425 0.41723 0.0
C677 C 0.8325 0.16274 0.36571 0.0
C678 C 0.83537 0.12453 0.4382 0.0
C679 C 0.81296 0.17686 0.34863 0.0
C680 C 0.91789 0.06886 0.50953 0.0
C681 C 0.90112 0.08728 0.49439 0.0
C682 C 0.89499 0.12412 0.42322 0.0
C683 C 0.82794 0.1592 0.39723 0.0
C684 C 0.84725 0.14193 0.41488 0.0
C685 C 0.90131 0.08773 0.46234 0.0
C686 C 0.88295 0.10676 0.44635 0.0
H687 H 0.76505 0.19249 0.40568 0.0
H688 H 0.79995 0.16943 0.43569 0.0
H689 H 0.88751 0.15513 0.39044 0.0
H690 H 0.94764 0.03634 0.44746 0.0
H691 H 0.91882 0.06917 0.42092 0.0
C692 C 0.2901 0.65816 0.11011 0.0
C693 C 0.29602 0.65433 0.1412 0.0
C694 C 0.2643 0.64561 0.09666 0.0
C695 C 0.21181 0.58527 0.09826 0.0
H696 H 0.15372 0.63196 0.06746 0.0
C697 C 0.09787 0.53568 0.06014 0.0
C698 C 0.08305 0.54826 0.0369 0.0
C699 C 0.12386 0.54895 0.07234 0.0
C700 C 0.16985 0.61846 0.07532 0.0
H701 H 0.27865 0.63416 0.18231 0.0
H702 H 0.2347 0.61106 0.15818 0.0
H703 H 0.19957 0.65419 0.08864 0.0
H704 H 0.08405 0.58439 0.00781 0.0
H705 H 0.13022 0.6069 0.02779 0.0
H706 H 0.18321 0.54948 0.08397 0.0
C707 C 0.25008 0.62411 0.14453 0.0
C708 C 0.19603 0.63131 0.08767 0.0
C709 C 0.27548 0.63719 0.15821 0.0
C710 C 0.09489 0.57432 0.02591 0.0
C711 C 0.12133 0.5873 0.03759 0.0
C712 C 0.186 0.57236 0.08526 0.0
C713 C 0.24419 0.62838 0.11373 0.0
C714 C 0.21705 0.61481 0.09953 0.0
C715 C 0.13622 0.57486 0.06109 0.0
C716 C 0.16437 0.58873 0.07391 0.0
H717 H 0.30548 0.67062 0.09594 0.0
H718 H 0.26026 0.64898 0.07276 0.0
H719 H 0.22789 0.57214 0.10705 0.0
H720 H 0.08908 0.51575 0.06935 0.0
H721 H 0.13398 0.53891 0.09091 0.0
C722 C 0.24167 0.38772 0.65846 0.0
C723 C 0.21932 0.37215 0.64168 0.0
C724 C 0.26619 0.40088 0.64365 0.0
C725 C 0.29404 0.42411 0.56742 0.0
H726 H 0.37022 0.42111 0.60496 0.0
C727 C 0.40466 0.44857 0.50336 0.0
C728 C 0.42742 0.46397 0.51958 0.0
C729 C 0.37831 0.43964 0.51812 0.0
C730 C 0.34908 0.42245 0.59434 0.0
H731 H 0.20501 0.35898 0.59592 0.0
H732 H 0.24817 0.38109 0.57022 0.0
H733 H 0.32624 0.40111 0.63094 0.0
H734 H 0.44023 0.4829 0.56367 0.0
H735 H 0.39428 0.4673 0.58945 0.0
H736 H 0.31718 0.44492 0.53045 0.0
C737 C 0.24657 0.38349 0.59484 0.0
C738 C 0.3238 0.41102 0.60927 0.0
C739 C 0.22197 0.37045 0.60964 0.0
C740 C 0.4231 0.47093 0.55062 0.0
C741 C 0.39686 0.46187 0.56542 0.0
C742 C 0.31938 0.43539 0.55238 0.0
C743 C 0.26913 0.39871 0.61166 0.0
C744 C 0.29593 0.41162 0.596 0.0
C745 C 0.3743 0.44582 0.54944 0.0
C746 C 0.34719 0.43463 0.56566 0.0
H747 H 0.24056 0.38927 0.68316 0.0
H748 H 0.28288 0.41276 0.65734 0.0
H749 H 0.27293 0.42537 0.5567 0.0
H750 H 0.40741 0.44297 0.47939 0.0
H751 H 0.36143 0.42715 0.50523 0.0
C752 C 0.81255 0.72149 0.83185 0.0
C753 C 0.79752 0.74176 0.84827 0.0
C754 C 0.8298 0.70362 0.84705 0.0
C755 C 0.84489 0.67303 0.92005 0.0
H756 H 0.92464 0.67419 0.88836 0.0
C757 C 0.9339 0.61381 0.97797 0.0
C758 C 0.95183 0.59902 0.95805 0.0
C759 C 0.91546 0.63298 0.96652 0.0
C760 C 0.9024 0.67338 0.89733 0.0
H761 H 0.78738 0.75805 0.89369 0.0
H762 H 0.81708 0.72616 0.92032 0.0
H763 H 0.88946 0.70201 0.86425 0.0
H764 H 0.96507 0.5928 0.91084 0.0
H765 H 0.93265 0.62563 0.89078 0.0
H766 H 0.85756 0.64372 0.95261 0.0
C767 C 0.81557 0.72436 0.89565 0.0
C768 C 0.88229 0.68933 0.88353 0.0
C769 C 0.79849 0.74248 0.8804 0.0
C770 C 0.95159 0.6041 0.9267 0.0
C771 C 0.93309 0.62305 0.91525 0.0
C772 C 0.86496 0.65675 0.9337 0.0
C773 C 0.8321 0.70546 0.87899 0.0
C774 C 0.85329 0.68903 0.8945 0.0
C775 C 0.91459 0.63753 0.93495 0.0
C776 C 0.89385 0.65647 0.92221 0.0
H777 H 0.81177 0.72008 0.80712 0.0
H778 H 0.84194 0.68882 0.83376 0.0
H779 H 0.82261 0.67251 0.92888 0.0
H780 H 0.93375 0.61021 0.00229 0.0
H781 H 0.90178 0.64409 0.98235 0.0
C782 C 0.37949 0.75964 0.16999 0.0
C783 C 0.3732 0.73644 0.14975 0.0
C784 C 0.39156 0.78562 0.15917 0.0
C785 C 0.40613 0.82536 0.08683 0.0
H786 H 0.46023 0.87179 0.13876 0.0
C787 C 0.45787 0.9357 0.05011 0.0
C788 C 0.48652 0.94408 0.06001 0.0
C789 C 0.44272 0.91097 0.06102 0.0
C790 C 0.44549 0.85901 0.12366 0.0
H791 H 0.37505 0.72203 0.10243 0.0
H792 H 0.39726 0.76674 0.08365 0.0
H793 H 0.43748 0.8276 0.15729 0.0
H794 H 0.52213 0.93297 0.08833 0.0
H795 H 0.49662 0.88952 0.10615 0.0
H796 H 0.41555 0.85607 0.05254 0.0
C797 C 0.39196 0.76546 0.10774 0.0
C798 C 0.4319 0.83373 0.13461 0.0
C799 C 0.3794 0.73968 0.11851 0.0
C800 C 0.49993 0.92714 0.08051 0.0
C801 C 0.4851 0.90229 0.09097 0.0
C802 C 0.42013 0.85046 0.07567 0.0
C803 C 0.3982 0.78891 0.12787 0.0
C804 C 0.41208 0.81639 0.11636 0.0
C805 C 0.45611 0.89393 0.08175 0.0
C806 C 0.44021 0.8676 0.09385 0.0
H807 H 0.37463 0.7578 0.19415 0.0
H808 H 0.39539 0.80318 0.17541 0.0
H809 H 0.39062 0.81302 0.07216 0.0
H810 H 0.44694 0.94856 0.03452 0.0
H811 H 0.42034 0.90558 0.05362 0.0
C812 C 0.1426 0.28247 0.61856 0.0
C813 C 0.14626 0.28728 0.6502 0.0
C814 C 0.13085 0.25622 0.60691 0.0
C815 C 0.08571 0.19137 0.62837 0.0
H816 H 0.11829 0.16024 0.55377 0.0
C817 C 0.0468 0.0797 0.57953 0.0
C818 C 0.04255 0.07713 0.54776 0.0
C819 C 0.06054 0.10457 0.59277 0.0
C820 C 0.10876 0.16875 0.57447 0.0
H821 H 0.14059 0.26805 0.69439 0.0
H822 H 0.12003 0.22213 0.67401 0.0
H823 H 0.14012 0.20495 0.57561 0.0
H824 H 0.04963 0.09877 0.50501 0.0
H825 H 0.07333 0.14204 0.52809 0.0
H826 H 0.05423 0.15521 0.62709 0.0
C827 C 0.12597 0.23885 0.65825 0.0
C828 C 0.12128 0.1944 0.587 0.0
C829 C 0.13775 0.26516 0.66993 0.0
C830 C 0.05262 0.09991 0.52954 0.0
C831 C 0.06638 0.12472 0.54276 0.0
C832 C 0.07319 0.16568 0.61583 0.0
C833 C 0.12242 0.23404 0.62657 0.0
C834 C 0.10976 0.20616 0.61397 0.0
C835 C 0.0704 0.12742 0.57456 0.0
C836 C 0.08442 0.15417 0.58859 0.0
H837 H 0.14839 0.29919 0.60275 0.0
H838 H 0.1279 0.25346 0.58245 0.0
H839 H 0.07605 0.19998 0.64894 0.0
H840 H 0.03937 0.06259 0.59427 0.0
H841 H 0.0636 0.10581 0.61729 0.0
C842 C 0.72166 0.2782 0.36351 0.0
C843 C 0.70811 0.25296 0.35062 0.0
C844 C 0.7047 0.2998 0.37396 0.0
C845 C 0.63111 0.32568 0.36518 0.0
H846 H 0.65027 0.36808 0.4405 0.0
C847 C 0.55184 0.39911 0.42427 0.0
C848 C 0.56409 0.42482 0.4372 0.0
C849 C 0.57001 0.37904 0.41256 0.0
C850 C 0.64485 0.35667 0.41921 0.0
H851 H 0.66618 0.23004 0.33978 0.0
H852 H 0.63665 0.2675 0.35816 0.0
H853 H 0.68099 0.33109 0.42299 0.0
H854 H 0.60478 0.45009 0.44757 0.0
H855 H 0.63657 0.41511 0.42694 0.0
H856 H 0.5948 0.35106 0.36157 0.0
C857 C 0.66036 0.27099 0.35951 0.0
C858 C 0.66246 0.33547 0.40919 0.0
C859 C 0.67728 0.2495 0.34903 0.0
C860 C 0.59478 0.43038 0.43776 0.0
C861 C 0.61296 0.41029 0.42614 0.0
C862 C 0.61348 0.34681 0.37524 0.0
C863 C 0.67385 0.29652 0.37181 0.0
C864 C 0.65568 0.3196 0.38215 0.0
C865 C 0.60078 0.38429 0.41365 0.0
C866 C 0.62006 0.36245 0.40245 0.0
H867 H 0.74539 0.28152 0.36482 0.0
H868 H 0.71579 0.3193 0.38308 0.0
H869 H 0.62558 0.31422 0.34395 0.0
H870 H 0.52822 0.39428 0.42366 0.0
H871 H 0.55995 0.35911 0.40337 0.0
loop_
_geom_bond_atom_site_label_1
_geom_bond_atom_site_label_2
_geom_bond_distance
_geom_bond_site_symmetry_2
_ccdc_geom_bond_type
H0 C3 0.931 . S
H1 C6 0.928 . S
H2 C8 0.930 . S
C3 H0 0.931 . S
C3 C4 1.413 . S
C3 C5 1.360 . S
C4 C3 1.413 . S
C4 C8 1.429 . S
C5 C3 1.360 . S
C5 C6 1.372 . S
C6 H1 0.928 . S
C6 C5 1.372 . S
C6 C7 1.404 . S
C7 C6 1.404 . S
C7 C8 1.391 . S
C8 H2 0.930 . S
C8 C4 1.429 . S
C8 C7 1.391 . S
H9 C12 0.931 . S
H10 C15 0.928 . S
H11 C17 0.930 . S
C12 H9 0.931 . S
C12 C13 1.413 . S
C12 C14 1.360 . S
C13 C12 1.413 . S
C13 C17 1.429 . S
C14 C12 1.360 . S
C14 C15 1.372 . S
C15 H10 0.928 . S
C15 C14 1.372 . S
C15 C16 1.404 . S
C16 C15 1.404 . S
C16 C17 1.391 . S
C17 H11 0.930 . S
C17 C13 1.429 . S
C17 C16 1.391 . S
H18 C21 0.931 . S
H19 C24 0.928 . S
H20 C26 0.930 . S
C21 H18 0.931 . S
C21 C22 1.413 . S
C21 C23 1.360 . S
C22 C21 1.413 . S
C22 C26 1.429 . S
C23 C21 1.360 . S
C23 C24 1.372 . S
C24 H19 0.928 . S
C24 C23 1.372 . S
C24 C25 1.404 . S
C25 C24 1.404 . S
C25 C26 1.391 . S
C26 H20 0.930 . S
C26 C22 1.429 . S
C26 C25 1.391 . S
H27 C30 0.931 . S
H28 C33 0.928 . S
H29 C35 0.930 . S
C30 H27 0.931 . S
C30 C31 1.413 . S
C30 C32 1.360 . S
C31 C30 1.413 . S
C31 C35 1.429 . S
C32 C30 1.360 . S
C32 C33 1.372 . S
C33 H28 0.928 . S
C33 C32 1.372 . S
C33 C34 1.404 . S
C34 C33 1.404 . S
C34 C35 1.391 . S
C35 H29 0.930 . S
C35 C31 1.429 . S
C35 C34 1.391 . S
H36 C39 0.931 . S
H37 C42 0.928 . S
H38 C44 0.930 . S
C39 H36 0.931 . S
C39 C40 1.413 . S
C39 C41 1.360 . S
C40 C39 1.413 . S
C40 C44 1.429 . S
C41 C39 1.360 . S
C41 C42 1.372 . S
C42 H37 0.928 . S
C42 C41 1.372 . S
C42 C43 1.404 . S
C43 C42 1.404 . S
C43 C44 1.391 . S
C44 H38 0.930 . S
C44 C40 1.429 . S
C44 C43 1.391 . S
H45 C48 0.931 . S
H46 C51 0.928 . S
H47 C53 0.930 . S
C48 H45 0.931 . S
C48 C49 1.413 . S
C48 C50 1.360 . S
C49 C48 1.413 . S
C49 C53 1.429 . S
C50 C48 1.360 . S
C50 C51 1.372 . S
C51 H46 0.928 . S
C51 C50 1.372 . S
C51 C52 1.404 . S
C52 C51 1.404 . S
C52 C53 1.391 . S
C53 H47 0.930 . S
C53 C49 1.429 . S
C53 C52 1.391 . S
H54 C57 0.931 . S
H55 C60 0.928 . S
H56 C62 0.930 . S
C57 H54 0.931 . S
C57 C58 1.413 . S
C57 C59 1.360 . S
C58 C57 1.413 . S
C58 C62 1.429 . S
C59 C57 1.360 . S
C59 C60 1.372 . S
C60 H55 0.928 . S
C60 C59 1.372 . S
C60 C61 1.404 . S
C61 C60 1.404 . S
C61 C62 1.391 . S
C62 H56 0.930 . S
C62 C58 1.429 . S
C62 C61 1.391 . S
H63 C66 0.931 . S
H64 C69 0.928 . S
H65 C71 0.930 . S
C66 H63 0.931 . S
C66 C67 1.413 . S
C66 C68 1.360 . S
C67 C66 1.413 . S
C67 C71 1.429 . S
C68 C66 1.360 . S
C68 C69 1.372 . S
C69 H64 0.928 . S
C69 C68 1.372 . S
C69 C70 1.404 . S
C70 C69 1.404 . S
C70 C71 1.391 . S
C71 H65 0.930 . S
C71 C67 1.429 . S
C71 C70 1.391 . S
Dy72 O76 2.398 . S
Dy72 O77 2.491 . S
Dy72 O78 2.403 1_545 S
Dy72 O79 2.664 1_545 S
Dy72 O83 2.326 . S
Dy72 O87 2.310 1_455 S
Dy72 O88 2.351 1_445 S
C73 O84 1.185 . S
C73 O85 1.355 . S
C74 O76 1.185 . S
C74 O77 1.355 . S
Dy75 O79 2.310 1_655 S
Dy75 O82 2.351 1_665 S
Dy75 O84 2.398 . S
Dy75 O85 2.491 . S
Dy75 O86 2.403 1_565 S
Dy75 O87 2.664 1_565 S
Dy75 O89 2.326 . S
O76 Dy72 2.398 . S
O76 C74 1.185 . S
O77 Dy72 2.491 . S
O77 C74 1.355 . S
O78 Dy72 2.403 1_565 S
O78 C80 1.254 . S
O79 Dy72 2.664 1_565 S
O79 Dy75 2.310 1_455 S
O79 C80 1.268 . S
C80 O78 1.254 . S
C80 O79 1.268 . S
C81 O86 1.254 . S
C81 O87 1.268 . S
O82 Dy75 2.351 1_445 S
O82 C90 1.249 . S
O83 Dy72 2.326 . S
O83 C90 1.267 . S
O84 C73 1.185 . S
O84 Dy75 2.398 . S
O85 C73 1.355 . S
O85 Dy75 2.491 . S
O86 Dy75 2.403 1_545 S
O86 C81 1.254 . S
O87 Dy72 2.310 1_655 S
O87 Dy75 2.664 1_545 S
O87 C81 1.268 . S
O88 Dy72 2.351 1_665 S
O88 C91 1.249 . S
O89 Dy75 2.326 . S
O89 C91 1.267 . S
C90 O82 1.249 . S
C90 O83 1.267 . S
C91 O88 1.249 . S
C91 O89 1.267 . S
Dy92 O96 2.398 . S
Dy92 O97 2.491 . S
Dy92 O98 2.403 1_545 S
Dy92 O99 2.664 1_545 S
Dy92 O103 2.326 . S
Dy92 O107 2.310 1_554 S
Dy92 O108 2.351 1_544 S
C93 O104 1.185 . S
C93 O105 1.355 . S
C94 O96 1.185 . S
C94 O97 1.355 . S
Dy95 O99 2.310 1_546 S
Dy95 O102 2.351 1_556 S
Dy95 O104 2.398 1_545 S
Dy95 O105 2.491 1_545 S
Dy95 O106 2.403 . S
Dy95 O107 2.664 . S
Dy95 O109 2.326 1_545 S
O96 Dy92 2.398 . S
O96 C94 1.185 . S
O97 Dy92 2.491 . S
O97 C94 1.355 . S
O98 Dy92 2.403 1_565 S
O98 C100 1.254 . S
O99 Dy92 2.664 1_565 S
O99 Dy95 2.310 1_564 S
O99 C100 1.268 . S
C100 O98 1.254 . S
C100 O99 1.268 . S
C101 O106 1.254 . S
C101 O107 1.268 . S
O102 Dy95 2.351 1_554 S
O102 C110 1.249 . S
O103 Dy92 2.326 . S
O103 C110 1.267 . S
O104 C93 1.185 . S
O104 Dy95 2.398 1_565 S
O105 C93 1.355 . S
O105 Dy95 2.491 1_565 S
O106 Dy95 2.403 . S
O106 C101 1.254 . S
O107 Dy92 2.310 1_556 S
O107 Dy95 2.664 . S
O107 C101 1.268 . S
O108 Dy92 2.351 1_566 S
O108 C111 1.249 . S
O109 Dy95 2.326 1_565 S
O109 C111 1.267 . S
C110 O102 1.249 . S
C110 O103 1.267 . S
C111 O108 1.249 . S
C111 O109 1.267 . S
Dy112 O116 2.398 . S
Dy112 O117 2.491 . S
Dy112 O118 2.403 . S
Dy112 O119 2.664 . S
Dy112 O123 2.326 . S
Dy112 O127 2.310 . S
Dy112 O128 2.351 . S
C113 O124 1.185 . S
C113 O125 1.355 . S
C114 O116 1.185 . S
C114 O117 1.355 . S
Dy115 O119 2.310 . S
Dy115 O122 2.351 . S
Dy115 O124 2.398 . S
Dy115 O125 2.491 . S
Dy115 O126 2.403 . S
Dy115 O127 2.664 . S
Dy115 O129 2.326 . S
O116 Dy112 2.398 . S
O116 C114 1.185 . S
O117 Dy112 2.491 . S
O117 C114 1.355 . S
O118 Dy112 2.403 . S
O118 C120 1.254 . S
O119 Dy112 2.664 . S
O119 Dy115 2.310 . S
O119 C120 1.268 . S
C120 O118 1.254 . S
C120 O119 1.268 . S
C121 O126 1.254 . S
C121 O127 1.268 . S
O122 Dy115 2.351 . S
O122 C130 1.249 . S
O123 Dy112 2.326 . S
O123 C130 1.267 . S
O124 C113 1.185 . S
O124 Dy115 2.398 . S
O125 C113 1.355 . S
O125 Dy115 2.491 . S
O126 Dy115 2.403 . S
O126 C121 1.254 . S
O127 Dy112 2.310 . S
O127 Dy115 2.664 . S
O127 C121 1.268 . S
O128 Dy112 2.351 . S
O128 C131 1.249 . S
O129 Dy115 2.326 . S
O129 C131 1.267 . S
C130 O122 1.249 . S
C130 O123 1.267 . S
C131 O128 1.249 . S
C131 O129 1.267 . S
Dy132 O136 2.398 . S
Dy132 O137 2.491 . S
Dy132 O138 2.403 1_455 S
Dy132 O139 2.664 1_455 S
Dy132 O143 2.326 . S
Dy132 O147 2.310 1_554 S
Dy132 O148 2.351 1_454 S
C133 O144 1.185 . S
C133 O145 1.355 . S
C134 O136 1.185 . S
C134 O137 1.355 . S
Dy135 O139 2.310 1_556 S
Dy135 O142 2.351 1_656 S
Dy135 O144 2.398 . S
Dy135 O145 2.491 . S
Dy135 O146 2.403 1_655 S
Dy135 O147 2.664 1_655 S
Dy135 O149 2.326 . S
O136 Dy132 2.398 . S
O136 C134 1.185 . S
O137 Dy132 2.491 . S
O137 C134 1.355 . S
O138 Dy132 2.403 1_655 S
O138 C140 1.254 . S
O139 Dy132 2.664 1_655 S
O139 Dy135 2.310 1_554 S
O139 C140 1.268 . S
C140 O138 1.254 . S
C140 O139 1.268 . S
C141 O146 1.254 . S
C141 O147 1.268 . S
O142 Dy135 2.351 1_454 S
O142 C150 1.249 . S
O143 Dy132 2.326 . S
O143 C150 1.267 . S
O144 C133 1.185 . S
O144 Dy135 2.398 . S
O145 C133 1.355 . S
O145 Dy135 2.491 . S
O146 Dy135 2.403 1_455 S
O146 C141 1.254 . S
O147 Dy132 2.310 1_556 S
O147 Dy135 2.664 1_455 S
O147 C141 1.268 . S
O148 Dy132 2.351 1_656 S
O148 C151 1.249 . S
O149 Dy135 2.326 . S
O149 C151 1.267 . S
C150 O142 1.249 . S
C150 O143 1.267 . S
C151 O148 1.249 . S
C151 O149 1.267 . S
C152 C153 1.349 . S
C152 C154 1.327 . S
C152 H177 0.950 . S
C153 C152 1.349 . S
C153 C169 1.349 . S
C154 C152 1.327 . S
C154 C173 1.429 . S
C154 H178 0.950 . S
C155 C172 1.574 . S
C155 C174 1.368 . S
C155 H179 0.949 . S
H156 C160 0.949 . S
C157 C158 1.349 . S
C157 C159 1.327 . S
C157 H180 0.950 . S
C158 C157 1.349 . S
C158 C170 1.349 . S
C159 C157 1.327 . S
C159 C175 1.429 . S
C159 H181 0.950 . S
C160 H156 0.949 . S
C160 C168 1.574 . S
C160 C176 1.368 . S
H161 C169 0.950 . S
H162 C167 0.950 . S
H163 C168 0.949 . S
H164 C170 0.950 . S
H165 C171 0.950 . S
H166 C172 0.949 . S
C167 H162 0.950 . S
C167 C169 1.327 . S
C167 C173 1.429 . S
C168 C160 1.574 . S
C168 H163 0.949 . S
C168 C174 1.368 . S
C169 C153 1.349 . S
C169 H161 0.950 . S
C169 C167 1.327 . S
C170 C158 1.349 . S
C170 H164 0.950 . S
C170 C171 1.327 . S
C171 H165 0.950 . S
C171 C170 1.327 . S
C171 C175 1.429 . S
C172 C155 1.574 . S
C172 H166 0.949 . S
C172 C176 1.368 . S
C173 C154 1.429 . S
C173 C167 1.429 . S
C173 C174 1.523 . S
C174 C155 1.368 . S
C174 C168 1.368 . S
C174 C173 1.523 . S
C175 C159 1.429 . S
C175 C171 1.429 . S
C175 C176 1.523 . S
C176 C160 1.368 . S
C176 C172 1.368 . S
C176 C175 1.523 . S
H177 C152 0.950 . S
H178 C154 0.950 . S
H179 C155 0.949 . S
H180 C157 0.950 . S
H181 C159 0.950 . S
C182 C183 1.349 . S
C182 C184 1.327 . S
C182 H207 0.950 . S
C183 C182 1.349 . S
C183 C199 1.349 . S
C184 C182 1.327 . S
C184 C203 1.429 . S
C184 H208 0.950 . S
C185 C202 1.574 . S
C185 C204 1.368 . S
C185 H209 0.949 . S
H186 C190 0.949 . S
C187 C188 1.349 . S
C187 C189 1.327 . S
C187 H210 0.950 . S
C188 C187 1.349 . S
C188 C200 1.349 . S
C189 C187 1.327 . S
C189 C205 1.429 . S
C189 H211 0.950 . S
C190 H186 0.949 . S
C190 C198 1.574 . S
C190 C206 1.368 . S
H191 C199 0.950 . S
H192 C197 0.950 . S
H193 C198 0.949 . S
H194 C200 0.950 . S
H195 C201 0.950 . S
H196 C202 0.949 . S
C197 H192 0.950 . S
C197 C199 1.327 . S
C197 C203 1.429 . S
C198 C190 1.574 . S
C198 H193 0.949 . S
C198 C204 1.368 . S
C199 C183 1.349 . S
C199 H191 0.950 . S
C199 C197 1.327 . S
C200 C188 1.349 . S
C200 H194 0.950 . S
C200 C201 1.327 . S
C201 H195 0.950 . S
C201 C200 1.327 . S
C201 C205 1.429 . S
C202 C185 1.574 . S
C202 H196 0.949 . S
C202 C206 1.368 . S
C203 C184 1.429 . S
C203 C197 1.429 . S
C203 C204 1.523 . S
C204 C185 1.368 . S
C204 C198 1.368 . S
C204 C203 1.523 . S
C205 C189 1.429 . S
C205 C201 1.429 . S
C205 C206 1.523 . S
C206 C190 1.368 . S
C206 C202 1.368 . S
C206 C205 1.523 . S
H207 C182 0.950 . S
H208 C184 0.950 . S
H209 C185 0.949 . S
H210 C187 0.950 . S
H211 C189 0.950 . S
C212 C213 1.349 . S
C212 C214 1.327 . S
C212 H237 0.950 . S
C213 C212 1.349 . S
C213 C229 1.349 . S
C214 C212 1.327 . S
C214 C233 1.429 . S
C214 H238 0.950 . S
C215 C232 1.574 . S
C215 C234 1.368 . S
C215 H239 0.949 . S
H216 C220 0.949 . S
C217 C218 1.349 . S
C217 C219 1.327 . S
C217 H240 0.950 . S
C218 C217 1.349 . S
C218 C230 1.349 . S
C219 C217 1.327 . S
C219 C235 1.429 . S
C219 H241 0.950 . S
C220 H216 0.949 . S
C220 C228 1.574 . S
C220 C236 1.368 . S
H221 C229 0.950 . S
H222 C227 0.950 . S
H223 C228 0.949 . S
H224 C230 0.950 . S
H225 C231 0.950 . S
H226 C232 0.949 . S
C227 H222 0.950 . S
C227 C229 1.327 . S
C227 C233 1.429 . S
C228 C220 1.574 . S
C228 H223 0.949 . S
C228 C234 1.368 . S
C229 C213 1.349 . S
C229 H221 0.950 . S
C229 C227 1.327 . S
C230 C218 1.349 . S
C230 H224 0.950 . S
C230 C231 1.327 . S
C231 H225 0.950 . S
C231 C230 1.327 . S
C231 C235 1.429 . S
C232 C215 1.574 . S
C232 H226 0.949 . S
C232 C236 1.368 . S
C233 C214 1.429 . S
C233 C227 1.429 . S
C233 C234 1.523 . S
C234 C215 1.368 . S
C234 C228 1.368 . S
C234 C233 1.523 . S
C235 C219 1.429 . S
C235 C231 1.429 . S
C235 C236 1.523 . S
C236 C220 1.368 . S
C236 C232 1.368 . S
C236 C235 1.523 . S
H237 C212 0.950 . S
H238 C214 0.950 . S
H239 C215 0.949 . S
H240 C217 0.950 . S
H241 C219 0.950 . S
C242 C243 1.349 . S
C242 C244 1.327 . S
C242 H267 0.950 . S
C243 C242 1.349 . S
C243 C259 1.349 . S
C244 C242 1.327 . S
C244 C263 1.429 . S
C244 H268 0.950 . S
C245 C262 1.574 . S
C245 C264 1.368 . S
C245 H269 0.949 . S
H246 C250 0.949 . S
C247 C248 1.349 . S
C247 C249 1.327 . S
C247 H270 0.950 . S
C248 C247 1.349 . S
C248 C260 1.349 . S
C249 C247 1.327 . S
C249 C265 1.429 . S
C249 H271 0.950 . S
C250 H246 0.949 . S
C250 C258 1.574 . S
C250 C266 1.368 . S
H251 C259 0.950 . S
H252 C257 0.950 . S
H253 C258 0.949 . S
H254 C260 0.950 . S
H255 C261 0.950 . S
H256 C262 0.949 . S
C257 H252 0.950 . S
C257 C259 1.327 . S
C257 C263 1.429 . S
C258 C250 1.574 . S
C258 H253 0.949 . S
C258 C264 1.368 . S
C259 C243 1.349 . S
C259 H251 0.950 . S
C259 C257 1.327 . S
C260 C248 1.349 . S
C260 H254 0.950 . S
C260 C261 1.327 . S
C261 H255 0.950 . S
C261 C260 1.327 . S
C261 C265 1.429 . S
C262 C245 1.574 . S
C262 H256 0.949 . S
C262 C266 1.368 . S
C263 C244 1.429 . S
C263 C257 1.429 . S
C263 C264 1.523 . S
C264 C245 1.368 . S
C264 C258 1.368 . S
C264 C263 1.523 . S
C265 C249 1.429 . S
C265 C261 1.429 . S
C265 C266 1.523 . S
C266 C250 1.368 . S
C266 C262 1.368 . S
C266 C265 1.523 . S
H267 C242 0.950 . S
H268 C244 0.950 . S
H269 C245 0.949 . S
H270 C247 0.950 . S
H271 C249 0.950 . S
C272 C273 1.349 . S
C272 C274 1.327 . S
C272 H297 0.950 . S
C273 C272 1.349 . S
C273 C289 1.349 . S
C274 C272 1.327 . S
C274 C293 1.429 . S
C274 H298 0.950 . S
C275 C292 1.574 . S
C275 C294 1.368 . S
C275 H299 0.949 . S
H276 C280 0.949 . S
C277 C278 1.349 . S
C277 C279 1.327 . S
C277 H300 0.950 . S
C278 C277 1.349 . S
C278 C290 1.349 . S
C279 C277 1.327 . S
C279 C295 1.429 . S
C279 H301 0.950 . S
C280 H276 0.949 . S
C280 C288 1.574 . S
C280 C296 1.368 . S
H281 C289 0.950 . S
H282 C287 0.950 . S
H283 C288 0.949 . S
H284 C290 0.950 . S
H285 C291 0.950 . S
H286 C292 0.949 . S
C287 H282 0.950 . S
C287 C289 1.327 . S
C287 C293 1.429 . S
C288 C280 1.574 . S
C288 H283 0.949 . S
C288 C294 1.368 . S
C289 C273 1.349 . S
C289 H281 0.950 . S
C289 C287 1.327 . S
C290 C278 1.349 . S
C290 H284 0.950 . S
C290 C291 1.327 . S
C291 H285 0.950 . S
C291 C290 1.327 . S
C291 C295 1.429 . S
C292 C275 1.574 . S
C292 H286 0.949 . S
C292 C296 1.368 . S
C293 C274 1.429 . S
C293 C287 1.429 . S
C293 C294 1.523 . S
C294 C275 1.368 . S
C294 C288 1.368 . S
C294 C293 1.523 . S
C295 C279 1.429 . S
C295 C291 1.429 . S
C295 C296 1.523 . S
C296 C280 1.368 . S
C296 C292 1.368 . S
C296 C295 1.523 . S
H297 C272 0.950 . S
H298 C274 0.950 . S
H299 C275 0.949 . S
H300 C277 0.950 . S
H301 C279 0.950 . S
C302 C303 1.349 . S
C302 C304 1.327 . S
C302 H327 0.950 . S
C303 C302 1.349 . S
C303 C319 1.349 . S
C304 C302 1.327 . S
C304 C323 1.429 . S
C304 H328 0.950 . S
C305 C322 1.574 . S
C305 C324 1.368 . S
C305 H329 0.949 . S
H306 C310 0.949 . S
C307 C308 1.349 . S
C307 C309 1.327 . S
C307 H330 0.953 1_565 S
C308 C307 1.349 . S
C308 C320 1.349 . S
C309 C307 1.327 . S
C309 C325 1.429 . S
C309 H331 0.950 . S
C310 H306 0.949 . S
C310 C318 1.574 . S
C310 C326 1.368 . S
H311 C319 0.950 . S
H312 C317 0.950 . S
H313 C318 0.949 . S
H314 C320 0.950 . S
H315 C321 0.950 . S
H316 C322 0.949 . S
C317 H312 0.950 . S
C317 C319 1.327 . S
C317 C323 1.429 . S
C318 C310 1.574 . S
C318 H313 0.949 . S
C318 C324 1.368 . S
C319 C303 1.349 . S
C319 H311 0.950 . S
C319 C317 1.327 . S
C320 C308 1.349 . S
C320 H314 0.950 . S
C320 C321 1.327 . S
C321 H315 0.950 . S
C321 C320 1.327 . S
C321 C325 1.429 . S
C322 C305 1.574 . S
C322 H316 0.949 . S
C322 C326 1.368 . S
C323 C304 1.429 . S
C323 C317 1.429 . S
C323 C324 1.523 . S
C324 C305 1.368 . S
C324 C318 1.368 . S
C324 C323 1.523 . S
C325 C309 1.429 . S
C325 C321 1.429 . S
C325 C326 1.523 . S
C326 C310 1.368 . S
C326 C322 1.368 . S
C326 C325 1.523 . S
H327 C302 0.950 . S
H328 C304 0.950 . S
H329 C305 0.949 . S
H330 C307 0.953 1_545 S
H331 C309 0.950 . S
C332 C333 1.349 . S
C332 C334 1.327 . S
C332 H357 0.950 . S
C333 C332 1.349 . S
C333 C349 1.349 . S
C334 C332 1.327 . S
C334 C353 1.429 . S
C334 H358 0.950 . S
C335 C352 1.574 . S
C335 C354 1.368 . S
C335 H359 0.949 . S
H336 C340 0.949 . S
C337 C338 1.349 . S
C337 C339 1.327 . S
C337 H360 0.950 . S
C338 C337 1.349 . S
C338 C350 1.349 . S
C339 C337 1.327 . S
C339 C355 1.429 . S
C339 H361 0.950 . S
C340 H336 0.949 . S
C340 C348 1.574 . S
C340 C356 1.368 . S
H341 C349 0.950 . S
H342 C347 0.950 . S
H343 C348 0.949 . S
H344 C350 0.950 . S
H345 C351 0.950 . S
H346 C352 0.949 . S
C347 H342 0.950 . S
C347 C349 1.327 . S
C347 C353 1.429 . S
C348 C340 1.574 . S
C348 H343 0.949 . S
C348 C354 1.368 . S
C349 C333 1.349 . S
C349 H341 0.950 . S
C349 C347 1.327 . S
C350 C338 1.349 . S
C350 H344 0.950 . S
C350 C351 1.327 . S
C351 H345 0.950 . S
C351 C350 1.327 . S
C351 C355 1.429 . S
C352 C335 1.574 . S
C352 H346 0.949 . S
C352 C356 1.368 . S
C353 C334 1.429 . S
C353 C347 1.429 . S
C353 C354 1.523 . S
C354 C335 1.368 . S
C354 C348 1.368 . S
C354 C353 1.523 . S
C355 C339 1.429 . S
C355 C351 1.429 . S
C355 C356 1.523 . S
C356 C340 1.368 . S
C356 C352 1.368 . S
C356 C355 1.523 . S
H357 C332 0.950 . S
H358 C334 0.950 . S
H359 C335 0.949 . S
H360 C337 0.950 . S
H361 C339 0.950 . S
C362 C363 1.349 . S
C362 C364 1.327 . S
C362 H387 0.950 . S
C363 C362 1.349 . S
C363 C379 1.349 . S
C364 C362 1.327 . S
C364 C383 1.429 . S
C364 H388 0.950 . S
C365 C382 1.574 . S
C365 C384 1.368 . S
C365 H389 0.949 . S
H366 C370 0.949 . S
C367 C368 1.349 . S
C367 C369 1.327 . S
C367 H390 0.950 . S
C368 C367 1.349 . S
C368 C380 1.349 . S
C369 C367 1.327 . S
C369 C385 1.429 . S
C369 H391 0.950 . S
C370 H366 0.949 . S
C370 C378 1.574 . S
C370 C386 1.368 . S
H371 C379 0.950 . S
H372 C377 0.950 . S
H373 C378 0.949 . S
H374 C380 0.950 . S
H375 C381 0.950 . S
H376 C382 0.949 . S
C377 H372 0.950 . S
C377 C379 1.327 . S
C377 C383 1.429 . S
C378 C370 1.574 . S
C378 H373 0.949 . S
C378 C384 1.368 . S
C379 C363 1.349 . S
C379 H371 0.950 . S
C379 C377 1.327 . S
C380 C368 1.349 . S
C380 H374 0.950 . S
C380 C381 1.327 . S
C381 H375 0.950 . S
C381 C380 1.327 . S
C381 C385 1.429 . S
C382 C365 1.574 . S
C382 H376 0.949 . S
C382 C386 1.368 . S
C383 C364 1.429 . S
C383 C377 1.429 . S
C383 C384 1.523 . S
C384 C365 1.368 . S
C384 C378 1.368 . S
C384 C383 1.523 . S
C385 C369 1.429 . S
C385 C381 1.429 . S
C385 C386 1.523 . S
C386 C370 1.368 . S
C386 C382 1.368 . S
C386 C385 1.523 . S
H387 C362 0.950 . S
H388 C364 0.950 . S
H389 C365 0.949 . S
H390 C367 0.950 . S
H391 C369 0.950 . S
C392 C393 1.349 . S
C392 C394 1.327 . S
C392 H417 0.950 . S
C393 C392 1.349 . S
C393 C409 1.349 . S
C394 C392 1.327 . S
C394 C413 1.429 . S
C394 H418 0.950 . S
C395 C412 1.574 . S
C395 C414 1.368 . S
C395 H419 0.949 . S
H396 C400 0.949 . S
C397 C398 1.349 . S
C397 C399 1.327 . S
C397 H420 0.950 . S
C398 C397 1.349 . S
C398 C410 1.349 . S
C399 C397 1.327 . S
C399 C415 1.429 . S
C399 H421 0.950 . S
C400 H396 0.949 . S
C400 C408 1.574 . S
C400 C416 1.368 . S
H401 C409 0.950 . S
H402 C407 0.950 . S
H403 C408 0.949 . S
H404 C410 0.950 . S
H405 C411 0.950 . S
H406 C412 0.949 . S
C407 H402 0.950 . S
C407 C409 1.327 . S
C407 C413 1.429 . S
C408 C400 1.574 . S
C408 H403 0.949 . S
C408 C414 1.368 . S
C409 C393 1.349 . S
C409 H401 0.950 . S
C409 C407 1.327 . S
C410 C398 1.349 . S
C410 H404 0.950 . S
C410 C411 1.327 . S
C411 H405 0.950 . S
C411 C410 1.327 . S
C411 C415 1.429 . S
C412 C395 1.574 . S
C412 H406 0.949 . S
C412 C416 1.368 . S
C413 C394 1.429 . S
C413 C407 1.429 . S
C413 C414 1.523 . S
C414 C395 1.368 . S
C414 C408 1.368 . S
C414 C413 1.523 . S
C415 C399 1.429 . S
C415 C411 1.429 . S
C415 C416 1.523 . S
C416 C400 1.368 . S
C416 C412 1.368 . S
C416 C415 1.523 . S
H417 C392 0.950 . S
H418 C394 0.950 . S
H419 C395 0.949 . S
H420 C397 0.950 . S
H421 C399 0.950 . S
C422 C423 1.349 . S
C422 C424 1.327 . S
C422 H447 0.950 . S
C423 C422 1.349 . S
C423 C439 1.349 . S
C424 C422 1.327 . S
C424 C443 1.429 . S
C424 H448 0.950 . S
C425 C442 1.574 . S
C425 C444 1.368 . S
C425 H449 0.949 . S
H426 C430 0.949 . S
C427 C428 1.349 . S
C427 C429 1.327 . S
C427 H450 0.950 . S
C428 C427 1.349 . S
C428 C440 1.349 . S
C429 C427 1.327 . S
C429 C445 1.429 . S
C429 H451 0.950 . S
C430 H426 0.949 . S
C430 C438 1.574 . S
C430 C446 1.368 . S
H431 C439 0.950 . S
H432 C437 0.950 . S
H433 C438 0.949 . S
H434 C440 0.950 . S
H435 C441 0.950 . S
H436 C442 0.949 . S
C437 H432 0.950 . S
C437 C439 1.327 . S
C437 C443 1.429 . S
C438 C430 1.574 . S
C438 H433 0.949 . S
C438 C444 1.368 . S
C439 C423 1.349 . S
C439 H431 0.950 . S
C439 C437 1.327 . S
C440 C428 1.349 . S
C440 H434 0.950 . S
C440 C441 1.327 . S
C441 H435 0.950 . S
C441 C440 1.327 . S
C441 C445 1.429 . S
C442 C425 1.574 . S
C442 H436 0.949 . S
C442 C446 1.368 . S
C443 C424 1.429 . S
C443 C437 1.429 . S
C443 C444 1.523 . S
C444 C425 1.368 . S
C444 C438 1.368 . S
C444 C443 1.523 . S
C445 C429 1.429 . S
C445 C441 1.429 . S
C445 C446 1.523 . S
C446 C430 1.368 . S
C446 C442 1.368 . S
C446 C445 1.523 . S
H447 C422 0.950 . S
H448 C424 0.950 . S
H449 C425 0.949 . S
H450 C427 0.950 . S
H451 C429 0.950 . S
C452 C453 1.349 . S
C452 C454 1.327 . S
C452 H477 0.950 . S
C453 C452 1.349 . S
C453 C469 1.349 . S
C454 C452 1.327 . S
C454 C473 1.429 . S
C454 H478 0.950 . S
C455 C472 1.574 . S
C455 C474 1.368 . S
C455 H479 0.949 . S
H456 C460 0.949 . S
C457 C458 1.349 . S
C457 C459 1.327 . S
C457 H480 0.950 . S
C458 C457 1.349 . S
C458 C470 1.349 . S
C459 C457 1.327 . S
C459 C475 1.429 . S
C459 H481 0.950 . S
C460 H456 0.949 . S
C460 C468 1.574 . S
C460 C476 1.368 . S
H461 C469 0.950 . S
H462 C467 0.950 . S
H463 C468 0.949 . S
H464 C470 0.950 . S
H465 C471 0.950 . S
H466 C472 0.949 . S
C467 H462 0.950 . S
C467 C469 1.327 . S
C467 C473 1.429 . S
C468 C460 1.574 . S
C468 H463 0.949 . S
C468 C474 1.368 . S
C469 C453 1.349 . S
C469 H461 0.950 . S
C469 C467 1.327 . S
C470 C458 1.349 . S
C470 H464 0.950 . S
C470 C471 1.327 . S
C471 H465 0.950 . S
C471 C470 1.327 . S
C471 C475 1.429 . S
C472 C455 1.574 . S
C472 H466 0.949 . S
C472 C476 1.368 . S
C473 C454 1.429 . S
C473 C467 1.429 . S
C473 C474 1.523 . S
C474 C455 1.368 . S
C474 C468 1.368 . S
C474 C473 1.523 . S
C475 C459 1.429 . S
C475 C471 1.429 . S
C475 C476 1.523 . S
C476 C460 1.368 . S
C476 C472 1.368 . S
C476 C475 1.523 . S
H477 C452 0.950 . S
H478 C454 0.950 . S
H479 C455 0.949 . S
H480 C457 0.950 . S
H481 C459 0.950 . S
C482 C483 1.349 . S
C482 C484 1.327 . S
C482 H507 0.950 . S
C483 C482 1.349 . S
C483 C499 1.349 . S
C484 C482 1.327 . S
C484 C503 1.429 . S
C484 H508 0.950 . S
C485 C502 1.574 . S
C485 C504 1.368 . S
C485 H509 0.949 . S
H486 C490 0.949 . S
C487 C488 1.349 . S
C487 C489 1.327 . S
C487 H510 0.950 . S
C488 C487 1.349 . S
C488 C500 1.349 . S
C489 C487 1.327 . S
C489 C505 1.429 . S
C489 H511 0.950 . S
C490 H486 0.949 . S
C490 C498 1.574 . S
C490 C506 1.368 . S
H491 C499 0.950 . S
H492 C497 0.950 . S
H493 C498 0.949 . S
H494 C500 0.950 . S
H495 C501 0.950 . S
H496 C502 0.949 . S
C497 H492 0.950 . S
C497 C499 1.327 . S
C497 C503 1.429 . S
C498 C490 1.574 . S
C498 H493 0.949 . S
C498 C504 1.368 . S
C499 C483 1.349 . S
C499 H491 0.950 . S
C499 C497 1.327 . S
C500 C488 1.349 . S
C500 H494 0.950 . S
C500 C501 1.327 . S
C501 H495 0.950 . S
C501 C500 1.327 . S
C501 C505 1.429 . S
C502 C485 1.574 . S
C502 H496 0.949 . S
C502 C506 1.368 . S
C503 C484 1.429 . S
C503 C497 1.429 . S
C503 C504 1.523 . S
C504 C485 1.368 . S
C504 C498 1.368 . S
C504 C503 1.523 . S
C505 C489 1.429 . S
C505 C501 1.429 . S
C505 C506 1.523 . S
C506 C490 1.368 . S
C506 C502 1.368 . S
C506 C505 1.523 . S
H507 C482 0.950 . S
H508 C484 0.950 . S
H509 C485 0.949 . S
H510 C487 0.950 . S
H511 C489 0.950 . S
C512 C513 1.349 . S
C512 C514 1.327 . S
C512 H537 0.950 . S
C513 C512 1.349 . S
C513 C529 1.349 . S
C514 C512 1.327 . S
C514 C533 1.429 . S
C514 H538 0.950 . S
C515 C532 1.574 . S
C515 C534 1.368 . S
C515 H539 0.949 . S
H516 C520 0.949 . S
C517 C518 1.349 . S
C517 C519 1.327 . S
C517 H540 0.950 . S
C518 C517 1.349 . S
C518 C530 1.349 . S
C519 C517 1.327 . S
C519 C535 1.429 . S
C519 H541 0.950 . S
C520 H516 0.949 . S
C520 C528 1.574 . S
C520 C536 1.368 . S
H521 C529 0.950 . S
H522 C527 0.950 . S
H523 C528 0.949 . S
H524 C530 0.950 . S
H525 C531 0.950 . S
H526 C532 0.949 . S
C527 H522 0.950 . S
C527 C529 1.327 . S
C527 C533 1.429 . S
C528 C520 1.574 . S
C528 H523 0.949 . S
C528 C534 1.368 . S
C529 C513 1.349 . S
C529 H521 0.950 . S
C529 C527 1.327 . S
C530 C518 1.349 . S
C530 H524 0.950 . S
C530 C531 1.327 . S
C531 H525 0.950 . S
C531 C530 1.327 . S
C531 C535 1.429 . S
C532 C515 1.574 . S
C532 H526 0.949 . S
C532 C536 1.368 . S
C533 C514 1.429 . S
C533 C527 1.429 . S
C533 C534 1.523 . S
C534 C515 1.368 . S
C534 C528 1.368 . S
C534 C533 1.523 . S
C535 C519 1.429 . S
C535 C531 1.429 . S
C535 C536 1.523 . S
C536 C520 1.368 . S
C536 C532 1.368 . S
C536 C535 1.523 . S
H537 C512 0.950 . S
H538 C514 0.950 . S
H539 C515 0.949 . S
H540 C517 0.950 . S
H541 C519 0.950 . S
C542 C543 1.349 . S
C542 C544 1.327 . S
C542 H567 0.950 . S
C543 C542 1.349 . S
C543 C559 1.349 . S
C544 C542 1.327 . S
C544 C563 1.429 . S
C544 H568 0.950 . S
C545 C562 1.574 . S
C545 C564 1.368 . S
C545 H569 0.949 . S
H546 C550 0.949 . S
C547 C548 1.349 . S
C547 C549 1.327 . S
C547 H570 0.950 . S
C548 C547 1.349 . S
C548 C560 1.349 . S
C549 C547 1.327 . S
C549 C565 1.429 . S
C549 H571 0.950 . S
C550 H546 0.949 . S
C550 C558 1.574 . S
C550 C566 1.368 . S
H551 C559 0.950 . S
H552 C557 0.950 . S
H553 C558 0.949 . S
H554 C560 0.950 . S
H555 C561 0.950 . S
H556 C562 0.949 . S
C557 H552 0.950 . S
C557 C559 1.327 . S
C557 C563 1.429 . S
C558 C550 1.574 . S
C558 H553 0.949 . S
C558 C564 1.368 . S
C559 C543 1.349 . S
C559 H551 0.950 . S
C559 C557 1.327 . S
C560 C548 1.349 . S
C560 H554 0.950 . S
C560 C561 1.327 . S
C561 H555 0.950 . S
C561 C560 1.327 . S
C561 C565 1.429 . S
C562 C545 1.574 . S
C562 H556 0.949 . S
C562 C566 1.368 . S
C563 C544 1.429 . S
C563 C557 1.429 . S
C563 C564 1.523 . S
C564 C545 1.368 . S
C564 C558 1.368 . S
C564 C563 1.523 . S
C565 C549 1.429 . S
C565 C561 1.429 . S
C565 C566 1.523 . S
C566 C550 1.368 . S
C566 C562 1.368 . S
C566 C565 1.523 . S
H567 C542 0.950 . S
H568 C544 0.950 . S
H569 C545 0.949 . S
H570 C547 0.950 . S
H571 C549 0.950 . S
C572 C573 1.349 . S
C572 C574 1.327 . S
C572 H597 0.950 . S
C573 C572 1.349 . S
C573 C589 1.349 . S
C574 C572 1.327 . S
C574 C593 1.429 . S
C574 H598 0.950 . S
C575 C592 1.574 . S
C575 C594 1.368 . S
C575 H599 0.949 . S
H576 C580 0.949 . S
C577 C578 1.349 . S
C577 C579 1.327 . S
C577 H600 0.950 . S
C578 C577 1.349 . S
C578 C590 1.349 . S
C579 C577 1.327 . S
C579 C595 1.429 . S
C579 H601 0.950 . S
C580 H576 0.949 . S
C580 C588 1.574 . S
C580 C596 1.368 . S
H581 C589 0.950 . S
H582 C587 0.950 . S
H583 C588 0.949 . S
H584 C590 0.950 . S
H585 C591 0.950 . S
H586 C592 0.949 . S
C587 H582 0.950 . S
C587 C589 1.327 . S
C587 C593 1.429 . S
C588 C580 1.574 . S
C588 H583 0.949 . S
C588 C594 1.368 . S
C589 C573 1.349 . S
C589 H581 0.950 . S
C589 C587 1.327 . S
C590 C578 1.349 . S
C590 H584 0.950 . S
C590 C591 1.327 . S
C591 H585 0.950 . S
C591 C590 1.327 . S
C591 C595 1.429 . S
C592 C575 1.574 . S
C592 H586 0.949 . S
C592 C596 1.368 . S
C593 C574 1.429 . S
C593 C587 1.429 . S
C593 C594 1.523 . S
C594 C575 1.368 . S
C594 C588 1.368 . S
C594 C593 1.523 . S
C595 C579 1.429 . S
C595 C591 1.429 . S
C595 C596 1.523 . S
C596 C580 1.368 . S
C596 C592 1.368 . S
C596 C595 1.523 . S
H597 C572 0.950 . S
H598 C574 0.950 . S
H599 C575 0.949 . S
H600 C577 0.950 . S
H601 C579 0.950 . S
C602 C603 1.349 . S
C602 C604 1.327 . S
C602 H627 0.950 . S
C603 C602 1.349 . S
C603 C619 1.349 . S
C604 C602 1.327 . S
C604 C623 1.429 . S
C604 H628 0.950 . S
C605 C622 1.574 . S
C605 C624 1.368 . S
C605 H629 0.949 . S
H606 C610 0.949 . S
C607 C608 1.349 . S
C607 C609 1.327 . S
C607 H630 0.950 . S
C608 C607 1.349 . S
C608 C620 1.349 . S
C609 C607 1.327 . S
C609 C625 1.429 . S
C609 H631 0.950 . S
C610 H606 0.949 . S
C610 C618 1.574 . S
C610 C626 1.368 . S
H611 C619 0.950 . S
H612 C617 0.950 . S
H613 C618 0.949 . S
H614 C620 0.950 . S
H615 C621 0.950 . S
H616 C622 0.949 . S
C617 H612 0.950 . S
C617 C619 1.327 . S
C617 C623 1.429 . S
C618 C610 1.574 . S
C618 H613 0.949 . S
C618 C624 1.368 . S
C619 C603 1.349 . S
C619 H611 0.950 . S
C619 C617 1.327 . S
C620 C608 1.349 . S
C620 H614 0.950 . S
C620 C621 1.327 . S
C621 H615 0.950 . S
C621 C620 1.327 . S
C621 C625 1.429 . S
C622 C605 1.574 . S
C622 H616 0.949 . S
C622 C626 1.368 . S
C623 C604 1.429 . S
C623 C617 1.429 . S
C623 C624 1.523 . S
C624 C605 1.368 . S
C624 C618 1.368 . S
C624 C623 1.523 . S
C625 C609 1.429 . S
C625 C621 1.429 . S
C625 C626 1.523 . S
C626 C610 1.368 . S
C626 C622 1.368 . S
C626 C625 1.523 . S
H627 C602 0.950 . S
H628 C604 0.950 . S
H629 C605 0.949 . S
H630 C607 0.950 . S
H631 C609 0.950 . S
C632 C633 1.349 . S
C632 C634 1.327 . S
C632 H657 0.950 . S
C633 C632 1.349 . S
C633 C649 1.349 . S
C634 C632 1.327 . S
C634 C653 1.429 . S
C634 H658 0.950 . S
C635 C652 1.574 . S
C635 C654 1.368 . S
C635 H659 0.949 . S
H636 C640 0.949 . S
C637 C638 1.349 . S
C637 C639 1.327 . S
C637 H660 0.950 . S
C638 C637 1.349 . S
C638 C650 1.349 . S
C639 C637 1.327 . S
C639 C655 1.429 . S
C639 H661 0.950 . S
C640 H636 0.949 . S
C640 C648 1.574 . S
C640 C656 1.368 . S
H641 C649 0.950 . S
H642 C647 0.950 . S
H643 C648 0.949 . S
H644 C650 0.950 . S
H645 C651 0.950 . S
H646 C652 0.949 . S
C647 H642 0.950 . S
C647 C649 1.327 . S
C647 C653 1.429 . S
C648 C640 1.574 . S
C648 H643 0.949 . S
C648 C654 1.368 . S
C649 C633 1.349 . S
C649 H641 0.950 . S
C649 C647 1.327 . S
C650 C638 1.349 . S
C650 H644 0.950 . S
C650 C651 1.327 . S
C651 H645 0.950 . S
C651 C650 1.327 . S
C651 C655 1.429 . S
C652 C635 1.574 . S
C652 H646 0.949 . S
C652 C656 1.368 . S
C653 C634 1.429 . S
C653 C647 1.429 . S
C653 C654 1.523 . S
C654 C635 1.368 . S
C654 C648 1.368 . S
C654 C653 1.523 . S
C655 C639 1.429 . S
C655 C651 1.429 . S
C655 C656 1.523 . S
C656 C640 1.368 . S
C656 C652 1.368 . S
C656 C655 1.523 . S
H657 C632 0.950 . S
H658 C634 0.950 . S
H659 C635 0.949 . S
H660 C637 0.950 . S
H661 C639 0.950 . S
C662 C663 1.349 . S
C662 C664 1.327 . S
C662 H687 0.950 . S
C663 C662 1.349 . S
C663 C679 1.349 . S
C664 C662 1.327 . S
C664 C683 1.429 . S
C664 H688 0.950 . S
C665 C682 1.574 . S
C665 C684 1.368 . S
C665 H689 0.949 . S
H666 C670 0.949 . S
C667 C668 1.349 . S
C667 C669 1.327 . S
C667 H690 0.950 . S
C668 C667 1.349 . S
C668 C680 1.349 . S
C669 C667 1.327 . S
C669 C685 1.429 . S
C669 H691 0.950 . S
C670 H666 0.949 . S
C670 C678 1.574 . S
C670 C686 1.368 . S
H671 C679 0.950 . S
H672 C677 0.950 . S
H673 C678 0.949 . S
H674 C680 0.950 . S
H675 C681 0.950 . S
H676 C682 0.949 . S
C677 H672 0.950 . S
C677 C679 1.327 . S
C677 C683 1.429 . S
C678 C670 1.574 . S
C678 H673 0.949 . S
C678 C684 1.368 . S
C679 C663 1.349 . S
C679 H671 0.950 . S
C679 C677 1.327 . S
C680 C668 1.349 . S
C680 H674 0.950 . S
C680 C681 1.327 . S
C681 H675 0.950 . S
C681 C680 1.327 . S
C681 C685 1.429 . S
C682 C665 1.574 . S
C682 H676 0.949 . S
C682 C686 1.368 . S
C683 C664 1.429 . S
C683 C677 1.429 . S
C683 C684 1.523 . S
C684 C665 1.368 . S
C684 C678 1.368 . S
C684 C683 1.523 . S
C685 C669 1.429 . S
C685 C681 1.429 . S
C685 C686 1.523 . S
C686 C670 1.368 . S
C686 C682 1.368 . S
C686 C685 1.523 . S
H687 C662 0.950 . S
H688 C664 0.950 . S
H689 C665 0.949 . S
H690 C667 0.950 . S
H691 C669 0.950 . S
C692 C693 1.349 . S
C692 C694 1.327 . S
C692 H717 0.950 . S
C693 C692 1.349 . S
C693 C709 1.349 . S
C694 C692 1.327 . S
C694 C713 1.429 . S
C694 H718 0.950 . S
C695 C712 1.574 . S
C695 C714 1.368 . S
C695 H719 0.949 . S
H696 C700 0.949 . S
C697 C698 1.349 . S
C697 C699 1.327 . S
C697 H720 0.950 . S
C698 C697 1.349 . S
C698 C710 1.349 . S
C699 C697 1.327 . S
C699 C715 1.429 . S
C699 H721 0.950 . S
C700 H696 0.949 . S
C700 C708 1.574 . S
C700 C716 1.368 . S
H701 C709 0.950 . S
H702 C707 0.950 . S
H703 C708 0.949 . S
H704 C710 0.950 . S
H705 C711 0.950 . S
H706 C712 0.949 . S
C707 H702 0.950 . S
C707 C709 1.327 . S
C707 C713 1.429 . S
C708 C700 1.574 . S
C708 H703 0.949 . S
C708 C714 1.368 . S
C709 C693 1.349 . S
C709 H701 0.950 . S
C709 C707 1.327 . S
C710 C698 1.349 . S
C710 H704 0.950 . S
C710 C711 1.327 . S
C711 H705 0.950 . S
C711 C710 1.327 . S
C711 C715 1.429 . S
C712 C695 1.574 . S
C712 H706 0.949 . S
C712 C716 1.368 . S
C713 C694 1.429 . S
C713 C707 1.429 . S
C713 C714 1.523 . S
C714 C695 1.368 . S
C714 C708 1.368 . S
C714 C713 1.523 . S
C715 C699 1.429 . S
C715 C711 1.429 . S
C715 C716 1.523 . S
C716 C700 1.368 . S
C716 C712 1.368 . S
C716 C715 1.523 . S
H717 C692 0.950 . S
H718 C694 0.950 . S
H719 C695 0.949 . S
H720 C697 0.950 . S
H721 C699 0.950 . S
C722 C723 1.349 . S
C722 C724 1.327 . S
C722 H747 0.950 . S
C723 C722 1.349 . S
C723 C739 1.349 . S
C724 C722 1.327 . S
C724 C743 1.429 . S
C724 H748 0.950 . S
C725 C742 1.574 . S
C725 C744 1.368 . S
C725 H749 0.949 . S
H726 C730 0.949 . S
C727 C728 1.349 . S
C727 C729 1.327 . S
C727 H750 0.950 . S
C728 C727 1.349 . S
C728 C740 1.349 . S
C729 C727 1.327 . S
C729 C745 1.429 . S
C729 H751 0.950 . S
C730 H726 0.949 . S
C730 C738 1.574 . S
C730 C746 1.368 . S
H731 C739 0.950 . S
H732 C737 0.950 . S
H733 C738 0.949 . S
H734 C740 0.950 . S
H735 C741 0.950 . S
H736 C742 0.949 . S
C737 H732 0.950 . S
C737 C739 1.327 . S
C737 C743 1.429 . S
C738 C730 1.574 . S
C738 H733 0.949 . S
C738 C744 1.368 . S
C739 C723 1.349 . S
C739 H731 0.950 . S
C739 C737 1.327 . S
C740 C728 1.349 . S
C740 H734 0.950 . S
C740 C741 1.327 . S
C741 H735 0.950 . S
C741 C740 1.327 . S
C741 C745 1.429 . S
C742 C725 1.574 . S
C742 H736 0.949 . S
C742 C746 1.368 . S
C743 C724 1.429 . S
C743 C737 1.429 . S
C743 C744 1.523 . S
C744 C725 1.368 . S
C744 C738 1.368 . S
C744 C743 1.523 . S
C745 C729 1.429 . S
C745 C741 1.429 . S
C745 C746 1.523 . S
C746 C730 1.368 . S
C746 C742 1.368 . S
C746 C745 1.523 . S
H747 C722 0.950 . S
H748 C724 0.950 . S
H749 C725 0.949 . S
H750 C727 0.950 . S
H751 C729 0.950 . S
C752 C753 1.349 . S
C752 C754 1.327 . S
C752 H777 0.950 . S
C753 C752 1.349 . S
C753 C769 1.349 . S
C754 C752 1.327 . S
C754 C773 1.429 . S
C754 H778 0.950 . S
C755 C772 1.574 . S
C755 C774 1.368 . S
C755 H779 0.949 . S
H756 C760 0.949 . S
C757 C758 1.349 . S
C757 C759 1.327 . S
C757 H780 0.950 . S
C758 C757 1.349 . S
C758 C770 1.349 . S
C759 C757 1.327 . S
C759 C775 1.429 . S
C759 H781 0.950 . S
C760 H756 0.949 . S
C760 C768 1.574 . S
C760 C776 1.368 . S
H761 C769 0.950 . S
H762 C767 0.950 . S
H763 C768 0.949 . S
H764 C770 0.950 . S
H765 C771 0.950 . S
H766 C772 0.949 . S
C767 H762 0.950 . S
C767 C769 1.327 . S
C767 C773 1.429 . S
C768 C760 1.574 . S
C768 H763 0.949 . S
C768 C774 1.368 . S
C769 C753 1.349 . S
C769 H761 0.950 . S
C769 C767 1.327 . S
C770 C758 1.349 . S
C770 H764 0.950 . S
C770 C771 1.327 . S
C771 H765 0.950 . S
C771 C770 1.327 . S
C771 C775 1.429 . S
C772 C755 1.574 . S
C772 H766 0.949 . S
C772 C776 1.368 . S
C773 C754 1.429 . S
C773 C767 1.429 . S
C773 C774 1.523 . S
C774 C755 1.368 . S
C774 C768 1.368 . S
C774 C773 1.523 . S
C775 C759 1.429 . S
C775 C771 1.429 . S
C775 C776 1.523 . S
C776 C760 1.368 . S
C776 C772 1.368 . S
C776 C775 1.523 . S
H777 C752 0.950 . S
H778 C754 0.950 . S
H779 C755 0.949 . S
H780 C757 0.950 . S
H781 C759 0.950 . S
C782 C783 1.349 . S
C782 C784 1.327 . S
C782 H807 0.950 . S
C783 C782 1.349 . S
C783 C799 1.349 . S
C784 C782 1.327 . S
C784 C803 1.429 . S
C784 H808 0.950 . S
C785 C802 1.574 . S
C785 C804 1.368 . S
C785 H809 0.949 . S
H786 C790 0.949 . S
C787 C788 1.349 . S
C787 C789 1.327 . S
C787 H810 0.950 . S
C788 C787 1.349 . S
C788 C800 1.349 . S
C789 C787 1.327 . S
C789 C805 1.429 . S
C789 H811 0.950 . S
C790 H786 0.949 . S
C790 C798 1.574 . S
C790 C806 1.368 . S
H791 C799 0.950 . S
H792 C797 0.950 . S
H793 C798 0.949 . S
H794 C800 0.950 . S
H795 C801 0.950 . S
H796 C802 0.949 . S
C797 H792 0.950 . S
C797 C799 1.327 . S
C797 C803 1.429 . S
C798 C790 1.574 . S
C798 H793 0.949 . S
C798 C804 1.368 . S
C799 C783 1.349 . S
C799 H791 0.950 . S
C799 C797 1.327 . S
C800 C788 1.349 . S
C800 H794 0.950 . S
C800 C801 1.327 . S
C801 H795 0.950 . S
C801 C800 1.327 . S
C801 C805 1.429 . S
C802 C785 1.574 . S
C802 H796 0.949 . S
C802 C806 1.368 . S
C803 C784 1.429 . S
C803 C797 1.429 . S
C803 C804 1.523 . S
C804 C785 1.368 . S
C804 C798 1.368 . S
C804 C803 1.523 . S
C805 C789 1.429 . S
C805 C801 1.429 . S
C805 C806 1.523 . S
C806 C790 1.368 . S
C806 C802 1.368 . S
C806 C805 1.523 . S
H807 C782 0.950 . S
H808 C784 0.950 . S
H809 C785 0.949 . S
H810 C787 0.950 . S
H811 C789 0.950 . S
C812 C813 1.349 . S
C812 C814 1.327 . S
C812 H837 0.950 . S
C813 C812 1.349 . S
C813 C829 1.349 . S
C814 C812 1.327 . S
C814 C833 1.429 . S
C814 H838 0.950 . S
C815 C832 1.574 . S
C815 C834 1.368 . S
C815 H839 0.949 . S
H816 C820 0.949 . S
C817 C818 1.349 . S
C817 C819 1.327 . S
C817 H840 0.950 . S
C818 C817 1.349 . S
C818 C830 1.349 . S
C819 C817 1.327 . S
C819 C835 1.429 . S
C819 H841 0.950 . S
C820 H816 0.949 . S
C820 C828 1.574 . S
C820 C836 1.368 . S
H821 C829 0.950 . S
H822 C827 0.950 . S
H823 C828 0.949 . S
H824 C830 0.950 . S
H825 C831 0.950 . S
H826 C832 0.949 . S
C827 H822 0.950 . S
C827 C829 1.327 . S
C827 C833 1.429 . S
C828 C820 1.574 . S
C828 H823 0.949 . S
C828 C834 1.368 . S
C829 C813 1.349 . S
C829 H821 0.950 . S
C829 C827 1.327 . S
C830 C818 1.349 . S
C830 H824 0.950 . S
C830 C831 1.327 . S
C831 H825 0.950 . S
C831 C830 1.327 . S
C831 C835 1.429 . S
C832 C815 1.574 . S
C832 H826 0.949 . S
C832 C836 1.368 . S
C833 C814 1.429 . S
C833 C827 1.429 . S
C833 C834 1.523 . S
C834 C815 1.368 . S
C834 C828 1.368 . S
C834 C833 1.523 . S
C835 C819 1.429 . S
C835 C831 1.429 . S
C835 C836 1.523 . S
C836 C820 1.368 . S
C836 C832 1.368 . S
C836 C835 1.523 . S
H837 C812 0.950 . S
H838 C814 0.950 . S
H839 C815 0.949 . S
H840 C817 0.950 . S
H841 C819 0.950 . S
C842 C843 1.349 . S
C842 C844 1.327 . S
C842 H867 0.950 . S
C843 C842 1.349 . S
C843 C859 1.349 . S
C844 C842 1.327 . S
C844 C863 1.429 . S
C844 H868 0.950 . S
C845 C862 1.574 . S
C845 C864 1.368 . S
C845 H869 0.949 . S
H846 C850 0.949 . S
C847 C848 1.349 . S
C847 C849 1.327 . S
C847 H870 0.950 . S
C848 C847 1.349 . S
C848 C860 1.349 . S
C849 C847 1.327 . S
C849 C865 1.429 . S
C849 H871 0.950 . S
C850 H846 0.949 . S
C850 C858 1.574 . S
C850 C866 1.368 . S
H851 C859 0.950 . S
H852 C857 0.950 . S
H853 C858 0.949 . S
H854 C860 0.950 . S
H855 C861 0.950 . S
H856 C862 0.949 . S
C857 H852 0.950 . S
C857 C859 1.327 . S
C857 C863 1.429 . S
C858 C850 1.574 . S
C858 H853 0.949 . S
C858 C864 1.368 . S
C859 C843 1.349 . S
C859 H851 0.950 . S
C859 C857 1.327 . S
C860 C848 1.349 . S
C860 H854 0.950 . S
C860 C861 1.327 . S
C861 H855 0.950 . S
C861 C860 1.327 . S
C861 C865 1.429 . S
C862 C845 1.574 . S
C862 H856 0.949 . S
C862 C866 1.368 . S
C863 C844 1.429 . S
C863 C857 1.429 . S
C863 C864 1.523 . S
C864 C845 1.368 . S
C864 C858 1.368 . S
C864 C863 1.523 . S
C865 C849 1.429 . S
C865 C861 1.429 . S
C865 C866 1.523 . S
C866 C850 1.368 . S
C866 C862 1.368 . S
C866 C865 1.523 . S
H867 C842 0.950 . S
H868 C844 0.950 . S
H869 C845 0.949 . S
H870 C847 0.950 . S
H871 C849 0.950 . S
C153 C5 1.422 . S
C158 C74 1.415 . S
C183 C14 1.341 . S
C188 C93 1.315 . S
C218 C130 1.736 . S
C213 C25 1.761 . S
C243 C34 1.684 . S
C248 C140 1.640 . S
C278 C110 1.843 . S
C273 C7 1.830 . S
C308 C80 1.405 . S
C303 C13 1.460 . S
C338 C151 1.497 . S
C333 C23 1.522 . S
C368 C121 1.377 . S
C363 C31 1.405 . S
C393 C4 1.647 . S
C398 C134 1.641 . S
C428 C101 1.697 . S
C423 C22 1.749 . S
C453 C32 1.734 . S
C458 C91 1.727 . S
C483 C16 1.192 . S
C488 C113 1.179 . S
C518 C73 1.402 . S
C513 C41 1.408 . S
C543 C50 1.349 . S
C548 C94 1.322 . S
C573 C61 1.755 . S
C578 C131 1.731 . S
C603 C67 1.696 . S
C608 C141 1.651 . S
C633 C40 1.850 . S
C638 C111 1.862 . S
C668 C81 1.384 . S
C663 C52 1.435 . S
C698 C150 1.506 . S
C693 C59 1.531 . S
C728 C120 1.374 . S
C723 C70 1.401 . S
C753 C43 1.643 . S
C758 C133 1.638 . S
C788 C100 1.707 . S
C783 C58 1.759 . S
C818 C90 1.709 . S
C813 C68 1.716 . S
C843 C49 1.201 . S
C848 C114 1.186 . S
