# Generated by pormake.
# Topology apo, (3,6)-cn, num edge types: 1
# Building blocks:
#     Node 0, Type 0, BuildingBlock: BETDIP_clean_linker_0, # of connection points: 3
#     Node 1, Type 0, BuildingBlock: BETDIP_clean_linker_0, # of connection points: 3
#     Node 2, Type 0, BuildingBlock: BETDIP_clean_linker_0, # of connection points: 3
#     Node 3, Type 0, BuildingBlock: BETDIP_clean_linker_0, # of connection points: 3
#     Node 4, Type 0, BuildingBlock: BETDIP_clean_linker_0, # of connection points: 3
#     Node 5, Type 0, BuildingBlock: BETDIP_clean_linker_0, # of connection points: 3
#     Node 6, Type 0, BuildingBlock: BETDIP_clean_linker_0, # of connection points: 3
#     Node 7, Type 0, BuildingBlock: BETDIP_clean_linker_0, # of connection points: 3
#     Node 8, Type 1, BuildingBlock: MIDCAF_clean_sbu_0, # of connection points: 6
#     Node 9, Type 1, BuildingBlock: MIDCAF_clean_sbu_0, # of connection points: 6
#     Node 10, Type 1, BuildingBlock: MIDCAF_clean_sbu_0, # of connection points: 6
#     Node 11, Type 1, BuildingBlock: MIDCAF_clean_sbu_0, # of connection points: 6
#     Edge 12, Type (0, 1), BuildingBlock: EYOCIG_clean_linker_4, # of connection points: 2
#     Edge 13, Type (0, 1), BuildingBlock: EYOCIG_clean_linker_4, # of connection points: 2
#     Edge 14, Type (0, 1), BuildingBlock: EYOCIG_clean_linker_4, # of connection points: 2
#     Edge 15, Type (0, 1), BuildingBlock: EYOCIG_clean_linker_4, # of connection points: 2
#     Edge 16, Type (0, 1), BuildingBlock: EYOCIG_clean_linker_4, # of connection points: 2
#     Edge 17, Type (0, 1), BuildingBlock: EYOCIG_clean_linker_4, # of connection points: 2
#     Edge 18, Type (0, 1), BuildingBlock: EYOCIG_clean_linker_4, # of connection points: 2
#     Edge 19, Type (0, 1), BuildingBlock: EYOCIG_clean_linker_4, # of connection points: 2
#     Edge 20, Type (0, 1), BuildingBlock: EYOCIG_clean_linker_4, # of connection points: 2
#     Edge 21, Type (0, 1), BuildingBlock: EYOCIG_clean_linker_4, # of connection points: 2
#     Edge 22, Type (0, 1), BuildingBlock: EYOCIG_clean_linker_4, # of connection points: 2
#     Edge 23, Type (0, 1), BuildingBlock: EYOCIG_clean_linker_4, # of connection points: 2
#     Edge 24, Type (0, 1), BuildingBlock: EYOCIG_clean_linker_4, # of connection points: 2
#     Edge 25, Type (0, 1), BuildingBlock: EYOCIG_clean_linker_4, # of connection points: 2
#     Edge 26, Type (0, 1), BuildingBlock: EYOCIG_clean_linker_4, # of connection points: 2
#     Edge 27, Type (0, 1), BuildingBlock: EYOCIG_clean_linker_4, # of connection points: 2
#     Edge 28, Type (0, 1), BuildingBlock: EYOCIG_clean_linker_4, # of connection points: 2
#     Edge 29, Type (0, 1), BuildingBlock: EYOCIG_clean_linker_4, # of connection points: 2
#     Edge 30, Type (0, 1), BuildingBlock: EYOCIG_clean_linker_4, # of connection points: 2
#     Edge 31, Type (0, 1), BuildingBlock: EYOCIG_clean_linker_4, # of connection points: 2
#     Edge 32, Type (0, 1), BuildingBlock: EYOCIG_clean_linker_4, # of connection points: 2
#     Edge 33, Type (0, 1), BuildingBlock: EYOCIG_clean_linker_4, # of connection points: 2
#     Edge 34, Type (0, 1), BuildingBlock: EYOCIG_clean_linker_4, # of connection points: 2
#     Edge 35, Type (0, 1), BuildingBlock: EYOCIG_clean_linker_4, # of connection points: 2
# Relax obj value: 0.011
# Max RMSD: 0.061
# Mean RMSD: 0.051
data_MOF--net-apo--node1-MIDCAF_clean_sbu_0--node2-BETDIP_clean_linker_0--edge1-EYOCIG_clean_linker_4
_symmetry_space_group_name_H-M    P1
_symmetry_Int_Tables_number       1
_symmetry_cell_setting            triclinic
loop_
_symmetry_equiv_pos_as_xyz
'x, y, z'
_cell_length_a     29.366748
_cell_length_b     32.872644
_cell_length_c     27.54665
_cell_angle_alpha  89.990233
_cell_angle_beta   90.005048
_cell_angle_gamma 90.138342
loop_
_atom_site_label
_atom_site_type_symbol
_atom_site_fract_x
_atom_site_fract_y
_atom_site_fract_z
_atom_type_partial_charge
H0 H 0.30492 0.27049 0.44553 0.0
H1 H 0.33393 0.33359 0.31147 0.0
H2 H 0.40452 0.36667 0.44191 0.0
H3 H 0.29691 0.2832 0.27563 0.0
C4 C 0.27389 0.27003 0.30207 0.0
C5 C 0.32391 0.29323 0.42537 0.0
C6 C 0.35589 0.31781 0.44942 0.0
C7 C 0.31599 0.29799 0.3753 0.0
C8 C 0.34035 0.32815 0.34957 0.0
C9 C 0.37232 0.3527 0.37359 0.0
C10 C 0.3801 0.34734 0.42331 0.0
N11 N 0.2821 0.27318 0.35286 0.0
H12 H 0.19292 0.21638 0.94552 0.0
H13 H 0.16397 0.15326 0.81149 0.0
H14 H 0.09338 0.12016 0.94192 0.0
H15 H 0.20094 0.20369 0.77564 0.0
C16 C 0.22397 0.21685 0.80208 0.0
C17 C 0.17395 0.19364 0.92537 0.0
C18 C 0.14198 0.16904 0.94943 0.0
C19 C 0.18187 0.18888 0.87531 0.0
C20 C 0.15754 0.1587 0.84958 0.0
C21 C 0.12558 0.13414 0.8736 0.0
C22 C 0.11779 0.1395 0.92332 0.0
N23 N 0.21576 0.2137 0.85286 0.0
H24 H 0.80463 0.21545 0.56229 0.0
H25 H 0.83417 0.15291 0.69652 0.0
H26 H 0.90419 0.11969 0.5659 0.0
H27 H 0.79672 0.2029 0.7323 0.0
C28 C 0.77392 0.2162 0.70581 0.0
C29 C 0.82367 0.19285 0.58246 0.0
C30 C 0.85555 0.16832 0.55838 0.0
C31 C 0.81594 0.18821 0.63259 0.0
C32 C 0.8404 0.15823 0.65836 0.0
C33 C 0.87228 0.13373 0.63431 0.0
C34 C 0.87984 0.13897 0.58452 0.0
N35 N 0.78216 0.21301 0.65504 0.0
H36 H 0.69323 0.27126 0.06235 0.0
H37 H 0.66372 0.33381 0.19654 0.0
H38 H 0.59372 0.36707 0.06589 0.0
H39 H 0.70114 0.28381 0.23235 0.0
C40 C 0.72394 0.27051 0.20587 0.0
C41 C 0.67419 0.29387 0.08251 0.0
C42 C 0.64233 0.31841 0.05841 0.0
C43 C 0.68193 0.29851 0.13263 0.0
C44 C 0.65748 0.3285 0.15839 0.0
C45 C 0.62562 0.35301 0.13431 0.0
C46 C 0.61805 0.34777 0.08453 0.0
N47 N 0.7157 0.2737 0.1551 0.0
H48 H 0.69313 0.71624 0.56099 0.0
H49 H 0.66413 0.65316 0.69505 0.0
H50 H 0.59353 0.62007 0.56462 0.0
H51 H 0.70115 0.70355 0.73089 0.0
C52 C 0.72417 0.71671 0.70444 0.0
C53 C 0.67415 0.6935 0.58114 0.0
C54 C 0.64217 0.66892 0.5571 0.0
C55 C 0.68206 0.68875 0.63121 0.0
C56 C 0.65771 0.65859 0.65695 0.0
C57 C 0.62573 0.63404 0.63294 0.0
C58 C 0.61796 0.6394 0.58321 0.0
N59 N 0.71596 0.71356 0.65366 0.0
H60 H 0.80505 0.77046 0.061 0.0
H61 H 0.834 0.83356 0.19504 0.0
H62 H 0.90459 0.86667 0.06462 0.0
H63 H 0.79702 0.78314 0.23089 0.0
C64 C 0.774 0.76998 0.20444 0.0
C65 C 0.82402 0.7932 0.08115 0.0
C66 C 0.85599 0.8178 0.05711 0.0
C67 C 0.81609 0.79796 0.13122 0.0
C68 C 0.84043 0.82813 0.15695 0.0
C69 C 0.8724 0.85269 0.13294 0.0
C70 C 0.88018 0.84733 0.08322 0.0
N71 N 0.78221 0.77313 0.15366 0.0
H72 H 0.19343 0.7714 0.44428 0.0
H73 H 0.1639 0.83392 0.31005 0.0
H74 H 0.09386 0.86715 0.44066 0.0
H75 H 0.20135 0.78394 0.27428 0.0
C76 C 0.22415 0.77063 0.30077 0.0
C77 C 0.17439 0.794 0.42411 0.0
C78 C 0.14251 0.81852 0.44818 0.0
C79 C 0.18212 0.79863 0.37398 0.0
C80 C 0.15766 0.8286 0.3482 0.0
C81 C 0.12578 0.85311 0.37226 0.0
C82 C 0.11821 0.84787 0.42204 0.0
N83 N 0.2159 0.77383 0.35154 0.0
H84 H 0.30473 0.71546 0.94421 0.0
H85 H 0.33424 0.65292 0.81001 0.0
H86 H 0.40426 0.61967 0.94066 0.0
H87 H 0.29681 0.70292 0.77421 0.0
C88 C 0.27401 0.71623 0.8007 0.0
C89 C 0.32377 0.69285 0.92405 0.0
C90 C 0.35563 0.66832 0.94815 0.0
C91 C 0.31603 0.68822 0.87393 0.0
C92 C 0.34048 0.65824 0.84817 0.0
C93 C 0.37235 0.63372 0.87224 0.0
C94 C 0.37992 0.63896 0.92202 0.0
N95 N 0.28226 0.71303 0.85147 0.0
Zn96 Zn 0.04114 0.1063 0.33807 0.0
Zn97 Zn 0.95562 0.10662 0.16919 0.0
Zn98 Zn 0.9984 0.10814 0.25363 0.0
C99 C 0.04177 0.13973 0.15216 0.0
C100 C 0.95876 0.0268 0.20064 0.0
O101 O 0.95289 0.13726 0.30857 0.0
O102 O 0.98937 0.12571 0.37766 0.0
C103 C 0.09277 0.1555 0.27662 0.0
O104 O 0.04396 0.13767 0.19888 0.0
O105 O 0.00742 0.12638 0.12973 0.0
O106 O 0.9404 0.04792 0.1679 0.0
O107 O 0.98335 0.04365 0.23386 0.0
O108 O 0.08979 0.14534 0.32062 0.0
O109 O 0.06312 0.14311 0.24535 0.0
O110 O 0.0135 0.04358 0.2729 0.0
O111 O 0.05637 0.04766 0.33894 0.0
C112 C 0.0381 0.02664 0.30599 0.0
O113 O 0.93373 0.14292 0.26213 0.0
O114 O 0.90703 0.14543 0.18689 0.0
C115 C 0.95507 0.13909 0.35531 0.0
C116 C 0.9041 0.15541 0.23095 0.0
Zn117 Zn 0.54228 0.38017 0.66917 0.0
Zn118 Zn 0.4568 0.38049 0.83805 0.0
Zn119 Zn 0.49953 0.37865 0.75361 0.0
C120 C 0.45988 0.46015 0.80597 0.0
C121 C 0.40513 0.33132 0.77661 0.0
O122 O 0.56419 0.34383 0.76212 0.0
O123 O 0.59085 0.34133 0.68686 0.0
C124 C 0.53921 0.45998 0.70063 0.0
O125 O 0.48447 0.44321 0.77289 0.0
O126 O 0.4416 0.43913 0.83892 0.0
O127 O 0.40812 0.34148 0.82061 0.0
O128 O 0.43478 0.34371 0.74534 0.0
O129 O 0.55754 0.43886 0.66788 0.0
O130 O 0.51462 0.44313 0.73385 0.0
O131 O 0.45394 0.34915 0.69887 0.0
O132 O 0.49046 0.36044 0.62971 0.0
C133 C 0.45612 0.3471 0.65215 0.0
O134 O 0.54504 0.34949 0.80856 0.0
O135 O 0.50856 0.36104 0.87764 0.0
C136 C 0.5938 0.33134 0.73092 0.0
C137 C 0.54285 0.34765 0.85529 0.0
Zn138 Zn 0.04238 0.88019 0.83737 0.0
Zn139 Zn 0.95688 0.88052 0.66847 0.0
Zn140 Zn -0.0004 0.87867 0.75292 0.0
C141 C 0.95991 0.96017 0.70056 0.0
C142 C 0.90524 0.8313 0.72991 0.0
O143 O 0.06428 0.84388 0.74442 0.0
O144 O 0.09096 0.84137 0.81968 0.0
C145 C 0.03925 0.96001 0.80591 0.0
O146 O 0.98451 0.94323 0.73365 0.0
O147 O 0.94164 0.93915 0.6676 0.0
O148 O 0.90823 0.84147 0.6859 0.0
O149 O 0.93489 0.8437 0.76118 0.0
O150 O 0.05761 0.93889 0.83865 0.0
O151 O 0.01466 0.94315 0.77269 0.0
O152 O 0.95404 0.84915 0.80766 0.0
O153 O 0.99056 0.86044 0.87681 0.0
C154 C 0.95622 0.84709 0.85438 0.0
O155 O 0.04513 0.84955 0.69798 0.0
O156 O 0.00866 0.86111 0.62889 0.0
C157 C 0.0939 0.83139 0.77561 0.0
C158 C 0.04295 0.84773 0.65124 0.0
Zn159 Zn 0.5412 0.60627 0.16848 0.0
Zn160 Zn 0.45574 0.60659 0.33737 0.0
Zn161 Zn 0.49849 0.60811 0.25292 0.0
C162 C 0.54191 0.63965 0.35438 0.0
C163 C 0.4588 0.52678 0.30591 0.0
O164 O 0.45297 0.63727 0.19799 0.0
O165 O 0.48943 0.62571 0.1289 0.0
C166 C 0.59288 0.65545 0.22991 0.0
O167 O 0.54408 0.63761 0.30766 0.0
O168 O 0.50758 0.62631 0.37682 0.0
O169 O 0.44047 0.5479 0.33866 0.0
O170 O 0.4834 0.54363 0.27269 0.0
O171 O 0.58988 0.64529 0.18591 0.0
O172 O 0.56323 0.64306 0.26118 0.0
O173 O 0.51354 0.54355 0.23365 0.0
O174 O 0.55641 0.54763 0.16761 0.0
C175 C 0.53812 0.52661 0.20056 0.0
O176 O 0.43383 0.64294 0.24444 0.0
O177 O 0.40718 0.64544 0.3197 0.0
C178 C 0.45514 0.6391 0.15125 0.0
C179 C 0.40422 0.65543 0.27563 0.0
C180 C 0.08167 0.91324 0.32889 0.0
C181 C 0.10256 0.88546 0.3469 0.0
C182 C 0.06054 0.94957 0.31318 0.0
C183 C 0.04733 0.98371 0.30544 0.0
C184 C 0.41642 0.57357 0.82889 0.0
C185 C 0.39555 0.60136 0.8469 0.0
C186 C 0.43752 0.53723 0.81317 0.0
C187 C 0.45069 0.50308 0.80543 0.0
C188 C 0.582 0.57362 0.67653 0.0
C189 C 0.60268 0.60151 0.65829 0.0
C190 C 0.56118 0.53719 0.69262 0.0
C191 C 0.54821 0.50298 0.7007 0.0
C192 C 0.91607 0.91313 0.17652 0.0
C193 C 0.89542 0.88524 0.15828 0.0
C194 C 0.93686 0.94958 0.19262 0.0
C195 C 0.9498 0.98379 0.20071 0.0
C196 C 0.91638 0.07359 0.67766 0.0
C197 C 0.89549 0.10137 0.65966 0.0
C198 C 0.9375 0.03725 0.69337 0.0
C199 C 0.95069 0.0031 0.70111 0.0
C200 C 0.58156 0.41318 0.17765 0.0
C201 C 0.60243 0.38538 0.15965 0.0
C202 C 0.56047 0.44952 0.19336 0.0
C203 C 0.54731 0.48368 0.2011 0.0
C204 C 0.41604 0.41313 0.33001 0.0
C205 C 0.39537 0.38524 0.34824 0.0
C206 C 0.43685 0.44957 0.31392 0.0
C207 C 0.44981 0.48378 0.30584 0.0
C208 C 0.08192 0.07368 0.83003 0.0
C209 C 0.10256 0.10158 0.84826 0.0
C210 C 0.06114 0.03723 0.81393 0.0
C211 C 0.0482 0.00302 0.80585 0.0
C212 C 0.1222 0.17199 0.04312 0.0
C213 C 0.13371 0.17313 1.00098 0.0
C214 C 0.10221 0.16556 0.08934 0.0
C215 C 0.07867 0.15544 0.12327 0.0
C216 C 0.37565 0.31486 0.54313 0.0
C217 C 0.36415 0.31372 0.50099 0.0
C218 C 0.39565 0.32129 0.58934 0.0
C219 C 0.4192 0.3314 0.62327 0.0
C220 C 0.62291 0.3156 0.96461 0.0
C221 C 0.63425 0.31442 0.0068 0.0
C222 C 0.60309 0.322 0.91831 0.0
C223 C 0.57965 0.33203 0.88429 0.0
C224 C 0.87499 0.17112 0.46459 0.0
C225 C 0.86364 0.17231 0.50677 0.0
C226 C 0.89482 0.16472 0.41831 0.0
C227 C 0.91827 0.1547 0.3843 0.0
C228 C 0.87577 0.81485 0.96341 0.0
C229 C 0.86426 0.81371 0.00555 0.0
C230 C 0.89577 0.82127 0.91719 0.0
C231 C 0.91932 0.83139 0.88327 0.0
C232 C 0.62239 0.67187 0.46339 0.0
C233 C 0.6339 0.67301 0.50554 0.0
C234 C 0.60239 0.66545 0.41718 0.0
C235 C 0.57883 0.65534 0.38326 0.0
C236 C 0.37507 0.67113 0.04195 0.0
C237 C 0.36373 0.67231 0.99975 0.0
C238 C 0.39489 0.66474 0.08824 0.0
C239 C 0.41833 0.65472 0.12226 0.0
C240 C 0.12306 0.81571 0.54198 0.0
C241 C 0.13441 0.81453 0.49979 0.0
C242 C 0.10321 0.82211 0.58826 0.0
C243 C 0.07976 0.83212 0.62226 0.0
C244 C 0.20268 0.22703 0.27241 0.0
C245 C 0.23542 0.24678 0.28481 0.0
C246 C 0.16354 0.20301 0.26317 0.0
C247 C 0.13003 0.18164 0.26324 0.0
C248 C 0.29518 0.25984 0.77241 0.0
C249 C 0.26244 0.2401 0.78482 0.0
C250 C 0.33433 0.28385 0.76316 0.0
C251 C 0.36786 0.3052 0.76324 0.0
C252 C 0.70317 0.25961 0.73533 0.0
C253 C 0.7357 0.23968 0.72299 0.0
C254 C 0.66426 0.28378 0.74453 0.0
C255 C 0.63089 0.3052 0.74441 0.0
C256 C 0.79469 0.2271 0.2354 0.0
C257 C 0.76216 0.24703 0.22306 0.0
C258 C 0.83362 0.20293 0.24458 0.0
C259 C 0.86699 0.18153 0.24444 0.0
C260 C 0.79536 0.75975 0.7341 0.0
C261 C 0.76262 0.73998 0.7217 0.0
C262 C 0.83449 0.78378 0.74334 0.0
C263 C 0.86799 0.80515 0.74327 0.0
C264 C 0.7028 0.72696 0.2341 0.0
C265 C 0.73554 0.74672 0.2217 0.0
C266 C 0.66366 0.70294 0.24335 0.0
C267 C 0.63014 0.68158 0.24328 0.0
C268 C 0.29487 0.7272 0.27125 0.0
C269 C 0.26235 0.74714 0.28359 0.0
C270 C 0.33377 0.70301 0.26205 0.0
C271 C 0.36713 0.68158 0.26216 0.0
C272 C 0.20328 0.75966 0.77117 0.0
C273 C 0.23581 0.73972 0.78351 0.0
C274 C 0.16437 0.78385 0.76199 0.0
C275 C 0.131 0.80526 0.76213 0.0
loop_
_geom_bond_atom_site_label_1
_geom_bond_atom_site_label_2
_geom_bond_distance
_geom_bond_site_symmetry_2
_ccdc_geom_bond_type
H0 C5 0.930 . S
H1 C8 0.930 . S
H2 C10 0.930 . S
H3 C4 1.016 . S
C4 H3 1.016 . S
C4 N11 1.286 . S
C5 H0 0.930 . S
C5 C6 1.397 . S
C5 C7 1.361 . S
C6 C5 1.397 . S
C6 C10 1.390 . S
C7 C5 1.361 . S
C7 C8 1.393 . S
C7 N11 1.413 . S
C8 H1 0.930 . S
C8 C7 1.393 . S
C8 C9 1.399 . S
C9 C8 1.399 . S
C9 C10 1.381 . S
C10 H2 0.930 . S
C10 C6 1.390 . S
C10 C9 1.381 . S
N11 C4 1.286 . S
N11 C7 1.413 . S
H12 C17 0.930 . S
H13 C20 0.930 . S
H14 C22 0.930 . S
H15 C16 1.016 . S
C16 H15 1.016 . S
C16 N23 1.286 . S
C17 H12 0.930 . S
C17 C18 1.397 . S
C17 C19 1.361 . S
C18 C17 1.397 . S
C18 C22 1.390 . S
C19 C17 1.361 . S
C19 C20 1.393 . S
C19 N23 1.413 . S
C20 H13 0.930 . S
C20 C19 1.393 . S
C20 C21 1.399 . S
C21 C20 1.399 . S
C21 C22 1.381 . S
C22 H14 0.930 . S
C22 C18 1.390 . S
C22 C21 1.381 . S
N23 C16 1.286 . S
N23 C19 1.413 . S
H24 C29 0.930 . S
H25 C32 0.930 . S
H26 C34 0.930 . S
H27 C28 1.016 . S
C28 H27 1.016 . S
C28 N35 1.286 . S
C29 H24 0.930 . S
C29 C30 1.397 . S
C29 C31 1.361 . S
C30 C29 1.397 . S
C30 C34 1.390 . S
C31 C29 1.361 . S
C31 C32 1.393 . S
C31 N35 1.413 . S
C32 H25 0.930 . S
C32 C31 1.393 . S
C32 C33 1.399 . S
C33 C32 1.399 . S
C33 C34 1.381 . S
C34 H26 0.930 . S
C34 C30 1.390 . S
C34 C33 1.381 . S
N35 C28 1.286 . S
N35 C31 1.413 . S
H36 C41 0.930 . S
H37 C44 0.930 . S
H38 C46 0.930 . S
H39 C40 1.016 . S
C40 H39 1.016 . S
C40 N47 1.286 . S
C41 H36 0.930 . S
C41 C42 1.397 . S
C41 C43 1.361 . S
C42 C41 1.397 . S
C42 C46 1.390 . S
C43 C41 1.361 . S
C43 C44 1.393 . S
C43 N47 1.413 . S
C44 H37 0.930 . S
C44 C43 1.393 . S
C44 C45 1.399 . S
C45 C44 1.399 . S
C45 C46 1.381 . S
C46 H38 0.930 . S
C46 C42 1.390 . S
C46 C45 1.381 . S
N47 C40 1.286 . S
N47 C43 1.413 . S
H48 C53 0.930 . S
H49 C56 0.930 . S
H50 C58 0.930 . S
H51 C52 1.016 . S
C52 H51 1.016 . S
C52 N59 1.286 . S
C53 H48 0.930 . S
C53 C54 1.397 . S
C53 C55 1.361 . S
C54 C53 1.397 . S
C54 C58 1.390 . S
C55 C53 1.361 . S
C55 C56 1.393 . S
C55 N59 1.413 . S
C56 H49 0.930 . S
C56 C55 1.393 . S
C56 C57 1.399 . S
C57 C56 1.399 . S
C57 C58 1.381 . S
C58 H50 0.930 . S
C58 C54 1.390 . S
C58 C57 1.381 . S
N59 C52 1.286 . S
N59 C55 1.413 . S
H60 C65 0.930 . S
H61 C68 0.930 . S
H62 C70 0.930 . S
H63 C64 1.016 . S
C64 H63 1.016 . S
C64 N71 1.286 . S
C65 H60 0.930 . S
C65 C66 1.397 . S
C65 C67 1.361 . S
C66 C65 1.397 . S
C66 C70 1.390 . S
C67 C65 1.361 . S
C67 C68 1.393 . S
C67 N71 1.413 . S
C68 H61 0.930 . S
C68 C67 1.393 . S
C68 C69 1.399 . S
C69 C68 1.399 . S
C69 C70 1.381 . S
C70 H62 0.930 . S
C70 C66 1.390 . S
C70 C69 1.381 . S
N71 C64 1.286 . S
N71 C67 1.413 . S
H72 C77 0.930 . S
H73 C80 0.930 . S
H74 C82 0.930 . S
H75 C76 1.016 . S
C76 H75 1.016 . S
C76 N83 1.286 . S
C77 H72 0.930 . S
C77 C78 1.397 . S
C77 C79 1.361 . S
C78 C77 1.397 . S
C78 C82 1.390 . S
C79 C77 1.361 . S
C79 C80 1.393 . S
C79 N83 1.413 . S
C80 H73 0.930 . S
C80 C79 1.393 . S
C80 C81 1.399 . S
C81 C80 1.399 . S
C81 C82 1.381 . S
C82 H74 0.930 . S
C82 C78 1.390 . S
C82 C81 1.381 . S
N83 C76 1.286 . S
N83 C79 1.413 . S
H84 C89 0.930 . S
H85 C92 0.930 . S
H86 C94 0.930 . S
H87 C88 1.016 . S
C88 H87 1.016 . S
C88 N95 1.286 . S
C89 H84 0.930 . S
C89 C90 1.397 . S
C89 C91 1.361 . S
C90 C89 1.397 . S
C90 C94 1.390 . S
C91 C89 1.361 . S
C91 C92 1.393 . S
C91 N95 1.413 . S
C92 H85 0.930 . S
C92 C91 1.393 . S
C92 C93 1.399 . S
C93 C92 1.399 . S
C93 C94 1.381 . S
C94 H86 0.930 . S
C94 C90 1.390 . S
C94 C93 1.381 . S
N95 C88 1.286 . S
N95 C91 1.413 . S
Zn96 O102 1.920 1_455 S
Zn96 O108 1.898 . S
Zn96 O111 1.905 . S
Zn97 O105 1.905 1_655 S
Zn97 O106 1.898 . S
Zn97 O114 1.920 . S
Zn98 O101 2.069 1_455 S
Zn98 O104 2.126 . S
Zn98 O107 2.104 1_455 S
Zn98 O109 2.134 . S
Zn98 O110 2.129 . S
Zn98 O113 2.067 1_455 S
C99 O104 1.166 . S
C99 O105 1.182 . S
C100 O106 1.167 . S
C100 O107 1.299 . S
O101 Zn98 2.069 1_655 S
O101 C115 1.305 . S
O102 Zn96 1.920 1_655 S
O102 C115 1.234 . S
C103 O108 1.167 . S
C103 O109 1.299 . S
O104 Zn98 2.126 . S
O104 C99 1.166 . S
O105 Zn97 1.905 1_455 S
O105 C99 1.182 . S
O106 Zn97 1.898 . S
O106 C100 1.167 . S
O107 Zn98 2.104 1_655 S
O107 C100 1.299 . S
O108 Zn96 1.898 . S
O108 C103 1.167 . S
O109 Zn98 2.134 . S
O109 C103 1.299 . S
O110 Zn98 2.129 . S
O110 C112 1.166 . S
O111 Zn96 1.905 . S
O111 C112 1.182 . S
C112 O110 1.166 . S
C112 O111 1.182 . S
O113 Zn98 2.067 1_655 S
O113 C116 1.305 . S
O114 Zn97 1.920 . S
O114 C116 1.234 . S
C115 O101 1.305 . S
C115 O102 1.234 . S
C116 O113 1.305 . S
C116 O114 1.234 . S
Zn117 O123 1.920 . S
Zn117 O129 1.898 . S
Zn117 O132 1.905 . S
Zn118 O126 1.905 . S
Zn118 O127 1.898 . S
Zn118 O135 1.920 . S
Zn119 O122 2.080 . S
Zn119 O125 2.114 . S
Zn119 O128 2.120 . S
Zn119 O130 2.120 . S
Zn119 O131 2.114 . S
Zn119 O134 2.080 . S
C120 O125 1.166 . S
C120 O126 1.182 . S
C121 O127 1.167 . S
C121 O128 1.299 . S
O122 Zn119 2.080 . S
O122 C136 1.305 . S
O123 Zn117 1.920 . S
O123 C136 1.234 . S
C124 O129 1.167 . S
C124 O130 1.299 . S
O125 Zn119 2.114 . S
O125 C120 1.166 . S
O126 Zn118 1.905 . S
O126 C120 1.182 . S
O127 Zn118 1.898 . S
O127 C121 1.167 . S
O128 Zn119 2.120 . S
O128 C121 1.299 . S
O129 Zn117 1.898 . S
O129 C124 1.167 . S
O130 Zn119 2.120 . S
O130 C124 1.299 . S
O131 Zn119 2.114 . S
O131 C133 1.166 . S
O132 Zn117 1.905 . S
O132 C133 1.182 . S
C133 O131 1.166 . S
C133 O132 1.182 . S
O134 Zn119 2.080 . S
O134 C137 1.305 . S
O135 Zn118 1.920 . S
O135 C137 1.234 . S
C136 O122 1.305 . S
C136 O123 1.234 . S
C137 O134 1.305 . S
C137 O135 1.234 . S
Zn138 O144 1.920 . S
Zn138 O150 1.898 . S
Zn138 O153 1.905 1_455 S
Zn139 O147 1.905 . S
Zn139 O148 1.898 . S
Zn139 O156 1.920 1_655 S
Zn140 O143 2.081 . S
Zn140 O146 2.113 1_455 S
Zn140 O149 2.119 1_455 S
Zn140 O151 2.121 . S
Zn140 O152 2.113 1_455 S
Zn140 O155 2.081 . S
C141 O146 1.166 . S
C141 O147 1.182 . S
C142 O148 1.167 . S
C142 O149 1.299 . S
O143 Zn140 2.081 . S
O143 C157 1.305 . S
O144 Zn138 1.920 . S
O144 C157 1.234 . S
C145 O150 1.167 . S
C145 O151 1.299 . S
O146 Zn140 2.113 1_655 S
O146 C141 1.166 . S
O147 Zn139 1.905 . S
O147 C141 1.182 . S
O148 Zn139 1.898 . S
O148 C142 1.167 . S
O149 Zn140 2.119 1_655 S
O149 C142 1.299 . S
O150 Zn138 1.898 . S
O150 C145 1.167 . S
O151 Zn140 2.121 . S
O151 C145 1.299 . S
O152 Zn140 2.113 1_655 S
O152 C154 1.166 . S
O153 Zn138 1.905 1_655 S
O153 C154 1.182 . S
C154 O152 1.166 . S
C154 O153 1.182 . S
O155 Zn140 2.081 . S
O155 C158 1.305 . S
O156 Zn139 1.920 1_455 S
O156 C158 1.234 . S
C157 O143 1.305 . S
C157 O144 1.234 . S
C158 O155 1.305 . S
C158 O156 1.234 . S
Zn159 O165 1.920 . S
Zn159 O171 1.898 . S
Zn159 O174 1.905 . S
Zn160 O168 1.905 . S
Zn160 O169 1.898 . S
Zn160 O177 1.920 . S
Zn161 O164 2.080 . S
Zn161 O167 2.114 . S
Zn161 O170 2.120 . S
Zn161 O172 2.120 . S
Zn161 O173 2.114 . S
Zn161 O176 2.080 . S
C162 O167 1.166 . S
C162 O168 1.182 . S
C163 O169 1.167 . S
C163 O170 1.299 . S
O164 Zn161 2.080 . S
O164 C178 1.305 . S
O165 Zn159 1.920 . S
O165 C178 1.234 . S
C166 O171 1.167 . S
C166 O172 1.299 . S
O167 Zn161 2.114 . S
O167 C162 1.166 . S
O168 Zn160 1.905 . S
O168 C162 1.182 . S
O169 Zn160 1.898 . S
O169 C163 1.167 . S
O170 Zn161 2.120 . S
O170 C163 1.299 . S
O171 Zn159 1.898 . S
O171 C166 1.167 . S
O172 Zn161 2.120 . S
O172 C166 1.299 . S
O173 Zn161 2.114 . S
O173 C175 1.166 . S
O174 Zn159 1.905 . S
O174 C175 1.182 . S
C175 O173 1.166 . S
C175 O174 1.182 . S
O176 Zn161 2.080 . S
O176 C179 1.305 . S
O177 Zn160 1.920 . S
O177 C179 1.234 . S
C178 O164 1.305 . S
C178 O165 1.234 . S
C179 O176 1.305 . S
C179 O177 1.234 . S
C180 C181 1.170 . S
C180 C182 1.380 . S
C181 C180 1.170 . S
C182 C180 1.380 . S
C182 C183 1.156 1_565 S
C183 C182 1.156 1_545 S
C184 C185 1.170 . S
C184 C186 1.380 . S
C185 C184 1.170 . S
C186 C184 1.380 . S
C186 C187 1.170 . S
C187 C186 1.170 . S
C188 C189 1.170 . S
C188 C190 1.380 . S
C189 C188 1.170 . S
C190 C188 1.380 . S
C190 C191 1.170 . S
C191 C190 1.170 . S
C192 C193 1.170 . S
C192 C194 1.380 . S
C193 C192 1.170 . S
C194 C192 1.380 . S
C194 C195 1.170 . S
C195 C194 1.170 . S
C196 C197 1.170 . S
C196 C198 1.380 . S
C197 C196 1.170 . S
C198 C196 1.380 . S
C198 C199 1.170 1_545 S
C199 C198 1.170 1_565 S
C200 C201 1.170 . S
C200 C202 1.380 . S
C201 C200 1.170 . S
C202 C200 1.380 . S
C202 C203 1.170 . S
C203 C202 1.170 . S
C204 C205 1.170 . S
C204 C206 1.380 . S
C205 C204 1.170 . S
C206 C204 1.380 . S
C206 C207 1.170 . S
C207 C206 1.170 . S
C208 C209 1.170 . S
C208 C210 1.380 . S
C209 C208 1.170 . S
C210 C208 1.380 . S
C210 C211 1.170 . S
C211 C210 1.170 . S
C212 C213 1.170 1_554 S
C212 C214 1.380 . S
C213 C212 1.170 1_556 S
C214 C212 1.380 . S
C214 C215 1.170 . S
C215 C214 1.170 . S
C216 C217 1.170 . S
C216 C218 1.380 . S
C217 C216 1.170 . S
C218 C216 1.380 . S
C218 C219 1.170 . S
C219 C218 1.170 . S
C220 C221 1.170 1_556 S
C220 C222 1.380 . S
C221 C220 1.170 1_554 S
C222 C220 1.380 . S
C222 C223 1.170 . S
C223 C222 1.170 . S
C224 C225 1.170 . S
C224 C226 1.380 . S
C225 C224 1.170 . S
C226 C224 1.380 . S
C226 C227 1.170 . S
C227 C226 1.170 . S
C228 C229 1.150 1_556 S
C228 C230 1.380 . S
C229 C228 1.150 1_554 S
C230 C228 1.380 . S
C230 C231 1.170 . S
C231 C230 1.170 . S
C232 C233 1.170 . S
C232 C234 1.380 . S
C233 C232 1.170 . S
C234 C232 1.380 . S
C234 C235 1.170 . S
C235 C234 1.170 . S
C236 C237 1.170 1_554 S
C236 C238 1.380 . S
C237 C236 1.170 1_556 S
C238 C236 1.380 . S
C238 C239 1.170 . S
C239 C238 1.170 . S
C240 C241 1.170 . S
C240 C242 1.380 . S
C241 C240 1.170 . S
C242 C240 1.380 . S
C242 C243 1.170 . S
C243 C242 1.170 . S
C244 C245 1.170 . S
C244 C246 1.380 . S
C245 C244 1.170 . S
C246 C244 1.380 . S
C246 C247 1.170 . S
C247 C246 1.170 . S
C248 C249 1.170 . S
C248 C250 1.380 . S
C249 C248 1.170 . S
C250 C248 1.380 . S
C250 C251 1.170 . S
C251 C250 1.170 . S
C252 C253 1.170 . S
C252 C254 1.380 . S
C253 C252 1.170 . S
C254 C252 1.380 . S
C254 C255 1.170 . S
C255 C254 1.170 . S
C256 C257 1.170 . S
C256 C258 1.380 . S
C257 C256 1.170 . S
C258 C256 1.380 . S
C258 C259 1.170 . S
C259 C258 1.170 . S
C260 C261 1.170 . S
C260 C262 1.380 . S
C261 C260 1.170 . S
C262 C260 1.380 . S
C262 C263 1.170 . S
C263 C262 1.170 . S
C264 C265 1.170 . S
C264 C266 1.380 . S
C265 C264 1.170 . S
C266 C264 1.380 . S
C266 C267 1.170 . S
C267 C266 1.170 . S
C268 C269 1.170 . S
C268 C270 1.380 . S
C269 C268 1.170 . S
C270 C268 1.380 . S
C270 C271 1.170 . S
C271 C270 1.170 . S
C272 C273 1.170 . S
C272 C274 1.380 . S
C273 C272 1.170 . S
C274 C272 1.380 . S
C274 C275 1.170 . S
C275 C274 1.170 . S
C181 C81 1.411 . S
C183 C112 1.399 . S
C187 C120 1.387 . S
C185 C93 1.414 . S
C191 C124 1.362 . S
C189 C57 1.408 . S
C193 C69 1.424 . S
C195 C100 1.388 1_565 S
C199 C141 1.364 . S
C197 C33 1.429 . S
C203 C175 1.388 . S
C201 C45 1.435 . S
C205 C9 1.445 . S
C207 C163 1.389 . S
C209 C21 1.442 . S
C211 C145 1.380 1_545 S
C215 C99 1.336 . S
C213 C18 1.487 . S
C219 C133 1.335 . S
C217 C6 1.484 . S
C223 C137 1.374 . S
C221 C42 1.492 . S
C227 C115 1.320 . S
C225 C30 1.482 . S
C231 C154 1.376 . S
C229 C66 1.492 . S
C233 C54 1.470 . S
C235 C162 1.357 . S
C239 C178 1.361 . S
C237 C90 1.470 . S
C241 C78 1.479 . S
C243 C158 1.370 . S
C247 C103 1.387 . S
C245 C4 1.506 . S
C251 C121 1.376 . S
C249 C16 1.502 . S
C253 C28 1.516 . S
C255 C136 1.350 . S
C259 C116 1.363 . S
C257 C40 1.515 . S
C263 C142 1.324 . S
C261 C52 1.521 . S
C265 C64 1.507 . S
C267 C166 1.388 . S
C269 C76 1.518 . S
C271 C179 1.330 . S
C273 C88 1.509 . S
C275 C157 1.355 . S
