# Generated by pormake.
# Topology pts, (4,4)-cn, num edge types: 1
# Building blocks:
#     Node 0, Type 0, BuildingBlock: AZAVOO_clean_linker_0, # of connection points: 4
#     Node 1, Type 0, BuildingBlock: AZAVOO_clean_linker_0, # of connection points: 4
#     Node 2, Type 1, BuildingBlock: AZAVOO_clean_sbu_0, # of connection points: 4
#     Node 3, Type 1, BuildingBlock: AZAVOO_clean_sbu_0, # of connection points: 4
#     Edge 4, Type (0, 1), BuildingBlock: AJUNOK_clean_linker_0, # of connection points: 2
#     Edge 5, Type (0, 1), BuildingBlock: AJUNOK_clean_linker_0, # of connection points: 2
#     Edge 6, Type (0, 1), BuildingBlock: AJUNOK_clean_linker_0, # of connection points: 2
#     Edge 7, Type (0, 1), BuildingBlock: AJUNOK_clean_linker_0, # of connection points: 2
#     Edge 8, Type (0, 1), BuildingBlock: AJUNOK_clean_linker_0, # of connection points: 2
#     Edge 9, Type (0, 1), BuildingBlock: AJUNOK_clean_linker_0, # of connection points: 2
#     Edge 10, Type (0, 1), BuildingBlock: AJUNOK_clean_linker_0, # of connection points: 2
#     Edge 11, Type (0, 1), BuildingBlock: AJUNOK_clean_linker_0, # of connection points: 2
# Relax obj value: 0.135
# Max RMSD: 0.230
# Mean RMSD: 0.159
data_MOF--net-pts--node1-AZAVOO_clean_sbu_0--node2-AZAVOO_clean_linker_0--edge1-AJUNOK_clean_linker_0
_symmetry_space_group_name_H-M    P1
_symmetry_Int_Tables_number       1
_symmetry_cell_setting            triclinic
loop_
_symmetry_equiv_pos_as_xyz
'x, y, z'
_cell_length_a     20.526086
_cell_length_b     21.190162
_cell_length_c     36.518534
_cell_angle_alpha  92.047257
_cell_angle_beta   99.483725
_cell_angle_gamma 89.944729
loop_
_atom_site_label
_atom_site_type_symbol
_atom_site_fract_x
_atom_site_fract_y
_atom_site_fract_z
_atom_type_partial_charge
H0 H 0.41607 0.17916 0.75005 0.0
H1 H 0.00258 0.99177 0.01747 0.0
H2 H 0.42623 0.18405 0.95256 0.0
H3 H 0.32101 0.17872 0.9099 0.0
H4 H 0.31069 0.9782 0.92541 0.0
H5 H 0.41563 0.98394 0.96811 0.0
H6 H 0.54423 0.19057 0.90567 0.0
H7 H 0.49717 0.20401 0.84033 0.0
H8 H 0.42408 0.01184 0.83286 0.0
H9 H 0.47159 -0.00098 0.8981 0.0
H10 H 0.70559 0.16341 0.94348 0.0
H11 H 0.77452 0.15779 0.89467 0.0
H12 H 0.67047 0.98823 0.84846 0.0
H13 H 0.60733 0.9907 0.89927 0.0
H14 H 0.72752 0.15371 0.02992 0.0
H15 H 0.8479 0.14518 0.04395 0.0
H16 H 0.83628 0.96154 0.98759 0.0
H17 H 0.71585 0.97038 0.97417 0.0
H18 H 0.62808 0.14374 0.08056 0.0
H19 H 0.71248 0.12706 0.13529 0.0
H20 H 0.73549 0.93437 0.09729 0.0
H21 H 0.65095 0.95117 0.04286 0.0
H22 H 0.45704 0.16523 0.0359 0.0
H23 H 0.38161 0.15858 0.08116 0.0
H24 H 0.43317 0.96257 0.09645 0.0
H25 H 0.50856 0.96951 0.05112 0.0
O26 O 0.43441 0.17284 0.77581 0.0
O27 O 0.39913 0.07334 0.77328 0.0
O28 O 0.95827 0.09086 0.04105 0.0
O29 O 0.95501 -0.00401 0.01271 0.0
C30 C 0.5017 0.08212 0.97412 0.0
C31 C 0.54143 0.08544 0.94601 0.0
C32 C 0.61049 0.07896 0.95488 0.0
C33 C 0.64008 0.06891 0.99183 0.0
C34 C 0.6004 0.06379 0.0199 0.0
C35 C 0.53104 0.07142 0.01122 0.0
C36 C 0.4289 0.08422 0.96294 0.0
C37 C 0.39939 0.13969 0.9484 0.0
C38 C 0.33955 0.1365 0.92387 0.0
C39 C 0.30839 0.0779 0.91397 0.0
C40 C 0.33337 0.02403 0.93275 0.0
C41 C 0.39335 0.02725 0.95724 0.0
C42 C 0.5107 0.0941 0.90667 0.0
C43 C 0.51777 0.15159 0.88988 0.0
C44 C 0.49099 0.15904 0.85255 0.0
C45 C 0.45696 0.10895 0.83135 0.0
C46 C 0.45009 0.05133 0.84836 0.0
C47 C 0.47669 0.04404 0.88568 0.0
C48 C 0.65114 0.07768 0.92476 0.0
C49 C 0.6982 0.12493 0.92287 0.0
C50 C 0.73673 0.12219 0.89462 0.0
C51 C 0.72743 0.07302 0.86728 0.0
C52 C 0.67942 0.02647 0.86916 0.0
C53 C 0.64263 0.02817 0.89794 0.0
C54 C 0.71308 0.06272 0.00101 0.0
C55 C 0.75108 0.11153 0.02085 0.0
C56 C 0.81981 0.10662 0.0287 0.0
C57 C 0.85176 0.05282 0.01667 0.0
C58 C 0.81332 0.0037 0.99712 0.0
C59 C 0.74456 0.00862 0.98938 0.0
C60 C 0.63346 0.04869 0.05779 0.0
C61 C 0.64932 0.09723 0.08488 0.0
C62 C 0.6979 0.0878 0.11586 0.0
C63 C 0.73137 0.02987 0.1199 0.0
C64 C 0.71124 0.97977 0.09439 0.0
C65 C 0.6624 0.98905 0.06365 0.0
C66 C 0.48864 0.06797 0.04037 0.0
C67 C 0.45213 0.12088 0.04909 0.0
C68 C 0.40863 0.11688 0.07463 0.0
C69 C 0.40088 0.05983 0.09193 0.0
C70 C 0.43822 0.00713 0.08353 0.0
C71 C 0.48151 0.0111 0.05784 0.0
C72 C 0.42838 0.11703 0.79174 0.0
C73 C 0.92486 0.04797 0.02426 0.0
H74 H 0.10149 0.46953 0.26102 0.0
H75 H 0.12399 0.95106 0.60564 0.0
H76 H 0.02305 0.42743 0.46504 0.0
H77 H 0.01713 0.34096 0.41887 0.0
H78 H 0.23008 0.34171 0.42999 0.0
H79 H 0.23519 0.43034 0.47544 0.0
H80 H 0.03305 0.51249 0.40912 0.0
H81 H 0.04208 0.49037 0.34394 0.0
H82 H 0.2495 0.53978 0.36785 0.0
H83 H 0.23987 0.56091 0.43313 0.0
H84 H 0.01774 0.63983 0.42812 0.0
H85 H 0.00882 0.72 0.38049 0.0
H86 H 0.20826 0.78128 0.42281 0.0
H87 H 0.21804 0.69946 0.4694 0.0
H88 H 0.00562 0.67686 0.5265 0.0
H89 H 0.98625 0.78094 0.55382 0.0
H90 H 0.1948 0.82331 0.56548 0.0
H91 H 0.21328 0.71945 0.53755 0.0
H92 H 0.02553 0.55269 0.58022 0.0
H93 H 0.00557 0.61429 0.63496 0.0
H94 H 0.19747 0.70244 0.64213 0.0
H95 H 0.22059 0.63354 0.59147 0.0
H96 H 0.01796 0.44436 0.5339 0.0
H97 H 0.00973 0.35498 0.57361 0.0
H98 H 0.21789 0.37278 0.61734 0.0
H99 H 0.22588 0.46187 0.57693 0.0
O100 O 0.09899 0.47864 0.28691 0.0
O101 O 0.20429 0.50864 0.30013 0.0
O102 O 0.02273 0.88774 0.58522 0.0
O103 O 0.12992 0.91079 0.59329 0.0
C104 C 0.13021 0.49982 0.4897 0.0
C105 C 0.13072 0.55031 0.46552 0.0
C106 C 0.12524 0.61284 0.47881 0.0
C107 C 0.12269 0.62542 0.51663 0.0
C108 C 0.12579 0.57501 0.5414 0.0
C109 C 0.12709 0.51199 0.52763 0.0
C110 C 0.12951 0.43477 0.4737 0.0
C111 C 0.06857 0.40707 0.45879 0.0
C112 C 0.06531 0.35809 0.43206 0.0
C113 C 0.12308 0.33577 0.42005 0.0
C114 C 0.18464 0.35936 0.43787 0.0
C115 C 0.18779 0.4089 0.46442 0.0
C116 C 0.13595 0.5377 0.42581 0.0
C117 C 0.08045 0.51811 0.40024 0.0
C118 C 0.08572 0.5057 0.36302 0.0
C119 C 0.14653 0.51329 0.35068 0.0
C120 C 0.20195 0.53347 0.37643 0.0
C121 C 0.19663 0.54559 0.41369 0.0
C122 C 0.11832 0.6645 0.45232 0.0
C123 C 0.05937 0.67074 0.42712 0.0
C124 C 0.05438 0.71601 0.39999 0.0
C125 C 0.10796 0.75607 0.39828 0.0
C126 C 0.16646 0.75062 0.42391 0.0
C127 C 0.17187 0.70455 0.45057 0.0
C128 C 0.11074 0.69086 0.52989 0.0
C129 C 0.04686 0.70909 0.53448 0.0
C130 C 0.03604 0.76835 0.55035 0.0
C131 C 0.08911 0.81018 0.56225 0.0
C132 C 0.15288 0.7922 0.55676 0.0
C133 C 0.16353 0.73311 0.54056 0.0
C134 C 0.12379 0.59019 0.58117 0.0
C135 C 0.06482 0.58229 0.59514 0.0
C136 C 0.05278 0.61912 0.6258 0.0
C137 C 0.09778 0.66696 0.64118 0.0
C138 C 0.16079 0.66728 0.63072 0.0
C139 C 0.17417 0.6279 0.60149 0.0
C140 C 0.12258 0.45907 0.55243 0.0
C141 C 0.06173 0.42894 0.55209 0.0
C142 C 0.05695 0.37852 0.57509 0.0
C143 C 0.11302 0.35754 0.59887 0.0
C144 C 0.17393 0.38818 0.59931 0.0
C145 C 0.1786 0.43884 0.57633 0.0
C146 C 0.15193 0.5002 0.3111 0.0
C147 C 0.0783 0.87187 0.58085 0.0
Mg148 Mg 0.13176 0.04634 0.25518 0.0
O149 O 0.02121 0.03936 0.22571 0.0
O150 O 0.95599 0.0199 0.26786 0.0
Mg151 Mg 0.0182 0.05289 0.32225 0.0
C152 C 0.96476 0.02528 0.23423 0.0
C153 C 0.23203 0.04301 0.20516 0.0
O154 O 0.25822 0.01906 0.23692 0.0
O155 O 0.12974 0.15253 0.27144 0.0
O156 O 0.03297 0.13189 0.2846 0.0
O157 O 0.13271 0.94158 0.26111 0.0
O158 O 0.10528 0.00936 0.30325 0.0
C159 C 0.08289 0.16792 0.28876 0.0
C160 C 0.11303 0.95176 0.29271 0.0
O161 O 0.17251 0.06192 0.20157 0.0
Mg162 Mg 0.00415 0.02249 0.71364 0.0
O163 O 0.08566 0.02997 0.76435 0.0
O164 O 0.18113 0.00838 0.74474 0.0
Mg165 Mg 0.15945 0.97823 0.68309 0.0
C166 C 0.14831 0.02458 0.77034 0.0
C167 C 0.88456 0.03884 0.74972 0.0
O168 O 0.87512 0.98603 0.72961 0.0
O169 O 0.04006 0.11396 0.69194 0.0
O170 O 0.12993 0.08064 0.66991 0.0
O171 O 0.98828 0.92089 0.72373 0.0
O172 O 0.05727 0.95494 0.68816 0.0
C173 C 0.08853 0.12396 0.6749 0.0
C174 C 0.03253 0.90859 0.70317 0.0
O175 O 0.93487 0.07249 0.74763 0.0
C176 C 0.37923 0.03061 0.1545 0.0
C177 C 0.35583 0.05566 0.11973 0.0
C178 C 0.33862 0.02686 0.18161 0.0
C179 C 0.27261 0.04774 0.17514 0.0
H180 H 0.42981 0.01454 0.16105 0.0
H181 H 0.35964 0.0075 0.20798 0.0
S182 S 0.18635 0.11429 0.08763 0.0
N183 N 0.26184 0.09967 0.07952 0.0
N184 N 0.18522 0.09285 0.13057 0.0
C185 C 0.24823 0.07232 0.14023 0.0
C186 C 0.28989 0.0763 0.11256 0.0
C187 C 0.15292 0.25108 0.6191 0.0
C188 C 0.10872 0.30113 0.62128 0.0
C189 C 0.1468 0.19495 0.63731 0.0
C190 C 0.09619 0.1864 0.65858 0.0
H191 H 0.19137 0.25449 0.60217 0.0
H192 H 0.1814 0.15745 0.63386 0.0
S193 S 0.97179 0.30649 0.67607 0.0
N194 N 0.01579 0.34109 0.64843 0.0
N195 N 0.00372 0.23544 0.68271 0.0
C196 C 0.05305 0.23726 0.6621 0.0
C197 C 0.05938 0.29453 0.6434 0.0
C198 C 0.78686 0.03886 0.1862 0.0
C199 C 0.79052 0.02367 0.14888 0.0
C200 C 0.84316 0.03711 0.21367 0.0
C201 C 0.90562 0.0213 0.20476 0.0
H202 H 0.74016 0.05263 0.19417 0.0
H203 H 0.83791 0.05019 0.24198 0.0
S204 S 0.94104 0.97627 0.111 0.0
N205 N 0.86099 0.99089 0.10433 0.0
N206 N 0.96709 0.98838 0.15595 0.0
C207 C 0.90973 0.00524 0.16755 0.0
C208 C 0.85213 0.00616 0.13963 0.0
C209 C 0.12132 0.7553 0.68969 0.0
C210 C 0.07604 0.72287 0.66206 0.0
C211 C 0.10668 0.81509 0.70398 0.0
C212 C 0.04556 0.84339 0.69198 0.0
H213 H 0.16946 0.73549 0.69936 0.0
H214 H 0.14376 0.83983 0.72389 0.0
S215 S 0.90855 0.77974 0.62189 0.0
N216 N 0.96658 0.72549 0.62378 0.0
N217 N 0.9386 0.83552 0.65269 0.0
C218 C 0.9986 0.81079 0.66612 0.0
C219 C 0.01378 0.75092 0.65076 0.0
C220 C 0.2802 0.09167 0.84597 0.0
C221 C 0.26121 0.07031 0.87872 0.0
C222 C 0.24326 0.0765 0.81111 0.0
C223 C 0.18478 0.04096 0.8077 0.0
H224 H 0.32541 0.1184 0.84717 0.0
H225 H 0.26069 0.0927 0.78661 0.0
S226 S 0.11017 0.97841 0.88492 0.0
N227 N 0.17856 0.01421 0.90571 0.0
N228 N 0.10709 0.98785 0.83994 0.0
C229 C 0.16325 0.02186 0.84023 0.0
C230 C 0.20199 0.03594 0.87581 0.0
C231 C 0.07335 0.24044 0.38404 0.0
C232 C 0.11775 0.29147 0.38728 0.0
C233 C 0.06225 0.20135 0.35199 0.0
C234 C 0.09593 0.21092 0.322 0.0
H235 H 0.04636 0.23088 0.40637 0.0
H236 H 0.02701 0.16314 0.35096 0.0
S237 S 0.21585 0.33918 0.31587 0.0
N238 N 0.19398 0.35114 0.3571 0.0
N239 N 0.17496 0.27563 0.2973 0.0
C240 C 0.14114 0.26127 0.32494 0.0
C241 C 0.15171 0.30193 0.35747 0.0
C242 C 0.79252 0.00753 0.82829 0.0
C243 C 0.7693 0.06746 0.83776 0.0
C244 C 0.82911 -0.00078 0.79951 0.0
C245 C 0.84554 0.05065 0.77959 0.0
H246 H 0.78249 0.9664 0.84328 0.0
H247 H 0.84557 0.95205 0.79321 0.0
S248 S 0.79762 0.21732 0.79285 0.0
N249 N 0.76459 0.17926 0.82406 0.0
N250 N 0.83702 0.16357 0.77107 0.0
C251 C 0.82442 0.11111 0.7891 0.0
C252 C 0.78552 0.11955 0.81796 0.0
C253 C 0.10375 0.8683 0.38136 0.0
C254 C 0.10304 0.8044 0.37012 0.0
C255 C 0.10388 0.91545 0.35561 0.0
C256 C 0.10459 0.90028 0.31778 0.0
H257 H 0.10518 0.88185 0.41039 0.0
H258 H 0.10587 0.96416 0.36581 0.0
S259 S 0.10011 0.73887 0.27452 0.0
N260 N 0.1001 0.72745 0.31903 0.0
N261 N 0.10176 0.81623 0.27029 0.0
C262 C 0.10225 0.83622 0.30609 0.0
C263 C 0.10112 0.78818 0.33239 0.0
loop_
_geom_bond_atom_site_label_1
_geom_bond_atom_site_label_2
_geom_bond_distance
_geom_bond_site_symmetry_2
_ccdc_geom_bond_type
H0 O26 0.856 . S
H1 O29 0.854 1_455 S
H2 C37 0.930 . S
H3 C38 0.930 . S
H4 C40 0.930 1_565 S
H5 C41 0.930 1_565 S
H6 C43 0.931 . S
H7 C44 0.930 . S
H8 C46 0.930 . S
H9 C47 0.929 . S
H10 C49 0.930 . S
H11 C50 0.931 . S
H12 C52 0.930 . S
H13 C53 0.929 . S
H14 C55 0.931 . S
H15 C56 0.930 . S
H16 C58 0.930 . S
H17 C59 0.932 1_556 S
H18 C61 0.930 . S
H19 C62 0.929 . S
H20 C64 0.931 1_565 S
H21 C65 0.930 1_565 S
H22 C67 0.929 . S
H23 C68 0.931 . S
H24 C70 0.930 . S
H25 C71 0.929 . S
O26 H0 0.856 . S
O26 C72 1.300 . S
O27 C72 1.209 1_565 S
O28 C73 1.199 . S
O29 H1 0.854 1_655 S
O29 C73 1.297 1_565 S
C30 C31 1.404 . S
C30 C35 1.397 1_556 S
C30 C36 1.492 . S
C31 C30 1.404 . S
C31 C32 1.396 . S
C31 C42 1.492 . S
C32 C31 1.396 . S
C32 C33 1.397 . S
C32 C48 1.509 . S
C33 C32 1.397 . S
C33 C34 1.412 1_556 S
C33 C54 1.485 1_556 S
C34 C33 1.412 1_554 S
C34 C35 1.388 . S
C34 C60 1.490 . S
C35 C30 1.397 1_554 S
C35 C34 1.388 . S
C35 C66 1.519 . S
C36 C30 1.492 . S
C36 C37 1.363 . S
C36 C41 1.390 . S
C37 H2 0.930 . S
C37 C36 1.363 . S
C37 C38 1.372 . S
C38 H3 0.930 . S
C38 C37 1.372 . S
C38 C39 1.383 . S
C39 C38 1.383 . S
C39 C40 1.395 . S
C40 H4 0.930 1_545 S
C40 C39 1.395 . S
C40 C41 1.362 . S
C41 H5 0.930 1_545 S
C41 C36 1.390 . S
C41 C40 1.362 . S
C42 C31 1.492 . S
C42 C43 1.377 . S
C42 C47 1.397 1_545 S
C43 H6 0.931 . S
C43 C42 1.377 . S
C43 C44 1.376 . S
C44 H7 0.930 . S
C44 C43 1.376 . S
C44 C45 1.376 . S
C45 C44 1.376 . S
C45 C46 1.378 1_545 S
C45 C72 1.486 . S
C46 H8 0.930 . S
C46 C45 1.378 1_565 S
C46 C47 1.376 . S
C47 H9 0.929 . S
C47 C42 1.397 1_565 S
C47 C46 1.376 . S
C48 C32 1.509 . S
C48 C49 1.391 . S
C48 C53 1.386 1_545 S
C49 H10 0.930 . S
C49 C48 1.391 . S
C49 C50 1.375 . S
C50 H11 0.931 . S
C50 C49 1.375 . S
C50 C51 1.375 . S
C51 C50 1.375 . S
C51 C52 1.361 1_545 S
C52 H12 0.930 . S
C52 C51 1.361 1_565 S
C52 C53 1.399 . S
C53 H13 0.929 . S
C53 C48 1.386 1_565 S
C53 C52 1.399 . S
C54 C33 1.485 1_554 S
C54 C55 1.394 . S
C54 C59 1.360 1_545 S
C55 H14 0.931 . S
C55 C54 1.394 . S
C55 C56 1.372 . S
C56 H15 0.930 . S
C56 C55 1.372 . S
C56 C57 1.397 . S
C57 C56 1.397 . S
C57 C58 1.390 1_545 S
C57 C73 1.476 . S
C58 H16 0.930 . S
C58 C57 1.390 1_565 S
C58 C59 1.366 . S
C59 H17 0.932 1_554 S
C59 C54 1.360 1_565 S
C59 C58 1.366 . S
C60 C34 1.490 . S
C60 C61 1.380 . S
C60 C65 1.386 . S
C61 H18 0.930 . S
C61 C60 1.380 . S
C61 C62 1.381 . S
C62 H19 0.929 . S
C62 C61 1.381 . S
C62 C63 1.371 . S
C63 C62 1.371 . S
C63 C64 1.380 . S
C64 H20 0.931 1_545 S
C64 C63 1.380 . S
C64 C65 1.387 . S
C65 H21 0.930 1_545 S
C65 C60 1.386 . S
C65 C64 1.387 . S
C66 C35 1.519 . S
C66 C67 1.377 . S
C66 C71 1.361 1_545 S
C67 H22 0.929 . S
C67 C66 1.377 . S
C67 C68 1.386 . S
C68 H23 0.931 . S
C68 C67 1.386 . S
C68 C69 1.363 . S
C69 C68 1.363 . S
C69 C70 1.385 1_545 S
C70 H24 0.930 . S
C70 C69 1.385 1_565 S
C70 C71 1.396 . S
C71 H25 0.929 . S
C71 C66 1.361 1_565 S
C71 C70 1.396 . S
C72 O26 1.300 . S
C72 O27 1.209 1_545 S
C72 C45 1.486 . S
C73 O28 1.199 . S
C73 O29 1.297 1_545 S
C73 C57 1.476 . S
H74 O100 0.856 . S
H75 O103 0.854 . S
H76 C111 0.930 1_655 S
H77 C112 0.930 1_655 S
H78 C114 0.930 . S
H79 C115 0.930 . S
H80 C117 0.931 . S
H81 C118 0.930 . S
H82 C120 0.930 . S
H83 C121 0.929 . S
H84 C123 0.930 . S
H85 C124 0.931 . S
H86 C126 0.930 . S
H87 C127 0.929 . S
H88 C129 0.931 . S
H89 C130 0.930 . S
H90 C132 0.930 . S
H91 C133 0.932 . S
H92 C135 0.930 1_655 S
H93 C136 0.929 1_655 S
H94 C138 0.931 . S
H95 C139 0.930 . S
H96 C141 0.929 1_655 S
H97 C142 0.931 . S
H98 C144 0.930 . S
H99 C145 0.929 . S
O100 H74 0.856 . S
O100 C146 1.300 . S
O101 C146 1.209 . S
O102 C147 1.199 . S
O103 H75 0.854 . S
O103 C147 1.297 . S
C104 C105 1.404 . S
C104 C109 1.397 . S
C104 C110 1.492 . S
C105 C104 1.404 . S
C105 C106 1.396 . S
C105 C116 1.492 . S
C106 C105 1.396 . S
C106 C107 1.397 . S
C106 C122 1.509 . S
C107 C106 1.397 . S
C107 C108 1.412 . S
C107 C128 1.485 . S
C108 C107 1.412 . S
C108 C109 1.388 . S
C108 C134 1.490 . S
C109 C104 1.397 . S
C109 C108 1.388 . S
C109 C140 1.519 . S
C110 C104 1.492 . S
C110 C111 1.363 . S
C110 C115 1.390 . S
C111 H76 0.930 1_455 S
C111 C110 1.363 . S
C111 C112 1.372 . S
C112 H77 0.930 1_455 S
C112 C111 1.372 . S
C112 C113 1.383 . S
C113 C112 1.383 . S
C113 C114 1.395 . S
C114 H78 0.930 . S
C114 C113 1.395 . S
C114 C115 1.362 . S
C115 H79 0.930 . S
C115 C110 1.390 . S
C115 C114 1.362 . S
C116 C105 1.492 . S
C116 C117 1.377 . S
C116 C121 1.397 . S
C117 H80 0.931 . S
C117 C116 1.377 . S
C117 C118 1.376 . S
C118 H81 0.930 . S
C118 C117 1.376 . S
C118 C119 1.376 . S
C119 C118 1.376 . S
C119 C120 1.378 . S
C119 C146 1.486 . S
C120 H82 0.930 . S
C120 C119 1.378 . S
C120 C121 1.376 . S
C121 H83 0.929 . S
C121 C116 1.397 . S
C121 C120 1.376 . S
C122 C106 1.509 . S
C122 C123 1.391 . S
C122 C127 1.386 . S
C123 H84 0.930 . S
C123 C122 1.391 . S
C123 C124 1.375 . S
C124 H85 0.931 . S
C124 C123 1.375 . S
C124 C125 1.375 . S
C125 C124 1.375 . S
C125 C126 1.361 . S
C126 H86 0.930 . S
C126 C125 1.361 . S
C126 C127 1.399 . S
C127 H87 0.929 . S
C127 C122 1.386 . S
C127 C126 1.399 . S
C128 C107 1.485 . S
C128 C129 1.394 . S
C128 C133 1.360 . S
C129 H88 0.931 . S
C129 C128 1.394 . S
C129 C130 1.372 . S
C130 H89 0.930 . S
C130 C129 1.372 . S
C130 C131 1.397 . S
C131 C130 1.397 . S
C131 C132 1.390 . S
C131 C147 1.476 . S
C132 H90 0.930 . S
C132 C131 1.390 . S
C132 C133 1.366 . S
C133 H91 0.932 . S
C133 C128 1.360 . S
C133 C132 1.366 . S
C134 C108 1.490 . S
C134 C135 1.380 . S
C134 C139 1.386 . S
C135 H92 0.930 1_455 S
C135 C134 1.380 . S
C135 C136 1.381 . S
C136 H93 0.929 1_455 S
C136 C135 1.381 . S
C136 C137 1.371 . S
C137 C136 1.371 . S
C137 C138 1.380 . S
C138 H94 0.931 . S
C138 C137 1.380 . S
C138 C139 1.387 . S
C139 H95 0.930 . S
C139 C134 1.386 . S
C139 C138 1.387 . S
C140 C109 1.519 . S
C140 C141 1.377 . S
C140 C145 1.361 . S
C141 H96 0.929 1_455 S
C141 C140 1.377 . S
C141 C142 1.386 . S
C142 H97 0.931 . S
C142 C141 1.386 . S
C142 C143 1.363 . S
C143 C142 1.363 . S
C143 C144 1.385 . S
C144 H98 0.930 . S
C144 C143 1.385 . S
C144 C145 1.396 . S
C145 H99 0.929 . S
C145 C140 1.361 . S
C145 C144 1.396 . S
C146 O100 1.300 . S
C146 O101 1.209 . S
C146 C119 1.486 . S
C147 O102 1.199 . S
C147 O103 1.297 . S
C147 C131 1.476 . S
Mg148 O149 2.028 . S
Mg148 O155 1.986 . S
Mg148 O157 2.114 1_545 S
Mg148 O158 2.251 . S
Mg148 O161 2.010 . S
O149 Mg148 2.028 . S
O149 C152 1.250 1_455 S
O150 Mg151 2.028 . S
O150 C152 1.248 . S
Mg151 O150 2.028 . S
Mg151 O156 2.032 1_655 S
Mg151 O158 2.079 1_655 S
C152 O149 1.250 1_655 S
C152 O150 1.248 . S
C153 O154 1.264 . S
C153 O161 1.249 . S
O154 C153 1.264 . S
O155 Mg148 1.986 . S
O155 C159 1.246 . S
O156 Mg151 2.032 1_455 S
O156 C159 1.259 . S
O157 Mg148 2.114 1_565 S
O157 C160 1.252 . S
O158 Mg148 2.251 . S
O158 Mg151 2.079 1_455 S
O158 C160 1.273 1_545 S
C159 O155 1.246 . S
C159 O156 1.259 . S
C160 O157 1.252 . S
C160 O158 1.273 1_565 S
O161 Mg148 2.010 . S
O161 C153 1.249 . S
Mg162 O163 2.028 . S
Mg162 O169 1.986 . S
Mg162 O171 2.114 1_545 S
Mg162 O172 2.251 1_545 S
Mg162 O175 2.010 1_455 S
O163 Mg162 2.028 . S
O163 C166 1.250 . S
O164 Mg165 2.028 . S
O164 C166 1.248 . S
Mg165 O164 2.028 . S
Mg165 O170 2.032 . S
Mg165 O172 2.079 1_545 S
C166 O163 1.250 . S
C166 O164 1.248 . S
C167 O168 1.264 . S
C167 O175 1.249 . S
O168 C167 1.264 . S
O169 Mg162 1.986 . S
O169 C173 1.246 . S
O170 Mg165 2.032 . S
O170 C173 1.259 . S
O171 Mg162 2.114 1_565 S
O171 C174 1.252 . S
O172 Mg162 2.251 1_565 S
O172 Mg165 2.079 1_565 S
O172 C174 1.273 . S
C173 O169 1.246 . S
C173 O170 1.259 . S
C174 O171 1.252 . S
C174 O172 1.273 . S
O175 Mg162 2.010 1_655 S
O175 C167 1.249 . S
C176 C177 1.369 1_565 S
C176 C178 1.419 1_565 S
C176 H180 0.930 . S
C177 C176 1.369 1_545 S
C177 C186 1.429 . S
C178 C176 1.419 1_545 S
C178 C179 1.363 . S
C178 H181 0.929 1_545 S
C179 C178 1.363 . S
C179 C185 1.428 . S
H180 C176 0.930 . S
H181 C178 0.929 1_565 S
S182 N183 1.613 . S
S182 N184 1.610 . S
N183 S182 1.613 . S
N183 C186 1.350 . S
N184 S182 1.610 . S
N184 C185 1.351 . S
C185 C179 1.428 . S
C185 N184 1.351 . S
C185 C186 1.434 . S
C186 C177 1.429 . S
C186 N183 1.350 . S
C186 C185 1.434 . S
C187 C188 1.369 . S
C187 C189 1.419 . S
C187 H191 0.930 . S
C188 C187 1.369 . S
C188 C197 1.429 . S
C189 C187 1.419 . S
C189 C190 1.363 . S
C189 H192 0.929 1_455 S
C190 C189 1.363 . S
C190 C196 1.428 . S
H191 C187 0.930 . S
H192 C189 0.929 1_655 S
S193 N194 1.613 . S
S193 N195 1.610 . S
N194 S193 1.613 . S
N194 C197 1.350 . S
N195 S193 1.610 . S
N195 C196 1.351 . S
C196 C190 1.428 . S
C196 N195 1.351 . S
C196 C197 1.434 . S
C197 C188 1.429 . S
C197 N194 1.350 . S
C197 C196 1.434 . S
C198 C199 1.369 . S
C198 C200 1.419 . S
C198 H202 0.930 . S
C199 C198 1.369 . S
C199 C208 1.429 . S
C200 C198 1.419 . S
C200 C201 1.363 . S
C200 H203 0.929 . S
C201 C200 1.363 . S
C201 C207 1.428 . S
H202 C198 0.930 . S
H203 C200 0.929 . S
S204 N205 1.615 . S
S204 N206 1.611 . S
N205 S204 1.615 . S
N205 C208 1.350 . S
N206 S204 1.611 . S
N206 C207 1.351 . S
C207 C201 1.428 . S
C207 N206 1.351 . S
C207 C208 1.434 . S
C208 C199 1.429 . S
C208 N205 1.350 . S
C208 C207 1.434 . S
C209 C210 1.369 . S
C209 C211 1.419 . S
C209 H213 0.930 . S
C210 C209 1.369 . S
C210 C219 1.429 . S
C211 C209 1.419 . S
C211 C212 1.363 . S
C211 H214 0.929 . S
C212 C211 1.363 . S
C212 C218 1.428 . S
H213 C209 0.930 . S
H214 C211 0.929 . S
S215 N216 1.613 . S
S215 N217 1.610 . S
N216 S215 1.613 . S
N216 C219 1.350 1_655 S
N217 S215 1.610 . S
N217 C218 1.351 1_655 S
C218 C212 1.428 . S
C218 N217 1.351 1_455 S
C218 C219 1.434 . S
C219 C210 1.429 . S
C219 N216 1.350 1_455 S
C219 C218 1.434 . S
C220 C221 1.369 . S
C220 C222 1.419 . S
C220 H224 0.930 . S
C221 C220 1.369 . S
C221 C230 1.429 . S
C222 C220 1.419 . S
C222 C223 1.363 . S
C222 H225 0.929 . S
C223 C222 1.363 . S
C223 C229 1.428 . S
H224 C220 0.930 . S
H225 C222 0.929 . S
S226 N227 1.613 . S
S226 N228 1.610 . S
N227 S226 1.613 . S
N227 C230 1.350 1_565 S
N228 S226 1.610 . S
N228 C229 1.351 1_565 S
C229 C223 1.428 . S
C229 N228 1.351 1_545 S
C229 C230 1.434 . S
C230 C221 1.429 . S
C230 N227 1.350 1_545 S
C230 C229 1.434 . S
C231 C232 1.369 . S
C231 C233 1.419 . S
C231 H235 0.930 . S
C232 C231 1.369 . S
C232 C241 1.429 . S
C233 C231 1.419 . S
C233 C234 1.363 . S
C233 H236 0.929 . S
C234 C233 1.363 . S
C234 C240 1.428 . S
H235 C231 0.930 . S
H236 C233 0.929 . S
S237 N238 1.613 . S
S237 N239 1.610 . S
N238 S237 1.613 . S
N238 C241 1.350 . S
N239 S237 1.610 . S
N239 C240 1.351 . S
C240 C234 1.428 . S
C240 N239 1.351 . S
C240 C241 1.434 . S
C241 C232 1.429 . S
C241 N238 1.350 . S
C241 C240 1.434 . S
C242 C243 1.369 1_565 S
C242 C244 1.419 . S
C242 H246 0.930 . S
C243 C242 1.369 1_545 S
C243 C252 1.429 . S
C244 C242 1.419 . S
C244 C245 1.363 1_565 S
C244 H247 0.929 . S
C245 C244 1.363 1_545 S
C245 C251 1.428 . S
H246 C242 0.930 . S
H247 C244 0.929 . S
S248 N249 1.613 . S
S248 N250 1.610 . S
N249 S248 1.613 . S
N249 C252 1.350 . S
N250 S248 1.610 . S
N250 C251 1.351 . S
C251 C245 1.428 . S
C251 N250 1.351 . S
C251 C252 1.434 . S
C252 C243 1.429 . S
C252 N249 1.350 . S
C252 C251 1.434 . S
C253 C254 1.369 . S
C253 C255 1.419 . S
C253 H257 0.930 . S
C254 C253 1.369 . S
C254 C263 1.429 . S
C255 C253 1.419 . S
C255 C256 1.363 . S
C255 H258 0.929 . S
C256 C255 1.363 . S
C256 C262 1.428 . S
H257 C253 0.930 . S
H258 C255 0.929 . S
S259 N260 1.613 1_655 S
S259 N261 1.610 . S
N260 S259 1.613 1_455 S
N260 C263 1.350 . S
N261 S259 1.610 . S
N261 C262 1.351 1_655 S
C262 C256 1.428 . S
C262 N261 1.351 1_455 S
C262 C263 1.434 . S
C263 C254 1.429 . S
C263 N260 1.350 . S
C263 C262 1.434 . S
C179 C153 1.772 . S
C177 C69 2.038 . S
C190 C173 2.027 . S
C188 C143 2.075 . S
C201 C152 1.666 . S
C199 C63 1.574 . S
C212 C174 1.748 . S
C210 C137 1.557 . S
C223 C166 1.637 . S
C221 C39 1.466 . S
C234 C159 1.459 . S
C232 C113 1.419 . S
C245 C167 0.861 . S
C243 C51 0.951 . S
C254 C125 0.994 . S
C256 C160 1.010 . S
