# Generated by pormake.
# Topology ctn, (3,4)-cn, num edge types: 1
# Building blocks:
#     Node 0, Type 0, BuildingBlock: INOVEN_clean_linker_0, # of connection points: 3
#     Node 1, Type 0, BuildingBlock: INOVEN_clean_linker_0, # of connection points: 3
#     Node 2, Type 0, BuildingBlock: INOVEN_clean_linker_0, # of connection points: 3
#     Node 3, Type 0, BuildingBlock: INOVEN_clean_linker_0, # of connection points: 3
#     Node 4, Type 0, BuildingBlock: INOVEN_clean_linker_0, # of connection points: 3
#     Node 5, Type 0, BuildingBlock: INOVEN_clean_linker_0, # of connection points: 3
#     Node 6, Type 0, BuildingBlock: INOVEN_clean_linker_0, # of connection points: 3
#     Node 7, Type 0, BuildingBlock: INOVEN_clean_linker_0, # of connection points: 3
#     Node 8, Type 0, BuildingBlock: INOVEN_clean_linker_0, # of connection points: 3
#     Node 9, Type 0, BuildingBlock: INOVEN_clean_linker_0, # of connection points: 3
#     Node 10, Type 0, BuildingBlock: INOVEN_clean_linker_0, # of connection points: 3
#     Node 11, Type 0, BuildingBlock: INOVEN_clean_linker_0, # of connection points: 3
#     Node 12, Type 0, BuildingBlock: INOVEN_clean_linker_0, # of connection points: 3
#     Node 13, Type 0, BuildingBlock: INOVEN_clean_linker_0, # of connection points: 3
#     Node 14, Type 0, BuildingBlock: INOVEN_clean_linker_0, # of connection points: 3
#     Node 15, Type 0, BuildingBlock: INOVEN_clean_linker_0, # of connection points: 3
#     Node 16, Type 1, BuildingBlock: AZAVOO_clean_sbu_0, # of connection points: 4
#     Node 17, Type 1, BuildingBlock: AZAVOO_clean_sbu_0, # of connection points: 4
#     Node 18, Type 1, BuildingBlock: AZAVOO_clean_sbu_0, # of connection points: 4
#     Node 19, Type 1, BuildingBlock: AZAVOO_clean_sbu_0, # of connection points: 4
#     Node 20, Type 1, BuildingBlock: AZAVOO_clean_sbu_0, # of connection points: 4
#     Node 21, Type 1, BuildingBlock: AZAVOO_clean_sbu_0, # of connection points: 4
#     Node 22, Type 1, BuildingBlock: AZAVOO_clean_sbu_0, # of connection points: 4
#     Node 23, Type 1, BuildingBlock: AZAVOO_clean_sbu_0, # of connection points: 4
#     Node 24, Type 1, BuildingBlock: AZAVOO_clean_sbu_0, # of connection points: 4
#     Node 25, Type 1, BuildingBlock: AZAVOO_clean_sbu_0, # of connection points: 4
#     Node 26, Type 1, BuildingBlock: AZAVOO_clean_sbu_0, # of connection points: 4
#     Node 27, Type 1, BuildingBlock: AZAVOO_clean_sbu_0, # of connection points: 4
#     Edge 28, Type (0, 1), None
#     Edge 29, Type (0, 1), None
#     Edge 30, Type (0, 1), None
#     Edge 31, Type (0, 1), None
#     Edge 32, Type (0, 1), None
#     Edge 33, Type (0, 1), None
#     Edge 34, Type (0, 1), None
#     Edge 35, Type (0, 1), None
#     Edge 36, Type (0, 1), None
#     Edge 37, Type (0, 1), None
#     Edge 38, Type (0, 1), None
#     Edge 39, Type (0, 1), None
#     Edge 40, Type (0, 1), None
#     Edge 41, Type (0, 1), None
#     Edge 42, Type (0, 1), None
#     Edge 43, Type (0, 1), None
#     Edge 44, Type (0, 1), None
#     Edge 45, Type (0, 1), None
#     Edge 46, Type (0, 1), None
#     Edge 47, Type (0, 1), None
#     Edge 48, Type (0, 1), None
#     Edge 49, Type (0, 1), None
#     Edge 50, Type (0, 1), None
#     Edge 51, Type (0, 1), None
#     Edge 52, Type (0, 1), None
#     Edge 53, Type (0, 1), None
#     Edge 54, Type (0, 1), None
#     Edge 55, Type (0, 1), None
#     Edge 56, Type (0, 1), None
#     Edge 57, Type (0, 1), None
#     Edge 58, Type (0, 1), None
#     Edge 59, Type (0, 1), None
#     Edge 60, Type (0, 1), None
#     Edge 61, Type (0, 1), None
#     Edge 62, Type (0, 1), None
#     Edge 63, Type (0, 1), None
#     Edge 64, Type (0, 1), None
#     Edge 65, Type (0, 1), None
#     Edge 66, Type (0, 1), None
#     Edge 67, Type (0, 1), None
#     Edge 68, Type (0, 1), None
#     Edge 69, Type (0, 1), None
#     Edge 70, Type (0, 1), None
#     Edge 71, Type (0, 1), None
#     Edge 72, Type (0, 1), None
#     Edge 73, Type (0, 1), None
#     Edge 74, Type (0, 1), None
#     Edge 75, Type (0, 1), None
# Relax obj value: 0.058
# Max RMSD: 0.181
# Mean RMSD: 0.095
data_MOF--net-ctn--node1-AZAVOO_clean_sbu_0--node2-INOVEN_clean_linker_0--edge1-none
_symmetry_space_group_name_H-M    P1
_symmetry_Int_Tables_number       1
_symmetry_cell_setting            triclinic
loop_
_symmetry_equiv_pos_as_xyz
'x, y, z'
_cell_length_a     22.676262
_cell_length_b     23.540378
_cell_length_c     24.117289
_cell_angle_alpha  99.840099
_cell_angle_beta   93.796814
_cell_angle_gamma 99.195387
loop_
_atom_site_label
_atom_site_type_symbol
_atom_site_fract_x
_atom_site_fract_y
_atom_site_fract_z
_atom_type_partial_charge
H0 H 0.98782 0.08491 0.06801 0.0
H1 H 0.07416 0.9535 0.12535 0.0
H2 H 0.09682 -0.00717 0.95835 0.0
N3 N 0.03174 0.08371 0.97427 0.0
N4 N 0.04941 0.08357 0.9265 0.0
C5 C 0.01473 0.05068 0.06028 0.0
C6 C 0.02772 0.02029 0.10306 0.0
C7 C 0.03946 0.0419 0.00885 0.0
C8 C 0.07667 -0.00089 -0.00208 0.0
C9 C 0.08837 0.96537 0.03946 0.0
C10 C 0.06403 0.97718 0.09223 0.0
H11 H 0.23943 0.70182 0.17047 0.0
H12 H 0.32122 0.63778 0.30646 0.0
H13 H 0.41823 0.78316 0.24384 0.0
N14 N 0.32883 0.78454 0.16251 0.0
N15 N 0.28563 0.81053 0.15657 0.0
C16 C 0.27697 0.70551 0.20195 0.0
C17 C 0.27536 0.6656 0.23813 0.0
C18 C 0.32832 0.74804 0.20355 0.0
C19 C 0.37849 0.75043 0.24259 0.0
C20 C 0.37518 0.71171 0.28169 0.0
C21 C 0.32363 0.66921 0.2782 0.0
H22 H 0.93845 0.41262 0.9508 0.0
H23 H 0.09628 0.38838 0.04715 0.0
H24 H 0.0336 0.55221 0.08086 0.0
N25 N 0.94206 0.52393 -0.00148 0.0
N26 N 0.95723 0.57809 0.01156 0.0
C27 C 0.97501 0.42929 0.98375 0.0
C28 C 0.0165 0.3938 -0.00414 0.0
C29 C 0.98192 0.48708 0.01311 0.0
C30 C 0.02856 0.50807 0.05689 0.0
C31 C 0.06955 0.4726 0.06919 0.0
C32 C 0.06413 0.41586 0.03792 0.0
H33 H 0.79752 0.91019 0.26726 0.0
H34 H 0.88139 0.83521 0.12378 0.0
H35 H 0.71416 0.74582 0.16366 0.0
N36 N 0.7096 0.81911 0.25911 0.0
N37 N 0.70829 0.77393 0.27956 0.0
C38 C 0.79635 0.87716 0.22971 0.0
C39 C 0.84471 0.87912 0.19632 0.0
C40 C 0.74991 0.82852 0.21839 0.0
C41 C 0.74974 0.78377 0.17179 0.0
C42 C 0.79665 0.78674 0.13751 0.0
C43 C 0.84412 0.83409 0.14981 0.0
H44 H 0.01007 0.92012 0.42467 0.0
H45 H 0.08529 0.09684 0.41474 0.0
H46 H 0.15141 0.0175 0.54892 0.0
N47 N 0.07569 0.91423 0.5183 0.0
N48 N 0.03114 0.89302 0.54076 0.0
C49 C 0.03901 0.96117 0.44318 0.0
C50 C 0.04269 0.00871 0.41465 0.0
C51 C 0.07595 0.96503 0.49353 0.0
C52 C 0.11956 0.01587 0.51293 0.0
C53 C 0.12175 0.06439 0.48535 0.0
C54 C 0.08151 0.06083 0.43781 0.0
H55 H 0.26572 0.65268 0.68783 0.0
H56 H 0.34574 0.69236 0.85906 0.0
H57 H 0.19003 0.76539 0.81234 0.0
N58 N 0.18009 0.71147 0.70104 0.0
N59 N 0.13074 0.72701 0.70843 0.0
C60 C 0.26697 0.67473 0.73132 0.0
C61 C 0.31088 0.66766 0.77194 0.0
C62 C 0.22317 0.70874 0.74547 0.0
C63 C 0.22358 0.73844 0.80156 0.0
C64 C 0.26823 0.7336 0.84332 0.0
C65 C 0.31118 0.69718 0.82784 0.0
H66 H 0.947 0.41762 0.42442 0.0
H67 H 0.88487 0.52432 0.56408 0.0
H68 H 0.0205 0.60108 0.46938 0.0
N69 N 0.02469 0.50213 0.39641 0.0
N70 N 0.06895 0.54053 0.39509 0.0
C71 C 0.94886 0.45977 0.45155 0.0
C72 C 0.91165 0.46547 0.4957 0.0
C73 C 0.98814 0.50843 0.44185 0.0
C74 C 0.99066 0.56314 0.47713 0.0
C75 C 0.95404 0.56938 0.52154 0.0
C76 C 0.91412 0.52022 0.53036 0.0
H77 H 0.69748 0.77314 0.83084 0.0
H78 H 0.85109 0.68529 0.81627 0.0
H79 H 0.80276 0.78433 0.69176 0.0
N80 N 0.71866 0.82946 0.74765 0.0
N81 N 0.73569 0.85502 0.70894 0.0
C82 C 0.73367 0.75934 0.80768 0.0
C83 C 0.77121 0.72424 0.82919 0.0
C84 C 0.74585 0.78212 0.75931 0.0
C85 C 0.79372 0.76699 0.72974 0.0
C86 C 0.83242 0.73318 0.75006 0.0
C87 C 0.82049 0.7105 0.79949 0.0
H88 H 0.19748 0.27314 0.33084 0.0
H89 H 0.35109 0.18529 0.31627 0.0
H90 H 0.30276 0.28433 0.19176 0.0
N91 N 0.21866 0.32946 0.24765 0.0
N92 N 0.23569 0.35502 0.20894 0.0
C93 C 0.23367 0.25934 0.30768 0.0
C94 C 0.27121 0.22424 0.32919 0.0
C95 C 0.24585 0.28212 0.25931 0.0
C96 C 0.29372 0.26699 0.22974 0.0
C97 C 0.33242 0.23318 0.25006 0.0
C98 C 0.32049 0.2105 0.29949 0.0
H99 H 0.43844 0.91262 0.4508 0.0
H100 H 0.59628 0.88838 0.54715 0.0
H101 H 0.5336 0.05221 0.58086 0.0
N102 N 0.44206 0.02393 0.49852 0.0
N103 N 0.45723 0.07809 0.51156 0.0
C104 C 0.47501 0.92929 0.48375 0.0
C105 C 0.5165 0.8938 0.49586 0.0
C106 C 0.48192 0.98708 0.51311 0.0
C107 C 0.52856 0.00807 0.55689 0.0
C108 C 0.56955 0.9726 0.56919 0.0
C109 C 0.56413 0.91586 0.53792 0.0
H110 H 0.29752 0.41019 0.76726 0.0
H111 H 0.38139 0.33521 0.62378 0.0
H112 H 0.21416 0.24582 0.66366 0.0
N113 N 0.20959 0.31911 0.75911 0.0
N114 N 0.20829 0.27393 0.77956 0.0
C115 C 0.29635 0.37716 0.72971 0.0
C116 C 0.34471 0.37912 0.69632 0.0
C117 C 0.24991 0.32853 0.71839 0.0
C118 C 0.24974 0.28377 0.67179 0.0
C119 C 0.29665 0.28674 0.63751 0.0
C120 C 0.34412 0.33409 0.64981 0.0
H121 H 0.73943 0.20182 0.67047 0.0
H122 H 0.82122 0.13778 0.80646 0.0
H123 H 0.91823 0.28316 0.74384 0.0
N124 N 0.82883 0.28454 0.66251 0.0
N125 N 0.78563 0.31053 0.65657 0.0
C126 C 0.77697 0.20551 0.70195 0.0
C127 C 0.77536 0.1656 0.73813 0.0
C128 C 0.82832 0.24804 0.70355 0.0
C129 C 0.87849 0.25043 0.74259 0.0
C130 C 0.87518 0.21171 0.78169 0.0
C131 C 0.82363 0.16921 0.77821 0.0
H132 H 0.48782 0.58491 0.56801 0.0
H133 H 0.57416 0.4535 0.62535 0.0
H134 H 0.59682 0.49283 0.45835 0.0
N135 N 0.53174 0.58371 0.47427 0.0
N136 N 0.54941 0.58357 0.4265 0.0
C137 C 0.51473 0.55068 0.56028 0.0
C138 C 0.52772 0.52029 0.60306 0.0
C139 C 0.53946 0.5419 0.50885 0.0
C140 C 0.57667 0.49911 0.49792 0.0
C141 C 0.58838 0.46537 0.53946 0.0
C142 C 0.56403 0.47718 0.59223 0.0
H143 H 0.51007 0.42012 0.92467 0.0
H144 H 0.58529 0.59684 0.91474 0.0
H145 H 0.65141 0.5175 0.04892 0.0
N146 N 0.57569 0.41423 0.0183 0.0
N147 N 0.53114 0.39302 0.04076 0.0
C148 C 0.53901 0.46117 0.94318 0.0
C149 C 0.54269 0.50871 0.91465 0.0
C150 C 0.57595 0.46503 -0.00647 0.0
C151 C 0.61956 0.51587 0.01293 0.0
C152 C 0.62175 0.56439 0.98535 0.0
C153 C 0.58151 0.56083 0.93781 0.0
H154 H 0.76572 0.15268 0.18783 0.0
H155 H 0.84574 0.19236 0.35906 0.0
H156 H 0.69003 0.2654 0.31234 0.0
N157 N 0.68009 0.21147 0.20104 0.0
N158 N 0.63074 0.22701 0.20843 0.0
C159 C 0.76697 0.17473 0.23132 0.0
C160 C 0.81088 0.16766 0.27194 0.0
C161 C 0.72317 0.20874 0.24547 0.0
C162 C 0.72358 0.23844 0.30157 0.0
C163 C 0.76823 0.2336 0.34332 0.0
C164 C 0.81118 0.19718 0.32784 0.0
H165 H 0.447 0.91762 0.92442 0.0
H166 H 0.38487 0.02432 0.06408 0.0
H167 H 0.5205 0.10108 0.96938 0.0
N168 N 0.52469 0.00213 0.89641 0.0
N169 N 0.56895 0.04053 0.89509 0.0
C170 C 0.44886 0.95977 0.95155 0.0
C171 C 0.41165 0.96547 -0.0043 0.0
C172 C 0.48814 0.00843 0.94185 0.0
C173 C 0.49066 0.06314 0.97713 0.0
C174 C 0.45404 0.06938 0.02154 0.0
C175 C 0.41412 0.02022 0.03036 0.0
Mg176 Mg 0.22935 0.85044 0.01224 0.0
O177 O 0.31479 0.91633 0.00722 0.0
O178 O 0.39249 0.86816 0.01042 0.0
Mg179 Mg 0.36054 0.77583 0.0263 0.0
C180 C 0.37064 0.91399 0.00552 0.0
C181 C 0.1268 0.91887 0.03082 0.0
O182 O 0.12484 0.88171 0.06583 0.0
O183 O 0.23646 0.80176 0.91907 0.0
O184 O 0.31221 0.75515 0.93757 0.0
O185 O 0.23925 0.87183 0.10763 0.0
O186 O 0.28068 0.80403 0.05852 0.0
C187 C 0.2717 0.76539 0.90313 0.0
C188 C 0.27263 0.83233 0.10698 0.0
O189 O 0.16501 0.91598 -0.00597 0.0
Mg190 Mg 0.16677 0.52414 0.24991 0.0
O191 O 0.10824 0.50552 0.16492 0.0
O192 O 0.17243 0.4982 0.09808 0.0
Mg193 Mg 0.26859 0.52301 0.13807 0.0
C194 C 0.11939 0.49483 0.11322 0.0
C195 C 0.10621 0.53783 0.35064 0.0
O196 O 0.15812 0.57325 0.35795 0.0
O197 O 0.18358 0.43106 0.23354 0.0
O198 O 0.25156 0.43713 0.17036 0.0
O199 O 0.17871 0.62122 0.25776 0.0
O200 O 0.23807 0.56476 0.216 0.0
C201 C 0.22028 0.40883 0.20204 0.0
C202 C 0.22658 0.6162 0.23235 0.0
O203 O 0.08994 0.50433 0.30297 0.0
Mg204 Mg 0.81381 0.67382 0.00135 0.0
O205 O 0.72413 0.61094 0.00172 0.0
O206 O 0.6535 0.6666 -0.00175 0.0
Mg207 Mg 0.69606 0.76271 0.00425 0.0
C208 C 0.66914 0.61708 -0.00036 0.0
C209 C 0.91788 0.61673 0.0021 0.0
O210 O 0.93589 0.67307 0.02018 0.0
O211 O 0.79596 0.67909 0.90772 0.0
O212 O 0.7309 0.74137 0.91722 0.0
O213 O 0.82514 0.6967 0.09536 0.0
O214 O 0.78109 0.74631 0.03975 0.0
C215 C 0.76416 0.71212 0.88709 0.0
C216 C 0.7982 0.74011 0.08973 0.0
O217 O 0.8631 0.59791 0.98436 0.0
Mg218 Mg 0.96458 0.0622 0.25514 0.0
O219 O 0.89546 0.97667 0.23111 0.0
O220 O 0.94943 0.9056 0.20798 0.0
Mg221 Mg 0.04903 0.94063 0.22299 0.0
C222 C 0.89936 0.92321 0.21306 0.0
C223 C 0.85646 0.13058 0.25421 0.0
O224 O 0.86101 0.11353 0.20012 0.0
O225 O 0.98906 0.03998 0.34133 0.0
O226 O 0.04129 0.96771 0.31871 0.0
O227 O 0.96425 0.06987 0.16432 0.0
O228 O 0.02652 0.02309 0.20463 0.0
C229 C 0.01871 0.0019 0.3552 0.0
C230 C 0.00546 0.03764 0.15917 0.0
O231 O 0.89188 0.11511 0.28984 0.0
Mg232 Mg 0.31381 0.17382 0.50135 0.0
O233 O 0.22413 0.11094 0.50172 0.0
O234 O 0.1535 0.1666 0.49825 0.0
Mg235 Mg 0.19606 0.26271 0.50425 0.0
C236 C 0.16914 0.11708 0.49964 0.0
C237 C 0.41788 0.11673 0.5021 0.0
O238 O 0.43589 0.17307 0.52018 0.0
O239 O 0.29596 0.17909 0.40772 0.0
O240 O 0.2309 0.24137 0.41722 0.0
O241 O 0.32514 0.1967 0.59537 0.0
O242 O 0.28109 0.24631 0.53975 0.0
C243 C 0.26416 0.21212 0.38709 0.0
C244 C 0.2982 0.24011 0.58973 0.0
O245 O 0.3631 0.09791 0.48436 0.0
Mg246 Mg 0.46458 0.5622 0.75514 0.0
O247 O 0.39546 0.47667 0.73111 0.0
O248 O 0.44943 0.4056 0.70798 0.0
Mg249 Mg 0.54903 0.44063 0.72299 0.0
C250 C 0.39936 0.42321 0.71306 0.0
C251 C 0.35646 0.63058 0.75421 0.0
O252 O 0.36101 0.61352 0.70012 0.0
O253 O 0.48906 0.53998 0.84133 0.0
O254 O 0.54129 0.46771 0.81871 0.0
O255 O 0.46425 0.56987 0.66432 0.0
O256 O 0.52652 0.52309 0.70463 0.0
C257 C 0.51871 0.5019 0.8552 0.0
C258 C 0.50546 0.53764 0.65917 0.0
O259 O 0.39188 0.61511 0.78984 0.0
Mg260 Mg 0.72935 0.35044 0.51224 0.0
O261 O 0.81479 0.41633 0.50722 0.0
O262 O 0.89249 0.36816 0.51042 0.0
Mg263 Mg 0.86054 0.27583 0.5263 0.0
C264 C 0.87064 0.41399 0.50552 0.0
C265 C 0.6268 0.41887 0.53082 0.0
O266 O 0.62484 0.38171 0.56583 0.0
O267 O 0.73646 0.30176 0.41907 0.0
O268 O 0.81221 0.25515 0.43757 0.0
O269 O 0.73925 0.37183 0.60763 0.0
O270 O 0.78068 0.30403 0.55852 0.0
C271 C 0.7717 0.26539 0.40313 0.0
C272 C 0.77263 0.33233 0.60698 0.0
O273 O 0.66501 0.41598 0.49403 0.0
Mg274 Mg 0.66677 0.02414 0.74991 0.0
O275 O 0.60824 0.00552 0.66492 0.0
O276 O 0.67243 -0.0018 0.59808 0.0
Mg277 Mg 0.76859 0.02301 0.63807 0.0
C278 C 0.61939 -0.00517 0.61322 0.0
C279 C 0.60621 0.03783 0.85064 0.0
O280 O 0.65812 0.07325 0.85795 0.0
O281 O 0.68358 0.93106 0.73354 0.0
O282 O 0.75156 0.93713 0.67036 0.0
O283 O 0.67871 0.12122 0.75776 0.0
O284 O 0.73807 0.06476 0.716 0.0
C285 C 0.72028 0.90883 0.70204 0.0
C286 C 0.72658 0.1162 0.73235 0.0
O287 O 0.58994 0.00433 0.80297 0.0
Mg288 Mg 0.0644 0.23606 0.88048 0.0
O289 O 0.97778 0.22626 0.82064 0.0
O290 O 0.90512 0.20278 0.875 0.0
Mg291 Mg 0.94249 0.19367 0.9629 0.0
C292 C 0.92232 0.21491 0.82832 0.0
C293 C 0.16744 0.25916 0.81807 0.0
O294 O 0.17709 0.21945 0.84805 0.0
O295 O 0.04569 0.32231 0.92751 0.0
O296 O 0.97506 0.29361 0.98262 0.0
O297 O 0.07332 0.14081 0.85737 0.0
O298 O 0.02739 0.1781 0.92917 0.0
C299 C 0.01064 0.33346 0.96563 0.0
C300 C 0.04591 0.13345 0.90156 0.0
O301 O 0.11906 0.27965 0.82079 0.0
Mg302 Mg 0.5644 0.73606 0.38048 0.0
O303 O 0.47778 0.72626 0.32064 0.0
O304 O 0.40512 0.70278 0.375 0.0
Mg305 Mg 0.44249 0.69367 0.4629 0.0
C306 C 0.42232 0.71491 0.32832 0.0
C307 C 0.66744 0.75916 0.31807 0.0
O308 O 0.67709 0.71945 0.34805 0.0
O309 O 0.54569 0.82231 0.42751 0.0
O310 O 0.47506 0.79361 0.48262 0.0
O311 O 0.57332 0.6408 0.35737 0.0
O312 O 0.52739 0.6781 0.42917 0.0
C313 C 0.51064 0.83346 0.46563 0.0
C314 C 0.54591 0.63345 0.40156 0.0
O315 O 0.61906 0.77965 0.32079 0.0
Mg316 Mg 0.95154 0.729 0.60874 0.0
O317 O 0.03616 0.73101 0.6678 0.0
O318 O 0.1087 0.71672 0.61144 0.0
Mg319 Mg 0.07154 0.70428 0.51877 0.0
C320 C 0.09036 0.7259 0.66062 0.0
C321 C 0.88481 0.72368 0.71841 0.0
O322 O 0.90613 0.67483 0.71696 0.0
O323 O 0.98769 0.8214 0.58926 0.0
O324 O 0.05667 0.80038 0.53024 0.0
O325 O 0.92505 0.63292 0.60032 0.0
O326 O 0.98056 0.67505 0.54182 0.0
C327 C 0.02686 0.83676 0.5561 0.0
C328 C 0.95435 0.62763 0.55613 0.0
O329 O 0.90167 0.75795 0.68438 0.0
Mg330 Mg 0.45154 0.229 0.10874 0.0
O331 O 0.53616 0.23101 0.1678 0.0
O332 O 0.6087 0.21672 0.11144 0.0
Mg333 Mg 0.57154 0.20428 0.01877 0.0
C334 C 0.59036 0.2259 0.16062 0.0
C335 C 0.38481 0.22368 0.21841 0.0
O336 O 0.40613 0.17483 0.21696 0.0
O337 O 0.48769 0.3214 0.08926 0.0
O338 O 0.55667 0.30038 0.03024 0.0
O339 O 0.42505 0.13292 0.10032 0.0
O340 O 0.48056 0.17505 0.04182 0.0
C341 C 0.52686 0.33676 0.0561 0.0
C342 C 0.45435 0.12763 0.05613 0.0
O343 O 0.40167 0.25795 0.18438 0.0
loop_
_geom_bond_atom_site_label_1
_geom_bond_atom_site_label_2
_geom_bond_distance
_geom_bond_site_symmetry_2
_ccdc_geom_bond_type
H0 C5 0.929 1_655 S
H1 C10 0.931 . S
H2 C8 0.930 1_556 S
N3 N4 1.234 . S
N3 C7 1.453 1_556 S
N4 N3 1.234 . S
C5 H0 0.929 1_455 S
C5 C6 1.373 . S
C5 C7 1.368 . S
C6 C5 1.373 . S
C6 C10 1.397 1_545 S
C7 N3 1.453 1_554 S
C7 C5 1.368 . S
C7 C8 1.373 . S
C8 H2 0.930 1_554 S
C8 C7 1.373 . S
C8 C9 1.371 1_545 S
C9 C8 1.371 1_565 S
C9 C10 1.383 . S
C10 H1 0.931 . S
C10 C6 1.397 1_565 S
C10 C9 1.383 . S
H11 C16 0.929 . S
H12 C21 0.931 . S
H13 C19 0.930 . S
N14 N15 1.234 . S
N14 C18 1.453 . S
N15 N14 1.234 . S
C16 H11 0.929 . S
C16 C17 1.373 . S
C16 C18 1.368 . S
C17 C16 1.373 . S
C17 C21 1.397 . S
C18 N14 1.453 . S
C18 C16 1.368 . S
C18 C19 1.373 . S
C19 H13 0.930 . S
C19 C18 1.373 . S
C19 C20 1.371 . S
C20 C19 1.371 . S
C20 C21 1.383 . S
C21 H12 0.931 . S
C21 C17 1.397 . S
C21 C20 1.383 . S
H22 C27 0.929 . S
H23 C32 0.931 . S
H24 C30 0.930 . S
N25 N26 1.234 . S
N25 C29 1.453 . S
N26 N25 1.234 . S
C27 H22 0.929 . S
C27 C28 1.373 1_656 S
C27 C29 1.368 1_556 S
C28 C27 1.373 1_454 S
C28 C32 1.397 . S
C29 N25 1.453 . S
C29 C27 1.368 1_554 S
C29 C30 1.373 1_655 S
C30 H24 0.930 . S
C30 C29 1.373 1_455 S
C30 C31 1.371 . S
C31 C30 1.371 . S
C31 C32 1.383 . S
C32 H23 0.931 . S
C32 C28 1.397 . S
C32 C31 1.383 . S
H33 C38 0.929 . S
H34 C43 0.931 . S
H35 C41 0.930 . S
N36 N37 1.234 . S
N36 C40 1.453 . S
N37 N36 1.234 . S
C38 H33 0.929 . S
C38 C39 1.373 . S
C38 C40 1.368 . S
C39 C38 1.373 . S
C39 C43 1.397 . S
C40 N36 1.453 . S
C40 C38 1.368 . S
C40 C41 1.373 . S
C41 H35 0.930 . S
C41 C40 1.373 . S
C41 C42 1.371 . S
C42 C41 1.371 . S
C42 C43 1.383 . S
C43 H34 0.931 . S
C43 C39 1.397 . S
C43 C42 1.383 . S
H44 C49 0.929 1_655 S
H45 C54 0.931 . S
H46 C52 0.932 . S
N47 N48 1.234 . S
N47 C51 1.453 . S
N48 N47 1.234 . S
C49 H44 0.929 1_455 S
C49 C50 1.373 1_565 S
C49 C51 1.368 . S
C50 C49 1.373 1_545 S
C50 C54 1.397 . S
C51 N47 1.453 . S
C51 C49 1.368 . S
C51 C52 1.373 1_565 S
C52 H46 0.932 . S
C52 C51 1.373 1_545 S
C52 C53 1.371 . S
C53 C52 1.371 . S
C53 C54 1.383 . S
C54 H45 0.931 . S
C54 C50 1.397 . S
C54 C53 1.383 . S
H55 C60 0.929 . S
H56 C65 0.931 . S
H57 C63 0.930 . S
N58 N59 1.234 . S
N58 C62 1.453 . S
N59 N58 1.234 . S
C60 H55 0.929 . S
C60 C61 1.373 . S
C60 C62 1.368 . S
C61 C60 1.373 . S
C61 C65 1.397 . S
C62 N58 1.453 . S
C62 C60 1.368 . S
C62 C63 1.373 . S
C63 H57 0.930 . S
C63 C62 1.373 . S
C63 C64 1.371 . S
C64 C63 1.371 . S
C64 C65 1.383 . S
C65 H56 0.931 . S
C65 C61 1.397 . S
C65 C64 1.383 . S
H66 C71 0.929 . S
H67 C76 0.931 . S
H68 C74 0.930 1_455 S
N69 N70 1.234 . S
N69 C73 1.453 1_455 S
N70 N69 1.234 . S
C71 H66 0.929 . S
C71 C72 1.373 . S
C71 C73 1.368 . S
C72 C71 1.373 . S
C72 C76 1.397 . S
C73 N69 1.453 1_655 S
C73 C71 1.368 . S
C73 C74 1.373 . S
C74 H68 0.930 1_655 S
C74 C73 1.373 . S
C74 C75 1.371 . S
C75 C74 1.371 . S
C75 C76 1.383 . S
C76 H67 0.931 . S
C76 C72 1.397 . S
C76 C75 1.383 . S
H77 C82 0.929 . S
H78 C87 0.931 . S
H79 C85 0.930 . S
N80 N81 1.234 . S
N80 C84 1.453 . S
N81 N80 1.234 . S
C82 H77 0.929 . S
C82 C83 1.373 . S
C82 C84 1.368 . S
C83 C82 1.373 . S
C83 C87 1.397 . S
C84 N80 1.453 . S
C84 C82 1.368 . S
C84 C85 1.373 . S
C85 H79 0.930 . S
C85 C84 1.373 . S
C85 C86 1.371 . S
C86 C85 1.371 . S
C86 C87 1.383 . S
C87 H78 0.931 . S
C87 C83 1.397 . S
C87 C86 1.383 . S
H88 C93 0.929 . S
H89 C98 0.931 . S
H90 C96 0.930 . S
N91 N92 1.234 . S
N91 C95 1.453 . S
N92 N91 1.234 . S
C93 H88 0.929 . S
C93 C94 1.373 . S
C93 C95 1.368 . S
C94 C93 1.373 . S
C94 C98 1.397 . S
C95 N91 1.453 . S
C95 C93 1.368 . S
C95 C96 1.373 . S
C96 H90 0.930 . S
C96 C95 1.373 . S
C96 C97 1.371 . S
C97 C96 1.371 . S
C97 C98 1.383 . S
C98 H89 0.931 . S
C98 C94 1.397 . S
C98 C97 1.383 . S
H99 C104 0.929 . S
H100 C109 0.931 . S
H101 C107 0.930 . S
N102 N103 1.234 . S
N102 C106 1.453 1_545 S
N103 N102 1.234 . S
C104 H99 0.929 . S
C104 C105 1.373 . S
C104 C106 1.368 . S
C105 C104 1.373 . S
C105 C109 1.397 . S
C106 N102 1.453 1_565 S
C106 C104 1.368 . S
C106 C107 1.373 1_565 S
C107 H101 0.930 . S
C107 C106 1.373 1_545 S
C107 C108 1.371 1_545 S
C108 C107 1.371 1_565 S
C108 C109 1.383 . S
C109 H100 0.931 . S
C109 C105 1.397 . S
C109 C108 1.383 . S
H110 C115 0.929 . S
H111 C120 0.931 . S
H112 C118 0.930 . S
N113 N114 1.234 . S
N113 C117 1.453 . S
N114 N113 1.234 . S
C115 H110 0.929 . S
C115 C116 1.373 . S
C115 C117 1.368 . S
C116 C115 1.373 . S
C116 C120 1.397 . S
C117 N113 1.453 . S
C117 C115 1.368 . S
C117 C118 1.373 . S
C118 H112 0.930 . S
C118 C117 1.373 . S
C118 C119 1.371 . S
C119 C118 1.371 . S
C119 C120 1.383 . S
C120 H111 0.931 . S
C120 C116 1.397 . S
C120 C119 1.383 . S
H121 C126 0.929 . S
H122 C131 0.931 . S
H123 C129 0.930 . S
N124 N125 1.234 . S
N124 C128 1.453 . S
N125 N124 1.234 . S
C126 H121 0.929 . S
C126 C127 1.373 . S
C126 C128 1.368 . S
C127 C126 1.373 . S
C127 C131 1.397 . S
C128 N124 1.453 . S
C128 C126 1.368 . S
C128 C129 1.373 . S
C129 H123 0.930 . S
C129 C128 1.373 . S
C129 C130 1.371 . S
C130 C129 1.371 . S
C130 C131 1.383 . S
C131 H122 0.931 . S
C131 C127 1.397 . S
C131 C130 1.383 . S
H132 C137 0.929 . S
H133 C142 0.931 . S
H134 C140 0.930 . S
N135 N136 1.234 . S
N135 C139 1.453 . S
N136 N135 1.234 . S
C137 H132 0.929 . S
C137 C138 1.373 . S
C137 C139 1.368 . S
C138 C137 1.373 . S
C138 C142 1.397 . S
C139 N135 1.453 . S
C139 C137 1.368 . S
C139 C140 1.373 . S
C140 H134 0.930 . S
C140 C139 1.373 . S
C140 C141 1.371 . S
C141 C140 1.371 . S
C141 C142 1.383 . S
C142 H133 0.931 . S
C142 C138 1.397 . S
C142 C141 1.383 . S
H143 C148 0.929 . S
H144 C153 0.931 . S
H145 C151 0.930 . S
N146 N147 1.234 . S
N146 C150 1.453 . S
N147 N146 1.234 . S
C148 H143 0.929 . S
C148 C149 1.373 . S
C148 C150 1.368 1_556 S
C149 C148 1.373 . S
C149 C153 1.397 . S
C150 N146 1.453 . S
C150 C148 1.368 1_554 S
C150 C151 1.373 . S
C151 H145 0.930 . S
C151 C150 1.373 . S
C151 C152 1.371 1_554 S
C152 C151 1.371 1_556 S
C152 C153 1.383 . S
C153 H144 0.931 . S
C153 C149 1.397 . S
C153 C152 1.383 . S
H154 C159 0.929 . S
H155 C164 0.931 . S
H156 C162 0.930 . S
N157 N158 1.234 . S
N157 C161 1.453 . S
N158 N157 1.234 . S
C159 H154 0.929 . S
C159 C160 1.373 . S
C159 C161 1.368 . S
C160 C159 1.373 . S
C160 C164 1.397 . S
C161 N157 1.453 . S
C161 C159 1.368 . S
C161 C162 1.373 . S
C162 H156 0.930 . S
C162 C161 1.373 . S
C162 C163 1.371 . S
C163 C162 1.371 . S
C163 C164 1.383 . S
C164 H155 0.931 . S
C164 C160 1.397 . S
C164 C163 1.383 . S
H165 C170 0.929 . S
H166 C175 0.931 . S
H167 C173 0.930 . S
N168 N169 1.234 1_565 S
N168 C172 1.453 1_565 S
N169 N168 1.234 1_545 S
C170 H165 0.929 . S
C170 C171 1.373 1_556 S
C170 C172 1.368 1_565 S
C171 C170 1.373 1_554 S
C171 C175 1.397 1_565 S
C172 N168 1.453 1_545 S
C172 C170 1.368 1_545 S
C172 C173 1.373 . S
C173 H167 0.930 . S
C173 C172 1.373 . S
C173 C174 1.371 1_556 S
C174 C173 1.371 1_554 S
C174 C175 1.383 . S
C175 H166 0.931 . S
C175 C171 1.397 1_545 S
C175 C174 1.383 . S
Mg176 O177 2.028 . S
Mg176 O183 1.986 1_554 S
Mg176 O185 2.114 . S
Mg176 O186 2.251 . S
Mg176 O189 2.010 . S
O177 Mg176 2.028 . S
O177 C180 1.250 . S
O178 Mg179 2.028 . S
O178 C180 1.248 . S
Mg179 O178 2.028 . S
Mg179 O184 2.032 1_554 S
Mg179 O186 2.079 . S
C180 O177 1.250 . S
C180 O178 1.248 . S
C181 O182 1.264 . S
C181 O189 1.249 . S
O182 C181 1.264 . S
O183 Mg176 1.986 1_556 S
O183 C187 1.246 . S
O184 Mg179 2.032 1_556 S
O184 C187 1.259 . S
O185 Mg176 2.114 . S
O185 C188 1.252 . S
O186 Mg176 2.251 . S
O186 Mg179 2.079 . S
O186 C188 1.273 . S
C187 O183 1.246 . S
C187 O184 1.259 . S
C188 O185 1.252 . S
C188 O186 1.273 . S
O189 Mg176 2.010 . S
O189 C181 1.249 . S
Mg190 O191 2.028 . S
Mg190 O197 1.986 . S
Mg190 O199 2.114 . S
Mg190 O200 2.251 . S
Mg190 O203 2.010 . S
O191 Mg190 2.028 . S
O191 C194 1.250 . S
O192 Mg193 2.028 . S
O192 C194 1.248 . S
Mg193 O192 2.028 . S
Mg193 O198 2.032 . S
Mg193 O200 2.079 . S
C194 O191 1.250 . S
C194 O192 1.248 . S
C195 O196 1.264 . S
C195 O203 1.249 . S
O196 C195 1.264 . S
O197 Mg190 1.986 . S
O197 C201 1.246 . S
O198 Mg193 2.032 . S
O198 C201 1.259 . S
O199 Mg190 2.114 . S
O199 C202 1.252 . S
O200 Mg190 2.251 . S
O200 Mg193 2.079 . S
O200 C202 1.273 . S
C201 O197 1.246 . S
C201 O198 1.259 . S
C202 O199 1.252 . S
C202 O200 1.273 . S
O203 Mg190 2.010 . S
O203 C195 1.249 . S
Mg204 O205 2.028 1_554 S
Mg204 O211 1.986 1_554 S
Mg204 O213 2.114 . S
Mg204 O214 2.251 . S
Mg204 O217 2.010 . S
O205 Mg204 2.028 1_556 S
O205 C208 1.250 . S
O206 Mg207 2.028 . S
O206 C208 1.248 . S
Mg207 O206 2.028 . S
Mg207 O212 2.032 . S
Mg207 O214 2.079 1_556 S
C208 O205 1.250 . S
C208 O206 1.248 . S
C209 O210 1.264 . S
C209 O217 1.249 . S
O210 C209 1.264 . S
O211 Mg204 1.986 1_556 S
O211 C215 1.246 . S
O212 Mg207 2.032 . S
O212 C215 1.259 . S
O213 Mg204 2.114 . S
O213 C216 1.252 . S
O214 Mg204 2.251 . S
O214 Mg207 2.079 1_554 S
O214 C216 1.273 . S
C215 O211 1.246 . S
C215 O212 1.259 . S
C216 O213 1.252 . S
C216 O214 1.273 . S
O217 Mg204 2.010 . S
O217 C209 1.249 . S
Mg218 O219 2.028 1_545 S
Mg218 O225 1.986 . S
Mg218 O227 2.114 . S
Mg218 O228 2.251 1_655 S
Mg218 O231 2.010 . S
O219 Mg218 2.028 1_565 S
O219 C222 1.250 . S
O220 Mg221 2.028 1_655 S
O220 C222 1.248 . S
Mg221 O220 2.028 1_455 S
Mg221 O226 2.032 . S
Mg221 O228 2.079 1_565 S
C222 O219 1.250 . S
C222 O220 1.248 . S
C223 O224 1.264 . S
C223 O231 1.249 . S
O224 C223 1.264 . S
O225 Mg218 1.986 . S
O225 C229 1.246 1_655 S
O226 Mg221 2.032 . S
O226 C229 1.259 1_565 S
O227 Mg218 2.114 . S
O227 C230 1.252 . S
O228 Mg218 2.251 1_455 S
O228 Mg221 2.079 1_545 S
O228 C230 1.273 1_455 S
C229 O225 1.246 1_455 S
C229 O226 1.259 1_545 S
C230 O227 1.252 . S
C230 O228 1.273 1_655 S
O231 Mg218 2.010 . S
O231 C223 1.249 . S
Mg232 O233 2.028 . S
Mg232 O239 1.986 . S
Mg232 O241 2.114 . S
Mg232 O242 2.251 . S
Mg232 O245 2.010 . S
O233 Mg232 2.028 . S
O233 C236 1.250 . S
O234 Mg235 2.028 . S
O234 C236 1.248 . S
Mg235 O234 2.028 . S
Mg235 O240 2.032 . S
Mg235 O242 2.079 . S
C236 O233 1.250 . S
C236 O234 1.248 . S
C237 O238 1.264 . S
C237 O245 1.249 . S
O238 C237 1.264 . S
O239 Mg232 1.986 . S
O239 C243 1.246 . S
O240 Mg235 2.032 . S
O240 C243 1.259 . S
O241 Mg232 2.114 . S
O241 C244 1.252 . S
O242 Mg232 2.251 . S
O242 Mg235 2.079 . S
O242 C244 1.273 . S
C243 O239 1.246 . S
C243 O240 1.259 . S
C244 O241 1.252 . S
C244 O242 1.273 . S
O245 Mg232 2.010 . S
O245 C237 1.249 . S
Mg246 O247 2.028 . S
Mg246 O253 1.986 . S
Mg246 O255 2.114 . S
Mg246 O256 2.251 . S
Mg246 O259 2.010 . S
O247 Mg246 2.028 . S
O247 C250 1.250 . S
O248 Mg249 2.028 . S
O248 C250 1.248 . S
Mg249 O248 2.028 . S
Mg249 O254 2.032 . S
Mg249 O256 2.079 . S
C250 O247 1.250 . S
C250 O248 1.248 . S
C251 O252 1.264 . S
C251 O259 1.249 . S
O252 C251 1.264 . S
O253 Mg246 1.986 . S
O253 C257 1.246 . S
O254 Mg249 2.032 . S
O254 C257 1.259 . S
O255 Mg246 2.114 . S
O255 C258 1.252 . S
O256 Mg246 2.251 . S
O256 Mg249 2.079 . S
O256 C258 1.273 . S
C257 O253 1.246 . S
C257 O254 1.259 . S
C258 O255 1.252 . S
C258 O256 1.273 . S
O259 Mg246 2.010 . S
O259 C251 1.249 . S
Mg260 O261 2.028 . S
Mg260 O267 1.986 . S
Mg260 O269 2.114 . S
Mg260 O270 2.251 . S
Mg260 O273 2.010 . S
O261 Mg260 2.028 . S
O261 C264 1.250 . S
O262 Mg263 2.028 . S
O262 C264 1.248 . S
Mg263 O262 2.028 . S
Mg263 O268 2.032 . S
Mg263 O270 2.079 . S
C264 O261 1.250 . S
C264 O262 1.248 . S
C265 O266 1.264 . S
C265 O273 1.249 . S
O266 C265 1.264 . S
O267 Mg260 1.986 . S
O267 C271 1.246 . S
O268 Mg263 2.032 . S
O268 C271 1.259 . S
O269 Mg260 2.114 . S
O269 C272 1.252 . S
O270 Mg260 2.251 . S
O270 Mg263 2.079 . S
O270 C272 1.273 . S
C271 O267 1.246 . S
C271 O268 1.259 . S
C272 O269 1.252 . S
C272 O270 1.273 . S
O273 Mg260 2.010 . S
O273 C265 1.249 . S
Mg274 O275 2.028 1_545 S
Mg274 O281 1.986 1_545 S
Mg274 O283 2.114 . S
Mg274 O284 2.251 . S
Mg274 O287 2.010 . S
O275 Mg274 2.028 1_565 S
O275 C278 1.250 . S
O276 Mg277 2.028 . S
O276 C278 1.248 . S
Mg277 O276 2.028 . S
Mg277 O282 2.032 . S
Mg277 O284 2.079 1_565 S
C278 O275 1.250 . S
C278 O276 1.248 . S
C279 O280 1.264 . S
C279 O287 1.249 . S
O280 C279 1.264 . S
O281 Mg274 1.986 1_565 S
O281 C285 1.246 . S
O282 Mg277 2.032 . S
O282 C285 1.259 . S
O283 Mg274 2.114 . S
O283 C286 1.252 . S
O284 Mg274 2.251 . S
O284 Mg277 2.079 1_545 S
O284 C286 1.273 . S
C285 O281 1.246 . S
C285 O282 1.259 . S
C286 O283 1.252 . S
C286 O284 1.273 . S
O287 Mg274 2.010 . S
O287 C279 1.249 . S
Mg288 O289 2.028 1_455 S
Mg288 O295 1.986 . S
Mg288 O297 2.114 . S
Mg288 O298 2.251 1_455 S
Mg288 O301 2.010 . S
O289 Mg288 2.028 1_655 S
O289 C292 1.250 . S
O290 Mg291 2.028 . S
O290 C292 1.248 . S
Mg291 O290 2.028 . S
Mg291 O296 2.032 . S
Mg291 O298 2.079 . S
C292 O289 1.250 . S
C292 O290 1.248 . S
C293 O294 1.264 . S
C293 O301 1.249 . S
O294 C293 1.264 . S
O295 Mg288 1.986 . S
O295 C299 1.246 . S
O296 Mg291 2.032 . S
O296 C299 1.259 1_655 S
O297 Mg288 2.114 . S
O297 C300 1.252 . S
O298 Mg288 2.251 1_655 S
O298 Mg291 2.079 . S
O298 C300 1.273 1_655 S
C299 O295 1.246 . S
C299 O296 1.259 1_455 S
C300 O297 1.252 . S
C300 O298 1.273 1_455 S
O301 Mg288 2.010 . S
O301 C293 1.249 . S
Mg302 O303 2.028 . S
Mg302 O309 1.986 . S
Mg302 O311 2.114 . S
Mg302 O312 2.251 . S
Mg302 O315 2.010 . S
O303 Mg302 2.028 . S
O303 C306 1.250 . S
O304 Mg305 2.028 . S
O304 C306 1.248 . S
Mg305 O304 2.028 . S
Mg305 O310 2.032 . S
Mg305 O312 2.079 . S
C306 O303 1.250 . S
C306 O304 1.248 . S
C307 O308 1.264 . S
C307 O315 1.249 . S
O308 C307 1.264 . S
O309 Mg302 1.986 . S
O309 C313 1.246 . S
O310 Mg305 2.032 . S
O310 C313 1.259 . S
O311 Mg302 2.114 . S
O311 C314 1.252 . S
O312 Mg302 2.251 . S
O312 Mg305 2.079 . S
O312 C314 1.273 . S
C313 O309 1.246 . S
C313 O310 1.259 . S
C314 O311 1.252 . S
C314 O312 1.273 . S
O315 Mg302 2.010 . S
O315 C307 1.249 . S
Mg316 O317 2.028 1_655 S
Mg316 O323 1.986 1_655 S
Mg316 O325 2.114 . S
Mg316 O326 2.251 1_655 S
Mg316 O329 2.010 . S
O317 Mg316 2.028 1_455 S
O317 C320 1.250 . S
O318 Mg319 2.028 . S
O318 C320 1.248 . S
Mg319 O318 2.028 . S
Mg319 O324 2.032 . S
Mg319 O326 2.079 . S
C320 O317 1.250 . S
C320 O318 1.248 . S
C321 O322 1.264 . S
C321 O329 1.249 . S
O322 C321 1.264 . S
O323 Mg316 1.986 1_455 S
O323 C327 1.246 . S
O324 Mg319 2.032 . S
O324 C327 1.259 . S
O325 Mg316 2.114 . S
O325 C328 1.252 . S
O326 Mg316 2.251 1_455 S
O326 Mg319 2.079 . S
O326 C328 1.273 1_455 S
C327 O323 1.246 . S
C327 O324 1.259 . S
C328 O325 1.252 . S
C328 O326 1.273 1_655 S
O329 Mg316 2.010 . S
O329 C321 1.249 . S
Mg330 O331 2.028 . S
Mg330 O337 1.986 . S
Mg330 O339 2.114 . S
Mg330 O340 2.251 . S
Mg330 O343 2.010 . S
O331 Mg330 2.028 . S
O331 C334 1.250 . S
O332 Mg333 2.028 . S
O332 C334 1.248 . S
Mg333 O332 2.028 . S
Mg333 O338 2.032 . S
Mg333 O340 2.079 . S
C334 O331 1.250 . S
C334 O332 1.248 . S
C335 O336 1.264 . S
C335 O343 1.249 . S
O336 C335 1.264 . S
O337 Mg330 1.986 . S
O337 C341 1.246 . S
O338 Mg333 2.032 . S
O338 C341 1.259 . S
O339 Mg330 2.114 . S
O339 C342 1.252 . S
O340 Mg330 2.251 . S
O340 Mg333 2.079 . S
O340 C342 1.273 . S
C341 O337 1.246 . S
C341 O338 1.259 . S
C342 O339 1.252 . S
C342 O340 1.273 . S
O343 Mg330 2.010 . S
O343 C335 1.249 . S
C187 C64 1.597 . S
C195 N70 1.007 . S
C83 C215 1.815 . S
C229 C50 1.560 . S
C244 C119 1.524 . S
C258 C138 1.799 . S
N125 C272 1.492 . S
C278 C108 1.450 . S
C130 C292 1.562 . S
C313 C105 1.540 . S
N114 C293 1.245 . S
C314 N136 1.531 . S
C86 C321 1.356 . S
N48 C327 1.746 . S
N59 C320 1.299 . S
C75 C328 1.293 . S
C39 C222 1.579 . S
C160 C223 1.788 . S
C180 C171 1.387 . S
C201 N92 1.312 . S
C53 C236 1.704 . S
C286 C127 1.535 . S
C237 N103 1.275 . S
C265 C141 1.436 . S
C271 C163 1.597 . S
N169 C279 1.007 . S
C94 C243 1.815 . S
C257 C149 1.560 . S
C42 C216 1.524 . S
C230 C6 1.799 1_655 S
C188 N15 1.492 . S
C194 C31 1.451 . S
C20 C306 1.562 . S
C28 C299 1.540 1_554 S
N37 C307 1.245 . S
N4 C300 1.531 . S
C335 C97 1.356 . S
C341 N147 1.746 . S
C334 N158 1.299 . S
C174 C342 1.293 . S
C116 C250 1.579 . S
C251 C61 1.788 . S
C264 C72 1.387 . S
C285 N81 1.315 . S
C152 C208 1.704 . S
C202 C17 1.537 . S
N26 C209 1.275 . S
C181 C9 1.437 . S
