# Generated by pormake.
# Topology tsx, (6,3)-cn, num edge types: 1
# Building blocks:
#     Node 0, Type 0, BuildingBlock: FUNLAD_clean_sbu_0, # of connection points: 6
#     Node 1, Type 0, BuildingBlock: FUNLAD_clean_sbu_0, # of connection points: 6
#     Node 2, Type 1, BuildingBlock: QEWDON_clean_linker_0, # of connection points: 3
#     Node 3, Type 1, BuildingBlock: QEWDON_clean_linker_0, # of connection points: 3
#     Node 4, Type 1, BuildingBlock: QEWDON_clean_linker_0, # of connection points: 3
#     Node 5, Type 1, BuildingBlock: QEWDON_clean_linker_0, # of connection points: 3
#     Edge 6, Type (0, 1), BuildingBlock: XUDNAN_clean_linker_2, # of connection points: 2
#     Edge 7, Type (0, 1), BuildingBlock: XUDNAN_clean_linker_2, # of connection points: 2
#     Edge 8, Type (0, 1), BuildingBlock: XUDNAN_clean_linker_2, # of connection points: 2
#     Edge 9, Type (0, 1), BuildingBlock: XUDNAN_clean_linker_2, # of connection points: 2
#     Edge 10, Type (0, 1), BuildingBlock: XUDNAN_clean_linker_2, # of connection points: 2
#     Edge 11, Type (0, 1), BuildingBlock: XUDNAN_clean_linker_2, # of connection points: 2
#     Edge 12, Type (0, 1), BuildingBlock: XUDNAN_clean_linker_2, # of connection points: 2
#     Edge 13, Type (0, 1), BuildingBlock: XUDNAN_clean_linker_2, # of connection points: 2
#     Edge 14, Type (0, 1), BuildingBlock: XUDNAN_clean_linker_2, # of connection points: 2
#     Edge 15, Type (0, 1), BuildingBlock: XUDNAN_clean_linker_2, # of connection points: 2
#     Edge 16, Type (0, 1), BuildingBlock: XUDNAN_clean_linker_2, # of connection points: 2
#     Edge 17, Type (0, 1), BuildingBlock: XUDNAN_clean_linker_2, # of connection points: 2
# Relax obj value: 0.120
# Max RMSD: 0.176
# Mean RMSD: 0.152
data_MOF--net-tsx--node1-FUNLAD_clean_sbu_0--node2-QEWDON_clean_linker_0--edge1-XUDNAN_clean_linker_2
_symmetry_space_group_name_H-M    P1
_symmetry_Int_Tables_number       1
_symmetry_cell_setting            triclinic
loop_
_symmetry_equiv_pos_as_xyz
'x, y, z'
_cell_length_a     19.351858
_cell_length_b     22.36506
_cell_length_c     36.113633
_cell_angle_alpha  89.99829
_cell_angle_beta   105.66046
_cell_angle_gamma 90.047176
loop_
_atom_site_label
_atom_site_type_symbol
_atom_site_fract_x
_atom_site_fract_y
_atom_site_fract_z
_atom_type_partial_charge
C0 C 0.98749 0.89754 1.02088 0.0
N1 N 0.10809 0.98565 0.12238 0.0
C2 C 0.05033 0.98742 0.13718 0.0
C3 C 0.05959 0.99683 0.17669 0.0
C4 C 0.12897 1.00466 0.20134 0.0
C5 C 0.18755 0.99987 0.18538 0.0
C6 C 0.17591 0.99066 0.14585 0.0
Zn7 Zn 0.09511 0.98485 0.06325 0.0
C8 C 0.2046 0.90608 0.04152 0.0
N9 N 0.07279 0.99559 0.94013 0.0
C10 C 1.00479 1.00348 0.91729 0.0
C11 C 0.12978 0.9971 0.92469 0.0
C12 C 0.11952 0.00819 0.88521 0.0
C13 C 0.05008 0.01894 0.86135 0.0
C14 C 0.99231 0.01556 0.87795 0.0
Zn15 Zn 0.08709 0.99016 0.99973 0.0
O16 O 1.02123 0.91331 0.05488 0.0
C17 C 0.98777 0.07372 1.02471 0.0
O18 O 1.00416 0.9211 0.99222 0.0
H19 H 0.18357 0.99141 0.94316 0.0
H20 H 0.99673 0.98374 0.11816 0.0
H21 H 0.95993 1.00207 0.92977 0.0
O22 O 1.01078 0.04643 0.05642 0.0
O23 O 1.00867 0.0576 0.99574 0.0
H24 H 0.22125 0.9895 0.13374 0.0
O25 O 0.16359 0.06113 1.00819 0.0
O26 O 0.16479 0.06001 0.06915 0.0
O27 O 0.17307 0.92464 1.00764 0.0
O28 O 0.18225 0.92362 0.06976 0.0
C29 C 0.18249 0.08499 0.04137 0.0
H30 H 1.0127 1.00043 0.18747 0.0
H31 H 0.24216 1.00427 0.20316 0.0
H32 H 0.16574 0.01055 0.87376 0.0
H33 H 0.93776 0.02262 0.86069 0.0
C34 C 0.47148 0.40584 0.5508 0.0
N35 N 0.59458 0.49995 0.65167 0.0
C36 C 0.5772 0.45417 0.67244 0.0
C37 C 0.5798 0.46183 0.7115 0.0
C38 C 0.60163 0.51696 0.73006 0.0
C39 C 0.62045 0.56281 0.7078 0.0
C40 C 0.61551 0.55371 0.66879 0.0
Zn41 Zn 0.58708 0.49137 0.59255 0.0
C42 C 0.68776 0.39828 0.5779 0.0
N43 N 0.5706 0.4794 0.46863 0.0
C44 C 0.50545 0.47669 0.44204 0.0
C45 C 0.6314 0.48614 0.45687 0.0
C46 C 0.62808 0.4925 0.41775 0.0
C47 C 0.56162 0.49045 0.38936 0.0
C48 C 0.49982 0.48149 0.4024 0.0
Zn49 Zn 0.57848 0.48253 0.52833 0.0
O50 O 0.50104 0.42723 0.58415 0.0
C51 C 0.48165 0.57719 0.54787 0.0
O52 O 0.49544 0.42014 0.52251 0.0
H53 H 0.683 0.4884 0.47795 0.0
H54 H 0.56038 0.41166 0.65868 0.0
H55 H 0.45727 0.47187 0.45151 0.0
O56 O 0.51093 0.55774 0.58134 0.0
O57 O 0.49958 0.55547 0.51902 0.0
H58 H 0.62822 0.59027 0.65221 0.0
O59 O 0.65995 0.54403 0.53486 0.0
O60 O 0.67095 0.55708 0.59653 0.0
O61 O 0.6599 0.41157 0.54244 0.0
O62 O 0.66475 0.42399 0.60365 0.0
C63 C 0.6906 0.56904 0.56639 0.0
H64 H 0.56359 0.42495 0.72664 0.0
H65 H 0.63951 0.60575 0.7202 0.0
H66 H 0.67773 0.50063 0.41029 0.0
H67 H 0.44716 0.47828 0.38236 0.0
H68 H 0.17892 0.11939 0.49865 0.0
C69 C 0.18558 0.0734 0.50746 0.0
C70 C 0.18113 0.02847 0.47966 0.0
C71 C 0.20054 0.0596 0.54687 0.0
H72 H 0.19738 0.9355 0.47067 0.0
C73 C 0.19725 0.96981 0.49191 0.0
C74 C 0.22104 0.95586 0.53117 0.0
C75 C 0.21951 1.00032 0.55879 0.0
C76 C 0.20369 0.1093 0.57492 0.0
H77 H 0.237 0.98981 0.58918 0.0
C78 C 0.14287 0.12551 0.5872 0.0
C79 C 0.14053 0.17995 0.60686 0.0
C80 C 0.26444 0.14626 0.58492 0.0
H81 H 0.31137 0.13559 0.57529 0.0
C82 C 0.26442 0.19817 0.6065 0.0
H83 H 0.09698 0.09662 0.5803 0.0
C84 C 0.20286 0.21525 0.61709 0.0
H85 H 0.20307 0.25737 0.63193 0.0
H86 H 0.31149 0.22656 0.61381 0.0
H87 H 0.97678 0.10666 0.55471 0.0
C88 C 0.96781 0.06012 0.54961 0.0
C89 C 0.96697 0.02321 0.58106 0.0
C90 C 0.95947 0.0366 0.51214 0.0
H91 H 0.94297 0.93537 0.59758 0.0
C92 C 0.94709 0.96373 0.57387 0.0
C93 C 0.92898 0.94065 0.53653 0.0
C94 C 0.93877 0.97583 0.506 0.0
C95 C 0.97387 0.07494 0.48031 0.0
H96 H 0.92928 0.95574 0.47782 0.0
C97 C 1.02267 0.12335 0.48882 0.0
C98 C 1.03902 0.159 0.45992 0.0
C99 C 0.94147 0.06279 0.44116 0.0
H100 H 0.90249 0.02728 0.43257 0.0
C101 C 0.9586 0.09679 0.41219 0.0
H102 H 0.05135 0.13199 0.51808 0.0
C103 C 1.00739 0.14432 0.4214 0.0
H104 H 1.01942 0.17007 0.39851 0.0
H105 H 0.93349 0.08637 0.38232 0.0
H106 H 0.64674 0.58162 0.0351 0.0
C107 C 0.68264 0.54522 0.04347 0.0
C108 C 0.69708 0.5099 1.01389 0.0
C109 C 0.71615 0.53458 0.0832 0.0
H110 H 0.76195 0.43744 1.00299 0.0
C111 C 0.74643 0.46345 1.02477 0.0
C112 C 0.77987 0.45125 0.06337 0.0
C113 C 0.76383 0.4855 0.09251 0.0
C114 C 0.7067 0.57705 0.11445 0.0
H115 H 0.79023 0.47454 0.12213 0.0
C116 C 0.64419 0.61226 0.10996 0.0
C117 C 0.64059 0.65972 0.13552 0.0
C118 C 0.7629 0.58627 0.14815 0.0
H119 H 0.81274 0.56179 0.15331 0.0
C120 C 0.7573 0.62952 0.17525 0.0
H121 H 0.59976 0.60463 0.08532 0.0
C122 C 0.69735 0.66688 0.16863 0.0
H123 H 0.69659 0.70287 0.18859 0.0
H124 H 0.80145 0.6361 0.20068 0.0
H125 H 0.49156 0.62046 0.09163 0.0
C126 C 0.45478 0.58539 0.08052 0.0
C127 C 0.44034 0.5424 0.10592 0.0
C128 C 0.41932 0.58518 0.04084 0.0
H129 H 0.381 0.46299 0.11008 0.0
C130 C 0.39164 0.49696 0.09085 0.0
C131 C 0.35712 0.49389 0.05137 0.0
C132 C 0.37006 0.53852 1.0263 0.0
C133 C 0.43153 0.63616 1.01602 0.0
H134 H 0.3419 0.53712 0.996 0.0
C135 C 0.50093 0.64979 1.01283 0.0
C136 C 0.51707 0.70392 0.99589 0.0
C137 C 0.37562 0.67545 0.99906 0.0
H138 H 0.3217 0.66689 1.00115 0.0
C139 C 0.38937 0.72752 0.98062 0.0
H140 H 0.54186 0.61751 1.02396 0.0
C141 C 0.45929 0.74214 0.97946 0.0
H142 H 0.468 0.78434 0.9668 0.0
H143 H 0.34577 0.75796 0.96827 0.0
H144 H 0.27989 0.14699 1.01097 0.0
H145 H 0.12711 0.16825 0.07863 0.0
H146 H 0.14094 0.27736 0.07734 0.0
H147 H 0.39929 0.26273 0.06308 0.0
H148 H 0.42614 0.28783 1.02159 0.0
H149 H 0.39904 0.21137 1.02457 0.0
H150 H 0.30388 0.22374 0.95903 0.0
H151 H 0.32954 0.30084 0.9565 0.0
H152 H 0.2375 0.28202 0.95324 0.0
H153 H 0.16762 0.38321 0.06812 0.0
H154 H 0.22977 0.47919 0.06691 0.0
H155 H 0.37615 0.39287 1.01181 0.0
C156 C 0.25002 0.17482 1.02573 0.0
C157 C 0.20234 0.1491 0.04488 0.0
C158 C 0.16455 0.18683 0.06416 0.0
C159 C 0.17116 0.24901 0.06309 0.0
C160 C 0.21731 0.27318 0.04346 0.0
C161 C 0.25821 0.23749 1.02632 0.0
C162 C 0.31011 0.27545 1.01133 0.0
C163 C 0.38827 0.25834 1.03135 0.0
C164 C 0.29429 0.27017 0.96741 0.0
C165 C 0.2921 0.33769 1.02304 0.0
C166 C 0.23657 0.33513 0.04032 0.0
C167 C 0.21108 0.38595 0.05461 0.0
C168 C 0.24606 0.4404 0.05337 0.0
C169 C 0.30662 0.44355 0.0386 0.0
C170 C 0.32851 0.39195 1.02208 0.0
H171 H 0.25206 0.81701 0.09552 0.0
H172 H 0.31165 0.91718 1.00602 0.0
H173 H 0.4323 0.8711 1.02504 0.0
H174 H 0.42063 0.81906 0.16693 0.0
H175 H 0.41626 0.74264 0.18206 0.0
H176 H 0.33477 0.784 0.16226 0.0
H177 H 0.29074 0.702 0.11101 0.0
H178 H 0.37192 0.66024 0.1304 0.0
H179 H 0.34599 0.6807 0.08028 0.0
H180 H 0.55129 0.82475 0.05966 0.0
H181 H 0.65005 0.75855 0.09411 0.0
H182 H 0.51065 0.67605 0.15474 0.0
C183 C 0.29036 0.82866 0.07968 0.0
C184 C 0.27246 0.87098 0.04929 0.0
C185 C 0.32384 0.88471 1.02913 0.0
C186 C 0.39283 0.85927 0.04006 0.0
C187 C 0.40937 0.819 0.07073 0.0
C188 C 0.35896 0.80213 0.08945 0.0
C189 C 0.3894 0.75454 0.11964 0.0
C190 C 0.3903 0.7764 0.16012 0.0
C191 C 0.34702 0.69587 0.10973 0.0
C192 C 0.46526 0.74818 0.11549 0.0
C193 C 0.47576 0.78689 0.08762 0.0
C194 C 0.54237 0.79223 0.08009 0.0
C195 C 0.59784 0.75388 0.09927 0.0
C196 C 0.58567 0.70821 0.12379 0.0
C197 C 0.5203 0.70854 0.13448 0.0
H198 H 0.85572 0.89666 0.96518 0.0
H199 H 0.98101 0.80326 0.06643 0.0
H200 H 0.87705 0.73958 0.06574 0.0
H201 H 0.69611 0.90221 0.99362 0.0
H202 H 0.63471 0.88988 0.94693 0.0
H203 H 0.721 0.92346 0.95079 0.0
H204 H 0.75003 0.84109 0.90691 0.0
H205 H 0.66338 0.80761 0.90262 0.0
H206 H 0.74372 0.76356 0.91933 0.0
H207 H 0.76026 0.69772 0.06142 0.0
H208 H 0.63523 0.67386 0.05149 0.0
H209 H 0.57605 0.78381 0.95 0.0
C210 C 0.8616 0.8614 0.98635 0.0
C211 C 0.9271 0.85428 1.01565 0.0
C212 C 0.93195 0.80919 0.04365 0.0
C213 C 0.87307 0.77276 0.04345 0.0
C214 C 0.80902 0.78182 1.01509 0.0
C215 C 0.80238 0.8245 0.98678 0.0
C216 C 0.72465 0.82697 0.96176 0.0
C217 C 0.69222 0.88935 0.96338 0.0
C218 C 0.7202 0.80872 0.92018 0.0
C219 C 0.68879 0.78029 0.98134 0.0
C220 C 0.73954 0.75507 1.01174 0.0
C221 C 0.72077 0.71524 0.0366 0.0
C222 C 0.64872 0.70038 1.03027 0.0
C223 C 0.59419 0.72243 0.99906 0.0
C224 C 0.61523 0.764 0.97402 0.0
H225 H 0.88579 0.11115 0.06014 0.0
H226 H 1.02776 0.17241 0.99327 0.0
H227 H 1.00573 0.2768 1.0083 0.0
H228 H 0.75418 0.22944 1.02541 0.0
H229 H 0.73069 0.23483 0.07032 0.0
H230 H 0.76201 0.16495 0.05623 0.0
H231 H 0.86129 0.16294 0.12095 0.0
H232 H 0.83181 0.23415 0.13442 0.0
H233 H 0.92364 0.22439 0.13323 0.0
H234 H 0.97618 0.37286 0.03373 0.0
H235 H 0.90789 0.45865 0.0481 0.0
H236 H 0.77235 0.33834 0.09139 0.0
C237 C 0.91082 0.14678 0.04807 0.0
C238 C 0.95833 0.13399 1.02554 0.0
C239 C 0.99029 0.18142 1.01011 0.0
C240 C 0.97931 0.24077 1.01914 0.0
C241 C 0.93465 0.25193 0.04275 0.0
C242 C 0.89815 0.2067 0.05551 0.0
C243 C 0.84649 0.23197 0.07646 0.0
C244 C 0.76874 0.21428 0.05586 0.0
C245 C 0.86707 0.21216 0.11878 0.0
C246 C 0.85925 0.29845 0.073 0.0
C247 C 0.91276 0.3085 0.05493 0.0
C248 C 0.93394 0.36577 0.04773 0.0
C249 C 0.89561 0.41418 0.05646 0.0
C250 C 0.83564 0.40473 0.07109 0.0
C251 C 0.81918 0.3465 0.08113 0.0
H252 H 0.69213 0.68409 0.59051 0.0
H253 H 0.80395 0.55754 0.5367 0.0
H254 H 0.8765 0.63971 0.52054 0.0
H255 H 0.67454 0.79381 0.5199 0.0
H256 H 0.68613 0.85672 0.55219 0.0
H257 H 0.65015 0.78757 0.56452 0.0
H258 H 0.75029 0.78236 0.62881 0.0
H259 H 0.78518 0.85253 0.61727 0.0
H260 H 0.84294 0.78807 0.62824 0.0
H261 H 0.93239 0.73741 0.50735 0.0
H262 H 0.97278 0.84216 0.50299 0.0
H263 H 0.81532 0.90333 0.55999 0.0
C264 C 0.73399 0.67366 0.57677 0.0
C265 C 0.74437 0.61478 0.56577 0.0
C266 C 0.79692 0.6026 0.54609 0.0
C267 C 0.83775 0.64891 0.53651 0.0
C268 C 0.82424 0.7071 0.54627 0.0
C269 C 0.774 0.71953 0.56623 0.0
C270 C 0.76622 0.78601 0.57104 0.0
C271 C 0.68973 0.80723 0.5507 0.0
C272 C 0.78746 0.80325 0.61388 0.0
C273 C 0.82002 0.80892 0.55088 0.0
C274 C 0.85322 0.76299 0.5368 0.0
C275 C 0.90664 0.77385 0.51817 0.0
C276 C 0.92869 0.83326 0.51537 0.0
C277 C 0.89687 0.88033 0.53102 0.0
C278 C 0.84029 0.86791 0.54768 0.0
H279 H 0.74989 0.32501 0.53378 0.0
H280 H 0.77174 0.38198 0.65124 0.0
H281 H 0.88479 0.32597 0.67285 0.0
H282 H 0.82666 0.17362 0.56018 0.0
H283 H 0.87121 0.17275 0.52231 0.0
H284 H 0.78854 0.21337 0.51605 0.0
H285 H 0.84801 0.31586 0.50381 0.0
H286 H 0.92157 0.26852 0.50317 0.0
H287 H 0.93585 0.33288 0.53465 0.0
H288 H 1.00412 0.27189 0.68096 0.0
H289 H 0.11419 0.22122 0.67398 0.0
H290 H 1.01258 0.19722 0.55321 0.0
C291 C 0.77788 0.3249 0.5641 0.0
C292 C 0.75152 0.35824 0.59058 0.0
C293 C 0.79017 0.35679 0.63013 0.0
C294 C 0.85482 0.32502 0.64285 0.0
C295 C 0.88023 0.29378 0.61592 0.0
C296 C 0.84234 0.29268 0.57745 0.0
C297 C 0.88236 0.25713 0.55417 0.0
C298 C 0.83971 0.20085 0.53722 0.0
C299 C 0.89815 0.29599 0.52223 0.0
C300 C 0.95024 0.24114 0.58524 0.0
C301 C 0.94776 0.26188 0.62077 0.0
C302 C 1.00604 0.25463 0.65327 0.0
C303 C 0.06842 0.22581 0.64911 0.0
C304 C 0.07198 0.2041 0.61282 0.0
C305 C 1.01165 0.21215 0.58102 0.0
H306 H 0.41222 0.33419 0.4887 0.0
H307 H 0.37766 0.39961 0.59546 0.0
H308 H 0.25778 0.35213 0.57864 0.0
H309 H 0.22812 0.35172 0.43078 0.0
H310 H 0.22861 0.28459 0.40326 0.0
H311 H 0.31072 0.32566 0.42238 0.0
H312 H 0.37507 0.23201 0.46106 0.0
H313 H 0.29539 0.19357 0.43564 0.0
H314 H 0.32593 0.18871 0.48763 0.0
H315 H 0.1366 0.31013 0.54586 0.0
H316 H 1.03577 0.24828 0.51009 0.0
H317 H 0.15552 0.19223 0.43159 0.0
C318 C 0.37968 0.33806 0.50873 0.0
C319 C 0.40429 0.37065 0.54343 0.0
C320 C 0.36019 0.3746 0.56887 0.0
C321 C 0.29168 0.34849 0.55931 0.0
C322 C 0.26845 0.31812 0.52441 0.0
C323 C 0.31165 0.31141 0.49997 0.0
C324 C 0.27505 0.27364 0.46525 0.0
C325 C 0.25974 0.31116 0.42824 0.0
C326 C 0.32051 0.21855 0.46237 0.0
C327 C 0.20566 0.25741 0.47499 0.0
C328 C 0.202 0.28644 0.50825 0.0
C329 C 0.14082 0.28434 0.5212 0.0
C330 C 0.08431 0.24786 0.50148 0.0
C331 C 0.09047 0.21024 0.47119 0.0
C332 C 0.15026 0.21816 0.45596 0.0
H333 H 0.46772 0.68148 0.50589 0.0
H334 H 0.37755 0.58165 0.5846 0.0
H335 H 0.30133 0.66785 0.59008 0.0
H336 H 0.48015 0.81842 0.5553 0.0
H337 H 0.45719 0.86486 0.51296 0.0
H338 H 0.49928 0.79342 0.51166 0.0
H339 H 0.39446 0.76062 0.45386 0.0
H340 H 0.35278 0.83247 0.45445 0.0
H341 H 0.30353 0.76506 0.45756 0.0
H342 H 0.24018 0.76778 0.59041 0.0
H343 H 0.19224 0.87144 0.58073 0.0
H344 H 0.32603 0.90649 0.50427 0.0
C345 C 0.43016 0.67732 0.5232 0.0
C346 C 0.42746 0.62476 0.54431 0.0
C347 C 0.37963 0.6215 0.56786 0.0
C348 C 0.33641 0.67027 0.57132 0.0
C349 C 0.34201 0.72235 0.55129 0.0
C350 C 0.38714 0.72607 0.52739 0.0
C351 C 0.38554 0.78821 0.51059 0.0
C352 C 0.45996 0.81796 0.5234 0.0
C353 C 0.35738 0.78647 0.4665 0.0
C354 C 0.3326 0.81851 0.5287 0.0
C355 C 0.30806 0.77999 0.55216 0.0
C356 C 0.25876 0.79837 0.57194 0.0
C357 C 0.23228 0.85728 0.56663 0.0
C358 C 0.25515 0.89662 0.54169 0.0
C359 C 0.30712 0.87708 0.52329 0.0
H360 H 0.05745 0.96272 0.25349 0.0
H361 H 0.22678 0.08415 0.24355 0.0
H362 H 0.25072 0.1092 0.31218 0.0
H363 H 0.99353 0.05504 0.32284 0.0
H364 H 0.97548 0.99083 0.34893 0.0
H365 H 0.96814 0.98495 0.29823 0.0
H366 H 0.05798 0.8964 0.31187 0.0
H367 H 0.06539 0.90241 0.3625 0.0
H368 H 0.14482 0.90633 0.3456 0.0
H369 H 0.26428 0.1148 0.38278 0.0
H370 H 0.26495 0.10034 0.45094 0.0
H371 H 0.08312 0.98144 0.41603 0.0
C372 C 0.09883 0.99526 0.26557 0.0
C373 C 0.14066 0.02088 0.24286 0.0
C374 C 0.19489 0.06276 0.26021 0.0
C375 C 0.20847 0.07786 0.29921 0.0
C376 C 0.16701 0.05135 0.32078 0.0
C377 C 0.11304 0.01112 0.30465 0.0
C378 C 0.07857 0.98733 0.3349 0.0
C379 C 0.99921 1.00564 0.32566 0.0
C380 C 0.08724 0.91908 0.33895 0.0
C381 C 0.12279 0.01937 0.37058 0.0
C382 C 0.17309 0.05648 0.36162 0.0
C383 C 0.22362 0.08745 0.38998 0.0
C384 C 0.22313 0.07994 0.42848 0.0
C385 C 0.17217 0.04265 0.43844 0.0
C386 C 0.12117 0.01198 0.40902 0.0
H387 H 0.10602 0.96603 0.8065 0.0
H388 H 0.96468 0.10863 0.82185 0.0
H389 H 0.93919 0.13393 0.75282 0.0
H390 H 0.17674 0.04126 0.73316 0.0
H391 H 0.17718 0.9732 0.7065 0.0
H392 H 0.19012 0.97034 0.75781 0.0
H393 H 0.08342 0.89647 0.7484 0.0
H394 H 0.07068 0.89887 0.69721 0.0
H395 H 0.99725 0.91689 0.71709 0.0
H396 H 0.92308 0.13977 0.68019 0.0
H397 H 0.91042 0.11885 0.61121 0.0
H398 H 0.06145 0.9728 0.64328 0.0
C399 C 0.07076 1.00329 0.79548 0.0
C400 C 1.03759 0.03543 0.81981 0.0
C401 C 0.99047 0.08304 0.80388 0.0
C402 C 0.97608 0.0981 0.76469 0.0
C403 C 1.00904 0.06517 0.74141 0.0
C404 C 0.0552 0.01853 0.75625 0.0
C405 C 0.0792 0.98706 0.72462 0.0
C406 C 0.16065 0.99336 0.73091 0.0
C407 C 0.05624 0.92093 0.72166 0.0
C408 C 1.03825 0.02231 0.68965 0.0
C409 C 0.99894 0.06791 0.69986 0.0
C410 C 0.95421 0.10445 0.67202 0.0
C411 C 0.94769 0.09269 0.63284 0.0
C412 C 0.98513 0.04454 0.62181 0.0
C413 C 1.03247 0.01024 0.65083 0.0
H414 H 0.62427 0.43399 0.79013 0.0
H415 H 0.58469 0.62335 0.76625 0.0
H416 H 0.59855 0.64171 0.83486 0.0
H417 H 0.52192 0.4269 0.86268 0.0
H418 H 0.58228 0.37309 0.89163 0.0
H419 H 0.56887 0.37452 0.84028 0.0
H420 H 0.70589 0.38632 0.85033 0.0
H421 H 0.71964 0.38516 0.90164 0.0
H422 H 0.75253 0.44713 0.87937 0.0
H423 H 0.62876 0.64113 0.90822 0.0
H424 H 0.66469 0.61947 0.97766 0.0
H425 H 0.66389 0.42972 0.95274 0.0
C426 C 0.61701 0.4793 0.79883 0.0
C427 C 0.60477 0.52714 0.77192 0.0
C428 C 0.59667 0.58567 0.78568 0.0
C429 C 0.60354 0.59671 0.82487 0.0
C430 C 0.61669 0.54875 0.8504 0.0
C431 C 0.62199 0.49104 0.8378 0.0
C432 C 0.636 0.44732 0.87118 0.0
C433 C 0.57354 0.40283 0.86613 0.0
C434 C 0.70777 0.41457 0.8759 0.0
C435 C 0.6395 0.48963 0.90457 0.0
C436 C 0.62864 0.54803 0.89209 0.0
C437 C 0.63545 0.59528 0.91813 0.0
C438 C 0.655 0.58252 0.95782 0.0
C439 C 0.66657 0.52295 0.97155 0.0
C440 C 0.65645 0.47605 0.94396 0.0
H441 H 0.44734 0.53205 0.32901 0.0
H442 H 0.66559 0.46464 0.35155 0.0
H443 H 0.66194 0.48087 0.28395 0.0
H444 H 0.38436 0.45714 0.23798 0.0
H445 H 0.32404 0.51645 0.21615 0.0
H446 H 0.34577 0.50487 0.26734 0.0
H447 H 0.38776 0.61508 0.27826 0.0
H448 H 0.36707 0.62667 0.22704 0.0
H449 H 0.45597 0.64233 0.25698 0.0
H450 H 0.63501 0.50371 0.21234 0.0
H451 H 0.58066 0.5186 0.1425 0.0
H452 H 0.37758 0.56206 0.16465 0.0
C453 C 0.49456 0.52013 0.3201 0.0
C454 C 0.55747 0.49811 0.34699 0.0
C455 C 0.61736 0.48367 0.33286 0.0
C456 C 0.61579 0.49231 0.29403 0.0
C457 C 0.55353 0.51462 0.26875 0.0
C458 C 0.49352 0.52736 0.2811 0.0
C459 C 0.43163 0.54688 0.24742 0.0
C460 C 0.36768 0.50376 0.2419 0.0
C461 C 0.4093 0.61158 0.25277 0.0
C462 C 0.46599 0.54245 0.21427 0.0
C463 C 0.53688 0.52497 0.2273 0.0
C464 C 0.5796 0.51763 0.20196 0.0
C465 C 0.54864 0.52687 0.16233 0.0
C466 C 0.47556 0.54294 0.1482 0.0
C467 C 0.43403 0.55103 0.17471 0.0
loop_
_geom_bond_atom_site_label_1
_geom_bond_atom_site_label_2
_geom_bond_distance
_geom_bond_site_symmetry_2
_ccdc_geom_bond_type
C0 O16 1.251 . S
C0 O18 1.254 1_554 S
N1 C2 1.333 1_545 S
N1 C6 1.307 . S
N1 Zn7 2.020 . S
C2 N1 1.333 1_565 S
C2 C3 1.379 . S
C2 H20 0.952 1_455 S
C3 C2 1.379 . S
C3 C4 1.390 1_565 S
C3 H30 0.949 1_455 S
C4 C3 1.390 1_545 S
C4 C5 1.357 . S
C5 C4 1.357 . S
C5 C6 1.370 . S
C5 H31 0.950 . S
C6 N1 1.307 . S
C6 C5 1.370 . S
C6 H24 0.948 . S
Zn7 N1 2.020 . S
Zn7 O16 2.039 1_445 S
Zn7 O22 2.034 1_455 S
Zn7 O26 2.025 . S
Zn7 O28 2.024 1_545 S
C8 O27 1.246 1_554 S
C8 O28 1.249 . S
N9 C10 1.307 1_445 S
N9 C11 1.333 . S
N9 Zn15 2.020 . S
C10 N9 1.307 1_665 S
C10 C14 1.370 . S
C10 H21 0.948 . S
C11 N9 1.333 . S
C11 C12 1.379 . S
C11 H19 0.952 . S
C12 C11 1.379 . S
C12 C13 1.390 1_455 S
C12 H32 0.949 . S
C13 C12 1.390 1_655 S
C13 C14 1.357 1_545 S
C14 C10 1.370 . S
C14 C13 1.357 1_565 S
C14 H33 0.950 . S
Zn15 N9 2.020 . S
Zn15 O18 2.025 1_445 S
Zn15 O23 2.024 1_455 S
Zn15 O25 2.039 . S
Zn15 O27 2.034 1_545 S
O16 C0 1.251 . S
O16 Zn7 2.039 1_665 S
C17 O22 1.246 . S
C17 O23 1.249 1_554 S
O18 C0 1.254 1_556 S
O18 Zn15 2.025 1_665 S
H19 C11 0.952 . S
H20 C2 0.952 1_655 S
H21 C10 0.948 . S
O22 Zn7 2.034 1_655 S
O22 C17 1.246 . S
O23 Zn15 2.024 1_655 S
O23 C17 1.249 1_556 S
H24 C6 0.948 . S
O25 Zn15 2.039 . S
O25 C29 1.251 1_556 S
O26 Zn7 2.025 . S
O26 C29 1.254 . S
O27 C8 1.246 1_556 S
O27 Zn15 2.034 1_565 S
O28 Zn7 2.024 1_565 S
O28 C8 1.249 . S
C29 O25 1.251 1_554 S
C29 O26 1.254 . S
H30 C3 0.949 1_655 S
H31 C5 0.950 . S
H32 C12 0.949 . S
H33 C14 0.950 . S
C34 O50 1.251 . S
C34 O52 1.254 . S
N35 C36 1.333 . S
N35 C40 1.307 . S
N35 Zn41 2.020 . S
C36 N35 1.333 . S
C36 C37 1.379 . S
C36 H54 0.952 . S
C37 C36 1.379 . S
C37 C38 1.390 . S
C37 H64 0.949 . S
C38 C37 1.390 . S
C38 C39 1.357 . S
C39 C38 1.357 . S
C39 C40 1.370 . S
C39 H65 0.950 . S
C40 N35 1.307 . S
C40 C39 1.370 . S
C40 H58 0.948 . S
Zn41 N35 2.020 . S
Zn41 O50 2.039 . S
Zn41 O56 2.034 . S
Zn41 O60 2.025 . S
Zn41 O62 2.024 . S
C42 O61 1.246 . S
C42 O62 1.249 . S
N43 C44 1.307 . S
N43 C45 1.333 . S
N43 Zn49 2.020 . S
C44 N43 1.307 . S
C44 C48 1.370 . S
C44 H55 0.948 . S
C45 N43 1.333 . S
C45 C46 1.379 . S
C45 H53 0.952 . S
C46 C45 1.379 . S
C46 C47 1.390 . S
C46 H66 0.949 . S
C47 C46 1.390 . S
C47 C48 1.357 . S
C48 C44 1.370 . S
C48 C47 1.357 . S
C48 H67 0.950 . S
Zn49 N43 2.020 . S
Zn49 O52 2.025 . S
Zn49 O57 2.024 . S
Zn49 O59 2.039 . S
Zn49 O61 2.034 . S
O50 C34 1.251 . S
O50 Zn41 2.039 . S
C51 O56 1.246 . S
C51 O57 1.249 . S
O52 C34 1.254 . S
O52 Zn49 2.025 . S
H53 C45 0.952 . S
H54 C36 0.952 . S
H55 C44 0.948 . S
O56 Zn41 2.034 . S
O56 C51 1.246 . S
O57 Zn49 2.024 . S
O57 C51 1.249 . S
H58 C40 0.948 . S
O59 Zn49 2.039 . S
O59 C63 1.251 . S
O60 Zn41 2.025 . S
O60 C63 1.254 . S
O61 C42 1.246 . S
O61 Zn49 2.034 . S
O62 Zn41 2.024 . S
O62 C42 1.249 . S
C63 O59 1.251 . S
C63 O60 1.254 . S
H64 C37 0.949 . S
H65 C39 0.950 . S
H66 C46 0.949 . S
H67 C48 0.950 . S
H68 C69 0.949 . S
C69 H68 0.949 . S
C69 C70 1.395 . S
C69 C71 1.391 . S
C70 C69 1.395 . S
C70 C73 1.390 1_545 S
C71 C69 1.391 . S
C71 C75 1.387 1_545 S
C71 C76 1.491 . S
H72 C73 0.950 . S
C73 C70 1.390 1_565 S
C73 H72 0.950 . S
C73 C74 1.378 . S
C74 C73 1.378 . S
C74 C75 1.409 . S
C75 C71 1.387 1_565 S
C75 C74 1.409 . S
C75 H77 0.951 . S
C76 C71 1.491 . S
C76 C78 1.382 1_455 S
C76 C80 1.404 . S
H77 C75 0.951 . S
C78 C76 1.382 1_655 S
C78 C79 1.390 . S
C78 H83 0.949 . S
C79 C78 1.390 . S
C79 C84 1.399 1_655 S
C80 C76 1.404 . S
C80 H81 0.950 . S
C80 C82 1.375 . S
H81 C80 0.950 . S
C82 C80 1.375 . S
C82 C84 1.382 . S
C82 H86 0.950 . S
H83 C78 0.949 . S
C84 C79 1.399 1_455 S
C84 C82 1.382 . S
C84 H85 0.952 . S
H85 C84 0.952 . S
H86 C82 0.950 . S
H87 C88 0.944 1_455 S
C88 H87 0.944 1_655 S
C88 C89 1.400 . S
C88 C90 1.391 . S
C89 C88 1.400 . S
C89 C92 1.390 1_545 S
C90 C88 1.391 . S
C90 C94 1.387 1_545 S
C90 C95 1.491 1_655 S
H91 C92 0.950 . S
C92 C89 1.390 1_565 S
C92 H91 0.950 . S
C92 C93 1.378 . S
C93 C92 1.378 . S
C93 C94 1.409 . S
C94 C90 1.387 1_565 S
C94 C93 1.409 . S
C94 H96 0.951 . S
C95 C90 1.491 1_455 S
C95 C97 1.382 . S
C95 C99 1.404 1_455 S
H96 C94 0.951 . S
C97 C95 1.382 . S
C97 C98 1.390 . S
C97 H102 0.949 . S
C98 C97 1.390 . S
C98 C103 1.399 . S
C99 C95 1.404 1_655 S
C99 H100 0.950 . S
C99 C101 1.375 . S
H100 C99 0.950 . S
C101 C99 1.375 . S
C101 C103 1.382 1_655 S
C101 H105 0.950 . S
H102 C97 0.949 . S
C103 C98 1.399 . S
C103 C101 1.382 1_455 S
C103 H104 0.952 . S
H104 C103 0.952 . S
H105 C101 0.950 . S
H106 C107 0.949 . S
C107 H106 0.949 . S
C107 C108 1.395 . S
C107 C109 1.391 . S
C108 C107 1.395 . S
C108 C111 1.390 . S
C109 C107 1.391 . S
C109 C113 1.387 1_556 S
C109 C114 1.491 1_556 S
H110 C111 0.950 . S
C111 C108 1.390 . S
C111 H110 0.950 . S
C111 C112 1.378 . S
C112 C111 1.378 . S
C112 C113 1.409 1_556 S
C113 C109 1.387 1_554 S
C113 C112 1.409 1_554 S
C113 H115 0.951 . S
C114 C109 1.491 1_554 S
C114 C116 1.382 . S
C114 C118 1.404 . S
H115 C113 0.951 . S
C116 C114 1.382 . S
C116 C117 1.390 . S
C116 H121 0.949 1_554 S
C117 C116 1.390 . S
C117 C122 1.399 . S
C118 C114 1.404 . S
C118 H119 0.950 . S
C118 C120 1.375 . S
H119 C118 0.950 . S
C120 C118 1.375 . S
C120 C122 1.382 . S
C120 H124 0.950 . S
H121 C116 0.949 1_556 S
C122 C117 1.399 . S
C122 C120 1.382 . S
C122 H123 0.952 . S
H123 C122 0.952 . S
H124 C120 0.950 . S
H125 C126 0.949 . S
C126 H125 0.949 . S
C126 C127 1.395 . S
C126 C128 1.391 . S
C127 C126 1.395 . S
C127 C130 1.390 . S
C128 C126 1.391 . S
C128 C132 1.387 . S
C128 C133 1.491 . S
H129 C130 0.950 . S
C130 C127 1.390 . S
C130 H129 0.950 . S
C130 C131 1.378 . S
C131 C130 1.378 . S
C131 C132 1.409 . S
C132 C128 1.387 . S
C132 C131 1.409 . S
C132 H134 0.951 1_554 S
C133 C128 1.491 . S
C133 C135 1.382 . S
C133 C137 1.404 1_554 S
H134 C132 0.951 1_556 S
C135 C133 1.382 . S
C135 C136 1.390 1_554 S
C135 H140 0.949 . S
C136 C135 1.390 1_556 S
C136 C141 1.399 . S
C137 C133 1.404 1_556 S
C137 H138 0.950 . S
C137 C139 1.375 . S
H138 C137 0.950 . S
C139 C137 1.375 . S
C139 C141 1.382 . S
C139 H143 0.950 . S
H140 C135 0.949 . S
C141 C136 1.399 . S
C141 C139 1.382 . S
C141 H142 0.952 . S
H142 C141 0.952 . S
H143 C139 0.950 . S
H144 C156 0.930 1_556 S
H145 C158 0.930 . S
H146 C159 0.930 . S
H147 C163 0.959 1_554 S
H148 C163 0.959 . S
H149 C163 0.961 . S
H150 C164 0.960 . S
H151 C164 0.961 . S
H152 C164 0.959 . S
H153 C167 0.929 . S
H154 C168 0.931 . S
H155 C170 0.930 1_556 S
C156 H144 0.930 1_554 S
C156 C157 1.399 . S
C156 C161 1.399 . S
C157 C156 1.399 . S
C157 C158 1.376 . S
C158 H145 0.930 . S
C158 C157 1.376 . S
C158 C159 1.388 . S
C159 H146 0.930 . S
C159 C158 1.388 . S
C159 C160 1.390 . S
C160 C159 1.390 . S
C160 C161 1.394 . S
C160 C166 1.465 . S
C161 C156 1.399 . S
C161 C160 1.394 . S
C161 C162 1.516 1_554 S
C162 C161 1.516 1_556 S
C162 C163 1.502 . S
C162 C164 1.561 . S
C162 C165 1.526 1_556 S
C163 H147 0.959 1_556 S
C163 H148 0.959 . S
C163 H149 0.961 . S
C163 C162 1.502 . S
C164 H150 0.960 . S
C164 H151 0.961 . S
C164 H152 0.959 . S
C164 C162 1.561 . S
C165 C162 1.526 1_554 S
C165 C166 1.396 . S
C165 C170 1.390 . S
C166 C160 1.465 . S
C166 C165 1.396 . S
C166 C167 1.399 . S
C167 H153 0.929 . S
C167 C166 1.399 . S
C167 C168 1.385 . S
C168 H154 0.931 . S
C168 C167 1.385 . S
C168 C169 1.389 . S
C169 C168 1.389 . S
C169 C170 1.387 . S
C170 H155 0.930 1_554 S
C170 C165 1.390 . S
C170 C169 1.387 . S
H171 C183 0.930 . S
H172 C185 0.930 . S
H173 C186 0.930 . S
H174 C190 0.959 . S
H175 C190 0.959 . S
H176 C190 0.961 . S
H177 C191 0.960 . S
H178 C191 0.961 . S
H179 C191 0.959 . S
H180 C194 0.929 . S
H181 C195 0.931 . S
H182 C197 0.930 . S
C183 H171 0.930 . S
C183 C184 1.399 . S
C183 C188 1.399 . S
C184 C183 1.399 . S
C184 C185 1.376 1_554 S
C185 H172 0.930 . S
C185 C184 1.376 1_556 S
C185 C186 1.388 . S
C186 H173 0.930 . S
C186 C185 1.388 . S
C186 C187 1.390 1_556 S
C187 C186 1.390 1_554 S
C187 C188 1.394 . S
C187 C193 1.465 . S
C188 C183 1.399 . S
C188 C187 1.394 . S
C188 C189 1.516 . S
C189 C188 1.516 . S
C189 C190 1.502 . S
C189 C191 1.561 . S
C189 C192 1.526 . S
C190 H174 0.959 . S
C190 H175 0.959 . S
C190 H176 0.961 . S
C190 C189 1.502 . S
C191 H177 0.960 . S
C191 H178 0.961 . S
C191 H179 0.959 . S
C191 C189 1.561 . S
C192 C189 1.526 . S
C192 C193 1.396 . S
C192 C197 1.390 . S
C193 C187 1.465 . S
C193 C192 1.396 . S
C193 C194 1.399 1_554 S
C194 H180 0.929 . S
C194 C193 1.399 1_556 S
C194 C195 1.385 . S
C195 H181 0.931 . S
C195 C194 1.385 . S
C195 C196 1.389 1_556 S
C196 C195 1.389 1_554 S
C196 C197 1.387 . S
C197 H182 0.930 . S
C197 C192 1.390 . S
C197 C196 1.387 . S
H198 C210 0.930 . S
H199 C212 0.930 . S
H200 C213 0.930 . S
H201 C217 0.959 . S
H202 C217 0.959 . S
H203 C217 0.961 . S
H204 C218 0.960 . S
H205 C218 0.961 . S
H206 C218 0.959 . S
H207 C221 0.929 . S
H208 C222 0.931 . S
H209 C224 0.930 . S
C210 H198 0.930 . S
C210 C211 1.399 1_556 S
C210 C215 1.399 . S
C211 C210 1.399 1_554 S
C211 C212 1.376 . S
C212 H199 0.930 . S
C212 C211 1.376 . S
C212 C213 1.388 . S
C213 H200 0.930 . S
C213 C212 1.388 . S
C213 C214 1.390 . S
C214 C213 1.390 . S
C214 C215 1.394 1_554 S
C214 C220 1.465 . S
C215 C210 1.399 . S
C215 C214 1.394 1_556 S
C215 C216 1.516 . S
C216 C215 1.516 . S
C216 C217 1.502 . S
C216 C218 1.561 . S
C216 C219 1.526 . S
C217 H201 0.959 . S
C217 H202 0.959 . S
C217 H203 0.961 . S
C217 C216 1.502 . S
C218 H204 0.960 . S
C218 H205 0.961 . S
C218 H206 0.959 . S
C218 C216 1.561 . S
C219 C216 1.526 . S
C219 C220 1.396 1_556 S
C219 C224 1.390 . S
C220 C214 1.465 . S
C220 C219 1.396 1_554 S
C220 C221 1.399 . S
C221 H207 0.929 . S
C221 C220 1.399 . S
C221 C222 1.385 . S
C222 H208 0.931 . S
C222 C221 1.385 . S
C222 C223 1.389 . S
C223 C222 1.389 . S
C223 C224 1.387 1_554 S
C224 H209 0.930 . S
C224 C219 1.390 . S
C224 C223 1.387 1_556 S
H225 C237 0.930 . S
H226 C239 0.930 . S
H227 C240 0.930 . S
H228 C244 0.959 . S
H229 C244 0.959 . S
H230 C244 0.961 . S
H231 C245 0.960 . S
H232 C245 0.961 . S
H233 C245 0.959 . S
H234 C248 0.929 . S
H235 C249 0.931 . S
H236 C251 0.930 . S
C237 H225 0.930 . S
C237 C238 1.399 . S
C237 C242 1.399 . S
C238 C237 1.399 . S
C238 C239 1.376 1_554 S
C239 H226 0.930 . S
C239 C238 1.376 1_556 S
C239 C240 1.388 . S
C240 H227 0.930 . S
C240 C239 1.388 . S
C240 C241 1.390 . S
C241 C240 1.390 . S
C241 C242 1.394 1_556 S
C241 C247 1.465 . S
C242 C237 1.399 . S
C242 C241 1.394 1_554 S
C242 C243 1.516 . S
C243 C242 1.516 . S
C243 C244 1.502 . S
C243 C245 1.561 . S
C243 C246 1.526 . S
C244 H228 0.959 . S
C244 H229 0.959 . S
C244 H230 0.961 . S
C244 C243 1.502 . S
C245 H231 0.960 . S
C245 H232 0.961 . S
C245 H233 0.959 . S
C245 C243 1.561 . S
C246 C243 1.526 . S
C246 C247 1.396 1_554 S
C246 C251 1.390 . S
C247 C241 1.465 . S
C247 C246 1.396 1_556 S
C247 C248 1.399 . S
C248 H234 0.929 . S
C248 C247 1.399 . S
C248 C249 1.385 . S
C249 H235 0.931 . S
C249 C248 1.385 . S
C249 C250 1.389 . S
C250 C249 1.389 . S
C250 C251 1.387 1_556 S
C251 H236 0.930 . S
C251 C246 1.390 . S
C251 C250 1.387 1_554 S
H252 C264 0.930 . S
H253 C266 0.930 . S
H254 C267 0.930 . S
H255 C271 0.959 . S
H256 C271 0.959 . S
H257 C271 0.961 . S
H258 C272 0.960 . S
H259 C272 0.961 . S
H260 C272 0.959 . S
H261 C275 0.929 . S
H262 C276 0.931 . S
H263 C278 0.930 . S
C264 H252 0.930 . S
C264 C265 1.399 . S
C264 C269 1.399 . S
C265 C264 1.399 . S
C265 C266 1.376 . S
C266 H253 0.930 . S
C266 C265 1.376 . S
C266 C267 1.388 . S
C267 H254 0.930 . S
C267 C266 1.388 . S
C267 C268 1.390 . S
C268 C267 1.390 . S
C268 C269 1.394 . S
C268 C274 1.465 . S
C269 C264 1.399 . S
C269 C268 1.394 . S
C269 C270 1.516 . S
C270 C269 1.516 . S
C270 C271 1.502 . S
C270 C272 1.561 . S
C270 C273 1.526 . S
C271 H255 0.959 . S
C271 H256 0.959 . S
C271 H257 0.961 . S
C271 C270 1.502 . S
C272 H258 0.960 . S
C272 H259 0.961 . S
C272 H260 0.959 . S
C272 C270 1.561 . S
C273 C270 1.526 . S
C273 C274 1.396 . S
C273 C278 1.390 . S
C274 C268 1.465 . S
C274 C273 1.396 . S
C274 C275 1.399 . S
C275 H261 0.929 . S
C275 C274 1.399 . S
C275 C276 1.385 . S
C276 H262 0.931 . S
C276 C275 1.385 . S
C276 C277 1.389 . S
C277 C276 1.389 . S
C277 C278 1.387 . S
C278 H263 0.930 . S
C278 C273 1.390 . S
C278 C277 1.387 . S
H279 C291 0.930 . S
H280 C293 0.930 . S
H281 C294 0.930 . S
H282 C298 0.959 . S
H283 C298 0.959 . S
H284 C298 0.961 . S
H285 C299 0.960 . S
H286 C299 0.961 . S
H287 C299 0.959 . S
H288 C302 0.929 . S
H289 C303 0.931 . S
H290 C305 0.930 . S
C291 H279 0.930 . S
C291 C292 1.399 . S
C291 C296 1.399 . S
C292 C291 1.399 . S
C292 C293 1.376 . S
C293 H280 0.930 . S
C293 C292 1.376 . S
C293 C294 1.388 . S
C294 H281 0.930 . S
C294 C293 1.388 . S
C294 C295 1.390 . S
C295 C294 1.390 . S
C295 C296 1.394 . S
C295 C301 1.465 . S
C296 C291 1.399 . S
C296 C295 1.394 . S
C296 C297 1.516 . S
C297 C296 1.516 . S
C297 C298 1.502 . S
C297 C299 1.561 . S
C297 C300 1.526 . S
C298 H282 0.959 . S
C298 H283 0.959 . S
C298 H284 0.961 . S
C298 C297 1.502 . S
C299 H285 0.960 . S
C299 H286 0.961 . S
C299 H287 0.959 . S
C299 C297 1.561 . S
C300 C297 1.526 . S
C300 C301 1.396 . S
C300 C305 1.390 . S
C301 C295 1.465 . S
C301 C300 1.396 . S
C301 C302 1.399 . S
C302 H288 0.929 . S
C302 C301 1.399 . S
C302 C303 1.385 . S
C303 H289 0.931 . S
C303 C302 1.385 . S
C303 C304 1.389 . S
C304 C303 1.389 . S
C304 C305 1.387 . S
C305 H290 0.930 . S
C305 C300 1.390 . S
C305 C304 1.387 . S
H306 C318 0.930 . S
H307 C320 0.930 . S
H308 C321 0.930 . S
H309 C325 0.959 . S
H310 C325 0.959 . S
H311 C325 0.961 . S
H312 C326 0.960 . S
H313 C326 0.961 . S
H314 C326 0.959 . S
H315 C329 0.929 . S
H316 C330 0.931 . S
H317 C332 0.930 . S
C318 H306 0.930 . S
C318 C319 1.399 . S
C318 C323 1.399 . S
C319 C318 1.399 . S
C319 C320 1.376 . S
C320 H307 0.930 . S
C320 C319 1.376 . S
C320 C321 1.388 . S
C321 H308 0.930 . S
C321 C320 1.388 . S
C321 C322 1.390 . S
C322 C321 1.390 . S
C322 C323 1.394 . S
C322 C328 1.465 . S
C323 C318 1.399 . S
C323 C322 1.394 . S
C323 C324 1.516 . S
C324 C323 1.516 . S
C324 C325 1.502 . S
C324 C326 1.561 . S
C324 C327 1.526 . S
C325 H309 0.959 . S
C325 H310 0.959 . S
C325 H311 0.961 . S
C325 C324 1.502 . S
C326 H312 0.960 . S
C326 H313 0.961 . S
C326 H314 0.959 . S
C326 C324 1.561 . S
C327 C324 1.526 . S
C327 C328 1.396 . S
C327 C332 1.390 . S
C328 C322 1.465 . S
C328 C327 1.396 . S
C328 C329 1.399 . S
C329 H315 0.929 . S
C329 C328 1.399 . S
C329 C330 1.385 . S
C330 H316 0.931 . S
C330 C329 1.385 . S
C330 C331 1.389 . S
C331 C330 1.389 . S
C331 C332 1.387 . S
C332 H317 0.930 . S
C332 C327 1.390 . S
C332 C331 1.387 . S
H333 C345 0.930 . S
H334 C347 0.930 . S
H335 C348 0.930 . S
H336 C352 0.959 . S
H337 C352 0.959 . S
H338 C352 0.961 . S
H339 C353 0.960 . S
H340 C353 0.961 . S
H341 C353 0.959 . S
H342 C356 0.929 . S
H343 C357 0.931 . S
H344 C359 0.930 . S
C345 H333 0.930 . S
C345 C346 1.399 . S
C345 C350 1.399 . S
C346 C345 1.399 . S
C346 C347 1.376 . S
C347 H334 0.930 . S
C347 C346 1.376 . S
C347 C348 1.388 . S
C348 H335 0.930 . S
C348 C347 1.388 . S
C348 C349 1.390 . S
C349 C348 1.390 . S
C349 C350 1.394 . S
C349 C355 1.465 . S
C350 C345 1.399 . S
C350 C349 1.394 . S
C350 C351 1.516 . S
C351 C350 1.516 . S
C351 C352 1.502 . S
C351 C353 1.561 . S
C351 C354 1.526 . S
C352 H336 0.959 . S
C352 H337 0.959 . S
C352 H338 0.961 . S
C352 C351 1.502 . S
C353 H339 0.960 . S
C353 H340 0.961 . S
C353 H341 0.959 . S
C353 C351 1.561 . S
C354 C351 1.526 . S
C354 C355 1.396 . S
C354 C359 1.390 . S
C355 C349 1.465 . S
C355 C354 1.396 . S
C355 C356 1.399 . S
C356 H342 0.929 . S
C356 C355 1.399 . S
C356 C357 1.385 . S
C357 H343 0.931 . S
C357 C356 1.385 . S
C357 C358 1.389 . S
C358 C357 1.389 . S
C358 C359 1.387 . S
C359 H344 0.930 . S
C359 C354 1.390 . S
C359 C358 1.387 . S
H360 C372 0.930 . S
H361 C374 0.930 . S
H362 C375 0.930 . S
H363 C379 0.959 . S
H364 C379 0.959 . S
H365 C379 0.961 . S
H366 C380 0.960 . S
H367 C380 0.961 . S
H368 C380 0.959 . S
H369 C383 0.929 . S
H370 C384 0.931 . S
H371 C386 0.930 . S
C372 H360 0.930 . S
C372 C373 1.399 1_565 S
C372 C377 1.399 . S
C373 C372 1.399 1_545 S
C373 C374 1.376 . S
C374 H361 0.930 . S
C374 C373 1.376 . S
C374 C375 1.388 . S
C375 H362 0.930 . S
C375 C374 1.388 . S
C375 C376 1.390 . S
C376 C375 1.390 . S
C376 C377 1.394 1_545 S
C376 C382 1.465 . S
C377 C372 1.399 . S
C377 C376 1.394 1_565 S
C377 C378 1.516 . S
C378 C377 1.516 . S
C378 C379 1.502 1_455 S
C378 C380 1.561 . S
C378 C381 1.526 . S
C379 H363 0.959 . S
C379 H364 0.959 . S
C379 H365 0.961 . S
C379 C378 1.502 1_655 S
C380 H366 0.960 . S
C380 H367 0.961 . S
C380 H368 0.959 . S
C380 C378 1.561 . S
C381 C378 1.526 . S
C381 C382 1.396 1_565 S
C381 C386 1.390 . S
C382 C376 1.465 . S
C382 C381 1.396 1_545 S
C382 C383 1.399 . S
C383 H369 0.929 . S
C383 C382 1.399 . S
C383 C384 1.385 . S
C384 H370 0.931 . S
C384 C383 1.385 . S
C384 C385 1.389 . S
C385 C384 1.389 . S
C385 C386 1.387 1_545 S
C386 H371 0.930 . S
C386 C381 1.390 . S
C386 C385 1.387 1_565 S
H387 C399 0.930 1_455 S
H388 C401 0.930 . S
H389 C402 0.930 . S
H390 C406 0.959 . S
H391 C406 0.959 . S
H392 C406 0.961 . S
H393 C407 0.960 . S
H394 C407 0.961 . S
H395 C407 0.959 . S
H396 C410 0.929 . S
H397 C411 0.931 . S
H398 C413 0.930 1_455 S
C399 H387 0.930 1_655 S
C399 C400 1.399 1_565 S
C399 C404 1.399 . S
C400 C399 1.399 1_545 S
C400 C401 1.376 . S
C401 H388 0.930 . S
C401 C400 1.376 . S
C401 C402 1.388 . S
C402 H389 0.930 . S
C402 C401 1.388 . S
C402 C403 1.390 . S
C403 C402 1.390 . S
C403 C404 1.394 1_545 S
C403 C409 1.465 . S
C404 C399 1.399 . S
C404 C403 1.394 1_565 S
C404 C405 1.510 1_655 S
C405 C404 1.510 1_455 S
C405 C406 1.516 . S
C405 C407 1.551 1_455 S
C405 C408 1.527 1_455 S
C406 H390 0.959 . S
C406 H391 0.959 . S
C406 H392 0.961 . S
C406 C405 1.516 . S
C407 H393 0.960 . S
C407 H394 0.961 . S
C407 H395 0.959 . S
C407 C405 1.551 1_655 S
C408 C405 1.527 1_655 S
C408 C409 1.396 1_565 S
C408 C413 1.390 . S
C409 C403 1.465 . S
C409 C408 1.396 1_545 S
C409 C410 1.399 . S
C410 H396 0.929 . S
C410 C409 1.399 . S
C410 C411 1.385 . S
C411 H397 0.931 . S
C411 C410 1.385 . S
C411 C412 1.389 . S
C412 C411 1.389 . S
C412 C413 1.387 1_545 S
C413 H398 0.930 1_655 S
C413 C408 1.390 . S
C413 C412 1.387 1_565 S
H414 C426 0.930 . S
H415 C428 0.930 . S
H416 C429 0.930 . S
H417 C433 0.959 . S
H418 C433 0.959 . S
H419 C433 0.961 . S
H420 C434 0.960 . S
H421 C434 0.961 . S
H422 C434 0.959 . S
H423 C437 0.929 . S
H424 C438 0.931 . S
H425 C440 0.930 . S
C426 H414 0.930 . S
C426 C427 1.399 . S
C426 C431 1.399 . S
C427 C426 1.399 . S
C427 C428 1.376 . S
C428 H415 0.930 . S
C428 C427 1.376 . S
C428 C429 1.388 . S
C429 H416 0.930 . S
C429 C428 1.388 . S
C429 C430 1.390 . S
C430 C429 1.390 . S
C430 C431 1.394 . S
C430 C436 1.465 . S
C431 C426 1.399 . S
C431 C430 1.394 . S
C431 C432 1.516 . S
C432 C431 1.516 . S
C432 C433 1.502 . S
C432 C434 1.561 . S
C432 C435 1.526 . S
C433 H417 0.959 . S
C433 H418 0.959 . S
C433 H419 0.961 . S
C433 C432 1.502 . S
C434 H420 0.960 . S
C434 H421 0.961 . S
C434 H422 0.959 . S
C434 C432 1.561 . S
C435 C432 1.526 . S
C435 C436 1.396 . S
C435 C440 1.390 . S
C436 C430 1.465 . S
C436 C435 1.396 . S
C436 C437 1.399 . S
C437 H423 0.929 . S
C437 C436 1.399 . S
C437 C438 1.385 . S
C438 H424 0.931 . S
C438 C437 1.385 . S
C438 C439 1.389 . S
C439 C438 1.389 . S
C439 C440 1.387 . S
C440 H425 0.930 . S
C440 C435 1.390 . S
C440 C439 1.387 . S
H441 C453 0.930 . S
H442 C455 0.930 . S
H443 C456 0.930 . S
H444 C460 0.959 . S
H445 C460 0.959 . S
H446 C460 0.961 . S
H447 C461 0.960 . S
H448 C461 0.961 . S
H449 C461 0.959 . S
H450 C464 0.929 . S
H451 C465 0.931 . S
H452 C467 0.930 . S
C453 H441 0.930 . S
C453 C454 1.399 . S
C453 C458 1.399 . S
C454 C453 1.399 . S
C454 C455 1.376 . S
C455 H442 0.930 . S
C455 C454 1.376 . S
C455 C456 1.388 . S
C456 H443 0.930 . S
C456 C455 1.388 . S
C456 C457 1.390 . S
C457 C456 1.390 . S
C457 C458 1.394 . S
C457 C463 1.465 . S
C458 C453 1.399 . S
C458 C457 1.394 . S
C458 C459 1.516 . S
C459 C458 1.516 . S
C459 C460 1.502 . S
C459 C461 1.561 . S
C459 C462 1.526 . S
C460 H444 0.959 . S
C460 H445 0.959 . S
C460 H446 0.961 . S
C460 C459 1.502 . S
C461 H447 0.960 . S
C461 H448 0.961 . S
C461 H449 0.959 . S
C461 C459 1.561 . S
C462 C459 1.526 . S
C462 C463 1.396 . S
C462 C467 1.390 . S
C463 C457 1.465 . S
C463 C462 1.396 . S
C463 C464 1.399 . S
C464 H450 0.929 . S
C464 C463 1.399 . S
C464 C465 1.385 . S
C465 H451 0.931 . S
C465 C464 1.385 . S
C465 C466 1.389 . S
C466 C465 1.389 . S
C466 C467 1.387 . S
C467 H452 0.930 . S
C467 C462 1.390 . S
C467 C466 1.387 . S
C169 C131 1.509 . S
C157 C29 1.549 . S
C184 C8 1.415 . S
C196 C117 1.401 . S
C211 C0 1.424 . S
C223 C136 1.419 1_554 S
C238 C17 1.559 . S
C250 C112 1.507 . S
C265 C63 1.560 . S
C277 C93 1.544 . S
C292 C42 1.401 . S
C304 C79 1.363 . S
C331 C98 1.416 . S
C319 C34 1.421 . S
C358 C74 1.555 . S
C346 C51 1.559 . S
C373 C4 1.547 . S
C385 C70 1.541 . S
C400 C13 1.544 . S
C412 C89 1.533 . S
C439 C108 1.542 . S
C427 C38 1.546 . S
C454 C47 1.529 . S
C466 C127 1.515 . S
