# Generated by pormake.
# Topology wbl, (4,4)-cn, num edge types: 1
# Building blocks:
#     Node 0, Type 0, BuildingBlock: MUDLON_clean_linker_0, # of connection points: 4
#     Node 1, Type 0, BuildingBlock: MUDLON_clean_linker_0, # of connection points: 4
#     Node 2, Type 0, BuildingBlock: MUDLON_clean_linker_0, # of connection points: 4
#     Node 3, Type 0, BuildingBlock: MUDLON_clean_linker_0, # of connection points: 4
#     Node 4, Type 0, BuildingBlock: MUDLON_clean_linker_0, # of connection points: 4
#     Node 5, Type 0, BuildingBlock: MUDLON_clean_linker_0, # of connection points: 4
#     Node 6, Type 0, BuildingBlock: MUDLON_clean_linker_0, # of connection points: 4
#     Node 7, Type 0, BuildingBlock: MUDLON_clean_linker_0, # of connection points: 4
#     Node 8, Type 1, BuildingBlock: GALJAG_clean_sbu_0, # of connection points: 4
#     Node 9, Type 1, BuildingBlock: GALJAG_clean_sbu_0, # of connection points: 4
#     Node 10, Type 1, BuildingBlock: GALJAG_clean_sbu_0, # of connection points: 4
#     Node 11, Type 1, BuildingBlock: GALJAG_clean_sbu_0, # of connection points: 4
#     Node 12, Type 1, BuildingBlock: GALJAG_clean_sbu_0, # of connection points: 4
#     Node 13, Type 1, BuildingBlock: GALJAG_clean_sbu_0, # of connection points: 4
#     Node 14, Type 1, BuildingBlock: GALJAG_clean_sbu_0, # of connection points: 4
#     Node 15, Type 1, BuildingBlock: GALJAG_clean_sbu_0, # of connection points: 4
#     Edge 16, Type (0, 1), BuildingBlock: OJICUG_clean_linker_0, # of connection points: 2
#     Edge 17, Type (0, 1), BuildingBlock: OJICUG_clean_linker_0, # of connection points: 2
#     Edge 18, Type (0, 1), BuildingBlock: OJICUG_clean_linker_0, # of connection points: 2
#     Edge 19, Type (0, 1), BuildingBlock: OJICUG_clean_linker_0, # of connection points: 2
#     Edge 20, Type (0, 1), BuildingBlock: OJICUG_clean_linker_0, # of connection points: 2
#     Edge 21, Type (0, 1), BuildingBlock: OJICUG_clean_linker_0, # of connection points: 2
#     Edge 22, Type (0, 1), BuildingBlock: OJICUG_clean_linker_0, # of connection points: 2
#     Edge 23, Type (0, 1), BuildingBlock: OJICUG_clean_linker_0, # of connection points: 2
#     Edge 24, Type (0, 1), BuildingBlock: OJICUG_clean_linker_0, # of connection points: 2
#     Edge 25, Type (0, 1), BuildingBlock: OJICUG_clean_linker_0, # of connection points: 2
#     Edge 26, Type (0, 1), BuildingBlock: OJICUG_clean_linker_0, # of connection points: 2
#     Edge 27, Type (0, 1), BuildingBlock: OJICUG_clean_linker_0, # of connection points: 2
#     Edge 28, Type (0, 1), BuildingBlock: OJICUG_clean_linker_0, # of connection points: 2
#     Edge 29, Type (0, 1), BuildingBlock: OJICUG_clean_linker_0, # of connection points: 2
#     Edge 30, Type (0, 1), BuildingBlock: OJICUG_clean_linker_0, # of connection points: 2
#     Edge 31, Type (0, 1), BuildingBlock: OJICUG_clean_linker_0, # of connection points: 2
#     Edge 32, Type (0, 1), BuildingBlock: OJICUG_clean_linker_0, # of connection points: 2
#     Edge 33, Type (0, 1), BuildingBlock: OJICUG_clean_linker_0, # of connection points: 2
#     Edge 34, Type (0, 1), BuildingBlock: OJICUG_clean_linker_0, # of connection points: 2
#     Edge 35, Type (0, 1), BuildingBlock: OJICUG_clean_linker_0, # of connection points: 2
#     Edge 36, Type (0, 1), BuildingBlock: OJICUG_clean_linker_0, # of connection points: 2
#     Edge 37, Type (0, 1), BuildingBlock: OJICUG_clean_linker_0, # of connection points: 2
#     Edge 38, Type (0, 1), BuildingBlock: OJICUG_clean_linker_0, # of connection points: 2
#     Edge 39, Type (0, 1), BuildingBlock: OJICUG_clean_linker_0, # of connection points: 2
#     Edge 40, Type (0, 1), BuildingBlock: OJICUG_clean_linker_0, # of connection points: 2
#     Edge 41, Type (0, 1), BuildingBlock: OJICUG_clean_linker_0, # of connection points: 2
#     Edge 42, Type (0, 1), BuildingBlock: OJICUG_clean_linker_0, # of connection points: 2
#     Edge 43, Type (0, 1), BuildingBlock: OJICUG_clean_linker_0, # of connection points: 2
#     Edge 44, Type (0, 1), BuildingBlock: OJICUG_clean_linker_0, # of connection points: 2
#     Edge 45, Type (0, 1), BuildingBlock: OJICUG_clean_linker_0, # of connection points: 2
#     Edge 46, Type (0, 1), BuildingBlock: OJICUG_clean_linker_0, # of connection points: 2
#     Edge 47, Type (0, 1), BuildingBlock: OJICUG_clean_linker_0, # of connection points: 2
# Relax obj value: 0.114
# Max RMSD: 0.157
# Mean RMSD: 0.142
data_MOF--net-wbl--node1-GALJAG_clean_sbu_0--node2-MUDLON_clean_linker_0--edge1-OJICUG_clean_linker_0
_symmetry_space_group_name_H-M    P1
_symmetry_Int_Tables_number       1
_symmetry_cell_setting            triclinic
loop_
_symmetry_equiv_pos_as_xyz
'x, y, z'
_cell_length_a     42.089075
_cell_length_b     42.201904
_cell_length_c     67.944244
_cell_angle_alpha  89.99226
_cell_angle_beta   90.018584
_cell_angle_gamma 89.956386
loop_
_atom_site_label
_atom_site_type_symbol
_atom_site_fract_x
_atom_site_fract_y
_atom_site_fract_z
_atom_type_partial_charge
H0 H 0.12914 0.92434 0.34841 0.0
N1 N 0.07311 0.91195 0.32897 0.0
H2 H 0.14366 0.90653 0.38126 0.0
H3 H 0.03691 0.8809 0.35471 0.0
H4 H 0.05126 0.86375 0.38818 0.0
H5 H 0.0784 0.85741 0.30979 0.0
H6 H 0.12235 0.83988 0.2889 0.0
H7 H 0.12198 0.94939 0.31522 0.0
H8 H 0.16637 0.93185 0.29533 0.0
H9 H 0.09284 0.97037 0.34186 0.0
H10 H 0.01655 0.9212 0.31262 0.0
H11 H 0.06268 0.01951 0.3405 0.0
H12 H 0.98529 0.97013 0.31204 0.0
H13 H 0.94678 0.16543 0.35217 0.0
H14 H 0.92638 0.1779 0.38507 0.0
H15 H 0.89074 0.08228 0.39037 0.0
H16 H 0.91163 0.06993 0.35772 0.0
H17 H 0.89171 0.07149 0.32524 0.0
H18 H 0.84453 0.08475 0.306 0.0
H19 H 0.8868 0.17445 0.29013 0.0
H20 H 0.93379 0.16115 0.3098 0.0
H21 H 0.9862 0.08935 0.3585 0.0
H22 H 0.01864 0.04222 0.35624 0.0
H23 H 0.97951 0.02241 0.29878 0.0
N24 N 0.94214 0.11082 0.33275 0.0
H25 H 0.94601 0.069 0.30126 0.0
C26 C 0.08197 0.90336 0.34883 0.0
C27 C 0.11193 0.91096 0.35677 0.0
C28 C 0.12027 0.90082 0.37562 0.0
C29 C 0.09867 0.88354 0.38712 0.0
C30 C 0.06832 0.87703 0.37956 0.0
C31 C 0.06016 0.8867 0.36051 0.0
C32 C 0.09672 0.90457 0.31421 0.0
C33 C 0.09719 0.87396 0.30623 0.0
C34 C 0.12254 0.86391 0.29448 0.0
C35 C 0.14828 0.88426 0.29061 0.0
C36 C 0.14692 0.91554 0.29776 0.0
C37 C 0.12139 0.92565 0.30932 0.0
C38 C 0.05698 0.942 0.32719 0.0
C39 C 0.06968 0.97016 0.33497 0.0
C40 C 0.05215 0.99828 0.3344 0.0
C41 C 0.02131 0.99885 0.32634 0.0
C42 C 0.00904 0.97077 0.31815 0.0
C43 C 0.02677 0.94273 0.31854 0.0
C44 C 0.93081 0.11689 0.3525 0.0
C45 C 0.93472 0.1472 0.36053 0.0
C46 C 0.92289 0.15428 0.37923 0.0
C47 C 0.90692 0.13106 0.3903 0.0
C48 C 0.90323 0.10057 0.3823 0.0
C49 C 0.91491 0.09356 0.36356 0.0
C50 C 0.91642 0.11539 0.31891 0.0
C51 C 0.89104 0.0938 0.31742 0.0
C52 C 0.86411 0.10137 0.30631 0.0
C53 C 0.86182 0.13076 0.29661 0.0
C54 C 0.88767 0.15179 0.2976 0.0
C55 C 0.91464 0.14412 0.30864 0.0
C56 C 0.96138 0.08216 0.33081 0.0
C57 C 0.98375 0.0746 0.34555 0.0
C58 C 0.00294 0.04775 0.34408 0.0
C59 C 0.00146 0.0281 0.32743 0.0
C60 C 0.98057 0.03642 0.31211 0.0
C61 C 0.96109 0.06325 0.31364 0.0
H62 H 0.95102 0.34173 0.61495 0.0
N63 N 0.95462 0.39214 0.59189 0.0
H64 H 0.91913 0.33532 0.64485 0.0
H65 H 0.91778 0.43789 0.60908 0.0
H66 H 0.88657 0.43195 0.63954 0.0
H67 H 0.89745 0.40538 0.57494 0.0
H68 H 0.86996 0.37226 0.55061 0.0
H69 H 0.97915 0.34419 0.57193 0.0
H70 H 0.95202 0.31062 0.54807 0.0
H71 H 0.01341 0.39792 0.60505 0.0
H72 H 0.94122 0.4469 0.57201 0.0
H73 H 0.04958 0.44247 0.6006 0.0
H74 H 0.97772 0.49139 0.56665 0.0
H75 H 0.16482 0.56841 0.59719 0.0
H76 H 0.18094 0.58359 0.63058 0.0
H77 H 0.08408 0.61052 0.64349 0.0
H78 H 0.06824 0.59488 0.61046 0.0
H79 H 0.07138 0.62625 0.58119 0.0
H80 H 0.08019 0.67245 0.56042 0.0
H81 H 0.15354 0.62169 0.52897 0.0
H82 H 0.14502 0.57568 0.5503 0.0
H83 H 0.11891 0.51103 0.57611 0.0
H84 H 0.0809 0.46734 0.57633 0.0
H85 H 0.00398 0.53446 0.58303 0.0
N86 N 0.1072 0.57194 0.58139 0.0
H87 H 0.04213 0.57796 0.58166 0.0
C88 C 0.93702 0.39026 0.60999 0.0
C89 C 0.93707 0.36152 0.62028 0.0
C90 C 0.91877 0.35787 0.63721 0.0
C91 C 0.90041 0.38313 0.64434 0.0
C92 C 0.90065 0.4122 0.63426 0.0
C93 C 0.91851 0.41563 0.61698 0.0
C94 C 0.94032 0.37705 0.57513 0.0
C95 C 0.9097 0.38523 0.56864 0.0
C96 C 0.89397 0.36611 0.5549 0.0
C97 C 0.90866 0.33862 0.54746 0.0
C98 C 0.94007 0.33179 0.55321 0.0
C99 C 0.95566 0.35086 0.56689 0.0
C100 C 0.97493 0.41903 0.58874 0.0
C101 C 0.00557 0.41831 0.59665 0.0
C102 C 0.02626 0.4437 0.59391 0.0
C103 C 0.01681 0.47043 0.58297 0.0
C104 C 0.98578 0.47127 0.57519 0.0
C105 C 0.96493 0.4458 0.57812 0.0
C106 C 0.11544 0.58035 0.6013 0.0
C107 C 0.14713 0.57742 0.60733 0.0
C108 C 0.15628 0.58626 0.62633 0.0
C109 C 0.13377 0.59823 0.6397 0.0
C110 C 0.10192 0.60094 0.63366 0.0
C111 C 0.09283 0.59214 0.61466 0.0
C112 C 0.10775 0.59748 0.56734 0.0
C113 C 0.08889 0.62474 0.56961 0.0
C114 C 0.09392 0.65122 0.55762 0.0
C115 C 0.11783 0.65094 0.54314 0.0
C116 C 0.13533 0.62292 0.54021 0.0
C117 C 0.13032 0.59653 0.55222 0.0
C118 C 0.08352 0.54761 0.57912 0.0
C119 C 0.09378 0.51623 0.57726 0.0
C120 C 0.07201 0.49134 0.57762 0.0
C121 C 0.03935 0.49728 0.58015 0.0
C122 C 0.0289 0.52895 0.58104 0.0
C123 C 0.05078 0.55394 0.58043 0.0
H124 H 0.62826 0.42451 0.8515 0.0
N125 N 0.57261 0.41081 0.83202 0.0
H126 H 0.64349 0.40635 0.88414 0.0
H127 H 0.53737 0.37831 0.85757 0.0
H128 H 0.5525 0.36051 0.89078 0.0
H129 H 0.57723 0.3564 0.81262 0.0
H130 H 0.62069 0.33878 0.79136 0.0
H131 H 0.62172 0.44792 0.81825 0.0
H132 H 0.66561 0.43028 0.79802 0.0
H133 H 0.59263 0.4694 0.8445 0.0
H134 H 0.51589 0.41999 0.81588 0.0
H135 H 0.56303 0.51874 0.84247 0.0
H136 H 0.48507 0.46916 0.81473 0.0
H137 H 0.44996 0.66618 0.85206 0.0
H138 H 0.43173 0.67977 0.88528 0.0
H139 H 0.39381 0.58523 0.89196 0.0
H140 H 0.41281 0.57171 0.85911 0.0
H141 H 0.39269 0.57161 0.82705 0.0
H142 H 0.34528 0.58394 0.80786 0.0
H143 H 0.38777 0.67235 0.78955 0.0
H144 H 0.43491 0.66012 0.80934 0.0
H145 H 0.48791 0.59052 0.85916 0.0
H146 H 0.51967 0.54292 0.85766 0.0
H147 H 0.47958 0.52078 0.80077 0.0
N148 N 0.4435 0.61109 0.83333 0.0
H149 H 0.44662 0.56784 0.80255 0.0
C150 C 0.58169 0.40226 0.85184 0.0
C151 C 0.61147 0.41051 0.85979 0.0
C152 C 0.62023 0.40011 0.87851 0.0
C153 C 0.59929 0.38177 0.88986 0.0
C154 C 0.56907 0.37463 0.8823 0.0
C155 C 0.56046 0.38467 0.86339 0.0
C156 C 0.59605 0.40333 0.81717 0.0
C157 C 0.59612 0.37282 0.80904 0.0
C158 C 0.62119 0.36272 0.79708 0.0
C159 C 0.64702 0.38292 0.79314 0.0
C160 C 0.64607 0.41409 0.80048 0.0
C161 C 0.62083 0.42425 0.81226 0.0
C162 C 0.55651 0.44087 0.83019 0.0
C163 C 0.56946 0.46914 0.83764 0.0
C164 C 0.55223 0.49741 0.83668 0.0
C165 C 0.52142 0.49803 0.8286 0.0
C166 C 0.50883 0.46979 0.82083 0.0
C167 C 0.52629 0.44159 0.82157 0.0
C168 C 0.43275 0.6181 0.85308 0.0
C169 C 0.43781 0.64846 0.86078 0.0
C170 C 0.42724 0.65617 0.87968 0.0
C171 C 0.41134 0.63355 0.89127 0.0
C172 C 0.40633 0.60306 0.88353 0.0
C173 C 0.41685 0.5954 0.86464 0.0
C174 C 0.41745 0.61505 0.81964 0.0
C175 C 0.39198 0.59349 0.81877 0.0
C176 C 0.36492 0.60049 0.80764 0.0
C177 C 0.36262 0.62925 0.79724 0.0
C178 C 0.38859 0.6502 0.79759 0.0
C179 C 0.41566 0.64313 0.8087 0.0
C180 C 0.46255 0.58224 0.83176 0.0
C181 C 0.48508 0.57518 0.84651 0.0
C182 C 0.5039 0.54803 0.84547 0.0
C183 C 0.50195 0.52757 0.82922 0.0
C184 C 0.48098 0.53541 0.81383 0.0
C185 C 0.46182 0.56253 0.81495 0.0
H186 H 0.41709 0.87797 0.09906 0.0
N187 N 0.40123 0.93519 0.08259 0.0
H188 H 0.40264 0.85938 0.13192 0.0
H189 H 0.37224 0.9679 0.11095 0.0
H190 H 0.35838 0.94952 0.1442 0.0
H191 H 0.34361 0.9152 0.07277 0.0
H192 H 0.32977 0.86877 0.05331 0.0
H193 H 0.44264 0.90084 0.0587 0.0
H194 H 0.42884 0.85591 0.03848 0.0
H195 H 0.46148 0.91593 0.09221 0.0
H196 H 0.40708 0.99406 0.06913 0.0
H197 H 0.50974 0.94741 0.09026 0.0
H198 H 0.45514 0.02664 0.06808 0.0
H199 H 0.65652 0.06244 0.09849 0.0
H200 H 0.67294 0.07992 0.13136 0.0
H201 H 0.57807 0.11516 0.14208 0.0
H202 H 0.56177 0.09697 0.10949 0.0
H203 H 0.5638 0.12218 0.07855 0.0
H204 H 0.57616 0.16801 0.05809 0.0
H205 H 0.65548 0.11714 0.03283 0.0
H206 H 0.6436 0.07181 0.05409 0.0
H207 H 0.58244 0.02121 0.10671 0.0
H208 H 0.53484 0.98915 0.10618 0.0
H209 H 0.50475 0.03567 0.05267 0.0
N210 N 0.59943 0.06802 0.08194 0.0
H211 H 0.55151 0.06897 0.05368 0.0
C212 C 0.39524 0.92431 0.10243 0.0
C213 C 0.4043 0.89382 0.10877 0.0
C214 C 0.396 0.88316 0.12752 0.0
C215 C 0.37917 0.90295 0.14046 0.0
C216 C 0.37136 0.93385 0.13447 0.0
C217 C 0.37918 0.94432 0.11555 0.0
C218 C 0.39409 0.91163 0.06767 0.0
C219 C 0.36228 0.90264 0.06504 0.0
C220 C 0.35441 0.87607 0.0538 0.0
C221 C 0.37823 0.85808 0.04452 0.0
C222 C 0.40991 0.86851 0.0459 0.0
C223 C 0.41784 0.89471 0.05748 0.0
C224 C 0.43058 0.95265 0.08067 0.0
C225 C 0.45991 0.93995 0.08673 0.0
C226 C 0.48754 0.95818 0.08577 0.0
C227 C 0.48646 0.9898 0.07918 0.0
C228 C 0.45709 0.00229 0.07296 0.0
C229 C 0.42953 0.98381 0.07364 0.0
C230 C 0.60808 0.07837 0.10152 0.0
C231 C 0.63934 0.07385 0.10801 0.0
C232 C 0.64866 0.084 0.12672 0.0
C233 C 0.6268 0.09894 0.13934 0.0
C234 C 0.59538 0.10339 0.13283 0.0
C235 C 0.58611 0.09331 0.1141 0.0
C236 C 0.60307 0.09361 0.06797 0.0
C237 C 0.58374 0.12083 0.06856 0.0
C238 C 0.59067 0.14694 0.05665 0.0
C239 C 0.61701 0.14643 0.04388 0.0
C240 C 0.63537 0.11859 0.04272 0.0
C241 C 0.62848 0.09256 0.0547 0.0
C242 C 0.57035 0.04929 0.08101 0.0
C243 C 0.56534 0.02524 0.09506 0.0
C244 C 0.53819 0.00635 0.09454 0.0
C245 C 0.5156 0.00991 0.07947 0.0
C246 C 0.52111 0.03286 0.06485 0.0
C247 C 0.54815 0.05215 0.0655 0.0
H248 H 0.12493 0.56392 0.89672 0.0
N249 N 0.07549 0.58758 0.91875 0.0
H250 H 0.13937 0.57946 0.8635 0.0
H251 H 0.04582 0.62893 0.89559 0.0
H252 H 0.06066 0.64508 0.86207 0.0
H253 H 0.08034 0.64057 0.93941 0.0
H254 H 0.12436 0.65707 0.96051 0.0
H255 H 0.12546 0.55015 0.93025 0.0
H256 H 0.17054 0.56697 0.95014 0.0
H257 H 0.08757 0.52689 0.90575 0.0
H258 H 0.02173 0.58404 0.93895 0.0
H259 H 0.0526 0.4816 0.90879 0.0
H260 H 0.98709 0.538 0.94314 0.0
H261 H 0.93918 0.34308 0.90545 0.0
H262 H 0.92547 0.32665 0.8719 0.0
H263 H 0.8939 0.42194 0.85913 0.0
H264 H 0.90831 0.43817 0.8922 0.0
H265 H 0.87271 0.42816 0.91922 0.0
H266 H 0.82677 0.4167 0.93964 0.0
H267 H 0.88309 0.35161 0.97421 0.0
H268 H 0.92932 0.36316 0.95342 0.0
H269 H 0.99387 0.39786 0.92669 0.0
H270 H 0.03074 0.44246 0.92909 0.0
H271 H 0.95155 0.50745 0.92458 0.0
N272 N 0.93142 0.39984 0.92168 0.0
H273 H 0.91515 0.463 0.92337 0.0
C274 C 0.0839 0.59505 0.89868 0.0
C275 C 0.1103 0.58121 0.8893 0.0
C276 C 0.11861 0.59012 0.87021 0.0
C277 C 0.10107 0.61338 0.86017 0.0
C278 C 0.07465 0.62716 0.8695 0.0
C279 C 0.06609 0.6179 0.88855 0.0
C280 C 0.09977 0.59444 0.93307 0.0
C281 C 0.09972 0.62423 0.9421 0.0
C282 C 0.1251 0.6337 0.95395 0.0
C283 C 0.15145 0.61365 0.95677 0.0
C284 C 0.15069 0.58306 0.94846 0.0
C285 C 0.12498 0.57345 0.93685 0.0
C286 C 0.05697 0.55927 0.92182 0.0
C287 C 0.06576 0.52975 0.9139 0.0
C288 C 0.04574 0.50353 0.91588 0.0
C289 C 0.01674 0.50602 0.9261 0.0
C290 C 0.00881 0.53527 0.93477 0.0
C291 C 0.02867 0.56157 0.93256 0.0
C292 C 0.92493 0.39175 0.90143 0.0
C293 C 0.92965 0.36042 0.89528 0.0
C294 C 0.92159 0.35106 0.87617 0.0
C295 C 0.90852 0.37297 0.86281 0.0
C296 C 0.90436 0.40454 0.86891 0.0
C297 C 0.91247 0.41386 0.88798 0.0
C298 C 0.9047 0.3965 0.93481 0.0
C299 C 0.87556 0.41192 0.93138 0.0
C300 C 0.84917 0.40538 0.94316 0.0
C301 C 0.85123 0.38318 0.95854 0.0
C302 C 0.88065 0.36859 0.96235 0.0
C303 C 0.9071 0.37528 0.9506 0.0
C304 C 0.95182 0.42687 0.9247 0.0
C305 C 0.98456 0.42179 0.92654 0.0
C306 C 0.00559 0.44735 0.92771 0.0
C307 C 0.99427 0.47872 0.92681 0.0
C308 C 0.96124 0.48374 0.92557 0.0
C309 C 0.94024 0.45814 0.92467 0.0
H310 H 0.57673 0.37425 0.15064 0.0
N311 N 0.59263 0.42981 0.16941 0.0
H312 H 0.59285 0.3581 0.11779 0.0
H313 H 0.624 0.46407 0.14279 0.0
H314 H 0.63972 0.44799 0.10935 0.0
H315 H 0.64854 0.42419 0.18716 0.0
H316 H 0.667 0.3805 0.20789 0.0
H317 H 0.5555 0.38185 0.18438 0.0
H318 H 0.57391 0.33761 0.20409 0.0
H319 H 0.53308 0.41155 0.15725 0.0
H320 H 0.58483 0.48534 0.18716 0.0
H321 H 0.48446 0.44259 0.1597 0.0
H322 H 0.53613 0.51706 0.18933 0.0
H323 H 0.34122 0.55698 0.15212 0.0
H324 H 0.32696 0.57603 0.11916 0.0
H325 H 0.42031 0.61747 0.11316 0.0
H326 H 0.4344 0.59803 0.14592 0.0
H327 H 0.4413 0.60913 0.18045 0.0
H328 H 0.43336 0.65603 0.20072 0.0
H329 H 0.33571 0.62792 0.21053 0.0
H330 H 0.34497 0.57989 0.19161 0.0
H331 H 0.41805 0.5237 0.14299 0.0
H332 H 0.46435 0.48998 0.14436 0.0
H333 H 0.4825 0.52027 0.20396 0.0
N334 N 0.39618 0.56458 0.17099 0.0
H335 H 0.43617 0.55463 0.20268 0.0
C336 C 0.5997 0.42035 0.14943 0.0
C337 C 0.59051 0.39063 0.14191 0.0
C338 C 0.59971 0.38134 0.12306 0.0
C339 C 0.61778 0.40168 0.11116 0.0
C340 C 0.62578 0.43189 0.11826 0.0
C341 C 0.61692 0.44104 0.1373 0.0
C342 C 0.60078 0.40643 0.18411 0.0
C343 C 0.63199 0.4057 0.19127 0.0
C344 C 0.64256 0.38049 0.20291 0.0
C345 C 0.62213 0.35515 0.20748 0.0
C346 C 0.59032 0.35675 0.20111 0.0
C347 C 0.5797 0.38217 0.18967 0.0
C348 C 0.56281 0.44624 0.17197 0.0
C349 C 0.53402 0.43434 0.16448 0.0
C350 C 0.50617 0.45226 0.16578 0.0
C351 C 0.50644 0.48248 0.17453 0.0
C352 C 0.53501 0.4938 0.18264 0.0
C353 C 0.56287 0.47581 0.18134 0.0
C354 C 0.38875 0.57598 0.15144 0.0
C355 C 0.35852 0.57013 0.14363 0.0
C356 C 0.35042 0.58116 0.12488 0.0
C357 C 0.37255 0.5982 0.11356 0.0
C358 C 0.40288 0.60409 0.12143 0.0
C359 C 0.41089 0.59324 0.14022 0.0
C360 C 0.39379 0.59059 0.18479 0.0
C361 C 0.41845 0.6127 0.18741 0.0
C362 C 0.41365 0.63987 0.19884 0.0
C363 C 0.38373 0.64631 0.20729 0.0
C364 C 0.35932 0.62381 0.20478 0.0
C365 C 0.36445 0.59626 0.19384 0.0
C366 C 0.42446 0.54446 0.17208 0.0
C367 C 0.43223 0.52412 0.15628 0.0
C368 C 0.45859 0.50412 0.15717 0.0
C369 C 0.47755 0.50284 0.17413 0.0
C370 C 0.46895 0.52148 0.19042 0.0
C371 C 0.44242 0.54151 0.18957 0.0
H372 H 0.40382 0.95028 0.38989 0.0
N373 N 0.42613 0.91353 0.42012 0.0
H374 H 0.39038 0.93229 0.35677 0.0
H375 H 0.43441 0.85597 0.40517 0.0
H376 H 0.42187 0.83781 0.37182 0.0
H377 H 0.42469 0.87852 0.45265 0.0
H378 H 0.37828 0.86575 0.47301 0.0
H379 H 0.36642 0.93909 0.41646 0.0
H380 H 0.3202 0.92624 0.43638 0.0
H381 H 0.40708 0.97483 0.42856 0.0
H382 H 0.48859 0.91623 0.41607 0.0
H383 H 0.44101 0.02117 0.43052 0.0
H384 H 0.52264 0.9629 0.41675 0.0
H385 H 0.57273 0.16186 0.40084 0.0
H386 H 0.59147 0.17373 0.36774 0.0
H387 H 0.59634 0.07328 0.35517 0.0
H388 H 0.58006 0.06185 0.38877 0.0
H389 H 0.62453 0.07674 0.4159 0.0
H390 H 0.67067 0.08891 0.43622 0.0
H391 H 0.61476 0.15628 0.46931 0.0
H392 H 0.56847 0.14402 0.44864 0.0
H393 H 0.5048 0.10218 0.40918 0.0
H394 H 0.46994 0.05611 0.41095 0.0
H395 H 0.54679 0.00129 0.43604 0.0
N396 N 0.56628 0.10542 0.41765 0.0
H397 H 0.58172 0.04643 0.43307 0.0
C398 C 0.42005 0.90431 0.40002 0.0
C399 C 0.40798 0.92575 0.38604 0.0
C400 C 0.40051 0.91545 0.36704 0.0
C401 C 0.40497 0.88356 0.36163 0.0
C402 C 0.41771 0.86241 0.37556 0.0
C403 C 0.42509 0.87272 0.39456 0.0
C404 C 0.3992 0.9097 0.43307 0.0
C405 C 0.40202 0.88941 0.44929 0.0
C406 C 0.37547 0.88199 0.46079 0.0
C407 C 0.34551 0.89489 0.45627 0.0
C408 C 0.34297 0.91619 0.44043 0.0
C409 C 0.36946 0.92346 0.42891 0.0
C410 C 0.44535 0.94166 0.42239 0.0
C411 C 0.43227 0.97173 0.4263 0.0
C412 C 0.45181 0.9985 0.42719 0.0
C413 C 0.48473 0.99602 0.42379 0.0
C414 C 0.49761 0.96586 0.41991 0.0
C415 C 0.47816 0.93909 0.41936 0.0
C416 C 0.57458 0.11113 0.3973 0.0
C417 C 0.57766 0.14248 0.39084 0.0
C418 C 0.58818 0.14916 0.3718 0.0
C419 C 0.59537 0.1245 0.35854 0.0
C420 C 0.5916 0.09297 0.36495 0.0
C421 C 0.58177 0.08634 0.38417 0.0
C422 C 0.59292 0.10944 0.43084 0.0
C423 C 0.62202 0.09378 0.42769 0.0
C424 C 0.64837 0.10069 0.4394 0.0
C425 C 0.64637 0.12358 0.45439 0.0
C426 C 0.61709 0.13871 0.45778 0.0
C427 C 0.59062 0.13159 0.44613 0.0
C428 C 0.54593 0.07824 0.42094 0.0
C429 C 0.514 0.08023 0.41518 0.0
C430 C 0.49404 0.05384 0.41634 0.0
C431 C 0.50545 0.02473 0.4236 0.0
C432 C 0.53724 0.02302 0.42997 0.0
C433 C 0.55734 0.04925 0.42846 0.0
H434 H 0.14652 0.93649 0.65353 0.0
N435 N 0.08988 0.92635 0.66959 0.0
H436 H 0.16351 0.92448 0.61982 0.0
H437 H 0.05225 0.9032 0.63976 0.0
H438 H 0.06898 0.89102 0.60638 0.0
H439 H 0.12694 0.92619 0.70126 0.0
H440 H 0.14247 0.88047 0.72143 0.0
H441 H 0.06671 0.86578 0.66627 0.0
H442 H 0.08203 0.82034 0.68616 0.0
H443 H 0.02825 0.9047 0.67237 0.0
H444 H 0.08649 0.98868 0.67396 0.0
H445 H 0.98054 0.9373 0.67446 0.0
H446 H 0.03858 0.02157 0.67625 0.0
H447 H 0.83981 0.05764 0.65185 0.0
H448 H 0.82565 0.07488 0.61855 0.0
H449 H 0.92201 0.10707 0.6095 0.0
H450 H 0.93603 0.0891 0.64261 0.0
H451 H 0.9364 0.11345 0.6744 0.0
H452 H 0.92739 0.16055 0.69411 0.0
H453 H 0.83543 0.12372 0.71131 0.0
H454 H 0.84648 0.07532 0.69306 0.0
H455 H 0.90798 0.01037 0.64931 0.0
H456 H 0.9543 0.97588 0.65138 0.0
H457 H 0.99157 0.03277 0.69878 0.0
N458 N 0.89568 0.06325 0.66983 0.0
H459 H 0.94534 0.06676 0.69722 0.0
C460 C 0.09819 0.92102 0.64924 0.0
C461 C 0.12945 0.92691 0.6432 0.0
C462 C 0.13912 0.91988 0.624 0.0
C463 C 0.11756 0.90682 0.61043 0.0
C464 C 0.08603 0.9015 0.61639 0.0
C465 C 0.07645 0.9084 0.63559 0.0
C466 C 0.09557 0.89962 0.68236 0.0
C467 C 0.1167 0.9032 0.69814 0.0
C468 C 0.1257 0.87706 0.70953 0.0
C469 C 0.11352 0.84677 0.70537 0.0
C470 C 0.09151 0.84341 0.68993 0.0
C471 C 0.08271 0.86949 0.6785 0.0
C472 C 0.06117 0.94431 0.67291 0.0
C473 C 0.03093 0.93009 0.67339 0.0
C474 C 0.00355 0.94879 0.67451 0.0
C475 C 0.00583 0.98198 0.67541 0.0
C476 C 0.03608 0.99604 0.67572 0.0
C477 C 0.06342 0.97735 0.67437 0.0
C478 C 0.88881 0.0721 0.64972 0.0
C479 C 0.85786 0.06818 0.64258 0.0
C480 C 0.84982 0.07823 0.62362 0.0
C481 C 0.87267 0.09249 0.6114 0.0
C482 C 0.90392 0.0959 0.61846 0.0
C483 C 0.91192 0.08589 0.63745 0.0
C484 C 0.89241 0.09038 0.68268 0.0
C485 C 0.91466 0.11523 0.68282 0.0
C486 C 0.90913 0.14253 0.69394 0.0
C487 C 0.88044 0.14654 0.70438 0.0
C488 C 0.85818 0.12159 0.70403 0.0
C489 C 0.8643 0.09381 0.69347 0.0
C490 C 0.92347 0.04288 0.67207 0.0
C491 C 0.9262 0.0158 0.66005 0.0
C492 C 0.95257 0.99581 0.66137 0.0
C493 C 0.97684 0.00202 0.67499 0.0
C494 C 0.9736 0.02796 0.68776 0.0
C495 C 0.94702 0.04781 0.68661 0.0
In496 In 0.32829 0.67599 0.00185 0.0
O497 O 0.31639 0.72784 0.00852 0.0
O498 O 0.36453 0.71313 0.01098 0.0
C499 C 0.26924 0.65732 0.99137 0.0
C500 C 0.34072 0.648 0.0367 0.0
C501 C 0.35889 0.66377 0.96767 0.0
O502 O 0.27784 0.68595 0.99111 0.0
O503 O 0.29019 0.63819 0.99728 0.0
O504 O 0.35911 0.6447 0.98196 0.0
O505 O 0.34371 0.68902 0.97074 0.0
C506 C 0.34468 0.73539 0.01253 0.0
O507 O 0.35907 0.64566 0.02206 0.0
O508 O 0.31586 0.66405 0.03365 0.0
In509 In 0.33012 0.82632 0.25135 0.0
O510 O 0.32266 0.77303 0.24723 0.0
O511 O 0.36859 0.79167 0.24135 0.0
C512 C 0.26892 0.84222 0.25925 0.0
C513 C 0.34232 0.85359 0.21633 0.0
C514 C 0.35957 0.84203 0.28549 0.0
O515 O 0.27954 0.81453 0.26151 0.0
O516 O 0.28888 0.86169 0.25263 0.0
O517 O 0.36123 0.85894 0.27025 0.0
O518 O 0.34377 0.81695 0.28338 0.0
C519 C 0.35075 0.76767 0.24163 0.0
O520 O 0.35519 0.86281 0.23212 0.0
O521 O 0.32284 0.83103 0.21828 0.0
In522 In 0.16829 0.83168 0.49928 0.0
O523 O 0.13794 0.86438 0.51848 0.0
O524 O 0.17856 0.84303 0.53144 0.0
C525 C 0.1414 0.84356 0.46393 0.0
C526 C 0.15202 0.77142 0.50862 0.0
C527 C 0.22721 0.85255 0.49038 0.0
O528 O 0.13172 0.85646 0.47958 0.0
O529 O 0.16394 0.82421 0.46622 0.0
O530 O 0.22063 0.8235 0.49215 0.0
O531 O 0.20421 0.8711 0.4935 0.0
C532 C 0.15475 0.86079 0.5337 0.0
O533 O 0.18046 0.78069 0.50778 0.0
O534 O 0.13178 0.79232 0.50432 0.0
In535 In 0.1801 0.67298 0.75177 0.0
O536 O 0.15622 0.63573 0.77114 0.0
O537 O 0.15904 0.6827 0.78216 0.0
C538 C 0.1681 0.64484 0.71687 0.0
C539 C 0.24078 0.66121 0.76294 0.0
C540 C 0.15917 0.73109 0.74117 0.0
O541 O 0.15058 0.64108 0.73176 0.0
O542 O 0.19199 0.66231 0.7197 0.0
O543 O 0.18838 0.72459 0.7427 0.0
O544 O 0.14073 0.70854 0.74539 0.0
C545 C 0.15026 0.65453 0.78509 0.0
O546 O 0.22789 0.68803 0.765 0.0
O547 O 0.2233 0.64067 0.75495 0.0
In548 In 0.82522 0.17435 0.50111 0.0
O549 O 0.81848 0.22447 0.51357 0.0
O550 O 0.86399 0.21168 0.50267 0.0
C551 C 0.76514 0.15902 0.4908 0.0
C552 C 0.83901 0.14473 0.53538 0.0
C553 C 0.85246 0.16058 0.46628 0.0
O554 O 0.7744 0.18741 0.4921 0.0
O555 O 0.78593 0.13864 0.49511 0.0
O556 O 0.85536 0.14283 0.48116 0.0
O557 O 0.83598 0.18518 0.46906 0.0
C558 C 0.84694 0.23263 0.51061 0.0
O559 O 0.85627 0.14212 0.52028 0.0
O560 O 0.81468 0.16177 0.53306 0.0
In561 In 0.82774 0.32426 0.75252 0.0
O562 O 0.85463 0.36006 0.73378 0.0
O563 O 0.8203 0.33082 0.7196 0.0
C564 C 0.8585 0.33744 0.78664 0.0
C565 C 0.84717 0.26602 0.74122 0.0
C566 C 0.76685 0.34059 0.76085 0.0
O567 O 0.85851 0.35603 0.77213 0.0
O568 O 0.84343 0.31208 0.78386 0.0
O569 O 0.7772 0.31273 0.76276 0.0
O570 O 0.78696 0.36006 0.75438 0.0
C571 C 0.84128 0.35205 0.71787 0.0
O572 O 0.81953 0.27112 0.74772 0.0
O573 O 0.86509 0.28994 0.74096 0.0
In574 In 0.67174 0.32599 0.00073 0.0
O575 O 0.68297 0.2748 0.00895 0.0
O576 O 0.63457 0.28677 0.00423 0.0
C577 C 0.73191 0.34456 0.99286 0.0
C578 C 0.65813 0.35407 0.0355 0.0
C579 C 0.64417 0.33888 0.96568 0.0
O580 O 0.72364 0.31584 0.99329 0.0
O581 O 0.71001 0.36393 0.9969 0.0
O582 O 0.63252 0.34836 0.98176 0.0
O583 O 0.66896 0.32234 0.9674 0.0
C584 C 0.65443 0.26568 0.00896 0.0
O585 O 0.64825 0.365 0.01931 0.0
O586 O 0.6752 0.32965 0.03401 0.0
In587 In 0.6804 0.17573 0.24993 0.0
O588 O 0.66293 0.13776 0.27146 0.0
O589 O 0.65176 0.1858 0.2777 0.0
C590 C 0.6644 0.14771 0.21547 0.0
C591 C 0.74068 0.16417 0.26194 0.0
C592 C 0.66485 0.23577 0.24004 0.0
O593 O 0.6473 0.14569 0.23066 0.0
O594 O 0.6896 0.16335 0.21778 0.0
O595 O 0.69288 0.22528 0.2385 0.0
O596 O 0.64504 0.21618 0.24679 0.0
C597 C 0.64974 0.15723 0.28294 0.0
O598 O 0.72679 0.19016 0.26528 0.0
O599 O 0.72441 0.14449 0.25231 0.0
C600 C 0.19565 0.89222 0.2684 0.0
C601 C 0.1775 0.87231 0.28064 0.0
H602 H 0.23872 0.89831 0.25202 0.0
C603 C 0.18879 0.84148 0.28444 0.0
H604 H 0.1875 0.91587 0.26482 0.0
C605 C 0.21788 0.83126 0.2768 0.0
C606 C 0.23657 0.85172 0.26536 0.0
H607 H 0.17585 0.82558 0.29403 0.0
H608 H 0.22629 0.80775 0.28052 0.0
C609 C 0.22493 0.8821 0.26094 0.0
C610 C 0.1584 0.68859 0.52953 0.0
C611 C 0.1263 0.68049 0.5324 0.0
H612 H 0.19163 0.72353 0.51971 0.0
C613 C 0.10269 0.70182 0.52612 0.0
H614 H 0.17723 0.67298 0.53444 0.0
C615 C 0.11101 0.73097 0.51776 0.0
C616 C 0.14311 0.73941 0.51555 0.0
H617 H 0.07776 0.69617 0.5279 0.0
H618 H 0.09229 0.7472 0.51348 0.0
C619 C 0.16669 0.71769 0.52119 0.0
C620 C 0.31494 0.61528 0.77662 0.0
C621 C 0.33255 0.63807 0.78705 0.0
H622 H 0.27231 0.6048 0.7607 0.0
C623 C 0.32039 0.66906 0.78853 0.0
H624 H 0.32379 0.59132 0.77498 0.0
C625 C 0.29095 0.67682 0.78027 0.0
C626 C 0.27302 0.65378 0.77033 0.0
H627 H 0.33312 0.68711 0.79667 0.0
H628 H 0.28192 0.70069 0.78207 0.0
C629 C 0.28552 0.62306 0.76835 0.0
C630 C 0.39149 0.80151 0.03623 0.0
C631 C 0.3704 0.82733 0.03481 0.0
H632 H 0.39998 0.7525 0.03017 0.0
C633 C 0.34115 0.8228 0.02513 0.0
H634 H 0.4139 0.80369 0.04393 0.0
C635 C 0.33285 0.79302 0.01766 0.0
C636 C 0.35382 0.76729 0.01943 0.0
H637 H 0.3245 0.84216 0.02342 0.0
H638 H 0.30997 0.79011 0.01058 0.0
C639 C 0.3834 0.77196 0.02849 0.0
C640 C 0.19934 0.60478 0.97849 0.0
C641 C 0.18041 0.62535 0.96713 0.0
H642 H 0.24227 0.59876 0.99506 0.0
C643 C 0.1903 0.65702 0.96486 0.0
H644 H 0.19229 0.58041 0.98087 0.0
C645 C 0.21859 0.66763 0.97333 0.0
C646 C 0.23793 0.64677 0.98405 0.0
H647 H 0.1768 0.67348 0.95593 0.0
H648 H 0.22582 0.69195 0.9709 0.0
C649 C 0.22789 0.61533 0.98675 0.0
C650 C 0.3541 0.67926 0.23248 0.0
C651 C 0.3773 0.67707 0.21755 0.0
H652 H 0.32724 0.70963 0.25159 0.0
C653 C 0.393 0.70504 0.21172 0.0
H654 H 0.342 0.65836 0.23784 0.0
C655 C 0.38529 0.73422 0.22021 0.0
C656 C 0.36113 0.73637 0.23436 0.0
H657 H 0.41049 0.70481 0.20006 0.0
H658 H 0.39731 0.75534 0.21505 0.0
C659 C 0.34579 0.70862 0.24055 0.0
C660 C 0.31176 0.85237 0.47142 0.0
C661 C 0.31656 0.88459 0.46705 0.0
H662 H 0.27977 0.81699 0.48225 0.0
C663 C 0.29252 0.90645 0.47181 0.0
H664 H 0.32963 0.83486 0.46774 0.0
C665 C 0.26389 0.89617 0.48006 0.0
C666 C 0.25866 0.86381 0.48368 0.0
H667 H 0.29565 0.93147 0.46886 0.0
H668 H 0.24555 0.9135 0.48311 0.0
C669 C 0.2831 0.84209 0.47962 0.0
C670 C 0.10361 0.79445 0.72188 0.0
C671 C 0.12493 0.81842 0.71627 0.0
H672 H 0.09769 0.74825 0.73434 0.0
C673 C 0.15752 0.81423 0.72011 0.0
H674 H 0.07834 0.79713 0.71934 0.0
C675 C 0.16862 0.78621 0.72872 0.0
C676 C 0.14736 0.76188 0.73374 0.0
H677 H 0.17459 0.83211 0.7158 0.0
H678 H 0.19393 0.7833 0.73099 0.0
C679 C 0.11469 0.76652 0.73056 0.0
C680 C 0.68706 0.33993 0.78642 0.0
C681 C 0.67596 0.37091 0.78288 0.0
H682 H 0.72426 0.30602 0.78207 0.0
C683 C 0.69406 0.39091 0.77068 0.0
H684 H 0.67414 0.32396 0.79597 0.0
C685 C 0.72317 0.38073 0.76301 0.0
C686 C 0.73466 0.3502 0.76717 0.0
H687 H 0.68604 0.41468 0.7673 0.0
H688 H 0.73697 0.397 0.75413 0.0
C689 C 0.71597 0.32966 0.77856 0.0
C690 C 0.60368 0.19621 0.02504 0.0
C691 C 0.6266 0.17553 0.03298 0.0
H692 H 0.5945 0.24083 0.01105 0.0
C693 C 0.65887 0.18389 0.03153 0.0
H694 H 0.57866 0.19033 0.02563 0.0
C695 C 0.66792 0.21262 0.02301 0.0
C696 C 0.64494 0.23378 0.0158 0.0
H697 H 0.67718 0.16884 0.03772 0.0
H698 H 0.69292 0.21871 0.02269 0.0
C699 C 0.61276 0.22505 0.01656 0.0
C700 C 0.81498 0.11805 0.27504 0.0
C701 C 0.83189 0.14007 0.28648 0.0
H702 H 0.7731 0.10853 0.25817 0.0
C703 C 0.8192 0.17068 0.28897 0.0
H704 H 0.82426 0.09442 0.27266 0.0
C705 C 0.78989 0.17879 0.28064 0.0
C706 C 0.7727 0.15651 0.2696 0.0
H707 H 0.83143 0.18809 0.29789 0.0
H708 H 0.78043 0.20231 0.28319 0.0
C709 C 0.78575 0.12621 0.26666 0.0
C710 C 0.90594 0.298 0.52048 0.0
C711 C 0.89065 0.31524 0.53544 0.0
H712 H 0.90401 0.25839 0.50086 0.0
C713 C 0.85914 0.30734 0.54036 0.0
H714 H 0.92994 0.30385 0.51603 0.0
C715 C 0.8441 0.2815 0.53144 0.0
C716 C 0.86037 0.26295 0.51756 0.0
H717 H 0.8467 0.31988 0.55194 0.0
H718 H 0.82042 0.27503 0.5362 0.0
C719 C 0.89104 0.27203 0.51172 0.0
C720 C 0.68253 0.16474 0.46892 0.0
C721 C 0.67525 0.13265 0.46563 0.0
H722 H 0.71673 0.1983 0.47948 0.0
C723 C 0.6968 0.10937 0.47202 0.0
H724 H 0.66654 0.18324 0.46401 0.0
C725 C 0.72551 0.11799 0.48084 0.0
C726 C 0.73335 0.15008 0.4834 0.0
H727 H 0.69168 0.08445 0.46992 0.0
H728 H 0.74192 0.09948 0.48517 0.0
C729 C 0.71133 0.17338 0.47769 0.0
C730 C 0.8525 0.17795 0.7311 0.0
C731 C 0.87316 0.17704 0.71474 0.0
H732 H 0.82764 0.20686 0.75209 0.0
C733 C 0.88594 0.20589 0.70791 0.0
H734 H 0.84266 0.15644 0.73723 0.0
C735 C 0.87834 0.23454 0.71705 0.0
C736 C 0.85695 0.23531 0.73285 0.0
H737 H 0.90117 0.20675 0.6951 0.0
H738 H 0.88826 0.25629 0.71123 0.0
C739 C 0.84407 0.20682 0.73982 0.0
C740 C 0.79946 0.39638 0.97513 0.0
C741 C 0.8222 0.37368 0.96951 0.0
H742 H 0.75321 0.405 0.98716 0.0
C743 C 0.81592 0.34149 0.97317 0.0
H744 H 0.80375 0.42139 0.97272 0.0
C745 C 0.78703 0.33212 0.98146 0.0
C746 C 0.76382 0.35473 0.98633 0.0
H747 H 0.83276 0.32337 0.96884 0.0
H748 H 0.78249 0.30707 0.98347 0.0
C749 C 0.7706 0.38701 0.98349 0.0
C750 C 0.61487 0.30871 0.2304 0.0
C751 C 0.63436 0.32616 0.21754 0.0
H752 H 0.60923 0.26653 0.24757 0.0
C753 C 0.66499 0.31448 0.21332 0.0
H754 H 0.59142 0.31718 0.23433 0.0
C755 C 0.67541 0.28569 0.22125 0.0
C756 C 0.65531 0.26773 0.23337 0.0
H757 H 0.68056 0.32688 0.20326 0.0
H758 H 0.69874 0.27695 0.21728 0.0
C759 C 0.62514 0.27975 0.23811 0.0
C760 C 0.13663 0.85451 0.40884 0.0
C761 C 0.10834 0.87183 0.40676 0.0
H762 H 0.16889 0.8315 0.42854 0.0
C763 C 0.09006 0.87857 0.42353 0.0
H764 H 0.15099 0.84883 0.39608 0.0
C765 C 0.10051 0.86904 0.44219 0.0
C766 C 0.12906 0.85206 0.44427 0.0
H767 H 0.0682 0.89198 0.42227 0.0
H768 H 0.08643 0.87517 0.45498 0.0
C769 C 0.14674 0.84448 0.42739 0.0
C770 C 0.12428 0.60206 0.67613 0.0
C771 C 0.1435 0.60864 0.65971 0.0
H772 H 0.11713 0.60813 0.70711 0.0
C773 C 0.1716 0.62609 0.66244 0.0
H774 H 0.10271 0.58831 0.67456 0.0
C775 C 0.17994 0.63729 0.6811 0.0
C776 C 0.16037 0.63125 0.69742 0.0
H777 H 0.18674 0.63187 0.65007 0.0
H778 H 0.20142 0.65118 0.68266 0.0
C779 C 0.13264 0.61324 0.69479 0.0
C780 C 0.38448 0.67122 0.91451 0.0
C781 C 0.39934 0.64187 0.91117 0.0
H782 H 0.3601 0.70112 0.93497 0.0
C783 C 0.40184 0.62023 0.92685 0.0
H784 H 0.38183 0.68826 0.9027 0.0
C785 C 0.38925 0.62755 0.94534 0.0
C786 C 0.37388 0.65664 0.94852 0.0
H787 H 0.41354 0.59759 0.92482 0.0
H788 H 0.39122 0.61027 0.95706 0.0
C789 C 0.37188 0.67852 0.93297 0.0
C790 C 0.37577 0.90801 0.17716 0.0
C791 C 0.36903 0.89094 0.15993 0.0
H792 H 0.37286 0.90933 0.20867 0.0
C793 C 0.35265 0.86205 0.16133 0.0
H794 H 0.38846 0.93031 0.17643 0.0
C795 C 0.34329 0.85033 0.17966 0.0
C796 C 0.35062 0.86702 0.19695 0.0
H797 H 0.34695 0.84859 0.14822 0.0
H798 H 0.33086 0.82789 0.1803 0.0
C799 C 0.36692 0.89599 0.19555 0.0
C800 C 0.11417 0.65643 0.8361 0.0
C801 C 0.11128 0.62398 0.84036 0.0
H802 H 0.12902 0.69156 0.81528 0.0
C803 C 0.11983 0.60172 0.82592 0.0
H804 H 0.10802 0.67409 0.84703 0.0
C805 C 0.13166 0.61169 0.80773 0.0
C806 C 0.13552 0.64411 0.80372 0.0
H807 H 0.11759 0.57656 0.82876 0.0
H808 H 0.13849 0.59397 0.797 0.0
C809 C 0.12635 0.6664 0.81799 0.0
C810 C 0.33432 0.62445 0.09033 0.0
C811 C 0.36396 0.61005 0.09368 0.0
H812 H 0.30377 0.64781 0.0697 0.0
C813 C 0.38553 0.60745 0.07796 0.0
H814 H 0.31733 0.62707 0.10219 0.0
C815 C 0.37775 0.61928 0.05935 0.0
C816 C 0.34832 0.63412 0.05611 0.0
H817 H 0.40839 0.59613 0.08002 0.0
H818 H 0.39495 0.61712 0.04757 0.0
C819 C 0.32662 0.63644 0.07175 0.0
C820 C 0.40022 0.89078 0.32496 0.0
C821 C 0.39514 0.87214 0.34183 0.0
H822 H 0.3932 0.89576 0.29387 0.0
C823 C 0.37956 0.84285 0.33977 0.0
H824 H 0.4125 0.91326 0.32599 0.0
C825 C 0.36876 0.83275 0.32137 0.0
C826 C 0.37321 0.85171 0.30462 0.0
H827 H 0.37485 0.82809 0.35247 0.0
H828 H 0.35628 0.81036 0.32037 0.0
C829 C 0.38937 0.88067 0.30654 0.0
C830 C 0.15708 0.88103 0.58792 0.0
C831 C 0.12818 0.89724 0.59045 0.0
H832 H 0.18809 0.85681 0.568 0.0
C833 C 0.10888 0.90283 0.57391 0.0
H834 H 0.1723 0.87602 0.60039 0.0
C835 C 0.11791 0.89176 0.55533 0.0
C836 C 0.14635 0.87475 0.55295 0.0
H837 H 0.08665 0.91557 0.57536 0.0
H838 H 0.1023 0.89596 0.54293 0.0
C839 C 0.16603 0.86986 0.56938 0.0
C840 C 0.63902 0.35391 0.91097 0.0
C841 C 0.60962 0.36941 0.90924 0.0
H842 H 0.67265 0.3317 0.9301 0.0
C843 C 0.59079 0.37354 0.92613 0.0
H844 H 0.65384 0.35014 0.89815 0.0
C845 C 0.60171 0.36324 0.94453 0.0
C846 C 0.63137 0.34815 0.94626 0.0
H847 H 0.56805 0.3855 0.92516 0.0
H848 H 0.58711 0.36735 0.95741 0.0
C849 C 0.64968 0.34321 0.92925 0.0
C850 C 0.61696 0.10661 0.17555 0.0
C851 C 0.63684 0.11038 0.15907 0.0
H852 H 0.61017 0.11524 0.20635 0.0
C853 C 0.66621 0.12573 0.1615 0.0
H854 H 0.59435 0.09455 0.17421 0.0
C855 C 0.6753 0.13741 0.17989 0.0
C856 C 0.65525 0.13399 0.19628 0.0
H857 H 0.68192 0.12936 0.14908 0.0
H858 H 0.6979 0.14951 0.1812 0.0
C859 C 0.62609 0.11827 0.19397 0.0
C860 C 0.89654 0.11745 0.42572 0.0
C861 C 0.89356 0.1388 0.40994 0.0
H862 H 0.88606 0.10768 0.45599 0.0
C863 C 0.87727 0.16747 0.41295 0.0
H864 H 0.90924 0.09531 0.42391 0.0
C865 C 0.86405 0.17454 0.43128 0.0
C866 C 0.86693 0.15315 0.44702 0.0
H867 H 0.87422 0.18423 0.40102 0.0
H868 H 0.85142 0.19673 0.43307 0.0
C869 C 0.88342 0.12459 0.4441 0.0
C870 C 0.88737 0.39717 0.67917 0.0
C871 C 0.88146 0.37866 0.66242 0.0
H872 H 0.87923 0.40312 0.71011 0.0
C873 C 0.85964 0.3536 0.66358 0.0
H874 H 0.90427 0.41651 0.67858 0.0
C875 C 0.84498 0.34625 0.68143 0.0
C876 C 0.85238 0.36345 0.69852 0.0
H877 H 0.85472 0.33907 0.65079 0.0
H878 H 0.82915 0.32604 0.68204 0.0
C879 C 0.87314 0.38945 0.69716 0.0
C880 C 0.63018 0.11173 0.32932 0.0
C881 C 0.60778 0.13177 0.33844 0.0
H882 H 0.6606 0.10387 0.30448 0.0
C883 C 0.59825 0.15946 0.32846 0.0
H884 H 0.63865 0.09052 0.33657 0.0
C885 C 0.61166 0.16751 0.31033 0.0
C886 C 0.63429 0.14769 0.30149 0.0
H887 H 0.5805 0.17512 0.33465 0.0
H888 H 0.6043 0.1893 0.30323 0.0
C889 C 0.643 0.11945 0.31094 0.0
C890 C 0.88391 0.10082 0.57537 0.0
C891 C 0.86365 0.10476 0.59165 0.0
H892 H 0.89189 0.11012 0.54474 0.0
C893 C 0.83488 0.1212 0.58906 0.0
H894 H 0.90608 0.08799 0.57683 0.0
C895 C 0.82673 0.13374 0.57071 0.0
C896 C 0.84713 0.1301 0.55451 0.0
H897 H 0.81893 0.12504 0.60134 0.0
H898 H 0.80459 0.14665 0.5693 0.0
C899 C 0.8757 0.11332 0.55697 0.0
C900 C 0.90213 0.38261 0.82647 0.0
C901 C 0.89788 0.36278 0.84291 0.0
H902 H 0.89316 0.39009 0.79578 0.0
C903 C 0.882 0.33375 0.84036 0.0
H904 H 0.91467 0.4049 0.82785 0.0
C905 C 0.86994 0.32516 0.82195 0.0
C906 C 0.8734 0.34544 0.8057 0.0
H907 H 0.87794 0.31807 0.85272 0.0
H908 H 0.85722 0.30297 0.82057 0.0
C909 C 0.88998 0.37406 0.80808 0.0
C910 C 0.62444 0.40871 0.07465 0.0
C911 C 0.62924 0.39058 0.09174 0.0
H912 H 0.62953 0.41115 0.04323 0.0
C913 C 0.64462 0.36116 0.09025 0.0
H914 H 0.61256 0.43145 0.07545 0.0
C915 C 0.65464 0.3498 0.072 0.0
C916 C 0.64911 0.36743 0.0548 0.0
H917 H 0.64889 0.34688 0.10324 0.0
H918 H 0.66617 0.32686 0.07134 0.0
C919 C 0.63405 0.39707 0.05627 0.0
loop_
_geom_bond_atom_site_label_1
_geom_bond_atom_site_label_2
_geom_bond_distance
_geom_bond_site_symmetry_2
_ccdc_geom_bond_type
H0 C27 0.929 . S
N1 C26 1.433 . S
N1 C32 1.435 . S
N1 C38 1.423 . S
H2 C28 0.930 . S
H3 C31 0.931 . S
H4 C30 0.929 . S
H5 C33 0.930 . S
H6 C34 0.932 . S
H7 C37 0.929 . S
H8 C36 0.931 . S
H9 C39 0.929 . S
H10 C43 0.932 . S
H11 C40 0.931 . S
H12 C42 0.929 . S
H13 C45 0.929 . S
H14 C46 0.930 . S
H15 C48 0.929 . S
H16 C49 0.931 . S
H17 C51 0.930 . S
H18 C52 0.932 . S
H19 C54 0.931 . S
H20 C55 0.929 . S
H21 C57 0.929 . S
H22 C58 0.931 1_455 S
H23 C60 0.929 . S
N24 C44 1.433 . S
N24 C50 1.435 . S
N24 C56 1.423 . S
H25 C61 0.932 . S
C26 N1 1.433 . S
C26 C27 1.363 . S
C26 C31 1.370 . S
C27 H0 0.929 . S
C27 C26 1.363 . S
C27 C28 1.385 . S
C28 H2 0.930 . S
C28 C27 1.385 . S
C28 C29 1.357 . S
C29 C28 1.357 . S
C29 C30 1.406 . S
C30 H4 0.929 . S
C30 C29 1.406 . S
C30 C31 1.391 . S
C31 H3 0.931 . S
C31 C26 1.370 . S
C31 C30 1.391 . S
C32 N1 1.435 . S
C32 C33 1.358 . S
C32 C37 1.371 . S
C33 H5 0.930 . S
C33 C32 1.358 . S
C33 C34 1.405 . S
C34 H6 0.932 . S
C34 C33 1.405 . S
C34 C35 1.383 . S
C35 C34 1.383 . S
C35 C36 1.393 . S
C36 H8 0.931 . S
C36 C35 1.393 . S
C36 C37 1.382 . S
C37 H7 0.929 . S
C37 C32 1.371 . S
C37 C36 1.382 . S
C38 N1 1.423 . S
C38 C39 1.362 . S
C38 C43 1.388 . S
C39 H9 0.929 . S
C39 C38 1.362 . S
C39 C40 1.376 1_565 S
C40 H11 0.931 . S
C40 C39 1.376 1_545 S
C40 C41 1.396 . S
C41 C40 1.396 . S
C41 C42 1.348 1_545 S
C41 C59 1.472 . S
C42 H12 0.929 . S
C42 C41 1.348 1_565 S
C42 C43 1.443 . S
C43 H10 0.932 . S
C43 C38 1.388 . S
C43 C42 1.443 . S
C44 N24 1.433 . S
C44 C45 1.363 . S
C44 C49 1.370 . S
C45 H13 0.929 . S
C45 C44 1.363 . S
C45 C46 1.385 . S
C46 H14 0.930 . S
C46 C45 1.385 . S
C46 C47 1.357 . S
C47 C46 1.357 . S
C47 C48 1.406 . S
C48 H15 0.929 . S
C48 C47 1.406 . S
C48 C49 1.391 . S
C49 H16 0.931 . S
C49 C44 1.370 . S
C49 C48 1.391 . S
C50 N24 1.435 . S
C50 C51 1.358 . S
C50 C55 1.371 . S
C51 H17 0.930 . S
C51 C50 1.358 . S
C51 C52 1.405 . S
C52 H18 0.932 . S
C52 C51 1.405 . S
C52 C53 1.383 . S
C53 C52 1.383 . S
C53 C54 1.393 . S
C54 H19 0.931 . S
C54 C53 1.393 . S
C54 C55 1.382 . S
C55 H20 0.929 . S
C55 C50 1.371 . S
C55 C54 1.382 . S
C56 N24 1.423 . S
C56 C57 1.362 . S
C56 C61 1.388 . S
C57 H21 0.929 . S
C57 C56 1.362 . S
C57 C58 1.376 . S
C58 H22 0.931 1_655 S
C58 C57 1.376 . S
C58 C59 1.396 1_655 S
C59 C41 1.472 . S
C59 C58 1.396 1_455 S
C59 C60 1.348 1_455 S
C60 H23 0.929 . S
C60 C59 1.348 1_655 S
C60 C61 1.443 . S
C61 H25 0.932 . S
C61 C56 1.388 . S
C61 C60 1.443 . S
H62 C89 0.929 . S
N63 C88 1.433 . S
N63 C94 1.435 . S
N63 C100 1.423 . S
H64 C90 0.930 . S
H65 C93 0.931 . S
H66 C92 0.929 . S
H67 C95 0.930 . S
H68 C96 0.932 . S
H69 C99 0.929 . S
H70 C98 0.931 . S
H71 C101 0.929 . S
H72 C105 0.932 . S
H73 C102 0.931 . S
H74 C104 0.929 . S
H75 C107 0.929 . S
H76 C108 0.930 . S
H77 C110 0.929 . S
H78 C111 0.931 . S
H79 C113 0.930 . S
H80 C114 0.932 . S
H81 C116 0.931 . S
H82 C117 0.929 . S
H83 C119 0.929 . S
H84 C120 0.931 . S
H85 C122 0.929 . S
N86 C106 1.433 . S
N86 C112 1.435 . S
N86 C118 1.423 . S
H87 C123 0.932 . S
C88 N63 1.433 . S
C88 C89 1.363 . S
C88 C93 1.370 . S
C89 H62 0.929 . S
C89 C88 1.363 . S
C89 C90 1.385 . S
C90 H64 0.930 . S
C90 C89 1.385 . S
C90 C91 1.357 . S
C91 C90 1.357 . S
C91 C92 1.406 . S
C92 H66 0.929 . S
C92 C91 1.406 . S
C92 C93 1.391 . S
C93 H65 0.931 . S
C93 C88 1.370 . S
C93 C92 1.391 . S
C94 N63 1.435 . S
C94 C95 1.358 . S
C94 C99 1.371 . S
C95 H67 0.930 . S
C95 C94 1.358 . S
C95 C96 1.405 . S
C96 H68 0.932 . S
C96 C95 1.405 . S
C96 C97 1.383 . S
C97 C96 1.383 . S
C97 C98 1.393 . S
C98 H70 0.931 . S
C98 C97 1.393 . S
C98 C99 1.382 . S
C99 H69 0.929 . S
C99 C94 1.371 . S
C99 C98 1.382 . S
C100 N63 1.423 . S
C100 C101 1.362 . S
C100 C105 1.388 . S
C101 H71 0.929 . S
C101 C100 1.362 . S
C101 C102 1.376 1_655 S
C102 H73 0.931 . S
C102 C101 1.376 1_455 S
C102 C103 1.396 . S
C103 C102 1.396 . S
C103 C104 1.348 1_455 S
C103 C121 1.472 . S
C104 H74 0.929 . S
C104 C103 1.348 1_655 S
C104 C105 1.443 . S
C105 H72 0.932 . S
C105 C100 1.388 . S
C105 C104 1.443 . S
C106 N86 1.433 . S
C106 C107 1.363 . S
C106 C111 1.370 . S
C107 H75 0.929 . S
C107 C106 1.363 . S
C107 C108 1.385 . S
C108 H76 0.930 . S
C108 C107 1.385 . S
C108 C109 1.357 . S
C109 C108 1.357 . S
C109 C110 1.406 . S
C110 H77 0.929 . S
C110 C109 1.406 . S
C110 C111 1.391 . S
C111 H78 0.931 . S
C111 C106 1.370 . S
C111 C110 1.391 . S
C112 N86 1.435 . S
C112 C113 1.358 . S
C112 C117 1.371 . S
C113 H79 0.930 . S
C113 C112 1.358 . S
C113 C114 1.405 . S
C114 H80 0.932 . S
C114 C113 1.405 . S
C114 C115 1.383 . S
C115 C114 1.383 . S
C115 C116 1.393 . S
C116 H81 0.931 . S
C116 C115 1.393 . S
C116 C117 1.382 . S
C117 H82 0.929 . S
C117 C112 1.371 . S
C117 C116 1.382 . S
C118 N86 1.423 . S
C118 C119 1.362 . S
C118 C123 1.388 . S
C119 H83 0.929 . S
C119 C118 1.362 . S
C119 C120 1.376 . S
C120 H84 0.931 . S
C120 C119 1.376 . S
C120 C121 1.396 . S
C121 C103 1.472 . S
C121 C120 1.396 . S
C121 C122 1.348 . S
C122 H85 0.929 . S
C122 C121 1.348 . S
C122 C123 1.443 . S
C123 H87 0.932 . S
C123 C118 1.388 . S
C123 C122 1.443 . S
H124 C151 0.929 . S
N125 C150 1.433 . S
N125 C156 1.435 . S
N125 C162 1.423 . S
H126 C152 0.930 . S
H127 C155 0.931 . S
H128 C154 0.929 . S
H129 C157 0.930 . S
H130 C158 0.932 . S
H131 C161 0.929 . S
H132 C160 0.931 . S
H133 C163 0.929 . S
H134 C167 0.932 . S
H135 C164 0.931 . S
H136 C166 0.929 . S
H137 C169 0.929 . S
H138 C170 0.930 . S
H139 C172 0.929 . S
H140 C173 0.931 . S
H141 C175 0.930 . S
H142 C176 0.932 . S
H143 C178 0.931 . S
H144 C179 0.929 . S
H145 C181 0.929 . S
H146 C182 0.931 . S
H147 C184 0.929 . S
N148 C168 1.433 . S
N148 C174 1.435 . S
N148 C180 1.423 . S
H149 C185 0.932 . S
C150 N125 1.433 . S
C150 C151 1.363 . S
C150 C155 1.370 . S
C151 H124 0.929 . S
C151 C150 1.363 . S
C151 C152 1.385 . S
C152 H126 0.930 . S
C152 C151 1.385 . S
C152 C153 1.357 . S
C153 C152 1.357 . S
C153 C154 1.406 . S
C154 H128 0.929 . S
C154 C153 1.406 . S
C154 C155 1.391 . S
C155 H127 0.931 . S
C155 C150 1.370 . S
C155 C154 1.391 . S
C156 N125 1.435 . S
C156 C157 1.358 . S
C156 C161 1.371 . S
C157 H129 0.930 . S
C157 C156 1.358 . S
C157 C158 1.405 . S
C158 H130 0.932 . S
C158 C157 1.405 . S
C158 C159 1.383 . S
C159 C158 1.383 . S
C159 C160 1.393 . S
C160 H132 0.931 . S
C160 C159 1.393 . S
C160 C161 1.382 . S
C161 H131 0.929 . S
C161 C156 1.371 . S
C161 C160 1.382 . S
C162 N125 1.423 . S
C162 C163 1.362 . S
C162 C167 1.388 . S
C163 H133 0.929 . S
C163 C162 1.362 . S
C163 C164 1.376 . S
C164 H135 0.931 . S
C164 C163 1.376 . S
C164 C165 1.396 . S
C165 C164 1.396 . S
C165 C166 1.348 . S
C165 C183 1.472 . S
C166 H136 0.929 . S
C166 C165 1.348 . S
C166 C167 1.443 . S
C167 H134 0.932 . S
C167 C162 1.388 . S
C167 C166 1.443 . S
C168 N148 1.433 . S
C168 C169 1.363 . S
C168 C173 1.370 . S
C169 H137 0.929 . S
C169 C168 1.363 . S
C169 C170 1.385 . S
C170 H138 0.930 . S
C170 C169 1.385 . S
C170 C171 1.357 . S
C171 C170 1.357 . S
C171 C172 1.406 . S
C172 H139 0.929 . S
C172 C171 1.406 . S
C172 C173 1.391 . S
C173 H140 0.931 . S
C173 C168 1.370 . S
C173 C172 1.391 . S
C174 N148 1.435 . S
C174 C175 1.358 . S
C174 C179 1.371 . S
C175 H141 0.930 . S
C175 C174 1.358 . S
C175 C176 1.405 . S
C176 H142 0.932 . S
C176 C175 1.405 . S
C176 C177 1.383 . S
C177 C176 1.383 . S
C177 C178 1.393 . S
C178 H143 0.931 . S
C178 C177 1.393 . S
C178 C179 1.382 . S
C179 H144 0.929 . S
C179 C174 1.371 . S
C179 C178 1.382 . S
C180 N148 1.423 . S
C180 C181 1.362 . S
C180 C185 1.388 . S
C181 H145 0.929 . S
C181 C180 1.362 . S
C181 C182 1.376 . S
C182 H146 0.931 . S
C182 C181 1.376 . S
C182 C183 1.396 . S
C183 C165 1.472 . S
C183 C182 1.396 . S
C183 C184 1.348 . S
C184 H147 0.929 . S
C184 C183 1.348 . S
C184 C185 1.443 . S
C185 H149 0.932 . S
C185 C180 1.388 . S
C185 C184 1.443 . S
H186 C213 0.929 . S
N187 C212 1.433 . S
N187 C218 1.435 . S
N187 C224 1.423 . S
H188 C214 0.930 . S
H189 C217 0.931 . S
H190 C216 0.929 . S
H191 C219 0.930 . S
H192 C220 0.932 . S
H193 C223 0.929 . S
H194 C222 0.931 . S
H195 C225 0.929 . S
H196 C229 0.932 . S
H197 C226 0.931 . S
H198 C228 0.929 . S
H199 C231 0.929 . S
H200 C232 0.930 . S
H201 C234 0.929 . S
H202 C235 0.931 . S
H203 C237 0.930 . S
H204 C238 0.932 . S
H205 C240 0.931 . S
H206 C241 0.929 . S
H207 C243 0.929 . S
H208 C244 0.931 1_565 S
H209 C246 0.929 . S
N210 C230 1.433 . S
N210 C236 1.435 . S
N210 C242 1.423 . S
H211 C247 0.932 . S
C212 N187 1.433 . S
C212 C213 1.363 . S
C212 C217 1.370 . S
C213 H186 0.929 . S
C213 C212 1.363 . S
C213 C214 1.385 . S
C214 H188 0.930 . S
C214 C213 1.385 . S
C214 C215 1.357 . S
C215 C214 1.357 . S
C215 C216 1.406 . S
C216 H190 0.929 . S
C216 C215 1.406 . S
C216 C217 1.391 . S
C217 H189 0.931 . S
C217 C212 1.370 . S
C217 C216 1.391 . S
C218 N187 1.435 . S
C218 C219 1.358 . S
C218 C223 1.371 . S
C219 H191 0.930 . S
C219 C218 1.358 . S
C219 C220 1.405 . S
C220 H192 0.932 . S
C220 C219 1.405 . S
C220 C221 1.383 . S
C221 C220 1.383 . S
C221 C222 1.393 . S
C222 H194 0.931 . S
C222 C221 1.393 . S
C222 C223 1.382 . S
C223 H193 0.929 . S
C223 C218 1.371 . S
C223 C222 1.382 . S
C224 N187 1.423 . S
C224 C225 1.362 . S
C224 C229 1.388 . S
C225 H195 0.929 . S
C225 C224 1.362 . S
C225 C226 1.376 . S
C226 H197 0.931 . S
C226 C225 1.376 . S
C226 C227 1.396 . S
C227 C226 1.396 . S
C227 C228 1.348 . S
C227 C245 1.472 1_565 S
C228 H198 0.929 . S
C228 C227 1.348 . S
C228 C229 1.443 . S
C229 H196 0.932 . S
C229 C224 1.388 . S
C229 C228 1.443 . S
C230 N210 1.433 . S
C230 C231 1.363 . S
C230 C235 1.370 . S
C231 H199 0.929 . S
C231 C230 1.363 . S
C231 C232 1.385 . S
C232 H200 0.930 . S
C232 C231 1.385 . S
C232 C233 1.357 . S
C233 C232 1.357 . S
C233 C234 1.406 . S
C234 H201 0.929 . S
C234 C233 1.406 . S
C234 C235 1.391 . S
C235 H202 0.931 . S
C235 C230 1.370 . S
C235 C234 1.391 . S
C236 N210 1.435 . S
C236 C237 1.358 . S
C236 C241 1.371 . S
C237 H203 0.930 . S
C237 C236 1.358 . S
C237 C238 1.405 . S
C238 H204 0.932 . S
C238 C237 1.405 . S
C238 C239 1.383 . S
C239 C238 1.383 . S
C239 C240 1.393 . S
C240 H205 0.931 . S
C240 C239 1.393 . S
C240 C241 1.382 . S
C241 H206 0.929 . S
C241 C236 1.371 . S
C241 C240 1.382 . S
C242 N210 1.423 . S
C242 C243 1.362 . S
C242 C247 1.388 . S
C243 H207 0.929 . S
C243 C242 1.362 . S
C243 C244 1.376 . S
C244 H208 0.931 1_545 S
C244 C243 1.376 . S
C244 C245 1.396 . S
C245 C227 1.472 1_545 S
C245 C244 1.396 . S
C245 C246 1.348 . S
C246 H209 0.929 . S
C246 C245 1.348 . S
C246 C247 1.443 . S
C247 H211 0.932 . S
C247 C242 1.388 . S
C247 C246 1.443 . S
H248 C275 0.929 . S
N249 C274 1.433 . S
N249 C280 1.435 . S
N249 C286 1.423 . S
H250 C276 0.930 . S
H251 C279 0.931 . S
H252 C278 0.929 . S
H253 C281 0.930 . S
H254 C282 0.932 . S
H255 C285 0.929 . S
H256 C284 0.931 . S
H257 C287 0.929 . S
H258 C291 0.932 . S
H259 C288 0.931 . S
H260 C290 0.929 . S
H261 C293 0.929 . S
H262 C294 0.930 . S
H263 C296 0.929 . S
H264 C297 0.931 . S
H265 C299 0.930 . S
H266 C300 0.932 . S
H267 C302 0.931 . S
H268 C303 0.929 . S
H269 C305 0.929 . S
H270 C306 0.931 1_455 S
H271 C308 0.929 . S
N272 C292 1.433 . S
N272 C298 1.435 . S
N272 C304 1.423 . S
H273 C309 0.932 . S
C274 N249 1.433 . S
C274 C275 1.363 . S
C274 C279 1.370 . S
C275 H248 0.929 . S
C275 C274 1.363 . S
C275 C276 1.385 . S
C276 H250 0.930 . S
C276 C275 1.385 . S
C276 C277 1.357 . S
C277 C276 1.357 . S
C277 C278 1.406 . S
C278 H252 0.929 . S
C278 C277 1.406 . S
C278 C279 1.391 . S
C279 H251 0.931 . S
C279 C274 1.370 . S
C279 C278 1.391 . S
C280 N249 1.435 . S
C280 C281 1.358 . S
C280 C285 1.371 . S
C281 H253 0.930 . S
C281 C280 1.358 . S
C281 C282 1.405 . S
C282 H254 0.932 . S
C282 C281 1.405 . S
C282 C283 1.383 . S
C283 C282 1.383 . S
C283 C284 1.393 . S
C284 H256 0.931 . S
C284 C283 1.393 . S
C284 C285 1.382 . S
C285 H255 0.929 . S
C285 C280 1.371 . S
C285 C284 1.382 . S
C286 N249 1.423 . S
C286 C287 1.362 . S
C286 C291 1.388 . S
C287 H257 0.929 . S
C287 C286 1.362 . S
C287 C288 1.376 . S
C288 H259 0.931 . S
C288 C287 1.376 . S
C288 C289 1.396 . S
C289 C288 1.396 . S
C289 C290 1.348 . S
C289 C307 1.472 . S
C290 H260 0.929 . S
C290 C289 1.348 . S
C290 C291 1.443 . S
C291 H258 0.932 . S
C291 C286 1.388 . S
C291 C290 1.443 . S
C292 N272 1.433 . S
C292 C293 1.363 . S
C292 C297 1.370 . S
C293 H261 0.929 . S
C293 C292 1.363 . S
C293 C294 1.385 . S
C294 H262 0.930 . S
C294 C293 1.385 . S
C294 C295 1.357 . S
C295 C294 1.357 . S
C295 C296 1.406 . S
C296 H263 0.929 . S
C296 C295 1.406 . S
C296 C297 1.391 . S
C297 H264 0.931 . S
C297 C292 1.370 . S
C297 C296 1.391 . S
C298 N272 1.435 . S
C298 C299 1.358 . S
C298 C303 1.371 . S
C299 H265 0.930 . S
C299 C298 1.358 . S
C299 C300 1.405 . S
C300 H266 0.932 . S
C300 C299 1.405 . S
C300 C301 1.383 . S
C301 C300 1.383 . S
C301 C302 1.393 . S
C302 H267 0.931 . S
C302 C301 1.393 . S
C302 C303 1.382 . S
C303 H268 0.929 . S
C303 C298 1.371 . S
C303 C302 1.382 . S
C304 N272 1.423 . S
C304 C305 1.362 . S
C304 C309 1.388 . S
C305 H269 0.929 . S
C305 C304 1.362 . S
C305 C306 1.376 . S
C306 H270 0.931 1_655 S
C306 C305 1.376 . S
C306 C307 1.396 1_655 S
C307 C289 1.472 . S
C307 C306 1.396 1_455 S
C307 C308 1.348 1_455 S
C308 H271 0.929 . S
C308 C307 1.348 1_655 S
C308 C309 1.443 . S
C309 H273 0.932 . S
C309 C304 1.388 . S
C309 C308 1.443 . S
H310 C337 0.929 . S
N311 C336 1.433 . S
N311 C342 1.435 . S
N311 C348 1.423 . S
H312 C338 0.930 . S
H313 C341 0.931 . S
H314 C340 0.929 . S
H315 C343 0.930 . S
H316 C344 0.932 . S
H317 C347 0.929 . S
H318 C346 0.931 . S
H319 C349 0.929 . S
H320 C353 0.932 . S
H321 C350 0.931 . S
H322 C352 0.929 . S
H323 C355 0.929 . S
H324 C356 0.930 . S
H325 C358 0.929 . S
H326 C359 0.931 . S
H327 C361 0.930 . S
H328 C362 0.932 . S
H329 C364 0.931 . S
H330 C365 0.929 . S
H331 C367 0.929 . S
H332 C368 0.931 . S
H333 C370 0.929 . S
N334 C354 1.433 . S
N334 C360 1.435 . S
N334 C366 1.423 . S
H335 C371 0.932 . S
C336 N311 1.433 . S
C336 C337 1.363 . S
C336 C341 1.370 . S
C337 H310 0.929 . S
C337 C336 1.363 . S
C337 C338 1.385 . S
C338 H312 0.930 . S
C338 C337 1.385 . S
C338 C339 1.357 . S
C339 C338 1.357 . S
C339 C340 1.406 . S
C340 H314 0.929 . S
C340 C339 1.406 . S
C340 C341 1.391 . S
C341 H313 0.931 . S
C341 C336 1.370 . S
C341 C340 1.391 . S
C342 N311 1.435 . S
C342 C343 1.358 . S
C342 C347 1.371 . S
C343 H315 0.930 . S
C343 C342 1.358 . S
C343 C344 1.405 . S
C344 H316 0.932 . S
C344 C343 1.405 . S
C344 C345 1.383 . S
C345 C344 1.383 . S
C345 C346 1.393 . S
C346 H318 0.931 . S
C346 C345 1.393 . S
C346 C347 1.382 . S
C347 H317 0.929 . S
C347 C342 1.371 . S
C347 C346 1.382 . S
C348 N311 1.423 . S
C348 C349 1.362 . S
C348 C353 1.388 . S
C349 H319 0.929 . S
C349 C348 1.362 . S
C349 C350 1.376 . S
C350 H321 0.931 . S
C350 C349 1.376 . S
C350 C351 1.396 . S
C351 C350 1.396 . S
C351 C352 1.348 . S
C351 C369 1.472 . S
C352 H322 0.929 . S
C352 C351 1.348 . S
C352 C353 1.443 . S
C353 H320 0.932 . S
C353 C348 1.388 . S
C353 C352 1.443 . S
C354 N334 1.433 . S
C354 C355 1.363 . S
C354 C359 1.370 . S
C355 H323 0.929 . S
C355 C354 1.363 . S
C355 C356 1.385 . S
C356 H324 0.930 . S
C356 C355 1.385 . S
C356 C357 1.357 . S
C357 C356 1.357 . S
C357 C358 1.406 . S
C358 H325 0.929 . S
C358 C357 1.406 . S
C358 C359 1.391 . S
C359 H326 0.931 . S
C359 C354 1.370 . S
C359 C358 1.391 . S
C360 N334 1.435 . S
C360 C361 1.358 . S
C360 C365 1.371 . S
C361 H327 0.930 . S
C361 C360 1.358 . S
C361 C362 1.405 . S
C362 H328 0.932 . S
C362 C361 1.405 . S
C362 C363 1.383 . S
C363 C362 1.383 . S
C363 C364 1.393 . S
C364 H329 0.931 . S
C364 C363 1.393 . S
C364 C365 1.382 . S
C365 H330 0.929 . S
C365 C360 1.371 . S
C365 C364 1.382 . S
C366 N334 1.423 . S
C366 C367 1.362 . S
C366 C371 1.388 . S
C367 H331 0.929 . S
C367 C366 1.362 . S
C367 C368 1.376 . S
C368 H332 0.931 . S
C368 C367 1.376 . S
C368 C369 1.396 . S
C369 C351 1.472 . S
C369 C368 1.396 . S
C369 C370 1.348 . S
C370 H333 0.929 . S
C370 C369 1.348 . S
C370 C371 1.443 . S
C371 H335 0.932 . S
C371 C366 1.388 . S
C371 C370 1.443 . S
H372 C399 0.929 . S
N373 C398 1.433 . S
N373 C404 1.435 . S
N373 C410 1.423 . S
H374 C400 0.930 . S
H375 C403 0.931 . S
H376 C402 0.929 . S
H377 C405 0.930 . S
H378 C406 0.932 . S
H379 C409 0.929 . S
H380 C408 0.931 . S
H381 C411 0.929 . S
H382 C415 0.932 . S
H383 C412 0.931 . S
H384 C414 0.929 . S
H385 C417 0.929 . S
H386 C418 0.930 . S
H387 C420 0.929 . S
H388 C421 0.931 . S
H389 C423 0.930 . S
H390 C424 0.932 . S
H391 C426 0.931 . S
H392 C427 0.929 . S
H393 C429 0.929 . S
H394 C430 0.931 . S
H395 C432 0.929 . S
N396 C416 1.433 . S
N396 C422 1.435 . S
N396 C428 1.423 . S
H397 C433 0.932 . S
C398 N373 1.433 . S
C398 C399 1.363 . S
C398 C403 1.370 . S
C399 H372 0.929 . S
C399 C398 1.363 . S
C399 C400 1.385 . S
C400 H374 0.930 . S
C400 C399 1.385 . S
C400 C401 1.357 . S
C401 C400 1.357 . S
C401 C402 1.406 . S
C402 H376 0.929 . S
C402 C401 1.406 . S
C402 C403 1.391 . S
C403 H375 0.931 . S
C403 C398 1.370 . S
C403 C402 1.391 . S
C404 N373 1.435 . S
C404 C405 1.358 . S
C404 C409 1.371 . S
C405 H377 0.930 . S
C405 C404 1.358 . S
C405 C406 1.405 . S
C406 H378 0.932 . S
C406 C405 1.405 . S
C406 C407 1.383 . S
C407 C406 1.383 . S
C407 C408 1.393 . S
C408 H380 0.931 . S
C408 C407 1.393 . S
C408 C409 1.382 . S
C409 H379 0.929 . S
C409 C404 1.371 . S
C409 C408 1.382 . S
C410 N373 1.423 . S
C410 C411 1.362 . S
C410 C415 1.388 . S
C411 H381 0.929 . S
C411 C410 1.362 . S
C411 C412 1.376 1_565 S
C412 H383 0.931 . S
C412 C411 1.376 1_545 S
C412 C413 1.396 . S
C413 C412 1.396 . S
C413 C414 1.348 1_545 S
C413 C431 1.472 . S
C414 H384 0.929 . S
C414 C413 1.348 1_565 S
C414 C415 1.443 . S
C415 H382 0.932 . S
C415 C410 1.388 . S
C415 C414 1.443 . S
C416 N396 1.433 . S
C416 C417 1.363 . S
C416 C421 1.370 . S
C417 H385 0.929 . S
C417 C416 1.363 . S
C417 C418 1.385 . S
C418 H386 0.930 . S
C418 C417 1.385 . S
C418 C419 1.357 . S
C419 C418 1.357 . S
C419 C420 1.406 . S
C420 H387 0.929 . S
C420 C419 1.406 . S
C420 C421 1.391 . S
C421 H388 0.931 . S
C421 C416 1.370 . S
C421 C420 1.391 . S
C422 N396 1.435 . S
C422 C423 1.358 . S
C422 C427 1.371 . S
C423 H389 0.930 . S
C423 C422 1.358 . S
C423 C424 1.405 . S
C424 H390 0.932 . S
C424 C423 1.405 . S
C424 C425 1.383 . S
C425 C424 1.383 . S
C425 C426 1.393 . S
C426 H391 0.931 . S
C426 C425 1.393 . S
C426 C427 1.382 . S
C427 H392 0.929 . S
C427 C422 1.371 . S
C427 C426 1.382 . S
C428 N396 1.423 . S
C428 C429 1.362 . S
C428 C433 1.388 . S
C429 H393 0.929 . S
C429 C428 1.362 . S
C429 C430 1.376 . S
C430 H394 0.931 . S
C430 C429 1.376 . S
C430 C431 1.396 . S
C431 C413 1.472 . S
C431 C430 1.396 . S
C431 C432 1.348 . S
C432 H395 0.929 . S
C432 C431 1.348 . S
C432 C433 1.443 . S
C433 H397 0.932 . S
C433 C428 1.388 . S
C433 C432 1.443 . S
H434 C461 0.929 . S
N435 C460 1.433 . S
N435 C466 1.435 . S
N435 C472 1.423 . S
H436 C462 0.930 . S
H437 C465 0.931 . S
H438 C464 0.929 . S
H439 C467 0.930 . S
H440 C468 0.932 . S
H441 C471 0.929 . S
H442 C470 0.931 . S
H443 C473 0.929 . S
H444 C477 0.932 . S
H445 C474 0.931 . S
H446 C476 0.929 . S
H447 C479 0.929 . S
H448 C480 0.930 . S
H449 C482 0.929 . S
H450 C483 0.931 . S
H451 C485 0.930 . S
H452 C486 0.932 . S
H453 C488 0.931 . S
H454 C489 0.929 . S
H455 C491 0.929 . S
H456 C492 0.931 1_565 S
H457 C494 0.929 . S
N458 C478 1.433 . S
N458 C484 1.435 . S
N458 C490 1.423 . S
H459 C495 0.932 . S
C460 N435 1.433 . S
C460 C461 1.363 . S
C460 C465 1.370 . S
C461 H434 0.929 . S
C461 C460 1.363 . S
C461 C462 1.385 . S
C462 H436 0.930 . S
C462 C461 1.385 . S
C462 C463 1.357 . S
C463 C462 1.357 . S
C463 C464 1.406 . S
C464 H438 0.929 . S
C464 C463 1.406 . S
C464 C465 1.391 . S
C465 H437 0.931 . S
C465 C460 1.370 . S
C465 C464 1.391 . S
C466 N435 1.435 . S
C466 C467 1.358 . S
C466 C471 1.371 . S
C467 H439 0.930 . S
C467 C466 1.358 . S
C467 C468 1.405 . S
C468 H440 0.932 . S
C468 C467 1.405 . S
C468 C469 1.383 . S
C469 C468 1.383 . S
C469 C470 1.393 . S
C470 H442 0.931 . S
C470 C469 1.393 . S
C470 C471 1.382 . S
C471 H441 0.929 . S
C471 C466 1.371 . S
C471 C470 1.382 . S
C472 N435 1.423 . S
C472 C473 1.362 . S
C472 C477 1.388 . S
C473 H443 0.929 . S
C473 C472 1.362 . S
C473 C474 1.376 1_455 S
C474 H445 0.931 . S
C474 C473 1.376 1_655 S
C474 C475 1.396 . S
C475 C474 1.396 . S
C475 C476 1.348 1_655 S
C475 C493 1.467 1_565 S
C476 H446 0.929 . S
C476 C475 1.348 1_455 S
C476 C477 1.443 . S
C477 H444 0.932 . S
C477 C472 1.388 . S
C477 C476 1.443 . S
C478 N458 1.433 . S
C478 C479 1.363 . S
C478 C483 1.370 . S
C479 H447 0.929 . S
C479 C478 1.363 . S
C479 C480 1.385 . S
C480 H448 0.930 . S
C480 C479 1.385 . S
C480 C481 1.357 . S
C481 C480 1.357 . S
C481 C482 1.406 . S
C482 H449 0.929 . S
C482 C481 1.406 . S
C482 C483 1.391 . S
C483 H450 0.931 . S
C483 C478 1.370 . S
C483 C482 1.391 . S
C484 N458 1.435 . S
C484 C485 1.358 . S
C484 C489 1.371 . S
C485 H451 0.930 . S
C485 C484 1.358 . S
C485 C486 1.405 . S
C486 H452 0.932 . S
C486 C485 1.405 . S
C486 C487 1.383 . S
C487 C486 1.383 . S
C487 C488 1.393 . S
C488 H453 0.931 . S
C488 C487 1.393 . S
C488 C489 1.382 . S
C489 H454 0.929 . S
C489 C484 1.371 . S
C489 C488 1.382 . S
C490 N458 1.423 . S
C490 C491 1.362 . S
C490 C495 1.388 . S
C491 H455 0.929 . S
C491 C490 1.362 . S
C491 C492 1.376 . S
C492 H456 0.931 1_545 S
C492 C491 1.376 . S
C492 C493 1.397 . S
C493 C475 1.467 1_545 S
C493 C492 1.397 . S
C493 C494 1.353 . S
C494 H457 0.929 . S
C494 C493 1.353 . S
C494 C495 1.443 . S
C495 H459 0.932 . S
C495 C490 1.388 . S
C495 C494 1.443 . S
In496 O497 2.306 . S
In496 O498 2.339 . S
In496 O502 2.255 1_554 S
In496 O503 2.315 1_554 S
In496 O504 2.235 1_554 S
In496 O505 2.278 1_554 S
In496 O507 2.326 . S
In496 O508 2.374 . S
O497 In496 2.306 . S
O497 C506 1.240 . S
O498 In496 2.339 . S
O498 C506 1.252 . S
C499 O502 1.252 . S
C499 O503 1.260 . S
C500 O507 1.240 . S
C500 O508 1.252 . S
C501 O504 1.252 . S
C501 O505 1.260 . S
O502 In496 2.255 1_556 S
O502 C499 1.252 . S
O503 In496 2.315 1_556 S
O503 C499 1.260 . S
O504 In496 2.235 1_556 S
O504 C501 1.252 . S
O505 In496 2.278 1_556 S
O505 C501 1.260 . S
C506 O497 1.240 . S
C506 O498 1.252 . S
O507 In496 2.326 . S
O507 C500 1.240 . S
O508 In496 2.374 . S
O508 C500 1.252 . S
In509 O510 2.294 . S
In509 O511 2.326 . S
In509 O515 2.266 . S
In509 O516 2.326 . S
In509 O517 2.266 . S
In509 O518 2.326 . S
In509 O520 2.294 . S
In509 O521 2.326 . S
O510 In509 2.294 . S
O510 C519 1.240 . S
O511 In509 2.326 . S
O511 C519 1.252 . S
C512 O515 1.252 . S
C512 O516 1.260 . S
C513 O520 1.240 . S
C513 O521 1.252 . S
C514 O517 1.252 . S
C514 O518 1.260 . S
O515 In509 2.266 . S
O515 C512 1.252 . S
O516 In509 2.326 . S
O516 C512 1.260 . S
O517 In509 2.266 . S
O517 C514 1.252 . S
O518 In509 2.326 . S
O518 C514 1.260 . S
C519 O510 1.240 . S
C519 O511 1.252 . S
O520 In509 2.294 . S
O520 C513 1.240 . S
O521 In509 2.326 . S
O521 C513 1.252 . S
In522 O523 2.294 . S
In522 O524 2.326 . S
In522 O528 2.266 . S
In522 O529 2.326 . S
In522 O530 2.266 . S
In522 O531 2.326 . S
In522 O533 2.294 . S
In522 O534 2.326 . S
O523 In522 2.294 . S
O523 C532 1.240 . S
O524 In522 2.326 . S
O524 C532 1.252 . S
C525 O528 1.252 . S
C525 O529 1.260 . S
C526 O533 1.240 . S
C526 O534 1.252 . S
C527 O530 1.252 . S
C527 O531 1.260 . S
O528 In522 2.266 . S
O528 C525 1.252 . S
O529 In522 2.326 . S
O529 C525 1.260 . S
O530 In522 2.266 . S
O530 C527 1.252 . S
O531 In522 2.326 . S
O531 C527 1.260 . S
C532 O523 1.240 . S
C532 O524 1.252 . S
O533 In522 2.294 . S
O533 C526 1.240 . S
O534 In522 2.326 . S
O534 C526 1.252 . S
In535 O536 2.294 . S
In535 O537 2.326 . S
In535 O541 2.266 . S
In535 O542 2.326 . S
In535 O543 2.266 . S
In535 O544 2.326 . S
In535 O546 2.294 . S
In535 O547 2.326 . S
O536 In535 2.294 . S
O536 C545 1.240 . S
O537 In535 2.326 . S
O537 C545 1.252 . S
C538 O541 1.252 . S
C538 O542 1.260 . S
C539 O546 1.240 . S
C539 O547 1.252 . S
C540 O543 1.252 . S
C540 O544 1.260 . S
O541 In535 2.266 . S
O541 C538 1.252 . S
O542 In535 2.326 . S
O542 C538 1.260 . S
O543 In535 2.266 . S
O543 C540 1.252 . S
O544 In535 2.326 . S
O544 C540 1.260 . S
C545 O536 1.240 . S
C545 O537 1.252 . S
O546 In535 2.294 . S
O546 C539 1.240 . S
O547 In535 2.326 . S
O547 C539 1.252 . S
In548 O549 2.294 . S
In548 O550 2.326 . S
In548 O554 2.266 . S
In548 O555 2.326 . S
In548 O556 2.266 . S
In548 O557 2.326 . S
In548 O559 2.294 . S
In548 O560 2.326 . S
O549 In548 2.294 . S
O549 C558 1.240 . S
O550 In548 2.326 . S
O550 C558 1.252 . S
C551 O554 1.252 . S
C551 O555 1.260 . S
C552 O559 1.240 . S
C552 O560 1.252 . S
C553 O556 1.252 . S
C553 O557 1.260 . S
O554 In548 2.266 . S
O554 C551 1.252 . S
O555 In548 2.326 . S
O555 C551 1.260 . S
O556 In548 2.266 . S
O556 C553 1.252 . S
O557 In548 2.326 . S
O557 C553 1.260 . S
C558 O549 1.240 . S
C558 O550 1.252 . S
O559 In548 2.294 . S
O559 C552 1.240 . S
O560 In548 2.326 . S
O560 C552 1.252 . S
In561 O562 2.294 . S
In561 O563 2.326 . S
In561 O567 2.266 . S
In561 O568 2.326 . S
In561 O569 2.266 . S
In561 O570 2.326 . S
In561 O572 2.294 . S
In561 O573 2.326 . S
O562 In561 2.294 . S
O562 C571 1.240 . S
O563 In561 2.326 . S
O563 C571 1.252 . S
C564 O567 1.252 . S
C564 O568 1.260 . S
C565 O572 1.240 . S
C565 O573 1.252 . S
C566 O569 1.252 . S
C566 O570 1.260 . S
O567 In561 2.266 . S
O567 C564 1.252 . S
O568 In561 2.326 . S
O568 C564 1.260 . S
O569 In561 2.266 . S
O569 C566 1.252 . S
O570 In561 2.326 . S
O570 C566 1.260 . S
C571 O562 1.240 . S
C571 O563 1.252 . S
O572 In561 2.294 . S
O572 C565 1.240 . S
O573 In561 2.326 . S
O573 C565 1.252 . S
In574 O575 2.306 . S
In574 O576 2.340 . S
In574 O580 2.255 1_554 S
In574 O581 2.314 1_554 S
In574 O582 2.234 1_554 S
In574 O583 2.277 1_554 S
In574 O585 2.326 . S
In574 O586 2.375 . S
O575 In574 2.306 . S
O575 C584 1.240 . S
O576 In574 2.340 . S
O576 C584 1.252 . S
C577 O580 1.252 . S
C577 O581 1.260 . S
C578 O585 1.240 . S
C578 O586 1.252 . S
C579 O582 1.252 . S
C579 O583 1.260 . S
O580 In574 2.255 1_556 S
O580 C577 1.252 . S
O581 In574 2.314 1_556 S
O581 C577 1.260 . S
O582 In574 2.234 1_556 S
O582 C579 1.252 . S
O583 In574 2.277 1_556 S
O583 C579 1.260 . S
C584 O575 1.240 . S
C584 O576 1.252 . S
O585 In574 2.326 . S
O585 C578 1.240 . S
O586 In574 2.375 . S
O586 C578 1.252 . S
In587 O588 2.294 . S
In587 O589 2.326 . S
In587 O593 2.266 . S
In587 O594 2.326 . S
In587 O595 2.266 . S
In587 O596 2.326 . S
In587 O598 2.294 . S
In587 O599 2.326 . S
O588 In587 2.294 . S
O588 C597 1.240 . S
O589 In587 2.326 . S
O589 C597 1.252 . S
C590 O593 1.252 . S
C590 O594 1.260 . S
C591 O598 1.240 . S
C591 O599 1.252 . S
C592 O595 1.252 . S
C592 O596 1.260 . S
O593 In587 2.266 . S
O593 C590 1.252 . S
O594 In587 2.326 . S
O594 C590 1.260 . S
O595 In587 2.266 . S
O595 C592 1.252 . S
O596 In587 2.326 . S
O596 C592 1.260 . S
C597 O588 1.240 . S
C597 O589 1.252 . S
O598 In587 2.294 . S
O598 C591 1.240 . S
O599 In587 2.326 . S
O599 C591 1.252 . S
C600 C601 1.387 . S
C600 H604 0.950 . S
C600 C609 1.390 . S
C601 C600 1.387 . S
C601 C603 1.387 . S
H602 C609 0.950 . S
C603 C601 1.387 . S
C603 C605 1.390 . S
C603 H607 0.950 . S
H604 C600 0.950 . S
C605 C603 1.390 . S
C605 C606 1.387 . S
C605 H608 0.950 . S
C606 C605 1.387 . S
C606 C609 1.387 . S
H607 C603 0.950 . S
H608 C605 0.950 . S
C609 C600 1.390 . S
C609 H602 0.950 . S
C609 C606 1.387 . S
C610 C611 1.387 . S
C610 H614 0.950 . S
C610 C619 1.390 . S
C611 C610 1.387 . S
C611 C613 1.387 . S
H612 C619 0.950 . S
C613 C611 1.387 . S
C613 C615 1.390 . S
C613 H617 0.950 . S
H614 C610 0.950 . S
C615 C613 1.390 . S
C615 C616 1.387 . S
C615 H618 0.950 . S
C616 C615 1.387 . S
C616 C619 1.387 . S
H617 C613 0.950 . S
H618 C615 0.950 . S
C619 C610 1.390 . S
C619 H612 0.950 . S
C619 C616 1.387 . S
C620 C621 1.387 . S
C620 H624 0.950 . S
C620 C629 1.390 . S
C621 C620 1.387 . S
C621 C623 1.387 . S
H622 C629 0.950 . S
C623 C621 1.387 . S
C623 C625 1.390 . S
C623 H627 0.950 . S
H624 C620 0.950 . S
C625 C623 1.390 . S
C625 C626 1.387 . S
C625 H628 0.950 . S
C626 C625 1.387 . S
C626 C629 1.387 . S
H627 C623 0.950 . S
H628 C625 0.950 . S
C629 C620 1.390 . S
C629 H622 0.950 . S
C629 C626 1.387 . S
C630 C631 1.387 . S
C630 H634 0.950 . S
C630 C639 1.390 . S
C631 C630 1.387 . S
C631 C633 1.387 . S
H632 C639 0.950 . S
C633 C631 1.387 . S
C633 C635 1.390 . S
C633 H637 0.950 . S
H634 C630 0.950 . S
C635 C633 1.390 . S
C635 C636 1.387 . S
C635 H638 0.950 . S
C636 C635 1.387 . S
C636 C639 1.387 . S
H637 C633 0.950 . S
H638 C635 0.950 . S
C639 C630 1.390 . S
C639 H632 0.950 . S
C639 C636 1.387 . S
C640 C641 1.360 1_554 S
C640 H644 0.975 . S
C640 C649 1.393 . S
C641 C640 1.360 1_556 S
C641 C643 1.387 . S
H642 C649 0.950 . S
C643 C641 1.387 . S
C643 C645 1.390 . S
C643 H647 0.950 . S
H644 C640 0.975 . S
C645 C643 1.390 . S
C645 C646 1.387 . S
C645 H648 0.950 . S
C646 C645 1.387 . S
C646 C649 1.387 1_556 S
H647 C643 0.950 . S
H648 C645 0.950 . S
C649 C640 1.393 . S
C649 H642 0.950 . S
C649 C646 1.387 1_554 S
C650 C651 1.387 . S
C650 H654 0.950 . S
C650 C659 1.390 . S
C651 C650 1.387 . S
C651 C653 1.387 . S
H652 C659 0.950 . S
C653 C651 1.387 . S
C653 C655 1.390 . S
C653 H657 0.950 . S
H654 C650 0.950 . S
C655 C653 1.390 . S
C655 C656 1.387 . S
C655 H658 0.950 . S
C656 C655 1.387 . S
C656 C659 1.387 . S
H657 C653 0.950 . S
H658 C655 0.950 . S
C659 C650 1.390 . S
C659 H652 0.950 . S
C659 C656 1.387 . S
C660 C661 1.387 . S
C660 H664 0.950 . S
C660 C669 1.390 . S
C661 C660 1.387 . S
C661 C663 1.387 . S
H662 C669 0.950 . S
C663 C661 1.387 . S
C663 C665 1.390 . S
C663 H667 0.950 . S
H664 C660 0.950 . S
C665 C663 1.390 . S
C665 C666 1.387 . S
C665 H668 0.950 . S
C666 C665 1.387 . S
C666 C669 1.387 . S
H667 C663 0.950 . S
H668 C665 0.950 . S
C669 C660 1.390 . S
C669 H662 0.950 . S
C669 C666 1.387 . S
C670 C671 1.387 . S
C670 H674 0.950 . S
C670 C679 1.390 . S
C671 C670 1.387 . S
C671 C673 1.387 . S
H672 C679 0.950 . S
C673 C671 1.387 . S
C673 C675 1.390 . S
C673 H677 0.950 . S
H674 C670 0.950 . S
C675 C673 1.390 . S
C675 C676 1.387 . S
C675 H678 0.950 . S
C676 C675 1.387 . S
C676 C679 1.387 . S
H677 C673 0.950 . S
H678 C675 0.950 . S
C679 C670 1.390 . S
C679 H672 0.950 . S
C679 C676 1.387 . S
C680 C681 1.387 . S
C680 H684 0.950 . S
C680 C689 1.390 . S
C681 C680 1.387 . S
C681 C683 1.387 . S
H682 C689 0.950 . S
C683 C681 1.387 . S
C683 C685 1.390 . S
C683 H687 0.950 . S
H684 C680 0.950 . S
C685 C683 1.390 . S
C685 C686 1.387 . S
C685 H688 0.950 . S
C686 C685 1.387 . S
C686 C689 1.387 . S
H687 C683 0.950 . S
H688 C685 0.950 . S
C689 C680 1.390 . S
C689 H682 0.950 . S
C689 C686 1.387 . S
C690 C691 1.369 1_556 S
C690 H694 0.966 . S
C690 C699 1.392 . S
C691 C690 1.369 1_554 S
C691 C693 1.387 . S
H692 C699 0.950 . S
C693 C691 1.387 . S
C693 C695 1.390 . S
C693 H697 0.950 . S
H694 C690 0.966 . S
C695 C693 1.390 . S
C695 C696 1.387 . S
C695 H698 0.950 . S
C696 C695 1.387 . S
C696 C699 1.387 1_554 S
H697 C693 0.950 . S
H698 C695 0.950 . S
C699 C690 1.392 . S
C699 H692 0.950 . S
C699 C696 1.387 1_556 S
C700 C701 1.387 . S
C700 H704 0.950 . S
C700 C709 1.390 . S
C701 C700 1.387 . S
C701 C703 1.387 . S
H702 C709 0.950 . S
C703 C701 1.387 . S
C703 C705 1.390 . S
C703 H707 0.950 . S
H704 C700 0.950 . S
C705 C703 1.390 . S
C705 C706 1.387 . S
C705 H708 0.950 . S
C706 C705 1.387 . S
C706 C709 1.387 . S
H707 C703 0.950 . S
H708 C705 0.950 . S
C709 C700 1.390 . S
C709 H702 0.950 . S
C709 C706 1.387 . S
C710 C711 1.387 . S
C710 H714 0.950 . S
C710 C719 1.390 . S
C711 C710 1.387 . S
C711 C713 1.387 . S
H712 C719 0.950 . S
C713 C711 1.387 . S
C713 C715 1.390 . S
C713 H717 0.950 . S
H714 C710 0.950 . S
C715 C713 1.390 . S
C715 C716 1.387 . S
C715 H718 0.950 . S
C716 C715 1.387 . S
C716 C719 1.387 . S
H717 C713 0.950 . S
H718 C715 0.950 . S
C719 C710 1.390 . S
C719 H712 0.950 . S
C719 C716 1.387 . S
C720 C721 1.387 . S
C720 H724 0.950 . S
C720 C729 1.390 . S
C721 C720 1.387 . S
C721 C723 1.387 . S
H722 C729 0.950 . S
C723 C721 1.387 . S
C723 C725 1.390 . S
C723 H727 0.950 . S
H724 C720 0.950 . S
C725 C723 1.390 . S
C725 C726 1.387 . S
C725 H728 0.950 . S
C726 C725 1.387 . S
C726 C729 1.387 . S
H727 C723 0.950 . S
H728 C725 0.950 . S
C729 C720 1.390 . S
C729 H722 0.950 . S
C729 C726 1.387 . S
C730 C731 1.387 . S
C730 H734 0.950 . S
C730 C739 1.390 . S
C731 C730 1.387 . S
C731 C733 1.387 . S
H732 C739 0.950 . S
C733 C731 1.387 . S
C733 C735 1.390 . S
C733 H737 0.950 . S
H734 C730 0.950 . S
C735 C733 1.390 . S
C735 C736 1.387 . S
C735 H738 0.950 . S
C736 C735 1.387 . S
C736 C739 1.387 . S
H737 C733 0.950 . S
H738 C735 0.950 . S
C739 C730 1.390 . S
C739 H732 0.950 . S
C739 C736 1.387 . S
C740 C741 1.387 1_554 S
C740 H744 0.950 . S
C740 C749 1.390 . S
C741 C740 1.387 1_556 S
C741 C743 1.387 . S
H742 C749 0.950 . S
C743 C741 1.387 . S
C743 C745 1.390 . S
C743 H747 0.950 . S
H744 C740 0.950 . S
C745 C743 1.390 . S
C745 C746 1.387 . S
C745 H748 0.950 . S
C746 C745 1.387 . S
C746 C749 1.387 1_556 S
H747 C743 0.950 . S
H748 C745 0.950 . S
C749 C740 1.390 . S
C749 H742 0.950 . S
C749 C746 1.387 1_554 S
C750 C751 1.387 . S
C750 H754 0.950 . S
C750 C759 1.390 . S
C751 C750 1.387 . S
C751 C753 1.387 . S
H752 C759 0.950 . S
C753 C751 1.387 . S
C753 C755 1.390 . S
C753 H757 0.950 . S
H754 C750 0.950 . S
C755 C753 1.390 . S
C755 C756 1.387 . S
C755 H758 0.950 . S
C756 C755 1.387 . S
C756 C759 1.387 . S
H757 C753 0.950 . S
H758 C755 0.950 . S
C759 C750 1.390 . S
C759 H752 0.950 . S
C759 C756 1.387 . S
C760 C761 1.387 . S
C760 H764 0.950 . S
C760 C769 1.390 . S
C761 C760 1.387 . S
C761 C763 1.387 . S
H762 C769 0.950 . S
C763 C761 1.387 . S
C763 C765 1.390 . S
C763 H767 0.950 . S
H764 C760 0.950 . S
C765 C763 1.390 . S
C765 C766 1.387 . S
C765 H768 0.950 . S
C766 C765 1.387 . S
C766 C769 1.387 . S
H767 C763 0.950 . S
H768 C765 0.950 . S
C769 C760 1.390 . S
C769 H762 0.950 . S
C769 C766 1.387 . S
C770 C771 1.387 . S
C770 H774 0.950 . S
C770 C779 1.390 . S
C771 C770 1.387 . S
C771 C773 1.387 . S
H772 C779 0.950 . S
C773 C771 1.387 . S
C773 C775 1.390 . S
C773 H777 0.950 . S
H774 C770 0.950 . S
C775 C773 1.390 . S
C775 C776 1.387 . S
C775 H778 0.950 . S
C776 C775 1.387 . S
C776 C779 1.387 . S
H777 C773 0.950 . S
H778 C775 0.950 . S
C779 C770 1.390 . S
C779 H772 0.950 . S
C779 C776 1.387 . S
C780 C781 1.387 . S
C780 H784 0.950 . S
C780 C789 1.390 . S
C781 C780 1.387 . S
C781 C783 1.387 . S
H782 C789 0.950 . S
C783 C781 1.387 . S
C783 C785 1.390 . S
C783 H787 0.950 . S
H784 C780 0.950 . S
C785 C783 1.390 . S
C785 C786 1.387 . S
C785 H788 0.950 . S
C786 C785 1.387 . S
C786 C789 1.387 . S
H787 C783 0.950 . S
H788 C785 0.950 . S
C789 C780 1.390 . S
C789 H782 0.950 . S
C789 C786 1.387 . S
C790 C791 1.387 . S
C790 H794 0.950 . S
C790 C799 1.390 . S
C791 C790 1.387 . S
C791 C793 1.387 . S
H792 C799 0.950 . S
C793 C791 1.387 . S
C793 C795 1.390 . S
C793 H797 0.950 . S
H794 C790 0.950 . S
C795 C793 1.390 . S
C795 C796 1.387 . S
C795 H798 0.950 . S
C796 C795 1.387 . S
C796 C799 1.387 . S
H797 C793 0.950 . S
H798 C795 0.950 . S
C799 C790 1.390 . S
C799 H792 0.950 . S
C799 C796 1.387 . S
C800 C801 1.387 . S
C800 H804 0.950 . S
C800 C809 1.390 . S
C801 C800 1.387 . S
C801 C803 1.387 . S
H802 C809 0.950 . S
C803 C801 1.387 . S
C803 C805 1.390 . S
C803 H807 0.950 . S
H804 C800 0.950 . S
C805 C803 1.390 . S
C805 C806 1.387 . S
C805 H808 0.950 . S
C806 C805 1.387 . S
C806 C809 1.387 . S
H807 C803 0.950 . S
H808 C805 0.950 . S
C809 C800 1.390 . S
C809 H802 0.950 . S
C809 C806 1.387 . S
C810 C811 1.387 . S
C810 H814 0.950 . S
C810 C819 1.390 . S
C811 C810 1.387 . S
C811 C813 1.387 . S
H812 C819 0.950 . S
C813 C811 1.387 . S
C813 C815 1.390 . S
C813 H817 0.950 . S
H814 C810 0.950 . S
C815 C813 1.390 . S
C815 C816 1.387 . S
C815 H818 0.950 . S
C816 C815 1.387 . S
C816 C819 1.387 . S
H817 C813 0.950 . S
H818 C815 0.950 . S
C819 C810 1.390 . S
C819 H812 0.950 . S
C819 C816 1.387 . S
C820 C821 1.387 . S
C820 H824 0.950 . S
C820 C829 1.390 . S
C821 C820 1.387 . S
C821 C823 1.387 . S
H822 C829 0.950 . S
C823 C821 1.387 . S
C823 C825 1.390 . S
C823 H827 0.950 . S
H824 C820 0.950 . S
C825 C823 1.390 . S
C825 C826 1.387 . S
C825 H828 0.950 . S
C826 C825 1.387 . S
C826 C829 1.387 . S
H827 C823 0.950 . S
H828 C825 0.950 . S
C829 C820 1.390 . S
C829 H822 0.950 . S
C829 C826 1.387 . S
C830 C831 1.387 . S
C830 H834 0.950 . S
C830 C839 1.390 . S
C831 C830 1.387 . S
C831 C833 1.387 . S
H832 C839 0.950 . S
C833 C831 1.387 . S
C833 C835 1.390 . S
C833 H837 0.950 . S
H834 C830 0.950 . S
C835 C833 1.390 . S
C835 C836 1.387 . S
C835 H838 0.950 . S
C836 C835 1.387 . S
C836 C839 1.387 . S
H837 C833 0.950 . S
H838 C835 0.950 . S
C839 C830 1.390 . S
C839 H832 0.950 . S
C839 C836 1.387 . S
C840 C841 1.387 . S
C840 H844 0.950 . S
C840 C849 1.390 . S
C841 C840 1.387 . S
C841 C843 1.387 . S
H842 C849 0.950 . S
C843 C841 1.387 . S
C843 C845 1.390 . S
C843 H847 0.950 . S
H844 C840 0.950 . S
C845 C843 1.390 . S
C845 C846 1.387 . S
C845 H848 0.950 . S
C846 C845 1.387 . S
C846 C849 1.387 . S
H847 C843 0.950 . S
H848 C845 0.950 . S
C849 C840 1.390 . S
C849 H842 0.950 . S
C849 C846 1.387 . S
C850 C851 1.387 . S
C850 H854 0.950 . S
C850 C859 1.390 . S
C851 C850 1.387 . S
C851 C853 1.387 . S
H852 C859 0.950 . S
C853 C851 1.387 . S
C853 C855 1.390 . S
C853 H857 0.950 . S
H854 C850 0.950 . S
C855 C853 1.390 . S
C855 C856 1.387 . S
C855 H858 0.950 . S
C856 C855 1.387 . S
C856 C859 1.387 . S
H857 C853 0.950 . S
H858 C855 0.950 . S
C859 C850 1.390 . S
C859 H852 0.950 . S
C859 C856 1.387 . S
C860 C861 1.387 . S
C860 H864 0.950 . S
C860 C869 1.390 . S
C861 C860 1.387 . S
C861 C863 1.387 . S
H862 C869 0.950 . S
C863 C861 1.387 . S
C863 C865 1.390 . S
C863 H867 0.950 . S
H864 C860 0.950 . S
C865 C863 1.390 . S
C865 C866 1.387 . S
C865 H868 0.950 . S
C866 C865 1.387 . S
C866 C869 1.387 . S
H867 C863 0.950 . S
H868 C865 0.950 . S
C869 C860 1.390 . S
C869 H862 0.950 . S
C869 C866 1.387 . S
C870 C871 1.387 . S
C870 H874 0.950 . S
C870 C879 1.390 . S
C871 C870 1.387 . S
C871 C873 1.387 . S
H872 C879 0.950 . S
C873 C871 1.387 . S
C873 C875 1.390 . S
C873 H877 0.950 . S
H874 C870 0.950 . S
C875 C873 1.390 . S
C875 C876 1.387 . S
C875 H878 0.950 . S
C876 C875 1.387 . S
C876 C879 1.387 . S
H877 C873 0.950 . S
H878 C875 0.950 . S
C879 C870 1.390 . S
C879 H872 0.950 . S
C879 C876 1.387 . S
C880 C881 1.387 . S
C880 H884 0.950 . S
C880 C889 1.390 . S
C881 C880 1.387 . S
C881 C883 1.387 . S
H882 C889 0.950 . S
C883 C881 1.387 . S
C883 C885 1.390 . S
C883 H887 0.950 . S
H884 C880 0.950 . S
C885 C883 1.390 . S
C885 C886 1.387 . S
C885 H888 0.950 . S
C886 C885 1.387 . S
C886 C889 1.387 . S
H887 C883 0.950 . S
H888 C885 0.950 . S
C889 C880 1.390 . S
C889 H882 0.950 . S
C889 C886 1.387 . S
C890 C891 1.387 . S
C890 H894 0.950 . S
C890 C899 1.390 . S
C891 C890 1.387 . S
C891 C893 1.387 . S
H892 C899 0.950 . S
C893 C891 1.387 . S
C893 C895 1.390 . S
C893 H897 0.950 . S
H894 C890 0.950 . S
C895 C893 1.390 . S
C895 C896 1.387 . S
C895 H898 0.950 . S
C896 C895 1.387 . S
C896 C899 1.387 . S
H897 C893 0.950 . S
H898 C895 0.950 . S
C899 C890 1.390 . S
C899 H892 0.950 . S
C899 C896 1.387 . S
C900 C901 1.387 . S
C900 H904 0.950 . S
C900 C909 1.390 . S
C901 C900 1.387 . S
C901 C903 1.387 . S
H902 C909 0.950 . S
C903 C901 1.387 . S
C903 C905 1.390 . S
C903 H907 0.950 . S
H904 C900 0.950 . S
C905 C903 1.390 . S
C905 C906 1.387 . S
C905 H908 0.950 . S
C906 C905 1.387 . S
C906 C909 1.387 . S
H907 C903 0.950 . S
H908 C905 0.950 . S
C909 C900 1.390 . S
C909 H902 0.950 . S
C909 C906 1.387 . S
C910 C911 1.387 . S
C910 H914 0.950 . S
C910 C919 1.390 . S
C911 C910 1.387 . S
C911 C913 1.387 . S
H912 C919 0.950 . S
C913 C911 1.387 . S
C913 C915 1.390 . S
C913 H917 0.950 . S
H914 C910 0.950 . S
C915 C913 1.390 . S
C915 C916 1.387 . S
C915 H918 0.950 . S
C916 C915 1.387 . S
C916 C919 1.387 . S
H917 C913 0.950 . S
H918 C915 0.950 . S
C919 C910 1.390 . S
C919 H912 0.950 . S
C919 C916 1.387 . S
C606 C512 1.503 . S
C601 C35 1.357 . S
C616 C526 1.501 . S
C611 C115 1.368 . S
C626 C539 1.505 . S
C621 C177 1.374 . S
C631 C221 1.361 . S
C636 C506 1.512 . S
C641 C283 1.366 . S
C646 C499 1.514 . S
C651 C363 1.376 . S
C656 C519 1.511 . S
C666 C527 1.503 . S
C661 C407 1.356 . S
C676 C540 1.509 . S
C671 C469 1.361 . S
C681 C159 1.355 . S
C686 C566 1.503 . S
C696 C584 1.500 . S
C691 C239 1.368 . S
C701 C53 1.373 . S
C706 C591 1.505 . S
C716 C558 1.511 . S
C711 C97 1.360 . S
C721 C425 1.382 . S
C726 C551 1.514 . S
C731 C487 1.376 . S
C736 C565 1.511 . S
C746 C577 1.503 . S
C741 C301 1.374 . S
C751 C345 1.361 . S
C756 C592 1.509 . S
C766 C525 1.953 . S
C761 C29 1.962 . S
C776 C538 1.957 . S
C771 C109 1.915 . S
C781 C171 1.906 . S
C786 C501 1.948 . S
C791 C215 1.954 . S
C796 C513 1.938 . S
C801 C277 1.950 . S
C806 C545 1.933 . S
C816 C500 1.934 . S
C811 C357 1.900 . S
C826 C514 1.951 . S
C821 C401 1.959 . S
C836 C532 1.938 . S
C831 C463 1.956 . S
C846 C579 1.954 . S
C841 C153 1.962 . S
C856 C590 1.957 . S
C851 C233 1.915 . S
C861 C47 1.909 . S
C866 C553 1.950 . S
C876 C571 1.938 . S
C871 C91 1.954 . S
C886 C597 1.932 . S
C881 C419 1.898 . S
C891 C481 1.902 . S
C896 C552 1.935 . S
C906 C564 1.952 . S
C901 C295 1.910 . S
C916 C578 1.940 . S
C911 C339 1.957 . S
