# Generated by pormake.
# Topology nom, (4,4)-cn, num edge types: 1
# Building blocks:
#     Node 0, Type 0, BuildingBlock: NAHDIM_clean_linker_0, # of connection points: 4
#     Node 1, Type 0, BuildingBlock: NAHDIM_clean_linker_0, # of connection points: 4
#     Node 2, Type 0, BuildingBlock: NAHDIM_clean_linker_0, # of connection points: 4
#     Node 3, Type 0, BuildingBlock: NAHDIM_clean_linker_0, # of connection points: 4
#     Node 4, Type 0, BuildingBlock: NAHDIM_clean_linker_0, # of connection points: 4
#     Node 5, Type 0, BuildingBlock: NAHDIM_clean_linker_0, # of connection points: 4
#     Node 6, Type 1, BuildingBlock: TATPOV_clean_sbu_0, # of connection points: 4
#     Node 7, Type 1, BuildingBlock: TATPOV_clean_sbu_0, # of connection points: 4
#     Node 8, Type 1, BuildingBlock: TATPOV_clean_sbu_0, # of connection points: 4
#     Node 9, Type 1, BuildingBlock: TATPOV_clean_sbu_0, # of connection points: 4
#     Node 10, Type 1, BuildingBlock: TATPOV_clean_sbu_0, # of connection points: 4
#     Node 11, Type 1, BuildingBlock: TATPOV_clean_sbu_0, # of connection points: 4
#     Edge 12, Type (0, 1), BuildingBlock: OJICUG_clean_linker_0, # of connection points: 2
#     Edge 13, Type (0, 1), BuildingBlock: OJICUG_clean_linker_0, # of connection points: 2
#     Edge 14, Type (0, 1), BuildingBlock: OJICUG_clean_linker_0, # of connection points: 2
#     Edge 15, Type (0, 1), BuildingBlock: OJICUG_clean_linker_0, # of connection points: 2
#     Edge 16, Type (0, 1), BuildingBlock: OJICUG_clean_linker_0, # of connection points: 2
#     Edge 17, Type (0, 1), BuildingBlock: OJICUG_clean_linker_0, # of connection points: 2
#     Edge 18, Type (0, 1), BuildingBlock: OJICUG_clean_linker_0, # of connection points: 2
#     Edge 19, Type (0, 1), BuildingBlock: OJICUG_clean_linker_0, # of connection points: 2
#     Edge 20, Type (0, 1), BuildingBlock: OJICUG_clean_linker_0, # of connection points: 2
#     Edge 21, Type (0, 1), BuildingBlock: OJICUG_clean_linker_0, # of connection points: 2
#     Edge 22, Type (0, 1), BuildingBlock: OJICUG_clean_linker_0, # of connection points: 2
#     Edge 23, Type (0, 1), BuildingBlock: OJICUG_clean_linker_0, # of connection points: 2
#     Edge 24, Type (0, 1), BuildingBlock: OJICUG_clean_linker_0, # of connection points: 2
#     Edge 25, Type (0, 1), BuildingBlock: OJICUG_clean_linker_0, # of connection points: 2
#     Edge 26, Type (0, 1), BuildingBlock: OJICUG_clean_linker_0, # of connection points: 2
#     Edge 27, Type (0, 1), BuildingBlock: OJICUG_clean_linker_0, # of connection points: 2
#     Edge 28, Type (0, 1), BuildingBlock: OJICUG_clean_linker_0, # of connection points: 2
#     Edge 29, Type (0, 1), BuildingBlock: OJICUG_clean_linker_0, # of connection points: 2
#     Edge 30, Type (0, 1), BuildingBlock: OJICUG_clean_linker_0, # of connection points: 2
#     Edge 31, Type (0, 1), BuildingBlock: OJICUG_clean_linker_0, # of connection points: 2
#     Edge 32, Type (0, 1), BuildingBlock: OJICUG_clean_linker_0, # of connection points: 2
#     Edge 33, Type (0, 1), BuildingBlock: OJICUG_clean_linker_0, # of connection points: 2
#     Edge 34, Type (0, 1), BuildingBlock: OJICUG_clean_linker_0, # of connection points: 2
#     Edge 35, Type (0, 1), BuildingBlock: OJICUG_clean_linker_0, # of connection points: 2
# Relax obj value: 0.067
# Max RMSD: 0.135
# Mean RMSD: 0.126
data_MOF--net-nom--node1-TATPOV_clean_sbu_0--node2-NAHDIM_clean_linker_0--edge1-OJICUG_clean_linker_0
_symmetry_space_group_name_H-M    P1
_symmetry_Int_Tables_number       1
_symmetry_cell_setting            triclinic
loop_
_symmetry_equiv_pos_as_xyz
'x, y, z'
_cell_length_a     46.128501
_cell_length_b     46.863221
_cell_length_c     55.817567
_cell_angle_alpha  90.745503
_cell_angle_beta   90.696339
_cell_angle_gamma 120.02426
loop_
_atom_site_label
_atom_site_type_symbol
_atom_site_fract_x
_atom_site_fract_y
_atom_site_fract_z
_atom_type_partial_charge
C0 C 0.18552 0.5995 0.19665 0.0
C1 C 0.19258 0.61422 0.22212 0.0
C2 C 0.13746 0.59183 0.24094 0.0
C3 C 0.13273 0.56038 0.24573 0.0
C4 C 0.10386 0.53676 0.25718 0.0
C5 C 0.07881 0.54438 0.26336 0.0
C6 C 0.08316 0.57573 0.25808 0.0
C7 C 0.11265 0.59914 0.24723 0.0
C8 C 0.10008 0.5036 0.2626 0.0
C9 C 0.05654 0.58445 0.26366 0.0
C10 C 0.93143 0.35563 0.16235 0.0
C11 C 0.92758 0.38381 0.17294 0.0
C12 C 0.93141 0.39826 0.21489 0.0
C13 C 0.93452 0.42954 0.21461 0.0
C14 C 0.95239 0.45288 0.23292 0.0
C15 C 0.9682 0.44495 0.2515 0.0
C16 C 0.9642 0.41294 0.2521 0.0
C17 C 0.94513 0.38972 0.23399 0.0
C18 C 0.95527 0.48637 0.23191 0.0
C19 C 0.98136 0.40367 0.27114 0.0
C20 C 0.86431 0.41716 0.39083 0.0
C21 C 0.87323 0.44766 0.38073 0.0
C22 C 0.90599 0.46868 0.37328 0.0
C23 C 0.93031 0.45892 0.37601 0.0
C24 C 0.92182 0.42894 0.38728 0.0
C25 C 0.88886 0.40852 0.39479 0.0
C26 C 0.91447 0.50099 0.36203 0.0
C27 C 0.94732 0.41809 0.39071 0.0
C28 C 0.18307 0.6631 0.42636 0.0
C29 C 0.15614 0.62922 0.43465 0.0
C30 C 0.09898 0.60005 0.41752 0.0
C31 C 0.07576 0.6061 0.40578 0.0
C32 C 0.04955 0.58149 0.39171 0.0
C33 C 0.04643 0.54996 0.38959 0.0
C34 C 0.06874 0.5431 0.4025 0.0
C35 C 0.09474 0.56819 0.41649 0.0
C36 C 0.02574 0.58941 0.37858 0.0
C37 C 0.0655 0.50945 0.40108 0.0
C38 C 0.04748 0.51922 0.27454 0.0
C39 C 0.02304 0.49447 0.25969 0.0
C40 C 0.99198 0.47116 0.26852 0.0
C41 C 0.98468 0.473 0.29285 0.0
C42 C 0.95305 0.45132 0.30208 0.0
C43 C 0.94627 0.45331 0.3261 0.0
C44 C 0.97088 0.47705 0.34181 0.0
C45 C 0.96415 0.47958 0.36618 0.0
C46 C 0.98929 0.50317 0.38136 0.0
C47 C 0.02109 0.52484 0.37277 0.0
C48 C 0.02815 0.52314 0.34837 0.0
C49 C 0.05971 0.54503 0.33906 0.0
C50 C 0.06617 0.54369 0.31493 0.0
C51 C 0.0414 0.52029 0.2992 0.0
C52 C 0.00971 0.4974 0.3083 0.0
C53 C 0.00295 0.4991 0.33287 0.0
C54 C 0.78489 0.35211 0.37559 0.0
C55 C 0.80444 0.38891 0.3824 0.0
O56 O 0.16516 0.61582 0.23026 0.0
O57 O 0.12492 0.62554 0.42962 0.0
O58 O 0.83216 0.39541 0.39643 0.0
O59 O 0.91669 0.37663 0.19627 0.0
H60 H 0.19811 0.59869 0.23408 0.0
H61 H 0.16361 0.57412 0.19647 0.0
H62 H 0.18 0.6147 0.18432 0.0
H63 H 0.20746 0.59821 0.19001 0.0
H64 H 0.15121 0.55384 0.24062 0.0
H65 H 0.11637 0.62334 0.24333 0.0
H66 H 0.07994 0.48438 0.25092 0.0
H67 H 0.12353 0.50301 0.25957 0.0
H68 H 0.09265 0.49718 0.2815 0.0
H69 H 0.06197 0.60822 0.25575 0.0
H70 H 0.0317 0.56475 0.25679 0.0
H71 H 0.05488 0.58646 0.28337 0.0
H72 H 0.95311 0.4061 0.17279 0.0
H73 H 0.93949 0.36067 0.14345 0.0
H74 H 0.9508 0.35334 0.17279 0.0
H75 H 0.90756 0.33178 0.16303 0.0
H76 H 0.92331 0.43577 0.19991 0.0
H77 H 0.94241 0.36537 0.23395 0.0
H78 H 0.98042 0.50453 0.2254 0.0
H79 H 0.93614 0.4863 0.21959 0.0
H80 H 0.95255 0.49472 0.25003 0.0
H81 H 0.97898 0.37924 0.26738 0.0
H82 H 0.00838 0.4225 0.27259 0.0
H83 H 0.97014 0.40279 0.28877 0.0
H84 H 0.81225 0.40171 0.36496 0.0
H85 H 0.85457 0.45499 0.37851 0.0
H86 H 0.8818 0.38512 0.40293 0.0
H87 H 0.92109 0.50063 0.34302 0.0
H88 H 0.89333 0.50597 0.36267 0.0
H89 H 0.93661 0.52156 0.37137 0.0
H90 H 0.93683 0.39417 0.39995 0.0
H91 H 0.95669 0.41564 0.37301 0.0
H92 H 0.9691 0.43709 0.40138 0.0
H93 H 0.15982 0.6108 0.42437 0.0
H94 H 0.20844 0.66671 0.43003 0.0
H95 H 0.18019 0.66504 0.40676 0.0
H96 H 0.18087 0.68302 0.43568 0.0
H97 H 0.07885 0.63057 0.40711 0.0
H98 H 0.1116 0.5628 0.4265 0.0
H99 H 0.02809 0.58724 0.35895 0.0
H100 H -0.00047 0.57138 0.38319 0.0
H101 H 0.03065 0.61467 0.38294 0.0
H102 H 0.084 0.50762 0.41293 0.0
H103 H 0.03988 0.49039 0.40617 0.0
H104 H 0.06918 0.50389 0.38233 0.0
H105 H 0.02824 0.49342 0.24088 0.0
H106 H 0.93316 0.43268 0.29078 0.0
H107 H 0.92146 0.43595 0.3322 0.0
H108 H 0.98388 0.50505 0.39999 0.0
H109 H 0.07974 0.56363 0.35028 0.0
H110 H 0.09086 0.56123 0.30874 0.0
H111 H 0.76136 0.34596 0.36568 0.0
H112 H 0.80032 0.34596 0.36379 0.0
H113 H 0.77878 0.3366 0.39168 0.0
C114 C 0.41125 0.83106 0.6197 0.0
C115 C 0.39651 0.82257 0.59417 0.0
C116 C 0.41738 0.87605 0.5745 0.0
C117 C 0.44989 0.88197 0.57009 0.0
C118 C 0.47344 0.91092 0.55895 0.0
C119 C 0.46465 0.93482 0.55269 0.0
C120 C 0.43211 0.92912 0.55739 0.0
C121 C 0.40881 0.89957 0.56793 0.0
C122 C 0.50786 0.91612 0.55411 0.0
C123 C 0.42208 0.95445 0.55172 0.0
C124 C 0.64312 0.08144 0.66369 0.0
C125 C 0.61637 0.08558 0.65028 0.0
C126 C 0.60599 0.08044 0.60751 0.0
C127 C 0.57384 0.07652 0.6063 0.0
C128 C 0.55189 0.05912 0.58707 0.0
C129 C 0.56212 0.0447 0.56903 0.0
C130 C 0.59504 0.04961 0.56987 0.0
C131 C 0.61684 0.06814 0.58891 0.0
C132 C 0.51738 0.05525 0.5865 0.0
C133 C 0.60671 0.03404 0.55134 0.0
C134 C 0.60414 0.1532 0.43396 0.0
C135 C 0.57351 0.14574 0.44408 0.0
C136 C 0.5498 0.11314 0.44943 0.0
C137 C 0.55723 0.08771 0.44491 0.0
C138 C 0.58733 0.09501 0.43349 0.0
C139 C 0.61026 0.12775 0.42785 0.0
C140 C 0.51731 0.10605 0.46063 0.0
C141 C 0.59583 0.06844 0.4281 0.0
C142 C 0.36304 0.84093 0.38808 0.0
C143 C 0.39577 0.86703 0.37718 0.0
C144 C 0.42207 0.92263 0.39524 0.0
C145 C 0.41269 0.9432 0.40693 0.0
C146 C 0.43489 0.96838 0.42281 0.0
C147 C 0.4674 0.97323 0.4268 0.0
C148 C 0.47764 0.95356 0.4141 0.0
C149 C 0.45491 0.92856 0.3983 0.0
C150 C 0.42339 0.9893 0.43576 0.0
C151 C 0.51245 0.9587 0.41749 0.0
C152 C 0.49007 0.96667 0.54267 0.0
C153 C 0.51375 0.9903 0.55856 0.0
C154 C 0.53732 0.02164 0.55091 0.0
C155 C 0.53691 0.03004 0.52672 0.0
C156 C 0.55913 0.0618 0.51862 0.0
C157 C 0.55864 0.0697 0.49473 0.0
C158 C 0.53572 0.04618 0.47804 0.0
C159 C 0.53476 0.05408 0.45376 0.0
C160 C 0.5122 0.02994 0.43755 0.0
C161 C 0.49023 0.99792 0.44497 0.0
C162 C 0.49028 0.98973 0.46927 0.0
C163 C 0.46806 0.95792 0.47742 0.0
C164 C 0.468 0.95024 0.50142 0.0
C165 C 0.4903 0.97401 0.51817 0.0
C166 C 0.5135 0.00599 0.51025 0.0
C167 C 0.51317 0.01397 0.48584 0.0
C168 C 0.67451 0.22845 0.45177 0.0
C169 C 0.63684 0.21084 0.4463 0.0
O170 O 0.39354 0.84842 0.58515 0.0
O171 O 0.39897 0.89782 0.3809 0.0
O172 O 0.62852 0.18475 0.43043 0.0
O173 O 0.62636 0.09471 0.62697 0.0
H174 H 0.41305 0.81758 0.58268 0.0
H175 H 0.4366 0.85327 0.6197 0.0
H176 H 0.3951 0.83614 0.63155 0.0
H177 H 0.41354 0.81033 0.62704 0.0
H178 H 0.45735 0.86442 0.57533 0.0
H179 H 0.38377 0.89489 0.57149 0.0
H180 H 0.52642 0.93563 0.56648 0.0
H181 H 0.5092 0.89333 0.55669 0.0
H182 H 0.51516 0.92454 0.5355 0.0
H183 H 0.3972 0.94781 0.55894 0.0
H184 H 0.44099 0.97898 0.55925 0.0
H185 H 0.42106 0.95672 0.53201 0.0
H186 H 0.59316 0.06087 0.65027 0.0
H187 H 0.63578 0.07462 0.68256 0.0
H188 H 0.64579 0.06147 0.65494 0.0
H189 H 0.66782 0.1045 0.66354 0.0
H190 H 0.56581 0.08673 0.62053 0.0
H191 H 0.64186 0.07155 0.59005 0.0
H192 H 0.49879 0.02992 0.5919 0.0
H193 H 0.51564 0.07303 0.59893 0.0
H194 H 0.5105 0.05878 0.56809 0.0
H195 H 0.63174 0.0374 0.55599 0.0
H196 H 0.58849 0.00723 0.54942 0.0
H197 H 0.60821 0.04524 0.53369 0.0
H198 H 0.62433 0.20167 0.46376 0.0
H199 H 0.56832 0.16542 0.44801 0.0
H200 H 0.63379 0.13383 0.41966 0.0
H201 H 0.51771 0.10017 0.47979 0.0
H202 H 0.51313 0.12738 0.45958 0.0
H203 H 0.49589 0.08429 0.45166 0.0
H204 H 0.62081 0.07837 0.41992 0.0
H205 H 0.5955 0.05574 0.44485 0.0
H206 H 0.57663 0.04971 0.41561 0.0
H207 H 0.41626 0.86523 0.38643 0.0
H208 H 0.35987 0.81598 0.38539 0.0
H209 H 0.3635 0.84584 0.40765 0.0
H210 H 0.34124 0.84136 0.37978 0.0
H211 H 0.38751 0.93886 0.40404 0.0
H212 H 0.46299 0.91392 0.3883 0.0
H213 H 0.42341 0.98546 0.45535 0.0
H214 H 0.44109 0.01579 0.43262 0.0
H215 H 0.39784 0.98338 0.4299 0.0
H216 H 0.51678 0.94173 0.40598 0.0
H217 H 0.53127 0.9845 0.41328 0.0
H218 H 0.51657 0.95478 0.43652 0.0
H219 H 0.51373 0.98425 0.57727 0.0
H220 H 0.57713 0.08093 0.53069 0.0
H221 H 0.57651 0.09452 0.48954 0.0
H222 H 0.51176 0.03612 0.41894 0.0
H223 H 0.45029 0.93861 0.46536 0.0
H224 H 0.45029 0.9254 0.5067 0.0
H225 H 0.68898 0.23773 0.43511 0.0
H226 H 0.6818 0.24951 0.46449 0.0
H227 H 0.68117 0.21104 0.46013 0.0
C228 C 0.59673 0.40658 0.74543 0.0
C229 C 0.58678 0.39267 0.71972 0.0
C230 C 0.55171 0.41615 0.70757 0.0
C231 C 0.57799 0.4487 0.7047 0.0
C232 C 0.57125 0.47412 0.69969 0.0
C233 C 0.53766 0.46689 0.69762 0.0
C234 C 0.51121 0.43417 0.70037 0.0
C235 C 0.51866 0.40921 0.70511 0.0
C236 C 0.59999 0.50871 0.69657 0.0
C237 C 0.47506 0.42562 0.69848 0.0
C238 C 0.57534 0.62092 0.83113 0.0
C239 C 0.54343 0.59888 0.81637 0.0
C240 C 0.53736 0.59485 0.77298 0.0
C241 C 0.50922 0.56314 0.77086 0.0
C242 C 0.50219 0.54456 0.74949 0.0
C243 C 0.52418 0.55775 0.73004 0.0
C244 C 0.5519 0.59025 0.7319 0.0
C245 C 0.55764 0.60864 0.75324 0.0
C246 C 0.47183 0.51044 0.74798 0.0
C247 C 0.57641 0.60508 0.71183 0.0
C248 C 0.44029 0.61855 0.60584 0.0
C249 C 0.41815 0.58547 0.61124 0.0
C250 C 0.42998 0.56341 0.61466 0.0
C251 C 0.46458 0.57471 0.61256 0.0
C252 C 0.48674 0.60779 0.60642 0.0
C253 C 0.47417 0.6292 0.60286 0.0
C254 C 0.40562 0.52813 0.62074 0.0
C255 C 0.52376 0.62063 0.60397 0.0
C256 C 0.48593 0.40967 0.49879 0.0
C257 C 0.51687 0.42764 0.51538 0.0
C258 C 0.51501 0.47157 0.53874 0.0
C259 C 0.48684 0.45188 0.55249 0.0
C260 C 0.47854 0.46567 0.57187 0.0
C261 C 0.49969 0.49942 0.57815 0.0
C262 C 0.52783 0.51925 0.56405 0.0
C263 C 0.53464 0.50511 0.54424 0.0
C264 C 0.44746 0.44407 0.58578 0.0
C265 C 0.55093 0.55537 0.56987 0.0
C266 C 0.52996 0.49344 0.69271 0.0
C267 C 0.5301 0.51274 0.712 0.0
C268 C 0.52045 0.53642 0.70897 0.0
C269 C 0.50901 0.54007 0.68621 0.0
C270 C 0.49657 0.56169 0.68281 0.0
C271 C 0.48594 0.56542 0.6602 0.0
C272 C 0.48768 0.54792 0.6401 0.0
C273 C 0.47762 0.55199 0.61695 0.0
C274 C 0.48065 0.53496 0.59729 0.0
C275 C 0.49361 0.51385 0.60003 0.0
C276 C 0.50297 0.50875 0.62311 0.0
C277 C 0.51573 0.48737 0.62658 0.0
C278 C 0.52415 0.48197 0.64938 0.0
C279 C 0.52142 0.49874 0.66949 0.0
C280 C 0.51012 0.52155 0.66631 0.0
C281 C 0.50006 0.52594 0.64317 0.0
C282 C 0.41773 0.67529 0.62786 0.0
C283 C 0.40446 0.6411 0.61627 0.0
O284 O 0.55688 0.39078 0.71288 0.0
O285 O 0.52381 0.45964 0.51964 0.0
O286 O 0.42988 0.64083 0.60349 0.0
O287 O 0.54611 0.61231 0.79398 0.0
H288 H 0.60682 0.40878 0.70728 0.0
H289 H 0.60061 0.43191 0.74672 0.0
H290 H 0.57683 0.39082 0.75805 0.0
H291 H 0.62053 0.4078 0.75102 0.0
H292 H 0.60378 0.4546 0.70635 0.0
H293 H 0.49858 0.38407 0.70729 0.0
H294 H 0.59971 0.52507 0.71103 0.0
H295 H 0.62467 0.50995 0.69711 0.0
H296 H 0.59705 0.51841 0.67922 0.0
H297 H 0.45748 0.39947 0.70278 0.0
H298 H 0.47062 0.44175 0.71085 0.0
H299 H 0.46933 0.43006 0.68 0.0
H300 H 0.54192 0.57442 0.81456 0.0
H301 H 0.57368 0.61064 0.84922 0.0
H302 H 0.59727 0.62224 0.82207 0.0
H303 H 0.57949 0.64633 0.83309 0.0
H304 H 0.49292 0.55278 0.78596 0.0
H305 H 0.57909 0.6333 0.75505 0.0
H306 H 0.47991 0.49188 0.74983 0.0
H307 H 0.45385 0.50652 0.76237 0.0
H308 H 0.45879 0.50609 0.73031 0.0
H309 H 0.59866 0.62904 0.71721 0.0
H310 H 0.58504 0.58792 0.70586 0.0
H311 H 0.56389 0.60922 0.69626 0.0
H312 H 0.39685 0.62363 0.63137 0.0
H313 H 0.39165 0.57681 0.6127 0.0
H314 H 0.49093 0.65468 0.59839 0.0
H315 H 0.4123 0.52268 0.63861 0.0
H316 H 0.37934 0.52292 0.62101 0.0
H317 H 0.40734 0.51121 0.60746 0.0
H318 H 0.53787 0.64739 0.60017 0.0
H319 H 0.53414 0.61628 0.62068 0.0
H320 H 0.52777 0.60703 0.58919 0.0
H321 H 0.51212 0.41427 0.53253 0.0
H322 H 0.47932 0.3836 0.49579 0.0
H323 H 0.46413 0.40976 0.50689 0.0
H324 H 0.49068 0.42196 0.48122 0.0
H325 H 0.47107 0.42596 0.54802 0.0
H326 H 0.556 0.52009 0.53323 0.0
H327 H 0.45468 0.43749 0.60298 0.0
H328 H 0.4338 0.45736 0.59002 0.0
H329 H 0.43025 0.42087 0.57577 0.0
H330 H 0.57452 0.56577 0.55971 0.0
H331 H 0.53802 0.56919 0.56514 0.0
H332 H 0.55734 0.55939 0.58932 0.0
H333 H 0.53792 0.50933 0.72964 0.0
H334 H 0.49482 0.57584 0.69764 0.0
H335 H 0.47659 0.58241 0.65863 0.0
H336 H 0.47352 0.53876 0.57953 0.0
H337 H 0.51905 0.47424 0.61176 0.0
H338 H 0.53335 0.46486 0.65101 0.0
H339 H 0.39766 0.67622 0.63806 0.0
H340 H 0.43874 0.68072 0.64051 0.0
H341 H 0.42708 0.69468 0.61411 0.0
C342 C 0.2009 0.58669 0.91229 0.0
C343 C 0.20646 0.57746 0.88697 0.0
C344 C 0.14861 0.53847 0.8733 0.0
C345 C 0.13858 0.56199 0.86987 0.0
C346 C 0.10539 0.55218 0.8633 0.0
C347 C 0.08182 0.51827 0.8601 0.0
C348 C 0.09183 0.49456 0.8634 0.0
C349 C 0.1252 0.50505 0.86986 0.0
C350 C 0.09542 0.57804 0.85981 0.0
C351 C 0.06725 0.45819 0.86014 0.0
C352 C 0.87235 0.42621 0.97984 0.0
C353 C 0.88652 0.42639 0.95605 0.0
C354 C 0.92865 0.46486 0.92868 0.0
C355 C 0.92597 0.44059 0.91227 0.0
C356 C 0.94581 0.44925 0.89186 0.0
C357 C 0.96779 0.48298 0.88718 0.0
C358 C 0.96952 0.50751 0.90315 0.0
C359 C 0.95021 0.49806 0.92386 0.0
C360 C 0.94385 0.42218 0.8757 0.0
C361 C 0.99218 0.5437 0.89861 0.0
C362 C 0.84281 0.44759 0.7562 0.0
C363 C 0.85033 0.4236 0.76393 0.0
C364 C 0.88366 0.43127 0.7673 0.0
C365 C 0.90987 0.46383 0.76344 0.0
C366 C 0.90234 0.48761 0.7546 0.0
C367 C 0.86879 0.47895 0.75073 0.0
C368 C 0.89077 0.40481 0.77559 0.0
C369 C 0.92965 0.52244 0.75002 0.0
C370 C 0.15541 0.50802 0.70264 0.0
C371 C 0.13177 0.52148 0.69782 0.0
C372 C 0.0726 0.49266 0.70698 0.0
C373 C 0.04874 0.46174 0.71507 0.0
C374 C 0.02328 0.45838 0.7303 0.0
C375 C 0.02148 0.48665 0.73706 0.0
C376 C 0.04369 0.51747 0.7271 0.0
C377 C 0.06915 0.52018 0.71219 0.0
C378 C -0.00042 0.42504 0.7403 0.0
C379 C 0.04169 0.54786 0.73329 0.0
C380 C 0.04664 0.50765 0.85335 0.0
C381 C 0.02421 0.50184 0.87172 0.0
C382 C 0.99078 0.49229 0.86667 0.0
C383 C 0.97954 0.48929 0.84259 0.0
C384 C 0.94671 0.48182 0.83681 0.0
C385 C 0.93549 0.47737 0.81306 0.0
C386 C 0.95652 0.47969 0.79419 0.0
C387 C 0.94489 0.4735 0.77004 0.0
C388 C 0.96648 0.476 0.75177 0.0
C389 C -0.00031 0.4849 0.75696 0.0
C390 C 0.01187 0.49146 0.78095 0.0
C391 C 0.04529 0.5008 0.78673 0.0
C392 C 0.05692 0.50672 0.81037 0.0
C393 C 0.03541 0.50287 0.82921 0.0
C394 C 0.00172 0.4937 0.82382 0.0
C395 C 0.99005 0.48841 0.79962 0.0
C396 C 0.76355 0.43681 0.77416 0.0
C397 C 0.78514 0.42119 0.76916 0.0
O398 O 0.18029 0.54665 0.88005 0.0
O399 O 0.09927 0.4954 0.69499 0.0
O400 O 0.81084 0.44143 0.75423 0.0
O401 O 0.91155 0.45738 0.94946 0.0
H402 H 0.2083 0.59622 0.87411 0.0
H403 H 0.17752 0.58791 0.91283 0.0
H404 H 0.19895 0.56809 0.92531 0.0
H405 H 0.22202 0.61127 0.91793 0.0
H406 H 0.15634 0.58799 0.87231 0.0
H407 H 0.13316 0.48711 0.87249 0.0
H408 H 0.07548 0.57405 0.87253 0.0
H409 H 0.11682 0.60348 0.86262 0.0
H410 H 0.08497 0.5757 0.84139 0.0
H411 H 0.07889 0.44285 0.86379 0.0
H412 H 0.04592 0.45082 0.87233 0.0
H413 H 0.05695 0.45294 0.8415 0.0
H414 H 0.8931 0.40669 0.9535 0.0
H415 H 0.87873 0.41042 0.9913 0.0
H416 H 0.89074 0.44999 0.98935 0.0
H417 H 0.82282 0.41368 0.97167 0.0
H418 H 0.90908 0.41477 0.91548 0.0
H419 H 0.95195 0.51664 0.9365 0.0
H420 H 0.93077 0.42126 0.85865 0.0
H421 H 0.96933 0.42706 0.87131 0.0
H422 H 0.92996 0.39758 0.88397 0.0
H423 H 0.98616 0.55946 0.91014 0.0
H424 H 0.01855 0.55044 0.9024 0.0
H425 H 0.99021 0.5491 0.87953 0.0
H426 H 0.79569 0.41955 0.78684 0.0
H427 H 0.83024 0.39894 0.76745 0.0
H428 H 0.86262 0.49709 0.74442 0.0
H429 H 0.89846 0.40917 0.79481 0.0
H430 H 0.86845 0.37979 0.7735 0.0
H431 H 0.91167 0.40558 0.76539 0.0
H432 H 0.91949 0.53845 0.74441 0.0
H433 H 0.94545 0.53336 0.76646 0.0
H434 H 0.94605 0.52222 0.73572 0.0
H435 H 0.13413 0.53669 0.71405 0.0
H436 H 0.18179 0.52852 0.7039 0.0
H437 H 0.14909 0.49495 0.71993 0.0
H438 H 0.15306 0.49026 0.68833 0.0
H439 H 0.05127 0.44054 0.71053 0.0
H440 H 0.08679 0.54393 0.70511 0.0
H441 H 0.00385 0.42564 0.75997 0.0
H442 H 0.97328 0.41905 0.7372 0.0
H443 H 0.00289 0.40515 0.73211 0.0
H444 H 0.05776 0.56886 0.7217 0.0
H445 H 0.01541 0.54248 0.7315 0.0
H446 H 0.0499 0.55534 0.75224 0.0
H447 H 0.03279 0.50426 0.89022 0.0
H448 H 0.92933 0.47925 0.85063 0.0
H449 H 0.90994 0.47162 0.80972 0.0
H450 H 0.95732 0.47088 0.73333 0.0
H451 H 0.06293 0.50362 0.77306 0.0
H452 H 0.08287 0.51385 0.81371 0.0
H453 H 0.74286 0.4211 0.78627 0.0
H454 H 0.77907 0.46137 0.78303 0.0
H455 H 0.75272 0.44009 0.75723 0.0
C456 C 0.49432 0.84468 0.8704 0.0
C457 C 0.46959 0.82861 0.89066 0.0
C458 C 0.48891 0.87063 0.92246 0.0
C459 C 0.46182 0.87619 0.92421 0.0
C460 C 0.46629 0.90581 0.9342 0.0
C461 C 0.49853 0.93028 0.94248 0.0
C462 C 0.52568 0.9243 0.94128 0.0
C463 C 0.52031 0.89421 0.93164 0.0
C464 C 0.43668 0.91111 0.93571 0.0
C465 C 0.56051 0.94994 0.94966 0.0
C466 C 0.57648 0.14529 0.83327 0.0
C467 C 0.57712 0.13024 0.85636 0.0
C468 C 0.54023 0.0841 0.88152 0.0
C469 C 0.56561 0.08699 0.8973 0.0
C470 C 0.5581 0.06557 0.9165 0.0
C471 C 0.52431 0.04173 0.92073 0.0
C472 C 0.49858 0.03952 0.90538 0.0
C473 C 0.50698 0.06048 0.88577 0.0
C474 C 0.58651 0.06808 0.93189 0.0
C475 C 0.46226 0.01472 0.90943 0.0
C476 C 0.56536 0.15698 0.05596 0.0
C477 C 0.58851 0.1485 0.04722 0.0
C478 C 0.57897 0.11546 0.04246 0.0
C479 C 0.54541 0.09052 0.0461 0.0
C480 C 0.52247 0.09893 0.05595 0.0
C481 C 0.53296 0.13214 0.06108 0.0
C482 C 0.60456 0.10733 0.03298 0.0
C483 C 0.48662 0.07298 0.06026 0.0
C484 C 0.49657 0.84656 0.10512 0.0
C485 C 0.48406 0.87076 0.11007 0.0
C486 C 0.51372 0.92828 0.09854 0.0
C487 C 0.5451 0.95157 0.09025 0.0
C488 C 0.54855 0.97654 0.07492 0.0
C489 C 0.51989 0.97844 0.0682 0.0
C490 C 0.48851 0.95647 0.07804 0.0
C491 C 0.48573 0.93156 0.09311 0.0
C492 C 0.58249 -4e-05 0.06505 0.0
C493 C 0.4577 0.95854 0.07184 0.0
C494 C 0.5043 0.96286 0.95103 0.0
C495 C 0.50905 0.98599 0.93373 0.0
C496 C 0.51624 0.01779 0.94022 0.0
C497 C 0.51846 0.02687 0.96471 0.0
C498 C 0.52481 0.05836 0.97191 0.0
C499 C 0.52927 0.0678 0.99602 0.0
C500 C 0.52746 0.04604 0.01386 0.0
C501 C 0.53397 0.05602 0.03831 0.0
C502 C 0.53111 0.03351 0.05563 0.0
C503 C 0.52209 0.00115 0.04916 0.0
C504 C 0.51614 0.9909 0.02476 0.0
C505 C 0.50755 0.95865 0.0176 0.0
C506 C 0.50294 0.94916 0.9935 0.0
C507 C 0.50707 0.97165 0.97562 0.0
C508 C 0.51461 0.00393 0.98246 0.0
C509 C 0.51917 0.01356 0.00706 0.0
C510 C 0.57689 0.23451 0.03869 0.0
C511 C 0.59383 0.2144 0.04441 0.0
O512 O 0.48546 0.84255 0.91247 0.0
O513 O 0.51115 0.90259 0.1112 0.0
O514 O 0.57339 0.18886 0.05923 0.0
O515 O 0.54668 0.10298 0.86184 0.0
H516 H 0.44815 0.83276 0.8875 0.0
H517 H 0.50325 0.87152 0.87026 0.0
H518 H 0.51632 0.84124 0.87287 0.0
H519 H 0.48199 0.83376 0.85278 0.0
H520 H 0.43712 0.85734 0.91806 0.0
H521 H 0.54089 0.88934 0.93051 0.0
H522 H 0.44005 0.93072 0.92321 0.0
H523 H 0.41267 0.88838 0.93103 0.0
H524 H 0.43512 0.91955 0.95409 0.0
H525 H 0.57934 0.94244 0.94571 0.0
H526 H 0.5681 0.97375 0.94091 0.0
H527 H 0.56075 0.95413 0.96928 0.0
H528 H 0.59893 0.12632 0.85853 0.0
H529 H 0.59445 0.14216 0.82155 0.0
H530 H 0.55346 0.12638 0.82301 0.0
H531 H 0.58397 0.19174 0.84355 0.0
H532 H 0.59147 0.10536 0.89454 0.0
H533 H 0.48754 0.0585 0.87361 0.0
H534 H 0.58702 0.07962 0.94948 0.0
H535 H 0.58302 0.04325 0.93522 0.0
H536 H 0.61123 0.08332 0.92353 0.0
H537 H 0.44513 0.01993 0.89859 0.0
H538 H 0.45744 0.98972 0.90435 0.0
H539 H 0.45629 0.01452 0.92866 0.0
H540 H 0.59667 0.2044 0.0269 0.0
H541 H 0.61398 0.16771 0.04401 0.0
H542 H 0.51547 0.139 0.06817 0.0
H543 H 0.59937 0.1006 0.01364 0.0
H544 H 0.63049 0.12849 0.03507 0.0
H545 H 0.60296 0.08586 0.04239 0.0
H546 H 0.47151 0.08375 0.06697 0.0
H547 H 0.47482 0.05883 0.04338 0.0
H548 H 0.48598 0.05532 0.0736 0.0
H549 H 0.46719 0.86753 0.09454 0.0
H550 H 0.47537 0.82076 0.10524 0.0
H551 H 0.50805 0.85118 0.08718 0.0
H552 H 0.51583 0.84954 0.11861 0.0
H553 H 0.56665 0.94918 0.09493 0.0
H554 H 0.46162 0.91442 0.10034 0.0
H555 H 0.58178 0.99655 0.04528 0.0
H556 H 0.58891 0.02581 0.06882 0.0
H557 H 0.60254 0.9961 0.07278 0.0
H558 H 0.43594 0.94185 0.08279 0.0
H559 H 0.46293 0.98423 0.07455 0.0
H560 H 0.45089 0.95177 0.05263 0.0
H561 H 0.50798 0.97937 0.9149 0.0
H562 H 0.52684 0.07622 0.95894 0.0
H563 H 0.53452 0.09251 0.00047 0.0
H564 H 0.5363 0.04134 0.07432 0.0
H565 H 0.5046 0.9404 0.03052 0.0
H566 H 0.49657 0.92411 0.98904 0.0
H567 H 0.57236 0.24478 0.05536 0.0
H568 H 0.59277 0.25509 0.02672 0.0
H569 H 0.55242 0.2185 0.02939 0.0
C570 C 0.61791 0.42514 0.07004 0.0
C571 C 0.63005 0.42823 0.09617 0.0
C572 C 0.61145 0.46501 0.11323 0.0
C573 C 0.57698 0.44178 0.11314 0.0
C574 C 0.55355 0.45127 0.11928 0.0
C575 C 0.56481 0.48451 0.12575 0.0
C576 C 0.59946 0.50777 0.12634 0.0
C577 C 0.62232 0.49763 0.12013 0.0
C578 C 0.51672 0.42587 0.11869 0.0
C579 C 0.61229 0.5434 0.13329 0.0
C580 C 0.45828 0.58635 0.002 0.0
C581 C 0.47475 0.58709 0.0252 0.0
C582 C 0.47598 0.54808 0.05349 0.0
C583 C 0.5002 0.57187 0.06932 0.0
C584 C 0.51005 0.56237 0.09024 0.0
C585 C 0.49459 0.52853 0.09576 0.0
C586 C 0.46946 0.50468 0.0802 0.0
C587 C 0.46079 0.5148 0.05912 0.0
C588 C 0.53753 0.58842 0.10613 0.0
C589 C 0.45218 0.46841 0.0856 0.0
C590 C 0.41765 0.579 0.22589 0.0
C591 C 0.4524 0.59587 0.22292 0.0
C592 C 0.4695 0.57857 0.21913 0.0
C593 C 0.45133 0.54366 0.21816 0.0
C594 C 0.4165 0.5266 0.22227 0.0
C595 C 0.40011 0.5446 0.22637 0.0
C596 C 0.50688 0.59762 0.2157 0.0
C597 C 0.3965 0.48944 0.22162 0.0
C598 C 0.55621 0.40558 0.27303 0.0
C599 C 0.54494 0.41538 0.29594 0.0
C600 C 0.53536 0.45872 0.2796 0.0
C601 C 0.55099 0.49275 0.27661 0.0
C602 C 0.53852 0.5063 0.25997 0.0
C603 C 0.50932 0.48513 0.2463 0.0
C604 C 0.49211 0.45083 0.25036 0.0
C605 C 0.50537 0.4379 0.26692 0.0
C606 C 0.55734 0.54302 0.25622 0.0
C607 C 0.46042 0.4277 0.23647 0.0
C608 C 0.54036 0.49522 0.13146 0.0
C609 C 0.52847 0.50623 0.1127 0.0
C610 C 0.50627 0.51777 0.11682 0.0
C611 C 0.49584 0.51883 0.14037 0.0
C612 C 0.47394 0.53077 0.14526 0.0
C613 C 0.46495 0.53286 0.16867 0.0
C614 C 0.47691 0.52238 0.188 0.0
C615 C 0.46879 0.52531 0.21194 0.0
C616 C 0.47934 0.51274 0.23056 0.0
C617 C 0.49894 0.4983 0.22599 0.0
C618 C 0.5091 0.49707 0.20239 0.0
C619 C 0.53059 0.48462 0.19744 0.0
C620 C 0.54088 0.484 0.17424 0.0
C621 C 0.52977 0.49543 0.15505 0.0
C622 C 0.50771 0.50762 0.15955 0.0
C623 C 0.49775 0.50887 0.18331 0.0
C624 C 0.37334 0.60408 0.19475 0.0
C625 C 0.4033 0.61931 0.21231 0.0
O626 O 0.63506 0.45738 0.10662 0.0
O627 O 0.55047 0.44725 0.29453 0.0
O628 O 0.40055 0.59543 0.22802 0.0
O629 O 0.46699 0.55592 0.03243 0.0
H630 H 0.61122 0.40694 0.10644 0.0
H631 H 0.59349 0.42436 0.06903 0.0
H632 H 0.63631 0.44647 0.05963 0.0
H633 H 0.61448 0.40203 0.06158 0.0
H634 H 0.56808 0.41631 0.10818 0.0
H635 H 0.64893 0.51531 0.12028 0.0
H636 H 0.50337 0.43306 0.10557 0.0
H637 H 0.51199 0.40084 0.11372 0.0
H638 H 0.50595 0.42494 0.13654 0.0
H639 H 0.64006 0.55834 0.13315 0.0
H640 H 0.60182 0.55425 0.1207 0.0
H641 H 0.60372 0.545 0.15151 0.0
H642 H 0.502 0.60562 0.02646 0.0
H643 H 0.4795 0.60023 0.98937 0.0
H644 H 0.45001 0.56157 0.99321 0.0
H645 H 0.42461 0.60228 0.01115 0.0
H646 H 0.51207 0.59777 0.06522 0.0
H647 H 0.44206 0.49668 0.04682 0.0
H648 H 0.52724 0.58933 0.1238 0.0
H649 H 0.55747 0.58211 0.10929 0.0
H650 H 0.54896 0.61331 0.09828 0.0
H651 H 0.43005 0.4536 0.0736 0.0
H652 H 0.47006 0.45931 0.08326 0.0
H653 H 0.444 0.46432 0.10449 0.0
H654 H 0.42618 0.62836 0.20138 0.0
H655 H 0.46609 0.62257 0.22347 0.0
H656 H 0.37332 0.53189 0.22906 0.0
H657 H 0.51237 0.5949 0.19677 0.0
H658 H 0.51783 0.62431 0.22002 0.0
H659 H 0.51941 0.58761 0.22716 0.0
H660 H 0.36939 0.47988 0.22437 0.0
H661 H 0.39966 0.47991 0.20411 0.0
H662 H 0.40606 0.47967 0.2358 0.0
H663 H 0.51786 0.39794 0.29865 0.0
H664 H 0.55304 0.38058 0.27474 0.0
H665 H 0.54094 0.40498 0.25732 0.0
H666 H 0.58294 0.42346 0.26959 0.0
H667 H 0.57384 0.50862 0.28675 0.0
H668 H 0.49252 0.41157 0.26953 0.0
H669 H 0.56586 0.54809 0.23743 0.0
H670 H 0.54046 0.55317 0.25916 0.0
H671 H 0.57951 0.55614 0.26847 0.0
H672 H 0.44757 0.40256 0.24397 0.0
H673 H 0.44289 0.43747 0.23645 0.0
H674 H 0.46661 0.42585 0.21757 0.0
H675 H 0.53673 0.50591 0.09462 0.0
H676 H 0.46391 0.53908 0.13108 0.0
H677 H 0.44839 0.54269 0.17142 0.0
H678 H 0.47274 0.51473 0.24885 0.0
H679 H 0.54006 0.47553 0.21146 0.0
H680 H 0.55764 0.47438 0.17154 0.0
H681 H 0.34941 0.59395 0.20448 0.0
H682 H 0.37499 0.62286 0.18203 0.0
H683 H 0.37321 0.5837 0.18426 0.0
Zn684 Zn 0.66614 0.44776 0.42011 0.0
Zn685 Zn 0.63018 0.38114 0.42283 0.0
O686 O 0.67975 0.39499 0.42171 0.0
O687 O 0.71066 0.44887 0.41988 0.0
O688 O 0.61109 0.33258 0.42714 0.0
O689 O 0.64285 0.45009 0.45022 0.0
O690 O 0.6131 0.39592 0.45118 0.0
C691 C 0.70832 0.4208 0.42039 0.0
C692 C 0.61914 0.41334 0.37992 0.0
O693 O 0.61116 0.38704 0.39122 0.0
O694 O 0.64164 0.4411 0.3883 0.0
C695 C 0.61986 0.31755 0.4124 0.0
O696 O 0.63641 0.33309 0.39334 0.0
C697 C 0.62008 0.42408 0.45957 0.0
Zn698 Zn 0.19551 0.66151 0.5852 0.0
Zn699 Zn 0.22998 0.62881 0.57555 0.0
O700 O 0.26433 0.67655 0.58368 0.0
O701 O 0.23912 0.70474 0.59147 0.0
O702 O 0.26072 0.61008 0.57434 0.0
O703 O 0.17361 0.63021 0.61289 0.0
O704 O 0.19865 0.60261 0.60218 0.0
C705 C 0.26584 0.70361 0.58935 0.0
C706 C 0.18729 0.63253 0.53599 0.0
O707 O 0.20746 0.62301 0.54292 0.0
O708 O 0.17854 0.64793 0.55041 0.0
C709 C 0.28892 0.62637 0.56443 0.0
O710 O 0.29397 0.65075 0.55049 0.0
C711 C 0.17871 0.60627 0.6157 0.0
Zn712 Zn 0.55501 0.19822 0.73637 0.0
Zn713 Zn 0.62391 0.23657 0.74074 0.0
O714 O 0.60665 0.26689 0.73086 0.0
O715 O 0.55183 0.23863 0.72681 0.0
O716 O 0.67252 0.26983 0.74619 0.0
O717 O 0.55442 0.18824 0.77197 0.0
O718 O 0.60964 0.21669 0.77364 0.0
C719 C 0.57912 0.26578 0.72605 0.0
C720 C 0.595 0.17865 0.706 0.0
O721 O 0.62055 0.20373 0.71527 0.0
O722 O 0.56569 0.17162 0.71196 0.0
C723 C 0.68736 0.2927 0.73125 0.0
O724 O 0.67229 0.29078 0.71066 0.0
C725 C 0.58177 0.19885 0.7836 0.0
Zn726 Zn 0.37908 0.55791 0.90636 0.0
Zn727 Zn 0.40948 0.62536 0.90487 0.0
O728 O 0.35998 0.60834 0.89731 0.0
O729 O 0.33472 0.55416 0.8967 0.0
O730 O 0.42983 0.67461 0.90354 0.0
O731 O 0.39196 0.56368 0.94182 0.0
O732 O 0.41917 0.61791 0.93929 0.0
C733 C 0.33351 0.58042 0.89451 0.0
C734 C 0.43413 0.58848 0.87312 0.0
O735 O 0.43517 0.61494 0.88014 0.0
O736 O 0.4127 0.56101 0.88156 0.0
C737 C 0.41926 0.6874 0.8883 0.0
O738 O 0.39547 0.66817 0.87287 0.0
C739 C 0.40977 0.59203 0.95139 0.0
Zn740 Zn 0.82104 0.4445 0.07882 0.0
Zn741 Zn 0.78022 0.37715 0.0748 0.0
O742 O 0.75015 0.39561 0.08396 0.0
O743 O 0.78129 0.44939 0.08845 0.0
O744 O 0.74576 0.32933 0.06941 0.0
O745 O 0.8306 0.44472 0.04325 0.0
O746 O 0.80091 0.39038 0.04182 0.0
C747 C 0.75287 0.42343 0.08881 0.0
C748 C 0.83889 0.40481 0.11002 0.0
O749 O 0.81286 0.37996 0.10096 0.0
O750 O 0.84733 0.43373 0.10342 0.0
C751 C 0.72166 0.31485 0.08373 0.0
O752 O 0.72227 0.32997 0.10388 0.0
C753 C 0.81934 0.41766 0.03173 0.0
Zn754 Zn 0.35124 0.81504 0.22845 0.0
Zn755 Zn 0.38687 0.78357 0.23835 0.0
O756 O 0.3386 0.74786 0.23162 0.0
O757 O 0.30816 0.77081 0.22383 0.0
O758 O 0.40834 0.75551 0.2411 0.0
O759 O 0.38135 0.83549 0.19973 0.0
O760 O 0.41111 0.81255 0.21021 0.0
C761 C 0.31044 0.74518 0.22639 0.0
C762 C 0.38332 0.8275 0.27683 0.0
O763 O 0.39355 0.808 0.27013 0.0
O764 O 0.36615 0.8344 0.26256 0.0
C765 C 0.39353 0.72843 0.2521 0.0
O766 O 0.36743 0.72205 0.26503 0.0
C767 C 0.40586 0.8309 0.19635 0.0
C768 C 0.22056 0.67627 0.21691 0.0
C769 C 0.22308 0.64841 0.22259 0.0
H770 H 0.24613 0.72881 0.21386 0.0
C771 C 0.25472 0.65253 0.22817 0.0
H772 H 0.19659 0.67373 0.21196 0.0
C773 C 0.28304 0.6839 0.22903 0.0
C774 C 0.28043 0.71193 0.22422 0.0
H775 H 0.25748 0.63143 0.23212 0.0
H776 H 0.30695 0.68612 0.23375 0.0
C777 C 0.24893 0.70777 0.2179 0.0
C778 C 0.63631 0.24624 0.41255 0.0
C779 C 0.62714 0.23459 0.43587 0.0
H780 H 0.64065 0.28131 0.38663 0.0
C781 C 0.61185 0.24784 0.45032 0.0
H782 H 0.64824 0.23648 0.40109 0.0
C783 C 0.60732 0.27338 0.44205 0.0
C784 C 0.61835 0.28643 0.41925 0.0
H785 H 0.6046 0.23933 0.46838 0.0
H786 H 0.59675 0.28399 0.45402 0.0
C787 C 0.63193 0.27189 0.4043 0.0
C788 C 0.37849 0.65003 0.57886 0.0
C789 C 0.37465 0.63252 0.59995 0.0
H790 H 0.35421 0.66141 0.55073 0.0
C791 C 0.34228 0.60918 0.60698 0.0
H792 H 0.40321 0.66802 0.57298 0.0
C793 C 0.31422 0.60506 0.59412 0.0
C794 C 0.31797 0.62453 0.57414 0.0
H795 H 0.33861 0.59522 0.62308 0.0
H796 H 0.28962 0.58809 0.60079 0.0
C797 C 0.35041 0.64612 0.56609 0.0
C798 C 0.75292 0.3592 0.77205 0.0
C799 C 0.76402 0.38719 0.75791 0.0
H800 H 0.72064 0.30713 0.77451 0.0
C801 C 0.75265 0.38325 0.73397 0.0
H802 H 0.76127 0.36159 0.79056 0.0
C803 C 0.72933 0.35205 0.72473 0.0
C804 C 0.71681 0.32425 0.73929 0.0
H805 H 0.76075 0.40449 0.72275 0.0
H806 H 0.71991 0.35004 0.70655 0.0
C807 C 0.7297 0.32802 0.76281 0.0
C808 C 0.47364 0.77859 0.90281 0.0
C809 C 0.45653 0.79187 0.89042 0.0
H810 H 0.47505 0.73512 0.9121 0.0
C811 C 0.42787 0.77065 0.87658 0.0
H812 H 0.49632 0.79442 0.91311 0.0
C813 C 0.41599 0.73677 0.87567 0.0
C814 C 0.43254 0.72339 0.88861 0.0
H815 H 0.41464 0.78035 0.86646 0.0
H816 H 0.39363 0.72104 0.86503 0.0
C817 C 0.46155 0.74465 0.90213 0.0
C818 C 0.69344 0.45676 0.09369 0.0
C819 C 0.66259 0.42774 0.09683 0.0
H820 H 0.74628 0.47827 0.08924 0.0
C821 C 0.662 0.39758 0.09837 0.0
H822 H 0.69459 0.48029 0.09191 0.0
C823 C 0.69152 0.39636 0.09656 0.0
C824 C 0.7223 0.42531 0.09314 0.0
H825 H 0.63852 0.37481 0.10039 0.0
H826 H 0.69008 0.37259 0.09735 0.0
C827 C 0.72303 0.45559 0.09212 0.0
C828 C 0.33334 0.793 0.59916 0.0
C829 C 0.36244 0.79168 0.59398 0.0
H830 H 0.27988 0.76624 0.6016 0.0
C831 C 0.35963 0.76096 0.589 0.0
H832 H 0.33487 0.81627 0.60366 0.0
C833 C 0.32832 0.73236 0.58805 0.0
C834 C 0.29903 0.73379 0.59217 0.0
H835 H 0.38171 0.75914 0.58548 0.0
H836 H 0.32711 0.70919 0.58369 0.0
C837 C 0.3019 0.76435 0.59809 0.0
C838 C 0.55269 0.33027 0.72362 0.0
C839 C 0.58315 0.35875 0.7184 0.0
H840 H 0.52728 0.27825 0.72952 0.0
C841 C 0.6115 0.35582 0.71425 0.0
H842 H 0.53056 0.33185 0.7274 0.0
C843 C 0.60973 0.32531 0.71578 0.0
C844 C 0.57951 0.29695 0.72146 0.0
H845 H 0.63537 0.37741 0.71056 0.0
H846 H 0.63233 0.32412 0.7131 0.0
C847 C 0.5508 0.29958 0.72485 0.0
C848 C 0.26919 0.60643 0.88259 0.0
C849 C 0.23908 0.57715 0.88667 0.0
H850 H 0.32263 0.6304 0.88163 0.0
C851 C 0.24025 0.5486 0.89247 0.0
H852 H 0.26903 0.62888 0.8785 0.0
C853 C 0.27085 0.54933 0.89403 0.0
C854 C 0.301 0.5788 0.8904 0.0
H855 H 0.21755 0.52583 0.89626 0.0
H856 H 0.27091 0.52707 0.89891 0.0
C857 C 0.29983 0.60727 0.88445 0.0
C858 C 0.63058 0.24789 0.07991 0.0
C859 C 0.62782 0.23624 0.05619 0.0
H860 H 0.66261 0.28155 0.10742 0.0
C861 C 0.6569 0.24793 0.04264 0.0
H862 H 0.60849 0.23937 0.09069 0.0
C863 C 0.68789 0.27196 0.05219 0.0
C864 C 0.6904 0.28507 0.07543 0.0
H865 H 0.65545 0.23943 0.02429 0.0
H866 H 0.70958 0.28139 0.04089 0.0
C867 C 0.66158 0.27202 0.08946 0.0
C868 C 0.38148 0.64292 0.24383 0.0
C869 C 0.40467 0.6481 0.22591 0.0
H870 H 0.36021 0.66443 0.26658 0.0
C871 C 0.42687 0.68047 0.21892 0.0
H872 H 0.36395 0.61818 0.24944 0.0
C873 C 0.42487 0.70697 0.22874 0.0
C874 C 0.40035 0.70162 0.24561 0.0
H875 H 0.4449 0.68516 0.20508 0.0
H876 H 0.44142 0.73143 0.22217 0.0
C877 C 0.37941 0.66943 0.25364 0.0
C878 C 0.78228 0.42819 0.38763 0.0
C879 C 0.78299 0.40009 0.39532 0.0
H880 H 0.75867 0.45746 0.39023 0.0
C881 C 0.76263 0.38222 0.41443 0.0
H882 H 0.7979 0.44271 0.37316 0.0
C883 C 0.73947 0.39016 0.42374 0.0
C884 C 0.73738 0.417 0.4149 0.0
H885 H 0.76334 0.36113 0.42137 0.0
H886 H 0.72236 0.3746 0.43722 0.0
C887 C 0.75995 0.43679 0.39751 0.0
C888 C 0.17926 0.6121 0.46942 0.0
C889 C 0.16043 0.62621 0.46124 0.0
H890 H 0.20222 0.60259 0.49948 0.0
C891 C 0.14875 0.64052 0.47801 0.0
H892 H 0.18892 0.6013 0.45682 0.0
C893 C 0.15627 0.64126 0.50239 0.0
C894 C 0.17602 0.62807 0.51055 0.0
H895 H 0.13464 0.65205 0.47218 0.0
H896 H 0.14752 0.6532 0.51473 0.0
C897 C 0.1869 0.61292 0.49383 0.0
C898 C 0.57875 0.10106 0.67268 0.0
C899 C 0.61014 0.1108 0.66281 0.0
H900 H 0.54918 0.11498 0.6937 0.0
C901 C 0.63581 0.14381 0.66565 0.0
H902 H 0.55845 0.07584 0.67063 0.0
C903 C 0.63068 0.16618 0.67917 0.0
C904 C 0.59957 0.15612 0.6897 0.0
H905 H 0.6601 0.15205 0.65795 0.0
H906 H 0.65123 0.1912 0.68168 0.0
C907 C 0.57343 0.12353 0.68583 0.0
C908 C 0.5079 0.62235 0.83158 0.0
C909 C 0.51301 0.59534 0.829 0.0
H910 H 0.47884 0.64135 0.84748 0.0
C911 C 0.49059 0.56542 0.83962 0.0
H912 H 0.52483 0.64566 0.82353 0.0
C913 C 0.46409 0.56279 0.85311 0.0
C914 C 0.45972 0.59017 0.85653 0.0
H915 H 0.49399 0.54424 0.83791 0.0
H916 H 0.44775 0.53959 0.86155 0.0
C917 C 0.48159 0.61983 0.84529 0.0
C918 C 0.85358 0.4564 0.95888 0.0
C919 C 0.85464 0.41919 0.94785 0.0
H920 H 0.84542 0.47715 0.9986 0.0
C921 C 0.83033 0.37817 0.96174 0.0
H922 H 0.86514 0.47926 0.94926 0.0
C923 C 0.82008 0.37952 0.99257 0.0
C924 C 0.8274 0.41764 0.00648 0.0
H925 H 0.82895 0.35626 0.95393 0.0
H926 H 0.80979 0.3573 0.0029 0.0
C927 C 0.84266 0.45516 0.98987 0.0
C928 C 0.43179 0.85733 0.13287 0.0
C929 C 0.46477 0.8631 0.1331 0.0
H930 H 0.38747 0.84325 0.1529 0.0
C931 C 0.4792 0.86116 0.15492 0.0
H932 H 0.42013 0.85898 0.11639 0.0
C933 C 0.46026 0.8514 0.17566 0.0
C934 C 0.42694 0.84457 0.17519 0.0
H935 H 0.50484 0.86631 0.1558 0.0
H936 H 0.47157 0.84889 0.19203 0.0
C937 C 0.41315 0.84847 0.15377 0.0
C938 C 0.55155 0.38589 0.33156 0.0
C939 C 0.56473 0.41388 0.31718 0.0
H940 H 0.55855 0.36358 0.36274 0.0
C941 C 0.59704 0.4403 0.32247 0.0
H942 H 0.52701 0.3649 0.32752 0.0
C943 C 0.61492 0.43965 0.34254 0.0
C944 C 0.60123 0.41228 0.35752 0.0
H945 H 0.60825 0.4618 0.31131 0.0
H946 H 0.63939 0.46083 0.34646 0.0
C947 C 0.56967 0.38506 0.35157 0.0
C948 C 0.3781 0.86856 0.33424 0.0
C949 C 0.39568 0.85999 0.35064 0.0
H950 H 0.36089 0.86555 0.29807 0.0
C951 C 0.41058 0.84202 0.34234 0.0
H952 H 0.36588 0.88193 0.34021 0.0
C953 C 0.40757 0.8324 0.3182 0.0
C954 C 0.3894 0.84039 0.30187 0.0
H955 H 0.42388 0.83471 0.35467 0.0
H956 H 0.41878 0.81798 0.31249 0.0
C957 C 0.37518 0.85906 0.31011 0.0
C958 C 0.57137 0.45659 0.49246 0.0
C959 C 0.54675 0.4282 0.50376 0.0
H960 H 0.61447 0.47781 0.47053 0.0
C961 C 0.54889 0.39932 0.50253 0.0
H962 H 0.57058 0.47929 0.49275 0.0
C963 C 0.57401 0.39837 0.48933 0.0
C964 C 0.59776 0.42644 0.47732 0.0
H965 H 0.53028 0.37711 0.51102 0.0
H966 H 0.57405 0.37533 0.48779 0.0
C967 C 0.59678 0.45581 0.47971 0.0
C968 C 0.1481 0.57535 0.67762 0.0
C969 C 0.14167 0.54273 0.67587 0.0
H970 H 0.1642 0.62088 0.65971 0.0
C971 C 0.14484 0.5304 0.65355 0.0
H972 H 0.14559 0.58543 0.69453 0.0
C973 C 0.15629 0.55093 0.63382 0.0
C974 C 0.16357 0.58378 0.6358 0.0
H975 H 0.13925 0.50514 0.6515 0.0
H976 H 0.15967 0.54119 0.61703 0.0
C977 C 0.1586 0.59559 0.6577 0.0
C978 C 0.54129 0.15742 0.85487 0.0
C979 C 0.58076 0.15972 0.86593 0.0
H980 H 0.51971 0.16583 0.81551 0.0
C981 C 0.62238 0.188 0.85324 0.0
H982 H 0.51779 0.14328 0.86388 0.0
C983 C 0.62099 0.1999 0.82295 0.0
C984 C 0.58161 0.19002 0.80864 0.0
H985 H 0.64532 0.19104 0.86114 0.0
H986 H 0.64397 0.21265 0.81313 0.0
C987 C 0.54258 0.17029 0.82443 0.0
C988 C 0.47016 0.63688 0.01824 0.0
C989 C 0.45276 0.59707 0.03405 0.0
H990 H 0.46661 0.6543 0.97636 0.0
C991 C 0.41154 0.5604 0.02575 0.0
H992 H 0.49273 0.65873 0.02451 0.0
C993 C 0.39812 0.55938 0.99522 0.0
C994 C 0.42018 0.59483 0.97654 0.0
H995 H 0.40027 0.53851 0.03647 0.0
H996 H 0.37691 0.53711 0.98793 0.0
C997 C 0.45466 0.63334 0.98794 0.0
C998 C 0.91492 0.42017 0.14695 0.0
C999 C 0.90355 0.3897 0.15795 0.0
H1000 H 0.90338 0.44894 0.12345 0.0
C1001 C 0.87003 0.36477 0.15421 0.0
H1002 H 0.94053 0.43993 0.14967 0.0
C1003 C 0.84879 0.36972 0.13888 0.0
C1004 C 0.86047 0.39997 0.12741 0.0
H1005 H 0.86046 0.34121 0.16277 0.0
H1006 H 0.82332 0.34981 0.1359 0.0
C1007 C 0.89358 0.42533 0.13197 0.0
loop_
_geom_bond_atom_site_label_1
_geom_bond_atom_site_label_2
_geom_bond_distance
_geom_bond_site_symmetry_2
_ccdc_geom_bond_type
C0 C1 1.560 . S
C0 H61 0.959 . S
C0 H62 0.959 . S
C0 H63 0.960 . S
C1 C0 1.560 . S
C1 O56 1.426 . S
C1 H60 0.980 . S
C2 C3 1.407 . S
C2 C7 1.418 . S
C2 O56 1.334 . S
C3 C2 1.407 . S
C3 C4 1.360 . S
C3 H64 0.929 . S
C4 C3 1.360 . S
C4 C5 1.401 . S
C4 C8 1.527 . S
C5 C4 1.401 . S
C5 C6 1.405 . S
C5 C38 1.587 . S
C6 C5 1.405 . S
C6 C7 1.332 . S
C6 C9 1.496 . S
C7 C2 1.418 . S
C7 C6 1.332 . S
C7 H65 0.929 . S
C8 C4 1.527 . S
C8 H66 0.959 . S
C8 H67 0.961 . S
C8 H68 0.961 . S
C9 C6 1.496 . S
C9 H69 0.960 . S
C9 H70 0.960 . S
C9 H71 0.961 . S
C10 C11 1.517 . S
C10 H73 0.961 . S
C10 H74 0.960 . S
C10 H75 0.959 . S
C11 C10 1.517 . S
C11 O59 1.468 . S
C11 H72 0.980 . S
C12 C13 1.349 . S
C12 C17 1.367 . S
C12 O59 1.408 . S
C13 C12 1.349 . S
C13 C14 1.407 . S
C13 H76 0.930 . S
C14 C13 1.407 . S
C14 C15 1.449 . S
C14 C18 1.535 . S
C15 C14 1.449 . S
C15 C16 1.384 . S
C15 C40 1.553 1_655 S
C16 C15 1.384 . S
C16 C17 1.364 . S
C16 C19 1.450 . S
C17 C12 1.367 . S
C17 C16 1.364 . S
C17 H77 0.931 . S
C18 C14 1.535 . S
C18 H78 0.959 1_655 S
C18 H79 0.961 . S
C18 H80 0.959 . S
C19 C16 1.450 . S
C19 H81 0.960 . S
C19 H82 0.960 1_655 S
C19 H83 0.960 . S
C20 C21 1.309 . S
C20 C25 1.304 . S
C20 O58 1.435 . S
C21 C20 1.309 . S
C21 C22 1.476 . S
C21 H85 0.930 . S
C22 C21 1.476 . S
C22 C23 1.400 . S
C22 C26 1.567 . S
C23 C22 1.400 . S
C23 C24 1.373 . S
C23 C45 1.432 . S
C24 C23 1.373 . S
C24 C25 1.339 . S
C24 C27 1.530 . S
C25 C20 1.304 . S
C25 C24 1.339 . S
C25 H86 0.930 . S
C26 C22 1.567 . S
C26 H87 0.961 . S
C26 H88 0.960 . S
C26 H89 0.958 . S
C27 C24 1.530 . S
C27 H90 0.961 . S
C27 H91 0.960 . S
C27 H92 0.960 . S
C28 C29 1.530 . S
C28 H94 0.961 . S
C28 H95 0.961 . S
C28 H96 0.959 . S
C29 C28 1.530 . S
C29 O57 1.412 . S
C29 H93 0.980 . S
C30 C31 1.288 . S
C30 C35 1.377 . S
C30 O57 1.393 . S
C31 C30 1.288 . S
C31 C32 1.369 . S
C31 H97 0.932 . S
C32 C31 1.369 . S
C32 C33 1.398 . S
C32 C36 1.527 . S
C33 C32 1.398 . S
C33 C34 1.380 . S
C33 C47 1.497 . S
C34 C33 1.380 . S
C34 C35 1.383 . S
C34 C37 1.603 . S
C35 C30 1.377 . S
C35 C34 1.383 . S
C35 H98 0.929 . S
C36 C32 1.527 . S
C36 H99 0.961 . S
C36 H100 0.959 1_455 S
C36 H101 0.959 . S
C37 C34 1.603 . S
C37 H102 0.960 . S
C37 H103 0.962 . S
C37 H104 0.961 . S
C38 C5 1.587 . S
C38 C39 1.360 . S
C38 C51 1.412 . S
C39 C38 1.360 . S
C39 C40 1.365 . S
C39 H105 0.929 . S
C40 C15 1.553 1_455 S
C40 C39 1.365 . S
C40 C41 1.404 1_455 S
C41 C40 1.404 1_655 S
C41 C42 1.395 . S
C41 C52 1.451 1_655 S
C42 C41 1.395 . S
C42 C43 1.322 . S
C42 H106 0.930 . S
C43 C42 1.322 . S
C43 C44 1.459 . S
C43 H107 0.929 . S
C44 C43 1.459 . S
C44 C45 1.445 . S
C44 C53 1.395 1_655 S
C45 C23 1.432 . S
C45 C44 1.445 . S
C45 C46 1.370 . S
C46 C45 1.370 . S
C46 C47 1.438 1_655 S
C46 H108 0.930 . S
C47 C33 1.497 . S
C47 C46 1.438 1_455 S
C47 C48 1.360 . S
C48 C47 1.360 . S
C48 C49 1.401 . S
C48 C53 1.446 . S
C49 C48 1.401 . S
C49 C50 1.347 . S
C49 H109 0.929 . S
C50 C49 1.347 . S
C50 C51 1.455 . S
C50 H110 0.930 . S
C51 C38 1.412 . S
C51 C50 1.455 . S
C51 C52 1.331 . S
C52 C41 1.451 1_455 S
C52 C51 1.331 . S
C52 C53 1.497 . S
C53 C44 1.395 1_455 S
C53 C48 1.446 . S
C53 C52 1.497 . S
C54 C55 1.582 . S
C54 H111 0.962 . S
C54 H112 0.959 . S
C54 H113 0.958 . S
C55 C54 1.582 . S
C55 O58 1.458 . S
C55 H84 0.980 . S
O56 C1 1.426 . S
O56 C2 1.334 . S
O57 C29 1.412 . S
O57 C30 1.393 . S
O58 C20 1.435 . S
O58 C55 1.458 . S
O59 C11 1.468 . S
O59 C12 1.408 . S
H60 C1 0.980 . S
H61 C0 0.959 . S
H62 C0 0.959 . S
H63 C0 0.960 . S
H64 C3 0.929 . S
H65 C7 0.929 . S
H66 C8 0.959 . S
H67 C8 0.961 . S
H68 C8 0.961 . S
H69 C9 0.960 . S
H70 C9 0.960 . S
H71 C9 0.961 . S
H72 C11 0.980 . S
H73 C10 0.961 . S
H74 C10 0.960 . S
H75 C10 0.959 . S
H76 C13 0.930 . S
H77 C17 0.931 . S
H78 C18 0.959 1_455 S
H79 C18 0.961 . S
H80 C18 0.959 . S
H81 C19 0.960 . S
H82 C19 0.960 1_455 S
H83 C19 0.960 . S
H84 C55 0.980 . S
H85 C21 0.930 . S
H86 C25 0.930 . S
H87 C26 0.961 . S
H88 C26 0.960 . S
H89 C26 0.958 . S
H90 C27 0.961 . S
H91 C27 0.960 . S
H92 C27 0.960 . S
H93 C29 0.980 . S
H94 C28 0.961 . S
H95 C28 0.961 . S
H96 C28 0.959 . S
H97 C31 0.932 . S
H98 C35 0.929 . S
H99 C36 0.961 . S
H100 C36 0.959 1_655 S
H101 C36 0.959 . S
H102 C37 0.960 . S
H103 C37 0.962 . S
H104 C37 0.961 . S
H105 C39 0.929 . S
H106 C42 0.930 . S
H107 C43 0.929 . S
H108 C46 0.930 . S
H109 C49 0.929 . S
H110 C50 0.930 . S
H111 C54 0.962 . S
H112 C54 0.959 . S
H113 C54 0.958 . S
C114 C115 1.560 . S
C114 H175 0.959 . S
C114 H176 0.959 . S
C114 H177 0.960 . S
C115 C114 1.560 . S
C115 O170 1.426 . S
C115 H174 0.980 . S
C116 C117 1.407 . S
C116 C121 1.418 . S
C116 O170 1.334 . S
C117 C116 1.407 . S
C117 C118 1.360 . S
C117 H178 0.929 . S
C118 C117 1.360 . S
C118 C119 1.401 . S
C118 C122 1.527 . S
C119 C118 1.401 . S
C119 C120 1.405 . S
C119 C152 1.587 . S
C120 C119 1.405 . S
C120 C121 1.332 . S
C120 C123 1.496 . S
C121 C116 1.418 . S
C121 C120 1.332 . S
C121 H179 0.929 . S
C122 C118 1.527 . S
C122 H180 0.959 . S
C122 H181 0.961 . S
C122 H182 0.961 . S
C123 C120 1.496 . S
C123 H183 0.960 . S
C123 H184 0.960 . S
C123 H185 0.961 . S
C124 C125 1.517 . S
C124 H187 0.961 . S
C124 H188 0.960 . S
C124 H189 0.959 . S
C125 C124 1.517 . S
C125 O173 1.468 . S
C125 H186 0.980 . S
C126 C127 1.349 . S
C126 C131 1.367 . S
C126 O173 1.408 . S
C127 C126 1.349 . S
C127 C128 1.407 . S
C127 H190 0.930 . S
C128 C127 1.407 . S
C128 C129 1.449 . S
C128 C132 1.535 . S
C129 C128 1.449 . S
C129 C130 1.384 . S
C129 C154 1.553 . S
C130 C129 1.384 . S
C130 C131 1.364 . S
C130 C133 1.450 . S
C131 C126 1.367 . S
C131 C130 1.364 . S
C131 H191 0.931 . S
C132 C128 1.535 . S
C132 H192 0.959 . S
C132 H193 0.961 . S
C132 H194 0.959 . S
C133 C130 1.450 . S
C133 H195 0.960 . S
C133 H196 0.960 . S
C133 H197 0.960 . S
C134 C135 1.309 . S
C134 C139 1.304 . S
C134 O172 1.435 . S
C135 C134 1.309 . S
C135 C136 1.476 . S
C135 H199 0.930 . S
C136 C135 1.476 . S
C136 C137 1.400 . S
C136 C140 1.567 . S
C137 C136 1.400 . S
C137 C138 1.373 . S
C137 C159 1.432 . S
C138 C137 1.373 . S
C138 C139 1.339 . S
C138 C141 1.530 . S
C139 C134 1.304 . S
C139 C138 1.339 . S
C139 H200 0.930 . S
C140 C136 1.567 . S
C140 H201 0.961 . S
C140 H202 0.960 . S
C140 H203 0.958 . S
C141 C138 1.530 . S
C141 H204 0.961 . S
C141 H205 0.960 . S
C141 H206 0.960 . S
C142 C143 1.530 . S
C142 H208 0.961 . S
C142 H209 0.961 . S
C142 H210 0.959 . S
C143 C142 1.530 . S
C143 O171 1.412 . S
C143 H207 0.980 . S
C144 C145 1.288 . S
C144 C149 1.377 . S
C144 O171 1.393 . S
C145 C144 1.288 . S
C145 C146 1.369 . S
C145 H211 0.932 . S
C146 C145 1.369 . S
C146 C147 1.398 . S
C146 C150 1.527 . S
C147 C146 1.398 . S
C147 C148 1.380 . S
C147 C161 1.497 . S
C148 C147 1.380 . S
C148 C149 1.383 . S
C148 C151 1.603 . S
C149 C144 1.377 . S
C149 C148 1.383 . S
C149 H212 0.929 . S
C150 C146 1.527 . S
C150 H213 0.961 . S
C150 H214 0.959 1_565 S
C150 H215 0.959 . S
C151 C148 1.603 . S
C151 H216 0.960 . S
C151 H217 0.962 . S
C151 H218 0.961 . S
C152 C119 1.587 . S
C152 C153 1.360 . S
C152 C165 1.412 . S
C153 C152 1.360 . S
C153 C154 1.365 1_565 S
C153 H219 0.929 . S
C154 C129 1.553 . S
C154 C153 1.365 1_545 S
C154 C155 1.404 . S
C155 C154 1.404 . S
C155 C156 1.395 . S
C155 C166 1.451 1_545 S
C156 C155 1.395 . S
C156 C157 1.322 . S
C156 H220 0.930 . S
C157 C156 1.322 . S
C157 C158 1.459 . S
C157 H221 0.929 . S
C158 C157 1.459 . S
C158 C159 1.445 . S
C158 C167 1.395 . S
C159 C137 1.432 . S
C159 C158 1.445 . S
C159 C160 1.370 . S
C160 C159 1.370 . S
C160 C161 1.438 1_545 S
C160 H222 0.930 . S
C161 C147 1.497 . S
C161 C160 1.438 1_565 S
C161 C162 1.360 . S
C162 C161 1.360 . S
C162 C163 1.401 . S
C162 C167 1.446 1_565 S
C163 C162 1.401 . S
C163 C164 1.347 . S
C163 H223 0.929 . S
C164 C163 1.347 . S
C164 C165 1.455 . S
C164 H224 0.930 . S
C165 C152 1.412 . S
C165 C164 1.455 . S
C165 C166 1.331 . S
C166 C155 1.451 1_565 S
C166 C165 1.331 . S
C166 C167 1.497 1_565 S
C167 C158 1.395 . S
C167 C162 1.446 1_545 S
C167 C166 1.497 1_545 S
C168 C169 1.582 . S
C168 H225 0.962 . S
C168 H226 0.959 . S
C168 H227 0.958 . S
C169 C168 1.582 . S
C169 O172 1.458 . S
C169 H198 0.980 . S
O170 C115 1.426 . S
O170 C116 1.334 . S
O171 C143 1.412 . S
O171 C144 1.393 . S
O172 C134 1.435 . S
O172 C169 1.458 . S
O173 C125 1.468 . S
O173 C126 1.408 . S
H174 C115 0.980 . S
H175 C114 0.959 . S
H176 C114 0.959 . S
H177 C114 0.960 . S
H178 C117 0.929 . S
H179 C121 0.929 . S
H180 C122 0.959 . S
H181 C122 0.961 . S
H182 C122 0.961 . S
H183 C123 0.960 . S
H184 C123 0.960 . S
H185 C123 0.961 . S
H186 C125 0.980 . S
H187 C124 0.961 . S
H188 C124 0.960 . S
H189 C124 0.959 . S
H190 C127 0.930 . S
H191 C131 0.931 . S
H192 C132 0.959 . S
H193 C132 0.961 . S
H194 C132 0.959 . S
H195 C133 0.960 . S
H196 C133 0.960 . S
H197 C133 0.960 . S
H198 C169 0.980 . S
H199 C135 0.930 . S
H200 C139 0.930 . S
H201 C140 0.961 . S
H202 C140 0.960 . S
H203 C140 0.958 . S
H204 C141 0.961 . S
H205 C141 0.960 . S
H206 C141 0.960 . S
H207 C143 0.980 . S
H208 C142 0.961 . S
H209 C142 0.961 . S
H210 C142 0.959 . S
H211 C145 0.932 . S
H212 C149 0.929 . S
H213 C150 0.961 . S
H214 C150 0.959 1_545 S
H215 C150 0.959 . S
H216 C151 0.960 . S
H217 C151 0.962 . S
H218 C151 0.961 . S
H219 C153 0.929 . S
H220 C156 0.930 . S
H221 C157 0.929 . S
H222 C160 0.930 . S
H223 C163 0.929 . S
H224 C164 0.930 . S
H225 C168 0.962 . S
H226 C168 0.959 . S
H227 C168 0.958 . S
C228 C229 1.560 . S
C228 H289 0.959 . S
C228 H290 0.959 . S
C228 H291 0.960 . S
C229 C228 1.560 . S
C229 O284 1.426 . S
C229 H288 0.980 . S
C230 C231 1.407 . S
C230 C235 1.418 . S
C230 O284 1.334 . S
C231 C230 1.407 . S
C231 C232 1.360 . S
C231 H292 0.929 . S
C232 C231 1.360 . S
C232 C233 1.401 . S
C232 C236 1.527 . S
C233 C232 1.401 . S
C233 C234 1.405 . S
C233 C266 1.587 . S
C234 C233 1.405 . S
C234 C235 1.332 . S
C234 C237 1.496 . S
C235 C230 1.418 . S
C235 C234 1.332 . S
C235 H293 0.929 . S
C236 C232 1.527 . S
C236 H294 0.959 . S
C236 H295 0.961 . S
C236 H296 0.961 . S
C237 C234 1.496 . S
C237 H297 0.960 . S
C237 H298 0.960 . S
C237 H299 0.961 . S
C238 C239 1.517 . S
C238 H301 0.961 . S
C238 H302 0.960 . S
C238 H303 0.959 . S
C239 C238 1.517 . S
C239 O287 1.468 . S
C239 H300 0.980 . S
C240 C241 1.349 . S
C240 C245 1.367 . S
C240 O287 1.408 . S
C241 C240 1.349 . S
C241 C242 1.407 . S
C241 H304 0.930 . S
C242 C241 1.407 . S
C242 C243 1.449 . S
C242 C246 1.535 . S
C243 C242 1.449 . S
C243 C244 1.384 . S
C243 C268 1.553 . S
C244 C243 1.384 . S
C244 C245 1.364 . S
C244 C247 1.450 . S
C245 C240 1.367 . S
C245 C244 1.364 . S
C245 H305 0.931 . S
C246 C242 1.535 . S
C246 H306 0.959 . S
C246 H307 0.961 . S
C246 H308 0.959 . S
C247 C244 1.450 . S
C247 H309 0.960 . S
C247 H310 0.960 . S
C247 H311 0.960 . S
C248 C249 1.309 . S
C248 C253 1.304 . S
C248 O286 1.435 . S
C249 C248 1.309 . S
C249 C250 1.476 . S
C249 H313 0.930 . S
C250 C249 1.476 . S
C250 C251 1.400 . S
C250 C254 1.567 . S
C251 C250 1.400 . S
C251 C252 1.373 . S
C251 C273 1.432 . S
C252 C251 1.373 . S
C252 C253 1.339 . S
C252 C255 1.530 . S
C253 C248 1.304 . S
C253 C252 1.339 . S
C253 H314 0.930 . S
C254 C250 1.567 . S
C254 H315 0.961 . S
C254 H316 0.960 . S
C254 H317 0.958 . S
C255 C252 1.530 . S
C255 H318 0.961 . S
C255 H319 0.960 . S
C255 H320 0.960 . S
C256 C257 1.530 . S
C256 H322 0.961 . S
C256 H323 0.961 . S
C256 H324 0.959 . S
C257 C256 1.530 . S
C257 O285 1.412 . S
C257 H321 0.980 . S
C258 C259 1.288 . S
C258 C263 1.377 . S
C258 O285 1.393 . S
C259 C258 1.288 . S
C259 C260 1.369 . S
C259 H325 0.932 . S
C260 C259 1.369 . S
C260 C261 1.398 . S
C260 C264 1.527 . S
C261 C260 1.398 . S
C261 C262 1.380 . S
C261 C275 1.497 . S
C262 C261 1.380 . S
C262 C263 1.383 . S
C262 C265 1.603 . S
C263 C258 1.377 . S
C263 C262 1.383 . S
C263 H326 0.929 . S
C264 C260 1.527 . S
C264 H327 0.961 . S
C264 H328 0.959 . S
C264 H329 0.959 . S
C265 C262 1.603 . S
C265 H330 0.960 . S
C265 H331 0.962 . S
C265 H332 0.961 . S
C266 C233 1.587 . S
C266 C267 1.360 . S
C266 C279 1.412 . S
C267 C266 1.360 . S
C267 C268 1.365 . S
C267 H333 0.929 . S
C268 C243 1.553 . S
C268 C267 1.365 . S
C268 C269 1.404 . S
C269 C268 1.404 . S
C269 C270 1.395 . S
C269 C280 1.451 . S
C270 C269 1.395 . S
C270 C271 1.322 . S
C270 H334 0.930 . S
C271 C270 1.322 . S
C271 C272 1.459 . S
C271 H335 0.929 . S
C272 C271 1.459 . S
C272 C273 1.445 . S
C272 C281 1.395 . S
C273 C251 1.432 . S
C273 C272 1.445 . S
C273 C274 1.370 . S
C274 C273 1.370 . S
C274 C275 1.438 . S
C274 H336 0.930 . S
C275 C261 1.497 . S
C275 C274 1.438 . S
C275 C276 1.360 . S
C276 C275 1.360 . S
C276 C277 1.401 . S
C276 C281 1.446 . S
C277 C276 1.401 . S
C277 C278 1.347 . S
C277 H337 0.929 . S
C278 C277 1.347 . S
C278 C279 1.455 . S
C278 H338 0.930 . S
C279 C266 1.412 . S
C279 C278 1.455 . S
C279 C280 1.331 . S
C280 C269 1.451 . S
C280 C279 1.331 . S
C280 C281 1.497 . S
C281 C272 1.395 . S
C281 C276 1.446 . S
C281 C280 1.497 . S
C282 C283 1.582 . S
C282 H339 0.962 . S
C282 H340 0.959 . S
C282 H341 0.958 . S
C283 C282 1.582 . S
C283 O286 1.458 . S
C283 H312 0.980 . S
O284 C229 1.426 . S
O284 C230 1.334 . S
O285 C257 1.412 . S
O285 C258 1.393 . S
O286 C248 1.435 . S
O286 C283 1.458 . S
O287 C239 1.468 . S
O287 C240 1.408 . S
H288 C229 0.980 . S
H289 C228 0.959 . S
H290 C228 0.959 . S
H291 C228 0.960 . S
H292 C231 0.929 . S
H293 C235 0.929 . S
H294 C236 0.959 . S
H295 C236 0.961 . S
H296 C236 0.961 . S
H297 C237 0.960 . S
H298 C237 0.960 . S
H299 C237 0.961 . S
H300 C239 0.980 . S
H301 C238 0.961 . S
H302 C238 0.960 . S
H303 C238 0.959 . S
H304 C241 0.930 . S
H305 C245 0.931 . S
H306 C246 0.959 . S
H307 C246 0.961 . S
H308 C246 0.959 . S
H309 C247 0.960 . S
H310 C247 0.960 . S
H311 C247 0.960 . S
H312 C283 0.980 . S
H313 C249 0.930 . S
H314 C253 0.930 . S
H315 C254 0.961 . S
H316 C254 0.960 . S
H317 C254 0.958 . S
H318 C255 0.961 . S
H319 C255 0.960 . S
H320 C255 0.960 . S
H321 C257 0.980 . S
H322 C256 0.961 . S
H323 C256 0.961 . S
H324 C256 0.959 . S
H325 C259 0.932 . S
H326 C263 0.929 . S
H327 C264 0.961 . S
H328 C264 0.959 . S
H329 C264 0.959 . S
H330 C265 0.960 . S
H331 C265 0.962 . S
H332 C265 0.961 . S
H333 C267 0.929 . S
H334 C270 0.930 . S
H335 C271 0.929 . S
H336 C274 0.930 . S
H337 C277 0.929 . S
H338 C278 0.930 . S
H339 C282 0.962 . S
H340 C282 0.959 . S
H341 C282 0.958 . S
C342 C343 1.560 . S
C342 H403 0.959 . S
C342 H404 0.959 . S
C342 H405 0.960 . S
C343 C342 1.560 . S
C343 O398 1.426 . S
C343 H402 0.980 . S
C344 C345 1.407 . S
C344 C349 1.418 . S
C344 O398 1.334 . S
C345 C344 1.407 . S
C345 C346 1.360 . S
C345 H406 0.929 . S
C346 C345 1.360 . S
C346 C347 1.401 . S
C346 C350 1.527 . S
C347 C346 1.401 . S
C347 C348 1.405 . S
C347 C380 1.587 . S
C348 C347 1.405 . S
C348 C349 1.332 . S
C348 C351 1.496 . S
C349 C344 1.418 . S
C349 C348 1.332 . S
C349 H407 0.929 . S
C350 C346 1.527 . S
C350 H408 0.959 . S
C350 H409 0.961 . S
C350 H410 0.961 . S
C351 C348 1.496 . S
C351 H411 0.960 . S
C351 H412 0.960 . S
C351 H413 0.961 . S
C352 C353 1.517 . S
C352 H415 0.961 1_556 S
C352 H416 0.960 1_556 S
C352 H417 0.959 . S
C353 C352 1.517 . S
C353 O401 1.468 . S
C353 H414 0.980 . S
C354 C355 1.349 . S
C354 C359 1.367 . S
C354 O401 1.408 . S
C355 C354 1.349 . S
C355 C356 1.407 . S
C355 H418 0.930 . S
C356 C355 1.407 . S
C356 C357 1.449 . S
C356 C360 1.535 . S
C357 C356 1.449 . S
C357 C358 1.384 . S
C357 C382 1.553 1_655 S
C358 C357 1.384 . S
C358 C359 1.364 . S
C358 C361 1.450 . S
C359 C354 1.367 . S
C359 C358 1.364 . S
C359 H419 0.931 . S
C360 C356 1.535 . S
C360 H420 0.959 1_655 S
C360 H421 0.961 1_655 S
C360 H422 0.959 . S
C361 C358 1.450 . S
C361 H423 0.960 . S
C361 H424 0.960 1_655 S
C361 H425 0.960 . S
C362 C363 1.309 . S
C362 C367 1.304 . S
C362 O400 1.435 . S
C363 C362 1.309 . S
C363 C364 1.476 . S
C363 H427 0.930 . S
C364 C363 1.476 . S
C364 C365 1.400 . S
C364 C368 1.567 . S
C365 C364 1.400 . S
C365 C366 1.373 . S
C365 C387 1.432 . S
C366 C365 1.373 . S
C366 C367 1.339 . S
C366 C369 1.530 . S
C367 C362 1.304 . S
C367 C366 1.339 . S
C367 H428 0.930 . S
C368 C364 1.567 . S
C368 H429 0.961 . S
C368 H430 0.960 . S
C368 H431 0.958 . S
C369 C366 1.530 . S
C369 H432 0.961 . S
C369 H433 0.960 . S
C369 H434 0.960 . S
C370 C371 1.530 . S
C370 H436 0.961 . S
C370 H437 0.961 . S
C370 H438 0.959 . S
C371 C370 1.530 . S
C371 O399 1.412 . S
C371 H435 0.980 . S
C372 C373 1.288 . S
C372 C377 1.377 . S
C372 O399 1.393 . S
C373 C372 1.288 . S
C373 C374 1.369 . S
C373 H439 0.932 . S
C374 C373 1.369 . S
C374 C375 1.398 . S
C374 C378 1.527 . S
C375 C374 1.398 . S
C375 C376 1.380 . S
C375 C389 1.497 . S
C376 C375 1.380 . S
C376 C377 1.383 . S
C376 C379 1.603 . S
C377 C372 1.377 . S
C377 C376 1.383 . S
C377 H440 0.929 . S
C378 C374 1.527 . S
C378 H441 0.961 . S
C378 H442 0.935 1_455 S
C378 H443 0.959 . S
C379 C376 1.603 . S
C379 H444 0.960 . S
C379 H445 0.962 . S
C379 H446 0.961 . S
C380 C347 1.587 . S
C380 C381 1.360 . S
C380 C393 1.412 . S
C381 C380 1.360 . S
C381 C382 1.365 . S
C381 H447 0.929 . S
C382 C357 1.553 1_455 S
C382 C381 1.365 . S
C382 C383 1.404 . S
C383 C382 1.404 . S
C383 C384 1.395 1_455 S
C383 C394 1.451 . S
C384 C383 1.395 1_655 S
C384 C385 1.322 . S
C384 H448 0.930 . S
C385 C384 1.322 . S
C385 C386 1.459 . S
C385 H449 0.929 . S
C386 C385 1.459 . S
C386 C387 1.445 . S
C386 C395 1.395 1_655 S
C387 C365 1.432 . S
C387 C386 1.445 . S
C387 C388 1.370 . S
C388 C387 1.370 . S
C388 C389 1.438 1_655 S
C388 H450 0.930 . S
C389 C375 1.497 . S
C389 C388 1.438 1_455 S
C389 C390 1.360 . S
C390 C389 1.360 . S
C390 C391 1.401 . S
C390 C395 1.446 . S
C391 C390 1.401 . S
C391 C392 1.347 . S
C391 H451 0.929 . S
C392 C391 1.347 . S
C392 C393 1.455 . S
C392 H452 0.930 . S
C393 C380 1.412 . S
C393 C392 1.455 . S
C393 C394 1.331 . S
C394 C383 1.451 . S
C394 C393 1.331 . S
C394 C395 1.497 . S
C395 C386 1.395 1_455 S
C395 C390 1.446 . S
C395 C394 1.497 . S
C396 C397 1.582 . S
C396 H453 0.962 . S
C396 H454 0.959 . S
C396 H455 0.958 . S
C397 C396 1.582 . S
C397 O400 1.458 . S
C397 H426 0.980 . S
O398 C343 1.426 . S
O398 C344 1.334 . S
O399 C371 1.412 . S
O399 C372 1.393 . S
O400 C362 1.435 . S
O400 C397 1.458 . S
O401 C353 1.468 . S
O401 C354 1.408 . S
H402 C343 0.980 . S
H403 C342 0.959 . S
H404 C342 0.959 . S
H405 C342 0.960 . S
H406 C345 0.929 . S
H407 C349 0.929 . S
H408 C350 0.959 . S
H409 C350 0.961 . S
H410 C350 0.961 . S
H411 C351 0.960 . S
H412 C351 0.960 . S
H413 C351 0.961 . S
H414 C353 0.980 . S
H415 C352 0.961 1_554 S
H416 C352 0.960 1_554 S
H417 C352 0.959 . S
H418 C355 0.930 . S
H419 C359 0.931 . S
H420 C360 0.959 1_455 S
H421 C360 0.961 1_455 S
H422 C360 0.959 . S
H423 C361 0.960 . S
H424 C361 0.960 1_455 S
H425 C361 0.960 . S
H426 C397 0.980 . S
H427 C363 0.930 . S
H428 C367 0.930 . S
H429 C368 0.961 . S
H430 C368 0.960 . S
H431 C368 0.958 . S
H432 C369 0.961 . S
H433 C369 0.960 . S
H434 C369 0.960 . S
H435 C371 0.980 . S
H436 C370 0.961 . S
H437 C370 0.961 . S
H438 C370 0.959 . S
H439 C373 0.932 . S
H440 C377 0.929 . S
H441 C378 0.961 . S
H442 C378 0.935 1_655 S
H443 C378 0.959 . S
H444 C379 0.960 . S
H445 C379 0.962 . S
H446 C379 0.961 . S
H447 C381 0.929 . S
H448 C384 0.930 . S
H449 C385 0.929 . S
H450 C388 0.930 . S
H451 C391 0.929 . S
H452 C392 0.930 . S
H453 C396 0.962 . S
H454 C396 0.959 . S
H455 C396 0.958 . S
C456 C457 1.560 . S
C456 H517 0.959 . S
C456 H518 0.959 . S
C456 H519 0.960 . S
C457 C456 1.560 . S
C457 O512 1.426 . S
C457 H516 0.980 . S
C458 C459 1.407 . S
C458 C463 1.418 . S
C458 O512 1.334 . S
C459 C458 1.407 . S
C459 C460 1.360 . S
C459 H520 0.929 . S
C460 C459 1.360 . S
C460 C461 1.401 . S
C460 C464 1.527 . S
C461 C460 1.401 . S
C461 C462 1.405 . S
C461 C494 1.587 . S
C462 C461 1.405 . S
C462 C463 1.332 . S
C462 C465 1.496 . S
C463 C458 1.418 . S
C463 C462 1.332 . S
C463 H521 0.929 . S
C464 C460 1.527 . S
C464 H522 0.959 . S
C464 H523 0.961 . S
C464 H524 0.961 . S
C465 C462 1.496 . S
C465 H525 0.960 . S
C465 H526 0.960 . S
C465 H527 0.961 . S
C466 C467 1.517 . S
C466 H529 0.961 . S
C466 H530 0.960 . S
C466 H531 0.959 . S
C467 C466 1.517 . S
C467 O515 1.468 . S
C467 H528 0.980 . S
C468 C469 1.349 . S
C468 C473 1.367 . S
C468 O515 1.408 . S
C469 C468 1.349 . S
C469 C470 1.407 . S
C469 H532 0.930 . S
C470 C469 1.407 . S
C470 C471 1.449 . S
C470 C474 1.535 . S
C471 C470 1.449 . S
C471 C472 1.384 . S
C471 C496 1.553 . S
C472 C471 1.384 . S
C472 C473 1.364 . S
C472 C475 1.450 . S
C473 C468 1.367 . S
C473 C472 1.364 . S
C473 H533 0.931 . S
C474 C470 1.535 . S
C474 H534 0.959 . S
C474 H535 0.961 . S
C474 H536 0.959 . S
C475 C472 1.450 . S
C475 H537 0.960 . S
C475 H538 0.982 . S
C475 H539 0.960 . S
C476 C477 1.309 . S
C476 C481 1.304 . S
C476 O514 1.435 . S
C477 C476 1.309 . S
C477 C478 1.476 . S
C477 H541 0.930 . S
C478 C477 1.476 . S
C478 C479 1.400 . S
C478 C482 1.567 . S
C479 C478 1.400 . S
C479 C480 1.373 . S
C479 C501 1.432 . S
C480 C479 1.373 . S
C480 C481 1.339 . S
C480 C483 1.530 . S
C481 C476 1.304 . S
C481 C480 1.339 . S
C481 H542 0.930 . S
C482 C478 1.567 . S
C482 H543 0.961 . S
C482 H544 0.960 . S
C482 H545 0.958 . S
C483 C480 1.530 . S
C483 H546 0.961 . S
C483 H547 0.960 . S
C483 H548 0.960 . S
C484 C485 1.530 . S
C484 H550 0.961 . S
C484 H551 0.961 . S
C484 H552 0.959 . S
C485 C484 1.530 . S
C485 O513 1.412 . S
C485 H549 0.980 . S
C486 C487 1.288 . S
C486 C491 1.377 . S
C486 O513 1.393 . S
C487 C486 1.288 . S
C487 C488 1.369 . S
C487 H553 0.932 . S
C488 C487 1.369 . S
C488 C489 1.398 . S
C488 C492 1.527 1_565 S
C489 C488 1.398 . S
C489 C490 1.380 . S
C489 C503 1.497 1_565 S
C490 C489 1.380 . S
C490 C491 1.383 . S
C490 C493 1.603 . S
C491 C486 1.377 . S
C491 C490 1.383 . S
C491 H554 0.929 . S
C492 C488 1.527 1_545 S
C492 H555 0.961 1_545 S
C492 H556 0.956 . S
C492 H557 0.962 1_545 S
C493 C490 1.603 . S
C493 H558 0.960 . S
C493 H559 0.962 . S
C493 H560 0.961 . S
C494 C461 1.587 . S
C494 C495 1.360 . S
C494 C507 1.412 . S
C495 C494 1.360 . S
C495 C496 1.365 1_565 S
C495 H561 0.929 . S
C496 C471 1.553 . S
C496 C495 1.365 1_545 S
C496 C497 1.404 . S
C497 C496 1.404 . S
C497 C498 1.395 . S
C497 C508 1.451 1_545 S
C498 C497 1.395 . S
C498 C499 1.322 . S
C498 H562 0.930 . S
C499 C498 1.322 . S
C499 C500 1.459 1_556 S
C499 H563 0.929 . S
C500 C499 1.459 1_554 S
C500 C501 1.445 . S
C500 C509 1.395 1_554 S
C501 C479 1.432 . S
C501 C500 1.445 . S
C501 C502 1.370 . S
C502 C501 1.370 . S
C502 C503 1.438 . S
C502 H564 0.930 . S
C503 C489 1.497 1_545 S
C503 C502 1.438 . S
C503 C504 1.360 1_545 S
C504 C503 1.360 1_565 S
C504 C505 1.401 . S
C504 C509 1.446 1_564 S
C505 C504 1.401 . S
C505 C506 1.347 1_554 S
C505 H565 0.929 . S
C506 C505 1.347 1_556 S
C506 C507 1.455 . S
C506 H566 0.930 . S
C507 C494 1.412 . S
C507 C506 1.455 . S
C507 C508 1.331 . S
C508 C497 1.451 1_565 S
C508 C507 1.331 . S
C508 C509 1.497 1_565 S
C509 C500 1.395 1_556 S
C509 C504 1.446 1_546 S
C509 C508 1.497 1_545 S
C510 C511 1.582 . S
C510 H567 0.962 . S
C510 H568 0.959 . S
C510 H569 0.958 . S
C511 C510 1.582 . S
C511 O514 1.458 . S
C511 H540 0.980 . S
O512 C457 1.426 . S
O512 C458 1.334 . S
O513 C485 1.412 . S
O513 C486 1.393 . S
O514 C476 1.435 . S
O514 C511 1.458 . S
O515 C467 1.468 . S
O515 C468 1.408 . S
H516 C457 0.980 . S
H517 C456 0.959 . S
H518 C456 0.959 . S
H519 C456 0.960 . S
H520 C459 0.929 . S
H521 C463 0.929 . S
H522 C464 0.959 . S
H523 C464 0.961 . S
H524 C464 0.961 . S
H525 C465 0.960 . S
H526 C465 0.960 . S
H527 C465 0.961 . S
H528 C467 0.980 . S
H529 C466 0.961 . S
H530 C466 0.960 . S
H531 C466 0.959 . S
H532 C469 0.930 . S
H533 C473 0.931 . S
H534 C474 0.959 . S
H535 C474 0.961 . S
H536 C474 0.959 . S
H537 C475 0.960 . S
H538 C475 0.982 . S
H539 C475 0.960 . S
H540 C511 0.980 . S
H541 C477 0.930 . S
H542 C481 0.930 . S
H543 C482 0.961 . S
H544 C482 0.960 . S
H545 C482 0.958 . S
H546 C483 0.961 . S
H547 C483 0.960 . S
H548 C483 0.960 . S
H549 C485 0.980 . S
H550 C484 0.961 . S
H551 C484 0.961 . S
H552 C484 0.959 . S
H553 C487 0.932 . S
H554 C491 0.929 . S
H555 C492 0.961 1_565 S
H556 C492 0.956 . S
H557 C492 0.962 1_565 S
H558 C493 0.960 . S
H559 C493 0.962 . S
H560 C493 0.961 . S
H561 C495 0.929 . S
H562 C498 0.930 . S
H563 C499 0.929 . S
H564 C502 0.930 . S
H565 C505 0.929 . S
H566 C506 0.930 . S
H567 C510 0.962 . S
H568 C510 0.959 . S
H569 C510 0.958 . S
C570 C571 1.560 . S
C570 H631 0.959 . S
C570 H632 0.959 . S
C570 H633 0.960 . S
C571 C570 1.560 . S
C571 O626 1.426 . S
C571 H630 0.980 . S
C572 C573 1.407 . S
C572 C577 1.418 . S
C572 O626 1.334 . S
C573 C572 1.407 . S
C573 C574 1.360 . S
C573 H634 0.929 . S
C574 C573 1.360 . S
C574 C575 1.401 . S
C574 C578 1.527 . S
C575 C574 1.401 . S
C575 C576 1.405 . S
C575 C608 1.587 . S
C576 C575 1.405 . S
C576 C577 1.332 . S
C576 C579 1.496 . S
C577 C572 1.418 . S
C577 C576 1.332 . S
C577 H635 0.929 . S
C578 C574 1.527 . S
C578 H636 0.959 . S
C578 H637 0.961 . S
C578 H638 0.961 . S
C579 C576 1.496 . S
C579 H639 0.960 . S
C579 H640 0.960 . S
C579 H641 0.961 . S
C580 C581 1.517 1_556 S
C580 H643 0.961 . S
C580 H644 0.960 . S
C580 H645 0.962 . S
C581 C580 1.517 1_554 S
C581 O629 1.468 . S
C581 H642 0.980 . S
C582 C583 1.349 . S
C582 C587 1.367 . S
C582 O629 1.408 . S
C583 C582 1.349 . S
C583 C584 1.407 . S
C583 H646 0.930 . S
C584 C583 1.407 . S
C584 C585 1.449 . S
C584 C588 1.535 . S
C585 C584 1.449 . S
C585 C586 1.384 . S
C585 C610 1.553 . S
C586 C585 1.384 . S
C586 C587 1.364 . S
C586 C589 1.450 . S
C587 C582 1.367 . S
C587 C586 1.364 . S
C587 H647 0.931 . S
C588 C584 1.535 . S
C588 H648 0.959 . S
C588 H649 0.961 . S
C588 H650 0.959 . S
C589 C586 1.450 . S
C589 H651 0.960 . S
C589 H652 0.960 . S
C589 H653 0.960 . S
C590 C591 1.309 . S
C590 C595 1.304 . S
C590 O628 1.435 . S
C591 C590 1.309 . S
C591 C592 1.476 . S
C591 H655 0.930 . S
C592 C591 1.476 . S
C592 C593 1.400 . S
C592 C596 1.567 . S
C593 C592 1.400 . S
C593 C594 1.373 . S
C593 C615 1.432 . S
C594 C593 1.373 . S
C594 C595 1.339 . S
C594 C597 1.530 . S
C595 C590 1.304 . S
C595 C594 1.339 . S
C595 H656 0.930 . S
C596 C592 1.567 . S
C596 H657 0.961 . S
C596 H658 0.960 . S
C596 H659 0.958 . S
C597 C594 1.530 . S
C597 H660 0.961 . S
C597 H661 0.960 . S
C597 H662 0.960 . S
C598 C599 1.530 . S
C598 H664 0.961 . S
C598 H665 0.961 . S
C598 H666 0.959 . S
C599 C598 1.530 . S
C599 O627 1.412 . S
C599 H663 0.980 . S
C600 C601 1.288 . S
C600 C605 1.377 . S
C600 O627 1.393 . S
C601 C600 1.288 . S
C601 C602 1.369 . S
C601 H667 0.932 . S
C602 C601 1.369 . S
C602 C603 1.398 . S
C602 C606 1.527 . S
C603 C602 1.398 . S
C603 C604 1.380 . S
C603 C617 1.497 . S
C604 C603 1.380 . S
C604 C605 1.383 . S
C604 C607 1.603 . S
C605 C600 1.377 . S
C605 C604 1.383 . S
C605 H668 0.929 . S
C606 C602 1.527 . S
C606 H669 0.961 . S
C606 H670 0.959 . S
C606 H671 0.959 . S
C607 C604 1.603 . S
C607 H672 0.960 . S
C607 H673 0.962 . S
C607 H674 0.961 . S
C608 C575 1.587 . S
C608 C609 1.360 . S
C608 C621 1.412 . S
C609 C608 1.360 . S
C609 C610 1.365 . S
C609 H675 0.929 . S
C610 C585 1.553 . S
C610 C609 1.365 . S
C610 C611 1.404 . S
C611 C610 1.404 . S
C611 C612 1.395 . S
C611 C622 1.451 . S
C612 C611 1.395 . S
C612 C613 1.322 . S
C612 H676 0.930 . S
C613 C612 1.322 . S
C613 C614 1.459 . S
C613 H677 0.929 . S
C614 C613 1.459 . S
C614 C615 1.445 . S
C614 C623 1.395 . S
C615 C593 1.432 . S
C615 C614 1.445 . S
C615 C616 1.370 . S
C616 C615 1.370 . S
C616 C617 1.438 . S
C616 H678 0.930 . S
C617 C603 1.497 . S
C617 C616 1.438 . S
C617 C618 1.360 . S
C618 C617 1.360 . S
C618 C619 1.401 . S
C618 C623 1.446 . S
C619 C618 1.401 . S
C619 C620 1.347 . S
C619 H679 0.929 . S
C620 C619 1.347 . S
C620 C621 1.455 . S
C620 H680 0.930 . S
C621 C608 1.412 . S
C621 C620 1.455 . S
C621 C622 1.331 . S
C622 C611 1.451 . S
C622 C621 1.331 . S
C622 C623 1.497 . S
C623 C614 1.395 . S
C623 C618 1.446 . S
C623 C622 1.497 . S
C624 C625 1.582 . S
C624 H681 0.962 . S
C624 H682 0.959 . S
C624 H683 0.958 . S
C625 C624 1.582 . S
C625 O628 1.458 . S
C625 H654 0.980 . S
O626 C571 1.426 . S
O626 C572 1.334 . S
O627 C599 1.412 . S
O627 C600 1.393 . S
O628 C590 1.435 . S
O628 C625 1.458 . S
O629 C581 1.468 . S
O629 C582 1.408 . S
H630 C571 0.980 . S
H631 C570 0.959 . S
H632 C570 0.959 . S
H633 C570 0.960 . S
H634 C573 0.929 . S
H635 C577 0.929 . S
H636 C578 0.959 . S
H637 C578 0.961 . S
H638 C578 0.961 . S
H639 C579 0.960 . S
H640 C579 0.960 . S
H641 C579 0.961 . S
H642 C581 0.980 . S
H643 C580 0.961 . S
H644 C580 0.960 . S
H645 C580 0.962 . S
H646 C583 0.930 . S
H647 C587 0.931 . S
H648 C588 0.959 . S
H649 C588 0.961 . S
H650 C588 0.959 . S
H651 C589 0.960 . S
H652 C589 0.960 . S
H653 C589 0.960 . S
H654 C625 0.980 . S
H655 C591 0.930 . S
H656 C595 0.930 . S
H657 C596 0.961 . S
H658 C596 0.960 . S
H659 C596 0.958 . S
H660 C597 0.961 . S
H661 C597 0.960 . S
H662 C597 0.960 . S
H663 C599 0.980 . S
H664 C598 0.961 . S
H665 C598 0.961 . S
H666 C598 0.959 . S
H667 C601 0.932 . S
H668 C605 0.929 . S
H669 C606 0.961 . S
H670 C606 0.959 . S
H671 C606 0.959 . S
H672 C607 0.960 . S
H673 C607 0.962 . S
H674 C607 0.961 . S
H675 C609 0.929 . S
H676 C612 0.930 . S
H677 C613 0.929 . S
H678 C616 0.930 . S
H679 C619 0.929 . S
H680 C620 0.930 . S
H681 C624 0.962 . S
H682 C624 0.959 . S
H683 C624 0.958 . S
Zn684 O687 2.031 . S
Zn684 O689 2.049 . S
Zn684 O694 2.067 . S
Zn685 O686 1.962 . S
Zn685 O688 1.986 . S
Zn685 O690 1.996 . S
Zn685 O693 1.943 . S
O686 Zn685 1.962 . S
O686 C691 1.254 . S
O687 Zn684 2.031 . S
O687 C691 1.269 . S
O688 Zn685 1.986 . S
O688 C695 1.262 . S
O689 Zn684 2.049 . S
O689 C697 1.260 . S
O690 Zn685 1.996 . S
O690 C697 1.257 . S
C691 O686 1.254 . S
C691 O687 1.269 . S
C692 O693 1.249 . S
C692 O694 1.270 . S
O693 Zn685 1.943 . S
O693 C692 1.249 . S
O694 Zn684 2.067 . S
O694 C692 1.270 . S
C695 O688 1.262 . S
C695 O696 1.232 . S
O696 C695 1.232 . S
C697 O689 1.260 . S
C697 O690 1.257 . S
Zn698 O701 2.031 . S
Zn698 O703 2.049 . S
Zn698 O708 2.067 . S
Zn699 O700 1.962 . S
Zn699 O702 1.986 . S
Zn699 O704 1.996 . S
Zn699 O707 1.943 . S
O700 Zn699 1.962 . S
O700 C705 1.254 . S
O701 Zn698 2.031 . S
O701 C705 1.269 . S
O702 Zn699 1.986 . S
O702 C709 1.262 . S
O703 Zn698 2.049 . S
O703 C711 1.260 . S
O704 Zn699 1.996 . S
O704 C711 1.257 . S
C705 O700 1.254 . S
C705 O701 1.269 . S
C706 O707 1.249 . S
C706 O708 1.270 . S
O707 Zn699 1.943 . S
O707 C706 1.249 . S
O708 Zn698 2.067 . S
O708 C706 1.270 . S
C709 O702 1.262 . S
C709 O710 1.232 . S
O710 C709 1.232 . S
C711 O703 1.260 . S
C711 O704 1.257 . S
Zn712 O715 2.031 . S
Zn712 O717 2.049 . S
Zn712 O722 2.067 . S
Zn713 O714 1.962 . S
Zn713 O716 1.986 . S
Zn713 O718 1.996 . S
Zn713 O721 1.943 . S
O714 Zn713 1.962 . S
O714 C719 1.254 . S
O715 Zn712 2.031 . S
O715 C719 1.269 . S
O716 Zn713 1.986 . S
O716 C723 1.262 . S
O717 Zn712 2.049 . S
O717 C725 1.260 . S
O718 Zn713 1.996 . S
O718 C725 1.257 . S
C719 O714 1.254 . S
C719 O715 1.269 . S
C720 O721 1.249 . S
C720 O722 1.270 . S
O721 Zn713 1.943 . S
O721 C720 1.249 . S
O722 Zn712 2.067 . S
O722 C720 1.270 . S
C723 O716 1.262 . S
C723 O724 1.232 . S
O724 C723 1.232 . S
C725 O717 1.260 . S
C725 O718 1.257 . S
Zn726 O729 2.031 . S
Zn726 O731 2.049 . S
Zn726 O736 2.067 . S
Zn727 O728 1.962 . S
Zn727 O730 1.986 . S
Zn727 O732 1.996 . S
Zn727 O735 1.943 . S
O728 Zn727 1.962 . S
O728 C733 1.254 . S
O729 Zn726 2.031 . S
O729 C733 1.269 . S
O730 Zn727 1.986 . S
O730 C737 1.262 . S
O731 Zn726 2.049 . S
O731 C739 1.260 . S
O732 Zn727 1.996 . S
O732 C739 1.257 . S
C733 O728 1.254 . S
C733 O729 1.269 . S
C734 O735 1.249 . S
C734 O736 1.270 . S
O735 Zn727 1.943 . S
O735 C734 1.249 . S
O736 Zn726 2.067 . S
O736 C734 1.270 . S
C737 O730 1.262 . S
C737 O738 1.232 . S
O738 C737 1.232 . S
C739 O731 1.260 . S
C739 O732 1.257 . S
Zn740 O743 2.031 . S
Zn740 O745 2.049 . S
Zn740 O750 2.067 . S
Zn741 O742 1.962 . S
Zn741 O744 1.986 . S
Zn741 O746 1.996 . S
Zn741 O749 1.943 . S
O742 Zn741 1.962 . S
O742 C747 1.254 . S
O743 Zn740 2.031 . S
O743 C747 1.269 . S
O744 Zn741 1.986 . S
O744 C751 1.262 . S
O745 Zn740 2.049 . S
O745 C753 1.260 . S
O746 Zn741 1.996 . S
O746 C753 1.257 . S
C747 O742 1.254 . S
C747 O743 1.269 . S
C748 O749 1.249 . S
C748 O750 1.270 . S
O749 Zn741 1.943 . S
O749 C748 1.249 . S
O750 Zn740 2.067 . S
O750 C748 1.270 . S
C751 O744 1.262 . S
C751 O752 1.232 . S
O752 C751 1.232 . S
C753 O745 1.260 . S
C753 O746 1.257 . S
Zn754 O757 2.031 . S
Zn754 O759 2.049 . S
Zn754 O764 2.067 . S
Zn755 O756 1.962 . S
Zn755 O758 1.986 . S
Zn755 O760 1.996 . S
Zn755 O763 1.943 . S
O756 Zn755 1.962 . S
O756 C761 1.254 . S
O757 Zn754 2.031 . S
O757 C761 1.269 . S
O758 Zn755 1.986 . S
O758 C765 1.262 . S
O759 Zn754 2.049 . S
O759 C767 1.260 . S
O760 Zn755 1.996 . S
O760 C767 1.257 . S
C761 O756 1.254 . S
C761 O757 1.269 . S
C762 O763 1.249 . S
C762 O764 1.270 . S
O763 Zn755 1.943 . S
O763 C762 1.249 . S
O764 Zn754 2.067 . S
O764 C762 1.270 . S
C765 O758 1.262 . S
C765 O766 1.232 . S
O766 C765 1.232 . S
C767 O759 1.260 . S
C767 O760 1.257 . S
C768 C769 1.387 . S
C768 H772 0.950 . S
C768 C777 1.390 . S
C769 C768 1.387 . S
C769 C771 1.387 . S
H770 C777 0.950 . S
C771 C769 1.387 . S
C771 C773 1.390 . S
C771 H775 0.950 . S
H772 C768 0.950 . S
C773 C771 1.390 . S
C773 C774 1.387 . S
C773 H776 0.950 . S
C774 C773 1.387 . S
C774 C777 1.387 . S
H775 C771 0.950 . S
H776 C773 0.950 . S
C777 C768 1.390 . S
C777 H770 0.950 . S
C777 C774 1.387 . S
C778 C779 1.387 . S
C778 H782 0.950 . S
C778 C787 1.390 . S
C779 C778 1.387 . S
C779 C781 1.387 . S
H780 C787 0.950 . S
C781 C779 1.387 . S
C781 C783 1.390 . S
C781 H785 0.950 . S
H782 C778 0.950 . S
C783 C781 1.390 . S
C783 C784 1.387 . S
C783 H786 0.950 . S
C784 C783 1.387 . S
C784 C787 1.387 . S
H785 C781 0.950 . S
H786 C783 0.950 . S
C787 C778 1.390 . S
C787 H780 0.950 . S
C787 C784 1.387 . S
C788 C789 1.387 . S
C788 H792 0.950 . S
C788 C797 1.390 . S
C789 C788 1.387 . S
C789 C791 1.387 . S
H790 C797 0.950 . S
C791 C789 1.387 . S
C791 C793 1.390 . S
C791 H795 0.950 . S
H792 C788 0.950 . S
C793 C791 1.390 . S
C793 C794 1.387 . S
C793 H796 0.950 . S
C794 C793 1.387 . S
C794 C797 1.387 . S
H795 C791 0.950 . S
H796 C793 0.950 . S
C797 C788 1.390 . S
C797 H790 0.950 . S
C797 C794 1.387 . S
C798 C799 1.387 . S
C798 H802 0.950 . S
C798 C807 1.390 . S
C799 C798 1.387 . S
C799 C801 1.387 . S
H800 C807 0.950 . S
C801 C799 1.387 . S
C801 C803 1.390 . S
C801 H805 0.950 . S
H802 C798 0.950 . S
C803 C801 1.390 . S
C803 C804 1.387 . S
C803 H806 0.950 . S
C804 C803 1.387 . S
C804 C807 1.387 . S
H805 C801 0.950 . S
H806 C803 0.950 . S
C807 C798 1.390 . S
C807 H800 0.950 . S
C807 C804 1.387 . S
C808 C809 1.387 . S
C808 H812 0.950 . S
C808 C817 1.390 . S
C809 C808 1.387 . S
C809 C811 1.387 . S
H810 C817 0.950 . S
C811 C809 1.387 . S
C811 C813 1.390 . S
C811 H815 0.950 . S
H812 C808 0.950 . S
C813 C811 1.390 . S
C813 C814 1.387 . S
C813 H816 0.950 . S
C814 C813 1.387 . S
C814 C817 1.387 . S
H815 C811 0.950 . S
H816 C813 0.950 . S
C817 C808 1.390 . S
C817 H810 0.950 . S
C817 C814 1.387 . S
C818 C819 1.387 . S
C818 H822 0.950 . S
C818 C827 1.390 . S
C819 C818 1.387 . S
C819 C821 1.387 . S
H820 C827 0.950 . S
C821 C819 1.387 . S
C821 C823 1.390 . S
C821 H825 0.950 . S
H822 C818 0.950 . S
C823 C821 1.390 . S
C823 C824 1.387 . S
C823 H826 0.950 . S
C824 C823 1.387 . S
C824 C827 1.387 . S
H825 C821 0.950 . S
H826 C823 0.950 . S
C827 C818 1.390 . S
C827 H820 0.950 . S
C827 C824 1.387 . S
C828 C829 1.387 . S
C828 H832 0.950 . S
C828 C837 1.390 . S
C829 C828 1.387 . S
C829 C831 1.387 . S
H830 C837 0.950 . S
C831 C829 1.387 . S
C831 C833 1.390 . S
C831 H835 0.950 . S
H832 C828 0.950 . S
C833 C831 1.390 . S
C833 C834 1.387 . S
C833 H836 0.950 . S
C834 C833 1.387 . S
C834 C837 1.387 . S
H835 C831 0.950 . S
H836 C833 0.950 . S
C837 C828 1.390 . S
C837 H830 0.950 . S
C837 C834 1.387 . S
C838 C839 1.387 . S
C838 H842 0.950 . S
C838 C847 1.390 . S
C839 C838 1.387 . S
C839 C841 1.387 . S
H840 C847 0.950 . S
C841 C839 1.387 . S
C841 C843 1.390 . S
C841 H845 0.950 . S
H842 C838 0.950 . S
C843 C841 1.390 . S
C843 C844 1.387 . S
C843 H846 0.950 . S
C844 C843 1.387 . S
C844 C847 1.387 . S
H845 C841 0.950 . S
H846 C843 0.950 . S
C847 C838 1.390 . S
C847 H840 0.950 . S
C847 C844 1.387 . S
C848 C849 1.387 . S
C848 H852 0.950 . S
C848 C857 1.390 . S
C849 C848 1.387 . S
C849 C851 1.387 . S
H850 C857 0.950 . S
C851 C849 1.387 . S
C851 C853 1.390 . S
C851 H855 0.950 . S
H852 C848 0.950 . S
C853 C851 1.390 . S
C853 C854 1.387 . S
C853 H856 0.950 . S
C854 C853 1.387 . S
C854 C857 1.387 . S
H855 C851 0.950 . S
H856 C853 0.950 . S
C857 C848 1.390 . S
C857 H850 0.950 . S
C857 C854 1.387 . S
C858 C859 1.387 . S
C858 H862 0.950 . S
C858 C867 1.390 . S
C859 C858 1.387 . S
C859 C861 1.387 . S
H860 C867 0.950 . S
C861 C859 1.387 . S
C861 C863 1.390 . S
C861 H865 0.950 . S
H862 C858 0.950 . S
C863 C861 1.390 . S
C863 C864 1.387 . S
C863 H866 0.950 . S
C864 C863 1.387 . S
C864 C867 1.387 . S
H865 C861 0.950 . S
H866 C863 0.950 . S
C867 C858 1.390 . S
C867 H860 0.950 . S
C867 C864 1.387 . S
C868 C869 1.387 . S
C868 H872 0.950 . S
C868 C877 1.390 . S
C869 C868 1.387 . S
C869 C871 1.387 . S
H870 C877 0.950 . S
C871 C869 1.387 . S
C871 C873 1.390 . S
C871 H875 0.950 . S
H872 C868 0.950 . S
C873 C871 1.390 . S
C873 C874 1.387 . S
C873 H876 0.950 . S
C874 C873 1.387 . S
C874 C877 1.387 . S
H875 C871 0.950 . S
H876 C873 0.950 . S
C877 C868 1.390 . S
C877 H870 0.950 . S
C877 C874 1.387 . S
C878 C879 1.387 . S
C878 H882 0.950 . S
C878 C887 1.390 . S
C879 C878 1.387 . S
C879 C881 1.387 . S
H880 C887 0.950 . S
C881 C879 1.387 . S
C881 C883 1.390 . S
C881 H885 0.950 . S
H882 C878 0.950 . S
C883 C881 1.390 . S
C883 C884 1.387 . S
C883 H886 0.950 . S
C884 C883 1.387 . S
C884 C887 1.387 . S
H885 C881 0.950 . S
H886 C883 0.950 . S
C887 C878 1.390 . S
C887 H880 0.950 . S
C887 C884 1.387 . S
C888 C889 1.387 . S
C888 H892 0.950 . S
C888 C897 1.390 . S
C889 C888 1.387 . S
C889 C891 1.387 . S
H890 C897 0.950 . S
C891 C889 1.387 . S
C891 C893 1.390 . S
C891 H895 0.950 . S
H892 C888 0.950 . S
C893 C891 1.390 . S
C893 C894 1.387 . S
C893 H896 0.950 . S
C894 C893 1.387 . S
C894 C897 1.387 . S
H895 C891 0.950 . S
H896 C893 0.950 . S
C897 C888 1.390 . S
C897 H890 0.950 . S
C897 C894 1.387 . S
C898 C899 1.387 . S
C898 H902 0.950 . S
C898 C907 1.390 . S
C899 C898 1.387 . S
C899 C901 1.387 . S
H900 C907 0.950 . S
C901 C899 1.387 . S
C901 C903 1.390 . S
C901 H905 0.950 . S
H902 C898 0.950 . S
C903 C901 1.390 . S
C903 C904 1.387 . S
C903 H906 0.950 . S
C904 C903 1.387 . S
C904 C907 1.387 . S
H905 C901 0.950 . S
H906 C903 0.950 . S
C907 C898 1.390 . S
C907 H900 0.950 . S
C907 C904 1.387 . S
C908 C909 1.387 . S
C908 H912 0.950 . S
C908 C917 1.390 . S
C909 C908 1.387 . S
C909 C911 1.387 . S
H910 C917 0.950 . S
C911 C909 1.387 . S
C911 C913 1.390 . S
C911 H915 0.950 . S
H912 C908 0.950 . S
C913 C911 1.390 . S
C913 C914 1.387 . S
C913 H916 0.950 . S
C914 C913 1.387 . S
C914 C917 1.387 . S
H915 C911 0.950 . S
H916 C913 0.950 . S
C917 C908 1.390 . S
C917 H910 0.950 . S
C917 C914 1.387 . S
C918 C919 1.387 . S
C918 H922 0.950 . S
C918 C927 1.390 1_556 S
C919 C918 1.387 . S
C919 C921 1.387 . S
H920 C927 0.950 . S
C921 C919 1.387 . S
C921 C923 1.390 1_556 S
C921 H925 0.950 . S
H922 C918 0.950 . S
C923 C921 1.390 1_554 S
C923 C924 1.387 . S
C923 H926 0.950 . S
C924 C923 1.387 . S
C924 C927 1.387 . S
H925 C921 0.950 . S
H926 C923 0.950 . S
C927 C918 1.390 1_554 S
C927 H920 0.950 . S
C927 C924 1.387 . S
C928 C929 1.387 . S
C928 H932 0.950 . S
C928 C937 1.390 . S
C929 C928 1.387 . S
C929 C931 1.387 . S
H930 C937 0.950 . S
C931 C929 1.387 . S
C931 C933 1.390 . S
C931 H935 0.950 . S
H932 C928 0.950 . S
C933 C931 1.390 . S
C933 C934 1.387 . S
C933 H936 0.950 . S
C934 C933 1.387 . S
C934 C937 1.387 . S
H935 C931 0.950 . S
H936 C933 0.950 . S
C937 C928 1.390 . S
C937 H930 0.950 . S
C937 C934 1.387 . S
C938 C939 1.387 . S
C938 H942 0.950 . S
C938 C947 1.390 . S
C939 C938 1.387 . S
C939 C941 1.387 . S
H940 C947 0.950 . S
C941 C939 1.387 . S
C941 C943 1.390 . S
C941 H945 0.950 . S
H942 C938 0.950 . S
C943 C941 1.390 . S
C943 C944 1.387 . S
C943 H946 0.950 . S
C944 C943 1.387 . S
C944 C947 1.387 . S
H945 C941 0.950 . S
H946 C943 0.950 . S
C947 C938 1.390 . S
C947 H940 0.950 . S
C947 C944 1.387 . S
C948 C949 1.387 . S
C948 H952 0.950 . S
C948 C957 1.390 . S
C949 C948 1.387 . S
C949 C951 1.387 . S
H950 C957 0.950 . S
C951 C949 1.387 . S
C951 C953 1.390 . S
C951 H955 0.950 . S
H952 C948 0.950 . S
C953 C951 1.390 . S
C953 C954 1.387 . S
C953 H956 0.950 . S
C954 C953 1.387 . S
C954 C957 1.387 . S
H955 C951 0.950 . S
H956 C953 0.950 . S
C957 C948 1.390 . S
C957 H950 0.950 . S
C957 C954 1.387 . S
C958 C959 1.387 . S
C958 H962 0.950 . S
C958 C967 1.390 . S
C959 C958 1.387 . S
C959 C961 1.387 . S
H960 C967 0.950 . S
C961 C959 1.387 . S
C961 C963 1.390 . S
C961 H965 0.950 . S
H962 C958 0.950 . S
C963 C961 1.390 . S
C963 C964 1.387 . S
C963 H966 0.950 . S
C964 C963 1.387 . S
C964 C967 1.387 . S
H965 C961 0.950 . S
H966 C963 0.950 . S
C967 C958 1.390 . S
C967 H960 0.950 . S
C967 C964 1.387 . S
C968 C969 1.387 . S
C968 H972 0.950 . S
C968 C977 1.390 . S
C969 C968 1.387 . S
C969 C971 1.387 . S
H970 C977 0.950 . S
C971 C969 1.387 . S
C971 C973 1.390 . S
C971 H975 0.950 . S
H972 C968 0.950 . S
C973 C971 1.390 . S
C973 C974 1.387 . S
C973 H976 0.950 . S
C974 C973 1.387 . S
C974 C977 1.387 . S
H975 C971 0.950 . S
H976 C973 0.950 . S
C977 C968 1.390 . S
C977 H970 0.950 . S
C977 C974 1.387 . S
C978 C979 1.387 . S
C978 H982 0.950 . S
C978 C987 1.390 . S
C979 C978 1.387 . S
C979 C981 1.387 . S
H980 C987 0.950 . S
C981 C979 1.387 . S
C981 C983 1.390 . S
C981 H985 0.950 . S
H982 C978 0.950 . S
C983 C981 1.390 . S
C983 C984 1.387 . S
C983 H986 0.950 . S
C984 C983 1.387 . S
C984 C987 1.387 . S
H985 C981 0.950 . S
H986 C983 0.950 . S
C987 C978 1.390 . S
C987 H980 0.950 . S
C987 C984 1.387 . S
C988 C989 1.387 . S
C988 H992 0.950 . S
C988 C997 1.390 1_554 S
C989 C988 1.387 . S
C989 C991 1.387 1_554 S
H990 C997 0.950 . S
C991 C989 1.387 1_556 S
C991 C993 1.390 . S
C991 H995 0.938 1_556 S
H992 C988 0.950 . S
C993 C991 1.390 . S
C993 C994 1.387 . S
C993 H996 0.950 . S
C994 C993 1.387 . S
C994 C997 1.387 . S
H995 C991 0.938 1_554 S
H996 C993 0.950 . S
C997 C988 1.390 1_556 S
C997 H990 0.950 . S
C997 C994 1.387 . S
C998 C999 1.387 . S
C998 H1002 0.950 . S
C998 C1007 1.390 . S
C999 C998 1.387 . S
C999 C1001 1.387 . S
H1000 C1007 0.950 . S
C1001 C999 1.387 . S
C1001 C1003 1.390 . S
C1001 H1005 0.950 . S
H1002 C998 0.950 . S
C1003 C1001 1.390 . S
C1003 C1004 1.387 . S
C1003 H1006 0.950 . S
C1004 C1003 1.387 . S
C1004 C1007 1.387 . S
H1005 C1001 0.950 . S
H1006 C1003 0.950 . S
C1007 C998 1.390 . S
C1007 H1000 0.950 . S
C1007 C1004 1.387 . S
C774 C761 1.716 . S
C769 C1 1.267 . S
C779 C169 1.546 . S
C784 C695 1.692 . S
C789 C283 1.552 . S
C794 C709 1.652 . S
C799 C397 1.500 . S
C804 C723 1.596 . S
C814 C737 1.629 . S
C809 C457 1.231 . S
C819 C571 1.137 . S
C824 C747 1.617 . S
C829 C115 1.267 . S
C834 C705 1.749 . S
C839 C229 1.297 . S
C844 C719 1.770 . S
C849 C343 1.223 . S
C854 C733 1.678 . S
C864 C751 1.706 . S
C859 C511 1.658 . S
C874 C765 1.736 . S
C869 C625 1.591 . S
C884 C691 1.805 . S
C879 C55 1.561 . S
C889 C29 1.215 . S
C894 C706 1.411 . S
C899 C125 0.980 . S
C904 C720 1.559 . S
C914 C734 1.503 . S
C909 C239 0.933 . S
C919 C353 0.890 . S
C924 C753 1.408 . S
C934 C767 1.325 . S
C929 C485 1.062 . S
C944 C692 1.379 . S
C939 C599 1.153 . S
C954 C762 1.394 . S
C949 C143 1.185 . S
C959 C257 1.089 . S
C964 C697 1.328 . S
C974 C711 1.268 . S
C969 C371 1.049 . S
C979 C467 0.912 . S
C984 C725 1.382 . S
C989 C581 0.876 . S
C994 C739 1.440 . S
C999 C11 0.896 . S
C1004 C748 1.494 . S
