# Generated by pormake.
# Topology anh, (6,3)-cn, num edge types: 1
# Building blocks:
#     Node 0, Type 0, BuildingBlock: BETDIP_clean_sbu_0, # of connection points: 6
#     Node 1, Type 0, BuildingBlock: BETDIP_clean_sbu_0, # of connection points: 6
#     Node 2, Type 0, BuildingBlock: BETDIP_clean_sbu_0, # of connection points: 6
#     Node 3, Type 1, BuildingBlock: KAKCAD_clean_linker_0, # of connection points: 3
#     Node 4, Type 1, BuildingBlock: KAKCAD_clean_linker_0, # of connection points: 3
#     Node 5, Type 1, BuildingBlock: KAKCAD_clean_linker_0, # of connection points: 3
#     Node 6, Type 1, BuildingBlock: KAKCAD_clean_linker_0, # of connection points: 3
#     Node 7, Type 1, BuildingBlock: KAKCAD_clean_linker_0, # of connection points: 3
#     Node 8, Type 1, BuildingBlock: KAKCAD_clean_linker_0, # of connection points: 3
#     Edge 9, Type (0, 1), BuildingBlock: UVAHIK_clean_linker_0, # of connection points: 2
#     Edge 10, Type (0, 1), BuildingBlock: UVAHIK_clean_linker_0, # of connection points: 2
#     Edge 11, Type (0, 1), BuildingBlock: UVAHIK_clean_linker_0, # of connection points: 2
#     Edge 12, Type (0, 1), BuildingBlock: UVAHIK_clean_linker_0, # of connection points: 2
#     Edge 13, Type (0, 1), BuildingBlock: UVAHIK_clean_linker_0, # of connection points: 2
#     Edge 14, Type (0, 1), BuildingBlock: UVAHIK_clean_linker_0, # of connection points: 2
#     Edge 15, Type (0, 1), BuildingBlock: UVAHIK_clean_linker_0, # of connection points: 2
#     Edge 16, Type (0, 1), BuildingBlock: UVAHIK_clean_linker_0, # of connection points: 2
#     Edge 17, Type (0, 1), BuildingBlock: UVAHIK_clean_linker_0, # of connection points: 2
#     Edge 18, Type (0, 1), BuildingBlock: UVAHIK_clean_linker_0, # of connection points: 2
#     Edge 19, Type (0, 1), BuildingBlock: UVAHIK_clean_linker_0, # of connection points: 2
#     Edge 20, Type (0, 1), BuildingBlock: UVAHIK_clean_linker_0, # of connection points: 2
#     Edge 21, Type (0, 1), BuildingBlock: UVAHIK_clean_linker_0, # of connection points: 2
#     Edge 22, Type (0, 1), BuildingBlock: UVAHIK_clean_linker_0, # of connection points: 2
#     Edge 23, Type (0, 1), BuildingBlock: UVAHIK_clean_linker_0, # of connection points: 2
#     Edge 24, Type (0, 1), BuildingBlock: UVAHIK_clean_linker_0, # of connection points: 2
#     Edge 25, Type (0, 1), BuildingBlock: UVAHIK_clean_linker_0, # of connection points: 2
#     Edge 26, Type (0, 1), BuildingBlock: UVAHIK_clean_linker_0, # of connection points: 2
# Relax obj value: 0.206
# Max RMSD: 0.179
# Mean RMSD: 0.150
data_MOF--net-anh--node1-BETDIP_clean_sbu_0--node2-KAKCAD_clean_linker_0--edge1-UVAHIK_clean_linker_0
_symmetry_space_group_name_H-M    P1
_symmetry_Int_Tables_number       1
_symmetry_cell_setting            triclinic
loop_
_symmetry_equiv_pos_as_xyz
'x, y, z'
_cell_length_a     44.865754
_cell_length_b     44.979821
_cell_length_c     82.033762
_cell_angle_alpha  90.115031
_cell_angle_beta   90.108911
_cell_angle_gamma 119.87791
loop_
_atom_site_label
_atom_site_type_symbol
_atom_site_fract_x
_atom_site_fract_y
_atom_site_fract_z
_atom_type_partial_charge
Tb0 Tb 0.11476 0.59304 0.16822 0.0
Tb1 Tb 0.07841 0.5187 0.15818 0.0
C2 C 0.15295 0.64731 0.1834 0.0
C3 C 0.18967 0.66499 0.18757 0.0
C4 C 0.20054 0.68133 0.20272 0.0
C5 C 0.2354 0.69852 0.20682 0.0
C6 C 0.25991 0.69972 0.19578 0.0
C7 C 0.24884 0.68253 0.18077 0.0
C8 C 0.21395 0.66511 0.17673 0.0
C9 C 0.10183 0.58136 0.13707 0.0
C10 C 0.15828 0.55413 0.16063 0.0
C11 C 1.03856 0.46499 0.143 0.0
C12 C 1.00301 0.45318 0.13754 0.0
C13 C 0.99461 0.44792 0.12086 0.0
C14 C 0.96247 0.44196 0.11537 0.0
C15 C 0.9387 0.44179 0.12652 0.0
C16 C 0.94674 0.44604 0.14318 0.0
C17 C 0.9785 0.45161 0.14866 0.0
C18 C 0.09005 0.53041 0.18963 0.0
C19 C 1.03583 0.55927 0.16317 0.0
O20 O 0.13412 0.61778 0.19063 0.0
O21 O 0.14547 0.64644 0.16789 0.0
O22 O 0.11123 0.5658 0.14664 0.0
O23 O 0.10148 0.6065 0.1447 0.0
O24 O 0.1571 0.58063 0.16725 0.0
O25 O 0.13022 0.52722 0.15481 0.0
O26 O 1.06185 0.49284 0.13583 0.0
O27 O 1.04373 0.46574 0.15877 0.0
O28 O 0.08099 0.54605 0.17986 0.0
O29 O 0.09084 0.50545 0.18199 0.0
O30 O 1.03729 0.5325 0.1572 0.0
O31 O 1.063 0.58554 0.16999 0.0
H32 H 0.18211 0.68117 0.21129 0.0
H33 H 0.24328 0.71194 0.21839 0.0
H34 H 0.2672 0.68289 0.1721 0.0
H35 H 0.20603 0.65212 0.16506 0.0
H36 H 1.01327 0.44945 0.11204 0.0
H37 H 0.9565 0.43832 0.10247 0.0
H38 H 0.92838 0.44524 0.15199 0.0
H39 H 0.98418 0.45584 0.16157 0.0
Tb40 Tb 0.61167 0.07058 0.50126 0.0
Tb41 Tb 0.57363 0.10653 0.49073 0.0
C42 C 0.62844 1.03347 0.517 0.0
C43 C 0.61333 0.99632 0.51888 0.0
C44 C 0.61971 0.98335 0.53313 0.0
C45 C 0.60657 0.94814 0.53485 0.0
C46 C 0.58694 0.92538 0.5223 0.0
C47 C 0.57972 0.9384 0.50821 0.0
C48 C 0.59266 0.97363 0.50655 0.0
C49 C 0.61371 0.08216 0.46993 0.0
C50 C 0.52951 1.02667 0.49304 0.0
C51 C 0.55869 0.14617 0.47609 0.0
C52 C 0.58163 0.17927 0.46818 0.0
C53 C 0.60762 0.18282 0.45744 0.0
C54 C 0.63309 0.21526 0.45236 0.0
C55 C 0.63342 0.24489 0.45811 0.0
C56 C 0.6063 0.24105 0.46818 0.0
C57 C 0.58063 0.20858 0.47309 0.0
C58 C 0.57349 0.09566 0.52229 0.0
C59 C 0.65611 0.14899 0.49554 0.0
O60 O 0.61067 1.04654 0.52329 0.0
O61 O 0.64044 1.04568 0.50251 0.0
O62 O 0.58856 0.07377 0.47927 0.0
O63 O 0.63835 0.08138 0.47787 0.0
O64 O 0.55756 1.02771 0.4992 0.0
O65 O 0.5301 0.05482 0.4878 0.0
O66 O 0.55678 0.11891 0.46929 0.0
O67 O 0.56168 0.14606 0.49196 0.0
O68 O 0.59828 0.10458 0.51264 0.0
O69 O 0.54768 0.09435 0.51445 0.0
O70 O 0.62846 0.14618 0.48814 0.0
O71 O 0.65451 0.12298 0.50385 0.0
H72 H 0.63541 1.00053 0.54279 0.0
H73 H 0.61292 0.93887 0.54575 0.0
H74 H 0.56448 0.92138 0.49841 0.0
H75 H 0.58705 0.9832 0.49553 0.0
H76 H 0.60932 0.16074 0.45354 0.0
H77 H 0.6532 0.21711 0.44442 0.0
H78 H 0.60589 0.26316 0.47314 0.0
H79 H 0.56106 0.20652 0.48147 0.0
Tb80 Tb 0.59907 0.5865 0.83319 0.0
Tb81 Tb 0.67301 0.62668 0.82352 0.0
C82 C 0.54286 0.56367 0.84785 0.0
C83 C 0.50998 0.56287 0.84563 0.0
C84 C 0.49194 0.56361 0.85939 0.0
C85 C 0.45807 0.55668 0.85787 0.0
C86 C 0.44169 0.54856 0.84257 0.0
C87 C 0.46052 0.54993 0.82866 0.0
C88 C 0.49453 0.55728 0.83016 0.0
C89 C 0.60935 0.58659 0.8017 0.0
C90 C 0.63405 0.668 0.82527 0.0
C91 C 0.73022 0.64568 0.81044 0.0
C92 C 0.74778 0.62604 0.80731 0.0
C93 C 0.76352 0.62847 0.79219 0.0
C94 C 0.77569 0.60603 0.78835 0.0
C95 C 0.77179 0.58084 0.79955 0.0
C96 C 0.75712 0.57921 0.81481 0.0
C97 C 0.74518 0.60156 0.81867 0.0
C98 C 0.66029 0.625 0.85511 0.0
C99 C 0.63726 0.54526 0.82859 0.0
O100 O 0.56989 0.59324 0.85143 0.0
O101 O 0.5495 0.54616 0.83717 0.0
O102 O 0.6256 0.61107 0.81143 0.0
O103 O 0.58343 0.56213 0.80919 0.0
O104 O 0.60821 0.64006 0.83202 0.0
O105 O 0.66133 0.66762 0.81935 0.0
O106 O 0.7018 0.6353 0.80217 0.0
O107 O 0.7267 0.65146 0.82576 0.0
O108 O 0.64604 0.60059 0.84515 0.0
O109 O 0.68415 0.65156 0.84763 0.0
O110 O 0.66124 0.57288 0.82105 0.0
O111 O 0.61315 0.54691 0.83716 0.0
H112 H 0.50344 0.56782 0.87141 0.0
H113 H 0.44402 0.55552 0.86881 0.0
H114 H 0.44851 0.54405 0.81673 0.0
H115 H 0.50813 0.55689 0.81933 0.0
H116 H 0.76535 0.64691 0.7832 0.0
H117 H 0.78711 0.60761 0.77653 0.0
H118 H 0.75412 0.55997 0.82362 0.0
H119 H 0.73272 0.59875 0.83032 0.0
C120 C 0.6295 0.21128 0.2966 0.0
C121 C 0.64585 0.19637 0.30522 0.0
C122 C 0.62485 0.20688 0.27971 0.0
C123 C 0.63612 0.18715 0.27126 0.0
C124 C 0.65456 0.17431 0.27968 0.0
C125 C 0.65955 0.17903 0.29649 0.0
C126 C 0.62376 0.17511 0.25451 0.0
C127 C 0.62951 0.1981 0.24175 0.0
C128 C 0.61569 0.18589 0.22605 0.0
C129 C 0.5951 0.15017 0.2237 0.0
C130 C 0.59043 0.12709 0.23622 0.0
C131 C 0.60477 0.13977 0.25156 0.0
C132 C 0.57074 0.08963 0.23331 0.0
C133 C 0.53892 0.07465 0.22521 0.0
C134 C 0.58355 0.06855 0.23882 0.0
C135 C 0.56461 1.0331 0.23653 0.0
C136 C 0.53242 1.01805 0.22877 0.0
C137 C 0.62428 0.20986 0.21191 0.0
C138 C 0.63326 0.24441 0.21416 0.0
C139 C 0.62519 0.19867 0.19595 0.0
C140 C 0.63556 0.22127 0.18286 0.0
C141 C 0.64715 0.25629 0.18529 0.0
C142 C 0.64503 0.26741 0.20108 0.0
C143 C 0.51991 1.0392 0.223 0.0
H144 H 0.61892 0.22499 0.30302 0.0
H145 H 0.61038 0.21682 0.27346 0.0
H146 H 0.66344 0.15899 0.27339 0.0
H147 H 0.67199 0.16699 0.30279 0.0
H148 H 0.6456 0.22527 0.24409 0.0
H149 H 0.60019 0.12201 0.26144 0.0
H150 H 0.58303 0.13991 0.21203 0.0
H151 H 0.52838 0.09027 0.2209 0.0
H152 H 0.60823 0.07952 0.24494 0.0
H153 H 0.57477 1.01739 0.24118 0.0
H154 H 0.63202 0.25412 0.22606 0.0
H155 H 0.61923 0.17268 0.19343 0.0
H156 H 0.49531 1.02828 0.21681 0.0
H157 H 0.65375 0.29414 0.20359 0.0
H158 H 0.63556 0.21123 0.17085 0.0
C159 C 0.67652 0.54779 0.627 0.0
C160 C 0.70514 0.56158 0.6375 0.0
C161 C 0.68098 0.55138 0.61016 0.0
C162 C 0.71411 0.56849 0.60345 0.0
C163 C 0.74277 0.58054 0.61382 0.0
C164 C 0.73832 0.57733 0.63074 0.0
C165 C 0.71855 0.5774 0.58594 0.0
C166 C 0.70271 0.5949 0.5795 0.0
C167 C 0.70691 0.60465 0.5631 0.0
C168 C 0.72735 0.59681 0.55309 0.0
C169 C 0.74238 0.57796 0.55909 0.0
C170 C 0.73829 0.56887 0.57574 0.0
C171 C 0.76007 0.56587 0.54769 0.0
C172 C 0.74834 0.55718 0.5315 0.0
C173 C 0.78746 0.56126 0.55291 0.0
C174 C 0.80166 0.54705 0.54239 0.0
C175 C 0.78937 0.53805 0.52636 0.0
C176 C 0.68969 0.62288 0.55652 0.0
C177 C 0.65517 0.61165 0.56037 0.0
C178 C 0.70785 0.65217 0.54681 0.0
C179 C 0.6922 0.67068 0.54162 0.0
C180 C 0.65807 0.66014 0.54597 0.0
C181 C 0.63948 0.63005 0.55511 0.0
C182 C 0.76307 0.54387 0.52095 0.0
H183 H 0.65066 0.53581 0.63183 0.0
H184 H 0.65851 0.54188 0.60237 0.0
H185 H 0.76856 0.59402 0.60889 0.0
H186 H 0.76081 0.58798 0.63856 0.0
H187 H 0.68769 0.60171 0.58741 0.0
H188 H 0.7492 0.55407 0.58069 0.0
H189 H 0.73082 0.60486 0.54047 0.0
H190 H 0.7267 0.55918 0.52704 0.0
H191 H 0.79762 0.56811 0.56517 0.0
H192 H 0.82181 0.54254 0.54685 0.0
H193 H 0.64043 0.58885 0.56764 0.0
H194 H 0.73449 0.66143 0.54369 0.0
H195 H 0.75249 0.53629 0.50877 0.0
H196 H 0.61324 0.62146 0.55874 0.0
H197 H 0.70702 0.69363 0.53445 0.0
C198 C 1.00806 0.44299 0.97058 0.0
C199 C 0.9789 0.43366 0.98021 0.0
C200 C 1.00523 0.42687 0.9557 0.0
C201 C 0.97315 0.40087 0.95003 0.0
C202 C 0.94377 0.39159 0.95953 0.0
C203 C 0.94667 0.40766 0.9746 0.0
C204 C 0.97113 0.38468 0.93398 0.0
C205 C 0.99627 0.37605 0.92989 0.0
C206 C 1.00073 0.36894 0.9137 0.0
C207 C 0.97708 0.36684 0.90189 0.0
C208 C 0.95137 0.37489 0.90571 0.0
C209 C 0.94827 0.38341 0.92189 0.0
C210 C 0.93184 0.37977 0.8923 0.0
C211 C 0.94878 0.39567 0.87775 0.0
C212 C 0.89703 0.37023 0.89405 0.0
C213 C 0.8798 0.377 0.88161 0.0
C214 C 0.89713 0.39349 0.86722 0.0
C215 C 1.03364 0.37126 0.90844 0.0
C216 C 1.06476 0.39582 0.9157 0.0
C217 C 1.03508 0.35352 0.89456 0.0
C218 C 1.0666 0.36271 0.88718 0.0
C219 C 0.09735 0.38941 0.89371 0.0
C220 C 0.09614 0.40446 0.90853 0.0
C221 C 0.93159 0.40209 0.86534 0.0
H222 H 1.03332 0.46254 0.97464 0.0
H223 H 1.02827 0.43507 0.94853 0.0
H224 H 0.91873 0.37173 0.95538 0.0
H225 H 0.92375 0.40003 0.98178 0.0
H226 H 1.01401 0.37729 0.93921 0.0
H227 H 0.93011 0.39187 0.9248 0.0
H228 H 0.98031 0.36164 0.88932 0.0
H229 H 0.97579 0.40419 0.87604 0.0
H230 H 0.88324 0.35787 0.90509 0.0
H231 H 0.8533 0.37032 0.88347 0.0
H232 H 1.06513 0.41039 0.92629 0.0
H233 H 1.01175 0.33384 0.88885 0.0
H234 H 0.94559 0.4144 0.85434 0.0
H235 H 0.11945 0.42433 0.91419 0.0
H236 H 1.06659 0.35033 0.87585 0.0
C237 C 1.06827 0.56397 0.37336 0.0
C238 C 0.09765 0.56797 0.36524 0.0
C239 C 1.06799 0.56676 0.39037 0.0
C240 C 0.09718 0.57393 0.3997 0.0
C241 C 0.12663 0.57815 0.39157 0.0
C242 C 0.12681 0.57507 0.37458 0.0
C243 C 0.09688 0.5767 0.41784 0.0
C244 C 1.06856 0.55276 0.42686 0.0
C245 C 1.06788 0.55447 0.44399 0.0
C246 C 0.09693 0.58111 0.45221 0.0
C247 C 0.12593 0.6058 0.44328 0.0
C248 C 0.12505 0.60311 0.42612 0.0
C249 C 0.15745 0.63497 0.4512 0.0
C250 C 0.15527 0.65452 0.4641 0.0
C251 C 0.19031 0.64558 0.44468 0.0
C252 C 0.21952 0.67549 0.45014 0.0
C253 C 0.21746 0.69594 0.46265 0.0
C254 C 1.03638 0.52753 0.45264 0.0
C255 C 1.00347 0.51867 0.44671 0.0
C256 C 1.03847 0.5075 0.46528 0.0
C257 C 1.0086 0.47852 0.47121 0.0
C258 C 0.97572 0.4689 0.46478 0.0
C259 C 0.97377 0.48999 0.45264 0.0
C260 C 0.18478 0.68448 0.46975 0.0
H261 H 1.04527 0.5582 0.36657 0.0
H262 H 1.04496 0.5636 0.39622 0.0
H263 H 0.14945 0.5834 0.39839 0.0
H264 H 0.14997 0.57861 0.36873 0.0
H265 H 1.04709 0.53196 0.42048 0.0
H266 H 0.14625 0.62224 0.41901 0.0
H267 H 0.09692 0.5826 0.46538 0.0
H268 H 0.13058 0.64739 0.46947 0.0
H269 H 0.19348 0.63109 0.43495 0.0
H270 H 0.24359 0.68302 0.44404 0.0
H271 H 1.00074 0.53345 0.437 0.0
H272 H 1.06332 0.5133 0.47006 0.0
H273 H 0.18178 0.69877 0.47961 0.0
H274 H 0.94932 0.48362 0.44716 0.0
H275 H 1.01136 0.46341 0.48072 0.0
C276 C 0.58592 0.06653 0.70747 0.0
C277 C 0.60603 0.09583 0.69797 0.0
C278 C 0.58957 0.06762 0.72446 0.0
C279 C 0.61346 0.09804 0.73244 0.0
C280 C 0.63366 0.1273 0.72292 0.0
C281 C 0.62998 0.12622 0.70594 0.0
C282 C 0.61718 0.09929 0.75059 0.0
C283 C 0.61611 0.07176 0.7591 0.0
C284 C 0.61881 0.07196 0.77625 0.0
C285 C 0.62385 0.10157 0.78493 0.0
C286 C 0.62565 0.13005 0.7765 0.0
C287 C 0.62171 0.128 0.75941 0.0
C288 C 0.63135 0.16239 0.78487 0.0
C289 C 0.61286 0.16177 0.79885 0.0
C290 C 0.6531 0.1945 0.77769 0.0
C291 C 0.655 0.22464 0.78364 0.0
C292 C 0.63558 0.22415 0.79722 0.0
C293 C 0.61646 1.04076 0.7844 0.0
C294 C 0.59321 1.00775 0.77839 0.0
C295 C 0.63903 1.04327 0.79697 0.0
C296 C 0.6393 1.01381 0.80276 0.0
C297 C 0.61702 0.9809 0.79616 0.0
C298 C 0.59368 0.97857 0.78401 0.0
C299 C 0.61491 0.19218 0.80492 0.0
H300 H 0.56686 1.04282 0.7018 0.0
H301 H 0.57319 1.04472 0.73138 0.0
H302 H 0.65272 0.15102 0.72859 0.0
H303 H 0.6463 0.14914 0.69902 0.0
H304 H 0.61384 0.05014 0.75221 0.0
H305 H 0.62148 0.14881 0.75289 0.0
H306 H 0.62637 0.10246 0.79807 0.0
H307 H 0.59576 0.13763 0.80471 0.0
H308 H 0.66813 0.19628 0.76703 0.0
H309 H 0.67093 0.24819 0.7771 0.0
H310 H 0.57493 1.00441 0.76892 0.0
H311 H 0.65737 0.06811 0.80194 0.0
H312 H 0.59995 0.19047 0.81557 0.0
H313 H 0.57631 0.95427 0.77829 0.0
H314 H 0.65729 1.01701 0.81234 0.0
C315 C 0.62041 0.56113 0.03785 0.0
C316 C 0.61681 0.58707 0.03012 0.0
C317 C 0.61759 0.55729 0.05482 0.0
C318 C 0.61079 0.57908 0.06449 0.0
C319 C 0.60687 0.60483 0.05675 0.0
C320 C 0.61003 0.60889 0.03979 0.0
C321 C 0.60823 0.57523 0.08258 0.0
C322 C 0.63232 0.57035 0.09132 0.0
C323 C 0.6306 0.5666 0.10839 0.0
C324 C 0.60392 0.56845 0.11686 0.0
C325 C 0.57922 0.57351 0.10824 0.0
C326 C 0.58184 0.57652 0.09111 0.0
C327 C 0.55008 0.57539 0.11648 0.0
C328 C 0.53069 0.55298 0.12913 0.0
C329 C 0.53941 0.59802 0.11054 0.0
C330 C 0.50956 0.59707 0.11631 0.0
C331 C 0.48926 0.57391 0.12856 0.0
C332 C 0.65754 0.5612 0.1167 0.0
C333 C 0.66769 0.53909 0.10956 0.0
C334 C 0.67618 0.58065 0.13037 0.0
C335 C 0.70531 0.57943 0.13607 0.0
C336 C 0.7166 0.55886 0.12819 0.0
C337 C 0.69671 0.53806 0.11514 0.0
C338 C 0.50079 0.55227 0.13509 0.0
H339 H 0.62593 0.54407 0.0308 0.0
H340 H 0.62049 0.53704 0.06037 0.0
H341 H 0.60188 0.6222 0.06385 0.0
H342 H 0.60683 0.62894 0.03423 0.0
H343 H 0.65319 0.57026 0.08473 0.0
H344 H 0.56265 0.57911 0.0842 0.0
H345 H 0.60239 0.56593 0.13001 0.0
H346 H 0.53788 0.53511 0.13405 0.0
H347 H 0.55381 0.61621 0.10103 0.0
H348 H 0.50194 0.61397 0.11064 0.0
H349 H 0.65368 0.52318 0.09923 0.0
H350 H 0.66934 0.59809 0.13613 0.0
H351 H 0.48661 0.53445 0.14474 0.0
H352 H 0.7039 0.52124 0.109 0.0
H353 H 0.71989 0.59578 0.14618 0.0
C354 C 0.19602 0.53373 0.14765 0.0
C355 C 0.1923 0.55564 0.15871 0.0
C356 C 0.22797 0.53564 0.14533 0.0
C357 C 0.3232 0.59197 0.15397 0.0
H358 H 0.32568 0.51154 0.139 0.0
C359 C 0.45164 0.60093 0.13321 0.0
C360 C 0.45599 0.57196 0.13397 0.0
C361 C 0.42006 0.59874 0.13702 0.0
C362 C 0.32587 0.53431 0.14342 0.0
H363 H 0.21984 0.59658 0.17619 0.0
H364 H 0.27497 0.59897 0.17277 0.0
H365 H 0.27098 0.50767 0.14469 0.0
H366 H 0.42933 0.51779 0.13997 0.0
H367 H 0.37546 0.51447 0.14751 0.0
H368 H 0.37816 0.61812 0.15356 0.0
C369 C 0.25351 0.58086 0.1654 0.0
C370 C 0.29401 0.53224 0.14641 0.0
C371 C 0.22159 0.57933 0.16751 0.0
C372 C 0.42764 0.54093 0.13928 0.0
C373 C 0.39616 0.53887 0.14336 0.0
C374 C 0.3551 0.59389 0.15124 0.0
C375 C 0.25745 0.55915 0.15419 0.0
C376 C 0.29191 0.56112 0.15157 0.0
C377 C 0.39151 0.56763 0.14209 0.0
C378 C 0.35716 0.5652 0.14572 0.0
H379 H 0.17428 0.51539 0.14047 0.0
H380 H 0.22947 0.51893 0.13627 0.0
H381 H 0.32333 0.6151 0.15771 0.0
H382 H 0.47265 0.62564 0.1296 0.0
H383 H 0.41808 0.6216 0.1356 0.0
C384 C 0.69012 0.21273 0.49007 0.0
C385 C 0.68956 0.18201 0.49408 0.0
C386 C 0.72138 0.24364 0.48833 0.0
C387 C 0.81412 0.27789 0.47899 0.0
H388 H 0.8246 0.36376 0.49488 0.0
C389 C 0.94463 0.40629 0.47363 0.0
C390 C 0.94375 0.4365 0.47007 0.0
C391 C 0.91442 0.37553 0.47747 0.0
C392 C 0.82211 0.34017 0.49012 0.0
H393 H 0.72196 0.1601 0.49926 0.0
H394 H 0.77641 0.2137 0.49569 0.0
H395 H 0.77103 0.31041 0.49966 0.0
H396 H 0.90953 0.45749 0.46842 0.0
H397 H 0.85726 0.40422 0.4747 0.0
H398 H 0.86487 0.30762 0.46916 0.0
C399 C 0.75259 0.21397 0.49406 0.0
C400 C 0.79124 0.30937 0.49294 0.0
C401 C 0.72128 0.18318 0.49622 0.0
C402 C 0.91156 0.43491 0.47084 0.0
C403 C 0.88138 0.4042 0.47467 0.0
C404 C 0.84491 0.30873 0.47605 0.0
C405 C 0.75318 0.24475 0.49003 0.0
C406 C 0.78663 0.27768 0.48738 0.0
C407 C 0.88214 0.3738 0.47793 0.0
C408 C 0.84945 0.34053 0.48149 0.0
H409 H 0.6663 0.21299 0.48835 0.0
H410 H 0.7206 0.26665 0.48535 0.0
H411 H 0.81158 0.25421 0.47431 0.0
H412 H 0.96862 0.40606 0.47306 0.0
H413 H 0.91647 0.35305 0.48012 0.0
C414 C 0.60876 0.70587 0.83258 0.0
C415 C 0.63175 0.70002 0.82333 0.0
C416 C 0.60735 0.73633 0.83075 0.0
C417 C 0.65597 0.82519 0.81199 0.0
H418 H 0.57112 0.82517 0.82039 0.0
C419 C 0.64954 0.95128 0.80636 0.0
C420 C 0.6185 0.94928 0.80134 0.0
C421 C 0.65115 0.92155 0.81016 0.0
C422 C 0.59506 0.82585 0.81773 0.0
H423 H 0.6707 0.72175 0.80455 0.0
H424 H 0.66726 0.77342 0.80083 0.0
H425 H 0.57334 0.77284 0.82395 0.0
H426 H 0.56432 0.91319 0.7972 0.0
H427 H 0.56752 0.86212 0.80274 0.0
H428 H 0.67715 0.8776 0.80488 0.0
C429 C 0.65109 0.75541 0.81003 0.0
C430 C 0.59652 0.79559 0.8201 0.0
C431 C 0.6529 0.72534 0.81206 0.0
C432 C 0.58904 0.91634 0.8006 0.0
C433 C 0.59076 0.88665 0.80413 0.0
C434 C 0.65436 0.85527 0.80937 0.0
C435 C 0.62848 0.76177 0.8194 0.0
C436 C 0.62698 0.79453 0.81722 0.0
C437 C 0.62189 0.88851 0.80889 0.0
C438 C 0.62384 0.85629 0.81214 0.0
H439 H 0.59218 0.68713 0.84145 0.0
H440 H 0.58991 0.73999 0.83847 0.0
H441 H 0.68029 0.82626 0.80992 0.0
H442 H 0.67301 0.97579 0.80703 0.0
H443 H 0.6756 0.92471 0.81408 0.0
C444 C 1.0032 0.59113 0.15913 0.0
C445 C 1.00297 0.56005 0.16153 0.0
C446 C 0.97242 0.59153 0.15635 0.0
C447 C 0.87689 0.53972 0.16108 0.0
H448 H 0.87601 0.59959 0.1274 0.0
C449 C 0.75893 0.5598 0.14927 0.0
C450 C 0.74964 0.55993 0.13286 0.0
C451 C 0.78956 0.55992 0.15335 0.0
C452 C 0.87568 0.58262 0.13684 0.0
H453 H 0.96985 0.50528 0.16374 0.0
H454 H 0.91621 0.50579 0.1591 0.0
H455 H 0.92916 0.59934 0.1335 0.0
H456 H 0.76631 0.56127 0.10795 0.0
H457 H 0.81935 0.56176 0.11501 0.0
H458 H 0.82324 0.5229 0.16432 0.0
C459 C 0.94019 0.52993 0.15911 0.0
C460 C 0.90638 0.58272 0.14046 0.0
C461 C 0.97102 0.52954 0.16161 0.0
C462 C 0.77222 0.56075 0.12071 0.0
C463 C 0.80295 0.56136 0.12478 0.0
C464 C 0.84624 0.53994 0.15759 0.0
C465 C 0.94038 0.56089 0.15616 0.0
C466 C 0.90753 0.56118 0.15259 0.0
C467 C 0.81212 0.56082 0.14115 0.0
C468 C 0.84508 0.56125 0.14534 0.0
H469 H 1.02731 0.61515 0.15896 0.0
H470 H 0.97375 0.61596 0.15438 0.0
H471 H 0.87664 0.52291 0.17058 0.0
H472 H 0.74224 0.55903 0.15898 0.0
H473 H 0.79578 0.55974 0.1661 0.0
C474 C 0.47062 0.98916 0.48059 0.0
C475 C 0.49708 0.99269 0.49108 0.0
C476 C 0.44058 0.95727 0.47832 0.0
C477 C 0.4029 0.86204 0.48605 0.0
H478 H 0.31866 0.85946 0.47301 0.0
C479 C 0.28239 0.73369 0.46628 0.0
C480 C 0.24906 0.72926 0.46773 0.0
C481 C 0.31193 0.76526 0.46981 0.0
C482 C 0.34164 0.8593 0.47688 0.0
H483 H 0.51195 0.96484 0.50762 0.0
H484 H 0.4593 0.90989 0.50434 0.0
H485 H 0.36964 0.91406 0.4784 0.0
H486 H 0.22178 0.75585 0.47468 0.0
H487 H 0.27265 0.80972 0.48174 0.0
H488 H 0.37441 0.80722 0.48542 0.0
C489 C 0.46196 0.93143 0.49734 0.0
C490 C 0.37151 0.89111 0.4797 0.0
C491 C 0.49231 0.96326 0.49938 0.0
C492 C 0.2466 0.75758 0.47345 0.0
C493 C 0.27619 0.78907 0.47725 0.0
C494 C 0.37288 0.83021 0.4835 0.0
C495 C 0.43545 0.92766 0.48669 0.0
C496 C 0.40295 0.89326 0.48418 0.0
C497 C 0.30957 0.79377 0.4753 0.0
C498 C 0.34162 0.82809 0.47869 0.0
H499 H 0.47334 1.01101 0.47381 0.0
H500 H 0.42168 0.95594 0.4697 0.0
H501 H 0.42624 0.86193 0.48925 0.0
H502 H 0.28598 0.71273 0.46233 0.0
H503 H 0.33669 0.76725 0.46786 0.0
C504 C 0.61046 0.48122 0.83352 0.0
C505 C 0.63744 0.51201 0.82719 0.0
C506 C 0.61006 0.44989 0.83148 0.0
C507 C 0.66673 0.41302 0.82228 0.0
H508 H 0.58212 0.33192 0.80942 0.0
C509 C 0.66593 0.28909 0.80078 0.0
C510 C 0.63626 0.25666 0.80277 0.0
C511 C 0.66594 0.31954 0.80471 0.0
C512 C 0.60597 0.35398 0.81331 0.0
H513 H 0.685 0.53325 0.8136 0.0
H514 H 0.68484 0.47918 0.8106 0.0
H515 H 0.58228 0.38528 0.81478 0.0
H516 H 0.58338 0.23185 0.81105 0.0
H517 H 0.5839 0.28442 0.81863 0.0
H518 H 0.69046 0.38194 0.82115 0.0
C519 C 0.664 0.47928 0.81714 0.0
C520 C 0.60603 0.38484 0.81634 0.0
C521 C 0.66411 0.51043 0.81892 0.0
C522 C 0.60693 0.25597 0.80938 0.0
C523 C 0.60706 0.28649 0.8135 0.0
C524 C 0.66661 0.38209 0.81947 0.0
C525 C 0.63688 0.44841 0.82325 0.0
C526 C 0.63646 0.41497 0.82074 0.0
C527 C 0.63645 0.31896 0.81105 0.0
C528 C 0.63629 0.35194 0.81476 0.0
H529 H 0.58932 0.48118 0.83989 0.0
H530 H 0.58882 0.4268 0.83649 0.0
H531 H 0.69064 0.43545 0.82585 0.0
H532 H 0.68941 0.29118 0.79607 0.0
H533 H 0.68912 0.34362 0.80237 0.0
C534 C 0.56426 0.87077 0.53806 0.0
C535 C 0.57697 0.88875 0.52341 0.0
C536 C 0.56122 0.83858 0.54012 0.0
C537 C 0.56921 0.76911 0.51913 0.0
H538 H 0.61579 0.77031 0.55921 0.0
C539 C 0.66201 0.71739 0.54498 0.0
C540 C 0.64282 0.68191 0.54216 0.0
C541 C 0.64722 0.7379 0.54268 0.0
C542 C 0.60258 0.76951 0.54801 0.0
H543 H 0.59404 0.88618 0.49901 0.0
H544 H 0.58936 0.83035 0.50267 0.0
H545 H 0.59834 0.81286 0.55504 0.0
H546 H 0.59338 0.64018 0.53428 0.0
H547 H 0.56743 0.67643 0.53014 0.0
H548 H 0.57528 0.72655 0.51187 0.0
C549 C 0.58121 0.84073 0.51251 0.0
C550 C 0.59213 0.79361 0.54569 0.0
C551 C 0.58401 0.87282 0.51042 0.0
C552 C 0.60868 0.66746 0.53663 0.0
C553 C 0.5939 0.68813 0.53419 0.0
C554 C 0.57963 0.74482 0.5215 0.0
C555 C 0.57118 0.82393 0.52762 0.0
C556 C 0.57622 0.79435 0.53104 0.0
C557 C 0.61292 0.72346 0.53748 0.0
C558 C 0.59742 0.7456 0.53575 0.0
H559 H 0.55806 0.88226 0.54817 0.0
H560 H 0.55271 0.82592 0.55179 0.0
H561 H 0.55672 0.76886 0.50778 0.0
H562 H 0.68823 0.7292 0.54942 0.0
H563 H 0.66263 0.76517 0.54506 0.0
C564 C 0.81664 0.5642 0.79682 0.0
C565 C 0.78206 0.55532 0.79566 0.0
C566 C 0.82548 0.53855 0.79785 0.0
C567 C 0.83898 0.47898 0.79844 0.0
H568 H 0.78583 0.41917 0.83389 0.0
C569 C 0.84601 0.38221 0.84988 0.0
C570 C 0.88042 0.40387 0.85457 0.0
C571 C 0.8306 0.39295 0.83819 0.0
C572 C 0.80049 0.43492 0.82371 0.0
H573 H 0.72991 0.51369 0.79298 0.0
H574 H 0.74513 0.4685 0.79491 0.0
H575 H 0.76466 0.45233 0.81967 0.0
H576 H 0.92538 0.45393 0.85081 0.0
H577 H 0.89874 0.47246 0.83064 0.0
H578 H 0.87565 0.46277 0.80306 0.0
C579 C 0.76542 0.49508 0.79518 0.0
C580 C 0.78834 0.45397 0.81552 0.0
C581 C 0.75669 0.52076 0.79407 0.0
C582 C 0.89909 0.43624 0.84723 0.0
C583 C 0.88382 0.44686 0.83558 0.0
C584 C 0.85106 0.45982 0.80658 0.0
C585 C 0.79976 0.50372 0.79785 0.0
C586 C 0.80827 0.47743 0.80333 0.0
C587 C 0.84937 0.42548 0.83097 0.0
C588 C 0.83277 0.43892 0.81984 0.0
H589 H 0.83648 0.59078 0.79823 0.0
H590 H 0.85213 0.54608 0.80006 0.0
H591 H 0.85456 0.49637 0.78889 0.0
H592 H 0.83106 0.35701 0.85522 0.0
H593 H 0.80399 0.3759 0.83487 0.0
C594 C 0.31009 0.72161 0.21492 0.0
C595 C 0.29697 0.72164 0.19937 0.0
C596 C 0.34345 0.74673 0.21919 0.0
C597 C 0.42356 0.82222 0.2031 0.0
H598 H 0.41957 0.86324 0.24406 0.0
C599 C 0.47611 0.9639 0.23093 0.0
C600 C 0.51127 0.98032 0.22723 0.0
C601 C 0.45578 0.92848 0.22936 0.0
C602 C 0.42122 0.852 0.23264 0.0
H603 H 0.30904 0.7463 0.17574 0.0
H604 H 0.36666 0.79056 0.18325 0.0
H605 H 0.37429 0.80584 0.23718 0.0
H606 H 0.55289 0.97259 0.21911 0.0
H607 H 0.51707 0.91022 0.21632 0.0
H608 H 0.46928 0.86979 0.19811 0.0
C609 C 0.35176 0.77089 0.19211 0.0
C610 C 0.39548 0.81883 0.22877 0.0
C611 C 0.31859 0.74557 0.18779 0.0
C612 C 0.52584 0.96051 0.22211 0.0
C613 C 0.50537 0.92493 0.22044 0.0
C614 C 0.44928 0.85558 0.20696 0.0
C615 C 0.36408 0.77262 0.20807 0.0
C616 C 0.39553 0.80407 0.21364 0.0
C617 C 0.47011 0.9086 0.22404 0.0
C618 C 0.44746 0.87128 0.22145 0.0
H619 H 0.29407 0.70301 0.22397 0.0
H620 H 0.35243 0.74687 0.23147 0.0
H621 H 0.4247 0.81134 0.19148 0.0
H622 H 0.46428 0.97846 0.23509 0.0
H623 H 0.42858 0.91675 0.23195 0.0
C624 C 0.69725 0.28464 0.45593 0.0
C625 C 0.66365 0.27956 0.45536 0.0
C626 C 0.72562 0.31768 0.45726 0.0
C627 C 0.7506 0.41076 0.45851 0.0
H628 H 0.80584 0.41267 0.4953 0.0
C629 C 0.80818 0.52731 0.49938 0.0
C630 C 0.79994 0.51828 0.5158 0.0
C631 C 0.80833 0.50376 0.48828 0.0
C632 C 0.79081 0.41275 0.48498 0.0
H633 H 0.63406 0.30555 0.45336 0.0
H634 H 0.68292 0.36269 0.45626 0.0
H635 H 0.77077 0.35933 0.48076 0.0
H636 H 0.78859 0.47908 0.53385 0.0
H637 H 0.78749 0.43763 0.51462 0.0
H638 H 0.76715 0.46303 0.46388 0.0
C639 C 0.68771 0.34138 0.45573 0.0
C640 C 0.77109 0.38215 0.47641 0.0
C641 C 0.65945 0.30842 0.45433 0.0
C642 C 0.79521 0.48672 0.52125 0.0
C643 C 0.79472 0.46294 0.51014 0.0
C644 C 0.76971 0.44117 0.46729 0.0
C645 C 0.72102 0.34638 0.45799 0.0
C646 C 0.7492 0.38033 0.46367 0.0
C647 C 0.79938 0.47045 0.49334 0.0
C648 C 0.78844 0.44202 0.48126 0.0
H649 H 0.70164 0.26309 0.45654 0.0
H650 H 0.75095 0.32057 0.45862 0.0
H651 H 0.73487 0.41057 0.44843 0.0
H652 H 0.81228 0.55173 0.49494 0.0
H653 H 0.81311 0.51089 0.47555 0.0
C654 C 0.38337 0.50319 0.83359 0.0
C655 C 0.40415 0.53466 0.84153 0.0
C656 C 0.34765 0.48685 0.83487 0.0
C657 C 0.27466 0.49809 0.84608 0.0
H658 H 0.23655 0.4075 0.86508 0.0
C659 C 0.15229 0.43964 0.88424 0.0
C660 C 0.13009 0.40394 0.88448 0.0
C661 C 0.18313 0.45393 0.87572 0.0
C662 C 0.2464 0.43237 0.85942 0.0
H663 H 0.40403 0.57477 0.85612 0.0
H664 H 0.34137 0.54639 0.85818 0.0
H665 H 0.2954 0.43664 0.85509 0.0
H666 H 0.12262 0.35532 0.87548 0.0
H667 H 0.17632 0.38045 0.86012 0.0
H668 H 0.22587 0.49409 0.85048 0.0
C669 C 0.35277 0.53436 0.85102 0.0
C670 C 0.28018 0.44909 0.85374 0.0
C671 C 0.38854 0.55049 0.84994 0.0
C672 C 0.13914 0.38291 0.87557 0.0
C673 C 0.17004 0.3973 0.86687 0.0
C674 C 0.24071 0.48119 0.85154 0.0
C675 C 0.33209 0.50192 0.84392 0.0
C676 C 0.29489 0.48247 0.84746 0.0
C677 C 0.19252 0.43301 0.86696 0.0
C678 C 0.22654 0.44859 0.85879 0.0
H679 H 0.39479 0.49028 0.82716 0.0
H680 H 0.3322 0.46191 0.82925 0.0
H681 H 0.28536 0.52368 0.84111 0.0
H682 H 0.14581 0.45677 0.89061 0.0
H683 H 0.19996 0.48144 0.87633 0.0
C684 C 0.89414 0.45932 0.12549 0.0
C685 C 0.90466 0.43569 0.1213 0.0
C686 C 0.85937 0.44975 0.12497 0.0
C687 C 0.77155 0.37497 0.11595 0.0
H688 H 0.75296 0.39488 0.15955 0.0
C689 C 0.68384 0.27507 0.16016 0.0
C690 C 0.66453 0.28131 0.17179 0.0
C691 C 0.70364 0.29976 0.14868 0.0
C692 C 0.75727 0.3897 0.14713 0.0
H693 H 0.8882 0.38503 0.11174 0.0
H694 H 0.82754 0.36772 0.11116 0.0
H695 H 0.80888 0.43105 0.14758 0.0
H696 H 0.64957 0.31826 0.17955 0.0
H697 H 0.68621 0.36239 0.15998 0.0
H698 H 0.72074 0.33135 0.1164 0.0
C699 C 0.84575 0.39389 0.1146 0.0
C700 C 0.78949 0.41052 0.14019 0.0
C701 C 0.88057 0.40365 0.11497 0.0
C702 C 0.66459 0.31266 0.17107 0.0
C703 C 0.68518 0.33782 0.15974 0.0
C704 C 0.73941 0.35394 0.12298 0.0
C705 C 0.83453 0.41615 0.12047 0.0
C706 C 0.79779 0.40199 0.12498 0.0
C707 C 0.70542 0.33178 0.14866 0.0
C708 C 0.73286 0.35988 0.13905 0.0
H709 H 0.91258 0.48441 0.13017 0.0
H710 H 0.85179 0.46784 0.1292 0.0
H711 H 0.77672 0.3683 0.10401 0.0
H712 H 0.68553 0.25191 0.16043 0.0
H713 H 0.71961 0.29463 0.14057 0.0
C714 C 0.09885 0.55019 0.11156 0.0
C715 C 0.08723 0.56864 0.1208 0.0
C716 C 0.08406 0.53651 0.09644 0.0
C717 C 1.0063 0.50636 0.07202 0.0
H718 H 1.06756 0.52357 0.03551 0.0
C719 C 0.96792 0.43151 0.01035 0.0
C720 C 0.98302 0.45077 0.99621 0.0
C721 C 0.97664 0.44723 0.02573 0.0
C722 C 1.05007 0.51878 0.04553 0.0
H723 H 1.05096 0.5871 0.12176 0.0
H724 H 1.02469 0.56277 0.09518 0.0
H725 H 0.09139 0.54834 0.06209 0.0
H726 H 1.01653 0.50197 0.98696 0.0
H727 H 1.03179 0.52925 0.01372 0.0
H728 H 0.96497 0.47622 0.0554 0.0
C729 C 1.04532 0.55905 0.09966 0.0
C730 C 1.06375 0.53271 0.06077 0.0
C731 C 1.06053 0.57323 0.11472 0.0
C732 C 1.00507 0.48634 0.99767 0.0
C733 C 1.0138 0.50196 0.01297 0.0
C734 C 0.99257 0.49201 0.05675 0.0
C735 C 1.05711 0.54072 0.09036 0.0
C736 C 1.04206 0.52658 0.07416 0.0
C737 C 1.0006 0.4824 0.02719 0.0
C738 C 1.01437 0.49815 0.04335 0.0
H739 H 0.11932 0.54623 0.11609 0.0
H740 H 0.09343 0.52225 0.08956 0.0
H741 H 0.98908 0.50108 0.08222 0.0
H742 H 0.95095 0.40403 0.0096 0.0
H743 H 0.96614 0.43152 0.03649 0.0
C744 C 0.64915 0.11536 0.44621 0.0
C745 C 0.61669 0.0956 0.45332 0.0
C746 C 0.65223 0.12958 0.43075 0.0
C747 C 0.60201 0.12055 0.39331 0.0
H748 H 0.67925 0.21031 0.38342 0.0
C749 C 0.61338 0.18417 0.33137 0.0
C750 C 0.64463 0.1946 0.32328 0.0
C751 C 0.61019 0.17638 0.34797 0.0
C752 C 0.65759 0.18522 0.38604 0.0
H753 H 0.56194 0.07419 0.44981 0.0
H754 H 0.56719 0.09975 0.423 0.0
H755 H 0.67254 0.18737 0.41099 0.0
H756 H 0.69761 0.20716 0.32643 0.0
H757 H 0.6921 0.19378 0.35555 0.0
H758 H 0.58698 0.11855 0.36839 0.0
C759 C 0.59034 0.10411 0.42922 0.0
C760 C 0.65381 0.17195 0.40178 0.0
C761 C 0.5873 0.08973 0.44464 0.0
C762 C 0.67319 0.19903 0.33235 0.0
C763 C 0.67008 0.19155 0.34901 0.0
C764 C 0.60558 0.13397 0.37765 0.0
C765 C 0.62288 0.12432 0.42209 0.0
C766 C 0.62616 0.13925 0.40557 0.0
C767 C 0.63825 0.17913 0.35685 0.0
C768 C 0.63355 0.16629 0.37381 0.0
H769 H 0.67222 0.12019 0.45267 0.0
H770 H 0.67763 0.1444 0.42554 0.0
H771 H 0.58077 0.09507 0.39566 0.0
H772 H 0.59081 0.18015 0.32469 0.0
H773 H 0.58545 0.16718 0.35375 0.0
C774 C 0.64489 0.61363 0.77685 0.0
C775 C 0.61964 0.58441 0.7849 0.0
C776 C 0.65568 0.61085 0.76122 0.0
C777 C 0.62784 0.55577 0.72477 0.0
H778 H 0.72499 0.60137 0.71443 0.0
C779 C 0.67415 0.53307 0.66326 0.0
C780 C 0.70006 0.56209 0.65533 0.0
C781 C 0.66634 0.53492 0.67957 0.0
C782 C 0.69776 0.58873 0.71707 0.0
H783 H 0.58521 0.5296 0.78289 0.0
H784 H 0.60367 0.52476 0.75553 0.0
H785 H 0.70672 0.60733 0.7417 0.0
H786 H 0.73873 0.61557 0.6584 0.0
H787 H 0.72491 0.61897 0.68682 0.0
H788 H 0.61865 0.53762 0.70018 0.0
C789 C 0.61525 0.54979 0.76127 0.0
C790 C 0.68732 0.59217 0.73268 0.0
C791 C 0.6047 0.55255 0.77693 0.0
C792 C 0.71892 0.59265 0.66425 0.0
C793 C 0.71096 0.59458 0.68054 0.0
C794 C 0.63823 0.55248 0.70916 0.0
C795 C 0.64099 0.57886 0.75328 0.0
C796 C 0.65224 0.57567 0.73669 0.0
C797 C 0.68407 0.56593 0.68831 0.0
C798 C 0.67332 0.56885 0.70511 0.0
H799 H 0.65629 0.63859 0.78264 0.0
H800 H 0.67519 0.63377 0.75525 0.0
H801 H 0.6006 0.54316 0.72743 0.0
H802 H 0.65947 0.50907 0.65673 0.0
H803 H 0.64601 0.51214 0.68527 0.0
C804 C 0.60691 0.10082 0.5477 0.0
C805 C 0.57572 0.09336 0.54023 0.0
C806 C 0.60937 0.09969 0.56469 0.0
C807 C 0.60301 0.07798 0.60029 0.0
H808 H 0.55791 0.11496 0.62704 0.0
C809 C 0.5971 0.06606 0.67079 0.0
C810 C 0.60197 0.09476 0.67985 0.0
C811 C 0.59337 0.06512 0.6538 0.0
C812 C 0.57085 0.10471 0.61977 0.0
H813 H 0.52257 0.0786 0.54468 0.0
H814 H 0.52672 0.07644 0.57434 0.0
H815 H 0.55268 0.11478 0.59745 0.0
H816 H 0.60623 0.14483 0.67799 0.0
H817 H 0.60027 0.14342 0.64841 0.0
H818 H 0.62174 0.06853 0.62261 0.0
C819 C 0.54943 0.08351 0.5671 0.0
C820 C 0.5675 0.10423 0.60277 0.0
C821 C 0.54697 0.08455 0.5501 0.0
C822 C 0.6029 0.12245 0.67144 0.0
C823 C 0.59906 0.12146 0.65446 0.0
C824 C 0.60626 0.07836 0.6173 0.0
C825 C 0.58071 0.09121 0.57464 0.0
C826 C 0.58364 0.09098 0.59279 0.0
C827 C 0.59427 0.0928 0.6454 0.0
C828 C 0.59035 0.09187 0.62727 0.0
H829 H 0.62962 0.10798 0.54043 0.0
H830 H 0.63398 0.10622 0.57004 0.0
H831 H 0.61552 0.06726 0.59303 0.0
H832 H 0.59657 1.0444 0.67681 0.0
H833 H 0.58941 1.04248 0.64727 0.0
C834 C 0.67211 0.65057 0.88323 0.0
C835 C 0.65431 0.622 0.87294 0.0
C836 C 0.66723 0.64729 0.90015 0.0
C837 C 0.63931 0.58315 0.93309 0.0
H838 H 0.6301 0.65087 0.9585 0.0
C839 C 0.60503 0.56276 0.00163 0.0
C840 C 0.62031 0.59141 0.01206 0.0
C841 C 0.60859 0.56675 0.98469 0.0
C842 C 0.6331 0.63192 0.95166 0.0
H843 H 0.61698 0.56771 0.87224 0.0
H844 H 0.60859 0.5619 0.90173 0.0
H845 H 0.63756 0.65762 0.92902 0.0
H846 H 0.65167 0.64679 0.0128 0.0
H847 H 0.65845 0.65379 0.98332 0.0
H848 H 0.63552 0.55772 0.95563 0.0
C849 C 0.62654 0.58681 0.89678 0.0
C850 C 0.63729 0.63578 0.93472 0.0
C851 C 0.63121 0.59017 0.87987 0.0
C852 C 0.63919 0.6242 0.00511 0.0
C853 C 0.643 0.62819 0.98817 0.0
C854 C 0.63541 0.57943 0.95002 0.0
C855 C 0.64463 0.61527 0.90716 0.0
C856 C 0.64032 0.61138 0.92521 0.0
C857 C 0.62779 0.59952 0.97769 0.0
C858 C 0.63213 0.60368 0.95958 0.0
H859 H 0.69005 0.67543 0.87822 0.0
H860 H 0.68175 0.66967 0.90779 0.0
H861 H 0.64213 0.56416 0.92618 0.0
H862 H 0.58989 0.53717 0.00656 0.0
H863 H 0.59589 0.54407 0.97708 0.0
C864 C 0.10499 0.51828 0.21737 0.0
C865 C 0.09295 0.53562 0.20753 0.0
C866 C 0.10681 0.52249 0.23435 0.0
C867 C 0.10597 0.57944 0.2674 0.0
H868 H 0.08308 0.50083 0.29479 0.0
C869 C 0.08353 0.57956 0.33702 0.0
C870 C 0.09785 0.56465 0.34713 0.0
C871 C 0.08381 0.57652 0.32003 0.0
C872 C 0.08988 0.52314 0.28733 0.0
H873 H 1.0732 0.57083 0.20775 0.0
H874 H 1.07573 0.57774 0.23729 0.0
H875 H 0.08209 0.49475 0.26524 0.0
H876 H 0.12331 0.53443 0.3472 0.0
H877 H 0.12384 0.52916 0.31757 0.0
H878 H 0.11317 0.60761 0.28956 0.0
C879 C 0.08452 0.56143 0.23197 0.0
C880 C 0.08941 0.5197 0.27033 0.0
C881 C 0.0829 0.55736 0.215 0.0
C882 C 0.11233 0.54649 0.33979 0.0
C883 C 0.11234 0.54319 0.3228 0.0
C884 C 0.10619 0.5828 0.28439 0.0
C885 C 0.09639 0.54397 0.24193 0.0
C886 C 0.09742 0.54779 0.2601 0.0
C887 C 0.09814 0.55821 0.31269 0.0
C888 C 0.09813 0.55469 0.29458 0.0
H889 H 0.11304 0.50146 0.21194 0.0
H890 H 0.11663 0.50904 0.24152 0.0
H891 H 0.11291 0.60185 0.26 0.0
H892 H 1.07242 0.59396 0.34225 0.0
H893 H 1.07237 0.58815 0.31263 0.0
loop_
_geom_bond_atom_site_label_1
_geom_bond_atom_site_label_2
_geom_bond_distance
_geom_bond_site_symmetry_2
_ccdc_geom_bond_type
Tb0 C2 2.809 . S
Tb0 O20 2.484 . S
Tb0 O21 2.440 . S
Tb0 O22 2.658 . S
Tb0 O23 2.409 . S
Tb0 O24 2.378 . S
Tb0 O28 2.325 . S
Tb0 O31 2.341 1_455 S
Tb1 C11 2.809 1_455 S
Tb1 O22 2.325 . S
Tb1 O25 2.341 . S
Tb1 O26 2.484 1_455 S
Tb1 O27 2.440 1_455 S
Tb1 O28 2.658 . S
Tb1 O29 2.409 . S
Tb1 O30 2.378 1_455 S
C2 Tb0 2.809 . S
C2 C3 1.514 . S
C2 O20 1.248 . S
C2 O21 1.266 . S
C3 C2 1.514 . S
C3 C4 1.359 . S
C3 C8 1.348 . S
C4 C3 1.359 . S
C4 C5 1.380 . S
C4 H32 0.929 . S
C5 C4 1.380 . S
C5 C6 1.347 . S
C5 H33 0.931 . S
C6 C5 1.347 . S
C6 C7 1.369 . S
C7 C6 1.369 . S
C7 C8 1.408 . S
C7 H34 0.930 . S
C8 C3 1.348 . S
C8 C7 1.408 . S
C8 H35 0.930 . S
C9 O22 1.281 . S
C9 O23 1.254 . S
C10 O24 1.236 . S
C10 O25 1.266 . S
C11 Tb1 2.809 1_655 S
C11 C12 1.514 . S
C11 O26 1.248 . S
C11 O27 1.266 . S
C12 C11 1.514 . S
C12 C13 1.359 . S
C12 C17 1.348 . S
C13 C12 1.359 . S
C13 C14 1.380 . S
C13 H36 0.929 . S
C14 C13 1.380 . S
C14 C15 1.347 . S
C14 H37 0.931 . S
C15 C14 1.347 . S
C15 C16 1.369 . S
C16 C15 1.369 . S
C16 C17 1.408 . S
C16 H38 0.930 . S
C17 C12 1.348 . S
C17 C16 1.408 . S
C17 H39 0.930 . S
C18 O28 1.281 . S
C18 O29 1.254 . S
C19 O30 1.236 . S
C19 O31 1.266 . S
O20 Tb0 2.484 . S
O20 C2 1.248 . S
O21 Tb0 2.440 . S
O21 C2 1.266 . S
O22 Tb0 2.658 . S
O22 Tb1 2.325 . S
O22 C9 1.281 . S
O23 Tb0 2.409 . S
O23 C9 1.254 . S
O24 Tb0 2.378 . S
O24 C10 1.236 . S
O25 Tb1 2.341 . S
O25 C10 1.266 . S
O26 Tb1 2.484 1_655 S
O26 C11 1.248 . S
O27 Tb1 2.440 1_655 S
O27 C11 1.266 . S
O28 Tb0 2.325 . S
O28 Tb1 2.658 . S
O28 C18 1.281 . S
O29 Tb1 2.409 . S
O29 C18 1.254 . S
O30 Tb1 2.378 1_655 S
O30 C19 1.236 . S
O31 Tb0 2.341 1_655 S
O31 C19 1.266 . S
H32 C4 0.929 . S
H33 C5 0.931 . S
H34 C7 0.930 . S
H35 C8 0.930 . S
H36 C13 0.929 . S
H37 C14 0.931 . S
H38 C16 0.930 . S
H39 C17 0.930 . S
Tb40 C42 2.809 1_545 S
Tb40 O60 2.484 1_545 S
Tb40 O61 2.440 1_545 S
Tb40 O62 2.658 . S
Tb40 O63 2.409 . S
Tb40 O64 2.378 1_545 S
Tb40 O68 2.325 . S
Tb40 O71 2.341 . S
Tb41 C51 2.809 . S
Tb41 O62 2.325 . S
Tb41 O65 2.341 1_545 S
Tb41 O66 2.484 . S
Tb41 O67 2.440 . S
Tb41 O68 2.658 . S
Tb41 O69 2.409 . S
Tb41 O70 2.378 . S
C42 Tb40 2.809 1_565 S
C42 C43 1.514 . S
C42 O60 1.248 . S
C42 O61 1.266 . S
C43 C42 1.514 . S
C43 C44 1.359 . S
C43 C48 1.348 . S
C44 C43 1.359 . S
C44 C45 1.380 . S
C44 H72 0.929 . S
C45 C44 1.380 . S
C45 C46 1.347 . S
C45 H73 0.931 . S
C46 C45 1.347 . S
C46 C47 1.369 . S
C47 C46 1.369 . S
C47 C48 1.408 . S
C47 H74 0.930 . S
C48 C43 1.348 . S
C48 C47 1.408 . S
C48 H75 0.930 . S
C49 O62 1.281 . S
C49 O63 1.254 . S
C50 O64 1.236 . S
C50 O65 1.266 . S
C51 Tb41 2.809 . S
C51 C52 1.514 . S
C51 O66 1.248 . S
C51 O67 1.266 . S
C52 C51 1.514 . S
C52 C53 1.359 . S
C52 C57 1.348 . S
C53 C52 1.359 . S
C53 C54 1.380 . S
C53 H76 0.929 . S
C54 C53 1.380 . S
C54 C55 1.347 . S
C54 H77 0.931 . S
C55 C54 1.347 . S
C55 C56 1.369 . S
C56 C55 1.369 . S
C56 C57 1.408 . S
C56 H78 0.930 . S
C57 C52 1.348 . S
C57 C56 1.408 . S
C57 H79 0.930 . S
C58 O68 1.281 . S
C58 O69 1.254 . S
C59 O70 1.236 . S
C59 O71 1.266 . S
O60 Tb40 2.484 1_565 S
O60 C42 1.248 . S
O61 Tb40 2.440 1_565 S
O61 C42 1.266 . S
O62 Tb40 2.658 . S
O62 Tb41 2.325 . S
O62 C49 1.281 . S
O63 Tb40 2.409 . S
O63 C49 1.254 . S
O64 Tb40 2.378 1_565 S
O64 C50 1.236 . S
O65 Tb41 2.341 1_565 S
O65 C50 1.266 . S
O66 Tb41 2.484 . S
O66 C51 1.248 . S
O67 Tb41 2.440 . S
O67 C51 1.266 . S
O68 Tb40 2.325 . S
O68 Tb41 2.658 . S
O68 C58 1.281 . S
O69 Tb41 2.409 . S
O69 C58 1.254 . S
O70 Tb41 2.378 . S
O70 C59 1.236 . S
O71 Tb40 2.341 . S
O71 C59 1.266 . S
H72 C44 0.929 . S
H73 C45 0.931 . S
H74 C47 0.930 . S
H75 C48 0.930 . S
H76 C53 0.929 . S
H77 C54 0.931 . S
H78 C56 0.930 . S
H79 C57 0.930 . S
Tb80 C82 2.809 . S
Tb80 O100 2.484 . S
Tb80 O101 2.440 . S
Tb80 O102 2.658 . S
Tb80 O103 2.409 . S
Tb80 O104 2.378 . S
Tb80 O108 2.325 . S
Tb80 O111 2.341 . S
Tb81 C91 2.809 . S
Tb81 O102 2.325 . S
Tb81 O105 2.341 . S
Tb81 O106 2.484 . S
Tb81 O107 2.440 . S
Tb81 O108 2.658 . S
Tb81 O109 2.409 . S
Tb81 O110 2.378 . S
C82 Tb80 2.809 . S
C82 C83 1.514 . S
C82 O100 1.248 . S
C82 O101 1.266 . S
C83 C82 1.514 . S
C83 C84 1.359 . S
C83 C88 1.348 . S
C84 C83 1.359 . S
C84 C85 1.380 . S
C84 H112 0.929 . S
C85 C84 1.380 . S
C85 C86 1.347 . S
C85 H113 0.931 . S
C86 C85 1.347 . S
C86 C87 1.369 . S
C87 C86 1.369 . S
C87 C88 1.408 . S
C87 H114 0.930 . S
C88 C83 1.348 . S
C88 C87 1.408 . S
C88 H115 0.930 . S
C89 O102 1.281 . S
C89 O103 1.254 . S
C90 O104 1.236 . S
C90 O105 1.266 . S
C91 Tb81 2.809 . S
C91 C92 1.514 . S
C91 O106 1.248 . S
C91 O107 1.266 . S
C92 C91 1.514 . S
C92 C93 1.359 . S
C92 C97 1.348 . S
C93 C92 1.359 . S
C93 C94 1.380 . S
C93 H116 0.929 . S
C94 C93 1.380 . S
C94 C95 1.347 . S
C94 H117 0.931 . S
C95 C94 1.347 . S
C95 C96 1.369 . S
C96 C95 1.369 . S
C96 C97 1.408 . S
C96 H118 0.930 . S
C97 C92 1.348 . S
C97 C96 1.408 . S
C97 H119 0.930 . S
C98 O108 1.281 . S
C98 O109 1.254 . S
C99 O110 1.236 . S
C99 O111 1.266 . S
O100 Tb80 2.484 . S
O100 C82 1.248 . S
O101 Tb80 2.440 . S
O101 C82 1.266 . S
O102 Tb80 2.658 . S
O102 Tb81 2.325 . S
O102 C89 1.281 . S
O103 Tb80 2.409 . S
O103 C89 1.254 . S
O104 Tb80 2.378 . S
O104 C90 1.236 . S
O105 Tb81 2.341 . S
O105 C90 1.266 . S
O106 Tb81 2.484 . S
O106 C91 1.248 . S
O107 Tb81 2.440 . S
O107 C91 1.266 . S
O108 Tb80 2.325 . S
O108 Tb81 2.658 . S
O108 C98 1.281 . S
O109 Tb81 2.409 . S
O109 C98 1.254 . S
O110 Tb81 2.378 . S
O110 C99 1.236 . S
O111 Tb80 2.341 . S
O111 C99 1.266 . S
H112 C84 0.929 . S
H113 C85 0.931 . S
H114 C87 0.930 . S
H115 C88 0.930 . S
H116 C93 0.929 . S
H117 C94 0.931 . S
H118 C96 0.930 . S
H119 C97 0.930 . S
C120 C121 1.386 . S
C120 C122 1.397 . S
C120 H144 0.931 . S
C121 C120 1.386 . S
C121 C125 1.397 . S
C122 C120 1.397 . S
C122 C123 1.384 . S
C122 H145 0.930 . S
C123 C122 1.384 . S
C123 C124 1.377 . S
C123 C126 1.481 . S
C124 C123 1.377 . S
C124 C125 1.389 . S
C124 H146 0.929 . S
C125 C121 1.397 . S
C125 C124 1.389 . S
C125 H147 0.931 1_545 S
C126 C123 1.481 . S
C126 C127 1.387 . S
C126 C131 1.390 . S
C127 C126 1.387 . S
C127 C128 1.401 . S
C127 H148 0.930 . S
C128 C127 1.401 . S
C128 C129 1.376 . S
C128 C137 1.511 . S
C129 C128 1.376 . S
C129 C130 1.392 . S
C129 H150 0.931 . S
C130 C129 1.392 . S
C130 C131 1.361 . S
C130 C132 1.500 1_545 S
C131 C126 1.390 . S
C131 C130 1.361 . S
C131 H149 0.931 . S
C132 C130 1.500 1_565 S
C132 C133 1.371 1_565 S
C132 C134 1.365 . S
C133 C132 1.371 1_545 S
C133 C143 1.386 1_545 S
C133 H151 0.931 . S
C134 C132 1.365 . S
C134 C135 1.409 . S
C134 H152 0.929 . S
C135 C134 1.409 . S
C135 C136 1.380 . S
C135 H153 0.930 . S
C136 C135 1.380 . S
C136 C143 1.357 . S
C137 C128 1.511 . S
C137 C138 1.341 . S
C137 C139 1.371 . S
C138 C137 1.341 . S
C138 C142 1.394 . S
C138 H154 0.930 . S
C139 C137 1.371 . S
C139 C140 1.392 . S
C139 H155 0.931 . S
C140 C139 1.392 . S
C140 C141 1.331 . S
C140 H158 0.932 . S
C141 C140 1.331 . S
C141 C142 1.336 . S
C142 C138 1.394 . S
C142 C141 1.336 . S
C142 H157 0.929 . S
C143 C133 1.386 1_565 S
C143 C136 1.357 . S
C143 H156 0.928 . S
H144 C120 0.931 . S
H145 C122 0.930 . S
H146 C124 0.929 . S
H147 C125 0.931 1_565 S
H148 C127 0.930 . S
H149 C131 0.931 . S
H150 C129 0.931 . S
H151 C133 0.931 . S
H152 C134 0.929 . S
H153 C135 0.930 . S
H154 C138 0.930 . S
H155 C139 0.931 . S
H156 C143 0.928 . S
H157 C142 0.929 . S
H158 C140 0.932 . S
C159 C160 1.386 . S
C159 C161 1.397 . S
C159 H183 0.931 . S
C160 C159 1.386 . S
C160 C164 1.397 . S
C161 C159 1.397 . S
C161 C162 1.384 . S
C161 H184 0.930 . S
C162 C161 1.384 . S
C162 C163 1.377 . S
C162 C165 1.481 . S
C163 C162 1.377 . S
C163 C164 1.389 . S
C163 H185 0.929 . S
C164 C160 1.397 . S
C164 C163 1.389 . S
C164 H186 0.931 . S
C165 C162 1.481 . S
C165 C166 1.387 . S
C165 C170 1.390 . S
C166 C165 1.387 . S
C166 C167 1.401 . S
C166 H187 0.930 . S
C167 C166 1.401 . S
C167 C168 1.376 . S
C167 C176 1.511 . S
C168 C167 1.376 . S
C168 C169 1.392 . S
C168 H189 0.931 . S
C169 C168 1.392 . S
C169 C170 1.361 . S
C169 C171 1.500 . S
C170 C165 1.390 . S
C170 C169 1.361 . S
C170 H188 0.931 . S
C171 C169 1.500 . S
C171 C172 1.371 . S
C171 C173 1.365 . S
C172 C171 1.371 . S
C172 C182 1.386 . S
C172 H190 0.931 . S
C173 C171 1.365 . S
C173 C174 1.409 . S
C173 H191 0.929 . S
C174 C173 1.409 . S
C174 C175 1.380 . S
C174 H192 0.930 . S
C175 C174 1.380 . S
C175 C182 1.357 . S
C176 C167 1.511 . S
C176 C177 1.341 . S
C176 C178 1.371 . S
C177 C176 1.341 . S
C177 C181 1.394 . S
C177 H193 0.930 . S
C178 C176 1.371 . S
C178 C179 1.392 . S
C178 H194 0.931 . S
C179 C178 1.392 . S
C179 C180 1.331 . S
C179 H197 0.932 . S
C180 C179 1.331 . S
C180 C181 1.336 . S
C181 C177 1.394 . S
C181 C180 1.336 . S
C181 H196 0.929 . S
C182 C172 1.386 . S
C182 C175 1.357 . S
C182 H195 0.928 . S
H183 C159 0.931 . S
H184 C161 0.930 . S
H185 C163 0.929 . S
H186 C164 0.931 . S
H187 C166 0.930 . S
H188 C170 0.931 . S
H189 C168 0.931 . S
H190 C172 0.931 . S
H191 C173 0.929 . S
H192 C174 0.930 . S
H193 C177 0.930 . S
H194 C178 0.931 . S
H195 C182 0.928 . S
H196 C181 0.929 . S
H197 C179 0.932 . S
C198 C199 1.386 . S
C198 C200 1.397 . S
C198 H222 0.931 . S
C199 C198 1.386 . S
C199 C203 1.397 1_455 S
C200 C198 1.397 . S
C200 C201 1.384 . S
C200 H223 0.930 . S
C201 C200 1.384 . S
C201 C202 1.377 1_455 S
C201 C204 1.481 . S
C202 C201 1.377 1_655 S
C202 C203 1.389 . S
C202 H224 0.929 . S
C203 C199 1.397 1_655 S
C203 C202 1.389 . S
C203 H225 0.931 . S
C204 C201 1.481 . S
C204 C205 1.387 . S
C204 C209 1.390 1_455 S
C205 C204 1.387 . S
C205 C206 1.401 . S
C205 H226 0.930 . S
C206 C205 1.401 . S
C206 C207 1.376 . S
C206 C215 1.511 . S
C207 C206 1.376 . S
C207 C208 1.392 1_455 S
C207 H228 0.931 . S
C208 C207 1.392 1_655 S
C208 C209 1.361 . S
C208 C210 1.500 . S
C209 C204 1.390 1_655 S
C209 C208 1.361 . S
C209 H227 0.931 . S
C210 C208 1.500 . S
C210 C211 1.371 . S
C210 C212 1.365 . S
C211 C210 1.371 . S
C211 C221 1.386 . S
C211 H229 0.931 . S
C212 C210 1.365 . S
C212 C213 1.409 . S
C212 H230 0.929 . S
C213 C212 1.409 . S
C213 C214 1.380 . S
C213 H231 0.930 . S
C214 C213 1.380 . S
C214 C221 1.357 . S
C215 C206 1.511 . S
C215 C216 1.341 . S
C215 C217 1.371 . S
C216 C215 1.341 . S
C216 C220 1.394 . S
C216 H232 0.930 . S
C217 C215 1.371 . S
C217 C218 1.392 . S
C217 H233 0.931 . S
C218 C217 1.392 . S
C218 C219 1.331 . S
C218 H236 0.932 . S
C219 C218 1.331 . S
C219 C220 1.336 . S
C220 C216 1.394 . S
C220 C219 1.336 . S
C220 H235 0.929 . S
C221 C211 1.386 . S
C221 C214 1.357 . S
C221 H234 0.928 . S
H222 C198 0.931 . S
H223 C200 0.930 . S
H224 C202 0.929 . S
H225 C203 0.931 . S
H226 C205 0.930 . S
H227 C209 0.931 . S
H228 C207 0.931 . S
H229 C211 0.931 . S
H230 C212 0.929 . S
H231 C213 0.930 . S
H232 C216 0.930 . S
H233 C217 0.931 . S
H234 C221 0.928 . S
H235 C220 0.929 . S
H236 C218 0.932 . S
C237 C238 1.386 . S
C237 C239 1.397 . S
C237 H261 0.931 1_455 S
C238 C237 1.386 . S
C238 C242 1.397 . S
C239 C237 1.397 . S
C239 C240 1.384 . S
C239 H262 0.930 1_455 S
C240 C239 1.384 . S
C240 C241 1.377 . S
C240 C243 1.481 . S
C241 C240 1.377 . S
C241 C242 1.389 . S
C241 H263 0.929 . S
C242 C238 1.397 . S
C242 C241 1.389 . S
C242 H264 0.931 . S
C243 C240 1.481 . S
C243 C244 1.387 . S
C243 C248 1.390 . S
C244 C243 1.387 . S
C244 C245 1.401 . S
C244 H265 0.930 . S
C245 C244 1.401 . S
C245 C246 1.376 . S
C245 C254 1.511 1_455 S
C246 C245 1.376 . S
C246 C247 1.392 . S
C246 H267 0.931 . S
C247 C246 1.392 . S
C247 C248 1.361 . S
C247 C249 1.500 . S
C248 C243 1.390 . S
C248 C247 1.361 . S
C248 H266 0.931 . S
C249 C247 1.500 . S
C249 C250 1.371 . S
C249 C251 1.365 . S
C250 C249 1.371 . S
C250 C260 1.386 . S
C250 H268 0.931 . S
C251 C249 1.365 . S
C251 C252 1.409 . S
C251 H269 0.929 . S
C252 C251 1.409 . S
C252 C253 1.380 . S
C252 H270 0.930 . S
C253 C252 1.380 . S
C253 C260 1.357 . S
C254 C245 1.511 1_655 S
C254 C255 1.341 . S
C254 C256 1.380 . S
C255 C254 1.341 . S
C255 C259 1.394 . S
C255 H271 0.930 . S
C256 C254 1.380 . S
C256 C257 1.405 . S
C256 H272 0.909 1_655 S
C257 C256 1.405 . S
C257 C258 1.331 . S
C257 H275 0.932 . S
C258 C257 1.331 . S
C258 C259 1.336 . S
C259 C255 1.394 . S
C259 C258 1.336 . S
C259 H274 0.929 . S
C260 C250 1.386 . S
C260 C253 1.357 . S
C260 H273 0.928 . S
H261 C237 0.931 1_655 S
H262 C239 0.930 1_655 S
H263 C241 0.929 . S
H264 C242 0.931 . S
H265 C244 0.930 . S
H266 C248 0.931 . S
H267 C246 0.931 . S
H268 C250 0.931 . S
H269 C251 0.929 . S
H270 C252 0.930 . S
H271 C255 0.930 . S
H272 C256 0.909 1_455 S
H273 C260 0.928 . S
H274 C259 0.929 . S
H275 C257 0.932 . S
C276 C277 1.386 1_565 S
C276 C278 1.397 . S
C276 H300 0.931 . S
C277 C276 1.386 1_545 S
C277 C281 1.397 . S
C278 C276 1.397 . S
C278 C279 1.384 1_565 S
C278 H301 0.930 . S
C279 C278 1.384 1_545 S
C279 C280 1.377 . S
C279 C282 1.481 . S
C280 C279 1.377 . S
C280 C281 1.389 . S
C280 H302 0.929 . S
C281 C277 1.397 . S
C281 C280 1.389 . S
C281 H303 0.931 . S
C282 C279 1.481 . S
C282 C283 1.387 1_545 S
C282 C287 1.390 . S
C283 C282 1.387 1_565 S
C283 C284 1.401 . S
C283 H304 0.930 . S
C284 C283 1.401 . S
C284 C285 1.376 1_565 S
C284 C293 1.511 . S
C285 C284 1.376 1_545 S
C285 C286 1.392 . S
C285 H306 0.931 . S
C286 C285 1.392 . S
C286 C287 1.361 . S
C286 C288 1.500 . S
C287 C282 1.390 . S
C287 C286 1.361 . S
C287 H305 0.931 . S
C288 C286 1.500 . S
C288 C289 1.371 . S
C288 C290 1.365 . S
C289 C288 1.371 . S
C289 C299 1.386 . S
C289 H307 0.931 . S
C290 C288 1.365 . S
C290 C291 1.409 . S
C290 H308 0.929 . S
C291 C290 1.409 . S
C291 C292 1.380 . S
C291 H309 0.930 . S
C292 C291 1.380 . S
C292 C299 1.357 . S
C293 C284 1.511 . S
C293 C294 1.341 . S
C293 C295 1.371 . S
C294 C293 1.341 . S
C294 C298 1.394 . S
C294 H310 0.930 . S
C295 C293 1.371 . S
C295 C296 1.392 . S
C295 H311 0.931 . S
C296 C295 1.392 . S
C296 C297 1.331 . S
C296 H314 0.932 . S
C297 C296 1.331 . S
C297 C298 1.336 . S
C298 C294 1.394 . S
C298 C297 1.336 . S
C298 H313 0.929 . S
C299 C289 1.386 . S
C299 C292 1.357 . S
C299 H312 0.928 . S
H300 C276 0.931 . S
H301 C278 0.930 . S
H302 C280 0.929 . S
H303 C281 0.931 . S
H304 C283 0.930 . S
H305 C287 0.931 . S
H306 C285 0.931 . S
H307 C289 0.931 . S
H308 C290 0.929 . S
H309 C291 0.930 . S
H310 C294 0.930 . S
H311 C295 0.931 . S
H312 C299 0.928 . S
H313 C298 0.929 . S
H314 C296 0.932 . S
C315 C316 1.386 . S
C315 C317 1.397 . S
C315 H339 0.931 . S
C316 C315 1.386 . S
C316 C320 1.397 . S
C317 C315 1.397 . S
C317 C318 1.384 . S
C317 H340 0.930 . S
C318 C317 1.384 . S
C318 C319 1.377 . S
C318 C321 1.481 . S
C319 C318 1.377 . S
C319 C320 1.389 . S
C319 H341 0.929 . S
C320 C316 1.397 . S
C320 C319 1.389 . S
C320 H342 0.931 . S
C321 C318 1.481 . S
C321 C322 1.387 . S
C321 C326 1.390 . S
C322 C321 1.387 . S
C322 C323 1.401 . S
C322 H343 0.930 . S
C323 C322 1.401 . S
C323 C324 1.376 . S
C323 C332 1.511 . S
C324 C323 1.376 . S
C324 C325 1.392 . S
C324 H345 0.931 . S
C325 C324 1.392 . S
C325 C326 1.361 . S
C325 C327 1.500 . S
C326 C321 1.390 . S
C326 C325 1.361 . S
C326 H344 0.931 . S
C327 C325 1.500 . S
C327 C328 1.371 . S
C327 C329 1.365 . S
C328 C327 1.371 . S
C328 C338 1.386 . S
C328 H346 0.931 . S
C329 C327 1.365 . S
C329 C330 1.409 . S
C329 H347 0.929 . S
C330 C329 1.409 . S
C330 C331 1.380 . S
C330 H348 0.930 . S
C331 C330 1.380 . S
C331 C338 1.357 . S
C332 C323 1.511 . S
C332 C333 1.341 . S
C332 C334 1.371 . S
C333 C332 1.341 . S
C333 C337 1.394 . S
C333 H349 0.930 . S
C334 C332 1.371 . S
C334 C335 1.392 . S
C334 H350 0.931 . S
C335 C334 1.392 . S
C335 C336 1.331 . S
C335 H353 0.932 . S
C336 C335 1.331 . S
C336 C337 1.336 . S
C337 C333 1.394 . S
C337 C336 1.336 . S
C337 H352 0.929 . S
C338 C328 1.386 . S
C338 C331 1.357 . S
C338 H351 0.928 . S
H339 C315 0.931 . S
H340 C317 0.930 . S
H341 C319 0.929 . S
H342 C320 0.931 . S
H343 C322 0.930 . S
H344 C326 0.931 . S
H345 C324 0.931 . S
H346 C328 0.931 . S
H347 C329 0.929 . S
H348 C330 0.930 . S
H349 C333 0.930 . S
H350 C334 0.931 . S
H351 C338 0.928 . S
H352 C337 0.929 . S
H353 C335 0.932 . S
C354 C355 1.349 . S
C354 C356 1.327 . S
C354 H379 0.950 . S
C355 C354 1.349 . S
C355 C371 1.349 . S
C356 C354 1.327 . S
C356 C375 1.429 . S
C356 H380 0.950 . S
C357 C374 1.574 . S
C357 C376 1.368 . S
C357 H381 0.949 . S
H358 C362 0.949 . S
C359 C360 1.349 . S
C359 C361 1.327 . S
C359 H382 0.950 . S
C360 C359 1.349 . S
C360 C372 1.349 . S
C361 C359 1.327 . S
C361 C377 1.429 . S
C361 H383 0.950 . S
C362 H358 0.949 . S
C362 C370 1.574 . S
C362 C378 1.368 . S
H363 C371 0.950 . S
H364 C369 0.950 . S
H365 C370 0.949 . S
H366 C372 0.950 . S
H367 C373 0.950 . S
H368 C374 0.949 . S
C369 H364 0.950 . S
C369 C371 1.327 . S
C369 C375 1.429 . S
C370 C362 1.574 . S
C370 H365 0.949 . S
C370 C376 1.368 . S
C371 C355 1.349 . S
C371 H363 0.950 . S
C371 C369 1.327 . S
C372 C360 1.349 . S
C372 H366 0.950 . S
C372 C373 1.327 . S
C373 H367 0.950 . S
C373 C372 1.327 . S
C373 C377 1.429 . S
C374 C357 1.574 . S
C374 H368 0.949 . S
C374 C378 1.368 . S
C375 C356 1.429 . S
C375 C369 1.429 . S
C375 C376 1.523 . S
C376 C357 1.368 . S
C376 C370 1.368 . S
C376 C375 1.523 . S
C377 C361 1.429 . S
C377 C373 1.429 . S
C377 C378 1.523 . S
C378 C362 1.368 . S
C378 C374 1.368 . S
C378 C377 1.523 . S
H379 C354 0.950 . S
H380 C356 0.950 . S
H381 C357 0.949 . S
H382 C359 0.950 . S
H383 C361 0.950 . S
C384 C385 1.349 . S
C384 C386 1.327 . S
C384 H409 0.950 . S
C385 C384 1.349 . S
C385 C401 1.349 . S
C386 C384 1.327 . S
C386 C405 1.429 . S
C386 H410 0.950 . S
C387 C404 1.574 . S
C387 C406 1.368 . S
C387 H411 0.949 . S
H388 C392 0.949 . S
C389 C390 1.349 . S
C389 C391 1.327 . S
C389 H412 0.950 . S
C390 C389 1.349 . S
C390 C402 1.349 . S
C391 C389 1.327 . S
C391 C407 1.429 . S
C391 H413 0.950 . S
C392 H388 0.949 . S
C392 C400 1.574 . S
C392 C408 1.368 . S
H393 C401 0.950 . S
H394 C399 0.950 . S
H395 C400 0.949 . S
H396 C402 0.950 . S
H397 C403 0.950 . S
H398 C404 0.949 . S
C399 H394 0.950 . S
C399 C401 1.327 . S
C399 C405 1.429 . S
C400 C392 1.574 . S
C400 H395 0.949 . S
C400 C406 1.368 . S
C401 C385 1.349 . S
C401 H393 0.950 . S
C401 C399 1.327 . S
C402 C390 1.349 . S
C402 H396 0.950 . S
C402 C403 1.327 . S
C403 H397 0.950 . S
C403 C402 1.327 . S
C403 C407 1.429 . S
C404 C387 1.574 . S
C404 H398 0.949 . S
C404 C408 1.368 . S
C405 C386 1.429 . S
C405 C399 1.429 . S
C405 C406 1.523 . S
C406 C387 1.368 . S
C406 C400 1.368 . S
C406 C405 1.523 . S
C407 C391 1.429 . S
C407 C403 1.429 . S
C407 C408 1.523 . S
C408 C392 1.368 . S
C408 C404 1.368 . S
C408 C407 1.523 . S
H409 C384 0.950 . S
H410 C386 0.950 . S
H411 C387 0.949 . S
H412 C389 0.950 . S
H413 C391 0.950 . S
C414 C415 1.349 . S
C414 C416 1.327 . S
C414 H439 0.950 . S
C415 C414 1.349 . S
C415 C431 1.349 . S
C416 C414 1.327 . S
C416 C435 1.429 . S
C416 H440 0.950 . S
C417 C434 1.574 . S
C417 C436 1.368 . S
C417 H441 0.949 . S
H418 C422 0.949 . S
C419 C420 1.349 . S
C419 C421 1.327 . S
C419 H442 0.950 . S
C420 C419 1.349 . S
C420 C432 1.349 . S
C421 C419 1.327 . S
C421 C437 1.429 . S
C421 H443 0.950 . S
C422 H418 0.949 . S
C422 C430 1.574 . S
C422 C438 1.368 . S
H423 C431 0.950 . S
H424 C429 0.950 . S
H425 C430 0.949 . S
H426 C432 0.950 . S
H427 C433 0.950 . S
H428 C434 0.949 . S
C429 H424 0.950 . S
C429 C431 1.327 . S
C429 C435 1.429 . S
C430 C422 1.574 . S
C430 H425 0.949 . S
C430 C436 1.368 . S
C431 C415 1.349 . S
C431 H423 0.950 . S
C431 C429 1.327 . S
C432 C420 1.349 . S
C432 H426 0.950 . S
C432 C433 1.327 . S
C433 H427 0.950 . S
C433 C432 1.327 . S
C433 C437 1.429 . S
C434 C417 1.574 . S
C434 H428 0.949 . S
C434 C438 1.368 . S
C435 C416 1.429 . S
C435 C429 1.429 . S
C435 C436 1.523 . S
C436 C417 1.368 . S
C436 C430 1.368 . S
C436 C435 1.523 . S
C437 C421 1.429 . S
C437 C433 1.429 . S
C437 C438 1.523 . S
C438 C422 1.368 . S
C438 C434 1.368 . S
C438 C437 1.523 . S
H439 C414 0.950 . S
H440 C416 0.950 . S
H441 C417 0.949 . S
H442 C419 0.950 . S
H443 C421 0.950 . S
C444 C445 1.349 . S
C444 C446 1.327 . S
C444 H469 0.950 . S
C445 C444 1.349 . S
C445 C461 1.349 . S
C446 C444 1.327 . S
C446 C465 1.429 . S
C446 H470 0.950 . S
C447 C464 1.574 . S
C447 C466 1.368 . S
C447 H471 0.949 . S
H448 C452 0.949 . S
C449 C450 1.349 . S
C449 C451 1.327 . S
C449 H472 0.950 . S
C450 C449 1.349 . S
C450 C462 1.349 . S
C451 C449 1.327 . S
C451 C467 1.429 . S
C451 H473 0.950 . S
C452 H448 0.949 . S
C452 C460 1.574 . S
C452 C468 1.368 . S
H453 C461 0.950 . S
H454 C459 0.950 . S
H455 C460 0.949 . S
H456 C462 0.950 . S
H457 C463 0.950 . S
H458 C464 0.949 . S
C459 H454 0.950 . S
C459 C461 1.327 . S
C459 C465 1.429 . S
C460 C452 1.574 . S
C460 H455 0.949 . S
C460 C466 1.368 . S
C461 C445 1.349 . S
C461 H453 0.950 . S
C461 C459 1.327 . S
C462 C450 1.349 . S
C462 H456 0.950 . S
C462 C463 1.327 . S
C463 H457 0.950 . S
C463 C462 1.327 . S
C463 C467 1.429 . S
C464 C447 1.574 . S
C464 H458 0.949 . S
C464 C468 1.368 . S
C465 C446 1.429 . S
C465 C459 1.429 . S
C465 C466 1.523 . S
C466 C447 1.368 . S
C466 C460 1.368 . S
C466 C465 1.523 . S
C467 C451 1.429 . S
C467 C463 1.429 . S
C467 C468 1.523 . S
C468 C452 1.368 . S
C468 C464 1.368 . S
C468 C467 1.523 . S
H469 C444 0.950 . S
H470 C446 0.950 . S
H471 C447 0.949 . S
H472 C449 0.950 . S
H473 C451 0.950 . S
C474 C475 1.349 . S
C474 C476 1.327 . S
C474 H499 0.950 . S
C475 C474 1.349 . S
C475 C491 1.349 . S
C476 C474 1.327 . S
C476 C495 1.429 . S
C476 H500 0.950 . S
C477 C494 1.574 . S
C477 C496 1.368 . S
C477 H501 0.949 . S
H478 C482 0.949 . S
C479 C480 1.349 . S
C479 C481 1.327 . S
C479 H502 0.950 . S
C480 C479 1.349 . S
C480 C492 1.349 . S
C481 C479 1.327 . S
C481 C497 1.429 . S
C481 H503 0.950 . S
C482 H478 0.949 . S
C482 C490 1.574 . S
C482 C498 1.368 . S
H483 C491 0.950 . S
H484 C489 0.950 . S
H485 C490 0.949 . S
H486 C492 0.950 . S
H487 C493 0.950 . S
H488 C494 0.949 . S
C489 H484 0.950 . S
C489 C491 1.327 . S
C489 C495 1.429 . S
C490 C482 1.574 . S
C490 H485 0.949 . S
C490 C496 1.368 . S
C491 C475 1.349 . S
C491 H483 0.950 . S
C491 C489 1.327 . S
C492 C480 1.349 . S
C492 H486 0.950 . S
C492 C493 1.327 . S
C493 H487 0.950 . S
C493 C492 1.327 . S
C493 C497 1.429 . S
C494 C477 1.574 . S
C494 H488 0.949 . S
C494 C498 1.368 . S
C495 C476 1.429 . S
C495 C489 1.429 . S
C495 C496 1.523 . S
C496 C477 1.368 . S
C496 C490 1.368 . S
C496 C495 1.523 . S
C497 C481 1.429 . S
C497 C493 1.429 . S
C497 C498 1.523 . S
C498 C482 1.368 . S
C498 C494 1.368 . S
C498 C497 1.523 . S
H499 C474 0.950 . S
H500 C476 0.950 . S
H501 C477 0.949 . S
H502 C479 0.950 . S
H503 C481 0.950 . S
C504 C505 1.349 . S
C504 C506 1.327 . S
C504 H529 0.950 . S
C505 C504 1.349 . S
C505 C521 1.349 . S
C506 C504 1.327 . S
C506 C525 1.429 . S
C506 H530 0.950 . S
C507 C524 1.574 . S
C507 C526 1.368 . S
C507 H531 0.949 . S
H508 C512 0.949 . S
C509 C510 1.349 . S
C509 C511 1.327 . S
C509 H532 0.950 . S
C510 C509 1.349 . S
C510 C522 1.349 . S
C511 C509 1.327 . S
C511 C527 1.429 . S
C511 H533 0.950 . S
C512 H508 0.949 . S
C512 C520 1.574 . S
C512 C528 1.368 . S
H513 C521 0.950 . S
H514 C519 0.950 . S
H515 C520 0.949 . S
H516 C522 0.950 . S
H517 C523 0.950 . S
H518 C524 0.949 . S
C519 H514 0.950 . S
C519 C521 1.327 . S
C519 C525 1.429 . S
C520 C512 1.574 . S
C520 H515 0.949 . S
C520 C526 1.368 . S
C521 C505 1.349 . S
C521 H513 0.950 . S
C521 C519 1.327 . S
C522 C510 1.349 . S
C522 H516 0.950 . S
C522 C523 1.327 . S
C523 H517 0.950 . S
C523 C522 1.327 . S
C523 C527 1.429 . S
C524 C507 1.574 . S
C524 H518 0.949 . S
C524 C528 1.368 . S
C525 C506 1.429 . S
C525 C519 1.429 . S
C525 C526 1.523 . S
C526 C507 1.368 . S
C526 C520 1.368 . S
C526 C525 1.523 . S
C527 C511 1.429 . S
C527 C523 1.429 . S
C527 C528 1.523 . S
C528 C512 1.368 . S
C528 C524 1.368 . S
C528 C527 1.523 . S
H529 C504 0.950 . S
H530 C506 0.950 . S
H531 C507 0.949 . S
H532 C509 0.950 . S
H533 C511 0.950 . S
C534 C535 1.349 . S
C534 C536 1.327 . S
C534 H559 0.950 . S
C535 C534 1.349 . S
C535 C551 1.349 . S
C536 C534 1.327 . S
C536 C555 1.429 . S
C536 H560 0.950 . S
C537 C554 1.574 . S
C537 C556 1.368 . S
C537 H561 0.949 . S
H538 C542 0.949 . S
C539 C540 1.349 . S
C539 C541 1.327 . S
C539 H562 0.950 . S
C540 C539 1.349 . S
C540 C552 1.349 . S
C541 C539 1.327 . S
C541 C557 1.429 . S
C541 H563 0.950 . S
C542 H538 0.949 . S
C542 C550 1.574 . S
C542 C558 1.368 . S
H543 C551 0.950 . S
H544 C549 0.950 . S
H545 C550 0.949 . S
H546 C552 0.950 . S
H547 C553 0.950 . S
H548 C554 0.949 . S
C549 H544 0.950 . S
C549 C551 1.327 . S
C549 C555 1.429 . S
C550 C542 1.574 . S
C550 H545 0.949 . S
C550 C556 1.368 . S
C551 C535 1.349 . S
C551 H543 0.950 . S
C551 C549 1.327 . S
C552 C540 1.349 . S
C552 H546 0.950 . S
C552 C553 1.327 . S
C553 H547 0.950 . S
C553 C552 1.327 . S
C553 C557 1.429 . S
C554 C537 1.574 . S
C554 H548 0.949 . S
C554 C558 1.368 . S
C555 C536 1.429 . S
C555 C549 1.429 . S
C555 C556 1.523 . S
C556 C537 1.368 . S
C556 C550 1.368 . S
C556 C555 1.523 . S
C557 C541 1.429 . S
C557 C553 1.429 . S
C557 C558 1.523 . S
C558 C542 1.368 . S
C558 C554 1.368 . S
C558 C557 1.523 . S
H559 C534 0.950 . S
H560 C536 0.950 . S
H561 C537 0.949 . S
H562 C539 0.950 . S
H563 C541 0.950 . S
C564 C565 1.349 . S
C564 C566 1.327 . S
C564 H589 0.950 . S
C565 C564 1.349 . S
C565 C581 1.349 . S
C566 C564 1.327 . S
C566 C585 1.429 . S
C566 H590 0.950 . S
C567 C584 1.574 . S
C567 C586 1.368 . S
C567 H591 0.949 . S
H568 C572 0.949 . S
C569 C570 1.349 . S
C569 C571 1.327 . S
C569 H592 0.950 . S
C570 C569 1.349 . S
C570 C582 1.349 . S
C571 C569 1.327 . S
C571 C587 1.429 . S
C571 H593 0.950 . S
C572 H568 0.949 . S
C572 C580 1.574 . S
C572 C588 1.368 . S
H573 C581 0.950 . S
H574 C579 0.950 . S
H575 C580 0.949 . S
H576 C582 0.950 . S
H577 C583 0.950 . S
H578 C584 0.949 . S
C579 H574 0.950 . S
C579 C581 1.327 . S
C579 C585 1.429 . S
C580 C572 1.574 . S
C580 H575 0.949 . S
C580 C586 1.368 . S
C581 C565 1.349 . S
C581 H573 0.950 . S
C581 C579 1.327 . S
C582 C570 1.349 . S
C582 H576 0.950 . S
C582 C583 1.327 . S
C583 H577 0.950 . S
C583 C582 1.327 . S
C583 C587 1.429 . S
C584 C567 1.574 . S
C584 H578 0.949 . S
C584 C588 1.368 . S
C585 C566 1.429 . S
C585 C579 1.429 . S
C585 C586 1.523 . S
C586 C567 1.368 . S
C586 C580 1.368 . S
C586 C585 1.523 . S
C587 C571 1.429 . S
C587 C583 1.429 . S
C587 C588 1.523 . S
C588 C572 1.368 . S
C588 C584 1.368 . S
C588 C587 1.523 . S
H589 C564 0.950 . S
H590 C566 0.950 . S
H591 C567 0.949 . S
H592 C569 0.950 . S
H593 C571 0.950 . S
C594 C595 1.349 . S
C594 C596 1.327 . S
C594 H619 0.950 . S
C595 C594 1.349 . S
C595 C611 1.349 . S
C596 C594 1.327 . S
C596 C615 1.429 . S
C596 H620 0.950 . S
C597 C614 1.574 . S
C597 C616 1.368 . S
C597 H621 0.949 . S
H598 C602 0.949 . S
C599 C600 1.349 . S
C599 C601 1.327 . S
C599 H622 0.950 . S
C600 C599 1.349 . S
C600 C612 1.349 . S
C601 C599 1.327 . S
C601 C617 1.429 . S
C601 H623 0.950 . S
C602 H598 0.949 . S
C602 C610 1.574 . S
C602 C618 1.368 . S
H603 C611 0.950 . S
H604 C609 0.950 . S
H605 C610 0.949 . S
H606 C612 0.950 . S
H607 C613 0.950 . S
H608 C614 0.949 . S
C609 H604 0.950 . S
C609 C611 1.327 . S
C609 C615 1.429 . S
C610 C602 1.574 . S
C610 H605 0.949 . S
C610 C616 1.368 . S
C611 C595 1.349 . S
C611 H603 0.950 . S
C611 C609 1.327 . S
C612 C600 1.349 . S
C612 H606 0.950 . S
C612 C613 1.327 . S
C613 H607 0.950 . S
C613 C612 1.327 . S
C613 C617 1.429 . S
C614 C597 1.574 . S
C614 H608 0.949 . S
C614 C618 1.368 . S
C615 C596 1.429 . S
C615 C609 1.429 . S
C615 C616 1.523 . S
C616 C597 1.368 . S
C616 C610 1.368 . S
C616 C615 1.523 . S
C617 C601 1.429 . S
C617 C613 1.429 . S
C617 C618 1.523 . S
C618 C602 1.368 . S
C618 C614 1.368 . S
C618 C617 1.523 . S
H619 C594 0.950 . S
H620 C596 0.950 . S
H621 C597 0.949 . S
H622 C599 0.950 . S
H623 C601 0.950 . S
C624 C625 1.349 . S
C624 C626 1.327 . S
C624 H649 0.950 . S
C625 C624 1.349 . S
C625 C641 1.349 . S
C626 C624 1.327 . S
C626 C645 1.429 . S
C626 H650 0.950 . S
C627 C644 1.574 . S
C627 C646 1.368 . S
C627 H651 0.949 . S
H628 C632 0.949 . S
C629 C630 1.349 . S
C629 C631 1.327 . S
C629 H652 0.950 . S
C630 C629 1.349 . S
C630 C642 1.349 . S
C631 C629 1.327 . S
C631 C647 1.429 . S
C631 H653 0.950 . S
C632 H628 0.949 . S
C632 C640 1.574 . S
C632 C648 1.368 . S
H633 C641 0.950 . S
H634 C639 0.950 . S
H635 C640 0.949 . S
H636 C642 0.950 . S
H637 C643 0.950 . S
H638 C644 0.949 . S
C639 H634 0.950 . S
C639 C641 1.327 . S
C639 C645 1.429 . S
C640 C632 1.574 . S
C640 H635 0.949 . S
C640 C646 1.368 . S
C641 C625 1.349 . S
C641 H633 0.950 . S
C641 C639 1.327 . S
C642 C630 1.349 . S
C642 H636 0.950 . S
C642 C643 1.327 . S
C643 H637 0.950 . S
C643 C642 1.327 . S
C643 C647 1.429 . S
C644 C627 1.574 . S
C644 H638 0.949 . S
C644 C648 1.368 . S
C645 C626 1.429 . S
C645 C639 1.429 . S
C645 C646 1.523 . S
C646 C627 1.368 . S
C646 C640 1.368 . S
C646 C645 1.523 . S
C647 C631 1.429 . S
C647 C643 1.429 . S
C647 C648 1.523 . S
C648 C632 1.368 . S
C648 C644 1.368 . S
C648 C647 1.523 . S
H649 C624 0.950 . S
H650 C626 0.950 . S
H651 C627 0.949 . S
H652 C629 0.950 . S
H653 C631 0.950 . S
C654 C655 1.349 . S
C654 C656 1.327 . S
C654 H679 0.950 . S
C655 C654 1.349 . S
C655 C671 1.349 . S
C656 C654 1.327 . S
C656 C675 1.429 . S
C656 H680 0.950 . S
C657 C674 1.574 . S
C657 C676 1.368 . S
C657 H681 0.949 . S
H658 C662 0.949 . S
C659 C660 1.349 . S
C659 C661 1.327 . S
C659 H682 0.950 . S
C660 C659 1.349 . S
C660 C672 1.349 . S
C661 C659 1.327 . S
C661 C677 1.429 . S
C661 H683 0.950 . S
C662 H658 0.949 . S
C662 C670 1.574 . S
C662 C678 1.368 . S
H663 C671 0.950 . S
H664 C669 0.950 . S
H665 C670 0.949 . S
H666 C672 0.950 . S
H667 C673 0.950 . S
H668 C674 0.949 . S
C669 H664 0.950 . S
C669 C671 1.327 . S
C669 C675 1.429 . S
C670 C662 1.574 . S
C670 H665 0.949 . S
C670 C676 1.368 . S
C671 C655 1.349 . S
C671 H663 0.950 . S
C671 C669 1.327 . S
C672 C660 1.349 . S
C672 H666 0.950 . S
C672 C673 1.327 . S
C673 H667 0.950 . S
C673 C672 1.327 . S
C673 C677 1.429 . S
C674 C657 1.574 . S
C674 H668 0.949 . S
C674 C678 1.368 . S
C675 C656 1.429 . S
C675 C669 1.429 . S
C675 C676 1.523 . S
C676 C657 1.368 . S
C676 C670 1.368 . S
C676 C675 1.523 . S
C677 C661 1.429 . S
C677 C673 1.429 . S
C677 C678 1.523 . S
C678 C662 1.368 . S
C678 C674 1.368 . S
C678 C677 1.523 . S
H679 C654 0.950 . S
H680 C656 0.950 . S
H681 C657 0.949 . S
H682 C659 0.950 . S
H683 C661 0.950 . S
C684 C685 1.349 . S
C684 C686 1.327 . S
C684 H709 0.950 . S
C685 C684 1.349 . S
C685 C701 1.349 . S
C686 C684 1.327 . S
C686 C705 1.429 . S
C686 H710 0.950 . S
C687 C704 1.574 . S
C687 C706 1.368 . S
C687 H711 0.949 . S
H688 C692 0.949 . S
C689 C690 1.349 . S
C689 C691 1.327 . S
C689 H712 0.950 . S
C690 C689 1.349 . S
C690 C702 1.349 . S
C691 C689 1.327 . S
C691 C707 1.429 . S
C691 H713 0.950 . S
C692 H688 0.949 . S
C692 C700 1.574 . S
C692 C708 1.368 . S
H693 C701 0.950 . S
H694 C699 0.950 . S
H695 C700 0.949 . S
H696 C702 0.950 . S
H697 C703 0.950 . S
H698 C704 0.949 . S
C699 H694 0.950 . S
C699 C701 1.327 . S
C699 C705 1.429 . S
C700 C692 1.574 . S
C700 H695 0.949 . S
C700 C706 1.368 . S
C701 C685 1.349 . S
C701 H693 0.950 . S
C701 C699 1.327 . S
C702 C690 1.349 . S
C702 H696 0.950 . S
C702 C703 1.327 . S
C703 H697 0.950 . S
C703 C702 1.327 . S
C703 C707 1.429 . S
C704 C687 1.574 . S
C704 H698 0.949 . S
C704 C708 1.368 . S
C705 C686 1.429 . S
C705 C699 1.429 . S
C705 C706 1.523 . S
C706 C687 1.368 . S
C706 C700 1.368 . S
C706 C705 1.523 . S
C707 C691 1.429 . S
C707 C703 1.429 . S
C707 C708 1.523 . S
C708 C692 1.368 . S
C708 C704 1.368 . S
C708 C707 1.523 . S
H709 C684 0.950 . S
H710 C686 0.950 . S
H711 C687 0.949 . S
H712 C689 0.950 . S
H713 C691 0.950 . S
C714 C715 1.349 . S
C714 C716 1.327 . S
C714 H739 0.950 . S
C715 C714 1.349 . S
C715 C731 1.349 1_455 S
C716 C714 1.327 . S
C716 C735 1.429 . S
C716 H740 0.950 . S
C717 C734 1.574 . S
C717 C736 1.368 1_655 S
C717 H741 0.949 . S
H718 C722 0.949 . S
C719 C720 1.349 1_655 S
C719 C721 1.327 1_556 S
C719 H742 0.950 . S
C720 C719 1.349 1_455 S
C720 C732 1.349 . S
C721 C719 1.327 1_554 S
C721 C737 1.429 1_655 S
C721 H743 0.950 . S
C722 H718 0.949 . S
C722 C730 1.574 . S
C722 C738 1.368 . S
H723 C731 0.950 . S
H724 C729 0.950 . S
H725 C730 0.949 . S
H726 C732 0.950 . S
H727 C733 0.950 . S
H728 C734 0.949 . S
C729 H724 0.950 . S
C729 C731 1.327 . S
C729 C735 1.429 1_655 S
C730 C722 1.574 . S
C730 H725 0.949 . S
C730 C736 1.368 . S
C731 C715 1.349 1_655 S
C731 H723 0.950 . S
C731 C729 1.327 . S
C732 C720 1.349 . S
C732 H726 0.950 . S
C732 C733 1.327 1_556 S
C733 H727 0.950 . S
C733 C732 1.327 1_554 S
C733 C737 1.429 . S
C734 C717 1.574 . S
C734 H728 0.949 . S
C734 C738 1.368 1_655 S
C735 C716 1.429 . S
C735 C729 1.429 1_455 S
C735 C736 1.523 . S
C736 C717 1.368 1_455 S
C736 C730 1.368 . S
C736 C735 1.523 . S
C737 C721 1.429 1_455 S
C737 C733 1.429 . S
C737 C738 1.523 . S
C738 C722 1.368 . S
C738 C734 1.368 1_455 S
C738 C737 1.523 . S
H739 C714 0.950 . S
H740 C716 0.950 . S
H741 C717 0.949 . S
H742 C719 0.950 . S
H743 C721 0.950 . S
C744 C745 1.349 . S
C744 C746 1.327 . S
C744 H769 0.950 . S
C745 C744 1.349 . S
C745 C761 1.349 . S
C746 C744 1.327 . S
C746 C765 1.429 . S
C746 H770 0.950 . S
C747 C764 1.574 . S
C747 C766 1.368 . S
C747 H771 0.945 1_545 S
H748 C752 0.949 . S
C749 C750 1.349 . S
C749 C751 1.327 . S
C749 H772 0.950 . S
C750 C749 1.349 . S
C750 C762 1.349 . S
C751 C749 1.327 . S
C751 C767 1.429 . S
C751 H773 0.950 . S
C752 H748 0.949 . S
C752 C760 1.574 . S
C752 C768 1.368 . S
H753 C761 0.950 1_565 S
H754 C759 0.950 1_565 S
H755 C760 0.949 . S
H756 C762 0.950 . S
H757 C763 0.950 . S
H758 C764 0.949 . S
C759 H754 0.950 1_545 S
C759 C761 1.327 . S
C759 C765 1.429 . S
C760 C752 1.574 . S
C760 H755 0.949 . S
C760 C766 1.368 . S
C761 C745 1.349 . S
C761 H753 0.950 1_545 S
C761 C759 1.327 . S
C762 C750 1.349 . S
C762 H756 0.950 . S
C762 C763 1.327 . S
C763 H757 0.950 . S
C763 C762 1.327 . S
C763 C767 1.429 . S
C764 C747 1.574 . S
C764 H758 0.949 . S
C764 C768 1.368 . S
C765 C746 1.429 . S
C765 C759 1.429 . S
C765 C766 1.523 . S
C766 C747 1.368 . S
C766 C760 1.368 . S
C766 C765 1.523 . S
C767 C751 1.429 . S
C767 C763 1.429 . S
C767 C768 1.523 . S
C768 C752 1.368 . S
C768 C764 1.368 . S
C768 C767 1.523 . S
H769 C744 0.950 . S
H770 C746 0.950 . S
H771 C747 0.945 1_565 S
H772 C749 0.950 . S
H773 C751 0.950 . S
C774 C775 1.349 . S
C774 C776 1.327 . S
C774 H799 0.950 . S
C775 C774 1.349 . S
C775 C791 1.349 . S
C776 C774 1.327 . S
C776 C795 1.429 . S
C776 H800 0.950 . S
C777 C794 1.574 . S
C777 C796 1.368 . S
C777 H801 0.949 . S
H778 C782 0.949 . S
C779 C780 1.349 . S
C779 C781 1.327 . S
C779 H802 0.950 . S
C780 C779 1.349 . S
C780 C792 1.349 . S
C781 C779 1.327 . S
C781 C797 1.429 . S
C781 H803 0.950 . S
C782 H778 0.949 . S
C782 C790 1.574 . S
C782 C798 1.368 . S
H783 C791 0.950 . S
H784 C789 0.950 . S
H785 C790 0.949 . S
H786 C792 0.950 . S
H787 C793 0.950 . S
H788 C794 0.949 . S
C789 H784 0.950 . S
C789 C791 1.327 . S
C789 C795 1.429 . S
C790 C782 1.574 . S
C790 H785 0.949 . S
C790 C796 1.368 . S
C791 C775 1.349 . S
C791 H783 0.950 . S
C791 C789 1.327 . S
C792 C780 1.349 . S
C792 H786 0.950 . S
C792 C793 1.327 . S
C793 H787 0.950 . S
C793 C792 1.327 . S
C793 C797 1.429 . S
C794 C777 1.574 . S
C794 H788 0.949 . S
C794 C798 1.368 . S
C795 C776 1.429 . S
C795 C789 1.429 . S
C795 C796 1.523 . S
C796 C777 1.368 . S
C796 C790 1.368 . S
C796 C795 1.523 . S
C797 C781 1.429 . S
C797 C793 1.429 . S
C797 C798 1.523 . S
C798 C782 1.368 . S
C798 C794 1.368 . S
C798 C797 1.523 . S
H799 C774 0.950 . S
H800 C776 0.950 . S
H801 C777 0.949 . S
H802 C779 0.950 . S
H803 C781 0.950 . S
C804 C805 1.349 . S
C804 C806 1.327 . S
C804 H829 0.950 . S
C805 C804 1.349 . S
C805 C821 1.342 1_545 S
C806 C804 1.327 . S
C806 C825 1.429 . S
C806 H830 0.950 . S
C807 C824 1.574 . S
C807 C826 1.368 1_565 S
C807 H831 0.949 . S
H808 C812 0.949 . S
C809 C810 1.349 1_565 S
C809 C811 1.327 . S
C809 H832 0.950 . S
C810 C809 1.349 1_545 S
C810 C822 1.349 . S
C811 C809 1.327 . S
C811 C827 1.429 1_565 S
C811 H833 0.950 . S
C812 H808 0.949 . S
C812 C820 1.574 . S
C812 C828 1.368 . S
H813 C821 0.957 . S
H814 C819 0.950 . S
H815 C820 0.949 . S
H816 C822 0.950 . S
H817 C823 0.950 . S
H818 C824 0.949 . S
C819 H814 0.950 . S
C819 C821 1.327 . S
C819 C825 1.429 1_565 S
C820 C812 1.574 . S
C820 H815 0.949 . S
C820 C826 1.368 . S
C821 C805 1.342 1_565 S
C821 H813 0.957 . S
C821 C819 1.327 . S
C822 C810 1.349 . S
C822 H816 0.950 . S
C822 C823 1.327 . S
C823 H817 0.950 . S
C823 C822 1.327 . S
C823 C827 1.429 . S
C824 C807 1.574 . S
C824 H818 0.949 . S
C824 C828 1.368 1_565 S
C825 C806 1.429 . S
C825 C819 1.429 1_545 S
C825 C826 1.523 . S
C826 C807 1.368 1_545 S
C826 C820 1.368 . S
C826 C825 1.523 . S
C827 C811 1.429 1_545 S
C827 C823 1.429 . S
C827 C828 1.523 . S
C828 C812 1.368 . S
C828 C824 1.368 1_545 S
C828 C827 1.523 . S
H829 C804 0.950 . S
H830 C806 0.950 . S
H831 C807 0.949 . S
H832 C809 0.950 . S
H833 C811 0.950 . S
C834 C835 1.349 . S
C834 C836 1.327 . S
C834 H859 0.950 . S
C835 C834 1.349 . S
C835 C851 1.349 . S
C836 C834 1.327 . S
C836 C855 1.429 . S
C836 H860 0.950 . S
C837 C854 1.574 . S
C837 C856 1.368 . S
C837 H861 0.949 . S
H838 C842 0.949 . S
C839 C840 1.349 . S
C839 C841 1.327 1_554 S
C839 H862 0.950 . S
C840 C839 1.349 . S
C840 C852 1.349 . S
C841 C839 1.327 1_556 S
C841 C857 1.429 . S
C841 H863 0.950 . S
C842 H838 0.949 . S
C842 C850 1.574 . S
C842 C858 1.368 . S
H843 C851 0.950 . S
H844 C849 0.950 . S
H845 C850 0.949 . S
H846 C852 0.950 . S
H847 C853 0.950 . S
H848 C854 0.949 . S
C849 H844 0.950 . S
C849 C851 1.327 . S
C849 C855 1.429 . S
C850 C842 1.574 . S
C850 H845 0.949 . S
C850 C856 1.368 . S
C851 C835 1.349 . S
C851 H843 0.950 . S
C851 C849 1.327 . S
C852 C840 1.349 . S
C852 H846 0.950 . S
C852 C853 1.327 1_554 S
C853 H847 0.950 . S
C853 C852 1.327 1_556 S
C853 C857 1.429 . S
C854 C837 1.574 . S
C854 H848 0.949 . S
C854 C858 1.368 . S
C855 C836 1.429 . S
C855 C849 1.429 . S
C855 C856 1.523 . S
C856 C837 1.368 . S
C856 C850 1.368 . S
C856 C855 1.523 . S
C857 C841 1.429 . S
C857 C853 1.429 . S
C857 C858 1.523 . S
C858 C842 1.368 . S
C858 C854 1.368 . S
C858 C857 1.523 . S
H859 C834 0.950 . S
H860 C836 0.950 . S
H861 C837 0.949 . S
H862 C839 0.950 . S
H863 C841 0.950 . S
C864 C865 1.349 . S
C864 C866 1.327 . S
C864 H889 0.950 . S
C865 C864 1.349 . S
C865 C881 1.349 . S
C866 C864 1.327 . S
C866 C885 1.429 . S
C866 H890 0.950 . S
C867 C884 1.574 . S
C867 C886 1.368 . S
C867 H891 0.949 . S
H868 C872 0.949 . S
C869 C870 1.349 . S
C869 C871 1.327 . S
C869 H892 0.950 . S
C870 C869 1.349 . S
C870 C882 1.349 . S
C871 C869 1.327 . S
C871 C887 1.429 . S
C871 H893 0.950 . S
C872 H868 0.949 . S
C872 C880 1.574 . S
C872 C888 1.368 . S
H873 C881 0.950 . S
H874 C879 0.950 . S
H875 C880 0.949 . S
H876 C882 0.950 . S
H877 C883 0.950 . S
H878 C884 0.949 . S
C879 H874 0.950 . S
C879 C881 1.327 . S
C879 C885 1.429 . S
C880 C872 1.574 . S
C880 H875 0.949 . S
C880 C886 1.368 . S
C881 C865 1.349 . S
C881 H873 0.950 . S
C881 C879 1.327 . S
C882 C870 1.349 . S
C882 H876 0.950 . S
C882 C883 1.327 . S
C883 H877 0.950 . S
C883 C882 1.327 . S
C883 C887 1.429 . S
C884 C867 1.574 . S
C884 H878 0.949 . S
C884 C888 1.368 . S
C885 C866 1.429 . S
C885 C879 1.429 . S
C885 C886 1.523 . S
C886 C867 1.368 . S
C886 C880 1.368 . S
C886 C885 1.523 . S
C887 C871 1.429 . S
C887 C883 1.429 . S
C887 C888 1.523 . S
C888 C872 1.368 . S
C888 C884 1.368 . S
C888 C887 1.523 . S
H889 C864 0.950 . S
H890 C866 0.950 . S
H891 C867 0.949 . S
H892 C869 0.950 . S
H893 C871 0.950 . S
C355 C10 2.960 . S
C360 C331 2.940 . S
C385 C59 3.048 . S
C390 C258 3.007 . S
C415 C90 2.954 . S
C420 C297 2.935 . S
C445 C19 3.030 . S
C450 C336 2.988 . S
C480 C253 2.919 . S
C475 C50 2.941 . S
C510 C292 2.991 . S
C505 C99 3.035 . S
C535 C46 0.359 . S
C540 C180 0.360 . S
C565 C95 0.313 . S
C570 C214 0.254 . S
C595 C6 0.338 . S
C600 C136 0.339 . S
C630 C175 0.240 . S
C625 C55 0.300 . S
C660 C219 0.338 . S
C655 C86 0.334 . S
C685 C15 0.309 . S
C690 C141 0.247 . S
C720 C199 1.102 . S
C715 C9 1.078 . S
C745 C49 1.076 . S
C750 C121 1.101 . S
C775 C89 1.080 . S
C780 C160 1.104 . S
C810 C277 1.777 . S
C805 C58 1.698 . S
C840 C316 1.780 . S
C835 C98 1.701 . S
C865 C18 1.699 . S
C870 C238 1.780 . S
