# Generated by pormake.
# Topology apo, (3,6)-cn, num edge types: 1
# Building blocks:
#     Node 0, Type 0, BuildingBlock: BETDIP_clean_linker_0, # of connection points: 3
#     Node 1, Type 0, BuildingBlock: BETDIP_clean_linker_0, # of connection points: 3
#     Node 2, Type 0, BuildingBlock: BETDIP_clean_linker_0, # of connection points: 3
#     Node 3, Type 0, BuildingBlock: BETDIP_clean_linker_0, # of connection points: 3
#     Node 4, Type 0, BuildingBlock: BETDIP_clean_linker_0, # of connection points: 3
#     Node 5, Type 0, BuildingBlock: BETDIP_clean_linker_0, # of connection points: 3
#     Node 6, Type 0, BuildingBlock: BETDIP_clean_linker_0, # of connection points: 3
#     Node 7, Type 0, BuildingBlock: BETDIP_clean_linker_0, # of connection points: 3
#     Node 8, Type 1, BuildingBlock: KUMJIN_clean_sbu_1, # of connection points: 6
#     Node 9, Type 1, BuildingBlock: KUMJIN_clean_sbu_1, # of connection points: 6
#     Node 10, Type 1, BuildingBlock: KUMJIN_clean_sbu_1, # of connection points: 6
#     Node 11, Type 1, BuildingBlock: KUMJIN_clean_sbu_1, # of connection points: 6
#     Edge 12, Type (0, 1), BuildingBlock: EZIPEK_clean_linker_0, # of connection points: 2
#     Edge 13, Type (0, 1), BuildingBlock: EZIPEK_clean_linker_0, # of connection points: 2
#     Edge 14, Type (0, 1), BuildingBlock: EZIPEK_clean_linker_0, # of connection points: 2
#     Edge 15, Type (0, 1), BuildingBlock: EZIPEK_clean_linker_0, # of connection points: 2
#     Edge 16, Type (0, 1), BuildingBlock: EZIPEK_clean_linker_0, # of connection points: 2
#     Edge 17, Type (0, 1), BuildingBlock: EZIPEK_clean_linker_0, # of connection points: 2
#     Edge 18, Type (0, 1), BuildingBlock: EZIPEK_clean_linker_0, # of connection points: 2
#     Edge 19, Type (0, 1), BuildingBlock: EZIPEK_clean_linker_0, # of connection points: 2
#     Edge 20, Type (0, 1), BuildingBlock: EZIPEK_clean_linker_0, # of connection points: 2
#     Edge 21, Type (0, 1), BuildingBlock: EZIPEK_clean_linker_0, # of connection points: 2
#     Edge 22, Type (0, 1), BuildingBlock: EZIPEK_clean_linker_0, # of connection points: 2
#     Edge 23, Type (0, 1), BuildingBlock: EZIPEK_clean_linker_0, # of connection points: 2
#     Edge 24, Type (0, 1), BuildingBlock: EZIPEK_clean_linker_0, # of connection points: 2
#     Edge 25, Type (0, 1), BuildingBlock: EZIPEK_clean_linker_0, # of connection points: 2
#     Edge 26, Type (0, 1), BuildingBlock: EZIPEK_clean_linker_0, # of connection points: 2
#     Edge 27, Type (0, 1), BuildingBlock: EZIPEK_clean_linker_0, # of connection points: 2
#     Edge 28, Type (0, 1), BuildingBlock: EZIPEK_clean_linker_0, # of connection points: 2
#     Edge 29, Type (0, 1), BuildingBlock: EZIPEK_clean_linker_0, # of connection points: 2
#     Edge 30, Type (0, 1), BuildingBlock: EZIPEK_clean_linker_0, # of connection points: 2
#     Edge 31, Type (0, 1), BuildingBlock: EZIPEK_clean_linker_0, # of connection points: 2
#     Edge 32, Type (0, 1), BuildingBlock: EZIPEK_clean_linker_0, # of connection points: 2
#     Edge 33, Type (0, 1), BuildingBlock: EZIPEK_clean_linker_0, # of connection points: 2
#     Edge 34, Type (0, 1), BuildingBlock: EZIPEK_clean_linker_0, # of connection points: 2
#     Edge 35, Type (0, 1), BuildingBlock: EZIPEK_clean_linker_0, # of connection points: 2
# Relax obj value: 0.037
# Max RMSD: 0.217
# Mean RMSD: 0.168
data_MOF--net-apo--node1-KUMJIN_clean_sbu_1--node2-BETDIP_clean_linker_0--edge1-EZIPEK_clean_linker_0
_symmetry_space_group_name_H-M    P1
_symmetry_Int_Tables_number       1
_symmetry_cell_setting            triclinic
loop_
_symmetry_equiv_pos_as_xyz
'x, y, z'
_cell_length_a     20.556574
_cell_length_b     30.31932
_cell_length_c     39.904135
_cell_angle_alpha  90.006737
_cell_angle_beta   89.730541
_cell_angle_gamma 90.602327
loop_
_atom_site_label
_atom_site_type_symbol
_atom_site_fract_x
_atom_site_fract_y
_atom_site_fract_z
_atom_type_partial_charge
H0 H 0.26073 0.3362 0.44914 0.0
H1 H 0.27964 0.38026 0.34683 0.0
H2 H 0.35949 0.45863 0.42648 0.0
H3 H 0.17359 0.34651 0.34601 0.0
C4 C 0.18827 0.31566 0.35742 0.0
C5 C 0.2772 0.36057 0.43104 0.0
C6 C 0.31079 0.39858 0.44194 0.0
C7 C 0.26333 0.35452 0.39691 0.0
C8 C 0.28668 0.38559 0.37341 0.0
C9 C 0.32156 0.42292 0.38411 0.0
C10 C 0.33226 0.42975 0.41832 0.0
N11 N 0.22754 0.31649 0.38665 0.0
H12 H 0.2329 0.19048 0.95072 0.0
H13 H 0.1803 0.15081 0.85099 0.0
H14 H 0.16506 0.05824 0.93237 0.0
H15 H 0.26316 0.194 0.83566 0.0
C16 C 0.26628 0.22072 0.85369 0.0
C17 C 0.21561 0.16543 0.93345 0.0
C18 C 0.19582 0.12395 0.94562 0.0
C19 C 0.21474 0.17429 0.89899 0.0
C20 C 0.18751 0.14274 0.8771 0.0
C21 C 0.17037 0.10024 0.88859 0.0
C22 C 0.17724 0.09084 0.92292 0.0
N23 N 0.24332 0.21437 0.88708 0.0
H24 H 0.75372 0.18394 0.58095 0.0
H25 H 0.77278 0.12721 0.67929 0.0
H26 H 0.86542 0.06605 0.59496 0.0
H27 H 0.75883 0.19698 0.69551 0.0
C28 C 0.72448 0.21086 0.67795 0.0
C29 C 0.77214 0.15838 0.59724 0.0
C30 C 0.81069 0.12462 0.58387 0.0
C31 C 0.75891 0.1602 0.63164 0.0
C32 C 0.7833 0.12712 0.6527 0.0
C33 C 0.82193 0.0934 0.63955 0.0
C34 C 0.83497 0.09187 0.60509 0.0
N35 N 0.72151 0.19575 0.64428 0.0
H36 H 0.72846 0.31388 0.08234 0.0
H37 H 0.7072 0.36899 0.18076 0.0
H38 H 0.6523 0.445 0.09462 0.0
H39 H 0.82509 0.33979 0.17373 0.0
C40 C 0.80837 0.30649 0.16808 0.0
C41 C 0.71293 0.34075 0.09832 0.0
C42 C 0.69053 0.38017 0.08398 0.0
C43 C 0.72169 0.3375 0.13295 0.0
C44 C 0.70199 0.37202 0.15383 0.0
C45 C 0.6746 0.4101 0.14021 0.0
C46 C 0.67069 0.41469 0.10522 0.0
N47 N 0.75448 0.30067 0.14632 0.0
H48 H 0.73586 0.67965 0.57356 0.0
H49 H 0.71294 0.63713 0.67609 0.0
H50 H 0.61599 0.56664 0.59697 0.0
H51 H 0.81902 0.66666 0.67666 0.0
C52 C 0.81106 0.69792 0.6641 0.0
C53 C 0.71489 0.65723 0.5919 0.0
C54 C 0.6751 0.62203 0.58134 0.0
C55 C 0.72924 0.66287 0.62599 0.0
C56 C 0.70272 0.63307 0.64967 0.0
C57 C 0.66105 0.59859 0.63943 0.0
C58 C 0.64727 0.59353 0.60519 0.0
N59 N 0.76912 0.69921 0.63591 0.0
H60 H 0.74828 0.83339 0.0757 0.0
H61 H 0.79551 0.87201 0.17665 0.0
H62 H 0.86633 0.94901 0.09371 0.0
H63 H 0.78352 0.79852 0.186 0.0
C64 C 0.74226 0.78949 0.17046 0.0
C65 C 0.77286 0.85549 0.09297 0.0
C66 C 0.80814 0.89197 0.08063 0.0
C67 C 0.76953 0.8471 0.12744 0.0
C68 C 0.8 0.87653 0.14983 0.0
C69 C 0.83458 0.91326 0.13766 0.0
C70 C 0.83947 0.92058 0.10309 0.0
N71 N 0.73295 0.81 0.13888 0.0
H72 H 0.26071 0.83335 0.44998 0.0
H73 H 0.23558 0.88032 0.34935 0.0
H74 H 0.13464 0.94291 0.43112 0.0
H75 H 0.23271 0.79646 0.34618 0.0
C76 C 0.27886 0.79229 0.35893 0.0
C77 C 0.2388 0.85629 0.43262 0.0
C78 C 0.1959 0.88837 0.44447 0.0
C79 C 0.25207 0.85261 0.39842 0.0
C80 C 0.22417 0.88239 0.37584 0.0
C81 C 0.18215 0.91531 0.38751 0.0
C82 C 0.16754 0.91791 0.42192 0.0
N83 N 0.29376 0.81871 0.38722 0.0
H84 H 0.24179 0.68286 0.94933 0.0
H85 H 0.29636 0.64984 0.84834 0.0
H86 H 0.33365 0.55937 0.92896 0.0
H87 H 0.28189 0.72188 0.8398 0.0
C88 C 0.24164 0.73084 0.85602 0.0
C89 C 0.26284 0.65991 0.93159 0.0
C90 C 0.2909 0.62091 0.94313 0.0
C91 C 0.26387 0.6705 0.89757 0.0
C92 C 0.2936 0.64152 0.87464 0.0
C93 C 0.3175 0.6005 0.88537 0.0
C94 C 0.31493 0.59042 0.91988 0.0
N95 N 0.23203 0.70957 0.8873 0.0
Eu96 Eu 0.0779 0.10045 0.22858 0.0
C97 C 0.79045 0.06131 0.26795 0.0
N98 N 0.82435 0.10017 0.26975 0.0
C99 C 0.73482 0.13845 0.24518 0.0
C100 C 0.72806 0.05956 0.25332 0.0
C101 C 0.79626 0.13874 0.26002 0.0
C102 C 0.70088 0.09866 0.24146 0.0
C103 C 0.78309 0.98262 0.27981 0.0
C104 C 0.81742 0.02308 0.28121 0.0
C105 C 0.72212 0.98068 0.26418 0.0
C106 C 0.69463 0.01902 0.25108 0.0
Eu107 Eu 0.9264 0.09566 0.29653 0.0
N108 N 0.87693 0.0255 0.29588 0.0
C109 C 0.81057 0.94542 0.29478 0.0
C110 C 0.90165 0.99033 0.31274 0.0
C111 C 0.86967 0.94945 0.31174 0.0
H112 H 0.82003 0.17009 0.26437 0.0
H113 H 0.89033 0.92122 0.32423 0.0
H114 H 0.18406 0.02588 0.25952 0.0
H115 H 0.1156 0.27355 0.19535 0.0
H116 H 0.94657 0.99391 0.32645 0.0
H117 H 0.78573 0.91373 0.29415 0.0
H118 H 0.05432 0.2035 0.19964 0.0
H119 H 0.71325 0.16904 0.23707 0.0
H120 H 0.69529 0.9498 0.26262 0.0
H121 H 0.64706 0.01707 0.23955 0.0
H122 H 0.29721 0.02465 0.27887 0.0
H123 H 0.65316 0.09863 0.23005 0.0
H124 H 0.2299 0.27767 0.21429 0.0
N125 N 0.18523 0.09478 0.24871 0.0
C126 C 0.22266 0.13188 0.2454 0.0
C127 C 0.27661 0.05515 0.26993 0.0
C128 C 0.28833 0.13225 0.25557 0.0
C129 C 0.21185 0.05625 0.25952 0.0
C130 C 0.31487 0.09338 0.26825 0.0
N131 N 0.13186 0.16887 0.22243 0.0
C132 C 0.10359 0.20507 0.20865 0.0
C133 C 0.23241 0.20916 0.22956 0.0
C134 C 0.19526 0.16993 0.23212 0.0
C135 C 0.20301 0.24687 0.21652 0.0
C136 C 0.13844 0.24473 0.20588 0.0
H137 H 0.36509 0.09236 0.27631 0.0
H138 H 0.37577 0.17215 0.26079 0.0
H139 H 0.3267 0.23949 0.23835 0.0
O140 O 0.10729 0.11151 0.17605 0.0
O141 O 0.08653 0.15078 0.27056 0.0
O142 O 0.00197 0.14774 0.30988 0.0
O143 O 0.11784 0.04645 0.19907 0.0
O144 O 0.98756 0.13722 0.2133 0.0
O145 O 0.93412 0.15664 0.2627 0.0
O146 O 0.92045 0.08097 0.35029 0.0
O147 O 0.94323 0.0395 0.25914 0.0
O148 O 0.97834 0.07713 0.21313 0.0
O149 O 0.85085 0.12442 0.32789 0.0
O150 O 0.02208 0.07035 0.31463 0.0
O151 O 0.07222 0.04387 0.26675 0.0
C152 C 0.05723 0.1642 0.29815 0.0
C153 C 0.15248 0.05303 0.1408 0.0
C154 C 0.17926 0.06033 0.08127 0.0
C155 C 0.2023 0.01695 0.08125 0.0
C156 C 0.17569 0.0096 0.14005 0.0
C157 C 0.20056 0.99182 0.11048 0.0
C158 C 0.1547 0.07854 0.11121 0.0
C159 C 0.9459 0.16143 0.23023 0.0
C160 C 0.12531 0.07075 0.17236 0.0
C161 C 0.32541 0.17126 0.2529 0.0
C162 C 0.29748 0.20962 0.24008 0.0
C163 C 0.94907 0.04319 0.22653 0.0
C164 C 0.87815 0.13757 0.38432 0.0
C165 C 0.86963 0.15119 0.44428 0.0
C166 C 0.88646 0.19562 0.43887 0.0
C167 C 0.89388 0.18223 0.37935 0.0
C168 C 0.8664 0.12199 0.41696 0.0
C169 C 0.89868 0.21099 0.40651 0.0
C170 C 0.06375 0.04451 0.29962 0.0
C171 C 0.87214 0.10742 0.35561 0.0
H172 H 0.22143 1.00249 0.05845 0.0
H173 H 0.1746 0.98922 0.16234 0.0
H174 H 0.21833 0.95835 0.11018 0.0
H175 H 0.13685 0.11205 0.11124 0.0
H176 H 0.88952 0.21842 0.45972 0.0
H177 H 0.9013 0.19491 0.3544 0.0
H178 H 0.85371 0.08761 0.42108 0.0
H179 H 0.91108 0.24536 0.40241 0.0
Eu180 Eu 0.42483 0.40016 0.7293 0.0
C181 C 0.71806 0.43458 0.77336 0.0
N182 N 0.68002 0.3982 0.77836 0.0
C183 C 0.76765 0.35153 0.76129 0.0
C184 C 0.78214 0.4307 0.76095 0.0
C185 C 0.70471 0.35696 0.77393 0.0
C186 C 0.80624 0.38857 0.75432 0.0
C187 C 0.7336 0.5138 0.77871 0.0
C188 C 0.69405 0.47574 0.7822 0.0
C189 C 0.79655 0.51015 0.76527 0.0
C190 C 0.82073 0.46873 0.7564 0.0
Eu191 Eu 0.57333 0.41128 0.798 0.0
N192 N 0.63301 0.47836 0.79532 0.0
C193 C 0.70933 0.55432 0.78958 0.0
C194 C 0.61042 0.51747 0.80747 0.0
C195 C 0.64783 0.55603 0.80442 0.0
H196 H 0.6761 0.32801 0.78014 0.0
H197 H 0.6293 0.58703 0.8137 0.0
H198 H 0.29721 0.46669 0.7481 0.0
H199 H 0.41563 0.22542 0.69806 0.0
H200 H 0.5638 0.51944 0.8198 0.0
H201 H 0.73827 0.58427 0.78739 0.0
H202 H 0.46098 0.30136 0.69801 0.0
H203 H 0.78646 0.31876 0.75712 0.0
H204 H 0.82742 0.53908 0.76225 0.0
H205 H 0.8699 0.46637 0.7467 0.0
H206 H 0.18624 0.4594 0.77108 0.0
H207 H 0.85514 0.38424 0.74471 0.0
H208 H 0.30909 0.21013 0.72509 0.0
N209 N 0.31467 0.39772 0.74772 0.0
C210 C 0.28728 0.35682 0.75026 0.0
C211 C 0.21444 0.43023 0.76583 0.0
C212 C 0.22303 0.35102 0.76219 0.0
C213 C 0.27796 0.43429 0.75347 0.0
C214 C 0.18723 0.38837 0.77081 0.0
N215 N 0.38298 0.32762 0.72647 0.0
C216 C 0.415 0.29467 0.71027 0.0
C217 C 0.29406 0.27819 0.73943 0.0
C218 C 0.32217 0.32078 0.73901 0.0
C219 C 0.32904 0.24335 0.72532 0.0
C220 C 0.3892 0.25182 0.71005 0.0
H221 H 0.13781 0.3853 0.78015 0.0
H222 H 0.14705 0.30324 0.7738 0.0
H223 H 0.20931 0.23944 0.75387 0.0
O224 O 0.44906 0.39598 0.6759 0.0
O225 O 0.4383 0.347 0.76782 0.0
O226 O 0.47485 0.38309 0.81449 0.0
O227 O 0.35464 0.4191 0.69117 0.0
O228 O 0.52537 0.37121 0.71844 0.0
O229 O 0.56251 0.34735 0.76971 0.0
O230 O 0.58086 0.43097 0.85015 0.0
O231 O 0.58394 0.44341 0.74622 0.0
O232 O 0.48034 0.46502 0.73177 0.0
O233 O 0.62249 0.36918 0.83466 0.0
O234 O 0.494 0.46015 0.80572 0.0
O235 O 0.40507 0.45233 0.76991 0.0
C236 C 0.43648 0.35403 0.80005 0.0
C237 C 0.39162 0.44013 0.63732 0.0
C238 C 0.37157 0.45062 0.57777 0.0
C239 C 0.38094 0.49622 0.58184 0.0
C240 C 0.40144 0.4857 0.64112 0.0
C241 C 0.39615 0.51359 0.61336 0.0
C242 C 0.37742 0.42266 0.60556 0.0
C243 C 0.56022 0.34425 0.73693 0.0
C244 C 0.39278 0.41012 0.66609 0.0
C245 C 0.19598 0.30835 0.76426 0.0
C246 C 0.23143 0.27202 0.75292 0.0
C247 C 0.5439 0.46939 0.72988 0.0
C248 C 0.66731 0.40541 0.88226 0.0
C249 C 0.70603 0.40899 0.93989 0.0
C250 C 0.75996 0.43407 0.92883 0.0
C251 C 0.72194 0.42972 0.87161 0.0
C252 C 0.66032 0.39409 0.91623 0.0
C253 C 0.76828 0.44371 0.89484 0.0
C254 C 0.43501 0.47017 0.79609 0.0
C255 C 0.61324 0.39651 0.85937 0.0
H256 H 0.37669 0.51824 0.5606 0.0
H257 H 0.41248 0.49961 0.66548 0.0
H258 H 0.40344 0.54878 0.61632 0.0
H259 H 0.36979 0.38743 0.60253 0.0
H260 H 0.7958 0.44603 0.94656 0.0
H261 H 0.72786 0.43883 0.84559 0.0
H262 H 0.61806 0.37524 0.92448 0.0
H263 H 0.81011 0.46285 0.88659 0.0
Eu264 Eu 0.07656 0.90861 0.7267 0.0
C265 C 0.78301 0.88303 0.78195 0.0
N266 N 0.82167 0.91912 0.77664 0.0
C267 C 0.73261 0.95681 0.75115 0.0
C268 C 0.71794 0.88205 0.7709 0.0
C269 C 0.79643 0.95653 0.76309 0.0
C270 C 0.69347 0.91918 0.7546 0.0
C271 C 0.76732 0.81141 0.80827 0.0
C272 C 0.80742 0.84794 0.80031 0.0
C273 C 0.70329 0.80963 0.79621 0.0
C274 C 0.67873 0.84479 0.77749 0.0
Eu275 Eu 0.9287 0.91473 0.79794 0.0
N276 N 0.86986 0.85021 0.81128 0.0
C277 C 0.79229 0.7783 0.82887 0.0
C278 C 0.89363 0.81914 0.83254 0.0
C279 C 0.8554 0.78251 0.84145 0.0
H280 H 0.8247 0.98663 0.76195 0.0
H281 H 0.87471 0.75747 0.85785 0.0
H282 H 0.19082 0.8584 0.77206 0.0
H283 H 0.08415 0.06604 0.65974 0.0
H284 H 0.9424 0.82237 0.8423 0.0
H285 H 0.7629 0.74978 0.83567 0.0
H286 H 0.03535 0.9956 0.67798 0.0
H287 H 0.71334 0.98631 0.73978 0.0
H288 H 0.67193 0.78162 0.8018 0.0
H289 H 0.62875 0.84337 0.76902 0.0
H290 H 0.30229 0.87374 0.79207 0.0
H291 H 0.64375 0.91972 0.74573 0.0
H292 H 0.19577 0.08623 0.67726 0.0
N293 N 0.18125 0.92048 0.74825 0.0
C294 C 0.21149 0.95826 0.73798 0.0
C295 C 0.27706 0.89801 0.77724 0.0
C296 C 0.27577 0.96792 0.74803 0.0
C297 C 0.21356 0.88969 0.76645 0.0
C298 C 0.30815 0.93747 0.76823 0.0
N299 N 0.11514 0.97818 0.70884 0.0
C300 C 0.08243 1.00504 0.68744 0.0
C301 C 0.20872 0.02681 0.70648 0.0
C302 C 0.17796 0.9875 0.71746 0.0
C303 C 0.17396 0.05562 0.68602 0.0
C304 C 0.11075 0.04452 0.67629 0.0
H305 H 0.35755 0.94373 0.77646 0.0
H306 H 0.35521 0.01528 0.74498 0.0
H307 H 0.29669 0.06674 0.70865 0.0
O308 O 0.09533 0.90957 0.6726 0.0
O309 O 0.09833 0.94466 0.77636 0.0
O310 O 0.99894 0.97189 0.79158 0.0
O311 O 0.14123 0.85982 0.70427 0.0
O312 O 0.98077 0.93909 0.71183 0.0
O313 O 0.93946 0.9704 0.76031 0.0
O314 O 0.93224 0.91035 0.85266 0.0
O315 O 0.91105 0.86373 0.75694 0.0
O316 O 0.99561 0.85893 0.71773 0.0
O317 O 0.87326 0.95987 0.82931 0.0
O318 O 0.0211 0.8767 0.81102 0.0
O319 O 0.06446 0.85054 0.76106 0.0
C320 C 0.06205 0.9704 0.79524 0.0
C321 C 0.16765 0.85789 0.64469 0.0
C322 C 0.18907 0.85793 0.58458 0.0
C323 C 0.23448 0.82425 0.58898 0.0
C324 C 0.21324 0.82409 0.64861 0.0
C325 C 0.24636 0.8074 0.62085 0.0
C326 C 0.15543 0.87466 0.61245 0.0
C327 C 0.94406 0.96776 0.72748 0.0
C328 C 0.13466 0.87627 0.67433 0.0
C329 C 0.30593 0.00728 0.73741 0.0
C330 C 0.27261 0.03654 0.71665 0.0
C331 C 0.93843 0.84691 0.7299 0.0
C332 C 0.83526 0.92961 0.88049 0.0
C333 C 0.79701 0.91503 0.93731 0.0
C334 C 0.734 0.90763 0.92504 0.0
C335 C 0.77173 0.92232 0.86865 0.0
C336 C 0.84767 0.92602 0.91497 0.0
C337 C 0.72154 0.91123 0.89084 0.0
C338 C 0.05907 0.84979 0.79382 0.0
C339 C 0.88888 0.9407 0.85727 0.0
H340 H 0.26056 0.81097 0.56765 0.0
H341 H 0.2237 0.81073 0.67315 0.0
H342 H 0.28148 0.78142 0.62407 0.0
H343 H 0.1204 0.90071 0.60891 0.0
H344 H 0.69448 0.89924 0.94202 0.0
H345 H 0.76061 0.92543 0.84233 0.0
H346 H 0.8964 0.93178 0.92443 0.0
H347 H 0.6728 0.90563 0.88151 0.0
Eu348 Eu 0.43716 0.6017 0.22657 0.0
C349 C 0.72532 0.63834 0.27503 0.0
N350 N 0.69066 0.59991 0.27435 0.0
C351 C 0.78019 0.56308 0.24826 0.0
C352 C 0.78798 0.64101 0.26058 0.0
C353 C 0.71828 0.56202 0.26288 0.0
C354 C 0.81473 0.60292 0.24653 0.0
C355 C 0.73518 0.71437 0.29356 0.0
C356 C 0.69886 0.67475 0.29121 0.0
C357 C 0.79627 0.71772 0.2778 0.0
C358 C 0.82258 0.68116 0.26135 0.0
Eu359 Eu 0.58531 0.6022 0.2978 0.0
N360 N 0.63926 0.67079 0.30605 0.0
C361 C 0.71 0.74906 0.31256 0.0
C362 C 0.61662 0.70349 0.32649 0.0
C363 C 0.65118 0.74322 0.32968 0.0
H364 H 0.69291 0.5308 0.26495 0.0
H365 H 0.63237 0.76935 0.34533 0.0
H366 H 0.32397 0.67882 0.24757 0.0
H367 H 0.3915 0.43053 0.19244 0.0
H368 H 0.57213 0.69923 0.34062 0.0
H369 H 0.73649 0.77997 0.315 0.0
H370 H 0.45091 0.50217 0.19286 0.0
H371 H 0.80131 0.53315 0.23846 0.0
H372 H 0.82435 0.74812 0.27895 0.0
H373 H 0.87049 0.68394 0.25006 0.0
H374 H 0.2135 0.6808 0.2714 0.0
H375 H 0.86278 0.60361 0.23524 0.0
H376 H 0.28452 0.42385 0.22092 0.0
N377 N 0.32815 0.60853 0.24649 0.0
C378 C 0.2931 0.57038 0.24896 0.0
C379 C 0.23564 0.64943 0.2657 0.0
C380 C 0.22881 0.57011 0.26153 0.0
C381 C 0.29885 0.64806 0.2527 0.0
C382 C 0.20088 0.61021 0.27077 0.0
N383 N 0.38034 0.53395 0.22293 0.0
C384 C 0.40481 0.49894 0.20575 0.0
C385 C 0.28372 0.49221 0.2367 0.0
C386 C 0.31987 0.53196 0.23661 0.0
C387 C 0.31074 0.45503 0.2214 0.0
C388 C 0.37108 0.45865 0.20529 0.0
H389 H 0.15166 0.6114 0.28054 0.0
H390 H 0.14469 0.52921 0.27341 0.0
H391 H 0.1929 0.4609 0.2517 0.0
O392 O 0.44063 0.5883 0.17238 0.0
O393 O 0.4442 0.54483 0.26374 0.0
O394 O 0.48227 0.58111 0.31004 0.0
O395 O 0.3884 0.64433 0.19105 0.0
O396 O 0.53499 0.57294 0.21312 0.0
O397 O 0.57708 0.54325 0.26193 0.0
O398 O 0.62695 0.61087 0.34774 0.0
O399 O 0.60283 0.63145 0.24634 0.0
O400 O 0.5052 0.66114 0.23028 0.0
O401 O 0.61448 0.54534 0.32788 0.0
O402 O 0.50386 0.65033 0.31011 0.0
O403 O 0.4272 0.65325 0.26692 0.0
C404 C 0.45262 0.54736 0.29629 0.0
C405 C 0.34529 0.60941 0.14345 0.0
C406 C 0.29853 0.60467 0.08751 0.0
C407 C 0.2364 0.59964 0.10194 0.0
C408 C 0.28286 0.60343 0.15734 0.0
C409 C 0.22886 0.59839 0.13665 0.0
C410 C 0.35318 0.60877 0.10848 0.0
C411 C 0.56772 0.54255 0.22913 0.0
C412 C 0.40111 0.62005 0.16509 0.0
C413 C 0.19377 0.53014 0.26339 0.0
C414 C 0.22119 0.49124 0.25101 0.0
C415 C 0.56897 0.66255 0.23208 0.0
C416 C 0.60754 0.55432 0.38755 0.0
C417 C 0.60988 0.562 0.44863 0.0
C418 C 0.5692 0.52475 0.45159 0.0
C419 C 0.56713 0.51695 0.39128 0.0
C420 C 0.62848 0.57701 0.41653 0.0
C421 C 0.54776 0.50252 0.42304 0.0
C422 C 0.45132 0.66656 0.29573 0.0
C423 C 0.63037 0.56896 0.35397 0.0
H424 H 0.1937 0.59671 0.08625 0.0
H425 H 0.27542 0.60381 0.18413 0.0
H426 H 0.18086 0.59436 0.14756 0.0
H427 H 0.40121 0.61322 0.09756 0.0
H428 H 0.5542 0.51286 0.47607 0.0
H429 H 0.55102 0.49854 0.36974 0.0
H430 H 0.66008 0.60572 0.41424 0.0
H431 H 0.5165 0.47373 0.42554 0.0
C432 C 0.10753 0.93387 0.33969 0.0
C433 C 0.15408 0.94769 0.36372 0.0
C434 C 0.13717 0.02466 0.34781 0.0
C435 C 0.09598 0.01085 0.32111 0.0
N436 N 0.04505 0.95114 0.29037 0.0
N437 N 0.22432 1.00501 0.38534 0.0
C438 C 0.08293 0.96502 0.31637 0.0
C439 C 0.1723 0.99272 0.36612 0.0
N440 N 0.08365 0.89159 0.34051 0.0
N441 N 0.1411 0.06806 0.35683 0.0
H442 H 0.25187 0.9825 0.39885 0.0
H443 H 0.24415 0.03678 0.38512 0.0
H444 H 0.11441 0.09268 0.3454 0.0
H445 H 0.16531 0.07903 0.37819 0.0
H446 H 0.04424 0.8808 0.32628 0.0
H447 H 0.09932 0.86803 0.35762 0.0
H448 H 0.0417 0.91836 0.28269 0.0
H449 H 0.01806 0.97263 0.2759 0.0
C450 C 0.40346 0.54485 0.87019 0.0
C451 C 0.34711 0.56844 0.86104 0.0
C452 C 0.35454 0.53336 0.80568 0.0
C453 C 0.40109 0.50311 0.81796 0.0
N454 N 0.44664 0.47202 0.86887 0.0
N455 N 0.25776 0.57268 0.82147 0.0
C456 C 0.4188 0.5063 0.85234 0.0
C457 C 0.31899 0.5592 0.82912 0.0
N458 N 0.44368 0.55936 0.89505 0.0
N459 N 0.34636 0.5398 0.77219 0.0
H460 H 0.22703 0.58733 0.83898 0.0
H461 H 0.23517 0.56396 0.79902 0.0
H462 H 0.37626 0.52537 0.7542 0.0
H463 H 0.3152 0.56376 0.76286 0.0
H464 H 0.48684 0.54325 0.90082 0.0
H465 H 0.4381 0.58997 0.90661 0.0
H466 H 0.45747 0.47356 0.89438 0.0
H467 H 0.44934 0.44052 0.85861 0.0
C468 C 0.64588 0.52094 0.66023 0.0
C469 C 0.63294 0.56648 0.66416 0.0
C470 C 0.56439 0.54894 0.71326 0.0
C471 C 0.57196 0.50324 0.70671 0.0
N472 N 0.60205 0.44756 0.66663 0.0
N473 N 0.56939 0.62327 0.69084 0.0
C474 C 0.60789 0.48967 0.6782 0.0
C475 C 0.58947 0.58047 0.68982 0.0
N476 N 0.6953 0.50734 0.63981 0.0
N477 N 0.5339 0.56234 0.74192 0.0
H478 H 0.58479 0.64702 0.67358 0.0
H479 H 0.53284 0.63427 0.70685 0.0
H480 H 0.5128 0.54033 0.75895 0.0
H481 H 0.53381 0.59501 0.74999 0.0
H482 H 0.70996 0.47455 0.63852 0.0
H483 H 0.726 0.52928 0.62704 0.0
H484 H 0.62263 0.43707 0.6441 0.0
H485 H 0.57002 0.42487 0.67741 0.0
C486 C 0.92873 0.94035 0.17198 0.0
C487 C 0.86363 0.94547 0.16127 0.0
C488 C 0.85721 0.01621 0.19037 0.0
C489 C 0.91988 0.00933 0.20406 0.0
N490 N 0.01635 0.96514 0.20799 0.0
N491 N 0.76214 0.9845 0.16373 0.0
C492 C 0.95588 0.97133 0.19496 0.0
C493 C 0.82674 0.98226 0.17154 0.0
N494 N 0.9651 0.90665 0.15927 0.0
N495 N 0.82806 0.05614 0.19381 0.0
H496 H 0.73832 0.96089 0.14909 0.0
H497 H 0.73098 0.00784 0.17397 0.0
H498 H 0.84845 0.08166 0.20776 0.0
H499 H 0.78647 0.06516 0.18079 0.0
H500 H 0.01493 0.90362 0.16288 0.0
H501 H 0.94609 0.8827 0.14318 0.0
H502 H 0.04214 0.93592 0.20599 0.0
H503 H 0.04002 0.98902 0.22221 0.0
C504 C 0.82629 0.01772 0.66493 0.0
C505 C 0.8521 0.06113 0.66246 0.0
C506 C 0.93058 0.04533 0.70673 0.0
C507 C 0.90955 1.00056 0.70674 0.0
N508 N 0.83965 0.94294 0.68509 0.0
N509 N 0.93537 0.11454 0.67648 0.0
C510 C 0.85817 0.98637 0.68548 0.0
C511 C 0.90591 0.07455 0.68222 0.0
N512 N 0.77002 0.00699 0.64854 0.0
N513 N 0.9742 0.06004 0.73004 0.0
H514 H 0.91897 0.13689 0.65862 0.0
H515 H 0.97944 0.12399 0.68722 0.0
H516 H 0.99571 0.03949 0.74755 0.0
H517 H 0.98561 0.09324 0.73364 0.0
H518 H 0.74457 0.97751 0.65215 0.0
H519 H 0.7458 0.02905 0.63302 0.0
H520 H 0.80858 0.92929 0.66727 0.0
H521 H 0.85745 0.91986 0.70199 0.0
C522 C 0.67945 0.48621 0.16568 0.0
C523 C 0.6484 0.44438 0.1631 0.0
C524 C 0.5734 0.46428 0.20842 0.0
C525 C 0.59926 0.50787 0.20842 0.0
N526 N 0.67319 0.56192 0.18452 0.0
N527 N 0.55794 0.39653 0.17732 0.0
C528 C 0.65114 0.51933 0.18622 0.0
C529 C 0.59345 0.4341 0.18334 0.0
N530 N 0.73736 0.49373 0.14957 0.0
N531 N 0.52884 0.45167 0.23204 0.0
H532 H 0.56966 0.37412 0.15846 0.0
H533 H 0.51327 0.38972 0.18873 0.0
H534 H 0.50768 0.47386 0.24849 0.0
H535 H 0.515 0.41895 0.23616 0.0
H536 H 0.76605 0.52177 0.15343 0.0
H537 H 0.75973 0.4702 0.13448 0.0
H538 H 0.70475 0.57348 0.16594 0.0
H539 H 0.65739 0.58643 0.20077 0.0
C540 C 0.32021 0.49138 0.34879 0.0
C541 C 0.35295 0.45305 0.35952 0.0
C542 C 0.44922 0.47477 0.32687 0.0
C543 C 0.4185 0.51493 0.31823 0.0
N544 N 0.32948 0.56517 0.32586 0.0
N545 N 0.4507 0.41002 0.36246 0.0
C546 C 0.35515 0.52425 0.33047 0.0
C547 C 0.41791 0.44507 0.34938 0.0
N548 N 0.2555 0.49605 0.35578 0.0
N549 N 0.50886 0.46509 0.31388 0.0
H550 H 0.42879 0.38632 0.37786 0.0
H551 H 0.50066 0.40579 0.3599 0.0
H552 H 0.53715 0.48817 0.30115 0.0
H553 H 0.52961 0.43394 0.31494 0.0
H554 H 0.22705 0.52077 0.34549 0.0
H555 H 0.2289 0.47294 0.36973 0.0
H556 H 0.28663 0.57561 0.33721 0.0
H557 H 0.35367 0.59011 0.31268 0.0
C558 C 0.17204 0.06022 0.83244 0.0
C559 C 0.1442 0.06596 0.86484 0.0
C560 C 0.07428 1.00206 0.85352 0.0
C561 C 0.093 1.00217 0.81932 0.0
N562 N 0.14085 0.04662 0.77556 0.0
N563 N 0.05062 0.04932 0.90027 0.0
C564 C 0.13712 0.0353 0.80839 0.0
C565 C 0.08985 0.03894 0.87382 0.0
N566 N 0.23177 0.07728 0.82447 0.0
N567 N 0.04421 0.96625 0.86719 0.0
H568 H 0.05531 0.07879 0.91352 0.0
H569 H 0.00841 0.03134 0.9059 0.0
H570 H 0.04001 0.93703 0.85382 0.0
H571 H 0.03291 0.96399 0.89266 0.0
H572 H 0.25368 0.07146 0.80124 0.0
H573 H 0.26197 0.09225 0.84215 0.0
H574 H 0.16942 0.07308 0.76715 0.0
H575 H 0.10756 0.03409 0.7584 0.0
C576 C 0.12919 0.10939 0.99735 0.0
C577 C 0.19145 0.1151 0.98228 0.0
C578 C 0.24282 0.099 0.03615 0.0
C579 C 0.18148 0.0857 0.04932 0.0
N580 N 0.06584 0.07552 0.04199 0.0
N581 N 0.30835 0.11225 0.98645 0.0
C582 C 0.1243 0.09066 0.02996 0.0
C583 C 0.24862 0.10964 1.00154 0.0
N584 N 0.07484 0.12254 0.98062 0.0
N585 N 0.29538 0.10162 0.05691 0.0
H586 H 0.31464 0.11975 0.96113 0.0
H587 H 0.35137 0.10368 0.99836 0.0
H588 H 0.29226 0.09432 0.08244 0.0
H589 H 0.3401 0.11504 0.04964 0.0
H590 H 0.02864 0.12299 0.99142 0.0
H591 H 0.0769 0.13716 0.95697 0.0
H592 H 0.02402 0.07325 0.02744 0.0
H593 H 0.05997 0.06236 0.06596 0.0
C594 C 0.39145 0.40751 0.48856 0.0
C595 C 0.32554 0.40605 0.47803 0.0
C596 C 0.29013 0.42467 0.53509 0.0
C597 C 0.35597 0.43228 0.54415 0.0
N598 N 0.46981 0.43392 0.52934 0.0
N599 N 0.21193 0.4184 0.49006 0.0
C600 C 0.40685 0.42438 0.52085 0.0
C601 C 0.27465 0.41549 0.50106 0.0
N602 N 0.43911 0.39165 0.46794 0.0
N603 N 0.24236 0.42626 0.55899 0.0
H604 H 0.19844 0.41275 0.46528 0.0
H605 H 0.1739 0.43003 0.50483 0.0
H606 H 0.25151 0.4344 0.58393 0.0
H607 H 0.19459 0.41602 0.55472 0.0
H608 H 0.48733 0.38807 0.47522 0.0
H609 H 0.42933 0.37808 0.44444 0.0
H610 H 0.50807 0.43436 0.51214 0.0
H611 H 0.48339 0.4442 0.55328 0.0
C612 C 0.75116 0.37869 0.02884 0.0
C613 C 0.69238 0.38617 0.04677 0.0
C614 C 0.64218 0.41153 0.99463 0.0
C615 C 0.69841 0.39858 0.97632 0.0
N616 N 0.79771 0.35671 0.97589 0.0
N617 N 0.57664 0.39911 0.04437 0.0
C618 C 0.75012 0.37792 0.99339 0.0
C619 C 0.63611 0.39938 0.02897 0.0
N620 N 0.80889 0.3748 0.04535 0.0
N621 N 0.59605 0.43717 0.97998 0.0
H622 H 0.56973 0.38855 0.06901 0.0
H623 H 0.53348 0.40479 0.03154 0.0
H624 H 0.59989 0.44873 0.95545 0.0
H625 H 0.55744 0.45073 0.99335 0.0
H626 H 0.85344 0.37293 0.03286 0.0
H627 H 0.81327 0.37885 0.07119 0.0
H628 H 0.83335 0.33801 0.98757 0.0
H629 H 0.79705 0.35365 0.94984 0.0
C630 C 0.77753 0.11824 0.52365 0.0
C631 C 0.82742 0.12484 0.54763 0.0
C632 C 0.90698 0.13493 0.50235 0.0
C633 C 0.85549 0.13608 0.47893 0.0
N634 N 0.74044 0.13223 0.46717 0.0
N635 N 0.93894 0.14472 0.56012 0.0
C636 C 0.79034 0.12815 0.48944 0.0
C637 C 0.89224 0.13411 0.53711 0.0
N638 N 0.71826 0.10193 0.53358 0.0
N639 N 0.96997 0.13439 0.49126 0.0
H640 H 0.9301 0.14564 0.58585 0.0
H641 H 0.98506 0.15644 0.55353 0.0
H642 H 0.98216 0.13463 0.46583 0.0
H643 H 0.00945 0.12925 0.507 0.0
H644 H 0.68198 0.09243 0.51686 0.0
H645 H 0.70758 0.09394 0.55845 0.0
H646 H 0.69162 0.13196 0.47426 0.0
H647 H 0.74771 0.13912 0.44182 0.0
C648 C 0.77937 0.93737 0.03015 0.0
C649 C 0.81145 0.90039 0.04399 0.0
C650 C 0.83847 0.87408 0.98758 0.0
C651 C 0.80862 0.91196 0.9739 0.0
N652 N 0.76569 0.98485 0.9819 0.0
N653 N 0.88474 0.8395 0.03666 0.0
C654 C 0.78397 0.94534 0.99517 0.0
C655 C 0.84518 0.87055 0.0229 0.0
N656 N 0.74168 0.96357 0.05008 0.0
N657 N 0.85792 0.84066 0.96696 0.0
H658 H 0.89141 0.83636 0.06245 0.0
H659 H 0.91553 0.81966 0.02254 0.0
H660 H 0.8547 0.84226 0.94091 0.0
H661 H 0.87289 0.81006 0.97573 0.0
H662 H 0.71162 0.98805 0.0407 0.0
H663 H 0.7358 0.95845 0.07576 0.0
H664 H 0.75354 0.01208 0.99647 0.0
H665 H 0.76878 0.99176 0.95631 0.0
C666 C 0.60628 0.62851 0.5298 0.0
C667 C 0.66398 0.61332 0.5451 0.0
C668 C 0.69395 0.5744 0.49334 0.0
C669 C 0.63228 0.58471 0.47971 0.0
N670 N 0.52931 0.62151 0.48402 0.0
N671 N 0.76228 0.57078 0.54274 0.0
C672 C 0.58858 0.6122 0.49757 0.0
C673 C 0.70821 0.58648 0.52704 0.0
N674 N 0.56885 0.65881 0.54612 0.0
N675 N 0.7387 0.55287 0.47406 0.0
H676 H 0.77531 0.5799 0.56703 0.0
H677 H 0.79242 0.5468 0.53263 0.0
H678 H 0.72911 0.54217 0.44973 0.0
H679 H 0.7869 0.54847 0.48104 0.0
H680 H 0.52931 0.67451 0.53539 0.0
H681 H 0.58029 0.67091 0.56988 0.0
H682 H 0.49174 0.63658 0.49712 0.0
H683 H 0.51647 0.61241 0.45969 0.0
C684 C 0.26934 0.57719 0.9961 0.0
C685 C 0.29896 0.61385 0.9798 0.0
C686 C 0.33044 0.6446 0.03416 0.0
C687 C 0.3049 0.60641 0.05034 0.0
N688 N 0.26805 0.53085 0.04547 0.0
N689 N 0.37568 0.67465 0.98292 0.0
C690 C 0.28016 0.57086 0.03086 0.0
C691 C 0.33536 0.64508 0.99872 0.0
N692 N 0.2283 0.54966 0.97898 0.0
N693 N 0.34648 0.68142 0.05221 0.0
H694 H 0.3825 0.67496 0.95699 0.0
H695 H 0.4076 0.69542 0.99581 0.0
H696 H 0.34081 0.68359 0.07811 0.0
H697 H 0.35915 0.71137 0.041 0.0
H698 H 0.20054 0.52511 0.99068 0.0
H699 H 0.21711 0.554 0.95375 0.0
H700 H 0.2554 0.50278 0.03179 0.0
H701 H 0.27755 0.52466 0.07069 0.0
C702 C 0.1337 0.86033 0.49411 0.0
C703 C 0.18106 0.88989 0.48083 0.0
C704 C 0.21573 0.90974 0.53757 0.0
C705 C 0.17692 0.87456 0.55025 0.0
N706 N 0.09563 0.81789 0.54212 0.0
N707 N 0.26558 0.9444 0.4888 0.0
C708 C 0.13394 0.8508 0.529 0.0
C709 C 0.22078 0.91579 0.50231 0.0
N710 N 0.08905 0.84132 0.47316 0.0
N711 N 0.24795 0.93695 0.55935 0.0
H712 H 0.26872 0.95074 0.46314 0.0
H713 H 0.30145 0.96048 0.50264 0.0
H714 H 0.24557 0.93281 0.58528 0.0
H715 H 0.27257 0.96558 0.55211 0.0
H716 H 0.04978 0.82219 0.48132 0.0
H717 H 0.08831 0.84764 0.44746 0.0
H718 H 0.06884 0.79564 0.52775 0.0
H719 H 0.0924 0.81173 0.56781 0.0
C720 C 0.19148 0.23904 0.33338 0.0
C721 C 0.1551 0.27446 0.34645 0.0
C722 C 0.0537 0.23779 0.32946 0.0
C723 C 0.08974 0.20102 0.31725 0.0
N724 N 0.19216 0.16226 0.3179 0.0
N725 N 0.05223 0.30243 0.36527 0.0
C726 C 0.15844 0.20036 0.32225 0.0
C727 C 0.0864 0.27215 0.34711 0.0
N728 N 0.25755 0.24285 0.33026 0.0
N729 N 0.98899 0.24171 0.32272 0.0
H730 H 0.07469 0.32801 0.37853 0.0
H731 H 0.0025 0.29954 0.37005 0.0
H732 H 0.96195 0.21836 0.30968 0.0
H733 H 0.96286 0.27033 0.3274 0.0
H734 H 0.28573 0.22011 0.31725 0.0
H735 H 0.28375 0.27047 0.33834 0.0
H736 H 0.24045 0.15864 0.32513 0.0
H737 H 0.17054 0.13297 0.31004 0.0
C738 C 0.37863 0.24681 0.83881 0.0
C739 C 0.3127 0.25714 0.84581 0.0
C740 C 0.33361 0.33466 0.83102 0.0
C741 C 0.39745 0.3232 0.82101 0.0
N742 N 0.48735 0.27366 0.82522 0.0
N743 N 0.22589 0.30976 0.84868 0.0
C744 C 0.42196 0.28072 0.82779 0.0
C745 C 0.29002 0.30102 0.84263 0.0
N746 N 0.39928 0.20426 0.84191 0.0
N747 N 0.31548 0.37787 0.8299 0.0
H748 H 0.19302 0.28599 0.85749 0.0
H749 H 0.20398 0.33973 0.84347 0.0
H750 H 0.34686 0.4029 0.82173 0.0
H751 H 0.27157 0.38966 0.83911 0.0
H752 H 0.4439 0.19318 0.83306 0.0
H753 H 0.37043 0.17914 0.85219 0.0
H754 H 0.50998 0.24462 0.83232 0.0
H755 H 0.52024 0.29869 0.81877 0.0
C756 C 0.68481 0.28875 0.68005 0.0
C757 C 0.67856 0.24431 0.69063 0.0
C758 C 0.58969 0.2645 0.72868 0.0
C759 C 0.5999 0.30965 0.72035 0.0
N760 N 0.66887 0.3651 0.69478 0.0
N761 N 0.63038 0.18969 0.72722 0.0
C762 C 0.65006 0.32193 0.69748 0.0
C763 C 0.63258 0.23216 0.71565 0.0
N764 N 0.72515 0.2996 0.65393 0.0
N765 N 0.53786 0.25231 0.74827 0.0
H766 H 0.6581 0.16443 0.71687 0.0
H767 H 0.60401 0.17987 0.74832 0.0
H768 H 0.50557 0.27491 0.75841 0.0
H769 H 0.52329 0.21973 0.75218 0.0
H770 H 0.72565 0.33061 0.64268 0.0
H771 H 0.75476 0.27683 0.64183 0.0
H772 H 0.70957 0.37572 0.68127 0.0
H773 H 0.64878 0.38976 0.70954 0.0
C774 C 0.85589 0.22974 0.16407 0.0
C775 C 0.84381 0.26866 0.18283 0.0
C776 C 0.91448 0.24099 0.22684 0.0
C777 C 0.91435 0.19862 0.21204 0.0
N778 N 0.881 0.15233 0.16535 0.0
N779 N 0.85381 0.30746 0.23564 0.0
C780 C 0.88375 0.19273 0.18033 0.0
C781 C 0.87061 0.27311 0.21532 0.0
N782 N 0.84621 0.229 0.1302 0.0
N783 N 0.96067 0.25209 0.24976 0.0
H784 H 0.81972 0.33108 0.22895 0.0
H785 H 0.8689 0.30954 0.26053 0.0
H786 H 0.99864 0.23092 0.25554 0.0
H787 H 0.9662 0.28404 0.2591 0.0
H788 H 0.86007 0.20269 0.11505 0.0
H789 H 0.83279 0.25664 0.1165 0.0
H790 H 0.85112 0.14557 0.1449 0.0
H791 H 0.90572 0.12502 0.174 0.0
C792 C 0.83684 0.74242 0.71496 0.0
C793 C 0.83867 0.7387 0.67965 0.0
C794 C 0.8965 0.81003 0.67678 0.0
C795 C 0.90318 0.81009 0.71231 0.0
N796 N 0.89528 0.76734 0.76326 0.0
N797 N 0.88244 0.76532 0.62698 0.0
C798 C 0.8772 0.77399 0.73093 0.0
C799 C 0.87147 0.77162 0.66042 0.0
N800 N 0.7959 0.71619 0.73351 0.0
N801 N 0.91259 0.84671 0.65855 0.0
H802 H 0.86778 0.73695 0.61425 0.0
H803 H 0.91209 0.78618 0.61268 0.0
H804 H 0.93042 0.87567 0.66928 0.0
H805 H 0.90221 0.84978 0.63313 0.0
H806 H 0.78883 0.72076 0.75918 0.0
H807 H 0.76392 0.69333 0.72278 0.0
H808 H 0.88353 0.73867 0.7765 0.0
H809 H 0.92863 0.78773 0.77523 0.0
C810 C 0.66237 0.76929 0.21548 0.0
C811 C 0.69225 0.75896 0.18435 0.0
C812 C 0.62984 0.68969 0.18147 0.0
C813 C 0.60498 0.69795 0.214 0.0
N814 N 0.58334 0.7494 0.25833 0.0
N815 N 0.71089 0.70755 0.1392 0.0
C816 C 0.61715 0.73893 0.22997 0.0
C817 C 0.67706 0.71897 0.16744 0.0
N818 N 0.67895 0.80757 0.23168 0.0
N819 N 0.60596 0.65487 0.16341 0.0
H820 H 0.7467 0.72762 0.12838 0.0
H821 H 0.70763 0.67661 0.128 0.0
H822 H 0.56961 0.6339 0.17261 0.0
H823 H 0.61703 0.64931 0.1383 0.0
H824 H 0.666 0.81467 0.25631 0.0
H825 H 0.70836 0.83203 0.22094 0.0
H826 H 0.58273 0.78065 0.26907 0.0
H827 H 0.55241 0.72703 0.2703 0.0
C828 C 0.34603 0.76782 0.31023 0.0
C829 C 0.32777 0.76219 0.34423 0.0
C830 C 0.39154 0.69425 0.3472 0.0
C831 C 0.4132 0.70114 0.31359 0.0
N832 N 0.4189 0.74912 0.26503 0.0
N833 N 0.33922 0.72362 0.39679 0.0
C834 C 0.39263 0.73924 0.29569 0.0
C835 C 0.35315 0.72689 0.36333 0.0
N836 N 0.31815 0.80033 0.2915 0.0
N837 N 0.4026 0.655 0.36296 0.0
H838 H 0.30555 0.74343 0.40902 0.0
H839 H 0.36395 0.70271 0.41294 0.0
H840 H 0.42879 0.62939 0.35241 0.0
H841 H 0.38055 0.64583 0.38548 0.0
H842 H 0.32152 0.80193 0.26549 0.0
H843 H 0.28825 0.82457 0.30161 0.0
H844 H 0.41307 0.77933 0.25307 0.0
H845 H 0.45079 0.72874 0.25231 0.0
C846 C 0.15476 0.7456 0.81411 0.0
C847 C 0.19054 0.75974 0.84242 0.0
C848 C 0.14162 0.83278 0.8388 0.0
C849 C 0.10137 0.81793 0.81201 0.0
N850 N 0.06404 0.75733 0.77714 0.0
N851 N 0.20968 0.81357 0.88584 0.0
C852 C 0.10635 0.77349 0.80053 0.0
C853 C 0.18054 0.80207 0.85635 0.0
N854 N 0.1677 0.70559 0.79978 0.0
N855 N 0.14832 0.87683 0.84529 0.0
H856 H 0.24173 0.79307 0.89848 0.0
H857 H 0.19801 0.84209 0.89905 0.0
H858 H 0.12688 0.90094 0.83068 0.0
H859 H 0.18191 0.88979 0.86218 0.0
H860 H 0.15004 0.6959 0.77647 0.0
H861 H 0.19945 0.68282 0.81022 0.0
H862 H 0.0592 0.72396 0.77141 0.0
H863 H 0.03033 0.7766 0.76484 0.0
loop_
_geom_bond_atom_site_label_1
_geom_bond_atom_site_label_2
_geom_bond_distance
_geom_bond_site_symmetry_2
_ccdc_geom_bond_type
H0 C5 0.930 . S
H1 C8 0.930 . S
H2 C10 0.930 . S
H3 C4 1.016 . S
C4 H3 1.016 . S
C4 N11 1.286 . S
C5 H0 0.930 . S
C5 C6 1.397 . S
C5 C7 1.361 . S
C6 C5 1.397 . S
C6 C10 1.390 . S
C7 C5 1.361 . S
C7 C8 1.393 . S
C7 N11 1.413 . S
C8 H1 0.930 . S
C8 C7 1.393 . S
C8 C9 1.399 . S
C9 C8 1.399 . S
C9 C10 1.381 . S
C10 H2 0.930 . S
C10 C6 1.390 . S
C10 C9 1.381 . S
N11 C4 1.286 . S
N11 C7 1.413 . S
H12 C17 0.930 . S
H13 C20 0.930 . S
H14 C22 0.930 . S
H15 C16 1.016 . S
C16 H15 1.016 . S
C16 N23 1.286 . S
C17 H12 0.930 . S
C17 C18 1.397 . S
C17 C19 1.361 . S
C18 C17 1.397 . S
C18 C22 1.390 . S
C19 C17 1.361 . S
C19 C20 1.393 . S
C19 N23 1.413 . S
C20 H13 0.930 . S
C20 C19 1.393 . S
C20 C21 1.399 . S
C21 C20 1.399 . S
C21 C22 1.381 . S
C22 H14 0.930 . S
C22 C18 1.390 . S
C22 C21 1.381 . S
N23 C16 1.286 . S
N23 C19 1.413 . S
H24 C29 0.930 . S
H25 C32 0.930 . S
H26 C34 0.930 . S
H27 C28 1.016 . S
C28 H27 1.016 . S
C28 N35 1.286 . S
C29 H24 0.930 . S
C29 C30 1.397 . S
C29 C31 1.361 . S
C30 C29 1.397 . S
C30 C34 1.390 . S
C31 C29 1.361 . S
C31 C32 1.393 . S
C31 N35 1.413 . S
C32 H25 0.930 . S
C32 C31 1.393 . S
C32 C33 1.399 . S
C33 C32 1.399 . S
C33 C34 1.381 . S
C34 H26 0.930 . S
C34 C30 1.390 . S
C34 C33 1.381 . S
N35 C28 1.286 . S
N35 C31 1.413 . S
H36 C41 0.930 . S
H37 C44 0.930 . S
H38 C46 0.930 . S
H39 C40 1.016 . S
C40 H39 1.016 . S
C40 N47 1.286 . S
C41 H36 0.930 . S
C41 C42 1.397 . S
C41 C43 1.361 . S
C42 C41 1.397 . S
C42 C46 1.390 . S
C43 C41 1.361 . S
C43 C44 1.393 . S
C43 N47 1.413 . S
C44 H37 0.930 . S
C44 C43 1.393 . S
C44 C45 1.399 . S
C45 C44 1.399 . S
C45 C46 1.381 . S
C46 H38 0.930 . S
C46 C42 1.390 . S
C46 C45 1.381 . S
N47 C40 1.286 . S
N47 C43 1.413 . S
H48 C53 0.930 . S
H49 C56 0.930 . S
H50 C58 0.930 . S
H51 C52 1.016 . S
C52 H51 1.016 . S
C52 N59 1.286 . S
C53 H48 0.930 . S
C53 C54 1.397 . S
C53 C55 1.361 . S
C54 C53 1.397 . S
C54 C58 1.390 . S
C55 C53 1.361 . S
C55 C56 1.393 . S
C55 N59 1.413 . S
C56 H49 0.930 . S
C56 C55 1.393 . S
C56 C57 1.399 . S
C57 C56 1.399 . S
C57 C58 1.381 . S
C58 H50 0.930 . S
C58 C54 1.390 . S
C58 C57 1.381 . S
N59 C52 1.286 . S
N59 C55 1.413 . S
H60 C65 0.930 . S
H61 C68 0.930 . S
H62 C70 0.930 . S
H63 C64 1.016 . S
C64 H63 1.016 . S
C64 N71 1.286 . S
C65 H60 0.930 . S
C65 C66 1.397 . S
C65 C67 1.361 . S
C66 C65 1.397 . S
C66 C70 1.390 . S
C67 C65 1.361 . S
C67 C68 1.393 . S
C67 N71 1.413 . S
C68 H61 0.930 . S
C68 C67 1.393 . S
C68 C69 1.399 . S
C69 C68 1.399 . S
C69 C70 1.381 . S
C70 H62 0.930 . S
C70 C66 1.390 . S
C70 C69 1.381 . S
N71 C64 1.286 . S
N71 C67 1.413 . S
H72 C77 0.930 . S
H73 C80 0.930 . S
H74 C82 0.930 . S
H75 C76 1.016 . S
C76 H75 1.016 . S
C76 N83 1.286 . S
C77 H72 0.930 . S
C77 C78 1.397 . S
C77 C79 1.361 . S
C78 C77 1.397 . S
C78 C82 1.390 . S
C79 C77 1.361 . S
C79 C80 1.393 . S
C79 N83 1.413 . S
C80 H73 0.930 . S
C80 C79 1.393 . S
C80 C81 1.399 . S
C81 C80 1.399 . S
C81 C82 1.381 . S
C82 H74 0.930 . S
C82 C78 1.390 . S
C82 C81 1.381 . S
N83 C76 1.286 . S
N83 C79 1.413 . S
H84 C89 0.930 . S
H85 C92 0.930 . S
H86 C94 0.930 . S
H87 C88 1.016 . S
C88 H87 1.016 . S
C88 N95 1.286 . S
C89 H84 0.930 . S
C89 C90 1.397 . S
C89 C91 1.361 . S
C90 C89 1.397 . S
C90 C94 1.390 . S
C91 C89 1.361 . S
C91 C92 1.393 . S
C91 N95 1.413 . S
C92 H85 0.930 . S
C92 C91 1.393 . S
C92 C93 1.399 . S
C93 C92 1.399 . S
C93 C94 1.381 . S
C94 H86 0.930 . S
C94 C90 1.390 . S
C94 C93 1.381 . S
N95 C88 1.286 . S
N95 C91 1.413 . S
Eu96 N125 2.600 . S
Eu96 N131 2.562 . S
Eu96 O140 2.462 . S
Eu96 O141 2.373 . S
Eu96 O143 2.432 . S
Eu96 O144 2.291 1_455 S
Eu96 O148 2.335 1_455 S
Eu96 O151 2.372 . S
Eu96 C160 2.787 . S
C97 N98 1.365 . S
C97 C100 1.405 . S
C97 C104 1.448 . S
N98 C97 1.365 . S
N98 C101 1.319 . S
N98 Eu107 2.600 . S
C99 C101 1.397 . S
C99 C102 1.367 . S
C99 H119 0.931 . S
C100 C97 1.405 . S
C100 C102 1.403 . S
C100 C106 1.439 . S
C101 N98 1.319 . S
C101 C99 1.397 . S
C101 H112 0.930 . S
C102 C99 1.367 . S
C102 C100 1.403 . S
C102 H123 0.929 . S
C103 C104 1.430 1_565 S
C103 C105 1.387 . S
C103 C109 1.404 . S
C104 C97 1.448 . S
C104 C103 1.430 1_545 S
C104 N108 1.351 . S
C105 C103 1.387 . S
C105 C106 1.374 1_565 S
C105 H120 0.931 . S
C106 C100 1.439 . S
C106 C105 1.374 1_545 S
C106 H121 0.931 . S
Eu107 N98 2.600 . S
Eu107 N108 2.562 . S
Eu107 O142 2.335 1_655 S
Eu107 O145 2.372 . S
Eu107 O146 2.462 . S
Eu107 O147 2.373 . S
Eu107 O149 2.432 . S
Eu107 O150 2.291 1_655 S
Eu107 C171 2.787 . S
N108 C104 1.351 . S
N108 Eu107 2.562 . S
N108 C110 1.325 1_545 S
C109 C103 1.404 . S
C109 C111 1.366 . S
C109 H117 0.930 . S
C110 N108 1.325 1_565 S
C110 C111 1.416 . S
C110 H116 0.929 . S
C111 C109 1.366 . S
C111 C110 1.416 . S
C111 H113 0.930 . S
H112 C101 0.930 . S
H113 C111 0.930 . S
H114 C129 0.930 . S
H115 C136 0.930 . S
H116 C110 0.929 . S
H117 C109 0.930 . S
H118 C132 0.929 . S
H119 C99 0.931 . S
H120 C105 0.931 . S
H121 C106 0.931 . S
H122 C127 0.931 . S
H123 C102 0.929 . S
H124 C135 0.930 . S
N125 Eu96 2.600 . S
N125 C126 1.365 . S
N125 C129 1.319 . S
C126 N125 1.365 . S
C126 C128 1.405 . S
C126 C134 1.448 . S
C127 H122 0.931 . S
C127 C129 1.397 . S
C127 C130 1.367 . S
C128 C126 1.405 . S
C128 C130 1.403 . S
C128 C161 1.439 . S
C129 H114 0.930 . S
C129 N125 1.319 . S
C129 C127 1.397 . S
C130 C127 1.367 . S
C130 C128 1.403 . S
C130 H137 0.929 . S
N131 Eu96 2.562 . S
N131 C132 1.325 . S
N131 C134 1.351 . S
C132 H118 0.929 . S
C132 N131 1.325 . S
C132 C136 1.416 . S
C133 C134 1.430 . S
C133 C135 1.404 . S
C133 C162 1.387 . S
C134 C126 1.448 . S
C134 N131 1.351 . S
C134 C133 1.430 . S
C135 H124 0.930 . S
C135 C133 1.404 . S
C135 C136 1.366 . S
C136 H115 0.930 . S
C136 C132 1.416 . S
C136 C135 1.366 . S
H137 C130 0.929 . S
H138 C161 0.931 . S
H139 C162 0.931 . S
O140 Eu96 2.462 . S
O140 C160 1.252 . S
O141 Eu96 2.373 . S
O141 C152 1.249 . S
O142 Eu107 2.335 1_455 S
O142 C152 1.264 . S
O143 Eu96 2.432 . S
O143 C160 1.268 . S
O144 Eu96 2.291 1_655 S
O144 C159 1.255 . S
O145 Eu107 2.372 . S
O145 C159 1.257 . S
O146 Eu107 2.462 . S
O146 C171 1.252 . S
O147 Eu107 2.373 . S
O147 C163 1.249 . S
O148 Eu96 2.335 1_655 S
O148 C163 1.264 . S
O149 Eu107 2.432 . S
O149 C171 1.268 . S
O150 Eu107 2.291 1_455 S
O150 C170 1.255 . S
O151 Eu96 2.372 . S
O151 C170 1.257 . S
C152 O141 1.249 . S
C152 O142 1.264 . S
C153 C156 1.382 . S
C153 C158 1.390 . S
C153 C160 1.506 . S
C154 C155 1.398 . S
C154 C158 1.392 . S
C155 C154 1.398 . S
C155 C157 1.372 . S
C155 H172 0.931 . S
C156 C153 1.382 . S
C156 C157 1.390 . S
C156 H173 0.931 . S
C157 C155 1.372 . S
C157 C156 1.390 . S
C157 H174 0.934 . S
C158 C153 1.390 . S
C158 C154 1.392 . S
C158 H175 0.930 . S
C159 O144 1.255 . S
C159 O145 1.257 . S
C160 Eu96 2.787 . S
C160 O140 1.252 . S
C160 O143 1.268 . S
C160 C153 1.506 . S
C161 C128 1.439 . S
C161 H138 0.931 . S
C161 C162 1.374 . S
C162 C133 1.387 . S
C162 H139 0.931 . S
C162 C161 1.374 . S
C163 O147 1.249 . S
C163 O148 1.264 . S
C164 C167 1.382 . S
C164 C168 1.390 . S
C164 C171 1.506 . S
C165 C166 1.398 . S
C165 C168 1.392 . S
C166 C165 1.398 . S
C166 C169 1.372 . S
C166 H176 0.931 . S
C167 C164 1.382 . S
C167 C169 1.390 . S
C167 H177 0.931 . S
C168 C164 1.390 . S
C168 C165 1.392 . S
C168 H178 0.930 . S
C169 C166 1.372 . S
C169 C167 1.390 . S
C169 H179 0.929 . S
C170 O150 1.255 . S
C170 O151 1.257 . S
C171 Eu107 2.787 . S
C171 O146 1.252 . S
C171 O149 1.268 . S
C171 C164 1.506 . S
H172 C155 0.931 . S
H173 C156 0.931 . S
H174 C157 0.934 . S
H175 C158 0.930 . S
H176 C166 0.931 . S
H177 C167 0.931 . S
H178 C168 0.930 . S
H179 C169 0.929 . S
Eu180 N209 2.600 . S
Eu180 N215 2.562 . S
Eu180 O224 2.462 . S
Eu180 O225 2.373 . S
Eu180 O227 2.432 . S
Eu180 O228 2.291 . S
Eu180 O232 2.335 . S
Eu180 O235 2.372 . S
Eu180 C244 2.787 . S
C181 N182 1.365 . S
C181 C184 1.405 . S
C181 C188 1.448 . S
N182 C181 1.365 . S
N182 C185 1.319 . S
N182 Eu191 2.600 . S
C183 C185 1.397 . S
C183 C186 1.367 . S
C183 H203 0.931 . S
C184 C181 1.405 . S
C184 C186 1.403 . S
C184 C190 1.439 . S
C185 N182 1.319 . S
C185 C183 1.397 . S
C185 H196 0.930 . S
C186 C183 1.367 . S
C186 C184 1.403 . S
C186 H207 0.929 . S
C187 C188 1.430 . S
C187 C189 1.387 . S
C187 C193 1.404 . S
C188 C181 1.448 . S
C188 C187 1.430 . S
C188 N192 1.351 . S
C189 C187 1.387 . S
C189 C190 1.374 . S
C189 H204 0.931 . S
C190 C184 1.439 . S
C190 C189 1.374 . S
C190 H205 0.931 . S
Eu191 N182 2.600 . S
Eu191 N192 2.562 . S
Eu191 O226 2.335 . S
Eu191 O229 2.372 . S
Eu191 O230 2.462 . S
Eu191 O231 2.373 . S
Eu191 O233 2.432 . S
Eu191 O234 2.291 . S
Eu191 C255 2.787 . S
N192 C188 1.351 . S
N192 Eu191 2.562 . S
N192 C194 1.325 . S
C193 C187 1.404 . S
C193 C195 1.366 . S
C193 H201 0.930 . S
C194 N192 1.325 . S
C194 C195 1.416 . S
C194 H200 0.929 . S
C195 C193 1.366 . S
C195 C194 1.416 . S
C195 H197 0.930 . S
H196 C185 0.930 . S
H197 C195 0.930 . S
H198 C213 0.930 . S
H199 C220 0.930 . S
H200 C194 0.929 . S
H201 C193 0.930 . S
H202 C216 0.929 . S
H203 C183 0.931 . S
H204 C189 0.931 . S
H205 C190 0.931 . S
H206 C211 0.931 . S
H207 C186 0.929 . S
H208 C219 0.930 . S
N209 Eu180 2.600 . S
N209 C210 1.365 . S
N209 C213 1.319 . S
C210 N209 1.365 . S
C210 C212 1.405 . S
C210 C218 1.448 . S
C211 H206 0.931 . S
C211 C213 1.397 . S
C211 C214 1.367 . S
C212 C210 1.405 . S
C212 C214 1.403 . S
C212 C245 1.439 . S
C213 H198 0.930 . S
C213 N209 1.319 . S
C213 C211 1.397 . S
C214 C211 1.367 . S
C214 C212 1.403 . S
C214 H221 0.929 . S
N215 Eu180 2.562 . S
N215 C216 1.325 . S
N215 C218 1.351 . S
C216 H202 0.929 . S
C216 N215 1.325 . S
C216 C220 1.416 . S
C217 C218 1.430 . S
C217 C219 1.404 . S
C217 C246 1.387 . S
C218 C210 1.448 . S
C218 N215 1.351 . S
C218 C217 1.430 . S
C219 H208 0.930 . S
C219 C217 1.404 . S
C219 C220 1.366 . S
C220 H199 0.930 . S
C220 C216 1.416 . S
C220 C219 1.366 . S
H221 C214 0.929 . S
H222 C245 0.931 . S
H223 C246 0.931 . S
O224 Eu180 2.462 . S
O224 C244 1.252 . S
O225 Eu180 2.373 . S
O225 C236 1.249 . S
O226 Eu191 2.335 . S
O226 C236 1.264 . S
O227 Eu180 2.432 . S
O227 C244 1.268 . S
O228 Eu180 2.291 . S
O228 C243 1.255 . S
O229 Eu191 2.372 . S
O229 C243 1.257 . S
O230 Eu191 2.462 . S
O230 C255 1.252 . S
O231 Eu191 2.373 . S
O231 C247 1.249 . S
O232 Eu180 2.335 . S
O232 C247 1.264 . S
O233 Eu191 2.432 . S
O233 C255 1.268 . S
O234 Eu191 2.291 . S
O234 C254 1.255 . S
O235 Eu180 2.372 . S
O235 C254 1.257 . S
C236 O225 1.249 . S
C236 O226 1.264 . S
C237 C240 1.382 . S
C237 C242 1.390 . S
C237 C244 1.506 . S
C238 C239 1.398 . S
C238 C242 1.392 . S
C239 C238 1.398 . S
C239 C241 1.372 . S
C239 H256 0.931 . S
C240 C237 1.382 . S
C240 C241 1.390 . S
C240 H257 0.931 . S
C241 C239 1.372 . S
C241 C240 1.390 . S
C241 H258 0.929 . S
C242 C237 1.390 . S
C242 C238 1.392 . S
C242 H259 0.930 . S
C243 O228 1.255 . S
C243 O229 1.257 . S
C244 Eu180 2.787 . S
C244 O224 1.252 . S
C244 O227 1.268 . S
C244 C237 1.506 . S
C245 C212 1.439 . S
C245 H222 0.931 . S
C245 C246 1.374 . S
C246 C217 1.387 . S
C246 H223 0.931 . S
C246 C245 1.374 . S
C247 O231 1.249 . S
C247 O232 1.264 . S
C248 C251 1.382 . S
C248 C252 1.390 . S
C248 C255 1.506 . S
C249 C250 1.398 . S
C249 C252 1.392 . S
C250 C249 1.398 . S
C250 C253 1.372 . S
C250 H260 0.931 . S
C251 C248 1.382 . S
C251 C253 1.390 . S
C251 H261 0.931 . S
C252 C248 1.390 . S
C252 C249 1.392 . S
C252 H262 0.930 . S
C253 C250 1.372 . S
C253 C251 1.390 . S
C253 H263 0.929 . S
C254 O234 1.255 . S
C254 O235 1.257 . S
C255 Eu191 2.787 . S
C255 O230 1.252 . S
C255 O233 1.268 . S
C255 C248 1.506 . S
H256 C239 0.931 . S
H257 C240 0.931 . S
H258 C241 0.929 . S
H259 C242 0.930 . S
H260 C250 0.931 . S
H261 C251 0.931 . S
H262 C252 0.930 . S
H263 C253 0.929 . S
Eu264 N293 2.600 . S
Eu264 N299 2.562 . S
Eu264 O308 2.462 . S
Eu264 O309 2.373 . S
Eu264 O311 2.432 . S
Eu264 O312 2.287 1_455 S
Eu264 O316 2.335 . S
Eu264 O319 2.372 . S
Eu264 C328 2.787 . S
C265 N266 1.365 . S
C265 C268 1.405 . S
C265 C272 1.448 . S
N266 C265 1.365 . S
N266 C269 1.319 . S
N266 Eu275 2.600 . S
C267 C269 1.397 . S
C267 C270 1.367 . S
C267 H287 0.931 . S
C268 C265 1.405 . S
C268 C270 1.403 . S
C268 C274 1.439 . S
C269 N266 1.319 . S
C269 C267 1.397 . S
C269 H280 0.930 . S
C270 C267 1.367 . S
C270 C268 1.403 . S
C270 H291 0.929 . S
C271 C272 1.430 . S
C271 C273 1.387 . S
C271 C277 1.404 . S
C272 C265 1.448 . S
C272 C271 1.430 . S
C272 N276 1.351 . S
C273 C271 1.387 . S
C273 C274 1.374 . S
C273 H288 0.931 . S
C274 C268 1.439 . S
C274 C273 1.374 . S
C274 H289 0.931 . S
Eu275 N266 2.600 . S
Eu275 N276 2.562 . S
Eu275 O310 2.335 1_655 S
Eu275 O313 2.372 . S
Eu275 O314 2.462 . S
Eu275 O315 2.373 . S
Eu275 O317 2.432 . S
Eu275 O318 2.291 1_655 S
Eu275 C339 2.787 . S
N276 C272 1.351 . S
N276 Eu275 2.562 . S
N276 C278 1.325 . S
C277 C271 1.404 . S
C277 C279 1.366 . S
C277 H285 0.930 . S
C278 N276 1.325 . S
C278 C279 1.416 . S
C278 H284 0.929 . S
C279 C277 1.366 . S
C279 C278 1.416 . S
C279 H281 0.930 . S
H280 C269 0.930 . S
H281 C279 0.930 . S
H282 C297 0.930 . S
H283 C304 0.930 . S
H284 C278 0.929 . S
H285 C277 0.930 . S
H286 C300 0.929 . S
H287 C267 0.931 . S
H288 C273 0.931 . S
H289 C274 0.931 . S
H290 C295 0.931 . S
H291 C270 0.929 . S
H292 C303 0.930 . S
N293 Eu264 2.600 . S
N293 C294 1.365 . S
N293 C297 1.319 . S
C294 N293 1.365 . S
C294 C296 1.405 . S
C294 C302 1.448 . S
C295 H290 0.931 . S
C295 C297 1.397 . S
C295 C298 1.367 . S
C296 C294 1.405 . S
C296 C298 1.403 . S
C296 C329 1.439 . S
C297 H282 0.930 . S
C297 N293 1.319 . S
C297 C295 1.397 . S
C298 C295 1.367 . S
C298 C296 1.403 . S
C298 H305 0.929 . S
N299 Eu264 2.562 . S
N299 C300 1.325 1_565 S
N299 C302 1.351 . S
C300 H286 0.929 . S
C300 N299 1.325 1_545 S
C300 C304 1.416 . S
C301 C302 1.430 1_545 S
C301 C303 1.404 . S
C301 C330 1.387 . S
C302 C294 1.448 . S
C302 N299 1.351 . S
C302 C301 1.430 1_565 S
C303 H292 0.930 . S
C303 C301 1.404 . S
C303 C304 1.366 . S
C304 H283 0.930 . S
C304 C300 1.416 . S
C304 C303 1.366 . S
H305 C298 0.929 . S
H306 C329 0.931 . S
H307 C330 0.931 . S
O308 Eu264 2.462 . S
O308 C328 1.252 . S
O309 Eu264 2.373 . S
O309 C320 1.249 . S
O310 Eu275 2.335 1_455 S
O310 C320 1.264 . S
O311 Eu264 2.432 . S
O311 C328 1.268 . S
O312 Eu264 2.287 1_655 S
O312 C327 1.260 . S
O313 Eu275 2.372 . S
O313 C327 1.257 . S
O314 Eu275 2.462 . S
O314 C339 1.252 . S
O315 Eu275 2.373 . S
O315 C331 1.249 . S
O316 Eu264 2.335 . S
O316 C331 1.263 1_455 S
O317 Eu275 2.432 . S
O317 C339 1.268 . S
O318 Eu275 2.291 1_455 S
O318 C338 1.255 . S
O319 Eu264 2.372 . S
O319 C338 1.257 . S
C320 O309 1.249 . S
C320 O310 1.264 . S
C321 C324 1.382 . S
C321 C326 1.390 . S
C321 C328 1.506 . S
C322 C323 1.398 . S
C322 C326 1.392 . S
C323 C322 1.398 . S
C323 C325 1.372 . S
C323 H340 0.931 . S
C324 C321 1.382 . S
C324 C325 1.390 . S
C324 H341 0.931 . S
C325 C323 1.372 . S
C325 C324 1.390 . S
C325 H342 0.929 . S
C326 C321 1.390 . S
C326 C322 1.392 . S
C326 H343 0.930 . S
C327 O312 1.260 . S
C327 O313 1.257 . S
C328 Eu264 2.787 . S
C328 O308 1.252 . S
C328 O311 1.268 . S
C328 C321 1.506 . S
C329 C296 1.439 . S
C329 H306 0.931 . S
C329 C330 1.374 1_565 S
C330 C301 1.387 . S
C330 H307 0.931 . S
C330 C329 1.374 1_545 S
C331 O315 1.249 . S
C331 O316 1.263 1_655 S
C332 C335 1.382 . S
C332 C336 1.390 . S
C332 C339 1.506 . S
C333 C334 1.398 . S
C333 C336 1.392 . S
C334 C333 1.398 . S
C334 C337 1.372 . S
C334 H344 0.931 . S
C335 C332 1.382 . S
C335 C337 1.390 . S
C335 H345 0.931 . S
C336 C332 1.390 . S
C336 C333 1.392 . S
C336 H346 0.930 . S
C337 C334 1.372 . S
C337 C335 1.390 . S
C337 H347 0.934 . S
C338 O318 1.255 . S
C338 O319 1.257 . S
C339 Eu275 2.787 . S
C339 O314 1.252 . S
C339 O317 1.268 . S
C339 C332 1.506 . S
H340 C323 0.931 . S
H341 C324 0.931 . S
H342 C325 0.929 . S
H343 C326 0.930 . S
H344 C334 0.931 . S
H345 C335 0.931 . S
H346 C336 0.930 . S
H347 C337 0.934 . S
Eu348 N377 2.600 . S
Eu348 N383 2.562 . S
Eu348 O392 2.462 . S
Eu348 O393 2.373 . S
Eu348 O395 2.432 . S
Eu348 O396 2.291 . S
Eu348 O400 2.335 . S
Eu348 O403 2.372 . S
Eu348 C412 2.787 . S
C349 N350 1.365 . S
C349 C352 1.405 . S
C349 C356 1.448 . S
N350 C349 1.365 . S
N350 C353 1.319 . S
N350 Eu359 2.600 . S
C351 C353 1.397 . S
C351 C354 1.367 . S
C351 H371 0.931 . S
C352 C349 1.405 . S
C352 C354 1.403 . S
C352 C358 1.439 . S
C353 N350 1.319 . S
C353 C351 1.397 . S
C353 H364 0.930 . S
C354 C351 1.367 . S
C354 C352 1.403 . S
C354 H375 0.929 . S
C355 C356 1.430 . S
C355 C357 1.387 . S
C355 C361 1.404 . S
C356 C349 1.448 . S
C356 C355 1.430 . S
C356 N360 1.351 . S
C357 C355 1.387 . S
C357 C358 1.374 . S
C357 H372 0.931 . S
C358 C352 1.439 . S
C358 C357 1.374 . S
C358 H373 0.931 . S
Eu359 N350 2.600 . S
Eu359 N360 2.562 . S
Eu359 O394 2.335 . S
Eu359 O397 2.372 . S
Eu359 O398 2.462 . S
Eu359 O399 2.373 . S
Eu359 O401 2.432 . S
Eu359 O402 2.291 . S
Eu359 C423 2.787 . S
N360 C356 1.351 . S
N360 Eu359 2.562 . S
N360 C362 1.325 . S
C361 C355 1.404 . S
C361 C363 1.366 . S
C361 H369 0.930 . S
C362 N360 1.325 . S
C362 C363 1.416 . S
C362 H368 0.929 . S
C363 C361 1.366 . S
C363 C362 1.416 . S
C363 H365 0.930 . S
H364 C353 0.930 . S
H365 C363 0.930 . S
H366 C381 0.930 . S
H367 C388 0.930 . S
H368 C362 0.929 . S
H369 C361 0.930 . S
H370 C384 0.929 . S
H371 C351 0.931 . S
H372 C357 0.931 . S
H373 C358 0.931 . S
H374 C379 0.931 . S
H375 C354 0.929 . S
H376 C387 0.930 . S
N377 Eu348 2.600 . S
N377 C378 1.365 . S
N377 C381 1.319 . S
C378 N377 1.365 . S
C378 C380 1.405 . S
C378 C386 1.448 . S
C379 H374 0.931 . S
C379 C381 1.397 . S
C379 C382 1.367 . S
C380 C378 1.405 . S
C380 C382 1.403 . S
C380 C413 1.439 . S
C381 H366 0.930 . S
C381 N377 1.319 . S
C381 C379 1.397 . S
C382 C379 1.367 . S
C382 C380 1.403 . S
C382 H389 0.929 . S
N383 Eu348 2.562 . S
N383 C384 1.325 . S
N383 C386 1.351 . S
C384 H370 0.929 . S
C384 N383 1.325 . S
C384 C388 1.416 . S
C385 C386 1.430 . S
C385 C387 1.404 . S
C385 C414 1.387 . S
C386 C378 1.448 . S
C386 N383 1.351 . S
C386 C385 1.430 . S
C387 H376 0.930 . S
C387 C385 1.404 . S
C387 C388 1.366 . S
C388 H367 0.930 . S
C388 C384 1.416 . S
C388 C387 1.366 . S
H389 C382 0.929 . S
H390 C413 0.931 . S
H391 C414 0.931 . S
O392 Eu348 2.462 . S
O392 C412 1.252 . S
O393 Eu348 2.373 . S
O393 C404 1.249 . S
O394 Eu359 2.335 . S
O394 C404 1.264 . S
O395 Eu348 2.432 . S
O395 C412 1.268 . S
O396 Eu348 2.291 . S
O396 C411 1.255 . S
O397 Eu359 2.372 . S
O397 C411 1.257 . S
O398 Eu359 2.462 . S
O398 C423 1.252 . S
O399 Eu359 2.373 . S
O399 C415 1.249 . S
O400 Eu348 2.335 . S
O400 C415 1.264 . S
O401 Eu359 2.432 . S
O401 C423 1.268 . S
O402 Eu359 2.291 . S
O402 C422 1.255 . S
O403 Eu348 2.372 . S
O403 C422 1.257 . S
C404 O393 1.249 . S
C404 O394 1.264 . S
C405 C408 1.382 . S
C405 C410 1.390 . S
C405 C412 1.506 . S
C406 C407 1.398 . S
C406 C410 1.392 . S
C407 C406 1.398 . S
C407 C409 1.372 . S
C407 H424 0.931 . S
C408 C405 1.382 . S
C408 C409 1.390 . S
C408 H425 0.931 . S
C409 C407 1.372 . S
C409 C408 1.390 . S
C409 H426 0.929 . S
C410 C405 1.390 . S
C410 C406 1.392 . S
C410 H427 0.930 . S
C411 O396 1.255 . S
C411 O397 1.257 . S
C412 Eu348 2.787 . S
C412 O392 1.252 . S
C412 O395 1.268 . S
C412 C405 1.506 . S
C413 C380 1.439 . S
C413 H390 0.931 . S
C413 C414 1.374 . S
C414 C385 1.387 . S
C414 H391 0.931 . S
C414 C413 1.374 . S
C415 O399 1.249 . S
C415 O400 1.264 . S
C416 C419 1.382 . S
C416 C420 1.390 . S
C416 C423 1.506 . S
C417 C418 1.398 . S
C417 C420 1.392 . S
C418 C417 1.398 . S
C418 C421 1.372 . S
C418 H428 0.931 . S
C419 C416 1.382 . S
C419 C421 1.390 . S
C419 H429 0.931 . S
C420 C416 1.390 . S
C420 C417 1.392 . S
C420 H430 0.930 . S
C421 C418 1.372 . S
C421 C419 1.390 . S
C421 H431 0.929 . S
C422 O402 1.255 . S
C422 O403 1.257 . S
C423 Eu359 2.787 . S
C423 O398 1.252 . S
C423 O401 1.268 . S
C423 C416 1.506 . S
H424 C407 0.931 . S
H425 C408 0.931 . S
H426 C409 0.929 . S
H427 C410 0.930 . S
H428 C418 0.931 . S
H429 C419 0.931 . S
H430 C420 0.930 . S
H431 C421 0.929 . S
C432 C433 1.363 . S
C432 C438 1.379 . S
C432 N440 1.356 . S
C433 C432 1.363 . S
C433 C439 1.363 . S
C434 C435 1.363 1_545 S
C434 C439 1.379 1_545 S
C434 N441 1.356 . S
C435 C434 1.363 1_565 S
C435 C438 1.363 . S
N436 C438 1.356 . S
N436 H448 0.984 . S
N436 H449 0.985 . S
N437 C439 1.356 . S
N437 H442 0.984 . S
N437 H443 0.985 . S
C438 C432 1.379 . S
C438 C435 1.363 . S
C438 N436 1.356 . S
C439 C433 1.363 . S
C439 C434 1.379 1_565 S
C439 N437 1.356 . S
N440 C432 1.356 . S
N440 H446 0.984 . S
N440 H447 0.984 . S
N441 C434 1.356 . S
N441 H444 0.984 . S
N441 H445 0.985 . S
H442 N437 0.984 . S
H443 N437 0.985 . S
H444 N441 0.984 . S
H445 N441 0.985 . S
H446 N440 0.984 . S
H447 N440 0.984 . S
H448 N436 0.984 . S
H449 N436 0.985 . S
C450 C451 1.363 . S
C450 C456 1.379 . S
C450 N458 1.356 . S
C451 C450 1.363 . S
C451 C457 1.363 . S
C452 C453 1.363 . S
C452 C457 1.379 . S
C452 N459 1.356 . S
C453 C452 1.363 . S
C453 C456 1.363 . S
N454 C456 1.356 . S
N454 H466 0.984 . S
N454 H467 0.985 . S
N455 C457 1.356 . S
N455 H460 0.984 . S
N455 H461 0.985 . S
C456 C450 1.379 . S
C456 C453 1.363 . S
C456 N454 1.356 . S
C457 C451 1.363 . S
C457 C452 1.379 . S
C457 N455 1.356 . S
N458 C450 1.356 . S
N458 H464 0.984 . S
N458 H465 0.984 . S
N459 C452 1.356 . S
N459 H462 0.984 . S
N459 H463 0.985 . S
H460 N455 0.984 . S
H461 N455 0.985 . S
H462 N459 0.984 . S
H463 N459 0.985 . S
H464 N458 0.984 . S
H465 N458 0.984 . S
H466 N454 0.984 . S
H467 N454 0.985 . S
C468 C469 1.363 . S
C468 C474 1.379 . S
C468 N476 1.356 . S
C469 C468 1.363 . S
C469 C475 1.363 . S
C470 C471 1.363 . S
C470 C475 1.379 . S
C470 N477 1.356 . S
C471 C470 1.363 . S
C471 C474 1.363 . S
N472 C474 1.356 . S
N472 H484 0.984 . S
N472 H485 0.985 . S
N473 C475 1.356 . S
N473 H478 0.984 . S
N473 H479 0.985 . S
C474 C468 1.379 . S
C474 C471 1.363 . S
C474 N472 1.356 . S
C475 C469 1.363 . S
C475 C470 1.379 . S
C475 N473 1.356 . S
N476 C468 1.356 . S
N476 H482 0.984 . S
N476 H483 0.984 . S
N477 C470 1.356 . S
N477 H480 0.984 . S
N477 H481 0.985 . S
H478 N473 0.984 . S
H479 N473 0.985 . S
H480 N477 0.984 . S
H481 N477 0.985 . S
H482 N476 0.984 . S
H483 N476 0.984 . S
H484 N472 0.984 . S
H485 N472 0.985 . S
C486 C487 1.363 . S
C486 C492 1.379 . S
C486 N494 1.356 . S
C487 C486 1.363 . S
C487 C493 1.363 . S
C488 C489 1.363 . S
C488 C493 1.379 . S
C488 N495 1.356 1_565 S
C489 C488 1.363 . S
C489 C492 1.363 . S
N490 C492 1.356 . S
N490 H502 0.984 1_655 S
N490 H503 0.985 1_655 S
N491 C493 1.356 . S
N491 H496 0.984 . S
N491 H497 0.985 . S
C492 C486 1.379 . S
C492 C489 1.363 . S
C492 N490 1.356 . S
C493 C487 1.363 . S
C493 C488 1.379 . S
C493 N491 1.356 . S
N494 C486 1.356 . S
N494 H500 0.984 . S
N494 H501 0.984 . S
N495 C488 1.356 1_545 S
N495 H498 0.984 . S
N495 H499 0.985 . S
H496 N491 0.984 . S
H497 N491 0.985 . S
H498 N495 0.984 . S
H499 N495 0.985 . S
H500 N494 0.984 . S
H501 N494 0.984 . S
H502 N490 0.984 1_455 S
H503 N490 0.985 1_455 S
C504 C505 1.363 . S
C504 C510 1.379 1_545 S
C504 N512 1.356 . S
C505 C504 1.363 . S
C505 C511 1.363 . S
C506 C507 1.363 . S
C506 C511 1.379 . S
C506 N513 1.356 . S
C507 C506 1.363 . S
C507 C510 1.363 1_545 S
N508 C510 1.356 . S
N508 H520 0.984 . S
N508 H521 0.985 . S
N509 C511 1.356 . S
N509 H514 0.984 . S
N509 H515 0.985 . S
C510 C504 1.379 1_565 S
C510 C507 1.363 1_565 S
C510 N508 1.356 . S
C511 C505 1.363 . S
C511 C506 1.379 . S
C511 N509 1.356 . S
N512 C504 1.356 . S
N512 H518 0.984 1_545 S
N512 H519 0.984 . S
N513 C506 1.356 . S
N513 H516 0.984 . S
N513 H517 0.985 . S
H514 N509 0.984 . S
H515 N509 0.985 . S
H516 N513 0.984 . S
H517 N513 0.985 . S
H518 N512 0.984 1_565 S
H519 N512 0.984 . S
H520 N508 0.984 . S
H521 N508 0.985 . S
C522 C523 1.363 . S
C522 C528 1.379 . S
C522 N530 1.356 . S
C523 C522 1.363 . S
C523 C529 1.363 . S
C524 C525 1.363 . S
C524 C529 1.379 . S
C524 N531 1.356 . S
C525 C524 1.363 . S
C525 C528 1.363 . S
N526 C528 1.356 . S
N526 H538 0.984 . S
N526 H539 0.985 . S
N527 C529 1.356 . S
N527 H532 0.984 . S
N527 H533 0.985 . S
C528 C522 1.379 . S
C528 C525 1.363 . S
C528 N526 1.356 . S
C529 C523 1.363 . S
C529 C524 1.379 . S
C529 N527 1.356 . S
N530 C522 1.356 . S
N530 H536 0.984 . S
N530 H537 0.984 . S
N531 C524 1.356 . S
N531 H534 0.984 . S
N531 H535 0.985 . S
H532 N527 0.984 . S
H533 N527 0.985 . S
H534 N531 0.984 . S
H535 N531 0.985 . S
H536 N530 0.984 . S
H537 N530 0.984 . S
H538 N526 0.984 . S
H539 N526 0.985 . S
C540 C541 1.363 . S
C540 C546 1.379 . S
C540 N548 1.356 . S
C541 C540 1.363 . S
C541 C547 1.363 . S
C542 C543 1.363 . S
C542 C547 1.379 . S
C542 N549 1.356 . S
C543 C542 1.363 . S
C543 C546 1.363 . S
N544 C546 1.356 . S
N544 H556 0.984 . S
N544 H557 0.985 . S
N545 C547 1.356 . S
N545 H550 0.984 . S
N545 H551 0.985 . S
C546 C540 1.379 . S
C546 C543 1.363 . S
C546 N544 1.356 . S
C547 C541 1.363 . S
C547 C542 1.379 . S
C547 N545 1.356 . S
N548 C540 1.356 . S
N548 H554 0.984 . S
N548 H555 0.984 . S
N549 C542 1.356 . S
N549 H552 0.984 . S
N549 H553 0.985 . S
H550 N545 0.984 . S
H551 N545 0.985 . S
H552 N549 0.984 . S
H553 N549 0.985 . S
H554 N548 0.984 . S
H555 N548 0.984 . S
H556 N544 0.984 . S
H557 N544 0.985 . S
C558 C559 1.363 . S
C558 C564 1.379 . S
C558 N566 1.356 . S
C559 C558 1.363 . S
C559 C565 1.363 . S
C560 C561 1.362 1_565 S
C560 C565 1.371 1_565 S
C560 N567 1.366 . S
C561 C560 1.362 1_545 S
C561 C564 1.363 . S
N562 C564 1.356 . S
N562 H574 0.984 . S
N562 H575 0.985 . S
N563 C565 1.356 . S
N563 H568 0.984 . S
N563 H569 0.985 . S
C564 C558 1.379 . S
C564 C561 1.363 . S
C564 N562 1.356 . S
C565 C559 1.363 . S
C565 C560 1.371 1_545 S
C565 N563 1.356 . S
N566 C558 1.356 . S
N566 H572 0.984 . S
N566 H573 0.984 . S
N567 C560 1.366 . S
N567 H570 0.984 . S
N567 H571 0.985 . S
H568 N563 0.984 . S
H569 N563 0.985 . S
H570 N567 0.984 . S
H571 N567 0.985 . S
H572 N566 0.984 . S
H573 N566 0.984 . S
H574 N562 0.984 . S
H575 N562 0.985 . S
C576 C577 1.363 . S
C576 C582 1.379 1_556 S
C576 N584 1.356 . S
C577 C576 1.363 . S
C577 C583 1.363 . S
C578 C579 1.363 . S
C578 C583 1.379 1_554 S
C578 N585 1.356 . S
C579 C578 1.363 . S
C579 C582 1.363 . S
N580 C582 1.356 . S
N580 H592 1.000 . S
N580 H593 0.985 . S
N581 C583 1.356 . S
N581 H586 0.984 . S
N581 H587 0.985 . S
C582 C576 1.379 1_554 S
C582 C579 1.363 . S
C582 N580 1.356 . S
C583 C577 1.363 . S
C583 C578 1.379 1_556 S
C583 N581 1.356 . S
N584 C576 1.356 . S
N584 H590 0.984 . S
N584 H591 0.984 . S
N585 C578 1.356 . S
N585 H588 0.984 . S
N585 H589 0.985 . S
H586 N581 0.984 . S
H587 N581 0.985 . S
H588 N585 0.984 . S
H589 N585 0.985 . S
H590 N584 0.984 . S
H591 N584 0.984 . S
H592 N580 1.000 . S
H593 N580 0.985 . S
C594 C595 1.363 . S
C594 C600 1.379 . S
C594 N602 1.356 . S
C595 C594 1.363 . S
C595 C601 1.363 . S
C596 C597 1.363 . S
C596 C601 1.379 . S
C596 N603 1.356 . S
C597 C596 1.363 . S
C597 C600 1.363 . S
N598 C600 1.356 . S
N598 H610 0.984 . S
N598 H611 0.985 . S
N599 C601 1.356 . S
N599 H604 0.984 . S
N599 H605 0.985 . S
C600 C594 1.379 . S
C600 C597 1.363 . S
C600 N598 1.356 . S
C601 C595 1.363 . S
C601 C596 1.379 . S
C601 N599 1.356 . S
N602 C594 1.356 . S
N602 H608 0.984 . S
N602 H609 0.984 . S
N603 C596 1.356 . S
N603 H606 0.984 . S
N603 H607 0.985 . S
H604 N599 0.984 . S
H605 N599 0.985 . S
H606 N603 0.984 . S
H607 N603 0.985 . S
H608 N602 0.984 . S
H609 N602 0.984 . S
H610 N598 0.984 . S
H611 N598 0.985 . S
C612 C613 1.363 . S
C612 C618 1.379 1_554 S
C612 N620 1.356 . S
C613 C612 1.363 . S
C613 C619 1.363 . S
C614 C615 1.369 . S
C614 C619 1.372 1_556 S
C614 N621 1.359 . S
C615 C614 1.369 . S
C615 C618 1.363 . S
N616 C618 1.356 . S
N616 H628 0.984 . S
N616 H629 0.985 . S
N617 C619 1.356 . S
N617 H622 0.984 . S
N617 H623 0.985 . S
C618 C612 1.379 1_556 S
C618 C615 1.363 . S
C618 N616 1.356 . S
C619 C613 1.363 . S
C619 C614 1.372 1_554 S
C619 N617 1.356 . S
N620 C612 1.356 . S
N620 H626 0.984 . S
N620 H627 0.984 . S
N621 C614 1.359 . S
N621 H624 0.984 . S
N621 H625 0.985 1_556 S
H622 N617 0.984 . S
H623 N617 0.985 . S
H624 N621 0.984 . S
H625 N621 0.985 1_554 S
H626 N620 0.984 . S
H627 N620 0.984 . S
H628 N616 0.984 . S
H629 N616 0.985 . S
C630 C631 1.363 . S
C630 C636 1.379 . S
C630 N638 1.356 . S
C631 C630 1.363 . S
C631 C637 1.363 . S
C632 C633 1.363 . S
C632 C637 1.379 . S
C632 N639 1.356 . S
C633 C632 1.363 . S
C633 C636 1.363 . S
N634 C636 1.356 . S
N634 H646 0.984 . S
N634 H647 0.985 . S
N635 C637 1.356 . S
N635 H640 0.984 . S
N635 H641 0.985 . S
C636 C630 1.379 . S
C636 C633 1.363 . S
C636 N634 1.356 . S
C637 C631 1.363 . S
C637 C632 1.379 . S
C637 N635 1.356 . S
N638 C630 1.356 . S
N638 H644 0.984 . S
N638 H645 0.984 . S
N639 C632 1.356 . S
N639 H642 0.984 . S
N639 H643 0.985 . S
H640 N635 0.984 . S
H641 N635 0.985 . S
H642 N639 0.984 . S
H643 N639 0.985 . S
H644 N638 0.984 . S
H645 N638 0.984 . S
H646 N634 0.984 . S
H647 N634 0.985 . S
C648 C649 1.363 . S
C648 C654 1.379 1_554 S
C648 N656 1.356 . S
C649 C648 1.363 . S
C649 C655 1.363 . S
C650 C651 1.363 . S
C650 C655 1.379 1_556 S
C650 N657 1.356 . S
C651 C650 1.363 . S
C651 C654 1.363 . S
N652 C654 1.356 . S
N652 H664 0.984 . S
N652 H665 0.985 . S
N653 C655 1.356 . S
N653 H658 0.984 . S
N653 H659 0.985 . S
C654 C648 1.379 1_556 S
C654 C651 1.363 . S
C654 N652 1.356 . S
C655 C649 1.363 . S
C655 C650 1.379 1_554 S
C655 N653 1.356 . S
N656 C648 1.356 . S
N656 H662 0.984 . S
N656 H663 0.984 . S
N657 C650 1.356 . S
N657 H660 0.984 . S
N657 H661 0.985 . S
H658 N653 0.984 . S
H659 N653 0.985 . S
H660 N657 0.984 . S
H661 N657 0.985 . S
H662 N656 0.984 . S
H663 N656 0.984 . S
H664 N652 0.984 . S
H665 N652 0.985 . S
C666 C667 1.363 . S
C666 C672 1.379 . S
C666 N674 1.356 . S
C667 C666 1.363 . S
C667 C673 1.363 . S
C668 C669 1.363 . S
C668 C673 1.379 . S
C668 N675 1.356 . S
C669 C668 1.363 . S
C669 C672 1.363 . S
N670 C672 1.356 . S
N670 H682 0.984 . S
N670 H683 0.985 . S
N671 C673 1.356 . S
N671 H676 0.984 . S
N671 H677 0.985 . S
C672 C666 1.379 . S
C672 C669 1.363 . S
C672 N670 1.356 . S
C673 C667 1.363 . S
C673 C668 1.379 . S
C673 N671 1.356 . S
N674 C666 1.356 . S
N674 H680 0.984 . S
N674 H681 0.984 . S
N675 C668 1.356 . S
N675 H678 0.984 . S
N675 H679 0.985 . S
H676 N671 0.984 . S
H677 N671 0.985 . S
H678 N675 0.984 . S
H679 N675 0.985 . S
H680 N674 0.984 . S
H681 N674 0.984 . S
H682 N670 0.984 . S
H683 N670 0.985 . S
C684 C685 1.363 . S
C684 C690 1.379 1_556 S
C684 N692 1.356 . S
C685 C684 1.363 . S
C685 C691 1.363 . S
C686 C687 1.363 . S
C686 C691 1.379 1_554 S
C686 N693 1.356 . S
C687 C686 1.363 . S
C687 C690 1.363 . S
N688 C690 1.356 . S
N688 H700 0.984 . S
N688 H701 0.985 . S
N689 C691 1.356 . S
N689 H694 0.984 . S
N689 H695 0.985 . S
C690 C684 1.379 1_554 S
C690 C687 1.363 . S
C690 N688 1.356 . S
C691 C685 1.363 . S
C691 C686 1.379 1_556 S
C691 N689 1.356 . S
N692 C684 1.356 . S
N692 H698 0.984 . S
N692 H699 0.984 . S
N693 C686 1.356 . S
N693 H696 0.984 . S
N693 H697 0.985 . S
H694 N689 0.984 . S
H695 N689 0.985 . S
H696 N693 0.984 . S
H697 N693 0.985 . S
H698 N692 0.984 . S
H699 N692 0.984 . S
H700 N688 0.984 . S
H701 N688 0.985 . S
C702 C703 1.363 . S
C702 C708 1.379 . S
C702 N710 1.356 . S
C703 C702 1.363 . S
C703 C709 1.363 . S
C704 C705 1.363 . S
C704 C709 1.379 . S
C704 N711 1.356 . S
C705 C704 1.363 . S
C705 C708 1.363 . S
N706 C708 1.356 . S
N706 H718 0.984 . S
N706 H719 0.985 . S
N707 C709 1.356 . S
N707 H712 0.984 . S
N707 H713 0.985 . S
C708 C702 1.379 . S
C708 C705 1.363 . S
C708 N706 1.356 . S
C709 C703 1.363 . S
C709 C704 1.379 . S
C709 N707 1.356 . S
N710 C702 1.356 . S
N710 H716 0.984 . S
N710 H717 0.984 . S
N711 C704 1.356 . S
N711 H714 0.984 . S
N711 H715 0.985 . S
H712 N707 0.984 . S
H713 N707 0.985 . S
H714 N711 0.984 . S
H715 N711 0.985 . S
H716 N710 0.984 . S
H717 N710 0.984 . S
H718 N706 0.984 . S
H719 N706 0.985 . S
C720 C721 1.363 . S
C720 C726 1.379 . S
C720 N728 1.356 . S
C721 C720 1.363 . S
C721 C727 1.363 . S
C722 C723 1.363 . S
C722 C727 1.379 . S
C722 N729 1.356 1_455 S
C723 C722 1.363 . S
C723 C726 1.363 . S
N724 C726 1.356 . S
N724 H736 0.984 . S
N724 H737 0.985 . S
N725 C727 1.356 . S
N725 H730 0.984 . S
N725 H731 0.985 . S
C726 C720 1.379 . S
C726 C723 1.363 . S
C726 N724 1.356 . S
C727 C721 1.363 . S
C727 C722 1.379 . S
C727 N725 1.356 . S
N728 C720 1.356 . S
N728 H734 0.984 . S
N728 H735 0.984 . S
N729 C722 1.356 1_655 S
N729 H732 0.984 . S
N729 H733 0.985 . S
H730 N725 0.984 . S
H731 N725 0.985 . S
H732 N729 0.984 . S
H733 N729 0.985 . S
H734 N728 0.984 . S
H735 N728 0.984 . S
H736 N724 0.984 . S
H737 N724 0.985 . S
C738 C739 1.363 . S
C738 C744 1.379 . S
C738 N746 1.356 . S
C739 C738 1.363 . S
C739 C745 1.363 . S
C740 C741 1.363 . S
C740 C745 1.379 . S
C740 N747 1.356 . S
C741 C740 1.363 . S
C741 C744 1.363 . S
N742 C744 1.356 . S
N742 H754 0.984 . S
N742 H755 0.985 . S
N743 C745 1.356 . S
N743 H748 0.984 . S
N743 H749 0.985 . S
C744 C738 1.379 . S
C744 C741 1.363 . S
C744 N742 1.356 . S
C745 C739 1.363 . S
C745 C740 1.379 . S
C745 N743 1.356 . S
N746 C738 1.356 . S
N746 H752 0.984 . S
N746 H753 0.984 . S
N747 C740 1.356 . S
N747 H750 0.984 . S
N747 H751 0.985 . S
H748 N743 0.984 . S
H749 N743 0.985 . S
H750 N747 0.984 . S
H751 N747 0.985 . S
H752 N746 0.984 . S
H753 N746 0.984 . S
H754 N742 0.984 . S
H755 N742 0.985 . S
C756 C757 1.363 . S
C756 C762 1.379 . S
C756 N764 1.356 . S
C757 C756 1.363 . S
C757 C763 1.363 . S
C758 C759 1.363 . S
C758 C763 1.379 . S
C758 N765 1.356 . S
C759 C758 1.363 . S
C759 C762 1.363 . S
N760 C762 1.356 . S
N760 H772 0.984 . S
N760 H773 0.985 . S
N761 C763 1.356 . S
N761 H766 0.984 . S
N761 H767 0.985 . S
C762 C756 1.379 . S
C762 C759 1.363 . S
C762 N760 1.356 . S
C763 C757 1.363 . S
C763 C758 1.379 . S
C763 N761 1.356 . S
N764 C756 1.356 . S
N764 H770 0.984 . S
N764 H771 0.984 . S
N765 C758 1.356 . S
N765 H768 0.984 . S
N765 H769 0.985 . S
H766 N761 0.984 . S
H767 N761 0.985 . S
H768 N765 0.984 . S
H769 N765 0.985 . S
H770 N764 0.984 . S
H771 N764 0.984 . S
H772 N760 0.984 . S
H773 N760 0.985 . S
C774 C775 1.363 . S
C774 C780 1.379 . S
C774 N782 1.356 . S
C775 C774 1.363 . S
C775 C781 1.363 . S
C776 C777 1.363 . S
C776 C781 1.379 . S
C776 N783 1.356 . S
C777 C776 1.363 . S
C777 C780 1.363 . S
N778 C780 1.356 . S
N778 H790 0.984 . S
N778 H791 0.985 . S
N779 C781 1.356 . S
N779 H784 0.984 . S
N779 H785 0.985 . S
C780 C774 1.379 . S
C780 C777 1.363 . S
C780 N778 1.356 . S
C781 C775 1.363 . S
C781 C776 1.379 . S
C781 N779 1.356 . S
N782 C774 1.356 . S
N782 H788 0.984 . S
N782 H789 0.984 . S
N783 C776 1.356 . S
N783 H786 0.984 . S
N783 H787 0.985 . S
H784 N779 0.984 . S
H785 N779 0.985 . S
H786 N783 0.984 . S
H787 N783 0.985 . S
H788 N782 0.984 . S
H789 N782 0.984 . S
H790 N778 0.984 . S
H791 N778 0.985 . S
C792 C793 1.363 . S
C792 C798 1.379 . S
C792 N800 1.356 . S
C793 C792 1.363 . S
C793 C799 1.363 . S
C794 C795 1.363 . S
C794 C799 1.379 . S
C794 N801 1.356 . S
C795 C794 1.363 . S
C795 C798 1.363 . S
N796 C798 1.356 . S
N796 H808 0.984 . S
N796 H809 0.985 . S
N797 C799 1.356 . S
N797 H802 0.984 . S
N797 H803 0.985 . S
C798 C792 1.379 . S
C798 C795 1.363 . S
C798 N796 1.356 . S
C799 C793 1.363 . S
C799 C794 1.379 . S
C799 N797 1.356 . S
N800 C792 1.356 . S
N800 H806 0.984 . S
N800 H807 0.984 . S
N801 C794 1.356 . S
N801 H804 0.984 . S
N801 H805 0.985 1_655 S
H802 N797 0.984 . S
H803 N797 0.985 . S
H804 N801 0.984 . S
H805 N801 0.985 1_455 S
H806 N800 0.984 . S
H807 N800 0.984 . S
H808 N796 0.984 . S
H809 N796 0.985 . S
C810 C811 1.363 . S
C810 C816 1.379 . S
C810 N818 1.356 . S
C811 C810 1.363 . S
C811 C817 1.363 . S
C812 C813 1.363 . S
C812 C817 1.379 . S
C812 N819 1.356 . S
C813 C812 1.363 . S
C813 C816 1.363 . S
N814 C816 1.356 . S
N814 H826 0.984 . S
N814 H827 0.985 . S
N815 C817 1.356 . S
N815 H820 0.984 . S
N815 H821 0.985 . S
C816 C810 1.379 . S
C816 C813 1.363 . S
C816 N814 1.356 . S
C817 C811 1.363 . S
C817 C812 1.379 . S
C817 N815 1.356 . S
N818 C810 1.356 . S
N818 H824 0.984 . S
N818 H825 0.984 . S
N819 C812 1.356 . S
N819 H822 0.984 . S
N819 H823 0.985 . S
H820 N815 0.984 . S
H821 N815 0.985 . S
H822 N819 0.984 . S
H823 N819 0.985 . S
H824 N818 0.984 . S
H825 N818 0.984 . S
H826 N814 0.984 . S
H827 N814 0.985 . S
C828 C829 1.363 . S
C828 C834 1.379 . S
C828 N836 1.356 . S
C829 C828 1.363 . S
C829 C835 1.363 . S
C830 C831 1.363 . S
C830 C835 1.379 . S
C830 N837 1.356 . S
C831 C830 1.363 . S
C831 C834 1.363 . S
N832 C834 1.356 . S
N832 H844 0.984 . S
N832 H845 0.985 . S
N833 C835 1.356 . S
N833 H838 0.984 . S
N833 H839 0.985 . S
C834 C828 1.379 . S
C834 C831 1.363 . S
C834 N832 1.356 . S
C835 C829 1.363 . S
C835 C830 1.379 . S
C835 N833 1.356 . S
N836 C828 1.356 . S
N836 H842 0.984 . S
N836 H843 0.984 . S
N837 C830 1.356 . S
N837 H840 0.984 . S
N837 H841 0.985 . S
H838 N833 0.984 . S
H839 N833 0.985 . S
H840 N837 0.984 . S
H841 N837 0.985 . S
H842 N836 0.984 . S
H843 N836 0.984 . S
H844 N832 0.984 . S
H845 N832 0.985 . S
C846 C847 1.363 . S
C846 C852 1.379 . S
C846 N854 1.356 . S
C847 C846 1.363 . S
C847 C853 1.363 . S
C848 C849 1.363 . S
C848 C853 1.379 . S
C848 N855 1.356 . S
C849 C848 1.363 . S
C849 C852 1.363 . S
N850 C852 1.356 . S
N850 H862 0.984 . S
N850 H863 0.985 . S
N851 C853 1.356 . S
N851 H856 0.984 . S
N851 H857 0.985 . S
C852 C846 1.379 . S
C852 C849 1.363 . S
C852 N850 1.356 . S
C853 C847 1.363 . S
C853 C848 1.379 . S
C853 N851 1.356 . S
N854 C846 1.356 . S
N854 H860 0.984 . S
N854 H861 0.984 . S
N855 C848 1.356 . S
N855 H858 0.984 . S
N855 H859 0.985 . S
H856 N851 0.984 . S
H857 N851 0.985 . S
H858 N855 0.984 . S
H859 N855 0.985 . S
H860 N854 0.984 . S
H861 N854 0.984 . S
H862 N850 0.984 . S
H863 N850 0.985 . S
C433 C81 1.677 . S
C435 C170 1.666 1_565 S
C453 C254 1.666 . S
C451 C93 1.677 . S
C471 C247 1.664 . S
C469 C57 1.675 . S
C487 C69 1.675 . S
C489 C163 1.664 1_565 S
C507 C327 1.666 1_545 S
C505 C33 1.672 . S
C525 C411 1.666 . S
C523 C45 1.672 . S
C541 C9 1.668 . S
C543 C404 1.664 . S
C559 C21 1.668 . S
C561 C320 1.664 1_545 S
C579 C154 1.447 . S
C577 C18 1.603 . S
C597 C238 1.447 . S
C595 C6 1.603 . S
C615 C249 1.367 . S
C613 C42 1.603 . S
C633 C165 1.366 . S
C631 C30 1.603 . S
C651 C333 1.447 . S
C649 C66 1.611 . S
C667 C54 1.612 . S
C669 C417 1.447 . S
C687 C406 1.367 . S
C685 C90 1.610 . S
C703 C78 1.610 . S
C705 C322 1.367 . S
C723 C152 1.521 . S
C721 C4 1.504 . S
C741 C236 1.521 . S
C739 C16 1.504 . S
C757 C28 1.500 . S
C759 C243 1.491 . S
C777 C159 1.491 . S
C775 C40 1.501 . S
C795 C331 1.521 . S
C793 C52 1.498 . S
C811 C64 1.498 . S
C813 C415 1.521 . S
C829 C76 1.495 . S
C831 C422 1.491 . S
C847 C88 1.495 . S
C849 C338 1.491 . S
