# Generated by pormake.
# Topology hwx, (6,3)-cn, num edge types: 1
# Building blocks:
#     Node 0, Type 0, BuildingBlock: IZENUY_clean_sbu_0, # of connection points: 6
#     Node 1, Type 0, BuildingBlock: IZENUY_clean_sbu_0, # of connection points: 6
#     Node 2, Type 0, BuildingBlock: IZENUY_clean_sbu_0, # of connection points: 6
#     Node 3, Type 0, BuildingBlock: IZENUY_clean_sbu_0, # of connection points: 6
#     Node 4, Type 1, BuildingBlock: QEWDON_clean_linker_0, # of connection points: 3
#     Node 5, Type 1, BuildingBlock: QEWDON_clean_linker_0, # of connection points: 3
#     Node 6, Type 1, BuildingBlock: QEWDON_clean_linker_0, # of connection points: 3
#     Node 7, Type 1, BuildingBlock: QEWDON_clean_linker_0, # of connection points: 3
#     Node 8, Type 1, BuildingBlock: QEWDON_clean_linker_0, # of connection points: 3
#     Node 9, Type 1, BuildingBlock: QEWDON_clean_linker_0, # of connection points: 3
#     Node 10, Type 1, BuildingBlock: QEWDON_clean_linker_0, # of connection points: 3
#     Node 11, Type 1, BuildingBlock: QEWDON_clean_linker_0, # of connection points: 3
#     Edge 12, Type (0, 1), BuildingBlock: UVAHIK_clean_linker_0, # of connection points: 2
#     Edge 13, Type (0, 1), BuildingBlock: UVAHIK_clean_linker_0, # of connection points: 2
#     Edge 14, Type (0, 1), BuildingBlock: UVAHIK_clean_linker_0, # of connection points: 2
#     Edge 15, Type (0, 1), BuildingBlock: UVAHIK_clean_linker_0, # of connection points: 2
#     Edge 16, Type (0, 1), BuildingBlock: UVAHIK_clean_linker_0, # of connection points: 2
#     Edge 17, Type (0, 1), BuildingBlock: UVAHIK_clean_linker_0, # of connection points: 2
#     Edge 18, Type (0, 1), BuildingBlock: UVAHIK_clean_linker_0, # of connection points: 2
#     Edge 19, Type (0, 1), BuildingBlock: UVAHIK_clean_linker_0, # of connection points: 2
#     Edge 20, Type (0, 1), BuildingBlock: UVAHIK_clean_linker_0, # of connection points: 2
#     Edge 21, Type (0, 1), BuildingBlock: UVAHIK_clean_linker_0, # of connection points: 2
#     Edge 22, Type (0, 1), BuildingBlock: UVAHIK_clean_linker_0, # of connection points: 2
#     Edge 23, Type (0, 1), BuildingBlock: UVAHIK_clean_linker_0, # of connection points: 2
#     Edge 24, Type (0, 1), BuildingBlock: UVAHIK_clean_linker_0, # of connection points: 2
#     Edge 25, Type (0, 1), BuildingBlock: UVAHIK_clean_linker_0, # of connection points: 2
#     Edge 26, Type (0, 1), BuildingBlock: UVAHIK_clean_linker_0, # of connection points: 2
#     Edge 27, Type (0, 1), BuildingBlock: UVAHIK_clean_linker_0, # of connection points: 2
#     Edge 28, Type (0, 1), BuildingBlock: UVAHIK_clean_linker_0, # of connection points: 2
#     Edge 29, Type (0, 1), BuildingBlock: UVAHIK_clean_linker_0, # of connection points: 2
#     Edge 30, Type (0, 1), BuildingBlock: UVAHIK_clean_linker_0, # of connection points: 2
#     Edge 31, Type (0, 1), BuildingBlock: UVAHIK_clean_linker_0, # of connection points: 2
#     Edge 32, Type (0, 1), BuildingBlock: UVAHIK_clean_linker_0, # of connection points: 2
#     Edge 33, Type (0, 1), BuildingBlock: UVAHIK_clean_linker_0, # of connection points: 2
#     Edge 34, Type (0, 1), BuildingBlock: UVAHIK_clean_linker_0, # of connection points: 2
#     Edge 35, Type (0, 1), BuildingBlock: UVAHIK_clean_linker_0, # of connection points: 2
# Relax obj value: 0.005
# Max RMSD: 0.122
# Mean RMSD: 0.093
data_MOF--net-hwx--node1-IZENUY_clean_sbu_0--node2-QEWDON_clean_linker_0--edge1-UVAHIK_clean_linker_0
_symmetry_space_group_name_H-M    P1
_symmetry_Int_Tables_number       1
_symmetry_cell_setting            triclinic
loop_
_symmetry_equiv_pos_as_xyz
'x, y, z'
_cell_length_a     69.621211
_cell_length_b     69.573997
_cell_length_c     26.142584
_cell_angle_alpha  92.031685
_cell_angle_beta   92.166461
_cell_angle_gamma 89.954616
loop_
_atom_site_label
_atom_site_type_symbol
_atom_site_fract_x
_atom_site_fract_y
_atom_site_fract_z
_atom_type_partial_charge
Fe0 Fe 0.229 0.2381 0.0569 0.0
Fe1 Fe 0.22771 0.23866 0.93934 0.0
O2 O 0.21936 0.22942 0.99677 0.0
Fe3 Fe 0.20138 0.21134 0.99414 0.0
O4 O 0.1906 0.21922 0.05421 0.0
O5 O 0.2055 0.24615 0.07702 0.0
O6 O 0.23312 0.26273 0.03619 0.0
C7 C 0.22628 0.27185 0.99851 0.0
C8 C 0.22521 0.19793 0.07012 0.0
O9 O 0.22063 0.26299 0.95776 0.0
C10 C 0.22465 0.20039 0.91185 0.0
O11 O 0.25311 0.23065 0.04094 0.0
O12 O 0.25254 0.2427 0.96426 0.0
O13 O 0.21723 0.1946 0.02659 0.0
O14 O 0.22674 0.21501 0.08846 0.0
C15 C 0.18737 0.23483 0.92011 0.0
O16 O 0.23548 0.21491 0.91693 0.0
O17 O 0.20872 0.20012 0.93347 0.0
C18 C 0.26177 0.23591 0.00228 0.0
O19 O 0.20428 0.23646 0.90425 0.0
O20 O 0.18439 0.22682 0.9616 0.0
C21 C 0.19098 0.23534 0.07823 0.0
Fe22 Fe 0.27912 0.73958 0.57364 0.0
Fe23 Fe 0.30489 0.71099 0.5161 0.0
O24 O 0.28745 0.72955 0.5153 0.0
Fe25 Fe 0.27836 0.73795 0.45594 0.0
O26 O 0.27457 0.76284 0.47961 0.0
O27 O 0.2869 0.76355 0.55825 0.0
O28 O 0.30235 0.73716 0.60906 0.0
C29 C 0.31926 0.73493 0.59334 0.0
C30 C 0.24529 0.73691 0.50919 0.0
O31 O 0.32218 0.72628 0.55115 0.0
C32 C 0.2812 0.6976 0.43745 0.0
O33 O 0.27066 0.71627 0.59318 0.0
O34 O 0.29694 0.70048 0.57493 0.0
O35 O 0.25401 0.73114 0.47006 0.0
O36 O 0.25449 0.74391 0.54834 0.0
C37 C 0.31646 0.7341 0.43592 0.0
O38 O 0.28868 0.69442 0.48101 0.0
O39 O 0.28036 0.71457 0.42132 0.0
C40 C 0.28091 0.70135 0.59604 0.0
O41 O 0.31618 0.71809 0.45746 0.0
O42 O 0.30221 0.74531 0.43798 0.0
C43 C 0.28155 0.77215 0.51848 0.0
Fe44 Fe 0.77919 0.78868 0.95406 0.0
Fe45 Fe 0.77953 0.78916 0.07176 0.0
O46 O 0.78824 0.79797 0.0142 0.0
Fe47 Fe 0.80607 0.81616 0.01685 0.0
O48 O 0.79766 0.82738 0.95785 0.0
O49 O 0.77083 0.81234 0.93517 0.0
O50 O 0.75479 0.78436 0.97585 0.0
C51 C 0.74597 0.79108 0.01409 0.0
C52 C 0.81917 0.79283 0.93951 0.0
O53 O 0.7551 0.79644 0.05477 0.0
C54 C 0.81802 0.79205 0.0966 0.0
O55 O 0.78685 0.76443 0.96878 0.0
O56 O 0.77523 0.76454 0.04583 0.0
O57 O 0.82269 0.80078 0.98293 0.0
O58 O 0.80202 0.79125 0.92161 0.0
C59 C 0.78321 0.82929 0.09306 0.0
O60 O 0.80342 0.78126 0.09265 0.0
O61 O 0.81787 0.80828 0.07627 0.0
C62 C 0.78182 0.75553 0.00734 0.0
O63 O 0.78218 0.8122 0.10809 0.0
O64 O 0.79055 0.83273 0.05099 0.0
C65 C 0.78136 0.82709 0.93477 0.0
Fe66 Fe 0.7008 0.317 0.512 0.0
Fe67 Fe 0.72777 0.2901 0.57101 0.0
O68 O 0.71872 0.29887 0.51205 0.0
Fe69 Fe 0.72739 0.28964 0.45318 0.0
O70 O 0.72514 0.31271 0.42072 0.0
O71 O 0.71639 0.33345 0.48103 0.0
O72 O 0.70879 0.32844 0.57339 0.0
C73 C 0.72503 0.3284 0.59667 0.0
C74 C 0.68912 0.29295 0.42719 0.0
O75 O 0.73589 0.31395 0.59297 0.0
C76 C 0.72523 0.2564 0.51336 0.0
O77 O 0.68414 0.30157 0.54287 0.0
O78 O 0.70478 0.29267 0.60329 0.0
O79 O 0.70341 0.28185 0.43099 0.0
O80 O 0.6893 0.30915 0.45065 0.0
C81 C 0.76103 0.29188 0.51133 0.0
O82 O 0.72044 0.26564 0.55329 0.0
O83 O 0.73134 0.2651 0.47538 0.0
C84 C 0.68765 0.29392 0.58526 0.0
O85 O 0.75224 0.28589 0.54922 0.0
O86 O 0.75195 0.29657 0.47095 0.0
C87 C 0.72388 0.32989 0.4385 0.0
H88 H 0.26926 0.52922 0.07106 0.0
C89 C 0.26409 0.53537 0.03559 0.0
C90 C 0.25712 0.55435 0.03567 0.0
C91 C 0.2658 0.5247 0.9893 0.0
H92 H 0.24579 0.57676 0.98834 0.0
C93 C 0.2512 0.56216 0.98878 0.0
C94 C 0.25355 0.55202 0.94206 0.0
C95 C 0.26079 0.53316 0.94262 0.0
C96 C 0.27585 0.50601 0.98945 0.0
H97 H 0.26316 0.5253 0.90686 0.0
C98 C 0.26576 0.48857 0.99241 0.0
C99 C 0.27589 0.47104 0.99535 0.0
C100 C 0.29597 0.50583 0.98841 0.0
H101 H 0.30391 0.51915 0.98617 0.0
C102 C 0.306 0.48852 0.99071 0.0
H103 H 0.25022 0.48869 0.9936 0.0
C104 C 0.29608 0.47125 0.99439 0.0
H105 H 0.3042 0.45798 0.99608 0.0
H106 H 0.32153 0.4885 0.9899 0.0
H107 H 0.98991 0.74286 0.44534 0.0
C108 C 0.98218 0.74603 0.47986 0.0
C109 C 0.96459 0.75598 0.47689 0.0
C110 C 0.98928 0.73922 0.52697 0.0
H111 H 0.94062 0.76651 0.51955 0.0
C112 C 0.95441 0.75929 0.5217 0.0
C113 C 0.96115 0.75236 0.56879 0.0
C114 C 0.97873 0.74251 0.57132 0.0
C115 C 1.00602 0.72612 0.52855 0.0
H116 H 0.98376 0.73655 0.60718 0.0
C117 C 0.0246 0.7324 0.51741 0.0
C118 C 0.04014 0.71937 0.51818 0.0
C119 C 1.00314 0.70686 0.54063 0.0
H120 H 0.98895 0.70177 0.54918 0.0
C121 C 0.01844 0.69394 0.54099 0.0
H122 H 0.02693 0.74727 0.5083 0.0
C123 C 0.03681 0.7001 0.52974 0.0
H124 H 0.04852 0.68984 0.53103 0.0
H125 H 0.01607 0.6791 0.55017 0.0
H126 H 0.77929 0.49845 0.95388 0.0
C127 C 0.77414 0.49194 0.98786 0.0
C128 C 0.76316 0.475 0.98311 0.0
C129 C 0.77932 0.49993 0.03653 0.0
H130 H 0.74927 0.45285 0.02365 0.0
C131 C 0.75708 0.46634 0.02738 0.0
C132 C 0.7625 0.47388 0.07633 0.0
C133 C 0.77366 0.49075 0.08058 0.0
C134 C 0.79284 0.51632 0.04146 0.0
H135 H 0.77826 0.49655 0.11809 0.0
C136 C 0.78718 0.53499 0.02808 0.0
C137 C 0.80055 0.55026 0.03209 0.0
C138 C 0.81179 0.51304 0.05914 0.0
H139 H 0.81636 0.49877 0.0696 0.0
C140 C 0.82506 0.52807 0.06276 0.0
H141 H 0.77253 0.5376 0.01464 0.0
C142 C 0.81953 0.54653 0.04922 0.0
H143 H 0.83004 0.55803 0.05309 0.0
H144 H 0.83968 0.5254 0.07625 0.0
H145 H 0.01349 0.25478 0.56402 0.0
C146 C 0.02167 0.25751 0.53057 0.0
C147 C 0.04083 0.26399 0.5365 0.0
C148 C 0.01346 0.25341 0.4814 0.0
H149 H 0.06653 0.27044 0.49694 0.0
C150 C 0.05145 0.26662 0.49258 0.0
C151 C 0.04348 0.2626 0.44329 0.0
C152 C 0.02438 0.25619 0.43811 0.0
C153 C 0.99465 0.24351 0.47475 0.0
H154 H 0.01811 0.25272 0.40032 0.0
C155 C 0.97751 0.25199 0.49173 0.0
C156 C 0.95976 0.24233 0.48309 0.0
C157 C 0.99395 0.22531 0.44978 0.0
H158 H 1.00697 0.21851 0.4366 0.0
C159 C 0.97654 0.21568 0.44159 0.0
H160 H 0.97799 0.26604 0.511 0.0
C161 C 0.95957 0.22411 0.45783 0.0
H162 H 0.9462 0.21646 0.44962 0.0
H163 H 0.97616 0.20168 0.4221 0.0
H164 H 0.76591 0.99788 0.45285 0.0
C165 C 0.76088 0.992 0.48777 0.0
C166 C 0.75434 0.97288 0.48771 0.0
C167 C 0.76242 1.00316 0.53361 0.0
H168 H 0.74384 0.95061 0.53449 0.0
C169 C 0.74877 0.96536 0.5341 0.0
C170 C 0.75098 0.97599 0.58064 0.0
C171 C 0.75763 0.99507 0.57995 0.0
C172 C 0.77244 0.02186 0.5341 0.0
H173 H 0.75991 1.00335 0.61557 0.0
C174 C 0.76229 0.03931 0.53042 0.0
C175 C 0.7724 0.0568 0.52775 0.0
C176 C 0.79259 0.02201 0.53628 0.0
H177 H 0.80058 0.00868 0.53907 0.0
C178 C 0.8026 0.03929 0.53442 0.0
H179 H 0.74672 0.03923 0.52827 0.0
C180 C 0.79262 0.05656 0.52992 0.0
H181 H 0.80072 0.06981 0.52845 0.0
H182 H 0.81816 0.03929 0.53612 0.0
H183 H 0.5172 0.23977 0.06882 0.0
C184 C 0.52467 0.24413 0.03548 0.0
C185 C 0.54186 0.25464 0.04188 0.0
C186 C 0.51772 0.23835 0.98609 0.0
H187 H 0.5654 0.26723 0.00399 0.0
C188 C 0.55193 0.25946 0.99875 0.0
C189 C 0.54557 0.25324 0.94937 0.0
C190 C 0.52825 0.24292 0.9432 0.0
C191 C 0.50112 0.22514 0.97969 0.0
H192 H 0.52344 0.23758 0.9054 0.0
C193 C 0.48244 0.23103 0.99213 0.0
C194 C 0.46698 0.21793 0.98662 0.0
C195 C 0.50418 0.2062 0.96151 0.0
H196 H 0.51845 0.20142 0.95181 0.0
C197 C 0.48895 0.1932 0.95644 0.0
H198 H 0.47997 0.24566 0.00593 0.0
C199 C 0.47048 0.19897 0.96901 0.0
H200 H 0.45883 0.18868 0.96406 0.0
H201 H 0.49146 0.1786 0.94258 0.0
H202 H 0.27642 0.02753 0.56778 0.0
C203 C 0.27199 0.03503 0.53365 0.0
C204 C 0.26175 0.05238 0.53822 0.0
C205 C 0.2775 0.02797 0.48529 0.0
H206 H 0.24934 0.07607 0.49788 0.0
C207 C 0.25686 0.06246 0.49411 0.0
C208 C 0.26276 0.05596 0.44577 0.0
C209 C 0.27284 0.03851 0.44152 0.0
C210 C 0.29062 0.01128 0.48133 0.0
H211 H 0.27796 0.0336 0.40463 0.0
C212 C 0.285 0.99276 0.49515 0.0
C213 C 0.29807 0.97728 0.4922 0.0
C214 C 0.30926 0.01415 0.46437 0.0
H215 H 0.31386 0.02829 0.45372 0.0
C216 C 0.32224 0.99891 0.46184 0.0
H217 H 0.2706 0.99042 0.50802 0.0
C218 C 0.31674 0.98062 0.47577 0.0
H219 H 0.32699 0.96894 0.47278 0.0
H220 H 0.3366 1.00128 0.44892 0.0
H221 H 0.49401 0.75795 0.94975 0.0
C222 C 0.48524 0.75909 0.98312 0.0
C223 C 0.4659 0.76483 0.9777 0.0
C224 C 0.49292 0.75362 0.03103 0.0
H225 H 0.43942 0.76908 0.01683 0.0
C226 C 0.45451 0.76534 0.02091 0.0
C227 C 0.46185 0.75968 0.06867 0.0
C228 C 0.48117 0.75408 0.07373 0.0
C229 C 0.51208 0.74445 0.03486 0.0
H230 H 0.48678 0.74904 0.11011 0.0
C231 C 0.529 0.75452 0.02466 0.0
C232 C 0.54694 0.74511 0.02721 0.0
C233 C 0.51329 0.72507 0.04787 0.0
H234 H 0.50044 0.71706 0.05567 0.0
C235 C 0.531 0.71572 0.05003 0.0
H236 H 0.5282 0.76951 0.01481 0.0
C237 C 0.54772 0.72563 0.03961 0.0
H238 H 0.56135 0.71814 0.04204 0.0
H239 H 0.53177 0.70075 0.05984 0.0
C240 C 0.17554 0.2569 0.14461 0.0
C241 C 0.17489 0.24041 0.11182 0.0
C242 C 0.16051 0.2609 0.17762 0.0
C243 C 0.12158 0.23627 0.24111 0.0
H244 H 0.10096 0.28745 0.265 0.0
C245 C 0.0552 0.24767 0.36136 0.0
C246 C 0.05599 0.26285 0.39833 0.0
C247 C 0.06868 0.24638 0.32315 0.0
C248 C 0.10667 0.2731 0.259 0.0
H249 H 0.15754 0.21566 0.08669 0.0
H250 H 0.13154 0.22269 0.14361 0.0
H251 H 0.12698 0.28255 0.20545 0.0
H252 H 0.07093 0.2892 0.42214 0.0
H253 H 0.09473 0.28672 0.35605 0.0
H254 H 0.10159 0.22675 0.29478 0.0
C255 C 0.14377 0.23233 0.14467 0.0
C256 C 0.12158 0.2703 0.22496 0.0
C257 C 0.15869 0.22835 0.11184 0.0
C258 C 0.07005 0.2772 0.39461 0.0
C259 C 0.0836 0.27587 0.35643 0.0
C260 C 0.10676 0.23905 0.27505 0.0
C261 C 0.14459 0.24847 0.17849 0.0
C262 C 0.1291 0.25181 0.21541 0.0
C263 C 0.08337 0.26017 0.32106 0.0
C264 C 0.09901 0.25746 0.28422 0.0
H265 H 0.18777 0.26652 0.14543 0.0
H266 H 0.16161 0.27341 0.2034 0.0
H267 H 0.12732 0.2219 0.2355 0.0
H268 H 0.04471 0.23625 0.36324 0.0
H269 H 0.06786 0.23429 0.2959 0.0
C270 C 0.25743 0.68513 0.6518 0.0
C271 C 0.2749 0.68491 0.62649 0.0
C272 C 0.252 0.66938 0.68004 0.0
C273 C 0.2626 0.61747 0.6979 0.0
H274 H 0.24218 0.62713 0.83223 0.0
C275 C 0.26575 0.56242 0.85836 0.0
C276 C 0.25101 0.56251 0.89365 0.0
C277 C 0.26558 0.5756 0.81914 0.0
C278 C 0.24752 0.62411 0.79441 0.0
H279 H 0.30026 0.6678 0.61084 0.0
H280 H 0.29099 0.64073 0.66033 0.0
H281 H 0.24778 0.65399 0.77745 0.0
H282 H 0.2237 0.57533 0.9127 0.0
H283 H 0.2233 0.59822 0.84398 0.0
H284 H 0.26285 0.58762 0.71558 0.0
C285 C 0.28129 0.65287 0.65787 0.0
C286 C 0.25075 0.63955 0.76297 0.0
C287 C 0.2867 0.66854 0.6298 0.0
C288 C 0.23538 0.57508 0.88648 0.0
C289 C 0.23522 0.58826 0.84731 0.0
C290 C 0.2594 0.60203 0.72939 0.0
C291 C 0.26389 0.65305 0.6834 0.0
C292 C 0.25867 0.63647 0.71471 0.0
C293 C 0.25065 0.58915 0.81433 0.0
C294 C 0.25212 0.60519 0.77839 0.0
H295 H 0.24793 0.69744 0.64981 0.0
H296 H 0.23842 0.66993 0.69892 0.0
H297 H 0.26837 0.61453 0.66053 0.0
H298 H 0.2781 0.55309 0.86319 0.0
H299 H 0.27777 0.57595 0.79465 0.0
C300 C 0.83406 0.77288 0.16616 0.0
C301 C 0.83512 0.78668 0.12843 0.0
C302 C 0.85017 0.76893 0.19787 0.0
C303 C 0.89667 0.79077 0.24398 0.0
H304 H 0.90605 0.74021 0.29719 0.0
C305 C 0.94549 0.77855 0.42236 0.0
C306 C 0.9553 0.761 0.42698 0.0
C307 C 0.93329 0.78173 0.37988 0.0
C308 C 0.90388 0.75437 0.28208 0.0
H309 H 0.85418 0.80636 0.09247 0.0
H310 H 0.88223 0.79911 0.14635 0.0
H311 H 0.87982 0.74474 0.23451 0.0
H312 H 0.96098 0.73352 0.3889 0.0
H313 H 0.94015 0.73932 0.31372 0.0
H314 H 0.92089 0.80035 0.29079 0.0
C315 C 0.86888 0.79179 0.15294 0.0
C316 C 0.88859 0.75703 0.24669 0.0
C317 C 0.85278 0.79589 0.12181 0.0
C318 C 0.95371 0.74724 0.38636 0.0
C319 C 0.94152 0.75045 0.34365 0.0
C320 C 0.91202 0.78809 0.27902 0.0
C321 C 0.86774 0.77853 0.19206 0.0
C322 C 0.88462 0.77533 0.22768 0.0
C323 C 0.93067 0.76749 0.34068 0.0
C324 C 0.91565 0.76992 0.29921 0.0
H325 H 0.82066 0.76555 0.1722 0.0
H326 H 0.84866 0.75877 0.22788 0.0
H327 H 0.89399 0.80514 0.23079 0.0
H328 H 0.94654 0.78949 0.45286 0.0
H329 H 0.92513 0.79498 0.37928 0.0
C330 C 0.71611 0.35757 0.64903 0.0
C331 C 0.73036 0.34483 0.63195 0.0
C332 C 0.72087 0.37321 0.68196 0.0
C333 C 0.75958 0.39205 0.77211 0.0
H334 H 0.72924 0.43875 0.76503 0.0
C335 C 0.77572 0.45895 0.90414 0.0
C336 C 0.75995 0.46473 0.93293 0.0
C337 C 0.77315 0.4462 0.86182 0.0
C338 C 0.73785 0.4258 0.7673 0.0
H339 H 0.76089 0.33869 0.63547 0.0
H340 H 0.76937 0.36642 0.69174 0.0
H341 H 0.72336 0.41266 0.70161 0.0
H342 H 0.72911 0.46257 0.93888 0.0
H343 H 0.72451 0.44074 0.86384 0.0
H344 H 0.7742 0.40548 0.83759 0.0
C345 C 0.75439 0.36404 0.68078 0.0
C346 C 0.73442 0.41076 0.73125 0.0
C347 C 0.74956 0.34817 0.64833 0.0
C348 C 0.74145 0.45839 0.91706 0.0
C349 C 0.73884 0.44594 0.8742 0.0
C350 C 0.76323 0.40724 0.80763 0.0
C351 C 0.74008 0.37679 0.69812 0.0
C352 C 0.74494 0.39348 0.73379 0.0
C353 C 0.75473 0.4393 0.84706 0.0
C354 C 0.75216 0.42412 0.80612 0.0
H355 H 0.70114 0.35533 0.63752 0.0
H356 H 0.70935 0.38232 0.69535 0.0
H357 H 0.76783 0.37894 0.77594 0.0
H358 H 0.79015 0.46345 0.91602 0.0
H359 H 0.78561 0.44136 0.84137 0.0
C360 C 0.66947 0.2692 0.37208 0.0
C361 C 0.6727 0.28811 0.39128 0.0
C362 C 0.65372 0.26499 0.33849 0.0
C363 C 0.62203 0.28744 0.24347 0.0
H364 H 0.58646 0.24586 0.26443 0.0
C365 C 0.55585 0.27738 0.10908 0.0
C366 C 0.55116 0.25848 0.09295 0.0
C367 C 0.5686 0.28089 0.15092 0.0
C368 C 0.59635 0.25741 0.25766 0.0
H369 H 0.66188 0.31739 0.39017 0.0
H370 H 0.63482 0.31009 0.3312 0.0
H371 H 0.6138 0.2514 0.32476 0.0
H372 H 0.55542 0.22843 0.10853 0.0
H373 H 0.57814 0.23439 0.18074 0.0
H374 H 0.60529 0.2932 0.17579 0.0
C375 C 0.64438 0.29852 0.34221 0.0
C376 C 0.612 0.26056 0.29227 0.0
C377 C 0.65987 0.30267 0.37617 0.0
C378 C 0.55861 0.24315 0.12093 0.0
C379 C 0.57166 0.24662 0.16228 0.0
C380 C 0.60661 0.28416 0.20861 0.0
C381 C 0.64114 0.27968 0.3229 0.0
C382 C 0.62491 0.2757 0.28563 0.0
C383 C 0.57735 0.26553 0.17672 0.0
C384 C 0.59344 0.26919 0.21529 0.0
H385 H 0.67904 0.25766 0.38322 0.0
H386 H 0.65158 0.25035 0.32393 0.0
H387 H 0.63192 0.29905 0.23702 0.0
H388 H 0.55031 0.28941 0.08782 0.0
H389 H 0.57215 0.29566 0.16176 0.0
C390 C 0.21535 0.17123 0.85803 0.0
C391 C 0.22976 0.18389 0.87761 0.0
C392 C 0.21993 0.1553 0.82688 0.0
C393 C 0.25866 0.13503 0.74665 0.0
H394 H 0.22748 0.08892 0.74993 0.0
C395 C 0.27415 0.06727 0.62122 0.0
C396 C 0.25842 0.06178 0.58878 0.0
C397 C 0.27162 0.08 0.66307 0.0
C398 C 0.23633 0.10168 0.74878 0.0
H399 H 0.26035 0.18962 0.88024 0.0
H400 H 0.26854 0.16141 0.82713 0.0
H401 H 0.22177 0.11571 0.81015 0.0
H402 H 0.22765 0.06434 0.57596 0.0
H403 H 0.22309 0.08609 0.65023 0.0
H404 H 0.27332 0.12073 0.68554 0.0
C405 C 0.25356 0.16406 0.83472 0.0
C406 C 0.23299 0.11715 0.78296 0.0
C407 C 0.24892 0.18023 0.86533 0.0
C408 C 0.23995 0.06824 0.60076 0.0
C409 C 0.23737 0.08068 0.64314 0.0
C410 C 0.2622 0.11943 0.71309 0.0
C411 C 0.23912 0.15134 0.81508 0.0
C412 C 0.24382 0.13423 0.78164 0.0
C413 C 0.25327 0.08719 0.67366 0.0
C414 C 0.25084 0.10275 0.71319 0.0
H415 H 0.2004 0.17372 0.86637 0.0
H416 H 0.2083 0.14625 0.81153 0.0
H417 H 0.26714 0.14795 0.74377 0.0
H418 H 0.28856 0.06269 0.61229 0.0
H419 H 0.28409 0.08474 0.68617 0.0
C420 C 0.33319 0.75496 0.37426 0.0
C421 C 0.33294 0.73847 0.40387 0.0
C422 C 0.3485 0.75824 0.34232 0.0
C423 C 0.3854 0.73152 0.2727 0.0
H424 H 0.40848 0.7815 0.25569 0.0
C425 C 0.45268 0.76556 0.16027 0.0
C426 C 0.44855 0.75748 0.11106 0.0
C427 C 0.4395 0.76383 0.19914 0.0
C428 C 0.40227 0.76743 0.26045 0.0
H429 H 0.34908 0.71299 0.42471 0.0
H430 H 0.37554 0.71873 0.3694 0.0
H431 H 0.38358 0.77793 0.31868 0.0
H432 H 0.4278 0.74079 0.0643 0.0
H433 H 0.40498 0.73768 0.1318 0.0
H434 H 0.40385 0.72099 0.21444 0.0
C435 C 0.3638 0.72896 0.37016 0.0
C436 C 0.3879 0.76544 0.29605 0.0
C437 C 0.34861 0.72571 0.402 0.0
C438 C 0.43126 0.74734 0.10173 0.0
C439 C 0.41827 0.74543 0.14048 0.0
C440 C 0.39958 0.73354 0.23698 0.0
C441 C 0.36381 0.74507 0.33932 0.0
C442 C 0.37928 0.74744 0.30241 0.0
C443 C 0.42218 0.75369 0.18955 0.0
C444 C 0.40806 0.75153 0.23013 0.0
H445 H 0.32141 0.76513 0.37499 0.0
H446 H 0.34807 0.77075 0.3188 0.0
H447 H 0.37892 0.7175 0.27628 0.0
H448 H 0.46592 0.77345 0.16835 0.0
H449 H 0.44292 0.77022 0.23675 0.0
C450 C 0.78703 0.86056 0.90719 0.0
C451 C 0.7756 0.84387 0.90414 0.0
C452 C 0.78236 0.87631 0.87767 0.0
C453 C 0.74339 0.8993 0.80173 0.0
H454 H 0.78604 0.92276 0.73596 0.0
C455 C 0.735 0.95183 0.63454 0.0
C456 C 0.74937 0.96579 0.62947 0.0
C457 C 0.73626 0.93886 0.67424 0.0
C458 C 0.77398 0.91669 0.75477 0.0
H459 H 0.74985 0.83096 0.86858 0.0
H460 H 0.74177 0.85857 0.81618 0.0
H461 H 0.79195 0.89594 0.79117 0.0
H462 H 0.77542 0.97809 0.66505 0.0
H463 H 0.77719 0.95603 0.73526 0.0
H464 H 0.72539 0.92004 0.76448 0.0
C465 C 0.75433 0.85941 0.84188 0.0
C466 C 0.77737 0.9012 0.78634 0.0
C467 C 0.75902 0.84355 0.87165 0.0
C468 C 0.76405 0.96759 0.66774 0.0
C469 C 0.76525 0.95471 0.7076 0.0
C470 C 0.73997 0.9149 0.77005 0.0
C471 C 0.76613 0.87586 0.84406 0.0
C472 C 0.76215 0.89231 0.81029 0.0
C473 C 0.75186 0.93964 0.71001 0.0
C474 C 0.75526 0.92379 0.7462 0.0
H475 H 0.79976 0.8615 0.93232 0.0
H476 H 0.79154 0.88889 0.88113 0.0
H477 H 0.73137 0.89287 0.81998 0.0
H478 H 0.72333 0.95024 0.6061 0.0
H479 H 0.72566 0.9275 0.67487 0.0
C480 C 0.83174 0.77762 0.85907 0.0
C481 C 0.83534 0.7868 0.90724 0.0
C482 C 0.84691 0.77225 0.82813 0.0
C483 C 0.89733 0.78359 0.80437 0.0
H484 H 0.89488 0.73552 0.72467 0.0
C485 C 0.95602 0.76066 0.66194 0.0
C486 C 0.94873 0.75398 0.6137 0.0
C487 C 0.94374 0.76315 0.70299 0.0
C488 C 0.89575 0.74903 0.74655 0.0
H489 H 0.85784 0.79727 0.96092 0.0
H490 H 0.88431 0.78786 0.90672 0.0
H491 H 0.87035 0.74285 0.78653 0.0
H492 H 0.92316 0.74382 0.57119 0.0
H493 H 0.90185 0.74832 0.64208 0.0
H494 H 0.92252 0.78994 0.76342 0.0
C495 C 0.86971 0.78499 0.89281 0.0
C496 C 0.88168 0.75323 0.78194 0.0
C497 C 0.85452 0.7903 0.92393 0.0
C498 C 0.92914 0.74926 0.60774 0.0
C499 C 0.91696 0.75163 0.64858 0.0
C500 C 0.91143 0.77938 0.76885 0.0
C501 C 0.86607 0.77594 0.8445 0.0
C502 C 0.88206 0.77074 0.81049 0.0
C503 C 0.92403 0.75876 0.69659 0.0
C504 C 0.91055 0.76224 0.73872 0.0
H505 H 0.81717 0.77467 0.84499 0.0
H506 H 0.84358 0.76555 0.79083 0.0
H507 H 0.89796 0.79726 0.8255 0.0
H508 H 0.97107 0.76439 0.66755 0.0
H509 H 0.94964 0.76855 0.73964 0.0
C510 C 0.72495 0.36521 0.42163 0.0
C511 C 0.72917 0.34611 0.4064 0.0
C512 C 0.72912 0.38041 0.39025 0.0
C513 C 0.75894 0.39382 0.28319 0.0
H514 H 0.71995 0.43278 0.26054 0.0
C515 C 0.73991 0.45445 0.12652 0.0
C516 C 0.75811 0.46285 0.12216 0.0
C517 C 0.73652 0.44197 0.16594 0.0
C518 C 0.73098 0.42202 0.2665 0.0
H519 H 0.74152 0.32815 0.34657 0.0
H520 H 0.74879 0.35468 0.29194 0.0
H521 H 0.71415 0.40708 0.31937 0.0
H522 H 0.78685 0.46518 0.15673 0.0
H523 H 0.78086 0.44351 0.22592 0.0
H524 H 0.77559 0.40848 0.22948 0.0
C525 C 0.74231 0.35788 0.32828 0.0
C526 C 0.72773 0.40739 0.30052 0.0
C527 C 0.73803 0.34265 0.35949 0.0
C528 C 0.77262 0.45908 0.1593 0.0
C529 C 0.76926 0.44648 0.19856 0.0
C530 C 0.76224 0.40852 0.24946 0.0
C531 C 0.73775 0.37692 0.34308 0.0
C532 C 0.74159 0.393 0.30884 0.0
C533 C 0.75128 0.43749 0.20175 0.0
C534 C 0.74823 0.42268 0.24031 0.0
H535 H 0.71818 0.36843 0.45757 0.0
H536 H 0.72563 0.39494 0.40301 0.0
H537 H 0.76998 0.38306 0.28913 0.0
H538 H 0.72842 0.45718 0.09862 0.0
H539 H 0.72254 0.4352 0.16709 0.0
C540 C 0.17293 0.25435 0.84975 0.0
C541 C 0.17075 0.24056 0.88704 0.0
C542 C 0.15737 0.25936 0.81751 0.0
C543 C 0.10383 0.2543 0.79877 0.0
H544 H 0.11507 0.26526 0.65867 0.0
C545 C 0.04939 0.2511 0.62317 0.0
C546 C 0.05096 0.2657 0.58766 0.0
C547 C 0.06215 0.25045 0.66585 0.0
C548 C 0.11171 0.26246 0.69786 0.0
H549 H 0.15052 0.22131 0.92006 0.0
H550 H 0.12368 0.22933 0.86244 0.0
H551 H 0.14129 0.25896 0.71959 0.0
H552 H 0.06589 0.29207 0.5719 0.0
H553 H 0.08831 0.2907 0.64573 0.0
H554 H 0.07403 0.25688 0.77538 0.0
C555 C 0.13716 0.23679 0.85891 0.0
C556 C 0.12677 0.25892 0.73302 0.0
C557 C 0.15263 0.23206 0.8918 0.0
C558 C 0.06454 0.28044 0.598 0.0
C559 C 0.07738 0.27966 0.64021 0.0
C560 C 0.0887 0.25752 0.76318 0.0
C561 C 0.13933 0.25043 0.82099 0.0
C562 C 0.1231 0.25478 0.78406 0.0
C563 C 0.07676 0.2643 0.6735 0.0
C564 C 0.09253 0.26166 0.7124 0.0
H565 H 0.18664 0.26134 0.84565 0.0
H566 H 0.15957 0.27028 0.78981 0.0
H567 H 0.10036 0.25149 0.83782 0.0
H568 H 0.03922 0.23945 0.61617 0.0
H569 H 0.06139 0.23843 0.6909 0.0
C570 C 0.27531 0.66226 0.41935 0.0
C571 C 0.27562 0.6812 0.40222 0.0
C572 C 0.27077 0.64681 0.38518 0.0
C573 C 0.24926 0.63579 0.25439 0.0
H574 H 0.27961 0.58911 0.26164 0.0
C575 C 0.26276 0.58639 0.0808 0.0
C576 C 0.25775 0.56685 0.08333 0.0
C577 C 0.26285 0.59852 0.12432 0.0
C578 C 0.27083 0.60195 0.25974 0.0
H579 H 0.27125 0.6987 0.3357 0.0
H580 H 0.26392 0.67196 0.27633 0.0
H581 H 0.28346 0.61414 0.32948 0.0
H582 H 0.24973 0.54467 0.13484 0.0
H583 H 0.25069 0.566 0.21193 0.0
H584 H 0.23754 0.62403 0.1831 0.0
C585 C 0.26668 0.66895 0.31628 0.0
C586 C 0.27298 0.61629 0.29856 0.0
C587 C 0.27106 0.68434 0.35038 0.0
C588 C 0.25362 0.55962 0.13138 0.0
C589 C 0.25409 0.57179 0.17543 0.0
C590 C 0.24734 0.62163 0.21541 0.0
C591 C 0.26652 0.64995 0.33309 0.0
C592 C 0.26258 0.63363 0.29563 0.0
C593 C 0.25841 0.5914 0.17191 0.0
C594 C 0.25842 0.60479 0.21714 0.0
H595 H 0.27865 0.65934 0.45913 0.0
H596 H 0.27058 0.63242 0.39963 0.0
H597 H 0.24061 0.64868 0.25149 0.0
H598 H 0.26679 0.59242 0.04512 0.0
H599 H 0.26663 0.61352 0.12089 0.0
C600 C 0.33378 0.75513 0.66602 0.0
C601 C 0.33593 0.74104 0.62688 0.0
C602 C 0.34943 0.76065 0.69832 0.0
C603 C 0.40307 0.75672 0.71419 0.0
H604 H 0.39247 0.76768 0.85674 0.0
C605 C 0.45833 0.75375 0.88676 0.0
C606 C 0.45636 0.76763 0.92666 0.0
C607 C 0.44562 0.75351 0.84389 0.0
C608 C 0.39566 0.76494 0.8169 0.0
H609 H 0.35625 0.72179 0.59061 0.0
H610 H 0.38329 0.73074 0.6482 0.0
H611 H 0.36603 0.76086 0.79572 0.0
H612 H 0.44091 0.79329 0.95039 0.0
H613 H 0.41868 0.79276 0.87588 0.0
H614 H 0.43294 0.75988 0.73678 0.0
C615 C 0.36971 0.73801 0.65322 0.0
C616 C 0.38046 0.76107 0.78171 0.0
C617 C 0.35413 0.73274 0.62036 0.0
C618 C 0.44259 0.78225 0.92061 0.0
C619 C 0.42983 0.78192 0.87808 0.0
C620 C 0.41834 0.76031 0.74972 0.0
C621 C 0.36757 0.75196 0.69294 0.0
C622 C 0.3839 0.75684 0.72982 0.0
C623 C 0.4307 0.76708 0.8404 0.0
C624 C 0.41476 0.76444 0.80145 0.0
H625 H 0.32001 0.762 0.67152 0.0
H626 H 0.34725 0.77177 0.72755 0.0
H627 H 0.40633 0.75384 0.67449 0.0
H628 H 0.46868 0.7422 0.89046 0.0
H629 H 0.44659 0.74189 0.81543 0.0
C630 C 0.77651 0.8644 0.11069 0.0
C631 C 0.77762 0.84548 0.12781 0.0
C632 C 0.77159 0.87963 0.14418 0.0
C633 C 0.75019 0.8896 0.27122 0.0
H634 H 0.77788 0.93789 0.26822 0.0
C635 C 0.76082 0.94063 0.44575 0.0
C636 C 0.75526 0.95998 0.44099 0.0
C637 C 0.76143 0.92821 0.40291 0.0
C638 C 0.76984 0.92458 0.2689 0.0
H639 H 0.77445 0.82776 0.19362 0.0
H640 H 0.7665 0.85416 0.25199 0.0
H641 H 0.78291 0.91291 0.20177 0.0
H642 H 0.74667 0.98146 0.38642 0.0
H643 H 0.74853 0.95964 0.31077 0.0
H644 H 0.73801 0.90092 0.34 0.0
C645 C 0.76888 0.85731 0.21246 0.0
C646 C 0.77267 0.91027 0.23086 0.0
C647 C 0.77361 0.84212 0.17898 0.0
C648 C 0.75101 0.96669 0.39161 0.0
C649 C 0.75199 0.95423 0.34836 0.0
C650 C 0.7476 0.90376 0.30947 0.0
C651 C 0.76778 0.87628 0.1956 0.0
C652 C 0.76322 0.8924 0.2323 0.0
C653 C 0.75695 0.93483 0.3539 0.0
C654 C 0.75771 0.9212 0.30928 0.0
H655 H 0.7794 0.86747 0.07137 0.0
H656 H 0.77067 0.894 0.12968 0.0
H657 H 0.74225 0.87628 0.27284 0.0
H658 H 0.76498 0.93502 0.48265 0.0
H659 H 0.7657 0.91339 0.40802 0.0
C660 C 0.67514 0.27923 0.66358 0.0
C661 C 0.67149 0.28808 0.6167 0.0
C662 C 0.66002 0.27411 0.69398 0.0
C663 C 0.60963 0.28557 0.71994 0.0
H664 H 0.61231 0.23799 0.79275 0.0
C665 C 0.55094 0.26239 0.85844 0.0
C666 C 0.5582 0.25582 0.90558 0.0
C667 C 0.5633 0.2652 0.8182 0.0
C668 C 0.61137 0.25137 0.77283 0.0
H669 H 0.64894 0.29825 0.56475 0.0
H670 H 0.62253 0.28925 0.61797 0.0
H671 H 0.63671 0.24499 0.73166 0.0
H672 H 0.58391 0.24634 0.94683 0.0
H673 H 0.60534 0.25142 0.87742 0.0
H674 H 0.58445 0.29209 0.76205 0.0
C675 C 0.63714 0.28644 0.6313 0.0
C676 C 0.62537 0.25539 0.73787 0.0
C677 C 0.65229 0.29151 0.60072 0.0
C678 C 0.57792 0.25171 0.91126 0.0
C679 C 0.59018 0.25439 0.8712 0.0
C680 C 0.59559 0.28155 0.75502 0.0
C681 C 0.64084 0.27771 0.67834 0.0
C682 C 0.62491 0.27271 0.71181 0.0
C683 C 0.58307 0.26123 0.82425 0.0
C684 C 0.59656 0.26459 0.78269 0.0
H685 H 0.68972 0.27635 0.67712 0.0
H686 H 0.6634 0.26765 0.73033 0.0
H687 H 0.60893 0.29911 0.70075 0.0
H688 H 0.5358 0.26566 0.85303 0.0
H689 H 0.55739 0.27038 0.78234 0.0
C690 C 0.24002 0.18518 0.15094 0.0
C691 C 0.23095 0.18165 0.10258 0.0
C692 C 0.2448 0.17001 0.18261 0.0
C693 C 0.23192 0.11999 0.20776 0.0
H694 H 0.2793 0.12188 0.29063 0.0
C695 C 0.25354 0.06131 0.35301 0.0
C696 C 0.26021 0.06858 0.4013 0.0
C697 C 0.25097 0.0736 0.3119 0.0
C698 C 0.26597 0.12117 0.26789 0.0
H699 H 0.2201 0.15923 0.04929 0.0
H700 H 0.22853 0.13271 0.10471 0.0
H701 H 0.27312 0.14614 0.22711 0.0
H702 H 0.27006 0.09428 0.44382 0.0
H703 H 0.26541 0.1156 0.37283 0.0
H704 H 0.22466 0.09516 0.24941 0.0
C705 C 0.23176 0.14729 0.11822 0.0
C706 C 0.26242 0.13509 0.23152 0.0
C707 C 0.22702 0.1625 0.08636 0.0
C708 C 0.2646 0.08827 0.40733 0.0
C709 C 0.26217 0.10046 0.36642 0.0
C710 C 0.23549 0.10602 0.24423 0.0
C711 C 0.24065 0.15089 0.16681 0.0
C712 C 0.24517 0.13493 0.20178 0.0
C713 C 0.25529 0.09333 0.31822 0.0
C714 C 0.25237 0.10672 0.2755 0.0
H715 H 0.24328 0.19973 0.16473 0.0
H716 H 0.25139 0.17334 0.22007 0.0
H717 H 0.21842 0.11953 0.18574 0.0
H718 H 0.25005 0.0462 0.34728 0.0
H719 H 0.24574 0.06767 0.27513 0.0
C720 C 0.23673 0.30318 0.04129 0.0
C721 C 0.22707 0.29322 0.00023 0.0
C722 C 0.23856 0.32319 0.04174 0.0
C723 C 0.2372 0.36425 0.95488 0.0
H724 H 0.23902 0.39413 0.08303 0.0
C725 C 0.25099 0.44666 0.96453 0.0
C726 C 0.26579 0.45241 -0.00021 0.0
C727 C 0.24316 0.4281 0.96547 0.0
C728 C 0.23854 0.38598 0.04693 0.0
H729 H 0.21118 0.2967 0.92817 0.0
H730 H 0.21402 0.33168 0.9295 0.0
H731 H 0.23082 0.36006 0.0827 0.0
H732 H 0.28334 0.4437 0.06513 0.0
H733 H 0.26956 0.41152 0.06727 0.0
H734 H 0.24504 0.39026 0.91931 0.0
C735 C 0.22057 0.32395 0.96087 0.0
C736 C 0.23393 0.36641 0.04671 0.0
C737 C 0.21884 0.30387 0.96025 0.0
C738 C 0.27201 0.4396 0.03733 0.0
C739 C 0.26403 0.42122 0.03874 0.0
C740 C 0.24165 0.38388 0.95507 0.0
C741 C 0.23064 0.33388 0.00138 0.0
C742 C 0.23362 0.35515 0.00085 0.0
C743 C 0.24977 0.41511 0.00226 0.0
C744 C 0.24277 0.39487 0.00125 0.0
H745 H 0.24332 0.29548 0.07268 0.0
H746 H 0.24671 0.33021 0.07319 0.0
H747 H 0.23735 0.35607 0.91889 0.0
H748 H 0.24602 0.45623 0.93504 0.0
H749 H 0.23211 0.42384 0.93708 0.0
C750 C 0.21336 0.72653 0.46944 0.0
C751 C 0.22394 0.73707 0.50774 0.0
C752 C 0.19323 0.72671 0.46817 0.0
C753 C 0.1517 0.73815 0.54986 0.0
H754 H 0.12294 0.73477 0.41991 0.0
C755 C 0.06861 0.74086 0.53791 0.0
C756 C 0.06006 0.72558 0.50883 0.0
C757 C 0.08829 0.74467 0.53482 0.0
C758 C 0.13079 0.73572 0.45648 0.0
H759 H 0.2216 0.75632 0.57431 0.0
H760 H 0.18664 0.75708 0.57129 0.0
H761 H 0.15796 0.73658 0.42101 0.0
H762 H 0.06505 0.70301 0.45168 0.0
H763 H 0.09928 0.70984 0.44557 0.0
H764 H 0.12445 0.73738 0.58516 0.0
C765 C 0.19381 0.74825 0.5429 0.0
C766 C 0.15089 0.73663 0.4572 0.0
C767 C 0.21392 0.7479 0.5445 0.0
C768 C 0.07131 0.71486 0.47461 0.0
C769 C 0.09088 0.71882 0.47097 0.0
C770 C 0.13161 0.73746 0.54909 0.0
C771 C 0.18315 0.7376 0.50484 0.0
C772 C 0.16166 0.73759 0.50392 0.0
C773 C 0.09971 0.73345 0.50198 0.0
C774 C 0.12093 0.73598 0.50243 0.0
H775 H 0.22061 0.71793 0.44072 0.0
H776 H 0.18561 0.71802 0.43883 0.0
H777 H 0.15942 0.73855 0.58662 0.0
H778 H 0.06028 0.74926 0.56483 0.0
H779 H 0.09467 0.75614 0.55886 0.0
C780 C 0.77119 0.72404 0.04061 0.0
C781 C 0.78201 0.73417 0.00607 0.0
C782 C 0.77127 0.70394 0.03978 0.0
C783 C 0.78473 0.66069 0.95976 0.0
H784 H 0.78263 0.63531 0.08912 0.0
C785 C 0.80635 0.58125 0.98915 0.0
C786 C 0.79491 0.57026 0.02031 0.0
C787 C 0.80264 0.60081 0.98319 0.0
C788 C 0.78296 0.64217 0.0526 0.0
H789 H 0.80151 0.73102 0.94365 0.0
H790 H 0.80225 0.69597 0.94334 0.0
H791 H 0.7811 0.67023 0.08792 0.0
H792 H 0.77028 0.57099 0.06848 0.0
H793 H 0.76388 0.60536 0.05858 0.0
H794 H 0.7874 0.63245 0.92498 0.0
C795 C 0.79323 0.70352 0.97023 0.0
C796 C 0.78205 0.66224 0.0518 0.0
C797 C 0.79293 0.72367 0.9706 0.0
C798 C 0.77925 0.5791 0.04399 0.0
C799 C 0.7757 0.59877 0.03866 0.0
C800 C 0.7859 0.6406 0.96069 0.0
C801 C 0.78241 0.69334 0.0049 0.0
C802 C 0.78299 0.67184 0.00539 0.0
C803 C 0.78756 0.60991 0.00887 0.0
C804 C 0.7851 0.63112 0.00715 0.0
H805 H 0.76244 0.73165 0.0681 0.0
H806 H 0.76242 0.69672 0.06636 0.0
H807 H 0.78513 0.66744 0.92314 0.0
H808 H 0.81849 0.57477 0.97034 0.0
H809 H 0.8121 0.60901 0.96025 0.0
C810 C 0.79271 0.29088 0.55994 0.0
C811 C 0.78236 0.29135 0.51281 0.0
C812 C 0.81273 0.28896 0.56165 0.0
C813 C 0.85607 0.29032 0.48085 0.0
H814 H 0.87755 0.25761 0.58545 0.0
C815 C 0.93699 0.27051 0.4887 0.0
C816 C 0.94119 0.25116 0.49814 0.0
C817 C 0.91852 0.2779 0.49645 0.0
C818 C 0.87183 0.2667 0.55576 0.0
H819 H 0.78499 0.2906 0.43042 0.0
H820 H 0.81976 0.28653 0.43318 0.0
H821 H 0.84364 0.26555 0.58488 0.0
H822 H 0.92962 0.22478 0.5263 0.0
H823 H 0.89756 0.23732 0.53821 0.0
H824 H 0.88409 0.29043 0.44993 0.0
C825 C 0.81255 0.28814 0.46905 0.0
C826 C 0.85233 0.27153 0.55588 0.0
C827 C 0.79254 0.29036 0.46739 0.0
C828 C 0.92681 0.23968 0.51787 0.0
C829 C 0.90841 0.24698 0.52533 0.0
C830 C 0.87555 0.28529 0.4804 0.0
C831 C 0.82292 0.28714 0.51623 0.0
C832 C 0.84407 0.2832 0.51802 0.0
C833 C 0.90386 0.2661 0.51383 0.0
C834 C 0.88364 0.27314 0.51736 0.0
H835 H 0.78533 0.29187 0.59568 0.0
H836 H 0.82016 0.28875 0.59875 0.0
H837 H 0.85038 0.29961 0.45159 0.0
H838 H 0.94771 0.27974 0.4733 0.0
H839 H 0.91567 0.29278 0.48798 0.0
C840 C 0.73424 0.22461 0.47255 0.0
C841 C 0.7257 0.23502 0.51281 0.0
C842 C 0.73574 0.20458 0.47318 0.0
C843 C 0.73582 0.16417 0.56205 0.0
H844 H 0.734 0.13344 0.43529 0.0
C845 C 0.74839 0.08157 0.55668 0.0
C846 C 0.76227 0.07543 0.52203 0.0
C847 C 0.7407 0.10019 0.55464 0.0
C848 C 0.73453 0.14183 0.47102 0.0
H849 H 0.71147 0.23231 0.58462 0.0
H850 H 0.71375 0.19731 0.58519 0.0
H851 H 0.72633 0.16762 0.43378 0.0
H852 H 0.77826 0.0835 0.45665 0.0
H853 H 0.76471 0.11577 0.45257 0.0
H854 H 0.74416 0.13828 0.5991 0.0
C855 C 0.71967 0.2047 0.5536 0.0
C856 C 0.73023 0.16146 0.47018 0.0
C857 C 0.71827 0.22479 0.55314 0.0
C858 C 0.76765 0.0879 0.48396 0.0
C859 C 0.75979 0.10634 0.48146 0.0
C860 C 0.73996 0.14448 0.56292 0.0
C861 C 0.72862 0.19432 0.51386 0.0
C862 C 0.73125 0.17302 0.51552 0.0
C863 C 0.74651 0.11286 0.51735 0.0
C864 C 0.73978 0.13317 0.51726 0.0
H865 H 0.74019 0.23196 0.44094 0.0
H866 H 0.74303 0.19721 0.44231 0.0
H867 H 0.73699 0.17258 0.59768 0.0
H868 H 0.74408 0.07226 0.58655 0.0
H869 H 0.7304 0.10477 0.58261 0.0
C870 C 0.29366 0.225 0.03901 0.0
C871 C 0.28311 0.2358 0.00324 0.0
C872 C 0.31378 0.22498 0.03993 0.0
C873 C 0.3553 0.23671 0.96028 0.0
H874 H 0.38425 0.23197 0.08885 0.0
C875 C 0.43845 0.23948 0.97283 0.0
C876 C 0.44699 0.22381 0.99734 0.0
C877 C 0.41876 0.24316 0.97691 0.0
C878 C 0.37634 0.23331 0.05267 0.0
H879 H 0.28549 0.25531 0.94089 0.0
H880 H 0.32045 0.25577 0.9435 0.0
H881 H 0.34926 0.23399 0.08869 0.0
H882 H 0.44196 0.20035 0.04745 0.0
H883 H 0.40771 0.20699 0.05546 0.0
H884 H 0.38249 0.2362 0.9245 0.0
C885 C 0.31327 0.24686 0.97002 0.0
C886 C 0.35626 0.23433 0.05245 0.0
C887 C 0.29316 0.24668 0.96867 0.0
C888 C 0.43571 0.21251 0.0281 0.0
C889 C 0.41613 0.21636 0.03283 0.0
C890 C 0.37539 0.23594 0.96062 0.0
C891 C 0.32391 0.23595 0.00552 0.0
C892 C 0.3454 0.23578 0.00615 0.0
C893 C 0.40733 0.23143 0.00629 0.0
C894 C 0.38612 0.23398 0.00673 0.0
H895 H 0.28637 0.21636 0.06596 0.0
H896 H 0.32137 0.21609 0.06719 0.0
H897 H 0.34754 0.23749 0.92374 0.0
H898 H 0.4468 0.24833 0.94861 0.0
H899 H 0.41238 0.25497 0.95634 0.0
C900 C 0.27048 0.80337 0.48237 0.0
C901 C 0.28168 0.7935 0.51882 0.0
C902 C 0.27031 0.82347 0.4828 0.0
C903 C 0.28368 0.86703 0.56451 0.0
H904 H 0.28011 0.89228 0.43463 0.0
C905 C 0.30426 0.94659 0.5372 0.0
C906 C 0.29246 0.95742 0.50427 0.0
C907 C 0.3007 0.92703 0.54306 0.0
C908 C 0.28084 0.88545 0.47126 0.0
H909 H 0.30165 0.79708 0.58408 0.0
H910 H 0.30195 0.83212 0.58374 0.0
H911 H 0.27914 0.85734 0.4358 0.0
H912 H 0.26734 0.95645 0.45286 0.0
H913 H 0.2612 0.92207 0.46257 0.0
H914 H 0.2862 0.89532 0.59955 0.0
C915 C 0.29282 0.82438 0.55563 0.0
C916 C 0.28026 0.86536 0.47203 0.0
C917 C 0.29277 0.80424 0.55563 0.0
C918 C 0.27657 0.94846 0.47876 0.0
C919 C 0.27317 0.92879 0.48398 0.0
C920 C 0.28452 0.88713 0.56365 0.0
C921 C 0.28156 0.83431 0.51922 0.0
C922 C 0.28175 0.85582 0.51865 0.0
C923 C 0.28542 0.91779 0.51549 0.0
C924 C 0.28319 0.89655 0.51699 0.0
H925 H 0.26159 0.79556 0.45378 0.0
H926 H 0.26114 0.83049 0.45477 0.0
H927 H 0.28448 0.86031 0.60126 0.0
H928 H 0.3166 0.95317 0.55734 0.0
H929 H 0.31046 0.91894 0.56735 0.0
C930 C 0.71417 0.79966 0.05179 0.0
C931 C 0.72462 0.79057 0.01278 0.0
C932 C 0.69407 0.79846 0.05113 0.0
C933 C 0.65143 0.78457 0.96602 0.0
H934 H 0.627 0.77711 0.09466 0.0
C935 C 0.5779 0.74768 0.98269 0.0
C936 C 0.56512 0.75533 0.01837 0.0
C937 C 0.59627 0.7555 0.97922 0.0
C938 C 0.63356 0.77949 0.0585 0.0
H939 H 0.72201 0.77321 0.94226 0.0
H940 H 0.68727 0.77063 0.9419 0.0
H941 H 0.66135 0.78386 0.09472 0.0
H942 H 0.56124 0.7774 0.0775 0.0
H943 H 0.59363 0.79098 0.07205 0.0
H944 H 0.6237 0.77923 0.92984 0.0
C945 C 0.69444 0.77913 0.97242 0.0
C946 C 0.65328 0.7834 0.05847 0.0
C947 C 0.71447 0.78049 0.97282 0.0
C948 C 0.5708 0.77137 0.04938 0.0
C949 C 0.58934 0.77901 0.04654 0.0
C950 C 0.63177 0.78042 0.96606 0.0
C951 C 0.68392 0.78801 0.01166 0.0
C952 C 0.66258 0.78565 0.01214 0.0
C953 C 0.60237 0.77094 0.01196 0.0
C954 C 0.62268 0.77753 0.01223 0.0
H955 H 0.72153 0.80768 0.08295 0.0
H956 H 0.6865 0.80574 0.0816 0.0
H957 H 0.65792 0.78668 0.92966 0.0
H958 H 0.57386 0.73527 0.95847 0.0
H959 H 0.60602 0.74886 0.95252 0.0
loop_
_geom_bond_atom_site_label_1
_geom_bond_atom_site_label_2
_geom_bond_distance
_geom_bond_site_symmetry_2
_ccdc_geom_bond_type
Fe0 O2 1.918 . S
Fe0 O5 1.997 . S
Fe0 O6 2.002 . S
Fe0 O11 1.976 . S
Fe0 O14 1.996 . S
Fe1 O2 1.918 1_556 S
Fe1 O9 1.997 . S
Fe1 O12 1.996 . S
Fe1 O16 1.976 . S
Fe1 O19 2.002 . S
O2 Fe0 1.918 . S
O2 Fe1 1.918 1_554 S
O2 Fe3 1.919 1_554 S
Fe3 O2 1.919 1_556 S
Fe3 O4 1.991 1_556 S
Fe3 O13 1.964 1_556 S
Fe3 O17 2.007 . S
Fe3 O20 2.008 . S
O4 Fe3 1.991 1_554 S
O4 C21 1.295 . S
O5 Fe0 1.997 . S
O5 C21 1.235 . S
O6 Fe0 2.002 . S
O6 C7 1.295 . S
C7 O6 1.295 . S
C7 O9 1.235 1_554 S
C8 O13 1.287 . S
C8 O14 1.255 . S
O9 Fe1 1.997 . S
O9 C7 1.235 1_556 S
C10 O16 1.287 . S
C10 O17 1.255 . S
O11 Fe0 1.976 . S
O11 C18 1.287 . S
O12 Fe1 1.996 . S
O12 C18 1.255 1_556 S
O13 Fe3 1.964 1_554 S
O13 C8 1.287 . S
O14 Fe0 1.996 . S
O14 C8 1.255 . S
C15 O19 1.295 . S
C15 O20 1.235 . S
O16 Fe1 1.976 . S
O16 C10 1.287 . S
O17 Fe3 2.007 . S
O17 C10 1.255 . S
C18 O11 1.287 . S
C18 O12 1.255 1_554 S
O19 Fe1 2.002 . S
O19 C15 1.295 . S
O20 Fe3 2.008 . S
O20 C15 1.235 . S
C21 O4 1.295 . S
C21 O5 1.235 . S
Fe22 O24 1.918 . S
Fe22 O27 1.997 . S
Fe22 O28 2.002 . S
Fe22 O33 1.976 . S
Fe22 O36 1.996 . S
Fe23 O24 1.918 . S
Fe23 O31 1.997 . S
Fe23 O34 1.996 . S
Fe23 O38 1.976 . S
Fe23 O41 2.002 . S
O24 Fe22 1.918 . S
O24 Fe23 1.918 . S
O24 Fe25 1.918 . S
Fe25 O24 1.918 . S
Fe25 O26 2.002 . S
Fe25 O35 1.976 . S
Fe25 O39 1.996 . S
Fe25 O42 1.997 . S
O26 Fe25 2.002 . S
O26 C43 1.295 . S
O27 Fe22 1.997 . S
O27 C43 1.235 . S
O28 Fe22 2.002 . S
O28 C29 1.295 . S
C29 O28 1.295 . S
C29 O31 1.235 . S
C30 O35 1.287 . S
C30 O36 1.255 . S
O31 Fe23 1.997 . S
O31 C29 1.235 . S
C32 O38 1.287 . S
C32 O39 1.255 . S
O33 Fe22 1.976 . S
O33 C40 1.287 . S
O34 Fe23 1.996 . S
O34 C40 1.255 . S
O35 Fe25 1.976 . S
O35 C30 1.287 . S
O36 Fe22 1.996 . S
O36 C30 1.255 . S
C37 O41 1.295 . S
C37 O42 1.235 . S
O38 Fe23 1.976 . S
O38 C32 1.287 . S
O39 Fe25 1.996 . S
O39 C32 1.255 . S
C40 O33 1.287 . S
C40 O34 1.255 . S
O41 Fe23 2.002 . S
O41 C37 1.295 . S
O42 Fe25 1.997 . S
O42 C37 1.235 . S
C43 O26 1.295 . S
C43 O27 1.235 . S
Fe44 O46 1.918 1_556 S
Fe44 O49 1.997 . S
Fe44 O50 2.002 . S
Fe44 O55 1.976 . S
Fe44 O58 1.996 . S
Fe45 O46 1.918 . S
Fe45 O53 1.997 . S
Fe45 O56 1.996 . S
Fe45 O60 1.976 . S
Fe45 O63 2.002 . S
O46 Fe44 1.918 1_554 S
O46 Fe45 1.918 . S
O46 Fe47 1.918 . S
Fe47 O46 1.918 . S
Fe47 O48 2.002 1_554 S
Fe47 O57 1.976 1_554 S
Fe47 O61 1.996 . S
Fe47 O64 1.997 . S
O48 Fe47 2.002 1_556 S
O48 C65 1.295 . S
O49 Fe44 1.997 . S
O49 C65 1.235 . S
O50 Fe44 2.002 . S
O50 C51 1.295 1_556 S
C51 O50 1.295 1_554 S
C51 O53 1.235 . S
C52 O57 1.287 . S
C52 O58 1.255 . S
O53 Fe45 1.997 . S
O53 C51 1.235 . S
C54 O60 1.287 . S
C54 O61 1.255 . S
O55 Fe44 1.976 . S
O55 C62 1.287 1_556 S
O56 Fe45 1.996 . S
O56 C62 1.255 . S
O57 Fe47 1.976 1_556 S
O57 C52 1.287 . S
O58 Fe44 1.996 . S
O58 C52 1.255 . S
C59 O63 1.295 . S
C59 O64 1.235 . S
O60 Fe45 1.976 . S
O60 C54 1.287 . S
O61 Fe47 1.996 . S
O61 C54 1.255 . S
C62 O55 1.287 1_554 S
C62 O56 1.255 . S
O63 Fe45 2.002 . S
O63 C59 1.295 . S
O64 Fe47 1.997 . S
O64 C59 1.235 . S
C65 O48 1.295 . S
C65 O49 1.235 . S
Fe66 O68 1.918 . S
Fe66 O71 1.997 . S
Fe66 O72 2.002 . S
Fe66 O77 1.976 . S
Fe66 O80 1.996 . S
Fe67 O68 1.918 . S
Fe67 O75 1.997 . S
Fe67 O78 1.996 . S
Fe67 O82 1.976 . S
Fe67 O85 2.002 . S
O68 Fe66 1.918 . S
O68 Fe67 1.918 . S
O68 Fe69 1.918 . S
Fe69 O68 1.918 . S
Fe69 O70 2.002 . S
Fe69 O79 1.976 . S
Fe69 O83 1.996 . S
Fe69 O86 1.997 . S
O70 Fe69 2.002 . S
O70 C87 1.295 . S
O71 Fe66 1.997 . S
O71 C87 1.235 . S
O72 Fe66 2.002 . S
O72 C73 1.295 . S
C73 O72 1.295 . S
C73 O75 1.235 . S
C74 O79 1.287 . S
C74 O80 1.255 . S
O75 Fe67 1.997 . S
O75 C73 1.235 . S
C76 O82 1.287 . S
C76 O83 1.255 . S
O77 Fe66 1.976 . S
O77 C84 1.287 . S
O78 Fe67 1.996 . S
O78 C84 1.255 . S
O79 Fe69 1.976 . S
O79 C74 1.287 . S
O80 Fe66 1.996 . S
O80 C74 1.255 . S
C81 O85 1.295 . S
C81 O86 1.235 . S
O82 Fe67 1.976 . S
O82 C76 1.287 . S
O83 Fe69 1.996 . S
O83 C76 1.255 . S
C84 O77 1.287 . S
C84 O78 1.255 . S
O85 Fe67 2.002 . S
O85 C81 1.295 . S
O86 Fe69 1.997 . S
O86 C81 1.235 . S
C87 O70 1.295 . S
C87 O71 1.235 . S
H88 C89 0.949 . S
C89 H88 0.949 . S
C89 C90 1.395 . S
C89 C91 1.391 1_554 S
C90 C89 1.395 . S
C90 C93 1.390 . S
C91 C89 1.391 1_556 S
C91 C95 1.387 . S
C91 C96 1.491 . S
H92 C93 0.950 . S
C93 C90 1.390 . S
C93 H92 0.950 . S
C93 C94 1.378 1_554 S
C94 C93 1.378 1_556 S
C94 C95 1.409 . S
C95 C91 1.387 . S
C95 C94 1.409 . S
C95 H97 0.951 . S
C96 C91 1.491 . S
C96 C98 1.382 1_556 S
C96 C100 1.404 . S
H97 C95 0.951 . S
C98 C96 1.382 1_554 S
C98 C99 1.390 1_554 S
C98 H103 0.949 . S
C99 C98 1.390 1_556 S
C99 C104 1.399 . S
C100 C96 1.404 . S
C100 H101 0.950 . S
C100 C102 1.375 . S
H101 C100 0.950 . S
C102 C100 1.375 . S
C102 C104 1.382 . S
C102 H106 0.950 . S
H103 C98 0.949 . S
C104 C99 1.399 . S
C104 C102 1.382 . S
C104 H105 0.952 . S
H105 C104 0.952 . S
H106 C102 0.950 . S
H107 C108 0.949 . S
C108 H107 0.949 . S
C108 C109 1.395 . S
C108 C110 1.391 . S
C109 C108 1.395 . S
C109 C112 1.390 . S
C110 C108 1.391 . S
C110 C114 1.387 . S
C110 C115 1.491 1_655 S
H111 C112 0.950 . S
C112 C109 1.390 . S
C112 H111 0.950 . S
C112 C113 1.378 . S
C113 C112 1.378 . S
C113 C114 1.409 . S
C114 C110 1.387 . S
C114 C113 1.409 . S
C114 H116 0.951 . S
C115 C110 1.491 1_455 S
C115 C117 1.382 . S
C115 C119 1.404 . S
H116 C114 0.951 . S
C117 C115 1.382 . S
C117 C118 1.390 . S
C117 H122 0.949 . S
C118 C117 1.390 . S
C118 C123 1.399 . S
C119 C115 1.404 . S
C119 H120 0.950 . S
C119 C121 1.375 . S
H120 C119 0.950 . S
C121 C119 1.375 . S
C121 C123 1.382 . S
C121 H125 0.950 . S
H122 C117 0.949 . S
C123 C118 1.399 . S
C123 C121 1.382 . S
C123 H124 0.952 . S
H124 C123 0.952 . S
H125 C121 0.950 . S
H126 C127 0.949 . S
C127 H126 0.949 . S
C127 C128 1.395 . S
C127 C129 1.391 1_556 S
C128 C127 1.395 . S
C128 C131 1.390 1_556 S
C129 C127 1.391 1_554 S
C129 C133 1.387 . S
C129 C134 1.491 . S
H130 C131 0.950 . S
C131 C128 1.390 1_554 S
C131 H130 0.950 . S
C131 C132 1.378 . S
C132 C131 1.378 . S
C132 C133 1.409 . S
C133 C129 1.387 . S
C133 C132 1.409 . S
C133 H135 0.951 . S
C134 C129 1.491 . S
C134 C136 1.382 . S
C134 C138 1.404 . S
H135 C133 0.951 . S
C136 C134 1.382 . S
C136 C137 1.390 . S
C136 H141 0.949 1_554 S
C137 C136 1.390 . S
C137 C142 1.399 . S
C138 C134 1.404 . S
C138 H139 0.950 . S
C138 C140 1.375 . S
H139 C138 0.950 . S
C140 C138 1.375 . S
C140 C142 1.382 . S
C140 H144 0.950 . S
H141 C136 0.949 1_556 S
C142 C137 1.399 . S
C142 C140 1.382 . S
C142 H143 0.952 . S
H143 C142 0.952 . S
H144 C140 0.950 . S
H145 C146 0.979 . S
C146 H145 0.979 . S
C146 C147 1.395 . S
C146 C148 1.391 . S
C147 C146 1.395 . S
C147 C150 1.390 . S
C148 C146 1.391 . S
C148 C152 1.387 . S
C148 C153 1.491 1_455 S
H149 C150 0.950 . S
C150 C147 1.390 . S
C150 H149 0.950 . S
C150 C151 1.378 . S
C151 C150 1.378 . S
C151 C152 1.409 . S
C152 C148 1.387 . S
C152 C151 1.409 . S
C152 H154 0.951 . S
C153 C148 1.491 1_655 S
C153 C155 1.382 . S
C153 C157 1.404 . S
H154 C152 0.951 . S
C155 C153 1.382 . S
C155 C156 1.390 . S
C155 H160 0.949 . S
C156 C155 1.390 . S
C156 C161 1.399 . S
C157 C153 1.404 . S
C157 H158 0.950 . S
C157 C159 1.375 . S
H158 C157 0.950 . S
C159 C157 1.375 . S
C159 C161 1.382 . S
C159 H163 0.950 . S
H160 C155 0.949 . S
C161 C156 1.399 . S
C161 C159 1.382 . S
C161 H162 0.952 . S
H162 C161 0.952 . S
H163 C159 0.950 . S
H164 C165 0.949 1_545 S
C165 H164 0.949 1_565 S
C165 C166 1.395 . S
C165 C167 1.398 . S
C166 C165 1.395 . S
C166 C169 1.390 . S
C167 C165 1.398 . S
C167 C171 1.401 . S
C167 C172 1.471 1_565 S
H168 C169 0.950 . S
C169 C166 1.390 . S
C169 H168 0.950 . S
C169 C170 1.378 . S
C170 C169 1.378 . S
C170 C171 1.409 . S
C171 C167 1.401 . S
C171 C170 1.409 . S
C171 H173 0.951 . S
C172 C167 1.471 1_545 S
C172 C174 1.382 . S
C172 C176 1.404 . S
H173 C171 0.951 . S
C174 C172 1.382 . S
C174 C175 1.390 . S
C174 H179 0.949 . S
C175 C174 1.390 . S
C175 C180 1.399 . S
C176 C172 1.404 . S
C176 H177 0.950 . S
C176 C178 1.375 . S
H177 C176 0.950 . S
C178 C176 1.375 . S
C178 C180 1.382 . S
C178 H182 0.950 . S
H179 C174 0.949 . S
C180 C175 1.399 . S
C180 C178 1.382 . S
C180 H181 0.952 . S
H181 C180 0.952 . S
H182 C178 0.950 . S
H183 C184 0.949 . S
C184 H183 0.949 . S
C184 C185 1.395 . S
C184 C186 1.391 1_554 S
C185 C184 1.395 . S
C185 C188 1.390 . S
C186 C184 1.391 1_556 S
C186 C190 1.387 . S
C186 C191 1.491 . S
H187 C188 0.950 . S
C188 C185 1.390 . S
C188 H187 0.950 . S
C188 C189 1.378 1_554 S
C189 C188 1.378 1_556 S
C189 C190 1.409 . S
C190 C186 1.387 . S
C190 C189 1.409 . S
C190 H192 0.951 . S
C191 C186 1.491 . S
C191 C193 1.382 1_556 S
C191 C195 1.404 . S
H192 C190 0.951 . S
C193 C191 1.382 1_554 S
C193 C194 1.390 1_554 S
C193 H198 0.949 . S
C194 C193 1.390 1_556 S
C194 C199 1.399 . S
C195 C191 1.404 . S
C195 H196 0.950 . S
C195 C197 1.375 . S
H196 C195 0.950 . S
C197 C195 1.375 . S
C197 C199 1.382 . S
C197 H201 0.950 . S
H198 C193 0.949 . S
C199 C194 1.399 . S
C199 C197 1.382 . S
C199 H200 0.952 . S
H200 C199 0.952 . S
H201 C197 0.950 . S
H202 C203 0.949 . S
C203 H202 0.949 . S
C203 C204 1.395 . S
C203 C205 1.391 . S
C204 C203 1.395 . S
C204 C207 1.390 . S
C205 C203 1.391 . S
C205 C209 1.387 . S
C205 C210 1.491 1_545 S
H206 C207 0.950 . S
C207 C204 1.390 . S
C207 H206 0.950 . S
C207 C208 1.378 . S
C208 C207 1.378 . S
C208 C209 1.409 . S
C209 C205 1.387 . S
C209 C208 1.409 . S
C209 H211 0.951 . S
C210 C205 1.491 1_565 S
C210 C212 1.382 . S
C210 C214 1.404 . S
H211 C209 0.951 . S
C212 C210 1.382 . S
C212 C213 1.390 . S
C212 H217 0.949 . S
C213 C212 1.390 . S
C213 C218 1.399 . S
C214 C210 1.404 . S
C214 H215 0.950 . S
C214 C216 1.375 . S
H215 C214 0.950 . S
C216 C214 1.375 . S
C216 C218 1.382 . S
C216 H220 0.950 . S
H217 C212 0.949 . S
C218 C213 1.399 . S
C218 C216 1.382 . S
C218 H219 0.952 . S
H219 C218 0.952 . S
H220 C216 0.950 . S
H221 C222 0.949 . S
C222 H221 0.949 . S
C222 C223 1.395 . S
C222 C224 1.391 1_556 S
C223 C222 1.395 . S
C223 C226 1.390 1_556 S
C224 C222 1.391 1_554 S
C224 C228 1.387 . S
C224 C229 1.491 . S
H225 C226 0.950 . S
C226 C223 1.390 1_554 S
C226 H225 0.950 . S
C226 C227 1.378 . S
C227 C226 1.378 . S
C227 C228 1.409 . S
C228 C224 1.387 . S
C228 C227 1.409 . S
C228 H230 0.951 . S
C229 C224 1.491 . S
C229 C231 1.382 . S
C229 C233 1.404 . S
H230 C228 0.951 . S
C231 C229 1.382 . S
C231 C232 1.390 . S
C231 H236 0.949 1_554 S
C232 C231 1.390 . S
C232 C237 1.399 . S
C233 C229 1.404 . S
C233 H234 0.950 . S
C233 C235 1.375 . S
H234 C233 0.950 . S
C235 C233 1.375 . S
C235 C237 1.382 . S
C235 H239 0.950 . S
H236 C231 0.949 1_556 S
C237 C232 1.399 . S
C237 C235 1.382 . S
C237 H238 0.952 . S
H238 C237 0.952 . S
H239 C235 0.950 . S
C240 C241 1.349 . S
C240 C242 1.327 . S
C240 H265 0.950 . S
C241 C240 1.349 . S
C241 C257 1.349 . S
C242 C240 1.327 . S
C242 C261 1.429 . S
C242 H266 0.950 . S
C243 C260 1.574 . S
C243 C262 1.368 . S
C243 H267 0.949 . S
H244 C248 0.949 . S
C245 C246 1.349 . S
C245 C247 1.327 . S
C245 H268 0.950 . S
C246 C245 1.349 . S
C246 C258 1.349 . S
C247 C245 1.327 . S
C247 C263 1.429 . S
C247 H269 0.950 . S
C248 H244 0.949 . S
C248 C256 1.574 . S
C248 C264 1.368 . S
H249 C257 0.950 . S
H250 C255 0.950 . S
H251 C256 0.949 . S
H252 C258 0.950 . S
H253 C259 0.950 . S
H254 C260 0.949 . S
C255 H250 0.950 . S
C255 C257 1.327 . S
C255 C261 1.429 . S
C256 C248 1.574 . S
C256 H251 0.949 . S
C256 C262 1.368 . S
C257 C241 1.349 . S
C257 H249 0.950 . S
C257 C255 1.327 . S
C258 C246 1.349 . S
C258 H252 0.950 . S
C258 C259 1.327 . S
C259 H253 0.950 . S
C259 C258 1.327 . S
C259 C263 1.429 . S
C260 C243 1.574 . S
C260 H254 0.949 . S
C260 C264 1.368 . S
C261 C242 1.429 . S
C261 C255 1.429 . S
C261 C262 1.523 . S
C262 C243 1.368 . S
C262 C256 1.368 . S
C262 C261 1.523 . S
C263 C247 1.429 . S
C263 C259 1.429 . S
C263 C264 1.523 . S
C264 C248 1.368 . S
C264 C260 1.368 . S
C264 C263 1.523 . S
H265 C240 0.950 . S
H266 C242 0.950 . S
H267 C243 0.949 . S
H268 C245 0.950 . S
H269 C247 0.950 . S
C270 C271 1.349 . S
C270 C272 1.327 . S
C270 H295 0.950 . S
C271 C270 1.349 . S
C271 C287 1.349 . S
C272 C270 1.327 . S
C272 C291 1.429 . S
C272 H296 0.950 . S
C273 C290 1.574 . S
C273 C292 1.368 . S
C273 H297 0.949 . S
H274 C278 0.949 . S
C275 C276 1.349 . S
C275 C277 1.327 . S
C275 H298 0.950 . S
C276 C275 1.349 . S
C276 C288 1.349 . S
C277 C275 1.327 . S
C277 C293 1.429 . S
C277 H299 0.950 . S
C278 H274 0.949 . S
C278 C286 1.574 . S
C278 C294 1.368 . S
H279 C287 0.950 . S
H280 C285 0.950 . S
H281 C286 0.949 . S
H282 C288 0.950 . S
H283 C289 0.950 . S
H284 C290 0.949 . S
C285 H280 0.950 . S
C285 C287 1.327 . S
C285 C291 1.429 . S
C286 C278 1.574 . S
C286 H281 0.949 . S
C286 C292 1.368 . S
C287 C271 1.349 . S
C287 H279 0.950 . S
C287 C285 1.327 . S
C288 C276 1.349 . S
C288 H282 0.950 . S
C288 C289 1.327 . S
C289 H283 0.950 . S
C289 C288 1.327 . S
C289 C293 1.429 . S
C290 C273 1.574 . S
C290 H284 0.949 . S
C290 C294 1.368 . S
C291 C272 1.429 . S
C291 C285 1.429 . S
C291 C292 1.523 . S
C292 C273 1.368 . S
C292 C286 1.368 . S
C292 C291 1.523 . S
C293 C277 1.429 . S
C293 C289 1.429 . S
C293 C294 1.523 . S
C294 C278 1.368 . S
C294 C290 1.368 . S
C294 C293 1.523 . S
H295 C270 0.950 . S
H296 C272 0.950 . S
H297 C273 0.949 . S
H298 C275 0.950 . S
H299 C277 0.950 . S
C300 C301 1.349 . S
C300 C302 1.327 . S
C300 H325 0.950 . S
C301 C300 1.349 . S
C301 C317 1.349 . S
C302 C300 1.327 . S
C302 C321 1.429 . S
C302 H326 0.950 . S
C303 C320 1.574 . S
C303 C322 1.368 . S
C303 H327 0.949 . S
H304 C308 0.949 . S
C305 C306 1.349 . S
C305 C307 1.327 . S
C305 H328 0.950 . S
C306 C305 1.349 . S
C306 C318 1.349 . S
C307 C305 1.327 . S
C307 C323 1.429 . S
C307 H329 0.950 . S
C308 H304 0.949 . S
C308 C316 1.574 . S
C308 C324 1.368 . S
H309 C317 0.950 . S
H310 C315 0.950 . S
H311 C316 0.949 . S
H312 C318 0.950 . S
H313 C319 0.950 . S
H314 C320 0.949 . S
C315 H310 0.950 . S
C315 C317 1.327 . S
C315 C321 1.429 . S
C316 C308 1.574 . S
C316 H311 0.949 . S
C316 C322 1.368 . S
C317 C301 1.349 . S
C317 H309 0.950 . S
C317 C315 1.327 . S
C318 C306 1.349 . S
C318 H312 0.950 . S
C318 C319 1.327 . S
C319 H313 0.950 . S
C319 C318 1.327 . S
C319 C323 1.429 . S
C320 C303 1.574 . S
C320 H314 0.949 . S
C320 C324 1.368 . S
C321 C302 1.429 . S
C321 C315 1.429 . S
C321 C322 1.523 . S
C322 C303 1.368 . S
C322 C316 1.368 . S
C322 C321 1.523 . S
C323 C307 1.429 . S
C323 C319 1.429 . S
C323 C324 1.523 . S
C324 C308 1.368 . S
C324 C320 1.368 . S
C324 C323 1.523 . S
H325 C300 0.950 . S
H326 C302 0.950 . S
H327 C303 0.949 . S
H328 C305 0.950 . S
H329 C307 0.950 . S
C330 C331 1.349 . S
C330 C332 1.327 . S
C330 H355 0.950 . S
C331 C330 1.349 . S
C331 C347 1.349 . S
C332 C330 1.327 . S
C332 C351 1.429 . S
C332 H356 0.950 . S
C333 C350 1.574 . S
C333 C352 1.368 . S
C333 H357 0.949 . S
H334 C338 0.949 . S
C335 C336 1.349 . S
C335 C337 1.327 . S
C335 H358 0.950 . S
C336 C335 1.349 . S
C336 C348 1.349 . S
C337 C335 1.327 . S
C337 C353 1.429 . S
C337 H359 0.950 . S
C338 H334 0.949 . S
C338 C346 1.574 . S
C338 C354 1.368 . S
H339 C347 0.950 . S
H340 C345 0.950 . S
H341 C346 0.949 . S
H342 C348 0.950 . S
H343 C349 0.950 . S
H344 C350 0.949 . S
C345 H340 0.950 . S
C345 C347 1.327 . S
C345 C351 1.429 . S
C346 C338 1.574 . S
C346 H341 0.949 . S
C346 C352 1.368 . S
C347 C331 1.349 . S
C347 H339 0.950 . S
C347 C345 1.327 . S
C348 C336 1.349 . S
C348 H342 0.950 . S
C348 C349 1.327 . S
C349 H343 0.950 . S
C349 C348 1.327 . S
C349 C353 1.429 . S
C350 C333 1.574 . S
C350 H344 0.949 . S
C350 C354 1.368 . S
C351 C332 1.429 . S
C351 C345 1.429 . S
C351 C352 1.523 . S
C352 C333 1.368 . S
C352 C346 1.368 . S
C352 C351 1.523 . S
C353 C337 1.429 . S
C353 C349 1.429 . S
C353 C354 1.523 . S
C354 C338 1.368 . S
C354 C350 1.368 . S
C354 C353 1.523 . S
H355 C330 0.950 . S
H356 C332 0.950 . S
H357 C333 0.949 . S
H358 C335 0.950 . S
H359 C337 0.950 . S
C360 C361 1.349 . S
C360 C362 1.327 . S
C360 H385 0.950 . S
C361 C360 1.349 . S
C361 C377 1.349 . S
C362 C360 1.327 . S
C362 C381 1.429 . S
C362 H386 0.950 . S
C363 C380 1.574 . S
C363 C382 1.368 . S
C363 H387 0.949 . S
H364 C368 0.949 . S
C365 C366 1.349 . S
C365 C367 1.327 . S
C365 H388 0.950 . S
C366 C365 1.349 . S
C366 C378 1.349 . S
C367 C365 1.327 . S
C367 C383 1.429 . S
C367 H389 0.950 . S
C368 H364 0.949 . S
C368 C376 1.574 . S
C368 C384 1.368 . S
H369 C377 0.950 . S
H370 C375 0.950 . S
H371 C376 0.949 . S
H372 C378 0.950 . S
H373 C379 0.950 . S
H374 C380 0.949 . S
C375 H370 0.950 . S
C375 C377 1.327 . S
C375 C381 1.429 . S
C376 C368 1.574 . S
C376 H371 0.949 . S
C376 C382 1.368 . S
C377 C361 1.349 . S
C377 H369 0.950 . S
C377 C375 1.327 . S
C378 C366 1.349 . S
C378 H372 0.950 . S
C378 C379 1.327 . S
C379 H373 0.950 . S
C379 C378 1.327 . S
C379 C383 1.429 . S
C380 C363 1.574 . S
C380 H374 0.949 . S
C380 C384 1.368 . S
C381 C362 1.429 . S
C381 C375 1.429 . S
C381 C382 1.523 . S
C382 C363 1.368 . S
C382 C376 1.368 . S
C382 C381 1.523 . S
C383 C367 1.429 . S
C383 C379 1.429 . S
C383 C384 1.523 . S
C384 C368 1.368 . S
C384 C380 1.368 . S
C384 C383 1.523 . S
H385 C360 0.950 . S
H386 C362 0.950 . S
H387 C363 0.949 . S
H388 C365 0.950 . S
H389 C367 0.950 . S
C390 C391 1.349 . S
C390 C392 1.327 . S
C390 H415 0.950 . S
C391 C390 1.349 . S
C391 C407 1.349 . S
C392 C390 1.327 . S
C392 C411 1.429 . S
C392 H416 0.950 . S
C393 C410 1.574 . S
C393 C412 1.368 . S
C393 H417 0.949 . S
H394 C398 0.949 . S
C395 C396 1.349 . S
C395 C397 1.327 . S
C395 H418 0.950 . S
C396 C395 1.349 . S
C396 C408 1.349 . S
C397 C395 1.327 . S
C397 C413 1.429 . S
C397 H419 0.950 . S
C398 H394 0.949 . S
C398 C406 1.574 . S
C398 C414 1.368 . S
H399 C407 0.950 . S
H400 C405 0.950 . S
H401 C406 0.949 . S
H402 C408 0.950 . S
H403 C409 0.950 . S
H404 C410 0.949 . S
C405 H400 0.950 . S
C405 C407 1.327 . S
C405 C411 1.429 . S
C406 C398 1.574 . S
C406 H401 0.949 . S
C406 C412 1.368 . S
C407 C391 1.349 . S
C407 H399 0.950 . S
C407 C405 1.327 . S
C408 C396 1.349 . S
C408 H402 0.950 . S
C408 C409 1.327 . S
C409 H403 0.950 . S
C409 C408 1.327 . S
C409 C413 1.429 . S
C410 C393 1.574 . S
C410 H404 0.949 . S
C410 C414 1.368 . S
C411 C392 1.429 . S
C411 C405 1.429 . S
C411 C412 1.523 . S
C412 C393 1.368 . S
C412 C406 1.368 . S
C412 C411 1.523 . S
C413 C397 1.429 . S
C413 C409 1.429 . S
C413 C414 1.523 . S
C414 C398 1.368 . S
C414 C410 1.368 . S
C414 C413 1.523 . S
H415 C390 0.950 . S
H416 C392 0.950 . S
H417 C393 0.949 . S
H418 C395 0.950 . S
H419 C397 0.950 . S
C420 C421 1.349 . S
C420 C422 1.327 . S
C420 H445 0.950 . S
C421 C420 1.349 . S
C421 C437 1.349 . S
C422 C420 1.327 . S
C422 C441 1.429 . S
C422 H446 0.950 . S
C423 C440 1.574 . S
C423 C442 1.368 . S
C423 H447 0.949 . S
H424 C428 0.949 . S
C425 C426 1.349 . S
C425 C427 1.327 . S
C425 H448 0.950 . S
C426 C425 1.349 . S
C426 C438 1.349 . S
C427 C425 1.327 . S
C427 C443 1.429 . S
C427 H449 0.950 . S
C428 H424 0.949 . S
C428 C436 1.574 . S
C428 C444 1.368 . S
H429 C437 0.950 . S
H430 C435 0.950 . S
H431 C436 0.949 . S
H432 C438 0.950 . S
H433 C439 0.950 . S
H434 C440 0.949 . S
C435 H430 0.950 . S
C435 C437 1.327 . S
C435 C441 1.429 . S
C436 C428 1.574 . S
C436 H431 0.949 . S
C436 C442 1.368 . S
C437 C421 1.349 . S
C437 H429 0.950 . S
C437 C435 1.327 . S
C438 C426 1.349 . S
C438 H432 0.950 . S
C438 C439 1.327 . S
C439 H433 0.950 . S
C439 C438 1.327 . S
C439 C443 1.429 . S
C440 C423 1.574 . S
C440 H434 0.949 . S
C440 C444 1.368 . S
C441 C422 1.429 . S
C441 C435 1.429 . S
C441 C442 1.523 . S
C442 C423 1.368 . S
C442 C436 1.368 . S
C442 C441 1.523 . S
C443 C427 1.429 . S
C443 C439 1.429 . S
C443 C444 1.523 . S
C444 C428 1.368 . S
C444 C440 1.368 . S
C444 C443 1.523 . S
H445 C420 0.950 . S
H446 C422 0.950 . S
H447 C423 0.949 . S
H448 C425 0.950 . S
H449 C427 0.950 . S
C450 C451 1.349 . S
C450 C452 1.327 . S
C450 H475 0.950 . S
C451 C450 1.349 . S
C451 C467 1.349 . S
C452 C450 1.327 . S
C452 C471 1.429 . S
C452 H476 0.950 . S
C453 C470 1.574 . S
C453 C472 1.368 . S
C453 H477 0.949 . S
H454 C458 0.949 . S
C455 C456 1.349 . S
C455 C457 1.327 . S
C455 H478 0.950 . S
C456 C455 1.349 . S
C456 C468 1.349 . S
C457 C455 1.327 . S
C457 C473 1.429 . S
C457 H479 0.950 . S
C458 H454 0.949 . S
C458 C466 1.574 . S
C458 C474 1.368 . S
H459 C467 0.950 . S
H460 C465 0.950 . S
H461 C466 0.949 . S
H462 C468 0.950 . S
H463 C469 0.950 . S
H464 C470 0.949 . S
C465 H460 0.950 . S
C465 C467 1.327 . S
C465 C471 1.429 . S
C466 C458 1.574 . S
C466 H461 0.949 . S
C466 C472 1.368 . S
C467 C451 1.349 . S
C467 H459 0.950 . S
C467 C465 1.327 . S
C468 C456 1.349 . S
C468 H462 0.950 . S
C468 C469 1.327 . S
C469 H463 0.950 . S
C469 C468 1.327 . S
C469 C473 1.429 . S
C470 C453 1.574 . S
C470 H464 0.949 . S
C470 C474 1.368 . S
C471 C452 1.429 . S
C471 C465 1.429 . S
C471 C472 1.523 . S
C472 C453 1.368 . S
C472 C466 1.368 . S
C472 C471 1.523 . S
C473 C457 1.429 . S
C473 C469 1.429 . S
C473 C474 1.523 . S
C474 C458 1.368 . S
C474 C470 1.368 . S
C474 C473 1.523 . S
H475 C450 0.950 . S
H476 C452 0.950 . S
H477 C453 0.949 . S
H478 C455 0.950 . S
H479 C457 0.950 . S
C480 C481 1.349 . S
C480 C482 1.327 . S
C480 H505 0.950 . S
C481 C480 1.349 . S
C481 C497 1.349 . S
C482 C480 1.327 . S
C482 C501 1.429 . S
C482 H506 0.950 . S
C483 C500 1.574 . S
C483 C502 1.368 . S
C483 H507 0.949 . S
H484 C488 0.949 . S
C485 C486 1.349 . S
C485 C487 1.327 . S
C485 H508 0.950 . S
C486 C485 1.349 . S
C486 C498 1.349 . S
C487 C485 1.327 . S
C487 C503 1.429 . S
C487 H509 0.950 . S
C488 H484 0.949 . S
C488 C496 1.574 . S
C488 C504 1.368 . S
H489 C497 0.950 . S
H490 C495 0.950 . S
H491 C496 0.949 . S
H492 C498 0.950 . S
H493 C499 0.950 . S
H494 C500 0.949 . S
C495 H490 0.950 . S
C495 C497 1.327 . S
C495 C501 1.429 . S
C496 C488 1.574 . S
C496 H491 0.949 . S
C496 C502 1.368 . S
C497 C481 1.349 . S
C497 H489 0.950 . S
C497 C495 1.327 . S
C498 C486 1.349 . S
C498 H492 0.950 . S
C498 C499 1.327 . S
C499 H493 0.950 . S
C499 C498 1.327 . S
C499 C503 1.429 . S
C500 C483 1.574 . S
C500 H494 0.949 . S
C500 C504 1.368 . S
C501 C482 1.429 . S
C501 C495 1.429 . S
C501 C502 1.523 . S
C502 C483 1.368 . S
C502 C496 1.368 . S
C502 C501 1.523 . S
C503 C487 1.429 . S
C503 C499 1.429 . S
C503 C504 1.523 . S
C504 C488 1.368 . S
C504 C500 1.368 . S
C504 C503 1.523 . S
H505 C480 0.950 . S
H506 C482 0.950 . S
H507 C483 0.949 . S
H508 C485 0.950 . S
H509 C487 0.950 . S
C510 C511 1.349 . S
C510 C512 1.327 . S
C510 H535 0.950 . S
C511 C510 1.349 . S
C511 C527 1.349 . S
C512 C510 1.327 . S
C512 C531 1.429 . S
C512 H536 0.950 . S
C513 C530 1.574 . S
C513 C532 1.368 . S
C513 H537 0.949 . S
H514 C518 0.949 . S
C515 C516 1.349 . S
C515 C517 1.327 . S
C515 H538 0.950 . S
C516 C515 1.349 . S
C516 C528 1.349 . S
C517 C515 1.327 . S
C517 C533 1.429 . S
C517 H539 0.950 . S
C518 H514 0.949 . S
C518 C526 1.574 . S
C518 C534 1.368 . S
H519 C527 0.950 . S
H520 C525 0.950 . S
H521 C526 0.949 . S
H522 C528 0.950 . S
H523 C529 0.950 . S
H524 C530 0.949 . S
C525 H520 0.950 . S
C525 C527 1.327 . S
C525 C531 1.429 . S
C526 C518 1.574 . S
C526 H521 0.949 . S
C526 C532 1.368 . S
C527 C511 1.349 . S
C527 H519 0.950 . S
C527 C525 1.327 . S
C528 C516 1.349 . S
C528 H522 0.950 . S
C528 C529 1.327 . S
C529 H523 0.950 . S
C529 C528 1.327 . S
C529 C533 1.429 . S
C530 C513 1.574 . S
C530 H524 0.949 . S
C530 C534 1.368 . S
C531 C512 1.429 . S
C531 C525 1.429 . S
C531 C532 1.523 . S
C532 C513 1.368 . S
C532 C526 1.368 . S
C532 C531 1.523 . S
C533 C517 1.429 . S
C533 C529 1.429 . S
C533 C534 1.523 . S
C534 C518 1.368 . S
C534 C530 1.368 . S
C534 C533 1.523 . S
H535 C510 0.950 . S
H536 C512 0.950 . S
H537 C513 0.949 . S
H538 C515 0.950 . S
H539 C517 0.950 . S
C540 C541 1.349 . S
C540 C542 1.327 . S
C540 H565 0.950 . S
C541 C540 1.349 . S
C541 C557 1.349 . S
C542 C540 1.327 . S
C542 C561 1.429 . S
C542 H566 0.950 . S
C543 C560 1.574 . S
C543 C562 1.368 . S
C543 H567 0.949 . S
H544 C548 0.949 . S
C545 C546 1.349 . S
C545 C547 1.327 . S
C545 H568 0.950 . S
C546 C545 1.349 . S
C546 C558 1.349 . S
C547 C545 1.327 . S
C547 C563 1.429 . S
C547 H569 0.950 . S
C548 H544 0.949 . S
C548 C556 1.574 . S
C548 C564 1.368 . S
H549 C557 0.950 . S
H550 C555 0.950 . S
H551 C556 0.949 . S
H552 C558 0.950 . S
H553 C559 0.950 . S
H554 C560 0.949 . S
C555 H550 0.950 . S
C555 C557 1.327 . S
C555 C561 1.429 . S
C556 C548 1.574 . S
C556 H551 0.949 . S
C556 C562 1.368 . S
C557 C541 1.349 . S
C557 H549 0.950 . S
C557 C555 1.327 . S
C558 C546 1.349 . S
C558 H552 0.950 . S
C558 C559 1.327 . S
C559 H553 0.950 . S
C559 C558 1.327 . S
C559 C563 1.429 . S
C560 C543 1.574 . S
C560 H554 0.949 . S
C560 C564 1.368 . S
C561 C542 1.429 . S
C561 C555 1.429 . S
C561 C562 1.523 . S
C562 C543 1.368 . S
C562 C556 1.368 . S
C562 C561 1.523 . S
C563 C547 1.429 . S
C563 C559 1.429 . S
C563 C564 1.523 . S
C564 C548 1.368 . S
C564 C560 1.368 . S
C564 C563 1.523 . S
H565 C540 0.950 . S
H566 C542 0.950 . S
H567 C543 0.949 . S
H568 C545 0.950 . S
H569 C547 0.950 . S
C570 C571 1.349 . S
C570 C572 1.327 . S
C570 H595 0.950 . S
C571 C570 1.349 . S
C571 C587 1.349 . S
C572 C570 1.327 . S
C572 C591 1.429 . S
C572 H596 0.950 . S
C573 C590 1.574 . S
C573 C592 1.368 . S
C573 H597 0.949 . S
H574 C578 0.949 . S
C575 C576 1.349 . S
C575 C577 1.327 . S
C575 H598 0.950 . S
C576 C575 1.349 . S
C576 C588 1.349 . S
C577 C575 1.327 . S
C577 C593 1.429 . S
C577 H599 0.950 . S
C578 H574 0.949 . S
C578 C586 1.574 . S
C578 C594 1.368 . S
H579 C587 0.950 . S
H580 C585 0.950 . S
H581 C586 0.949 . S
H582 C588 0.950 . S
H583 C589 0.950 . S
H584 C590 0.949 . S
C585 H580 0.950 . S
C585 C587 1.327 . S
C585 C591 1.429 . S
C586 C578 1.574 . S
C586 H581 0.949 . S
C586 C592 1.368 . S
C587 C571 1.349 . S
C587 H579 0.950 . S
C587 C585 1.327 . S
C588 C576 1.349 . S
C588 H582 0.950 . S
C588 C589 1.327 . S
C589 H583 0.950 . S
C589 C588 1.327 . S
C589 C593 1.429 . S
C590 C573 1.574 . S
C590 H584 0.949 . S
C590 C594 1.368 . S
C591 C572 1.429 . S
C591 C585 1.429 . S
C591 C592 1.523 . S
C592 C573 1.368 . S
C592 C586 1.368 . S
C592 C591 1.523 . S
C593 C577 1.429 . S
C593 C589 1.429 . S
C593 C594 1.523 . S
C594 C578 1.368 . S
C594 C590 1.368 . S
C594 C593 1.523 . S
H595 C570 0.950 . S
H596 C572 0.950 . S
H597 C573 0.949 . S
H598 C575 0.950 . S
H599 C577 0.950 . S
C600 C601 1.349 . S
C600 C602 1.327 . S
C600 H625 0.950 . S
C601 C600 1.349 . S
C601 C617 1.349 . S
C602 C600 1.327 . S
C602 C621 1.429 . S
C602 H626 0.950 . S
C603 C620 1.574 . S
C603 C622 1.368 . S
C603 H627 0.949 . S
H604 C608 0.949 . S
C605 C606 1.349 . S
C605 C607 1.327 . S
C605 H628 0.950 . S
C606 C605 1.349 . S
C606 C618 1.349 . S
C607 C605 1.327 . S
C607 C623 1.429 . S
C607 H629 0.950 . S
C608 H604 0.949 . S
C608 C616 1.574 . S
C608 C624 1.368 . S
H609 C617 0.950 . S
H610 C615 0.950 . S
H611 C616 0.949 . S
H612 C618 0.950 . S
H613 C619 0.950 . S
H614 C620 0.949 . S
C615 H610 0.950 . S
C615 C617 1.327 . S
C615 C621 1.429 . S
C616 C608 1.574 . S
C616 H611 0.949 . S
C616 C622 1.368 . S
C617 C601 1.349 . S
C617 H609 0.950 . S
C617 C615 1.327 . S
C618 C606 1.349 . S
C618 H612 0.950 . S
C618 C619 1.327 . S
C619 H613 0.950 . S
C619 C618 1.327 . S
C619 C623 1.429 . S
C620 C603 1.574 . S
C620 H614 0.949 . S
C620 C624 1.368 . S
C621 C602 1.429 . S
C621 C615 1.429 . S
C621 C622 1.523 . S
C622 C603 1.368 . S
C622 C616 1.368 . S
C622 C621 1.523 . S
C623 C607 1.429 . S
C623 C619 1.429 . S
C623 C624 1.523 . S
C624 C608 1.368 . S
C624 C620 1.368 . S
C624 C623 1.523 . S
H625 C600 0.950 . S
H626 C602 0.950 . S
H627 C603 0.949 . S
H628 C605 0.950 . S
H629 C607 0.950 . S
C630 C631 1.349 . S
C630 C632 1.327 . S
C630 H655 0.950 . S
C631 C630 1.349 . S
C631 C647 1.349 . S
C632 C630 1.327 . S
C632 C651 1.429 . S
C632 H656 0.950 . S
C633 C650 1.574 . S
C633 C652 1.368 . S
C633 H657 0.949 . S
H634 C638 0.949 . S
C635 C636 1.349 . S
C635 C637 1.327 . S
C635 H658 0.950 . S
C636 C635 1.349 . S
C636 C648 1.349 . S
C637 C635 1.327 . S
C637 C653 1.429 . S
C637 H659 0.950 . S
C638 H634 0.949 . S
C638 C646 1.574 . S
C638 C654 1.368 . S
H639 C647 0.950 . S
H640 C645 0.950 . S
H641 C646 0.949 . S
H642 C648 0.950 . S
H643 C649 0.950 . S
H644 C650 0.949 . S
C645 H640 0.950 . S
C645 C647 1.327 . S
C645 C651 1.429 . S
C646 C638 1.574 . S
C646 H641 0.949 . S
C646 C652 1.368 . S
C647 C631 1.349 . S
C647 H639 0.950 . S
C647 C645 1.327 . S
C648 C636 1.349 . S
C648 H642 0.950 . S
C648 C649 1.327 . S
C649 H643 0.950 . S
C649 C648 1.327 . S
C649 C653 1.429 . S
C650 C633 1.574 . S
C650 H644 0.949 . S
C650 C654 1.368 . S
C651 C632 1.429 . S
C651 C645 1.429 . S
C651 C652 1.523 . S
C652 C633 1.368 . S
C652 C646 1.368 . S
C652 C651 1.523 . S
C653 C637 1.429 . S
C653 C649 1.429 . S
C653 C654 1.523 . S
C654 C638 1.368 . S
C654 C650 1.368 . S
C654 C653 1.523 . S
H655 C630 0.950 . S
H656 C632 0.950 . S
H657 C633 0.949 . S
H658 C635 0.950 . S
H659 C637 0.950 . S
C660 C661 1.349 . S
C660 C662 1.327 . S
C660 H685 0.950 . S
C661 C660 1.349 . S
C661 C677 1.349 . S
C662 C660 1.327 . S
C662 C681 1.429 . S
C662 H686 0.950 . S
C663 C680 1.574 . S
C663 C682 1.368 . S
C663 H687 0.949 . S
H664 C668 0.949 . S
C665 C666 1.349 . S
C665 C667 1.327 . S
C665 H688 0.950 . S
C666 C665 1.349 . S
C666 C678 1.349 . S
C667 C665 1.327 . S
C667 C683 1.429 . S
C667 H689 0.950 . S
C668 H664 0.949 . S
C668 C676 1.574 . S
C668 C684 1.368 . S
H669 C677 0.950 . S
H670 C675 0.950 . S
H671 C676 0.949 . S
H672 C678 0.950 . S
H673 C679 0.950 . S
H674 C680 0.949 . S
C675 H670 0.950 . S
C675 C677 1.327 . S
C675 C681 1.429 . S
C676 C668 1.574 . S
C676 H671 0.949 . S
C676 C682 1.368 . S
C677 C661 1.349 . S
C677 H669 0.950 . S
C677 C675 1.327 . S
C678 C666 1.349 . S
C678 H672 0.950 . S
C678 C679 1.327 . S
C679 H673 0.950 . S
C679 C678 1.327 . S
C679 C683 1.429 . S
C680 C663 1.574 . S
C680 H674 0.949 . S
C680 C684 1.368 . S
C681 C662 1.429 . S
C681 C675 1.429 . S
C681 C682 1.523 . S
C682 C663 1.368 . S
C682 C676 1.368 . S
C682 C681 1.523 . S
C683 C667 1.429 . S
C683 C679 1.429 . S
C683 C684 1.523 . S
C684 C668 1.368 . S
C684 C680 1.368 . S
C684 C683 1.523 . S
H685 C660 0.950 . S
H686 C662 0.950 . S
H687 C663 0.949 . S
H688 C665 0.950 . S
H689 C667 0.950 . S
C690 C691 1.349 . S
C690 C692 1.327 . S
C690 H715 0.950 . S
C691 C690 1.349 . S
C691 C707 1.349 . S
C692 C690 1.327 . S
C692 C711 1.429 . S
C692 H716 0.950 . S
C693 C710 1.574 . S
C693 C712 1.368 . S
C693 H717 0.949 . S
H694 C698 0.949 . S
C695 C696 1.349 . S
C695 C697 1.327 . S
C695 H718 0.950 . S
C696 C695 1.349 . S
C696 C708 1.349 . S
C697 C695 1.327 . S
C697 C713 1.429 . S
C697 H719 0.950 . S
C698 H694 0.949 . S
C698 C706 1.574 . S
C698 C714 1.368 . S
H699 C707 0.950 . S
H700 C705 0.950 . S
H701 C706 0.949 . S
H702 C708 0.950 . S
H703 C709 0.950 . S
H704 C710 0.949 . S
C705 H700 0.950 . S
C705 C707 1.327 . S
C705 C711 1.429 . S
C706 C698 1.574 . S
C706 H701 0.949 . S
C706 C712 1.368 . S
C707 C691 1.349 . S
C707 H699 0.950 . S
C707 C705 1.327 . S
C708 C696 1.349 . S
C708 H702 0.950 . S
C708 C709 1.327 . S
C709 H703 0.950 . S
C709 C708 1.327 . S
C709 C713 1.429 . S
C710 C693 1.574 . S
C710 H704 0.949 . S
C710 C714 1.368 . S
C711 C692 1.429 . S
C711 C705 1.429 . S
C711 C712 1.523 . S
C712 C693 1.368 . S
C712 C706 1.368 . S
C712 C711 1.523 . S
C713 C697 1.429 . S
C713 C709 1.429 . S
C713 C714 1.523 . S
C714 C698 1.368 . S
C714 C710 1.368 . S
C714 C713 1.523 . S
H715 C690 0.950 . S
H716 C692 0.950 . S
H717 C693 0.949 . S
H718 C695 0.950 . S
H719 C697 0.950 . S
C720 C721 1.349 . S
C720 C722 1.327 . S
C720 H745 0.950 . S
C721 C720 1.349 . S
C721 C737 1.349 1_554 S
C722 C720 1.327 . S
C722 C741 1.429 . S
C722 H746 0.950 . S
C723 C740 1.574 . S
C723 C742 1.368 1_556 S
C723 H747 0.949 . S
H724 C728 0.949 . S
C725 C726 1.349 1_556 S
C725 C727 1.327 . S
C725 H748 0.950 . S
C726 C725 1.349 1_554 S
C726 C738 1.349 . S
C727 C725 1.327 . S
C727 C743 1.429 1_556 S
C727 H749 0.950 . S
C728 H724 0.949 . S
C728 C736 1.574 . S
C728 C744 1.368 . S
H729 C737 0.950 . S
H730 C735 0.950 . S
H731 C736 0.949 . S
H732 C738 0.950 . S
H733 C739 0.950 . S
H734 C740 0.949 . S
C735 H730 0.950 . S
C735 C737 1.327 . S
C735 C741 1.429 1_556 S
C736 C728 1.574 . S
C736 H731 0.949 . S
C736 C742 1.368 . S
C737 C721 1.349 1_556 S
C737 H729 0.950 . S
C737 C735 1.327 . S
C738 C726 1.349 . S
C738 H732 0.950 . S
C738 C739 1.327 . S
C739 H733 0.950 . S
C739 C738 1.327 . S
C739 C743 1.429 . S
C740 C723 1.574 . S
C740 H734 0.949 . S
C740 C744 1.368 1_556 S
C741 C722 1.429 . S
C741 C735 1.429 1_554 S
C741 C742 1.523 . S
C742 C723 1.368 1_554 S
C742 C736 1.368 . S
C742 C741 1.523 . S
C743 C727 1.429 1_554 S
C743 C739 1.429 . S
C743 C744 1.523 . S
C744 C728 1.368 . S
C744 C740 1.368 1_554 S
C744 C743 1.523 . S
H745 C720 0.950 . S
H746 C722 0.950 . S
H747 C723 0.949 . S
H748 C725 0.950 . S
H749 C727 0.950 . S
C750 C751 1.349 . S
C750 C752 1.327 . S
C750 H775 0.950 . S
C751 C750 1.349 . S
C751 C767 1.349 . S
C752 C750 1.327 . S
C752 C771 1.429 . S
C752 H776 0.950 . S
C753 C770 1.574 . S
C753 C772 1.368 . S
C753 H777 0.949 . S
H754 C758 0.949 . S
C755 C756 1.349 . S
C755 C757 1.327 . S
C755 H778 0.950 . S
C756 C755 1.349 . S
C756 C768 1.349 . S
C757 C755 1.327 . S
C757 C773 1.429 . S
C757 H779 0.950 . S
C758 H754 0.949 . S
C758 C766 1.574 . S
C758 C774 1.368 . S
H759 C767 0.950 . S
H760 C765 0.950 . S
H761 C766 0.949 . S
H762 C768 0.950 . S
H763 C769 0.950 . S
H764 C770 0.949 . S
C765 H760 0.950 . S
C765 C767 1.327 . S
C765 C771 1.429 . S
C766 C758 1.574 . S
C766 H761 0.949 . S
C766 C772 1.368 . S
C767 C751 1.349 . S
C767 H759 0.950 . S
C767 C765 1.327 . S
C768 C756 1.349 . S
C768 H762 0.950 . S
C768 C769 1.327 . S
C769 H763 0.950 . S
C769 C768 1.327 . S
C769 C773 1.429 . S
C770 C753 1.574 . S
C770 H764 0.949 . S
C770 C774 1.368 . S
C771 C752 1.429 . S
C771 C765 1.429 . S
C771 C772 1.523 . S
C772 C753 1.368 . S
C772 C766 1.368 . S
C772 C771 1.523 . S
C773 C757 1.429 . S
C773 C769 1.429 . S
C773 C774 1.523 . S
C774 C758 1.368 . S
C774 C770 1.368 . S
C774 C773 1.523 . S
H775 C750 0.950 . S
H776 C752 0.950 . S
H777 C753 0.949 . S
H778 C755 0.950 . S
H779 C757 0.950 . S
C780 C781 1.349 . S
C780 C782 1.327 . S
C780 H805 0.950 . S
C781 C780 1.349 . S
C781 C797 1.349 1_554 S
C782 C780 1.327 . S
C782 C801 1.429 . S
C782 H806 0.950 . S
C783 C800 1.574 . S
C783 C802 1.368 1_556 S
C783 H807 0.949 . S
H784 C788 0.949 . S
C785 C786 1.349 1_556 S
C785 C787 1.327 . S
C785 H808 0.950 . S
C786 C785 1.349 1_554 S
C786 C798 1.349 . S
C787 C785 1.327 . S
C787 C803 1.429 1_556 S
C787 H809 0.950 . S
C788 H784 0.949 . S
C788 C796 1.574 . S
C788 C804 1.368 . S
H789 C797 0.950 . S
H790 C795 0.950 . S
H791 C796 0.949 . S
H792 C798 0.950 . S
H793 C799 0.950 . S
H794 C800 0.949 . S
C795 H790 0.950 . S
C795 C797 1.327 . S
C795 C801 1.429 1_556 S
C796 C788 1.574 . S
C796 H791 0.949 . S
C796 C802 1.368 . S
C797 C781 1.349 1_556 S
C797 H789 0.950 . S
C797 C795 1.327 . S
C798 C786 1.349 . S
C798 H792 0.950 . S
C798 C799 1.327 . S
C799 H793 0.950 . S
C799 C798 1.327 . S
C799 C803 1.429 . S
C800 C783 1.574 . S
C800 H794 0.949 . S
C800 C804 1.368 1_556 S
C801 C782 1.429 . S
C801 C795 1.429 1_554 S
C801 C802 1.523 . S
C802 C783 1.368 1_554 S
C802 C796 1.368 . S
C802 C801 1.523 . S
C803 C787 1.429 1_554 S
C803 C799 1.429 . S
C803 C804 1.523 . S
C804 C788 1.368 . S
C804 C800 1.368 1_554 S
C804 C803 1.523 . S
H805 C780 0.950 . S
H806 C782 0.950 . S
H807 C783 0.949 . S
H808 C785 0.950 . S
H809 C787 0.950 . S
C810 C811 1.349 . S
C810 C812 1.327 . S
C810 H835 0.950 . S
C811 C810 1.349 . S
C811 C827 1.349 . S
C812 C810 1.327 . S
C812 C831 1.429 . S
C812 H836 0.950 . S
C813 C830 1.574 . S
C813 C832 1.368 . S
C813 H837 0.949 . S
H814 C818 0.949 . S
C815 C816 1.349 . S
C815 C817 1.327 . S
C815 H838 0.950 . S
C816 C815 1.349 . S
C816 C828 1.349 . S
C817 C815 1.327 . S
C817 C833 1.429 . S
C817 H839 0.950 . S
C818 H814 0.949 . S
C818 C826 1.574 . S
C818 C834 1.368 . S
H819 C827 0.950 . S
H820 C825 0.950 . S
H821 C826 0.949 . S
H822 C828 0.950 . S
H823 C829 0.950 . S
H824 C830 0.949 . S
C825 H820 0.950 . S
C825 C827 1.327 . S
C825 C831 1.429 . S
C826 C818 1.574 . S
C826 H821 0.949 . S
C826 C832 1.368 . S
C827 C811 1.349 . S
C827 H819 0.950 . S
C827 C825 1.327 . S
C828 C816 1.349 . S
C828 H822 0.950 . S
C828 C829 1.327 . S
C829 H823 0.950 . S
C829 C828 1.327 . S
C829 C833 1.429 . S
C830 C813 1.574 . S
C830 H824 0.949 . S
C830 C834 1.368 . S
C831 C812 1.429 . S
C831 C825 1.429 . S
C831 C832 1.523 . S
C832 C813 1.368 . S
C832 C826 1.368 . S
C832 C831 1.523 . S
C833 C817 1.429 . S
C833 C829 1.429 . S
C833 C834 1.523 . S
C834 C818 1.368 . S
C834 C830 1.368 . S
C834 C833 1.523 . S
H835 C810 0.950 . S
H836 C812 0.950 . S
H837 C813 0.949 . S
H838 C815 0.950 . S
H839 C817 0.950 . S
C840 C841 1.349 . S
C840 C842 1.327 . S
C840 H865 0.950 . S
C841 C840 1.349 . S
C841 C857 1.349 . S
C842 C840 1.327 . S
C842 C861 1.429 . S
C842 H866 0.950 . S
C843 C860 1.574 . S
C843 C862 1.368 . S
C843 H867 0.949 . S
H844 C848 0.949 . S
C845 C846 1.349 . S
C845 C847 1.327 . S
C845 H868 0.950 . S
C846 C845 1.349 . S
C846 C858 1.349 . S
C847 C845 1.327 . S
C847 C863 1.429 . S
C847 H869 0.950 . S
C848 H844 0.949 . S
C848 C856 1.574 . S
C848 C864 1.368 . S
H849 C857 0.950 . S
H850 C855 0.950 . S
H851 C856 0.949 . S
H852 C858 0.950 . S
H853 C859 0.950 . S
H854 C860 0.949 . S
C855 H850 0.950 . S
C855 C857 1.327 . S
C855 C861 1.429 . S
C856 C848 1.574 . S
C856 H851 0.949 . S
C856 C862 1.368 . S
C857 C841 1.349 . S
C857 H849 0.950 . S
C857 C855 1.327 . S
C858 C846 1.349 . S
C858 H852 0.950 . S
C858 C859 1.327 . S
C859 H853 0.950 . S
C859 C858 1.327 . S
C859 C863 1.429 . S
C860 C843 1.574 . S
C860 H854 0.949 . S
C860 C864 1.368 . S
C861 C842 1.429 . S
C861 C855 1.429 . S
C861 C862 1.523 . S
C862 C843 1.368 . S
C862 C856 1.368 . S
C862 C861 1.523 . S
C863 C847 1.429 . S
C863 C859 1.429 . S
C863 C864 1.523 . S
C864 C848 1.368 . S
C864 C860 1.368 . S
C864 C863 1.523 . S
H865 C840 0.950 . S
H866 C842 0.950 . S
H867 C843 0.949 . S
H868 C845 0.950 . S
H869 C847 0.950 . S
C870 C871 1.349 . S
C870 C872 1.327 . S
C870 H895 0.950 . S
C871 C870 1.349 . S
C871 C887 1.349 1_554 S
C872 C870 1.327 . S
C872 C891 1.429 . S
C872 H896 0.950 . S
C873 C890 1.574 . S
C873 C892 1.368 1_556 S
C873 H897 0.949 . S
H874 C878 0.949 . S
C875 C876 1.349 1_556 S
C875 C877 1.327 . S
C875 H898 0.950 . S
C876 C875 1.349 1_554 S
C876 C888 1.349 . S
C877 C875 1.327 . S
C877 C893 1.429 1_556 S
C877 H899 0.950 . S
C878 H874 0.949 . S
C878 C886 1.574 . S
C878 C894 1.368 . S
H879 C887 0.950 . S
H880 C885 0.950 . S
H881 C886 0.949 . S
H882 C888 0.950 . S
H883 C889 0.950 . S
H884 C890 0.949 . S
C885 H880 0.950 . S
C885 C887 1.327 . S
C885 C891 1.429 1_556 S
C886 C878 1.574 . S
C886 H881 0.949 . S
C886 C892 1.368 . S
C887 C871 1.349 1_556 S
C887 H879 0.950 . S
C887 C885 1.327 . S
C888 C876 1.349 . S
C888 H882 0.950 . S
C888 C889 1.327 . S
C889 H883 0.950 . S
C889 C888 1.327 . S
C889 C893 1.429 . S
C890 C873 1.574 . S
C890 H884 0.949 . S
C890 C894 1.368 1_556 S
C891 C872 1.429 . S
C891 C885 1.429 1_554 S
C891 C892 1.523 . S
C892 C873 1.368 1_554 S
C892 C886 1.368 . S
C892 C891 1.523 . S
C893 C877 1.429 1_554 S
C893 C889 1.429 . S
C893 C894 1.523 . S
C894 C878 1.368 . S
C894 C890 1.368 1_554 S
C894 C893 1.523 . S
H895 C870 0.950 . S
H896 C872 0.950 . S
H897 C873 0.949 . S
H898 C875 0.950 . S
H899 C877 0.950 . S
C900 C901 1.349 . S
C900 C902 1.327 . S
C900 H925 0.950 . S
C901 C900 1.349 . S
C901 C917 1.349 . S
C902 C900 1.327 . S
C902 C921 1.429 . S
C902 H926 0.950 . S
C903 C920 1.574 . S
C903 C922 1.368 . S
C903 H927 0.949 . S
H904 C908 0.949 . S
C905 C906 1.349 . S
C905 C907 1.327 . S
C905 H928 0.950 . S
C906 C905 1.349 . S
C906 C918 1.349 . S
C907 C905 1.327 . S
C907 C923 1.429 . S
C907 H929 0.950 . S
C908 H904 0.949 . S
C908 C916 1.574 . S
C908 C924 1.368 . S
H909 C917 0.950 . S
H910 C915 0.950 . S
H911 C916 0.949 . S
H912 C918 0.950 . S
H913 C919 0.950 . S
H914 C920 0.949 . S
C915 H910 0.950 . S
C915 C917 1.327 . S
C915 C921 1.429 . S
C916 C908 1.574 . S
C916 H911 0.949 . S
C916 C922 1.368 . S
C917 C901 1.349 . S
C917 H909 0.950 . S
C917 C915 1.327 . S
C918 C906 1.349 . S
C918 H912 0.950 . S
C918 C919 1.327 . S
C919 H913 0.950 . S
C919 C918 1.327 . S
C919 C923 1.429 . S
C920 C903 1.574 . S
C920 H914 0.949 . S
C920 C924 1.368 . S
C921 C902 1.429 . S
C921 C915 1.429 . S
C921 C922 1.523 . S
C922 C903 1.368 . S
C922 C916 1.368 . S
C922 C921 1.523 . S
C923 C907 1.429 . S
C923 C919 1.429 . S
C923 C924 1.523 . S
C924 C908 1.368 . S
C924 C920 1.368 . S
C924 C923 1.523 . S
H925 C900 0.950 . S
H926 C902 0.950 . S
H927 C903 0.949 . S
H928 C905 0.950 . S
H929 C907 0.950 . S
C930 C931 1.349 . S
C930 C932 1.327 . S
C930 H955 0.950 . S
C931 C930 1.349 . S
C931 C947 1.349 1_554 S
C932 C930 1.327 . S
C932 C951 1.429 . S
C932 H956 0.950 . S
C933 C950 1.574 . S
C933 C952 1.368 1_556 S
C933 H957 0.949 . S
H934 C938 0.949 . S
C935 C936 1.349 1_556 S
C935 C937 1.327 . S
C935 H958 0.950 . S
C936 C935 1.349 1_554 S
C936 C948 1.349 . S
C937 C935 1.327 . S
C937 C953 1.429 1_556 S
C937 H959 0.950 . S
C938 H934 0.949 . S
C938 C946 1.574 . S
C938 C954 1.368 . S
H939 C947 0.950 . S
H940 C945 0.950 . S
H941 C946 0.949 . S
H942 C948 0.950 . S
H943 C949 0.950 . S
H944 C950 0.949 . S
C945 H940 0.950 . S
C945 C947 1.327 . S
C945 C951 1.429 1_556 S
C946 C938 1.574 . S
C946 H941 0.949 . S
C946 C952 1.368 . S
C947 C931 1.349 1_556 S
C947 H939 0.950 . S
C947 C945 1.327 . S
C948 C936 1.349 . S
C948 H942 0.950 . S
C948 C949 1.327 . S
C949 H943 0.950 . S
C949 C948 1.327 . S
C949 C953 1.429 . S
C950 C933 1.574 . S
C950 H944 0.949 . S
C950 C954 1.368 1_556 S
C951 C932 1.429 . S
C951 C945 1.429 1_554 S
C951 C952 1.523 . S
C952 C933 1.368 1_554 S
C952 C946 1.368 . S
C952 C951 1.523 . S
C953 C937 1.429 1_554 S
C953 C949 1.429 . S
C953 C954 1.523 . S
C954 C938 1.368 . S
C954 C950 1.368 1_554 S
C954 C953 1.523 . S
H955 C930 0.950 . S
H956 C932 0.950 . S
H957 C933 0.949 . S
H958 C935 0.950 . S
H959 C937 0.950 . S
C241 C21 1.536 . S
C246 C151 1.541 . S
C271 C40 1.509 . S
C276 C94 1.503 . S
C306 C109 1.479 . S
C301 C54 1.520 . S
C331 C73 1.549 . S
C336 C128 1.519 . S
C366 C185 1.466 . S
C361 C74 1.506 . S
C396 C204 1.497 . S
C391 C10 1.540 . S
C426 C227 1.555 . S
C421 C37 1.553 . S
C456 C170 1.525 . S
C451 C65 1.518 . S
C481 C52 1.475 . S
C486 C113 1.472 . S
C511 C87 1.532 . S
C516 C132 1.537 . S
C541 C15 1.584 . S
C546 C147 1.548 . S
C576 C90 1.482 . S
C571 C32 1.524 . S
C601 C29 1.567 . S
C606 C223 1.534 . S
C636 C166 1.530 . S
C631 C59 1.564 . S
C666 C189 1.485 . S
C661 C84 1.489 . S
C691 C8 1.493 . S
C696 C208 1.489 . S
C726 C99 1.393 1_554 S
C721 C7 1.509 . S
C756 C118 1.373 . S
C751 C30 1.483 . S
C781 C62 1.497 . S
C786 C137 1.388 . S
C811 C81 1.523 . S
C816 C156 1.403 . S
C846 C175 1.371 . S
C841 C76 1.497 . S
C871 C18 1.483 . S
C876 C194 1.372 1_554 S
C901 C43 1.508 . S
C906 C213 1.407 . S
C931 C51 1.523 . S
C936 C232 1.402 . S
