# Generated by pormake.
# Topology rtl, (3,6)-cn, num edge types: 1
# Building blocks:
#     Node 0, Type 0, BuildingBlock: ESEHIV_clean_linker_0, # of connection points: 3
#     Node 1, Type 0, BuildingBlock: ESEHIV_clean_linker_0, # of connection points: 3
#     Node 2, Type 0, BuildingBlock: ESEHIV_clean_linker_0, # of connection points: 3
#     Node 3, Type 0, BuildingBlock: ESEHIV_clean_linker_0, # of connection points: 3
#     Node 4, Type 1, BuildingBlock: KUMBUR_clean_sbu_1, # of connection points: 6
#     Node 5, Type 1, BuildingBlock: KUMBUR_clean_sbu_1, # of connection points: 6
#     Edge 6, Type (0, 1), BuildingBlock: ZUJKAS_clean_linker_0, # of connection points: 2
#     Edge 7, Type (0, 1), BuildingBlock: ZUJKAS_clean_linker_0, # of connection points: 2
#     Edge 8, Type (0, 1), BuildingBlock: ZUJKAS_clean_linker_0, # of connection points: 2
#     Edge 9, Type (0, 1), BuildingBlock: ZUJKAS_clean_linker_0, # of connection points: 2
#     Edge 10, Type (0, 1), BuildingBlock: ZUJKAS_clean_linker_0, # of connection points: 2
#     Edge 11, Type (0, 1), BuildingBlock: ZUJKAS_clean_linker_0, # of connection points: 2
#     Edge 12, Type (0, 1), BuildingBlock: ZUJKAS_clean_linker_0, # of connection points: 2
#     Edge 13, Type (0, 1), BuildingBlock: ZUJKAS_clean_linker_0, # of connection points: 2
#     Edge 14, Type (0, 1), BuildingBlock: ZUJKAS_clean_linker_0, # of connection points: 2
#     Edge 15, Type (0, 1), BuildingBlock: ZUJKAS_clean_linker_0, # of connection points: 2
#     Edge 16, Type (0, 1), BuildingBlock: ZUJKAS_clean_linker_0, # of connection points: 2
#     Edge 17, Type (0, 1), BuildingBlock: ZUJKAS_clean_linker_0, # of connection points: 2
# Relax obj value: 0.017
# Max RMSD: 0.098
# Mean RMSD: 0.059
data_MOF--net-rtl--node1-KUMBUR_clean_sbu_1--node2-ESEHIV_clean_linker_0--edge1-ZUJKAS_clean_linker_0
_symmetry_space_group_name_H-M    P1
_symmetry_Int_Tables_number       1
_symmetry_cell_setting            triclinic
loop_
_symmetry_equiv_pos_as_xyz
'x, y, z'
_cell_length_a     40.230972
_cell_length_b     40.86866
_cell_length_c     35.49962
_cell_angle_alpha  80.130599
_cell_angle_beta   99.49273
_cell_angle_gamma 90.816889
loop_
_atom_site_label
_atom_site_type_symbol
_atom_site_fract_x
_atom_site_fract_y
_atom_site_fract_z
_atom_type_partial_charge
H0 H 0.16933 0.88741 0.01694 0.0
H1 H 0.23866 0.81283 0.08585 0.0
H2 H 0.23126 0.83206 0.96169 0.0
C3 C 0.18858 0.86861 0.01898 0.0
C4 C 0.19909 0.86222 0.98511 0.0
C5 C 0.20257 0.8507 0.05539 0.0
C6 C 0.22732 0.8262 0.0577 0.0
C7 C 0.23813 0.81944 0.0241 0.0
C8 C 0.2239 0.83769 0.98793 0.0
H9 H 0.64778 0.64471 0.61665 0.0
H10 H 0.7052 0.71521 0.55028 0.0
H11 H 0.7104 0.7146 0.67242 0.0
C12 C 0.66516 0.66521 0.61505 0.0
C13 C 0.67771 0.67811 0.6488 0.0
C14 C 0.6749 0.67836 0.57933 0.0
C15 C 0.69749 0.7049 0.57766 0.0
C16 C 0.71051 0.71811 0.61105 0.0
C17 C 0.70044 0.7046 0.64654 0.0
H18 H 0.84684 0.12463 0.04358 0.0
H19 H 0.7863 0.18063 0.09995 0.0
H20 H 0.77459 0.19723 0.9757 0.0
C21 C 0.82769 0.14345 0.04188 0.0
C22 C 0.8118 0.15999 0.00542 0.0
C23 C 0.81829 0.15043 0.07616 0.0
C24 C 0.79295 0.17438 0.07364 0.0
C25 C 0.77715 0.19142 0.03756 0.0
C26 C 0.78668 0.18405 1.00362 0.0
H27 H 0.38015 0.35633 0.46188 0.0
H28 H 0.31377 0.29296 0.5235 0.0
H29 H 0.31313 0.29146 0.40253 0.0
C30 C 0.36096 0.33746 0.46217 0.0
C31 C 0.34854 0.32507 0.42795 0.0
C32 C 0.34862 0.32591 0.49677 0.0
C33 C 0.32342 0.30184 0.49688 0.0
C34 C 0.31016 0.28944 0.46303 0.0
C35 C 0.32307 0.30102 0.4287 0.0
Tb36 Tb 0.0309 0.96919 0.51592 0.0
C37 C 0.93885 0.0893 0.47538 0.0
N38 N 0.96929 0.08797 0.49884 0.0
C39 C 0.98416 0.14004 0.46359 0.0
C40 C 0.93013 0.11582 0.44437 0.0
C41 C 0.99177 0.11306 0.49382 0.0
C42 C 0.9533 0.14135 0.43859 0.0
C43 C 0.88464 0.06428 0.4592 0.0
C44 C 0.91674 0.06354 0.48239 0.0
C45 C 0.8761 0.09014 0.42751 0.0
C46 C 0.89881 0.11584 0.42009 0.0
Tb47 Tb 0.97989 0.04221 0.54616 0.0
N48 N 0.92607 0.03875 0.51312 0.0
C49 C 0.86165 0.03971 0.46945 0.0
C50 C 0.90224 0.01731 0.52572 0.0
C51 C 0.87021 0.01665 0.50345 0.0
H52 H 0.01559 0.11215 0.51307 0.0
H53 H 0.85188 0.99885 0.51306 0.0
H54 H 0.98215 0.90371 0.50871 0.0
H55 H 0.15239 0.98396 0.60268 0.0
H56 H 0.90718 1.00126 0.55349 0.0
H57 H 0.83669 0.0394 0.45247 0.0
H58 H 0.10335 0.002 0.5528 0.0
H59 H 1.00216 0.15975 0.45949 0.0
H60 H 0.85171 0.09086 0.40908 0.0
H61 H 0.89176 0.1358 0.3958 0.0
H62 H 0.98094 0.84562 0.54223 0.0
H63 H 0.94758 0.16216 0.41504 0.0
H64 H 0.1561 0.92651 0.63906 0.0
N65 N 0.02809 0.9146 0.54294 0.0
C66 C 0.05428 0.9026 0.57103 0.0
C67 C 1.00164 0.86143 0.55077 0.0
C68 C 0.05504 0.86945 0.59045 0.0
C69 C 1.00212 0.89448 0.53221 0.0
C70 C 0.02816 0.84888 0.58012 0.0
N71 N 0.07799 0.95594 0.5619 0.0
C72 C 0.10389 0.97722 0.56892 0.0
C73 C 0.10811 0.91236 0.60927 0.0
C74 C 0.08032 0.92381 0.58052 0.0
C75 C 0.13414 0.93441 0.61744 0.0
C76 C 0.1321 0.9669 0.59702 0.0
H77 H 0.02775 0.82325 0.59438 0.0
H78 H 0.0835 0.8326 0.63481 0.0
H79 H 0.13006 0.87015 0.65116 0.0
O80 O 0.06117 0.98187 0.47281 0.0
O81 O 0.03014 0.96791 0.57787 0.0
O82 O 0.02426 0.02199 0.58748 0.0
O83 O 0.03762 0.93426 0.48037 0.0
O84 O 0.05156 0.01968 0.50689 0.0
O85 O 0.03378 0.05179 0.54853 0.0
O86 O 0.95314 0.04243 0.59233 0.0
O87 O 0.98909 0.04427 0.48633 0.0
O88 O 0.98549 0.99025 0.47742 0.0
O89 O 0.98015 0.08535 0.57125 0.0
O90 O 0.96645 0.98985 0.56355 0.0
O91 O 0.97646 0.96421 0.51345 0.0
C92 C 0.03371 0.99085 0.59998 0.0
C93 C 0.08965 0.93705 0.45768 0.0
C94 C 0.12459 0.91727 0.41591 0.0
C95 C 0.14999 0.9083 0.44828 0.0
C96 C 0.11534 0.92795 0.48952 0.0
C97 C 0.14528 0.91358 0.48483 0.0
C98 C 0.0943 0.93152 0.42092 0.0
C99 C 0.05415 0.04567 0.52481 0.0
C100 C 0.05822 0.95294 0.462 0.0
C101 C 0.08249 0.85798 0.61948 0.0
C102 C 0.109 0.87936 0.6288 0.0
C103 C 0.98095 0.02204 0.46396 0.0
C104 C 0.9316 0.09425 0.59791 0.0
C105 C 0.89676 0.1157 0.63874 0.0
C106 C 0.87729 0.13366 0.60517 0.0
C107 C 0.9119 0.11235 0.56484 0.0
C108 C 0.92392 0.09594 0.6347 0.0
C109 C 0.88486 0.13193 0.56853 0.0
C110 C 0.96104 0.96569 0.54305 0.0
C111 C 0.96004 0.07315 0.59496 0.0
H112 H 0.17337 0.89689 0.44539 0.0
H113 H 0.11251 0.93203 0.51793 0.0
H114 H 0.16494 0.90657 0.50961 0.0
H115 H 0.07463 0.93889 0.39618 0.0
H116 H 0.85652 0.14947 0.60721 0.0
H117 H 0.91741 0.11149 0.53628 0.0
H118 H 0.93894 0.08152 0.66014 0.0
H119 H 0.86981 0.14594 0.54291 0.0
Tb120 Tb 0.46968 0.4855 0.99729 0.0
C121 C 0.61193 0.53367 0.04033 0.0
N122 N 0.59664 0.50831 0.06061 0.0
C123 C 0.64551 0.47359 0.06636 0.0
C124 C 0.64391 0.52948 0.03039 0.0
C125 C 0.614 0.47931 0.07602 0.0
C126 C 0.66021 0.49855 0.04266 0.0
C127 C 0.61257 0.59245 0.01432 0.0
C128 C 0.59665 0.56463 0.03245 0.0
C129 C 0.64352 0.58815 1.00221 0.0
C130 C 0.65915 0.55667 0.01018 0.0
Tb131 Tb 0.54377 0.51982 0.07167 0.0
N132 N 0.56647 0.5676 0.04393 0.0
C133 C 0.59722 0.62375 0.00978 0.0
C134 C 0.5523 0.5982 0.04174 0.0
C135 C 0.56723 0.62669 0.02414 0.0
H136 H 0.60387 0.46067 0.09629 0.0
H137 H 0.55556 0.65085 0.02155 0.0
H138 H 0.40209 0.52398 0.00953 0.0
H139 H 0.4959 0.35399 0.00847 0.0
H140 H 0.52912 0.60044 0.0528 0.0
H141 H 0.60866 0.6458 0.99604 0.0
H142 H 0.50115 0.41345 0.98337 0.0
H143 H 0.65869 0.4502 0.07784 0.0
H144 H 0.65598 0.60911 0.98765 0.0
H145 H 0.68353 0.55388 1.00182 0.0
H146 H 0.35173 0.51002 0.04074 0.0
H147 H 0.68482 0.49425 0.03566 0.0
H148 H 0.45303 0.33524 0.0498 0.0
N149 N 0.42192 0.47469 0.02377 0.0
C150 C 0.4166 0.44252 0.03834 0.0
C151 C 0.36994 0.49083 0.04054 0.0
C152 C 0.38855 0.43333 0.05663 0.0
C153 C 0.3984 0.4987 0.02296 0.0
C154 C 0.36527 0.45809 0.05802 0.0
N155 N 0.46465 0.429 0.01415 0.0
C156 C 0.48359 0.40595 1.00304 0.0
C157 C 0.43432 0.38501 0.04786 0.0
C158 C 0.4392 0.41889 0.03408 0.0
C159 C 0.45588 0.36153 0.03974 0.0
C160 C 0.48016 0.37203 0.01651 0.0
H161 H 0.34332 0.45208 0.07179 0.0
H162 H 0.36337 0.39223 0.08696 0.0
H163 H 0.40348 0.34982 0.07925 0.0
O164 O 0.44609 0.46486 0.94845 0.0
O165 O 0.46438 0.48813 0.05742 0.0
O166 O 0.51682 0.47509 0.09211 0.0
O167 O 0.44355 0.51784 0.94985 0.0
O168 O 0.52068 0.46414 1.00381 0.0
O169 O 0.54496 0.46667 0.06709 0.0
O170 O 0.53126 0.54133 0.11731 0.0
O171 O 0.53191 0.54333 0.0102 0.0
O172 O 0.51683 0.50075 0.97673 0.0
O173 O 0.58071 0.5212 0.12091 0.0
O174 O 0.49434 0.54456 0.06304 0.0
O175 O 0.46644 0.53824 1.00174 0.0
C176 C 0.48393 0.47324 0.0887 0.0
C177 C 0.41379 0.50053 0.89185 0.0
C178 C 0.39709 0.48827 0.82639 0.0
C179 C 0.37453 0.51555 0.81794 0.0
C180 C 0.39128 0.52775 0.88255 0.0
C181 C 0.37165 0.53503 0.84588 0.0
C182 C 0.4164 0.48058 0.86381 0.0
C183 C 0.54228 0.45315 0.03555 0.0
C184 C 0.43501 0.49401 0.93043 0.0
C185 C 0.38449 0.39982 0.07226 0.0
C186 C 0.40739 0.37569 0.06795 0.0
C187 C 0.53242 0.52883 0.98005 0.0
C188 C 0.55911 0.51784 0.17917 0.0
C189 C 0.565 0.5211 0.24797 0.0
C190 C 0.55419 0.48806 0.25527 0.0
C191 C 0.54899 0.48475 0.18712 0.0
C192 C 0.56729 0.53586 0.20964 0.0
C193 C 0.54636 0.47003 0.22498 0.0
C194 C 0.47131 0.55369 0.03194 0.0
C195 C 0.56028 0.53417 0.13918 0.0
H196 H 0.35887 0.5217 0.78973 0.0
H197 H 0.38878 0.54339 0.90372 0.0
H198 H 0.35421 0.55595 0.83903 0.0
H199 H 0.43413 0.45985 0.87068 0.0
H200 H 0.5524 0.47598 0.28449 0.0
H201 H 0.54315 0.47036 0.1641 0.0
H202 H 0.57497 0.5615 0.20341 0.0
H203 H 0.53835 0.44453 0.2309 0.0
H204 H 0.25528 0.28919 0.49941 0.0
H205 H 0.21267 0.24648 0.50593 0.0
H206 H 0.25847 0.19176 0.43377 0.0
H207 H 0.30234 0.23376 0.4286 0.0
H208 H 0.16589 0.22369 0.45307 0.0
H209 H 0.25503 0.12156 0.52845 0.0
H210 H 0.26743 0.16447 0.52098 0.0
H211 H 0.26388 0.14111 0.48196 0.0
C212 C 0.25658 0.2679 0.48524 0.0
C213 C 0.28264 0.26465 0.46403 0.0
C214 C 0.23199 0.24362 0.48874 0.0
C215 C 0.23273 0.21554 0.47103 0.0
C216 C 0.25786 0.2128 0.44849 0.0
H217 H 0.09877 0.04519 0.4742 0.0
H218 H 0.14189 0.08603 0.45983 0.0
C219 C 0.28267 0.23706 0.44514 0.0
C220 C 0.20718 0.18928 0.47661 0.0
H221 H 0.19773 0.10743 0.51379 0.0
C222 C 0.17288 0.19827 0.46629 0.0
C223 C 0.2163 0.15608 0.49394 0.0
C224 C 0.25263 0.14518 0.50732 0.0
C225 C 0.14752 0.17505 0.47292 0.0
C226 C 0.15668 0.14204 0.49062 0.0
C227 C 0.19087 0.13281 0.50024 0.0
C228 C 0.13103 0.11693 0.50012 0.0
C229 C 0.11108 0.18592 0.46082 0.0
C230 C 0.11113 0.12043 0.52817 0.0
C231 C 0.08659 0.09702 0.53673 0.0
C232 C 0.08133 0.06969 0.51723 0.0
C233 C 0.1019 0.06595 0.4897 0.0
C234 C 0.12659 0.08928 0.48137 0.0
H235 H 0.10822 0.20974 0.44002 0.0
H236 H 0.09602 0.16669 0.44735 0.0
H237 H 0.1005 0.18948 0.48682 0.0
H238 H 0.11461 0.14133 0.54345 0.0
H239 H 0.07159 0.10054 0.55845 0.0
H240 H 0.24364 0.75821 0.07047 0.0
H241 H 0.2853 0.71439 0.074 0.0
H242 H 0.33098 0.77587 0.98562 0.0
H243 H 0.29037 0.82041 0.98313 0.0
H244 H 0.29608 0.68097 0.01715 0.0
H245 H 0.41212 0.74639 0.06819 0.0
H246 H 0.37047 0.76164 0.06931 0.0
H247 H 0.38749 0.7687 0.02487 0.0
C248 C 0.26294 0.76269 0.05231 0.0
C249 C 0.26376 0.79293 0.02666 0.0
C250 C 0.28657 0.73751 0.05414 0.0
C251 C 0.31153 0.74203 0.03047 0.0
C252 C 0.31237 0.77208 1.00473 0.0
H253 H 0.42534 0.5849 0.97122 0.0
H254 H 0.38706 0.63072 0.97109 0.0
C255 C 0.28885 0.79736 1.00298 0.0
C256 C 0.33581 0.71478 0.03166 0.0
H257 H 0.41977 0.69544 0.04639 0.0
C258 C 0.32313 0.68407 0.02371 0.0
C259 C 0.37106 0.71877 0.04071 0.0
C260 C 0.38614 0.75054 0.05164 0.0
C261 C 0.34475 0.65738 0.02396 0.0
C262 C 0.38002 0.66178 0.03153 0.0
C263 C 0.39272 0.69228 0.04014 0.0
C264 C 0.40415 0.63483 0.03116 0.0
C265 C 0.32959 0.62456 0.01676 0.0
C266 C 0.4273 0.62272 0.06458 0.0
C267 C 0.4495 0.5967 0.0647 0.0
C268 C 0.44896 0.58233 0.03131 0.0
C269 C 0.42625 0.59511 0.99758 0.0
C270 C 0.40418 0.62121 0.99748 0.0
H271 H 0.30312 0.62264 0.02209 0.0
H272 H 0.32955 0.62224 0.98607 0.0
H273 H 0.34446 0.60343 0.03551 0.0
H274 H 0.42781 0.63304 0.09082 0.0
H275 H 0.46668 0.58756 0.09116 0.0
H276 H 0.70756 0.77426 0.55612 0.0
H277 H 0.75067 0.8167 0.54881 0.0
H278 H 0.81238 0.76661 0.65316 0.0
H279 H 0.76958 0.72366 0.66032 0.0
H280 H 0.78084 0.85959 0.60116 0.0
H281 H 0.87323 0.77301 0.56807 0.0
H282 H 0.82908 0.76352 0.56609 0.0
H283 H 0.85643 0.75983 0.61204 0.0
C284 C 0.73032 0.77227 0.57751 0.0
C285 C 0.73531 0.74543 0.60861 0.0
C286 C 0.75482 0.79662 0.57341 0.0
C287 C 0.78488 0.79453 0.60014 0.0
C288 C 0.78952 0.76842 0.63193 0.0
H289 H 0.93938 0.94689 0.61245 0.0
H290 H 0.89663 0.90559 0.62777 0.0
C291 C 0.76493 0.74408 0.63617 0.0
C292 C 0.81167 0.81922 0.59394 0.0
H293 H 0.89109 0.82784 0.57155 0.0
C294 C 0.80502 0.85267 0.59489 0.0
C295 C 0.843 0.81012 0.58528 0.0
C296 C 0.85095 0.77474 0.58245 0.0
C297 C 0.82899 0.87729 0.58751 0.0
C298 C 0.86041 0.86811 0.57923 0.0
C299 C 0.86703 0.8347 0.57819 0.0
C300 C 0.88635 0.89303 0.57024 0.0
C301 C 0.82027 0.91305 0.58769 0.0
C302 C 0.89498 0.8993 0.53299 0.0
C303 C 0.91923 0.92292 0.52413 0.0
C304 C 0.93565 0.94037 0.55255 0.0
C305 C 0.9271 0.93388 0.58994 0.0
C306 C 0.90268 0.91037 0.59872 0.0
H307 H 0.7929 0.91677 0.58725 0.0
H308 H 0.83425 0.92078 0.61431 0.0
H309 H 0.82786 0.92951 0.56232 0.0
H310 H 0.8826 0.8862 0.51061 0.0
H311 H 0.92483 0.9278 0.49489 0.0
H312 H 0.72441 0.18844 0.07767 0.0
H313 H 0.68298 0.23227 0.07598 0.0
H314 H 0.73002 0.29695 0.99143 0.0
H315 H 0.77179 0.25339 0.99326 0.0
H316 H 0.71739 0.32508 0.05799 0.0
H317 H 0.6046 0.26663 0.98502 0.0
H318 H 0.62927 0.24071 0.02583 0.0
H319 H 0.64713 0.25443 0.98279 0.0
C320 C 0.7259 0.21201 0.05871 0.0
C321 C 0.75128 0.21748 0.03552 0.0
C322 C 0.7021 0.23689 0.05758 0.0
C323 C 0.70331 0.26766 0.03331 0.0
C324 C 0.72859 0.27325 0.01016 0.0
H325 H 0.56386 0.43515 0.97311 0.0
H326 H 0.6026 0.38952 0.97279 0.0
C327 C 0.75227 0.24831 0.01107 0.0
C328 C 0.67884 0.29441 0.033 0.0
H329 H 0.59532 0.31584 0.009 0.0
C330 C 0.69071 0.32311 0.04728 0.0
C331 C 0.64414 0.29176 0.0187 0.0
C332 C 0.63039 0.26187 1.0019 0.0
C333 C 0.6686 0.34911 0.04817 0.0
C334 C 0.63385 0.34619 0.03452 0.0
C335 C 0.62201 0.31774 0.01973 0.0
C336 C 0.60955 0.37285 0.03478 0.0
C337 C 0.68242 0.37979 0.06317 0.0
C338 C 0.60034 0.37807 0.06972 0.0
C339 C 0.57798 0.40386 0.06997 0.0
C340 C 0.56477 0.42497 0.03529 0.0
C341 C 0.57363 0.41925 1.00026 0.0
C342 C 0.59577 0.3933 1.00001 0.0
H343 H 0.71042 0.37984 0.06848 0.0
H344 H 0.67304 0.40239 0.04215 0.0
H345 H 0.67345 0.38118 0.0908 0.0
H346 H 0.61055 0.36225 0.09678 0.0
H347 H 0.57116 0.40741 0.09728 0.0
H348 H 0.186 0.80564 0.11533 0.0
H349 H 0.16859 0.81679 0.17485 0.0
H350 H 0.17721 0.92206 0.13594 0.0
H351 H 0.19412 0.91105 0.0761 0.0
H352 H 0.20336 0.84632 0.23045 0.0
H353 H 0.08537 0.91783 0.16816 0.0
H354 H 0.10668 0.89445 0.14025 0.0
H355 H 0.12105 0.93509 0.14782 0.0
C356 C 0.18408 0.83116 0.11946 0.0
C357 C 0.19133 0.8575 0.09108 0.0
C358 C 0.17402 0.8375 0.15337 0.0
C359 C 0.17105 0.87028 0.15957 0.0
C360 C 0.17841 0.89662 0.13132 0.0
H361 H 0.18058 0.93132 0.38233 0.0
H362 H 0.19069 0.91977 0.31982 0.0
C363 C 0.18821 0.89031 0.09723 0.0
C364 C 0.16208 0.87674 0.19653 0.0
H365 H 0.10725 0.91959 0.23463 0.0
C366 C 0.1822 0.86216 0.23136 0.0
C367 C 0.13417 0.89703 0.19773 0.0
C368 C 0.11037 0.91173 0.16151 0.0
C369 C 0.17568 0.86789 0.26729 0.0
C370 C 0.14879 0.88948 0.26838 0.0
C371 C 0.12812 0.90341 0.23366 0.0
C372 C 0.14192 0.89795 0.30534 0.0
C373 C 0.19742 0.85041 0.30376 0.0
C374 C 0.11063 0.89074 0.31722 0.0
C375 C 0.10468 0.89758 0.35283 0.0
C376 C 0.12996 0.91172 0.37713 0.0
C377 C 0.16088 0.9198 0.36458 0.0
C378 C 0.16672 0.91316 0.32892 0.0
H379 H 0.20995 0.82788 0.29867 0.0
H380 H 0.21741 0.86745 0.3137 0.0
H381 H 0.18237 0.84301 0.32733 0.0
H382 H 0.09108 0.87917 0.29931 0.0
H383 H 0.08066 0.89098 0.36183 0.0
H384 H 0.6586 0.71128 0.70289 0.0
H385 H 0.63662 0.68747 0.76192 0.0
H386 H 0.64968 0.58897 0.73789 0.0
H387 H 0.6717 0.61252 0.67903 0.0
H388 H 0.58592 0.6007 0.75297 0.0
H389 H 0.68427 0.63779 0.86649 0.0
H390 H 0.66687 0.67123 0.82898 0.0
H391 H 0.69096 0.6388 0.81724 0.0
C392 C 0.65736 0.68453 0.71058 0.0
C393 C 0.66678 0.6638 0.68618 0.0
C394 C 0.64483 0.67095 0.74435 0.0
C395 C 0.6418 0.63641 0.75452 0.0
C396 C 0.65181 0.61568 0.73061 0.0
H397 H 0.5611 0.499 0.93024 0.0
H398 H 0.58809 0.52573 0.87612 0.0
C399 C 0.66424 0.6292 0.69689 0.0
C400 C 0.62625 0.6218 0.78863 0.0
H401 H 0.63509 0.61331 0.88728 0.0
C402 C 0.59675 0.60337 0.78234 0.0
C403 C 0.64028 0.62551 0.82691 0.0
C404 C 0.6725 0.64416 0.83552 0.0
C405 C 0.58079 0.58866 0.8132 0.0
C406 C 0.59503 0.59199 0.85151 0.0
C407 C 0.6243 0.61075 0.85786 0.0
C408 C 0.57997 0.57581 0.88531 0.0
C409 C 0.54849 0.57012 0.80447 0.0
C410 C 0.56718 0.59505 0.90897 0.0
C411 C 0.55169 0.57981 0.93983 0.0
C412 C 0.54918 0.54508 0.94788 0.0
C413 C 0.56246 0.52585 0.92451 0.0
C414 C 0.57787 0.54107 0.89362 0.0
H415 H 0.53644 0.57705 0.77365 0.0
H416 H 0.55411 0.54305 0.81019 0.0
H417 H 0.53023 0.57499 0.82322 0.0
H418 H 0.56854 0.6219 0.90304 0.0
H419 H 0.54107 0.59523 0.95689 0.0
H420 H 0.7891 0.12423 0.13872 0.0
H421 H 0.81728 0.10026 0.20387 0.0
H422 H 0.91389 0.11447 0.16633 0.0
H423 H 0.88583 0.13841 0.10095 0.0
H424 H 0.90852 0.05302 0.21279 0.0
H425 H 0.86781 0.1553 0.28025 0.0
H426 H 0.83371 0.13535 0.25398 0.0
H427 H 0.86417 0.1581 0.22844 0.0
C428 C 0.81636 0.12229 0.14436 0.0
C429 C 0.83528 0.1335 0.11481 0.0
C430 C 0.83241 0.10865 0.1816 0.0
C431 C 0.86769 0.10624 0.19012 0.0
C432 C 0.88662 0.11629 0.16038 0.0
H433 H 0.98989 0.08106 0.41833 0.0
H434 H 0.9627 0.10065 0.35149 0.0
C435 C 0.87057 0.12983 0.12303 0.0
C436 C 0.88485 0.09365 0.23017 0.0
H437 H 0.89462 0.1087 0.32306 0.0
C438 C 0.90556 0.0652 0.23691 0.0
C439 C 0.88127 0.10987 0.26149 0.0
C440 C 0.86081 0.14153 0.25575 0.0
C441 C 0.92246 0.05225 0.27427 0.0
C442 C 0.91807 0.06792 0.30573 0.0
C443 C 0.89768 0.09658 0.29891 0.0
C444 C 0.93498 0.05548 0.34589 0.0
C445 C 0.94536 0.02231 0.27961 0.0
C446 C 0.92825 0.02367 0.36499 0.0
C447 C 0.94371 0.01248 0.40323 0.0
C448 C 0.9658 0.03311 0.42307 0.0
C449 C 0.97265 0.06483 0.40383 0.0
C450 C 0.95723 0.07599 0.36565 0.0
H451 H 0.95262 0.01852 0.25177 0.0
H452 H 0.96863 0.02477 0.30057 0.0
H453 H 0.93204 0.99981 0.2912 0.0
H454 H 0.91063 0.00771 0.35054 0.0
H455 H 0.93777 0.98802 0.41754 0.0
H456 H 0.36517 0.29196 0.57097 0.0
H457 H 0.38067 0.31509 0.63057 0.0
H458 H 0.37562 0.41392 0.56351 0.0
H459 H 0.35993 0.39101 0.50376 0.0
H460 H 0.43235 0.40169 0.62445 0.0
H461 H 0.31178 0.36398 0.67573 0.0
H462 H 0.33565 0.33122 0.66435 0.0
H463 H 0.31784 0.36417 0.62644 0.0
C464 C 0.36734 0.31863 0.56891 0.0
C465 C 0.36099 0.33968 0.53264 0.0
C466 C 0.37622 0.33179 0.60298 0.0
C467 C 0.37874 0.36624 0.60148 0.0
C468 C 0.37372 0.38725 0.56528 0.0
H469 H 0.40084 0.51124 0.75039 0.0
H470 H 0.40045 0.47904 0.69848 0.0
C471 C 0.36488 0.37411 0.53117 0.0
C472 C 0.38542 0.38058 0.63761 0.0
H473 H 0.35099 0.39074 0.71665 0.0
C474 C 0.41467 0.39918 0.64474 0.0
C475 C 0.36237 0.37711 0.66411 0.0
C476 C 0.32999 0.35828 0.6573 0.0
C477 C 0.42136 0.41469 0.67753 0.0
C478 C 0.39782 0.41203 0.70344 0.0
C479 C 0.36904 0.39266 0.69684 0.0
C480 C 0.40108 0.43117 0.73579 0.0
C481 C 0.45356 0.43377 0.68414 0.0
C482 C 0.40119 0.41501 0.77408 0.0
C483 C 0.40105 0.43345 0.80389 0.0
C484 C 0.40033 0.46837 0.79578 0.0
C485 C 0.401 0.48438 0.75753 0.0
C486 C 0.40122 0.46599 0.72787 0.0
H487 H 0.47326 0.42472 0.66971 0.0
H488 H 0.4485 0.46038 0.67165 0.0
H489 H 0.46352 0.43184 0.71555 0.0
H490 H 0.40079 0.38815 0.78076 0.0
H491 H 0.40027 0.42041 0.83298 0.0
H492 H 0.61081 0.65743 0.55601 0.0
H493 H 0.59019 0.6322 0.49895 0.0
H494 H 0.68829 0.6424 0.46486 0.0
H495 H 0.70951 0.66674 0.52238 0.0
H496 H 0.62751 0.66519 0.40392 0.0
H497 H 0.62063 0.53655 0.48478 0.0
H498 H 0.60208 0.56932 0.50281 0.0
H499 H 0.64685 0.56782 0.50456 0.0
C500 C 0.62814 0.65401 0.53664 0.0
C501 C 0.6619 0.66401 0.54396 0.0
C502 C 0.61624 0.63975 0.50396 0.0
C503 C 0.63781 0.63529 0.47794 0.0
C504 C 0.67128 0.64571 0.48466 0.0
H505 H 0.62037 0.55944 0.26183 0.0
H506 H 0.63682 0.58849 0.31668 0.0
C507 C 0.68329 0.65978 0.51744 0.0
C508 C 0.62555 0.61948 0.44381 0.0
H509 H 0.60155 0.54511 0.41744 0.0
C510 C 0.62179 0.63895 0.40675 0.0
C511 C 0.61797 0.58533 0.44779 0.0
C512 C 0.62222 0.56332 0.48704 0.0
C513 C 0.61032 0.62517 0.37338 0.0
C514 C 0.60334 0.59079 0.37724 0.0
C515 C 0.6069 0.57143 0.41446 0.0
C516 C 0.59283 0.57417 0.34317 0.0
C517 C 0.60512 0.64773 0.33446 0.0
C518 C 0.56306 0.55573 0.34023 0.0
C519 C 0.55385 0.53875 0.30917 0.0
C520 C 0.57421 0.53992 0.28037 0.0
C521 C 0.6039 0.55854 0.28323 0.0
C522 C 0.61326 0.57526 0.3145 0.0
H523 H 0.60132 0.674 0.33738 0.0
H524 H 0.62786 0.64654 0.32076 0.0
H525 H 0.58306 0.64011 0.31483 0.0
H526 H 0.54697 0.55442 0.36207 0.0
H527 H 0.53071 0.52481 0.30758 0.0
H528 H 0.87529 0.15153 0.98963 0.0
H529 H 0.89078 0.14211 0.92832 0.0
H530 H 0.78562 0.14186 0.8781 0.0
H531 H 0.76996 0.15124 0.93911 0.0
H532 H 0.8741 0.09108 0.88493 0.0
H533 H 0.82438 0.21302 0.80224 0.0
H534 H 0.83082 0.20367 0.85451 0.0
H535 H 0.79406 0.18891 0.8265 0.0
C536 C 0.85548 0.14917 0.96561 0.0
C537 C 0.8214 0.15249 0.96908 0.0
C538 C 0.86436 0.14392 0.9306 0.0
C539 C 0.83936 0.14196 0.89845 0.0
C540 C 0.80534 0.14415 0.90224 0.0
H541 H 0.83461 0.11643 0.66069 0.0
H542 H 0.82172 0.12159 0.72442 0.0
C543 C 0.79644 0.14949 0.93713 0.0
C544 C 0.84875 0.13786 0.86082 0.0
H545 H 0.84054 0.17424 0.76562 0.0
C546 C 0.86696 0.10932 0.85886 0.0
C547 C 0.83946 0.16177 0.82689 0.0
C548 C 0.82138 0.19372 0.82756 0.0
C549 C 0.87539 0.10365 0.82362 0.0
C550 C 0.86571 0.12737 0.78964 0.0
C551 C 0.84776 0.15601 0.79169 0.0
C552 C 0.87385 0.12304 0.75153 0.0
C553 C 0.89386 0.07197 0.82281 0.0
C554 C 0.90744 0.1224 0.7456 0.0
C555 C 0.91491 0.11971 0.70913 0.0
C556 C 0.88888 0.11776 0.67782 0.0
C557 C 0.85525 0.11831 0.68399 0.0
C558 C 0.84783 0.12105 0.72044 0.0
H559 H 0.89242 0.05302 0.84895 0.0
H560 H 0.88346 0.06132 0.79663 0.0
H561 H 0.92083 0.07745 0.82185 0.0
H562 H 0.92789 0.12462 0.769 0.0
H563 H 0.94106 0.11992 0.70526 0.0
H564 H 0.41405 0.33878 0.41935 0.0
H565 H 0.43549 0.36285 0.36026 0.0
H566 H 0.33526 0.36376 0.29459 0.0
H567 H 0.31334 0.34031 0.35375 0.0
H568 H 0.38871 0.33896 0.25955 0.0
H569 H 0.41708 0.46122 0.30522 0.0
H570 H 0.43411 0.42568 0.33991 0.0
H571 H 0.38925 0.43177 0.32764 0.0
C572 C 0.39645 0.34431 0.39243 0.0
C573 C 0.36187 0.33786 0.39147 0.0
C574 C 0.4088 0.35798 0.35866 0.0
C575 C 0.3869 0.36547 0.32317 0.0
C576 C 0.35257 0.3582 0.32174 0.0
H577 H 0.42527 0.48955 0.11028 0.0
H578 H 0.40037 0.46219 0.16587 0.0
C579 C 0.34013 0.34464 0.35557 0.0
C580 C 0.39983 0.38141 0.28773 0.0
H581 H 0.43633 0.45226 0.24816 0.0
C582 C 0.39905 0.36375 0.25697 0.0
C583 C 0.41298 0.41389 0.28432 0.0
C584 C 0.41323 0.43446 0.31583 0.0
C585 C 0.4118 0.3775 0.22321 0.0
C586 C 0.42569 0.40962 0.2203 0.0
C587 C 0.42586 0.42752 0.25068 0.0
C588 C 0.44014 0.42518 0.18586 0.0
C589 C 0.41014 0.35785 0.19067 0.0
C590 C 0.47076 0.41343 0.17883 0.0
C591 C 0.48501 0.42903 0.14713 0.0
C592 C 0.46878 0.45654 0.12194 0.0
C593 C 0.43807 0.46814 0.12897 0.0
C594 C 0.42393 0.45267 0.16076 0.0
H595 H 0.39378 0.33581 0.19468 0.0
H596 H 0.40048 0.37373 0.16243 0.0
H597 H 0.43587 0.34917 0.18938 0.0
H598 H 0.48381 0.39245 0.19814 0.0
H599 H 0.50866 0.41954 0.14224 0.0
H600 H 0.23083 0.89138 0.92589 0.0
H601 H 0.20481 0.91904 0.86119 0.0
H602 H 0.10621 0.90032 0.89242 0.0
H603 H 0.13213 0.87333 0.95731 0.0
H604 H 0.16489 0.89316 0.80721 0.0
H605 H 0.09632 0.99664 0.84384 0.0
H606 H 0.12791 0.97184 0.87862 0.0
H607 H 0.08542 0.95719 0.86919 0.0
C608 C 0.20361 0.89345 0.91897 0.0
C609 C 0.18347 0.88036 0.94661 0.0
C610 C 0.18878 0.90931 0.8821 0.0
C611 C 0.15357 0.91227 0.87214 0.0
C612 C 0.13343 0.89923 0.89976 0.0
H613 H 0.03742 0.92907 0.64363 0.0
H614 H 0.06786 0.91174 0.70923 0.0
C615 C 0.14825 0.88368 0.93677 0.0
C616 C 0.13786 0.92691 0.83211 0.0
H617 H 0.07919 0.9839 0.77994 0.0
C618 C 0.14641 0.91324 0.80124 0.0
C619 C 0.11417 0.95349 0.82421 0.0
C620 C 0.10569 0.97088 0.8557 0.0
C621 C 0.13113 0.92464 0.76287 0.0
C622 C 0.10589 0.94977 0.75525 0.0
C623 C 0.09818 0.96429 0.7859 0.0
C624 C 0.08668 0.9607 0.7158 0.0
C625 C 0.14245 0.90989 0.73083 0.0
C626 C 0.08596 0.99426 0.69823 0.0
C627 C 0.06814 0.00435 0.66078 0.0
C628 C 0.05087 0.98098 0.64035 0.0
C629 C 0.05097 0.94756 0.65841 0.0
C630 C 0.06851 0.93758 0.69584 0.0
H631 H 0.1683 0.89907 0.73977 0.0
H632 H 0.12519 0.88966 0.72349 0.0
H633 H 0.14206 0.9289 0.70439 0.0
H634 H 0.09962 0.01255 0.71326 0.0
H635 H 0.06854 0.03025 0.64753 0.0
loop_
_geom_bond_atom_site_label_1
_geom_bond_atom_site_label_2
_geom_bond_distance
_geom_bond_site_symmetry_2
_ccdc_geom_bond_type
H0 C3 0.931 . S
H1 C6 0.928 . S
H2 C8 0.930 . S
C3 H0 0.931 . S
C3 C4 1.413 1_554 S
C3 C5 1.360 . S
C4 C3 1.413 1_556 S
C4 C8 1.429 . S
C5 C3 1.360 . S
C5 C6 1.372 . S
C6 H1 0.928 . S
C6 C5 1.372 . S
C6 C7 1.404 . S
C7 C6 1.404 . S
C7 C8 1.391 1_554 S
C8 H2 0.930 . S
C8 C4 1.429 . S
C8 C7 1.391 1_556 S
H9 C12 0.931 . S
H10 C15 0.928 . S
H11 C17 0.930 . S
C12 H9 0.931 . S
C12 C13 1.413 . S
C12 C14 1.360 . S
C13 C12 1.413 . S
C13 C17 1.429 . S
C14 C12 1.360 . S
C14 C15 1.372 . S
C15 H10 0.928 . S
C15 C14 1.372 . S
C15 C16 1.404 . S
C16 C15 1.404 . S
C16 C17 1.391 . S
C17 H11 0.930 . S
C17 C13 1.429 . S
C17 C16 1.391 . S
H18 C21 0.931 . S
H19 C24 0.928 . S
H20 C26 0.930 1_556 S
C21 H18 0.931 . S
C21 C22 1.413 . S
C21 C23 1.360 . S
C22 C21 1.413 . S
C22 C26 1.429 . S
C23 C21 1.360 . S
C23 C24 1.372 . S
C24 H19 0.928 . S
C24 C23 1.372 . S
C24 C25 1.404 . S
C25 C24 1.404 . S
C25 C26 1.391 . S
C26 H20 0.930 1_554 S
C26 C22 1.429 . S
C26 C25 1.391 . S
H27 C30 0.931 . S
H28 C33 0.928 . S
H29 C35 0.930 . S
C30 H27 0.931 . S
C30 C31 1.413 . S
C30 C32 1.360 . S
C31 C30 1.413 . S
C31 C35 1.429 . S
C32 C30 1.360 . S
C32 C33 1.372 . S
C33 H28 0.928 . S
C33 C32 1.372 . S
C33 C34 1.404 . S
C34 C33 1.404 . S
C34 C35 1.391 . S
C35 H29 0.930 . S
C35 C31 1.429 . S
C35 C34 1.391 . S
Tb36 N65 2.617 . S
Tb36 N71 2.572 . S
Tb36 O80 2.465 . S
Tb36 O81 2.387 . S
Tb36 O83 2.428 . S
Tb36 O84 2.308 1_565 S
Tb36 O88 2.349 1_455 S
Tb36 O91 2.393 1_455 S
Tb36 C100 2.802 . S
C37 N38 1.379 . S
C37 C40 1.416 . S
C37 C44 1.424 . S
N38 C37 1.379 . S
N38 C41 1.334 1_655 S
N38 Tb47 2.617 . S
C39 C41 1.390 1_655 S
C39 C42 1.339 . S
C39 H59 0.930 1_655 S
C40 C37 1.416 . S
C40 C42 1.416 . S
C40 C46 1.448 . S
C41 N38 1.334 1_455 S
C41 C39 1.390 1_455 S
C41 H52 0.930 . S
C42 C39 1.339 . S
C42 C40 1.416 . S
C42 H63 0.930 . S
C43 C44 1.413 . S
C43 C45 1.427 . S
C43 C49 1.416 . S
C44 C37 1.424 . S
C44 C43 1.413 . S
C44 N48 1.361 . S
C45 C43 1.427 . S
C45 C46 1.328 . S
C45 H60 0.929 . S
C46 C40 1.448 . S
C46 C45 1.328 . S
C46 H61 0.930 . S
Tb47 N38 2.617 . S
Tb47 N48 2.572 . S
Tb47 O82 2.349 1_655 S
Tb47 O85 2.393 1_655 S
Tb47 O86 2.465 . S
Tb47 O87 2.387 . S
Tb47 O89 2.428 . S
Tb47 O90 2.308 1_545 S
Tb47 C111 2.802 . S
N48 C44 1.361 . S
N48 Tb47 2.572 . S
N48 C50 1.340 . S
C49 C43 1.416 . S
C49 C51 1.332 . S
C49 H57 0.931 . S
C50 N48 1.340 . S
C50 C51 1.407 . S
C50 H56 0.930 . S
C51 C49 1.332 . S
C51 C50 1.407 . S
C51 H53 0.929 . S
H52 C41 0.930 . S
H53 C51 0.929 . S
H54 C69 0.930 1_655 S
H55 C76 0.929 . S
H56 C50 0.930 . S
H57 C49 0.931 . S
H58 C72 0.930 . S
H59 C39 0.930 1_455 S
H60 C45 0.929 . S
H61 C46 0.930 . S
H62 C67 0.930 1_655 S
H63 C42 0.930 . S
H64 C75 0.931 . S
N65 Tb36 2.617 . S
N65 C66 1.379 . S
N65 C69 1.334 . S
C66 N65 1.379 . S
C66 C68 1.416 . S
C66 C74 1.424 . S
C67 H62 0.930 1_455 S
C67 C69 1.390 . S
C67 C70 1.339 . S
C68 C66 1.416 . S
C68 C70 1.416 . S
C68 C101 1.448 . S
C69 H54 0.930 1_455 S
C69 N65 1.334 . S
C69 C67 1.390 . S
C70 C67 1.339 . S
C70 C68 1.416 . S
C70 H77 0.930 . S
N71 Tb36 2.572 . S
N71 C72 1.340 . S
N71 C74 1.361 . S
C72 H58 0.930 . S
C72 N71 1.340 . S
C72 C76 1.407 . S
C73 C74 1.413 . S
C73 C75 1.416 . S
C73 C102 1.427 . S
C74 C66 1.424 . S
C74 N71 1.361 . S
C74 C73 1.413 . S
C75 H64 0.931 . S
C75 C73 1.416 . S
C75 C76 1.332 . S
C76 H55 0.929 . S
C76 C72 1.407 . S
C76 C75 1.332 . S
H77 C70 0.930 . S
H78 C101 0.930 . S
H79 C102 0.929 . S
O80 Tb36 2.465 . S
O80 C100 1.264 . S
O81 Tb36 2.387 . S
O81 C92 1.264 . S
O82 Tb47 2.349 1_455 S
O82 C92 1.243 1_545 S
O83 Tb36 2.428 . S
O83 C100 1.256 . S
O84 Tb36 2.308 1_545 S
O84 C99 1.266 . S
O85 Tb47 2.393 1_455 S
O85 C99 1.248 . S
O86 Tb47 2.465 . S
O86 C111 1.264 . S
O87 Tb47 2.387 . S
O87 C103 1.264 . S
O88 Tb36 2.349 1_655 S
O88 C103 1.243 1_565 S
O89 Tb47 2.428 . S
O89 C111 1.256 . S
O90 Tb47 2.308 1_565 S
O90 C110 1.266 . S
O91 Tb36 2.393 1_655 S
O91 C110 1.248 . S
C92 O81 1.264 . S
C92 O82 1.243 1_565 S
C93 C96 1.399 . S
C93 C98 1.383 . S
C93 C100 1.496 . S
C94 C95 1.399 . S
C94 C98 1.389 . S
C95 C94 1.399 . S
C95 C97 1.380 . S
C95 H112 0.929 . S
C96 C93 1.399 . S
C96 C97 1.392 . S
C96 H113 0.929 . S
C97 C95 1.380 . S
C97 C96 1.392 . S
C97 H114 0.929 . S
C98 C93 1.383 . S
C98 C94 1.389 . S
C98 H115 0.931 . S
C99 O84 1.266 . S
C99 O85 1.248 . S
C100 Tb36 2.802 . S
C100 O80 1.264 . S
C100 O83 1.256 . S
C100 C93 1.496 . S
C101 C68 1.448 . S
C101 H78 0.930 . S
C101 C102 1.328 . S
C102 C73 1.427 . S
C102 H79 0.929 . S
C102 C101 1.328 . S
C103 O87 1.264 . S
C103 O88 1.243 1_545 S
C104 C107 1.399 . S
C104 C108 1.383 . S
C104 C111 1.496 . S
C105 C106 1.399 . S
C105 C108 1.389 . S
C106 C105 1.399 . S
C106 C109 1.380 . S
C106 H116 0.929 . S
C107 C104 1.399 . S
C107 C109 1.392 . S
C107 H117 0.929 . S
C108 C104 1.383 . S
C108 C105 1.389 . S
C108 H118 0.931 . S
C109 C106 1.380 . S
C109 C107 1.392 . S
C109 H119 0.929 . S
C110 O90 1.266 . S
C110 O91 1.248 . S
C111 Tb47 2.802 . S
C111 O86 1.264 . S
C111 O89 1.256 . S
C111 C104 1.496 . S
H112 C95 0.929 . S
H113 C96 0.929 . S
H114 C97 0.929 . S
H115 C98 0.931 . S
H116 C106 0.929 . S
H117 C107 0.929 . S
H118 C108 0.931 . S
H119 C109 0.929 . S
Tb120 N149 2.617 . S
Tb120 N155 2.572 1_556 S
Tb120 O164 2.465 . S
Tb120 O165 2.387 1_556 S
Tb120 O167 2.428 . S
Tb120 O168 2.308 1_556 S
Tb120 O172 2.349 . S
Tb120 O175 2.402 . S
Tb120 C184 2.802 . S
C121 N122 1.379 . S
C121 C124 1.416 . S
C121 C128 1.424 . S
N122 C121 1.379 . S
N122 C125 1.334 . S
N122 Tb131 2.617 . S
C123 C125 1.390 . S
C123 C126 1.339 . S
C123 H143 0.930 . S
C124 C121 1.416 . S
C124 C126 1.416 . S
C124 C130 1.448 . S
C125 N122 1.334 . S
C125 C123 1.390 . S
C125 H136 0.930 . S
C126 C123 1.339 . S
C126 C124 1.416 . S
C126 H147 0.930 . S
C127 C128 1.413 . S
C127 C129 1.427 . S
C127 C133 1.416 . S
C128 C121 1.424 . S
C128 C127 1.413 . S
C128 N132 1.361 . S
C129 C127 1.427 . S
C129 C130 1.328 . S
C129 H144 0.929 . S
C130 C124 1.448 . S
C130 C129 1.328 . S
C130 H145 0.930 . S
Tb131 N122 2.617 . S
Tb131 N132 2.572 . S
Tb131 O166 2.349 . S
Tb131 O169 2.393 . S
Tb131 O170 2.465 . S
Tb131 O171 2.387 1_554 S
Tb131 O173 2.428 . S
Tb131 O174 2.308 . S
Tb131 C195 2.802 . S
N132 C128 1.361 . S
N132 Tb131 2.572 . S
N132 C134 1.340 . S
C133 C127 1.416 . S
C133 C135 1.332 . S
C133 H141 0.931 . S
C134 N132 1.340 . S
C134 C135 1.407 . S
C134 H140 0.930 . S
C135 C133 1.332 . S
C135 C134 1.407 . S
C135 H137 0.929 . S
H136 C125 0.930 . S
H137 C135 0.929 . S
H138 C153 0.930 . S
H139 C160 0.929 . S
H140 C134 0.930 . S
H141 C133 0.931 . S
H142 C156 0.930 . S
H143 C123 0.930 . S
H144 C129 0.929 . S
H145 C130 0.930 . S
H146 C151 0.930 . S
H147 C126 0.930 . S
H148 C159 0.931 . S
N149 Tb120 2.617 . S
N149 C150 1.379 1_556 S
N149 C153 1.334 . S
C150 N149 1.379 1_554 S
C150 C152 1.416 . S
C150 C158 1.424 . S
C151 H146 0.930 . S
C151 C153 1.390 . S
C151 C154 1.339 1_556 S
C152 C150 1.416 . S
C152 C154 1.416 . S
C152 C185 1.448 . S
C153 H138 0.930 . S
C153 N149 1.334 . S
C153 C151 1.390 . S
C154 C151 1.339 1_554 S
C154 C152 1.416 . S
C154 H161 0.930 . S
N155 Tb120 2.572 1_554 S
N155 C156 1.340 . S
N155 C158 1.361 . S
C156 H142 0.930 . S
C156 N155 1.340 . S
C156 C160 1.407 . S
C157 C158 1.413 . S
C157 C159 1.416 . S
C157 C186 1.427 . S
C158 C150 1.424 . S
C158 N155 1.361 . S
C158 C157 1.413 . S
C159 H148 0.931 . S
C159 C157 1.416 . S
C159 C160 1.332 . S
C160 H139 0.929 . S
C160 C156 1.407 . S
C160 C159 1.332 . S
H161 C154 0.930 . S
H162 C185 0.930 . S
H163 C186 0.929 . S
O164 Tb120 2.465 . S
O164 C184 1.264 . S
O165 Tb120 2.387 1_554 S
O165 C176 1.264 . S
O166 Tb131 2.349 . S
O166 C176 1.243 . S
O167 Tb120 2.428 . S
O167 C184 1.256 . S
O168 Tb120 2.308 1_554 S
O168 C183 1.266 . S
O169 Tb131 2.393 . S
O169 C183 1.248 . S
O170 Tb131 2.465 . S
O170 C195 1.264 . S
O171 Tb131 2.387 1_556 S
O171 C187 1.264 . S
O172 Tb120 2.349 . S
O172 C187 1.243 . S
O173 Tb131 2.428 . S
O173 C195 1.256 . S
O174 Tb131 2.308 . S
O174 C194 1.266 . S
O175 Tb120 2.402 . S
O175 C194 1.227 1_556 S
C176 O165 1.264 . S
C176 O166 1.243 . S
C177 C180 1.399 . S
C177 C182 1.383 . S
C177 C184 1.496 . S
C178 C179 1.399 . S
C178 C182 1.389 . S
C179 C178 1.399 . S
C179 C181 1.380 . S
C179 H196 0.929 . S
C180 C177 1.399 . S
C180 C181 1.392 . S
C180 H197 0.929 . S
C181 C179 1.380 . S
C181 C180 1.392 . S
C181 H198 0.929 . S
C182 C177 1.383 . S
C182 C178 1.389 . S
C182 H199 0.931 . S
C183 O168 1.266 . S
C183 O169 1.248 . S
C184 Tb120 2.802 . S
C184 O164 1.264 . S
C184 O167 1.256 . S
C184 C177 1.496 . S
C185 C152 1.448 . S
C185 H162 0.930 . S
C185 C186 1.328 . S
C186 C157 1.427 . S
C186 H163 0.929 . S
C186 C185 1.328 . S
C187 O171 1.264 . S
C187 O172 1.243 . S
C188 C191 1.399 . S
C188 C192 1.383 . S
C188 C195 1.496 . S
C189 C190 1.399 . S
C189 C192 1.389 . S
C190 C189 1.399 . S
C190 C193 1.380 . S
C190 H200 0.929 . S
C191 C188 1.399 . S
C191 C193 1.392 . S
C191 H201 0.929 . S
C192 C188 1.383 . S
C192 C189 1.389 . S
C192 H202 0.931 . S
C193 C190 1.380 . S
C193 C191 1.392 . S
C193 H203 0.929 . S
C194 O174 1.266 . S
C194 O175 1.227 1_554 S
C195 Tb131 2.802 . S
C195 O170 1.264 . S
C195 O173 1.256 . S
C195 C188 1.496 . S
H196 C179 0.929 . S
H197 C180 0.929 . S
H198 C181 0.929 . S
H199 C182 0.931 . S
H200 C190 0.929 . S
H201 C191 0.929 . S
H202 C192 0.931 . S
H203 C193 0.929 . S
H204 C212 0.929 . S
H205 C214 0.930 . S
H206 C216 0.930 . S
H207 C219 0.929 . S
H208 C222 0.930 . S
H209 C224 0.960 . S
H210 C224 0.960 . S
H211 C224 0.960 . S
C212 H204 0.929 . S
C212 C213 1.377 . S
C212 C214 1.384 . S
C213 C212 1.377 . S
C213 C219 1.390 . S
C214 H205 0.930 . S
C214 C212 1.384 . S
C214 C215 1.372 . S
C215 C214 1.372 . S
C215 C216 1.400 . S
C215 C220 1.490 . S
C216 H206 0.930 . S
C216 C215 1.400 . S
C216 C219 1.386 . S
H217 C233 0.930 . S
H218 C234 0.931 . S
C219 H207 0.929 . S
C219 C213 1.390 . S
C219 C216 1.386 . S
C220 C215 1.490 . S
C220 C222 1.395 . S
C220 C223 1.403 . S
H221 C227 0.930 . S
C222 H208 0.930 . S
C222 C220 1.395 . S
C222 C225 1.403 . S
C223 C220 1.403 . S
C223 C224 1.524 . S
C223 C227 1.400 . S
C224 H209 0.960 . S
C224 H210 0.960 . S
C224 H211 0.960 . S
C224 C223 1.524 . S
C225 C222 1.403 . S
C225 C226 1.392 . S
C225 C229 1.495 . S
C226 C225 1.392 . S
C226 C227 1.385 . S
C226 C228 1.478 . S
C227 H221 0.930 . S
C227 C223 1.400 . S
C227 C226 1.385 . S
C228 C226 1.478 . S
C228 C230 1.381 . S
C228 C234 1.383 . S
C229 C225 1.495 . S
C229 H235 0.959 . S
C229 H236 0.961 . S
C229 H237 0.960 . S
C230 C228 1.381 . S
C230 C231 1.394 . S
C230 H238 0.930 . S
C231 C230 1.394 . S
C231 C232 1.383 . S
C231 H239 0.929 . S
C232 C231 1.383 . S
C232 C233 1.377 . S
C233 H217 0.930 . S
C233 C232 1.377 . S
C233 C234 1.379 . S
C234 H218 0.931 . S
C234 C228 1.383 . S
C234 C233 1.379 . S
H235 C229 0.959 . S
H236 C229 0.961 . S
H237 C229 0.960 . S
H238 C230 0.930 . S
H239 C231 0.929 . S
H240 C248 0.929 . S
H241 C250 0.930 . S
H242 C252 0.930 . S
H243 C255 0.929 . S
H244 C258 0.930 . S
H245 C260 0.960 . S
H246 C260 0.960 . S
H247 C260 0.960 . S
C248 H240 0.929 . S
C248 C249 1.377 . S
C248 C250 1.384 . S
C249 C248 1.377 . S
C249 C255 1.390 1_554 S
C250 H241 0.930 . S
C250 C248 1.384 . S
C250 C251 1.372 . S
C251 C250 1.372 . S
C251 C252 1.400 1_554 S
C251 C256 1.490 . S
C252 H242 0.930 . S
C252 C251 1.400 1_556 S
C252 C255 1.386 . S
H253 C269 0.930 . S
H254 C270 0.931 . S
C255 H243 0.929 . S
C255 C249 1.390 1_556 S
C255 C252 1.386 . S
C256 C251 1.490 . S
C256 C258 1.395 . S
C256 C259 1.403 . S
H257 C263 0.930 . S
C258 H244 0.930 . S
C258 C256 1.395 . S
C258 C261 1.403 . S
C259 C256 1.403 . S
C259 C260 1.524 . S
C259 C263 1.400 . S
C260 H245 0.960 . S
C260 H246 0.960 . S
C260 H247 0.960 . S
C260 C259 1.524 . S
C261 C258 1.403 . S
C261 C262 1.392 . S
C261 C265 1.495 . S
C262 C261 1.392 . S
C262 C263 1.385 . S
C262 C264 1.478 . S
C263 H257 0.930 . S
C263 C259 1.400 . S
C263 C262 1.385 . S
C264 C262 1.478 . S
C264 C266 1.381 . S
C264 C270 1.383 1_554 S
C265 C261 1.495 . S
C265 H271 0.959 . S
C265 H272 0.961 . S
C265 H273 0.960 . S
C266 C264 1.381 . S
C266 C267 1.394 . S
C266 H274 0.930 . S
C267 C266 1.394 . S
C267 C268 1.383 . S
C267 H275 0.929 . S
C268 C267 1.383 . S
C268 C269 1.377 1_554 S
C269 H253 0.930 . S
C269 C268 1.377 1_556 S
C269 C270 1.379 . S
C270 H254 0.931 . S
C270 C264 1.383 1_556 S
C270 C269 1.379 . S
H271 C265 0.959 . S
H272 C265 0.961 . S
H273 C265 0.960 . S
H274 C266 0.930 . S
H275 C267 0.929 . S
H276 C284 0.929 . S
H277 C286 0.930 . S
H278 C288 0.930 . S
H279 C291 0.929 . S
H280 C294 0.930 . S
H281 C296 0.960 . S
H282 C296 0.960 . S
H283 C296 0.960 . S
C284 H276 0.929 . S
C284 C285 1.377 . S
C284 C286 1.384 . S
C285 C284 1.377 . S
C285 C291 1.390 . S
C286 H277 0.930 . S
C286 C284 1.384 . S
C286 C287 1.372 . S
C287 C286 1.372 . S
C287 C288 1.400 . S
C287 C292 1.490 . S
C288 H278 0.930 . S
C288 C287 1.400 . S
C288 C291 1.386 . S
H289 C305 0.930 . S
H290 C306 0.931 . S
C291 H279 0.929 . S
C291 C285 1.390 . S
C291 C288 1.386 . S
C292 C287 1.490 . S
C292 C294 1.395 . S
C292 C295 1.403 . S
H293 C299 0.930 . S
C294 H280 0.930 . S
C294 C292 1.395 . S
C294 C297 1.403 . S
C295 C292 1.403 . S
C295 C296 1.524 . S
C295 C299 1.400 . S
C296 H281 0.960 . S
C296 H282 0.960 . S
C296 H283 0.960 . S
C296 C295 1.524 . S
C297 C294 1.403 . S
C297 C298 1.392 . S
C297 C301 1.495 . S
C298 C297 1.392 . S
C298 C299 1.385 . S
C298 C300 1.478 . S
C299 H293 0.930 . S
C299 C295 1.400 . S
C299 C298 1.385 . S
C300 C298 1.478 . S
C300 C302 1.381 . S
C300 C306 1.383 . S
C301 C297 1.495 . S
C301 H307 0.959 . S
C301 H308 0.961 . S
C301 H309 0.960 . S
C302 C300 1.381 . S
C302 C303 1.394 . S
C302 H310 0.930 . S
C303 C302 1.394 . S
C303 C304 1.383 . S
C303 H311 0.929 . S
C304 C303 1.383 . S
C304 C305 1.377 . S
C305 H289 0.930 . S
C305 C304 1.377 . S
C305 C306 1.379 . S
C306 H290 0.931 . S
C306 C300 1.383 . S
C306 C305 1.379 . S
H307 C301 0.959 . S
H308 C301 0.961 . S
H309 C301 0.960 . S
H310 C302 0.930 . S
H311 C303 0.929 . S
H312 C320 0.929 . S
H313 C322 0.930 . S
H314 C324 0.930 . S
H315 C327 0.929 . S
H316 C330 0.930 . S
H317 C332 0.960 . S
H318 C332 0.960 . S
H319 C332 0.960 . S
C320 H312 0.929 . S
C320 C321 1.377 . S
C320 C322 1.384 . S
C321 C320 1.377 . S
C321 C327 1.390 . S
C322 H313 0.930 . S
C322 C320 1.384 . S
C322 C323 1.372 . S
C323 C322 1.372 . S
C323 C324 1.400 . S
C323 C328 1.490 . S
C324 H314 0.930 . S
C324 C323 1.400 . S
C324 C327 1.386 . S
H325 C341 0.930 . S
H326 C342 0.931 . S
C327 H315 0.929 . S
C327 C321 1.390 . S
C327 C324 1.386 . S
C328 C323 1.490 . S
C328 C330 1.395 . S
C328 C331 1.397 1_554 S
H329 C335 0.930 1_556 S
C330 H316 0.930 . S
C330 C328 1.395 . S
C330 C333 1.403 . S
C331 C328 1.397 1_556 S
C331 C332 1.533 . S
C331 C335 1.397 1_556 S
C332 H317 0.960 . S
C332 H318 0.960 . S
C332 H319 0.960 . S
C332 C331 1.533 . S
C333 C330 1.403 . S
C333 C334 1.392 . S
C333 C337 1.495 . S
C334 C333 1.392 . S
C334 C335 1.385 . S
C334 C336 1.478 . S
C335 H329 0.930 1_554 S
C335 C331 1.397 1_554 S
C335 C334 1.385 . S
C336 C334 1.478 . S
C336 C338 1.381 . S
C336 C342 1.383 . S
C337 C333 1.495 . S
C337 H343 0.959 . S
C337 H344 0.961 . S
C337 H345 0.960 . S
C338 C336 1.381 . S
C338 C339 1.394 . S
C338 H346 0.930 . S
C339 C338 1.394 . S
C339 C340 1.383 . S
C339 H347 0.929 . S
C340 C339 1.383 . S
C340 C341 1.377 . S
C341 H325 0.930 . S
C341 C340 1.377 . S
C341 C342 1.379 . S
C342 H326 0.931 . S
C342 C336 1.383 . S
C342 C341 1.379 . S
H343 C337 0.959 . S
H344 C337 0.961 . S
H345 C337 0.960 . S
H346 C338 0.930 . S
H347 C339 0.929 . S
H348 C356 0.929 . S
H349 C358 0.930 . S
H350 C360 0.930 . S
H351 C363 0.929 . S
H352 C366 0.930 . S
H353 C368 0.960 . S
H354 C368 0.960 . S
H355 C368 0.960 . S
C356 H348 0.929 . S
C356 C357 1.377 . S
C356 C358 1.384 . S
C357 C356 1.377 . S
C357 C363 1.390 . S
C358 H349 0.930 . S
C358 C356 1.384 . S
C358 C359 1.372 . S
C359 C358 1.372 . S
C359 C360 1.400 . S
C359 C364 1.490 . S
C360 H350 0.930 . S
C360 C359 1.400 . S
C360 C363 1.386 . S
H361 C377 0.930 . S
H362 C378 0.931 . S
C363 H351 0.929 . S
C363 C357 1.390 . S
C363 C360 1.386 . S
C364 C359 1.490 . S
C364 C366 1.395 . S
C364 C367 1.403 . S
H365 C371 0.930 . S
C366 H352 0.930 . S
C366 C364 1.395 . S
C366 C369 1.403 . S
C367 C364 1.403 . S
C367 C368 1.524 . S
C367 C371 1.400 . S
C368 H353 0.960 . S
C368 H354 0.960 . S
C368 H355 0.960 . S
C368 C367 1.524 . S
C369 C366 1.403 . S
C369 C370 1.392 . S
C369 C373 1.495 . S
C370 C369 1.392 . S
C370 C371 1.385 . S
C370 C372 1.478 . S
C371 H365 0.930 . S
C371 C367 1.400 . S
C371 C370 1.385 . S
C372 C370 1.478 . S
C372 C374 1.381 . S
C372 C378 1.383 . S
C373 C369 1.495 . S
C373 H379 0.959 . S
C373 H380 0.961 . S
C373 H381 0.960 . S
C374 C372 1.381 . S
C374 C375 1.394 . S
C374 H382 0.930 . S
C375 C374 1.394 . S
C375 C376 1.383 . S
C375 H383 0.929 . S
C376 C375 1.383 . S
C376 C377 1.377 . S
C377 H361 0.930 . S
C377 C376 1.377 . S
C377 C378 1.379 . S
C378 H362 0.931 . S
C378 C372 1.383 . S
C378 C377 1.379 . S
H379 C373 0.959 . S
H380 C373 0.961 . S
H381 C373 0.960 . S
H382 C374 0.930 . S
H383 C375 0.929 . S
H384 C392 0.929 . S
H385 C394 0.930 . S
H386 C396 0.930 . S
H387 C399 0.929 . S
H388 C402 0.930 . S
H389 C404 0.960 . S
H390 C404 0.960 . S
H391 C404 0.960 . S
C392 H384 0.929 . S
C392 C393 1.377 . S
C392 C394 1.384 . S
C393 C392 1.377 . S
C393 C399 1.390 . S
C394 H385 0.930 . S
C394 C392 1.384 . S
C394 C395 1.372 . S
C395 C394 1.372 . S
C395 C396 1.400 . S
C395 C400 1.490 . S
C396 H386 0.930 . S
C396 C395 1.400 . S
C396 C399 1.386 . S
H397 C413 0.930 . S
H398 C414 0.931 . S
C399 H387 0.929 . S
C399 C393 1.390 . S
C399 C396 1.386 . S
C400 C395 1.490 . S
C400 C402 1.395 . S
C400 C403 1.403 . S
H401 C407 0.930 . S
C402 H388 0.930 . S
C402 C400 1.395 . S
C402 C405 1.403 . S
C403 C400 1.403 . S
C403 C404 1.524 . S
C403 C407 1.400 . S
C404 H389 0.960 . S
C404 H390 0.960 . S
C404 H391 0.960 . S
C404 C403 1.524 . S
C405 C402 1.403 . S
C405 C406 1.392 . S
C405 C409 1.495 . S
C406 C405 1.392 . S
C406 C407 1.385 . S
C406 C408 1.478 . S
C407 H401 0.930 . S
C407 C403 1.400 . S
C407 C406 1.385 . S
C408 C406 1.478 . S
C408 C410 1.381 . S
C408 C414 1.383 . S
C409 C405 1.495 . S
C409 H415 0.959 . S
C409 H416 0.961 . S
C409 H417 0.960 . S
C410 C408 1.381 . S
C410 C411 1.394 . S
C410 H418 0.930 . S
C411 C410 1.394 . S
C411 C412 1.383 . S
C411 H419 0.929 . S
C412 C411 1.383 . S
C412 C413 1.377 . S
C413 H397 0.930 . S
C413 C412 1.377 . S
C413 C414 1.379 . S
C414 H398 0.931 . S
C414 C408 1.383 . S
C414 C413 1.379 . S
H415 C409 0.959 . S
H416 C409 0.961 . S
H417 C409 0.960 . S
H418 C410 0.930 . S
H419 C411 0.929 . S
H420 C428 0.929 . S
H421 C430 0.930 . S
H422 C432 0.930 . S
H423 C435 0.929 . S
H424 C438 0.930 . S
H425 C440 0.960 . S
H426 C440 0.960 . S
H427 C440 0.960 . S
C428 H420 0.929 . S
C428 C429 1.377 . S
C428 C430 1.384 . S
C429 C428 1.377 . S
C429 C435 1.390 . S
C430 H421 0.930 . S
C430 C428 1.384 . S
C430 C431 1.372 . S
C431 C430 1.372 . S
C431 C432 1.400 . S
C431 C436 1.490 . S
C432 H422 0.930 . S
C432 C431 1.400 . S
C432 C435 1.386 . S
H433 C449 0.930 . S
H434 C450 0.931 . S
C435 H423 0.929 . S
C435 C429 1.390 . S
C435 C432 1.386 . S
C436 C431 1.490 . S
C436 C438 1.395 . S
C436 C439 1.403 . S
H437 C443 0.930 . S
C438 H424 0.930 . S
C438 C436 1.395 . S
C438 C441 1.403 . S
C439 C436 1.403 . S
C439 C440 1.524 . S
C439 C443 1.400 . S
C440 H425 0.960 . S
C440 H426 0.960 . S
C440 H427 0.960 . S
C440 C439 1.524 . S
C441 C438 1.403 . S
C441 C442 1.392 . S
C441 C445 1.495 1_545 S
C442 C441 1.392 . S
C442 C443 1.385 . S
C442 C444 1.478 . S
C443 H437 0.930 . S
C443 C439 1.400 . S
C443 C442 1.385 . S
C444 C442 1.478 . S
C444 C446 1.381 . S
C444 C450 1.383 . S
C445 C441 1.495 1_565 S
C445 H451 0.959 . S
C445 H452 0.961 . S
C445 H453 0.960 . S
C446 C444 1.381 . S
C446 C447 1.394 . S
C446 H454 0.930 . S
C447 C446 1.394 . S
C447 C448 1.383 . S
C447 H455 0.929 . S
C448 C447 1.383 . S
C448 C449 1.377 . S
C449 H433 0.930 . S
C449 C448 1.377 . S
C449 C450 1.379 . S
C450 H434 0.931 . S
C450 C444 1.383 . S
C450 C449 1.379 . S
H451 C445 0.959 . S
H452 C445 0.961 . S
H453 C445 0.960 . S
H454 C446 0.930 . S
H455 C447 0.929 . S
H456 C464 0.929 . S
H457 C466 0.930 . S
H458 C468 0.930 . S
H459 C471 0.929 . S
H460 C474 0.930 . S
H461 C476 0.960 . S
H462 C476 0.960 . S
H463 C476 0.960 . S
C464 H456 0.929 . S
C464 C465 1.377 . S
C464 C466 1.384 . S
C465 C464 1.377 . S
C465 C471 1.390 . S
C466 H457 0.930 . S
C466 C464 1.384 . S
C466 C467 1.372 . S
C467 C466 1.372 . S
C467 C468 1.400 . S
C467 C472 1.490 . S
C468 H458 0.930 . S
C468 C467 1.400 . S
C468 C471 1.386 . S
H469 C485 0.930 . S
H470 C486 0.931 . S
C471 H459 0.929 . S
C471 C465 1.390 . S
C471 C468 1.386 . S
C472 C467 1.490 . S
C472 C474 1.395 . S
C472 C475 1.403 . S
H473 C479 0.930 . S
C474 H460 0.930 . S
C474 C472 1.395 . S
C474 C477 1.403 . S
C475 C472 1.403 . S
C475 C476 1.524 . S
C475 C479 1.400 . S
C476 H461 0.960 . S
C476 H462 0.960 . S
C476 H463 0.960 . S
C476 C475 1.524 . S
C477 C474 1.403 . S
C477 C478 1.392 . S
C477 C481 1.495 . S
C478 C477 1.392 . S
C478 C479 1.385 . S
C478 C480 1.478 . S
C479 H473 0.930 . S
C479 C475 1.400 . S
C479 C478 1.385 . S
C480 C478 1.478 . S
C480 C482 1.381 . S
C480 C486 1.383 . S
C481 C477 1.495 . S
C481 H487 0.959 . S
C481 H488 0.961 . S
C481 H489 0.960 . S
C482 C480 1.381 . S
C482 C483 1.394 . S
C482 H490 0.930 . S
C483 C482 1.394 . S
C483 C484 1.383 . S
C483 H491 0.929 . S
C484 C483 1.383 . S
C484 C485 1.377 . S
C485 H469 0.930 . S
C485 C484 1.377 . S
C485 C486 1.379 . S
C486 H470 0.931 . S
C486 C480 1.383 . S
C486 C485 1.379 . S
H487 C481 0.959 . S
H488 C481 0.961 . S
H489 C481 0.960 . S
H490 C482 0.930 . S
H491 C483 0.929 . S
H492 C500 0.929 . S
H493 C502 0.930 . S
H494 C504 0.930 . S
H495 C507 0.929 . S
H496 C510 0.930 . S
H497 C512 0.960 . S
H498 C512 0.960 . S
H499 C512 0.960 . S
C500 H492 0.929 . S
C500 C501 1.377 . S
C500 C502 1.384 . S
C501 C500 1.377 . S
C501 C507 1.390 . S
C502 H493 0.930 . S
C502 C500 1.384 . S
C502 C503 1.372 . S
C503 C502 1.372 . S
C503 C504 1.400 . S
C503 C508 1.490 . S
C504 H494 0.930 . S
C504 C503 1.400 . S
C504 C507 1.386 . S
H505 C521 0.930 . S
H506 C522 0.931 . S
C507 H495 0.929 . S
C507 C501 1.390 . S
C507 C504 1.386 . S
C508 C503 1.490 . S
C508 C510 1.395 . S
C508 C511 1.403 . S
H509 C515 0.930 . S
C510 H496 0.930 . S
C510 C508 1.395 . S
C510 C513 1.403 . S
C511 C508 1.403 . S
C511 C512 1.524 . S
C511 C515 1.400 . S
C512 H497 0.960 . S
C512 H498 0.960 . S
C512 H499 0.960 . S
C512 C511 1.524 . S
C513 C510 1.403 . S
C513 C514 1.392 . S
C513 C517 1.495 . S
C514 C513 1.392 . S
C514 C515 1.385 . S
C514 C516 1.478 . S
C515 H509 0.930 . S
C515 C511 1.400 . S
C515 C514 1.385 . S
C516 C514 1.478 . S
C516 C518 1.381 . S
C516 C522 1.383 . S
C517 C513 1.495 . S
C517 H523 0.959 . S
C517 H524 0.961 . S
C517 H525 0.960 . S
C518 C516 1.381 . S
C518 C519 1.394 . S
C518 H526 0.930 . S
C519 C518 1.394 . S
C519 C520 1.383 . S
C519 H527 0.929 . S
C520 C519 1.383 . S
C520 C521 1.377 . S
C521 H505 0.930 . S
C521 C520 1.377 . S
C521 C522 1.379 . S
C522 H506 0.931 . S
C522 C516 1.383 . S
C522 C521 1.379 . S
H523 C517 0.959 . S
H524 C517 0.961 . S
H525 C517 0.960 . S
H526 C518 0.930 . S
H527 C519 0.929 . S
H528 C536 0.929 . S
H529 C538 0.930 . S
H530 C540 0.930 . S
H531 C543 0.929 . S
H532 C546 0.930 . S
H533 C548 0.960 . S
H534 C548 0.960 . S
H535 C548 0.960 . S
C536 H528 0.929 . S
C536 C537 1.377 . S
C536 C538 1.384 . S
C537 C536 1.377 . S
C537 C543 1.390 . S
C538 H529 0.930 . S
C538 C536 1.384 . S
C538 C539 1.372 . S
C539 C538 1.372 . S
C539 C540 1.400 . S
C539 C544 1.490 . S
C540 H530 0.930 . S
C540 C539 1.400 . S
C540 C543 1.386 . S
H541 C557 0.930 . S
H542 C558 0.931 . S
C543 H531 0.929 . S
C543 C537 1.390 . S
C543 C540 1.386 . S
C544 C539 1.490 . S
C544 C546 1.395 . S
C544 C547 1.403 . S
H545 C551 0.930 . S
C546 H532 0.930 . S
C546 C544 1.395 . S
C546 C549 1.403 . S
C547 C544 1.403 . S
C547 C548 1.524 . S
C547 C551 1.400 . S
C548 H533 0.960 . S
C548 H534 0.960 . S
C548 H535 0.960 . S
C548 C547 1.524 . S
C549 C546 1.403 . S
C549 C550 1.392 . S
C549 C553 1.495 . S
C550 C549 1.392 . S
C550 C551 1.385 . S
C550 C552 1.478 . S
C551 H545 0.930 . S
C551 C547 1.400 . S
C551 C550 1.385 . S
C552 C550 1.478 . S
C552 C554 1.381 . S
C552 C558 1.383 . S
C553 C549 1.495 . S
C553 H559 0.959 . S
C553 H560 0.961 . S
C553 H561 0.960 . S
C554 C552 1.381 . S
C554 C555 1.394 . S
C554 H562 0.930 . S
C555 C554 1.394 . S
C555 C556 1.383 . S
C555 H563 0.929 . S
C556 C555 1.383 . S
C556 C557 1.377 . S
C557 H541 0.930 . S
C557 C556 1.377 . S
C557 C558 1.379 . S
C558 H542 0.931 . S
C558 C552 1.383 . S
C558 C557 1.379 . S
H559 C553 0.959 . S
H560 C553 0.961 . S
H561 C553 0.960 . S
H562 C554 0.930 . S
H563 C555 0.929 . S
H564 C572 0.929 . S
H565 C574 0.930 . S
H566 C576 0.930 . S
H567 C579 0.929 . S
H568 C582 0.930 . S
H569 C584 0.960 . S
H570 C584 0.960 . S
H571 C584 0.960 . S
C572 H564 0.929 . S
C572 C573 1.377 . S
C572 C574 1.384 . S
C573 C572 1.377 . S
C573 C579 1.390 . S
C574 H565 0.930 . S
C574 C572 1.384 . S
C574 C575 1.372 . S
C575 C574 1.372 . S
C575 C576 1.400 . S
C575 C580 1.490 . S
C576 H566 0.930 . S
C576 C575 1.400 . S
C576 C579 1.386 . S
H577 C593 0.930 . S
H578 C594 0.931 . S
C579 H567 0.929 . S
C579 C573 1.390 . S
C579 C576 1.386 . S
C580 C575 1.490 . S
C580 C582 1.395 . S
C580 C583 1.403 . S
H581 C587 0.930 . S
C582 H568 0.930 . S
C582 C580 1.395 . S
C582 C585 1.403 . S
C583 C580 1.403 . S
C583 C584 1.524 . S
C583 C587 1.400 . S
C584 H569 0.960 . S
C584 H570 0.960 . S
C584 H571 0.960 . S
C584 C583 1.524 . S
C585 C582 1.403 . S
C585 C586 1.392 . S
C585 C589 1.495 . S
C586 C585 1.392 . S
C586 C587 1.385 . S
C586 C588 1.478 . S
C587 H581 0.930 . S
C587 C583 1.400 . S
C587 C586 1.385 . S
C588 C586 1.478 . S
C588 C590 1.381 . S
C588 C594 1.383 . S
C589 C585 1.495 . S
C589 H595 0.959 . S
C589 H596 0.961 . S
C589 H597 0.960 . S
C590 C588 1.381 . S
C590 C591 1.394 . S
C590 H598 0.930 . S
C591 C590 1.394 . S
C591 C592 1.383 . S
C591 H599 0.929 . S
C592 C591 1.383 . S
C592 C593 1.377 . S
C593 H577 0.930 . S
C593 C592 1.377 . S
C593 C594 1.379 . S
C594 H578 0.931 . S
C594 C588 1.383 . S
C594 C593 1.379 . S
H595 C589 0.959 . S
H596 C589 0.961 . S
H597 C589 0.960 . S
H598 C590 0.930 . S
H599 C591 0.929 . S
H600 C608 0.929 . S
H601 C610 0.930 . S
H602 C612 0.930 . S
H603 C615 0.929 . S
H604 C618 0.930 . S
H605 C620 0.960 . S
H606 C620 0.960 . S
H607 C620 0.960 . S
C608 H600 0.929 . S
C608 C609 1.377 . S
C608 C610 1.384 . S
C609 C608 1.377 . S
C609 C615 1.390 . S
C610 H601 0.930 . S
C610 C608 1.384 . S
C610 C611 1.372 . S
C611 C610 1.372 . S
C611 C612 1.400 . S
C611 C616 1.490 . S
C612 H602 0.930 . S
C612 C611 1.400 . S
C612 C615 1.386 . S
H613 C629 0.930 . S
H614 C630 0.931 . S
C615 H603 0.929 . S
C615 C609 1.390 . S
C615 C612 1.386 . S
C616 C611 1.490 . S
C616 C618 1.395 . S
C616 C619 1.403 . S
H617 C623 0.930 . S
C618 H604 0.930 . S
C618 C616 1.395 . S
C618 C621 1.403 . S
C619 C616 1.403 . S
C619 C620 1.524 . S
C619 C623 1.400 . S
C620 H605 0.960 . S
C620 H606 0.960 . S
C620 H607 0.960 . S
C620 C619 1.524 . S
C621 C618 1.403 . S
C621 C622 1.392 . S
C621 C625 1.495 . S
C622 C621 1.392 . S
C622 C623 1.385 . S
C622 C624 1.478 . S
C623 H617 0.930 . S
C623 C619 1.400 . S
C623 C622 1.385 . S
C624 C622 1.478 . S
C624 C626 1.381 . S
C624 C630 1.383 . S
C625 C621 1.495 . S
C625 H631 0.959 . S
C625 H632 0.961 . S
C625 H633 0.960 . S
C626 C624 1.381 . S
C626 C627 1.394 . S
C626 H634 0.930 . S
C627 C626 1.394 . S
C627 C628 1.383 . S
C627 H635 0.929 . S
C628 C627 1.383 . S
C628 C629 1.377 . S
C629 H613 0.930 . S
C629 C628 1.377 . S
C629 C630 1.379 . S
C630 H614 0.931 . S
C630 C624 1.383 . S
C630 C629 1.379 . S
H631 C625 0.959 . S
H632 C625 0.961 . S
H633 C625 0.960 . S
H634 C626 0.930 . S
H635 C627 0.929 . S
C232 C99 1.547 . S
C213 C34 1.568 . S
C249 C7 1.554 . S
C268 C194 1.529 . S
C285 C16 1.565 . S
C304 C110 1.553 . S
C321 C25 1.553 . S
C340 C183 1.515 . S
C376 C94 1.346 . S
C357 C5 1.531 . S
C412 C187 1.565 . S
C393 C13 1.565 . S
C429 C23 1.540 . S
C448 C103 1.545 . S
C465 C32 1.524 . S
C484 C178 1.397 . S
C520 C189 1.391 . S
C501 C14 1.522 . S
C556 C105 1.382 . S
C537 C22 1.528 1_556 S
C592 C176 1.566 . S
C573 C31 1.561 . S
C609 C4 1.539 . S
C628 C92 1.542 . S
