# Generated by pormake.
# Topology tsx, (6,3)-cn, num edge types: 1
# Building blocks:
#     Node 0, Type 0, BuildingBlock: MIDCAF_clean_sbu_0, # of connection points: 6
#     Node 1, Type 0, BuildingBlock: MIDCAF_clean_sbu_0, # of connection points: 6
#     Node 2, Type 1, BuildingBlock: PAMTOO_clean_linker_0, # of connection points: 3
#     Node 3, Type 1, BuildingBlock: PAMTOO_clean_linker_0, # of connection points: 3
#     Node 4, Type 1, BuildingBlock: PAMTOO_clean_linker_0, # of connection points: 3
#     Node 5, Type 1, BuildingBlock: PAMTOO_clean_linker_0, # of connection points: 3
#     Edge 6, Type (0, 1), BuildingBlock: XUDNAN_clean_linker_2, # of connection points: 2
#     Edge 7, Type (0, 1), BuildingBlock: XUDNAN_clean_linker_2, # of connection points: 2
#     Edge 8, Type (0, 1), BuildingBlock: XUDNAN_clean_linker_2, # of connection points: 2
#     Edge 9, Type (0, 1), BuildingBlock: XUDNAN_clean_linker_2, # of connection points: 2
#     Edge 10, Type (0, 1), BuildingBlock: XUDNAN_clean_linker_2, # of connection points: 2
#     Edge 11, Type (0, 1), BuildingBlock: XUDNAN_clean_linker_2, # of connection points: 2
#     Edge 12, Type (0, 1), BuildingBlock: XUDNAN_clean_linker_2, # of connection points: 2
#     Edge 13, Type (0, 1), BuildingBlock: XUDNAN_clean_linker_2, # of connection points: 2
#     Edge 14, Type (0, 1), BuildingBlock: XUDNAN_clean_linker_2, # of connection points: 2
#     Edge 15, Type (0, 1), BuildingBlock: XUDNAN_clean_linker_2, # of connection points: 2
#     Edge 16, Type (0, 1), BuildingBlock: XUDNAN_clean_linker_2, # of connection points: 2
#     Edge 17, Type (0, 1), BuildingBlock: XUDNAN_clean_linker_2, # of connection points: 2
# Relax obj value: 0.096
# Max RMSD: 0.163
# Mean RMSD: 0.128
data_MOF--net-tsx--node1-MIDCAF_clean_sbu_0--node2-PAMTOO_clean_linker_0--edge1-XUDNAN_clean_linker_2
_symmetry_space_group_name_H-M    P1
_symmetry_Int_Tables_number       1
_symmetry_cell_setting            triclinic
loop_
_symmetry_equiv_pos_as_xyz
'x, y, z'
_cell_length_a     19.853888
_cell_length_b     20.74562
_cell_length_c     35.321975
_cell_angle_alpha  82.350243
_cell_angle_beta   96.62117
_cell_angle_gamma 90.149875
loop_
_atom_site_label
_atom_site_type_symbol
_atom_site_fract_x
_atom_site_fract_y
_atom_site_fract_z
_atom_type_partial_charge
Zn0 Zn 0.94351 0.02375 0.96181 0.0
Zn1 Zn 0.15676 0.99268 0.04875 0.0
Zn2 Zn 0.05286 0.01048 0.00236 0.0
C3 C 0.15527 0.12323 0.01868 0.0
C4 C 0.17679 0.91463 0.99508 0.0
O5 O 0.97603 0.94936 0.03102 0.0
O6 O 0.89548 0.94633 0.98282 0.0
C7 C 0.9676 0.14323 0.98268 0.0
O8 O 0.09397 0.10852 0.00715 0.0
O9 O 0.19667 0.07926 0.03493 0.0
O10 O 0.19611 0.91899 0.0299 0.0
O11 O 0.12622 0.94983 0.97743 0.0
O12 O 0.9167 0.10891 0.97481 0.0
O13 O 0.02725 0.11676 0.98944 0.0
O14 O 0.06966 0.96947 0.94995 0.0
O15 O 0.98315 0.01996 0.91291 0.0
C16 C 0.03688 0.9862 0.91648 0.0
O17 O 0.02218 0.9698 0.05914 0.0
O18 O 0.11735 0.97567 0.09762 0.0
C19 C 0.92048 0.92504 0.0166 0.0
C20 C 0.05461 0.96492 0.09323 0.0
Zn21 Zn 0.64974 0.49567 0.54378 0.0
Zn22 Zn 0.42738 0.53546 0.46254 0.0
Zn23 Zn 0.54216 0.5189 0.49765 0.0
C24 C 0.51268 0.49944 0.4113 0.0
C25 C 0.45945 0.65377 0.48302 0.0
O26 O 0.51685 0.47268 0.55525 0.0
O27 O 0.61477 0.46643 0.59257 0.0
C28 C 0.66274 0.42653 0.483 0.0
O29 O 0.55055 0.48175 0.44307 0.0
O30 O 0.45929 0.53246 0.41134 0.0
O31 O 0.40658 0.62069 0.47796 0.0
O32 O 0.51829 0.62575 0.48681 0.0
O33 O 0.68777 0.42954 0.51718 0.0
O34 O 0.60977 0.46085 0.46827 0.0
O35 O 0.58701 0.61557 0.50388 0.0
O36 O 0.68506 0.58505 0.53778 0.0
C37 C 0.64585 0.62963 0.51996 0.0
O38 O 0.46824 0.4548 0.52712 0.0
O39 O 0.37914 0.45804 0.4834 0.0
C40 C 0.55147 0.4595 0.58866 0.0
C41 C 0.41031 0.43215 0.51482 0.0
H42 H 0.17932 0.9832 0.34924 0.0
H43 H 1.00513 0.10009 0.36152 0.0
H44 H 0.16948 0.0713 0.45178 0.0
H45 H 0.0236 0.10981 0.47965 0.0
C46 C 1.00247 0.11478 0.44886 0.0
O47 O 0.05427 0.13313 0.42693 0.0
H48 H 0.98127 0.06696 0.44272 0.0
C49 C 0.15163 0.01257 0.36548 0.0
C50 C 0.1811 0.02291 0.40229 0.0
C51 C 0.08713 0.03876 0.35014 0.0
C52 C 0.05471 0.07901 0.3718 0.0
C53 C 0.08497 0.09161 0.4078 0.0
C54 C 0.1472 0.06237 0.42349 0.0
H55 H 0.19046 0.03877 0.65793 0.0
H56 H 0.016 0.92372 0.6298 0.0
H57 H 0.11061 0.03543 0.53953 0.0
H58 H 0.96158 0.02869 0.51734 0.0
C59 C 0.95191 0.99372 0.54263 0.0
O60 O 1.01046 0.95755 0.55538 0.0
H61 H 0.93733 0.02193 0.56523 0.0
C62 C 0.15471 0.02032 0.63648 0.0
C63 C 0.15806 0.04135 0.59733 0.0
C64 C 0.10385 0.97805 0.64854 0.0
C65 C 0.05639 0.95542 0.62092 0.0
C66 C 0.05869 0.97656 0.5817 0.0
C67 C 0.10961 0.01913 0.56991 0.0
H68 H 0.68583 0.45026 0.85307 0.0
H69 H 0.51499 0.57976 0.84925 0.0
H70 H 0.67629 0.57178 0.94193 0.0
H71 H 0.54143 0.59594 0.9675 0.0
C72 C 0.51308 0.60682 0.93828 0.0
O73 O 0.55888 0.62584 0.91253 0.0
H74 H 0.48634 0.56193 0.93117 0.0
C75 C 0.65958 0.48711 0.86509 0.0
C76 C 0.68884 0.50869 0.89916 0.0
C77 C 0.59648 0.51185 0.84687 0.0
C78 C 0.56384 0.56019 0.86263 0.0
C79 C 0.59267 0.58178 0.89673 0.0
C80 C 0.65495 0.55582 0.91515 0.0
H81 H 0.66434 0.54562 0.15917 0.0
H82 H 0.49592 0.43206 0.1198 0.0
H83 H 0.60578 0.54667 0.03757 0.0
H84 H 0.45358 0.52561 0.00125 0.0
C85 C 0.44557 0.50125 0.03023 0.0
O86 O 0.50423 0.46766 0.04644 0.0
H87 H 0.4331 0.53941 0.04784 0.0
C88 C 0.63299 0.5281 0.13553 0.0
C89 C 0.64289 0.55107 0.09738 0.0
C90 C 0.58074 0.48497 0.14374 0.0
C91 C 0.53733 0.46447 0.11366 0.0
C92 C 0.5464 0.48715 0.07544 0.0
C93 C 0.59924 0.52992 0.0673 0.0
H94 H 0.27704 0.16211 -0.00183 0.0
H95 H 0.08973 0.23455 0.02966 0.0
H96 H 0.14026 0.34403 0.03075 0.0
H97 H 0.38617 0.24093 0.05815 0.0
H98 H 0.44941 0.25842 0.02561 0.0
H99 H 0.3953 0.18944 0.02171 0.0
H100 H 0.356 0.23251 0.95029 0.0
H101 H 0.41092 0.30131 0.95375 0.0
H102 H 0.32183 0.31397 0.93775 0.0
H103 H 0.21833 0.44094 0.03708 0.0
H104 H 0.31316 0.5181 0.04363 0.0
H105 H 0.44721 0.38099 0.00617 0.0
C106 C 0.24613 0.20154 0.00434 0.0
C107 C 0.17942 0.19058 0.01342 0.0
C108 C 0.14047 0.24272 0.02179 0.0
C109 C 0.16898 0.30475 0.02272 0.0
C110 C 0.23597 0.31346 0.01471 0.0
C111 C 0.27351 0.26336 0.00499 0.0
C112 C 0.34544 0.28349 -0.00023 0.0
C113 C 0.39707 0.24052 0.028 0.0
C114 C 0.35934 0.28279 0.9579 0.0
C115 C 0.34372 0.35202 0.00961 0.0
C116 C 0.28017 0.36881 0.01793 0.0
C117 C 0.26794 0.4285 0.03013 0.0
C118 C 0.32208 0.47181 0.03398 0.0
C119 C 0.38756 0.45487 0.02602 0.0
C120 C 0.39781 0.39481 0.01287 0.0
H121 H 0.25441 0.81267 0.03062 0.0
H122 H 0.19085 0.91764 0.91773 0.0
H123 H 0.26635 0.84688 0.8892 0.0
H124 H 0.42622 0.80531 0.01818 0.0
H125 H 0.44104 0.72641 0.04618 0.0
H126 H 0.37531 0.77892 0.05632 0.0
H127 H 0.28578 0.68888 0.04701 0.0
H128 H 0.35229 0.63608 0.0381 0.0
H129 H 0.27836 0.65187 0.00335 0.0
H130 H 0.35465 0.76507 0.87452 0.0
H131 H 0.44667 0.68397 0.87517 0.0
H132 H 0.45793 0.64426 -0.00068 0.0
C133 C 0.25528 0.82036 -0.00026 0.0
C134 C 0.21521 0.86959 0.97614 0.0
C135 C 0.21887 0.87849 0.93603 0.0
C136 C 0.26239 0.83908 0.91977 0.0
C137 C 0.30231 0.79181 0.94423 0.0
C138 C 0.29897 0.7827 0.98341 0.0
C139 C 0.35004 0.73257 0.00426 0.0
C140 C 0.40116 0.76264 0.03291 0.0
C141 C 0.31444 0.67387 0.02433 0.0
C142 C 0.38336 0.71469 0.9708 0.0
C143 C 0.35496 0.74859 0.93627 0.0
C144 C 0.37744 0.7388 0.90146 0.0
C145 C 0.42993 0.69309 0.9021 0.0
C146 C 0.46027 0.6591 0.93741 0.0
C147 C 0.43627 0.67012 0.97199 0.0
H148 H 0.79345 0.87941 -0.0012 0.0
H149 H 0.97389 0.84353 0.08099 0.0
H150 H 0.92304 0.74265 0.11017 0.0
H151 H 0.67163 0.81838 0.06405 0.0
H152 H 0.61862 0.78382 0.02714 0.0
H153 H 0.66824 0.85458 0.01454 0.0
H154 H 0.72321 0.79364 0.96612 0.0
H155 H 0.67466 0.72234 0.97915 0.0
H156 H 0.7658 0.71672 0.9828 0.0
H157 H 0.85542 0.64159 0.12701 0.0
H158 H 0.7716 0.55423 0.13503 0.0
H159 H 0.6347 0.65883 0.04257 0.0
C160 C 0.8221 0.85088 0.02327 0.0
C161 C 0.88768 0.86947 0.03768 0.0
C162 C 0.92334 0.8307 0.06972 0.0
C163 C 0.89507 0.77304 0.08626 0.0
C164 C 0.8311 0.75526 0.07053 0.0
C165 C 0.79468 0.79357 0.04009 0.0
C166 C 0.72716 0.76362 0.02826 0.0
C167 C 0.66792 0.80772 0.03385 0.0
C168 C 0.72248 0.74817 0.98661 0.0
C169 C 0.73137 0.70207 0.05664 0.0
C170 C 0.79183 0.6979 0.08061 0.0
C171 C 0.80758 0.64479 0.10873 0.0
C172 C 0.75955 0.5955 0.11309 0.0
C173 C 0.69623 0.59986 0.08966 0.0
C174 C 0.68273 0.65358 0.06071 0.0
H175 H 0.86878 0.20005 0.01318 0.0
H176 H 0.03649 0.24303 0.94624 0.0
H177 H 0.99353 0.35621 0.92778 0.0
H178 H 0.74916 0.27058 0.95031 0.0
H179 H 0.69852 0.30338 0.98261 0.0
H180 H 0.75224 0.23386 -0.00026 0.0
H181 H 0.81277 0.29399 0.05353 0.0
H182 H 0.75827 0.36388 0.03687 0.0
H183 H 0.84908 0.37268 0.04126 0.0
H184 H 0.91575 0.45102 0.90249 0.0
H185 H 0.81595 0.52193 0.87737 0.0
H186 H 0.7009 0.41994 0.9629 0.0
C187 C 0.89821 0.23448 0.99626 0.0
C188 C 0.95619 0.2136 0.98145 0.0
C189 C 0.99275 0.25881 0.95848 0.0
C190 C 0.96848 0.32305 0.9478 0.0
C191 C 0.90849 0.34121 0.96104 0.0
C192 C 0.87484 0.29854 0.9857 0.0
C193 C 0.80686 0.32612 0.99165 0.0
C194 C 0.74833 0.28081 0.98037 0.0
C195 C 0.80677 0.34001 0.03331 0.0
C196 C 0.80479 0.38865 0.96412 0.0
C197 C 0.86438 0.39729 0.94724 0.0
C198 C 0.87009 0.44623 0.91661 0.0
C199 C 0.81331 0.4862 0.90246 0.0
C200 C 0.75199 0.47716 0.9191 0.0
C201 C 0.74836 0.42914 0.9509 0.0
H202 H 0.72098 0.68255 0.5764 0.0
H203 H 0.63274 0.72501 0.45782 0.0
H204 H 0.693 0.83014 0.452 0.0
H205 H 0.72646 0.85281 0.59975 0.0
H206 H 0.80687 0.838 0.62902 0.0
H207 H 0.74724 0.77287 0.62521 0.0
H208 H 0.83963 0.70323 0.60298 0.0
H209 H 0.89911 0.76834 0.60605 0.0
H210 H 0.88059 0.73482 0.56153 0.0
H211 H 0.77605 0.92324 0.4573 0.0
H212 H 0.86963 0.99764 0.47382 0.0
H213 H 0.90453 0.89131 0.58864 0.0
C214 C 0.71266 0.71505 0.54958 0.0
C215 C 0.67064 0.69693 0.51781 0.0
C216 C 0.66222 0.7396 0.48288 0.0
C217 C 0.69707 0.79887 0.47927 0.0
C218 C 0.73986 0.81441 0.51094 0.0
C219 C 0.74702 0.77388 0.54559 0.0
C220 C 0.80023 0.79828 0.57433 0.0
C221 C 0.76827 0.8166 0.60913 0.0
C222 C 0.8583 0.74819 0.58693 0.0
C223 C 0.82373 0.85784 0.55016 0.0
C224 C 0.78804 0.86686 0.51379 0.0
C225 C 0.80365 0.91697 0.48584 0.0
C226 C 0.85702 0.9587 0.49536 0.0
C227 C 0.89437 0.94955 0.53238 0.0
C228 C 0.87675 0.89905 0.56013 0.0
H229 H 0.69295 0.30155 0.50872 0.0
H230 H 0.71141 0.45105 0.41277 0.0
H231 H 0.79184 0.3802 0.38775 0.0
H232 H 0.85826 0.26367 0.52828 0.0
H233 H 0.84969 0.17739 0.54176 0.0
H234 H 0.78217 0.23191 0.5468 0.0
H235 H 0.69754 0.16899 0.50424 0.0
H236 H 0.76472 0.11326 0.49959 0.0
H237 H 0.71671 0.15566 0.45721 0.0
H238 H 0.88428 0.29955 0.3799 0.0
H239 H 0.9763 0.21716 0.38853 0.0
H240 H 0.89886 0.12394 0.49179 0.0
C241 C 0.71174 0.31807 0.48152 0.0
C242 C 0.69514 0.38079 0.46205 0.0
C243 C 0.72224 0.40225 0.42735 0.0
C244 C 0.76814 0.36244 0.41316 0.0
C245 C 0.78587 0.30161 0.43411 0.0
C246 C 0.7575 0.27924 0.46729 0.0
C247 C 0.79027 0.21607 0.48723 0.0
C248 C 0.82197 0.22274 0.52843 0.0
C249 C 0.73927 0.16019 0.48704 0.0
C250 C 0.84398 0.20781 0.46126 0.0
C251 C 0.84003 0.25669 0.43034 0.0
C252 C 0.88719 0.26074 0.40378 0.0
C253 C 0.93971 0.21394 0.40915 0.0
C254 C 0.94547 0.16462 0.44138 0.0
C255 C 0.89602 0.16117 0.46711 0.0
H256 H 0.28207 0.38468 0.50266 0.0
H257 H 0.47762 0.3418 0.56986 0.0
H258 H 0.43542 0.23541 0.5968 0.0
H259 H 0.17827 0.30654 0.57297 0.0
H260 H 0.11869 0.27654 0.53713 0.0
H261 H 0.16378 0.35047 0.5251 0.0
H262 H 0.20747 0.3016 0.46846 0.0
H263 H 0.16357 0.22703 0.48087 0.0
H264 H 0.25352 0.22528 0.47783 0.0
H265 H 0.37337 0.13154 0.61388 0.0
H266 H 0.29264 0.04205 0.62482 0.0
H267 H 0.13822 0.15245 0.54556 0.0
C268 C 0.31582 0.35337 0.52348 0.0
C269 C 0.38291 0.3722 0.53476 0.0
C270 C 0.42554 0.3294 0.56171 0.0
C271 C 0.40227 0.26841 0.57671 0.0
C272 C 0.3364 0.25086 0.56424 0.0
C273 C 0.29356 0.29233 0.5385 0.0
C274 C 0.22524 0.26164 0.52947 0.0
C275 C 0.16813 0.30114 0.54193 0.0
C276 C 0.21169 0.25342 0.48662 0.0
C277 C 0.2362 0.19645 0.55432 0.0
C278 C 0.30081 0.19101 0.5739 0.0
C279 C 0.32257 0.13541 0.59885 0.0
C280 C 0.2764 0.08489 0.60485 0.0
C281 C 0.20914 0.09041 0.58613 0.0
C282 C 0.18949 0.14644 0.5599 0.0
H283 H 0.37199 0.71814 0.51817 0.0
H284 H 0.51954 0.74668 0.43679 0.0
H285 H 0.47808 0.85945 0.41665 0.0
H286 H 0.24297 0.78394 0.46026 0.0
H287 H 0.20129 0.82333 0.49386 0.0
H288 H 0.25562 0.75417 0.51095 0.0
H289 H 0.32824 0.82077 0.55721 0.0
H290 H 0.2732 0.89034 0.5407 0.0
H291 H 0.36326 0.89717 0.5386 0.0
H292 H 0.40133 0.95455 0.39313 0.0
H293 H 0.30151 0.02687 0.37168 0.0
H294 H 0.20295 0.93869 0.46851 0.0
C295 C 0.39801 0.74969 0.49776 0.0
C296 C 0.45076 0.72485 0.48007 0.0
C297 C 0.48177 0.76596 0.45214 0.0
C298 C 0.45771 0.82989 0.44019 0.0
C299 C 0.403 0.85197 0.45674 0.0
C300 C 0.37446 0.81348 0.48565 0.0
C301 C 0.3099 0.84424 0.49459 0.0
C302 C 0.24892 0.79872 0.48957 0.0
C303 C 0.31923 0.86433 0.53519 0.0
C304 C 0.30355 0.90335 0.46421 0.0
C305 C 0.35847 0.90777 0.44317 0.0
C306 C 0.35935 0.95295 0.41023 0.0
C307 C 0.3024 0.99361 0.39812 0.0
C308 C 0.24541 0.98891 0.41892 0.0
C309 C 0.24696 0.94455 0.45293 0.0
H310 H 0.08714 0.88452 0.15968 0.0
H311 H 0.94782 0.03769 0.10456 0.0
H312 H 0.92307 0.06179 0.16816 0.0
H313 H 0.98821 0.83941 0.25017 0.0
H314 H 0.06804 0.82259 0.27975 0.0
H315 H 0.0578 0.80461 0.23086 0.0
H316 H 0.163 0.87414 0.21771 0.0
H317 H 0.17233 0.8946 0.26575 0.0
H318 H 0.16359 0.95838 0.22546 0.0
H319 H 0.94629 0.09323 0.23387 0.0
H320 H 0.99468 0.11468 0.29781 0.0
H321 H 0.10582 0.9307 0.31369 0.0
C322 C 0.04798 0.92001 0.16121 0.0
C323 C 0.01876 0.95888 0.12759 0.0
C324 C 0.96943 0.00654 0.13013 0.0
C325 C 0.95555 0.02085 0.16619 0.0
C326 C 0.98961 0.98526 0.19912 0.0
C327 C 0.03243 0.93361 0.197 0.0
C328 C 0.06878 0.90808 0.23622 0.0
C329 C 0.04421 0.83962 0.25008 0.0
C330 C 0.14646 0.90894 0.23623 0.0
C331 C 0.04517 0.95748 0.25988 0.0
C332 C 0.99909 1.00121 0.23813 0.0
C333 C 0.97954 0.0574 0.25184 0.0
C334 C 1.00755 0.06909 0.28858 0.0
C335 C 0.0542 0.02431 0.31182 0.0
C336 C 0.07122 0.96686 0.2972 0.0
H337 H 0.06523 0.06973 0.85573 0.0
H338 H 0.05826 0.86445 0.89795 0.0
H339 H 0.07923 0.83773 0.83368 0.0
H340 H 0.97807 0.06369 0.76585 0.0
H341 H 0.02787 0.12403 0.74045 0.0
H342 H 0.01989 0.12612 0.79047 0.0
H343 H 0.15072 0.12171 0.80647 0.0
H344 H 0.15924 0.1207 0.75632 0.0
H345 H 0.1985 0.05739 0.79186 0.0
H346 H 0.08706 0.83572 0.76179 0.0
H347 H 0.09383 0.8582 0.6914 0.0
H348 H 0.09847 0.06497 0.69891 0.0
C349 C 0.06998 0.01917 0.8516 0.0
C350 C 0.06125 0.96897 0.88148 0.0
C351 C 0.06614 0.90332 0.87526 0.0
C352 C 0.07765 0.88789 0.83892 0.0
C353 C 0.08443 0.93887 0.80955 0.0
C354 C 0.082 1.00319 0.81586 0.0
C355 C 0.08813 0.0493 0.77962 0.0
C356 C 0.02471 0.09334 0.76846 0.0
C357 C 0.15302 0.08963 0.78382 0.0
C358 C 0.09273 1.00116 0.75152 0.0
C359 C 0.09039 0.93764 0.76906 0.0
C360 C 0.0901 0.88525 0.74796 0.0
C361 C 0.09344 0.89835 0.70809 0.0
C362 C 0.09752 0.96316 0.69009 0.0
C363 C 0.09674 0.01488 0.71217 0.0
H364 H 0.49498 0.54716 0.62451 0.0
H365 H 0.54678 0.34318 0.63364 0.0
H366 H 0.53569 0.33014 0.70307 0.0
H367 H 0.59917 0.57514 0.69718 0.0
H368 H 0.55059 0.63392 0.7163 0.0
H369 H 0.53407 0.62376 0.66651 0.0
H370 H 0.408 0.59952 0.67385 0.0
H371 H 0.42344 0.61135 0.72378 0.0
H372 H 0.38638 0.53682 0.71075 0.0
H373 H 0.55109 0.34495 0.7715 0.0
H374 H 0.5886 0.38516 0.83302 0.0
H375 H 0.53577 0.58222 0.78068 0.0
C376 C 0.49884 0.49899 0.64084 0.0
C377 C 0.5186 0.4455 0.62379 0.0
C378 C 0.52856 0.38387 0.64607 0.0
C379 C 0.52281 0.37629 0.68559 0.0
C380 C 0.50807 0.43112 0.70233 0.0
C381 C 0.49527 0.49136 0.68052 0.0
C382 C 0.49533 0.5449 0.70589 0.0
C383 C 0.54793 0.59742 0.69587 0.0
C384 C 0.42403 0.5749 0.70342 0.0
C385 C 0.51542 0.50625 0.745 0.0
C386 C 0.52031 0.44049 0.74247 0.0
C387 C 0.54574 0.39607 0.77398 0.0
C388 C 0.56775 0.41946 0.80869 0.0
C389 C 0.56519 0.48685 0.81154 0.0
C390 C 0.53692 0.53035 0.77953 0.0
H391 H 0.47583 0.56649 0.34083 0.0
H392 H 0.58551 0.39363 0.39799 0.0
H393 H 0.61108 0.36656 0.33474 0.0
H394 H 0.39896 0.4955 0.25917 0.0
H395 H 0.40562 0.56869 0.22611 0.0
H396 H 0.39707 0.57386 0.27584 0.0
H397 H 0.50731 0.641 0.28169 0.0
H398 H 0.51571 0.63671 0.23191 0.0
H399 H 0.58425 0.60889 0.26842 0.0
H400 H 0.62548 0.36091 0.26411 0.0
H401 H 0.63132 0.37969 0.19354 0.0
H402 H 0.50778 0.55381 0.18444 0.0
C403 C 0.50519 0.52281 0.34011 0.0
C404 C 0.53004 0.4827 0.37427 0.0
C405 C 0.5681 0.42602 0.37215 0.0
C406 C 0.58187 0.40987 0.33635 0.0
C407 C 0.55636 0.45066 0.30313 0.0
C408 C 0.51887 0.506 0.30486 0.0
C409 C 0.49792 0.54269 0.26541 0.0
C410 C 0.42029 0.5453 0.2561 0.0
C411 C 0.52813 0.61136 0.26165 0.0
C412 C 0.52989 0.49979 0.24095 0.0
C413 C 0.56317 0.44666 0.26304 0.0
C414 C 0.59891 0.40187 0.24656 0.0
C415 C 0.60168 0.41255 0.20663 0.0
C416 C 0.5687 0.46727 0.18402 0.0
C417 C 0.53187 0.51081 0.20129 0.0
loop_
_geom_bond_atom_site_label_1
_geom_bond_atom_site_label_2
_geom_bond_distance
_geom_bond_site_symmetry_2
_ccdc_geom_bond_type
Zn0 O6 1.920 1_545 S
Zn0 O12 1.898 . S
Zn0 O15 1.905 1_545 S
Zn1 O9 1.897 1_565 S
Zn1 O10 1.905 . S
Zn1 O18 1.922 . S
Zn2 O5 2.080 1_445 S
Zn2 O8 2.114 1_554 S
Zn2 O11 2.120 1_545 S
Zn2 O13 2.120 1_455 S
Zn2 O14 2.114 1_554 S
Zn2 O17 2.080 . S
C3 O8 1.166 1_554 S
C3 O9 1.182 . S
C4 O10 1.167 . S
C4 O11 1.299 . S
O5 Zn2 2.080 1_665 S
O5 C19 1.305 . S
O6 Zn0 1.920 1_565 S
O6 C19 1.234 1_556 S
C7 O12 1.167 . S
C7 O13 1.299 1_556 S
O8 Zn2 2.114 1_556 S
O8 C3 1.166 1_556 S
O9 Zn1 1.897 1_545 S
O9 C3 1.182 . S
O10 Zn1 1.905 . S
O10 C4 1.167 . S
O11 Zn2 2.120 1_565 S
O11 C4 1.299 . S
O12 Zn0 1.898 . S
O12 C7 1.167 . S
O13 Zn2 2.120 1_655 S
O13 C7 1.299 1_554 S
O14 Zn2 2.114 1_556 S
O14 C16 1.166 1_545 S
O15 Zn0 1.905 1_565 S
O15 C16 1.182 1_655 S
C16 O14 1.166 1_565 S
C16 O15 1.182 1_455 S
O17 Zn2 2.080 . S
O17 C20 1.305 1_545 S
O18 Zn1 1.922 . S
O18 C20 1.234 . S
C19 O5 1.305 . S
C19 O6 1.234 1_554 S
C20 O17 1.305 1_565 S
C20 O18 1.234 . S
Zn21 O27 1.920 . S
Zn21 O33 1.898 . S
Zn21 O36 1.905 . S
Zn22 O30 1.905 . S
Zn22 O31 1.898 . S
Zn22 O39 1.920 . S
Zn23 O26 2.080 . S
Zn23 O29 2.114 . S
Zn23 O32 2.120 . S
Zn23 O34 2.120 . S
Zn23 O35 2.114 . S
Zn23 O38 2.080 . S
C24 O29 1.166 . S
C24 O30 1.182 . S
C25 O31 1.167 . S
C25 O32 1.299 . S
O26 Zn23 2.080 . S
O26 C40 1.305 . S
O27 Zn21 1.920 . S
O27 C40 1.234 . S
C28 O33 1.167 . S
C28 O34 1.299 . S
O29 Zn23 2.114 . S
O29 C24 1.166 . S
O30 Zn22 1.905 . S
O30 C24 1.182 . S
O31 Zn22 1.898 . S
O31 C25 1.167 . S
O32 Zn23 2.120 . S
O32 C25 1.299 . S
O33 Zn21 1.898 . S
O33 C28 1.167 . S
O34 Zn23 2.120 . S
O34 C28 1.299 . S
O35 Zn23 2.114 . S
O35 C37 1.166 . S
O36 Zn21 1.905 . S
O36 C37 1.182 . S
C37 O35 1.166 . S
C37 O36 1.182 . S
O38 Zn23 2.080 . S
O38 C41 1.305 . S
O39 Zn22 1.920 . S
O39 C41 1.234 . S
C40 O26 1.305 . S
C40 O27 1.234 . S
C41 O38 1.305 . S
C41 O39 1.234 . S
H42 C49 0.929 . S
H43 C52 0.930 . S
H44 C54 0.929 . S
H45 C46 0.969 . S
C46 H45 0.969 . S
C46 O47 1.550 1_655 S
C46 H48 0.973 . S
O47 C46 1.550 1_455 S
O47 C53 1.412 . S
H48 C46 0.973 . S
C49 H42 0.929 . S
C49 C50 1.400 . S
C49 C51 1.364 1_565 S
C50 C49 1.400 . S
C50 C54 1.377 . S
C51 C49 1.364 1_545 S
C51 C52 1.374 . S
C52 H43 0.930 . S
C52 C51 1.374 . S
C52 C53 1.383 . S
C53 O47 1.412 . S
C53 C52 1.383 . S
C53 C54 1.394 1_545 S
C54 H44 0.929 . S
C54 C50 1.377 . S
C54 C53 1.394 1_565 S
H55 C62 0.929 . S
H56 C65 0.930 1_565 S
H57 C67 0.929 . S
H58 C59 0.969 . S
C59 H58 0.969 . S
C59 O60 1.550 . S
C59 H61 0.973 . S
O60 C59 1.550 . S
O60 C66 1.412 1_565 S
H61 C59 0.973 . S
C62 H55 0.929 . S
C62 C63 1.400 . S
C62 C64 1.364 . S
C63 C62 1.400 . S
C63 C67 1.377 . S
C64 C62 1.364 . S
C64 C65 1.374 1_455 S
C65 H56 0.930 1_545 S
C65 C64 1.374 1_655 S
C65 C66 1.383 . S
C66 O60 1.412 1_545 S
C66 C65 1.383 . S
C66 C67 1.394 1_655 S
C67 H57 0.929 . S
C67 C63 1.377 . S
C67 C66 1.394 1_455 S
H68 C75 0.929 . S
H69 C78 0.930 . S
H70 C80 0.929 . S
H71 C72 0.969 . S
C72 H71 0.969 . S
C72 O73 1.550 . S
C72 H74 0.973 . S
O73 C72 1.550 . S
O73 C79 1.412 . S
H74 C72 0.973 . S
C75 H68 0.929 . S
C75 C76 1.400 . S
C75 C77 1.364 . S
C76 C75 1.400 . S
C76 C80 1.377 . S
C77 C75 1.364 . S
C77 C78 1.374 . S
C78 H69 0.930 . S
C78 C77 1.374 . S
C78 C79 1.383 . S
C79 O73 1.412 . S
C79 C78 1.383 . S
C79 C80 1.394 . S
C80 H70 0.929 . S
C80 C76 1.377 . S
C80 C79 1.394 . S
H81 C88 0.929 . S
H82 C91 0.930 . S
H83 C93 0.929 . S
H84 C85 0.969 . S
C85 H84 0.969 . S
C85 O86 1.550 . S
C85 H87 0.973 . S
O86 C85 1.550 . S
O86 C92 1.412 . S
H87 C85 0.973 . S
C88 H81 0.929 . S
C88 C89 1.400 . S
C88 C90 1.364 . S
C89 C88 1.400 . S
C89 C93 1.377 . S
C90 C88 1.364 . S
C90 C91 1.374 . S
C91 H82 0.930 . S
C91 C90 1.374 . S
C91 C92 1.383 . S
C92 O86 1.412 . S
C92 C91 1.383 . S
C92 C93 1.394 . S
C93 H83 0.929 . S
C93 C89 1.377 . S
C93 C92 1.394 . S
H94 C106 0.930 . S
H95 C108 0.930 . S
H96 C109 0.930 . S
H97 C113 0.959 . S
H98 C113 0.959 . S
H99 C113 0.961 . S
H100 C114 0.960 . S
H101 C114 0.961 . S
H102 C114 0.959 . S
H103 C117 0.929 . S
H104 C118 0.931 . S
H105 C120 0.930 1_556 S
C106 H94 0.930 . S
C106 C107 1.399 1_556 S
C106 C111 1.399 1_556 S
C107 C106 1.399 1_554 S
C107 C108 1.376 . S
C108 H95 0.930 . S
C108 C107 1.376 . S
C108 C109 1.388 . S
C109 H96 0.930 . S
C109 C108 1.388 . S
C109 C110 1.390 . S
C110 C109 1.390 . S
C110 C111 1.394 . S
C110 C116 1.465 . S
C111 C106 1.399 1_554 S
C111 C110 1.394 . S
C111 C112 1.516 1_554 S
C112 C111 1.516 1_556 S
C112 C113 1.502 . S
C112 C114 1.561 . S
C112 C115 1.526 1_556 S
C113 H97 0.959 . S
C113 H98 0.959 . S
C113 H99 0.961 . S
C113 C112 1.502 . S
C114 H100 0.960 . S
C114 H101 0.961 . S
C114 H102 0.959 . S
C114 C112 1.561 . S
C115 C112 1.526 1_554 S
C115 C116 1.396 . S
C115 C120 1.390 . S
C116 C110 1.465 . S
C116 C115 1.396 . S
C116 C117 1.399 . S
C117 H103 0.929 . S
C117 C116 1.399 . S
C117 C118 1.385 . S
C118 H104 0.931 . S
C118 C117 1.385 . S
C118 C119 1.389 . S
C119 C118 1.389 . S
C119 C120 1.387 . S
C120 H105 0.930 1_554 S
C120 C115 1.390 . S
C120 C119 1.387 . S
H121 C133 0.930 . S
H122 C135 0.930 . S
H123 C136 0.930 . S
H124 C140 0.959 . S
H125 C140 0.959 . S
H126 C140 0.961 . S
H127 C141 0.960 . S
H128 C141 0.961 . S
H129 C141 0.959 . S
H130 C144 0.929 . S
H131 C145 0.931 . S
H132 C147 0.930 1_554 S
C133 H121 0.930 . S
C133 C134 1.399 1_554 S
C133 C138 1.399 1_554 S
C134 C133 1.399 1_556 S
C134 C135 1.376 . S
C135 H122 0.930 . S
C135 C134 1.376 . S
C135 C136 1.388 . S
C136 H123 0.930 . S
C136 C135 1.388 . S
C136 C137 1.390 . S
C137 C136 1.390 . S
C137 C138 1.394 . S
C137 C143 1.465 . S
C138 C133 1.399 1_556 S
C138 C137 1.394 . S
C138 C139 1.516 1_556 S
C139 C138 1.516 1_554 S
C139 C140 1.502 . S
C139 C141 1.561 . S
C139 C142 1.526 1_554 S
C140 H124 0.959 . S
C140 H125 0.959 . S
C140 H126 0.961 . S
C140 C139 1.502 . S
C141 H127 0.960 . S
C141 H128 0.961 . S
C141 H129 0.959 . S
C141 C139 1.561 . S
C142 C139 1.526 1_556 S
C142 C143 1.396 . S
C142 C147 1.390 . S
C143 C137 1.465 . S
C143 C142 1.396 . S
C143 C144 1.399 . S
C144 H130 0.929 . S
C144 C143 1.399 . S
C144 C145 1.385 . S
C145 H131 0.931 . S
C145 C144 1.385 . S
C145 C146 1.389 . S
C146 C145 1.389 . S
C146 C147 1.387 . S
C147 H132 0.930 1_556 S
C147 C142 1.390 . S
C147 C146 1.387 . S
H148 C160 0.930 1_556 S
H149 C162 0.930 . S
H150 C163 0.930 . S
H151 C167 0.959 1_554 S
H152 C167 0.959 . S
H153 C167 0.961 . S
H154 C168 0.960 . S
H155 C168 0.961 . S
H156 C168 0.959 . S
H157 C171 0.929 . S
H158 C172 0.931 . S
H159 C174 0.930 . S
C160 H148 0.930 1_554 S
C160 C161 1.399 . S
C160 C165 1.399 . S
C161 C160 1.399 . S
C161 C162 1.376 . S
C162 H149 0.930 . S
C162 C161 1.376 . S
C162 C163 1.388 . S
C163 H150 0.930 . S
C163 C162 1.388 . S
C163 C164 1.390 . S
C164 C163 1.390 . S
C164 C165 1.394 . S
C164 C170 1.465 . S
C165 C160 1.399 . S
C165 C164 1.394 . S
C165 C166 1.516 . S
C166 C165 1.516 . S
C166 C167 1.502 1_554 S
C166 C168 1.561 1_554 S
C166 C169 1.526 . S
C167 H151 0.959 1_556 S
C167 H152 0.959 . S
C167 H153 0.961 . S
C167 C166 1.502 1_556 S
C168 H154 0.960 . S
C168 H155 0.961 . S
C168 H156 0.959 . S
C168 C166 1.561 1_556 S
C169 C166 1.526 . S
C169 C170 1.396 . S
C169 C174 1.390 . S
C170 C164 1.465 . S
C170 C169 1.396 . S
C170 C171 1.399 . S
C171 H157 0.929 . S
C171 C170 1.399 . S
C171 C172 1.385 . S
C172 H158 0.931 . S
C172 C171 1.385 . S
C172 C173 1.389 . S
C173 C172 1.389 . S
C173 C174 1.387 . S
C174 H159 0.930 . S
C174 C169 1.390 . S
C174 C173 1.387 . S
H175 C187 0.929 . S
H176 C189 0.930 . S
H177 C190 0.930 . S
H178 C194 0.959 . S
H179 C194 0.959 . S
H180 C194 0.961 . S
H181 C195 0.960 . S
H182 C195 0.961 . S
H183 C195 0.959 . S
H184 C198 0.929 . S
H185 C199 0.931 . S
H186 C201 0.930 . S
C187 H175 0.929 . S
C187 C188 1.399 1_554 S
C187 C192 1.399 1_554 S
C188 C187 1.399 1_556 S
C188 C189 1.376 . S
C189 H176 0.930 . S
C189 C188 1.376 . S
C189 C190 1.388 . S
C190 H177 0.930 . S
C190 C189 1.388 . S
C190 C191 1.390 . S
C191 C190 1.390 . S
C191 C192 1.394 . S
C191 C197 1.465 . S
C192 C187 1.399 1_556 S
C192 C191 1.394 . S
C192 C193 1.516 1_556 S
C193 C192 1.516 1_554 S
C193 C194 1.502 . S
C193 C195 1.561 . S
C193 C196 1.526 1_554 S
C194 H178 0.959 . S
C194 H179 0.959 . S
C194 H180 0.961 . S
C194 C193 1.502 . S
C195 H181 0.960 . S
C195 H182 0.961 . S
C195 H183 0.959 . S
C195 C193 1.561 . S
C196 C193 1.526 1_556 S
C196 C197 1.396 . S
C196 C201 1.390 . S
C197 C191 1.465 . S
C197 C196 1.396 . S
C197 C198 1.399 . S
C198 H184 0.929 . S
C198 C197 1.399 . S
C198 C199 1.385 . S
C199 H185 0.931 . S
C199 C198 1.385 . S
C199 C200 1.389 . S
C200 C199 1.389 . S
C200 C201 1.387 . S
C201 H186 0.930 . S
C201 C196 1.390 . S
C201 C200 1.387 . S
H202 C214 0.930 . S
H203 C216 0.930 . S
H204 C217 0.930 . S
H205 C221 0.959 . S
H206 C221 0.959 . S
H207 C221 0.961 . S
H208 C222 0.960 . S
H209 C222 0.961 . S
H210 C222 0.959 . S
H211 C225 0.929 . S
H212 C226 0.931 . S
H213 C228 0.930 . S
C214 H202 0.930 . S
C214 C215 1.399 . S
C214 C219 1.399 . S
C215 C214 1.399 . S
C215 C216 1.376 . S
C216 H203 0.930 . S
C216 C215 1.376 . S
C216 C217 1.388 . S
C217 H204 0.930 . S
C217 C216 1.388 . S
C217 C218 1.390 . S
C218 C217 1.390 . S
C218 C219 1.394 . S
C218 C224 1.465 . S
C219 C214 1.399 . S
C219 C218 1.394 . S
C219 C220 1.516 . S
C220 C219 1.516 . S
C220 C221 1.502 . S
C220 C222 1.561 . S
C220 C223 1.526 . S
C221 H205 0.959 . S
C221 H206 0.959 . S
C221 H207 0.961 . S
C221 C220 1.502 . S
C222 H208 0.960 . S
C222 H209 0.961 . S
C222 H210 0.959 . S
C222 C220 1.561 . S
C223 C220 1.526 . S
C223 C224 1.396 . S
C223 C228 1.390 . S
C224 C218 1.465 . S
C224 C223 1.396 . S
C224 C225 1.399 . S
C225 H211 0.929 . S
C225 C224 1.399 . S
C225 C226 1.385 . S
C226 H212 0.931 . S
C226 C225 1.385 . S
C226 C227 1.389 . S
C227 C226 1.389 . S
C227 C228 1.387 . S
C228 H213 0.930 . S
C228 C223 1.390 . S
C228 C227 1.387 . S
H229 C241 0.930 . S
H230 C243 0.930 . S
H231 C244 0.930 . S
H232 C248 0.959 . S
H233 C248 0.959 . S
H234 C248 0.961 . S
H235 C249 0.960 . S
H236 C249 0.961 . S
H237 C249 0.959 . S
H238 C252 0.929 . S
H239 C253 0.931 1_455 S
H240 C255 0.930 . S
C241 H229 0.930 . S
C241 C242 1.399 . S
C241 C246 1.399 . S
C242 C241 1.399 . S
C242 C243 1.376 . S
C243 H230 0.930 . S
C243 C242 1.376 . S
C243 C244 1.388 . S
C244 H231 0.930 . S
C244 C243 1.388 . S
C244 C245 1.390 . S
C245 C244 1.390 . S
C245 C246 1.394 . S
C245 C251 1.465 . S
C246 C241 1.399 . S
C246 C245 1.394 . S
C246 C247 1.516 . S
C247 C246 1.516 . S
C247 C248 1.502 . S
C247 C249 1.561 . S
C247 C250 1.526 . S
C248 H232 0.959 . S
C248 H233 0.959 . S
C248 H234 0.961 . S
C248 C247 1.502 . S
C249 H235 0.960 . S
C249 H236 0.961 . S
C249 H237 0.959 . S
C249 C247 1.561 . S
C250 C247 1.526 . S
C250 C251 1.396 . S
C250 C255 1.390 . S
C251 C245 1.465 . S
C251 C250 1.396 . S
C251 C252 1.399 . S
C252 H238 0.929 . S
C252 C251 1.399 . S
C252 C253 1.385 . S
C253 H239 0.931 1_655 S
C253 C252 1.385 . S
C253 C254 1.389 . S
C254 C253 1.389 . S
C254 C255 1.387 . S
C255 H240 0.930 . S
C255 C250 1.390 . S
C255 C254 1.387 . S
H256 C268 0.930 . S
H257 C270 0.930 . S
H258 C271 0.930 . S
H259 C275 0.959 . S
H260 C275 0.959 . S
H261 C275 0.961 . S
H262 C276 0.960 . S
H263 C276 0.961 . S
H264 C276 0.959 . S
H265 C279 0.929 . S
H266 C280 0.931 . S
H267 C282 0.930 . S
C268 H256 0.930 . S
C268 C269 1.399 . S
C268 C273 1.399 . S
C269 C268 1.399 . S
C269 C270 1.376 . S
C270 H257 0.930 . S
C270 C269 1.376 . S
C270 C271 1.388 . S
C271 H258 0.930 . S
C271 C270 1.388 . S
C271 C272 1.390 . S
C272 C271 1.390 . S
C272 C273 1.394 . S
C272 C278 1.465 . S
C273 C268 1.399 . S
C273 C272 1.394 . S
C273 C274 1.516 . S
C274 C273 1.516 . S
C274 C275 1.502 . S
C274 C276 1.561 . S
C274 C277 1.526 . S
C275 H259 0.959 . S
C275 H260 0.959 . S
C275 H261 0.961 . S
C275 C274 1.502 . S
C276 H262 0.960 . S
C276 H263 0.961 . S
C276 H264 0.959 . S
C276 C274 1.561 . S
C277 C274 1.526 . S
C277 C278 1.396 . S
C277 C282 1.390 . S
C278 C272 1.465 . S
C278 C277 1.396 . S
C278 C279 1.399 . S
C279 H265 0.929 . S
C279 C278 1.399 . S
C279 C280 1.385 . S
C280 H266 0.931 . S
C280 C279 1.385 . S
C280 C281 1.389 . S
C281 C280 1.389 . S
C281 C282 1.387 . S
C282 H267 0.930 . S
C282 C277 1.390 . S
C282 C281 1.387 . S
H283 C295 0.930 . S
H284 C297 0.930 . S
H285 C298 0.930 . S
H286 C302 0.959 . S
H287 C302 0.959 . S
H288 C302 0.961 . S
H289 C303 0.960 . S
H290 C303 0.961 . S
H291 C303 0.959 . S
H292 C306 0.929 . S
H293 C307 0.931 . S
H294 C309 0.930 . S
C295 H283 0.930 . S
C295 C296 1.399 . S
C295 C300 1.399 . S
C296 C295 1.399 . S
C296 C297 1.376 . S
C297 H284 0.930 . S
C297 C296 1.376 . S
C297 C298 1.388 . S
C298 H285 0.930 . S
C298 C297 1.388 . S
C298 C299 1.390 . S
C299 C298 1.390 . S
C299 C300 1.394 . S
C299 C305 1.465 . S
C300 C295 1.399 . S
C300 C299 1.394 . S
C300 C301 1.516 . S
C301 C300 1.516 . S
C301 C302 1.502 . S
C301 C303 1.561 . S
C301 C304 1.526 . S
C302 H286 0.959 . S
C302 H287 0.959 . S
C302 H288 0.961 . S
C302 C301 1.502 . S
C303 H289 0.960 . S
C303 H290 0.961 . S
C303 H291 0.959 . S
C303 C301 1.561 . S
C304 C301 1.526 . S
C304 C305 1.396 . S
C304 C309 1.390 . S
C305 C299 1.465 . S
C305 C304 1.396 . S
C305 C306 1.399 . S
C306 H292 0.929 . S
C306 C305 1.399 . S
C306 C307 1.385 . S
C307 H293 0.931 . S
C307 C306 1.385 . S
C307 C308 1.389 . S
C308 C307 1.389 . S
C308 C309 1.387 . S
C309 H294 0.930 . S
C309 C304 1.390 . S
C309 C308 1.387 . S
H310 C322 0.930 . S
H311 C324 0.930 . S
H312 C325 0.930 . S
H313 C329 0.959 . S
H314 C329 0.959 . S
H315 C329 0.961 . S
H316 C330 0.960 . S
H317 C330 0.961 . S
H318 C330 0.959 . S
H319 C333 0.929 . S
H320 C334 0.931 . S
H321 C336 0.930 . S
C322 H310 0.930 . S
C322 C323 1.399 . S
C322 C327 1.399 . S
C323 C322 1.399 . S
C323 C324 1.376 1_565 S
C324 H311 0.930 . S
C324 C323 1.376 1_545 S
C324 C325 1.388 . S
C325 H312 0.930 . S
C325 C324 1.388 . S
C325 C326 1.390 . S
C326 C325 1.390 . S
C326 C327 1.394 1_545 S
C326 C332 1.465 . S
C327 C322 1.399 . S
C327 C326 1.394 1_565 S
C327 C328 1.516 . S
C328 C327 1.516 . S
C328 C329 1.502 1_455 S
C328 C330 1.561 . S
C328 C331 1.526 . S
C329 H313 0.959 . S
C329 H314 0.959 . S
C329 H315 0.961 . S
C329 C328 1.502 1_655 S
C330 H316 0.960 . S
C330 H317 0.961 . S
C330 H318 0.959 . S
C330 C328 1.561 . S
C331 C328 1.526 . S
C331 C332 1.396 1_565 S
C331 C336 1.390 . S
C332 C326 1.465 . S
C332 C331 1.396 1_545 S
C332 C333 1.399 . S
C333 H319 0.929 . S
C333 C332 1.399 . S
C333 C334 1.385 . S
C334 H320 0.931 . S
C334 C333 1.385 . S
C334 C335 1.389 . S
C335 C334 1.389 . S
C335 C336 1.387 1_545 S
C336 H321 0.930 . S
C336 C331 1.390 . S
C336 C335 1.387 1_565 S
H337 C349 0.930 . S
H338 C351 0.930 . S
H339 C352 0.930 . S
H340 C356 0.959 . S
H341 C356 0.959 . S
H342 C356 0.961 . S
H343 C357 0.960 . S
H344 C357 0.961 . S
H345 C357 0.959 . S
H346 C360 0.929 . S
H347 C361 0.931 . S
H348 C363 0.930 1_655 S
C349 H337 0.930 . S
C349 C350 1.399 1_545 S
C349 C354 1.399 . S
C350 C349 1.399 1_565 S
C350 C351 1.376 . S
C351 H338 0.930 . S
C351 C350 1.376 . S
C351 C352 1.388 . S
C352 H339 0.930 . S
C352 C351 1.388 . S
C352 C353 1.390 . S
C353 C352 1.390 . S
C353 C354 1.394 1_565 S
C353 C359 1.465 . S
C354 C349 1.399 . S
C354 C353 1.394 1_545 S
C354 C355 1.516 . S
C355 C354 1.516 . S
C355 C356 1.502 1_455 S
C355 C357 1.561 . S
C355 C358 1.526 . S
C356 H340 0.959 . S
C356 H341 0.959 . S
C356 H342 0.961 . S
C356 C355 1.502 1_655 S
C357 H343 0.960 . S
C357 H344 0.961 . S
C357 H345 0.959 . S
C357 C355 1.561 . S
C358 C355 1.526 . S
C358 C359 1.396 1_545 S
C358 C363 1.390 . S
C359 C353 1.465 . S
C359 C358 1.396 1_565 S
C359 C360 1.399 . S
C360 H346 0.929 . S
C360 C359 1.399 . S
C360 C361 1.385 . S
C361 H347 0.931 . S
C361 C360 1.385 . S
C361 C362 1.389 1_565 S
C362 C361 1.389 1_545 S
C362 C363 1.387 . S
C363 H348 0.930 1_455 S
C363 C358 1.390 . S
C363 C362 1.387 . S
H364 C376 0.930 . S
H365 C378 0.930 . S
H366 C379 0.930 . S
H367 C383 0.959 . S
H368 C383 0.959 . S
H369 C383 0.961 . S
H370 C384 0.960 . S
H371 C384 0.961 . S
H372 C384 0.959 . S
H373 C387 0.929 . S
H374 C388 0.931 . S
H375 C390 0.930 . S
C376 H364 0.930 . S
C376 C377 1.399 . S
C376 C381 1.399 . S
C377 C376 1.399 . S
C377 C378 1.376 . S
C378 H365 0.930 . S
C378 C377 1.376 . S
C378 C379 1.388 . S
C379 H366 0.930 . S
C379 C378 1.388 . S
C379 C380 1.390 . S
C380 C379 1.390 . S
C380 C381 1.394 . S
C380 C386 1.465 . S
C381 C376 1.399 . S
C381 C380 1.394 . S
C381 C382 1.516 . S
C382 C381 1.516 . S
C382 C383 1.502 . S
C382 C384 1.561 . S
C382 C385 1.526 . S
C383 H367 0.959 . S
C383 H368 0.959 . S
C383 H369 0.961 . S
C383 C382 1.502 . S
C384 H370 0.960 . S
C384 H371 0.961 . S
C384 H372 0.959 . S
C384 C382 1.561 . S
C385 C382 1.526 . S
C385 C386 1.396 . S
C385 C390 1.390 . S
C386 C380 1.465 . S
C386 C385 1.396 . S
C386 C387 1.399 . S
C387 H373 0.929 . S
C387 C386 1.399 . S
C387 C388 1.385 . S
C388 H374 0.931 . S
C388 C387 1.385 . S
C388 C389 1.389 . S
C389 C388 1.389 . S
C389 C390 1.387 . S
C390 H375 0.930 . S
C390 C385 1.390 . S
C390 C389 1.387 . S
H391 C403 0.930 . S
H392 C405 0.930 . S
H393 C406 0.930 . S
H394 C410 0.959 . S
H395 C410 0.959 . S
H396 C410 0.961 . S
H397 C411 0.960 . S
H398 C411 0.961 . S
H399 C411 0.959 . S
H400 C414 0.929 . S
H401 C415 0.931 . S
H402 C417 0.930 . S
C403 H391 0.930 . S
C403 C404 1.399 . S
C403 C408 1.399 . S
C404 C403 1.399 . S
C404 C405 1.376 . S
C405 H392 0.930 . S
C405 C404 1.376 . S
C405 C406 1.388 . S
C406 H393 0.930 . S
C406 C405 1.388 . S
C406 C407 1.390 . S
C407 C406 1.390 . S
C407 C408 1.394 . S
C407 C413 1.465 . S
C408 C403 1.399 . S
C408 C407 1.394 . S
C408 C409 1.516 . S
C409 C408 1.516 . S
C409 C410 1.502 . S
C409 C411 1.561 . S
C409 C412 1.526 . S
C410 H394 0.959 . S
C410 H395 0.959 . S
C410 H396 0.961 . S
C410 C409 1.502 . S
C411 H397 0.960 . S
C411 H398 0.961 . S
C411 H399 0.959 . S
C411 C409 1.561 . S
C412 C409 1.526 . S
C412 C413 1.396 . S
C412 C417 1.390 . S
C413 C407 1.465 . S
C413 C412 1.396 . S
C413 C414 1.399 . S
C414 H400 0.929 . S
C414 C413 1.399 . S
C414 C415 1.385 . S
C415 H401 0.931 . S
C415 C414 1.385 . S
C415 C416 1.389 . S
C416 C415 1.389 . S
C416 C417 1.387 . S
C417 H402 0.930 . S
C417 C412 1.390 . S
C417 C416 1.387 . S
C119 C85 1.122 . S
C107 C3 1.102 . S
C134 C4 1.495 1_556 S
C146 C72 1.386 . S
C161 C19 1.586 . S
C173 C89 1.646 . S
C188 C7 1.194 . S
C200 C76 1.313 . S
C215 C37 1.139 . S
C227 C59 1.236 . S
C242 C28 1.429 . S
C254 C46 1.462 . S
C281 C63 1.645 . S
C269 C41 1.587 . S
C308 C50 1.311 . S
C296 C25 1.153 . S
C323 C20 1.271 . S
C335 C51 1.517 . S
C350 C16 1.434 . S
C362 C64 1.517 . S
C389 C77 1.486 . S
C377 C40 1.402 . S
C404 C24 1.432 . S
C416 C90 1.518 . S
