# Generated by pormake.
# Topology pth, (4,4)-cn, num edge types: 1
# Building blocks:
#     Node 0, Type 0, BuildingBlock: KUFVIS_clean_sbu_0, # of connection points: 4
#     Node 1, Type 0, BuildingBlock: KUFVIS_clean_sbu_0, # of connection points: 4
#     Node 2, Type 0, BuildingBlock: KUFVIS_clean_sbu_0, # of connection points: 4
#     Node 3, Type 1, BuildingBlock: AZAVOO_clean_linker_0, # of connection points: 4
#     Node 4, Type 1, BuildingBlock: AZAVOO_clean_linker_0, # of connection points: 4
#     Node 5, Type 1, BuildingBlock: AZAVOO_clean_linker_0, # of connection points: 4
#     Edge 6, Type (0, 1), BuildingBlock: KIFKEQ_clean_linker_1, # of connection points: 2
#     Edge 7, Type (0, 1), BuildingBlock: KIFKEQ_clean_linker_1, # of connection points: 2
#     Edge 8, Type (0, 1), BuildingBlock: KIFKEQ_clean_linker_1, # of connection points: 2
#     Edge 9, Type (0, 1), BuildingBlock: KIFKEQ_clean_linker_1, # of connection points: 2
#     Edge 10, Type (0, 1), BuildingBlock: KIFKEQ_clean_linker_1, # of connection points: 2
#     Edge 11, Type (0, 1), BuildingBlock: KIFKEQ_clean_linker_1, # of connection points: 2
#     Edge 12, Type (0, 1), BuildingBlock: KIFKEQ_clean_linker_1, # of connection points: 2
#     Edge 13, Type (0, 1), BuildingBlock: KIFKEQ_clean_linker_1, # of connection points: 2
#     Edge 14, Type (0, 1), BuildingBlock: KIFKEQ_clean_linker_1, # of connection points: 2
#     Edge 15, Type (0, 1), BuildingBlock: KIFKEQ_clean_linker_1, # of connection points: 2
#     Edge 16, Type (0, 1), BuildingBlock: KIFKEQ_clean_linker_1, # of connection points: 2
#     Edge 17, Type (0, 1), BuildingBlock: KIFKEQ_clean_linker_1, # of connection points: 2
# Relax obj value: 0.112
# Max RMSD: 0.225
# Mean RMSD: 0.161
data_MOF--net-pth--node1-KUFVIS_clean_sbu_0--node2-AZAVOO_clean_linker_0--edge1-KIFKEQ_clean_linker_1
_symmetry_space_group_name_H-M    P1
_symmetry_Int_Tables_number       1
_symmetry_cell_setting            triclinic
loop_
_symmetry_equiv_pos_as_xyz
'x, y, z'
_cell_length_a     26.412901
_cell_length_b     26.70096
_cell_length_c     72.781875
_cell_angle_alpha  92.752506
_cell_angle_beta   90.793812
_cell_angle_gamma 120.19567
loop_
_atom_site_label
_atom_site_type_symbol
_atom_site_fract_x
_atom_site_fract_y
_atom_site_fract_z
_atom_type_partial_charge
Mn0 Mn 0.08428 0.08097 0.0809 0.0
Mn1 Mn 0.02313 0.14932 0.06014 0.0
C2 C 0.0346 0.04376 0.05285 0.0
C3 C 0.0783 0.01622 0.10217 0.0
C4 C 0.15339 0.19162 0.06097 0.0
O5 O 0.08394 0.13555 0.10131 0.0
O6 O 0.03289 0.17031 0.08703 0.0
C7 C 0.90613 0.09073 0.0761 0.0
N8 N 0.93968 0.10555 0.06107 0.0
C9 C 0.85412 0.05862 0.04052 0.0
C10 C 0.81863 0.04319 0.05578 0.0
C11 C 0.84477 0.05922 0.07365 0.0
C12 C 0.91501 0.09037 0.04382 0.0
H13 H 0.92607 0.10282 0.08986 0.0
C14 C 0.0582 0.16516 0.10138 0.0
O15 O 0.12867 0.05763 0.09733 0.0
O16 O 0.03165 0.01284 0.09475 0.0
N17 N 0.0106 0.13227 0.03406 0.0
C18 C 0.05101 0.14697 0.02087 0.0
C19 C 0.03202 0.13203 0.00227 0.0
C20 C 0.97181 0.10255 -0.0026 0.0
C21 C 0.93108 0.08841 0.0112 0.0
C22 C 0.95259 0.10475 0.02951 0.0
H23 H 0.09734 0.16955 0.02451 0.0
O24 O 0.07153 0.02881 0.05864 0.0
O25 O 0.02676 0.07884 0.06389 0.0
O26 O 0.1512 0.14879 0.06869 0.0
O27 O 0.10886 0.19738 0.05802 0.0
C28 C 0.86995 0.05748 0.00754 0.0
C29 C 0.8315 0.04257 0.02219 0.0
H30 H 0.7713 0.01854 0.05395 0.0
H31 H 0.81767 0.04719 0.08549 0.0
H32 H 0.06373 0.143 0.9917 0.0
H33 H 0.95732 0.09052 0.98305 0.0
H34 H 0.85204 0.04407 0.99352 0.0
H35 H 0.78461 0.01796 0.01922 0.0
Mn36 Mn 0.0122 0.05745 0.41117 0.0
Mn37 Mn 0.0956 0.18737 0.43456 0.0
C38 C 0.07862 0.06761 0.43394 0.0
C39 C -0.00247 0.99163 0.38662 0.0
C40 C 0.96973 0.10378 0.4432 0.0
O41 O 0.00281 0.11247 0.39496 0.0
O42 O 0.05973 0.19632 0.4117 0.0
C43 C 0.1876 0.2402 0.40737 0.0
N44 N 0.17202 0.22468 0.42486 0.0
C45 C 0.27281 0.26493 0.4351 0.0
C46 C 0.28998 0.28169 0.41722 0.0
C47 C 0.24715 0.26909 0.40329 0.0
C48 C 0.21282 0.23621 0.43833 0.0
H49 H 0.15483 0.23061 0.39661 0.0
C50 C 0.02591 0.16731 0.3977 0.0
O51 O 0.95363 0.98792 0.39556 0.0
O52 O 0.049 0.03543 0.39125 0.0
N53 N 0.13389 0.18672 0.45699 0.0
C54 C 0.10993 0.16603 0.47336 0.0
C55 C 0.14683 0.17406 0.48866 0.0
C56 C 0.20792 0.20415 0.48707 0.0
C57 C 0.2316 0.22605 0.47018 0.0
C58 C 0.19266 0.21677 0.45542 0.0
H59 H 0.06303 0.1432 0.47471 0.0
O60 O 0.03499 0.01685 0.42868 0.0
O61 O 0.08333 0.1115 0.42542 0.0
O62 O 0.95981 0.06482 0.43048 0.0
O63 O 0.01866 0.15118 0.44571 0.0
C64 C 0.29225 0.25592 0.46733 0.0
C65 C 0.31283 0.2751 0.44979 0.0
H66 H 0.33587 0.30395 0.41402 0.0
H67 H 0.26004 0.28167 0.38944 0.0
H68 H 0.12822 0.15713 0.50166 0.0
H69 H 0.2362 0.20998 0.49888 0.0
H70 H 0.32346 0.26385 0.47849 0.0
H71 H 0.35951 0.29738 0.44772 0.0
Mn72 Mn 0.07031 0.09693 0.74892 0.0
Mn73 Mn 0.02142 0.1776 0.7708 0.0
C74 C 0.12593 0.16312 0.77272 0.0
C75 C 0.12379 0.08578 0.7255 0.0
C76 C 0.97581 0.05096 0.77755 0.0
O77 O 0.00576 0.08821 0.73118 0.0
O78 O 0.97864 0.14586 0.7465 0.0
C79 C 0.06563 0.2734 0.74566 0.0
N80 N 0.06392 0.25486 0.76286 0.0
C81 C 0.13096 0.35216 0.77518 0.0
C82 C 0.13312 0.37234 0.75761 0.0
C83 C 0.10036 0.33276 0.74278 0.0
C84 C 0.09534 0.29256 0.77722 0.0
H85 H 0.04082 0.24306 0.7342 0.0
C86 C 0.97437 0.11206 0.73268 0.0
O87 O 0.08389 0.04106 0.73348 0.0
O88 O 0.13024 0.1359 0.73055 0.0
N89 N 0.05945 0.21114 0.79442 0.0
C90 C 0.05381 0.18439 0.81037 0.0
C91 C 0.08433 0.21781 0.82649 0.0
C92 C 0.12005 0.27831 0.82607 0.0
C93 C 0.12459 0.30492 0.80954 0.0
C94 C 0.09259 0.26946 0.79396 0.0
H95 H 0.02652 0.1379 0.81077 0.0
O96 O 0.13415 0.1203 0.76815 0.0
O97 O 0.08542 0.16573 0.76323 0.0
O98 O 0.00864 0.04318 0.76643 0.0
O99 O 0.97694 0.09925 0.78004 0.0
C100 C 0.16021 0.36511 0.80785 0.0
C101 C 0.16349 0.38871 0.79068 0.0
H102 H 0.1601 0.41805 0.75531 0.0
H103 H 0.10204 0.34797 0.72916 0.0
H104 H 0.08057 0.19696 0.8392 0.0
H105 H 0.14397 0.30387 0.83849 0.0
H106 H 0.18576 0.39359 0.81963 0.0
H107 H 0.19151 0.43497 0.78951 0.0
H108 H 0.02462 0.43694 0.13157 0.0
H109 H 0.03247 0.88999 0.2909 0.0
H110 H 0.93835 0.40501 0.23874 0.0
H111 H 0.94212 0.32583 0.22163 0.0
H112 H 0.1265 0.44096 0.21355 0.0
H113 H 0.12261 0.5186 0.23128 0.0
H114 H 0.94816 0.47043 0.20382 0.0
H115 H 0.96297 0.44378 0.17256 0.0
H116 H 0.1421 0.58643 0.17675 0.0
H117 H 0.12696 0.61191 0.20814 0.0
H118 H 0.94029 0.59634 0.20815 0.0
H119 H 0.95028 0.66565 0.18551 0.0
H120 H 0.13269 0.77568 0.20289 0.0
H121 H 0.12216 0.7061 0.22547 0.0
H122 H 0.91601 0.62623 0.24822 0.0
H123 H 0.90523 0.70793 0.25976 0.0
H124 H 0.08953 0.80396 0.27629 0.0
H125 H 0.09962 0.72202 0.26462 0.0
H126 H 0.90301 0.55022 0.27867 0.0
H127 H 0.88968 0.60518 0.30407 0.0
H128 H 0.0767 0.69768 0.31645 0.0
H129 H 0.08891 0.64105 0.29149 0.0
H130 H 0.91891 0.45508 0.27859 0.0
H131 H 0.91559 0.39104 0.30218 0.0
H132 H 0.09995 0.45266 0.29598 0.0
H133 H 0.1031 0.51759 0.27292 0.0
O134 O 0.01942 0.44889 0.14383 0.0
O135 O 0.11033 0.52441 0.14633 0.0
O136 O 0.94224 0.80831 0.27587 0.0
O137 O 0.03601 0.85808 0.28553 0.0
C138 C 0.02416 0.51865 0.24136 0.0
C139 C 0.02835 0.55629 0.22764 0.0
C140 C 0.02404 0.60568 0.23239 0.0
C141 C 0.01336 0.61643 0.25061 0.0
C142 C 0.00735 0.57798 0.26424 0.0
C143 C 0.01353 0.52939 0.25971 0.0
C144 C 0.03004 0.46758 0.23601 0.0
C145 C 0.97999 0.41224 0.23392 0.0
C146 C 0.98214 0.36734 0.22395 0.0
C147 C 0.03431 0.37741 0.21585 0.0
C148 C 0.08566 0.43143 0.21962 0.0
C149 C 0.08354 0.47603 0.22972 0.0
C150 C 0.0364 0.54321 0.20819 0.0
C151 C 0.99044 0.49605 0.19791 0.0
C152 C -0.00093 0.48088 0.18007 0.0
C153 C 0.05375 0.51294 0.17215 0.0
C154 C 0.09944 0.56086 0.18242 0.0
C155 C 0.09083 0.57575 0.20031 0.0
C156 C 0.03056 0.64638 0.21832 0.0
C157 C 0.98236 0.63533 0.20696 0.0
C158 C 0.9881 0.67498 0.19416 0.0
C159 C 0.04227 0.72601 0.19248 0.0
C160 C 0.09063 0.73645 0.20377 0.0
C161 C 0.08469 0.69702 0.21668 0.0
C162 C 0.00853 0.66839 0.25561 0.0
C163 C 0.95411 0.66534 0.25408 0.0
C164 C 0.94806 0.71191 0.26077 0.0
C165 C 0.99648 0.76236 0.26906 0.0
C166 C 0.05134 0.76574 0.27005 0.0
C167 C 0.05732 0.71917 0.26332 0.0
C168 C 0.99692 0.59176 0.28326 0.0
C169 C 0.94057 0.58011 0.28753 0.0
C170 C 0.93325 0.61243 0.30182 0.0
C171 C 0.98229 0.65702 0.31198 0.0
C172 C 0.03786 0.66367 0.30899 0.0
C173 C 0.04502 0.63101 0.29478 0.0
C174 C 0.01132 0.49119 0.27416 0.0
C175 C 0.95859 0.45499 0.28248 0.0
C176 C 0.95668 0.41805 0.29579 0.0
C177 C 0.00754 0.4168 0.30098 0.0
C178 C 0.0602 0.45315 0.29251 0.0
C179 C 0.06206 0.49004 0.27926 0.0
C180 C 0.06308 0.49601 0.15333 0.0
C181 C 0.98974 0.81088 0.27695 0.0
H182 H 0.54708 0.96618 0.46288 0.0
H183 H 0.27938 0.19033 0.61221 0.0
H184 H 0.55995 0.95447 0.56084 0.0
H185 H 0.63181 0.94827 0.54141 0.0
H186 H 0.75488 0.12978 0.55529 0.0
H187 H 0.68274 0.13567 0.57442 0.0
H188 H 0.46466 0.96341 0.53724 0.0
H189 H 0.48405 0.9488 0.50521 0.0
H190 H 0.63927 0.11947 0.50893 0.0
H191 H 0.61876 0.13386 0.54081 0.0
H192 H 0.3683 0.98939 0.55965 0.0
H193 H 0.30251 0.99234 0.53651 0.0
H194 H 0.44805 0.14677 0.51628 0.0
H195 H 0.51239 0.14582 0.54053 0.0
H196 H 0.36914 -0.00141 0.59889 0.0
H197 H 0.29515 0.02141 0.60958 0.0
H198 H 0.40205 0.19719 0.59329 0.0
H199 H 0.47608 0.17396 0.58292 0.0
H200 H 0.45152 0.98151 0.62104 0.0
H201 H 0.396 0.98588 0.64704 0.0
H202 H 0.48445 0.17258 0.64552 0.0
H203 H 0.53921 0.16759 0.61937 0.0
H204 H 0.54873 0.96896 0.61124 0.0
H205 H 0.61836 0.96994 0.63424 0.0
H206 H 0.7285 0.15516 0.63061 0.0
H207 H 0.65837 0.15384 0.6079 0.0
O208 O 0.53957 0.97329 0.47543 0.0
O209 O 0.61976 0.06073 0.47825 0.0
O210 O 0.25426 0.08902 0.61599 0.0
O211 O 0.30747 0.17985 0.60781 0.0
C212 C 0.5675 0.05419 0.57487 0.0
C213 C 0.53058 0.05675 0.56112 0.0
C214 C 0.48431 0.06573 0.56617 0.0
C215 C 0.47486 0.07214 0.58493 0.0
C216 C 0.5115 0.06913 0.5987 0.0
C217 C 0.55822 0.06079 0.59367 0.0
C218 C 0.61622 0.0455 0.56905 0.0
C219 C 0.60338 0.99216 0.56031 0.0
C220 C 0.64412 0.98889 0.54905 0.0
C221 C 0.69854 0.03875 0.54662 0.0
C222 C 0.71346 0.09054 0.55698 0.0
C223 C 0.67246 0.09391 0.56807 0.0
C224 C 0.54044 0.04954 0.54134 0.0
C225 C 0.50247 0.99776 0.53104 0.0
C226 C 0.51381 0.98947 0.51278 0.0
C227 C 0.56339 0.03286 0.50454 0.0
C228 C 0.60081 0.08511 0.51486 0.0
C229 C 0.58924 0.09343 0.53307 0.0
C230 C 0.44499 0.06745 0.55179 0.0
C231 C 0.38572 0.0242 0.55034 0.0
C232 C 0.3484 0.02557 0.53691 0.0
C233 C 0.36994 0.06957 0.52437 0.0
C234 C 0.42966 0.1127 0.52583 0.0
C235 C 0.46671 0.11191 0.53954 0.0
C236 C 0.42804 0.08473 0.59025 0.0
C237 C 0.37642 0.04196 0.59763 0.0
C238 C 0.33422 0.0551 0.60369 0.0
C239 C 0.34276 0.1112 0.60232 0.0
C240 C 0.39413 0.15361 0.59457 0.0
C241 C 0.43638 0.14044 0.58858 0.0
C242 C 0.49894 0.07417 0.61826 0.0
C243 C 0.46116 0.02356 0.62696 0.0
C244 C 0.42913 0.02614 0.64174 0.0
C245 C 0.43475 0.07945 0.64797 0.0
C246 C 0.47829 0.13077 0.64072 0.0
C247 C 0.51029 0.12813 0.62598 0.0
C248 C 0.59879 0.0613 0.60795 0.0
C249 C 0.58777 0.00967 0.61553 0.0
C250 C 0.62743 0.01033 0.62861 0.0
C251 C 0.67896 0.06258 0.63407 0.0
C252 C 0.68955 0.11421 0.62646 0.0
C253 C 0.64952 0.1136 0.6136 0.0
C254 C 0.57611 0.02339 0.48529 0.0
C255 C 0.29866 0.12575 0.60911 0.0
H256 H 0.64829 0.72577 0.03339 0.0
H257 H 0.30696 0.21995 0.88649 0.0
H258 H 0.61543 0.73586 0.93489 0.0
H259 H 0.69239 0.82054 0.95296 0.0
H260 H 0.81934 0.77294 0.93615 0.0
H261 H 0.74174 0.68722 0.91834 0.0
H262 H 0.53739 0.6386 0.95976 0.0
H263 H 0.569 0.67571 0.99175 0.0
H264 H 0.7248 0.6633 0.98489 0.0
H265 H 0.69232 0.62563 0.95299 0.0
H266 H 0.43308 0.51812 0.9377 0.0
H267 H 0.37658 0.45992 0.96245 0.0
H268 H 0.52774 0.45214 0.98219 0.0
H269 H 0.58196 0.50574 0.95614 0.0
H270 H 0.41778 0.50589 0.89976 0.0
H271 H 0.33552 0.40973 0.8901 0.0
H272 H 0.4417 0.33371 0.903 0.0
H273 H 0.5239 0.43037 0.91245 0.0
H274 H 0.49286 0.60393 0.87825 0.0
H275 H 0.4256 0.54884 0.85189 0.0
H276 H 0.50137 0.43858 0.84752 0.0
H277 H 0.56776 0.49311 0.87412 0.0
H278 H 0.61315 0.72775 0.89329 0.0
H279 H 0.67169 0.79333 0.86993 0.0
H280 H 0.73194 0.67527 0.85312 0.0
H281 H 0.67444 0.61078 0.87692 0.0
O282 O 0.63611 0.7101 0.02081 0.0
O283 O 0.71586 0.70363 0.01647 0.0
O284 O 0.28658 0.29999 0.88348 0.0
O285 O 0.33856 0.25838 0.89046 0.0
C286 C 0.62443 0.64577 0.92033 0.0
C287 C 0.59419 0.6087 0.93449 0.0
C288 C 0.54577 0.55278 0.93006 0.0
C289 C 0.52789 0.53388 0.91144 0.0
C290 C 0.55842 0.57089 0.89729 0.0
C291 C 0.60707 0.62663 0.9017 0.0
C292 C 0.67307 0.70526 0.92552 0.0
C293 C 0.66029 0.74505 0.93446 0.0
C294 C 0.70408 0.7932 0.94476 0.0
C295 C 0.7613 0.80266 0.9459 0.0
C296 C 0.77547 0.76652 0.93526 0.0
C297 C 0.73135 0.71777 0.92511 0.0
C298 C 0.61256 0.62943 0.95409 0.0
C299 C 0.57809 0.64352 0.96525 0.0
C300 C 0.59635 0.66485 0.98349 0.0
C301 C 0.64946 0.67251 0.99087 0.0
C302 C 0.68364 0.65788 0.97965 0.0
C303 C 0.66528 0.63647 0.96143 0.0
C304 C 0.51144 0.5157 0.94497 0.0
C305 C 0.45353 0.50267 0.94712 0.0
C306 C 0.42167 0.47031 0.96157 0.0
C307 C 0.44762 0.45175 0.97462 0.0
C308 C 0.50584 0.46488 0.97237 0.0
C309 C 0.53719 0.49601 0.95757 0.0
C310 C 0.47687 0.47506 0.90666 0.0
C311 C 0.42318 0.46841 0.90046 0.0
C312 C 0.37626 0.41344 0.89497 0.0
C313 C 0.38214 0.36404 0.89567 0.0
C314 C 0.43575 0.37084 0.90223 0.0
C315 C 0.4827 0.42592 0.90769 0.0
C316 C 0.53483 0.55221 0.87808 0.0
C317 C 0.49675 0.5696 0.87108 0.0
C318 C 0.45811 0.53789 0.85617 0.0
C319 C 0.45817 0.48933 0.84791 0.0
C320 C 0.50086 0.4761 0.85364 0.0
C321 C 0.53888 0.50727 0.86874 0.0
C322 C 0.63987 0.66476 0.88685 0.0
C323 C 0.63896 0.71611 0.88454 0.0
C324 C 0.67206 0.75324 0.87108 0.0
C325 C 0.70657 0.73956 0.85966 0.0
C326 C 0.70645 0.68743 0.86184 0.0
C327 C 0.67334 0.65036 0.87532 0.0
C328 C 0.6693 0.69625 0.01014 0.0
C329 C 0.33275 0.30567 0.88951 0.0
H330 H 0.09293 0.15493 0.13611 0.0
H331 H 0.01696 0.23997 0.10666 0.0
H332 H 0.08394 0.19909 0.16514 0.0
H333 H 0.00939 0.28478 0.13546 0.0
H334 H 0.94915 0.3146 0.18911 0.0
H335 H 0.95339 0.25817 0.16268 0.0
H336 H 0.12404 0.29329 0.18224 0.0
H337 H 0.11847 0.3475 0.20937 0.0
C338 C 0.07473 0.18329 0.13579 0.0
C339 C 0.05551 0.1937 0.11902 0.0
C340 C 0.06968 0.20865 0.15243 0.0
C341 C 0.04534 0.24491 0.15264 0.0
C342 C 0.02704 0.25595 0.13585 0.0
C343 C 0.03188 0.23058 0.11928 0.0
C344 C 0.98682 0.30884 0.18815 0.0
C345 C 0.03354 0.33573 0.2014 0.0
C346 C 0.98968 0.27726 0.17279 0.0
C347 C 0.03954 0.27216 0.17016 0.0
C348 C 0.08498 0.29636 0.18386 0.0
C349 C 0.08199 0.32782 0.19933 0.0
H350 H 0.97204 0.17865 0.47051 0.0
H351 H 0.86585 0.00228 0.4473 0.0
H352 H 0.9051 0.15744 0.49527 0.0
H353 H 0.7988 0.98103 0.47243 0.0
H354 H 0.81766 0.08696 0.54806 0.0
H355 H 0.88044 0.09943 0.52232 0.0
H356 H 0.7273 0.00619 0.48551 0.0
H357 H 0.66457 0.99357 0.51126 0.0
C358 C 0.93422 0.13536 0.47059 0.0
C359 C 0.92463 0.09207 0.4569 0.0
C360 C 0.8961 0.1231 0.48493 0.0
C361 C 0.8473 0.06729 0.486 0.0
C362 C 0.83614 0.02447 0.47196 0.0
C363 C 0.8745 0.03671 0.45756 0.0
C364 C 0.79749 0.06863 0.5345 0.0
C365 C 0.73631 0.03928 0.53168 0.0
C366 C 0.83334 0.07598 0.51975 0.0
C367 C 0.80878 0.05439 0.50185 0.0
C368 C 0.74749 0.02291 0.49915 0.0
C369 C 0.71159 0.0155 0.51392 0.0
H370 H 0.96342 0.94254 0.77898 0.0
H371 H 0.89442 0.04864 0.8008 0.0
H372 H 0.89613 0.86353 0.7974 0.0
H373 H 0.82825 0.9703 0.81923 0.0
H374 H 0.67829 0.80125 0.83685 0.0
H375 H 0.74149 0.87311 0.8158 0.0
H376 H 0.88217 0.84221 0.83028 0.0
H377 H 0.81908 0.77051 0.8514 0.0
C378 C 0.93395 0.94907 0.78764 0.0
C379 C 0.93447 0.00209 0.78836 0.0
C380 C 0.8956 0.90387 0.79825 0.0
C381 C 0.85673 0.91059 0.80972 0.0
C382 C 0.85698 0.96336 0.81032 0.0
C383 C 0.89534 0.0085 0.79981 0.0
C384 C 0.72274 0.80986 0.83557 0.0
C385 C 0.74374 0.78043 0.84591 0.0
C386 C 0.75892 0.85097 0.8235 0.0
C387 C 0.81696 0.86362 0.82146 0.0
C388 C 0.83747 0.83299 0.83138 0.0
C389 C 0.80128 0.79189 0.84349 0.0
H390 H 0.16683 0.01858 0.12283 0.0
H391 H 0.97958 0.91886 0.11143 0.0
H392 H 0.15866 0.94917 0.14491 0.0
H393 H 0.97158 0.84864 0.13298 0.0
H394 H 0.9685 0.76776 0.18673 0.0
H395 H 0.97824 0.83891 0.1652 0.0
H396 H 0.13864 0.85125 0.14657 0.0
H397 H 0.12933 0.7809 0.16846 0.0
C398 C 0.124 0.98167 0.12497 0.0
C399 C 0.07384 0.97425 0.11545 0.0
C400 C 0.11933 0.9417 0.13754 0.0
C401 C 0.06444 0.89332 0.14075 0.0
C402 C 0.0144 0.8859 0.1311 0.0
C403 C 0.01902 0.92601 0.11865 0.0
C404 C 0.00561 0.78547 0.17794 0.0
C405 C 0.04807 0.76875 0.17921 0.0
C406 C 0.01119 0.82616 0.16558 0.0
C407 C 0.05915 0.85071 0.1541 0.0
C408 C 0.10165 0.8339 0.1554 0.0
C409 C 0.09626 0.79349 0.16788 0.0
H410 H 0.06002 0.01697 0.46623 0.0
H411 H 0.19641 0.12228 0.43006 0.0
H412 H 0.13331 0.01752 0.48737 0.0
H413 H 0.27029 0.12454 0.45154 0.0
H414 H 0.37102 0.16443 0.51079 0.0
H415 H 0.30312 0.16488 0.48781 0.0
H416 H 0.20873 0.97773 0.48301 0.0
H417 H 0.27821 0.9766 0.50512 0.0
C418 C 0.10587 0.04082 0.46299 0.0
C419 C 0.12329 0.07159 0.44702 0.0
C420 C 0.14754 0.04094 0.47498 0.0
C421 C 0.20716 0.0715 0.47107 0.0
C422 C 0.22453 0.10138 0.4549 0.0
C423 C 0.18261 0.10056 0.44277 0.0
C424 C 0.33666 0.12332 0.50458 0.0
C425 C 0.33 0.07042 0.50996 0.0
C426 C 0.29769 0.12374 0.49151 0.0
C427 C 0.25078 0.07138 0.48385 0.0
C428 C 0.24436 0.01861 0.48895 0.0
C429 C 0.28391 0.01811 0.50172 0.0
H430 H 0.16469 0.16491 0.80764 0.0
H431 H 0.19179 0.27234 0.76217 0.0
H432 H 0.24491 0.24847 0.8255 0.0
H433 H 0.27294 0.35538 0.77978 0.0
H434 H 0.46159 0.44626 0.8134 0.0
H435 H 0.37841 0.36861 0.79466 0.0
H436 H 0.26071 0.35768 0.83685 0.0
H437 H 0.34323 0.43612 0.85529 0.0
C438 C 0.18768 0.20655 0.8016 0.0
C439 C 0.17142 0.21318 0.78388 0.0
C440 C 0.23328 0.25404 0.81172 0.0
C441 C 0.2645 0.30799 0.80394 0.0
C442 C 0.24924 0.31411 0.78601 0.0
C443 C 0.2028 0.26699 0.77606 0.0
C444 C 0.41775 0.42782 0.81844 0.0
C445 C 0.40844 0.44726 0.83562 0.0
C446 C 0.37044 0.38366 0.8078 0.0
C447 C 0.31364 0.35749 0.81445 0.0
C448 C 0.30427 0.37735 0.83152 0.0
C449 C 0.35125 0.4223 0.84195 0.0
H450 H 0.97005 0.07273 0.69681 0.0
H451 H 0.87831 0.12434 0.73504 0.0
H452 H 0.8974 0.05571 0.67236 0.0
H453 H 0.80603 0.10695 0.71072 0.0
H454 H 0.65595 0.01369 0.66722 0.0
H455 H 0.72674 0.0207 0.69074 0.0
H456 H 0.86847 0.12125 0.65545 0.0
H457 H 0.79768 0.11423 0.63192 0.0
C458 C 0.9343 0.08009 0.70003 0.0
C459 C 0.93007 0.10008 0.71785 0.0
C460 C 0.89294 0.07057 0.68603 0.0
C461 C 0.84608 0.07985 0.6897 0.0
C462 C 0.84137 0.09888 0.70757 0.0
C463 C 0.88307 0.10925 0.72145 0.0
C464 C 0.70217 0.03666 0.66443 0.0
C465 C 0.72144 0.06367 0.64782 0.0
C466 C 0.74262 0.04096 0.6779 0.0
C467 C 0.80301 0.07163 0.6749 0.0
C468 C 0.82215 0.09704 0.65805 0.0
C469 C 0.78175 0.09344 0.64468 0.0
H470 H 0.06562 0.02647 0.01873 0.0
H471 H 0.91654 0.98621 0.05139 0.0
H472 H -4e-05 0.96919 0.99237 0.0
H473 H 0.85065 0.93262 0.02499 0.0
H474 H 0.74593 0.78907 0.98197 0.0
H475 H 0.81307 0.84712 0.00752 0.0
H476 H 0.93433 0.96388 0.96929 0.0
H477 H 0.86775 0.90197 0.94354 0.0
C478 C 0.01865 0.00606 0.02007 0.0
C479 C 0.99574 0.01223 0.03671 0.0
C480 C 0.981 0.97372 0.00499 0.0
C481 C 0.91976 0.9465 0.0064 0.0
C482 C 0.89735 0.95212 0.02333 0.0
C483 C 0.93498 0.98375 0.0384 0.0
C484 C 0.78696 0.82725 0.97911 0.0
C485 C 0.80186 0.84151 0.96094 0.0
C486 C 0.82538 0.86098 0.99375 0.0
C487 C 0.8792 0.91079 0.99058 0.0
C488 C 0.89374 0.9254 0.97227 0.0
C489 C 0.8556 0.89052 0.95753 0.0
H490 H 0.08471 0.98153 0.37068 0.0
H491 H 0.89609 0.89415 0.37346 0.0
H492 H 0.0763 0.89785 0.35294 0.0
H493 H 0.88789 0.81023 0.35538 0.0
H494 H 0.91329 0.70435 0.30537 0.0
H495 H 0.91299 0.78472 0.32267 0.0
H496 H 0.04158 0.79299 0.36181 0.0
H497 H 0.04073 0.71133 0.34491 0.0
C498 C 0.04134 0.94483 0.36727 0.0
C499 C 0.99103 0.94438 0.37355 0.0
C500 C 0.03666 0.89674 0.35724 0.0
C501 C 0.98155 0.84736 0.35306 0.0
C502 C 0.93092 0.84781 0.35849 0.0
C503 C 0.93563 0.8958 0.36879 0.0
C504 C 0.94027 0.72205 0.31796 0.0
C505 C 0.97699 0.70114 0.32377 0.0
C506 C 0.94033 0.7684 0.32777 0.0
C507 C 0.97762 0.79528 0.34345 0.0
C508 C 0.01303 0.77347 0.34958 0.0
C509 C 0.01252 0.72674 0.33991 0.0
H510 H 0.12999 0.98934 0.71422 0.0
H511 H 0.2109 0.17371 0.70797 0.0
H512 H 0.2042 0.98631 0.69515 0.0
H513 H 0.28538 0.1711 0.68957 0.0
H514 H 0.37902 0.1402 0.64305 0.0
H515 H 0.30017 0.13788 0.66039 0.0
H516 H 0.30827 0.01813 0.69658 0.0
H517 H 0.38681 0.01946 0.67875 0.0
C518 C 0.16325 0.02904 0.70866 0.0
C519 C 0.16445 0.08169 0.71256 0.0
C520 C 0.20612 0.02746 0.69792 0.0
C521 C 0.25094 0.07851 0.69087 0.0
C522 C 0.25115 0.13078 0.69452 0.0
C523 C 0.20842 0.13231 0.70516 0.0
C524 C 0.36462 0.11399 0.65486 0.0
C525 C 0.38977 0.08065 0.65969 0.0
C526 C 0.3192 0.11251 0.66479 0.0
C527 C 0.29795 0.07804 0.67996 0.0
C528 C 0.32305 0.04458 0.68483 0.0
C529 C 0.36835 0.04569 0.67473 0.0
H530 H 0.2047 0.30913 0.06327 0.0
H531 H 0.2242 0.16828 0.04026 0.0
H532 H 0.28678 0.37754 0.04597 0.0
H533 H 0.30276 0.23508 0.02167 0.0
H534 H 0.45351 0.36507 0.99194 0.0
H535 H 0.39492 0.30929 0.01673 0.0
H536 H 0.30226 0.40459 0.01657 0.0
H537 H 0.36512 0.46439 0.99347 0.0
C538 C 0.22715 0.29311 0.05458 0.0
C539 C 0.20852 0.23377 0.05305 0.0
C540 C 0.27368 0.33204 0.04444 0.0
C541 C 0.301 0.31206 0.03197 0.0
C542 C 0.28378 0.2527 0.03121 0.0
C543 C 0.23848 0.21413 0.04182 0.0
C544 C 0.42178 0.37527 -0.00246 0.0
C545 C 0.41375 0.41897 0.9904 0.0
C546 C 0.3873 0.34244 0.01162 0.0
C547 C 0.34296 0.35152 0.01866 0.0
C548 C 0.33623 0.39638 0.01184 0.0
C549 C 0.37162 0.43007 -0.00185 0.0
H550 H 0.98014 0.13134 0.36218 0.0
H551 H 0.04803 0.27855 0.40188 0.0
H552 H 0.97207 0.19015 0.33883 0.0
H553 H 0.03867 0.33635 0.37882 0.0
H554 H 0.08934 0.44285 0.32866 0.0
H555 H 0.0893 0.38 0.3517 0.0
H556 H 0.92157 0.24147 0.32946 0.0
H557 H 0.92283 0.30398 0.30577 0.0
C558 C 0.99256 0.17588 0.366 0.0
C559 C 0.0154 0.20038 0.38385 0.0
C560 C 0.98775 0.20953 0.35264 0.0
C561 C 0.00548 0.2682 0.3569 0.0
C562 C 0.02597 0.29176 0.37495 0.0
C563 C 0.03105 0.25841 0.38821 0.0
C564 C 0.05267 0.39883 0.32854 0.0
C565 C 0.0062 0.37841 0.31532 0.0
C566 C 0.05226 0.36297 0.34192 0.0
C567 C 0.00522 0.30577 0.34251 0.0
C568 C 0.95862 0.28519 0.32931 0.0
C569 C 0.95905 0.3212 0.31587 0.0
loop_
_geom_bond_atom_site_label_1
_geom_bond_atom_site_label_2
_geom_bond_distance
_geom_bond_site_symmetry_2
_ccdc_geom_bond_type
Mn0 O5 2.095 . S
Mn0 O15 2.162 . S
Mn0 O16 2.297 . S
Mn0 O24 2.385 . S
Mn0 O25 2.209 . S
Mn0 O26 2.094 . S
Mn1 O6 2.121 . S
Mn1 N8 2.257 1_455 S
Mn1 N17 2.282 . S
Mn1 O25 2.215 . S
Mn1 O27 2.117 . S
C2 O24 1.234 . S
C2 O25 1.283 . S
C3 O15 1.281 . S
C3 O16 1.236 . S
C4 O26 1.240 . S
C4 O27 1.264 . S
O5 Mn0 2.095 . S
O5 C14 1.250 . S
O6 Mn1 2.121 . S
O6 C14 1.258 . S
C7 N8 1.326 . S
C7 C11 1.460 . S
C7 H13 0.929 . S
N8 Mn1 2.257 1_655 S
N8 C7 1.326 . S
N8 C12 1.362 . S
C9 C10 1.258 . S
C9 C12 1.431 . S
C9 C29 1.449 . S
C10 C9 1.258 . S
C10 C11 1.477 . S
C10 H30 0.931 . S
C11 C7 1.460 . S
C11 C10 1.477 . S
C11 H31 0.930 . S
C12 N8 1.362 . S
C12 C9 1.431 . S
C12 C22 1.476 . S
H13 C7 0.929 . S
C14 O5 1.250 . S
C14 O6 1.258 . S
O15 Mn0 2.162 . S
O15 C3 1.281 . S
O16 Mn0 2.297 . S
O16 C3 1.236 . S
N17 Mn1 2.282 . S
N17 C18 1.328 . S
N17 C22 1.318 1_455 S
C18 N17 1.328 . S
C18 C19 1.457 . S
C18 H23 0.929 . S
C19 C18 1.457 . S
C19 C20 1.291 1_454 S
C19 H32 0.931 1_554 S
C20 C19 1.291 1_656 S
C20 C21 1.373 1_556 S
C20 H33 0.929 . S
C21 C20 1.373 1_554 S
C21 C22 1.396 . S
C21 C28 1.403 . S
C22 C12 1.476 . S
C22 N17 1.318 1_655 S
C22 C21 1.396 . S
H23 C18 0.929 . S
O24 Mn0 2.385 . S
O24 C2 1.234 . S
O25 Mn0 2.209 . S
O25 Mn1 2.215 . S
O25 C2 1.283 . S
O26 Mn0 2.094 . S
O26 C4 1.240 . S
O27 Mn1 2.117 . S
O27 C4 1.264 . S
C28 C21 1.403 . S
C28 C29 1.399 . S
C28 H34 0.929 1_554 S
C29 C9 1.449 . S
C29 C28 1.399 . S
C29 H35 0.930 . S
H30 C10 0.931 . S
H31 C11 0.930 . S
H32 C19 0.931 1_556 S
H33 C20 0.929 . S
H34 C28 0.929 1_556 S
H35 C29 0.930 . S
Mn36 O41 2.095 . S
Mn36 O51 2.162 1_545 S
Mn36 O52 2.297 1_645 S
Mn36 O60 2.385 1_645 S
Mn36 O61 2.209 1_655 S
Mn36 O62 2.096 1_545 S
Mn37 O42 2.121 . S
Mn37 N44 2.257 . S
Mn37 N53 2.282 . S
Mn37 O61 2.215 . S
Mn37 O63 2.117 1_455 S
C38 O60 1.234 1_545 S
C38 O61 1.283 . S
C39 O51 1.281 . S
C39 O52 1.236 1_655 S
C40 O62 1.235 1_545 S
C40 O63 1.264 . S
O41 Mn36 2.095 . S
O41 C50 1.250 1_655 S
O42 Mn37 2.121 . S
O42 C50 1.258 . S
C43 N44 1.326 . S
C43 C47 1.460 . S
C43 H49 0.929 . S
N44 Mn37 2.257 . S
N44 C43 1.326 . S
N44 C48 1.362 . S
C45 C46 1.258 . S
C45 C48 1.431 . S
C45 C65 1.449 . S
C46 C45 1.258 . S
C46 C47 1.477 . S
C46 H66 0.931 . S
C47 C43 1.460 . S
C47 C46 1.477 . S
C47 H67 0.930 . S
C48 N44 1.362 . S
C48 C45 1.431 . S
C48 C58 1.476 . S
H49 C43 0.929 . S
C50 O41 1.250 1_455 S
C50 O42 1.258 . S
O51 Mn36 2.162 1_565 S
O51 C39 1.281 . S
O52 Mn36 2.297 1_465 S
O52 C39 1.236 1_455 S
N53 Mn37 2.282 . S
N53 C54 1.328 . S
N53 C58 1.318 . S
C54 N53 1.328 . S
C54 C55 1.457 . S
C54 H59 0.929 . S
C55 C54 1.457 . S
C55 C56 1.291 . S
C55 H68 0.931 . S
C56 C55 1.291 . S
C56 C57 1.373 . S
C56 H69 0.929 . S
C57 C56 1.373 . S
C57 C58 1.396 . S
C57 C64 1.403 . S
C58 C48 1.476 . S
C58 N53 1.318 . S
C58 C57 1.396 . S
H59 C54 0.929 . S
O60 Mn36 2.385 1_465 S
O60 C38 1.234 1_565 S
O61 Mn36 2.209 1_455 S
O61 Mn37 2.215 . S
O61 C38 1.283 . S
O62 Mn36 2.096 1_565 S
O62 C40 1.235 1_565 S
O63 Mn37 2.117 1_655 S
O63 C40 1.264 . S
C64 C57 1.403 . S
C64 C65 1.399 . S
C64 H70 0.929 . S
C65 C45 1.449 . S
C65 C64 1.399 . S
C65 H71 0.930 . S
H66 C46 0.931 . S
H67 C47 0.930 . S
H68 C55 0.931 . S
H69 C56 0.929 . S
H70 C64 0.929 . S
H71 C65 0.930 . S
Mn72 O77 2.095 . S
Mn72 O87 2.162 . S
Mn72 O88 2.297 . S
Mn72 O96 2.385 . S
Mn72 O97 2.209 . S
Mn72 O98 2.094 . S
Mn73 O78 2.121 . S
Mn73 N80 2.257 . S
Mn73 N89 2.282 . S
Mn73 O97 2.215 . S
Mn73 O99 2.117 . S
C74 O96 1.234 . S
C74 O97 1.283 . S
C75 O87 1.281 . S
C75 O88 1.236 . S
C76 O98 1.240 . S
C76 O99 1.264 . S
O77 Mn72 2.095 . S
O77 C86 1.250 . S
O78 Mn73 2.121 . S
O78 C86 1.258 . S
C79 N80 1.326 . S
C79 C83 1.460 . S
C79 H85 0.929 . S
N80 Mn73 2.257 . S
N80 C79 1.326 . S
N80 C84 1.362 . S
C81 C82 1.258 . S
C81 C84 1.431 . S
C81 C101 1.449 . S
C82 C81 1.258 . S
C82 C83 1.477 . S
C82 H102 0.931 . S
C83 C79 1.460 . S
C83 C82 1.477 . S
C83 H103 0.930 . S
C84 N80 1.362 . S
C84 C81 1.431 . S
C84 C94 1.476 . S
H85 C79 0.929 . S
C86 O77 1.250 . S
C86 O78 1.258 . S
O87 Mn72 2.162 . S
O87 C75 1.281 . S
O88 Mn72 2.297 . S
O88 C75 1.236 . S
N89 Mn73 2.282 . S
N89 C90 1.328 . S
N89 C94 1.318 . S
C90 N89 1.328 . S
C90 C91 1.457 . S
C90 H95 0.929 . S
C91 C90 1.457 . S
C91 C92 1.291 . S
C91 H104 0.931 . S
C92 C91 1.291 . S
C92 C93 1.373 . S
C92 H105 0.929 . S
C93 C92 1.373 . S
C93 C94 1.396 . S
C93 C100 1.403 . S
C94 C84 1.476 . S
C94 N89 1.318 . S
C94 C93 1.396 . S
H95 C90 0.929 . S
O96 Mn72 2.385 . S
O96 C74 1.234 . S
O97 Mn72 2.209 . S
O97 Mn73 2.215 . S
O97 C74 1.283 . S
O98 Mn72 2.094 . S
O98 C76 1.240 . S
O99 Mn73 2.117 . S
O99 C76 1.264 . S
C100 C93 1.403 . S
C100 C101 1.399 . S
C100 H106 0.929 . S
C101 C81 1.449 . S
C101 C100 1.399 . S
C101 H107 0.930 . S
H102 C82 0.931 . S
H103 C83 0.930 . S
H104 C91 0.931 . S
H105 C92 0.929 . S
H106 C100 0.929 . S
H107 C101 0.930 . S
H108 O134 0.856 . S
H109 O137 0.854 . S
H110 C145 0.930 . S
H111 C146 0.930 . S
H112 C148 0.930 . S
H113 C149 0.930 . S
H114 C151 0.931 1_655 S
H115 C152 0.930 1_655 S
H116 C154 0.930 . S
H117 C155 0.929 . S
H118 C157 0.930 1_655 S
H119 C158 0.931 1_655 S
H120 C160 0.930 . S
H121 C161 0.929 . S
H122 C163 0.931 . S
H123 C164 0.930 . S
H124 C166 0.930 . S
H125 C167 0.932 . S
H126 C169 0.930 . S
H127 C170 0.929 . S
H128 C172 0.931 . S
H129 C173 0.930 . S
H130 C175 0.929 . S
H131 C176 0.931 . S
H132 C178 0.930 . S
H133 C179 0.929 . S
O134 H108 0.856 . S
O134 C180 1.300 . S
O135 C180 1.209 . S
O136 C181 1.196 1_655 S
O137 H109 0.854 . S
O137 C181 1.297 . S
C138 C139 1.404 . S
C138 C143 1.397 . S
C138 C144 1.492 . S
C139 C138 1.404 . S
C139 C140 1.396 . S
C139 C150 1.492 . S
C140 C139 1.396 . S
C140 C141 1.397 . S
C140 C156 1.509 . S
C141 C140 1.397 . S
C141 C142 1.412 . S
C141 C162 1.485 . S
C142 C141 1.412 . S
C142 C143 1.388 . S
C142 C168 1.490 . S
C143 C138 1.397 . S
C143 C142 1.388 . S
C143 C174 1.519 . S
C144 C138 1.492 . S
C144 C145 1.363 1_455 S
C144 C149 1.390 . S
C145 H110 0.930 . S
C145 C144 1.363 1_655 S
C145 C146 1.372 . S
C146 H111 0.930 . S
C146 C145 1.372 . S
C146 C147 1.383 1_655 S
C147 C146 1.383 1_455 S
C147 C148 1.395 . S
C148 H112 0.930 . S
C148 C147 1.395 . S
C148 C149 1.362 . S
C149 H113 0.930 . S
C149 C144 1.390 . S
C149 C148 1.362 . S
C150 C139 1.492 . S
C150 C151 1.377 . S
C150 C155 1.397 . S
C151 H114 0.931 1_455 S
C151 C150 1.377 . S
C151 C152 1.376 . S
C152 H115 0.930 1_455 S
C152 C151 1.376 . S
C152 C153 1.376 . S
C153 C152 1.376 . S
C153 C154 1.378 . S
C153 C180 1.486 . S
C154 H116 0.930 . S
C154 C153 1.378 . S
C154 C155 1.376 . S
C155 H117 0.929 . S
C155 C150 1.397 . S
C155 C154 1.376 . S
C156 C140 1.509 . S
C156 C157 1.391 . S
C156 C161 1.386 . S
C157 H118 0.930 1_455 S
C157 C156 1.391 . S
C157 C158 1.375 . S
C158 H119 0.931 1_455 S
C158 C157 1.375 . S
C158 C159 1.375 . S
C159 C158 1.375 . S
C159 C160 1.361 . S
C160 H120 0.930 . S
C160 C159 1.361 . S
C160 C161 1.399 . S
C161 H121 0.929 . S
C161 C156 1.386 . S
C161 C160 1.399 . S
C162 C141 1.485 . S
C162 C163 1.394 1_455 S
C162 C167 1.360 . S
C163 H122 0.931 . S
C163 C162 1.394 1_655 S
C163 C164 1.372 . S
C164 H123 0.930 . S
C164 C163 1.372 . S
C164 C165 1.397 1_655 S
C165 C164 1.397 1_455 S
C165 C166 1.390 . S
C165 C181 1.476 . S
C166 H124 0.930 . S
C166 C165 1.390 . S
C166 C167 1.366 . S
C167 H125 0.932 . S
C167 C162 1.360 . S
C167 C166 1.366 . S
C168 C142 1.490 . S
C168 C169 1.380 1_455 S
C168 C173 1.386 . S
C169 H126 0.930 . S
C169 C168 1.380 1_655 S
C169 C170 1.381 . S
C170 H127 0.929 . S
C170 C169 1.381 . S
C170 C171 1.371 . S
C171 C170 1.371 . S
C171 C172 1.380 1_655 S
C172 H128 0.931 . S
C172 C171 1.380 1_455 S
C172 C173 1.387 . S
C173 H129 0.930 . S
C173 C168 1.386 . S
C173 C172 1.387 . S
C174 C143 1.519 . S
C174 C175 1.377 1_455 S
C174 C179 1.361 . S
C175 H130 0.929 . S
C175 C174 1.377 1_655 S
C175 C176 1.386 . S
C176 H131 0.931 . S
C176 C175 1.386 . S
C176 C177 1.363 1_655 S
C177 C176 1.363 1_455 S
C177 C178 1.385 . S
C178 H132 0.930 . S
C178 C177 1.385 . S
C178 C179 1.396 . S
C179 H133 0.929 . S
C179 C174 1.361 . S
C179 C178 1.396 . S
C180 O134 1.300 . S
C180 O135 1.209 . S
C180 C153 1.486 . S
C181 O136 1.196 1_455 S
C181 O137 1.297 . S
C181 C165 1.476 . S
H182 O208 0.856 . S
H183 O211 0.854 . S
H184 C219 0.930 . S
H185 C220 0.930 . S
H186 C222 0.930 . S
H187 C223 0.930 . S
H188 C225 0.931 . S
H189 C226 0.930 . S
H190 C228 0.930 . S
H191 C229 0.929 . S
H192 C231 0.930 . S
H193 C232 0.931 . S
H194 C234 0.930 . S
H195 C235 0.929 . S
H196 C237 0.931 . S
H197 C238 0.930 . S
H198 C240 0.930 . S
H199 C241 0.932 . S
H200 C243 0.930 . S
H201 C244 0.929 . S
H202 C246 0.931 . S
H203 C247 0.930 . S
H204 C249 0.929 . S
H205 C250 0.931 . S
H206 C252 0.930 . S
H207 C253 0.929 . S
O208 H182 0.856 . S
O208 C254 1.300 . S
O209 C254 1.209 . S
O210 C255 1.199 . S
O211 H183 0.854 . S
O211 C255 1.297 . S
C212 C213 1.404 . S
C212 C217 1.397 . S
C212 C218 1.492 . S
C213 C212 1.404 . S
C213 C214 1.396 . S
C213 C224 1.492 . S
C214 C213 1.396 . S
C214 C215 1.397 . S
C214 C230 1.509 . S
C215 C214 1.397 . S
C215 C216 1.412 . S
C215 C236 1.485 . S
C216 C215 1.412 . S
C216 C217 1.388 . S
C216 C242 1.490 . S
C217 C212 1.397 . S
C217 C216 1.388 . S
C217 C248 1.519 . S
C218 C212 1.492 . S
C218 C219 1.363 . S
C218 C223 1.390 . S
C219 H184 0.930 . S
C219 C218 1.363 . S
C219 C220 1.372 . S
C220 H185 0.930 . S
C220 C219 1.372 . S
C220 C221 1.383 . S
C221 C220 1.383 . S
C221 C222 1.395 . S
C222 H186 0.930 . S
C222 C221 1.395 . S
C222 C223 1.362 . S
C223 H187 0.930 . S
C223 C218 1.390 . S
C223 C222 1.362 . S
C224 C213 1.492 . S
C224 C225 1.377 . S
C224 C229 1.397 . S
C225 H188 0.931 . S
C225 C224 1.377 . S
C225 C226 1.376 . S
C226 H189 0.930 . S
C226 C225 1.376 . S
C226 C227 1.376 . S
C227 C226 1.376 . S
C227 C228 1.378 . S
C227 C254 1.486 . S
C228 H190 0.930 . S
C228 C227 1.378 . S
C228 C229 1.376 . S
C229 H191 0.929 . S
C229 C224 1.397 . S
C229 C228 1.376 . S
C230 C214 1.509 . S
C230 C231 1.391 . S
C230 C235 1.386 . S
C231 H192 0.930 . S
C231 C230 1.391 . S
C231 C232 1.375 . S
C232 H193 0.931 . S
C232 C231 1.375 . S
C232 C233 1.375 . S
C233 C232 1.375 . S
C233 C234 1.361 . S
C234 H194 0.930 . S
C234 C233 1.361 . S
C234 C235 1.399 . S
C235 H195 0.929 . S
C235 C230 1.386 . S
C235 C234 1.399 . S
C236 C215 1.485 . S
C236 C237 1.394 . S
C236 C241 1.360 . S
C237 H196 0.931 . S
C237 C236 1.394 . S
C237 C238 1.372 . S
C238 H197 0.930 . S
C238 C237 1.372 . S
C238 C239 1.397 . S
C239 C238 1.397 . S
C239 C240 1.390 . S
C239 C255 1.476 . S
C240 H198 0.930 . S
C240 C239 1.390 . S
C240 C241 1.366 . S
C241 H199 0.932 . S
C241 C236 1.360 . S
C241 C240 1.366 . S
C242 C216 1.490 . S
C242 C243 1.380 . S
C242 C247 1.386 . S
C243 H200 0.930 . S
C243 C242 1.380 . S
C243 C244 1.381 . S
C244 H201 0.929 . S
C244 C243 1.381 . S
C244 C245 1.371 . S
C245 C244 1.371 . S
C245 C246 1.380 . S
C246 H202 0.931 . S
C246 C245 1.380 . S
C246 C247 1.387 . S
C247 H203 0.930 . S
C247 C242 1.386 . S
C247 C246 1.387 . S
C248 C217 1.519 . S
C248 C249 1.377 . S
C248 C253 1.361 . S
C249 H204 0.929 . S
C249 C248 1.377 . S
C249 C250 1.386 . S
C250 H205 0.931 . S
C250 C249 1.386 . S
C250 C251 1.363 . S
C251 C250 1.363 . S
C251 C252 1.385 . S
C252 H206 0.930 . S
C252 C251 1.385 . S
C252 C253 1.396 . S
C253 H207 0.929 . S
C253 C248 1.361 . S
C253 C252 1.396 . S
C254 O208 1.300 . S
C254 O209 1.209 . S
C254 C227 1.486 . S
C255 O210 1.199 . S
C255 O211 1.297 . S
C255 C239 1.476 . S
H256 O282 0.856 . S
H257 O285 0.854 . S
H258 C293 0.930 . S
H259 C294 0.930 . S
H260 C296 0.930 . S
H261 C297 0.930 . S
H262 C299 0.931 . S
H263 C300 0.957 . S
H264 C302 0.930 . S
H265 C303 0.929 . S
H266 C305 0.930 . S
H267 C306 0.931 . S
H268 C308 0.930 . S
H269 C309 0.929 . S
H270 C311 0.931 . S
H271 C312 0.930 . S
H272 C314 0.930 . S
H273 C315 0.932 . S
H274 C317 0.930 . S
H275 C318 0.929 . S
H276 C320 0.931 . S
H277 C321 0.930 . S
H278 C323 0.929 . S
H279 C324 0.931 . S
H280 C326 0.930 . S
H281 C327 0.929 . S
O282 H256 0.856 . S
O282 C328 1.300 . S
O283 C328 1.209 . S
O284 C329 1.199 . S
O285 H257 0.854 . S
O285 C329 1.297 . S
C286 C287 1.404 . S
C286 C291 1.397 . S
C286 C292 1.492 . S
C287 C286 1.404 . S
C287 C288 1.396 . S
C287 C298 1.492 . S
C288 C287 1.396 . S
C288 C289 1.397 . S
C288 C304 1.509 . S
C289 C288 1.397 . S
C289 C290 1.412 . S
C289 C310 1.485 . S
C290 C289 1.412 . S
C290 C291 1.388 . S
C290 C316 1.490 . S
C291 C286 1.397 . S
C291 C290 1.388 . S
C291 C322 1.519 . S
C292 C286 1.492 . S
C292 C293 1.363 . S
C292 C297 1.390 . S
C293 H258 0.930 . S
C293 C292 1.363 . S
C293 C294 1.372 . S
C294 H259 0.930 . S
C294 C293 1.372 . S
C294 C295 1.383 . S
C295 C294 1.383 . S
C295 C296 1.395 . S
C296 H260 0.930 . S
C296 C295 1.395 . S
C296 C297 1.362 . S
C297 H261 0.930 . S
C297 C292 1.390 . S
C297 C296 1.362 . S
C298 C287 1.492 . S
C298 C299 1.377 . S
C298 C303 1.397 . S
C299 H262 0.931 . S
C299 C298 1.377 . S
C299 C300 1.337 1_556 S
C300 H263 0.957 . S
C300 C299 1.337 1_554 S
C300 C301 1.389 . S
C301 C300 1.389 . S
C301 C302 1.378 1_554 S
C301 C328 1.486 . S
C302 H264 0.930 . S
C302 C301 1.378 1_556 S
C302 C303 1.376 . S
C303 H265 0.929 . S
C303 C298 1.397 . S
C303 C302 1.376 . S
C304 C288 1.509 . S
C304 C305 1.391 . S
C304 C309 1.386 . S
C305 H266 0.930 . S
C305 C304 1.391 . S
C305 C306 1.375 . S
C306 H267 0.931 . S
C306 C305 1.375 . S
C306 C307 1.375 . S
C307 C306 1.375 . S
C307 C308 1.361 . S
C308 H268 0.930 . S
C308 C307 1.361 . S
C308 C309 1.399 . S
C309 H269 0.929 . S
C309 C304 1.386 . S
C309 C308 1.399 . S
C310 C289 1.485 . S
C310 C311 1.394 . S
C310 C315 1.360 . S
C311 H270 0.931 . S
C311 C310 1.394 . S
C311 C312 1.372 . S
C312 H271 0.930 . S
C312 C311 1.372 . S
C312 C313 1.397 . S
C313 C312 1.397 . S
C313 C314 1.390 . S
C313 C329 1.476 . S
C314 H272 0.930 . S
C314 C313 1.390 . S
C314 C315 1.366 . S
C315 H273 0.932 . S
C315 C310 1.360 . S
C315 C314 1.366 . S
C316 C290 1.490 . S
C316 C317 1.380 . S
C316 C321 1.386 . S
C317 H274 0.930 . S
C317 C316 1.380 . S
C317 C318 1.381 . S
C318 H275 0.929 . S
C318 C317 1.381 . S
C318 C319 1.371 . S
C319 C318 1.371 . S
C319 C320 1.380 . S
C320 H276 0.931 . S
C320 C319 1.380 . S
C320 C321 1.387 . S
C321 H277 0.930 . S
C321 C316 1.386 . S
C321 C320 1.387 . S
C322 C291 1.519 . S
C322 C323 1.377 . S
C322 C327 1.361 . S
C323 H278 0.929 . S
C323 C322 1.377 . S
C323 C324 1.386 . S
C324 H279 0.931 . S
C324 C323 1.386 . S
C324 C325 1.363 . S
C325 C324 1.363 . S
C325 C326 1.385 . S
C326 H280 0.930 . S
C326 C325 1.385 . S
C326 C327 1.396 . S
C327 H281 0.929 . S
C327 C322 1.361 . S
C327 C326 1.396 . S
C328 O282 1.300 . S
C328 O283 1.209 . S
C328 C301 1.486 . S
C329 O284 1.199 . S
C329 O285 1.297 . S
C329 C313 1.476 . S
H330 C338 0.950 . S
H331 C343 0.950 1_655 S
H332 C340 0.950 . S
H333 C342 0.950 1_655 S
H334 C344 0.950 . S
H335 C346 0.950 . S
H336 C348 0.950 . S
H337 C349 0.950 . S
C338 H330 0.950 . S
C338 C339 1.386 . S
C338 C340 1.391 . S
C339 C338 1.386 . S
C339 C343 1.393 . S
C340 H332 0.950 . S
C340 C338 1.391 . S
C340 C341 1.400 . S
C341 C340 1.400 . S
C341 C342 1.398 . S
C341 C347 1.491 . S
C342 H333 0.950 1_455 S
C342 C341 1.398 . S
C342 C343 1.391 . S
C343 H331 0.950 1_455 S
C343 C339 1.393 . S
C343 C342 1.391 . S
C344 H334 0.950 . S
C344 C345 1.386 1_655 S
C344 C346 1.391 . S
C345 C344 1.386 1_455 S
C345 C349 1.393 . S
C346 H335 0.950 . S
C346 C344 1.391 . S
C346 C347 1.400 1_655 S
C347 C341 1.491 . S
C347 C346 1.400 1_455 S
C347 C348 1.398 . S
C348 H336 0.950 . S
C348 C347 1.398 . S
C348 C349 1.391 . S
C349 H337 0.950 . S
C349 C345 1.393 . S
C349 C348 1.391 . S
H350 C358 0.950 . S
H351 C363 0.950 . S
H352 C360 0.950 . S
H353 C362 0.950 . S
H354 C364 0.950 . S
H355 C366 0.950 . S
H356 C368 0.950 . S
H357 C369 0.950 . S
C358 H350 0.950 . S
C358 C359 1.386 . S
C358 C360 1.391 . S
C359 C358 1.386 . S
C359 C363 1.393 . S
C360 H352 0.950 . S
C360 C358 1.391 . S
C360 C361 1.400 . S
C361 C360 1.400 . S
C361 C362 1.398 . S
C361 C367 1.491 . S
C362 H353 0.950 . S
C362 C361 1.398 . S
C362 C363 1.391 . S
C363 H351 0.950 . S
C363 C359 1.393 . S
C363 C362 1.391 . S
C364 H354 0.950 . S
C364 C365 1.386 . S
C364 C366 1.391 . S
C365 C364 1.386 . S
C365 C369 1.393 . S
C366 H355 0.950 . S
C366 C364 1.391 . S
C366 C367 1.400 . S
C367 C361 1.491 . S
C367 C366 1.400 . S
C367 C368 1.398 . S
C368 H356 0.950 . S
C368 C367 1.398 . S
C368 C369 1.391 . S
C369 H357 0.950 . S
C369 C365 1.393 . S
C369 C368 1.391 . S
H370 C378 0.950 1_455 S
H371 C383 0.950 . S
H372 C380 0.950 . S
H373 C382 0.950 . S
H374 C384 0.950 . S
H375 C386 0.950 . S
H376 C388 0.950 . S
H377 C389 0.950 . S
C378 H370 0.950 1_655 S
C378 C379 1.386 . S
C378 C380 1.391 . S
C379 C378 1.386 . S
C379 C383 1.393 . S
C380 H372 0.950 . S
C380 C378 1.391 . S
C380 C381 1.400 . S
C381 C380 1.400 . S
C381 C382 1.398 . S
C381 C387 1.491 . S
C382 H373 0.950 . S
C382 C381 1.398 . S
C382 C383 1.391 . S
C383 H371 0.950 . S
C383 C379 1.393 . S
C383 C382 1.391 . S
C384 H374 0.950 . S
C384 C385 1.386 . S
C384 C386 1.391 . S
C385 C384 1.386 . S
C385 C389 1.393 . S
C386 H375 0.950 . S
C386 C384 1.391 . S
C386 C387 1.400 . S
C387 C381 1.491 . S
C387 C386 1.400 . S
C387 C388 1.398 . S
C388 H376 0.950 . S
C388 C387 1.398 . S
C388 C389 1.391 . S
C389 H377 0.950 . S
C389 C385 1.393 . S
C389 C388 1.391 . S
H390 C398 0.950 . S
H391 C403 0.950 . S
H392 C400 0.950 . S
H393 C402 0.950 . S
H394 C404 0.950 1_655 S
H395 C406 0.935 1_655 S
H396 C408 0.950 . S
H397 C409 0.950 . S
C398 H390 0.950 . S
C398 C399 1.386 . S
C398 C400 1.391 . S
C399 C398 1.386 . S
C399 C403 1.393 . S
C400 H392 0.950 . S
C400 C398 1.391 . S
C400 C401 1.400 . S
C401 C400 1.400 . S
C401 C402 1.398 . S
C401 C407 1.491 . S
C402 H393 0.950 . S
C402 C401 1.398 . S
C402 C403 1.391 . S
C403 H391 0.950 . S
C403 C399 1.393 . S
C403 C402 1.391 . S
C404 H394 0.950 1_455 S
C404 C405 1.386 . S
C404 C406 1.391 . S
C405 C404 1.386 . S
C405 C409 1.393 . S
C406 H395 0.935 1_455 S
C406 C404 1.391 . S
C406 C407 1.400 . S
C407 C401 1.491 . S
C407 C406 1.400 . S
C407 C408 1.398 . S
C408 H396 0.950 . S
C408 C407 1.398 . S
C408 C409 1.391 . S
C409 H397 0.950 . S
C409 C405 1.393 . S
C409 C408 1.391 . S
H410 C418 0.950 1_565 S
H411 C423 0.950 . S
H412 C420 0.950 1_565 S
H413 C422 0.950 . S
H414 C424 0.950 . S
H415 C426 0.950 . S
H416 C428 0.950 . S
H417 C429 0.950 . S
C418 H410 0.950 1_545 S
C418 C419 1.386 . S
C418 C420 1.391 . S
C419 C418 1.386 . S
C419 C423 1.393 . S
C420 H412 0.950 1_545 S
C420 C418 1.391 . S
C420 C421 1.400 . S
C421 C420 1.400 . S
C421 C422 1.398 . S
C421 C427 1.491 . S
C422 H413 0.950 . S
C422 C421 1.398 . S
C422 C423 1.391 . S
C423 H411 0.950 . S
C423 C419 1.393 . S
C423 C422 1.391 . S
C424 H414 0.950 . S
C424 C425 1.386 . S
C424 C426 1.391 . S
C425 C424 1.386 . S
C425 C429 1.393 . S
C426 H415 0.950 . S
C426 C424 1.391 . S
C426 C427 1.400 . S
C427 C421 1.491 . S
C427 C426 1.400 . S
C427 C428 1.398 . S
C428 H416 0.950 . S
C428 C427 1.398 . S
C428 C429 1.391 . S
C429 H417 0.950 . S
C429 C425 1.393 . S
C429 C428 1.391 . S
H430 C438 0.950 . S
H431 C443 0.950 . S
H432 C440 0.950 . S
H433 C442 0.950 . S
H434 C444 0.950 . S
H435 C446 0.950 . S
H436 C448 0.950 . S
H437 C449 0.950 . S
C438 H430 0.950 . S
C438 C439 1.386 . S
C438 C440 1.391 . S
C439 C438 1.386 . S
C439 C443 1.393 . S
C440 H432 0.950 . S
C440 C438 1.391 . S
C440 C441 1.400 . S
C441 C440 1.400 . S
C441 C442 1.398 . S
C441 C447 1.491 . S
C442 H433 0.950 . S
C442 C441 1.398 . S
C442 C443 1.391 . S
C443 H431 0.950 . S
C443 C439 1.393 . S
C443 C442 1.391 . S
C444 H434 0.950 . S
C444 C445 1.386 . S
C444 C446 1.391 . S
C445 C444 1.386 . S
C445 C449 1.393 . S
C446 H435 0.950 . S
C446 C444 1.391 . S
C446 C447 1.400 . S
C447 C441 1.491 . S
C447 C446 1.400 . S
C447 C448 1.398 . S
C448 H436 0.950 . S
C448 C447 1.398 . S
C448 C449 1.391 . S
C449 H437 0.950 . S
C449 C445 1.393 . S
C449 C448 1.391 . S
H450 C458 0.950 1_455 S
H451 C463 0.950 . S
H452 C460 0.950 . S
H453 C462 0.950 . S
H454 C464 0.950 . S
H455 C466 0.950 . S
H456 C468 0.950 . S
H457 C469 0.950 . S
C458 H450 0.950 1_655 S
C458 C459 1.386 . S
C458 C460 1.391 . S
C459 C458 1.386 . S
C459 C463 1.393 . S
C460 H452 0.950 . S
C460 C458 1.391 . S
C460 C461 1.400 . S
C461 C460 1.400 . S
C461 C462 1.398 . S
C461 C467 1.491 . S
C462 H453 0.950 . S
C462 C461 1.398 . S
C462 C463 1.391 . S
C463 H451 0.950 . S
C463 C459 1.393 . S
C463 C462 1.391 . S
C464 H454 0.950 . S
C464 C465 1.386 . S
C464 C466 1.391 . S
C465 C464 1.386 . S
C465 C469 1.393 . S
C466 H455 0.950 . S
C466 C464 1.391 . S
C466 C467 1.400 . S
C467 C461 1.491 . S
C467 C466 1.400 . S
C467 C468 1.398 . S
C468 H456 0.950 . S
C468 C467 1.398 . S
C468 C469 1.391 . S
C469 H457 0.950 . S
C469 C465 1.393 . S
C469 C468 1.391 . S
H470 C478 0.950 1_455 S
H471 C483 0.950 . S
H472 C480 0.950 . S
H473 C482 0.950 . S
H474 C484 0.950 . S
H475 C486 0.950 1_554 S
H476 C488 0.950 . S
H477 C489 0.950 . S
C478 H470 0.950 1_655 S
C478 C479 1.386 . S
C478 C480 1.391 . S
C479 C478 1.386 . S
C479 C483 1.393 . S
C480 H472 0.950 . S
C480 C478 1.391 . S
C480 C481 1.400 . S
C481 C480 1.400 . S
C481 C482 1.398 . S
C481 C487 1.491 1_554 S
C482 H473 0.950 . S
C482 C481 1.398 . S
C482 C483 1.391 . S
C483 H471 0.950 . S
C483 C479 1.393 . S
C483 C482 1.391 . S
C484 H474 0.950 . S
C484 C485 1.386 . S
C484 C486 1.391 . S
C485 C484 1.386 . S
C485 C489 1.393 . S
C486 H475 0.950 1_556 S
C486 C484 1.391 . S
C486 C487 1.400 . S
C487 C481 1.491 1_556 S
C487 C486 1.400 . S
C487 C488 1.398 . S
C488 H476 0.950 . S
C488 C487 1.398 . S
C488 C489 1.391 . S
C489 H477 0.950 . S
C489 C485 1.393 . S
C489 C488 1.391 . S
H490 C498 0.950 . S
H491 C503 0.950 . S
H492 C500 0.950 . S
H493 C502 0.950 . S
H494 C504 0.950 . S
H495 C506 0.950 . S
H496 C508 0.950 . S
H497 C509 0.950 . S
C498 H490 0.950 . S
C498 C499 1.386 1_455 S
C498 C500 1.391 . S
C499 C498 1.386 1_655 S
C499 C503 1.393 . S
C500 H492 0.950 . S
C500 C498 1.391 . S
C500 C501 1.400 1_455 S
C501 C500 1.400 1_655 S
C501 C502 1.398 . S
C501 C507 1.491 . S
C502 H493 0.950 . S
C502 C501 1.398 . S
C502 C503 1.391 . S
C503 H491 0.950 . S
C503 C499 1.393 . S
C503 C502 1.391 . S
C504 H494 0.950 . S
C504 C505 1.386 . S
C504 C506 1.391 . S
C505 C504 1.386 . S
C505 C509 1.393 1_655 S
C506 H495 0.950 . S
C506 C504 1.391 . S
C506 C507 1.400 . S
C507 C501 1.491 . S
C507 C506 1.400 . S
C507 C508 1.398 1_655 S
C508 H496 0.950 . S
C508 C507 1.398 1_455 S
C508 C509 1.391 . S
C509 H497 0.950 . S
C509 C505 1.393 1_455 S
C509 C508 1.391 . S
H510 C518 0.950 . S
H511 C523 0.950 . S
H512 C520 0.950 . S
H513 C522 0.950 . S
H514 C524 0.950 . S
H515 C526 0.950 . S
H516 C528 0.950 . S
H517 C529 0.950 . S
C518 H510 0.950 . S
C518 C519 1.386 . S
C518 C520 1.391 . S
C519 C518 1.386 . S
C519 C523 1.393 . S
C520 H512 0.950 . S
C520 C518 1.391 . S
C520 C521 1.400 . S
C521 C520 1.400 . S
C521 C522 1.398 . S
C521 C527 1.491 . S
C522 H513 0.950 . S
C522 C521 1.398 . S
C522 C523 1.391 . S
C523 H511 0.950 . S
C523 C519 1.393 . S
C523 C522 1.391 . S
C524 H514 0.950 . S
C524 C525 1.386 . S
C524 C526 1.391 . S
C525 C524 1.386 . S
C525 C529 1.393 . S
C526 H515 0.950 . S
C526 C524 1.391 . S
C526 C527 1.400 . S
C527 C521 1.491 . S
C527 C526 1.400 . S
C527 C528 1.398 . S
C528 H516 0.950 . S
C528 C527 1.398 . S
C528 C529 1.391 . S
C529 H517 0.950 . S
C529 C525 1.393 . S
C529 C528 1.391 . S
H530 C538 0.950 . S
H531 C543 0.950 . S
H532 C540 0.950 . S
H533 C542 0.950 . S
H534 C544 0.950 . S
H535 C546 0.950 . S
H536 C548 0.950 . S
H537 C549 0.950 . S
C538 H530 0.950 . S
C538 C539 1.386 . S
C538 C540 1.391 . S
C539 C538 1.386 . S
C539 C543 1.393 . S
C540 H532 0.950 . S
C540 C538 1.391 . S
C540 C541 1.400 . S
C541 C540 1.400 . S
C541 C542 1.398 . S
C541 C547 1.491 . S
C542 H533 0.950 . S
C542 C541 1.398 . S
C542 C543 1.391 . S
C543 H531 0.950 . S
C543 C539 1.393 . S
C543 C542 1.391 . S
C544 H534 0.950 . S
C544 C545 1.386 . S
C544 C546 1.391 1_556 S
C545 C544 1.386 . S
C545 C549 1.393 . S
C546 H535 0.950 . S
C546 C544 1.391 1_554 S
C546 C547 1.400 . S
C547 C541 1.491 . S
C547 C546 1.400 . S
C547 C548 1.398 . S
C548 H536 0.950 . S
C548 C547 1.398 . S
C548 C549 1.391 1_554 S
C549 H537 0.950 . S
C549 C545 1.393 . S
C549 C548 1.391 1_556 S
H550 C558 0.950 . S
H551 C563 0.950 . S
H552 C560 0.950 . S
H553 C562 0.950 . S
H554 C564 0.950 . S
H555 C566 0.950 . S
H556 C568 0.950 . S
H557 C569 0.950 . S
C558 H550 0.950 . S
C558 C559 1.386 1_655 S
C558 C560 1.391 . S
C559 C558 1.386 1_455 S
C559 C563 1.393 . S
C560 H552 0.950 . S
C560 C558 1.391 . S
C560 C561 1.400 1_655 S
C561 C560 1.400 1_455 S
C561 C562 1.398 . S
C561 C567 1.491 . S
C562 H553 0.950 . S
C562 C561 1.398 . S
C562 C563 1.391 . S
C563 H551 0.950 . S
C563 C559 1.393 . S
C563 C562 1.391 . S
C564 H554 0.950 . S
C564 C565 1.386 . S
C564 C566 1.391 . S
C565 C564 1.386 . S
C565 C569 1.393 1_455 S
C566 H555 0.950 . S
C566 C564 1.391 . S
C566 C567 1.400 . S
C567 C561 1.491 . S
C567 C566 1.400 . S
C567 C568 1.398 1_455 S
C568 H556 0.950 . S
C568 C567 1.398 1_655 S
C568 C569 1.391 . S
C569 H557 0.950 . S
C569 C565 1.393 1_655 S
C569 C568 1.391 . S
C345 C147 1.450 . S
C339 C14 1.517 . S
C359 C40 1.424 . S
C365 C221 1.368 . S
C379 C76 2.076 1_665 S
C385 C325 2.100 . S
C399 C3 0.796 1_565 S
C405 C159 0.803 . S
C425 C233 0.848 . S
C419 C38 0.864 . S
C439 C74 1.551 . S
C445 C319 1.452 . S
C465 C251 2.105 . S
C459 C86 2.073 1_655 S
C479 C2 1.511 1_665 S
C485 C295 1.446 . S
C505 C171 1.416 . S
C499 C39 1.543 . S
C525 C245 1.386 . S
C519 C75 1.472 . S
C545 C307 0.811 . S
C539 C4 0.823 . S
C559 C50 2.121 . S
C565 C177 2.176 . S
