# Generated by pormake.
# Topology pth, (4,4)-cn, num edge types: 1
# Building blocks:
#     Node 0, Type 0, BuildingBlock: UXUYUI_clean_sbu_0, # of connection points: 4
#     Node 1, Type 0, BuildingBlock: UXUYUI_clean_sbu_0, # of connection points: 4
#     Node 2, Type 0, BuildingBlock: UXUYUI_clean_sbu_0, # of connection points: 4
#     Node 3, Type 1, BuildingBlock: NAHDIM_clean_linker_0, # of connection points: 4
#     Node 4, Type 1, BuildingBlock: NAHDIM_clean_linker_0, # of connection points: 4
#     Node 5, Type 1, BuildingBlock: NAHDIM_clean_linker_0, # of connection points: 4
#     Edge 6, Type (0, 1), BuildingBlock: TEMPAE_clean_linker_10, # of connection points: 2
#     Edge 7, Type (0, 1), BuildingBlock: TEMPAE_clean_linker_10, # of connection points: 2
#     Edge 8, Type (0, 1), BuildingBlock: TEMPAE_clean_linker_10, # of connection points: 2
#     Edge 9, Type (0, 1), BuildingBlock: TEMPAE_clean_linker_10, # of connection points: 2
#     Edge 10, Type (0, 1), BuildingBlock: TEMPAE_clean_linker_10, # of connection points: 2
#     Edge 11, Type (0, 1), BuildingBlock: TEMPAE_clean_linker_10, # of connection points: 2
#     Edge 12, Type (0, 1), BuildingBlock: TEMPAE_clean_linker_10, # of connection points: 2
#     Edge 13, Type (0, 1), BuildingBlock: TEMPAE_clean_linker_10, # of connection points: 2
#     Edge 14, Type (0, 1), BuildingBlock: TEMPAE_clean_linker_10, # of connection points: 2
#     Edge 15, Type (0, 1), BuildingBlock: TEMPAE_clean_linker_10, # of connection points: 2
#     Edge 16, Type (0, 1), BuildingBlock: TEMPAE_clean_linker_10, # of connection points: 2
#     Edge 17, Type (0, 1), BuildingBlock: TEMPAE_clean_linker_10, # of connection points: 2
# Relax obj value: 0.093
# Max RMSD: 0.220
# Mean RMSD: 0.135
data_MOF--net-pth--node1-UXUYUI_clean_sbu_0--node2-NAHDIM_clean_linker_0--edge1-TEMPAE_clean_linker_10
_symmetry_space_group_name_H-M    P1
_symmetry_Int_Tables_number       1
_symmetry_cell_setting            triclinic
loop_
_symmetry_equiv_pos_as_xyz
'x, y, z'
_cell_length_a     37.159985
_cell_length_b     37.159622
_cell_length_c     94.661273
_cell_angle_alpha  89.784642
_cell_angle_beta   90.246025
_cell_angle_gamma 120.0326
loop_
_atom_site_label
_atom_site_type_symbol
_atom_site_fract_x
_atom_site_fract_y
_atom_site_fract_z
_atom_type_partial_charge
Li0 Li 0.05142 0.06323 0.0491 0.0
Li1 Li 0.00678 0.06656 0.06728 0.0
Li2 Li 0.02788 0.01204 0.06861 0.0
Li3 Li 0.97646 0.00777 0.05152 0.0
C4 C 0.10391 0.09437 0.07376 0.0
N5 N 0.18597 0.13624 0.08254 0.0
C6 C 0.12217 0.13553 0.07839 0.0
C7 C 0.12721 0.07428 0.07389 0.0
C8 C 0.16375 0.15624 0.08269 0.0
C9 C 0.16868 0.09602 0.07828 0.0
C10 C 0.98949 0.09678 0.04408 0.0
C11 C 0.93894 0.11935 0.04473 0.0
N12 N 0.96804 0.15723 0.03973 0.0
C13 C 0.01878 0.13577 0.03881 0.0
C14 C 0.94914 0.08833 0.04694 0.0
C15 C 0.00738 0.16598 0.03674 0.0
C16 C 0.09083 0.0803 0.02271 0.0
N17 N 0.09374 0.09589 0.0359 0.0
C18 C 0.15035 0.16169 0.02882 0.0
C19 C 0.12304 0.13554 0.03916 0.0
C20 C 0.14712 0.14696 0.01496 0.0
C21 C 0.11749 0.10538 0.01203 0.0
H22 H 0.06672 0.04885 0.02036 0.0
H23 H 0.12374 0.14766 0.04956 0.0
C24 C 0.97378 0.09222 0.08961 0.0
N25 N -0.00014 0.10509 0.07833 0.0
C26 C 0.97442 0.12131 0.09908 0.0
C27 C 0.02755 0.17613 0.08482 0.0
C28 C 0.02584 0.14609 0.07564 0.0
C29 C 0.00252 0.1638 0.09694 0.0
H30 H 0.95403 0.05936 0.09164 0.0
H31 H 0.04683 0.15539 0.06677 0.0
C32 C 0.04638 0.9821 0.04322 0.0
N33 N 0.08756 0.94258 0.03334 0.0
C34 C 0.02392 0.94148 0.03805 0.0
C35 C 0.0898 0.00285 0.0431 0.0
C36 C 0.04529 0.92196 0.03318 0.0
C37 C 0.11004 0.98229 0.03814 0.0
C38 C 0.93346 0.97656 0.07552 0.0
C39 C 0.92605 0.93788 0.08038 0.0
C40 C 0.90022 0.98376 0.07383 0.0
C41 C 0.8853 0.90673 0.08323 0.0
C42 C 0.85992 0.95182 0.07679 0.0
N43 N 0.85335 0.91427 0.08137 0.0
C44 C 0.05084 0.9947 0.09472 0.0
C45 C 0.03277 0.94158 0.07772 0.0
C46 C 0.05324 0.96969 0.10528 0.0
N47 N 0.04004 0.98003 0.08133 0.0
C48 C 0.03497 0.91557 0.08794 0.0
C49 C 0.04418 0.92916 0.102 0.0
H50 H 0.05576 0.02518 0.09731 0.0
H51 H 0.02287 0.93009 0.06715 0.0
C52 C 0.91204 0.97967 0.03077 0.0
N53 N 0.92929 0.96819 0.04128 0.0
C54 C 0.88192 0.94954 0.02188 0.0
C55 C 0.88706 0.89664 0.03521 0.0
C56 C 0.91687 0.92763 0.04381 0.0
C57 C 0.87011 0.90756 0.02383 0.0
H58 H 0.92308 0.01224 0.02884 0.0
H59 H 0.93171 0.91951 0.05207 0.0
O60 O 0.06305 0.07354 0.06966 0.0
O61 O 0.00016 0.0669 0.04626 0.0
O62 O 0.02583 0.00171 0.04795 0.0
O63 O 0.97313 0.00737 0.0726 0.0
H64 H 0.10457 0.15147 0.07859 0.0
H65 H 0.11337 0.04209 0.07082 0.0
H66 H 0.17832 0.1882 0.08619 0.0
H67 H 0.18705 0.08084 0.07839 0.0
H68 H 0.90787 0.1133 0.04697 0.0
H69 H 0.05005 0.14274 0.03642 0.0
H70 H 0.92594 0.05813 0.0508 0.0
H71 H 0.0298 0.19637 0.03275 0.0
H72 H 0.17212 0.19376 0.03146 0.0
H73 H 0.1141 0.09278 0.0015 0.0
H74 H 0.95496 0.11058 0.10839 0.0
H75 H 0.04941 0.20861 0.08274 0.0
H76 H 0.99034 0.92507 0.03784 0.0
H77 H 0.10777 0.03468 0.0466 0.0
H78 H 0.02827 0.89043 0.02925 0.0
H79 H 0.14364 0.998 0.03802 0.0
H80 H 0.95141 0.93184 0.08185 0.0
H81 H 0.90547 0.0137 0.07031 0.0
H82 H 0.87909 0.87656 0.08691 0.0
H83 H 0.83387 0.95691 0.07547 0.0
H84 H 0.06063 0.98134 0.11599 0.0
H85 H 0.027 0.88427 0.08503 0.0
H86 H 0.86984 0.95918 0.01312 0.0
H87 H 0.87853 0.86457 0.03711 0.0
Li88 Li 0.00874 0.01425 0.38448 0.0
Li89 Li 0.06081 0.0582 0.401 0.0
Li90 Li 0.98646 0.04356 0.40298 0.0
Li91 Li 0.03537 0.08776 0.38369 0.0
C92 C 0.99662 0.96459 0.40718 0.0
N93 N 0.97163 0.88162 0.41105 0.0
C94 C 0.02151 0.94881 0.4024 0.0
C95 C 0.95911 0.93826 0.414 0.0
C96 C 0.00828 0.90674 0.40442 0.0
C97 C 0.94702 0.89638 0.41585 0.0
C98 C 0.10616 0.06726 0.37849 0.0
C99 C 0.17978 0.11636 0.37914 0.0
N100 N 0.18757 0.08554 0.37551 0.0
C101 C 0.11491 0.03609 0.37471 0.0
C102 C 0.13885 0.10775 0.38067 0.0
C103 C 0.15626 0.04596 0.37327 0.0
C104 C 0.01172 0.974 0.36017 0.0
N105 N 0.99002 0.96708 0.37235 0.0
C106 C 0.94798 0.89495 0.3668 0.0
C107 C 0.95749 0.92883 0.37552 0.0
C108 C 0.97168 0.90082 0.35459 0.0
C109 C 0.0032 0.94119 0.35113 0.0
H110 H 0.03643 0.005 0.35764 0.0
H111 H 0.93941 0.92439 0.38493 0.0
C112 C 0.11584 0.09403 0.42371 0.0
N113 N 0.10621 0.06707 0.41277 0.0
C114 C 0.14503 0.09807 0.43383 0.0
C115 C 0.1552 0.04783 0.42094 0.0
C116 C 0.12536 0.04429 0.41119 0.0
C117 C 0.16458 0.07427 0.43259 0.0
H118 H 0.09962 0.11119 0.42488 0.0
H119 H 0.11646 0.02217 0.40272 0.0
C120 C 0.94829 0.02019 0.37248 0.0
N121 N 0.89323 0.97099 0.35177 0.0
C122 C 0.95875 0.02921 0.35824 0.0
C123 C 0.9098 0.98639 0.37622 0.0
C124 C 0.93049 0.00389 0.34792 0.0
C125 C 0.88239 0.96183 0.36558 0.0
C126 C 0.05049 0.13814 0.40586 0.0
C127 C 0.01967 0.14798 0.40894 0.0
C128 C 0.09159 0.17002 0.40413 0.0
C129 C 0.0304 0.18967 0.41 0.0
C130 C 0.10107 0.21133 0.40525 0.0
N131 N 0.07052 0.22022 0.40812 0.0
C132 C 0.95118 0.03113 0.42967 0.0
C133 C 0.91335 0.043 0.4118 0.0
C134 C 0.92476 0.03129 0.44005 0.0
N135 N 0.94538 0.03755 0.41592 0.0
C136 C 0.88622 0.04357 0.42186 0.0
C137 C 0.89232 0.03853 0.43624 0.0
H138 H 0.97711 0.02707 0.43258 0.0
H139 H 0.90992 0.04856 0.40078 0.0
C140 C 0.07659 0.14253 0.36107 0.0
N141 N 0.04774 0.13268 0.37137 0.0
C142 C 0.08231 0.17182 0.35075 0.0
C143 C 0.02893 0.18071 0.36197 0.0
C144 C 0.02406 0.15106 0.37201 0.0
C145 C 0.05785 0.19084 0.35102 0.0
H146 H 0.094 0.12645 0.36051 0.0
H147 H 0.00021 0.14141 0.37997 0.0
O148 O 0.00884 0.0056 0.40526 0.0
O149 O 0.06585 0.05823 0.38 0.0
O150 O 0.97593 0.04395 0.38273 0.0
O151 O 0.04052 0.0975 0.40466 0.0
H152 H 0.05022 0.9686 0.39689 0.0
H153 H 0.93947 0.95 0.41774 0.0
H154 H 0.02705 0.89402 0.40065 0.0
H155 H 0.91803 0.8756 0.42106 0.0
H156 H 0.20535 0.14756 0.38084 0.0
H157 H 0.09014 0.00444 0.37315 0.0
H158 H 0.13267 0.13228 0.3835 0.0
H159 H 0.16347 0.02209 0.37044 0.0
H160 H 0.92285 0.86443 0.36969 0.0
H161 H 0.02232 0.94714 0.34184 0.0
H162 H 0.15142 0.11864 0.44274 0.0
H163 H 0.16907 0.02838 0.4198 0.0
H164 H 0.98854 0.05523 0.35521 0.0
H165 H 0.90142 0.97894 0.38722 0.0
H166 H 0.93822 0.01031 0.33685 0.0
H167 H 0.85257 0.9354 0.3683 0.0
H168 H 0.98774 0.12374 0.41037 0.0
H169 H 0.11593 0.16295 0.40198 0.0
H170 H 0.00681 0.19773 0.41228 0.0
H171 H 0.13272 0.23632 0.40387 0.0
H172 H 0.93022 0.02669 0.45098 0.0
H173 H 0.86195 0.04975 0.41848 0.0
H174 H 0.10484 0.17873 0.34246 0.0
H175 H 0.00881 0.19399 0.36236 0.0
Li176 Li 0.04185 0.04046 0.71689 0.0
Li177 Li 0.04194 0.08611 0.73536 0.0
Li178 Li 0.98367 0.01288 0.73406 0.0
Li179 Li 0.99022 0.06586 0.71719 0.0
C180 C 0.05671 0.00693 0.74186 0.0
N181 N 0.08233 0.95207 0.75042 0.0
C182 C 0.09185 0.02059 0.75045 0.0
C183 C 0.03433 0.96525 0.73779 0.0
C184 C 0.10441 0.99243 0.75461 0.0
C185 C 0.04782 0.93802 0.74218 0.0
C186 C 0.0842 0.13742 0.71455 0.0
C187 C 0.11206 0.21126 0.71699 0.0
N188 N 0.15099 0.21756 0.71489 0.0
C189 C 0.12441 0.14462 0.71228 0.0
C190 C 0.07787 0.17098 0.7168 0.0
C191 C 0.1578 0.18536 0.71254 0.0
C192 C 0.06656 0.0191 0.69156 0.0
N193 N 0.07645 0.02888 0.70539 0.0
C194 C 0.13849 0.0254 0.70278 0.0
C195 C 0.11182 0.03258 0.71105 0.0
C196 C 0.12899 0.0149 0.68848 0.0
C197 C 0.09256 0.0119 0.68284 0.0
H198 H 0.03856 0.0171 0.68729 0.0
H199 H 0.11981 0.04198 0.72192 0.0
C200 C 0.06794 0.15026 0.75627 0.0
N201 N 0.07934 0.1285 0.74766 0.0
C202 C 0.09699 0.18008 0.7655 0.0
C203 C 0.14863 0.16449 0.75665 0.0
C204 C 0.11871 0.13508 0.74767 0.0
C205 C 0.13786 0.18713 0.76585 0.0
H206 H 0.03626 0.14407 0.75612 0.0
H207 H 0.12677 0.11722 0.74071 0.0
C208 C 0.95563 0.97197 0.7068 0.0
N209 N 0.90447 0.89692 0.69359 0.0
C210 C 0.91587 0.96211 0.70226 0.0
C211 C 0.9696 0.94389 0.70435 0.0
C212 C 0.8904 0.92395 0.69569 0.0
C213 C 0.94322 0.90606 0.69774 0.0
C214 C 0.95162 0.07468 0.73996 0.0
C215 C 0.91166 0.04433 0.74407 0.0
C216 C 0.96057 0.11558 0.73785 0.0
C217 C 0.88107 0.05532 0.74579 0.0
C218 C 0.92911 0.12532 0.73965 0.0
N219 N 0.89034 0.09523 0.74354 0.0
C220 C 0.95977 0.96233 0.75809 0.0
C221 C 0.90822 0.93723 0.74016 0.0
C222 C 0.93449 0.92861 0.76675 0.0
N223 N 0.94654 0.96574 0.74501 0.0
C224 C 0.88179 0.90308 0.7485 0.0
C225 C 0.89496 0.89838 0.76197 0.0
H226 H 0.99001 0.98594 0.76182 0.0
H227 H 0.8979 0.94117 0.72991 0.0
C228 C 0.98038 0.10839 0.69423 0.0
N229 N 0.95985 0.08189 0.70505 0.0
C230 C 0.95838 0.11651 0.68391 0.0
C231 C 0.89477 0.07111 0.69639 0.0
C232 C 0.91794 0.06374 0.70639 0.0
C233 C 0.91489 0.09707 0.68479 0.0
H234 H 0.01368 0.12195 0.6933 0.0
H235 H 0.90219 0.04191 0.71485 0.0
O236 O 0.04414 0.03423 0.73765 0.0
O237 O 0.05122 0.0977 0.71462 0.0
O238 O 0.98122 0.00953 0.71307 0.0
O239 O 0.98192 0.06446 0.73821 0.0
H240 H 0.10933 0.05262 0.75386 0.0
H241 H 0.00646 0.95389 0.73151 0.0
H242 H 0.13167 0.00264 0.7612 0.0
H243 H 0.03073 0.90568 0.7391 0.0
H244 H 0.10764 0.23752 0.7188 0.0
H245 H 0.12983 0.119 0.71047 0.0
H246 H 0.0469 0.16595 0.71841 0.0
H247 H 0.18913 0.19138 0.71089 0.0
H248 H 0.16677 0.02896 0.70743 0.0
H249 H 0.08419 0.00388 0.67186 0.0
H250 H 0.08738 0.19668 0.7725 0.0
H251 H 0.17993 0.16944 0.75638 0.0
H252 H 0.90457 0.98344 0.70392 0.0
H253 H 0.00062 0.95129 0.70737 0.0
H254 H 0.85945 0.91584 0.69225 0.0
H255 H 0.95364 0.88405 0.69583 0.0
H256 H 0.90428 0.0126 0.74586 0.0
H257 H 0.99139 0.13949 0.73479 0.0
H258 H 0.84994 0.03212 0.74889 0.0
H259 H 0.93553 0.15679 0.73796 0.0
H260 H 0.94551 0.92661 0.77717 0.0
H261 H 0.85151 0.88047 0.74443 0.0
H262 H 0.97506 0.13682 0.67515 0.0
H263 H 0.86122 0.05482 0.69731 0.0
C264 C 0.99014 0.64739 0.31208 0.0
C265 C 0.0024 0.68378 0.30186 0.0
C266 C 0.98951 0.6495 0.27911 0.0
C267 C 0.0303 0.66439 0.27438 0.0
C268 C 0.03933 0.6413 0.26481 0.0
C269 C 0.00685 0.60272 0.25987 0.0
C270 C 0.96537 0.58884 0.264 0.0
C271 C 0.95719 0.61277 0.27349 0.0
C272 C 0.08373 0.65749 0.26029 0.0
C273 C 0.92999 0.54802 0.25879 0.0
C274 C 0.02973 0.34092 0.29924 0.0
C275 C 0.01712 0.36385 0.28942 0.0
C276 C 0.04464 0.43164 0.27812 0.0
C277 C 0.00857 0.42039 0.2701 0.0
C278 C 0.00568 0.44943 0.26141 0.0
C279 C 0.03993 0.49032 0.26042 0.0
C280 C 0.07669 0.5015 0.26815 0.0
C281 C 0.07845 0.47197 0.27697 0.0
C282 C 0.96564 0.43651 0.2535 0.0
C283 C 0.11387 0.54472 0.2672 0.0
C284 C 0.07591 0.44116 0.17295 0.0
C285 C 0.03444 0.42497 0.1771 0.0
C286 C 0.02085 0.45115 0.18261 0.0
C287 C 0.04953 0.49416 0.1841 0.0
C288 C 0.09072 0.51076 0.17917 0.0
C289 C 0.10322 0.48397 0.17347 0.0
C290 C 0.97629 0.43269 0.18729 0.0
C291 C 0.12196 0.5565 0.18045 0.0
C292 C 0.9228 0.70594 0.18227 0.0
C293 C 0.96026 0.70591 0.17564 0.0
C294 C 0.96545 0.64346 0.17339 0.0
C295 C 0.93972 0.60061 0.17495 0.0
C296 C 0.9556 0.57584 0.18005 0.0
C297 C 0.99842 0.59455 0.18335 0.0
C298 C 0.02527 0.63724 0.18046 0.0
C299 C 0.00844 0.66138 0.17555 0.0
C300 C 0.92625 0.5302 0.18272 0.0
C301 C 0.07132 0.65775 0.18332 0.0
C302 C 0.01685 0.57531 0.25148 0.0
C303 C 0.02601 0.54836 0.25891 0.0
C304 C 0.0361 0.5217 0.25186 0.0
C305 C 0.03843 0.52268 0.23697 0.0
C306 C 0.05056 0.49777 0.22958 0.0
C307 C 0.05112 0.49772 0.2149 0.0
C308 C 0.03896 0.52212 0.20703 0.0
C309 C 0.03773 0.52096 0.19209 0.0
C310 C 0.02505 0.54523 0.18459 0.0
C311 C 0.01373 0.57102 0.19167 0.0
C312 C 0.01535 0.57306 0.20661 0.0
C313 C 0.00457 0.59904 0.21407 0.0
C314 C 0.00576 0.60044 0.22876 0.0
C315 C 0.01687 0.57525 0.23656 0.0
C316 C 0.02789 0.54891 0.22928 0.0
C317 C 0.02761 0.54819 0.21429 0.0
C318 C 0.12002 0.38007 0.1792 0.0
C319 C 0.0801 0.37758 0.17356 0.0
O320 O 0.98057 0.66943 0.28929 0.0
O321 O 0.94773 0.66675 0.17023 0.0
O322 O 0.09058 0.4165 0.16829 0.0
O323 O 0.04776 0.40475 0.28712 0.0
H324 H 0.03637 0.69855 0.29995 0.0
H325 H 0.99875 0.6252 0.30755 0.0
H326 H 0.9561 0.63055 0.31403 0.0
H327 H 0.00678 0.65882 0.32231 0.0
H328 H 0.05519 0.69388 0.27817 0.0
H329 H 0.92572 0.60197 0.27705 0.0
H330 H 0.09473 0.63664 0.26441 0.0
H331 H 0.10494 0.68949 0.26419 0.0
H332 H 0.08557 0.65744 0.24859 0.0
H333 H 0.8993 0.54251 0.26249 0.0
H334 H 0.93439 0.52216 0.26258 0.0
H335 H 0.92988 0.54736 0.24707 0.0
H336 H 0.98611 0.36035 0.29175 0.0
H337 H 0.00857 0.33325 0.30861 0.0
H338 H 0.05827 0.36504 0.30498 0.0
H339 H 0.02981 0.29504 0.28643 0.0
H340 H 0.98227 0.38915 0.27069 0.0
H341 H 0.10623 0.48032 0.28311 0.0
H342 H 0.9711 0.43663 0.24198 0.0
H343 H 0.95478 0.45896 0.25549 0.0
H344 H 0.94055 0.40494 0.25655 0.0
H345 H 0.1416 0.54715 0.27261 0.0
H346 H 0.10626 0.56713 0.27215 0.0
H347 H 0.12166 0.55392 0.25596 0.0
H348 H 0.05824 0.36884 0.18261 0.0
H349 H 0.01276 0.39197 0.17609 0.0
H350 H 0.13494 0.49613 0.16994 0.0
H351 H 0.97511 0.43317 0.199 0.0
H352 H 0.95665 0.40008 0.18367 0.0
H353 H 0.96295 0.45157 0.18318 0.0
H354 H 0.15266 0.56457 0.17594 0.0
H355 H 0.12622 0.5657 0.19175 0.0
H356 H 0.11015 0.57493 0.17491 0.0
H357 H 0.98322 0.71355 0.18436 0.0
H358 H 0.93207 0.7372 0.18657 0.0
H359 H 0.91051 0.68313 0.19109 0.0
H360 H 0.89755 0.69722 0.17438 0.0
H361 H 0.90672 0.58701 0.17292 0.0
H362 H 0.02868 0.69435 0.17373 0.0
H363 H 0.92527 0.52364 0.19421 0.0
H364 H 0.93768 0.51144 0.17727 0.0
H365 H 0.89417 0.52002 0.179 0.0
H366 H 0.0887 0.68923 0.17852 0.0
H367 H 0.08385 0.63833 0.17915 0.0
H368 H 0.07681 0.66072 0.1949 0.0
H369 H 0.02441 0.54751 0.27037 0.0
H370 H 0.05971 0.47802 0.2351 0.0
H371 H 0.06073 0.47787 0.20982 0.0
H372 H 0.02367 0.54379 0.17314 0.0
H373 H 0.99505 0.61865 0.20867 0.0
H374 H 0.99724 0.62103 0.23393 0.0
H375 H 0.14214 0.38605 0.17043 0.0
H376 H 0.11327 0.35092 0.1847 0.0
H377 H 0.13517 0.40586 0.18695 0.0
C378 C 0.34761 0.94607 0.6439 0.0
C379 C 0.34756 0.98279 0.63655 0.0
C380 C 0.37343 0.99292 0.61267 0.0
C381 C 0.39919 0.03614 0.61188 0.0
C382 C 0.43368 0.05388 0.60285 0.0
C383 C 0.44267 0.02767 0.5946 0.0
C384 C 0.41564 0.98402 0.595 0.0
C385 C 0.3808 0.96728 0.60387 0.0
C386 C 0.46117 0.10051 0.60243 0.0
C387 C 0.42438 0.95491 0.58652 0.0
C388 C 0.73378 0.06797 0.63481 0.0
C389 C 0.69661 0.05381 0.62566 0.0
C390 C 0.656 0.0801 0.61381 0.0
C391 C 0.63061 0.04303 0.60641 0.0
C392 C 0.59825 0.03913 0.59772 0.0
C393 C 0.59139 0.07312 0.59626 0.0
C394 C 0.61724 0.1107 0.60348 0.0
C395 C 0.64928 0.11367 0.61219 0.0
C396 C 0.571 0.99844 0.59024 0.0
C397 C 0.61077 0.1475 0.60204 0.0
C398 C 0.68228 0.11257 0.50999 0.0
C399 C 0.65368 0.0706 0.51276 0.0
C400 C 0.61383 0.05858 0.51786 0.0
C401 C 0.60243 0.08917 0.52015 0.0
C402 C 0.63019 0.13102 0.51643 0.0
C403 C 0.66977 0.14213 0.51127 0.0
C404 C 0.58447 0.01346 0.52133 0.0
C405 C 0.6187 0.16424 0.51853 0.0
C406 C 0.26739 0.97514 0.52031 0.0
C407 C 0.30351 0.0081 0.51155 0.0
C408 C 0.36893 0.00842 0.50923 0.0
C409 C 0.38435 0.98144 0.51133 0.0
C410 C 0.42528 0.99645 0.516 0.0
C411 C 0.45123 0.03956 0.51841 0.0
C412 C 0.43712 0.0674 0.51484 0.0
C413 C 0.396 0.05152 0.51024 0.0
C414 C 0.43981 0.96602 0.51931 0.0
C415 C 0.46458 0.11364 0.51682 0.0
C416 C 0.48229 0.04546 0.58665 0.0
C417 C 0.51818 0.05503 0.59431 0.0
C418 C 0.55611 0.06848 0.58755 0.0
C419 C 0.55878 0.07309 0.57271 0.0
C420 C 0.59651 0.08651 0.56559 0.0
C421 C 0.59833 0.08885 0.55092 0.0
C422 C 0.56244 0.07774 0.5428 0.0
C423 C 0.56355 0.07813 0.52785 0.0
C424 C 0.52721 0.06638 0.5201 0.0
C425 C 0.48957 0.05431 0.52694 0.0
C426 C 0.48794 0.05418 0.54188 0.0
C427 C 0.45056 0.0425 0.54908 0.0
C428 C 0.44882 0.04061 0.56375 0.0
C429 C 0.48425 0.04984 0.57179 0.0
C430 C 0.52257 0.06321 0.56479 0.0
C431 C 0.5244 0.06541 0.54981 0.0
C432 C 0.78374 0.14416 0.51923 0.0
C433 C 0.74654 0.10986 0.51126 0.0
O434 O 0.34208 0.97532 0.62215 0.0
O435 O 0.32763 0.99185 0.50676 0.0
O436 O 0.72212 0.12563 0.50618 0.0
O437 O 0.68691 0.0845 0.62263 0.0
H438 H 0.37832 0.01079 0.6388 0.0
H439 H 0.37377 0.94264 0.63988 0.0
H440 H 0.31809 0.91667 0.64184 0.0
H441 H 0.35167 0.9514 0.65549 0.0
H442 H 0.39254 0.05587 0.61848 0.0
H443 H 0.36029 0.93393 0.60451 0.0
H444 H 0.49102 0.10936 0.60784 0.0
H445 H 0.44658 0.11664 0.60772 0.0
H446 H 0.46837 0.11153 0.59132 0.0
H447 H 0.40272 0.92176 0.58915 0.0
H448 H 0.45672 0.9618 0.58842 0.0
H449 H 0.42128 0.9595 0.57509 0.0
H450 H 0.66905 0.02388 0.629 0.0
H451 H 0.72164 0.04945 0.64484 0.0
H452 H 0.74008 0.09821 0.63969 0.0
H453 H 0.77653 0.06319 0.6217 0.0
H454 H 0.63561 0.01685 0.60741 0.0
H455 H 0.6691 0.14219 0.61788 0.0
H456 H 0.5735 0.00353 0.57864 0.0
H457 H 0.53799 0.98625 0.59317 0.0
H458 H 0.5796 0.97453 0.59285 0.0
H459 H 0.6349 0.17526 0.60775 0.0
H460 H 0.57977 0.1393 0.60628 0.0
H461 H 0.61121 0.15553 0.5907 0.0
H462 H 0.7292 0.08445 0.51905 0.0
H463 H 0.66257 0.04728 0.51108 0.0
H464 H 0.69181 0.17431 0.5088 0.0
H465 H 0.57949 0.00982 0.53292 0.0
H466 H 0.59652 0.99302 0.51778 0.0
H467 H 0.55378 0.00297 0.51627 0.0
H468 H 0.64269 0.19486 0.51429 0.0
H469 H 0.61472 0.1676 0.52998 0.0
H470 H 0.58857 0.15499 0.51325 0.0
H471 H 0.32143 0.03451 0.51893 0.0
H472 H 0.24669 0.98702 0.52375 0.0
H473 H 0.27975 0.96762 0.52989 0.0
H474 H 0.24889 0.94602 0.51422 0.0
H475 H 0.36346 0.9483 0.51015 0.0
H476 H 0.38473 0.07269 0.50786 0.0
H477 H 0.44303 0.96438 0.53093 0.0
H478 H 0.47084 0.97677 0.51456 0.0
H479 H 0.4178 0.9343 0.51536 0.0
H480 H 0.45105 0.13142 0.5119 0.0
H481 H 0.49571 0.12422 0.51217 0.0
H482 H 0.46899 0.12081 0.52828 0.0
H483 H 0.51624 0.05052 0.60568 0.0
H484 H 0.625 0.09499 0.57128 0.0
H485 H 0.6282 0.09902 0.54604 0.0
H486 H 0.5281 0.06599 0.50865 0.0
H487 H 0.42202 0.03432 0.54349 0.0
H488 H 0.4192 0.03118 0.56872 0.0
H489 H 0.80386 0.13227 0.52338 0.0
H490 H 0.77262 0.15479 0.52831 0.0
H491 H 0.80248 0.17125 0.51223 0.0
C492 C 0.74429 0.66346 0.84087 0.0
C493 C 0.71553 0.67003 0.83085 0.0
C494 C 0.65531 0.65825 0.84518 0.0
C495 C 0.63431 0.67742 0.85069 0.0
C496 C 0.59654 0.65443 0.85789 0.0
C497 C 0.5798 0.6112 0.85982 0.0
C498 C 0.60095 0.59153 0.85434 0.0
C499 C 0.63833 0.61517 0.84699 0.0
C500 C 0.57454 0.67631 0.86343 0.0
C501 C 0.58405 0.54546 0.85624 0.0
C502 C 0.31053 0.37831 0.81029 0.0
C503 C 0.34753 0.41259 0.8175 0.0
C504 C 0.3677 0.45236 0.83905 0.0
C505 C 0.39277 0.43982 0.84616 0.0
C506 C 0.42454 0.46699 0.85525 0.0
C507 C 0.43094 0.50742 0.85746 0.0
C508 C 0.40459 0.51963 0.85078 0.0
C509 C 0.37298 0.4917 0.84168 0.0
C510 C 0.45147 0.45249 0.86241 0.0
C511 C 0.41017 0.56223 0.85315 0.0
C512 C 0.3406 0.43577 0.94258 0.0
C513 C 0.36966 0.42349 0.93926 0.0
C514 C 0.40966 0.45269 0.93462 0.0
C515 C 0.42087 0.49503 0.93347 0.0
C516 C 0.39274 0.50789 0.93788 0.0
C517 C 0.35291 0.47798 0.94247 0.0
C518 C 0.43933 0.43809 0.93036 0.0
C519 C 0.40405 0.55288 0.93705 0.0
C520 C 0.76014 0.68184 0.94629 0.0
C521 C 0.72372 0.68853 0.94973 0.0
C522 C 0.65164 0.63254 0.94897 0.0
C523 C 0.63047 0.58955 0.94711 0.0
C524 C 0.59146 0.56921 0.94049 0.0
C525 C 0.57272 0.59251 0.9361 0.0
C526 C 0.59267 0.63565 0.93901 0.0
C527 C 0.63229 0.65537 0.94527 0.0
C528 C 0.57099 0.52308 0.9378 0.0
C529 C 0.5728 0.66115 0.9351 0.0
C530 C 0.54029 0.58648 0.86764 0.0
C531 C 0.50395 0.56311 0.8598 0.0
C532 C 0.46614 0.53694 0.86644 0.0
C533 C 0.4639 0.53531 0.88134 0.0
C534 C 0.42609 0.51022 0.88833 0.0
C535 C 0.42453 0.50718 0.90298 0.0
C536 C 0.46079 0.52899 0.91122 0.0
C537 C 0.45977 0.52465 0.92609 0.0
C538 C 0.49632 0.54667 0.93398 0.0
C539 C 0.53436 0.57247 0.92734 0.0
C540 C 0.53606 0.57681 0.91245 0.0
C541 C 0.57395 0.60147 0.90538 0.0
C542 C 0.57537 0.60514 0.89074 0.0
C543 C 0.53903 0.58389 0.88256 0.0
C544 C 0.50059 0.55852 0.88943 0.0
C545 C 0.49908 0.55513 0.90439 0.0
C546 C 0.23878 0.36377 0.93285 0.0
C547 C 0.27741 0.36805 0.94025 0.0
O548 O 0.69179 0.6826 0.83835 0.0
O549 O 0.69073 0.65103 0.9543 0.0
O550 O 0.30044 0.40788 0.94572 0.0
O551 O 0.33822 0.42681 0.82971 0.0
H552 H 0.69488 0.6404 0.82523 0.0
H553 H 0.72588 0.63852 0.84862 0.0
H554 H 0.76491 0.69238 0.8468 0.0
H555 H 0.76379 0.6541 0.83478 0.0
H556 H 0.64761 0.71064 0.84925 0.0
H557 H 0.65408 0.5997 0.84283 0.0
H558 H 0.54179 0.66023 0.85969 0.0
H559 H 0.58991 0.70939 0.86007 0.0
H560 H 0.57397 0.67507 0.87515 0.0
H561 H 0.60655 0.53579 0.85287 0.0
H562 H 0.55526 0.52809 0.84986 0.0
H563 H 0.57581 0.53649 0.86747 0.0
H564 H 0.36958 0.43847 0.81051 0.0
H565 H 0.32053 0.32745 0.81187 0.0
H566 H 0.30855 0.39181 0.79985 0.0
H567 H 0.28239 0.37791 0.81488 0.0
H568 H 0.38759 0.40876 0.84471 0.0
H569 H 0.35295 0.50082 0.83632 0.0
H570 H 0.44683 0.45138 0.87402 0.0
H571 H 0.48478 0.47475 0.86032 0.0
H572 H 0.44426 0.42115 0.85881 0.0
H573 H 0.38552 0.56608 0.8479 0.0
H574 H 0.44087 0.58616 0.84899 0.0
H575 H 0.40991 0.5679 0.86465 0.0
H576 H 0.2951 0.3623 0.93196 0.0
H577 H 0.36103 0.39107 0.94007 0.0
H578 H 0.33053 0.48723 0.94537 0.0
H579 H 0.44543 0.44299 0.91884 0.0
H580 H 0.42698 0.40466 0.93277 0.0
H581 H 0.46947 0.45666 0.93591 0.0
H582 H 0.38018 0.55838 0.942 0.0
H583 H 0.40747 0.56262 0.9258 0.0
H584 H 0.43441 0.57276 0.94234 0.0
H585 H 0.71545 0.69895 0.93979 0.0
H586 H 0.78678 0.71079 0.94203 0.0
H587 H 0.75046 0.65715 0.93817 0.0
H588 H 0.77041 0.67213 0.9559 0.0
H589 H 0.64551 0.57223 0.95031 0.0
H590 H 0.6482 0.68854 0.94721 0.0
H591 H 0.5619 0.51621 0.92651 0.0
H592 H 0.54228 0.50669 0.94422 0.0
H593 H 0.59156 0.51039 0.94058 0.0
H594 H 0.58822 0.69189 0.94043 0.0
H595 H 0.53931 0.64431 0.93791 0.0
H596 H 0.57511 0.66646 0.92351 0.0
H597 H 0.50548 0.56391 0.84834 0.0
H598 H 0.39729 0.49249 0.88253 0.0
H599 H 0.39453 0.48714 0.90774 0.0
H600 H 0.49532 0.54283 0.94536 0.0
H601 H 0.60309 0.61814 0.91105 0.0
H602 H 0.60544 0.62449 0.88592 0.0
H603 H 0.21958 0.33189 0.92852 0.0
H604 H 0.24832 0.38625 0.92395 0.0
H605 H 0.21962 0.37026 0.94026 0.0
C606 C 0.97517 0.19485 0.11447 0.0
C607 C 0.00893 0.19478 0.10794 0.0
C608 C 0.98157 0.22365 0.12517 0.0
C609 C 0.02263 0.25243 0.12952 0.0
C610 C 0.05673 0.25231 0.12297 0.0
C611 C 0.04945 0.22363 0.11224 0.0
C612 C 0.94452 0.22327 0.1318 0.0
C613 C 0.10098 0.28212 0.12743 0.0
C614 C 0.05491 0.35399 0.14828 0.0
C615 C 0.06011 0.34428 0.16224 0.0
C616 C 0.0398 0.32353 0.13769 0.0
C617 C 0.03058 0.28264 0.14103 0.0
C618 C 0.03361 0.27209 0.15519 0.0
C619 C 0.04755 0.30285 0.16565 0.0
C620 C 0.03565 0.33563 0.12279 0.0
C621 C 0.0246 0.22896 0.15916 0.0
H622 H 0.94381 0.17261 0.11113 0.0
H623 H 0.07561 0.22314 0.10741 0.0
H624 H 0.94309 0.21579 0.14321 0.0
H625 H 0.94772 0.25454 0.13096 0.0
H626 H 0.91476 0.20022 0.12676 0.0
H627 H 0.12396 0.27772 0.12133 0.0
H628 H 0.10804 0.31465 0.12597 0.0
H629 H 0.10502 0.27787 0.13882 0.0
H630 H 0.06343 0.38554 0.14547 0.0
H631 H 0.05027 0.29482 0.17647 0.0
H632 H 0.0054 0.31232 0.11814 0.0
H633 H 0.06052 0.33644 0.11612 0.0
H634 H 0.03812 0.36667 0.12231 0.0
H635 H 0.9938 0.20521 0.15503 0.0
H636 H 0.02516 0.22487 0.17078 0.0
H637 H 0.0482 0.22294 0.15429 0.0
C638 C 0.88651 0.0672 0.45942 0.0
C639 C 0.86708 0.04388 0.44728 0.0
C640 C 0.86392 0.07477 0.46963 0.0
C641 C 0.82078 0.05875 0.46764 0.0
C642 C 0.80072 0.03449 0.45556 0.0
C643 C 0.82415 0.02739 0.44549 0.0
C644 C 0.88649 0.10085 0.48236 0.0
C645 C 0.7547 0.01669 0.45316 0.0
C646 C 0.76209 0.05689 0.5006 0.0
C647 C 0.76133 0.09408 0.49918 0.0
C648 C 0.77969 0.04395 0.49011 0.0
C649 C 0.79734 0.06908 0.47799 0.0
C650 C 0.79559 0.10606 0.4763 0.0
C651 C 0.7777 0.11816 0.48694 0.0
C652 C 0.78094 0.00431 0.49227 0.0
C653 C 0.81418 0.13376 0.46355 0.0
H654 H 0.91978 0.08066 0.46077 0.0
H655 H 0.80888 0.00898 0.4362 0.0
H656 H 0.88458 0.12971 0.48234 0.0
H657 H 0.87152 0.0837 0.49222 0.0
H658 H 0.91978 0.1096 0.48261 0.0
H659 H 0.74345 0.99687 0.44357 0.0
H660 H 0.737 0.99789 0.46242 0.0
H661 H 0.74774 0.04231 0.452 0.0
H662 H 0.74979 0.03841 0.51011 0.0
H663 H 0.77755 0.14715 0.48589 0.0
H664 H 0.81357 0.01184 0.49388 0.0
H665 H 0.76902 0.98436 0.48275 0.0
H666 H 0.76236 0.98633 0.50155 0.0
H667 H 0.84838 0.147 0.46357 0.0
H668 H 0.80756 0.15979 0.46334 0.0
H669 H 0.80193 0.11546 0.4537 0.0
C670 C 0.82527 0.8503 0.77254 0.0
C671 C 0.86745 0.86264 0.77113 0.0
C672 C 0.79942 0.81785 0.7817 0.0
C673 C 0.8162 0.79726 0.78961 0.0
C674 C 0.85851 0.80894 0.788 0.0
C675 C 0.88364 0.84153 0.77878 0.0
C676 C 0.75445 0.80629 0.78318 0.0
C677 C 0.87744 0.78752 0.79619 0.0
C678 C 0.76374 0.745 0.824 0.0
C679 C 0.74105 0.70306 0.82002 0.0
C680 C 0.78813 0.77595 0.81417 0.0
C681 C 0.78996 0.76469 0.80004 0.0
C682 C 0.76723 0.72242 0.79595 0.0
C683 C 0.74318 0.69205 0.80603 0.0
C684 C 0.81211 0.82069 0.81895 0.0
C685 C 0.76845 0.70929 0.78097 0.0
H686 H 0.8127 0.86679 0.76675 0.0
H687 H 0.91608 0.85056 0.77756 0.0
H688 H 0.73386 0.77258 0.78119 0.0
H689 H 0.74851 0.81244 0.79414 0.0
H690 H 0.74575 0.82398 0.77578 0.0
H691 H 0.91042 0.79924 0.79331 0.0
H692 H 0.87584 0.79234 0.80768 0.0
H693 H 0.85955 0.75353 0.79427 0.0
H694 H 0.76243 0.75352 0.83484 0.0
H695 H 0.72599 0.65963 0.80296 0.0
H696 H 0.80278 0.83982 0.81257 0.0
H697 H 0.84585 0.83333 0.81723 0.0
H698 H 0.807 0.82426 0.83029 0.0
H699 H 0.75796 0.72541 0.77356 0.0
H700 H 0.74852 0.67521 0.77946 0.0
H701 H 0.80083 0.71847 0.77807 0.0
C702 C 0.05506 0.87229 0.11164 0.0
C703 C 0.03965 0.8996 0.11336 0.0
C704 C 0.04688 0.8413 0.12172 0.0
C705 C 0.02233 0.83733 0.13366 0.0
C706 C 0.00786 0.86568 0.13565 0.0
C707 C 0.0168 0.89652 0.1255 0.0
C708 C 0.06334 0.812 0.11937 0.0
C709 C 0.98133 0.86229 0.1482 0.0
C710 C 0.95684 0.73291 0.15144 0.0
C711 C 0.97875 0.73821 0.16407 0.0
C712 C 0.97154 0.76442 0.1412 0.0
C713 C 0.00921 0.802 0.14363 0.0
C714 C 0.03237 0.80683 0.15609 0.0
C715 C 0.01668 0.77494 0.16623 0.0
C716 C 0.94582 0.75818 0.12808 0.0
C717 C 0.07288 0.84627 0.15897 0.0
H718 H 0.07301 0.87482 0.10232 0.0
H719 H 0.00428 0.91713 0.12676 0.0
H720 H 0.07956 0.81022 0.12899 0.0
H721 H 0.03707 0.78025 0.11729 0.0
H722 H 0.08515 0.82167 0.11031 0.0
H723 H 0.97441 0.88811 0.14857 0.0
H724 H 0.95148 0.83243 0.14773 0.0
H725 H 0.99712 0.86233 0.15817 0.0
H726 H 0.9275 0.7045 0.14977 0.0
H727 H 0.03367 0.77907 0.17599 0.0
H728 H 0.9651 0.76417 0.11849 0.0
H729 H 0.93448 0.78071 0.128 0.0
H730 H 0.91856 0.72626 0.12741 0.0
H731 H 0.09378 0.85467 0.14971 0.0
H732 H 0.0892 0.84337 0.16839 0.0
H733 H 0.06683 0.87226 0.16076 0.0
C734 C 0.17577 0.06525 0.45798 0.0
C735 C 0.19098 0.07327 0.44413 0.0
C736 C 0.19747 0.0584 0.4688 0.0
C737 C 0.23564 0.06031 0.46571 0.0
C738 C 0.25228 0.07066 0.4519 0.0
C739 C 0.22944 0.07653 0.4412 0.0
C740 C 0.1784 0.04685 0.48335 0.0
C741 C 0.29338 0.07399 0.44831 0.0
C742 C 0.29923 0.06418 0.49773 0.0
C743 C 0.28808 0.02228 0.49912 0.0
C744 C 0.28381 0.07748 0.48653 0.0
C745 C 0.25607 0.04799 0.47668 0.0
C746 C 0.24572 0.00587 0.4778 0.0
C747 C 0.26237 0.99366 0.48888 0.0
C748 C 0.29643 0.12283 0.48544 0.0
C749 C 0.21591 0.9734 0.46757 0.0
H750 H 0.14577 0.06224 0.4602 0.0
H751 H 0.24126 0.08297 0.43049 0.0
H752 H 0.17059 0.01456 0.4859 0.0
H753 H 0.20092 0.06748 0.49142 0.0
H754 H 0.14967 0.04891 0.48418 0.0
H755 H 0.30442 0.08743 0.43763 0.0
H756 H 0.3174 0.09353 0.4562 0.0
H757 H 0.29019 0.04268 0.44865 0.0
H758 H 0.3197 0.08651 0.50549 0.0
H759 H 0.25453 0.96146 0.48975 0.0
H760 H 0.26914 0.12662 0.48749 0.0
H761 H 0.30744 0.13455 0.4746 0.0
H762 H 0.32137 0.14235 0.49309 0.0
H763 H 0.18512 0.97136 0.46818 0.0
H764 H 0.21172 0.94214 0.46976 0.0
H765 H 0.22725 0.98234 0.45659 0.0
C766 C 0.17351 0.25665 0.77791 0.0
C767 C 0.16927 0.21733 0.77583 0.0
C768 C 0.2053 0.28627 0.78657 0.0
C769 C 0.23323 0.27621 0.79322 0.0
C770 C 0.22829 0.23623 0.79154 0.0
C771 C 0.19626 0.20721 0.78292 0.0
C772 C 0.20978 0.32864 0.78831 0.0
C773 C 0.25764 0.2245 0.7985 0.0
C774 C 0.36467 0.37192 0.80106 0.0
C775 C 0.35698 0.38096 0.81982 0.0
C776 C 0.31768 0.33724 0.79176 0.0
C777 C 0.26928 0.30785 0.80113 0.0
C778 C 0.26611 0.30948 0.82012 0.0
C779 C 0.31137 0.34321 0.83042 0.0
C780 C 0.31892 0.33222 0.77619 0.0
C781 C 0.22583 0.28234 0.82736 0.0
H782 H 0.15285 0.26473 0.77242 0.0
H783 H 0.1926 0.17658 0.7816 0.0
H784 H 0.21066 0.33596 0.79971 0.0
H785 H 0.23965 0.35252 0.78361 0.0
H786 H 0.18399 0.33082 0.78317 0.0
H787 H 0.24851 0.19153 0.79659 0.0
H788 H 0.28956 0.24465 0.79438 0.0
H789 H 0.25867 0.22972 0.81006 0.0
H790 H 0.39306 0.3923 0.79545 0.0
H791 H 0.30935 0.34688 0.84167 0.0
H792 H 0.29554 0.33817 0.77102 0.0
H793 H 0.31034 0.29967 0.77382 0.0
H794 H 0.35037 0.35384 0.772 0.0
H795 H 0.20123 0.28693 0.82247 0.0
H796 H 0.22842 0.28949 0.83881 0.0
H797 H 0.2169 0.24932 0.82583 0.0
C798 C 0.85495 0.10376 0.67587 0.0
C799 C 0.89003 0.10015 0.67304 0.0
C800 C 0.82761 0.10022 0.66499 0.0
C801 C 0.83555 0.09278 0.65104 0.0
C802 C 0.87211 0.0916 0.64798 0.0
C803 C 0.89901 0.09532 0.65903 0.0
C804 C 0.78923 0.10235 0.66857 0.0
C805 C 0.88162 0.08406 0.63316 0.0
C806 C 0.72754 0.009 0.62418 0.0
C807 C 0.72257 0.05122 0.61549 0.0
C808 C 0.76696 0.02625 0.63767 0.0
C809 C 0.80348 0.08096 0.64006 0.0
C810 C 0.80428 0.12026 0.62854 0.0
C811 C 0.76601 0.10611 0.61471 0.0
C812 C 0.76904 0.99509 0.64708 0.0
C813 C 0.83668 0.16467 0.6305 0.0
H814 H 0.84825 0.10813 0.68665 0.0
H815 H 0.92586 0.09214 0.65678 0.0
H816 H 0.78573 0.12363 0.66116 0.0
H817 H 0.76144 0.07099 0.66741 0.0
H818 H 0.7901 0.11323 0.67954 0.0
H819 H 0.9134 0.08852 0.63226 0.0
H820 H 0.85883 0.05176 0.62997 0.0
H821 H 0.87853 0.10534 0.62563 0.0
H822 H 0.70326 0.97678 0.62349 0.0
H823 H 0.76405 0.12945 0.60843 0.0
H824 H 0.76681 0.00269 0.65825 0.0
H825 H 0.79957 0.99695 0.64574 0.0
H826 H 0.74359 0.96326 0.64457 0.0
H827 H 0.83453 0.17448 0.64137 0.0
H828 H 0.83262 0.18462 0.62265 0.0
H829 H 0.86789 0.16797 0.62936 0.0
C830 C 0.85657 0.84878 0.00798 0.0
C831 C 0.84379 0.87577 0.01327 0.0
C832 C 0.83325 0.81914 0.9977 0.0
C833 C 0.79595 0.8161 0.99263 0.0
C834 C 0.78263 0.84307 0.99797 0.0
C835 C 0.80697 0.87292 0.00817 0.0
C836 C 0.84889 0.79139 0.99214 0.0
C837 C 0.74275 0.8403 0.99291 0.0
C838 C 0.76278 0.7637 0.95695 0.0
C839 C 0.73666 0.72209 0.96085 0.0
C840 C 0.78065 0.79516 0.96715 0.0
C841 C 0.77158 0.78481 0.9816 0.0
C842 C 0.74314 0.74329 0.98555 0.0
C843 C 0.72655 0.71227 0.97516 0.0
C844 C 0.81141 0.83891 0.96252 0.0
C845 C 0.73204 0.7312 0.00083 0.0
H846 H 0.88545 0.85145 0.0117 0.0
H847 H 0.79704 0.89374 0.01228 0.0
H848 H 0.82557 0.75832 0.99413 0.0
H849 H 0.85338 0.7954 0.98054 0.0
H850 H 0.87876 0.7981 0.99709 0.0
H851 H 0.73613 0.8627 0.99842 0.0
H852 H 0.74449 0.84656 0.9814 0.0
H853 H 0.71631 0.80839 0.99463 0.0
H854 H 0.7708 0.77129 0.94592 0.0
H855 H 0.70661 0.68023 0.97833 0.0
H856 H 0.84306 0.84695 0.96608 0.0
H857 H 0.80407 0.86149 0.96745 0.0
H858 H 0.81186 0.84264 0.95086 0.0
H859 H 0.75897 0.73249 0.00641 0.0
H860 H 0.70499 0.69929 0.00195 0.0
H861 H 0.72477 0.75334 0.00616 0.0
C862 C 0.96865 0.86747 0.33132 0.0
C863 C 0.96625 0.86496 0.34611 0.0
C864 C 0.96993 0.83642 0.32333 0.0
C865 C 0.96887 0.80217 0.33032 0.0
C866 C 0.96405 0.79829 0.34517 0.0
C867 C 0.9628 0.82977 0.35289 0.0
C868 C 0.97472 0.84143 0.3075 0.0
C869 C 0.96278 0.7622 0.35301 0.0
C870 C 0.95253 0.70757 0.30971 0.0
C871 C 0.99349 0.71554 0.3084 0.0
C872 C 0.94395 0.73583 0.3166 0.0
C873 C 0.97712 0.77272 0.32234 0.0
C874 C 0.01852 0.7811 0.32091 0.0
C875 C 0.02616 0.75231 0.31402 0.0
C876 C 0.89943 0.72585 0.31798 0.0
C877 C 0.05476 0.82015 0.32689 0.0
H878 H 0.97072 0.89436 0.32603 0.0
H879 H 0.96137 0.82785 0.36433 0.0
H880 H 0.00627 0.84804 0.30448 0.0
H881 H 0.95203 0.81226 0.30213 0.0
H882 H 0.97034 0.86718 0.30356 0.0
H883 H 0.95455 0.76149 0.36432 0.0
H884 H 0.93993 0.73233 0.34805 0.0
H885 H 0.99369 0.76451 0.35242 0.0
H886 H 0.9272 0.6789 0.30552 0.0
H887 H 0.05779 0.75833 0.31316 0.0
H888 H 0.89594 0.75179 0.31372 0.0
H889 H 0.89065 0.7223 0.3293 0.0
H890 H 0.87742 0.69682 0.31235 0.0
H891 H 0.05485 0.84797 0.32255 0.0
H892 H 0.08513 0.82258 0.32449 0.0
H893 H 0.05163 0.82072 0.33853 0.0
C894 C 0.16953 0.02684 0.66617 0.0
C895 C 0.15763 0.00808 0.67951 0.0
C896 C 0.19888 0.0229 0.65804 0.0
C897 C 0.21644 0.99943 0.66337 0.0
C898 C 0.20359 0.97942 0.67666 0.0
C899 C 0.17442 0.98409 0.68458 0.0
C900 C 0.21204 0.04485 0.64396 0.0
C901 C 0.22134 0.95383 0.68265 0.0
C902 C 0.27157 0.96093 0.63936 0.0
C903 C 0.31341 0.98923 0.6424 0.0
C904 C 0.23956 0.96458 0.64577 0.0
C905 C 0.24973 0.99727 0.65545 0.0
C906 C 0.29192 0.0266 0.65824 0.0
C907 C 0.32325 0.02208 0.65174 0.0
C908 C 0.19492 0.93266 0.64257 0.0
C909 C 0.304 0.062 0.66846 0.0
H910 H 0.15688 0.04572 0.66229 0.0
H911 H 0.16483 0.9691 0.69481 0.0
H912 H 0.2454 0.06906 0.64438 0.0
H913 H 0.20853 0.02257 0.63556 0.0
H914 H 0.1937 0.05986 0.64096 0.0
H915 H 0.20657 0.93868 0.69281 0.0
H916 H 0.21711 0.92943 0.67501 0.0
H917 H 0.25524 0.97395 0.68444 0.0
H918 H 0.26394 0.93536 0.63221 0.0
H919 H 0.35555 0.04385 0.65417 0.0
H920 H 0.17738 0.94823 0.6393 0.0
H921 H 0.17986 0.91443 0.65225 0.0
H922 H 0.19227 0.91083 0.63411 0.0
H923 H 0.28841 0.0798 0.66553 0.0
H924 H 0.33812 0.08368 0.66874 0.0
H925 H 0.29353 0.04947 0.67925 0.0
C926 C 0.2134 0.20609 0.00538 0.0
C927 C 0.17143 0.1761 0.00342 0.0
C928 C 0.23511 0.23683 0.99513 0.0
C929 C 0.21418 0.23772 0.98272 0.0
C930 C 0.17234 0.2065 0.98044 0.0
C931 C 0.15151 0.17605 0.9908 0.0
C932 C 0.2799 0.26926 0.99783 0.0
C933 C 0.14886 0.20643 0.96736 0.0
C934 C 0.24579 0.33977 0.96417 0.0
C935 C 0.26508 0.33629 0.95198 0.0
C936 C 0.23038 0.30851 0.9745 0.0
C937 C 0.2346 0.273 0.97263 0.0
C938 C 0.25555 0.27008 0.96061 0.0
C939 C 0.2703 0.30168 0.95037 0.0
C940 C 0.20806 0.31269 0.98713 0.0
C941 C 0.26105 0.23294 0.95834 0.0
H942 H 0.22904 0.20596 0.01506 0.0
H943 H 0.11893 0.15332 0.98929 0.0
H944 H 0.29926 0.27241 0.98851 0.0
H945 H 0.2823 0.2999 -0.00044 0.0
H946 H 0.2929 0.2617 0.00723 0.0
H947 H 0.11741 0.17844 0.96674 0.0
H948 H 0.14545 0.23444 0.96731 0.0
H949 H 0.16641 0.20778 0.95773 0.0
H950 H 0.24171 0.36651 0.96541 0.0
H951 H 0.28519 0.29892 0.94094 0.0
H952 H 0.22184 0.30894 0.99706 0.0
H953 H 0.17496 0.28773 0.98691 0.0
H954 H 0.20936 0.34321 0.98739 0.0
H955 H 0.27412 0.22659 0.96797 0.0
H956 H 0.28179 0.23744 0.94927 0.0
H957 H 0.23036 0.20499 0.95629 0.0
C958 C 0.05886 0.25481 0.34206 0.0
C959 C 0.05963 0.21818 0.33929 0.0
C960 C 0.05583 0.27841 0.331 0.0
C961 C 0.05319 0.26479 0.31692 0.0
C962 C 0.05567 0.22884 0.31402 0.0
C963 C 0.05898 0.20595 0.32525 0.0
C964 C 0.05392 0.317 0.33443 0.0
C965 C 0.05273 0.21339 0.2991 0.0
C966 C 0.97452 0.28798 0.28702 0.0
C967 C 0.01795 0.33643 0.27945 0.0
C968 C 0.98919 0.26568 0.30126 0.0
C969 C 0.04332 0.28517 0.30543 0.0
C970 C 0.08483 0.32522 0.29502 0.0
C971 C 0.07332 0.34954 0.28054 0.0
C972 C 0.95632 0.23103 0.30974 0.0
C973 C 0.12888 0.33858 0.29852 0.0
H974 H 0.05986 0.26459 0.3529 0.0
H975 H 0.0591 0.1774 0.32305 0.0
H976 H 0.07649 0.3434 0.32783 0.0
H977 H 0.02236 0.31158 0.33197 0.0
H978 H 0.06076 0.32579 0.34574 0.0
H979 H 0.05854 0.18687 0.29851 0.0
H980 H 0.02124 0.20325 0.2948 0.0
H981 H 0.07545 0.23888 0.29223 0.0
H982 H 0.94235 0.27911 0.28523 0.0
H983 H 0.09775 0.37572 0.27491 0.0
H984 H 0.96008 0.24028 0.32101 0.0
H985 H 0.96024 0.20341 0.30895 0.0
H986 H 0.92495 0.22321 0.30594 0.0
H987 H 0.13508 0.34866 0.30972 0.0
H988 H 0.15036 0.36431 0.29149 0.0
H989 H 0.13396 0.31176 0.29738 0.0
loop_
_geom_bond_atom_site_label_1
_geom_bond_atom_site_label_2
_geom_bond_distance
_geom_bond_site_symmetry_2
_ccdc_geom_bond_type
Li0 N17 1.990 . S
Li0 O60 1.956 . S
Li0 O61 1.994 . S
Li0 O62 1.961 . S
Li1 N25 1.991 1_455 S
Li1 O60 1.970 . S
Li1 O61 1.956 . S
Li1 O63 1.961 1_455 S
Li2 N47 1.990 1_545 S
Li2 O60 1.961 . S
Li2 O62 1.956 . S
Li2 O63 1.970 1_455 S
Li3 N53 1.990 1_545 S
Li3 O61 1.961 1_655 S
Li3 O62 1.970 1_655 S
Li3 O63 1.956 . S
C4 C6 1.348 . S
C4 C7 1.356 . S
C4 O60 1.325 . S
N5 C8 1.314 . S
N5 C9 1.279 . S
C6 C4 1.348 . S
C6 C8 1.353 . S
C6 H64 0.929 . S
C7 C4 1.356 . S
C7 C9 1.358 . S
C7 H65 0.930 . S
C8 N5 1.314 . S
C8 C6 1.353 . S
C8 H66 0.930 . S
C9 N5 1.279 . S
C9 C7 1.358 . S
C9 H67 0.930 . S
C10 C13 1.348 1_655 S
C10 C14 1.356 . S
C10 O61 1.311 1_655 S
C11 N12 1.279 . S
C11 C14 1.358 . S
C11 H68 0.930 . S
N12 C11 1.279 . S
N12 C15 1.314 1_655 S
C13 C10 1.348 1_455 S
C13 C15 1.353 . S
C13 H69 0.929 . S
C14 C10 1.356 . S
C14 C11 1.358 . S
C14 H70 0.930 . S
C15 N12 1.314 1_455 S
C15 C13 1.353 . S
C15 H71 0.930 . S
C16 N17 1.314 . S
C16 C21 1.353 . S
C16 H22 0.930 . S
N17 Li0 1.990 . S
N17 C16 1.314 . S
N17 C19 1.279 . S
C18 C19 1.358 . S
C18 C20 1.356 . S
C18 H72 0.930 . S
C19 N17 1.279 . S
C19 C18 1.358 . S
C19 H23 0.930 . S
C20 C18 1.356 . S
C20 C21 1.348 . S
C21 C16 1.353 . S
C21 C20 1.348 . S
C21 H73 0.929 . S
H22 C16 0.930 . S
H23 C19 0.930 . S
C24 N25 1.314 . S
C24 C26 1.353 . S
C24 H30 0.930 . S
N25 Li1 1.991 1_655 S
N25 C24 1.314 . S
N25 C28 1.279 . S
C26 C24 1.353 . S
C26 C29 1.348 . S
C26 H74 0.929 . S
C27 C28 1.358 . S
C27 C29 1.356 . S
C27 H75 0.930 . S
C28 N25 1.279 . S
C28 C27 1.358 . S
C28 H31 0.930 . S
C29 C26 1.348 . S
C29 C27 1.356 . S
H30 C24 0.930 . S
H31 C28 0.930 . S
C32 C34 1.348 . S
C32 C35 1.356 . S
C32 O62 1.325 1_565 S
N33 C36 1.314 . S
N33 C37 1.279 . S
C34 C32 1.348 . S
C34 C36 1.353 . S
C34 H76 0.929 1_455 S
C35 C32 1.356 . S
C35 C37 1.358 . S
C35 H77 0.930 1_565 S
C36 N33 1.314 . S
C36 C34 1.353 . S
C36 H78 0.930 1_455 S
C37 N33 1.279 . S
C37 C35 1.358 . S
C37 H79 0.930 . S
C38 C39 1.348 . S
C38 C40 1.356 . S
C38 O63 1.325 1_565 S
C39 C38 1.348 . S
C39 C41 1.353 . S
C39 H80 0.929 . S
C40 C38 1.356 . S
C40 C42 1.358 . S
C40 H81 0.930 1_565 S
C41 C39 1.353 . S
C41 N43 1.314 . S
C41 H82 0.930 . S
C42 C40 1.358 . S
C42 N43 1.279 . S
C42 H83 0.930 . S
N43 C41 1.314 . S
N43 C42 1.279 . S
C44 C46 1.353 . S
C44 N47 1.314 . S
C44 H50 0.930 . S
C45 N47 1.279 . S
C45 C48 1.358 . S
C45 H51 0.930 . S
C46 C44 1.353 . S
C46 C49 1.348 . S
C46 H84 0.929 . S
N47 Li2 1.990 1_565 S
N47 C44 1.314 . S
N47 C45 1.279 . S
C48 C45 1.358 . S
C48 C49 1.356 . S
C48 H85 0.930 . S
C49 C46 1.348 . S
C49 C48 1.356 . S
H50 C44 0.930 . S
H51 C45 0.930 . S
C52 N53 1.314 . S
C52 C54 1.353 . S
C52 H58 0.941 . S
N53 Li3 1.990 1_565 S
N53 C52 1.314 . S
N53 C56 1.279 . S
C54 C52 1.353 . S
C54 C57 1.348 . S
C54 H86 0.929 . S
C55 C56 1.358 . S
C55 C57 1.356 . S
C55 H87 0.930 . S
C56 N53 1.279 . S
C56 C55 1.358 . S
C56 H59 0.930 . S
C57 C54 1.348 . S
C57 C55 1.356 . S
H58 C52 0.941 . S
H59 C56 0.930 . S
O60 Li0 1.956 . S
O60 Li1 1.970 . S
O60 Li2 1.961 . S
O60 C4 1.325 . S
O61 Li0 1.994 . S
O61 Li1 1.956 . S
O61 Li3 1.961 1_455 S
O61 C10 1.311 1_455 S
O62 Li0 1.961 . S
O62 Li2 1.956 . S
O62 Li3 1.970 1_455 S
O62 C32 1.325 1_545 S
O63 Li1 1.961 1_655 S
O63 Li2 1.970 1_655 S
O63 Li3 1.956 . S
O63 C38 1.325 1_545 S
H64 C6 0.929 . S
H65 C7 0.930 . S
H66 C8 0.930 . S
H67 C9 0.930 . S
H68 C11 0.930 . S
H69 C13 0.929 . S
H70 C14 0.930 . S
H71 C15 0.930 . S
H72 C18 0.930 . S
H73 C21 0.929 . S
H74 C26 0.929 . S
H75 C27 0.930 . S
H76 C34 0.929 1_655 S
H77 C35 0.930 1_545 S
H78 C36 0.930 1_655 S
H79 C37 0.930 . S
H80 C39 0.929 . S
H81 C40 0.930 1_545 S
H82 C41 0.930 . S
H83 C42 0.930 . S
H84 C46 0.929 . S
H85 C48 0.930 . S
H86 C54 0.929 . S
H87 C55 0.930 . S
Li88 N105 1.990 1_445 S
Li88 O148 1.956 . S
Li88 O149 1.970 . S
Li88 O150 1.961 1_455 S
Li89 N113 1.990 . S
Li89 O148 1.970 . S
Li89 O149 1.956 . S
Li89 O151 1.961 . S
Li90 N135 1.990 . S
Li90 O148 1.961 1_655 S
Li90 O150 1.956 . S
Li90 O151 1.970 1_655 S
Li91 N141 1.990 . S
Li91 O149 1.961 . S
Li91 O150 1.970 1_455 S
Li91 O151 1.956 . S
C92 C94 1.348 . S
C92 C95 1.356 1_455 S
C92 O148 1.325 1_565 S
N93 C96 1.314 1_655 S
N93 C97 1.279 . S
C94 C92 1.348 . S
C94 C96 1.353 . S
C94 H152 0.929 . S
C95 C92 1.356 1_655 S
C95 C97 1.358 . S
C95 H153 0.930 . S
C96 N93 1.314 1_455 S
C96 C94 1.353 . S
C96 H154 0.930 . S
C97 N93 1.279 . S
C97 C95 1.358 . S
C97 H155 0.930 . S
C98 C101 1.348 . S
C98 C102 1.356 . S
C98 O149 1.325 . S
C99 N100 1.279 . S
C99 C102 1.358 . S
C99 H156 0.930 . S
N100 C99 1.279 . S
N100 C103 1.314 . S
C101 C98 1.348 . S
C101 C103 1.353 . S
C101 H157 0.929 . S
C102 C98 1.356 . S
C102 C99 1.358 . S
C102 H158 0.930 . S
C103 N100 1.314 . S
C103 C101 1.353 . S
C103 H159 0.930 . S
C104 N105 1.314 . S
C104 C109 1.353 . S
C104 H110 0.930 . S
N105 Li88 1.990 1_665 S
N105 C104 1.314 . S
N105 C107 1.279 . S
C106 C107 1.358 . S
C106 C108 1.356 . S
C106 H160 0.930 . S
C107 N105 1.279 . S
C107 C106 1.358 . S
C107 H111 0.930 1_655 S
C108 C106 1.356 . S
C108 C109 1.348 . S
C109 C104 1.353 . S
C109 C108 1.348 . S
C109 H161 0.929 . S
H110 C104 0.930 . S
H111 C107 0.930 1_455 S
C112 N113 1.314 . S
C112 C114 1.353 . S
C112 H118 0.930 . S
N113 Li89 1.990 . S
N113 C112 1.314 . S
N113 C116 1.279 . S
C114 C112 1.353 . S
C114 C117 1.348 . S
C114 H162 0.929 . S
C115 C116 1.358 . S
C115 C117 1.356 . S
C115 H163 0.930 . S
C116 N113 1.279 . S
C116 C115 1.358 . S
C116 H119 0.930 . S
C117 C114 1.348 . S
C117 C115 1.356 . S
H118 C112 0.930 . S
H119 C116 0.930 . S
C120 C122 1.348 . S
C120 C123 1.356 1_545 S
C120 O150 1.325 . S
N121 C124 1.314 . S
N121 C125 1.279 1_545 S
C122 C120 1.348 . S
C122 C124 1.353 . S
C122 H164 0.929 . S
C123 C120 1.356 1_565 S
C123 C125 1.358 . S
C123 H165 0.930 . S
C124 N121 1.314 . S
C124 C122 1.353 . S
C124 H166 0.930 . S
C125 N121 1.279 1_565 S
C125 C123 1.358 . S
C125 H167 0.930 . S
C126 C127 1.348 . S
C126 C128 1.356 . S
C126 O151 1.325 . S
C127 C126 1.348 . S
C127 C129 1.353 . S
C127 H168 0.929 1_455 S
C128 C126 1.356 . S
C128 C130 1.358 . S
C128 H169 0.930 . S
C129 C127 1.353 . S
C129 N131 1.314 . S
C129 H170 0.930 . S
C130 C128 1.358 . S
C130 N131 1.279 . S
C130 H171 0.930 . S
N131 C129 1.314 . S
N131 C130 1.279 . S
C132 C134 1.353 . S
C132 N135 1.314 . S
C132 H138 0.930 . S
C133 N135 1.279 . S
C133 C136 1.358 . S
C133 H139 0.930 . S
C134 C132 1.353 . S
C134 C137 1.348 . S
C134 H172 0.929 1_545 S
N135 Li90 1.990 . S
N135 C132 1.314 . S
N135 C133 1.279 . S
C136 C133 1.358 . S
C136 C137 1.356 . S
C136 H173 0.930 . S
C137 C134 1.348 . S
C137 C136 1.356 . S
H138 C132 0.930 . S
H139 C133 0.930 . S
C140 N141 1.314 . S
C140 C142 1.353 . S
C140 H146 0.930 . S
N141 Li91 1.990 . S
N141 C140 1.314 . S
N141 C144 1.279 . S
C142 C140 1.353 . S
C142 C145 1.348 . S
C142 H174 0.929 . S
C143 C144 1.358 . S
C143 C145 1.356 . S
C143 H175 0.930 . S
C144 N141 1.279 . S
C144 C143 1.358 . S
C144 H147 0.930 . S
C145 C142 1.348 . S
C145 C143 1.356 . S
H146 C140 0.930 . S
H147 C144 0.930 . S
O148 Li88 1.956 . S
O148 Li89 1.970 . S
O148 Li90 1.961 1_455 S
O148 C92 1.325 1_545 S
O149 Li88 1.970 . S
O149 Li89 1.956 . S
O149 Li91 1.961 . S
O149 C98 1.325 . S
O150 Li88 1.961 1_655 S
O150 Li90 1.956 . S
O150 Li91 1.970 1_655 S
O150 C120 1.325 . S
O151 Li89 1.961 . S
O151 Li90 1.970 1_455 S
O151 Li91 1.956 . S
O151 C126 1.325 . S
H152 C94 0.929 . S
H153 C95 0.930 . S
H154 C96 0.930 . S
H155 C97 0.930 . S
H156 C99 0.930 . S
H157 C101 0.929 . S
H158 C102 0.930 . S
H159 C103 0.930 . S
H160 C106 0.930 . S
H161 C109 0.929 . S
H162 C114 0.929 . S
H163 C115 0.930 . S
H164 C122 0.929 . S
H165 C123 0.930 . S
H166 C124 0.930 . S
H167 C125 0.930 . S
H168 C127 0.929 1_655 S
H169 C128 0.930 . S
H170 C129 0.930 . S
H171 C130 0.930 . S
H172 C134 0.929 1_565 S
H173 C136 0.930 . S
H174 C142 0.929 . S
H175 C143 0.930 . S
Li176 N193 1.990 . S
Li176 O236 1.956 . S
Li176 O237 1.970 . S
Li176 O238 1.961 1_455 S
Li177 N201 1.990 . S
Li177 O236 1.970 . S
Li177 O237 1.956 . S
Li177 O239 1.961 1_455 S
Li178 N223 1.990 1_545 S
Li178 O236 1.961 1_655 S
Li178 O238 1.956 . S
Li178 O239 1.970 . S
Li179 N229 1.990 . S
Li179 O237 1.961 1_655 S
Li179 O238 1.970 . S
Li179 O239 1.956 . S
C180 C182 1.348 . S
C180 C183 1.356 1_545 S
C180 O236 1.325 . S
N181 C184 1.314 . S
N181 C185 1.279 1_545 S
C182 C180 1.348 . S
C182 C184 1.353 . S
C182 H240 0.929 . S
C183 C180 1.356 1_565 S
C183 C185 1.358 . S
C183 H241 0.930 . S
C184 N181 1.314 . S
C184 C182 1.353 . S
C184 H242 0.930 . S
C185 N181 1.279 1_565 S
C185 C183 1.358 . S
C185 H243 0.930 . S
C186 C189 1.348 . S
C186 C190 1.356 . S
C186 O237 1.325 . S
C187 N188 1.279 . S
C187 C190 1.358 . S
C187 H244 0.930 . S
N188 C187 1.279 . S
N188 C191 1.314 . S
C189 C186 1.348 . S
C189 C191 1.353 . S
C189 H245 0.929 . S
C190 C186 1.356 . S
C190 C187 1.358 . S
C190 H246 0.930 . S
C191 N188 1.314 . S
C191 C189 1.353 . S
C191 H247 0.930 . S
C192 N193 1.314 . S
C192 C197 1.353 . S
C192 H198 0.930 . S
N193 Li176 1.990 . S
N193 C192 1.314 . S
N193 C195 1.279 . S
C194 C195 1.358 . S
C194 C196 1.356 . S
C194 H248 0.930 . S
C195 N193 1.279 . S
C195 C194 1.358 . S
C195 H199 0.930 . S
C196 C194 1.356 . S
C196 C197 1.348 . S
C197 C192 1.353 . S
C197 C196 1.348 . S
C197 H249 0.929 1_545 S
H198 C192 0.930 . S
H199 C195 0.930 . S
C200 N201 1.314 . S
C200 C202 1.353 . S
C200 H206 0.930 . S
N201 Li177 1.990 . S
N201 C200 1.314 . S
N201 C204 1.279 . S
C202 C200 1.353 . S
C202 C205 1.348 . S
C202 H250 0.929 . S
C203 C204 1.358 . S
C203 C205 1.356 . S
C203 H251 0.930 . S
C204 N201 1.279 . S
C204 C203 1.358 . S
C204 H207 0.930 . S
C205 C202 1.348 . S
C205 C203 1.356 . S
H206 C200 0.930 . S
H207 C204 0.930 . S
C208 C210 1.348 . S
C208 C211 1.356 . S
C208 O238 1.325 1_565 S
N209 C212 1.314 . S
N209 C213 1.279 . S
C210 C208 1.348 . S
C210 C212 1.353 . S
C210 H252 0.929 . S
C211 C208 1.356 . S
C211 C213 1.358 . S
C211 H253 0.930 . S
C212 N209 1.314 . S
C212 C210 1.353 . S
C212 H254 0.930 . S
C213 N209 1.279 . S
C213 C211 1.358 . S
C213 H255 0.930 . S
C214 C215 1.348 . S
C214 C216 1.356 . S
C214 O239 1.325 . S
C215 C214 1.348 . S
C215 C217 1.353 . S
C215 H256 0.929 . S
C216 C214 1.356 . S
C216 C218 1.358 . S
C216 H257 0.930 . S
C217 C215 1.353 . S
C217 N219 1.314 . S
C217 H258 0.930 . S
C218 C216 1.358 . S
C218 N219 1.279 . S
C218 H259 0.930 . S
N219 C217 1.314 . S
N219 C218 1.279 . S
C220 C222 1.353 . S
C220 N223 1.314 . S
C220 H226 0.930 . S
C221 N223 1.279 . S
C221 C224 1.358 . S
C221 H227 0.930 . S
C222 C220 1.353 . S
C222 C225 1.348 . S
C222 H260 0.929 . S
N223 Li178 1.990 1_565 S
N223 C220 1.314 . S
N223 C221 1.279 . S
C224 C221 1.358 . S
C224 C225 1.356 . S
C224 H261 0.930 . S
C225 C222 1.348 . S
C225 C224 1.356 . S
H226 C220 0.930 . S
H227 C221 0.930 . S
C228 N229 1.314 . S
C228 C230 1.353 . S
C228 H234 0.930 . S
N229 Li179 1.990 . S
N229 C228 1.314 . S
N229 C232 1.279 . S
C230 C228 1.353 . S
C230 C233 1.348 . S
C230 H262 0.929 . S
C231 C232 1.358 . S
C231 C233 1.356 . S
C231 H263 0.930 . S
C232 N229 1.279 . S
C232 C231 1.358 . S
C232 H235 0.930 . S
C233 C230 1.348 . S
C233 C231 1.356 . S
H234 C228 0.930 . S
H235 C232 0.930 . S
O236 Li176 1.956 . S
O236 Li177 1.970 . S
O236 Li178 1.961 1_455 S
O236 C180 1.325 . S
O237 Li176 1.970 . S
O237 Li177 1.956 . S
O237 Li179 1.961 1_455 S
O237 C186 1.325 . S
O238 Li176 1.961 1_655 S
O238 Li178 1.956 . S
O238 Li179 1.970 . S
O238 C208 1.325 1_545 S
O239 Li177 1.961 1_655 S
O239 Li178 1.970 . S
O239 Li179 1.956 . S
O239 C214 1.325 . S
H240 C182 0.929 . S
H241 C183 0.930 . S
H242 C184 0.930 . S
H243 C185 0.930 . S
H244 C187 0.930 . S
H245 C189 0.929 . S
H246 C190 0.930 . S
H247 C191 0.930 . S
H248 C194 0.930 . S
H249 C197 0.929 1_565 S
H250 C202 0.929 . S
H251 C203 0.930 . S
H252 C210 0.929 . S
H253 C211 0.930 . S
H254 C212 0.930 . S
H255 C213 0.930 . S
H256 C215 0.929 . S
H257 C216 0.930 . S
H258 C217 0.930 . S
H259 C218 0.930 . S
H260 C222 0.929 . S
H261 C224 0.930 . S
H262 C230 0.929 . S
H263 C231 0.930 . S
C264 C265 1.560 . S
C264 H325 0.959 . S
C264 H326 0.959 . S
C264 H327 0.960 . S
C265 C264 1.560 . S
C265 O320 1.426 . S
C265 H324 0.980 1_655 S
C266 C267 1.407 1_655 S
C266 C271 1.418 . S
C266 O320 1.334 . S
C267 C266 1.407 1_455 S
C267 C268 1.360 . S
C267 H328 0.929 . S
C268 C267 1.360 . S
C268 C269 1.401 . S
C268 C272 1.527 . S
C269 C268 1.401 . S
C269 C270 1.405 1_455 S
C269 C302 1.587 . S
C270 C269 1.405 1_655 S
C270 C271 1.332 . S
C270 C273 1.496 . S
C271 C266 1.418 . S
C271 C270 1.332 . S
C271 H329 0.929 . S
C272 C268 1.527 . S
C272 H330 0.959 . S
C272 H331 0.961 . S
C272 H332 0.961 . S
C273 C270 1.496 . S
C273 H333 0.960 . S
C273 H334 0.960 . S
C273 H335 0.961 . S
C274 C275 1.517 . S
C274 H337 0.961 . S
C274 H338 0.960 . S
C274 H339 0.959 . S
C275 C274 1.517 . S
C275 O323 1.468 . S
C275 H336 0.980 . S
C276 C277 1.349 . S
C276 C281 1.367 . S
C276 O323 1.408 . S
C277 C276 1.349 . S
C277 C278 1.407 . S
C277 H340 0.930 . S
C278 C277 1.407 . S
C278 C279 1.449 . S
C278 C282 1.535 1_455 S
C279 C278 1.449 . S
C279 C280 1.384 . S
C279 C304 1.553 . S
C280 C279 1.384 . S
C280 C281 1.364 . S
C280 C283 1.450 . S
C281 C276 1.367 . S
C281 C280 1.364 . S
C281 H341 0.931 . S
C282 C278 1.535 1_655 S
C282 H342 0.959 . S
C282 H343 0.961 . S
C282 H344 0.959 . S
C283 C280 1.450 . S
C283 H345 0.960 . S
C283 H346 0.960 . S
C283 H347 0.960 . S
C284 C285 1.309 . S
C284 C289 1.304 . S
C284 O322 1.435 . S
C285 C284 1.309 . S
C285 C286 1.476 . S
C285 H349 0.930 1_455 S
C286 C285 1.476 . S
C286 C287 1.400 . S
C286 C290 1.567 1_455 S
C287 C286 1.400 . S
C287 C288 1.373 . S
C287 C309 1.432 . S
C288 C287 1.373 . S
C288 C289 1.339 . S
C288 C291 1.530 . S
C289 C284 1.304 . S
C289 C288 1.339 . S
C289 H350 0.930 . S
C290 C286 1.567 1_655 S
C290 H351 0.961 . S
C290 H352 0.960 . S
C290 H353 0.958 . S
C291 C288 1.530 . S
C291 H354 0.961 . S
C291 H355 0.960 . S
C291 H356 0.960 . S
C292 C293 1.530 1_655 S
C292 H358 0.961 . S
C292 H359 0.961 . S
C292 H360 0.959 . S
C293 C292 1.530 1_455 S
C293 O321 1.412 1_455 S
C293 H357 0.980 . S
C294 C295 1.288 . S
C294 C299 1.377 1_655 S
C294 O321 1.393 . S
C295 C294 1.288 . S
C295 C296 1.369 . S
C295 H361 0.932 . S
C296 C295 1.369 . S
C296 C297 1.398 1_655 S
C296 C300 1.527 . S
C297 C296 1.398 1_455 S
C297 C298 1.380 . S
C297 C311 1.497 . S
C298 C297 1.380 . S
C298 C299 1.383 . S
C298 C301 1.603 . S
C299 C294 1.377 1_455 S
C299 C298 1.383 . S
C299 H362 0.929 . S
C300 C296 1.527 . S
C300 H363 0.961 . S
C300 H364 0.959 . S
C300 H365 0.959 . S
C301 C298 1.603 . S
C301 H366 0.960 . S
C301 H367 0.962 . S
C301 H368 0.961 . S
C302 C269 1.587 . S
C302 C303 1.360 . S
C302 C315 1.412 . S
C303 C302 1.360 . S
C303 C304 1.365 . S
C303 H369 0.929 . S
C304 C279 1.553 . S
C304 C303 1.365 . S
C304 C305 1.404 . S
C305 C304 1.404 . S
C305 C306 1.395 . S
C305 C316 1.451 . S
C306 C305 1.395 . S
C306 C307 1.322 . S
C306 H370 0.930 . S
C307 C306 1.322 . S
C307 C308 1.459 . S
C307 H371 0.929 . S
C308 C307 1.459 . S
C308 C309 1.445 . S
C308 C317 1.395 . S
C309 C287 1.432 . S
C309 C308 1.445 . S
C309 C310 1.370 . S
C310 C309 1.370 . S
C310 C311 1.438 . S
C310 H372 0.930 . S
C311 C297 1.497 . S
C311 C310 1.438 . S
C311 C312 1.360 . S
C312 C311 1.360 . S
C312 C313 1.401 . S
C312 C317 1.446 . S
C313 C312 1.401 . S
C313 C314 1.347 . S
C313 H373 0.929 . S
C314 C313 1.347 . S
C314 C315 1.455 . S
C314 H374 0.930 . S
C315 C302 1.412 . S
C315 C314 1.455 . S
C315 C316 1.331 . S
C316 C305 1.451 . S
C316 C315 1.331 . S
C316 C317 1.497 . S
C317 C308 1.395 . S
C317 C312 1.446 . S
C317 C316 1.497 . S
C318 C319 1.582 . S
C318 H375 0.962 . S
C318 H376 0.959 . S
C318 H377 0.958 . S
C319 C318 1.582 . S
C319 O322 1.458 . S
C319 H348 0.980 . S
O320 C265 1.426 . S
O320 C266 1.334 . S
O321 C293 1.412 1_655 S
O321 C294 1.393 . S
O322 C284 1.435 . S
O322 C319 1.458 . S
O323 C275 1.468 . S
O323 C276 1.408 . S
H324 C265 0.980 1_455 S
H325 C264 0.959 . S
H326 C264 0.959 . S
H327 C264 0.960 . S
H328 C267 0.929 . S
H329 C271 0.929 . S
H330 C272 0.959 . S
H331 C272 0.961 . S
H332 C272 0.961 . S
H333 C273 0.960 . S
H334 C273 0.960 . S
H335 C273 0.961 . S
H336 C275 0.980 . S
H337 C274 0.961 . S
H338 C274 0.960 . S
H339 C274 0.959 . S
H340 C277 0.930 . S
H341 C281 0.931 . S
H342 C282 0.959 . S
H343 C282 0.961 . S
H344 C282 0.959 . S
H345 C283 0.960 . S
H346 C283 0.960 . S
H347 C283 0.960 . S
H348 C319 0.980 . S
H349 C285 0.930 1_655 S
H350 C289 0.930 . S
H351 C290 0.961 . S
H352 C290 0.960 . S
H353 C290 0.958 . S
H354 C291 0.961 . S
H355 C291 0.960 . S
H356 C291 0.960 . S
H357 C293 0.980 . S
H358 C292 0.961 . S
H359 C292 0.961 . S
H360 C292 0.959 . S
H361 C295 0.932 . S
H362 C299 0.929 . S
H363 C300 0.961 . S
H364 C300 0.959 . S
H365 C300 0.959 . S
H366 C301 0.960 . S
H367 C301 0.962 . S
H368 C301 0.961 . S
H369 C303 0.929 . S
H370 C306 0.930 . S
H371 C307 0.929 . S
H372 C310 0.930 . S
H373 C313 0.929 . S
H374 C314 0.930 . S
H375 C318 0.962 . S
H376 C318 0.959 . S
H377 C318 0.958 . S
C378 C379 1.560 1_565 S
C378 H439 0.959 . S
C378 H440 0.959 . S
C378 H441 0.960 1_565 S
C379 C378 1.560 1_545 S
C379 O434 1.426 . S
C379 H438 0.980 . S
C380 C381 1.407 . S
C380 C385 1.418 1_545 S
C380 O434 1.334 . S
C381 C380 1.407 . S
C381 C382 1.360 . S
C381 H442 0.929 . S
C382 C381 1.360 . S
C382 C383 1.401 . S
C382 C386 1.527 . S
C383 C382 1.401 . S
C383 C384 1.405 . S
C383 C416 1.587 . S
C384 C383 1.405 . S
C384 C385 1.332 1_545 S
C384 C387 1.496 1_545 S
C385 C380 1.418 1_565 S
C385 C384 1.332 1_565 S
C385 H443 0.929 . S
C386 C382 1.527 . S
C386 H444 0.959 . S
C386 H445 0.961 . S
C386 H446 0.961 . S
C387 C384 1.496 1_565 S
C387 H447 0.960 . S
C387 H448 0.960 . S
C387 H449 0.961 . S
C388 C389 1.517 . S
C388 H451 0.961 . S
C388 H452 0.960 . S
C388 H453 0.959 . S
C389 C388 1.517 . S
C389 O437 1.468 . S
C389 H450 0.980 . S
C390 C391 1.349 . S
C390 C395 1.367 . S
C390 O437 1.408 . S
C391 C390 1.349 . S
C391 C392 1.407 . S
C391 H454 0.930 . S
C392 C391 1.407 . S
C392 C393 1.449 . S
C392 C396 1.535 . S
C393 C392 1.449 . S
C393 C394 1.384 . S
C393 C418 1.553 . S
C394 C393 1.384 . S
C394 C395 1.364 . S
C394 C397 1.450 . S
C395 C390 1.367 . S
C395 C394 1.364 . S
C395 H455 0.931 . S
C396 C392 1.535 . S
C396 H456 0.959 . S
C396 H457 0.961 1_545 S
C396 H458 0.959 1_545 S
C397 C394 1.450 . S
C397 H459 0.960 . S
C397 H460 0.960 . S
C397 H461 0.960 . S
C398 C399 1.309 . S
C398 C403 1.304 . S
C398 O436 1.435 . S
C399 C398 1.309 . S
C399 C400 1.476 . S
C399 H463 0.930 . S
C400 C399 1.476 . S
C400 C401 1.400 . S
C400 C404 1.567 1_545 S
C401 C400 1.400 . S
C401 C402 1.373 . S
C401 C423 1.432 . S
C402 C401 1.373 . S
C402 C403 1.339 . S
C402 C405 1.530 . S
C403 C398 1.304 . S
C403 C402 1.339 . S
C403 H464 0.930 . S
C404 C400 1.567 1_565 S
C404 H465 0.969 . S
C404 H466 0.960 . S
C404 H467 0.958 . S
C405 C402 1.530 . S
C405 H468 0.961 . S
C405 H469 0.960 . S
C405 H470 0.960 . S
C406 C407 1.530 . S
C406 H472 0.961 . S
C406 H473 0.961 1_545 S
C406 H474 0.959 1_545 S
C407 C406 1.530 . S
C407 O435 1.412 . S
C407 H471 0.980 . S
C408 C409 1.288 1_545 S
C408 C413 1.377 . S
C408 O435 1.393 . S
C409 C408 1.288 1_565 S
C409 C410 1.369 1_565 S
C409 H475 0.932 . S
C410 C409 1.369 1_545 S
C410 C411 1.398 . S
C410 C414 1.527 1_545 S
C411 C410 1.398 . S
C411 C412 1.380 . S
C411 C425 1.497 . S
C412 C411 1.380 . S
C412 C413 1.383 . S
C412 C415 1.603 . S
C413 C408 1.377 . S
C413 C412 1.383 . S
C413 H476 0.929 . S
C414 C410 1.527 1_565 S
C414 H477 0.961 . S
C414 H478 0.959 . S
C414 H479 0.959 . S
C415 C412 1.603 . S
C415 H480 0.960 . S
C415 H481 0.962 . S
C415 H482 0.961 . S
C416 C383 1.587 . S
C416 C417 1.360 . S
C416 C429 1.412 . S
C417 C416 1.360 . S
C417 C418 1.365 . S
C417 H483 0.929 . S
C418 C393 1.553 . S
C418 C417 1.365 . S
C418 C419 1.404 . S
C419 C418 1.404 . S
C419 C420 1.395 . S
C419 C430 1.451 . S
C420 C419 1.395 . S
C420 C421 1.322 . S
C420 H484 0.930 . S
C421 C420 1.322 . S
C421 C422 1.459 . S
C421 H485 0.929 . S
C422 C421 1.459 . S
C422 C423 1.445 . S
C422 C431 1.395 . S
C423 C401 1.432 . S
C423 C422 1.445 . S
C423 C424 1.370 . S
C424 C423 1.370 . S
C424 C425 1.438 . S
C424 H486 0.930 . S
C425 C411 1.497 . S
C425 C424 1.438 . S
C425 C426 1.360 . S
C426 C425 1.360 . S
C426 C427 1.401 . S
C426 C431 1.446 . S
C427 C426 1.401 . S
C427 C428 1.347 . S
C427 H487 0.929 . S
C428 C427 1.347 . S
C428 C429 1.455 . S
C428 H488 0.930 . S
C429 C416 1.412 . S
C429 C428 1.455 . S
C429 C430 1.331 . S
C430 C419 1.451 . S
C430 C429 1.331 . S
C430 C431 1.497 . S
C431 C422 1.395 . S
C431 C426 1.446 . S
C431 C430 1.497 . S
C432 C433 1.582 . S
C432 H489 0.962 . S
C432 H490 0.959 . S
C432 H491 0.958 . S
C433 C432 1.582 . S
C433 O436 1.458 . S
C433 H462 0.980 . S
O434 C379 1.426 . S
O434 C380 1.334 . S
O435 C407 1.412 . S
O435 C408 1.393 . S
O436 C398 1.435 . S
O436 C433 1.458 . S
O437 C389 1.468 . S
O437 C390 1.408 . S
H438 C379 0.980 . S
H439 C378 0.959 . S
H440 C378 0.959 . S
H441 C378 0.960 1_545 S
H442 C381 0.929 . S
H443 C385 0.929 . S
H444 C386 0.959 . S
H445 C386 0.961 . S
H446 C386 0.961 . S
H447 C387 0.960 . S
H448 C387 0.960 . S
H449 C387 0.961 . S
H450 C389 0.980 . S
H451 C388 0.961 . S
H452 C388 0.960 . S
H453 C388 0.959 . S
H454 C391 0.930 . S
H455 C395 0.931 . S
H456 C396 0.959 . S
H457 C396 0.961 1_565 S
H458 C396 0.959 1_565 S
H459 C397 0.960 . S
H460 C397 0.960 . S
H461 C397 0.960 . S
H462 C433 0.980 . S
H463 C399 0.930 . S
H464 C403 0.930 . S
H465 C404 0.969 . S
H466 C404 0.960 . S
H467 C404 0.958 . S
H468 C405 0.961 . S
H469 C405 0.960 . S
H470 C405 0.960 . S
H471 C407 0.980 . S
H472 C406 0.961 . S
H473 C406 0.961 1_565 S
H474 C406 0.959 1_565 S
H475 C409 0.932 . S
H476 C413 0.929 . S
H477 C414 0.961 . S
H478 C414 0.959 . S
H479 C414 0.959 . S
H480 C415 0.960 . S
H481 C415 0.962 . S
H482 C415 0.961 . S
H483 C417 0.929 . S
H484 C420 0.930 . S
H485 C421 0.929 . S
H486 C424 0.930 . S
H487 C427 0.929 . S
H488 C428 0.930 . S
H489 C432 0.962 . S
H490 C432 0.959 . S
H491 C432 0.958 . S
C492 C493 1.560 . S
C492 H553 0.959 . S
C492 H554 0.959 . S
C492 H555 0.960 . S
C493 C492 1.560 . S
C493 O548 1.426 . S
C493 H552 0.980 . S
C494 C495 1.407 . S
C494 C499 1.418 . S
C494 O548 1.334 . S
C495 C494 1.407 . S
C495 C496 1.360 . S
C495 H556 0.929 . S
C496 C495 1.360 . S
C496 C497 1.401 . S
C496 C500 1.527 . S
C497 C496 1.401 . S
C497 C498 1.405 . S
C497 C530 1.587 . S
C498 C497 1.405 . S
C498 C499 1.332 . S
C498 C501 1.496 . S
C499 C494 1.418 . S
C499 C498 1.332 . S
C499 H557 0.929 . S
C500 C496 1.527 . S
C500 H558 0.959 . S
C500 H559 0.961 . S
C500 H560 0.961 . S
C501 C498 1.496 . S
C501 H561 0.960 . S
C501 H562 0.960 . S
C501 H563 0.961 . S
C502 C503 1.517 . S
C502 H565 0.961 . S
C502 H566 0.960 . S
C502 H567 0.959 . S
C503 C502 1.517 . S
C503 O551 1.468 . S
C503 H564 0.980 . S
C504 C505 1.349 . S
C504 C509 1.367 . S
C504 O551 1.408 . S
C505 C504 1.349 . S
C505 C506 1.407 . S
C505 H568 0.930 . S
C506 C505 1.407 . S
C506 C507 1.449 . S
C506 C510 1.535 . S
C507 C506 1.449 . S
C507 C508 1.384 . S
C507 C532 1.553 . S
C508 C507 1.384 . S
C508 C509 1.364 . S
C508 C511 1.450 . S
C509 C504 1.367 . S
C509 C508 1.364 . S
C509 H569 0.931 . S
C510 C506 1.535 . S
C510 H570 0.959 . S
C510 H571 0.961 . S
C510 H572 0.959 . S
C511 C508 1.450 . S
C511 H573 0.960 . S
C511 H574 0.960 . S
C511 H575 0.960 . S
C512 C513 1.309 . S
C512 C517 1.304 . S
C512 O550 1.435 . S
C513 C512 1.309 . S
C513 C514 1.476 . S
C513 H577 0.930 . S
C514 C513 1.476 . S
C514 C515 1.400 . S
C514 C518 1.567 . S
C515 C514 1.400 . S
C515 C516 1.373 . S
C515 C537 1.432 . S
C516 C515 1.373 . S
C516 C517 1.339 . S
C516 C519 1.530 . S
C517 C512 1.304 . S
C517 C516 1.339 . S
C517 H578 0.930 . S
C518 C514 1.567 . S
C518 H579 0.961 . S
C518 H580 0.960 . S
C518 H581 0.958 . S
C519 C516 1.530 . S
C519 H582 0.961 . S
C519 H583 0.960 . S
C519 H584 0.960 . S
C520 C521 1.530 . S
C520 H586 0.961 . S
C520 H587 0.961 . S
C520 H588 0.959 . S
C521 C520 1.530 . S
C521 O549 1.412 . S
C521 H585 0.980 . S
C522 C523 1.288 . S
C522 C527 1.377 . S
C522 O549 1.393 . S
C523 C522 1.288 . S
C523 C524 1.369 . S
C523 H589 0.932 . S
C524 C523 1.369 . S
C524 C525 1.398 . S
C524 C528 1.527 . S
C525 C524 1.398 . S
C525 C526 1.380 . S
C525 C539 1.497 . S
C526 C525 1.380 . S
C526 C527 1.383 . S
C526 C529 1.603 . S
C527 C522 1.377 . S
C527 C526 1.383 . S
C527 H590 0.929 . S
C528 C524 1.527 . S
C528 H591 0.961 . S
C528 H592 0.959 . S
C528 H593 0.959 . S
C529 C526 1.603 . S
C529 H594 0.960 . S
C529 H595 0.962 . S
C529 H596 0.961 . S
C530 C497 1.587 . S
C530 C531 1.360 . S
C530 C543 1.412 . S
C531 C530 1.360 . S
C531 C532 1.365 . S
C531 H597 0.929 . S
C532 C507 1.553 . S
C532 C531 1.365 . S
C532 C533 1.404 . S
C533 C532 1.404 . S
C533 C534 1.395 . S
C533 C544 1.451 . S
C534 C533 1.395 . S
C534 C535 1.322 . S
C534 H598 0.930 . S
C535 C534 1.322 . S
C535 C536 1.459 . S
C535 H599 0.929 . S
C536 C535 1.459 . S
C536 C537 1.445 . S
C536 C545 1.395 . S
C537 C515 1.432 . S
C537 C536 1.445 . S
C537 C538 1.370 . S
C538 C537 1.370 . S
C538 C539 1.438 . S
C538 H600 0.930 . S
C539 C525 1.497 . S
C539 C538 1.438 . S
C539 C540 1.360 . S
C540 C539 1.360 . S
C540 C541 1.401 . S
C540 C545 1.446 . S
C541 C540 1.401 . S
C541 C542 1.347 . S
C541 H601 0.929 . S
C542 C541 1.347 . S
C542 C543 1.455 . S
C542 H602 0.930 . S
C543 C530 1.412 . S
C543 C542 1.455 . S
C543 C544 1.331 . S
C544 C533 1.451 . S
C544 C543 1.331 . S
C544 C545 1.497 . S
C545 C536 1.395 . S
C545 C540 1.446 . S
C545 C544 1.497 . S
C546 C547 1.582 . S
C546 H603 0.962 . S
C546 H604 0.959 . S
C546 H605 0.958 . S
C547 C546 1.582 . S
C547 O550 1.458 . S
C547 H576 0.980 . S
O548 C493 1.426 . S
O548 C494 1.334 . S
O549 C521 1.412 . S
O549 C522 1.393 . S
O550 C512 1.435 . S
O550 C547 1.458 . S
O551 C503 1.468 . S
O551 C504 1.408 . S
H552 C493 0.980 . S
H553 C492 0.959 . S
H554 C492 0.959 . S
H555 C492 0.960 . S
H556 C495 0.929 . S
H557 C499 0.929 . S
H558 C500 0.959 . S
H559 C500 0.961 . S
H560 C500 0.961 . S
H561 C501 0.960 . S
H562 C501 0.960 . S
H563 C501 0.961 . S
H564 C503 0.980 . S
H565 C502 0.961 . S
H566 C502 0.960 . S
H567 C502 0.959 . S
H568 C505 0.930 . S
H569 C509 0.931 . S
H570 C510 0.959 . S
H571 C510 0.961 . S
H572 C510 0.959 . S
H573 C511 0.960 . S
H574 C511 0.960 . S
H575 C511 0.960 . S
H576 C547 0.980 . S
H577 C513 0.930 . S
H578 C517 0.930 . S
H579 C518 0.961 . S
H580 C518 0.960 . S
H581 C518 0.958 . S
H582 C519 0.961 . S
H583 C519 0.960 . S
H584 C519 0.960 . S
H585 C521 0.980 . S
H586 C520 0.961 . S
H587 C520 0.961 . S
H588 C520 0.959 . S
H589 C523 0.932 . S
H590 C527 0.929 . S
H591 C528 0.961 . S
H592 C528 0.959 . S
H593 C528 0.959 . S
H594 C529 0.960 . S
H595 C529 0.962 . S
H596 C529 0.961 . S
H597 C531 0.929 . S
H598 C534 0.930 . S
H599 C535 0.929 . S
H600 C538 0.930 . S
H601 C541 0.929 . S
H602 C542 0.930 . S
H603 C546 0.962 . S
H604 C546 0.959 . S
H605 C546 0.958 . S
C606 C607 1.391 . S
C606 C608 1.394 . S
C606 H622 0.931 . S
C607 C606 1.391 . S
C607 C611 1.376 1_655 S
C608 C606 1.394 . S
C608 C609 1.369 . S
C608 C612 1.531 . S
C609 C608 1.369 . S
C609 C610 1.410 1_655 S
C609 C617 1.503 . S
C610 C609 1.410 1_455 S
C610 C611 1.392 . S
C610 C613 1.511 . S
C611 C607 1.376 1_455 S
C611 C610 1.392 . S
C611 H623 0.929 . S
C612 C608 1.531 . S
C612 H624 0.960 . S
C612 H625 0.962 . S
C612 H626 0.960 . S
C613 C610 1.511 . S
C613 H627 0.961 . S
C613 H628 0.961 . S
C613 H629 0.961 . S
C614 C615 1.370 1_655 S
C614 C616 1.363 . S
C614 H630 0.931 . S
C615 C614 1.370 1_455 S
C615 C619 1.408 . S
C616 C614 1.363 . S
C616 C617 1.370 . S
C616 C620 1.524 . S
C617 C609 1.503 . S
C617 C616 1.370 . S
C617 C618 1.403 1_655 S
C618 C617 1.403 1_455 S
C618 C619 1.404 . S
C618 C621 1.539 . S
C619 C615 1.408 . S
C619 C618 1.404 . S
C619 H631 0.930 . S
C620 C616 1.524 . S
C620 H632 0.956 . S
C620 H633 0.961 . S
C620 H634 0.961 . S
C621 C618 1.539 . S
C621 H635 0.958 . S
C621 H636 0.961 . S
C621 H637 0.960 . S
H622 C606 0.931 . S
H623 C611 0.929 . S
H624 C612 0.960 . S
H625 C612 0.962 . S
H626 C612 0.960 . S
H627 C613 0.961 . S
H628 C613 0.961 . S
H629 C613 0.961 . S
H630 C614 0.931 . S
H631 C619 0.930 . S
H632 C620 0.956 . S
H633 C620 0.961 . S
H634 C620 0.961 . S
H635 C621 0.958 . S
H636 C621 0.961 . S
H637 C621 0.960 . S
C638 C639 1.391 . S
C638 C640 1.394 . S
C638 H654 0.931 . S
C639 C638 1.391 . S
C639 C643 1.376 1_545 S
C640 C638 1.394 . S
C640 C641 1.369 . S
C640 C644 1.531 . S
C641 C640 1.369 . S
C641 C642 1.414 . S
C641 C649 1.503 . S
C642 C641 1.414 . S
C642 C643 1.386 1_545 S
C642 C645 1.513 1_545 S
C643 C639 1.376 1_565 S
C643 C642 1.386 1_565 S
C643 H655 0.929 . S
C644 C640 1.531 . S
C644 H656 0.960 . S
C644 H657 0.962 . S
C644 H658 0.960 . S
C645 C642 1.513 1_565 S
C645 H659 0.961 . S
C645 H660 0.961 . S
C645 H661 0.961 1_565 S
C646 C647 1.370 . S
C646 C648 1.361 1_545 S
C646 H662 0.931 1_545 S
C647 C646 1.370 . S
C647 C651 1.408 . S
C648 C646 1.361 1_565 S
C648 C649 1.368 1_565 S
C648 C652 1.529 . S
C649 C641 1.503 . S
C649 C648 1.368 1_545 S
C649 C650 1.403 . S
C650 C649 1.403 . S
C650 C651 1.404 . S
C650 C653 1.539 . S
C651 C647 1.408 . S
C651 C650 1.404 . S
C651 H663 0.930 . S
C652 C648 1.529 . S
C652 H664 0.956 . S
C652 H665 0.961 . S
C652 H666 0.961 . S
C653 C650 1.539 . S
C653 H667 0.958 . S
C653 H668 0.961 . S
C653 H669 0.960 . S
H654 C638 0.931 . S
H655 C643 0.929 . S
H656 C644 0.960 . S
H657 C644 0.962 . S
H658 C644 0.960 . S
H659 C645 0.961 . S
H660 C645 0.961 . S
H661 C645 0.961 1_545 S
H662 C646 0.931 1_565 S
H663 C651 0.930 . S
H664 C652 0.956 . S
H665 C652 0.961 . S
H666 C652 0.961 . S
H667 C653 0.958 . S
H668 C653 0.961 . S
H669 C653 0.960 . S
C670 C671 1.391 . S
C670 C672 1.394 . S
C670 H686 0.931 . S
C671 C670 1.391 . S
C671 C675 1.376 . S
C672 C670 1.394 . S
C672 C673 1.369 . S
C672 C676 1.531 . S
C673 C672 1.369 . S
C673 C674 1.410 . S
C673 C681 1.503 . S
C674 C673 1.410 . S
C674 C675 1.392 . S
C674 C677 1.511 . S
C675 C671 1.376 . S
C675 C674 1.392 . S
C675 H687 0.929 . S
C676 C672 1.531 . S
C676 H688 0.960 . S
C676 H689 0.962 . S
C676 H690 0.960 . S
C677 C674 1.511 . S
C677 H691 0.961 . S
C677 H692 0.961 . S
C677 H693 0.961 . S
C678 C679 1.370 . S
C678 C680 1.363 . S
C678 H694 0.931 . S
C679 C678 1.370 . S
C679 C683 1.408 . S
C680 C678 1.363 . S
C680 C681 1.370 . S
C680 C684 1.524 . S
C681 C673 1.503 . S
C681 C680 1.370 . S
C681 C682 1.403 . S
C682 C681 1.403 . S
C682 C683 1.404 . S
C682 C685 1.539 . S
C683 C679 1.408 . S
C683 C682 1.404 . S
C683 H695 0.930 . S
C684 C680 1.524 . S
C684 H696 0.956 . S
C684 H697 0.961 . S
C684 H698 0.961 . S
C685 C682 1.539 . S
C685 H699 0.958 . S
C685 H700 0.961 . S
C685 H701 0.960 . S
H686 C670 0.931 . S
H687 C675 0.929 . S
H688 C676 0.960 . S
H689 C676 0.962 . S
H690 C676 0.960 . S
H691 C677 0.961 . S
H692 C677 0.961 . S
H693 C677 0.961 . S
H694 C678 0.931 . S
H695 C683 0.930 . S
H696 C684 0.956 . S
H697 C684 0.961 . S
H698 C684 0.961 . S
H699 C685 0.958 . S
H700 C685 0.961 . S
H701 C685 0.960 . S
C702 C703 1.391 . S
C702 C704 1.394 . S
C702 H718 0.931 . S
C703 C702 1.391 . S
C703 C707 1.376 . S
C704 C702 1.394 . S
C704 C705 1.369 . S
C704 C708 1.531 . S
C705 C704 1.369 . S
C705 C706 1.410 . S
C705 C713 1.503 . S
C706 C705 1.410 . S
C706 C707 1.392 . S
C706 C709 1.511 1_455 S
C707 C703 1.376 . S
C707 C706 1.392 . S
C707 H719 0.929 . S
C708 C704 1.531 . S
C708 H720 0.960 . S
C708 H721 0.962 . S
C708 H722 0.960 . S
C709 C706 1.511 1_655 S
C709 H723 0.961 . S
C709 H724 0.961 . S
C709 H725 0.961 . S
C710 C711 1.370 . S
C710 C712 1.363 . S
C710 H726 0.931 1_455 S
C711 C710 1.370 . S
C711 C715 1.408 . S
C712 C710 1.363 . S
C712 C713 1.370 . S
C712 C716 1.524 1_455 S
C713 C705 1.503 . S
C713 C712 1.370 . S
C713 C714 1.403 . S
C714 C713 1.403 . S
C714 C715 1.404 . S
C714 C717 1.539 . S
C715 C711 1.408 . S
C715 C714 1.404 . S
C715 H727 0.930 . S
C716 C712 1.524 1_655 S
C716 H728 0.956 1_655 S
C716 H729 0.961 . S
C716 H730 0.961 . S
C717 C714 1.539 . S
C717 H731 0.958 . S
C717 H732 0.961 . S
C717 H733 0.960 . S
H718 C702 0.931 . S
H719 C707 0.929 . S
H720 C708 0.960 . S
H721 C708 0.962 . S
H722 C708 0.960 . S
H723 C709 0.961 . S
H724 C709 0.961 . S
H725 C709 0.961 . S
H726 C710 0.931 1_655 S
H727 C715 0.930 . S
H728 C716 0.956 1_455 S
H729 C716 0.961 . S
H730 C716 0.961 . S
H731 C717 0.958 . S
H732 C717 0.961 . S
H733 C717 0.960 . S
C734 C735 1.391 . S
C734 C736 1.394 . S
C734 H750 0.931 . S
C735 C734 1.391 . S
C735 C739 1.376 . S
C736 C734 1.394 . S
C736 C737 1.369 . S
C736 C740 1.531 . S
C737 C736 1.369 . S
C737 C738 1.410 . S
C737 C745 1.503 . S
C738 C737 1.410 . S
C738 C739 1.392 . S
C738 C741 1.511 . S
C739 C735 1.376 . S
C739 C738 1.392 . S
C739 H751 0.929 . S
C740 C736 1.531 . S
C740 H752 0.960 . S
C740 H753 0.962 . S
C740 H754 0.960 . S
C741 C738 1.511 . S
C741 H755 0.961 . S
C741 H756 0.961 . S
C741 H757 0.961 . S
C742 C743 1.370 . S
C742 C744 1.363 . S
C742 H758 0.931 . S
C743 C742 1.370 . S
C743 C747 1.408 . S
C744 C742 1.363 . S
C744 C745 1.370 . S
C744 C748 1.524 . S
C745 C737 1.503 . S
C745 C744 1.370 . S
C745 C746 1.403 . S
C746 C745 1.403 . S
C746 C747 1.404 . S
C746 C749 1.539 1_545 S
C747 C743 1.408 . S
C747 C746 1.404 . S
C747 H759 0.930 1_545 S
C748 C744 1.524 . S
C748 H760 0.956 . S
C748 H761 0.961 . S
C748 H762 0.961 . S
C749 C746 1.539 1_565 S
C749 H763 0.958 . S
C749 H764 0.961 . S
C749 H765 0.960 . S
H750 C734 0.931 . S
H751 C739 0.929 . S
H752 C740 0.960 . S
H753 C740 0.962 . S
H754 C740 0.960 . S
H755 C741 0.961 . S
H756 C741 0.961 . S
H757 C741 0.961 . S
H758 C742 0.931 . S
H759 C747 0.930 1_565 S
H760 C748 0.956 . S
H761 C748 0.961 . S
H762 C748 0.961 . S
H763 C749 0.958 . S
H764 C749 0.961 . S
H765 C749 0.960 . S
C766 C767 1.391 . S
C766 C768 1.394 . S
C766 H782 0.931 . S
C767 C766 1.391 . S
C767 C771 1.376 . S
C768 C766 1.394 . S
C768 C769 1.369 . S
C768 C772 1.531 . S
C769 C768 1.369 . S
C769 C770 1.410 . S
C769 C777 1.503 . S
C770 C769 1.410 . S
C770 C771 1.392 . S
C770 C773 1.511 . S
C771 C767 1.376 . S
C771 C770 1.392 . S
C771 H783 0.929 . S
C772 C768 1.531 . S
C772 H784 0.960 . S
C772 H785 0.962 . S
C772 H786 0.960 . S
C773 C770 1.511 . S
C773 H787 0.961 . S
C773 H788 0.961 . S
C773 H789 0.961 . S
C774 C775 1.370 . S
C774 C776 1.363 . S
C774 H790 0.931 . S
C775 C774 1.370 . S
C775 C779 1.408 . S
C776 C774 1.363 . S
C776 C777 1.370 . S
C776 C780 1.524 . S
C777 C769 1.503 . S
C777 C776 1.370 . S
C777 C778 1.403 . S
C778 C777 1.403 . S
C778 C779 1.404 . S
C778 C781 1.539 . S
C779 C775 1.408 . S
C779 C778 1.404 . S
C779 H791 0.930 . S
C780 C776 1.524 . S
C780 H792 0.956 . S
C780 H793 0.961 . S
C780 H794 0.961 . S
C781 C778 1.539 . S
C781 H795 0.958 . S
C781 H796 0.961 . S
C781 H797 0.960 . S
H782 C766 0.931 . S
H783 C771 0.929 . S
H784 C772 0.960 . S
H785 C772 0.962 . S
H786 C772 0.960 . S
H787 C773 0.961 . S
H788 C773 0.961 . S
H789 C773 0.961 . S
H790 C774 0.931 . S
H791 C779 0.930 . S
H792 C780 0.956 . S
H793 C780 0.961 . S
H794 C780 0.961 . S
H795 C781 0.958 . S
H796 C781 0.961 . S
H797 C781 0.960 . S
C798 C799 1.391 . S
C798 C800 1.394 . S
C798 H814 0.931 . S
C799 C798 1.391 . S
C799 C803 1.376 . S
C800 C798 1.394 . S
C800 C801 1.369 . S
C800 C804 1.531 . S
C801 C800 1.369 . S
C801 C802 1.410 . S
C801 C809 1.503 . S
C802 C801 1.410 . S
C802 C803 1.392 . S
C802 C805 1.511 . S
C803 C799 1.376 . S
C803 C802 1.392 . S
C803 H815 0.929 . S
C804 C800 1.531 . S
C804 H816 0.960 . S
C804 H817 0.962 . S
C804 H818 0.960 . S
C805 C802 1.511 . S
C805 H819 0.961 . S
C805 H820 0.961 . S
C805 H821 0.961 . S
C806 C807 1.370 . S
C806 C808 1.363 . S
C806 H822 0.931 . S
C807 C806 1.370 . S
C807 C811 1.408 . S
C808 C806 1.363 . S
C808 C809 1.370 . S
C808 C812 1.524 . S
C809 C801 1.503 . S
C809 C808 1.370 . S
C809 C810 1.403 . S
C810 C809 1.403 . S
C810 C811 1.404 . S
C810 C813 1.539 . S
C811 C807 1.408 . S
C811 C810 1.404 . S
C811 H823 0.930 . S
C812 C808 1.524 . S
C812 H824 0.956 . S
C812 H825 0.974 . S
C812 H826 0.961 1_545 S
C813 C810 1.539 . S
C813 H827 0.958 . S
C813 H828 0.961 . S
C813 H829 0.960 . S
H814 C798 0.931 . S
H815 C803 0.929 . S
H816 C804 0.960 . S
H817 C804 0.962 . S
H818 C804 0.960 . S
H819 C805 0.961 . S
H820 C805 0.961 . S
H821 C805 0.961 . S
H822 C806 0.931 . S
H823 C811 0.930 . S
H824 C812 0.956 . S
H825 C812 0.974 . S
H826 C812 0.961 1_565 S
H827 C813 0.958 . S
H828 C813 0.961 . S
H829 C813 0.960 . S
C830 C831 1.391 . S
C830 C832 1.394 . S
C830 H846 0.931 . S
C831 C830 1.391 . S
C831 C835 1.376 . S
C832 C830 1.394 . S
C832 C833 1.369 1_554 S
C832 C836 1.531 . S
C833 C832 1.369 1_556 S
C833 C834 1.410 . S
C833 C841 1.503 . S
C834 C833 1.410 . S
C834 C835 1.392 1_556 S
C834 C837 1.511 . S
C835 C831 1.376 . S
C835 C834 1.392 1_554 S
C835 H847 0.937 . S
C836 C832 1.531 . S
C836 H848 0.960 . S
C836 H849 0.962 . S
C836 H850 0.960 . S
C837 C834 1.511 . S
C837 H851 0.961 . S
C837 H852 0.961 . S
C837 H853 0.961 . S
C838 C839 1.370 . S
C838 C840 1.363 . S
C838 H854 0.931 . S
C839 C838 1.370 . S
C839 C843 1.408 . S
C840 C838 1.363 . S
C840 C841 1.370 . S
C840 C844 1.524 . S
C841 C833 1.503 . S
C841 C840 1.370 . S
C841 C842 1.403 . S
C842 C841 1.403 . S
C842 C843 1.404 . S
C842 C845 1.558 . S
C843 C839 1.408 . S
C843 C842 1.404 . S
C843 H855 0.930 . S
C844 C840 1.524 . S
C844 H856 0.956 . S
C844 H857 0.961 . S
C844 H858 0.961 . S
C845 C842 1.558 . S
C845 H859 0.939 1_556 S
C845 H860 0.969 . S
C845 H861 0.953 1_556 S
H846 C830 0.931 . S
H847 C835 0.937 . S
H848 C836 0.960 . S
H849 C836 0.962 . S
H850 C836 0.960 . S
H851 C837 0.961 . S
H852 C837 0.961 . S
H853 C837 0.961 . S
H854 C838 0.931 . S
H855 C843 0.930 . S
H856 C844 0.956 . S
H857 C844 0.961 . S
H858 C844 0.961 . S
H859 C845 0.939 1_554 S
H860 C845 0.969 . S
H861 C845 0.953 1_554 S
C862 C863 1.391 . S
C862 C864 1.394 . S
C862 H878 0.931 . S
C863 C862 1.391 . S
C863 C867 1.376 1_655 S
C864 C862 1.394 . S
C864 C865 1.369 . S
C864 C868 1.531 . S
C865 C864 1.369 . S
C865 C866 1.410 1_655 S
C865 C873 1.503 1_655 S
C866 C865 1.410 1_455 S
C866 C867 1.392 . S
C866 C869 1.511 . S
C867 C863 1.376 1_455 S
C867 C866 1.392 . S
C867 H879 0.929 . S
C868 C864 1.531 . S
C868 H880 0.960 . S
C868 H881 0.962 . S
C868 H882 0.960 . S
C869 C866 1.511 . S
C869 H883 0.961 . S
C869 H884 0.961 . S
C869 H885 0.961 . S
C870 C871 1.370 1_655 S
C870 C872 1.363 . S
C870 H886 0.931 . S
C871 C870 1.370 1_455 S
C871 C875 1.408 . S
C872 C870 1.363 . S
C872 C873 1.370 1_655 S
C872 C876 1.524 . S
C873 C865 1.503 1_455 S
C873 C872 1.370 1_455 S
C873 C874 1.403 . S
C874 C873 1.403 . S
C874 C875 1.404 . S
C874 C877 1.539 . S
C875 C871 1.408 . S
C875 C874 1.404 . S
C875 H887 0.930 . S
C876 C872 1.524 . S
C876 H888 0.956 . S
C876 H889 0.961 . S
C876 H890 0.961 . S
C877 C874 1.539 . S
C877 H891 0.958 . S
C877 H892 0.961 . S
C877 H893 0.960 . S
H878 C862 0.931 . S
H879 C867 0.929 . S
H880 C868 0.960 . S
H881 C868 0.962 . S
H882 C868 0.960 . S
H883 C869 0.961 . S
H884 C869 0.961 . S
H885 C869 0.961 . S
H886 C870 0.931 . S
H887 C875 0.930 . S
H888 C876 0.956 . S
H889 C876 0.961 . S
H890 C876 0.961 . S
H891 C877 0.958 . S
H892 C877 0.961 . S
H893 C877 0.960 . S
C894 C895 1.391 . S
C894 C896 1.394 . S
C894 H910 0.931 . S
C895 C894 1.391 . S
C895 C899 1.376 1_545 S
C896 C894 1.394 . S
C896 C897 1.369 . S
C896 C900 1.531 . S
C897 C896 1.369 . S
C897 C898 1.410 1_545 S
C897 C905 1.503 . S
C898 C897 1.410 1_565 S
C898 C899 1.392 . S
C898 C901 1.511 . S
C899 C895 1.376 1_565 S
C899 C898 1.392 . S
C899 H911 0.929 . S
C900 C896 1.531 . S
C900 H912 0.960 . S
C900 H913 0.962 . S
C900 H914 0.960 . S
C901 C898 1.511 . S
C901 H915 0.961 . S
C901 H916 0.961 . S
C901 H917 0.961 . S
C902 C903 1.370 . S
C902 C904 1.363 . S
C902 H918 0.920 1_545 S
C903 C902 1.370 . S
C903 C907 1.408 . S
C904 C902 1.363 . S
C904 C905 1.370 . S
C904 C908 1.524 1_545 S
C905 C897 1.503 . S
C905 C904 1.370 . S
C905 C906 1.403 . S
C906 C905 1.403 . S
C906 C907 1.404 . S
C906 C909 1.539 . S
C907 C903 1.408 . S
C907 C906 1.404 . S
C907 H919 0.930 . S
C908 C904 1.524 1_565 S
C908 H920 0.956 . S
C908 H921 0.961 . S
C908 H922 0.961 . S
C909 C906 1.539 . S
C909 H923 0.958 . S
C909 H924 0.961 . S
C909 H925 0.960 . S
H910 C894 0.931 . S
H911 C899 0.929 . S
H912 C900 0.960 . S
H913 C900 0.962 . S
H914 C900 0.960 . S
H915 C901 0.961 . S
H916 C901 0.961 . S
H917 C901 0.961 . S
H918 C902 0.920 1_565 S
H919 C907 0.930 . S
H920 C908 0.956 . S
H921 C908 0.961 . S
H922 C908 0.961 . S
H923 C909 0.958 . S
H924 C909 0.961 . S
H925 C909 0.960 . S
C926 C927 1.391 . S
C926 C928 1.394 . S
C926 H942 0.931 . S
C927 C926 1.391 . S
C927 C931 1.376 1_554 S
C928 C926 1.394 . S
C928 C929 1.369 1_554 S
C928 C932 1.531 . S
C929 C928 1.369 1_556 S
C929 C930 1.410 . S
C929 C937 1.503 . S
C930 C929 1.410 . S
C930 C931 1.392 . S
C930 C933 1.511 . S
C931 C927 1.376 1_556 S
C931 C930 1.392 . S
C931 H943 0.929 . S
C932 C928 1.531 . S
C932 H944 0.960 1_554 S
C932 H945 0.962 . S
C932 H946 0.960 . S
C933 C930 1.511 . S
C933 H947 0.961 . S
C933 H948 0.961 . S
C933 H949 0.961 . S
C934 C935 1.370 . S
C934 C936 1.363 . S
C934 H950 0.931 . S
C935 C934 1.370 . S
C935 C939 1.408 . S
C936 C934 1.363 . S
C936 C937 1.370 . S
C936 C940 1.524 . S
C937 C929 1.503 . S
C937 C936 1.370 . S
C937 C938 1.403 . S
C938 C937 1.403 . S
C938 C939 1.404 . S
C938 C941 1.539 . S
C939 C935 1.408 . S
C939 C938 1.404 . S
C939 H951 0.930 . S
C940 C936 1.524 . S
C940 H952 0.956 1_556 S
C940 H953 0.961 . S
C940 H954 0.961 . S
C941 C938 1.539 . S
C941 H955 0.958 . S
C941 H956 0.961 . S
C941 H957 0.960 . S
H942 C926 0.931 . S
H943 C931 0.929 . S
H944 C932 0.960 1_556 S
H945 C932 0.962 . S
H946 C932 0.960 . S
H947 C933 0.961 . S
H948 C933 0.961 . S
H949 C933 0.961 . S
H950 C934 0.931 . S
H951 C939 0.930 . S
H952 C940 0.956 1_554 S
H953 C940 0.961 . S
H954 C940 0.961 . S
H955 C941 0.958 . S
H956 C941 0.961 . S
H957 C941 0.960 . S
C958 C959 1.391 . S
C958 C960 1.394 . S
C958 H974 0.931 . S
C959 C958 1.391 . S
C959 C963 1.376 . S
C960 C958 1.394 . S
C960 C961 1.369 . S
C960 C964 1.531 . S
C961 C960 1.369 . S
C961 C962 1.410 . S
C961 C969 1.503 . S
C962 C961 1.410 . S
C962 C963 1.392 . S
C962 C965 1.511 . S
C963 C959 1.376 . S
C963 C962 1.392 . S
C963 H975 0.929 . S
C964 C960 1.531 . S
C964 H976 0.960 . S
C964 H977 0.962 . S
C964 H978 0.960 . S
C965 C962 1.511 . S
C965 H979 0.961 . S
C965 H980 0.961 . S
C965 H981 0.961 . S
C966 C967 1.360 1_655 S
C966 C968 1.348 1_655 S
C966 H982 0.957 . S
C967 C966 1.360 1_455 S
C967 C971 1.408 . S
C968 C966 1.348 1_455 S
C968 C969 1.370 . S
C968 C972 1.524 1_455 S
C969 C961 1.503 . S
C969 C968 1.370 . S
C969 C970 1.403 . S
C970 C969 1.403 . S
C970 C971 1.404 . S
C970 C973 1.539 . S
C971 C967 1.408 . S
C971 C970 1.404 . S
C971 H983 0.930 . S
C972 C968 1.524 1_655 S
C972 H984 0.956 . S
C972 H985 0.961 . S
C972 H986 0.961 . S
C973 C970 1.539 . S
C973 H987 0.958 . S
C973 H988 0.961 . S
C973 H989 0.960 . S
H974 C958 0.931 . S
H975 C963 0.929 . S
H976 C964 0.960 . S
H977 C964 0.962 . S
H978 C964 0.960 . S
H979 C965 0.961 . S
H980 C965 0.961 . S
H981 C965 0.961 . S
H982 C966 0.957 . S
H983 C971 0.930 . S
H984 C972 0.956 . S
H985 C972 0.961 . S
H986 C972 0.961 . S
H987 C973 0.958 . S
H988 C973 0.961 . S
H989 C973 0.960 . S
C615 C319 1.152 . S
C607 C29 1.478 . S
C639 C137 1.479 . S
C647 C433 1.180 . S
C671 C225 1.242 . S
C679 C493 0.920 . S
C703 C49 1.330 . S
C711 C293 1.115 . S
C743 C407 1.108 . S
C735 C117 1.296 . S
C767 C205 1.399 . S
C775 C503 0.838 . S
C807 C389 0.791 . S
C799 C233 1.424 . S
C831 C57 1.330 . S
C839 C521 1.152 . S
C871 C265 0.988 1_455 S
C863 C108 1.205 . S
C903 C379 0.940 . S
C895 C196 1.223 . S
C935 C547 1.191 . S
C927 C20 1.507 . S
C959 C145 1.433 . S
C967 C275 0.778 . S
