# Generated by pormake.
# Topology rtl, (3,6)-cn, num edge types: 1
# Building blocks:
#     Node 0, Type 0, BuildingBlock: CUQRIR_clean_linker_1, # of connection points: 3
#     Node 1, Type 0, BuildingBlock: CUQRIR_clean_linker_1, # of connection points: 3
#     Node 2, Type 0, BuildingBlock: CUQRIR_clean_linker_1, # of connection points: 3
#     Node 3, Type 0, BuildingBlock: CUQRIR_clean_linker_1, # of connection points: 3
#     Node 4, Type 1, BuildingBlock: CIFDUS_clean_sbu_1, # of connection points: 6
#     Node 5, Type 1, BuildingBlock: CIFDUS_clean_sbu_1, # of connection points: 6
#     Edge 6, Type (0, 1), BuildingBlock: XUDNAN_clean_linker_2, # of connection points: 2
#     Edge 7, Type (0, 1), BuildingBlock: XUDNAN_clean_linker_2, # of connection points: 2
#     Edge 8, Type (0, 1), BuildingBlock: XUDNAN_clean_linker_2, # of connection points: 2
#     Edge 9, Type (0, 1), BuildingBlock: XUDNAN_clean_linker_2, # of connection points: 2
#     Edge 10, Type (0, 1), BuildingBlock: XUDNAN_clean_linker_2, # of connection points: 2
#     Edge 11, Type (0, 1), BuildingBlock: XUDNAN_clean_linker_2, # of connection points: 2
#     Edge 12, Type (0, 1), BuildingBlock: XUDNAN_clean_linker_2, # of connection points: 2
#     Edge 13, Type (0, 1), BuildingBlock: XUDNAN_clean_linker_2, # of connection points: 2
#     Edge 14, Type (0, 1), BuildingBlock: XUDNAN_clean_linker_2, # of connection points: 2
#     Edge 15, Type (0, 1), BuildingBlock: XUDNAN_clean_linker_2, # of connection points: 2
#     Edge 16, Type (0, 1), BuildingBlock: XUDNAN_clean_linker_2, # of connection points: 2
#     Edge 17, Type (0, 1), BuildingBlock: XUDNAN_clean_linker_2, # of connection points: 2
# Relax obj value: 0.023
# Max RMSD: 0.122
# Mean RMSD: 0.101
data_MOF--net-rtl--node1-CIFDUS_clean_sbu_1--node2-CUQRIR_clean_linker_1--edge1-XUDNAN_clean_linker_2
_symmetry_space_group_name_H-M    P1
_symmetry_Int_Tables_number       1
_symmetry_cell_setting            triclinic
loop_
_symmetry_equiv_pos_as_xyz
'x, y, z'
_cell_length_a     32.601136
_cell_length_b     32.955395
_cell_length_c     20.003926
_cell_angle_alpha  89.896081
_cell_angle_beta   98.042141
_cell_angle_gamma 90.621745
loop_
_atom_site_label
_atom_site_type_symbol
_atom_site_fract_x
_atom_site_fract_y
_atom_site_fract_z
_atom_type_partial_charge
C0 C 0.2344 0.80298 0.04836 0.0
N1 N 0.20906 0.83301 0.06452 0.0
N2 N 0.25292 0.78414 0.10492 0.0
C3 C 0.24246 0.79282 0.97794 0.0
C4 C 0.2388 0.80403 0.15594 0.0
N5 N 0.21263 0.83373 0.13175 0.0
C6 C 0.25112 0.79542 0.22995 0.0
H7 H 0.21935 0.76988 0.95585 0.0
H8 H 0.27346 0.77958 0.97774 0.0
H9 H 0.24011 0.82021 0.94537 0.0
H10 H 0.26666 0.82261 0.25488 0.0
H11 H 0.27244 0.76946 0.23918 0.0
H12 H 0.22287 0.78936 0.25373 0.0
C13 C 0.72987 0.7299 0.66211 0.0
N14 N 0.69864 0.7054 0.6339 0.0
N15 N 0.75195 0.74411 0.61461 0.0
C16 C 0.73683 0.74246 0.73512 0.0
C17 C 0.73307 0.72755 0.55628 0.0
N18 N 0.70001 0.70423 0.56758 0.0
C19 C 0.74976 0.73154 0.49006 0.0
H20 H 0.70698 0.74435 0.75559 0.0
H21 H 0.75317 0.77219 0.74181 0.0
H22 H 0.75615 0.71931 0.76458 0.0
H23 H 0.78378 0.73672 0.49865 0.0
H24 H 0.73553 0.75817 0.46219 0.0
H25 H 0.74291 0.70393 0.45866 0.0
C26 C 0.81106 0.23891 0.05598 0.0
N27 N 0.83659 0.20867 0.04316 0.0
N28 N 0.79013 0.25345 0.99766 0.0
C29 C 0.80772 0.25509 0.12526 0.0
C30 C 0.80379 0.23066 0.94909 0.0
N31 N 0.83194 0.2034 0.9768 0.0
C32 C 0.78992 0.23522 0.87456 0.0
H33 H 0.78297 0.23798 0.14636 0.0
H34 H 0.79955 0.2877 0.12307 0.0
H35 H 0.83714 0.25102 0.15975 0.0
H36 H 0.81148 0.25642 0.85348 0.0
H37 H 0.75819 0.24772 0.86473 0.0
H38 H 0.79059 0.2058 0.84801 0.0
C39 C 0.31279 0.30038 0.44623 0.0
N40 N 0.34228 0.32672 0.47455 0.0
N41 N 0.29018 0.28586 0.49299 0.0
C42 C 0.30708 0.28806 0.37307 0.0
C43 C 0.30695 0.30446 0.55105 0.0
N44 N 0.33944 0.32878 0.5403 0.0
C45 C 0.29089 0.29908 0.61769 0.0
H46 H 0.29771 0.31487 0.3412 0.0
H47 H 0.28306 0.26411 0.36148 0.0
H48 H 0.33699 0.27737 0.35939 0.0
H49 H 0.3058 0.27231 0.64416 0.0
H50 H 0.25707 0.29346 0.61067 0.0
H51 H 0.29742 0.32633 0.65005 0.0
O52 O 0.99625 0.05502 0.47192 0.0
Mn53 Mn 0.02114 0.01872 0.55473 0.0
O54 O 0.94602 0.01855 0.41313 0.0
Mn55 Mn 0.96745 0.97211 0.45224 0.0
O56 O 0.04719 0.98447 0.64096 0.0
O57 O 0.06943 0.06067 0.56871 0.0
Mn58 Mn 0.07689 0.06484 0.65822 0.0
O59 O 0.98415 0.04992 0.61443 0.0
O60 O 0.10488 0.01836 0.68157 0.0
O61 O 0.05798 0.98703 0.49375 0.0
O62 O 0.0131 0.95228 0.42036 0.0
O63 O 0.09463 0.11278 0.62992 0.0
O64 O 0.03022 0.07212 0.69934 0.0
C65 C 0.94348 0.9475 0.53176 0.0
C66 C 0.96535 0.0517 0.42482 0.0
C67 C 0.08169 0.9872 0.68148 0.0
C68 C 0.08118 0.09885 0.57032 0.0
C69 C 0.99314 0.06704 0.67202 0.0
C70 C 0.04985 0.96263 0.4434 0.0
O71 O 0.9735 0.97504 0.54189 0.0
O72 O 0.93041 0.93579 0.4705 0.0
O73 O 0.53407 0.5584 0.13607 0.0
Mn74 Mn 0.51868 0.5175 0.05518 0.0
O75 O 0.6011 0.55328 0.16199 0.0
Mn76 Mn 0.59169 0.49865 0.15082 0.0
O77 O 0.50104 0.47651 0.97391 0.0
O78 O 0.46114 0.54499 0.04517 0.0
Mn79 Mn 0.44872 0.53907 0.95608 0.0
O80 O 0.54183 0.55825 0.98903 0.0
O81 O 0.43404 0.48584 0.94323 0.0
O82 O 0.49778 0.47694 0.12405 0.0
O83 O 0.55488 0.47336 0.20121 0.0
O84 O 0.41875 0.58184 0.97338 0.0
O85 O 0.48895 0.55725 0.90591 0.0
C86 C 0.61017 0.46757 0.07147 0.0
C87 C 0.56844 0.57229 0.16639 0.0
C88 C 0.46602 0.46473 0.94143 0.0
C89 C 0.44086 0.57898 0.03235 0.0
C90 C 0.52565 0.56783 0.92918 0.0
C91 C 0.51685 0.46462 0.18115 0.0
O92 O 0.57473 0.48689 0.06511 0.0
O93 O 0.63377 0.46949 0.12918 0.0
H94 H 0.20947 0.28988 0.51014 0.0
H95 H 0.30359 0.20838 0.45995 0.0
H96 H 0.25258 0.15142 0.44929 0.0
H97 H 0.16854 0.21902 0.61782 0.0
H98 H 0.11617 0.23687 0.59816 0.0
H99 H 0.15896 0.27088 0.59208 0.0
H100 H 0.12876 0.28625 0.46789 0.0
H101 H 0.08637 0.25133 0.47301 0.0
H102 H 0.11909 0.24514 0.40821 0.0
H103 H 0.19234 0.10242 0.45415 0.0
H104 H 0.13357 0.06471 0.49146 0.0
H105 H 0.07926 0.17818 0.54027 0.0
C106 C 0.21904 0.26003 0.49642 0.0
C107 C 0.26009 0.25327 0.48519 0.0
C108 C 0.27193 0.21393 0.46778 0.0
C109 C 0.24317 0.1816 0.46145 0.0
C110 C 0.20271 0.18917 0.47306 0.0
C111 C 0.19094 0.22736 0.49125 0.0
C112 C 0.14744 0.22668 0.50935 0.0
C113 C 0.1478 0.23906 0.58373 0.0
C114 C 0.11872 0.25398 0.46174 0.0
C115 C 0.13625 0.18219 0.49809 0.0
C116 C 0.16832 0.16102 0.47646 0.0
C117 C 0.16667 0.1188 0.46966 0.0
C118 C 0.13267 0.09754 0.48962 0.0
C119 C 0.1012 0.11856 0.51685 0.0
C120 C 0.10196 0.16148 0.51695 0.0
H121 H 0.32973 0.78156 0.0684 0.0
H122 H 0.23801 0.71041 0.15468 0.0
H123 H 0.28623 0.65228 0.16976 0.0
H124 H 0.36026 0.70063 0.97002 0.0
H125 H 0.41361 0.71719 0.97779 0.0
H126 H 0.37351 0.75354 0.98308 0.0
H127 H 0.41173 0.77694 0.09919 0.0
H128 H 0.45129 0.73956 0.09522 0.0
H129 H 0.42294 0.74049 0.16639 0.0
H130 H 0.34288 0.60095 0.16888 0.0
H131 H 0.39567 0.55657 0.1307 0.0
H132 H 0.44903 0.66004 0.03969 0.0
C133 C 0.32 0.75362 0.09032 0.0
C134 C 0.28045 0.7501 0.11059 0.0
C135 C 0.26845 0.71335 0.13927 0.0
C136 C 0.29572 0.68049 0.14847 0.0
C137 C 0.33481 0.68491 0.12832 0.0
C138 C 0.34653 0.7203 0.09849 0.0
C139 C 0.38797 0.7157 0.07358 0.0
C140 C 0.38356 0.7221 0.99658 0.0
C141 C 0.4204 0.74491 0.11084 0.0
C142 C 0.39753 0.67192 0.09303 0.0
C143 C 0.36702 0.655 0.12622 0.0
C144 C 0.36735 0.614 0.14406 0.0
C145 C 0.39797 0.58906 0.12338 0.0
C146 C 0.42715 0.60513 0.08417 0.0
C147 C 0.42819 0.6474 0.07219 0.0
H148 H 0.75011 0.81874 0.55991 0.0
H149 H 0.82754 0.73591 0.68759 0.0
H150 H 0.88495 0.78691 0.6999 0.0
H151 H 0.82799 0.857 0.47158 0.0
H152 H 0.80793 0.90781 0.46514 0.0
H153 H 0.77352 0.86554 0.47205 0.0
H154 H 0.74921 0.89937 0.57642 0.0
H155 H 0.78449 0.94134 0.57086 0.0
H156 H 0.78679 0.91271 0.64815 0.0
H157 H 0.93636 0.84422 0.68429 0.0
H158 H 0.97623 0.89987 0.63862 0.0
H159 H 0.86228 0.94793 0.53305 0.0
C160 C 0.77911 0.81178 0.59098 0.0
C161 C 0.78489 0.7738 0.62294 0.0
C162 C 0.82297 0.76516 0.66312 0.0
C163 C 0.85545 0.79395 0.67051 0.0
C164 C 0.84884 0.83147 0.63845 0.0
C165 C 0.81142 0.84039 0.59972 0.0
C166 C 0.81268 0.88162 0.56697 0.0
C167 C 0.80512 0.87775 0.48939 0.0
C168 C 0.78143 0.91046 0.59215 0.0
C169 C 0.85685 0.89446 0.59236 0.0
C170 C 0.87747 0.86523 0.63341 0.0
C171 C 0.92024 0.86798 0.65415 0.0
C172 C 0.94269 0.9001 0.62911 0.0
C173 C 0.92209 0.92896 0.58442 0.0
C174 C 0.87846 0.92729 0.56967 0.0
H175 H 0.72081 0.26193 0.05643 0.0
H176 H 0.79573 0.32022 0.92114 0.0
H177 H 0.74704 0.37781 0.90656 0.0
H178 H 0.61895 0.29563 0.97411 0.0
H179 H 0.59973 0.304 0.05315 0.0
H180 H 0.6379 0.26551 0.04701 0.0
H181 H 0.68687 0.29828 0.14582 0.0
H182 H 0.64845 0.33605 0.15346 0.0
H183 H 0.7002 0.35136 0.14158 0.0
H184 H 0.69426 0.43194 0.91617 0.0
H185 H 0.64711 0.48084 0.95929 0.0
H186 H 0.60551 0.38704 0.08629 0.0
C187 C 0.72651 0.28672 0.02325 0.0
C188 C 0.76146 0.28661 0.98894 0.0
C189 C 0.76852 0.31959 0.94655 0.0
C190 C 0.74102 0.35228 0.93798 0.0
C191 C 0.70649 0.35141 0.97203 0.0
C192 C 0.69939 0.3196 1.01433 0.0
C193 C 0.66239 0.32772 0.05017 0.0
C194 C 0.62768 0.29635 0.02986 0.0
C195 C 0.67525 0.32843 0.12729 0.0
C196 C 0.65025 0.36951 0.0226 0.0
C197 C 0.67568 0.38244 0.97682 0.0
C198 C 0.67338 0.4218 0.95048 0.0
C199 C 0.64603 0.44928 0.97428 0.0
C200 C 0.62141 0.43719 0.02369 0.0
C201 C 0.62238 0.39636 0.04575 0.0
H202 H 0.13345 0.83212 0.15708 0.0
H203 H 0.25054 0.89584 0.20248 0.0
H204 H 0.22214 0.93729 0.28841 0.0
H205 H 0.06612 0.9192 0.18313 0.0
H206 H 0.03015 0.88749 0.22069 0.0
H207 H 0.05872 0.86682 0.15806 0.0
H208 H 0.086 0.81009 0.24214 0.0
H209 H 0.05838 0.83117 0.30553 0.0
H210 H 0.11351 0.82372 0.32368 0.0
H211 H 0.18184 0.96823 0.37538 0.0
H212 H 0.13124 0.98915 0.45032 0.0
H213 H 0.04222 0.90237 0.34958 0.0
C214 C 0.15244 0.85562 0.18406 0.0
C215 C 0.19377 0.86155 0.17322 0.0
C216 C 0.21858 0.89158 0.21029 0.0
C217 C 0.20276 0.91502 0.25903 0.0
C218 C 0.16214 0.90771 0.2703 0.0
C219 C 0.13717 0.87901 0.23333 0.0
C220 C 0.0954 0.87558 0.25754 0.0
C221 C 0.06055 0.88803 0.20153 0.0
C222 C 0.08791 0.83259 0.28379 0.0
C223 C 0.10106 0.90624 0.31442 0.0
C224 C 0.13956 0.92471 0.321 0.0
C225 C 0.15147 0.95407 0.37051 0.0
C226 C 0.12274 0.96554 0.41324 0.0
C227 C 0.08276 0.94753 0.406 0.0
C228 C 0.07243 0.91699 0.3566 0.0
H229 H 0.71032 0.65127 0.7364 0.0
H230 H 0.61682 0.72001 0.61071 0.0
H231 H 0.56317 0.69314 0.67599 0.0
H232 H 0.64516 0.56203 0.75567 0.0
H233 H 0.6677 0.55316 0.84191 0.0
H234 H 0.6981 0.57696 0.78388 0.0
H235 H 0.71328 0.63771 0.86586 0.0
H236 H 0.68243 0.61439 0.9237 0.0
H237 H 0.67074 0.66493 0.89256 0.0
H238 H 0.52122 0.66181 0.75596 0.0
H239 H 0.48994 0.62261 0.84043 0.0
H240 H 0.60997 0.57224 0.91705 0.0
C241 C 0.67841 0.66032 0.72287 0.0
C242 C 0.66724 0.68759 0.66893 0.0
C243 C 0.62549 0.69896 0.65175 0.0
C244 C 0.5951 0.68401 0.68866 0.0
C245 C 0.60716 0.65769 0.74238 0.0
C246 C 0.64765 0.64546 0.7591 0.0
C247 C 0.65201 0.61661 0.81903 0.0
C248 C 0.6666 0.5747 0.7989 0.0
C249 C 0.68135 0.63449 0.87884 0.0
C250 C 0.60758 0.61486 0.83385 0.0
C251 C 0.58252 0.63899 0.78882 0.0
C252 C 0.54039 0.64259 0.79115 0.0
C253 C 0.52296 0.62013 0.83944 0.0
C254 C 0.54743 0.59415 0.88511 0.0
C255 C 0.59058 0.59206 0.88317 0.0
H256 H 0.81499 0.15027 0.12532 0.0
H257 H 0.91896 0.22017 0.07378 0.0
H258 H 0.96426 0.19076 0.17198 0.0
H259 H 0.83726 0.15959 0.30184 0.0
H260 H 0.82179 0.10853 0.32009 0.0
H261 H 0.79856 0.1333 0.24402 0.0
H262 H 0.8207 0.07431 0.17149 0.0
H263 H 0.84293 0.04894 0.24757 0.0
H264 H 0.87422 0.05929 0.18192 0.0
H265 H 0.99667 0.1557 0.28095 0.0
H266 H 0.01538 0.111 0.38049 0.0
H267 H 0.88895 0.06533 0.35819 0.0
C268 C 0.84755 0.15848 0.13425 0.0
C269 C 0.86405 0.18678 0.09236 0.0
C270 C 0.90641 0.19782 0.1053 0.0
C271 C 0.93204 0.18163 0.1611 0.0
C272 C 0.91456 0.15447 0.20295 0.0
C273 C 0.87341 0.14243 0.18928 0.0
C274 C 0.86201 0.11269 0.2413 0.0
C275 C 0.82789 0.12956 0.27903 0.0
C276 C 0.84923 0.07137 0.20862 0.0
C277 C 0.90291 0.11025 0.28697 0.0
C278 C 0.93295 0.13461 0.2646 0.0
C279 C 0.97337 0.13647 0.29882 0.0
C280 C 0.98365 0.11143 0.35568 0.0
C281 C 0.95357 0.08491 0.37685 0.0
C282 C 0.91256 0.08542 0.34313 0.0
H283 H 0.37064 0.30481 0.66831 0.0
H284 H 0.3702 0.40521 0.52755 0.0
H285 H 0.41763 0.44345 0.61207 0.0
H286 H 0.35272 0.37316 0.79887 0.0
H287 H 0.3793 0.34255 0.86577 0.0
H288 H 0.35495 0.3189 0.78918 0.0
H289 H 0.42501 0.28583 0.7742 0.0
H290 H 0.44969 0.31026 0.85014 0.0
H291 H 0.47015 0.31762 0.77177 0.0
H292 H 0.46405 0.471 0.71263 0.0
H293 H 0.48756 0.49572 0.82768 0.0
H294 H 0.4402 0.38625 0.91111 0.0
C295 C 0.37993 0.33497 0.65507 0.0
C296 C 0.3671 0.35146 0.59021 0.0
C297 C 0.38089 0.39099 0.57548 0.0
C298 C 0.4077 0.41308 0.62344 0.0
C299 C 0.41902 0.39601 0.68707 0.0
C300 C 0.40406 0.3586 0.70385 0.0
C301 C 0.41314 0.35092 0.77925 0.0
C302 C 0.37263 0.34612 0.81008 0.0
C303 C 0.44117 0.31395 0.79471 0.0
C304 C 0.43585 0.38982 0.80228 0.0
C305 C 0.44049 0.41451 0.74772 0.0
C306 C 0.46043 0.45203 0.75568 0.0
C307 C 0.47398 0.46564 0.82126 0.0
C308 C 0.46598 0.44262 0.87794 0.0
C309 C 0.44755 0.40383 0.86849 0.0
H310 H 0.66892 0.72901 0.44014 0.0
H311 H 0.66752 0.62842 0.58007 0.0
H312 H 0.61881 0.59139 0.49591 0.0
H313 H 0.56791 0.71875 0.33894 0.0
H314 H 0.58775 0.72599 0.26002 0.0
H315 H 0.61361 0.74962 0.33585 0.0
H316 H 0.68259 0.71521 0.31847 0.0
H317 H 0.65705 0.6923 0.24204 0.0
H318 H 0.68354 0.66094 0.30796 0.0
H319 H 0.57195 0.56446 0.39534 0.0
H320 H 0.54754 0.54041 0.27988 0.0
H321 H 0.59496 0.6502 0.19765 0.0
C322 C 0.65875 0.69913 0.45331 0.0
C323 C 0.67144 0.68229 0.51796 0.0
C324 C 0.65684 0.64303 0.53248 0.0
C325 C 0.6293 0.62159 0.48467 0.0
C326 C 0.61795 0.63902 0.42133 0.0
C327 C 0.63359 0.67618 0.40471 0.0
C328 C 0.62396 0.68431 0.32952 0.0
C329 C 0.59668 0.72192 0.31529 0.0
C330 C 0.66416 0.68841 0.29762 0.0
C331 C 0.60021 0.64595 0.30644 0.0
C332 C 0.59563 0.62107 0.36077 0.0
C333 C 0.57528 0.58371 0.3525 0.0
C334 C 0.56112 0.57052 0.2868 0.0
C335 C 0.56873 0.59393 0.23033 0.0
C336 C 0.58769 0.63247 0.24018 0.0
H337 H 0.90844 0.20912 0.94175 0.0
H338 H 0.79921 0.13256 0.92761 0.0
H339 H 0.82772 0.08809 0.84542 0.0
H340 H 0.92044 0.20716 0.77228 0.0
H341 H 0.97623 0.20538 0.78465 0.0
H342 H 0.94959 0.22842 0.84757 0.0
H343 H 0.98575 0.18031 0.93971 0.0
H344 H 0.01367 0.15809 0.87754 0.0
H345 H 0.98328 0.12626 0.92566 0.0
H346 H 0.86582 0.05669 0.75476 0.0
H347 H 0.91484 0.03526 0.67711 0.0
H348 H 0.9989 0.13256 0.75403 0.0
C349 C 0.89141 0.18217 0.92283 0.0
C350 C 0.85209 0.17359 0.94093 0.0
C351 C 0.82974 0.13888 0.91441 0.0
C352 C 0.84554 0.11382 0.86753 0.0
C353 C 0.88388 0.12394 0.84835 0.0
C354 C 0.90692 0.15681 0.87644 0.0
C355 C 0.94667 0.1619 0.84634 0.0
C356 C 0.94829 0.20316 0.81059 0.0
C357 C 0.98458 0.15629 0.90054 0.0
C358 C 0.94214 0.12729 0.79623 0.0
C359 C 0.9057 0.10576 0.79754 0.0
C360 C 0.89469 0.07307 0.75394 0.0
C361 C 0.92241 0.06134 0.70957 0.0
C362 C 0.96064 0.08211 0.70997 0.0
C363 C 0.97002 0.11585 0.75307 0.0
H364 H 0.33134 0.38086 0.37172 0.0
H365 H 0.42426 0.31344 0.50089 0.0
H366 H 0.47867 0.34111 0.43785 0.0
H367 H 0.37348 0.36643 0.2179 0.0
H368 H 0.36127 0.41652 0.18511 0.0
H369 H 0.32993 0.39316 0.2422 0.0
H370 H 0.3429 0.4548 0.32281 0.0
H371 H 0.37381 0.47859 0.26552 0.0
H372 H 0.39534 0.47077 0.35253 0.0
H373 H 0.52162 0.37319 0.35916 0.0
H374 H 0.55322 0.41186 0.27435 0.0
H375 H 0.43271 0.45934 0.19276 0.0
C376 C 0.36324 0.37211 0.38636 0.0
C377 C 0.37401 0.34496 0.44062 0.0
C378 C 0.41584 0.3343 0.45949 0.0
C379 C 0.44669 0.34974 0.42387 0.0
C380 C 0.435 0.37579 0.36963 0.0
C381 C 0.3944 0.38729 0.35122 0.0
C382 C 0.39035 0.4156 0.29061 0.0
C383 C 0.36208 0.3968 0.23038 0.0
C384 C 0.37468 0.45742 0.30899 0.0
C385 C 0.43507 0.41794 0.27744 0.0
C386 C 0.46008 0.39464 0.32383 0.0
C387 C 0.50245 0.39174 0.32288 0.0
C388 C 0.52008 0.41392 0.27434 0.0
C389 C 0.49554 0.43887 0.22695 0.0
C390 C 0.45224 0.44037 0.22792 0.0
H391 H 0.16306 0.8133 0.9428 0.0
H392 H 0.19866 0.91443 0.07813 0.0
H393 H 0.15465 0.95933 1.00231 0.0
H394 H 0.18326 0.87367 0.80272 0.0
H395 H 0.14484 0.84873 0.74263 0.0
H396 H 0.16912 0.82148 0.81538 0.0
H397 H 0.09666 0.80471 0.84837 0.0
H398 H 0.07229 0.83258 0.77614 0.0
H399 H 0.06176 0.84544 0.85957 0.0
H400 H 0.10957 0.99388 0.91226 0.0
H401 H 0.08349 0.02224 0.80135 0.0
H402 H 0.09256 0.90437 0.70839 0.0
C403 C 0.16198 0.84486 0.95666 0.0
C404 C 0.18338 0.85961 0.01871 0.0
C405 C 0.18062 0.90135 0.03398 0.0
C406 C 0.15598 0.92738 0.99046 0.0
C407 C 0.13582 0.91184 0.92985 0.0
C408 C 0.14001 0.87201 0.91137 0.0
C409 C 0.12277 0.86542 0.83741 0.0
C410 C 0.15703 0.85152 0.79716 0.0
C411 C 0.08619 0.83523 0.82997 0.0
C412 C 0.10842 0.90796 0.81738 0.0
C413 C 0.11479 0.93355 0.87277 0.0
C414 C 0.10475 0.97431 0.86842 0.0
C415 C 0.08993 0.99005 0.80516 0.0
C416 C 0.0866 0.96553 0.74645 0.0
C417 C 0.09455 0.92357 0.75261 0.0
loop_
_geom_bond_atom_site_label_1
_geom_bond_atom_site_label_2
_geom_bond_distance
_geom_bond_site_symmetry_2
_ccdc_geom_bond_type
C0 N1 1.317 . S
C0 N2 1.348 . S
C0 C3 1.485 1_554 S
N1 C0 1.317 . S
N1 N5 1.370 . S
N2 C0 1.348 . S
N2 C4 1.346 . S
C3 C0 1.485 1_556 S
C3 H7 0.960 . S
C3 H8 0.961 . S
C3 H9 0.960 . S
C4 N2 1.346 . S
C4 N5 1.307 . S
C4 C6 1.486 . S
N5 N1 1.370 . S
N5 C4 1.307 . S
C6 C4 1.486 . S
C6 H10 0.960 . S
C6 H11 0.960 . S
C6 H12 0.959 . S
H7 C3 0.960 . S
H8 C3 0.961 . S
H9 C3 0.960 . S
H10 C6 0.960 . S
H11 C6 0.960 . S
H12 C6 0.959 . S
C13 N14 1.317 . S
C13 N15 1.348 . S
C13 C16 1.485 . S
N14 C13 1.317 . S
N14 N18 1.370 . S
N15 C13 1.348 . S
N15 C17 1.346 . S
C16 C13 1.485 . S
C16 H20 0.960 . S
C16 H21 0.961 . S
C16 H22 0.960 . S
C17 N15 1.346 . S
C17 N18 1.307 . S
C17 C19 1.486 . S
N18 N14 1.370 . S
N18 C17 1.307 . S
C19 C17 1.486 . S
C19 H23 0.960 . S
C19 H24 0.960 . S
C19 H25 0.959 . S
H20 C16 0.960 . S
H21 C16 0.961 . S
H22 C16 0.960 . S
H23 C19 0.960 . S
H24 C19 0.960 . S
H25 C19 0.959 . S
C26 N27 1.317 . S
C26 N28 1.349 1_554 S
C26 C29 1.485 . S
N27 C26 1.317 . S
N27 N31 1.370 1_554 S
N28 C26 1.349 1_556 S
N28 C30 1.345 . S
C29 C26 1.485 . S
C29 H33 0.960 . S
C29 H34 0.961 . S
C29 H35 0.960 . S
C30 N28 1.345 . S
C30 N31 1.307 . S
C30 C32 1.486 . S
N31 N27 1.370 1_556 S
N31 C30 1.307 . S
C32 C30 1.486 . S
C32 H36 0.960 . S
C32 H37 0.960 . S
C32 H38 0.959 . S
H33 C29 0.960 . S
H34 C29 0.961 . S
H35 C29 0.960 . S
H36 C32 0.960 . S
H37 C32 0.960 . S
H38 C32 0.959 . S
C39 N40 1.317 . S
C39 N41 1.348 . S
C39 C42 1.485 . S
N40 C39 1.317 . S
N40 N44 1.370 . S
N41 C39 1.348 . S
N41 C43 1.346 . S
C42 C39 1.485 . S
C42 H46 0.960 . S
C42 H47 0.961 . S
C42 H48 0.960 . S
C43 N41 1.346 . S
C43 N44 1.307 . S
C43 C45 1.486 . S
N44 N40 1.370 . S
N44 C43 1.307 . S
C45 C43 1.486 . S
C45 H49 0.960 . S
C45 H50 0.960 . S
C45 H51 0.959 . S
H46 C42 0.960 . S
H47 C42 0.961 . S
H48 C42 0.960 . S
H49 C45 0.960 . S
H50 C45 0.960 . S
H51 C45 0.959 . S
O52 Mn53 2.163 1_655 S
O52 C66 1.244 . S
Mn53 O52 2.163 1_455 S
Mn53 O56 2.160 1_545 S
Mn53 O57 2.221 . S
Mn53 O59 2.163 1_455 S
Mn53 O61 2.160 1_545 S
Mn53 O71 2.221 1_445 S
O54 Mn55 2.087 1_545 S
O54 C66 1.256 . S
Mn55 O54 2.087 1_565 S
Mn55 O62 2.089 1_655 S
Mn55 O71 2.290 . S
Mn55 O72 2.251 . S
O56 Mn53 2.160 1_565 S
O56 C67 1.239 . S
O57 Mn53 2.221 . S
O57 Mn58 2.290 . S
O57 C68 1.278 . S
Mn58 O57 2.290 . S
Mn58 O60 2.089 . S
Mn58 O63 2.251 . S
Mn58 O64 2.087 . S
O59 Mn53 2.163 1_655 S
O59 C69 1.244 . S
O60 Mn58 2.089 . S
O60 C67 1.256 1_545 S
O61 Mn53 2.160 1_565 S
O61 C70 1.239 . S
O62 Mn55 2.089 1_455 S
O62 C70 1.256 . S
O63 Mn58 2.251 . S
O63 C68 1.241 . S
O64 Mn58 2.087 . S
O64 C69 1.256 1_455 S
C65 O71 1.278 . S
C65 O72 1.241 . S
C66 O52 1.244 . S
C66 O54 1.256 . S
C67 O56 1.239 . S
C67 O60 1.256 1_565 S
C68 O57 1.278 . S
C68 O63 1.241 . S
C69 O59 1.244 . S
C69 O64 1.256 1_655 S
C70 O61 1.239 . S
C70 O62 1.256 . S
O71 Mn53 2.221 1_665 S
O71 Mn55 2.290 . S
O71 C65 1.278 . S
O72 Mn55 2.251 . S
O72 C65 1.241 . S
O73 Mn74 2.163 . S
O73 C87 1.244 . S
Mn74 O73 2.163 . S
Mn74 O77 2.160 1_554 S
Mn74 O78 2.221 . S
Mn74 O80 2.163 1_554 S
Mn74 O82 2.160 . S
Mn74 O92 2.221 . S
O75 Mn76 2.087 . S
O75 C87 1.256 . S
Mn76 O75 2.087 . S
Mn76 O83 2.089 . S
Mn76 O92 2.290 . S
Mn76 O93 2.251 . S
O77 Mn74 2.160 1_556 S
O77 C88 1.239 . S
O78 Mn74 2.221 . S
O78 Mn79 2.290 1_554 S
O78 C89 1.278 . S
Mn79 O78 2.290 1_556 S
Mn79 O81 2.089 . S
Mn79 O84 2.251 . S
Mn79 O85 2.087 . S
O80 Mn74 2.163 1_556 S
O80 C90 1.244 . S
O81 Mn79 2.089 . S
O81 C88 1.256 . S
O82 Mn74 2.160 . S
O82 C91 1.239 . S
O83 Mn76 2.089 . S
O83 C91 1.256 . S
O84 Mn79 2.251 . S
O84 C89 1.241 1_556 S
O85 Mn79 2.087 . S
O85 C90 1.256 . S
C86 O92 1.278 . S
C86 O93 1.241 . S
C87 O73 1.244 . S
C87 O75 1.256 . S
C88 O77 1.239 . S
C88 O81 1.256 . S
C89 O78 1.278 . S
C89 O84 1.241 1_554 S
C90 O80 1.244 . S
C90 O85 1.256 . S
C91 O82 1.239 . S
C91 O83 1.256 . S
O92 Mn74 2.221 . S
O92 Mn76 2.290 . S
O92 C86 1.278 . S
O93 Mn76 2.251 . S
O93 C86 1.241 . S
H94 C106 0.930 . S
H95 C108 0.930 . S
H96 C109 0.930 . S
H97 C113 0.959 . S
H98 C113 0.959 . S
H99 C113 0.961 . S
H100 C114 0.960 . S
H101 C114 0.961 . S
H102 C114 0.959 . S
H103 C117 0.929 . S
H104 C118 0.931 . S
H105 C120 0.930 . S
C106 H94 0.930 . S
C106 C107 1.399 . S
C106 C111 1.399 . S
C107 C106 1.399 . S
C107 C108 1.376 . S
C108 H95 0.930 . S
C108 C107 1.376 . S
C108 C109 1.388 . S
C109 H96 0.930 . S
C109 C108 1.388 . S
C109 C110 1.390 . S
C110 C109 1.390 . S
C110 C111 1.394 . S
C110 C116 1.465 . S
C111 C106 1.399 . S
C111 C110 1.394 . S
C111 C112 1.516 . S
C112 C111 1.516 . S
C112 C113 1.502 . S
C112 C114 1.561 . S
C112 C115 1.526 . S
C113 H97 0.959 . S
C113 H98 0.959 . S
C113 H99 0.961 . S
C113 C112 1.502 . S
C114 H100 0.960 . S
C114 H101 0.961 . S
C114 H102 0.959 . S
C114 C112 1.561 . S
C115 C112 1.526 . S
C115 C116 1.396 . S
C115 C120 1.390 . S
C116 C110 1.465 . S
C116 C115 1.396 . S
C116 C117 1.399 . S
C117 H103 0.929 . S
C117 C116 1.399 . S
C117 C118 1.385 . S
C118 H104 0.931 . S
C118 C117 1.385 . S
C118 C119 1.389 . S
C119 C118 1.389 . S
C119 C120 1.387 . S
C120 H105 0.930 . S
C120 C115 1.390 . S
C120 C119 1.387 . S
H121 C133 0.930 . S
H122 C135 0.930 1_556 S
H123 C136 0.930 . S
H124 C140 0.959 . S
H125 C140 0.959 . S
H126 C140 0.961 . S
H127 C141 0.960 . S
H128 C141 0.961 . S
H129 C141 0.959 . S
H130 C144 0.929 . S
H131 C145 0.931 . S
H132 C147 0.930 . S
C133 H121 0.930 . S
C133 C134 1.399 . S
C133 C138 1.399 . S
C134 C133 1.399 . S
C134 C135 1.376 . S
C135 H122 0.930 1_554 S
C135 C134 1.376 . S
C135 C136 1.388 1_554 S
C136 H123 0.930 . S
C136 C135 1.388 1_556 S
C136 C137 1.390 1_556 S
C137 C136 1.390 1_554 S
C137 C138 1.394 . S
C137 C143 1.465 . S
C138 C133 1.399 . S
C138 C137 1.394 . S
C138 C139 1.516 . S
C139 C138 1.516 . S
C139 C140 1.502 . S
C139 C141 1.561 . S
C139 C142 1.526 . S
C140 H124 0.959 . S
C140 H125 0.959 . S
C140 H126 0.961 . S
C140 C139 1.502 . S
C141 H127 0.960 . S
C141 H128 0.961 . S
C141 H129 0.959 . S
C141 C139 1.561 . S
C142 C139 1.526 . S
C142 C143 1.396 . S
C142 C147 1.390 . S
C143 C137 1.465 . S
C143 C142 1.396 . S
C143 C144 1.399 1_554 S
C144 H130 0.929 . S
C144 C143 1.399 1_556 S
C144 C145 1.385 . S
C145 H131 0.931 . S
C145 C144 1.385 . S
C145 C146 1.389 1_556 S
C146 C145 1.389 1_554 S
C146 C147 1.387 . S
C147 H132 0.930 . S
C147 C142 1.390 . S
C147 C146 1.387 . S
H148 C160 0.930 . S
H149 C162 0.930 . S
H150 C163 0.930 . S
H151 C167 0.959 . S
H152 C167 0.959 . S
H153 C167 0.961 . S
H154 C168 0.960 . S
H155 C168 0.961 . S
H156 C168 0.959 . S
H157 C171 0.929 . S
H158 C172 0.931 . S
H159 C174 0.930 . S
C160 H148 0.930 . S
C160 C161 1.399 . S
C160 C165 1.399 . S
C161 C160 1.399 . S
C161 C162 1.376 . S
C162 H149 0.930 . S
C162 C161 1.376 . S
C162 C163 1.388 . S
C163 H150 0.930 . S
C163 C162 1.388 . S
C163 C164 1.390 . S
C164 C163 1.390 . S
C164 C165 1.394 . S
C164 C170 1.465 . S
C165 C160 1.399 . S
C165 C164 1.394 . S
C165 C166 1.516 . S
C166 C165 1.516 . S
C166 C167 1.502 . S
C166 C168 1.561 . S
C166 C169 1.526 . S
C167 H151 0.959 . S
C167 H152 0.959 . S
C167 H153 0.961 . S
C167 C166 1.502 . S
C168 H154 0.960 . S
C168 H155 0.961 . S
C168 H156 0.959 . S
C168 C166 1.561 . S
C169 C166 1.526 . S
C169 C170 1.396 . S
C169 C174 1.390 . S
C170 C164 1.465 . S
C170 C169 1.396 . S
C170 C171 1.399 . S
C171 H157 0.929 . S
C171 C170 1.399 . S
C171 C172 1.385 . S
C172 H158 0.931 . S
C172 C171 1.385 . S
C172 C173 1.389 . S
C173 C172 1.389 . S
C173 C174 1.387 . S
C174 H159 0.930 . S
C174 C169 1.390 . S
C174 C173 1.387 . S
H175 C187 0.930 . S
H176 C189 0.930 . S
H177 C190 0.930 . S
H178 C194 0.959 . S
H179 C194 0.959 . S
H180 C194 0.961 . S
H181 C195 0.960 . S
H182 C195 0.961 . S
H183 C195 0.959 . S
H184 C198 0.929 . S
H185 C199 0.931 . S
H186 C201 0.930 . S
C187 H175 0.930 . S
C187 C188 1.399 1_554 S
C187 C192 1.399 . S
C188 C187 1.399 1_556 S
C188 C189 1.376 . S
C189 H176 0.930 . S
C189 C188 1.376 . S
C189 C190 1.388 . S
C190 H177 0.930 . S
C190 C189 1.388 . S
C190 C191 1.390 . S
C191 C190 1.390 . S
C191 C192 1.394 1_556 S
C191 C197 1.465 . S
C192 C187 1.399 . S
C192 C191 1.394 1_554 S
C192 C193 1.516 . S
C193 C192 1.516 . S
C193 C194 1.502 . S
C193 C195 1.561 . S
C193 C196 1.526 . S
C194 H178 0.959 . S
C194 H179 0.959 . S
C194 H180 0.961 . S
C194 C193 1.502 . S
C195 H181 0.960 . S
C195 H182 0.961 . S
C195 H183 0.959 . S
C195 C193 1.561 . S
C196 C193 1.526 . S
C196 C197 1.396 1_554 S
C196 C201 1.390 . S
C197 C191 1.465 . S
C197 C196 1.396 1_556 S
C197 C198 1.399 . S
C198 H184 0.929 . S
C198 C197 1.399 . S
C198 C199 1.385 . S
C199 H185 0.931 . S
C199 C198 1.385 . S
C199 C200 1.389 1_556 S
C200 C199 1.389 1_554 S
C200 C201 1.387 . S
C201 H186 0.930 . S
C201 C196 1.390 . S
C201 C200 1.387 . S
H202 C214 0.930 . S
H203 C216 0.930 . S
H204 C217 0.930 . S
H205 C221 0.959 . S
H206 C221 0.959 . S
H207 C221 0.961 . S
H208 C222 0.960 . S
H209 C222 0.961 . S
H210 C222 0.959 . S
H211 C225 0.929 . S
H212 C226 0.931 . S
H213 C228 0.930 . S
C214 H202 0.930 . S
C214 C215 1.399 . S
C214 C219 1.399 . S
C215 C214 1.399 . S
C215 C216 1.376 . S
C216 H203 0.930 . S
C216 C215 1.376 . S
C216 C217 1.388 . S
C217 H204 0.930 . S
C217 C216 1.388 . S
C217 C218 1.390 . S
C218 C217 1.390 . S
C218 C219 1.394 . S
C218 C224 1.465 . S
C219 C214 1.399 . S
C219 C218 1.394 . S
C219 C220 1.516 . S
C220 C219 1.516 . S
C220 C221 1.502 . S
C220 C222 1.561 . S
C220 C223 1.526 . S
C221 H205 0.959 . S
C221 H206 0.959 . S
C221 H207 0.961 . S
C221 C220 1.502 . S
C222 H208 0.960 . S
C222 H209 0.961 . S
C222 H210 0.959 . S
C222 C220 1.561 . S
C223 C220 1.526 . S
C223 C224 1.396 . S
C223 C228 1.390 . S
C224 C218 1.465 . S
C224 C223 1.396 . S
C224 C225 1.399 . S
C225 H211 0.929 . S
C225 C224 1.399 . S
C225 C226 1.385 . S
C226 H212 0.931 . S
C226 C225 1.385 . S
C226 C227 1.389 . S
C227 C226 1.389 . S
C227 C228 1.387 . S
C228 H213 0.930 . S
C228 C223 1.390 . S
C228 C227 1.387 . S
H229 C241 0.930 . S
H230 C243 0.930 . S
H231 C244 0.930 . S
H232 C248 0.959 . S
H233 C248 0.959 . S
H234 C248 0.961 . S
H235 C249 0.960 . S
H236 C249 0.961 . S
H237 C249 0.959 . S
H238 C252 0.929 . S
H239 C253 0.931 . S
H240 C255 0.930 . S
C241 H229 0.930 . S
C241 C242 1.399 . S
C241 C246 1.399 . S
C242 C241 1.399 . S
C242 C243 1.376 . S
C243 H230 0.930 . S
C243 C242 1.376 . S
C243 C244 1.388 . S
C244 H231 0.930 . S
C244 C243 1.388 . S
C244 C245 1.390 . S
C245 C244 1.390 . S
C245 C246 1.394 . S
C245 C251 1.465 . S
C246 C241 1.399 . S
C246 C245 1.394 . S
C246 C247 1.516 . S
C247 C246 1.516 . S
C247 C248 1.502 . S
C247 C249 1.561 . S
C247 C250 1.526 . S
C248 H232 0.959 . S
C248 H233 0.959 . S
C248 H234 0.961 . S
C248 C247 1.502 . S
C249 H235 0.960 . S
C249 H236 0.961 . S
C249 H237 0.959 . S
C249 C247 1.561 . S
C250 C247 1.526 . S
C250 C251 1.396 . S
C250 C255 1.390 . S
C251 C245 1.465 . S
C251 C250 1.396 . S
C251 C252 1.399 . S
C252 H238 0.929 . S
C252 C251 1.399 . S
C252 C253 1.385 . S
C253 H239 0.931 . S
C253 C252 1.385 . S
C253 C254 1.389 . S
C254 C253 1.389 . S
C254 C255 1.387 . S
C255 H240 0.930 . S
C255 C250 1.390 . S
C255 C254 1.387 . S
H256 C268 0.930 . S
H257 C270 0.930 . S
H258 C271 0.930 . S
H259 C275 0.959 . S
H260 C275 0.959 . S
H261 C275 0.961 . S
H262 C276 0.960 . S
H263 C276 0.961 . S
H264 C276 0.959 . S
H265 C279 0.929 . S
H266 C280 0.931 1_455 S
H267 C282 0.930 . S
C268 H256 0.930 . S
C268 C269 1.399 . S
C268 C273 1.399 . S
C269 C268 1.399 . S
C269 C270 1.376 . S
C270 H257 0.930 . S
C270 C269 1.376 . S
C270 C271 1.388 . S
C271 H258 0.930 . S
C271 C270 1.388 . S
C271 C272 1.390 . S
C272 C271 1.390 . S
C272 C273 1.394 . S
C272 C278 1.465 . S
C273 C268 1.399 . S
C273 C272 1.394 . S
C273 C274 1.516 . S
C274 C273 1.516 . S
C274 C275 1.502 . S
C274 C276 1.561 . S
C274 C277 1.526 . S
C275 H259 0.959 . S
C275 H260 0.959 . S
C275 H261 0.961 . S
C275 C274 1.502 . S
C276 H262 0.960 . S
C276 H263 0.961 . S
C276 H264 0.959 . S
C276 C274 1.561 . S
C277 C274 1.526 . S
C277 C278 1.396 . S
C277 C282 1.390 . S
C278 C272 1.465 . S
C278 C277 1.396 . S
C278 C279 1.399 . S
C279 H265 0.929 . S
C279 C278 1.399 . S
C279 C280 1.385 . S
C280 H266 0.931 1_655 S
C280 C279 1.385 . S
C280 C281 1.389 . S
C281 C280 1.389 . S
C281 C282 1.387 . S
C282 H267 0.930 . S
C282 C277 1.390 . S
C282 C281 1.387 . S
H283 C295 0.930 . S
H284 C297 0.930 . S
H285 C298 0.930 . S
H286 C302 0.959 . S
H287 C302 0.959 . S
H288 C302 0.961 . S
H289 C303 0.960 . S
H290 C303 0.961 . S
H291 C303 0.959 . S
H292 C306 0.929 . S
H293 C307 0.931 . S
H294 C309 0.930 . S
C295 H283 0.930 . S
C295 C296 1.399 . S
C295 C300 1.399 . S
C296 C295 1.399 . S
C296 C297 1.376 . S
C297 H284 0.930 . S
C297 C296 1.376 . S
C297 C298 1.388 . S
C298 H285 0.930 . S
C298 C297 1.388 . S
C298 C299 1.390 . S
C299 C298 1.390 . S
C299 C300 1.394 . S
C299 C305 1.465 . S
C300 C295 1.399 . S
C300 C299 1.394 . S
C300 C301 1.516 . S
C301 C300 1.516 . S
C301 C302 1.502 . S
C301 C303 1.561 . S
C301 C304 1.526 . S
C302 H286 0.959 . S
C302 H287 0.959 . S
C302 H288 0.961 . S
C302 C301 1.502 . S
C303 H289 0.960 . S
C303 H290 0.961 . S
C303 H291 0.959 . S
C303 C301 1.561 . S
C304 C301 1.526 . S
C304 C305 1.396 . S
C304 C309 1.390 . S
C305 C299 1.465 . S
C305 C304 1.396 . S
C305 C306 1.399 . S
C306 H292 0.929 . S
C306 C305 1.399 . S
C306 C307 1.385 . S
C307 H293 0.931 . S
C307 C306 1.385 . S
C307 C308 1.389 . S
C308 C307 1.389 . S
C308 C309 1.387 . S
C309 H294 0.930 . S
C309 C304 1.390 . S
C309 C308 1.387 . S
H310 C322 0.930 . S
H311 C324 0.930 . S
H312 C325 0.930 . S
H313 C329 0.959 . S
H314 C329 0.959 . S
H315 C329 0.961 . S
H316 C330 0.960 . S
H317 C330 0.961 . S
H318 C330 0.959 . S
H319 C333 0.929 . S
H320 C334 0.931 . S
H321 C336 0.930 . S
C322 H310 0.930 . S
C322 C323 1.399 . S
C322 C327 1.399 . S
C323 C322 1.399 . S
C323 C324 1.376 . S
C324 H311 0.930 . S
C324 C323 1.376 . S
C324 C325 1.388 . S
C325 H312 0.930 . S
C325 C324 1.388 . S
C325 C326 1.390 . S
C326 C325 1.390 . S
C326 C327 1.394 . S
C326 C332 1.465 . S
C327 C322 1.399 . S
C327 C326 1.394 . S
C327 C328 1.516 . S
C328 C327 1.516 . S
C328 C329 1.502 . S
C328 C330 1.561 . S
C328 C331 1.526 . S
C329 H313 0.959 . S
C329 H314 0.959 . S
C329 H315 0.961 . S
C329 C328 1.502 . S
C330 H316 0.960 . S
C330 H317 0.961 . S
C330 H318 0.959 . S
C330 C328 1.561 . S
C331 C328 1.526 . S
C331 C332 1.396 . S
C331 C336 1.390 . S
C332 C326 1.465 . S
C332 C331 1.396 . S
C332 C333 1.399 . S
C333 H319 0.929 . S
C333 C332 1.399 . S
C333 C334 1.385 . S
C334 H320 0.931 . S
C334 C333 1.385 . S
C334 C335 1.389 . S
C335 C334 1.389 . S
C335 C336 1.387 . S
C336 H321 0.930 . S
C336 C331 1.390 . S
C336 C335 1.387 . S
H337 C349 0.930 . S
H338 C351 0.930 . S
H339 C352 0.930 . S
H340 C356 0.959 . S
H341 C356 0.959 . S
H342 C356 0.961 . S
H343 C357 0.960 . S
H344 C357 0.961 . S
H345 C357 0.959 . S
H346 C360 0.929 . S
H347 C361 0.931 . S
H348 C363 0.930 . S
C349 H337 0.930 . S
C349 C350 1.399 . S
C349 C354 1.399 . S
C350 C349 1.399 . S
C350 C351 1.376 . S
C351 H338 0.930 . S
C351 C350 1.376 . S
C351 C352 1.388 . S
C352 H339 0.930 . S
C352 C351 1.388 . S
C352 C353 1.390 . S
C353 C352 1.390 . S
C353 C354 1.394 . S
C353 C359 1.465 . S
C354 C349 1.399 . S
C354 C353 1.394 . S
C354 C355 1.516 . S
C355 C354 1.516 . S
C355 C356 1.502 . S
C355 C357 1.561 . S
C355 C358 1.526 . S
C356 H340 0.959 . S
C356 H341 0.959 . S
C356 H342 0.961 . S
C356 C355 1.502 . S
C357 H343 0.960 . S
C357 H344 0.961 . S
C357 H345 0.959 . S
C357 C355 1.561 . S
C358 C355 1.526 . S
C358 C359 1.396 . S
C358 C363 1.390 . S
C359 C353 1.465 . S
C359 C358 1.396 . S
C359 C360 1.399 . S
C360 H346 0.929 . S
C360 C359 1.399 . S
C360 C361 1.385 . S
C361 H347 0.931 . S
C361 C360 1.385 . S
C361 C362 1.389 . S
C362 C361 1.389 . S
C362 C363 1.387 . S
C363 H348 0.930 . S
C363 C358 1.390 . S
C363 C362 1.387 . S
H364 C376 0.930 . S
H365 C378 0.930 . S
H366 C379 0.930 . S
H367 C383 0.959 . S
H368 C383 0.959 . S
H369 C383 0.961 . S
H370 C384 0.960 . S
H371 C384 0.961 . S
H372 C384 0.959 . S
H373 C387 0.929 . S
H374 C388 0.931 . S
H375 C390 0.930 . S
C376 H364 0.930 . S
C376 C377 1.399 . S
C376 C381 1.399 . S
C377 C376 1.399 . S
C377 C378 1.376 . S
C378 H365 0.930 . S
C378 C377 1.376 . S
C378 C379 1.388 . S
C379 H366 0.930 . S
C379 C378 1.388 . S
C379 C380 1.390 . S
C380 C379 1.390 . S
C380 C381 1.394 . S
C380 C386 1.465 . S
C381 C376 1.399 . S
C381 C380 1.394 . S
C381 C382 1.516 . S
C382 C381 1.516 . S
C382 C383 1.502 . S
C382 C384 1.561 . S
C382 C385 1.526 . S
C383 H367 0.959 . S
C383 H368 0.959 . S
C383 H369 0.961 . S
C383 C382 1.502 . S
C384 H370 0.960 . S
C384 H371 0.961 . S
C384 H372 0.959 . S
C384 C382 1.561 . S
C385 C382 1.526 . S
C385 C386 1.396 . S
C385 C390 1.390 . S
C386 C380 1.465 . S
C386 C385 1.396 . S
C386 C387 1.399 . S
C387 H373 0.929 . S
C387 C386 1.399 . S
C387 C388 1.385 . S
C388 H374 0.931 . S
C388 C387 1.385 . S
C388 C389 1.389 . S
C389 C388 1.389 . S
C389 C390 1.387 . S
C390 H375 0.930 . S
C390 C385 1.390 . S
C390 C389 1.387 . S
H391 C403 0.930 . S
H392 C405 0.930 . S
H393 C406 0.930 . S
H394 C410 0.959 . S
H395 C410 0.959 . S
H396 C410 0.961 . S
H397 C411 0.960 . S
H398 C411 0.961 . S
H399 C411 0.959 . S
H400 C414 0.929 . S
H401 C415 0.931 1_545 S
H402 C417 0.930 . S
C403 H391 0.930 . S
C403 C404 1.399 . S
C403 C408 1.399 . S
C404 C403 1.399 . S
C404 C405 1.376 1_556 S
C405 H392 0.930 . S
C405 C404 1.376 1_554 S
C405 C406 1.388 1_554 S
C406 H393 0.930 . S
C406 C405 1.388 1_556 S
C406 C407 1.390 . S
C407 C406 1.390 . S
C407 C408 1.394 . S
C407 C413 1.465 . S
C408 C403 1.399 . S
C408 C407 1.394 . S
C408 C409 1.516 . S
C409 C408 1.516 . S
C409 C410 1.502 . S
C409 C411 1.561 . S
C409 C412 1.526 . S
C410 H394 0.959 . S
C410 H395 0.959 . S
C410 H396 0.961 . S
C410 C409 1.502 . S
C411 H397 0.960 . S
C411 H398 0.961 . S
C411 H399 0.959 . S
C411 C409 1.561 . S
C412 C409 1.526 . S
C412 C413 1.396 . S
C412 C417 1.390 . S
C413 C407 1.465 . S
C413 C412 1.396 . S
C413 C414 1.399 . S
C414 H400 0.929 . S
C414 C413 1.399 . S
C414 C415 1.385 . S
C415 H401 0.931 1_565 S
C415 C414 1.385 . S
C415 C416 1.389 . S
C416 C415 1.389 . S
C416 C417 1.387 . S
C417 H402 0.930 . S
C417 C412 1.390 . S
C417 C416 1.387 . S
C119 C68 1.214 . S
C107 N41 1.449 . S
C134 N2 1.451 . S
C146 C89 1.203 . S
C161 N15 1.608 . S
C173 C65 1.412 . S
C188 N28 1.609 . S
C200 C86 1.453 . S
C227 C70 1.483 . S
C215 N5 1.479 . S
C254 C90 1.498 . S
C242 N14 1.560 . S
C269 N27 1.540 . S
C281 C66 1.534 . S
C296 N44 1.503 . S
C308 C88 1.404 . S
C335 C87 1.468 . S
C323 N18 1.537 . S
C362 C69 1.550 . S
C350 N31 1.572 . S
C389 C91 1.423 . S
C377 N40 1.489 . S
C404 N1 1.502 1_556 S
C416 C67 1.406 . S
